# Generated by pormake.
# Topology unl, (4)-cn, num edge types: 1
# Building blocks:
#     Node 0, Type 0, BuildingBlock: QUQFOY_clean_sbu_3, # of connection points: 4
#     Node 1, Type 0, BuildingBlock: QUQFOY_clean_sbu_3, # of connection points: 4
#     Node 2, Type 0, BuildingBlock: QUQFOY_clean_sbu_3, # of connection points: 4
#     Node 3, Type 0, BuildingBlock: QUQFOY_clean_sbu_3, # of connection points: 4
#     Node 4, Type 0, BuildingBlock: QUQFOY_clean_sbu_3, # of connection points: 4
#     Node 5, Type 0, BuildingBlock: QUQFOY_clean_sbu_3, # of connection points: 4
#     Node 6, Type 0, BuildingBlock: QUQFOY_clean_sbu_3, # of connection points: 4
#     Node 7, Type 0, BuildingBlock: QUQFOY_clean_sbu_3, # of connection points: 4
#     Node 8, Type 0, BuildingBlock: QUQFOY_clean_sbu_3, # of connection points: 4
#     Node 9, Type 0, BuildingBlock: QUQFOY_clean_sbu_3, # of connection points: 4
#     Node 10, Type 0, BuildingBlock: QUQFOY_clean_sbu_3, # of connection points: 4
#     Node 11, Type 0, BuildingBlock: QUQFOY_clean_sbu_3, # of connection points: 4
#     Node 12, Type 0, BuildingBlock: QUQFOY_clean_sbu_3, # of connection points: 4
#     Node 13, Type 0, BuildingBlock: QUQFOY_clean_sbu_3, # of connection points: 4
#     Node 14, Type 0, BuildingBlock: QUQFOY_clean_sbu_3, # of connection points: 4
#     Node 15, Type 0, BuildingBlock: QUQFOY_clean_sbu_3, # of connection points: 4
#     Node 16, Type 0, BuildingBlock: QUQFOY_clean_sbu_3, # of connection points: 4
#     Node 17, Type 0, BuildingBlock: QUQFOY_clean_sbu_3, # of connection points: 4
#     Node 18, Type 0, BuildingBlock: QUQFOY_clean_sbu_3, # of connection points: 4
#     Node 19, Type 0, BuildingBlock: QUQFOY_clean_sbu_3, # of connection points: 4
#     Node 20, Type 0, BuildingBlock: QUQFOY_clean_sbu_3, # of connection points: 4
#     Node 21, Type 0, BuildingBlock: QUQFOY_clean_sbu_3, # of connection points: 4
#     Node 22, Type 0, BuildingBlock: QUQFOY_clean_sbu_3, # of connection points: 4
#     Node 23, Type 0, BuildingBlock: QUQFOY_clean_sbu_3, # of connection points: 4
#     Node 24, Type 0, BuildingBlock: QUQFOY_clean_sbu_3, # of connection points: 4
#     Node 25, Type 0, BuildingBlock: QUQFOY_clean_sbu_3, # of connection points: 4
#     Node 26, Type 0, BuildingBlock: QUQFOY_clean_sbu_3, # of connection points: 4
#     Node 27, Type 0, BuildingBlock: QUQFOY_clean_sbu_3, # of connection points: 4
#     Node 28, Type 0, BuildingBlock: QUQFOY_clean_sbu_3, # of connection points: 4
#     Node 29, Type 0, BuildingBlock: QUQFOY_clean_sbu_3, # of connection points: 4
#     Node 30, Type 0, BuildingBlock: QUQFOY_clean_sbu_3, # of connection points: 4
#     Node 31, Type 0, BuildingBlock: QUQFOY_clean_sbu_3, # of connection points: 4
#     Node 32, Type 0, BuildingBlock: QUQFOY_clean_sbu_3, # of connection points: 4
#     Node 33, Type 0, BuildingBlock: QUQFOY_clean_sbu_3, # of connection points: 4
#     Node 34, Type 0, BuildingBlock: QUQFOY_clean_sbu_3, # of connection points: 4
#     Node 35, Type 0, BuildingBlock: QUQFOY_clean_sbu_3, # of connection points: 4
#     Edge 36, Type (0, 0), BuildingBlock: KIFKEQ_clean_linker_1, # of connection points: 2
#     Edge 37, Type (0, 0), BuildingBlock: KIFKEQ_clean_linker_1, # of connection points: 2
#     Edge 38, Type (0, 0), BuildingBlock: KIFKEQ_clean_linker_1, # of connection points: 2
#     Edge 39, Type (0, 0), BuildingBlock: KIFKEQ_clean_linker_1, # of connection points: 2
#     Edge 40, Type (0, 0), BuildingBlock: KIFKEQ_clean_linker_1, # of connection points: 2
#     Edge 41, Type (0, 0), BuildingBlock: KIFKEQ_clean_linker_1, # of connection points: 2
#     Edge 42, Type (0, 0), BuildingBlock: KIFKEQ_clean_linker_1, # of connection points: 2
#     Edge 43, Type (0, 0), BuildingBlock: KIFKEQ_clean_linker_1, # of connection points: 2
#     Edge 44, Type (0, 0), BuildingBlock: KIFKEQ_clean_linker_1, # of connection points: 2
#     Edge 45, Type (0, 0), BuildingBlock: KIFKEQ_clean_linker_1, # of connection points: 2
#     Edge 46, Type (0, 0), BuildingBlock: KIFKEQ_clean_linker_1, # of connection points: 2
#     Edge 47, Type (0, 0), BuildingBlock: KIFKEQ_clean_linker_1, # of connection points: 2
#     Edge 48, Type (0, 0), BuildingBlock: KIFKEQ_clean_linker_1, # of connection points: 2
#     Edge 49, Type (0, 0), BuildingBlock: KIFKEQ_clean_linker_1, # of connection points: 2
#     Edge 50, Type (0, 0), BuildingBlock: KIFKEQ_clean_linker_1, # of connection points: 2
#     Edge 51, Type (0, 0), BuildingBlock: KIFKEQ_clean_linker_1, # of connection points: 2
#     Edge 52, Type (0, 0), BuildingBlock: KIFKEQ_clean_linker_1, # of connection points: 2
#     Edge 53, Type (0, 0), BuildingBlock: KIFKEQ_clean_linker_1, # of connection points: 2
#     Edge 54, Type (0, 0), BuildingBlock: KIFKEQ_clean_linker_1, # of connection points: 2
#     Edge 55, Type (0, 0), BuildingBlock: KIFKEQ_clean_linker_1, # of connection points: 2
#     Edge 56, Type (0, 0), BuildingBlock: KIFKEQ_clean_linker_1, # of connection points: 2
#     Edge 57, Type (0, 0), BuildingBlock: KIFKEQ_clean_linker_1, # of connection points: 2
#     Edge 58, Type (0, 0), BuildingBlock: KIFKEQ_clean_linker_1, # of connection points: 2
#     Edge 59, Type (0, 0), BuildingBlock: KIFKEQ_clean_linker_1, # of connection points: 2
#     Edge 60, Type (0, 0), BuildingBlock: KIFKEQ_clean_linker_1, # of connection points: 2
#     Edge 61, Type (0, 0), BuildingBlock: KIFKEQ_clean_linker_1, # of connection points: 2
#     Edge 62, Type (0, 0), BuildingBlock: KIFKEQ_clean_linker_1, # of connection points: 2
#     Edge 63, Type (0, 0), BuildingBlock: KIFKEQ_clean_linker_1, # of connection points: 2
#     Edge 64, Type (0, 0), BuildingBlock: KIFKEQ_clean_linker_1, # of connection points: 2
#     Edge 65, Type (0, 0), BuildingBlock: KIFKEQ_clean_linker_1, # of connection points: 2
#     Edge 66, Type (0, 0), BuildingBlock: KIFKEQ_clean_linker_1, # of connection points: 2
#     Edge 67, Type (0, 0), BuildingBlock: KIFKEQ_clean_linker_1, # of connection points: 2
#     Edge 68, Type (0, 0), BuildingBlock: KIFKEQ_clean_linker_1, # of connection points: 2
#     Edge 69, Type (0, 0), BuildingBlock: KIFKEQ_clean_linker_1, # of connection points: 2
#     Edge 70, Type (0, 0), BuildingBlock: KIFKEQ_clean_linker_1, # of connection points: 2
#     Edge 71, Type (0, 0), BuildingBlock: KIFKEQ_clean_linker_1, # of connection points: 2
#     Edge 72, Type (0, 0), BuildingBlock: KIFKEQ_clean_linker_1, # of connection points: 2
#     Edge 73, Type (0, 0), BuildingBlock: KIFKEQ_clean_linker_1, # of connection points: 2
#     Edge 74, Type (0, 0), BuildingBlock: KIFKEQ_clean_linker_1, # of connection points: 2
#     Edge 75, Type (0, 0), BuildingBlock: KIFKEQ_clean_linker_1, # of connection points: 2
#     Edge 76, Type (0, 0), BuildingBlock: KIFKEQ_clean_linker_1, # of connection points: 2
#     Edge 77, Type (0, 0), BuildingBlock: KIFKEQ_clean_linker_1, # of connection points: 2
#     Edge 78, Type (0, 0), BuildingBlock: KIFKEQ_clean_linker_1, # of connection points: 2
#     Edge 79, Type (0, 0), BuildingBlock: KIFKEQ_clean_linker_1, # of connection points: 2
#     Edge 80, Type (0, 0), BuildingBlock: KIFKEQ_clean_linker_1, # of connection points: 2
#     Edge 81, Type (0, 0), BuildingBlock: KIFKEQ_clean_linker_1, # of connection points: 2
#     Edge 82, Type (0, 0), BuildingBlock: KIFKEQ_clean_linker_1, # of connection points: 2
#     Edge 83, Type (0, 0), BuildingBlock: KIFKEQ_clean_linker_1, # of connection points: 2
#     Edge 84, Type (0, 0), BuildingBlock: KIFKEQ_clean_linker_1, # of connection points: 2
#     Edge 85, Type (0, 0), BuildingBlock: KIFKEQ_clean_linker_1, # of connection points: 2
#     Edge 86, Type (0, 0), BuildingBlock: KIFKEQ_clean_linker_1, # of connection points: 2
#     Edge 87, Type (0, 0), BuildingBlock: KIFKEQ_clean_linker_1, # of connection points: 2
#     Edge 88, Type (0, 0), BuildingBlock: KIFKEQ_clean_linker_1, # of connection points: 2
#     Edge 89, Type (0, 0), BuildingBlock: KIFKEQ_clean_linker_1, # of connection points: 2
#     Edge 90, Type (0, 0), BuildingBlock: KIFKEQ_clean_linker_1, # of connection points: 2
#     Edge 91, Type (0, 0), BuildingBlock: KIFKEQ_clean_linker_1, # of connection points: 2
#     Edge 92, Type (0, 0), BuildingBlock: KIFKEQ_clean_linker_1, # of connection points: 2
#     Edge 93, Type (0, 0), BuildingBlock: KIFKEQ_clean_linker_1, # of connection points: 2
#     Edge 94, Type (0, 0), BuildingBlock: KIFKEQ_clean_linker_1, # of connection points: 2
#     Edge 95, Type (0, 0), BuildingBlock: KIFKEQ_clean_linker_1, # of connection points: 2
#     Edge 96, Type (0, 0), BuildingBlock: KIFKEQ_clean_linker_1, # of connection points: 2
#     Edge 97, Type (0, 0), BuildingBlock: KIFKEQ_clean_linker_1, # of connection points: 2
#     Edge 98, Type (0, 0), BuildingBlock: KIFKEQ_clean_linker_1, # of connection points: 2
#     Edge 99, Type (0, 0), BuildingBlock: KIFKEQ_clean_linker_1, # of connection points: 2
#     Edge 100, Type (0, 0), BuildingBlock: KIFKEQ_clean_linker_1, # of connection points: 2
#     Edge 101, Type (0, 0), BuildingBlock: KIFKEQ_clean_linker_1, # of connection points: 2
#     Edge 102, Type (0, 0), BuildingBlock: KIFKEQ_clean_linker_1, # of connection points: 2
#     Edge 103, Type (0, 0), BuildingBlock: KIFKEQ_clean_linker_1, # of connection points: 2
#     Edge 104, Type (0, 0), BuildingBlock: KIFKEQ_clean_linker_1, # of connection points: 2
#     Edge 105, Type (0, 0), BuildingBlock: KIFKEQ_clean_linker_1, # of connection points: 2
#     Edge 106, Type (0, 0), BuildingBlock: KIFKEQ_clean_linker_1, # of connection points: 2
#     Edge 107, Type (0, 0), BuildingBlock: KIFKEQ_clean_linker_1, # of connection points: 2
# Relax obj value: 0.040
# Max RMSD: 0.119
# Mean RMSD: 0.119
data_MOF--net-unl--node1-QUQFOY_clean_sbu_3--edge1-KIFKEQ_clean_linker_1
_symmetry_space_group_name_H-M    P1
_symmetry_Int_Tables_number       1
_symmetry_cell_setting            triclinic
loop_
_symmetry_equiv_pos_as_xyz
'x, y, z'
_cell_length_a     68.83312
_cell_length_b     68.717771
_cell_length_c     43.107979
_cell_angle_alpha  90.070364
_cell_angle_beta   90.128175
_cell_angle_gamma 119.7594
loop_
_atom_site_label
_atom_site_type_symbol
_atom_site_fract_x
_atom_site_fract_y
_atom_site_fract_z
_atom_type_partial_charge
C0 C 0.15854 0.04722 0.09347 0.0
O1 O 0.14208 0.04458 0.10974 0.0
Cd2 Cd 0.1393 0.07684 0.12368 0.0
O3 O 0.17527 0.06676 0.08962 0.0
Cd4 Cd 0.18969 0.1057 0.10822 0.0
C5 C 0.15569 0.10607 0.05392 0.0
O6 O 0.1693 0.1023 0.15629 0.0
O7 O 0.1815 0.13312 0.13041 0.0
O8 O 0.22198 0.10584 0.13116 0.0
C9 C 0.17237 0.1221 0.1548 0.0
O10 O 0.14055 0.09426 0.07355 0.0
C11 C 0.23642 0.12397 0.11853 0.0
O12 O 0.17619 0.11255 0.05952 0.0
O13 O 0.22916 0.1334 0.10019 0.0
C14 C 0.92904 0.1071 0.08306 0.0
O15 O 0.92959 0.09038 0.09459 0.0
Cd16 Cd 0.8972 0.0582 0.11583 0.0
O17 O 0.91126 0.10841 0.08459 0.0
Cd18 Cd 0.87327 0.08685 0.10648 0.0
C19 C 0.86103 0.04617 0.05411 0.0
O20 O 0.87847 0.06889 0.15255 0.0
O21 O 0.84486 0.05493 0.13435 0.0
O22 O 0.87544 0.11896 0.1334 0.0
C23 C 0.85773 0.05495 0.15544 0.0
O24 O 0.87185 0.04023 0.07213 0.0
C25 C 0.85887 0.11833 0.11946 0.0
O26 O 0.8602 0.06402 0.05915 0.0
O27 O 0.84952 0.10357 0.09838 0.0
C28 C 0.86357 0.81638 0.08358 0.0
O29 O 0.87946 0.83248 0.0982 0.0
Cd30 Cd 0.91053 0.83013 0.1196 0.0
O31 O 0.8624 0.79731 0.08235 0.0
Cd32 Cd 0.88291 0.77921 0.10348 0.0
C33 C 0.92496 0.80988 0.0554 0.0
O34 O 0.89887 0.79863 0.15264 0.0
O35 O 0.9154 0.78268 0.13017 0.0
O36 O 0.85036 0.74868 0.12777 0.0
C37 C 0.91364 0.79269 0.1538 0.0
O38 O 0.93007 0.82531 0.07552 0.0
C39 C 0.85148 0.73312 0.11344 0.0
O40 O 0.90695 0.7911 0.05763 0.0
O41 O 0.86664 0.73902 0.09297 0.0
C42 C 0.03785 0.15905 0.38174 0.0
O43 O 0.03922 0.14352 0.36771 0.0
Cd44 Cd 0.07297 0.14653 0.34764 0.0
O45 O 0.05492 0.17857 0.38401 0.0
Cd46 Cd 0.09428 0.19748 0.36538 0.0
C47 C 0.10567 0.16651 0.41365 0.0
O48 O 0.09154 0.1787 0.31585 0.0
O49 O 0.12375 0.19464 0.33851 0.0
O50 O 0.09196 0.22946 0.34541 0.0
C51 C 0.11216 0.1846 0.31482 0.0
O52 O 0.09657 0.15142 0.3928 0.0
C53 C 0.10969 0.24414 0.35877 0.0
O54 O 0.10548 0.18492 0.41165 0.0
O55 O 0.11957 0.23704 0.37653 0.0
C56 C 0.81787 0.87702 0.37662 0.0
O57 O 0.83416 0.8937 0.36364 0.0
Cd58 Cd 0.83324 0.92659 0.34843 0.0
O59 O 0.79877 0.87576 0.37832 0.0
Cd60 Cd 0.78029 0.89707 0.35987 0.0
C61 C 0.80992 0.93419 0.41573 0.0
O62 O 0.80257 0.91633 0.31437 0.0
O63 O 0.78291 0.92979 0.3342 0.0
O64 O 0.75046 0.86522 0.33245 0.0
C65 C 0.79586 0.93049 0.31282 0.0
O66 O 0.82654 0.93972 0.39779 0.0
C67 C 0.73457 0.86514 0.34746 0.0
O68 O 0.79041 0.91851 0.40841 0.0
O69 O 0.73998 0.87942 0.36925 0.0
C70 C 0.09026 0.92692 0.37828 0.0
O71 O 0.07399 0.92712 0.36472 0.0
Cd72 Cd 0.0403 0.89361 0.35267 0.0
O73 O 0.09039 0.90855 0.38171 0.0
Cd74 Cd 0.06685 0.86861 0.36469 0.0
C75 C 0.03225 0.86411 0.42143 0.0
O76 O 0.04807 0.87132 0.31829 0.0
O77 O 0.03137 0.83982 0.34279 0.0
O78 O 0.0966 0.86798 0.33554 0.0
C79 C 0.03247 0.85107 0.31891 0.0
O80 O 0.02711 0.8754 0.40307 0.0
C81 C 0.09603 0.85164 0.35 0.0
O82 O 0.04718 0.85915 0.41415 0.0
O83 O 0.0825 0.8437 0.37261 0.0
C84 C 0.80969 0.93711 0.88255 0.0
O85 O 0.82645 0.93791 0.8691 0.0
Cd86 Cd 0.8261 0.90492 0.84958 0.0
O87 O 0.79109 0.91884 0.88327 0.0
Cd88 Cd 0.77495 0.88026 0.86279 0.0
C89 C 0.8057 0.87103 0.91419 0.0
O90 O 0.79576 0.88372 0.81504 0.0
O91 O 0.78048 0.85168 0.83837 0.0
O92 O 0.74405 0.88069 0.83624 0.0
C93 C 0.79072 0.86325 0.81483 0.0
O94 O 0.82147 0.88153 0.89479 0.0
C95 C 0.72872 0.86426 0.85092 0.0
O96 O 0.78659 0.8694 0.9103 0.0
O97 O 0.73487 0.85572 0.87226 0.0
C98 C 0.03961 0.87646 0.89193 0.0
O99 O 0.0389 0.89299 0.88005 0.0
Cd100 Cd 0.07098 0.92546 0.85938 0.0
O101 O 0.05764 0.87555 0.89133 0.0
Cd102 Cd 0.09586 0.89818 0.87001 0.0
C103 C 0.10679 0.93868 0.92174 0.0
O104 O 0.08928 0.91419 0.82279 0.0
O105 O 0.12308 0.93001 0.84055 0.0
O106 O 0.09476 0.86485 0.84826 0.0
C107 C 0.10979 0.92859 0.81917 0.0
O108 O 0.09598 0.94433 0.90326 0.0
C109 C 0.11346 0.86901 0.85971 0.0
O110 O 0.10792 0.92097 0.91709 0.0
O111 O 0.12333 0.8861 0.87721 0.0
C112 C 0.09111 0.1518 0.88138 0.0
O113 O 0.0728 0.13618 0.87045 0.0
Cd114 Cd 0.043 0.13979 0.8475 0.0
O115 O 0.09576 0.1722 0.87975 0.0
Cd116 Cd 0.07759 0.19297 0.85888 0.0
C117 C 0.0343 0.16649 0.909 0.0
O118 O 0.05977 0.17035 0.81307 0.0
O119 O 0.04953 0.19434 0.82532 0.0
O120 O 0.11158 0.22236 0.83506 0.0
C121 C 0.04816 0.17945 0.80666 0.0
O122 O 0.02682 0.1498 0.89054 0.0
C123 C 0.11125 0.23839 0.84931 0.0
O124 O 0.05332 0.18389 0.90471 0.0
O125 O 0.09605 0.23316 0.86952 0.0
C126 C 0.92464 0.81767 0.59305 0.0
O127 O 0.92524 0.83397 0.60774 0.0
Cd128 Cd 0.89201 0.83453 0.62096 0.0
O129 O 0.90611 0.79953 0.58924 0.0
Cd130 Cd 0.86642 0.78328 0.60674 0.0
C131 C 0.86279 0.815 0.55138 0.0
O132 O 0.86961 0.80404 0.65437 0.0
O133 O 0.83809 0.79006 0.62996 0.0
O134 O 0.86727 0.75153 0.6304 0.0
C135 C 0.84947 0.79986 0.65392 0.0
O136 O 0.87389 0.83088 0.57057 0.0
C137 C 0.84922 0.73667 0.61795 0.0
O138 O 0.8578 0.79495 0.55766 0.0
O139 O 0.8396 0.74344 0.59916 0.0
C140 C 0.15237 0.10122 0.58134 0.0
O141 O 0.13517 0.08634 0.59526 0.0
Cd142 Cd 0.13271 0.05187 0.61121 0.0
O143 O 0.17001 0.09962 0.57976 0.0
Cd144 Cd 0.18468 0.07556 0.6002 0.0
C145 C 0.15328 0.03947 0.54498 0.0
O146 O 0.16204 0.05905 0.64685 0.0
O147 O 0.17864 0.04223 0.62721 0.0
O148 O 0.21631 0.10827 0.62343 0.0
C149 C 0.16706 0.04364 0.64897 0.0
O150 O 0.13703 0.03591 0.56267 0.0
C151 C 0.2311 0.10445 0.61211 0.0
O152 O 0.17333 0.05387 0.55218 0.0
O153 O 0.22434 0.08761 0.59417 0.0
C154 C 0.86749 0.04143 0.58898 0.0
O155 O 0.88416 0.0416 0.60195 0.0
Cd156 Cd 0.91742 0.0746 0.61793 0.0
O157 O 0.86642 0.05939 0.58694 0.0
Cd158 Cd 0.88847 0.0992 0.60477 0.0
C159 C 0.92673 0.10593 0.55087 0.0
O160 O 0.90676 0.09521 0.65081 0.0
O161 O 0.91981 0.12887 0.63335 0.0
O162 O 0.85677 0.09844 0.63043 0.0
C163 C 0.92046 0.11599 0.65381 0.0
O164 O 0.93167 0.09449 0.5692 0.0
C165 C 0.85765 0.11472 0.61536 0.0
O166 O 0.91112 0.11014 0.55737 0.0
O167 O 0.87215 0.12303 0.59392 0.0
C168 C 0.81893 0.38371 0.42438 0.0
O169 O 0.80395 0.38627 0.43781 0.0
Cd170 Cd 0.8095 0.42102 0.45839 0.0
O171 O 0.839 0.39992 0.42293 0.0
Cd172 Cd 0.85994 0.4393 0.4418 0.0
C173 C 0.83121 0.45325 0.39275 0.0
O174 O 0.84152 0.43725 0.49114 0.0
O175 O 0.85924 0.46978 0.46967 0.0
O176 O 0.89075 0.43477 0.46148 0.0
C177 C 0.84879 0.45816 0.49304 0.0
O178 O 0.81592 0.44505 0.41328 0.0
C179 C 0.90596 0.45218 0.44828 0.0
O180 O 0.84884 0.45172 0.39536 0.0
O181 O 0.89963 0.46286 0.4308 0.0
C182 C 0.59327 0.4302 0.42125 0.0
O183 O 0.59152 0.41276 0.43398 0.0
Cd184 Cd 0.55703 0.38207 0.45212 0.0
O185 O 0.57641 0.43313 0.41971 0.0
Cd186 Cd 0.53696 0.41293 0.43747 0.0
C187 C 0.52545 0.37257 0.3857 0.0
O188 O 0.53813 0.39461 0.4855 0.0
O189 O 0.50651 0.37972 0.46115 0.0
O190 O 0.53899 0.4451 0.46376 0.0
C191 C 0.51739 0.38036 0.48526 0.0
O192 O 0.53404 0.36548 0.40585 0.0
C193 C 0.52317 0.44511 0.44859 0.0
O194 O 0.52589 0.39118 0.38932 0.0
O195 O 0.51441 0.43077 0.42689 0.0
C196 C 0.53561 0.147 0.41342 0.0
O197 O 0.552 0.16411 0.4257 0.0
Cd198 Cd 0.58406 0.16526 0.44997 0.0
O199 O 0.53419 0.1278 0.41499 0.0
Cd200 Cd 0.55551 0.11114 0.43864 0.0
C201 C 0.59859 0.14155 0.39007 0.0
O202 O 0.57059 0.13489 0.48486 0.0
O203 O 0.58432 0.11357 0.47343 0.0
O204 O 0.52148 0.0788 0.45808 0.0
C205 C 0.58391 0.1278 0.49167 0.0
O206 O 0.60351 0.15811 0.40806 0.0
C207 C 0.52599 0.06438 0.4469 0.0
O208 O 0.5809 0.12271 0.39407 0.0
O209 O 0.54352 0.07175 0.43043 0.0
C210 C 0.70637 0.49331 0.7105 0.0
O211 O 0.70687 0.47761 0.69567 0.0
Cd212 Cd 0.74121 0.47877 0.68385 0.0
O213 O 0.72438 0.51176 0.71538 0.0
Cd214 Cd 0.76458 0.52967 0.69999 0.0
C215 C 0.76918 0.49784 0.75435 0.0
O216 O 0.76415 0.51025 0.65231 0.0
O217 O 0.79488 0.52518 0.67889 0.0
O218 O 0.76392 0.55998 0.67234 0.0
C219 C 0.78459 0.51551 0.65416 0.0
O220 O 0.75867 0.48222 0.73459 0.0
C221 C 0.77943 0.57573 0.68791 0.0
O222 O 0.77357 0.51783 0.74881 0.0
O223 O 0.78756 0.57009 0.71041 0.0
C224 C 0.4741 0.20821 0.71632 0.0
O225 O 0.49049 0.22452 0.70295 0.0
Cd226 Cd 0.48852 0.25606 0.68271 0.0
O227 O 0.45498 0.20688 0.71678 0.0
Cd228 Cd 0.43715 0.22768 0.6956 0.0
C229 C 0.46616 0.26862 0.74641 0.0
O230 O 0.45792 0.2446 0.64795 0.0
O231 O 0.44129 0.26076 0.66945 0.0
O232 O 0.40724 0.19541 0.66947 0.0
C233 C 0.45209 0.25944 0.64653 0.0
O234 O 0.48218 0.27431 0.72727 0.0
C235 C 0.3914 0.19604 0.68358 0.0
O236 O 0.44755 0.25063 0.74261 0.0
O237 O 0.39684 0.21091 0.70452 0.0
C238 C 0.76274 0.26478 0.71639 0.0
O239 O 0.74621 0.26543 0.70429 0.0
Cd240 Cd 0.71432 0.23434 0.67998 0.0
O241 O 0.76431 0.24711 0.71456 0.0
Cd242 Cd 0.74317 0.20927 0.69122 0.0
C243 C 0.70031 0.19685 0.74021 0.0
O244 O 0.72747 0.21707 0.64474 0.0
O245 O 0.71429 0.18235 0.65741 0.0
O246 O 0.77711 0.21062 0.67155 0.0
C247 C 0.7144 0.19652 0.6386 0.0
O248 O 0.69498 0.2081 0.72209 0.0
C249 C 0.77278 0.19197 0.68344 0.0
O250 O 0.71815 0.1959 0.73609 0.0
O251 O 0.75544 0.1822 0.70029 0.0
C252 C 0.47979 0.26505 0.21269 0.0
O253 O 0.49677 0.26582 0.19997 0.0
Cd254 Cd 0.49665 0.2331 0.1798 0.0
O255 O 0.46112 0.24685 0.21279 0.0
Cd256 Cd 0.44495 0.20831 0.19238 0.0
C257 C 0.4754 0.19821 0.24341 0.0
O258 O 0.4663 0.21259 0.14509 0.0
O259 O 0.45037 0.17998 0.16685 0.0
O260 O 0.41419 0.20899 0.16578 0.0
C261 C 0.46123 0.19213 0.14405 0.0
O262 O 0.49134 0.20894 0.22434 0.0
C263 C 0.39878 0.19282 0.18072 0.0
O264 O 0.45638 0.1968 0.23951 0.0
O265 O 0.40482 0.18417 0.20205 0.0
C266 C 0.70806 0.20407 0.22131 0.0
O267 O 0.70449 0.21753 0.20549 0.0
Cd268 Cd 0.73559 0.2528 0.1906 0.0
O269 O 0.72792 0.20749 0.22447 0.0
Cd270 Cd 0.76602 0.23314 0.2044 0.0
C271 C 0.76688 0.2677 0.2587 0.0
O272 O 0.76074 0.24907 0.15622 0.0
O273 O 0.79176 0.26876 0.18134 0.0
O274 O 0.76724 0.20168 0.18093 0.0
C275 C 0.78027 0.26609 0.15705 0.0
O276 O 0.75414 0.27031 0.23969 0.0
C277 C 0.78597 0.20616 0.19256 0.0
O278 O 0.77374 0.25396 0.25282 0.0
O279 O 0.79523 0.22292 0.21079 0.0
C280 C 0.76881 0.49639 0.21801 0.0
O281 O 0.75484 0.47892 0.20343 0.0
Cd282 Cd 0.71985 0.47467 0.18621 0.0
O283 O 0.76604 0.51338 0.21954 0.0
Cd284 Cd 0.7407 0.52615 0.19837 0.0
C285 C 0.70513 0.49299 0.25255 0.0
O286 O 0.72556 0.5037 0.15089 0.0
O287 O 0.70705 0.51844 0.17093 0.0
O288 O 0.77254 0.55884 0.17592 0.0
C289 C 0.70952 0.50778 0.14871 0.0
O290 O 0.70249 0.47723 0.23433 0.0
C291 C 0.76751 0.57293 0.18688 0.0
O292 O 0.71891 0.51337 0.24607 0.0
O293 O 0.75051 0.56534 0.20448 0.0
C294 C 0.59135 0.14645 0.91109 0.0
O295 O 0.59323 0.16336 0.92565 0.0
Cd296 Cd 0.56142 0.16447 0.94636 0.0
O297 O 0.5726 0.12834 0.91005 0.0
Cd298 Cd 0.53468 0.11332 0.93192 0.0
C299 C 0.52672 0.14551 0.88197 0.0
O300 O 0.54009 0.13414 0.98054 0.0
O301 O 0.50781 0.12037 0.95808 0.0
O302 O 0.53574 0.08125 0.95367 0.0
C303 C 0.51999 0.13014 0.98147 0.0
O304 O 0.5378 0.16097 0.90173 0.0
C305 C 0.51711 0.06665 0.94226 0.0
O306 O 0.52436 0.12602 0.88506 0.0
O307 O 0.50705 0.07372 0.92479 0.0
C308 C 0.81847 0.43433 0.9226 0.0
O309 O 0.80261 0.41746 0.93587 0.0
Cd310 Cd 0.80463 0.38613 0.9558 0.0
O311 O 0.83789 0.43635 0.921 0.0
Cd312 Cd 0.85558 0.41444 0.93999 0.0
C313 C 0.82452 0.37333 0.89004 0.0
O314 O 0.83611 0.39892 -0.01098 0.0
O315 O 0.85082 0.38119 0.96695 0.0
O316 O 0.88833 0.44774 0.96072 0.0
C317 C 0.84123 0.38359 -0.00949 0.0
O318 O 0.80929 0.36732 0.91053 0.0
C319 C 0.90255 0.44359 0.94813 0.0
O320 O 0.84305 0.39155 0.89288 0.0
O321 O 0.89493 0.4266 0.93035 0.0
C322 C 0.53207 0.37808 0.91485 0.0
O323 O 0.54741 0.37542 0.92696 0.0
Cd324 Cd 0.58285 0.40681 0.94067 0.0
O325 O 0.53393 0.39748 0.91399 0.0
Cd326 Cd 0.55954 0.43603 0.93345 0.0
C327 C 0.59328 0.43999 0.87521 0.0
O328 O 0.57826 0.42992 0.97769 0.0
O329 O 0.59447 0.46306 0.95738 0.0
O330 O 0.53098 0.43767 0.96428 0.0
C331 C 0.59394 0.45018 0.97881 0.0
O332 O 0.59706 0.42686 0.89178 0.0
C333 C 0.532 0.45445 0.95046 0.0
O334 O 0.57957 0.44622 0.8841 0.0
O335 O 0.54532 0.46228 0.9276 0.0
C336 C 0.49105 0.71154 0.75456 0.0
O337 O 0.47423 0.70802 0.77068 0.0
Cd338 Cd 0.47002 0.7391 0.78644 0.0
O339 O 0.50743 0.73139 0.75151 0.0
Cd340 Cd 0.52024 0.76967 0.77198 0.0
C341 C 0.48597 0.77037 0.71834 0.0
O342 O 0.49937 0.76398 0.8203 0.0
O343 O 0.51042 0.79534 0.79627 0.0
O344 O 0.5532 0.77089 0.79451 0.0
C345 C 0.50166 0.7835 0.82019 0.0
O346 O 0.47088 0.75768 0.73749 0.0
C347 C 0.56714 0.78967 0.7829 0.0
O348 O 0.50656 0.77728 0.72395 0.0
O349 O 0.55934 0.79892 0.76514 0.0
C350 C 0.25624 0.76903 0.74984 0.0
O351 O 0.25652 0.75193 0.76048 0.0
Cd352 Cd 0.22515 0.7199 0.7839 0.0
O353 O 0.23881 0.7709 0.75246 0.0
Cd354 Cd 0.201 0.7499 0.77513 0.0
C355 C 0.18649 0.70691 0.72506 0.0
O356 O 0.20863 0.73312 0.82019 0.0
O357 O 0.17387 0.72095 0.80857 0.0
O358 O 0.20374 0.78283 0.80014 0.0
C359 C 0.18813 0.72041 0.82662 0.0
O360 O 0.19808 0.70143 0.74224 0.0
C361 C 0.18678 0.78163 0.78658 0.0
O362 O 0.1859 0.72492 0.72989 0.0
O363 O 0.17708 0.76628 0.76634 0.0
C364 C 0.2063 0.483 0.75545 0.0
O365 O 0.22295 0.49863 0.76955 0.0
Cd366 Cd 0.25459 0.49639 0.78771 0.0
O367 O 0.20463 0.46376 0.75243 0.0
Cd368 Cd 0.22662 0.44584 0.76992 0.0
C369 C 0.26689 0.47758 0.72024 0.0
O370 O 0.24309 0.46442 0.81946 0.0
O371 O 0.26043 0.45041 0.79454 0.0
O372 O 0.19365 0.41329 0.79084 0.0
C373 C 0.25852 0.45941 0.81914 0.0
O374 O 0.27284 0.49248 0.74137 0.0
C375 C 0.19736 0.39891 0.7777 0.0
O376 O 0.24882 0.45887 0.72255 0.0
O377 O 0.21397 0.40636 0.75942 0.0
C378 C 0.37361 0.82844 0.05924 0.0
O379 O 0.37234 0.81101 0.04709 0.0
Cd380 Cd 0.40414 0.81001 0.02619 0.0
O381 O 0.39184 0.84706 0.05818 0.0
Cd382 Cd 0.42947 0.86168 0.0351 0.0
C383 C 0.44154 0.83349 0.08708 0.0
O384 O 0.42325 0.83854 -0.01127 0.0
O385 O 0.45633 0.85429 0.00911 0.0
O386 O 0.42856 0.89162 0.00657 0.0
C387 C 0.44351 0.8432 -0.01315 0.0
O388 O 0.42994 0.81682 0.06928 0.0
C389 C 0.44567 0.90747 0.01959 0.0
O390 O 0.44291 0.85242 0.08228 0.0
O391 O 0.45483 0.90211 0.04103 0.0
C392 C 0.14797 0.53996 0.04191 0.0
O393 O 0.1641 0.55639 0.02828 0.0
Cd394 Cd 0.16401 0.58934 0.01112 0.0
O395 O 0.12894 0.53882 0.04417 0.0
Cd396 Cd 0.11046 0.56024 0.02612 0.0
C397 C 0.14292 0.59981 0.07848 0.0
O398 O 0.13205 0.57779 0.97967 0.0
O399 O 0.11153 0.59109 -0.0032 0.0
O400 O 0.0796 0.5279 0.00125 0.0
C401 C 0.12496 0.59152 0.9764 0.0
O402 O 0.15883 0.60437 0.05958 0.0
C403 C 0.06426 0.52887 0.01628 0.0
O404 O 0.12309 0.584 0.0729 0.0
O405 O 0.07044 0.54372 0.03741 0.0
C406 C 0.42611 0.59572 0.04945 0.0
O407 O 0.40868 0.5936 0.03616 0.0
Cd408 Cd 0.37908 0.55922 0.01556 0.0
O409 O 0.42964 0.5792 0.05074 0.0
Cd410 Cd 0.41051 0.53982 0.03153 0.0
C411 C 0.36831 0.52631 0.08065 0.0
O412 O 0.39364 0.54198 0.9824 0.0
O413 O 0.37875 0.50969 0.00464 0.0
O414 O 0.44503 0.54321 0.01075 0.0
C415 C 0.37971 0.52115 0.9811 0.0
O416 O 0.36144 0.53496 0.06029 0.0
C417 C 0.44279 0.52573 0.02403 0.0
O418 O 0.38731 0.52752 0.07809 0.0
O419 O 0.42618 0.51555 0.04207 0.0
C420 C 0.14045 0.59822 0.55582 0.0
O421 O 0.15816 0.60174 0.54204 0.0
Cd422 Cd 0.16294 0.57097 0.52676 0.0
O423 O 0.12372 0.57844 0.55725 0.0
Cd424 Cd 0.11229 0.54056 0.53597 0.0
C425 C 0.14358 0.53696 0.59198 0.0
O426 O 0.13539 0.54754 0.48975 0.0
O427 O 0.12298 0.51532 0.51199 0.0
O428 O 0.08151 0.5383 0.50603 0.0
C429 C 0.13271 0.52788 0.48898 0.0
O430 O 0.15967 0.5506 0.57485 0.0
C431 C 0.06627 0.52099 0.51932 0.0
O432 O 0.12334 0.53027 0.58431 0.0
O433 O 0.07227 0.51301 0.54159 0.0
C434 C 0.37747 0.54182 0.5509 0.0
O435 O 0.37643 0.55779 0.53776 0.0
Cd436 Cd 0.40889 0.59017 0.51784 0.0
O437 O 0.39577 0.54142 0.55125 0.0
Cd438 Cd 0.43403 0.56396 0.53009 0.0
C439 C 0.44363 0.60369 0.58179 0.0
O440 O 0.42878 0.58012 0.48217 0.0
O441 O 0.46129 0.59772 0.50406 0.0
O442 O 0.43316 0.53102 0.50743 0.0
C443 C 0.44905 0.59568 0.48091 0.0
O444 O 0.43297 0.60909 0.56264 0.0
C445 C 0.45164 0.53482 0.51922 0.0
O446 O 0.44512 0.58612 0.57765 0.0
O447 O 0.46142 0.55163 0.53722 0.0
C448 C 0.41992 0.81726 0.54876 0.0
O449 O 0.4017 0.80153 0.53777 0.0
Cd450 Cd 0.37137 0.80461 0.51558 0.0
O451 O 0.42423 0.83757 0.5475 0.0
Cd452 Cd 0.40549 0.85798 0.5272 0.0
C453 C 0.36269 0.83095 0.57766 0.0
O454 O 0.38707 0.83538 0.48152 0.0
O455 O 0.37658 0.85892 0.4952 0.0
O456 O 0.439 0.88763 0.50282 0.0
C457 C 0.37498 0.84413 0.47618 0.0
O458 O 0.35533 0.81435 0.55905 0.0
C459 C 0.43865 0.90355 0.51734 0.0
O460 O 0.38159 0.84851 0.57343 0.0
O461 O 0.42364 0.89815 0.53792 0.0
C462 C 0.26058 0.48032 0.25128 0.0
O463 O 0.26355 0.49798 0.26487 0.0
Cd464 Cd 0.23223 0.50183 0.27948 0.0
O465 O 0.24108 0.46314 0.24981 0.0
Cd466 Cd 0.20296 0.45077 0.27056 0.0
C467 C 0.19884 0.48106 0.21362 0.0
O468 O 0.20955 0.47411 0.31652 0.0
O469 O 0.17727 0.46103 0.29418 0.0
O470 O 0.20106 0.41993 0.30022 0.0
C471 C 0.1898 0.47106 0.31721 0.0
O472 O 0.21204 0.49754 0.23073 0.0
C473 C 0.18375 0.40467 0.28678 0.0
O474 O 0.19259 0.46099 0.22171 0.0
O475 O 0.17571 0.4107 0.26463 0.0
C476 C 0.49581 0.77503 0.25314 0.0
O477 O 0.47921 0.76123 0.26913 0.0
Cd478 Cd 0.47585 0.72618 0.28376 0.0
O479 O 0.51255 0.77212 0.24935 0.0
Cd480 Cd 0.52646 0.74705 0.26835 0.0
C481 C 0.49215 0.71181 0.2149 0.0
O482 O 0.5059 0.73132 0.3166 0.0
O483 O 0.51776 0.71175 0.29219 0.0
O484 O 0.559 0.77889 0.29121 0.0
C485 C 0.50869 0.71438 0.31616 0.0
O486 O 0.47706 0.70909 0.23434 0.0
C487 C 0.57332 0.77469 0.27914 0.0
O488 O 0.51269 0.72574 0.22027 0.0
O489 O 0.56592 0.75791 0.26094 0.0
C490 C 0.20251 0.71062 0.25062 0.0
O491 O 0.22005 0.7124 0.26316 0.0
Cd492 Cd 0.24981 0.7448 0.28795 0.0
O493 O 0.19864 0.72694 0.25129 0.0
Cd494 Cd 0.21747 0.76563 0.27313 0.0
C495 C 0.26261 0.78129 0.22688 0.0
O496 O 0.23276 0.75937 0.32081 0.0
O497 O 0.24432 0.79382 0.30895 0.0
O498 O 0.18191 0.76159 0.29059 0.0
C499 C 0.24465 0.7799 0.32783 0.0
O500 O 0.26874 0.77135 0.24617 0.0
C501 C 0.18517 0.7798 0.2784 0.0
O502 O 0.24371 0.78036 0.22935 0.0
O503 O 0.20274 0.79053 0.2622 0.0
H504 H 0.12623 0.0029 0.09663 0.0
H505 H 0.18586 0.04895 0.04646 0.0
H506 H 0.11753 0.97451 0.05659 0.0
H507 H 0.17689 0.02062 0.00648 0.0
H508 H 0.12378 0.98357 0.92591 0.0
H509 H 0.14096 0.00763 0.97089 0.0
H510 H 0.13234 0.95065 0.02391 0.0
H511 H 0.1155 0.9264 0.97829 0.0
C512 C 0.13782 0.00676 0.07761 0.0
C513 C 0.1565 0.02835 0.07443 0.0
C514 C 0.13287 -0.00954 0.05478 0.0
C515 C 0.1464 -0.00442 0.02836 0.0
C516 C 0.16613 0.0164 0.02658 0.0
C517 C 0.17125 0.03258 0.04954 0.0
C518 C 0.12574 0.97618 0.94703 0.0
C519 C 0.11823 0.95313 0.94871 0.0
C520 C 0.13575 -0.01002 0.97266 0.0
C521 C 0.13809 0.98096 0.0007 0.0
C522 C 0.1308 0.95794 0.00243 0.0
C523 C 0.12122 0.94415 0.97643 0.0
H524 H 0.92951 0.1381 0.04304 0.0
H525 H 0.97121 0.11259 0.07898 0.0
H526 H 0.95737 0.15871 0.00326 0.0
H527 H -0.00084 0.13352 0.03929 0.0
H528 H 0.04904 0.18226 0.96766 0.0
H529 H 0.02595 0.17384 0.01455 0.0
H530 H 0.96628 0.13837 0.95858 0.0
H531 H -0.01083 0.14621 0.91221 0.0
C532 C 0.94488 0.13738 0.04307 0.0
C533 C 0.94797 0.12339 0.06388 0.0
C534 C 0.96079 0.14918 0.02025 0.0
C535 C 0.98026 0.14752 0.01813 0.0
C536 C -0.01569 0.13516 0.04056 0.0
C537 C 0.96825 0.12308 0.06316 0.0
C538 C 0.03098 0.17308 0.96544 0.0
C539 C 0.02082 0.16477 0.93645 0.0
C540 C 0.01783 0.16822 -0.00782 0.0
C541 C -0.00561 0.15555 -0.00993 0.0
C542 C -0.01569 0.14839 0.9608 0.0
C543 C -0.00261 0.15275 0.93432 0.0
H544 H 0.78767 0.86449 0.97251 0.0
H545 H 0.83316 0.85342 0.91625 0.0
H546 H 0.79679 0.84843 0.01753 0.0
H547 H 0.84165 0.83693 0.96064 0.0
H548 H 0.836 0.79013 0.03713 0.0
H549 H 0.8175 0.80094 -0.00199 0.0
H550 H 0.8382 0.86318 0.04644 0.0
H551 H 0.85717 0.85268 0.08552 0.0
C552 C 0.79934 0.85836 0.96971 0.0
C553 C 0.80982 0.86027 0.94103 0.0
C554 C 0.80454 0.84925 -0.00464 0.0
C555 C 0.81975 0.84134 -0.00769 0.0
C556 C 0.82968 0.8427 0.96343 0.0
C557 C 0.82495 0.85227 0.93814 0.0
C558 C 0.83616 0.80587 0.03997 0.0
C559 C 0.84834 0.8207 0.06421 0.0
C560 C 0.82559 0.81203 0.01753 0.0
C561 C 0.82661 0.8329 0.01924 0.0
C562 C 0.83713 0.84694 0.04479 0.0
C563 C 0.84805 0.84096 0.06702 0.0
H564 H 0.93366 0.14206 0.51539 0.0
H565 H 0.94828 0.08782 0.52029 0.0
H566 H 0.95703 0.15624 0.46871 0.0
H567 H 0.97115 0.10172 0.47407 0.0
H568 H -0.00185 0.11969 0.38024 0.0
H569 H 0.9674 0.10737 0.41681 0.0
H570 H -0.00021 0.1729 0.45948 0.0
H571 H 0.03069 0.18543 0.42276 0.0
C572 C 0.94159 0.13304 0.50629 0.0
C573 C 0.93929 0.11393 0.52156 0.0
C574 C 0.95496 0.14116 0.47971 0.0
C575 C 0.96574 0.12997 0.4677 0.0
C576 C 0.96279 0.11051 0.48251 0.0
C577 C 0.94984 0.10267 0.50918 0.0
C578 C -0.00146 0.13168 0.39692 0.0
C579 C 0.01713 0.15341 0.399 0.0
C580 C 0.98091 0.12459 0.41786 0.0
C581 C 0.98143 0.13907 0.44127 0.0
C582 C -0.00104 0.16141 0.44162 0.0
C583 C 0.01669 0.16853 0.42065 0.0
H584 H 0.85657 0.87514 0.37826 0.0
H585 H 0.78946 0.84318 0.41544 0.0
H586 H 0.867 0.85596 0.4166 0.0
H587 H 0.80007 0.82398 0.45383 0.0
H588 H 0.82812 0.78691 0.51308 0.0
H589 H 0.81599 0.79704 0.46504 0.0
H590 H 0.87027 0.8651 0.47451 0.0
H591 H 0.88213 0.85521 0.52221 0.0
C592 C 0.84386 0.8636 0.39406 0.0
C593 C 0.82229 0.86109 0.3942 0.0
C594 C 0.84988 0.85266 0.41605 0.0
C595 C 0.83445 0.83885 0.43848 0.0
C596 C 0.81229 0.83455 0.43677 0.0
C597 C 0.80625 0.84561 0.41481 0.0
C598 C 0.83753 0.80396 0.50464 0.0
C599 C 0.85599 0.82031 0.52146 0.0
C600 C 0.83057 0.80973 0.47727 0.0
C601 C 0.84231 0.83179 0.46599 0.0
C602 C 0.8611 0.84789 0.48241 0.0
C603 C 0.86777 0.84226 0.5099 0.0
H604 H 0.12221 0.93144 0.42044 0.0
H605 H 0.09597 0.96902 0.37323 0.0
H606 H 0.14234 0.96267 0.45651 0.0
H607 H 0.11607 3e-05 0.40925 0.0
H608 H 0.11444 0.02057 0.51242 0.0
H609 H 0.10494 -0.0028 0.4663 0.0
H610 H 0.17129 0.0053 0.46534 0.0
H611 H 0.18104 0.0292 0.51177 0.0
C612 C 0.12129 0.94659 0.41711 0.0
C613 C 0.10706 0.94753 0.39442 0.0
C614 C 0.13288 0.96449 0.43773 0.0
C615 C 0.13037 0.98353 0.43596 0.0
C616 C 0.11797 0.98536 0.41138 0.0
C617 C 0.10648 0.96757 0.39076 0.0
C618 C 0.12711 0.01759 0.50226 0.0
C619 C 0.14843 0.02661 0.51577 0.0
C620 C 0.12174 0.00437 0.47567 0.0
C621 C 0.13745 -0.00041 0.46215 0.0
C622 C 0.15893 0.00882 0.47532 0.0
C623 C 0.16448 0.02248 0.50175 0.0
H624 H 0.85538 0.05918 -0.00373 0.0
H625 H 0.84084 0.00099 0.05114 0.0
H626 H 0.8393 0.03503 0.95031 0.0
H627 H 0.82434 0.97703 0.00583 0.0
H628 H 0.78147 0.93758 0.92656 0.0
H629 H 0.79048 0.96623 0.96613 0.0
H630 H 0.85379 0.00886 0.92179 0.0
H631 H 0.84507 0.98008 0.88228 0.0
C632 C 0.84836 0.04124 -0.00141 0.0
C633 C 0.84942 0.0319 0.0271 0.0
C634 C 0.83924 0.0275 0.9724 0.0
C635 C 0.83049 0.00423 0.97472 0.0
C636 C 0.83074 -0.0051 0.00355 0.0
C637 C 0.84032 0.00861 0.02939 0.0
C638 C 0.79706 0.95328 0.92465 0.0
C639 C 0.81274 0.9564 0.90155 0.0
C640 C 0.80218 0.96965 0.94735 0.0
C641 C 0.82287 -0.01042 0.94704 0.0
C642 C 0.83768 -0.00637 0.92239 0.0
C643 C 0.83271 0.97711 0.8999 0.0
H644 H 0.97008 0.83522 0.05673 0.0
H645 H 0.91474 0.79449 -0.00444 0.0
H646 H -0.00403 0.84534 0.01339 0.0
H647 H 0.94084 0.8052 0.95167 0.0
H648 H -0.00354 0.86829 0.8902 0.0
H649 H 0.96683 0.84645 0.92745 0.0
H650 H 0.0096 0.82578 0.97263 0.0
H651 H 0.03918 0.84729 0.93523 0.0
C652 C 0.9635 0.8283 0.03401 0.0
C653 C 0.94044 0.81419 0.02939 0.0
C654 C 0.97832 0.83394 0.00929 0.0
C655 C 0.97035 0.82595 0.9793 0.0
C656 C 0.94733 0.81147 0.97466 0.0
C657 C 0.93247 0.80535 -0.00032 0.0
C658 C -0.00066 0.85861 0.90756 0.0
C659 C 0.02027 0.85977 0.91004 0.0
C660 C 0.98233 0.84602 0.92873 0.0
C661 C -0.01392 0.83464 0.95295 0.0
C662 C 0.0064 0.83452 0.95417 0.0
C663 C 0.02328 0.84681 0.93273 0.0
H664 H 0.08721 0.11046 0.88739 0.0
H665 H 0.12775 0.17941 0.9169 0.0
H666 H 0.10606 0.09914 0.92504 0.0
H667 H 0.14646 0.16791 0.95484 0.0
H668 H 0.18237 0.13878 0.01242 0.0
H669 H 0.17039 0.14999 0.96535 0.0
H670 H 0.10214 0.09849 0.98241 0.0
H671 H 0.11393 0.08733 0.02897 0.0
C672 C 0.10041 0.12328 0.90149 0.0
C673 C 0.10567 0.1458 0.89953 0.0
C674 C 0.11116 0.11676 0.92312 0.0
C675 C 0.12742 0.13258 0.94322 0.0
C676 C 0.134 0.15535 0.93959 0.0
C677 C 0.12322 0.16191 0.91792 0.0
C678 C 0.16486 0.12975 0.00588 0.0
C679 C 0.14908 0.11226 0.0245 0.0
C680 C 0.15803 0.1362 0.97904 0.0
C681 C 0.13537 0.12503 0.97015 0.0
C682 C 0.11977 0.1072 -0.01162 0.0
C683 C 0.12651 0.10094 0.01525 0.0
H684 H 0.96655 0.85423 0.5961 0.0
H685 H 0.92854 0.78975 0.55101 0.0
H686 H -0.00336 0.86464 0.55888 0.0
H687 H 0.95887 0.80033 0.51379 0.0
H688 H 0.0241 0.8274 0.45623 0.0
H689 H 0.00164 0.8142 0.50383 0.0
H690 H -0.00812 0.87159 0.50144 0.0
H691 H 0.01377 0.88447 0.45411 0.0
C692 C 0.96483 0.84202 0.57881 0.0
C693 C 0.94489 0.82134 0.5761 0.0
C694 C 0.98209 0.84803 0.55749 0.0
C695 C 0.97986 0.83344 0.5332 0.0
C696 C 0.96099 0.81188 0.53234 0.0
C697 C 0.9436 0.80587 0.55362 0.0
C698 C 0.01735 0.83727 0.4662 0.0
C699 C 0.02053 0.85688 0.45143 0.0
C700 C 0.00451 0.8297 0.49329 0.0
C701 C -0.0048 0.84197 0.50636 0.0
C702 C -0.00088 0.86197 0.49213 0.0
C703 C 0.01149 0.86924 0.46487 0.0
H704 H 0.12459 0.14011 0.41449 0.0
H705 H 0.11129 0.18332 0.47279 0.0
H706 H 0.14036 0.1307 0.45872 0.0
H707 H 0.12683 0.17345 0.51756 0.0
H708 H 0.11959 0.11271 0.5838 0.0
H709 H 0.11223 0.13428 0.54524 0.0
H710 H 0.17338 0.14967 0.49795 0.0
H711 H 0.18095 0.12831 0.5365 0.0
C712 C 0.12519 0.14772 0.43676 0.0
C713 C 0.11659 0.16232 0.44028 0.0
C714 C 0.13442 0.1425 0.46201 0.0
C715 C 0.13492 0.15147 0.49146 0.0
C716 C 0.12669 0.16641 0.49501 0.0
C717 C 0.11785 0.17204 0.46947 0.0
C718 C 0.1318 0.12122 0.56569 0.0
C719 C 0.15065 0.11846 0.5629 0.0
C720 C 0.12762 0.13366 0.54373 0.0
C721 C 0.14211 0.14335 0.51849 0.0
C722 C 0.16187 0.14216 0.51711 0.0
C723 C 0.1662 0.12997 0.53925 0.0
H724 H 0.86352 -8e-05 0.59119 0.0
H725 H 0.83516 0.03679 0.54742 0.0
H726 H 0.84457 0.96986 0.55345 0.0
H727 H 0.81619 0.00652 0.50961 0.0
H728 H 0.78039 0.94124 0.45023 0.0
H729 H 0.78866 0.96347 0.49822 0.0
H730 H 0.8565 0.97562 0.49631 0.0
H731 H 0.84848 0.95399 0.44871 0.0
C732 C 0.85277 0.00138 0.57406 0.0
C733 C 0.8513 0.02102 0.57186 0.0
C734 C 0.84193 0.98413 0.55246 0.0
C735 C 0.8293 0.9861 0.52833 0.0
C736 C 0.82584 0.0046 0.52802 0.0
C737 C 0.83678 0.02196 0.54964 0.0
C738 C 0.79696 0.9485 0.46037 0.0
C739 C 0.81385 0.94604 0.44569 0.0
C740 C 0.80167 0.9612 0.48768 0.0
C741 C 0.82314 0.97106 0.50105 0.0
C742 C 0.83971 0.96793 0.4868 0.0
C743 C 0.83517 0.95572 0.45936 0.0
H744 H 0.80165 0.2756 0.29775 0.0
H745 H 0.74814 0.29054 0.28463 0.0
H746 H 0.81459 0.30039 0.3432 0.0
H747 H 0.76103 0.31511 0.32961 0.0
H748 H 0.77776 0.346 0.42263 0.0
H749 H 0.76501 0.31454 0.38687 0.0
H750 H 0.83199 0.34234 0.35064 0.0
H751 H 0.84493 0.37383 0.38664 0.0
C752 C 0.79252 0.28395 0.30475 0.0
C753 C 0.77395 0.28123 0.2875 0.0
C754 C 0.79997 0.29817 0.33065 0.0
C755 C 0.78877 0.3096 0.34 0.0
C756 C 0.76982 0.30628 0.32327 0.0
C757 C 0.76256 0.29234 0.29729 0.0
C758 C 0.78991 0.34524 0.4075 0.0
C759 C 0.8123 0.36266 0.40713 0.0
C760 C 0.78256 0.32722 0.38696 0.0
C761 C 0.79742 0.32619 0.36565 0.0
C762 C 0.82016 0.34267 0.36687 0.0
C763 C 0.82754 0.36076 0.38743 0.0
H764 H 0.60105 0.46533 0.38329 0.0
H765 H 0.63244 0.4292 0.42027 0.0
H766 H 0.63173 0.48421 0.34653 0.0
H767 H 0.66309 0.44824 0.38373 0.0
H768 H 0.68366 0.45229 0.28048 0.0
H769 H 0.66047 0.44163 0.32655 0.0
H770 H 0.67348 0.50959 0.33684 0.0
H771 H 0.69698 0.52044 0.29026 0.0
C772 C 0.61476 0.46186 0.38419 0.0
C773 C 0.61404 0.44539 0.40428 0.0
C774 C 0.63239 0.47276 0.36319 0.0
C775 C 0.64956 0.46736 0.36192 0.0
C776 C 0.64983 0.45239 0.38384 0.0
C777 C 0.63228 0.44154 0.40482 0.0
C778 C 0.68175 0.46506 0.2926 0.0
C779 C 0.69205 0.48718 0.2816 0.0
C780 C 0.66863 0.45898 0.31922 0.0
C781 C 0.6653 0.47482 0.33542 0.0
C782 C 0.67579 0.49706 0.32476 0.0
C783 C 0.68924 0.50325 0.29819 0.0
H784 H 0.50886 0.11954 0.36718 0.0
H785 H 0.52703 0.18182 0.41445 0.0
H786 H 0.48923 0.12869 0.3276 0.0
H787 H 0.50701 0.19066 0.37505 0.0
H788 H 0.4572 0.19131 0.30162 0.0
H789 H 0.46643 0.17528 0.34652 0.0
H790 H 0.51109 0.16367 0.28933 0.0
H791 H 0.50246 0.18012 0.24503 0.0
C792 C 0.50809 0.13483 0.36968 0.0
C793 C 0.51975 0.15011 0.39371 0.0
C794 C 0.4969 0.14006 0.34699 0.0
C795 C 0.49677 0.16041 0.34829 0.0
C796 C 0.50679 0.17481 0.37368 0.0
C797 C 0.51833 0.16979 0.39609 0.0
C798 C 0.4688 0.1851 0.2987 0.0
C799 C 0.47926 0.18707 0.27 0.0
C800 C 0.47405 0.17599 0.32429 0.0
C801 C 0.48931 0.16814 0.32118 0.0
C802 C 0.49907 0.16937 0.29219 0.0
C803 C 0.49427 0.17894 0.26695 0.0
H804 H 0.61084 0.41982 0.8401 0.0
H805 H 0.60331 0.47856 0.84368 0.0
H806 H 0.63404 0.43438 0.79422 0.0
H807 H 0.62691 0.49335 0.79738 0.0
H808 H 0.70035 0.51926 0.75356 0.0
H809 H 0.66859 0.50698 0.78857 0.0
H810 H 0.63322 0.44443 0.73848 0.0
H811 H 0.6649 0.4565 0.70361 0.0
C812 C 0.61395 0.43576 0.83084 0.0
C813 C 0.60541 0.44813 0.8456 0.0
C814 C 0.62707 0.44401 0.80435 0.0
C815 C 0.6322 0.46496 0.79214 0.0
C816 C 0.62319 0.47715 0.80635 0.0
C817 C 0.60967 0.46867 0.83272 0.0
C818 C 0.68555 0.50316 0.74941 0.0
C819 C 0.68538 0.48864 0.72624 0.0
C820 C 0.66731 0.49618 0.76943 0.0
C821 C 0.64864 0.47458 0.76657 0.0
C822 C 0.64759 0.46101 0.74152 0.0
C823 C 0.66575 0.46797 0.72153 0.0
H824 H 0.44765 0.18043 0.76214 0.0
H825 H 0.50975 0.20094 0.71365 0.0
H826 H 0.45789 0.16085 0.80033 0.0
H827 H 0.51966 0.18087 0.75173 0.0
H828 H 0.51913 0.12797 0.82313 0.0
H829 H 0.50347 0.13841 0.77896 0.0
H830 H 0.49456 0.18413 0.83797 0.0
H831 H 0.51068 0.17435 0.88155 0.0
C832 C 0.46315 0.18021 0.75906 0.0
C833 C 0.47804 0.19248 0.7351 0.0
C834 C 0.46898 0.16903 0.78096 0.0
C835 C 0.48956 0.16952 0.77891 0.0
C836 C 0.50364 0.18019 0.7536 0.0
C837 C 0.498 0.19174 0.73196 0.0
C838 C 0.51366 0.14012 0.82658 0.0
C839 C 0.5162 0.15047 0.85562 0.0
C840 C 0.50477 0.14607 0.80142 0.0
C841 C 0.49772 0.16189 0.80532 0.0
C842 C 0.49968 0.1717 0.83455 0.0
C843 C 0.50904 0.16622 0.85937 0.0
H844 H 0.79866 0.32813 0.88749 0.0
H845 H 0.84064 0.38578 0.83104 0.0
H846 H 0.7893 0.30392 0.84203 0.0
H847 H 0.8307 0.36139 0.78508 0.0
H848 H 0.76969 0.30761 0.71819 0.0
H849 H 0.7898 0.33584 0.75828 0.0
H850 H 0.81067 0.29234 0.80071 0.0
H851 H 0.79095 0.26422 0.7605 0.0
C852 C 0.80598 0.33559 0.86535 0.0
C853 C 0.82029 0.35881 0.86271 0.0
C854 C 0.80076 0.32172 0.83943 0.0
C855 C 0.80939 0.33084 0.81019 0.0
C856 C 0.82394 0.35403 0.80747 0.0
C857 C 0.82962 0.3679 0.83367 0.0
C858 C 0.77906 0.3043 0.73558 0.0
C859 C 0.7785 0.28357 0.73639 0.0
C860 C 0.79064 0.32051 0.7584 0.0
C861 C 0.80156 0.3161 0.7826 0.0
C862 C 0.80225 0.29603 0.78229 0.0
C863 C 0.79101 0.27999 0.75922 0.0
H864 H 0.50358 0.32733 0.38219 0.0
H865 H 0.52392 0.38661 0.32671 0.0
H866 H 0.48881 0.30397 0.33603 0.0
H867 H 0.50951 0.36302 0.27997 0.0
H868 H 0.51587 0.3076 0.21476 0.0
H869 H 0.52346 0.33618 0.25409 0.0
H870 H 0.45788 0.29445 0.293 0.0
H871 H 0.45005 0.26595 0.25364 0.0
C872 C 0.50471 0.33532 0.3601 0.0
C873 C 0.51496 0.35874 0.35792 0.0
C874 C 0.4961 0.32196 0.33375 0.0
C875 C 0.49795 0.33174 0.30456 0.0
C876 C 0.50784 0.35515 0.30231 0.0
C877 C 0.51601 0.36857 0.32895 0.0
C878 C 0.50282 0.30478 0.23113 0.0
C879 C 0.48251 0.28433 0.23141 0.0
C880 C 0.50714 0.3212 0.25351 0.0
C881 C 0.49132 0.31732 0.27666 0.0
C882 C 0.47037 0.29771 0.27544 0.0
C883 C 0.46593 0.28143 0.25287 0.0
H884 H 0.71158 0.17912 0.26795 0.0
H885 H 0.66325 0.19008 0.21817 0.0
H886 H 0.68353 0.158 0.30724 0.0
H887 H 0.6352 0.16872 0.2575 0.0
H888 H 0.58773 0.12139 0.33287 0.0
H889 H 0.61278 0.1302 0.28809 0.0
H890 H 0.66834 0.17746 0.34423 0.0
H891 H 0.64346 0.16912 0.38841 0.0
C892 C 0.69482 0.17647 0.26483 0.0
C893 C 0.68977 0.18667 0.24023 0.0
C894 C 0.67879 0.1644 0.28739 0.0
C895 C 0.65736 0.16201 0.28553 0.0
C896 C 0.65161 0.17028 0.25939 0.0
C897 C 0.66772 0.18261 0.23698 0.0
C898 C 0.60537 0.13339 0.33564 0.0
C899 C 0.61369 0.14471 0.36397 0.0
C900 C 0.61962 0.13843 0.31009 0.0
C901 C 0.64246 0.15438 0.31285 0.0
C902 C 0.65086 0.16488 0.3416 0.0
C903 C 0.6366 0.16025 0.36679 0.0
H904 H 0.80582 0.47326 0.38913 0.0
H905 H 0.84908 0.45784 0.33464 0.0
H906 H 0.79746 0.48847 0.34331 0.0
H907 H 0.84035 0.47289 0.28834 0.0
H908 H 0.7814 0.46433 0.21816 0.0
H909 H 0.80256 0.4582 0.2587 0.0
H910 H 0.81603 0.51999 0.30313 0.0
H911 H 0.79498 0.52629 0.26264 0.0
C912 C 0.81371 0.47334 0.36738 0.0
C913 C 0.82796 0.46422 0.36538 0.0
C914 C 0.8091 0.48224 0.34121 0.0
C915 C 0.81835 0.48194 0.31234 0.0
C916 C 0.83306 0.47335 0.31038 0.0
C917 C 0.83805 0.46479 0.33682 0.0
C918 C 0.78941 0.47695 0.23606 0.0
C919 C 0.78613 0.49557 0.2375 0.0
C920 C 0.80163 0.47348 0.25918 0.0
C921 C 0.81061 0.48847 0.28423 0.0
C922 C 0.80902 0.50807 0.28421 0.0
C923 C 0.79702 0.51167 0.26094 0.0
H924 H 0.63511 0.18005 0.91251 0.0
H925 H 0.58965 0.11868 0.86457 0.0
H926 H 0.66334 0.18825 0.87265 0.0
H927 H 0.61781 0.12716 0.82467 0.0
H928 H 0.6553 0.17872 0.74241 0.0
H929 H 0.63084 0.16209 0.787 0.0
H930 H 0.68746 0.1726 0.84267 0.0
H931 H 0.71207 0.18883 0.79751 0.0
C932 C 0.63134 0.16804 0.89395 0.0
C933 C 0.61002 0.14889 0.89144 0.0
C934 C 0.64754 0.17269 0.87126 0.0
C935 C 0.64257 0.15842 0.84555 0.0
C936 C 0.62193 0.13846 0.84425 0.0
C937 C 0.60586 0.13362 0.86714 0.0
C938 C 0.66249 0.17719 0.76403 0.0
C939 C 0.68555 0.18511 0.76661 0.0
C940 C 0.64849 0.16754 0.78944 0.0
C941 C 0.65732 0.16601 0.81812 0.0
C942 C 0.68032 0.17354 0.82069 0.0
C943 C 0.69431 0.18275 0.79494 0.0
H944 H 0.77947 0.43558 0.92325 0.0
H945 H 0.84557 0.46812 0.8827 0.0
H946 H 0.76796 0.45503 0.88693 0.0
H947 H 0.83385 0.48761 0.84627 0.0
H948 H 0.8045 0.52555 0.79201 0.0
H949 H 0.81775 0.51473 0.83838 0.0
H950 H 0.76302 0.44689 0.82895 0.0
H951 H 0.75005 0.45748 0.78291 0.0
C952 C 0.79172 0.44724 0.90706 0.0
C953 C 0.81333 0.44993 0.90547 0.0
C954 C 0.78508 0.45837 0.88626 0.0
C955 C 0.7999 0.47251 0.86352 0.0
C956 C 0.8221 0.4768 0.86364 0.0
C957 C 0.82877 0.46557 0.88444 0.0
C958 C 0.7952 0.50842 0.80018 0.0
C959 C 0.77632 0.49232 0.78381 0.0
C960 C 0.80281 0.50225 0.82656 0.0
C961 C 0.79132 0.48002 0.8373 0.0
C962 C 0.77204 0.46421 0.82146 0.0
C963 C 0.76471 0.47024 0.79494 0.0
H964 H 0.50389 0.38033 0.87214 0.0
H965 H 0.51981 0.33362 0.91672 0.0
H966 H 0.48158 0.35188 0.83353 0.0
H967 H 0.49728 0.30518 0.87816 0.0
H968 H 0.44835 0.25667 0.80473 0.0
H969 H 0.45769 0.28138 0.85026 0.0
H970 H 0.50077 0.33827 0.79337 0.0
H971 H 0.49195 0.31376 0.74845 0.0
C972 C 0.50204 0.3638 0.87436 0.0
C973 C 0.51399 0.35937 0.89713 0.0
C974 C 0.48931 0.34755 0.8522 0.0
C975 C 0.48799 0.3265 0.85272 0.0
C976 C 0.49799 0.32128 0.87732 0.0
C977 C 0.51099 0.33762 0.89928 0.0
C978 C 0.45954 0.27451 0.80201 0.0
C979 C 0.4696 0.28334 0.77322 0.0
C980 C 0.46486 0.28857 0.82796 0.0
C981 C 0.47979 0.3117 0.82518 0.0
C982 C 0.48896 0.32056 0.79605 0.0
C983 C 0.48409 0.30651 0.77042 0.0
H984 H 0.45252 0.59201 0.63868 0.0
H985 H 0.45926 0.64838 0.58577 0.0
H986 H 0.46853 0.61647 0.68428 0.0
H987 H 0.47556 0.67266 0.63077 0.0
H988 H 0.46028 0.66673 0.75722 0.0
H989 H 0.45279 0.63887 0.71685 0.0
H990 H 0.51098 0.68722 0.66664 0.0
H991 H 0.51872 0.71507 0.70696 0.0
C992 C 0.45771 0.60964 0.6367 0.0
C993 C 0.45453 0.61831 0.60882 0.0
C994 C 0.46682 0.62356 0.6627 0.0
C995 C 0.47342 0.64642 0.66084 0.0
C996 C 0.4709 0.65515 0.63266 0.0
C997 C 0.46138 0.64121 0.60702 0.0
C998 C 0.47188 0.67123 0.73807 0.0
C999 C 0.48985 0.69325 0.73501 0.0
C1000 C 0.46762 0.65524 0.71505 0.0
C1001 C 0.48114 0.66108 0.68853 0.0
C1002 C 0.50021 0.68243 0.6868 0.0
C1003 C 0.50464 0.69833 0.70995 0.0
H1004 H 0.37713 0.84559 0.63678 0.0
H1005 H 0.31764 0.81126 0.58018 0.0
H1006 H 0.35369 0.83653 0.68342 0.0
H1007 H 0.2944 0.8028 0.62629 0.0
H1008 H 0.25711 0.80083 0.71103 0.0
H1009 H 0.28534 0.82223 0.672 0.0
H1010 H 0.32646 0.79575 0.70631 0.0
H1011 H 0.29817 0.77406 0.74523 0.0
C1012 C 0.35908 0.83667 0.63429 0.0
C1013 C 0.34911 0.82899 0.60505 0.0
C1014 C 0.34574 0.83145 0.66087 0.0
C1015 C 0.3223 0.81906 0.65833 0.0
C1016 C 0.31242 0.8126 0.62884 0.0
C1017 C 0.3257 0.81731 0.60251 0.0
C1018 C 0.2724 0.79997 0.71082 0.0
C1019 C 0.27523 0.78544 0.7309 0.0
C1020 C 0.28853 0.81223 0.68846 0.0
C1021 C 0.30793 0.81048 0.68609 0.0
C1022 C 0.31168 0.79748 0.70782 0.0
C1023 C 0.2954 0.78495 0.72993 0.0
H1024 H 0.11637 0.49872 0.62483 0.0
H1025 H 0.18278 0.55661 0.6239 0.0
H1026 H 0.12679 0.48408 0.67 0.0
H1027 H 0.19301 0.54216 0.66863 0.0
H1028 H 0.20357 0.52118 0.76004 0.0
H1029 H 0.18411 0.5335 0.72493 0.0
H1030 H 0.15442 0.46964 0.67772 0.0
H1031 H 0.17379 0.45711 0.71303 0.0
C1032 C 0.13304 0.50844 0.63451 0.0
C1033 C 0.14881 0.52874 0.62073 0.0
C1034 C 0.139 0.50004 0.66023 0.0
C1035 C 0.16066 0.51204 0.6729 0.0
C1036 C 0.17609 0.53268 0.65969 0.0
C1037 C 0.17028 0.54087 0.63386 0.0
C1038 C 0.19251 0.50953 0.74265 0.0
C1039 C 0.1906 0.48831 0.73894 0.0
C1040 C 0.1814 0.51663 0.72251 0.0
C1041 C 0.1681 0.50268 0.69827 0.0
C1042 C 0.16455 0.48074 0.69624 0.0
C1043 C 0.17572 0.4736 0.71642 0.0
H1044 H 0.33027 0.79408 0.0592 0.0
H1045 H 0.37451 0.8578 0.10275 0.0
H1046 H 0.3016 0.78711 0.09777 0.0
H1047 H 0.34587 0.85059 0.14145 0.0
H1048 H 0.30791 0.80298 0.22709 0.0
H1049 H 0.33292 0.81891 0.18292 0.0
H1050 H 0.27628 0.80191 0.12312 0.0
H1051 H 0.25107 0.78629 0.16779 0.0
C1052 C 0.33368 0.80683 0.07653 0.0
C1053 C 0.35477 0.82634 0.07819 0.0
C1054 C 0.31721 0.80289 0.09847 0.0
C1055 C 0.32166 0.81825 0.12266 0.0
C1056 C 0.34213 0.83846 0.12307 0.0
C1057 C 0.35847 0.84257 0.10087 0.0
C1058 C 0.30082 0.80301 0.20464 0.0
C1059 C 0.27759 0.79332 0.20077 0.0
C1060 C 0.31514 0.81228 0.17942 0.0
C1061 C 0.3065 0.81166 0.14968 0.0
C1062 C 0.2833 0.8026 0.14588 0.0
C1063 C 0.26895 0.79376 0.17137 0.0
H1064 H 0.12102 0.50811 0.08415 0.0
H1065 H 0.18568 0.53635 0.03983 0.0
H1066 H 0.13274 0.48943 0.12186 0.0
H1067 H 0.1972 0.51763 0.07743 0.0
H1068 H 0.21832 0.5198 0.18082 0.0
H1069 H 0.20453 0.52867 0.13408 0.0
H1070 H 0.14734 0.46182 0.1328 0.0
H1071 H 0.16135 0.45274 0.17991 0.0
C1072 C 0.13746 0.5098 0.08183 0.0
C1073 C 0.15259 0.52414 0.05939 0.0
C1074 C 0.14413 0.49904 0.10341 0.0
C1075 C 0.16602 0.50247 0.10287 0.0
C1076 C 0.18036 0.51504 0.07867 0.0
C1077 C 0.17371 0.52572 0.05711 0.0
C1078 C 0.2029 0.50689 0.17049 0.0
C1079 C 0.19086 0.48561 0.18413 0.0
C1080 C 0.19511 0.51191 0.14353 0.0
C1081 C 0.17494 0.49587 0.1297 0.0
C1082 C 0.16296 0.47445 0.14301 0.0
C1083 C 0.17099 0.46928 0.16986 0.0
H1084 H 0.51839 0.70327 0.17552 0.0
H1085 H 0.45054 0.68945 0.18942 0.0
H1086 H 0.50602 0.67833 0.13017 0.0
H1087 H 0.43836 0.66479 0.14453 0.0
H1088 H 0.42336 0.63401 0.0514 0.0
H1089 H 0.44257 0.6654 0.08711 0.0
H1090 H 0.48101 0.63628 0.12291 0.0
H1091 H 0.46192 0.60481 0.08697 0.0
C1092 C 0.50094 0.69515 0.16871 0.0
C1093 C 0.48541 0.69822 0.18614 0.0
C1094 C 0.49387 0.68084 0.14287 0.0
C1095 C 0.47126 0.66971 0.13376 0.0
C1096 C 0.45595 0.67338 0.15068 0.0
C1097 C 0.46292 0.68737 0.1766 0.0
C1098 C 0.43621 0.63445 0.06642 0.0
C1099 C 0.4408 0.61667 0.06669 0.0
C1100 C 0.44716 0.65243 0.08694 0.0
C1101 C 0.46301 0.65309 0.10811 0.0
C1102 C 0.4689 0.63624 0.10679 0.0
C1103 C 0.45788 0.61817 0.08627 0.0
H1104 H 0.17081 0.64308 0.5535 0.0
H1105 H 0.11104 0.5945 0.60103 0.0
H1106 H 0.17664 0.67104 0.59284 0.0
H1107 H 0.11706 0.62251 0.64039 0.0
H1108 H 0.16735 0.66176 0.72316 0.0
H1109 H 0.15045 0.63713 0.67868 0.0
H1110 H 0.16105 0.69374 0.62297 0.0
H1111 H 0.17769 0.71856 0.6681 0.0
C1112 C 0.15856 0.63855 0.5718 0.0
C1113 C 0.14071 0.61644 0.57448 0.0
C1114 C 0.16184 0.65462 0.59422 0.0
C1115 C 0.14745 0.6488 0.61981 0.0
C1116 C 0.12849 0.62732 0.62097 0.0
C1117 C 0.12504 0.61132 0.59838 0.0
C1118 C 0.16571 0.66891 0.70159 0.0
C1119 C 0.17394 0.69205 0.69895 0.0
C1120 C 0.15586 0.65479 0.67621 0.0
C1121 C 0.15438 0.66354 0.64745 0.0
C1122 C 0.16195 0.68661 0.64496 0.0
C1123 C 0.1714 0.70075 0.6707 0.0
H1124 H 0.31193 0.50378 0.71872 0.0
H1125 H 0.2549 0.46208 0.66065 0.0
H1126 H 0.33649 0.51354 0.67389 0.0
H1127 H 0.27968 0.47243 0.61527 0.0
H1128 H 0.33442 0.53414 0.55045 0.0
H1129 H 0.30553 0.51334 0.58913 0.0
H1130 H 0.34852 0.49247 0.63312 0.0
H1131 H 0.37734 0.51292 0.59439 0.0
C1132 C 0.30468 0.49663 0.69635 0.0
C1133 C 0.28153 0.48226 0.69308 0.0
C1134 C 0.31875 0.50207 0.67078 0.0
C1135 C 0.30993 0.4936 0.64127 0.0
C1136 C 0.28681 0.47905 0.63789 0.0
C1137 C 0.27271 0.47315 0.66375 0.0
C1138 C 0.33749 0.52461 0.56785 0.0
C1139 C 0.35831 0.52546 0.56963 0.0
C1140 C 0.3209 0.51263 0.58986 0.0
C1141 C 0.32498 0.50156 0.61416 0.0
C1142 C 0.3451 0.50102 0.61463 0.0
C1143 C 0.36155 0.5127 0.59241 0.0
H1144 H 0.51222 0.80437 0.67814 0.0
H1145 H 0.44422 0.75142 0.6933 0.0
H1146 H 0.49991 0.81613 0.63192 0.0
H1147 H 0.43211 0.76313 0.64761 0.0
H1148 H 0.41702 0.77628 0.55327 0.0
H1149 H 0.43625 0.76496 0.59029 0.0
H1150 H 0.47522 0.83334 0.62233 0.0
H1151 H 0.45614 0.84485 0.585 0.0
C1152 C 0.49473 0.79513 0.67148 0.0
C1153 C 0.47917 0.77703 0.68946 0.0
C1154 C 0.48771 0.80191 0.64512 0.0
C1155 C 0.46509 0.79046 0.63607 0.0
C1156 C 0.44971 0.77207 0.65369 0.0
C1157 C 0.45664 0.76549 0.68008 0.0
C1158 C 0.42999 0.78903 0.56774 0.0
C1159 C 0.43474 0.81142 0.56656 0.0
C1160 C 0.44095 0.7825 0.58901 0.0
C1161 C 0.45692 0.79819 0.60957 0.0
C1162 C 0.463 0.82089 0.60674 0.0
C1163 C 0.452 0.82745 0.58541 0.0
H1164 H 0.30499 0.51199 0.25338 0.0
H1165 H 0.25777 0.45094 0.20634 0.0
H1166 H 0.33292 0.51867 0.21388 0.0
H1167 H 0.28576 0.45777 0.16685 0.0
H1168 H 0.32309 0.50641 0.08301 0.0
H1169 H 0.29903 0.4902 0.1279 0.0
H1170 H 0.35658 0.50451 0.18425 0.0
H1171 H 0.38088 0.52057 0.13883 0.0
C1172 C 0.30078 0.49966 0.23515 0.0
C1173 C 0.27902 0.48117 0.23266 0.0
C1174 C 0.31683 0.50344 0.21262 0.0
C1175 C 0.31134 0.4889 0.18712 0.0
C1176 C 0.2903 0.46935 0.18616 0.0
C1177 C 0.27431 0.46543 0.20885 0.0
C1178 C 0.33062 0.50586 0.10486 0.0
C1179 C 0.35386 0.51491 0.10752 0.0
C1180 C 0.31681 0.49636 0.13048 0.0
C1181 C 0.32596 0.496 0.15948 0.0
C1182 C 0.34916 0.50455 0.16209 0.0
C1183 C 0.36299 0.5137 0.13617 0.0
H1184 H 0.46464 0.78855 0.2587 0.0
H1185 H 0.52235 0.79984 0.20514 0.0
H1186 H 0.45586 0.80898 0.22 0.0
H1187 H 0.51334 0.82004 0.16649 0.0
H1188 H 0.45876 0.8057 0.08889 0.0
H1189 H 0.47707 0.79864 0.13228 0.0
H1190 H 0.47001 0.84708 0.18781 0.0
H1191 H 0.45198 0.85465 0.1437 0.0
C1192 C 0.47583 0.79594 0.23919 0.0
C1193 C 0.49394 0.79218 0.23468 0.0
C1194 C 0.47084 0.80774 0.21714 0.0
C1195 C 0.48377 0.81577 0.19015 0.0
C1196 C 0.50303 0.81382 0.18704 0.0
C1197 C 0.50818 0.80228 0.20923 0.0
C1198 C 0.46132 0.81505 0.11022 0.0
C1199 C 0.45384 0.8306 0.11306 0.0
C1200 C 0.472 0.81117 0.13493 0.0
C1201 C 0.47508 0.82245 0.16325 0.0
C1202 C 0.46791 0.83829 0.1661 0.0
C1203 C 0.45764 0.84259 0.14097 0.0
H1204 H 0.16812 0.70338 0.21118 0.0
H1205 H 0.20422 0.67185 0.24778 0.0
H1206 H 0.14986 0.67308 0.17317 0.0
H1207 H 0.18591 0.64172 0.21002 0.0
H1208 H 0.18347 0.62302 0.10624 0.0
H1209 H 0.19341 0.64625 0.1524 0.0
H1210 H 0.12465 0.63011 0.16304 0.0
H1211 H 0.11446 0.60639 0.11632 0.0
C1212 C 0.17174 0.68974 0.21168 0.0
C1213 C 0.18799 0.69028 0.2321 0.0
C1214 C 0.1612 0.67235 0.18998 0.0
C1215 C 0.16678 0.65529 0.18838 0.0
C1216 C 0.1816 0.65489 0.21045 0.0
C1217 C 0.19207 0.67217 0.23209 0.0
C1218 C 0.17037 0.62425 0.11842 0.0
C1219 C 0.14819 0.61295 0.10755 0.0
C1220 C 0.17605 0.63742 0.14507 0.0
C1221 C 0.15977 0.63984 0.16143 0.0
C1222 C 0.13749 0.62846 0.15082 0.0
C1223 C 0.13168 0.61489 0.12423 0.0
H1224 H 0.09501 0.16921 0.25705 0.0
H1225 H 0.14929 0.18026 0.31847 0.0
H1226 H 0.10936 0.15364 0.21792 0.0
H1227 H 0.16322 0.1643 0.27968 0.0
H1228 H 0.161 0.10824 0.21471 0.0
H1229 H 0.14615 0.12353 0.25351 0.0
H1230 H 0.14789 0.1708 0.1862 0.0
H1231 H 0.16312 0.15596 0.14766 0.0
C1232 C 0.10997 0.16832 0.26214 0.0
C1233 C 0.12108 0.17599 0.29069 0.0
C1234 C 0.11815 0.15946 0.23983 0.0
C1235 C 0.13727 0.15772 0.24603 0.0
C1236 C 0.14834 0.16533 0.27456 0.0
C1237 C 0.14045 0.17459 0.29658 0.0
C1238 C 0.1582 0.12189 0.20827 0.0
C1239 C 0.16328 0.13098 0.17828 0.0
C1240 C 0.14979 0.13064 0.23041 0.0
C1241 C 0.14589 0.14826 0.22265 0.0
C1242 C 0.15065 0.15711 0.19258 0.0
C1243 C 0.15947 0.1487 0.17067 0.0
H1244 H 0.82976 0.94117 0.27152 0.0
H1245 H 0.78251 0.96118 0.30227 0.0
H1246 H 0.84526 0.97208 0.2344 0.0
H1247 H 0.79808 -0.00794 0.26534 0.0
H1248 H 0.81418 0.0263 0.16964 0.0
H1249 H 0.79948 -0.00364 0.20793 0.0
H1250 H 0.86685 0.01437 0.23478 0.0
H1251 H 0.88167 0.0444 0.1962 0.0
C1252 C 0.82267 0.95213 0.2703 0.0
C1253 C 0.80489 0.94873 0.28973 0.0
C1254 C 0.83165 0.96991 0.24925 0.0
C1255 C 0.8229 0.98448 0.24706 0.0
C1256 C 0.80504 0.98098 0.26637 0.0
C1257 C 0.79618 0.96334 0.28756 0.0
C1258 C 0.82588 0.02396 0.1838 0.0
C1259 C 0.84908 0.03768 0.17991 0.0
C1260 C 0.81745 0.00688 0.20581 0.0
C1261 C 0.83202 0.00303 0.22428 0.0
C1262 C 0.85525 0.01685 0.22062 0.0
C1263 C 0.86371 0.03411 0.19872 0.0
H1264 H 0.95478 0.79636 0.1517 0.0
H1265 H 0.91045 0.80631 0.21222 0.0
H1266 H -0.01658 0.81043 0.19222 0.0
H1267 H 0.93913 0.81994 0.25311 0.0
H1268 H -0.00992 0.81573 0.3242 0.0
H1269 H 0.96055 0.80125 0.28464 0.0
H1270 H 0.00568 0.85118 0.22021 0.0
H1271 H 0.03509 0.86608 0.25988 0.0
C1272 C 0.95109 0.80137 0.17376 0.0
C1273 C 0.93042 0.8003 0.17887 0.0
C1274 C 0.9675 0.80949 0.1968 0.0
C1275 C 0.96338 0.81624 0.22557 0.0
C1276 C 0.94257 0.81473 0.23104 0.0
C1277 C 0.92627 0.80703 0.2077 0.0
C1278 C -0.00633 0.8236 0.30158 0.0
C1279 C 0.01483 0.842 0.295 0.0
C1280 C 0.97678 0.8154 0.27912 0.0
C1281 C 0.98097 0.82517 0.24958 0.0
C1282 C 0.00217 0.84339 0.24287 0.0
C1283 C 0.01891 0.8519 0.26552 0.0
H1284 H 0.81437 0.80745 0.6484 0.0
H1285 H 0.86518 0.81314 0.71274 0.0
H1286 H 0.80056 0.82359 0.68722 0.0
H1287 H 0.85095 0.82883 0.7518 0.0
H1288 H 0.79643 0.82697 0.81971 0.0
H1289 H 0.81121 0.81203 0.78065 0.0
H1290 H 0.81879 0.86362 0.71674 0.0
H1291 H 0.80443 0.87902 0.75615 0.0
C1292 C 0.82249 0.81203 0.67088 0.0
C1293 C 0.84082 0.80903 0.67764 0.0
C1294 C 0.81468 0.82137 0.69294 0.0
C1295 C 0.82477 0.82743 0.72231 0.0
C1296 C 0.84291 0.82421 0.72925 0.0
C1297 C 0.85104 0.81529 0.70696 0.0
C1298 C 0.80124 0.83514 0.79733 0.0
C1299 C 0.79928 0.85414 0.79088 0.0
C1300 C 0.80979 0.82666 0.77512 0.0
C1301 C 0.81611 0.83674 0.74587 0.0
C1302 C 0.81393 0.85557 0.7392 0.0
C1303 C 0.8058 0.86437 0.76168 0.0
H1304 H 0.13492 0.03649 0.69189 0.0
H1305 H 0.17959 0.01282 0.66246 0.0
H1306 H 0.12034 0.00799 0.73269 0.0
H1307 H 0.16504 0.98451 0.70305 0.0
H1308 H 0.15283 0.95699 0.80256 0.0
H1309 H 0.16626 0.9849 0.76142 0.0
H1310 H 0.09809 0.96506 0.73657 0.0
H1311 H 0.08452 0.93697 0.77792 0.0
C1312 C 0.14164 0.02526 0.69418 0.0
C1313 C 0.15842 0.02689 0.67407 0.0
C1314 C 0.13319 0.00888 0.71734 0.0
C1315 C 0.14159 -0.0059 0.72096 0.0
C1316 C 0.15841 -0.00417 0.70092 0.0
C1317 C 0.16668 0.01199 0.67764 0.0
C1318 C 0.14068 0.95851 0.78828 0.0
C1319 C 0.11763 0.9448 0.7934 0.0
C1320 C 0.14838 0.97444 0.76468 0.0
C1321 C 0.1332 0.97712 0.74588 0.0
C1322 C 0.11013 0.96343 0.75095 0.0
C1323 C 0.10239 0.94728 0.77441 0.0
H1324 H 0.93698 0.15461 0.68663 0.0
H1325 H 0.94461 0.09667 0.67238 0.0
H1326 H 0.9676 0.16952 0.7239 0.0
H1327 H 0.97666 0.11231 0.70728 0.0
H1328 H 0.02126 0.13563 0.79202 0.0
H1329 H -0.01035 0.11981 0.75647 0.0
H1330 H 0.00507 0.18689 0.73051 0.0
H1331 H 0.03531 0.20233 0.76846 0.0
C1332 C 0.94545 0.14522 0.6914 0.0
C1333 C 0.93847 0.1245 0.67699 0.0
C1334 C 0.96324 0.15385 0.71246 0.0
C1335 C 0.975 0.14234 0.71866 0.0
C1336 C 0.96788 0.12155 0.70387 0.0
C1337 C 0.94957 0.11257 0.68367 0.0
C1338 C 0.01782 0.14689 0.77854 0.0
C1339 C 0.03058 0.17013 0.78284 0.0
C1340 C -0.00024 0.13787 0.75793 0.0
C1341 C -0.00549 0.15196 0.74039 0.0
C1342 C 0.00798 0.17535 0.74411 0.0
C1343 C 0.02554 0.1843 0.76555 0.0
H1344 H 0.82038 0.50922 0.66184 0.0
H1345 H 0.77209 0.5047 0.59379 0.0
H1346 H 0.83691 0.49559 0.62329 0.0
H1347 H 0.78908 0.49162 0.5551 0.0
H1348 H 0.84647 0.49653 0.49092 0.0
H1349 H 0.83134 0.51088 0.53037 0.0
H1350 H 0.81914 0.45583 0.5905 0.0
H1351 H 0.83377 0.44101 0.55069 0.0
C1352 C 0.81343 0.50548 0.6386 0.0
C1353 C 0.79497 0.50799 0.63071 0.0
C1354 C 0.82281 0.49761 0.6167 0.0
C1355 C 0.8142 0.49264 0.58642 0.0
C1356 C 0.796 0.49547 0.57836 0.0
C1357 C 0.78629 0.50286 0.60044 0.0
C1358 C 0.84072 0.48756 0.51263 0.0
C1359 C 0.84125 0.46764 0.5178 0.0
C1360 C 0.83198 0.49572 0.53505 0.0
C1361 C 0.82409 0.48437 0.56324 0.0
C1362 C 0.82522 0.46484 0.56887 0.0
C1363 C 0.83352 0.45639 0.54616 0.0
H1364 H 0.46671 0.25687 0.58872 0.0
H1365 H 0.4574 0.30133 0.6501 0.0
H1366 H 0.48218 0.2864 0.54923 0.0
H1367 H 0.47338 0.33088 0.61097 0.0
H1368 H 0.53164 0.38205 0.54475 0.0
H1369 H 0.51514 0.3524 0.58396 0.0
H1370 H 0.46452 0.30932 0.51827 0.0
H1371 H 0.48054 0.33904 0.47933 0.0
C1372 C 0.46798 0.27292 0.59373 0.0
C1373 C 0.46083 0.27683 0.62236 0.0
C1374 C 0.47675 0.28971 0.5712 0.0
C1375 C 0.47896 0.31079 0.57731 0.0
C1376 C 0.4719 0.31474 0.60592 0.0
C1377 C 0.46267 0.29782 0.62815 0.0
C1378 C 0.51693 0.36628 0.53879 0.0
C1379 C 0.50731 0.36282 0.50912 0.0
C1380 C 0.50752 0.34942 0.56115 0.0
C1381 C 0.48869 0.3287 0.5539 0.0
C1382 C 0.47913 0.32517 0.52422 0.0
C1383 C 0.48822 0.34219 0.5021 0.0
H1384 H 0.60749 0.17218 0.50656 0.0
H1385 H 0.59989 0.10771 0.52953 0.0
H1386 H 0.64036 0.19051 0.54017 0.0
H1387 H 0.63145 0.12554 0.56502 0.0
H1388 H 0.70102 0.16101 0.60041 0.0
H1389 H 0.66958 0.14563 0.56455 0.0
H1390 H 0.65593 0.19879 0.58924 0.0
H1391 H 0.6887 0.21504 0.62322 0.0
C1392 C 0.61256 0.16193 0.51955 0.0
C1393 C 0.60134 0.1386 0.51552 0.0
C1394 C 0.63138 0.1724 0.53887 0.0
C1395 C 0.63897 0.15962 0.55505 0.0
C1396 C 0.62676 0.1361 0.55215 0.0
C1397 C 0.60843 0.12576 0.53218 0.0
C1398 C 0.69148 0.16957 0.59759 0.0
C1399 C 0.69719 0.18916 0.61433 0.0
C1400 C 0.67321 0.1606 0.57743 0.0
C1401 C 0.65969 0.17057 0.57442 0.0
C1402 C 0.66594 0.19067 0.59062 0.0
C1403 C 0.6847 0.20002 0.61013 0.0
H1404 H 0.53671 0.14321 0.0401 0.0
H1405 H 0.48569 0.13886 0.97725 0.0
H1406 H 0.52322 0.15909 0.08007 0.0
H1407 H 0.47269 0.15514 0.01681 0.0
H1408 H 0.47628 0.20929 0.0864 0.0
H1409 H 0.49158 0.19489 0.04697 0.0
H1410 H 0.48311 0.1421 0.10918 0.0
H1411 H 0.46737 0.15606 0.14829 0.0
C1412 C 0.52273 0.14574 0.03483 0.0
C1413 C 0.51217 0.13973 0.00571 0.0
C1414 C 0.51503 0.15476 0.05761 0.0
C1415 C 0.49704 0.15836 0.05127 0.0
C1416 C 0.48671 0.15265 0.02206 0.0
C1417 C 0.49406 0.14321 -0.00043 0.0
C1418 C 0.4777 0.19462 0.09159 0.0
C1419 C 0.47054 0.18371 0.12025 0.0
C1420 C 0.48641 0.18642 0.06911 0.0
C1421 C 0.48854 0.1675 0.07527 0.0
C1422 C 0.48175 0.15682 0.10409 0.0
C1423 C 0.47262 0.16472 0.12629 0.0
H1424 H 0.83572 0.34151 -0.01121 0.0
H1425 H 0.8267 0.38726 0.04787 0.0
H1426 H 0.81987 0.31281 0.02904 0.0
H1427 H 0.81122 0.35856 0.08838 0.0
H1428 H 0.81389 0.30926 0.1618 0.0
H1429 H 0.82812 0.33789 0.12146 0.0
H1430 H 0.78007 0.29043 0.05657 0.0
H1431 H 0.76541 0.26171 0.0972 0.0
C1432 C 0.83048 0.34548 0.01044 0.0
C1433 C 0.83247 0.36662 0.01529 0.0
C1434 C 0.82128 0.32901 0.0333 0.0
C1435 C 0.8143 0.33354 0.06161 0.0
C1436 C 0.81655 0.35475 0.06668 0.0
C1437 C 0.82536 0.3711 0.04357 0.0
C1438 C 0.8063 0.30493 0.13896 0.0
C1439 C 0.78856 0.28327 0.13256 0.0
C1440 C 0.81438 0.32134 0.11599 0.0
C1441 C 0.80515 0.31629 0.08606 0.0
C1442 C 0.78747 0.29463 0.07953 0.0
C1443 C 0.77907 0.27829 0.10272 0.0
H1444 H 0.60267 0.42531 0.02019 0.0
H1445 H 0.62483 0.49344 -0.00824 0.0
H1446 H 0.63172 0.43924 0.06041 0.0
H1447 H 0.65364 0.50723 0.03193 0.0
H1448 H 0.67962 0.52096 0.13307 0.0
H1449 H 0.65218 0.50668 0.09116 0.0
H1450 H 0.6753 0.46116 0.06386 0.0
H1451 H 0.70306 0.47561 0.10589 0.0
C1452 C 0.61373 0.44321 0.02253 0.0
C1453 C 0.61145 0.4583 0.00296 0.0
C1454 C 0.63041 0.45114 0.04535 0.0
C1455 C 0.64483 0.47428 0.0492 0.0
C1456 C 0.64261 0.48932 0.02954 0.0
C1457 C 0.62616 0.48141 0.00653 0.0
C1458 C 0.67892 0.50795 0.11809 0.0
C1459 C 0.69347 0.49939 0.12269 0.0
C1460 C 0.66328 0.49987 0.09406 0.0
C1461 C 0.66169 0.48286 0.07435 0.0
C1462 C 0.67616 0.47421 0.07891 0.0
C1463 C 0.69208 0.48255 0.10278 0.0
H1464 H 0.42442 0.82714 0.93019 0.0
H1465 H 0.47971 0.83723 -0.01124 0.0
H1466 H 0.4376 0.81144 0.88965 0.0
H1467 H 0.49251 0.82116 0.94856 0.0
H1468 H 0.49095 0.76776 0.87946 0.0
H1469 H 0.4758 0.78129 0.92032 0.0
H1470 H 0.47543 0.82959 0.85678 0.0
H1471 H 0.49093 0.81651 0.81623 0.0
C1472 C 0.43928 0.82588 0.93442 0.0
C1473 C 0.45111 0.83348 0.96248 0.0
C1474 C 0.4468 0.81696 0.9113 0.0
C1475 C 0.46598 0.81508 0.9162 0.0
C1476 C 0.47758 0.8223 0.94443 0.0
C1477 C 0.47033 0.83162 0.96727 0.0
C1478 C 0.48758 0.78123 0.87428 0.0
C1479 C 0.49218 0.79116 0.84479 0.0
C1480 C 0.47899 0.78896 0.89759 0.0
C1481 C 0.47443 0.80638 0.8915 0.0
C1482 C 0.47866 0.81602 0.86188 0.0
C1483 C 0.48765 0.80862 0.83882 0.0
H1484 H 0.20567 0.69361 0.83972 0.0
H1485 H 0.15397 0.70818 0.8668 0.0
H1486 H 0.1904 0.66164 0.87473 0.0
H1487 H 0.13974 0.67764 0.90399 0.0
H1488 H 0.10331 0.60881 0.94419 0.0
H1489 H 0.11926 0.63992 0.90792 0.0
H1490 H 0.18489 0.64753 0.92358 0.0
H1491 H 0.16824 0.61503 0.9576 0.0
C1492 C 0.19137 0.69025 0.85392 0.0
C1493 C 0.1809 0.70317 0.85071 0.0
C1494 C 0.1826 0.67197 0.87413 0.0
C1495 C 0.16357 0.66669 0.89221 0.0
C1496 C 0.15388 0.68052 0.88984 0.0
C1497 C 0.1622 0.69827 0.86887 0.0
C1498 C 0.12109 0.61706 0.93943 0.0
C1499 C 0.13457 0.60958 0.9534 0.0
C1500 C 0.13038 0.63513 0.91897 0.0
C1501 C 0.15356 0.64669 0.91295 0.0
C1502 C 0.16697 0.63897 0.92703 0.0
C1503 C 0.15749 0.62039 0.94669 0.0
H1504 H 0.38113 0.53762 0.92305 0.0
H1505 H 0.33906 0.48327 -0.01547 0.0
H1506 H 0.35153 0.52216 0.88348 0.0
H1507 H 0.30945 0.46828 0.94531 0.0
H1508 H 0.25571 0.47083 0.87893 0.0
H1509 H 0.28547 0.48558 0.91826 0.0
H1510 H 0.33082 0.48225 0.85234 0.0
H1511 H 0.30108 0.46702 0.81329 0.0
C1512 C 0.3656 0.52241 0.92805 0.0
C1513 C 0.36238 0.5116 0.95675 0.0
C1514 C 0.34876 0.51359 0.90549 0.0
C1515 C 0.32831 0.49415 0.91159 0.0
C1516 C 0.32507 0.48338 0.94026 0.0
C1517 C 0.34205 0.49189 0.96253 0.0
C1518 C 0.272 0.47316 0.87295 0.0
C1519 C 0.27609 0.46773 0.84318 0.0
C1520 C 0.28894 0.48153 0.89538 0.0
C1521 C 0.31033 0.48506 0.8881 0.0
C1522 C 0.31446 0.47976 0.85833 0.0
C1523 C 0.29742 0.47094 0.83614 0.0
H1524 H 0.14495 0.54571 0.43104 0.0
H1525 H 0.14147 0.49339 0.49029 0.0
H1526 H 0.15964 0.53271 0.38899 0.0
H1527 H 0.15652 0.48076 0.44849 0.0
H1528 H 0.20784 0.48401 0.37504 0.0
H1529 H 0.19475 0.49871 0.41693 0.0
H1530 H 0.14214 0.49421 0.35745 0.0
H1531 H 0.15487 0.47913 0.31575 0.0
C1532 C 0.14746 0.53156 0.4351 0.0
C1533 C 0.14204 0.52051 0.46383 0.0
C1534 C 0.15577 0.52411 0.41109 0.0
C1535 C 0.1592 0.50582 0.41569 0.0
C1536 C 0.15414 0.49502 0.44455 0.0
C1537 C 0.14543 0.50217 0.46833 0.0
C1538 C 0.19352 0.48622 0.37093 0.0
C1539 C 0.18232 0.48039 0.34225 0.0
C1540 C 0.18603 0.49454 0.39486 0.0
C1541 C 0.16751 0.49758 0.39023 0.0
C1542 C 0.15656 0.49214 0.3614 0.0
C1543 C 0.16377 0.48341 0.33769 0.0
H1544 H 0.43109 0.59258 0.42328 0.0
H1545 H 0.48516 0.63762 0.48355 0.0
H1546 H 0.44485 0.62151 0.38294 0.0
H1547 H 0.49849 0.66649 0.44357 0.0
H1548 H 0.49694 0.71845 0.37525 0.0
H1549 H 0.48157 0.68936 0.41528 0.0
H1550 H 0.48323 0.64196 0.3511 0.0
H1551 H 0.49897 0.671 0.31132 0.0
C1552 C 0.44582 0.60864 0.42791 0.0
C1553 C 0.45711 0.61286 0.45643 0.0
C1554 C 0.45367 0.62511 0.40489 0.0
C1555 C 0.47262 0.64615 0.41037 0.0
C1556 C 0.48373 0.65043 0.43898 0.0
C1557 C 0.47618 0.63387 0.46171 0.0
C1558 C 0.49399 0.70181 0.36974 0.0
C1559 C 0.49922 0.69698 0.3403 0.0
C1560 C 0.48527 0.68525 0.39258 0.0
C1561 C 0.48121 0.66351 0.38607 0.0
C1562 C 0.48608 0.65858 0.3565 0.0
C1563 C 0.49521 0.67523 0.33389 0.0
H1564 H 0.35914 0.8661 0.44146 0.0
H1565 H 0.34917 0.80021 0.46074 0.0
H1566 H 0.32746 0.84995 0.40589 0.0
H1567 H 0.31624 0.78359 0.4275 0.0
H1568 H 0.26979 0.7611 0.3441 0.0
H1569 H 0.30193 0.77663 0.37876 0.0
H1570 H 0.28963 0.83091 0.40211 0.0
H1571 H 0.25878 0.81622 0.36514 0.0
C1572 C 0.34998 0.84809 0.43812 0.0
C1573 C 0.35659 0.83438 0.45352 0.0
C1574 C 0.33159 0.83872 0.41808 0.0
C1575 C 0.31888 0.8153 0.41386 0.0
C1576 C 0.32569 0.80166 0.42946 0.0
C1577 C 0.34455 0.81114 0.44869 0.0
C1578 C 0.27395 0.77625 0.35692 0.0
C1579 C 0.26194 0.78753 0.35206 0.0
C1580 C 0.29235 0.78518 0.37697 0.0
C1581 C 0.29872 0.80525 0.39331 0.0
C1582 C 0.28586 0.81587 0.38934 0.0
C1583 C 0.26793 0.80732 0.3685 0.0
H1584 H 0.26978 0.16668 0.10695 0.0
H1585 H 0.2572 0.10413 0.14776 0.0
H1586 H 0.30883 0.18409 0.12305 0.0
H1587 H 0.29641 0.12115 0.16267 0.0
H1588 H 0.36191 0.16302 0.21333 0.0
H1589 H 0.32275 0.14694 0.19821 0.0
H1590 H 0.34301 0.18525 0.1132 0.0
H1591 H 0.38197 0.202 0.12905 0.0
C1592 C 0.27545 0.15657 0.11896 0.0
C1593 C 0.26044 0.13407 0.12614 0.0
C1594 C 0.29787 0.16651 0.12813 0.0
C1595 C 0.30583 0.15408 0.14433 0.0
C1596 C 0.29082 0.1314 0.15087 0.0
C1597 C 0.26837 0.12156 0.14205 0.0
C1598 C 0.35793 0.16811 0.19155 0.0
C1599 C 0.37499 0.18378 0.17242 0.0
C1600 C 0.3355 0.15876 0.18271 0.0
C1601 C 0.32965 0.16465 0.15433 0.0
C1602 C 0.3468 0.18053 0.1354 0.0
C1603 C 0.36918 0.19008 0.14443 0.0
H1604 H 0.82965 0.21749 0.20141 0.0
H1605 H 0.76711 0.16573 0.1632 0.0
H1606 H 0.84838 0.1976 0.18254 0.0
H1607 H 0.78551 0.14533 0.1455 0.0
H1608 H 0.82766 0.12499 0.08947 0.0
H1609 H 0.81082 0.14689 0.10735 0.0
H1610 H 0.85207 0.16552 0.18991 0.0
H1611 H 0.86954 0.14444 0.1713 0.0
C1612 C 0.81985 0.20168 0.1894 0.0
C1613 C 0.79694 0.19319 0.18371 0.0
C1614 C 0.83056 0.19023 0.17862 0.0
C1615 C 0.81852 0.16991 0.16223 0.0
C1616 C 0.79545 0.16118 0.15734 0.0
C1617 C 0.78483 0.17276 0.16777 0.0
C1618 C 0.83328 0.13398 0.11126 0.0
C1619 C 0.8499 0.13299 0.12897 0.0
C1620 C 0.82348 0.14636 0.1217 0.0
C1621 C 0.82988 0.1578 0.15029 0.0
C1622 C 0.84688 0.15717 0.16764 0.0
C1623 C 0.85686 0.145 0.15701 0.0
H1624 H 0.80805 0.59505 0.15819 0.0
H1625 H 0.7547 0.60439 0.19408 0.0
H1626 H 0.82735 0.63361 0.13982 0.0
H1627 H 0.77343 0.64264 0.17452 0.0
H1628 H 0.82444 0.71699 0.16392 0.0
H1629 H 0.80434 0.67857 0.1823 0.0
H1630 H 0.82553 0.65702 0.10118 0.0
H1631 H 0.84654 0.69578 0.08354 0.0
C1632 C 0.80045 0.60537 0.16213 0.0
C1633 C 0.77992 0.59674 0.17767 0.0
C1634 C 0.81138 0.62741 0.15129 0.0
C1635 C 0.80188 0.64125 0.15538 0.0
C1636 C 0.78142 0.63262 0.17127 0.0
C1637 C 0.77064 0.61066 0.18246 0.0
C1638 C 0.82463 0.70402 0.14984 0.0
C1639 C 0.83713 0.70941 0.12232 0.0
C1640 C 0.81302 0.68193 0.16034 0.0
C1641 C 0.8134 0.66463 0.14338 0.0
C1642 C 0.82527 0.66996 0.11522 0.0
C1643 C 0.83713 0.69213 0.10491 0.0
H1644 H 0.1516 0.3671 0.2573 0.0
H1645 H 0.19119 0.38943 0.3412 0.0
H1646 H 0.13329 0.3286 0.2762 0.0
H1647 H 0.17223 0.3513 0.36081 0.0
H1648 H 0.15193 0.27769 0.37169 0.0
H1649 H 0.16971 0.31635 0.35426 0.0
H1650 H 0.10729 0.30387 0.31271 0.0
H1651 H 0.08983 0.26482 0.32897 0.0
C1652 C 0.1563 0.36377 0.27984 0.0
C1653 C 0.17292 0.38123 0.29766 0.0
C1654 C 0.14566 0.34174 0.29085 0.0
C1655 C 0.1512 0.33676 0.32014 0.0
C1656 C 0.16778 0.35435 0.33795 0.0
C1657 C 0.17862 0.37628 0.32674 0.0
C1658 C 0.14194 0.28327 0.35913 0.0
C1659 C 0.1195 0.26822 0.35164 0.0
C1660 C 0.15212 0.3055 0.34918 0.0
C1661 C 0.14001 0.3133 0.33187 0.0
C1662 C 0.1173 0.29837 0.32538 0.0
C1663 C 0.1072 0.27604 0.33498 0.0
H1664 H 0.59432 0.81489 0.30918 0.0
H1665 H 0.60634 0.76442 0.26832 0.0
H1666 H 0.63323 0.83592 0.32573 0.0
H1667 H 0.64512 0.78497 0.28598 0.0
H1668 H 0.71874 0.83942 0.29529 0.0
H1669 H 0.68005 0.81769 0.27795 0.0
H1670 H 0.65823 0.83487 0.36247 0.0
H1671 H 0.69706 0.85739 0.37914 0.0
C1672 C 0.6053 0.80828 0.30378 0.0
C1673 C 0.59729 0.78802 0.28742 0.0
C1674 C 0.62758 0.82022 0.31354 0.0
C1675 C 0.64234 0.81207 0.30753 0.0
C1676 C 0.63434 0.79192 0.29075 0.0
C1677 C 0.61209 0.78009 0.28067 0.0
C1678 C 0.70565 0.83842 0.31027 0.0
C1679 C 0.71095 0.85019 0.33853 0.0
C1680 C 0.68343 0.82587 0.30037 0.0
C1681 C 0.66595 0.82462 0.31866 0.0
C1682 C 0.67126 0.83585 0.34743 0.0
C1683 C 0.69351 0.8486 0.35716 0.0
H1684 H 0.19305 0.82191 0.26585 0.0
H1685 H 0.14463 0.75937 0.3077 0.0
H1686 H 0.17174 0.83931 0.2834 0.0
H1687 H 0.12265 0.77651 0.32418 0.0
H1688 H 0.10292 0.82046 0.37996 0.0
H1689 H 0.12377 0.80267 0.36116 0.0
H1690 H 0.13889 0.84114 0.27649 0.0
H1691 H 0.11899 0.85954 0.29591 0.0
C1692 C 0.17757 0.81173 0.27824 0.0
C1693 C 0.17053 0.78928 0.28543 0.0
C1694 C 0.16528 0.82171 0.28827 0.0
C1695 C 0.14549 0.80939 0.30542 0.0
C1696 C 0.13805 0.78665 0.31162 0.0
C1697 C 0.1505 0.77674 0.30187 0.0
C1698 C 0.11088 0.82521 0.35746 0.0
C1699 C 0.10944 0.84149 0.33951 0.0
C1700 C 0.12263 0.81485 0.3465 0.0
C1701 C 0.13297 0.82037 0.31719 0.0
C1702 C 0.13149 0.83671 0.29935 0.0
C1703 C 0.12 0.84723 0.31046 0.0
H1704 H 0.71196 0.8737 0.7994 0.0
H1705 H 0.69184 0.83287 0.882 0.0
H1706 H 0.67323 0.85566 0.78211 0.0
H1707 H 0.65286 0.81543 0.86541 0.0
H1708 H 0.58924 0.77104 0.81172 0.0
H1709 H 0.62822 0.78961 0.8282 0.0
H1710 H 0.63786 0.8522 0.79098 0.0
H1711 H 0.59908 0.83331 0.77334 0.0
C1712 C 0.69919 0.86111 0.81413 0.0
C1713 C 0.70495 0.85466 0.84204 0.0
C1714 C 0.67693 0.85081 0.80426 0.0
C1715 C 0.65985 0.83398 0.82225 0.0
C1716 C 0.6656 0.82798 0.85062 0.0
C1717 C 0.68792 0.83812 0.86031 0.0
C1718 C 0.59976 0.78873 0.80685 0.0
C1719 C 0.59113 0.80071 0.79119 0.0
C1720 C 0.62207 0.79945 0.81658 0.0
C1721 C 0.63621 0.82249 0.81122 0.0
C1722 C 0.62758 0.83439 0.79519 0.0
C1723 C 0.60532 0.82359 0.78513 0.0
H1724 H 0.19752 0.80807 0.83797 0.0
H1725 H 0.15494 0.78745 0.75682 0.0
H1726 H 0.17957 0.82859 0.85678 0.0
H1727 H 0.13761 0.80889 0.77484 0.0
H1728 H 0.09416 0.82826 0.83075 0.0
H1729 H 0.11249 0.80773 0.81297 0.0
H1730 H 0.17554 0.86018 0.84934 0.0
H1731 H 0.15695 0.88005 0.86833 0.0
C1732 C 0.18461 0.8083 0.82384 0.0
C1733 C 0.17761 0.79613 0.79594 0.0
C1734 C 0.17432 0.82013 0.83458 0.0
C1735 C 0.157 0.82032 0.81747 0.0
C1736 C 0.15053 0.80871 0.78901 0.0
C1737 C 0.16062 0.79661 0.77848 0.0
C1738 C 0.11189 0.83524 0.83522 0.0
C1739 C 0.12411 0.85571 0.85102 0.0
C1740 C 0.12247 0.82361 0.82473 0.0
C1741 C 0.14558 0.83237 0.82943 0.0
C1742 C 0.15769 0.85273 0.84564 0.0
C1743 C 0.14704 0.86419 0.8565 0.0
H1744 H 0.20819 0.36641 0.76636 0.0
H1745 H 0.15733 0.37732 0.80782 0.0
H1746 H 0.18904 0.32794 0.78503 0.0
H1747 H 0.13753 0.33855 0.82528 0.0
H1748 H 0.11866 0.27617 0.88033 0.0
H1749 H 0.13996 0.31481 0.86249 0.0
H1750 H 0.15757 0.29224 0.77897 0.0
H1751 H 0.13718 0.25383 0.79758 0.0
C1752 C 0.19266 0.36043 0.77894 0.0
C1753 C 0.18427 0.37488 0.78566 0.0
C1754 C 0.18163 0.33833 0.78964 0.0
C1755 C 0.1618 0.33009 0.80696 0.0
C1756 C 0.15305 0.34442 0.81272 0.0
C1757 C 0.16424 0.36659 0.80239 0.0
C1758 C 0.12738 0.27955 0.85839 0.0
C1759 C 0.12625 0.26198 0.84037 0.0
C1760 C 0.13939 0.30167 0.84794 0.0
C1761 C 0.15026 0.3067 0.81902 0.0
C1762 C 0.14964 0.28912 0.80148 0.0
C1763 C 0.13789 0.26704 0.81213 0.0
H1764 H 0.80674 0.70294 0.60625 0.0
H1765 H 0.86886 0.71663 0.64974 0.0
H1766 H 0.78915 0.66438 0.62439 0.0
H1767 H 0.85162 0.67779 0.66676 0.0
H1768 H 0.80898 0.61349 0.71983 0.0
H1769 H 0.82548 0.65233 0.70275 0.0
H1770 H 0.78787 0.62991 0.61706 0.0
H1771 H 0.77074 0.59137 0.63476 0.0
C1772 C 0.81673 0.69759 0.61927 0.0
C1773 C 0.83917 0.7128 0.62657 0.0
C1774 C 0.80667 0.67544 0.62962 0.0
C1775 C 0.8189 0.6679 0.6472 0.0
C1776 C 0.84153 0.68307 0.65388 0.0
C1777 C 0.8515 0.70529 0.64384 0.0
C1778 C 0.80411 0.61694 0.6975 0.0
C1779 C 0.78853 0.59939 0.6787 0.0
C1780 C 0.81371 0.63918 0.68754 0.0
C1781 C 0.80814 0.64432 0.65839 0.0
C1782 C 0.79234 0.62669 0.63982 0.0
C1783 C 0.78256 0.60453 0.64994 0.0
H1784 H 0.2513 0.14506 0.64131 0.0
H1785 H 0.26446 0.09449 0.60363 0.0
H1786 H 0.29001 0.16662 0.65876 0.0
H1787 H 0.3029 0.11547 0.62227 0.0
H1788 H 0.376 0.16964 0.63212 0.0
H1789 H 0.33757 0.14793 0.61406 0.0
H1790 H 0.31497 0.16665 0.6965 0.0
H1791 H 0.35367 0.18926 0.71383 0.0
C1792 C 0.26249 0.13855 0.6368 0.0
C1793 C 0.25489 0.11814 0.62102 0.0
C1794 C 0.28463 0.15079 0.64709 0.0
C1795 C 0.29961 0.14273 0.6422 0.0
C1796 C 0.29198 0.12237 0.62611 0.0
C1797 C 0.26991 0.11029 0.61547 0.0
C1798 C 0.36281 0.16899 0.64651 0.0
C1799 C 0.36785 0.18119 0.67437 0.0
C1800 C 0.34072 0.15644 0.6362 0.0
C1801 C 0.32309 0.15557 0.6537 0.0
C1802 C 0.32813 0.16731 0.68206 0.0
C1803 C 0.35029 0.1801 0.69218 0.0
H1804 H 0.83267 0.10651 0.66761 0.0
H1805 H 0.85192 0.14605 0.58382 0.0
H1806 H 0.81315 0.12571 0.68539 0.0
H1807 H 0.83147 0.16466 0.60092 0.0
H1808 H 0.81318 0.21035 0.6539 0.0
H1809 H 0.83338 0.19132 0.63752 0.0
H1810 H 0.78155 0.12956 0.67735 0.0
H1811 H 0.76202 0.14883 0.69486 0.0
C1812 C 0.83237 0.11903 0.6527 0.0
C1813 C 0.84382 0.12476 0.6243 0.0
C1814 C 0.82111 0.13004 0.66287 0.0
C1815 C 0.82076 0.14685 0.64469 0.0
C1816 C 0.83175 0.15215 0.61585 0.0
C1817 C 0.84328 0.14131 0.60586 0.0
C1818 C 0.8063 0.19278 0.65946 0.0
C1819 C 0.78608 0.18111 0.67576 0.0
C1820 C 0.81773 0.18178 0.64978 0.0
C1821 C 0.80904 0.15881 0.65586 0.0
C1822 C 0.78895 0.1473 0.67261 0.0
C1823 C 0.7777 0.15835 0.68261 0.0
H1824 H 0.05136 0.52788 0.46432 0.0
H1825 H 0.0285 0.48964 0.54899 0.0
H1826 H 0.01322 0.50976 0.44482 0.0
H1827 H -0.01003 0.4722 0.53018 0.0
H1828 H 0.92494 0.43068 0.4783 0.0
H1829 H 0.96394 0.4464 0.49416 0.0
H1830 H 0.97948 0.50951 0.45175 0.0
H1831 H 0.94089 0.49344 0.43476 0.0
C1832 C 0.0381 0.51576 0.47895 0.0
C1833 C 0.04288 0.51026 0.50827 0.0
C1834 C 0.01617 0.50541 0.46781 0.0
C1835 C -0.00161 0.48956 0.48593 0.0
C1836 C 0.00323 0.48405 0.51533 0.0
C1837 C 0.02528 0.49418 0.52629 0.0
C1838 C 0.93681 0.4478 0.47201 0.0
C1839 C 0.92988 0.46081 0.45524 0.0
C1840 C 0.95912 0.45691 0.48137 0.0
C1841 C 0.97491 0.47931 0.47449 0.0
C1842 C 0.96796 0.4921 0.4571 0.0
C1843 C 0.94576 0.48291 0.44741 0.0
H1844 H 0.49463 0.54464 0.52965 0.0
H1845 H 0.43226 0.49468 0.48869 0.0
H1846 H 0.5128 0.52417 0.51125 0.0
H1847 H 0.45013 0.4736 0.47141 0.0
H1848 H 0.49294 0.45261 0.41717 0.0
H1849 H 0.47605 0.47465 0.43447 0.0
H1850 H 0.51525 0.4916 0.51888 0.0
H1851 H 0.53276 0.47047 0.50093 0.0
C1852 C 0.48471 0.52906 0.51715 0.0
C1853 C 0.46203 0.52126 0.5106 0.0
C1854 C 0.49512 0.51727 0.50664 0.0
C1855 C 0.48299 0.49725 0.48967 0.0
C1856 C 0.46013 0.4892 0.4838 0.0
C1857 C 0.4498 0.50114 0.49399 0.0
C1858 C 0.49811 0.46129 0.43923 0.0
C1859 C 0.5142 0.45986 0.45764 0.0
C1860 C 0.48827 0.47374 0.44933 0.0
C1861 C 0.49412 0.48479 0.47823 0.0
C1862 C 0.51053 0.48361 0.49633 0.0
C1863 C 0.52054 0.47141 0.48607 0.0
H1864 H 0.48529 0.04287 0.47557 0.0
H1865 H 0.53692 0.0318 0.43719 0.0
H1866 H 0.46495 0.004 0.49275 0.0
H1867 H 0.5172 -0.00671 0.45549 0.0
H1868 H 0.46505 0.9193 0.46609 0.0
H1869 H 0.48557 0.95779 0.44784 0.0
H1870 H 0.46658 0.97989 0.53053 0.0
H1871 H 0.44521 0.94117 0.54806 0.0
C1872 C 0.49226 0.0321 0.47075 0.0
C1873 C 0.51266 0.04037 0.45496 0.0
C1874 C 0.48074 0.00988 0.48091 0.0
C1875 C 0.48951 -0.00451 0.47583 0.0
C1876 C 0.50976 0.00373 0.45951 0.0
C1877 C 0.52112 0.02587 0.44905 0.0
C1878 C 0.46546 0.93241 0.48054 0.0
C1879 C 0.45347 0.9272 0.50849 0.0
C1880 C 0.47729 0.95454 0.47009 0.0
C1881 C 0.47763 0.97202 0.48754 0.0
C1882 C 0.46627 0.96683 0.5161 0.0
C1883 C 0.45422 0.94466 0.52636 0.0
H1884 H 0.47379 0.0337 0.93398 0.0
H1885 H 0.53728 0.04589 0.97081 0.0
H1886 H 0.45602 -0.00457 0.95334 0.0
H1887 H 0.51979 0.00732 -0.011 0.0
H1888 H 0.47817 0.94561 0.04745 0.0
H1889 H 0.49521 0.98387 0.02791 0.0
H1890 H 0.45269 0.95994 0.94664 0.0
H1891 H 0.43505 0.92199 0.96691 0.0
C1892 C 0.48402 0.02805 0.94571 0.0
C1893 C 0.5069 0.04279 0.95094 0.0
C1894 C 0.47386 0.00607 0.95677 0.0
C1895 C 0.48641 -0.00175 0.97297 0.0
C1896 C 0.50947 0.01288 0.97729 0.0
C1897 C 0.51957 0.03493 0.96657 0.0
C1898 C 0.47236 0.94861 0.02556 0.0
C1899 C 0.45524 0.93083 0.00878 0.0
C1900 C 0.48227 0.9705 0.01416 0.0
C1901 C 0.47547 0.97504 -0.01447 0.0
C1902 C 0.45817 0.95719 0.96895 0.0
C1903 C 0.44808 0.93538 0.98053 0.0
H1904 H 0.93478 0.43253 0.93662 0.0
H1905 H 0.92453 0.48394 0.97814 0.0
H1906 H 0.97345 0.45191 0.95436 0.0
H1907 H 0.96356 0.504 -0.00531 0.0
H1908 H 0.02737 0.52321 0.0479 0.0
H1909 H -0.0116 0.5024 0.03102 0.0
H1910 H 0.00877 0.48327 0.94683 0.0
H1911 H 0.04741 0.50313 0.96444 0.0
C1912 C 0.94093 0.44822 0.94905 0.0
C1913 C 0.92662 0.45672 0.95597 0.0
C1914 C 0.96316 0.4594 0.95919 0.0
C1915 C 0.97172 0.47952 0.97616 0.0
C1916 C 0.95748 0.48831 0.98232 0.0
C1917 C 0.93516 0.47695 0.97251 0.0
C1918 C 0.02343 0.5143 0.02599 0.0
C1919 C 0.04044 0.51475 0.00756 0.0
C1920 C 0.00112 0.50257 0.0161 0.0
C1921 C -0.00465 0.49127 -0.01263 0.0
C1922 C 0.01243 0.49146 0.96926 0.0
C1923 C 0.03466 0.50293 0.97933 0.0
H1924 H 0.51068 0.44764 0.00577 0.0
H1925 H 0.52454 0.4853 0.92068 0.0
H1926 H 0.49094 0.46608 0.0257 0.0
H1927 H 0.5038 0.50306 0.93995 0.0
H1928 H 0.48247 0.54615 -0.00733 0.0
H1929 H 0.50481 0.52947 0.97602 0.0
H1930 H 0.4577 0.46715 0.01999 0.0
H1931 H 0.43609 0.48418 0.03775 0.0
C1932 C 0.50923 0.45966 -0.00886 0.0
C1933 C 0.51908 0.46497 0.96161 0.0
C1934 C 0.49783 0.4702 0.00253 0.0
C1935 C 0.49569 0.48608 -0.01553 0.0
C1936 C 0.50544 0.49124 0.95477 0.0
C1937 C 0.51714 0.48091 0.94356 0.0
C1938 C 0.47711 0.52899 -0.00088 0.0
C1939 C 0.45756 0.51649 0.01655 0.0
C1940 C 0.48977 0.51933 -0.0107 0.0
C1941 C 0.483 0.49686 -0.00362 0.0
C1942 C 0.46367 0.48458 0.01444 0.0
C1943 C 0.45119 0.49432 0.02458 0.0
loop_
_geom_bond_atom_site_label_1
_geom_bond_atom_site_label_2
_geom_bond_distance
_geom_bond_site_symmetry_2
_ccdc_geom_bond_type
C0 O1 1.306 . S
C0 O3 1.160 . S
O1 C0 1.306 . S
O1 Cd2 2.228 . S
Cd2 O1 2.228 . S
Cd2 O6 2.273 . S
Cd2 O10 2.277 . S
O3 C0 1.160 . S
O3 Cd4 2.203 . S
Cd4 O3 2.203 . S
Cd4 O6 2.411 . S
Cd4 O7 2.333 . S
Cd4 O8 2.352 . S
Cd4 O12 2.277 . S
Cd4 O13 2.356 . S
C5 O10 1.209 . S
C5 O12 1.226 . S
O6 Cd2 2.273 . S
O6 Cd4 2.411 . S
O6 C9 1.320 . S
O7 Cd4 2.333 . S
O7 C9 1.214 . S
O8 Cd4 2.352 . S
O8 C11 1.258 . S
C9 O6 1.320 . S
C9 O7 1.214 . S
O10 Cd2 2.277 . S
O10 C5 1.209 . S
C11 O8 1.258 . S
C11 O13 1.282 . S
O12 Cd4 2.277 . S
O12 C5 1.226 . S
O13 Cd4 2.356 . S
O13 C11 1.282 . S
C14 O15 1.306 . S
C14 O17 1.160 . S
O15 C14 1.306 . S
O15 Cd16 2.228 . S
Cd16 O15 2.228 . S
Cd16 O20 2.273 . S
Cd16 O24 2.277 . S
O17 C14 1.160 . S
O17 Cd18 2.203 . S
Cd18 O17 2.203 . S
Cd18 O20 2.411 . S
Cd18 O21 2.333 . S
Cd18 O22 2.352 . S
Cd18 O26 2.277 . S
Cd18 O27 2.356 . S
C19 O24 1.209 . S
C19 O26 1.226 . S
O20 Cd16 2.273 . S
O20 Cd18 2.411 . S
O20 C23 1.320 . S
O21 Cd18 2.333 . S
O21 C23 1.214 . S
O22 Cd18 2.352 . S
O22 C25 1.258 . S
C23 O20 1.320 . S
C23 O21 1.214 . S
O24 Cd16 2.277 . S
O24 C19 1.209 . S
C25 O22 1.258 . S
C25 O27 1.282 . S
O26 Cd18 2.277 . S
O26 C19 1.226 . S
O27 Cd18 2.356 . S
O27 C25 1.282 . S
C28 O29 1.306 . S
C28 O31 1.160 . S
O29 C28 1.306 . S
O29 Cd30 2.228 . S
Cd30 O29 2.228 . S
Cd30 O34 2.273 . S
Cd30 O38 2.277 . S
O31 C28 1.160 . S
O31 Cd32 2.203 . S
Cd32 O31 2.203 . S
Cd32 O34 2.411 . S
Cd32 O35 2.333 . S
Cd32 O36 2.352 . S
Cd32 O40 2.277 . S
Cd32 O41 2.356 . S
C33 O38 1.209 . S
C33 O40 1.226 . S
O34 Cd30 2.273 . S
O34 Cd32 2.411 . S
O34 C37 1.320 . S
O35 Cd32 2.333 . S
O35 C37 1.214 . S
O36 Cd32 2.352 . S
O36 C39 1.258 . S
C37 O34 1.320 . S
C37 O35 1.214 . S
O38 Cd30 2.277 . S
O38 C33 1.209 . S
C39 O36 1.258 . S
C39 O41 1.282 . S
O40 Cd32 2.277 . S
O40 C33 1.226 . S
O41 Cd32 2.356 . S
O41 C39 1.282 . S
C42 O43 1.306 . S
C42 O45 1.160 . S
O43 C42 1.306 . S
O43 Cd44 2.228 . S
Cd44 O43 2.228 . S
Cd44 O48 2.273 . S
Cd44 O52 2.277 . S
O45 C42 1.160 . S
O45 Cd46 2.203 . S
Cd46 O45 2.203 . S
Cd46 O48 2.411 . S
Cd46 O49 2.333 . S
Cd46 O50 2.352 . S
Cd46 O54 2.277 . S
Cd46 O55 2.356 . S
C47 O52 1.209 . S
C47 O54 1.226 . S
O48 Cd44 2.273 . S
O48 Cd46 2.411 . S
O48 C51 1.320 . S
O49 Cd46 2.333 . S
O49 C51 1.214 . S
O50 Cd46 2.352 . S
O50 C53 1.258 . S
C51 O48 1.320 . S
C51 O49 1.214 . S
O52 Cd44 2.277 . S
O52 C47 1.209 . S
C53 O50 1.258 . S
C53 O55 1.282 . S
O54 Cd46 2.277 . S
O54 C47 1.226 . S
O55 Cd46 2.356 . S
O55 C53 1.282 . S
C56 O57 1.306 . S
C56 O59 1.160 . S
O57 C56 1.306 . S
O57 Cd58 2.228 . S
Cd58 O57 2.228 . S
Cd58 O62 2.273 . S
Cd58 O66 2.277 . S
O59 C56 1.160 . S
O59 Cd60 2.203 . S
Cd60 O59 2.203 . S
Cd60 O62 2.411 . S
Cd60 O63 2.333 . S
Cd60 O64 2.352 . S
Cd60 O68 2.277 . S
Cd60 O69 2.356 . S
C61 O66 1.209 . S
C61 O68 1.226 . S
O62 Cd58 2.273 . S
O62 Cd60 2.411 . S
O62 C65 1.320 . S
O63 Cd60 2.333 . S
O63 C65 1.214 . S
O64 Cd60 2.352 . S
O64 C67 1.258 . S
C65 O62 1.320 . S
C65 O63 1.214 . S
O66 Cd58 2.277 . S
O66 C61 1.209 . S
C67 O64 1.258 . S
C67 O69 1.282 . S
O68 Cd60 2.277 . S
O68 C61 1.226 . S
O69 Cd60 2.356 . S
O69 C67 1.282 . S
C70 O71 1.306 . S
C70 O73 1.160 . S
O71 C70 1.306 . S
O71 Cd72 2.228 . S
Cd72 O71 2.228 . S
Cd72 O76 2.273 . S
Cd72 O80 2.277 . S
O73 C70 1.160 . S
O73 Cd74 2.203 . S
Cd74 O73 2.203 . S
Cd74 O76 2.411 . S
Cd74 O77 2.333 . S
Cd74 O78 2.352 . S
Cd74 O82 2.277 . S
Cd74 O83 2.356 . S
C75 O80 1.209 . S
C75 O82 1.226 . S
O76 Cd72 2.273 . S
O76 Cd74 2.411 . S
O76 C79 1.320 . S
O77 Cd74 2.333 . S
O77 C79 1.214 . S
O78 Cd74 2.352 . S
O78 C81 1.258 . S
C79 O76 1.320 . S
C79 O77 1.214 . S
O80 Cd72 2.277 . S
O80 C75 1.209 . S
C81 O78 1.258 . S
C81 O83 1.282 . S
O82 Cd74 2.277 . S
O82 C75 1.226 . S
O83 Cd74 2.356 . S
O83 C81 1.282 . S
C84 O85 1.306 . S
C84 O87 1.160 . S
O85 C84 1.306 . S
O85 Cd86 2.228 . S
Cd86 O85 2.228 . S
Cd86 O90 2.273 . S
Cd86 O94 2.277 . S
O87 C84 1.160 . S
O87 Cd88 2.203 . S
Cd88 O87 2.203 . S
Cd88 O90 2.411 . S
Cd88 O91 2.333 . S
Cd88 O92 2.352 . S
Cd88 O96 2.277 . S
Cd88 O97 2.356 . S
C89 O94 1.209 . S
C89 O96 1.226 . S
O90 Cd86 2.273 . S
O90 Cd88 2.411 . S
O90 C93 1.320 . S
O91 Cd88 2.333 . S
O91 C93 1.214 . S
O92 Cd88 2.352 . S
O92 C95 1.258 . S
C93 O90 1.320 . S
C93 O91 1.214 . S
O94 Cd86 2.277 . S
O94 C89 1.209 . S
C95 O92 1.258 . S
C95 O97 1.282 . S
O96 Cd88 2.277 . S
O96 C89 1.226 . S
O97 Cd88 2.356 . S
O97 C95 1.282 . S
C98 O99 1.306 . S
C98 O101 1.160 . S
O99 C98 1.306 . S
O99 Cd100 2.228 . S
Cd100 O99 2.228 . S
Cd100 O104 2.273 . S
Cd100 O108 2.277 . S
O101 C98 1.160 . S
O101 Cd102 2.203 . S
Cd102 O101 2.203 . S
Cd102 O104 2.411 . S
Cd102 O105 2.333 . S
Cd102 O106 2.352 . S
Cd102 O110 2.277 . S
Cd102 O111 2.356 . S
C103 O108 1.209 . S
C103 O110 1.226 . S
O104 Cd100 2.273 . S
O104 Cd102 2.411 . S
O104 C107 1.320 . S
O105 Cd102 2.333 . S
O105 C107 1.214 . S
O106 Cd102 2.352 . S
O106 C109 1.258 . S
C107 O104 1.320 . S
C107 O105 1.214 . S
O108 Cd100 2.277 . S
O108 C103 1.209 . S
C109 O106 1.258 . S
C109 O111 1.282 . S
O110 Cd102 2.277 . S
O110 C103 1.226 . S
O111 Cd102 2.356 . S
O111 C109 1.282 . S
C112 O113 1.306 . S
C112 O115 1.160 . S
O113 C112 1.306 . S
O113 Cd114 2.228 . S
Cd114 O113 2.228 . S
Cd114 O118 2.273 . S
Cd114 O122 2.277 . S
O115 C112 1.160 . S
O115 Cd116 2.203 . S
Cd116 O115 2.203 . S
Cd116 O118 2.411 . S
Cd116 O119 2.333 . S
Cd116 O120 2.352 . S
Cd116 O124 2.277 . S
Cd116 O125 2.356 . S
C117 O122 1.209 . S
C117 O124 1.226 . S
O118 Cd114 2.273 . S
O118 Cd116 2.411 . S
O118 C121 1.320 . S
O119 Cd116 2.333 . S
O119 C121 1.214 . S
O120 Cd116 2.352 . S
O120 C123 1.258 . S
C121 O118 1.320 . S
C121 O119 1.214 . S
O122 Cd114 2.277 . S
O122 C117 1.209 . S
C123 O120 1.258 . S
C123 O125 1.282 . S
O124 Cd116 2.277 . S
O124 C117 1.226 . S
O125 Cd116 2.356 . S
O125 C123 1.282 . S
C126 O127 1.306 . S
C126 O129 1.160 . S
O127 C126 1.306 . S
O127 Cd128 2.228 . S
Cd128 O127 2.228 . S
Cd128 O132 2.273 . S
Cd128 O136 2.277 . S
O129 C126 1.160 . S
O129 Cd130 2.203 . S
Cd130 O129 2.203 . S
Cd130 O132 2.411 . S
Cd130 O133 2.333 . S
Cd130 O134 2.352 . S
Cd130 O138 2.277 . S
Cd130 O139 2.356 . S
C131 O136 1.209 . S
C131 O138 1.226 . S
O132 Cd128 2.273 . S
O132 Cd130 2.411 . S
O132 C135 1.320 . S
O133 Cd130 2.333 . S
O133 C135 1.214 . S
O134 Cd130 2.352 . S
O134 C137 1.258 . S
C135 O132 1.320 . S
C135 O133 1.214 . S
O136 Cd128 2.277 . S
O136 C131 1.209 . S
C137 O134 1.258 . S
C137 O139 1.282 . S
O138 Cd130 2.277 . S
O138 C131 1.226 . S
O139 Cd130 2.356 . S
O139 C137 1.282 . S
C140 O141 1.306 . S
C140 O143 1.160 . S
O141 C140 1.306 . S
O141 Cd142 2.228 . S
Cd142 O141 2.228 . S
Cd142 O146 2.273 . S
Cd142 O150 2.277 . S
O143 C140 1.160 . S
O143 Cd144 2.203 . S
Cd144 O143 2.203 . S
Cd144 O146 2.411 . S
Cd144 O147 2.333 . S
Cd144 O148 2.352 . S
Cd144 O152 2.277 . S
Cd144 O153 2.356 . S
C145 O150 1.209 . S
C145 O152 1.226 . S
O146 Cd142 2.273 . S
O146 Cd144 2.411 . S
O146 C149 1.320 . S
O147 Cd144 2.333 . S
O147 C149 1.214 . S
O148 Cd144 2.352 . S
O148 C151 1.258 . S
C149 O146 1.320 . S
C149 O147 1.214 . S
O150 Cd142 2.277 . S
O150 C145 1.209 . S
C151 O148 1.258 . S
C151 O153 1.282 . S
O152 Cd144 2.277 . S
O152 C145 1.226 . S
O153 Cd144 2.356 . S
O153 C151 1.282 . S
C154 O155 1.306 . S
C154 O157 1.160 . S
O155 C154 1.306 . S
O155 Cd156 2.228 . S
Cd156 O155 2.228 . S
Cd156 O160 2.273 . S
Cd156 O164 2.277 . S
O157 C154 1.160 . S
O157 Cd158 2.203 . S
Cd158 O157 2.203 . S
Cd158 O160 2.411 . S
Cd158 O161 2.333 . S
Cd158 O162 2.352 . S
Cd158 O166 2.277 . S
Cd158 O167 2.356 . S
C159 O164 1.209 . S
C159 O166 1.226 . S
O160 Cd156 2.273 . S
O160 Cd158 2.411 . S
O160 C163 1.320 . S
O161 Cd158 2.333 . S
O161 C163 1.214 . S
O162 Cd158 2.352 . S
O162 C165 1.258 . S
C163 O160 1.320 . S
C163 O161 1.214 . S
O164 Cd156 2.277 . S
O164 C159 1.209 . S
C165 O162 1.258 . S
C165 O167 1.282 . S
O166 Cd158 2.277 . S
O166 C159 1.226 . S
O167 Cd158 2.356 . S
O167 C165 1.282 . S
C168 O169 1.306 . S
C168 O171 1.160 . S
O169 C168 1.306 . S
O169 Cd170 2.228 . S
Cd170 O169 2.228 . S
Cd170 O174 2.273 . S
Cd170 O178 2.277 . S
O171 C168 1.160 . S
O171 Cd172 2.203 . S
Cd172 O171 2.203 . S
Cd172 O174 2.411 . S
Cd172 O175 2.333 . S
Cd172 O176 2.352 . S
Cd172 O180 2.277 . S
Cd172 O181 2.356 . S
C173 O178 1.209 . S
C173 O180 1.226 . S
O174 Cd170 2.273 . S
O174 Cd172 2.411 . S
O174 C177 1.320 . S
O175 Cd172 2.333 . S
O175 C177 1.214 . S
O176 Cd172 2.352 . S
O176 C179 1.258 . S
C177 O174 1.320 . S
C177 O175 1.214 . S
O178 Cd170 2.277 . S
O178 C173 1.209 . S
C179 O176 1.258 . S
C179 O181 1.282 . S
O180 Cd172 2.277 . S
O180 C173 1.226 . S
O181 Cd172 2.356 . S
O181 C179 1.282 . S
C182 O183 1.306 . S
C182 O185 1.160 . S
O183 C182 1.306 . S
O183 Cd184 2.228 . S
Cd184 O183 2.228 . S
Cd184 O188 2.273 . S
Cd184 O192 2.277 . S
O185 C182 1.160 . S
O185 Cd186 2.203 . S
Cd186 O185 2.203 . S
Cd186 O188 2.411 . S
Cd186 O189 2.333 . S
Cd186 O190 2.352 . S
Cd186 O194 2.277 . S
Cd186 O195 2.356 . S
C187 O192 1.209 . S
C187 O194 1.226 . S
O188 Cd184 2.273 . S
O188 Cd186 2.411 . S
O188 C191 1.320 . S
O189 Cd186 2.333 . S
O189 C191 1.214 . S
O190 Cd186 2.352 . S
O190 C193 1.258 . S
C191 O188 1.320 . S
C191 O189 1.214 . S
O192 Cd184 2.277 . S
O192 C187 1.209 . S
C193 O190 1.258 . S
C193 O195 1.282 . S
O194 Cd186 2.277 . S
O194 C187 1.226 . S
O195 Cd186 2.356 . S
O195 C193 1.282 . S
C196 O197 1.306 . S
C196 O199 1.160 . S
O197 C196 1.306 . S
O197 Cd198 2.228 . S
Cd198 O197 2.228 . S
Cd198 O202 2.273 . S
Cd198 O206 2.277 . S
O199 C196 1.160 . S
O199 Cd200 2.203 . S
Cd200 O199 2.203 . S
Cd200 O202 2.411 . S
Cd200 O203 2.333 . S
Cd200 O204 2.352 . S
Cd200 O208 2.277 . S
Cd200 O209 2.356 . S
C201 O206 1.209 . S
C201 O208 1.226 . S
O202 Cd198 2.273 . S
O202 Cd200 2.411 . S
O202 C205 1.320 . S
O203 Cd200 2.333 . S
O203 C205 1.214 . S
O204 Cd200 2.352 . S
O204 C207 1.258 . S
C205 O202 1.320 . S
C205 O203 1.214 . S
O206 Cd198 2.277 . S
O206 C201 1.209 . S
C207 O204 1.258 . S
C207 O209 1.282 . S
O208 Cd200 2.277 . S
O208 C201 1.226 . S
O209 Cd200 2.356 . S
O209 C207 1.282 . S
C210 O211 1.306 . S
C210 O213 1.160 . S
O211 C210 1.306 . S
O211 Cd212 2.228 . S
Cd212 O211 2.228 . S
Cd212 O216 2.273 . S
Cd212 O220 2.277 . S
O213 C210 1.160 . S
O213 Cd214 2.203 . S
Cd214 O213 2.203 . S
Cd214 O216 2.411 . S
Cd214 O217 2.333 . S
Cd214 O218 2.352 . S
Cd214 O222 2.277 . S
Cd214 O223 2.356 . S
C215 O220 1.209 . S
C215 O222 1.226 . S
O216 Cd212 2.273 . S
O216 Cd214 2.411 . S
O216 C219 1.320 . S
O217 Cd214 2.333 . S
O217 C219 1.214 . S
O218 Cd214 2.352 . S
O218 C221 1.258 . S
C219 O216 1.320 . S
C219 O217 1.214 . S
O220 Cd212 2.277 . S
O220 C215 1.209 . S
C221 O218 1.258 . S
C221 O223 1.282 . S
O222 Cd214 2.277 . S
O222 C215 1.226 . S
O223 Cd214 2.356 . S
O223 C221 1.282 . S
C224 O225 1.306 . S
C224 O227 1.160 . S
O225 C224 1.306 . S
O225 Cd226 2.228 . S
Cd226 O225 2.228 . S
Cd226 O230 2.273 . S
Cd226 O234 2.277 . S
O227 C224 1.160 . S
O227 Cd228 2.203 . S
Cd228 O227 2.203 . S
Cd228 O230 2.411 . S
Cd228 O231 2.333 . S
Cd228 O232 2.352 . S
Cd228 O236 2.277 . S
Cd228 O237 2.356 . S
C229 O234 1.209 . S
C229 O236 1.226 . S
O230 Cd226 2.273 . S
O230 Cd228 2.411 . S
O230 C233 1.320 . S
O231 Cd228 2.333 . S
O231 C233 1.214 . S
O232 Cd228 2.352 . S
O232 C235 1.258 . S
C233 O230 1.320 . S
C233 O231 1.214 . S
O234 Cd226 2.277 . S
O234 C229 1.209 . S
C235 O232 1.258 . S
C235 O237 1.282 . S
O236 Cd228 2.277 . S
O236 C229 1.226 . S
O237 Cd228 2.356 . S
O237 C235 1.282 . S
C238 O239 1.306 . S
C238 O241 1.160 . S
O239 C238 1.306 . S
O239 Cd240 2.228 . S
Cd240 O239 2.228 . S
Cd240 O244 2.273 . S
Cd240 O248 2.277 . S
O241 C238 1.160 . S
O241 Cd242 2.203 . S
Cd242 O241 2.203 . S
Cd242 O244 2.411 . S
Cd242 O245 2.333 . S
Cd242 O246 2.352 . S
Cd242 O250 2.277 . S
Cd242 O251 2.356 . S
C243 O248 1.209 . S
C243 O250 1.226 . S
O244 Cd240 2.273 . S
O244 Cd242 2.411 . S
O244 C247 1.320 . S
O245 Cd242 2.333 . S
O245 C247 1.214 . S
O246 Cd242 2.352 . S
O246 C249 1.258 . S
C247 O244 1.320 . S
C247 O245 1.214 . S
O248 Cd240 2.277 . S
O248 C243 1.209 . S
C249 O246 1.258 . S
C249 O251 1.282 . S
O250 Cd242 2.277 . S
O250 C243 1.226 . S
O251 Cd242 2.356 . S
O251 C249 1.282 . S
C252 O253 1.306 . S
C252 O255 1.160 . S
O253 C252 1.306 . S
O253 Cd254 2.228 . S
Cd254 O253 2.228 . S
Cd254 O258 2.273 . S
Cd254 O262 2.277 . S
O255 C252 1.160 . S
O255 Cd256 2.203 . S
Cd256 O255 2.203 . S
Cd256 O258 2.411 . S
Cd256 O259 2.333 . S
Cd256 O260 2.352 . S
Cd256 O264 2.277 . S
Cd256 O265 2.356 . S
C257 O262 1.209 . S
C257 O264 1.226 . S
O258 Cd254 2.273 . S
O258 Cd256 2.411 . S
O258 C261 1.320 . S
O259 Cd256 2.333 . S
O259 C261 1.214 . S
O260 Cd256 2.352 . S
O260 C263 1.258 . S
C261 O258 1.320 . S
C261 O259 1.214 . S
O262 Cd254 2.277 . S
O262 C257 1.209 . S
C263 O260 1.258 . S
C263 O265 1.282 . S
O264 Cd256 2.277 . S
O264 C257 1.226 . S
O265 Cd256 2.356 . S
O265 C263 1.282 . S
C266 O267 1.306 . S
C266 O269 1.160 . S
O267 C266 1.306 . S
O267 Cd268 2.228 . S
Cd268 O267 2.228 . S
Cd268 O272 2.273 . S
Cd268 O276 2.277 . S
O269 C266 1.160 . S
O269 Cd270 2.203 . S
Cd270 O269 2.203 . S
Cd270 O272 2.411 . S
Cd270 O273 2.333 . S
Cd270 O274 2.352 . S
Cd270 O278 2.277 . S
Cd270 O279 2.356 . S
C271 O276 1.209 . S
C271 O278 1.226 . S
O272 Cd268 2.273 . S
O272 Cd270 2.411 . S
O272 C275 1.320 . S
O273 Cd270 2.333 . S
O273 C275 1.214 . S
O274 Cd270 2.352 . S
O274 C277 1.258 . S
C275 O272 1.320 . S
C275 O273 1.214 . S
O276 Cd268 2.277 . S
O276 C271 1.209 . S
C277 O274 1.258 . S
C277 O279 1.282 . S
O278 Cd270 2.277 . S
O278 C271 1.226 . S
O279 Cd270 2.356 . S
O279 C277 1.282 . S
C280 O281 1.306 . S
C280 O283 1.160 . S
O281 C280 1.306 . S
O281 Cd282 2.228 . S
Cd282 O281 2.228 . S
Cd282 O286 2.273 . S
Cd282 O290 2.277 . S
O283 C280 1.160 . S
O283 Cd284 2.203 . S
Cd284 O283 2.203 . S
Cd284 O286 2.411 . S
Cd284 O287 2.333 . S
Cd284 O288 2.352 . S
Cd284 O292 2.277 . S
Cd284 O293 2.356 . S
C285 O290 1.209 . S
C285 O292 1.226 . S
O286 Cd282 2.273 . S
O286 Cd284 2.411 . S
O286 C289 1.320 . S
O287 Cd284 2.333 . S
O287 C289 1.214 . S
O288 Cd284 2.352 . S
O288 C291 1.258 . S
C289 O286 1.320 . S
C289 O287 1.214 . S
O290 Cd282 2.277 . S
O290 C285 1.209 . S
C291 O288 1.258 . S
C291 O293 1.282 . S
O292 Cd284 2.277 . S
O292 C285 1.226 . S
O293 Cd284 2.356 . S
O293 C291 1.282 . S
C294 O295 1.306 . S
C294 O297 1.160 . S
O295 C294 1.306 . S
O295 Cd296 2.228 . S
Cd296 O295 2.228 . S
Cd296 O300 2.273 . S
Cd296 O304 2.277 . S
O297 C294 1.160 . S
O297 Cd298 2.203 . S
Cd298 O297 2.203 . S
Cd298 O300 2.411 . S
Cd298 O301 2.333 . S
Cd298 O302 2.352 . S
Cd298 O306 2.277 . S
Cd298 O307 2.356 . S
C299 O304 1.209 . S
C299 O306 1.226 . S
O300 Cd296 2.273 . S
O300 Cd298 2.411 . S
O300 C303 1.320 . S
O301 Cd298 2.333 . S
O301 C303 1.214 . S
O302 Cd298 2.352 . S
O302 C305 1.258 . S
C303 O300 1.320 . S
C303 O301 1.214 . S
O304 Cd296 2.277 . S
O304 C299 1.209 . S
C305 O302 1.258 . S
C305 O307 1.282 . S
O306 Cd298 2.277 . S
O306 C299 1.226 . S
O307 Cd298 2.356 . S
O307 C305 1.282 . S
C308 O309 1.306 . S
C308 O311 1.160 . S
O309 C308 1.306 . S
O309 Cd310 2.228 . S
Cd310 O309 2.228 . S
Cd310 O314 2.273 . S
Cd310 O318 2.277 . S
O311 C308 1.160 . S
O311 Cd312 2.203 . S
Cd312 O311 2.203 . S
Cd312 O314 2.411 . S
Cd312 O315 2.333 . S
Cd312 O316 2.352 . S
Cd312 O320 2.277 . S
Cd312 O321 2.356 . S
C313 O318 1.209 . S
C313 O320 1.226 . S
O314 Cd310 2.273 . S
O314 Cd312 2.411 . S
O314 C317 1.320 . S
O315 Cd312 2.333 . S
O315 C317 1.214 . S
O316 Cd312 2.352 . S
O316 C319 1.258 . S
C317 O314 1.320 . S
C317 O315 1.214 . S
O318 Cd310 2.277 . S
O318 C313 1.209 . S
C319 O316 1.258 . S
C319 O321 1.282 . S
O320 Cd312 2.277 . S
O320 C313 1.226 . S
O321 Cd312 2.356 . S
O321 C319 1.282 . S
C322 O323 1.306 . S
C322 O325 1.160 . S
O323 C322 1.306 . S
O323 Cd324 2.228 . S
Cd324 O323 2.228 . S
Cd324 O328 2.273 . S
Cd324 O332 2.277 . S
O325 C322 1.160 . S
O325 Cd326 2.203 . S
Cd326 O325 2.203 . S
Cd326 O328 2.411 . S
Cd326 O329 2.333 . S
Cd326 O330 2.352 . S
Cd326 O334 2.277 . S
Cd326 O335 2.356 . S
C327 O332 1.209 . S
C327 O334 1.226 . S
O328 Cd324 2.273 . S
O328 Cd326 2.411 . S
O328 C331 1.320 . S
O329 Cd326 2.333 . S
O329 C331 1.214 . S
O330 Cd326 2.352 . S
O330 C333 1.258 . S
C331 O328 1.320 . S
C331 O329 1.214 . S
O332 Cd324 2.277 . S
O332 C327 1.209 . S
C333 O330 1.258 . S
C333 O335 1.282 . S
O334 Cd326 2.277 . S
O334 C327 1.226 . S
O335 Cd326 2.356 . S
O335 C333 1.282 . S
C336 O337 1.306 . S
C336 O339 1.160 . S
O337 C336 1.306 . S
O337 Cd338 2.228 . S
Cd338 O337 2.228 . S
Cd338 O342 2.273 . S
Cd338 O346 2.277 . S
O339 C336 1.160 . S
O339 Cd340 2.203 . S
Cd340 O339 2.203 . S
Cd340 O342 2.411 . S
Cd340 O343 2.333 . S
Cd340 O344 2.352 . S
Cd340 O348 2.277 . S
Cd340 O349 2.356 . S
C341 O346 1.209 . S
C341 O348 1.226 . S
O342 Cd338 2.273 . S
O342 Cd340 2.411 . S
O342 C345 1.320 . S
O343 Cd340 2.333 . S
O343 C345 1.214 . S
O344 Cd340 2.352 . S
O344 C347 1.258 . S
C345 O342 1.320 . S
C345 O343 1.214 . S
O346 Cd338 2.277 . S
O346 C341 1.209 . S
C347 O344 1.258 . S
C347 O349 1.282 . S
O348 Cd340 2.277 . S
O348 C341 1.226 . S
O349 Cd340 2.356 . S
O349 C347 1.282 . S
C350 O351 1.306 . S
C350 O353 1.160 . S
O351 C350 1.306 . S
O351 Cd352 2.228 . S
Cd352 O351 2.228 . S
Cd352 O356 2.273 . S
Cd352 O360 2.277 . S
O353 C350 1.160 . S
O353 Cd354 2.203 . S
Cd354 O353 2.203 . S
Cd354 O356 2.411 . S
Cd354 O357 2.333 . S
Cd354 O358 2.352 . S
Cd354 O362 2.277 . S
Cd354 O363 2.356 . S
C355 O360 1.209 . S
C355 O362 1.226 . S
O356 Cd352 2.273 . S
O356 Cd354 2.411 . S
O356 C359 1.320 . S
O357 Cd354 2.333 . S
O357 C359 1.214 . S
O358 Cd354 2.352 . S
O358 C361 1.258 . S
C359 O356 1.320 . S
C359 O357 1.214 . S
O360 Cd352 2.277 . S
O360 C355 1.209 . S
C361 O358 1.258 . S
C361 O363 1.282 . S
O362 Cd354 2.277 . S
O362 C355 1.226 . S
O363 Cd354 2.356 . S
O363 C361 1.282 . S
C364 O365 1.306 . S
C364 O367 1.160 . S
O365 C364 1.306 . S
O365 Cd366 2.228 . S
Cd366 O365 2.228 . S
Cd366 O370 2.273 . S
Cd366 O374 2.277 . S
O367 C364 1.160 . S
O367 Cd368 2.203 . S
Cd368 O367 2.203 . S
Cd368 O370 2.411 . S
Cd368 O371 2.333 . S
Cd368 O372 2.352 . S
Cd368 O376 2.277 . S
Cd368 O377 2.356 . S
C369 O374 1.209 . S
C369 O376 1.226 . S
O370 Cd366 2.273 . S
O370 Cd368 2.411 . S
O370 C373 1.320 . S
O371 Cd368 2.333 . S
O371 C373 1.214 . S
O372 Cd368 2.352 . S
O372 C375 1.258 . S
C373 O370 1.320 . S
C373 O371 1.214 . S
O374 Cd366 2.277 . S
O374 C369 1.209 . S
C375 O372 1.258 . S
C375 O377 1.282 . S
O376 Cd368 2.277 . S
O376 C369 1.226 . S
O377 Cd368 2.356 . S
O377 C375 1.282 . S
C378 O379 1.306 . S
C378 O381 1.160 . S
O379 C378 1.306 . S
O379 Cd380 2.228 . S
Cd380 O379 2.228 . S
Cd380 O384 2.273 . S
Cd380 O388 2.277 . S
O381 C378 1.160 . S
O381 Cd382 2.203 . S
Cd382 O381 2.203 . S
Cd382 O384 2.411 . S
Cd382 O385 2.333 . S
Cd382 O386 2.352 . S
Cd382 O390 2.277 . S
Cd382 O391 2.356 . S
C383 O388 1.209 . S
C383 O390 1.226 . S
O384 Cd380 2.273 . S
O384 Cd382 2.411 . S
O384 C387 1.320 . S
O385 Cd382 2.333 . S
O385 C387 1.214 . S
O386 Cd382 2.352 . S
O386 C389 1.258 . S
C387 O384 1.320 . S
C387 O385 1.214 . S
O388 Cd380 2.277 . S
O388 C383 1.209 . S
C389 O386 1.258 . S
C389 O391 1.282 . S
O390 Cd382 2.277 . S
O390 C383 1.226 . S
O391 Cd382 2.356 . S
O391 C389 1.282 . S
C392 O393 1.306 . S
C392 O395 1.160 . S
O393 C392 1.306 . S
O393 Cd394 2.228 . S
Cd394 O393 2.228 . S
Cd394 O398 2.273 . S
Cd394 O402 2.277 . S
O395 C392 1.160 . S
O395 Cd396 2.203 . S
Cd396 O395 2.203 . S
Cd396 O398 2.411 . S
Cd396 O399 2.333 . S
Cd396 O400 2.352 . S
Cd396 O404 2.277 . S
Cd396 O405 2.356 . S
C397 O402 1.209 . S
C397 O404 1.226 . S
O398 Cd394 2.273 . S
O398 Cd396 2.411 . S
O398 C401 1.320 . S
O399 Cd396 2.333 . S
O399 C401 1.214 . S
O400 Cd396 2.352 . S
O400 C403 1.258 . S
C401 O398 1.320 . S
C401 O399 1.214 . S
O402 Cd394 2.277 . S
O402 C397 1.209 . S
C403 O400 1.258 . S
C403 O405 1.282 . S
O404 Cd396 2.277 . S
O404 C397 1.226 . S
O405 Cd396 2.356 . S
O405 C403 1.282 . S
C406 O407 1.306 . S
C406 O409 1.160 . S
O407 C406 1.306 . S
O407 Cd408 2.228 . S
Cd408 O407 2.228 . S
Cd408 O412 2.273 . S
Cd408 O416 2.277 . S
O409 C406 1.160 . S
O409 Cd410 2.203 . S
Cd410 O409 2.203 . S
Cd410 O412 2.411 . S
Cd410 O413 2.333 . S
Cd410 O414 2.352 . S
Cd410 O418 2.277 . S
Cd410 O419 2.356 . S
C411 O416 1.209 . S
C411 O418 1.226 . S
O412 Cd408 2.273 . S
O412 Cd410 2.411 . S
O412 C415 1.320 . S
O413 Cd410 2.333 . S
O413 C415 1.214 . S
O414 Cd410 2.352 . S
O414 C417 1.258 . S
C415 O412 1.320 . S
C415 O413 1.214 . S
O416 Cd408 2.277 . S
O416 C411 1.209 . S
C417 O414 1.258 . S
C417 O419 1.282 . S
O418 Cd410 2.277 . S
O418 C411 1.226 . S
O419 Cd410 2.356 . S
O419 C417 1.282 . S
C420 O421 1.306 . S
C420 O423 1.160 . S
O421 C420 1.306 . S
O421 Cd422 2.228 . S
Cd422 O421 2.228 . S
Cd422 O426 2.273 . S
Cd422 O430 2.277 . S
O423 C420 1.160 . S
O423 Cd424 2.203 . S
Cd424 O423 2.203 . S
Cd424 O426 2.411 . S
Cd424 O427 2.333 . S
Cd424 O428 2.352 . S
Cd424 O432 2.277 . S
Cd424 O433 2.356 . S
C425 O430 1.209 . S
C425 O432 1.226 . S
O426 Cd422 2.273 . S
O426 Cd424 2.411 . S
O426 C429 1.320 . S
O427 Cd424 2.333 . S
O427 C429 1.214 . S
O428 Cd424 2.352 . S
O428 C431 1.258 . S
C429 O426 1.320 . S
C429 O427 1.214 . S
O430 Cd422 2.277 . S
O430 C425 1.209 . S
C431 O428 1.258 . S
C431 O433 1.282 . S
O432 Cd424 2.277 . S
O432 C425 1.226 . S
O433 Cd424 2.356 . S
O433 C431 1.282 . S
C434 O435 1.306 . S
C434 O437 1.160 . S
O435 C434 1.306 . S
O435 Cd436 2.228 . S
Cd436 O435 2.228 . S
Cd436 O440 2.273 . S
Cd436 O444 2.277 . S
O437 C434 1.160 . S
O437 Cd438 2.203 . S
Cd438 O437 2.203 . S
Cd438 O440 2.411 . S
Cd438 O441 2.333 . S
Cd438 O442 2.352 . S
Cd438 O446 2.277 . S
Cd438 O447 2.356 . S
C439 O444 1.209 . S
C439 O446 1.226 . S
O440 Cd436 2.273 . S
O440 Cd438 2.411 . S
O440 C443 1.320 . S
O441 Cd438 2.333 . S
O441 C443 1.214 . S
O442 Cd438 2.352 . S
O442 C445 1.258 . S
C443 O440 1.320 . S
C443 O441 1.214 . S
O444 Cd436 2.277 . S
O444 C439 1.209 . S
C445 O442 1.258 . S
C445 O447 1.282 . S
O446 Cd438 2.277 . S
O446 C439 1.226 . S
O447 Cd438 2.356 . S
O447 C445 1.282 . S
C448 O449 1.306 . S
C448 O451 1.160 . S
O449 C448 1.306 . S
O449 Cd450 2.228 . S
Cd450 O449 2.228 . S
Cd450 O454 2.273 . S
Cd450 O458 2.277 . S
O451 C448 1.160 . S
O451 Cd452 2.203 . S
Cd452 O451 2.203 . S
Cd452 O454 2.411 . S
Cd452 O455 2.333 . S
Cd452 O456 2.352 . S
Cd452 O460 2.277 . S
Cd452 O461 2.356 . S
C453 O458 1.209 . S
C453 O460 1.226 . S
O454 Cd450 2.273 . S
O454 Cd452 2.411 . S
O454 C457 1.320 . S
O455 Cd452 2.333 . S
O455 C457 1.214 . S
O456 Cd452 2.352 . S
O456 C459 1.258 . S
C457 O454 1.320 . S
C457 O455 1.214 . S
O458 Cd450 2.277 . S
O458 C453 1.209 . S
C459 O456 1.258 . S
C459 O461 1.282 . S
O460 Cd452 2.277 . S
O460 C453 1.226 . S
O461 Cd452 2.356 . S
O461 C459 1.282 . S
C462 O463 1.306 . S
C462 O465 1.160 . S
O463 C462 1.306 . S
O463 Cd464 2.228 . S
Cd464 O463 2.228 . S
Cd464 O468 2.273 . S
Cd464 O472 2.277 . S
O465 C462 1.160 . S
O465 Cd466 2.203 . S
Cd466 O465 2.203 . S
Cd466 O468 2.411 . S
Cd466 O469 2.333 . S
Cd466 O470 2.352 . S
Cd466 O474 2.277 . S
Cd466 O475 2.356 . S
C467 O472 1.209 . S
C467 O474 1.226 . S
O468 Cd464 2.273 . S
O468 Cd466 2.411 . S
O468 C471 1.320 . S
O469 Cd466 2.333 . S
O469 C471 1.214 . S
O470 Cd466 2.352 . S
O470 C473 1.258 . S
C471 O468 1.320 . S
C471 O469 1.214 . S
O472 Cd464 2.277 . S
O472 C467 1.209 . S
C473 O470 1.258 . S
C473 O475 1.282 . S
O474 Cd466 2.277 . S
O474 C467 1.226 . S
O475 Cd466 2.356 . S
O475 C473 1.282 . S
C476 O477 1.306 . S
C476 O479 1.160 . S
O477 C476 1.306 . S
O477 Cd478 2.228 . S
Cd478 O477 2.228 . S
Cd478 O482 2.273 . S
Cd478 O486 2.277 . S
O479 C476 1.160 . S
O479 Cd480 2.203 . S
Cd480 O479 2.203 . S
Cd480 O482 2.411 . S
Cd480 O483 2.333 . S
Cd480 O484 2.352 . S
Cd480 O488 2.277 . S
Cd480 O489 2.356 . S
C481 O486 1.209 . S
C481 O488 1.226 . S
O482 Cd478 2.273 . S
O482 Cd480 2.411 . S
O482 C485 1.320 . S
O483 Cd480 2.333 . S
O483 C485 1.214 . S
O484 Cd480 2.352 . S
O484 C487 1.258 . S
C485 O482 1.320 . S
C485 O483 1.214 . S
O486 Cd478 2.277 . S
O486 C481 1.209 . S
C487 O484 1.258 . S
C487 O489 1.282 . S
O488 Cd480 2.277 . S
O488 C481 1.226 . S
O489 Cd480 2.356 . S
O489 C487 1.282 . S
C490 O491 1.306 . S
C490 O493 1.160 . S
O491 C490 1.306 . S
O491 Cd492 2.228 . S
Cd492 O491 2.228 . S
Cd492 O496 2.273 . S
Cd492 O500 2.277 . S
O493 C490 1.160 . S
O493 Cd494 2.203 . S
Cd494 O493 2.203 . S
Cd494 O496 2.411 . S
Cd494 O497 2.333 . S
Cd494 O498 2.352 . S
Cd494 O502 2.277 . S
Cd494 O503 2.356 . S
C495 O500 1.209 . S
C495 O502 1.226 . S
O496 Cd492 2.273 . S
O496 Cd494 2.411 . S
O496 C499 1.320 . S
O497 Cd494 2.333 . S
O497 C499 1.214 . S
O498 Cd494 2.352 . S
O498 C501 1.258 . S
C499 O496 1.320 . S
C499 O497 1.214 . S
O500 Cd492 2.277 . S
O500 C495 1.209 . S
C501 O498 1.258 . S
C501 O503 1.282 . S
O502 Cd494 2.277 . S
O502 C495 1.226 . S
O503 Cd494 2.356 . S
O503 C501 1.282 . S
H504 C512 0.950 . S
H505 C517 0.950 . S
H506 C514 0.950 . S
H507 C516 0.950 1_556 S
H508 C518 0.950 . S
H509 C520 0.950 . S
H510 C522 0.950 . S
H511 C523 0.950 . S
C512 H504 0.950 . S
C512 C513 1.386 . S
C512 C514 1.391 . S
C513 C512 1.386 . S
C513 C517 1.393 . S
C514 H506 0.950 . S
C514 C512 1.391 . S
C514 C515 1.400 . S
C515 C514 1.400 . S
C515 C516 1.398 . S
C515 C521 1.491 1_554 S
C516 H507 0.950 1_554 S
C516 C515 1.398 . S
C516 C517 1.391 . S
C517 H505 0.950 . S
C517 C513 1.393 . S
C517 C516 1.391 . S
C518 H508 0.950 . S
C518 C519 1.386 1_545 S
C518 C520 1.391 . S
C519 C518 1.386 1_565 S
C519 C523 1.393 . S
C520 H509 0.950 . S
C520 C518 1.391 . S
C520 C521 1.400 . S
C521 C515 1.491 1_556 S
C521 C520 1.400 . S
C521 C522 1.398 1_546 S
C522 H510 0.950 . S
C522 C521 1.398 1_564 S
C522 C523 1.391 1_554 S
C523 H511 0.950 . S
C523 C519 1.393 . S
C523 C522 1.391 1_556 S
H524 C532 0.950 . S
H525 C537 0.950 . S
H526 C534 0.950 1_556 S
H527 C536 0.950 . S
H528 C538 0.950 . S
H529 C540 0.950 . S
H530 C542 0.950 . S
H531 C543 0.950 . S
C532 H524 0.950 . S
C532 C533 1.386 . S
C532 C534 1.391 . S
C533 C532 1.386 . S
C533 C537 1.393 . S
C534 H526 0.950 1_554 S
C534 C532 1.391 . S
C534 C535 1.400 . S
C535 C534 1.400 . S
C535 C536 1.398 . S
C535 C541 1.491 1_554 S
C536 H527 0.950 . S
C536 C535 1.398 . S
C536 C537 1.391 . S
C537 H525 0.950 . S
C537 C533 1.393 . S
C537 C536 1.391 . S
C538 H528 0.950 . S
C538 C539 1.386 . S
C538 C540 1.391 1_456 S
C539 C538 1.386 . S
C539 C543 1.393 . S
C540 H529 0.950 . S
C540 C538 1.391 1_654 S
C540 C541 1.400 1_554 S
C541 C535 1.491 1_556 S
C541 C540 1.400 1_556 S
C541 C542 1.398 . S
C542 H530 0.950 . S
C542 C541 1.398 . S
C542 C543 1.391 1_655 S
C543 H531 0.950 . S
C543 C539 1.393 . S
C543 C542 1.391 1_455 S
H544 C552 0.950 . S
H545 C557 0.950 . S
H546 C554 0.950 . S
H547 C556 0.950 . S
H548 C558 0.950 . S
H549 C560 0.950 . S
H550 C562 0.950 . S
H551 C563 0.950 . S
C552 H544 0.950 . S
C552 C553 1.386 . S
C552 C554 1.391 . S
C553 C552 1.386 . S
C553 C557 1.393 . S
C554 H546 0.950 . S
C554 C552 1.391 . S
C554 C555 1.400 . S
C555 C554 1.400 . S
C555 C556 1.398 . S
C555 C561 1.491 1_556 S
C556 H547 0.950 . S
C556 C555 1.398 . S
C556 C557 1.391 . S
C557 H545 0.950 . S
C557 C553 1.393 . S
C557 C556 1.391 . S
C558 H548 0.950 . S
C558 C559 1.386 . S
C558 C560 1.391 . S
C559 C558 1.386 . S
C559 C563 1.393 . S
C560 H549 0.950 . S
C560 C558 1.391 . S
C560 C561 1.400 . S
C561 C555 1.491 1_554 S
C561 C560 1.400 . S
C561 C562 1.398 . S
C562 H550 0.950 . S
C562 C561 1.398 . S
C562 C563 1.391 . S
C563 H551 0.950 . S
C563 C559 1.393 . S
C563 C562 1.391 . S
H564 C572 0.950 . S
H565 C577 0.950 . S
H566 C574 0.950 . S
H567 C576 0.932 . S
H568 C578 0.950 . S
H569 C580 0.950 . S
H570 C582 0.950 . S
H571 C583 0.950 . S
C572 H564 0.950 . S
C572 C573 1.386 . S
C572 C574 1.391 1_655 S
C573 C572 1.386 . S
C573 C577 1.393 . S
C574 H566 0.950 . S
C574 C572 1.391 1_455 S
C574 C575 1.400 . S
C575 C574 1.400 . S
C575 C576 1.397 . S
C575 C581 1.491 . S
C576 H567 0.932 . S
C576 C575 1.397 . S
C576 C577 1.394 1_455 S
C577 H565 0.950 . S
C577 C573 1.393 . S
C577 C576 1.394 1_655 S
C578 H568 0.950 . S
C578 C579 1.386 . S
C578 C580 1.391 . S
C579 C578 1.386 . S
C579 C583 1.393 . S
C580 H569 0.950 . S
C580 C578 1.391 . S
C580 C581 1.400 . S
C581 C575 1.491 . S
C581 C580 1.400 . S
C581 C582 1.398 . S
C582 H570 0.950 . S
C582 C581 1.398 . S
C582 C583 1.391 . S
C583 H571 0.950 . S
C583 C579 1.393 . S
C583 C582 1.391 . S
H584 C592 0.950 . S
H585 C597 0.950 . S
H586 C594 0.950 . S
H587 C596 0.950 . S
H588 C598 0.950 . S
H589 C600 0.950 . S
H590 C602 0.950 . S
H591 C603 0.950 . S
C592 H584 0.950 . S
C592 C593 1.386 . S
C592 C594 1.391 . S
C593 C592 1.386 . S
C593 C597 1.393 . S
C594 H586 0.950 . S
C594 C592 1.391 . S
C594 C595 1.400 . S
C595 C594 1.400 . S
C595 C596 1.398 . S
C595 C601 1.491 . S
C596 H587 0.950 . S
C596 C595 1.398 . S
C596 C597 1.391 . S
C597 H585 0.950 . S
C597 C593 1.393 . S
C597 C596 1.391 . S
C598 H588 0.950 . S
C598 C599 1.386 . S
C598 C600 1.391 . S
C599 C598 1.386 . S
C599 C603 1.393 . S
C600 H589 0.950 . S
C600 C598 1.391 . S
C600 C601 1.400 . S
C601 C595 1.491 . S
C601 C600 1.400 . S
C601 C602 1.398 . S
C602 H590 0.950 . S
C602 C601 1.398 . S
C602 C603 1.391 . S
C603 H591 0.950 . S
C603 C599 1.393 . S
C603 C602 1.391 . S
H604 C612 0.950 . S
H605 C617 0.950 . S
H606 C614 0.950 . S
H607 C616 0.950 . S
H608 C618 0.950 . S
H609 C620 0.950 . S
H610 C622 0.950 . S
H611 C623 0.950 . S
C612 H604 0.950 . S
C612 C613 1.386 . S
C612 C614 1.391 . S
C613 C612 1.386 . S
C613 C617 1.393 . S
C614 H606 0.950 . S
C614 C612 1.391 . S
C614 C615 1.400 . S
C615 C614 1.400 . S
C615 C616 1.398 . S
C615 C621 1.491 . S
C616 H607 0.950 . S
C616 C615 1.398 . S
C616 C617 1.391 . S
C617 H605 0.950 . S
C617 C613 1.393 . S
C617 C616 1.391 . S
C618 H608 0.950 . S
C618 C619 1.386 . S
C618 C620 1.391 1_545 S
C619 C618 1.386 . S
C619 C623 1.393 . S
C620 H609 0.950 . S
C620 C618 1.391 1_565 S
C620 C621 1.400 . S
C621 C615 1.491 . S
C621 C620 1.400 . S
C621 C622 1.398 . S
C622 H610 0.950 . S
C622 C621 1.398 . S
C622 C623 1.391 1_565 S
C623 H611 0.950 . S
C623 C619 1.393 . S
C623 C622 1.391 1_545 S
H624 C632 0.950 . S
H625 C637 0.950 . S
H626 C634 0.950 . S
H627 C636 0.950 . S
H628 C638 0.950 . S
H629 C640 0.950 1_554 S
H630 C642 0.950 . S
H631 C643 0.950 . S
C632 H624 0.950 . S
C632 C633 1.386 . S
C632 C634 1.391 1_544 S
C633 C632 1.386 . S
C633 C637 1.393 . S
C634 H626 0.950 . S
C634 C632 1.391 1_566 S
C634 C635 1.400 1_556 S
C635 C634 1.400 1_554 S
C635 C636 1.398 . S
C635 C641 1.491 1_554 S
C636 H627 0.950 . S
C636 C635 1.398 . S
C636 C637 1.391 1_565 S
C637 H625 0.950 . S
C637 C633 1.393 . S
C637 C636 1.391 1_545 S
C638 H628 0.950 . S
C638 C639 1.386 . S
C638 C640 1.391 . S
C639 C638 1.386 . S
C639 C643 1.393 . S
C640 H629 0.950 1_556 S
C640 C638 1.391 . S
C640 C641 1.400 . S
C641 C635 1.491 1_556 S
C641 C640 1.400 . S
C641 C642 1.398 . S
C642 H630 0.950 . S
C642 C641 1.398 . S
C642 C643 1.391 . S
C643 H631 0.950 . S
C643 C639 1.393 . S
C643 C642 1.391 . S
H644 C652 0.950 . S
H645 C657 0.950 . S
H646 C654 0.950 . S
H647 C656 0.951 1_556 S
H648 C658 0.950 . S
H649 C660 0.950 . S
H650 C662 0.950 . S
H651 C663 0.950 . S
C652 H644 0.950 . S
C652 C653 1.386 . S
C652 C654 1.391 1_655 S
C653 C652 1.386 . S
C653 C657 1.393 . S
C654 H646 0.950 . S
C654 C652 1.391 1_455 S
C654 C655 1.400 . S
C655 C654 1.400 . S
C655 C656 1.343 1_455 S
C655 C661 1.491 1_554 S
C656 H647 0.951 1_554 S
C656 C655 1.343 1_655 S
C656 C657 1.425 . S
C657 H645 0.950 . S
C657 C653 1.393 . S
C657 C656 1.425 . S
C658 H648 0.950 . S
C658 C659 1.386 . S
C658 C660 1.391 . S
C659 C658 1.386 . S
C659 C663 1.393 . S
C660 H649 0.950 . S
C660 C658 1.391 . S
C660 C661 1.400 . S
C661 C655 1.491 1_556 S
C661 C660 1.400 . S
C661 C662 1.398 . S
C662 H650 0.950 . S
C662 C661 1.398 . S
C662 C663 1.391 . S
C663 H651 0.950 . S
C663 C659 1.393 . S
C663 C662 1.391 . S
H664 C672 0.950 . S
H665 C677 0.950 . S
H666 C674 0.950 . S
H667 C676 0.950 . S
H668 C678 0.950 . S
H669 C680 0.950 . S
H670 C682 0.950 1_556 S
H671 C683 0.950 . S
C672 H664 0.950 . S
C672 C673 1.386 . S
C672 C674 1.391 . S
C673 C672 1.386 . S
C673 C677 1.393 . S
C674 H666 0.950 . S
C674 C672 1.391 . S
C674 C675 1.400 . S
C675 C674 1.400 . S
C675 C676 1.398 . S
C675 C681 1.491 1_556 S
C676 H667 0.950 . S
C676 C675 1.398 . S
C676 C677 1.391 . S
C677 H665 0.950 . S
C677 C673 1.393 . S
C677 C676 1.391 . S
C678 H668 0.950 . S
C678 C679 1.386 . S
C678 C680 1.391 . S
C679 C678 1.386 . S
C679 C683 1.393 . S
C680 H669 0.950 . S
C680 C678 1.391 . S
C680 C681 1.400 . S
C681 C675 1.491 1_554 S
C681 C680 1.400 . S
C681 C682 1.398 . S
C682 H670 0.950 1_554 S
C682 C681 1.398 . S
C682 C683 1.391 . S
C683 H671 0.950 . S
C683 C679 1.393 . S
C683 C682 1.391 . S
H684 C692 0.950 . S
H685 C697 0.950 . S
H686 C694 0.950 . S
H687 C696 0.950 . S
H688 C698 0.945 . S
H689 C700 0.950 . S
H690 C702 0.950 . S
H691 C703 0.950 . S
C692 H684 0.950 . S
C692 C693 1.386 . S
C692 C694 1.391 . S
C693 C692 1.386 . S
C693 C697 1.393 . S
C694 H686 0.950 . S
C694 C692 1.391 . S
C694 C695 1.400 . S
C695 C694 1.400 . S
C695 C696 1.398 . S
C695 C701 1.491 . S
C696 H687 0.950 . S
C696 C695 1.398 . S
C696 C697 1.391 . S
C697 H685 0.950 . S
C697 C693 1.393 . S
C697 C696 1.391 . S
C698 H688 0.945 . S
C698 C699 1.378 1_655 S
C698 C700 1.404 . S
C699 C698 1.378 1_455 S
C699 C703 1.393 . S
C700 H689 0.950 . S
C700 C698 1.404 . S
C700 C701 1.400 . S
C701 C695 1.491 . S
C701 C700 1.400 . S
C701 C702 1.398 1_655 S
C702 H690 0.950 . S
C702 C701 1.398 1_455 S
C702 C703 1.391 . S
C703 H691 0.950 . S
C703 C699 1.393 . S
C703 C702 1.391 . S
H704 C712 0.950 . S
H705 C717 0.950 . S
H706 C714 0.950 . S
H707 C716 0.950 . S
H708 C718 0.950 . S
H709 C720 0.950 . S
H710 C722 0.950 . S
H711 C723 0.950 . S
C712 H704 0.950 . S
C712 C713 1.386 . S
C712 C714 1.391 . S
C713 C712 1.386 . S
C713 C717 1.393 . S
C714 H706 0.950 . S
C714 C712 1.391 . S
C714 C715 1.400 . S
C715 C714 1.400 . S
C715 C716 1.398 . S
C715 C721 1.491 . S
C716 H707 0.950 . S
C716 C715 1.398 . S
C716 C717 1.391 . S
C717 H705 0.950 . S
C717 C713 1.393 . S
C717 C716 1.391 . S
C718 H708 0.950 . S
C718 C719 1.386 . S
C718 C720 1.391 . S
C719 C718 1.386 . S
C719 C723 1.393 . S
C720 H709 0.950 . S
C720 C718 1.391 . S
C720 C721 1.400 . S
C721 C715 1.491 . S
C721 C720 1.400 . S
C721 C722 1.398 . S
C722 H710 0.950 . S
C722 C721 1.398 . S
C722 C723 1.391 . S
C723 H711 0.950 . S
C723 C719 1.393 . S
C723 C722 1.391 . S
H724 C732 0.950 . S
H725 C737 0.950 . S
H726 C734 0.950 . S
H727 C736 0.950 . S
H728 C738 0.950 . S
H729 C740 0.950 . S
H730 C742 0.950 . S
H731 C743 0.950 . S
C732 H724 0.950 . S
C732 C733 1.386 . S
C732 C734 1.391 . S
C733 C732 1.386 . S
C733 C737 1.393 . S
C734 H726 0.950 . S
C734 C732 1.391 . S
C734 C735 1.400 . S
C735 C734 1.400 . S
C735 C736 1.398 . S
C735 C741 1.491 . S
C736 H727 0.950 . S
C736 C735 1.398 . S
C736 C737 1.391 . S
C737 H725 0.950 . S
C737 C733 1.393 . S
C737 C736 1.391 . S
C738 H728 0.950 . S
C738 C739 1.386 . S
C738 C740 1.391 1_565 S
C739 C738 1.386 . S
C739 C743 1.393 . S
C740 H729 0.950 . S
C740 C738 1.391 1_545 S
C740 C741 1.400 . S
C741 C735 1.491 . S
C741 C740 1.400 . S
C741 C742 1.398 . S
C742 H730 0.950 . S
C742 C741 1.398 . S
C742 C743 1.391 1_545 S
C743 H731 0.950 . S
C743 C739 1.393 . S
C743 C742 1.391 1_565 S
H744 C752 0.950 . S
H745 C757 0.950 . S
H746 C754 0.950 . S
H747 C756 0.950 . S
H748 C758 0.950 . S
H749 C760 0.950 . S
H750 C762 0.950 . S
H751 C763 0.950 . S
C752 H744 0.950 . S
C752 C753 1.386 . S
C752 C754 1.391 . S
C753 C752 1.386 . S
C753 C757 1.393 . S
C754 H746 0.950 . S
C754 C752 1.391 . S
C754 C755 1.400 . S
C755 C754 1.400 . S
C755 C756 1.398 . S
C755 C761 1.491 . S
C756 H747 0.950 . S
C756 C755 1.398 . S
C756 C757 1.391 . S
C757 H745 0.950 . S
C757 C753 1.393 . S
C757 C756 1.391 . S
C758 H748 0.950 . S
C758 C759 1.386 . S
C758 C760 1.391 . S
C759 C758 1.386 . S
C759 C763 1.393 . S
C760 H749 0.950 . S
C760 C758 1.391 . S
C760 C761 1.400 . S
C761 C755 1.491 . S
C761 C760 1.400 . S
C761 C762 1.398 . S
C762 H750 0.950 . S
C762 C761 1.398 . S
C762 C763 1.391 . S
C763 H751 0.950 . S
C763 C759 1.393 . S
C763 C762 1.391 . S
H764 C772 0.950 . S
H765 C777 0.950 . S
H766 C774 0.950 . S
H767 C776 0.950 . S
H768 C778 0.950 . S
H769 C780 0.950 . S
H770 C782 0.950 . S
H771 C783 0.950 . S
C772 H764 0.950 . S
C772 C773 1.386 . S
C772 C774 1.391 . S
C773 C772 1.386 . S
C773 C777 1.393 . S
C774 H766 0.950 . S
C774 C772 1.391 . S
C774 C775 1.400 . S
C775 C774 1.400 . S
C775 C776 1.398 . S
C775 C781 1.491 . S
C776 H767 0.950 . S
C776 C775 1.398 . S
C776 C777 1.391 . S
C777 H765 0.950 . S
C777 C773 1.393 . S
C777 C776 1.391 . S
C778 H768 0.950 . S
C778 C779 1.386 . S
C778 C780 1.391 . S
C779 C778 1.386 . S
C779 C783 1.393 . S
C780 H769 0.950 . S
C780 C778 1.391 . S
C780 C781 1.400 . S
C781 C775 1.491 . S
C781 C780 1.400 . S
C781 C782 1.398 . S
C782 H770 0.950 . S
C782 C781 1.398 . S
C782 C783 1.391 . S
C783 H771 0.950 . S
C783 C779 1.393 . S
C783 C782 1.391 . S
H784 C792 0.950 . S
H785 C797 0.950 . S
H786 C794 0.950 . S
H787 C796 0.950 . S
H788 C798 0.950 . S
H789 C800 0.950 . S
H790 C802 0.950 . S
H791 C803 0.950 . S
C792 H784 0.950 . S
C792 C793 1.386 . S
C792 C794 1.391 . S
C793 C792 1.386 . S
C793 C797 1.393 . S
C794 H786 0.950 . S
C794 C792 1.391 . S
C794 C795 1.400 . S
C795 C794 1.400 . S
C795 C796 1.398 . S
C795 C801 1.491 . S
C796 H787 0.950 . S
C796 C795 1.398 . S
C796 C797 1.391 . S
C797 H785 0.950 . S
C797 C793 1.393 . S
C797 C796 1.391 . S
C798 H788 0.950 . S
C798 C799 1.386 . S
C798 C800 1.391 . S
C799 C798 1.386 . S
C799 C803 1.393 . S
C800 H789 0.950 . S
C800 C798 1.391 . S
C800 C801 1.400 . S
C801 C795 1.491 . S
C801 C800 1.400 . S
C801 C802 1.398 . S
C802 H790 0.950 . S
C802 C801 1.398 . S
C802 C803 1.391 . S
C803 H791 0.950 . S
C803 C799 1.393 . S
C803 C802 1.391 . S
H804 C812 0.950 . S
H805 C817 0.950 . S
H806 C814 0.950 . S
H807 C816 0.950 . S
H808 C818 0.950 . S
H809 C820 0.950 . S
H810 C822 0.950 . S
H811 C823 0.950 . S
C812 H804 0.950 . S
C812 C813 1.386 . S
C812 C814 1.391 . S
C813 C812 1.386 . S
C813 C817 1.393 . S
C814 H806 0.950 . S
C814 C812 1.391 . S
C814 C815 1.400 . S
C815 C814 1.400 . S
C815 C816 1.398 . S
C815 C821 1.491 . S
C816 H807 0.950 . S
C816 C815 1.398 . S
C816 C817 1.391 . S
C817 H805 0.950 . S
C817 C813 1.393 . S
C817 C816 1.391 . S
C818 H808 0.950 . S
C818 C819 1.386 . S
C818 C820 1.391 . S
C819 C818 1.386 . S
C819 C823 1.393 . S
C820 H809 0.950 . S
C820 C818 1.391 . S
C820 C821 1.400 . S
C821 C815 1.491 . S
C821 C820 1.400 . S
C821 C822 1.398 . S
C822 H810 0.950 . S
C822 C821 1.398 . S
C822 C823 1.391 . S
C823 H811 0.950 . S
C823 C819 1.393 . S
C823 C822 1.391 . S
H824 C832 0.950 . S
H825 C837 0.950 . S
H826 C834 0.950 . S
H827 C836 0.950 . S
H828 C838 0.950 . S
H829 C840 0.950 . S
H830 C842 0.950 . S
H831 C843 0.950 . S
C832 H824 0.950 . S
C832 C833 1.386 . S
C832 C834 1.391 . S
C833 C832 1.386 . S
C833 C837 1.393 . S
C834 H826 0.950 . S
C834 C832 1.391 . S
C834 C835 1.400 . S
C835 C834 1.400 . S
C835 C836 1.398 . S
C835 C841 1.491 . S
C836 H827 0.950 . S
C836 C835 1.398 . S
C836 C837 1.391 . S
C837 H825 0.950 . S
C837 C833 1.393 . S
C837 C836 1.391 . S
C838 H828 0.950 . S
C838 C839 1.386 . S
C838 C840 1.391 . S
C839 C838 1.386 . S
C839 C843 1.393 . S
C840 H829 0.950 . S
C840 C838 1.391 . S
C840 C841 1.400 . S
C841 C835 1.491 . S
C841 C840 1.400 . S
C841 C842 1.398 . S
C842 H830 0.950 . S
C842 C841 1.398 . S
C842 C843 1.391 . S
C843 H831 0.950 . S
C843 C839 1.393 . S
C843 C842 1.391 . S
H844 C852 0.950 . S
H845 C857 0.950 . S
H846 C854 0.950 . S
H847 C856 0.950 . S
H848 C858 0.950 . S
H849 C860 0.950 . S
H850 C862 0.950 . S
H851 C863 0.950 . S
C852 H844 0.950 . S
C852 C853 1.386 . S
C852 C854 1.391 . S
C853 C852 1.386 . S
C853 C857 1.393 . S
C854 H846 0.950 . S
C854 C852 1.391 . S
C854 C855 1.400 . S
C855 C854 1.400 . S
C855 C856 1.398 . S
C855 C861 1.491 . S
C856 H847 0.950 . S
C856 C855 1.398 . S
C856 C857 1.391 . S
C857 H845 0.950 . S
C857 C853 1.393 . S
C857 C856 1.391 . S
C858 H848 0.950 . S
C858 C859 1.386 . S
C858 C860 1.391 . S
C859 C858 1.386 . S
C859 C863 1.393 . S
C860 H849 0.950 . S
C860 C858 1.391 . S
C860 C861 1.400 . S
C861 C855 1.491 . S
C861 C860 1.400 . S
C861 C862 1.398 . S
C862 H850 0.950 . S
C862 C861 1.398 . S
C862 C863 1.391 . S
C863 H851 0.950 . S
C863 C859 1.393 . S
C863 C862 1.391 . S
H864 C872 0.950 . S
H865 C877 0.950 . S
H866 C874 0.950 . S
H867 C876 0.950 . S
H868 C878 0.950 . S
H869 C880 0.950 . S
H870 C882 0.950 . S
H871 C883 0.950 . S
C872 H864 0.950 . S
C872 C873 1.386 . S
C872 C874 1.391 . S
C873 C872 1.386 . S
C873 C877 1.393 . S
C874 H866 0.950 . S
C874 C872 1.391 . S
C874 C875 1.400 . S
C875 C874 1.400 . S
C875 C876 1.398 . S
C875 C881 1.491 . S
C876 H867 0.950 . S
C876 C875 1.398 . S
C876 C877 1.391 . S
C877 H865 0.950 . S
C877 C873 1.393 . S
C877 C876 1.391 . S
C878 H868 0.950 . S
C878 C879 1.386 . S
C878 C880 1.391 . S
C879 C878 1.386 . S
C879 C883 1.393 . S
C880 H869 0.950 . S
C880 C878 1.391 . S
C880 C881 1.400 . S
C881 C875 1.491 . S
C881 C880 1.400 . S
C881 C882 1.398 . S
C882 H870 0.950 . S
C882 C881 1.398 . S
C882 C883 1.391 . S
C883 H871 0.950 . S
C883 C879 1.393 . S
C883 C882 1.391 . S
H884 C892 0.950 . S
H885 C897 0.950 . S
H886 C894 0.950 . S
H887 C896 0.950 . S
H888 C898 0.950 . S
H889 C900 0.950 . S
H890 C902 0.950 . S
H891 C903 0.950 . S
C892 H884 0.950 . S
C892 C893 1.386 . S
C892 C894 1.391 . S
C893 C892 1.386 . S
C893 C897 1.393 . S
C894 H886 0.950 . S
C894 C892 1.391 . S
C894 C895 1.400 . S
C895 C894 1.400 . S
C895 C896 1.398 . S
C895 C901 1.491 . S
C896 H887 0.950 . S
C896 C895 1.398 . S
C896 C897 1.391 . S
C897 H885 0.950 . S
C897 C893 1.393 . S
C897 C896 1.391 . S
C898 H888 0.950 . S
C898 C899 1.386 . S
C898 C900 1.391 . S
C899 C898 1.386 . S
C899 C903 1.393 . S
C900 H889 0.950 . S
C900 C898 1.391 . S
C900 C901 1.400 . S
C901 C895 1.491 . S
C901 C900 1.400 . S
C901 C902 1.398 . S
C902 H890 0.950 . S
C902 C901 1.398 . S
C902 C903 1.391 . S
C903 H891 0.950 . S
C903 C899 1.393 . S
C903 C902 1.391 . S
H904 C912 0.950 . S
H905 C917 0.950 . S
H906 C914 0.950 . S
H907 C916 0.950 . S
H908 C918 0.950 . S
H909 C920 0.950 . S
H910 C922 0.950 . S
H911 C923 0.950 . S
C912 H904 0.950 . S
C912 C913 1.386 . S
C912 C914 1.391 . S
C913 C912 1.386 . S
C913 C917 1.393 . S
C914 H906 0.950 . S
C914 C912 1.391 . S
C914 C915 1.400 . S
C915 C914 1.400 . S
C915 C916 1.398 . S
C915 C921 1.491 . S
C916 H907 0.950 . S
C916 C915 1.398 . S
C916 C917 1.391 . S
C917 H905 0.950 . S
C917 C913 1.393 . S
C917 C916 1.391 . S
C918 H908 0.950 . S
C918 C919 1.386 . S
C918 C920 1.391 . S
C919 C918 1.386 . S
C919 C923 1.393 . S
C920 H909 0.950 . S
C920 C918 1.391 . S
C920 C921 1.400 . S
C921 C915 1.491 . S
C921 C920 1.400 . S
C921 C922 1.398 . S
C922 H910 0.950 . S
C922 C921 1.398 . S
C922 C923 1.391 . S
C923 H911 0.950 . S
C923 C919 1.393 . S
C923 C922 1.391 . S
H924 C932 0.950 . S
H925 C937 0.950 . S
H926 C934 0.950 . S
H927 C936 0.950 . S
H928 C938 0.950 . S
H929 C940 0.950 . S
H930 C942 0.950 . S
H931 C943 0.950 . S
C932 H924 0.950 . S
C932 C933 1.386 . S
C932 C934 1.391 . S
C933 C932 1.386 . S
C933 C937 1.393 . S
C934 H926 0.950 . S
C934 C932 1.391 . S
C934 C935 1.400 . S
C935 C934 1.400 . S
C935 C936 1.398 . S
C935 C941 1.491 . S
C936 H927 0.950 . S
C936 C935 1.398 . S
C936 C937 1.391 . S
C937 H925 0.950 . S
C937 C933 1.393 . S
C937 C936 1.391 . S
C938 H928 0.950 . S
C938 C939 1.386 . S
C938 C940 1.391 . S
C939 C938 1.386 . S
C939 C943 1.393 . S
C940 H929 0.950 . S
C940 C938 1.391 . S
C940 C941 1.400 . S
C941 C935 1.491 . S
C941 C940 1.400 . S
C941 C942 1.398 . S
C942 H930 0.950 . S
C942 C941 1.398 . S
C942 C943 1.391 . S
C943 H931 0.950 . S
C943 C939 1.393 . S
C943 C942 1.391 . S
H944 C952 0.950 . S
H945 C957 0.950 . S
H946 C954 0.950 . S
H947 C956 0.950 . S
H948 C958 0.950 . S
H949 C960 0.950 . S
H950 C962 0.950 . S
H951 C963 0.950 . S
C952 H944 0.950 . S
C952 C953 1.386 . S
C952 C954 1.391 . S
C953 C952 1.386 . S
C953 C957 1.393 . S
C954 H946 0.950 . S
C954 C952 1.391 . S
C954 C955 1.400 . S
C955 C954 1.400 . S
C955 C956 1.398 . S
C955 C961 1.491 . S
C956 H947 0.950 . S
C956 C955 1.398 . S
C956 C957 1.391 . S
C957 H945 0.950 . S
C957 C953 1.393 . S
C957 C956 1.391 . S
C958 H948 0.950 . S
C958 C959 1.386 . S
C958 C960 1.391 . S
C959 C958 1.386 . S
C959 C963 1.393 . S
C960 H949 0.950 . S
C960 C958 1.391 . S
C960 C961 1.400 . S
C961 C955 1.491 . S
C961 C960 1.400 . S
C961 C962 1.398 . S
C962 H950 0.950 . S
C962 C961 1.398 . S
C962 C963 1.391 . S
C963 H951 0.950 . S
C963 C959 1.393 . S
C963 C962 1.391 . S
H964 C972 0.950 . S
H965 C977 0.950 . S
H966 C974 0.950 . S
H967 C976 0.950 . S
H968 C978 0.950 . S
H969 C980 0.950 . S
H970 C982 0.950 . S
H971 C983 0.950 . S
C972 H964 0.950 . S
C972 C973 1.386 . S
C972 C974 1.391 . S
C973 C972 1.386 . S
C973 C977 1.393 . S
C974 H966 0.950 . S
C974 C972 1.391 . S
C974 C975 1.400 . S
C975 C974 1.400 . S
C975 C976 1.398 . S
C975 C981 1.491 . S
C976 H967 0.950 . S
C976 C975 1.398 . S
C976 C977 1.391 . S
C977 H965 0.950 . S
C977 C973 1.393 . S
C977 C976 1.391 . S
C978 H968 0.950 . S
C978 C979 1.386 . S
C978 C980 1.391 . S
C979 C978 1.386 . S
C979 C983 1.393 . S
C980 H969 0.950 . S
C980 C978 1.391 . S
C980 C981 1.400 . S
C981 C975 1.491 . S
C981 C980 1.400 . S
C981 C982 1.398 . S
C982 H970 0.950 . S
C982 C981 1.398 . S
C982 C983 1.391 . S
C983 H971 0.950 . S
C983 C979 1.393 . S
C983 C982 1.391 . S
H984 C992 0.950 . S
H985 C997 0.950 . S
H986 C994 0.950 . S
H987 C996 0.950 . S
H988 C998 0.950 . S
H989 C1000 0.950 . S
H990 C1002 0.950 . S
H991 C1003 0.950 . S
C992 H984 0.950 . S
C992 C993 1.386 . S
C992 C994 1.391 . S
C993 C992 1.386 . S
C993 C997 1.393 . S
C994 H986 0.950 . S
C994 C992 1.391 . S
C994 C995 1.400 . S
C995 C994 1.400 . S
C995 C996 1.398 . S
C995 C1001 1.491 . S
C996 H987 0.950 . S
C996 C995 1.398 . S
C996 C997 1.391 . S
C997 H985 0.950 . S
C997 C993 1.393 . S
C997 C996 1.391 . S
C998 H988 0.950 . S
C998 C999 1.386 . S
C998 C1000 1.391 . S
C999 C998 1.386 . S
C999 C1003 1.393 . S
C1000 H989 0.950 . S
C1000 C998 1.391 . S
C1000 C1001 1.400 . S
C1001 C995 1.491 . S
C1001 C1000 1.400 . S
C1001 C1002 1.398 . S
C1002 H990 0.950 . S
C1002 C1001 1.398 . S
C1002 C1003 1.391 . S
C1003 H991 0.950 . S
C1003 C999 1.393 . S
C1003 C1002 1.391 . S
H1004 C1012 0.950 . S
H1005 C1017 0.950 . S
H1006 C1014 0.950 . S
H1007 C1016 0.950 . S
H1008 C1018 0.950 . S
H1009 C1020 0.950 . S
H1010 C1022 0.950 . S
H1011 C1023 0.950 . S
C1012 H1004 0.950 . S
C1012 C1013 1.386 . S
C1012 C1014 1.391 . S
C1013 C1012 1.386 . S
C1013 C1017 1.393 . S
C1014 H1006 0.950 . S
C1014 C1012 1.391 . S
C1014 C1015 1.400 . S
C1015 C1014 1.400 . S
C1015 C1016 1.398 . S
C1015 C1021 1.491 . S
C1016 H1007 0.950 . S
C1016 C1015 1.398 . S
C1016 C1017 1.391 . S
C1017 H1005 0.950 . S
C1017 C1013 1.393 . S
C1017 C1016 1.391 . S
C1018 H1008 0.950 . S
C1018 C1019 1.386 . S
C1018 C1020 1.391 . S
C1019 C1018 1.386 . S
C1019 C1023 1.393 . S
C1020 H1009 0.950 . S
C1020 C1018 1.391 . S
C1020 C1021 1.400 . S
C1021 C1015 1.491 . S
C1021 C1020 1.400 . S
C1021 C1022 1.398 . S
C1022 H1010 0.950 . S
C1022 C1021 1.398 . S
C1022 C1023 1.391 . S
C1023 H1011 0.950 . S
C1023 C1019 1.393 . S
C1023 C1022 1.391 . S
H1024 C1032 0.950 . S
H1025 C1037 0.950 . S
H1026 C1034 0.950 . S
H1027 C1036 0.950 . S
H1028 C1038 0.950 . S
H1029 C1040 0.950 . S
H1030 C1042 0.950 . S
H1031 C1043 0.950 . S
C1032 H1024 0.950 . S
C1032 C1033 1.386 . S
C1032 C1034 1.391 . S
C1033 C1032 1.386 . S
C1033 C1037 1.393 . S
C1034 H1026 0.950 . S
C1034 C1032 1.391 . S
C1034 C1035 1.400 . S
C1035 C1034 1.400 . S
C1035 C1036 1.398 . S
C1035 C1041 1.491 . S
C1036 H1027 0.950 . S
C1036 C1035 1.398 . S
C1036 C1037 1.391 . S
C1037 H1025 0.950 . S
C1037 C1033 1.393 . S
C1037 C1036 1.391 . S
C1038 H1028 0.950 . S
C1038 C1039 1.386 . S
C1038 C1040 1.391 . S
C1039 C1038 1.386 . S
C1039 C1043 1.393 . S
C1040 H1029 0.950 . S
C1040 C1038 1.391 . S
C1040 C1041 1.400 . S
C1041 C1035 1.491 . S
C1041 C1040 1.400 . S
C1041 C1042 1.398 . S
C1042 H1030 0.950 . S
C1042 C1041 1.398 . S
C1042 C1043 1.391 . S
C1043 H1031 0.950 . S
C1043 C1039 1.393 . S
C1043 C1042 1.391 . S
H1044 C1052 0.950 . S
H1045 C1057 0.950 . S
H1046 C1054 0.950 . S
H1047 C1056 0.950 . S
H1048 C1058 0.950 . S
H1049 C1060 0.950 . S
H1050 C1062 0.950 . S
H1051 C1063 0.950 . S
C1052 H1044 0.950 . S
C1052 C1053 1.386 . S
C1052 C1054 1.391 . S
C1053 C1052 1.386 . S
C1053 C1057 1.393 . S
C1054 H1046 0.950 . S
C1054 C1052 1.391 . S
C1054 C1055 1.400 . S
C1055 C1054 1.400 . S
C1055 C1056 1.398 . S
C1055 C1061 1.491 . S
C1056 H1047 0.950 . S
C1056 C1055 1.398 . S
C1056 C1057 1.391 . S
C1057 H1045 0.950 . S
C1057 C1053 1.393 . S
C1057 C1056 1.391 . S
C1058 H1048 0.950 . S
C1058 C1059 1.386 . S
C1058 C1060 1.391 . S
C1059 C1058 1.386 . S
C1059 C1063 1.393 . S
C1060 H1049 0.950 . S
C1060 C1058 1.391 . S
C1060 C1061 1.400 . S
C1061 C1055 1.491 . S
C1061 C1060 1.400 . S
C1061 C1062 1.398 . S
C1062 H1050 0.950 . S
C1062 C1061 1.398 . S
C1062 C1063 1.391 . S
C1063 H1051 0.950 . S
C1063 C1059 1.393 . S
C1063 C1062 1.391 . S
H1064 C1072 0.950 . S
H1065 C1077 0.950 . S
H1066 C1074 0.950 . S
H1067 C1076 0.950 . S
H1068 C1078 0.950 . S
H1069 C1080 0.950 . S
H1070 C1082 0.950 . S
H1071 C1083 0.950 . S
C1072 H1064 0.950 . S
C1072 C1073 1.386 . S
C1072 C1074 1.391 . S
C1073 C1072 1.386 . S
C1073 C1077 1.393 . S
C1074 H1066 0.950 . S
C1074 C1072 1.391 . S
C1074 C1075 1.400 . S
C1075 C1074 1.400 . S
C1075 C1076 1.398 . S
C1075 C1081 1.491 . S
C1076 H1067 0.950 . S
C1076 C1075 1.398 . S
C1076 C1077 1.391 . S
C1077 H1065 0.950 . S
C1077 C1073 1.393 . S
C1077 C1076 1.391 . S
C1078 H1068 0.950 . S
C1078 C1079 1.386 . S
C1078 C1080 1.391 . S
C1079 C1078 1.386 . S
C1079 C1083 1.393 . S
C1080 H1069 0.950 . S
C1080 C1078 1.391 . S
C1080 C1081 1.400 . S
C1081 C1075 1.491 . S
C1081 C1080 1.400 . S
C1081 C1082 1.398 . S
C1082 H1070 0.950 . S
C1082 C1081 1.398 . S
C1082 C1083 1.391 . S
C1083 H1071 0.950 . S
C1083 C1079 1.393 . S
C1083 C1082 1.391 . S
H1084 C1092 0.950 . S
H1085 C1097 0.950 . S
H1086 C1094 0.950 . S
H1087 C1096 0.950 . S
H1088 C1098 0.950 . S
H1089 C1100 0.950 . S
H1090 C1102 0.950 . S
H1091 C1103 0.950 . S
C1092 H1084 0.950 . S
C1092 C1093 1.386 . S
C1092 C1094 1.391 . S
C1093 C1092 1.386 . S
C1093 C1097 1.393 . S
C1094 H1086 0.950 . S
C1094 C1092 1.391 . S
C1094 C1095 1.400 . S
C1095 C1094 1.400 . S
C1095 C1096 1.398 . S
C1095 C1101 1.491 . S
C1096 H1087 0.950 . S
C1096 C1095 1.398 . S
C1096 C1097 1.391 . S
C1097 H1085 0.950 . S
C1097 C1093 1.393 . S
C1097 C1096 1.391 . S
C1098 H1088 0.950 . S
C1098 C1099 1.386 . S
C1098 C1100 1.391 . S
C1099 C1098 1.386 . S
C1099 C1103 1.393 . S
C1100 H1089 0.950 . S
C1100 C1098 1.391 . S
C1100 C1101 1.400 . S
C1101 C1095 1.491 . S
C1101 C1100 1.400 . S
C1101 C1102 1.398 . S
C1102 H1090 0.950 . S
C1102 C1101 1.398 . S
C1102 C1103 1.391 . S
C1103 H1091 0.950 . S
C1103 C1099 1.393 . S
C1103 C1102 1.391 . S
H1104 C1112 0.950 . S
H1105 C1117 0.950 . S
H1106 C1114 0.950 . S
H1107 C1116 0.950 . S
H1108 C1118 0.950 . S
H1109 C1120 0.950 . S
H1110 C1122 0.950 . S
H1111 C1123 0.950 . S
C1112 H1104 0.950 . S
C1112 C1113 1.386 . S
C1112 C1114 1.391 . S
C1113 C1112 1.386 . S
C1113 C1117 1.393 . S
C1114 H1106 0.950 . S
C1114 C1112 1.391 . S
C1114 C1115 1.400 . S
C1115 C1114 1.400 . S
C1115 C1116 1.398 . S
C1115 C1121 1.491 . S
C1116 H1107 0.950 . S
C1116 C1115 1.398 . S
C1116 C1117 1.391 . S
C1117 H1105 0.950 . S
C1117 C1113 1.393 . S
C1117 C1116 1.391 . S
C1118 H1108 0.950 . S
C1118 C1119 1.386 . S
C1118 C1120 1.391 . S
C1119 C1118 1.386 . S
C1119 C1123 1.393 . S
C1120 H1109 0.950 . S
C1120 C1118 1.391 . S
C1120 C1121 1.400 . S
C1121 C1115 1.491 . S
C1121 C1120 1.400 . S
C1121 C1122 1.398 . S
C1122 H1110 0.950 . S
C1122 C1121 1.398 . S
C1122 C1123 1.391 . S
C1123 H1111 0.950 . S
C1123 C1119 1.393 . S
C1123 C1122 1.391 . S
H1124 C1132 0.950 . S
H1125 C1137 0.950 . S
H1126 C1134 0.950 . S
H1127 C1136 0.950 . S
H1128 C1138 0.950 . S
H1129 C1140 0.950 . S
H1130 C1142 0.950 . S
H1131 C1143 0.950 . S
C1132 H1124 0.950 . S
C1132 C1133 1.386 . S
C1132 C1134 1.391 . S
C1133 C1132 1.386 . S
C1133 C1137 1.393 . S
C1134 H1126 0.950 . S
C1134 C1132 1.391 . S
C1134 C1135 1.400 . S
C1135 C1134 1.400 . S
C1135 C1136 1.398 . S
C1135 C1141 1.491 . S
C1136 H1127 0.950 . S
C1136 C1135 1.398 . S
C1136 C1137 1.391 . S
C1137 H1125 0.950 . S
C1137 C1133 1.393 . S
C1137 C1136 1.391 . S
C1138 H1128 0.950 . S
C1138 C1139 1.386 . S
C1138 C1140 1.391 . S
C1139 C1138 1.386 . S
C1139 C1143 1.393 . S
C1140 H1129 0.950 . S
C1140 C1138 1.391 . S
C1140 C1141 1.400 . S
C1141 C1135 1.491 . S
C1141 C1140 1.400 . S
C1141 C1142 1.398 . S
C1142 H1130 0.950 . S
C1142 C1141 1.398 . S
C1142 C1143 1.391 . S
C1143 H1131 0.950 . S
C1143 C1139 1.393 . S
C1143 C1142 1.391 . S
H1144 C1152 0.950 . S
H1145 C1157 0.950 . S
H1146 C1154 0.950 . S
H1147 C1156 0.950 . S
H1148 C1158 0.950 . S
H1149 C1160 0.950 . S
H1150 C1162 0.950 . S
H1151 C1163 0.950 . S
C1152 H1144 0.950 . S
C1152 C1153 1.386 . S
C1152 C1154 1.391 . S
C1153 C1152 1.386 . S
C1153 C1157 1.393 . S
C1154 H1146 0.950 . S
C1154 C1152 1.391 . S
C1154 C1155 1.400 . S
C1155 C1154 1.400 . S
C1155 C1156 1.398 . S
C1155 C1161 1.491 . S
C1156 H1147 0.950 . S
C1156 C1155 1.398 . S
C1156 C1157 1.391 . S
C1157 H1145 0.950 . S
C1157 C1153 1.393 . S
C1157 C1156 1.391 . S
C1158 H1148 0.950 . S
C1158 C1159 1.386 . S
C1158 C1160 1.391 . S
C1159 C1158 1.386 . S
C1159 C1163 1.393 . S
C1160 H1149 0.950 . S
C1160 C1158 1.391 . S
C1160 C1161 1.400 . S
C1161 C1155 1.491 . S
C1161 C1160 1.400 . S
C1161 C1162 1.398 . S
C1162 H1150 0.950 . S
C1162 C1161 1.398 . S
C1162 C1163 1.391 . S
C1163 H1151 0.950 . S
C1163 C1159 1.393 . S
C1163 C1162 1.391 . S
H1164 C1172 0.950 . S
H1165 C1177 0.950 . S
H1166 C1174 0.950 . S
H1167 C1176 0.950 . S
H1168 C1178 0.950 . S
H1169 C1180 0.950 . S
H1170 C1182 0.950 . S
H1171 C1183 0.950 . S
C1172 H1164 0.950 . S
C1172 C1173 1.386 . S
C1172 C1174 1.391 . S
C1173 C1172 1.386 . S
C1173 C1177 1.393 . S
C1174 H1166 0.950 . S
C1174 C1172 1.391 . S
C1174 C1175 1.400 . S
C1175 C1174 1.400 . S
C1175 C1176 1.398 . S
C1175 C1181 1.491 . S
C1176 H1167 0.950 . S
C1176 C1175 1.398 . S
C1176 C1177 1.391 . S
C1177 H1165 0.950 . S
C1177 C1173 1.393 . S
C1177 C1176 1.391 . S
C1178 H1168 0.950 . S
C1178 C1179 1.386 . S
C1178 C1180 1.391 . S
C1179 C1178 1.386 . S
C1179 C1183 1.393 . S
C1180 H1169 0.950 . S
C1180 C1178 1.391 . S
C1180 C1181 1.400 . S
C1181 C1175 1.491 . S
C1181 C1180 1.400 . S
C1181 C1182 1.398 . S
C1182 H1170 0.950 . S
C1182 C1181 1.398 . S
C1182 C1183 1.391 . S
C1183 H1171 0.950 . S
C1183 C1179 1.393 . S
C1183 C1182 1.391 . S
H1184 C1192 0.950 . S
H1185 C1197 0.950 . S
H1186 C1194 0.950 . S
H1187 C1196 0.950 . S
H1188 C1198 0.950 . S
H1189 C1200 0.950 . S
H1190 C1202 0.950 . S
H1191 C1203 0.950 . S
C1192 H1184 0.950 . S
C1192 C1193 1.386 . S
C1192 C1194 1.391 . S
C1193 C1192 1.386 . S
C1193 C1197 1.393 . S
C1194 H1186 0.950 . S
C1194 C1192 1.391 . S
C1194 C1195 1.400 . S
C1195 C1194 1.400 . S
C1195 C1196 1.398 . S
C1195 C1201 1.491 . S
C1196 H1187 0.950 . S
C1196 C1195 1.398 . S
C1196 C1197 1.391 . S
C1197 H1185 0.950 . S
C1197 C1193 1.393 . S
C1197 C1196 1.391 . S
C1198 H1188 0.950 . S
C1198 C1199 1.386 . S
C1198 C1200 1.391 . S
C1199 C1198 1.386 . S
C1199 C1203 1.393 . S
C1200 H1189 0.950 . S
C1200 C1198 1.391 . S
C1200 C1201 1.400 . S
C1201 C1195 1.491 . S
C1201 C1200 1.400 . S
C1201 C1202 1.398 . S
C1202 H1190 0.950 . S
C1202 C1201 1.398 . S
C1202 C1203 1.391 . S
C1203 H1191 0.950 . S
C1203 C1199 1.393 . S
C1203 C1202 1.391 . S
H1204 C1212 0.950 . S
H1205 C1217 0.950 . S
H1206 C1214 0.950 . S
H1207 C1216 0.950 . S
H1208 C1218 0.950 . S
H1209 C1220 0.950 . S
H1210 C1222 0.950 . S
H1211 C1223 0.950 . S
C1212 H1204 0.950 . S
C1212 C1213 1.386 . S
C1212 C1214 1.391 . S
C1213 C1212 1.386 . S
C1213 C1217 1.393 . S
C1214 H1206 0.950 . S
C1214 C1212 1.391 . S
C1214 C1215 1.400 . S
C1215 C1214 1.400 . S
C1215 C1216 1.398 . S
C1215 C1221 1.491 . S
C1216 H1207 0.950 . S
C1216 C1215 1.398 . S
C1216 C1217 1.391 . S
C1217 H1205 0.950 . S
C1217 C1213 1.393 . S
C1217 C1216 1.391 . S
C1218 H1208 0.950 . S
C1218 C1219 1.386 . S
C1218 C1220 1.391 . S
C1219 C1218 1.386 . S
C1219 C1223 1.393 . S
C1220 H1209 0.950 . S
C1220 C1218 1.391 . S
C1220 C1221 1.400 . S
C1221 C1215 1.491 . S
C1221 C1220 1.400 . S
C1221 C1222 1.398 . S
C1222 H1210 0.950 . S
C1222 C1221 1.398 . S
C1222 C1223 1.391 . S
C1223 H1211 0.950 . S
C1223 C1219 1.393 . S
C1223 C1222 1.391 . S
H1224 C1232 0.950 . S
H1225 C1237 0.950 . S
H1226 C1234 0.950 . S
H1227 C1236 0.950 . S
H1228 C1238 0.950 . S
H1229 C1240 0.950 . S
H1230 C1242 0.950 . S
H1231 C1243 0.950 . S
C1232 H1224 0.950 . S
C1232 C1233 1.386 . S
C1232 C1234 1.391 . S
C1233 C1232 1.386 . S
C1233 C1237 1.393 . S
C1234 H1226 0.950 . S
C1234 C1232 1.391 . S
C1234 C1235 1.400 . S
C1235 C1234 1.400 . S
C1235 C1236 1.398 . S
C1235 C1241 1.491 . S
C1236 H1227 0.950 . S
C1236 C1235 1.398 . S
C1236 C1237 1.391 . S
C1237 H1225 0.950 . S
C1237 C1233 1.393 . S
C1237 C1236 1.391 . S
C1238 H1228 0.950 . S
C1238 C1239 1.386 . S
C1238 C1240 1.391 . S
C1239 C1238 1.386 . S
C1239 C1243 1.393 . S
C1240 H1229 0.950 . S
C1240 C1238 1.391 . S
C1240 C1241 1.400 . S
C1241 C1235 1.491 . S
C1241 C1240 1.400 . S
C1241 C1242 1.398 . S
C1242 H1230 0.950 . S
C1242 C1241 1.398 . S
C1242 C1243 1.391 . S
C1243 H1231 0.950 . S
C1243 C1239 1.393 . S
C1243 C1242 1.391 . S
H1244 C1252 0.950 . S
H1245 C1257 0.950 . S
H1246 C1254 0.937 1_545 S
H1247 C1256 0.950 . S
H1248 C1258 0.950 . S
H1249 C1260 0.937 1_565 S
H1250 C1262 0.950 . S
H1251 C1263 0.950 . S
C1252 H1244 0.950 . S
C1252 C1253 1.386 . S
C1252 C1254 1.399 . S
C1253 C1252 1.386 . S
C1253 C1257 1.393 . S
C1254 H1246 0.937 1_565 S
C1254 C1252 1.399 . S
C1254 C1255 1.404 . S
C1255 C1254 1.404 . S
C1255 C1256 1.398 . S
C1255 C1261 1.491 1_565 S
C1256 H1247 0.950 . S
C1256 C1255 1.398 . S
C1256 C1257 1.391 . S
C1257 H1245 0.950 . S
C1257 C1253 1.393 . S
C1257 C1256 1.391 . S
C1258 H1248 0.950 . S
C1258 C1259 1.386 . S
C1258 C1260 1.400 . S
C1259 C1258 1.386 . S
C1259 C1263 1.393 . S
C1260 H1249 0.937 1_545 S
C1260 C1258 1.400 . S
C1260 C1261 1.404 . S
C1261 C1255 1.491 1_545 S
C1261 C1260 1.404 . S
C1261 C1262 1.398 . S
C1262 H1250 0.950 . S
C1262 C1261 1.398 . S
C1262 C1263 1.391 . S
C1263 H1251 0.950 . S
C1263 C1259 1.393 . S
C1263 C1262 1.391 . S
H1264 C1272 0.950 . S
H1265 C1277 0.950 . S
H1266 C1274 0.937 1_455 S
H1267 C1276 0.950 . S
H1268 C1278 0.950 . S
H1269 C1280 0.937 1_655 S
H1270 C1282 0.950 . S
H1271 C1283 0.950 . S
C1272 H1264 0.950 . S
C1272 C1273 1.386 . S
C1272 C1274 1.399 . S
C1273 C1272 1.386 . S
C1273 C1277 1.393 . S
C1274 H1266 0.937 1_655 S
C1274 C1272 1.399 . S
C1274 C1275 1.404 . S
C1275 C1274 1.404 . S
C1275 C1276 1.398 . S
C1275 C1281 1.491 1_655 S
C1276 H1267 0.950 . S
C1276 C1275 1.398 . S
C1276 C1277 1.391 . S
C1277 H1265 0.950 . S
C1277 C1273 1.393 . S
C1277 C1276 1.391 . S
C1278 H1268 0.950 . S
C1278 C1279 1.386 . S
C1278 C1280 1.399 . S
C1279 C1278 1.386 . S
C1279 C1283 1.393 . S
C1280 H1269 0.937 1_455 S
C1280 C1278 1.399 . S
C1280 C1281 1.405 . S
C1281 C1275 1.491 1_455 S
C1281 C1280 1.405 . S
C1281 C1282 1.398 . S
C1282 H1270 0.950 . S
C1282 C1281 1.398 . S
C1282 C1283 1.391 . S
C1283 H1271 0.950 . S
C1283 C1279 1.393 . S
C1283 C1282 1.391 . S
H1284 C1292 0.950 . S
H1285 C1297 0.950 . S
H1286 C1294 0.950 . S
H1287 C1296 0.950 . S
H1288 C1298 0.950 . S
H1289 C1300 0.950 . S
H1290 C1302 0.950 . S
H1291 C1303 0.950 . S
C1292 H1284 0.950 . S
C1292 C1293 1.386 . S
C1292 C1294 1.391 . S
C1293 C1292 1.386 . S
C1293 C1297 1.393 . S
C1294 H1286 0.950 . S
C1294 C1292 1.391 . S
C1294 C1295 1.400 . S
C1295 C1294 1.400 . S
C1295 C1296 1.398 . S
C1295 C1301 1.491 . S
C1296 H1287 0.950 . S
C1296 C1295 1.398 . S
C1296 C1297 1.391 . S
C1297 H1285 0.950 . S
C1297 C1293 1.393 . S
C1297 C1296 1.391 . S
C1298 H1288 0.950 . S
C1298 C1299 1.386 . S
C1298 C1300 1.391 . S
C1299 C1298 1.386 . S
C1299 C1303 1.393 . S
C1300 H1289 0.950 . S
C1300 C1298 1.391 . S
C1300 C1301 1.400 . S
C1301 C1295 1.491 . S
C1301 C1300 1.400 . S
C1301 C1302 1.398 . S
C1302 H1290 0.950 . S
C1302 C1301 1.398 . S
C1302 C1303 1.391 . S
C1303 H1291 0.950 . S
C1303 C1299 1.393 . S
C1303 C1302 1.391 . S
H1304 C1312 0.950 . S
H1305 C1317 0.950 . S
H1306 C1314 0.950 . S
H1307 C1316 0.950 1_565 S
H1308 C1318 0.950 . S
H1309 C1320 0.950 . S
H1310 C1322 0.950 1_545 S
H1311 C1323 0.950 . S
C1312 H1304 0.950 . S
C1312 C1313 1.386 . S
C1312 C1314 1.391 . S
C1313 C1312 1.386 . S
C1313 C1317 1.393 . S
C1314 H1306 0.950 . S
C1314 C1312 1.391 . S
C1314 C1315 1.400 . S
C1315 C1314 1.400 . S
C1315 C1316 1.398 . S
C1315 C1321 1.491 1_545 S
C1316 H1307 0.950 1_545 S
C1316 C1315 1.398 . S
C1316 C1317 1.391 . S
C1317 H1305 0.950 . S
C1317 C1313 1.393 . S
C1317 C1316 1.391 . S
C1318 H1308 0.950 . S
C1318 C1319 1.386 . S
C1318 C1320 1.391 . S
C1319 C1318 1.386 . S
C1319 C1323 1.393 . S
C1320 H1309 0.950 . S
C1320 C1318 1.391 . S
C1320 C1321 1.400 . S
C1321 C1315 1.491 1_565 S
C1321 C1320 1.400 . S
C1321 C1322 1.398 . S
C1322 H1310 0.950 1_565 S
C1322 C1321 1.398 . S
C1322 C1323 1.391 . S
C1323 H1311 0.950 . S
C1323 C1319 1.393 . S
C1323 C1322 1.391 . S
H1324 C1332 0.950 . S
H1325 C1337 0.950 . S
H1326 C1334 0.957 . S
H1327 C1336 0.950 . S
H1328 C1338 0.950 . S
H1329 C1340 0.957 . S
H1330 C1342 0.950 . S
H1331 C1343 0.950 . S
C1332 H1324 0.950 . S
C1332 C1333 1.386 . S
C1332 C1334 1.391 . S
C1333 C1332 1.386 . S
C1333 C1337 1.393 . S
C1334 H1326 0.957 . S
C1334 C1332 1.391 . S
C1334 C1335 1.400 . S
C1335 C1334 1.400 . S
C1335 C1336 1.398 . S
C1335 C1341 1.491 1_655 S
C1336 H1327 0.950 . S
C1336 C1335 1.398 . S
C1336 C1337 1.391 . S
C1337 H1325 0.950 . S
C1337 C1333 1.393 . S
C1337 C1336 1.391 . S
C1338 H1328 0.950 . S
C1338 C1339 1.386 . S
C1338 C1340 1.391 . S
C1339 C1338 1.386 . S
C1339 C1343 1.393 . S
C1340 H1329 0.957 . S
C1340 C1338 1.391 . S
C1340 C1341 1.400 . S
C1341 C1335 1.491 1_455 S
C1341 C1340 1.400 . S
C1341 C1342 1.398 . S
C1342 H1330 0.950 . S
C1342 C1341 1.398 . S
C1342 C1343 1.391 . S
C1343 H1331 0.950 . S
C1343 C1339 1.393 . S
C1343 C1342 1.391 . S
H1344 C1352 0.950 . S
H1345 C1357 0.950 . S
H1346 C1354 0.950 . S
H1347 C1356 0.950 . S
H1348 C1358 0.950 . S
H1349 C1360 0.950 . S
H1350 C1362 0.950 . S
H1351 C1363 0.950 . S
C1352 H1344 0.950 . S
C1352 C1353 1.386 . S
C1352 C1354 1.391 . S
C1353 C1352 1.386 . S
C1353 C1357 1.393 . S
C1354 H1346 0.950 . S
C1354 C1352 1.391 . S
C1354 C1355 1.400 . S
C1355 C1354 1.400 . S
C1355 C1356 1.398 . S
C1355 C1361 1.491 . S
C1356 H1347 0.950 . S
C1356 C1355 1.398 . S
C1356 C1357 1.391 . S
C1357 H1345 0.950 . S
C1357 C1353 1.393 . S
C1357 C1356 1.391 . S
C1358 H1348 0.950 . S
C1358 C1359 1.386 . S
C1358 C1360 1.391 . S
C1359 C1358 1.386 . S
C1359 C1363 1.393 . S
C1360 H1349 0.950 . S
C1360 C1358 1.391 . S
C1360 C1361 1.400 . S
C1361 C1355 1.491 . S
C1361 C1360 1.400 . S
C1361 C1362 1.398 . S
C1362 H1350 0.950 . S
C1362 C1361 1.398 . S
C1362 C1363 1.391 . S
C1363 H1351 0.950 . S
C1363 C1359 1.393 . S
C1363 C1362 1.391 . S
H1364 C1372 0.950 . S
H1365 C1377 0.950 . S
H1366 C1374 0.950 . S
H1367 C1376 0.950 . S
H1368 C1378 0.950 . S
H1369 C1380 0.950 . S
H1370 C1382 0.950 . S
H1371 C1383 0.950 . S
C1372 H1364 0.950 . S
C1372 C1373 1.386 . S
C1372 C1374 1.391 . S
C1373 C1372 1.386 . S
C1373 C1377 1.393 . S
C1374 H1366 0.950 . S
C1374 C1372 1.391 . S
C1374 C1375 1.400 . S
C1375 C1374 1.400 . S
C1375 C1376 1.398 . S
C1375 C1381 1.491 . S
C1376 H1367 0.950 . S
C1376 C1375 1.398 . S
C1376 C1377 1.391 . S
C1377 H1365 0.950 . S
C1377 C1373 1.393 . S
C1377 C1376 1.391 . S
C1378 H1368 0.950 . S
C1378 C1379 1.386 . S
C1378 C1380 1.391 . S
C1379 C1378 1.386 . S
C1379 C1383 1.393 . S
C1380 H1369 0.950 . S
C1380 C1378 1.391 . S
C1380 C1381 1.400 . S
C1381 C1375 1.491 . S
C1381 C1380 1.400 . S
C1381 C1382 1.398 . S
C1382 H1370 0.950 . S
C1382 C1381 1.398 . S
C1382 C1383 1.391 . S
C1383 H1371 0.950 . S
C1383 C1379 1.393 . S
C1383 C1382 1.391 . S
H1384 C1392 0.950 . S
H1385 C1397 0.950 . S
H1386 C1394 0.950 . S
H1387 C1396 0.950 . S
H1388 C1398 0.950 . S
H1389 C1400 0.950 . S
H1390 C1402 0.950 . S
H1391 C1403 0.950 . S
C1392 H1384 0.950 . S
C1392 C1393 1.386 . S
C1392 C1394 1.391 . S
C1393 C1392 1.386 . S
C1393 C1397 1.393 . S
C1394 H1386 0.950 . S
C1394 C1392 1.391 . S
C1394 C1395 1.400 . S
C1395 C1394 1.400 . S
C1395 C1396 1.398 . S
C1395 C1401 1.491 . S
C1396 H1387 0.950 . S
C1396 C1395 1.398 . S
C1396 C1397 1.391 . S
C1397 H1385 0.950 . S
C1397 C1393 1.393 . S
C1397 C1396 1.391 . S
C1398 H1388 0.950 . S
C1398 C1399 1.386 . S
C1398 C1400 1.391 . S
C1399 C1398 1.386 . S
C1399 C1403 1.393 . S
C1400 H1389 0.950 . S
C1400 C1398 1.391 . S
C1400 C1401 1.400 . S
C1401 C1395 1.491 . S
C1401 C1400 1.400 . S
C1401 C1402 1.398 . S
C1402 H1390 0.950 . S
C1402 C1401 1.398 . S
C1402 C1403 1.391 . S
C1403 H1391 0.950 . S
C1403 C1399 1.393 . S
C1403 C1402 1.391 . S
H1404 C1412 0.950 . S
H1405 C1417 0.950 . S
H1406 C1414 0.950 . S
H1407 C1416 0.950 . S
H1408 C1418 0.950 . S
H1409 C1420 0.950 . S
H1410 C1422 0.950 . S
H1411 C1423 0.950 . S
C1412 H1404 0.950 . S
C1412 C1413 1.386 . S
C1412 C1414 1.391 . S
C1413 C1412 1.386 . S
C1413 C1417 1.393 . S
C1414 H1406 0.950 . S
C1414 C1412 1.391 . S
C1414 C1415 1.400 . S
C1415 C1414 1.400 . S
C1415 C1416 1.398 . S
C1415 C1421 1.491 . S
C1416 H1407 0.950 . S
C1416 C1415 1.398 . S
C1416 C1417 1.391 . S
C1417 H1405 0.950 . S
C1417 C1413 1.393 . S
C1417 C1416 1.391 . S
C1418 H1408 0.950 . S
C1418 C1419 1.386 . S
C1418 C1420 1.391 . S
C1419 C1418 1.386 . S
C1419 C1423 1.393 . S
C1420 H1409 0.950 . S
C1420 C1418 1.391 . S
C1420 C1421 1.400 . S
C1421 C1415 1.491 . S
C1421 C1420 1.400 . S
C1421 C1422 1.398 . S
C1422 H1410 0.950 . S
C1422 C1421 1.398 . S
C1422 C1423 1.391 . S
C1423 H1411 0.950 . S
C1423 C1419 1.393 . S
C1423 C1422 1.391 . S
H1424 C1432 0.943 1_556 S
H1425 C1437 0.950 . S
H1426 C1434 0.950 . S
H1427 C1436 0.950 . S
H1428 C1438 0.950 . S
H1429 C1440 0.950 . S
H1430 C1442 0.950 . S
H1431 C1443 0.950 . S
C1432 H1424 0.943 1_554 S
C1432 C1433 1.386 . S
C1432 C1434 1.391 . S
C1433 C1432 1.386 . S
C1433 C1437 1.393 . S
C1434 H1426 0.950 . S
C1434 C1432 1.391 . S
C1434 C1435 1.400 . S
C1435 C1434 1.400 . S
C1435 C1436 1.398 . S
C1435 C1441 1.491 . S
C1436 H1427 0.950 . S
C1436 C1435 1.398 . S
C1436 C1437 1.391 . S
C1437 H1425 0.950 . S
C1437 C1433 1.393 . S
C1437 C1436 1.391 . S
C1438 H1428 0.950 . S
C1438 C1439 1.386 . S
C1438 C1440 1.391 . S
C1439 C1438 1.386 . S
C1439 C1443 1.393 . S
C1440 H1429 0.950 . S
C1440 C1438 1.391 . S
C1440 C1441 1.400 . S
C1441 C1435 1.491 . S
C1441 C1440 1.400 . S
C1441 C1442 1.398 . S
C1442 H1430 0.950 . S
C1442 C1441 1.398 . S
C1442 C1443 1.391 . S
C1443 H1431 0.950 . S
C1443 C1439 1.393 . S
C1443 C1442 1.391 . S
H1444 C1452 0.950 . S
H1445 C1457 0.950 . S
H1446 C1454 0.950 . S
H1447 C1456 0.950 . S
H1448 C1458 0.950 . S
H1449 C1460 0.950 . S
H1450 C1462 0.950 . S
H1451 C1463 0.950 . S
C1452 H1444 0.950 . S
C1452 C1453 1.386 . S
C1452 C1454 1.391 . S
C1453 C1452 1.386 . S
C1453 C1457 1.393 . S
C1454 H1446 0.950 . S
C1454 C1452 1.391 . S
C1454 C1455 1.400 . S
C1455 C1454 1.400 . S
C1455 C1456 1.398 . S
C1455 C1461 1.491 . S
C1456 H1447 0.950 . S
C1456 C1455 1.398 . S
C1456 C1457 1.391 . S
C1457 H1445 0.950 . S
C1457 C1453 1.393 . S
C1457 C1456 1.391 . S
C1458 H1448 0.950 . S
C1458 C1459 1.386 . S
C1458 C1460 1.391 . S
C1459 C1458 1.386 . S
C1459 C1463 1.393 . S
C1460 H1449 0.950 . S
C1460 C1458 1.391 . S
C1460 C1461 1.400 . S
C1461 C1455 1.491 . S
C1461 C1460 1.400 . S
C1461 C1462 1.398 . S
C1462 H1450 0.950 . S
C1462 C1461 1.398 . S
C1462 C1463 1.391 . S
C1463 H1451 0.950 . S
C1463 C1459 1.393 . S
C1463 C1462 1.391 . S
H1464 C1472 0.950 . S
H1465 C1477 0.950 1_554 S
H1466 C1474 0.950 . S
H1467 C1476 0.950 . S
H1468 C1478 0.950 . S
H1469 C1480 0.950 . S
H1470 C1482 0.950 . S
H1471 C1483 0.950 . S
C1472 H1464 0.950 . S
C1472 C1473 1.386 . S
C1472 C1474 1.391 . S
C1473 C1472 1.386 . S
C1473 C1477 1.393 . S
C1474 H1466 0.950 . S
C1474 C1472 1.391 . S
C1474 C1475 1.400 . S
C1475 C1474 1.400 . S
C1475 C1476 1.398 . S
C1475 C1481 1.491 . S
C1476 H1467 0.950 . S
C1476 C1475 1.398 . S
C1476 C1477 1.391 . S
C1477 H1465 0.950 1_556 S
C1477 C1473 1.393 . S
C1477 C1476 1.391 . S
C1478 H1468 0.950 . S
C1478 C1479 1.386 . S
C1478 C1480 1.391 . S
C1479 C1478 1.386 . S
C1479 C1483 1.393 . S
C1480 H1469 0.950 . S
C1480 C1478 1.391 . S
C1480 C1481 1.400 . S
C1481 C1475 1.491 . S
C1481 C1480 1.400 . S
C1481 C1482 1.398 . S
C1482 H1470 0.950 . S
C1482 C1481 1.398 . S
C1482 C1483 1.391 . S
C1483 H1471 0.950 . S
C1483 C1479 1.393 . S
C1483 C1482 1.391 . S
H1484 C1492 0.950 . S
H1485 C1497 0.950 . S
H1486 C1494 0.950 . S
H1487 C1496 0.950 . S
H1488 C1498 0.950 . S
H1489 C1500 0.950 . S
H1490 C1502 0.950 . S
H1491 C1503 0.950 . S
C1492 H1484 0.950 . S
C1492 C1493 1.386 . S
C1492 C1494 1.391 . S
C1493 C1492 1.386 . S
C1493 C1497 1.393 . S
C1494 H1486 0.950 . S
C1494 C1492 1.391 . S
C1494 C1495 1.400 . S
C1495 C1494 1.400 . S
C1495 C1496 1.398 . S
C1495 C1501 1.491 . S
C1496 H1487 0.950 . S
C1496 C1495 1.398 . S
C1496 C1497 1.391 . S
C1497 H1485 0.950 . S
C1497 C1493 1.393 . S
C1497 C1496 1.391 . S
C1498 H1488 0.950 . S
C1498 C1499 1.386 . S
C1498 C1500 1.391 . S
C1499 C1498 1.386 . S
C1499 C1503 1.393 . S
C1500 H1489 0.950 . S
C1500 C1498 1.391 . S
C1500 C1501 1.400 . S
C1501 C1495 1.491 . S
C1501 C1500 1.400 . S
C1501 C1502 1.398 . S
C1502 H1490 0.950 . S
C1502 C1501 1.398 . S
C1502 C1503 1.391 . S
C1503 H1491 0.950 . S
C1503 C1499 1.393 . S
C1503 C1502 1.391 . S
H1504 C1512 0.950 . S
H1505 C1517 0.950 1_554 S
H1506 C1514 0.950 . S
H1507 C1516 0.950 . S
H1508 C1518 0.950 . S
H1509 C1520 0.950 . S
H1510 C1522 0.950 . S
H1511 C1523 0.950 . S
C1512 H1504 0.950 . S
C1512 C1513 1.386 . S
C1512 C1514 1.391 . S
C1513 C1512 1.386 . S
C1513 C1517 1.393 . S
C1514 H1506 0.950 . S
C1514 C1512 1.391 . S
C1514 C1515 1.400 . S
C1515 C1514 1.400 . S
C1515 C1516 1.398 . S
C1515 C1521 1.491 . S
C1516 H1507 0.950 . S
C1516 C1515 1.398 . S
C1516 C1517 1.391 . S
C1517 H1505 0.950 1_556 S
C1517 C1513 1.393 . S
C1517 C1516 1.391 . S
C1518 H1508 0.950 . S
C1518 C1519 1.386 . S
C1518 C1520 1.391 . S
C1519 C1518 1.386 . S
C1519 C1523 1.393 . S
C1520 H1509 0.950 . S
C1520 C1518 1.391 . S
C1520 C1521 1.400 . S
C1521 C1515 1.491 . S
C1521 C1520 1.400 . S
C1521 C1522 1.398 . S
C1522 H1510 0.950 . S
C1522 C1521 1.398 . S
C1522 C1523 1.391 . S
C1523 H1511 0.950 . S
C1523 C1519 1.393 . S
C1523 C1522 1.391 . S
H1524 C1532 0.950 . S
H1525 C1537 0.950 . S
H1526 C1534 0.950 . S
H1527 C1536 0.950 . S
H1528 C1538 0.950 . S
H1529 C1540 0.950 . S
H1530 C1542 0.950 . S
H1531 C1543 0.950 . S
C1532 H1524 0.950 . S
C1532 C1533 1.386 . S
C1532 C1534 1.391 . S
C1533 C1532 1.386 . S
C1533 C1537 1.393 . S
C1534 H1526 0.950 . S
C1534 C1532 1.391 . S
C1534 C1535 1.400 . S
C1535 C1534 1.400 . S
C1535 C1536 1.398 . S
C1535 C1541 1.491 . S
C1536 H1527 0.950 . S
C1536 C1535 1.398 . S
C1536 C1537 1.391 . S
C1537 H1525 0.950 . S
C1537 C1533 1.393 . S
C1537 C1536 1.391 . S
C1538 H1528 0.950 . S
C1538 C1539 1.386 . S
C1538 C1540 1.391 . S
C1539 C1538 1.386 . S
C1539 C1543 1.393 . S
C1540 H1529 0.950 . S
C1540 C1538 1.391 . S
C1540 C1541 1.400 . S
C1541 C1535 1.491 . S
C1541 C1540 1.400 . S
C1541 C1542 1.398 . S
C1542 H1530 0.950 . S
C1542 C1541 1.398 . S
C1542 C1543 1.391 . S
C1543 H1531 0.950 . S
C1543 C1539 1.393 . S
C1543 C1542 1.391 . S
H1544 C1552 0.950 . S
H1545 C1557 0.950 . S
H1546 C1554 0.950 . S
H1547 C1556 0.950 . S
H1548 C1558 0.950 . S
H1549 C1560 0.950 . S
H1550 C1562 0.950 . S
H1551 C1563 0.950 . S
C1552 H1544 0.950 . S
C1552 C1553 1.386 . S
C1552 C1554 1.391 . S
C1553 C1552 1.386 . S
C1553 C1557 1.393 . S
C1554 H1546 0.950 . S
C1554 C1552 1.391 . S
C1554 C1555 1.400 . S
C1555 C1554 1.400 . S
C1555 C1556 1.398 . S
C1555 C1561 1.491 . S
C1556 H1547 0.950 . S
C1556 C1555 1.398 . S
C1556 C1557 1.391 . S
C1557 H1545 0.950 . S
C1557 C1553 1.393 . S
C1557 C1556 1.391 . S
C1558 H1548 0.950 . S
C1558 C1559 1.386 . S
C1558 C1560 1.391 . S
C1559 C1558 1.386 . S
C1559 C1563 1.393 . S
C1560 H1549 0.950 . S
C1560 C1558 1.391 . S
C1560 C1561 1.400 . S
C1561 C1555 1.491 . S
C1561 C1560 1.400 . S
C1561 C1562 1.398 . S
C1562 H1550 0.950 . S
C1562 C1561 1.398 . S
C1562 C1563 1.391 . S
C1563 H1551 0.950 . S
C1563 C1559 1.393 . S
C1563 C1562 1.391 . S
H1564 C1572 0.950 . S
H1565 C1577 0.950 . S
H1566 C1574 0.950 . S
H1567 C1576 0.950 . S
H1568 C1578 0.950 . S
H1569 C1580 0.950 . S
H1570 C1582 0.950 . S
H1571 C1583 0.950 . S
C1572 H1564 0.950 . S
C1572 C1573 1.386 . S
C1572 C1574 1.391 . S
C1573 C1572 1.386 . S
C1573 C1577 1.393 . S
C1574 H1566 0.950 . S
C1574 C1572 1.391 . S
C1574 C1575 1.400 . S
C1575 C1574 1.400 . S
C1575 C1576 1.398 . S
C1575 C1581 1.491 . S
C1576 H1567 0.950 . S
C1576 C1575 1.398 . S
C1576 C1577 1.391 . S
C1577 H1565 0.950 . S
C1577 C1573 1.393 . S
C1577 C1576 1.391 . S
C1578 H1568 0.950 . S
C1578 C1579 1.386 . S
C1578 C1580 1.391 . S
C1579 C1578 1.386 . S
C1579 C1583 1.393 . S
C1580 H1569 0.950 . S
C1580 C1578 1.391 . S
C1580 C1581 1.400 . S
C1581 C1575 1.491 . S
C1581 C1580 1.400 . S
C1581 C1582 1.398 . S
C1582 H1570 0.950 . S
C1582 C1581 1.398 . S
C1582 C1583 1.391 . S
C1583 H1571 0.950 . S
C1583 C1579 1.393 . S
C1583 C1582 1.391 . S
H1584 C1592 0.950 . S
H1585 C1597 0.950 . S
H1586 C1594 0.950 . S
H1587 C1596 0.950 . S
H1588 C1598 0.950 . S
H1589 C1600 0.950 . S
H1590 C1602 0.950 . S
H1591 C1603 0.950 . S
C1592 H1584 0.950 . S
C1592 C1593 1.386 . S
C1592 C1594 1.391 . S
C1593 C1592 1.386 . S
C1593 C1597 1.393 . S
C1594 H1586 0.950 . S
C1594 C1592 1.391 . S
C1594 C1595 1.400 . S
C1595 C1594 1.400 . S
C1595 C1596 1.398 . S
C1595 C1601 1.491 . S
C1596 H1587 0.950 . S
C1596 C1595 1.398 . S
C1596 C1597 1.391 . S
C1597 H1585 0.950 . S
C1597 C1593 1.393 . S
C1597 C1596 1.391 . S
C1598 H1588 0.950 . S
C1598 C1599 1.386 . S
C1598 C1600 1.391 . S
C1599 C1598 1.386 . S
C1599 C1603 1.393 . S
C1600 H1589 0.950 . S
C1600 C1598 1.391 . S
C1600 C1601 1.400 . S
C1601 C1595 1.491 . S
C1601 C1600 1.400 . S
C1601 C1602 1.398 . S
C1602 H1590 0.950 . S
C1602 C1601 1.398 . S
C1602 C1603 1.391 . S
C1603 H1591 0.950 . S
C1603 C1599 1.393 . S
C1603 C1602 1.391 . S
H1604 C1612 0.950 . S
H1605 C1617 0.950 . S
H1606 C1614 0.950 . S
H1607 C1616 0.950 . S
H1608 C1618 0.950 . S
H1609 C1620 0.950 . S
H1610 C1622 0.950 . S
H1611 C1623 0.950 . S
C1612 H1604 0.950 . S
C1612 C1613 1.386 . S
C1612 C1614 1.391 . S
C1613 C1612 1.386 . S
C1613 C1617 1.393 . S
C1614 H1606 0.950 . S
C1614 C1612 1.391 . S
C1614 C1615 1.400 . S
C1615 C1614 1.400 . S
C1615 C1616 1.398 . S
C1615 C1621 1.491 . S
C1616 H1607 0.950 . S
C1616 C1615 1.398 . S
C1616 C1617 1.391 . S
C1617 H1605 0.950 . S
C1617 C1613 1.393 . S
C1617 C1616 1.391 . S
C1618 H1608 0.950 . S
C1618 C1619 1.386 . S
C1618 C1620 1.391 . S
C1619 C1618 1.386 . S
C1619 C1623 1.393 . S
C1620 H1609 0.950 . S
C1620 C1618 1.391 . S
C1620 C1621 1.400 . S
C1621 C1615 1.491 . S
C1621 C1620 1.400 . S
C1621 C1622 1.398 . S
C1622 H1610 0.950 . S
C1622 C1621 1.398 . S
C1622 C1623 1.391 . S
C1623 H1611 0.950 . S
C1623 C1619 1.393 . S
C1623 C1622 1.391 . S
H1624 C1632 0.950 . S
H1625 C1637 0.950 . S
H1626 C1634 0.950 . S
H1627 C1636 0.950 . S
H1628 C1638 0.950 . S
H1629 C1640 0.950 . S
H1630 C1642 0.950 . S
H1631 C1643 0.950 . S
C1632 H1624 0.950 . S
C1632 C1633 1.386 . S
C1632 C1634 1.391 . S
C1633 C1632 1.386 . S
C1633 C1637 1.393 . S
C1634 H1626 0.950 . S
C1634 C1632 1.391 . S
C1634 C1635 1.400 . S
C1635 C1634 1.400 . S
C1635 C1636 1.398 . S
C1635 C1641 1.491 . S
C1636 H1627 0.950 . S
C1636 C1635 1.398 . S
C1636 C1637 1.391 . S
C1637 H1625 0.950 . S
C1637 C1633 1.393 . S
C1637 C1636 1.391 . S
C1638 H1628 0.950 . S
C1638 C1639 1.386 . S
C1638 C1640 1.391 . S
C1639 C1638 1.386 . S
C1639 C1643 1.393 . S
C1640 H1629 0.950 . S
C1640 C1638 1.391 . S
C1640 C1641 1.400 . S
C1641 C1635 1.491 . S
C1641 C1640 1.400 . S
C1641 C1642 1.398 . S
C1642 H1630 0.950 . S
C1642 C1641 1.398 . S
C1642 C1643 1.391 . S
C1643 H1631 0.950 . S
C1643 C1639 1.393 . S
C1643 C1642 1.391 . S
H1644 C1652 0.950 . S
H1645 C1657 0.950 . S
H1646 C1654 0.950 . S
H1647 C1656 0.950 . S
H1648 C1658 0.950 . S
H1649 C1660 0.950 . S
H1650 C1662 0.950 . S
H1651 C1663 0.950 . S
C1652 H1644 0.950 . S
C1652 C1653 1.386 . S
C1652 C1654 1.391 . S
C1653 C1652 1.386 . S
C1653 C1657 1.393 . S
C1654 H1646 0.950 . S
C1654 C1652 1.391 . S
C1654 C1655 1.400 . S
C1655 C1654 1.400 . S
C1655 C1656 1.398 . S
C1655 C1661 1.491 . S
C1656 H1647 0.950 . S
C1656 C1655 1.398 . S
C1656 C1657 1.391 . S
C1657 H1645 0.950 . S
C1657 C1653 1.393 . S
C1657 C1656 1.391 . S
C1658 H1648 0.950 . S
C1658 C1659 1.386 . S
C1658 C1660 1.391 . S
C1659 C1658 1.386 . S
C1659 C1663 1.393 . S
C1660 H1649 0.950 . S
C1660 C1658 1.391 . S
C1660 C1661 1.400 . S
C1661 C1655 1.491 . S
C1661 C1660 1.400 . S
C1661 C1662 1.398 . S
C1662 H1650 0.950 . S
C1662 C1661 1.398 . S
C1662 C1663 1.391 . S
C1663 H1651 0.950 . S
C1663 C1659 1.393 . S
C1663 C1662 1.391 . S
H1664 C1672 0.950 . S
H1665 C1677 0.950 . S
H1666 C1674 0.950 . S
H1667 C1676 0.950 . S
H1668 C1678 0.950 . S
H1669 C1680 0.950 . S
H1670 C1682 0.950 . S
H1671 C1683 0.950 . S
C1672 H1664 0.950 . S
C1672 C1673 1.386 . S
C1672 C1674 1.391 . S
C1673 C1672 1.386 . S
C1673 C1677 1.393 . S
C1674 H1666 0.950 . S
C1674 C1672 1.391 . S
C1674 C1675 1.400 . S
C1675 C1674 1.400 . S
C1675 C1676 1.398 . S
C1675 C1681 1.491 . S
C1676 H1667 0.950 . S
C1676 C1675 1.398 . S
C1676 C1677 1.391 . S
C1677 H1665 0.950 . S
C1677 C1673 1.393 . S
C1677 C1676 1.391 . S
C1678 H1668 0.950 . S
C1678 C1679 1.386 . S
C1678 C1680 1.391 . S
C1679 C1678 1.386 . S
C1679 C1683 1.393 . S
C1680 H1669 0.950 . S
C1680 C1678 1.391 . S
C1680 C1681 1.400 . S
C1681 C1675 1.491 . S
C1681 C1680 1.400 . S
C1681 C1682 1.398 . S
C1682 H1670 0.950 . S
C1682 C1681 1.398 . S
C1682 C1683 1.391 . S
C1683 H1671 0.950 . S
C1683 C1679 1.393 . S
C1683 C1682 1.391 . S
H1684 C1692 0.950 . S
H1685 C1697 0.950 . S
H1686 C1694 0.950 . S
H1687 C1696 0.950 . S
H1688 C1698 0.950 . S
H1689 C1700 0.950 . S
H1690 C1702 0.950 . S
H1691 C1703 0.950 . S
C1692 H1684 0.950 . S
C1692 C1693 1.386 . S
C1692 C1694 1.391 . S
C1693 C1692 1.386 . S
C1693 C1697 1.393 . S
C1694 H1686 0.950 . S
C1694 C1692 1.391 . S
C1694 C1695 1.400 . S
C1695 C1694 1.400 . S
C1695 C1696 1.398 . S
C1695 C1701 1.491 . S
C1696 H1687 0.950 . S
C1696 C1695 1.398 . S
C1696 C1697 1.391 . S
C1697 H1685 0.950 . S
C1697 C1693 1.393 . S
C1697 C1696 1.391 . S
C1698 H1688 0.950 . S
C1698 C1699 1.386 . S
C1698 C1700 1.391 . S
C1699 C1698 1.386 . S
C1699 C1703 1.393 . S
C1700 H1689 0.950 . S
C1700 C1698 1.391 . S
C1700 C1701 1.400 . S
C1701 C1695 1.491 . S
C1701 C1700 1.400 . S
C1701 C1702 1.398 . S
C1702 H1690 0.950 . S
C1702 C1701 1.398 . S
C1702 C1703 1.391 . S
C1703 H1691 0.950 . S
C1703 C1699 1.393 . S
C1703 C1702 1.391 . S
H1704 C1712 0.950 . S
H1705 C1717 0.950 . S
H1706 C1714 0.950 . S
H1707 C1716 0.950 . S
H1708 C1718 0.950 . S
H1709 C1720 0.950 . S
H1710 C1722 0.950 . S
H1711 C1723 0.950 . S
C1712 H1704 0.950 . S
C1712 C1713 1.386 . S
C1712 C1714 1.391 . S
C1713 C1712 1.386 . S
C1713 C1717 1.393 . S
C1714 H1706 0.950 . S
C1714 C1712 1.391 . S
C1714 C1715 1.400 . S
C1715 C1714 1.400 . S
C1715 C1716 1.398 . S
C1715 C1721 1.491 . S
C1716 H1707 0.950 . S
C1716 C1715 1.398 . S
C1716 C1717 1.391 . S
C1717 H1705 0.950 . S
C1717 C1713 1.393 . S
C1717 C1716 1.391 . S
C1718 H1708 0.950 . S
C1718 C1719 1.386 . S
C1718 C1720 1.391 . S
C1719 C1718 1.386 . S
C1719 C1723 1.393 . S
C1720 H1709 0.950 . S
C1720 C1718 1.391 . S
C1720 C1721 1.400 . S
C1721 C1715 1.491 . S
C1721 C1720 1.400 . S
C1721 C1722 1.398 . S
C1722 H1710 0.950 . S
C1722 C1721 1.398 . S
C1722 C1723 1.391 . S
C1723 H1711 0.950 . S
C1723 C1719 1.393 . S
C1723 C1722 1.391 . S
H1724 C1732 0.950 . S
H1725 C1737 0.950 . S
H1726 C1734 0.950 . S
H1727 C1736 0.950 . S
H1728 C1738 0.950 . S
H1729 C1740 0.950 . S
H1730 C1742 0.950 . S
H1731 C1743 0.950 . S
C1732 H1724 0.950 . S
C1732 C1733 1.386 . S
C1732 C1734 1.391 . S
C1733 C1732 1.386 . S
C1733 C1737 1.393 . S
C1734 H1726 0.950 . S
C1734 C1732 1.391 . S
C1734 C1735 1.400 . S
C1735 C1734 1.400 . S
C1735 C1736 1.398 . S
C1735 C1741 1.491 . S
C1736 H1727 0.950 . S
C1736 C1735 1.398 . S
C1736 C1737 1.391 . S
C1737 H1725 0.950 . S
C1737 C1733 1.393 . S
C1737 C1736 1.391 . S
C1738 H1728 0.950 . S
C1738 C1739 1.386 . S
C1738 C1740 1.391 . S
C1739 C1738 1.386 . S
C1739 C1743 1.393 . S
C1740 H1729 0.950 . S
C1740 C1738 1.391 . S
C1740 C1741 1.400 . S
C1741 C1735 1.491 . S
C1741 C1740 1.400 . S
C1741 C1742 1.398 . S
C1742 H1730 0.950 . S
C1742 C1741 1.398 . S
C1742 C1743 1.391 . S
C1743 H1731 0.950 . S
C1743 C1739 1.393 . S
C1743 C1742 1.391 . S
H1744 C1752 0.950 . S
H1745 C1757 0.950 . S
H1746 C1754 0.950 . S
H1747 C1756 0.950 . S
H1748 C1758 0.950 . S
H1749 C1760 0.950 . S
H1750 C1762 0.950 . S
H1751 C1763 0.950 . S
C1752 H1744 0.950 . S
C1752 C1753 1.386 . S
C1752 C1754 1.391 . S
C1753 C1752 1.386 . S
C1753 C1757 1.393 . S
C1754 H1746 0.950 . S
C1754 C1752 1.391 . S
C1754 C1755 1.400 . S
C1755 C1754 1.400 . S
C1755 C1756 1.398 . S
C1755 C1761 1.491 . S
C1756 H1747 0.950 . S
C1756 C1755 1.398 . S
C1756 C1757 1.391 . S
C1757 H1745 0.950 . S
C1757 C1753 1.393 . S
C1757 C1756 1.391 . S
C1758 H1748 0.950 . S
C1758 C1759 1.386 . S
C1758 C1760 1.391 . S
C1759 C1758 1.386 . S
C1759 C1763 1.393 . S
C1760 H1749 0.950 . S
C1760 C1758 1.391 . S
C1760 C1761 1.400 . S
C1761 C1755 1.491 . S
C1761 C1760 1.400 . S
C1761 C1762 1.398 . S
C1762 H1750 0.950 . S
C1762 C1761 1.398 . S
C1762 C1763 1.391 . S
C1763 H1751 0.950 . S
C1763 C1759 1.393 . S
C1763 C1762 1.391 . S
H1764 C1772 0.950 . S
H1765 C1777 0.950 . S
H1766 C1774 0.950 . S
H1767 C1776 0.950 . S
H1768 C1778 0.950 . S
H1769 C1780 0.950 . S
H1770 C1782 0.950 . S
H1771 C1783 0.950 . S
C1772 H1764 0.950 . S
C1772 C1773 1.386 . S
C1772 C1774 1.391 . S
C1773 C1772 1.386 . S
C1773 C1777 1.393 . S
C1774 H1766 0.950 . S
C1774 C1772 1.391 . S
C1774 C1775 1.400 . S
C1775 C1774 1.400 . S
C1775 C1776 1.398 . S
C1775 C1781 1.491 . S
C1776 H1767 0.950 . S
C1776 C1775 1.398 . S
C1776 C1777 1.391 . S
C1777 H1765 0.950 . S
C1777 C1773 1.393 . S
C1777 C1776 1.391 . S
C1778 H1768 0.950 . S
C1778 C1779 1.386 . S
C1778 C1780 1.391 . S
C1779 C1778 1.386 . S
C1779 C1783 1.393 . S
C1780 H1769 0.950 . S
C1780 C1778 1.391 . S
C1780 C1781 1.400 . S
C1781 C1775 1.491 . S
C1781 C1780 1.400 . S
C1781 C1782 1.398 . S
C1782 H1770 0.950 . S
C1782 C1781 1.398 . S
C1782 C1783 1.391 . S
C1783 H1771 0.950 . S
C1783 C1779 1.393 . S
C1783 C1782 1.391 . S
H1784 C1792 0.950 . S
H1785 C1797 0.950 . S
H1786 C1794 0.950 . S
H1787 C1796 0.950 . S
H1788 C1798 0.950 . S
H1789 C1800 0.950 . S
H1790 C1802 0.950 . S
H1791 C1803 0.950 . S
C1792 H1784 0.950 . S
C1792 C1793 1.386 . S
C1792 C1794 1.391 . S
C1793 C1792 1.386 . S
C1793 C1797 1.393 . S
C1794 H1786 0.950 . S
C1794 C1792 1.391 . S
C1794 C1795 1.400 . S
C1795 C1794 1.400 . S
C1795 C1796 1.398 . S
C1795 C1801 1.491 . S
C1796 H1787 0.950 . S
C1796 C1795 1.398 . S
C1796 C1797 1.391 . S
C1797 H1785 0.950 . S
C1797 C1793 1.393 . S
C1797 C1796 1.391 . S
C1798 H1788 0.950 . S
C1798 C1799 1.386 . S
C1798 C1800 1.391 . S
C1799 C1798 1.386 . S
C1799 C1803 1.393 . S
C1800 H1789 0.950 . S
C1800 C1798 1.391 . S
C1800 C1801 1.400 . S
C1801 C1795 1.491 . S
C1801 C1800 1.400 . S
C1801 C1802 1.398 . S
C1802 H1790 0.950 . S
C1802 C1801 1.398 . S
C1802 C1803 1.391 . S
C1803 H1791 0.950 . S
C1803 C1799 1.393 . S
C1803 C1802 1.391 . S
H1804 C1812 0.950 . S
H1805 C1817 0.950 . S
H1806 C1814 0.950 . S
H1807 C1816 0.950 . S
H1808 C1818 0.950 . S
H1809 C1820 0.950 . S
H1810 C1822 0.950 . S
H1811 C1823 0.950 . S
C1812 H1804 0.950 . S
C1812 C1813 1.386 . S
C1812 C1814 1.391 . S
C1813 C1812 1.386 . S
C1813 C1817 1.393 . S
C1814 H1806 0.950 . S
C1814 C1812 1.391 . S
C1814 C1815 1.400 . S
C1815 C1814 1.400 . S
C1815 C1816 1.398 . S
C1815 C1821 1.491 . S
C1816 H1807 0.950 . S
C1816 C1815 1.398 . S
C1816 C1817 1.391 . S
C1817 H1805 0.950 . S
C1817 C1813 1.393 . S
C1817 C1816 1.391 . S
C1818 H1808 0.950 . S
C1818 C1819 1.386 . S
C1818 C1820 1.391 . S
C1819 C1818 1.386 . S
C1819 C1823 1.393 . S
C1820 H1809 0.950 . S
C1820 C1818 1.391 . S
C1820 C1821 1.400 . S
C1821 C1815 1.491 . S
C1821 C1820 1.400 . S
C1821 C1822 1.398 . S
C1822 H1810 0.950 . S
C1822 C1821 1.398 . S
C1822 C1823 1.391 . S
C1823 H1811 0.950 . S
C1823 C1819 1.393 . S
C1823 C1822 1.391 . S
H1824 C1832 0.950 . S
H1825 C1837 0.950 . S
H1826 C1834 0.950 . S
H1827 C1836 0.950 . S
H1828 C1838 0.950 . S
H1829 C1840 0.950 . S
H1830 C1842 0.950 . S
H1831 C1843 0.950 . S
C1832 H1824 0.950 . S
C1832 C1833 1.386 . S
C1832 C1834 1.391 . S
C1833 C1832 1.386 . S
C1833 C1837 1.393 . S
C1834 H1826 0.950 . S
C1834 C1832 1.391 . S
C1834 C1835 1.400 . S
C1835 C1834 1.400 . S
C1835 C1836 1.398 . S
C1835 C1841 1.491 1_455 S
C1836 H1827 0.950 . S
C1836 C1835 1.398 . S
C1836 C1837 1.391 . S
C1837 H1825 0.950 . S
C1837 C1833 1.393 . S
C1837 C1836 1.391 . S
C1838 H1828 0.950 . S
C1838 C1839 1.386 . S
C1838 C1840 1.391 . S
C1839 C1838 1.386 . S
C1839 C1843 1.393 . S
C1840 H1829 0.950 . S
C1840 C1838 1.391 . S
C1840 C1841 1.400 . S
C1841 C1835 1.491 1_655 S
C1841 C1840 1.400 . S
C1841 C1842 1.398 . S
C1842 H1830 0.950 . S
C1842 C1841 1.398 . S
C1842 C1843 1.391 . S
C1843 H1831 0.950 . S
C1843 C1839 1.393 . S
C1843 C1842 1.391 . S
H1844 C1852 0.950 . S
H1845 C1857 0.950 . S
H1846 C1854 0.950 . S
H1847 C1856 0.950 . S
H1848 C1858 0.950 . S
H1849 C1860 0.950 . S
H1850 C1862 0.950 . S
H1851 C1863 0.950 . S
C1852 H1844 0.950 . S
C1852 C1853 1.386 . S
C1852 C1854 1.391 . S
C1853 C1852 1.386 . S
C1853 C1857 1.393 . S
C1854 H1846 0.950 . S
C1854 C1852 1.391 . S
C1854 C1855 1.400 . S
C1855 C1854 1.400 . S
C1855 C1856 1.398 . S
C1855 C1861 1.491 . S
C1856 H1847 0.950 . S
C1856 C1855 1.398 . S
C1856 C1857 1.391 . S
C1857 H1845 0.950 . S
C1857 C1853 1.393 . S
C1857 C1856 1.391 . S
C1858 H1848 0.950 . S
C1858 C1859 1.386 . S
C1858 C1860 1.391 . S
C1859 C1858 1.386 . S
C1859 C1863 1.393 . S
C1860 H1849 0.950 . S
C1860 C1858 1.391 . S
C1860 C1861 1.400 . S
C1861 C1855 1.491 . S
C1861 C1860 1.400 . S
C1861 C1862 1.398 . S
C1862 H1850 0.950 . S
C1862 C1861 1.398 . S
C1862 C1863 1.391 . S
C1863 H1851 0.950 . S
C1863 C1859 1.393 . S
C1863 C1862 1.391 . S
H1864 C1872 0.950 . S
H1865 C1877 0.950 . S
H1866 C1874 0.950 . S
H1867 C1876 0.950 . S
H1868 C1878 0.950 . S
H1869 C1880 0.950 . S
H1870 C1882 0.950 . S
H1871 C1883 0.950 . S
C1872 H1864 0.950 . S
C1872 C1873 1.386 . S
C1872 C1874 1.391 . S
C1873 C1872 1.386 . S
C1873 C1877 1.393 . S
C1874 H1866 0.950 . S
C1874 C1872 1.391 . S
C1874 C1875 1.400 . S
C1875 C1874 1.400 . S
C1875 C1876 1.398 . S
C1875 C1881 1.491 1_545 S
C1876 H1867 0.950 . S
C1876 C1875 1.398 . S
C1876 C1877 1.391 . S
C1877 H1865 0.950 . S
C1877 C1873 1.393 . S
C1877 C1876 1.391 . S
C1878 H1868 0.950 . S
C1878 C1879 1.386 . S
C1878 C1880 1.391 . S
C1879 C1878 1.386 . S
C1879 C1883 1.393 . S
C1880 H1869 0.950 . S
C1880 C1878 1.391 . S
C1880 C1881 1.400 . S
C1881 C1875 1.491 1_565 S
C1881 C1880 1.400 . S
C1881 C1882 1.398 . S
C1882 H1870 0.950 . S
C1882 C1881 1.398 . S
C1882 C1883 1.391 . S
C1883 H1871 0.950 . S
C1883 C1879 1.393 . S
C1883 C1882 1.391 . S
H1884 C1892 0.950 . S
H1885 C1897 0.951 1_554 S
H1886 C1894 0.950 1_565 S
H1887 C1896 0.950 . S
H1888 C1898 0.950 . S
H1889 C1900 0.950 1_545 S
H1890 C1902 0.950 . S
H1891 C1903 0.951 1_556 S
C1892 H1884 0.950 . S
C1892 C1893 1.386 . S
C1892 C1894 1.391 . S
C1893 C1892 1.386 . S
C1893 C1897 1.393 . S
C1894 H1886 0.950 1_545 S
C1894 C1892 1.391 . S
C1894 C1895 1.400 . S
C1895 C1894 1.400 . S
C1895 C1896 1.398 1_556 S
C1895 C1901 1.491 1_546 S
C1896 H1887 0.950 . S
C1896 C1895 1.398 1_554 S
C1896 C1897 1.391 1_554 S
C1897 H1885 0.951 1_556 S
C1897 C1893 1.393 . S
C1897 C1896 1.391 1_556 S
C1898 H1888 0.950 . S
C1898 C1899 1.386 . S
C1898 C1900 1.391 . S
C1899 C1898 1.386 . S
C1899 C1903 1.393 . S
C1900 H1889 0.950 1_565 S
C1900 C1898 1.391 . S
C1900 C1901 1.400 . S
C1901 C1895 1.491 1_564 S
C1901 C1900 1.400 . S
C1901 C1902 1.398 1_554 S
C1902 H1890 0.950 . S
C1902 C1901 1.398 1_556 S
C1902 C1903 1.391 1_556 S
C1903 H1891 0.951 1_554 S
C1903 C1899 1.393 . S
C1903 C1902 1.391 1_554 S
H1904 C1912 0.950 . S
H1905 C1917 0.950 . S
H1906 C1914 0.950 1_554 S
H1907 C1916 0.950 . S
H1908 C1918 0.950 . S
H1909 C1920 0.950 1_556 S
H1910 C1922 0.950 . S
H1911 C1923 0.950 . S
C1912 H1904 0.950 . S
C1912 C1913 1.386 . S
C1912 C1914 1.391 . S
C1913 C1912 1.386 . S
C1913 C1917 1.393 . S
C1914 H1906 0.950 1_556 S
C1914 C1912 1.391 . S
C1914 C1915 1.400 . S
C1915 C1914 1.400 . S
C1915 C1916 1.398 . S
C1915 C1921 1.491 1_656 S
C1916 H1907 0.950 . S
C1916 C1915 1.398 . S
C1916 C1917 1.391 . S
C1917 H1905 0.950 . S
C1917 C1913 1.393 . S
C1917 C1916 1.391 . S
C1918 H1908 0.950 . S
C1918 C1919 1.386 . S
C1918 C1920 1.391 . S
C1919 C1918 1.386 . S
C1919 C1923 1.393 . S
C1920 H1909 0.950 1_554 S
C1920 C1918 1.391 . S
C1920 C1921 1.400 . S
C1921 C1915 1.491 1_454 S
C1921 C1920 1.400 . S
C1921 C1922 1.398 . S
C1922 H1910 0.950 . S
C1922 C1921 1.398 . S
C1922 C1923 1.391 . S
C1923 H1911 0.950 . S
C1923 C1919 1.393 . S
C1923 C1922 1.391 . S
H1924 C1932 0.950 . S
H1925 C1937 0.950 . S
H1926 C1934 0.950 1_554 S
H1927 C1936 0.950 . S
H1928 C1938 0.950 . S
H1929 C1940 0.950 1_556 S
H1930 C1942 0.950 . S
H1931 C1943 0.950 . S
C1932 H1924 0.950 . S
C1932 C1933 1.386 . S
C1932 C1934 1.391 . S
C1933 C1932 1.386 . S
C1933 C1937 1.393 . S
C1934 H1926 0.950 1_556 S
C1934 C1932 1.391 . S
C1934 C1935 1.400 . S
C1935 C1934 1.400 . S
C1935 C1936 1.398 . S
C1935 C1941 1.491 1_556 S
C1936 H1927 0.950 . S
C1936 C1935 1.398 . S
C1936 C1937 1.391 . S
C1937 H1925 0.950 . S
C1937 C1933 1.393 . S
C1937 C1936 1.391 . S
C1938 H1928 0.950 . S
C1938 C1939 1.386 . S
C1938 C1940 1.391 . S
C1939 C1938 1.386 . S
C1939 C1943 1.393 . S
C1940 H1929 0.950 1_554 S
C1940 C1938 1.391 . S
C1940 C1941 1.400 . S
C1941 C1935 1.491 1_554 S
C1941 C1940 1.400 . S
C1941 C1942 1.398 . S
C1942 H1930 0.950 . S
C1942 C1941 1.398 . S
C1942 C1943 1.391 . S
C1943 H1931 0.950 . S
C1943 C1939 1.393 . S
C1943 C1942 1.391 . S
C513 C0 1.304 . S
C519 C103 1.314 . S
C533 C14 1.309 . S
C539 C117 1.305 . S
C553 C89 1.311 . S
C559 C28 1.305 . S
C573 C159 1.302 . S
C579 C42 1.315 . S
C593 C56 1.304 . S
C599 C131 1.313 . S
C613 C70 1.310 . S
C619 C145 1.310 . S
C633 C19 1.304 . S
C639 C84 1.310 . S
C653 C33 1.311 . S
C659 C98 1.305 . S
C673 C112 1.315 . S
C679 C5 1.302 . S
C693 C126 1.315 . S
C699 C75 1.302 . S
C713 C47 1.312 . S
C719 C140 1.304 . S
C733 C154 1.312 . S
C739 C61 1.308 . S
C753 C271 1.307 . S
C759 C168 1.312 . S
C773 C182 1.315 . S
C779 C285 1.304 . S
C793 C196 1.314 . S
C799 C257 1.301 . S
C813 C327 1.313 . S
C819 C210 1.304 . S
C833 C224 1.310 . S
C839 C299 1.304 . S
C853 C313 1.305 . S
C859 C238 1.314 . S
C873 C187 1.313 . S
C879 C252 1.304 . S
C893 C266 1.308 . S
C899 C201 1.313 . S
C913 C173 1.314 . S
C919 C280 1.304 . S
C933 C294 1.308 . S
C939 C243 1.306 . S
C953 C308 1.310 . S
C959 C215 1.309 . S
C973 C322 1.304 . S
C979 C229 1.314 . S
C993 C439 1.311 . S
C999 C336 1.308 . S
C1013 C453 1.310 . S
C1019 C350 1.305 . S
C1033 C425 1.302 . S
C1039 C364 1.315 . S
C1053 C378 1.306 . S
C1059 C495 1.313 . S
C1073 C392 1.315 . S
C1079 C467 1.301 . S
C1093 C481 1.303 . S
C1099 C406 1.315 . S
C1113 C420 1.313 . S
C1119 C355 1.306 . S
C1133 C369 1.307 . S
C1139 C434 1.308 . S
C1153 C341 1.313 . S
C1159 C448 1.304 . S
C1173 C462 1.313 . S
C1179 C411 1.302 . S
C1193 C476 1.313 . S
C1199 C383 1.306 . S
C1213 C490 1.305 . S
C1219 C397 1.314 . S
C1233 C51 1.338 . S
C1239 C9 1.351 . S
C1253 C65 1.351 . S
C1259 C23 1.338 . S
C1273 C37 1.351 . S
C1279 C79 1.338 . S
C1293 C135 1.337 . S
C1299 C93 1.351 . S
C1313 C149 1.343 . S
C1319 C107 1.339 . S
C1333 C163 1.346 . S
C1339 C121 1.349 . S
C1353 C219 1.350 . S
C1359 C177 1.336 . S
C1373 C233 1.338 . S
C1379 C191 1.351 . S
C1393 C205 1.348 . S
C1399 C247 1.348 . S
C1413 C303 1.351 1_554 S
C1419 C261 1.342 . S
C1433 C317 1.343 1_554 S
C1439 C275 1.351 . S
C1453 C331 1.337 1_554 S
C1459 C289 1.346 . S
C1473 C387 1.338 1_556 S
C1479 C345 1.351 . S
C1493 C359 1.343 . S
C1499 C401 1.351 1_556 S
C1513 C415 1.337 1_556 S
C1519 C373 1.350 . S
C1533 C429 1.349 . S
C1539 C471 1.336 . S
C1553 C443 1.349 . S
C1559 C485 1.337 . S
C1573 C457 1.348 . S
C1579 C499 1.347 . S
C1593 C11 1.432 . S
C1599 C263 1.432 . S
C1613 C277 1.434 . S
C1619 C25 1.434 . S
C1633 C291 1.434 . S
C1639 C39 1.434 . S
C1653 C473 1.437 . S
C1659 C53 1.437 . S
C1673 C487 1.429 . S
C1679 C67 1.429 . S
C1693 C501 1.434 . S
C1699 C81 1.434 . S
C1713 C95 1.430 . S
C1719 C347 1.430 . S
C1733 C361 1.435 . S
C1739 C109 1.435 . S
C1753 C375 1.430 . S
C1759 C123 1.430 . S
C1773 C137 1.437 . S
C1779 C221 1.437 . S
C1793 C151 1.430 . S
C1799 C235 1.430 . S
C1813 C165 1.430 . S
C1819 C249 1.430 . S
C1833 C431 1.430 . S
C1839 C179 1.430 . S
C1853 C445 1.436 . S
C1859 C193 1.436 . S
C1873 C207 1.437 . S
C1879 C459 1.437 . S
C1893 C305 1.435 . S
C1899 C389 1.435 . S
C1913 C319 1.437 . S
C1919 C403 1.437 . S
C1933 C333 1.429 . S
C1939 C417 1.429 . S
