# Generated by pormake.
# Topology ukf, (4)-cn, num edge types: 1
# Building blocks:
#     Node 0, Type 0, BuildingBlock: UXUYUI_clean_sbu_0, # of connection points: 4
#     Node 1, Type 0, BuildingBlock: UXUYUI_clean_sbu_0, # of connection points: 4
#     Node 2, Type 0, BuildingBlock: UXUYUI_clean_sbu_0, # of connection points: 4
#     Node 3, Type 0, BuildingBlock: UXUYUI_clean_sbu_0, # of connection points: 4
#     Node 4, Type 0, BuildingBlock: UXUYUI_clean_sbu_0, # of connection points: 4
#     Node 5, Type 0, BuildingBlock: UXUYUI_clean_sbu_0, # of connection points: 4
#     Node 6, Type 0, BuildingBlock: UXUYUI_clean_sbu_0, # of connection points: 4
#     Node 7, Type 0, BuildingBlock: UXUYUI_clean_sbu_0, # of connection points: 4
#     Node 8, Type 0, BuildingBlock: UXUYUI_clean_sbu_0, # of connection points: 4
#     Node 9, Type 0, BuildingBlock: UXUYUI_clean_sbu_0, # of connection points: 4
#     Node 10, Type 0, BuildingBlock: UXUYUI_clean_sbu_0, # of connection points: 4
#     Node 11, Type 0, BuildingBlock: UXUYUI_clean_sbu_0, # of connection points: 4
#     Edge 12, Type (0, 0), BuildingBlock: XUDNAN_clean_linker_2, # of connection points: 2
#     Edge 13, Type (0, 0), BuildingBlock: XUDNAN_clean_linker_2, # of connection points: 2
#     Edge 14, Type (0, 0), BuildingBlock: XUDNAN_clean_linker_2, # of connection points: 2
#     Edge 15, Type (0, 0), BuildingBlock: XUDNAN_clean_linker_2, # of connection points: 2
#     Edge 16, Type (0, 0), BuildingBlock: XUDNAN_clean_linker_2, # of connection points: 2
#     Edge 17, Type (0, 0), BuildingBlock: XUDNAN_clean_linker_2, # of connection points: 2
#     Edge 18, Type (0, 0), BuildingBlock: XUDNAN_clean_linker_2, # of connection points: 2
#     Edge 19, Type (0, 0), BuildingBlock: XUDNAN_clean_linker_2, # of connection points: 2
#     Edge 20, Type (0, 0), BuildingBlock: XUDNAN_clean_linker_2, # of connection points: 2
#     Edge 21, Type (0, 0), BuildingBlock: XUDNAN_clean_linker_2, # of connection points: 2
#     Edge 22, Type (0, 0), BuildingBlock: XUDNAN_clean_linker_2, # of connection points: 2
#     Edge 23, Type (0, 0), BuildingBlock: XUDNAN_clean_linker_2, # of connection points: 2
#     Edge 24, Type (0, 0), BuildingBlock: XUDNAN_clean_linker_2, # of connection points: 2
#     Edge 25, Type (0, 0), BuildingBlock: XUDNAN_clean_linker_2, # of connection points: 2
#     Edge 26, Type (0, 0), BuildingBlock: XUDNAN_clean_linker_2, # of connection points: 2
#     Edge 27, Type (0, 0), BuildingBlock: XUDNAN_clean_linker_2, # of connection points: 2
#     Edge 28, Type (0, 0), BuildingBlock: XUDNAN_clean_linker_2, # of connection points: 2
#     Edge 29, Type (0, 0), BuildingBlock: XUDNAN_clean_linker_2, # of connection points: 2
#     Edge 30, Type (0, 0), BuildingBlock: XUDNAN_clean_linker_2, # of connection points: 2
#     Edge 31, Type (0, 0), BuildingBlock: XUDNAN_clean_linker_2, # of connection points: 2
#     Edge 32, Type (0, 0), BuildingBlock: XUDNAN_clean_linker_2, # of connection points: 2
#     Edge 33, Type (0, 0), BuildingBlock: XUDNAN_clean_linker_2, # of connection points: 2
#     Edge 34, Type (0, 0), BuildingBlock: XUDNAN_clean_linker_2, # of connection points: 2
#     Edge 35, Type (0, 0), BuildingBlock: XUDNAN_clean_linker_2, # of connection points: 2
# Relax obj value: 0.271
# Max RMSD: 0.213
# Mean RMSD: 0.213
data_MOF--net-ukf--node1-UXUYUI_clean_sbu_0--edge1-XUDNAN_clean_linker_2
_symmetry_space_group_name_H-M    P1
_symmetry_Int_Tables_number       1
_symmetry_cell_setting            triclinic
loop_
_symmetry_equiv_pos_as_xyz
'x, y, z'
_cell_length_a     46.401149
_cell_length_b     46.406494
_cell_length_c     92.544542
_cell_angle_alpha  89.993107
_cell_angle_beta   90.003798
_cell_angle_gamma 120.01337
loop_
_atom_site_label
_atom_site_type_symbol
_atom_site_fract_x
_atom_site_fract_y
_atom_site_fract_z
_atom_type_partial_charge
Li0 Li 0.39603 0.23202 0.06074 0.0
Li1 Li 0.36711 0.20798 0.03802 0.0
Li2 Li 0.42677 0.23239 0.04026 0.0
Li3 Li 0.40492 0.26926 0.04115 0.0
C4 C 0.40716 0.17581 0.05379 0.0
N5 N 0.441 0.1423 0.05978 0.0
C6 C 0.39889 0.14625 0.04655 0.0
C7 C 0.43255 0.18828 0.06412 0.0
C8 C 0.41633 0.12969 0.04972 0.0
C9 C 0.44938 0.17098 0.06699 0.0
C10 C 0.34098 0.23409 0.06231 0.0
C11 C 0.32189 0.25457 0.08189 0.0
N12 N 0.30121 0.22275 0.08629 0.0
C13 C 0.31941 0.20157 0.06697 0.0
C14 C 0.34216 0.26082 0.06978 0.0
C15 C 0.29955 0.19636 0.07914 0.0
C16 C 0.40205 0.25163 0.09039 0.0
N17 N 0.39082 0.22556 0.08107 0.0
C18 C 0.36855 0.18671 0.10052 0.0
C19 C 0.37448 0.19358 0.08583 0.0
C20 C 0.37942 0.213 0.11045 0.0
C21 C 0.39661 0.24587 0.10524 0.0
H22 H 0.4148 0.27681 0.08625 0.0
H23 H 0.36562 0.17333 0.07817 0.0
C24 C 0.33788 0.15328 0.02043 0.0
N25 N 0.32986 0.17216 0.02886 0.0
C26 C 0.31303 0.12339 0.01466 0.0
C27 C 0.27182 0.13381 0.02562 0.0
C28 C 0.29763 0.16362 0.03124 0.0
C29 C 0.27942 0.11284 0.01747 0.0
H30 H 0.36376 0.1609 0.01868 0.0
H31 H 0.29194 0.17936 0.03783 0.0
C32 C 0.46928 0.29584 0.05077 0.0
N33 N 0.53016 0.35037 0.0439 0.0
C34 C 0.47921 0.30311 0.03633 0.0
C35 C 0.49031 0.31634 0.0617 0.0
C36 C 0.51008 0.33078 0.03309 0.0
C37 C 0.521 0.34378 0.05802 0.0
C38 C 0.38768 0.24349 0.0126 0.0
C39 C 0.39988 0.24243 0.99893 0.0
C40 C 0.36018 0.24805 0.01383 0.0
C41 C 0.38449 0.2462 0.98667 0.0
C42 C 0.34549 0.25171 0.00131 0.0
N43 N 0.35785 0.25073 0.98811 0.0
C44 C 0.45313 0.20559 0.02134 0.0
C45 C 0.49146 0.23824 0.03964 0.0
C46 C 0.47606 0.19785 0.01546 0.0
N47 N 0.46117 0.22544 0.03318 0.0
C48 C 0.5154 0.23158 0.03396 0.0
C49 C 0.50767 0.21105 0.02175 0.0
H50 H 0.42871 0.19557 0.01655 0.0
H51 H 0.49694 0.25337 0.04924 0.0
C52 C 0.41918 0.33436 0.0475 0.0
N53 N 0.41602 0.31387 0.03637 0.0
C54 C 0.4318 0.36834 0.04511 0.0
C55 C 0.43789 0.35962 0.01983 0.0
C56 C 0.42524 0.32589 0.02271 0.0
C57 C 0.4416 0.38143 0.03112 0.0
H58 H 0.4131 0.32452 0.05836 0.0
H59 H 0.42431 0.30975 0.01412 0.0
O60 O 0.39116 0.19301 0.05052 0.0
O61 O 0.36131 0.23968 0.05067 0.0
O62 O 0.43893 0.26927 0.0543 0.0
O63 O 0.40239 0.23947 0.02465 0.0
H64 H 0.37932 0.13622 0.03853 0.0
H65 H 0.43956 0.21136 0.0697 0.0
H66 H 0.41027 0.10684 0.04416 0.0
H67 H 0.46921 0.18044 0.07489 0.0
H68 H 0.32263 0.27504 0.08781 0.0
H69 H 0.31859 0.18061 0.06147 0.0
H70 H 0.35856 0.28611 0.06629 0.0
H71 H 0.28299 0.17134 0.08295 0.0
H72 H 0.35571 0.16102 0.10405 0.0
H73 H 0.40519 0.26684 0.11253 0.0
H74 H 0.32026 0.10801 0.00864 0.0
H75 H 0.24627 0.12695 0.02787 0.0
H76 H 0.46332 0.28765 0.0277 0.0
H77 H 0.4829 0.31112 0.07293 0.0
H78 H 0.51805 0.33669 0.02196 0.0
H79 H 0.53751 0.35986 0.06637 0.0
H80 H 0.42106 0.23876 0.99781 0.0
H81 H 0.35028 0.24883 0.0243 0.0
H82 H 0.39371 0.24549 0.97602 0.0
H83 H 0.32425 0.25532 0.0021 0.0
H84 H 0.46934 0.1821 0.00598 0.0
H85 H 0.53946 0.2419 0.03916 0.0
H86 H 0.43419 0.38421 0.05415 0.0
H87 H 0.44591 0.36871 0.00895 0.0
Li88 Li 0.141 0.40748 0.37961 0.0
Li89 Li 0.20179 0.43334 0.37741 0.0
Li90 Li 0.16537 0.37241 0.37275 0.0
Li91 Li 0.1748 0.3945 0.39739 0.0
C92 C 0.15131 0.40708 0.34932 0.0
N93 N 0.1183 0.39892 0.32348 0.0
C94 C 0.16334 0.43306 0.33929 0.0
C95 C 0.1227 0.37688 0.34616 0.0
C96 C 0.14623 0.42848 0.3263 0.0
C97 C 0.10632 0.37325 0.33305 0.0
C98 C 0.19111 0.46957 0.39772 0.0
C99 C 0.23344 0.51587 0.41124 0.0
N100 N 0.22232 0.53577 0.40577 0.0
C101 C 0.17987 0.4904 0.39236 0.0
C102 C 0.21789 0.48232 0.40734 0.0
C103 C 0.19607 0.52381 0.39651 0.0
C104 C 0.09133 0.41626 0.3916 0.0
N105 N 0.1065 0.41839 0.37877 0.0
C106 C 0.08291 0.44921 0.36843 0.0
C107 C 0.10204 0.43374 0.36716 0.0
C108 C 0.06877 0.4493 0.38184 0.0
C109 C 0.07222 0.43158 0.39338 0.0
H110 H 0.09591 0.40453 0.40073 0.0
H111 H 0.11509 0.43611 0.3572 0.0
C112 C 0.27078 0.47744 0.37177 0.0
N113 N 0.23967 0.47336 0.37132 0.0
C114 C 0.29822 0.50768 0.36759 0.0
C115 C 0.26091 0.52859 0.36239 0.0
C116 C 0.23424 0.49785 0.36644 0.0
C117 C 0.29338 0.53381 0.36303 0.0
H118 H 0.27434 0.4573 0.37538 0.0
H119 H 0.20912 0.4935 0.36575 0.0
C120 C 0.10419 0.33288 0.38795 0.0
N121 N 0.04857 0.27007 0.38825 0.0
C122 C 0.10341 0.30798 0.39672 0.0
C123 C 0.07638 0.32609 0.37961 0.0
C124 C 0.07516 0.2763 0.39664 0.0
C125 C 0.04858 0.29411 0.37983 0.0
C126 C 0.23114 0.39188 0.39097 0.0
C127 C 0.23288 0.36286 0.38928 0.0
C128 C 0.25292 0.41658 0.40048 0.0
C129 C 0.2561 0.35883 0.39732 0.0
C130 C 0.27578 0.41161 0.40834 0.0
N131 N 0.27686 0.38306 0.40662 0.0
C132 C 0.17308 0.34305 0.34749 0.0
C133 C 0.15455 0.30707 0.36777 0.0
C134 C 0.17647 0.31952 0.3394 0.0
N135 N 0.16242 0.33655 0.36142 0.0
C136 C 0.15781 0.2829 0.3601 0.0
C137 C 0.16941 0.2892 0.34578 0.0
H138 H 0.18047 0.36712 0.34284 0.0
H139 H 0.14752 0.30298 0.37901 0.0
C140 C 0.17314 0.40329 0.42741 0.0
N141 N 0.17821 0.3853 0.41717 0.0
C142 C 0.17569 0.39766 0.44206 0.0
C143 C 0.18852 0.355 0.43536 0.0
C144 C 0.18518 0.3611 0.42086 0.0
C145 C 0.18375 0.37339 0.44624 0.0
H146 H 0.16692 0.42191 0.42419 0.0
H147 H 0.18825 0.34653 0.41254 0.0
O148 O 0.16775 0.41127 0.3621 0.0
O149 O 0.17571 0.43682 0.39369 0.0
O150 O 0.13144 0.36414 0.38806 0.0
O151 O 0.20827 0.39607 0.38331 0.0
H152 H 0.18556 0.45656 0.34156 0.0
H153 H 0.1135 0.35634 0.35367 0.0
H154 H 0.15515 0.44841 0.31846 0.0
H155 H 0.08415 0.34999 0.33046 0.0
H156 H 0.25428 0.52608 0.41863 0.0
H157 H 0.15915 0.48102 0.38493 0.0
H158 H 0.22649 0.46646 0.41183 0.0
H159 H 0.18779 0.54025 0.39236 0.0
H160 H 0.08118 0.46292 0.35932 0.0
H161 H 0.06148 0.43081 0.40386 0.0
H162 H 0.32295 0.51083 0.36816 0.0
H163 H 0.25619 0.54798 0.35866 0.0
H164 H 0.12452 0.31302 0.40343 0.0
H165 H 0.07613 0.34538 0.37314 0.0
H166 H 0.07434 0.2567 0.40326 0.0
H167 H 0.02695 0.28845 0.37337 0.0
H168 H 0.21643 0.3436 0.38188 0.0
H169 H 0.25218 0.43932 0.40178 0.0
H170 H 0.25761 0.33642 0.39617 0.0
H171 H 0.29268 0.43047 0.4158 0.0
H172 H 0.1862 0.32577 0.32851 0.0
H173 H 0.15217 0.2599 0.36545 0.0
H174 H 0.17094 0.41193 0.44999 0.0
H175 H 0.19512 0.33629 0.43795 0.0
Li176 Li 0.77146 0.19864 0.70819 0.0
Li177 Li 0.73818 0.14147 0.7153 0.0
Li178 Li 0.78111 0.18297 0.73206 0.0
Li179 Li 0.79741 0.16489 0.70943 0.0
C180 C 0.7213 0.19345 0.72912 0.0
N181 N 0.68207 0.21906 0.73847 0.0
C182 C 0.68894 0.18057 0.7238 0.0
C183 C 0.73346 0.21896 0.73939 0.0
C184 C 0.66957 0.19397 0.72861 0.0
C185 C 0.71331 0.23169 0.74392 0.0
C186 C 0.73913 0.15192 0.68535 0.0
C187 C 0.71813 0.12868 0.66179 0.0
N188 N 0.69436 0.1375 0.66305 0.0
C189 C 0.71459 0.16086 0.68639 0.0
C190 C 0.74104 0.1358 0.67294 0.0
C191 C 0.69216 0.15333 0.67501 0.0
C192 C 0.7873 0.23855 0.68381 0.0
N193 N 0.7723 0.23357 0.6969 0.0
C194 C 0.76052 0.27735 0.69243 0.0
C195 C 0.75917 0.25248 0.70138 0.0
C196 C 0.77572 0.28294 0.67878 0.0
C197 C 0.78942 0.26325 0.67456 0.0
H198 H 0.79779 0.22331 0.68058 0.0
H199 H 0.74763 0.24838 0.71185 0.0
C200 C 0.67863 0.10113 0.72874 0.0
N201 N 0.69398 0.10446 0.71586 0.0
C202 C 0.64495 0.07795 0.73041 0.0
C203 C 0.64353 0.06091 0.70562 0.0
C204 C 0.67743 0.08457 0.70443 0.0
C205 C 0.62674 0.05768 0.71872 0.0
H206 H 0.6924 0.11743 0.73761 0.0
H207 H 0.69021 0.08746 0.69431 0.0
C208 C 0.83257 0.24363 0.71457 0.0
N209 N 0.86645 0.31073 0.70798 0.0
C210 C 0.85575 0.25561 0.70331 0.0
C211 C 0.8269 0.26586 0.72257 0.0
C212 C 0.87256 0.28959 0.70012 0.0
C213 C 0.84419 0.29966 0.71905 0.0
C214 C 0.76705 0.1054 0.72541 0.0
C215 C 0.76841 0.08826 0.73756 0.0
C216 C 0.75984 0.08992 0.71188 0.0
C217 C 0.76262 0.05585 0.73597 0.0
C218 C 0.75419 0.05748 0.71074 0.0
N219 N 0.75569 0.04126 0.72271 0.0
C220 C 0.7684 0.179 0.76195 0.0
C221 C 0.82299 0.22012 0.75508 0.0
C222 C 0.7757 0.18792 0.77647 0.0
N223 N 0.79194 0.19524 0.75164 0.0
C224 C 0.83127 0.23002 0.76943 0.0
C225 C 0.80745 0.2139 0.78034 0.0
H226 H 0.74391 0.15928 0.75884 0.0
H227 H 0.84132 0.2323 0.74666 0.0
C228 C 0.84417 0.17483 0.68838 0.0
N229 N 0.83217 0.15976 0.70131 0.0
C230 C 0.87444 0.17946 0.68319 0.0
C231 C 0.87782 0.15003 0.70407 0.0
C232 C 0.84784 0.14671 0.70904 0.0
C233 C 0.89236 0.16787 0.69126 0.0
H234 H 0.83135 0.18535 0.68258 0.0
H235 H 0.83797 0.13519 0.7194 0.0
O236 O 0.74056 0.18041 0.72468 0.0
O237 O 0.76134 0.15888 0.69635 0.0
O238 O 0.81503 0.21028 0.71757 0.0
O239 O 0.77255 0.13709 0.72683 0.0
H240 H 0.67872 0.16029 0.71613 0.0
H241 H 0.75815 0.22885 0.74384 0.0
H242 H 0.64455 0.18431 0.72454 0.0
H243 H 0.72248 0.25154 0.7518 0.0
H244 H 0.71925 0.11613 0.65214 0.0
H245 H 0.71303 0.17363 0.69583 0.0
H246 H 0.75997 0.12878 0.67198 0.0
H247 H 0.67302 0.16011 0.67569 0.0
H248 H 0.7493 0.29165 0.69609 0.0
H249 H 0.80191 0.26703 0.66427 0.0
H250 H 0.63309 0.07682 0.74064 0.0
H251 H 0.63059 0.04552 0.69639 0.0
H252 H 0.86058 0.23887 0.69702 0.0
H253 H 0.80906 0.25705 0.7313 0.0
H254 H 0.89042 0.29916 0.69138 0.0
H255 H 0.83983 0.31707 0.72509 0.0
H256 H 0.7739 0.09992 0.74811 0.0
H257 H 0.75863 0.10273 0.70235 0.0
H258 H 0.76362 0.04228 0.74528 0.0
H259 H 0.7486 0.04519 0.70035 0.0
H260 H 0.75656 0.17506 0.78454 0.0
H261 H 0.85616 0.24985 0.77199 0.0
H262 H 0.88449 0.19385 0.67342 0.0
H263 H 0.89006 0.13987 0.71054 0.0
Li264 Li 0.63107 0.79586 0.04274 0.0
Li265 Li 0.60136 0.77257 0.06531 0.0
Li266 Li 0.59377 0.73653 0.04457 0.0
Li267 Li 0.57083 0.77399 0.04434 0.0
C268 C 0.66825 0.77692 0.05628 0.0
N269 N 0.73676 0.80637 0.05657 0.0
C270 C 0.68675 0.79933 0.06724 0.0
C271 C 0.68452 0.76929 0.04554 0.0
C272 C 0.72139 0.81399 0.06718 0.0
C273 C 0.7192 0.7845 0.04585 0.0
C274 C 0.59727 0.83546 0.05397 0.0
C275 C 0.55843 0.85404 0.05964 0.0
N276 N 0.57619 0.88134 0.05119 0.0
C277 C 0.61511 0.86369 0.04534 0.0
C278 C 0.5687 0.83059 0.06119 0.0
C279 C 0.60407 0.88661 0.04409 0.0
C280 C 0.67518 0.83225 0.01994 0.0
N281 N 0.6707 0.83126 0.03448 0.0
C282 C 0.71777 0.88591 0.037 0.0
C283 C 0.69163 0.8571 0.04307 0.0
C284 C 0.72222 0.88826 0.02193 0.0
C285 C 0.70098 0.86058 0.01341 0.0
H286 H 0.65775 0.81173 0.01331 0.0
H287 H 0.687 0.85601 0.05456 0.0
C288 C 0.61636 0.75669 0.0925 0.0
N289 N 0.60369 0.77408 0.08589 0.0
C290 C 0.6171 0.75528 0.10755 0.0
C291 C 0.59166 0.78969 0.10874 0.0
C292 C 0.59171 0.79067 0.09365 0.0
C293 C 0.60435 0.77167 0.11592 0.0
H294 H 0.62559 0.74359 0.08605 0.0
H295 H 0.5816 0.80415 0.08815 0.0
C296 C 0.58948 0.74788 0.01692 0.0
N297 N 0.57459 0.70641 0.99329 0.0
C298 C 0.55857 0.73491 0.0101 0.0
C299 C 0.61293 0.74003 0.01163 0.0
C300 C 0.55149 0.71394 0.99818 0.0
C301 C 0.60489 0.71893 0.9997 0.0
C302 C 0.54355 0.71921 0.06929 0.0
C303 C 0.54952 0.69441 0.07452 0.0
C304 C 0.52269 0.72737 0.07697 0.0
C305 C 0.53458 0.67827 0.08744 0.0
C306 C 0.50825 0.71066 0.08985 0.0
N307 N 0.51446 0.68668 0.09478 0.0
C308 C 0.59985 0.67766 0.0404 0.0
C309 C 0.54895 0.67489 0.03416 0.0
C310 C 0.58663 0.64403 0.0368 0.0
N311 N 0.58083 0.69224 0.03899 0.0
C312 C 0.53501 0.64161 0.03025 0.0
C313 C 0.55381 0.62568 0.0316 0.0
H314 H 0.62495 0.69192 0.04453 0.0
H315 H 0.53417 0.68693 0.03354 0.0
C316 C 0.53864 0.80125 0.02764 0.0
N317 N 0.53399 0.77621 0.03671 0.0
C318 C 0.51166 0.79961 0.0202 0.0
C319 C 0.47587 0.74621 0.03136 0.0
C320 C 0.50335 0.74921 0.03883 0.0
C321 C 0.48005 0.7714 0.02177 0.0
H322 H 0.56344 0.82173 0.02567 0.0
H323 H 0.50055 0.72919 0.04574 0.0
O324 O 0.63438 0.76273 0.05602 0.0
O325 O 0.60765 0.8127 0.05532 0.0
O326 O 0.59663 0.76786 0.02881 0.0
O327 O 0.55888 0.73613 0.05695 0.0
H328 H 0.67455 0.80567 0.07558 0.0
H329 H 0.67054 0.75187 0.03703 0.0
H330 H 0.73606 0.83154 0.07554 0.0
H331 H 0.73215 0.77893 0.03758 0.0
H332 H 0.53625 0.85046 0.06509 0.0
H333 H 0.63712 0.86781 0.03958 0.0
H334 H 0.55422 0.8086 0.06769 0.0
H335 H 0.61761 0.90853 0.03742 0.0
H336 H 0.73366 0.90653 0.044 0.0
H337 H 0.70305 0.86143 0.00175 0.0
H338 H 0.62764 0.74154 0.11255 0.0
H339 H 0.58111 0.80231 0.11468 0.0
H340 H 0.54011 0.74072 0.01401 0.0
H341 H 0.63696 0.74986 0.01677 0.0
H342 H 0.5276 0.70358 0.99285 0.0
H343 H 0.62272 0.71247 0.99556 0.0
H344 H 0.56587 0.68804 0.06877 0.0
H345 H 0.518 0.74666 0.0731 0.0
H346 H 0.53912 0.65916 0.09166 0.0
H347 H 0.4922 0.71683 0.09596 0.0
H348 H 0.60183 0.63251 0.03802 0.0
H349 H 0.50942 0.62821 0.02658 0.0
H350 H 0.51576 0.81921 0.01268 0.0
H351 H 0.45179 0.72402 0.03274 0.0
Li352 Li 0.83639 0.63327 0.37491 0.0
Li353 Li 0.82265 0.6011 0.39721 0.0
Li354 Li 0.86107 0.59659 0.38021 0.0
Li355 Li 0.80265 0.57278 0.37498 0.0
C356 C 0.89849 0.66379 0.38851 0.0
N357 N 0.96157 0.71685 0.38349 0.0
C358 C 0.9154 0.68708 0.3994 0.0
C359 C 0.9137 0.66744 0.37506 0.0
C360 C 0.94725 0.71376 0.39665 0.0
C361 C 0.9456 0.69443 0.37274 0.0
C362 C 0.77408 0.61194 0.3931 0.0
C363 C 0.72943 0.59344 0.41042 0.0
N364 N 0.73895 0.62568 0.41341 0.0
C365 C 0.7834 0.6449 0.39633 0.0
C366 C 0.74683 0.58597 0.40018 0.0
C367 C 0.7653 0.65132 0.40662 0.0
C368 C 0.81057 0.66416 0.35875 0.0
N369 N 0.8388 0.67169 0.36612 0.0
C370 C 0.85994 0.72988 0.36221 0.0
C371 C 0.86343 0.70383 0.36793 0.0
C372 C 0.83077 0.72272 0.35466 0.0
C373 C 0.80605 0.68925 0.35288 0.0
H374 H 0.79088 0.63851 0.35792 0.0
H375 H 0.88531 0.70946 0.37415 0.0
C376 C 0.79359 0.5731 0.42413 0.0
N377 N 0.81325 0.60229 0.41718 0.0
C378 C 0.78346 0.57305 0.43831 0.0
C379 C 0.81547 0.63318 0.43825 0.0
C380 C 0.82465 0.63206 0.42395 0.0
C381 C 0.79414 0.60337 0.44547 0.0
H382 H 0.78522 0.54983 0.41859 0.0
H383 H 0.84018 0.65492 0.41813 0.0
C384 C 0.83234 0.58475 0.3491 0.0
N385 N 0.81358 0.55084 0.32313 0.0
C386 C 0.84107 0.56066 0.34593 0.0
C387 C 0.81423 0.59172 0.33902 0.0
C388 C 0.83134 0.54377 0.33274 0.0
C389 C 0.8049 0.57425 0.32597 0.0
C390 C 0.80749 0.5269 0.38991 0.0
C391 C 0.82433 0.51138 0.38437 0.0
C392 C 0.77432 0.50747 0.39429 0.0
C393 C 0.80773 0.47671 0.38332 0.0
C394 C 0.75858 0.47287 0.39304 0.0
N395 N 0.77548 0.45833 0.38763 0.0
C396 C 0.90567 0.58274 0.39326 0.0
C397 C 0.9164 0.59169 0.36814 0.0
C398 C 0.92993 0.57364 0.39475 0.0
N399 N 0.89891 0.59083 0.38009 0.0
C400 C 0.94089 0.58253 0.36913 0.0
C401 C 0.94755 0.57288 0.38256 0.0
H402 H 0.89121 0.58214 0.40254 0.0
H403 H 0.91083 0.59864 0.35781 0.0
C404 C 0.73577 0.53798 0.36648 0.0
N405 N 0.76446 0.53686 0.36574 0.0
C406 C 0.7059 0.5112 0.36166 0.0
C407 C 0.73588 0.4835 0.35431 0.0
C408 C 0.76512 0.51058 0.35954 0.0
C409 C 0.70575 0.48339 0.3557 0.0
H410 H 0.73588 0.55934 0.37115 0.0
H411 H 0.788 0.5099 0.35917 0.0
O412 O 0.86737 0.63748 0.39114 0.0
O413 O 0.79213 0.60512 0.38339 0.0
O414 O 0.8417 0.60159 0.36194 0.0
O415 O 0.82339 0.56087 0.39107 0.0
H416 H 0.90399 0.68455 0.40988 0.0
H417 H 0.90108 0.64977 0.36647 0.0
H418 H 0.9606 0.732 0.40498 0.0
H419 H 0.95765 0.69758 0.36239 0.0
H420 H 0.70846 0.57359 0.41606 0.0
H421 H 0.80468 0.66534 0.39114 0.0
H422 H 0.73953 0.56032 0.39796 0.0
H423 H 0.77234 0.67671 0.40928 0.0
H424 H 0.87963 0.75532 0.36384 0.0
H425 H 0.78277 0.68246 0.34752 0.0
H426 H 0.76742 0.54955 0.44362 0.0
H427 H 0.82414 0.65704 0.44344 0.0
H428 H 0.85448 0.55442 0.35369 0.0
H429 H 0.8074 0.61038 0.34123 0.0
H430 H 0.83771 0.52488 0.33021 0.0
H431 H 0.79078 0.57933 0.31809 0.0
H432 H 0.84985 0.52585 0.38079 0.0
H433 H 0.76054 0.51895 0.39825 0.0
H434 H 0.82047 0.46441 0.37902 0.0
H435 H 0.73285 0.45759 0.39626 0.0
H436 H 0.93387 0.566 0.40528 0.0
H437 H 0.95421 0.58268 0.35949 0.0
H438 H 0.68306 0.512 0.36274 0.0
H439 H 0.73655 0.46228 0.34984 0.0
Li440 Li 0.20993 0.83327 0.70701 0.0
Li441 Li 0.2265 0.82779 0.7324 0.0
Li442 Li 0.26857 0.85769 0.71363 0.0
Li443 Li 0.23411 0.79914 0.71143 0.0
C444 C 0.22489 0.88936 0.72632 0.0
N445 N 0.20276 0.93099 0.73634 0.0
C446 C 0.19618 0.87664 0.73481 0.0
C447 C 0.24252 0.92329 0.72304 0.0
C448 C 0.18535 0.89808 0.73974 0.0
C449 C 0.23086 0.94392 0.72816 0.0
C450 C 0.17181 0.76009 0.71855 0.0
C451 C 0.15696 0.70482 0.72644 0.0
N452 N 0.13379 0.69179 0.71575 0.0
C453 C 0.14778 0.74616 0.70768 0.0
C454 C 0.17637 0.7393 0.72806 0.0
C455 C 0.12882 0.71156 0.70643 0.0
C456 C 0.17145 0.82026 0.68208 0.0
N457 N 0.176 0.83407 0.69544 0.0
C458 C 0.12679 0.83808 0.69275 0.0
C459 C 0.15447 0.84323 0.70082 0.0
C460 C 0.12114 0.82321 0.67904 0.0
C461 C 0.14426 0.81478 0.67364 0.0
H462 H 0.18803 0.81189 0.67824 0.0
H463 H 0.15785 0.85328 0.71157 0.0
C464 C 0.23631 0.85505 0.76022 0.0
N465 N 0.21685 0.82719 0.75237 0.0
C466 C 0.22995 0.8562 0.7749 0.0
C467 C 0.18378 0.79986 0.77314 0.0
C468 C 0.19081 0.79995 0.75846 0.0
C469 C 0.20345 0.82829 0.78153 0.0
H470 H 0.25669 0.87644 0.75504 0.0
H471 H 0.1753 0.77839 0.75191 0.0
C472 C 0.25552 0.85353 0.68436 0.0
N473 N 0.27391 0.89645 0.66109 0.0
C474 C 0.26444 0.84513 0.67127 0.0
C475 C 0.25593 0.88375 0.68562 0.0
C476 C 0.27368 0.86717 0.65963 0.0
C477 C 0.2653 0.90511 0.67373 0.0
C478 C 0.29705 0.83217 0.73047 0.0
C479 C 0.31638 0.82669 0.72046 0.0
C480 C 0.3113 0.84851 0.74344 0.0
C481 C 0.34985 0.83806 0.72355 0.0
C482 C 0.34487 0.8595 0.74612 0.0
N483 N 0.36329 0.85413 0.73619 0.0
C484 C 0.32573 0.91434 0.72346 0.0
C485 C 0.33378 0.89321 0.70143 0.0
C486 C 0.36003 0.93476 0.72518 0.0
N487 N 0.31345 0.89327 0.71202 0.0
C488 C 0.3683 0.91354 0.70264 0.0
C489 C 0.38179 0.93359 0.71495 0.0
H490 H 0.30899 0.91336 0.73183 0.0
H491 H 0.32347 0.87554 0.69266 0.0
C492 C 0.21639 0.74522 0.69273 0.0
N493 N 0.2324 0.75936 0.70528 0.0
C494 C 0.21388 0.71553 0.68795 0.0
C495 C 0.24507 0.71601 0.70897 0.0
C496 C 0.24657 0.74544 0.71343 0.0
C497 C 0.22842 0.70052 0.69609 0.0
H498 H 0.20521 0.75687 0.68653 0.0
H499 H 0.25898 0.75718 0.72342 0.0
O500 O 0.23657 0.8691 0.72172 0.0
O501 O 0.19121 0.79391 0.71971 0.0
O502 O 0.24649 0.83205 0.69581 0.0
O503 O 0.26449 0.82207 0.72746 0.0
H504 H 0.18218 0.85041 0.73742 0.0
H505 H 0.26504 0.93358 0.71663 0.0
H506 H 0.16308 0.88855 0.74626 0.0
H507 H 0.24422 0.97022 0.72567 0.0
H508 H 0.16044 0.68844 0.73364 0.0
H509 H 0.14389 0.76187 0.70024 0.0
H510 H 0.19523 0.74968 0.7364 0.0
H511 H 0.11021 0.70044 0.69804 0.0
H512 H 0.10964 0.84504 0.69731 0.0
H513 H 0.14055 0.80255 0.66328 0.0
H514 H 0.24582 0.87851 0.78102 0.0
H515 H 0.16286 0.77802 0.77782 0.0
H516 H 0.26422 0.82181 0.67013 0.0
H517 H 0.24901 0.89067 0.6956 0.0
H518 H 0.28065 0.861 0.64943 0.0
H519 H 0.26571 0.92856 0.67454 0.0
H520 H 0.30578 0.81433 0.71031 0.0
H521 H 0.29669 0.85294 0.7513 0.0
H522 H 0.36519 0.83429 0.71584 0.0
H523 H 0.35631 0.87242 0.75607 0.0
H524 H 0.36951 0.95005 0.73477 0.0
H525 H 0.38427 0.91169 0.69461 0.0
H526 H 0.20033 0.7043 0.67809 0.0
H527 H 0.25716 0.70576 0.7155 0.0
Li528 Li 0.76614 0.60045 0.60015 0.0
Li529 Li 0.79314 0.62657 0.62316 0.0
Li530 Li 0.76961 0.56653 0.61903 0.0
Li531 Li 0.73312 0.58971 0.62236 0.0
C532 C 0.82939 0.59363 0.60796 0.0
N533 N 0.8737 0.57025 0.6076 0.0
C534 C 0.85759 0.60822 0.6168 0.0
C535 C 0.82389 0.56733 0.59885 0.0
C536 C 0.87968 0.59602 0.61648 0.0
C537 C 0.84652 0.5558 0.59886 0.0
C538 C 0.7687 0.66502 0.61277 0.0
C539 C 0.77733 0.71276 0.62656 0.0
N540 N 0.78933 0.732 0.61452 0.0
C541 C 0.78094 0.68518 0.60051 0.0
C542 C 0.76669 0.67881 0.62588 0.0
C543 C 0.7913 0.71902 0.60163 0.0
C544 C 0.74246 0.61091 0.57361 0.0
N545 N 0.76667 0.60675 0.57983 0.0
C546 C 0.78964 0.60687 0.55673 0.0
C547 C 0.79042 0.60539 0.57177 0.0
C548 C 0.76415 0.60982 0.54995 0.0
C549 C 0.7406 0.61232 0.55859 0.0
H550 H 0.72414 0.61235 0.58033 0.0
H551 H 0.8096 0.60246 0.577 0.0
C552 C 0.84281 0.66158 0.64419 0.0
N553 N 0.83099 0.66452 0.63117 0.0
C554 C 0.8747 0.68565 0.64872 0.0
C555 C 0.8804 0.71659 0.62689 0.0
C556 C 0.84888 0.69153 0.62262 0.0
C557 C 0.89447 0.71324 0.63981 0.0
H558 H 0.82848 0.63936 0.65059 0.0
H559 H 0.83957 0.69279 0.61209 0.0
C560 C 0.71134 0.5438 0.59563 0.0
N561 N 0.6747 0.51931 0.57054 0.0
C562 C 0.68299 0.54649 0.59334 0.0
C563 C 0.72098 0.52856 0.58516 0.0
C564 C 0.66479 0.53392 0.5806 0.0
C565 C 0.70218 0.51641 0.57254 0.0
C566 C 0.74815 0.58031 0.64886 0.0
C567 C 0.73045 0.54677 0.65282 0.0
C568 C 0.74696 0.60419 0.65764 0.0
C569 C 0.7114 0.5376 0.66545 0.0
C570 C 0.72762 0.59401 0.67018 0.0
N571 N 0.71036 0.56121 0.67379 0.0
C572 C 0.79712 0.53213 0.63342 0.0
C573 C 0.75282 0.49931 0.61737 0.0
C574 C 0.79984 0.50448 0.63726 0.0
N575 N 0.77398 0.52904 0.62359 0.0
C576 C 0.75462 0.47104 0.62089 0.0
C577 C 0.77832 0.47338 0.63099 0.0
H578 H 0.8133 0.55606 0.63835 0.0
H579 H 0.73414 0.49741 0.60986 0.0
C580 C 0.67899 0.60003 0.63043 0.0
N581 N 0.69008 0.57797 0.62947 0.0
C582 C 0.64565 0.5889 0.63384 0.0
C583 C 0.63616 0.53282 0.63545 0.0
C584 C 0.66955 0.54499 0.63203 0.0
C585 C 0.62361 0.55474 0.63613 0.0
H586 H 0.69565 0.62602 0.62804 0.0
H587 H 0.6789 0.52794 0.63091 0.0
O588 O 0.80711 0.60481 0.60833 0.0
O589 O 0.75856 0.6319 0.61189 0.0
O590 O 0.72998 0.55663 0.60789 0.0
O591 O 0.76644 0.58973 0.63642 0.0
H592 H 0.8624 0.62867 0.62387 0.0
H593 H 0.80211 0.5556 0.592 0.0
H594 H 0.90154 0.60701 0.6233 0.0
H595 H 0.8424 0.53528 0.59195 0.0
H596 H 0.77606 0.72382 0.63666 0.0
H597 H 0.78263 0.67486 0.59027 0.0
H598 H 0.75716 0.66349 0.63544 0.0
H599 H 0.80097 0.73497 0.59225 0.0
H600 H 0.80812 0.60458 0.55049 0.0
H601 H 0.72081 0.61505 0.55379 0.0
H602 H 0.88437 0.68145 0.65864 0.0
H603 H 0.89412 0.73764 0.61977 0.0
H604 H 0.67534 0.55857 0.6012 0.0
H605 H 0.743 0.52653 0.58667 0.0
H606 H 0.64289 0.53597 0.57866 0.0
H607 H 0.7095 0.50478 0.56431 0.0
H608 H 0.73111 0.52799 0.64613 0.0
H609 H 0.7608 0.63028 0.65478 0.0
H610 H 0.69738 0.51171 0.66861 0.0
H611 H 0.72634 0.6122 0.67705 0.0
H612 H 0.81859 0.50744 0.64502 0.0
H613 H 0.73707 0.44745 0.61602 0.0
H614 H 0.63694 0.60662 0.63409 0.0
H615 H 0.62021 0.50639 0.63729 0.0
Li616 Li 0.19792 0.76943 0.95572 0.0
Li617 Li 0.13941 0.73093 0.95626 0.0
Li618 Li 0.16701 0.77273 0.9355 0.0
Li619 Li 0.16216 0.79095 0.9605 0.0
C620 C 0.18764 0.71748 0.93793 0.0
N621 N 0.22095 0.68381 0.93125 0.0
C622 C 0.1911 0.69757 0.94832 0.0
C623 C 0.20086 0.72007 0.92411 0.0
C624 C 0.20814 0.68083 0.94475 0.0
C625 C 0.21767 0.70288 0.92095 0.0
C626 C 0.14836 0.7505 0.98472 0.0
C627 C 0.09603 0.73611 0.99607 0.0
N628 N 0.10835 0.73325 0.00899 0.0
C629 C 0.16042 0.74722 0.9981 0.0
C630 C 0.11584 0.74472 0.98369 0.0
C631 C 0.13985 0.73857 0.01025 0.0
C632 C 0.2475 0.77735 0.97521 0.0
N633 N 0.23979 0.77359 0.96091 0.0
C634 C 0.28887 0.77119 0.95541 0.0
C635 C 0.26038 0.77171 0.95097 0.0
C636 C 0.29659 0.77357 0.97018 0.0
C637 C 0.27603 0.77756 0.98011 0.0
H638 H 0.23112 0.77957 0.98284 0.0
H639 H 0.25439 0.76993 0.93961 0.0
C640 C 0.07812 0.66872 0.95351 0.0
N641 N 0.10709 0.68626 0.96094 0.0
C642 C 0.0565 0.6351 0.95674 0.0
C643 C 0.0949 0.63866 0.97525 0.0
C644 C 0.11564 0.67199 0.97167 0.0
C645 C 0.06493 0.6196 0.96771 0.0
H646 H 0.07207 0.68066 0.94494 0.0
H647 H 0.13904 0.68637 0.97727 0.0
C648 C 0.23349 0.83167 0.9491 0.0
N649 N 0.30072 0.87436 0.95333 0.0
C650 C 0.24497 0.84838 0.96225 0.0
C651 C 0.25614 0.83671 0.93808 0.0
C652 C 0.27907 0.86985 0.96418 0.0
C653 C 0.29005 0.8584 0.94044 0.0
C654 C 0.10279 0.77067 0.94379 0.0
C655 C 0.11145 0.79765 0.93458 0.0
C656 C 0.07059 0.75328 0.9495 0.0
C657 C 0.08805 0.80737 0.93153 0.0
C658 C 0.04788 0.76374 0.94618 0.0
N659 N 0.05702 0.79037 0.93735 0.0
C660 C 0.14862 0.75722 0.90587 0.0
C661 C 0.18658 0.8138 0.91126 0.0
C662 C 0.14942 0.76479 0.89118 0.0
N663 N 0.16712 0.78169 0.91551 0.0
C664 C 0.1882 0.82245 0.89674 0.0
C665 C 0.16944 0.79783 0.88645 0.0
H666 H 0.13328 0.73189 0.9096 0.0
H667 H 0.20082 0.83278 0.91918 0.0
C668 C 0.15899 0.82969 0.9845 0.0
N669 N 0.15931 0.82642 0.96989 0.0
C670 C 0.16209 0.85867 0.99058 0.0
C671 C 0.16568 0.88046 0.96655 0.0
C672 C 0.16259 0.85113 0.96094 0.0
C673 C 0.16608 0.88481 0.98158 0.0
H674 H 0.15804 0.81075 0.99154 0.0
H675 H 0.16442 0.84878 0.94943 0.0
O676 O 0.17125 0.73424 0.9412 0.0
O677 O 0.16804 0.75823 0.97268 0.0
O678 O 0.2003 0.80989 0.94716 0.0
O679 O 0.12524 0.76052 0.9468 0.0
H680 H 0.18126 0.69553 0.95909 0.0
H681 H 0.19835 0.73538 0.91594 0.0
H682 H 0.21125 0.66555 0.95272 0.0
H683 H 0.22815 0.70476 0.91032 0.0
H684 H 0.07087 0.7317 0.99541 0.0
H685 H 0.18535 0.75114 0.99911 0.0
H686 H 0.10606 0.74699 0.97348 0.0
H687 H 0.14889 0.73599 0.02066 0.0
H688 H 0.30448 0.76857 0.94743 0.0
H689 H 0.28121 0.77945 0.99159 0.0
H690 H 0.03354 0.62141 0.95071 0.0
H691 H 0.10283 0.62772 0.98357 0.0
H692 H 0.22777 0.84451 0.97093 0.0
H693 H 0.24768 0.82363 0.9279 0.0
H694 H 0.28835 0.88284 0.97432 0.0
H695 H 0.3079 0.86241 0.93204 0.0
H696 H 0.13603 0.8111 0.92989 0.0
H697 H 0.06309 0.73178 0.95635 0.0
H698 H 0.09454 0.82838 0.9245 0.0
H699 H 0.02294 0.7506 0.95057 0.0
H700 H 0.1343 0.74507 0.88366 0.0
H701 H 0.2044 0.84812 0.89361 0.0
H702 H 0.16312 0.86123 0.00223 0.0
H703 H 0.16867 0.8999 0.95919 0.0
Li704 Li 0.4031 0.14023 0.28353 0.0
Li705 Li 0.4283 0.19915 0.28729 0.0
Li706 Li 0.36844 0.16562 0.28839 0.0
Li707 Li 0.39869 0.17638 0.26472 0.0
C708 C 0.41932 0.16118 0.31247 0.0
N709 N 0.45635 0.15716 0.33494 0.0
C710 C 0.45154 0.16713 0.30998 0.0
C711 C 0.40596 0.15332 0.3264 0.0
C712 C 0.46987 0.16496 0.32148 0.0
C713 C 0.42506 0.15135 0.33761 0.0
C714 C 0.46891 0.18753 0.26609 0.0
C715 C 0.5123 0.22354 0.24958 0.0
N716 N 0.53134 0.21068 0.25423 0.0
C717 C 0.48876 0.17438 0.2706 0.0
C718 C 0.48061 0.21206 0.25539 0.0
C719 C 0.5203 0.18652 0.26452 0.0
C720 C 0.4155 0.09421 0.27126 0.0
N721 N 0.40976 0.10303 0.28447 0.0
C722 C 0.42235 0.06444 0.29596 0.0
C723 C 0.41225 0.08825 0.29674 0.0
C724 C 0.4296 0.05572 0.28243 0.0
C725 C 0.42549 0.07059 0.26997 0.0
H726 H 0.41358 0.10664 0.26172 0.0
H727 H 0.40732 0.09549 0.30713 0.0
C728 C 0.45485 0.25011 0.30734 0.0
N729 N 0.46427 0.23644 0.29668 0.0
C730 C 0.47864 0.27673 0.31542 0.0
C731 C 0.52165 0.27407 0.30179 0.0
C732 C 0.49694 0.24787 0.29376 0.0
C733 C 0.51266 0.28888 0.31284 0.0
H734 H 0.42868 0.24016 0.30959 0.0
H735 H 0.50398 0.23632 0.28545 0.0
C736 C 0.33635 0.10194 0.27605 0.0
N737 N 0.2837 0.03957 0.28253 0.0
C738 C 0.31486 0.08194 0.26513 0.0
C739 C 0.33112 0.09023 0.29027 0.0
C740 C 0.28837 0.05048 0.26862 0.0
C741 C 0.30435 0.05862 0.29333 0.0
C742 C 0.40794 0.24157 0.27913 0.0
C743 C 0.39139 0.2541 0.28735 0.0
C744 C 0.43823 0.26363 0.27255 0.0
C745 C 0.4057 0.28849 0.28905 0.0
C746 C 0.45176 0.29784 0.27452 0.0
N747 N 0.43536 0.30946 0.28267 0.0
C748 C 0.33438 0.18057 0.30926 0.0
C749 C 0.30051 0.14843 0.28974 0.0
C750 C 0.30923 0.18621 0.31427 0.0
N751 N 0.32996 0.16289 0.29695 0.0
C752 C 0.27443 0.15288 0.29452 0.0
C753 C 0.27902 0.17316 0.30662 0.0
H754 H 0.35835 0.19232 0.31459 0.0
H755 H 0.29781 0.13489 0.27985 0.0
C756 C 0.38296 0.15245 0.23664 0.0
N757 N 0.39505 0.18075 0.2446 0.0
C758 C 0.37717 0.153 0.22189 0.0
C759 C 0.39747 0.2121 0.22369 0.0
C760 C 0.40249 0.21031 0.23847 0.0
C761 C 0.38418 0.18306 0.21527 0.0
H762 H 0.37729 0.12932 0.24185 0.0
H763 H 0.41175 0.23236 0.24509 0.0
O764 O 0.40094 0.1634 0.30144 0.0
O765 O 0.43786 0.1758 0.27187 0.0
O766 O 0.36243 0.13275 0.27276 0.0
O767 O 0.39457 0.20792 0.27757 0.0
H768 H 0.46227 0.17339 0.29931 0.0
H769 H 0.38106 0.14876 0.3285 0.0
H770 H 0.49483 0.16948 0.31969 0.0
H771 H 0.41502 0.14524 0.34845 0.0
H772 H 0.52172 0.24262 0.24133 0.0
H773 H 0.47997 0.15501 0.2787 0.0
H774 H 0.4654 0.22205 0.25156 0.0
H775 H 0.53597 0.17669 0.26795 0.0
H776 H 0.42484 0.0533 0.30582 0.0
H777 H 0.43124 0.06507 0.25935 0.0
H778 H 0.47031 0.2876 0.3236 0.0
H779 H 0.54747 0.28203 0.29955 0.0
H780 H 0.3186 0.09066 0.25406 0.0
H781 H 0.34748 0.1053 0.29888 0.0
H782 H 0.27151 0.03473 0.26028 0.0
H783 H 0.29999 0.04924 0.30428 0.0
H784 H 0.36774 0.2375 0.29236 0.0
H785 H 0.45148 0.25443 0.26623 0.0
H786 H 0.39321 0.2985 0.29544 0.0
H787 H 0.47535 0.31514 0.26962 0.0
H788 H 0.31438 0.20243 0.32348 0.0
H789 H 0.25143 0.14164 0.28844 0.0
H790 H 0.36721 0.13016 0.21572 0.0
H791 H 0.40293 0.23567 0.21898 0.0
Li792 Li 0.2325 0.42782 0.62191 0.0
Li793 Li 0.26793 0.40123 0.62253 0.0
Li794 Li 0.22946 0.39351 0.60173 0.0
Li795 Li 0.20673 0.36794 0.62414 0.0
C796 C 0.28746 0.46901 0.60812 0.0
N797 N 0.32326 0.5378 0.6079 0.0
C798 C 0.31384 0.48623 0.61776 0.0
C799 C 0.27947 0.48684 0.59829 0.0
C800 C 0.33159 0.52099 0.6175 0.0
C801 C 0.29781 0.52158 0.59837 0.0
C802 C 0.22424 0.39125 0.65065 0.0
C803 C 0.21635 0.35948 0.67238 0.0
N804 N 0.19207 0.36595 0.67661 0.0
C805 C 0.19926 0.39763 0.65521 0.0
C806 C 0.2329 0.37203 0.65928 0.0
C807 C 0.18328 0.3846 0.66837 0.0
C808 C 0.2108 0.47583 0.62643 0.0
N809 N 0.23283 0.4657 0.6299 0.0
C810 C 0.25457 0.50467 0.64934 0.0
C811 C 0.25477 0.47986 0.64096 0.0
C812 C 0.23161 0.51507 0.64628 0.0
C813 C 0.21003 0.50101 0.63445 0.0
H814 H 0.19291 0.46352 0.6179 0.0
H815 H 0.27157 0.47086 0.64365 0.0
C816 C 0.33335 0.41496 0.6174 0.0
N817 N 0.31143 0.41112 0.62799 0.0
C818 C 0.3673 0.42959 0.6205 0.0
C819 C 0.35517 0.43463 0.64546 0.0
C820 C 0.32151 0.42004 0.64187 0.0
C821 C 0.37875 0.44053 0.63463 0.0
H822 H 0.3247 0.40847 0.60638 0.0
H823 H 0.30372 0.41766 0.64999 0.0
C824 C 0.17299 0.3924 0.60072 0.0
N825 N 0.13562 0.38976 0.57695 0.0
C826 C 0.14534 0.36223 0.59657 0.0
C827 C 0.18151 0.4212 0.59279 0.0
C828 C 0.12678 0.36142 0.58453 0.0
C829 C 0.16236 0.41936 0.58081 0.0
C830 C 0.22921 0.32801 0.61529 0.0
C831 C 0.20017 0.30092 0.60986 0.0
C832 C 0.25015 0.32247 0.6243 0.0
C833 C 0.19242 0.26867 0.61363 0.0
C834 C 0.24155 0.28983 0.62779 0.0
N835 N 0.21309 0.26384 0.62244 0.0
C836 C 0.24581 0.41109 0.57192 0.0
C837 C 0.2001 0.35731 0.57641 0.0
C838 C 0.24172 0.40571 0.55699 0.0
N839 N 0.22488 0.38709 0.58126 0.0
C840 C 0.1948 0.35104 0.56164 0.0
C841 C 0.21581 0.37534 0.55165 0.0
H842 H 0.26585 0.43428 0.57604 0.0
H843 H 0.18408 0.33848 0.58403 0.0
C844 C 0.14078 0.33218 0.63328 0.0
N845 N 0.16963 0.33135 0.6339 0.0
C846 C 0.11238 0.30829 0.64041 0.0
C847 C 0.14394 0.2836 0.64939 0.0
C848 C 0.17177 0.30785 0.6419 0.0
C849 C 0.1137 0.28359 0.64862 0.0
H850 H 0.13998 0.35203 0.62756 0.0
H851 H 0.19521 0.30833 0.64278 0.0
O852 O 0.26936 0.43496 0.6084 0.0
O853 O 0.23948 0.40297 0.6376 0.0
O854 O 0.19187 0.39367 0.61236 0.0
O855 O 0.23742 0.35977 0.61165 0.0
H856 H 0.32033 0.47301 0.62551 0.0
H857 H 0.25937 0.47405 0.59067 0.0
H858 H 0.35193 0.53459 0.62497 0.0
H859 H 0.29182 0.53566 0.59085 0.0
H860 H 0.22265 0.34442 0.67914 0.0
H861 H 0.19197 0.4121 0.64857 0.0
H862 H 0.25179 0.36638 0.65578 0.0
H863 H 0.16378 0.38919 0.67201 0.0
H864 H 0.2717 0.51508 0.65833 0.0
H865 H 0.19173 0.50823 0.6319 0.0
H866 H 0.38453 0.43403 0.61175 0.0
H867 H 0.36276 0.4423 0.65652 0.0
H868 H 0.13865 0.33949 0.60236 0.0
H869 H 0.20283 0.44468 0.59578 0.0
H870 H 0.10548 0.3382 0.58114 0.0
H871 H 0.16881 0.44147 0.57455 0.0
H872 H 0.18355 0.30473 0.60298 0.0
H873 H 0.27273 0.34311 0.62859 0.0
H874 H 0.16992 0.24749 0.60958 0.0
H875 H 0.25746 0.28518 0.63478 0.0
H876 H 0.25896 0.42497 0.54976 0.0
H877 H 0.17415 0.32747 0.55813 0.0
H878 H 0.08987 0.30985 0.63989 0.0
H879 H 0.14608 0.26518 0.65577 0.0
Li880 Li 0.85817 0.26478 0.95782 0.0
Li881 Li 0.8 0.22939 0.95835 0.0
Li882 Li 0.83572 0.20586 0.95878 0.0
Li883 Li 0.83227 0.23362 0.93636 0.0
C884 C 0.85117 0.23718 0.9851 0.0
N885 N 0.89055 0.24255 0.0085 0.0
C886 C 0.83899 0.23433 0.99914 0.0
C887 C 0.88337 0.24269 0.98294 0.0
C888 C 0.85929 0.23715 0.01084 0.0
C889 C 0.90289 0.24535 0.99492 0.0
C890 C 0.83434 0.30045 0.94599 0.0
C891 C 0.86543 0.35593 0.93617 0.0
N892 N 0.85677 0.36785 0.94781 0.0
C893 C 0.82556 0.31323 0.9578 0.0
C894 C 0.85424 0.32191 0.93502 0.0
C895 C 0.8372 0.34738 0.95853 0.0
C896 C 0.91775 0.32647 0.95472 0.0
N897 N 0.89224 0.30777 0.96389 0.0
C898 C 0.9086 0.3543 0.97956 0.0
C899 C 0.88778 0.32074 0.97629 0.0
C900 C 0.93433 0.37474 0.96999 0.0
C901 C 0.93924 0.36021 0.95759 0.0
H902 H 0.92037 0.31556 0.94483 0.0
H903 H 0.86677 0.30552 0.9832 0.0
C904 C 0.74433 0.19836 0.9761 0.0
N905 N 0.75896 0.22226 0.96581 0.0
C906 C 0.71381 0.19116 0.982 0.0
C907 C 0.71429 0.23377 0.96676 0.0
C908 C 0.74461 0.23981 0.96099 0.0
C909 C 0.69857 0.20913 0.97738 0.0
H910 H 0.7564 0.18482 0.97967 0.0
H911 H 0.75661 0.25832 0.95262 0.0
C912 C 0.88597 0.22296 0.93825 0.0
N913 N 0.91185 0.19094 0.92223 0.0
C914 C 0.86468 0.19312 0.93116 0.0
C915 C 0.92039 0.23652 0.93717 0.0
C916 C 0.87827 0.17732 0.92311 0.0
C917 C 0.933 0.21994 0.92903 0.0
C918 C 0.7634 0.17452 0.94378 0.0
C919 C 0.74467 0.1425 0.94951 0.0
C920 C 0.7474 0.18852 0.93613 0.0
C921 C 0.71016 0.12516 0.94766 0.0
C922 C 0.71285 0.17038 0.93452 0.0
N923 N 0.6951 0.13935 0.94028 0.0
C924 C 0.80961 0.14979 0.97531 0.0
C925 C 0.86078 0.16038 0.96507 0.0
C926 C 0.80472 0.12029 0.98146 0.0
N927 N 0.83682 0.16874 0.96704 0.0
C928 C 0.85696 0.13096 0.97111 0.0
C929 C 0.82835 0.11021 0.97928 0.0
H930 H 0.79125 0.15735 0.97686 0.0
H931 H 0.88264 0.1762 0.95874 0.0
C932 C 0.86123 0.25873 0.90929 0.0
N933 N 0.83363 0.23409 0.9158 0.0
C934 C 0.86301 0.26128 0.89425 0.0
C935 C 0.8083 0.21244 0.89288 0.0
C936 C 0.80771 0.21072 0.90795 0.0
C937 C 0.83607 0.23822 0.88582 0.0
H938 H 0.8818 0.27655 0.91582 0.0
H939 H 0.78641 0.19087 0.91334 0.0
O940 O 0.83131 0.23424 0.97361 0.0
O941 O 0.8239 0.26719 0.94526 0.0
O942 O 0.87353 0.23923 0.94615 0.0
O943 O 0.79713 0.19234 0.94583 0.0
H944 H 0.81407 0.22997 0.00098 0.0
H945 H 0.89329 0.2449 0.97219 0.0
H946 H 0.85018 0.23501 0.02177 0.0
H947 H 0.92785 0.24962 0.99341 0.0
H948 H 0.88107 0.37286 0.92782 0.0
H949 H 0.81054 0.29705 0.96648 0.0
H950 H 0.86123 0.31248 0.9258 0.0
H951 H 0.83087 0.35764 0.96768 0.0
H952 H 0.90345 0.36443 0.98911 0.0
H953 H 0.959 0.37488 0.95 0.0
H954 H 0.70251 0.17215 0.99025 0.0
H955 H 0.70304 0.24787 0.96284 0.0
H956 H 0.83799 0.18213 0.93183 0.0
H957 H 0.93719 0.25964 0.94258 0.0
H958 H 0.8621 0.15421 0.91758 0.0
H959 H 0.9596 0.23015 0.92812 0.0
H960 H 0.7566 0.13108 0.95531 0.0
H961 H 0.76151 0.21338 0.9317 0.0
H962 H 0.69536 0.1004 0.95208 0.0
H963 H 0.70014 0.18104 0.92874 0.0
H964 H 0.78203 0.10506 0.98746 0.0
H965 H 0.8761 0.1245 0.96934 0.0
H966 H 0.88526 0.2811 0.88929 0.0
H967 H 0.78686 0.19419 0.88689 0.0
Li968 Li 0.5757 0.80861 0.29317 0.0
Li969 Li 0.60098 0.8683 0.28683 0.0
Li970 Li 0.60663 0.82786 0.26997 0.0
Li971 Li 0.63748 0.84543 0.29272 0.0
C972 C 0.53397 0.81542 0.27201 0.0
N973 N 0.46874 0.7892 0.26307 0.0
C974 C 0.51498 0.82922 0.27689 0.0
C975 C 0.51989 0.7886 0.2624 0.0
C976 C 0.48202 0.81552 0.2723 0.0
C977 C 0.48685 0.77561 0.25806 0.0
C978 C 0.60857 0.86679 0.3173 0.0
C979 C 0.64132 0.91691 0.33109 0.0
N980 N 0.61736 0.90524 0.34148 0.0
C981 C 0.58432 0.85521 0.32812 0.0
C982 C 0.63734 0.89782 0.31879 0.0
C983 C 0.58921 0.87506 0.34026 0.0
C984 C 0.53933 0.74679 0.3081 0.0
N985 N 0.53904 0.77435 0.30333 0.0
C986 C 0.4863 0.75626 0.31446 0.0
C987 C 0.51346 0.77961 0.30649 0.0
C988 C 0.48571 0.72742 0.31951 0.0
C989 C 0.51269 0.72278 0.3162 0.0
H990 H 0.56051 0.74372 0.30586 0.0
H991 H 0.51448 0.80234 0.30309 0.0
C992 C 0.59022 0.9156 0.27346 0.0
N993 N 0.59019 0.90293 0.2867 0.0
C994 C 0.57442 0.93418 0.27138 0.0
C995 C 0.56062 0.92812 0.29679 0.0
C996 C 0.57645 0.90941 0.29836 0.0
C997 C 0.55839 0.93969 0.28305 0.0
H998 H 0.60059 0.90937 0.26432 0.0
H999 H 0.57548 0.89812 0.30866 0.0
C1000 C 0.60289 0.7689 0.2801 0.0
N1001 N 0.58854 0.70744 0.26954 0.0
C1002 C 0.62734 0.75969 0.28008 0.0
C1003 C 0.57109 0.74673 0.27488 0.0
C1004 C 0.61962 0.72855 0.27465 0.0
C1005 C 0.56432 0.71581 0.26956 0.0
C1006 C 0.67319 0.89712 0.27379 0.0
C1007 C 0.69268 0.89057 0.26433 0.0
C1008 C 0.68714 0.92772 0.28092 0.0
C1009 C 0.72619 0.91445 0.26248 0.0
C1010 C 0.72074 0.95098 0.27877 0.0
N1011 N 0.73942 0.9439 0.26969 0.0
C1012 C 0.59127 0.82488 0.24037 0.0
C1013 C 0.62515 0.80171 0.24627 0.0
C1014 C 0.59078 0.81648 0.22584 0.0
N1015 N 0.60786 0.81695 0.25025 0.0
C1016 C 0.62508 0.79258 0.23189 0.0
C1017 C 0.60753 0.79975 0.22148 0.0
H1018 H 0.57814 0.83747 0.24381 0.0
H1019 H 0.63905 0.79666 0.25424 0.0
C1020 C 0.68107 0.85318 0.3161 0.0
N1021 N 0.67707 0.85062 0.30151 0.0
C1022 C 0.70655 0.85005 0.32262 0.0
C1023 C 0.72377 0.84243 0.29898 0.0
C1024 C 0.698 0.8457 0.29293 0.0
C1025 C 0.72778 0.84369 0.31405 0.0
H1026 H 0.66333 0.8556 0.32278 0.0
H1027 H 0.69345 0.84224 0.28144 0.0
O1028 O 0.5665 0.82887 0.27622 0.0
O1029 O 0.60396 0.84781 0.30529 0.0
O1030 O 0.61019 0.79947 0.28521 0.0
O1031 O 0.64035 0.87408 0.27572 0.0
H1032 H 0.52543 0.85008 0.28426 0.0
H1033 H 0.53437 0.77809 0.25819 0.0
H1034 H 0.46701 0.82584 0.27608 0.0
H1035 H 0.47564 0.75481 0.25064 0.0
H1036 H 0.66347 0.94098 0.3324 0.0
H1037 H 0.56192 0.83121 0.32713 0.0
H1038 H 0.65648 0.90692 0.3106 0.0
H1039 H 0.57061 0.86647 0.34871 0.0
H1040 H 0.46601 0.76083 0.31663 0.0
H1041 H 0.51361 0.70126 0.3201 0.0
H1042 H 0.57347 0.94288 0.26063 0.0
H1043 H 0.54819 0.93139 0.30602 0.0
H1044 H 0.65207 0.77649 0.28414 0.0
H1045 H 0.55175 0.75321 0.2751 0.0
H1046 H 0.63834 0.72115 0.27451 0.0
H1047 H 0.53979 0.69842 0.26548 0.0
H1048 H 0.68207 0.86716 0.25857 0.0
H1049 H 0.67211 0.93356 0.28793 0.0
H1050 H 0.74167 0.90959 0.2553 0.0
H1051 H 0.73193 0.97473 0.28427 0.0
H1052 H 0.57688 0.82238 0.21815 0.0
H1053 H 0.63885 0.78028 0.22892 0.0
H1054 H 0.70822 0.85049 0.3343 0.0
H1055 H 0.73957 0.83763 0.29195 0.0
H1056 H 0.21164 0.94701 0.97189 0.0
H1057 H 0.1386 0.89637 0.0057 0.0
H1058 H 0.15553 0.95056 0.01728 0.0
H1059 H 0.27405 0.00453 0.99369 0.0
H1060 H 0.28924 0.0386 0.98105 0.0
H1061 H 0.26862 0.99645 0.97454 0.0
H1062 H 0.22615 0.00679 0.96062 0.0
H1063 H 0.24678 0.04914 0.96704 0.0
H1064 H 0.20286 0.02231 0.97019 0.0
H1065 H 0.18461 0.00972 0.02643 0.0
H1066 H 0.22385 0.06833 0.03261 0.0
H1067 H 0.27597 0.08032 0.99213 0.0
C1068 C 0.1984 0.9473 0.98147 0.0
C1069 C 0.17359 0.91739 0.98782 0.0
C1070 C 0.15777 0.91892 0.00067 0.0
C1071 C 0.16704 0.94961 0.00726 0.0
C1072 C 0.19198 0.97856 0.00081 0.0
C1073 C 0.20727 0.97764 0.98814 0.0
C1074 C 0.23506 0.01191 0.98396 0.0
C1075 C 0.26872 0.01291 0.98328 0.0
C1076 C 0.22723 0.0232 0.9696 0.0
C1077 C 0.23379 0.03215 0.9965 0.0
C1078 C 0.20853 0.01259 0.00602 0.0
C1079 C 0.20406 0.0254 0.01892 0.0
C1080 C 0.2264 0.05884 0.02229 0.0
C1081 C 0.25301 0.07911 0.01284 0.0
C1082 C 0.25604 0.06557 0.99963 0.0
H1083 H 0.20022 0.25616 0.35625 0.0
H1084 H 0.1565 0.27029 0.31736 0.0
H1085 H 0.17483 0.23671 0.30359 0.0
H1086 H 0.27143 0.26498 0.3403 0.0
H1087 H 0.27396 0.23381 0.35097 0.0
H1088 H 0.25372 0.2551 0.3582 0.0
H1089 H 0.20004 0.19865 0.3627 0.0
H1090 H 0.22022 0.1771 0.35557 0.0
H1091 H 0.18133 0.1697 0.34797 0.0
H1092 H 0.20348 0.2076 0.29357 0.0
H1093 H 0.23986 0.1848 0.28795 0.0
H1094 H 0.26283 0.18681 0.3336 0.0
C1095 C 0.19356 0.25132 0.34494 0.0
C1096 C 0.17676 0.26571 0.33789 0.0
C1097 C 0.16947 0.25963 0.32296 0.0
C1098 C 0.17959 0.24042 0.31507 0.0
C1099 C 0.19677 0.22724 0.32228 0.0
C1100 C 0.20348 0.23219 0.33691 0.0
C1101 C 0.22455 0.21746 0.34183 0.0
C1102 C 0.25788 0.24445 0.34819 0.0
C1103 C 0.20538 0.18903 0.35266 0.0
C1104 C 0.22955 0.20442 0.3276 0.0
C1105 C 0.21303 0.21 0.3165 0.0
C1106 C 0.2159 0.20238 0.30222 0.0
C1107 C 0.23654 0.18913 0.29915 0.0
C1108 C 0.25414 0.18348 0.31032 0.0
C1109 C 0.24992 0.19076 0.32476 0.0
H1110 H 0.91976 0.17829 0.66383 0.0
H1111 H 0.94488 0.18075 0.70925 0.0
H1112 H 0.00347 0.20289 0.70267 0.0
H1113 H 0.98383 0.16152 0.64863 0.0
H1114 H 0.99197 0.18943 0.63366 0.0
H1115 H 0.95099 0.16752 0.64156 0.0
H1116 H 0.95283 0.2236 0.64588 0.0
H1117 H 0.99372 0.24563 0.63804 0.0
H1118 H 0.98686 0.25587 0.65602 0.0
H1119 H 0.06052 0.23122 0.69159 0.0
H1120 H 0.11097 0.2655 0.67696 0.0
H1121 H 0.04928 0.24825 0.63911 0.0
C1122 C 0.93735 0.18306 0.67245 0.0
C1123 C 0.92715 0.17727 0.68709 0.0
C1124 C 0.95142 0.18388 0.69791 0.0
C1125 C 0.98502 0.19676 0.69429 0.0
C1126 C 0.99424 0.20314 0.67982 0.0
C1127 C 0.97108 0.19653 0.66906 0.0
C1128 C 0.98782 0.20915 0.65455 0.0
C1129 C 0.97807 0.18017 0.64398 0.0
C1130 C 0.97984 0.2351 0.64827 0.0
C1131 C 0.02403 0.22489 0.65892 0.0
C1132 C 0.02723 0.22053 0.67348 0.0
C1133 C 0.05832 0.23438 0.68013 0.0
C1134 C 0.08684 0.25371 0.67174 0.0
C1135 C 0.084 0.2594 0.65691 0.0
C1136 C 0.05217 0.24424 0.65042 0.0
H1137 H 0.73598 0.95096 0.02945 0.0
H1138 H 0.76248 0.89798 0.99842 0.0
H1139 H 0.79773 0.9507 0.98538 0.0
H1140 H 0.72766 0.00242 0.00514 0.0
H1141 H 0.74486 0.03861 0.01664 0.0
H1142 H 0.72525 0.99772 0.02452 0.0
H1143 H 0.77884 0.01339 0.03907 0.0
H1144 H 0.79861 0.05452 0.03131 0.0
H1145 H 0.81795 0.02929 0.02971 0.0
H1146 H 0.82508 0.00818 0.9743 0.0
H1147 H 0.84182 0.06508 0.96613 0.0
H1148 H 0.79939 0.08064 0.00513 0.0
C1149 C 0.75003 0.95052 0.0202 0.0
C1150 C 0.7466 0.92029 0.01503 0.0
C1151 C 0.76458 0.92078 0.00256 0.0
C1152 C 0.78485 0.95065 0.99514 0.0
C1153 C 0.7871 0.97987 0.00038 0.0
C1154 C 0.77036 0.98005 0.0127 0.0
C1155 C 0.77486 0.01419 0.01552 0.0
C1156 C 0.74116 0.01315 0.01544 0.0
C1157 C 0.7937 0.0287 0.02975 0.0
C1158 C 0.79587 0.03299 0.0026 0.0
C1159 C 0.80301 0.01293 0.99407 0.0
C1160 C 0.82017 0.02429 0.98105 0.0
C1161 C 0.82975 0.05677 0.97653 0.0
C1162 C 0.82203 0.07751 0.98497 0.0
C1163 C 0.80553 0.06548 0.99834 0.0
H1164 H 0.73978 0.79387 0.30612 0.0
H1165 H 0.76802 0.87248 0.33777 0.0
H1166 H 0.80255 0.85349 0.35041 0.0
H1167 H 0.73031 0.73265 0.33001 0.0
H1168 H 0.74659 0.71341 0.31815 0.0
H1169 H 0.72755 0.73563 0.31069 0.0
H1170 H 0.78107 0.77316 0.29602 0.0
H1171 H 0.80028 0.75088 0.30338 0.0
H1172 H 0.82047 0.79546 0.30525 0.0
H1173 H 0.82966 0.82232 0.36081 0.0
H1174 H 0.84588 0.78128 0.36829 0.0
H1175 H 0.80104 0.72442 0.32928 0.0
C1176 C 0.75403 0.80783 0.31544 0.0
C1177 C 0.75143 0.83491 0.32086 0.0
C1178 C 0.76959 0.85164 0.33342 0.0
C1179 C 0.78942 0.84116 0.34062 0.0
C1180 C 0.79097 0.81401 0.33508 0.0
C1181 C 0.77387 0.79771 0.32272 0.0
C1182 C 0.77754 0.76771 0.31956 0.0
C1183 C 0.74348 0.73546 0.31962 0.0
C1184 C 0.79595 0.77208 0.3052 0.0
C1185 C 0.79863 0.76907 0.33229 0.0
C1186 C 0.80649 0.79615 0.34105 0.0
C1187 C 0.82411 0.80135 0.35391 0.0
C1188 C 0.83339 0.77798 0.35803 0.0
C1189 C 0.82484 0.74962 0.34937 0.0
C1190 C 0.80786 0.74571 0.33619 0.0
H1191 H 0.92491 0.73345 0.66664 0.0
H1192 H 0.94633 0.74436 0.62058 0.0
H1193 H 0.00583 0.7791 0.62582 0.0
H1194 H 0.9921 0.816 0.67799 0.0
H1195 H 0.00106 0.79997 0.69407 0.0
H1196 H 0.95939 0.77975 0.68685 0.0
H1197 H 0.95927 0.7239 0.6856 0.0
H1198 H 0.00082 0.74391 0.69284 0.0
H1199 H 0.99195 0.722 0.67588 0.0
H1200 H 0.06345 0.80863 0.63576 0.0
H1201 H 0.11519 0.82917 0.64987 0.0
H1202 H 0.05724 0.79629 0.68941 0.0
C1203 C 0.94196 0.7433 0.65762 0.0
C1204 C 0.93039 0.73639 0.64316 0.0
C1205 C 0.95397 0.74996 0.63176 0.0
C1206 C 0.98807 0.76963 0.63461 0.0
C1207 C 0.99852 0.77548 0.64893 0.0
C1208 C 0.97623 0.76267 0.66026 0.0
C1209 C 0.99429 0.77035 0.67464 0.0
C1210 C 0.98622 0.79286 0.68393 0.0
C1211 C 0.9861 0.73812 0.68271 0.0
C1212 C 0.03017 0.78877 0.66956 0.0
C1213 C 0.03201 0.79185 0.6547 0.0
C1214 C 0.06235 0.80658 0.64742 0.0
C1215 C 0.0916 0.818 0.65552 0.0
C1216 C 0.09034 0.8144 0.67075 0.0
C1217 C 0.05914 0.80003 0.67783 0.0
H1218 H 0.68286 0.25444 0.98804 0.0
H1219 H 0.6425 0.14866 0.98118 0.0
H1220 H 0.58915 0.13736 0.99211 0.0
H1221 H 0.64421 0.24704 0.02257 0.0
H1222 H 0.6367 0.28104 0.01935 0.0
H1223 H 0.67142 0.28075 0.0108 0.0
H1224 H 0.65 0.28635 0.98567 0.0
H1225 H 0.6153 0.2868 0.99415 0.0
H1226 H 0.60808 0.25659 0.98031 0.0
H1227 H 0.53991 0.13793 0.00315 0.0
H1228 H 0.49879 0.15016 0.01438 0.0
H1229 H 0.57219 0.25539 0.01474 0.0
C1230 C 0.66267 0.22894 0.98876 0.0
C1231 C 0.66658 0.20238 0.98375 0.0
C1232 C 0.6399 0.16928 0.98505 0.0
C1233 C 0.60957 0.16266 0.99118 0.0
C1234 C 0.60654 0.18943 0.99606 0.0
C1235 C 0.63242 0.22188 0.995 0.0
C1236 C 0.62295 0.24611 0.00128 0.0
C1237 C 0.64514 0.26483 0.01427 0.0
C1238 C 0.62415 0.27039 0.98966 0.0
C1239 C 0.5876 0.22223 0.00596 0.0
C1240 C 0.57854 0.18967 0.0028 0.0
C1241 C 0.54676 0.1633 0.00575 0.0
C1242 C 0.5236 0.17046 0.01207 0.0
C1243 C 0.53251 0.20364 0.01546 0.0
C1244 C 0.56496 0.22976 0.01243 0.0
H1245 H 0.34421 0.54616 0.34445 0.0
H1246 H 0.3064 0.59488 0.37231 0.0
H1247 H 0.35301 0.64977 0.36499 0.0
H1248 H 0.43253 0.60432 0.35011 0.0
H1249 H 0.4434 0.60253 0.33156 0.0
H1250 H 0.40821 0.56705 0.33964 0.0
H1251 H 0.37015 0.56712 0.31915 0.0
H1252 H 0.40519 0.60256 0.31102 0.0
H1253 H 0.36843 0.60444 0.31563 0.0
H1254 H 0.40284 0.69902 0.35439 0.0
H1255 H 0.45159 0.73983 0.3405 0.0
H1256 H 0.45558 0.65908 0.31861 0.0
C1257 C 0.34609 0.56842 0.34913 0.0
C1258 C 0.32194 0.56646 0.35898 0.0
C1259 C 0.32469 0.59602 0.36471 0.0
C1260 C 0.3511 0.62721 0.36067 0.0
C1261 C 0.37438 0.62834 0.35084 0.0
C1262 C 0.37209 0.59978 0.34509 0.0
C1263 C 0.39948 0.608 0.33419 0.0
C1264 C 0.42225 0.59468 0.33918 0.0
C1265 C 0.38494 0.59475 0.31911 0.0
C1266 C 0.41741 0.64565 0.33466 0.0
C1267 C 0.40267 0.65683 0.34442 0.0
C1268 C 0.41455 0.69058 0.34667 0.0
C1269 C 0.44211 0.71357 0.33863 0.0
C1270 C 0.45732 0.70273 0.32835 0.0
C1271 C 0.44481 0.66824 0.32648 0.0
H1272 H 0.78618 0.34502 0.68595 0.0
H1273 H 0.76763 0.27942 0.64934 0.0
H1274 H 0.76928 0.32219 0.633 0.0
H1275 H 0.73404 0.37641 0.67382 0.0
H1276 H 0.76094 0.41787 0.68059 0.0
H1277 H 0.76023 0.38281 0.68928 0.0
H1278 H 0.82402 0.41019 0.68574 0.0
H1279 H 0.8249 0.44528 0.67697 0.0
H1280 H 0.84141 0.42232 0.66787 0.0
H1281 H 0.7713 0.37136 0.62072 0.0
H1282 H 0.77233 0.42305 0.61343 0.0
H1283 H 0.78708 0.45539 0.6582 0.0
C1284 C 0.78231 0.33952 0.67451 0.0
C1285 C 0.77697 0.30886 0.66894 0.0
C1286 C 0.77239 0.30292 0.65386 0.0
C1287 C 0.77311 0.327 0.64449 0.0
C1288 C 0.77834 0.35687 0.65035 0.0
C1289 C 0.78277 0.36318 0.66501 0.0
C1290 C 0.78687 0.39686 0.66861 0.0
C1291 C 0.75885 0.39326 0.67866 0.0
C1292 C 0.82135 0.42003 0.67518 0.0
C1293 C 0.78377 0.40837 0.65368 0.0
C1294 C 0.77906 0.38503 0.6433 0.0
C1295 C 0.77497 0.38984 0.62875 0.0
C1296 C 0.7754 0.41918 0.62474 0.0
C1297 C 0.77973 0.44326 0.63524 0.0
C1298 C 0.78423 0.43774 0.64988 0.0
H1299 H 0.34584 0.8134 0.98924 0.0
H1300 H 0.30983 0.72451 0.96299 0.0
H1301 H 0.35366 0.71489 0.97306 0.0
H1302 H 0.43434 0.83979 0.98586 0.0
H1303 H 0.44375 0.85523 0.00413 0.0
H1304 H 0.41027 0.85569 0.99447 0.0
H1305 H 0.36952 0.82189 0.01511 0.0
H1306 H 0.4028 0.82113 0.02479 0.0
H1307 H 0.36546 0.78269 0.0205 0.0
H1308 H 0.3981 0.71243 0.98736 0.0
H1309 H 0.44417 0.72023 0.00337 0.0
H1310 H 0.45347 0.81228 0.0194 0.0
C1311 C 0.34745 0.7921 0.98555 0.0
C1312 C 0.32461 0.76968 0.97534 0.0
C1313 C 0.3274 0.74213 0.97069 0.0
C1314 C 0.35205 0.73638 0.9764 0.0
C1315 C 0.37393 0.75869 0.98659 0.0
C1316 C 0.37223 0.78628 0.99097 0.0
C1317 C 0.39883 0.80637 0.00206 0.0
C1318 C 0.42325 0.84134 0.99628 0.0
C1319 C 0.38321 0.8081 0.01647 0.0
C1320 C 0.41535 0.78543 0.00343 0.0
C1321 C 0.40042 0.75792 0.99447 0.0
C1322 C 0.41025 0.73406 0.9943 0.0
C1323 C 0.43622 0.73856 0.00346 0.0
C1324 C 0.4522 0.76685 0.01251 0.0
C1325 C 0.44174 0.79063 0.01245 0.0
H1326 H 0.57489 0.33899 0.30444 0.0
H1327 H 0.50927 0.30091 0.34171 0.0
H1328 H 0.55099 0.34718 0.35639 0.0
H1329 H 0.65046 0.36245 0.32454 0.0
H1330 H 0.67541 0.39888 0.31369 0.0
H1331 H 0.6398 0.36337 0.30588 0.0
H1332 H 0.61576 0.40089 0.29826 0.0
H1333 H 0.6512 0.43649 0.30611 0.0
H1334 H 0.60975 0.42545 0.31175 0.0
H1335 H 0.59888 0.39827 0.36691 0.0
H1336 H 0.65199 0.44889 0.37302 0.0
H1337 H 0.68835 0.45112 0.32965 0.0
C1338 C 0.56932 0.34002 0.31572 0.0
C1339 C 0.53841 0.31636 0.3218 0.0
C1340 C 0.53225 0.31911 0.33661 0.0
C1341 C 0.55594 0.34518 0.34511 0.0
C1342 C 0.58593 0.36808 0.33873 0.0
C1343 C 0.5929 0.36556 0.32444 0.0
C1344 C 0.62747 0.39301 0.32035 0.0
C1345 C 0.64959 0.37856 0.31585 0.0
C1346 C 0.62593 0.41528 0.30841 0.0
C1347 C 0.63873 0.41144 0.33458 0.0
C1348 C 0.61424 0.39679 0.345 0.0
C1349 C 0.61835 0.40985 0.35888 0.0
C1350 C 0.64843 0.43859 0.36223 0.0
C1351 C 0.67402 0.45361 0.35179 0.0
C1352 C 0.66915 0.43981 0.33782 0.0
H1353 H 0.23112 0.5722 0.63901 0.0
H1354 H 0.22613 0.51132 0.67554 0.0
H1355 H 0.22272 0.55111 0.69219 0.0
H1356 H 0.28326 0.65044 0.6561 0.0
H1357 H 0.26334 0.67112 0.64782 0.0
H1358 H 0.26349 0.63692 0.6387 0.0
H1359 H 0.19911 0.60619 0.63702 0.0
H1360 H 0.19877 0.6403 0.64616 0.0
H1361 H 0.17489 0.59868 0.65326 0.0
H1362 H 0.22009 0.59727 0.70483 0.0
H1363 H 0.221 0.64833 0.71283 0.0
H1364 H 0.23108 0.68109 0.66818 0.0
C1365 C 0.22897 0.56719 0.6505 0.0
C1366 C 0.22885 0.53879 0.65604 0.0
C1367 C 0.22648 0.53313 0.67114 0.0
C1368 C 0.22436 0.55545 0.68066 0.0
C1369 C 0.22482 0.58338 0.67489 0.0
C1370 C 0.22724 0.58946 0.66019 0.0
C1371 C 0.2287 0.62214 0.6569 0.0
C1372 C 0.26166 0.6466 0.64944 0.0
C1373 C 0.19857 0.61647 0.6478 0.0
C1374 C 0.22691 0.6335 0.67205 0.0
C1375 C 0.22435 0.61061 0.68224 0.0
C1376 C 0.22229 0.61552 0.69696 0.0
C1377 C 0.22312 0.64478 0.7014 0.0
C1378 C 0.2264 0.66902 0.69118 0.0
C1379 C 0.22815 0.66302 0.6763 0.0
H1380 H 0.42157 0.24477 0.13329 0.0
H1381 H 0.32211 0.1647 0.12301 0.0
H1382 H 0.31212 0.14952 0.14879 0.0
H1383 H 0.43956 0.20227 0.16015 0.0
H1384 H 0.46169 0.23779 0.17184 0.0
H1385 H 0.46064 0.2437 0.15267 0.0
H1386 H 0.43656 0.2827 0.15708 0.0
H1387 H 0.43773 0.27708 0.17629 0.0
H1388 H 0.39925 0.2681 0.1677 0.0
H1389 H 0.31404 0.14065 0.17526 0.0
H1390 H 0.3269 0.14038 0.20115 0.0
H1391 H 0.42436 0.22716 0.19451 0.0
C1392 C 0.39747 0.22445 0.13649 0.0
C1393 C 0.3727 0.20578 0.12611 0.0
C1394 C 0.34167 0.17902 0.13073 0.0
C1395 C 0.33566 0.17033 0.14536 0.0
C1396 C 0.36081 0.18882 0.15526 0.0
C1397 C 0.39099 0.2155 0.15108 0.0
C1398 C 0.41408 0.23067 0.1639 0.0
C1399 C 0.44586 0.22845 0.16202 0.0
C1400 C 0.42238 0.26678 0.16639 0.0
C1401 C 0.39232 0.208 0.17589 0.0
C1402 C 0.36169 0.18404 0.17065 0.0
C1403 C 0.33781 0.15945 0.17953 0.0
C1404 C 0.34541 0.15936 0.19417 0.0
C1405 C 0.37657 0.18376 0.19979 0.0
C1406 C 0.40019 0.20848 0.19052 0.0
H1407 H 0.20764 0.41879 0.46865 0.0
H1408 H 0.16662 0.31361 0.45932 0.0
H1409 H 0.17277 0.3034 0.48493 0.0
H1410 H 0.26655 0.42674 0.49562 0.0
H1411 H 0.2595 0.45421 0.50694 0.0
H1412 H 0.25342 0.45379 0.4877 0.0
H1413 H 0.19302 0.44142 0.49177 0.0
H1414 H 0.19899 0.44205 0.51102 0.0
H1415 H 0.16496 0.40609 0.50259 0.0
H1416 H 0.18372 0.30451 0.5115 0.0
H1417 H 0.19542 0.31619 0.53744 0.0
H1418 H 0.2245 0.41967 0.52986 0.0
C1419 C 0.19961 0.39351 0.47194 0.0
C1420 C 0.18693 0.36711 0.46181 0.0
C1421 C 0.17718 0.3345 0.46671 0.0
C1422 C 0.18034 0.32835 0.48128 0.0
C1423 C 0.19298 0.35495 0.49091 0.0
C1424 C 0.20215 0.38682 0.48648 0.0
C1425 C 0.21391 0.41078 0.49913 0.0
C1426 C 0.25052 0.43798 0.49723 0.0
C1427 C 0.19137 0.42597 0.50125 0.0
C1428 C 0.20989 0.38737 0.51136 0.0
C1429 C 0.19806 0.35535 0.50635 0.0
C1430 C 0.19267 0.32943 0.51557 0.0
C1431 C 0.19917 0.33631 0.53034 0.0
C1432 C 0.21055 0.36881 0.53583 0.0
C1433 C 0.21615 0.39463 0.52609 0.0
H1434 H 0.81126 0.18813 0.86546 0.0
H1435 H 0.86138 0.29568 0.86985 0.0
H1436 H 0.8609 0.30116 0.84337 0.0
H1437 H 0.85168 0.1857 0.83258 0.0
H1438 H 0.81466 0.15091 0.8252 0.0
H1439 H 0.82039 0.1555 0.84448 0.0
H1440 H 0.76384 0.15357 0.8471 0.0
H1441 H 0.75796 0.14903 0.82783 0.0
H1442 H 0.75651 0.18253 0.83701 0.0
H1443 H 0.85394 0.29498 0.81644 0.0
H1444 H 0.84029 0.27741 0.79096 0.0
H1445 H 0.79308 0.17395 0.80423 0.0
C1446 C 0.82202 0.21287 0.8609 0.0
C1447 C 0.83653 0.24148 0.86981 0.0
C1448 C 0.85069 0.27337 0.8633 0.0
C1449 C 0.85033 0.27676 0.84826 0.0
C1450 C 0.83562 0.24804 0.83984 0.0
C1451 C 0.82168 0.2167 0.84592 0.0
C1452 C 0.80674 0.18981 0.83448 0.0
C1453 C 0.82443 0.16928 0.83417 0.0
C1454 C 0.76902 0.16742 0.83674 0.0
C1455 C 0.81424 0.21092 0.82103 0.0
C1456 C 0.8311 0.24445 0.82434 0.0
C1457 C 0.84082 0.2688 0.8137 0.0
C1458 C 0.83309 0.25859 0.79927 0.0
C1459 C 0.81565 0.22434 0.79563 0.0
C1460 C 0.80614 0.2003 0.8067 0.0
H1461 H 0.61502 0.82057 0.13566 0.0
H1462 H 0.5921 0.71781 0.13266 0.0
H1463 H 0.59172 0.71432 0.15924 0.0
H1464 H 0.66804 0.84329 0.16674 0.0
H1465 H 0.65289 0.86883 0.1745 0.0
H1466 H 0.65234 0.86364 0.1552 0.0
H1467 H 0.58903 0.84266 0.15477 0.0
H1468 H 0.58939 0.84784 0.17407 0.0
H1469 H 0.56147 0.80802 0.16604 0.0
H1470 H 0.5939 0.72192 0.18616 0.0
H1471 H 0.59655 0.73961 0.21155 0.0
H1472 H 0.61577 0.83654 0.19699 0.0
C1473 C 0.60963 0.7972 0.14054 0.0
C1474 C 0.60385 0.76955 0.13198 0.0
C1475 C 0.59731 0.7396 0.13891 0.0
C1476 C 0.59679 0.73727 0.15403 0.0
C1477 C 0.60263 0.765 0.1621 0.0
C1478 C 0.60874 0.79433 0.15561 0.0
C1479 C 0.61366 0.82029 0.16677 0.0
C1480 C 0.64883 0.85081 0.16574 0.0
C1481 C 0.58678 0.83028 0.16533 0.0
C1482 C 0.6093 0.80092 0.18055 0.0
C1483 C 0.60316 0.76915 0.17762 0.0
C1484 C 0.59867 0.74673 0.1886 0.0
C1485 C 0.60038 0.75705 0.20297 0.0
C1486 C 0.60634 0.7894 0.20623 0.0
C1487 C 0.61084 0.81154 0.19483 0.0
H1488 H 0.81439 0.64089 0.53002 0.0
H1489 H 0.70765 0.57522 0.53379 0.0
H1490 H 0.70326 0.56962 0.50723 0.0
H1491 H 0.81261 0.68222 0.49647 0.0
H1492 H 0.84984 0.68418 0.48952 0.0
H1493 H 0.8442 0.68527 0.50874 0.0
H1494 H 0.85288 0.63468 0.51207 0.0
H1495 H 0.85848 0.63338 0.49289 0.0
H1496 H 0.82707 0.59694 0.50213 0.0
H1497 H 0.71108 0.56711 0.4806 0.0
H1498 H 0.73041 0.56953 0.4555 0.0
H1499 H 0.83195 0.63711 0.46897 0.0
C1500 C 0.79006 0.62555 0.52525 0.0
C1501 C 0.76132 0.60861 0.53397 0.0
C1502 C 0.72991 0.58887 0.52731 0.0
C1503 C 0.7272 0.5854 0.51225 0.0
C1504 C 0.75608 0.60204 0.50399 0.0
C1505 C 0.78689 0.62193 0.51023 0.0
C1506 C 0.81421 0.63603 0.49896 0.0
C1507 C 0.83121 0.67419 0.49839 0.0
C1508 C 0.83965 0.62456 0.50168 0.0
C1509 C 0.79404 0.62035 0.48543 0.0
C1510 C 0.76054 0.60092 0.48857 0.0
C1511 C 0.73718 0.58254 0.47797 0.0
C1512 C 0.74838 0.58392 0.46379 0.0
C1513 C 0.78259 0.60359 0.46035 0.0
C1514 C 0.8056 0.62231 0.47129 0.0
H1515 H 0.17103 0.76248 0.86287 0.0
H1516 H 0.1723 0.8536 0.87482 0.0
H1517 H 0.17962 0.87058 0.84922 0.0
H1518 H 0.23221 0.79675 0.83573 0.0
H1519 H 0.21212 0.76152 0.82373 0.0
H1520 H 0.20543 0.75568 0.84292 0.0
H1521 H 0.14171 0.7275 0.83899 0.0
H1522 H 0.14819 0.73309 0.81976 0.0
H1523 H 0.12496 0.74914 0.82899 0.0
H1524 H 0.19017 0.87926 0.82256 0.0
H1525 H 0.20071 0.87774 0.79645 0.0
H1526 H 0.19068 0.78025 0.80178 0.0
C1527 C 0.17219 0.7857 0.8601 0.0
C1528 C 0.17129 0.80678 0.87091 0.0
C1529 C 0.17349 0.83726 0.86679 0.0
C1530 C 0.17742 0.84704 0.85226 0.0
C1531 C 0.17878 0.82594 0.84193 0.0
C1532 C 0.17593 0.79577 0.84564 0.0
C1533 C 0.17891 0.77806 0.83247 0.0
C1534 C 0.20896 0.77271 0.8338 0.0
C1535 C 0.14651 0.74499 0.8299 0.0
C1536 C 0.18441 0.80323 0.82082 0.0
C1537 C 0.18423 0.83067 0.82651 0.0
C1538 C 0.19008 0.85778 0.81795 0.0
C1539 C 0.19624 0.8568 0.80318 0.0
C1540 C 0.19638 0.82885 0.79712 0.0
C1541 C 0.19021 0.80171 0.80609 0.0
H1542 H 0.55398 0.57618 0.0478 0.0
H1543 H 0.51778 0.59425 0.00754 0.0
H1544 H 0.4865 0.53382 0.0027 0.0
H1545 H 0.562 0.50524 0.03492 0.0
H1546 H 0.54817 0.4834 0.05188 0.0
H1547 H 0.56988 0.52823 0.05155 0.0
H1548 H 0.52077 0.52753 0.0652 0.0
H1549 H 0.49875 0.48273 0.06541 0.0
H1550 H 0.4794 0.50459 0.05774 0.0
H1551 H 0.45635 0.47159 0.00297 0.0
H1552 H 0.43056 0.41147 0.00797 0.0
H1553 H 0.48662 0.43354 0.04797 0.0
C1554 C 0.54009 0.56741 0.03781 0.0
C1555 C 0.53835 0.58983 0.02801 0.0
C1556 C 0.51931 0.57742 0.0152 0.0
C1557 C 0.50154 0.54319 0.01235 0.0
C1558 C 0.50308 0.52167 0.0224 0.0
C1559 C 0.52203 0.53324 0.03483 0.0
C1560 C 0.51817 0.50465 0.04415 0.0
C1561 C 0.55154 0.50543 0.04571 0.0
C1562 C 0.50339 0.5049 0.059 0.0
C1563 C 0.49374 0.47527 0.03512 0.0
C1564 C 0.48551 0.48566 0.02259 0.0
C1565 C 0.46287 0.46312 0.01267 0.0
C1566 C 0.44842 0.42902 0.01559 0.0
C1567 C 0.45658 0.41771 0.02834 0.0
C1568 C 0.47956 0.44131 0.03821 0.0
H1569 H 0.95543 0.53035 0.36438 0.0
H1570 H 0.99334 0.58708 0.40401 0.0
H1571 H 0.02868 0.56198 0.40788 0.0
H1572 H 0.95093 0.45649 0.37683 0.0
H1573 H 0.96425 0.44682 0.36014 0.0
H1574 H 0.94332 0.47064 0.35987 0.0
H1575 H 0.99273 0.518 0.34593 0.0
H1576 H 0.01369 0.49415 0.346 0.0
H1577 H 0.03421 0.53582 0.35321 0.0
H1578 H 0.05705 0.5284 0.40833 0.0
H1579 H 0.07977 0.49101 0.40452 0.0
H1580 H 0.02452 0.45646 0.36436 0.0
C1581 C 0.97172 0.53806 0.3737 0.0
C1582 C 0.97153 0.56063 0.38393 0.0
C1583 C 0.99277 0.56956 0.39613 0.0
C1584 C 0.01302 0.55554 0.39839 0.0
C1585 C 0.01197 0.53276 0.38831 0.0
C1586 C 0.99219 0.52432 0.37612 0.0
C1587 C 0.99517 0.49853 0.36717 0.0
C1588 C 0.96141 0.46621 0.36594 0.0
C1589 C 0.00983 0.51247 0.35219 0.0
C1590 C 0.01939 0.49352 0.37635 0.0
C1591 C 0.02868 0.51351 0.3885 0.0
C1592 C 0.05009 0.51273 0.39883 0.0
C1593 C 0.0626 0.49117 0.39664 0.0
C1594 C 0.05374 0.47064 0.3842 0.0
C1595 C 0.03186 0.47196 0.37393 0.0
H1596 H 0.57721 0.04389 0.69879 0.0
H1597 H 0.59363 0.01885 0.74208 0.0
H1598 H 0.53303 0.98458 0.74562 0.0
H1599 H 0.5063 0.05046 0.70673 0.0
H1600 H 0.48462 0.03165 0.69015 0.0
H1601 H 0.52942 0.05326 0.69062 0.0
H1602 H 0.52914 0.00063 0.6811 0.0
H1603 H 0.48432 0.97893 0.68046 0.0
H1604 H 0.50539 0.96171 0.69056 0.0
H1605 H 0.47106 0.95597 0.74515 0.0
H1606 H 0.41112 0.93108 0.73999 0.0
H1607 H 0.4341 0.97239 0.69668 0.0
C1608 C 0.56812 0.03067 0.70891 0.0
C1609 C 0.59031 0.03433 0.7202 0.0
C1610 C 0.57722 0.01696 0.73335 0.0
C1611 C 0.54281 0.99728 0.73545 0.0
C1612 C 0.52169 0.99487 0.72425 0.0
C1613 C 0.53376 0.0107 0.71116 0.0
C1614 C 0.50549 0.00421 0.70098 0.0
C1615 C 0.50653 0.03684 0.69689 0.0
C1616 C 0.50613 0.98523 0.68748 0.0
C1617 C 0.47571 0.98258 0.71047 0.0
C1618 C 0.4857 0.97766 0.72386 0.0
C1619 C 0.4629 0.95947 0.73467 0.0
C1620 C 0.42893 0.94567 0.73168 0.0
C1621 C 0.418 0.94997 0.71797 0.0
C1622 C 0.44178 0.96861 0.70723 0.0
H1623 H 0.57126 0.49872 0.62438 0.0
H1624 H 0.59414 0.58151 0.65303 0.0
H1625 H 0.53393 0.56021 0.65644 0.0
H1626 H 0.50183 0.4963 0.60708 0.0
H1627 H 0.47826 0.45156 0.60579 0.0
H1628 H 0.52304 0.47274 0.60601 0.0
H1629 H 0.52142 0.43726 0.62796 0.0
H1630 H 0.4766 0.41592 0.62779 0.0
H1631 H 0.499 0.43646 0.64401 0.0
H1632 H 0.47121 0.53044 0.65624 0.0
H1633 H 0.41089 0.49549 0.65203 0.0
H1634 H 0.42908 0.43127 0.62397 0.0
C1635 C 0.56367 0.51214 0.63156 0.0
C1636 C 0.58746 0.54173 0.63851 0.0
C1637 C 0.5764 0.55893 0.64752 0.0
C1638 C 0.54226 0.54691 0.64959 0.0
C1639 C 0.51952 0.51767 0.64256 0.0
C1640 C 0.52978 0.50053 0.63372 0.0
C1641 C 0.50036 0.47025 0.62709 0.0
C1642 C 0.50091 0.47289 0.61051 0.0
C1643 C 0.49929 0.43807 0.63201 0.0
C1644 C 0.47188 0.47311 0.63351 0.0
C1645 C 0.48346 0.50054 0.64246 0.0
C1646 C 0.46186 0.50873 0.64936 0.0
C1647 C 0.42756 0.48852 0.64699 0.0
C1648 C 0.41507 0.46036 0.63776 0.0
C1649 C 0.43772 0.45261 0.63103 0.0
H1650 H 0.03122 0.56771 0.94863 0.0
H1651 H 0.05042 0.58985 0.99437 0.0
H1652 H 0.01943 0.52983 -0.00012 0.0
H1653 H 0.94659 0.4971 0.95307 0.0
H1654 H 0.95098 0.47406 0.93839 0.0
H1655 H 0.97375 0.51889 0.93811 0.0
H1656 H 0.02885 0.51806 0.93512 0.0
H1657 H 0.00632 0.47326 0.93557 0.0
H1658 H 0.03969 0.49624 0.9482 0.0
H1659 H 0.98897 0.46746 0.00036 0.0
H1660 H 0.95804 0.40693 0.9959 0.0
H1661 H 0.9563 0.4253 0.94997 0.0
C1662 C 0.02839 0.56001 0.95983 0.0
C1663 C 0.04349 0.58359 0.97106 0.0
C1664 C 0.03956 0.57231 0.98555 0.0
C1665 C 0.02187 0.53825 0.98881 0.0
C1666 C 0.00797 0.5157 0.97746 0.0
C1667 C 0.01066 0.52607 0.96328 0.0
C1668 C 0.99363 0.49662 0.95311 0.0
C1669 C 0.96451 0.49668 0.94521 0.0
C1670 C 0.01862 0.49602 0.94237 0.0
C1671 C 0.98134 0.46812 0.96379 0.0
C1672 C 0.98989 0.47968 0.97777 0.0
C1673 C 0.98181 0.45809 0.98947 0.0
C1674 C 0.96413 0.42373 0.98682 0.0
C1675 C 0.9546 0.41122 0.97259 0.0
C1676 C 0.96354 0.43392 0.96096 0.0
H1677 H 0.5533 0.9866 0.29945 0.0
H1678 H 0.51324 0.92442 0.26137 0.0
H1679 H 0.47443 0.94554 0.25776 0.0
H1680 H 0.47565 0.97714 0.31239 0.0
H1681 H 0.49373 0.01963 0.31843 0.0
H1682 H 0.51849 0.99964 0.31816 0.0
H1683 H 0.56237 0.04692 0.30204 0.0
H1684 H 0.53791 0.06719 0.30238 0.0
H1685 H 0.54944 0.05703 0.28534 0.0
H1686 H 0.43948 0.97251 0.2584 0.0
H1687 H 0.41325 0.00683 0.26222 0.0
H1688 H 0.47647 0.0526 0.2996 0.0
C1689 C 0.53634 0.97747 0.29037 0.0
C1690 C 0.53647 0.95404 0.28063 0.0
C1691 C 0.51401 0.9428 0.26882 0.0
C1692 C 0.49164 0.95439 0.26676 0.0
C1693 C 0.49202 0.97729 0.27658 0.0
C1694 C 0.51393 0.98896 0.28809 0.0
C1695 C 0.50967 0.01423 0.29683 0.0
C1696 C 0.49873 0.00191 0.31238 0.0
C1697 C 0.54175 0.04836 0.29663 0.0
C1698 C 0.48199 0.01494 0.28841 0.0
C1699 C 0.47204 0.99324 0.27685 0.0
C1700 C 0.44714 0.9897 0.26739 0.0
C1701 C 0.43247 0.00939 0.26962 0.0
C1702 C 0.44286 0.03253 0.28117 0.0
C1703 C 0.46764 0.03487 0.29079 0.0
loop_
_geom_bond_atom_site_label_1
_geom_bond_atom_site_label_2
_geom_bond_distance
_geom_bond_site_symmetry_2
_ccdc_geom_bond_type
Li0 N17 1.990 . S
Li0 O60 1.956 . S
Li0 O61 1.970 . S
Li0 O62 1.961 . S
Li1 N25 1.990 . S
Li1 O60 1.970 . S
Li1 O61 1.956 . S
Li1 O63 1.961 . S
Li2 N47 1.990 . S
Li2 O60 1.961 . S
Li2 O62 1.956 . S
Li2 O63 1.970 . S
Li3 N53 1.990 . S
Li3 O61 1.961 . S
Li3 O62 1.970 . S
Li3 O63 1.956 . S
C4 C6 1.348 . S
C4 C7 1.356 . S
C4 O60 1.325 . S
N5 C8 1.314 . S
N5 C9 1.279 . S
C6 C4 1.348 . S
C6 C8 1.353 . S
C6 H64 0.929 . S
C7 C4 1.356 . S
C7 C9 1.358 . S
C7 H65 0.930 . S
C8 N5 1.314 . S
C8 C6 1.353 . S
C8 H66 0.930 . S
C9 N5 1.279 . S
C9 C7 1.358 . S
C9 H67 0.930 . S
C10 C13 1.348 . S
C10 C14 1.356 . S
C10 O61 1.325 . S
C11 N12 1.279 . S
C11 C14 1.358 . S
C11 H68 0.930 . S
N12 C11 1.279 . S
N12 C15 1.314 . S
C13 C10 1.348 . S
C13 C15 1.353 . S
C13 H69 0.929 . S
C14 C10 1.356 . S
C14 C11 1.358 . S
C14 H70 0.930 . S
C15 N12 1.314 . S
C15 C13 1.353 . S
C15 H71 0.930 . S
C16 N17 1.314 . S
C16 C21 1.353 . S
C16 H22 0.930 . S
N17 Li0 1.990 . S
N17 C16 1.314 . S
N17 C19 1.279 . S
C18 C19 1.358 . S
C18 C20 1.356 . S
C18 H72 0.930 . S
C19 N17 1.279 . S
C19 C18 1.358 . S
C19 H23 0.930 . S
C20 C18 1.356 . S
C20 C21 1.348 . S
C21 C16 1.353 . S
C21 C20 1.348 . S
C21 H73 0.929 . S
H22 C16 0.930 . S
H23 C19 0.930 . S
C24 N25 1.314 . S
C24 C26 1.353 . S
C24 H30 0.930 . S
N25 Li1 1.990 . S
N25 C24 1.314 . S
N25 C28 1.279 . S
C26 C24 1.353 . S
C26 C29 1.348 . S
C26 H74 0.929 1_554 S
C27 C28 1.358 . S
C27 C29 1.356 . S
C27 H75 0.930 . S
C28 N25 1.279 . S
C28 C27 1.358 . S
C28 H31 0.930 . S
C29 C26 1.348 . S
C29 C27 1.356 . S
H30 C24 0.930 . S
H31 C28 0.930 . S
C32 C34 1.348 . S
C32 C35 1.356 . S
C32 O62 1.325 . S
N33 C36 1.314 . S
N33 C37 1.279 . S
C34 C32 1.348 . S
C34 C36 1.353 . S
C34 H76 0.929 . S
C35 C32 1.356 . S
C35 C37 1.358 . S
C35 H77 0.930 . S
C36 N33 1.314 . S
C36 C34 1.353 . S
C36 H78 0.930 . S
C37 N33 1.279 . S
C37 C35 1.358 . S
C37 H79 0.930 . S
C38 C39 1.348 . S
C38 C40 1.356 . S
C38 O63 1.325 . S
C39 C38 1.348 . S
C39 C41 1.353 1_554 S
C39 H80 0.929 . S
C40 C38 1.356 . S
C40 C42 1.358 1_554 S
C40 H81 0.930 . S
C41 C39 1.353 1_556 S
C41 N43 1.314 . S
C41 H82 0.930 . S
C42 C40 1.358 1_556 S
C42 N43 1.279 . S
C42 H83 0.930 . S
N43 C41 1.314 . S
N43 C42 1.279 . S
C44 C46 1.353 . S
C44 N47 1.314 . S
C44 H50 0.930 . S
C45 N47 1.279 . S
C45 C48 1.358 . S
C45 H51 0.930 . S
C46 C44 1.353 . S
C46 C49 1.348 . S
C46 H84 0.929 . S
N47 Li2 1.990 . S
N47 C44 1.314 . S
N47 C45 1.279 . S
C48 C45 1.358 . S
C48 C49 1.356 . S
C48 H85 0.930 . S
C49 C46 1.348 . S
C49 C48 1.356 . S
H50 C44 0.930 . S
H51 C45 0.930 . S
C52 N53 1.314 . S
C52 C54 1.353 . S
C52 H58 0.930 . S
N53 Li3 1.990 . S
N53 C52 1.314 . S
N53 C56 1.279 . S
C54 C52 1.353 . S
C54 C57 1.348 . S
C54 H86 0.929 . S
C55 C56 1.358 . S
C55 C57 1.356 . S
C55 H87 0.930 . S
C56 N53 1.279 . S
C56 C55 1.358 . S
C56 H59 0.930 . S
C57 C54 1.348 . S
C57 C55 1.356 . S
H58 C52 0.930 . S
H59 C56 0.930 . S
O60 Li0 1.956 . S
O60 Li1 1.970 . S
O60 Li2 1.961 . S
O60 C4 1.325 . S
O61 Li0 1.970 . S
O61 Li1 1.956 . S
O61 Li3 1.961 . S
O61 C10 1.325 . S
O62 Li0 1.961 . S
O62 Li2 1.956 . S
O62 Li3 1.970 . S
O62 C32 1.325 . S
O63 Li1 1.961 . S
O63 Li2 1.970 . S
O63 Li3 1.956 . S
O63 C38 1.325 . S
H64 C6 0.929 . S
H65 C7 0.930 . S
H66 C8 0.930 . S
H67 C9 0.930 . S
H68 C11 0.930 . S
H69 C13 0.929 . S
H70 C14 0.930 . S
H71 C15 0.930 . S
H72 C18 0.930 . S
H73 C21 0.929 . S
H74 C26 0.929 1_556 S
H75 C27 0.930 . S
H76 C34 0.929 . S
H77 C35 0.930 . S
H78 C36 0.930 . S
H79 C37 0.930 . S
H80 C39 0.929 . S
H81 C40 0.930 . S
H82 C41 0.930 . S
H83 C42 0.930 . S
H84 C46 0.929 . S
H85 C48 0.930 . S
H86 C54 0.929 . S
H87 C55 0.930 . S
Li88 N105 1.990 . S
Li88 O148 1.956 . S
Li88 O149 1.970 . S
Li88 O150 1.961 . S
Li89 N113 1.990 . S
Li89 O148 1.970 . S
Li89 O149 1.956 . S
Li89 O151 1.961 . S
Li90 N135 1.990 . S
Li90 O148 1.961 . S
Li90 O150 1.956 . S
Li90 O151 1.970 . S
Li91 N141 1.990 . S
Li91 O149 1.961 . S
Li91 O150 1.970 . S
Li91 O151 1.956 . S
C92 C94 1.348 . S
C92 C95 1.356 . S
C92 O148 1.325 . S
N93 C96 1.314 . S
N93 C97 1.279 . S
C94 C92 1.348 . S
C94 C96 1.353 . S
C94 H152 0.929 . S
C95 C92 1.356 . S
C95 C97 1.358 . S
C95 H153 0.930 . S
C96 N93 1.314 . S
C96 C94 1.353 . S
C96 H154 0.930 . S
C97 N93 1.279 . S
C97 C95 1.358 . S
C97 H155 0.930 . S
C98 C101 1.348 . S
C98 C102 1.356 . S
C98 O149 1.325 . S
C99 N100 1.279 . S
C99 C102 1.358 . S
C99 H156 0.930 . S
N100 C99 1.279 . S
N100 C103 1.314 . S
C101 C98 1.348 . S
C101 C103 1.353 . S
C101 H157 0.929 . S
C102 C98 1.356 . S
C102 C99 1.358 . S
C102 H158 0.930 . S
C103 N100 1.314 . S
C103 C101 1.353 . S
C103 H159 0.930 . S
C104 N105 1.314 . S
C104 C109 1.353 . S
C104 H110 0.930 . S
N105 Li88 1.990 . S
N105 C104 1.314 . S
N105 C107 1.279 . S
C106 C107 1.358 . S
C106 C108 1.356 . S
C106 H160 0.930 . S
C107 N105 1.279 . S
C107 C106 1.358 . S
C107 H111 0.930 . S
C108 C106 1.356 . S
C108 C109 1.348 . S
C109 C104 1.353 . S
C109 C108 1.348 . S
C109 H161 0.929 . S
H110 C104 0.930 . S
H111 C107 0.930 . S
C112 N113 1.314 . S
C112 C114 1.353 . S
C112 H118 0.930 . S
N113 Li89 1.990 . S
N113 C112 1.314 . S
N113 C116 1.279 . S
C114 C112 1.353 . S
C114 C117 1.348 . S
C114 H162 0.929 . S
C115 C116 1.358 . S
C115 C117 1.356 . S
C115 H163 0.930 . S
C116 N113 1.279 . S
C116 C115 1.358 . S
C116 H119 0.930 . S
C117 C114 1.348 . S
C117 C115 1.356 . S
H118 C112 0.930 . S
H119 C116 0.930 . S
C120 C122 1.348 . S
C120 C123 1.356 . S
C120 O150 1.325 . S
N121 C124 1.314 . S
N121 C125 1.279 . S
C122 C120 1.348 . S
C122 C124 1.353 . S
C122 H164 0.929 . S
C123 C120 1.356 . S
C123 C125 1.358 . S
C123 H165 0.930 . S
C124 N121 1.314 . S
C124 C122 1.353 . S
C124 H166 0.930 . S
C125 N121 1.279 . S
C125 C123 1.358 . S
C125 H167 0.930 . S
C126 C127 1.348 . S
C126 C128 1.356 . S
C126 O151 1.325 . S
C127 C126 1.348 . S
C127 C129 1.353 . S
C127 H168 0.929 . S
C128 C126 1.356 . S
C128 C130 1.358 . S
C128 H169 0.930 . S
C129 C127 1.353 . S
C129 N131 1.314 . S
C129 H170 0.930 . S
C130 C128 1.358 . S
C130 N131 1.279 . S
C130 H171 0.930 . S
N131 C129 1.314 . S
N131 C130 1.279 . S
C132 C134 1.353 . S
C132 N135 1.314 . S
C132 H138 0.930 . S
C133 N135 1.279 . S
C133 C136 1.358 . S
C133 H139 0.930 . S
C134 C132 1.353 . S
C134 C137 1.348 . S
C134 H172 0.929 . S
N135 Li90 1.990 . S
N135 C132 1.314 . S
N135 C133 1.279 . S
C136 C133 1.358 . S
C136 C137 1.356 . S
C136 H173 0.930 . S
C137 C134 1.348 . S
C137 C136 1.356 . S
H138 C132 0.930 . S
H139 C133 0.930 . S
C140 N141 1.314 . S
C140 C142 1.353 . S
C140 H146 0.930 . S
N141 Li91 1.990 . S
N141 C140 1.314 . S
N141 C144 1.279 . S
C142 C140 1.353 . S
C142 C145 1.348 . S
C142 H174 0.929 . S
C143 C144 1.358 . S
C143 C145 1.356 . S
C143 H175 0.930 . S
C144 N141 1.279 . S
C144 C143 1.358 . S
C144 H147 0.930 . S
C145 C142 1.348 . S
C145 C143 1.356 . S
H146 C140 0.930 . S
H147 C144 0.930 . S
O148 Li88 1.956 . S
O148 Li89 1.970 . S
O148 Li90 1.961 . S
O148 C92 1.325 . S
O149 Li88 1.970 . S
O149 Li89 1.956 . S
O149 Li91 1.961 . S
O149 C98 1.325 . S
O150 Li88 1.961 . S
O150 Li90 1.956 . S
O150 Li91 1.970 . S
O150 C120 1.325 . S
O151 Li89 1.961 . S
O151 Li90 1.970 . S
O151 Li91 1.956 . S
O151 C126 1.325 . S
H152 C94 0.929 . S
H153 C95 0.930 . S
H154 C96 0.930 . S
H155 C97 0.930 . S
H156 C99 0.930 . S
H157 C101 0.929 . S
H158 C102 0.930 . S
H159 C103 0.930 . S
H160 C106 0.930 . S
H161 C109 0.929 . S
H162 C114 0.929 . S
H163 C115 0.930 . S
H164 C122 0.929 . S
H165 C123 0.930 . S
H166 C124 0.930 . S
H167 C125 0.930 . S
H168 C127 0.929 . S
H169 C128 0.930 . S
H170 C129 0.930 . S
H171 C130 0.930 . S
H172 C134 0.929 . S
H173 C136 0.930 . S
H174 C142 0.929 . S
H175 C143 0.930 . S
Li176 N193 1.990 . S
Li176 O236 1.956 . S
Li176 O237 1.970 . S
Li176 O238 1.961 . S
Li177 N201 1.990 . S
Li177 O236 1.970 . S
Li177 O237 1.956 . S
Li177 O239 1.961 . S
Li178 N223 1.990 . S
Li178 O236 1.961 . S
Li178 O238 1.956 . S
Li178 O239 1.970 . S
Li179 N229 1.990 . S
Li179 O237 1.961 . S
Li179 O238 1.970 . S
Li179 O239 1.956 . S
C180 C182 1.348 . S
C180 C183 1.356 . S
C180 O236 1.325 . S
N181 C184 1.314 . S
N181 C185 1.279 . S
C182 C180 1.348 . S
C182 C184 1.353 . S
C182 H240 0.929 . S
C183 C180 1.356 . S
C183 C185 1.358 . S
C183 H241 0.930 . S
C184 N181 1.314 . S
C184 C182 1.353 . S
C184 H242 0.930 . S
C185 N181 1.279 . S
C185 C183 1.358 . S
C185 H243 0.930 . S
C186 C189 1.348 . S
C186 C190 1.356 . S
C186 O237 1.325 . S
C187 N188 1.279 . S
C187 C190 1.358 . S
C187 H244 0.930 . S
N188 C187 1.279 . S
N188 C191 1.314 . S
C189 C186 1.348 . S
C189 C191 1.353 . S
C189 H245 0.929 . S
C190 C186 1.356 . S
C190 C187 1.358 . S
C190 H246 0.930 . S
C191 N188 1.314 . S
C191 C189 1.353 . S
C191 H247 0.930 . S
C192 N193 1.314 . S
C192 C197 1.353 . S
C192 H198 0.930 . S
N193 Li176 1.990 . S
N193 C192 1.314 . S
N193 C195 1.279 . S
C194 C195 1.358 . S
C194 C196 1.356 . S
C194 H248 0.930 . S
C195 N193 1.279 . S
C195 C194 1.358 . S
C195 H199 0.930 . S
C196 C194 1.356 . S
C196 C197 1.348 . S
C197 C192 1.353 . S
C197 C196 1.348 . S
C197 H249 0.929 . S
H198 C192 0.930 . S
H199 C195 0.930 . S
C200 N201 1.314 . S
C200 C202 1.353 . S
C200 H206 0.930 . S
N201 Li177 1.990 . S
N201 C200 1.314 . S
N201 C204 1.279 . S
C202 C200 1.353 . S
C202 C205 1.348 . S
C202 H250 0.929 . S
C203 C204 1.358 . S
C203 C205 1.356 . S
C203 H251 0.930 . S
C204 N201 1.279 . S
C204 C203 1.358 . S
C204 H207 0.930 . S
C205 C202 1.348 . S
C205 C203 1.356 . S
H206 C200 0.930 . S
H207 C204 0.930 . S
C208 C210 1.348 . S
C208 C211 1.356 . S
C208 O238 1.325 . S
N209 C212 1.314 . S
N209 C213 1.279 . S
C210 C208 1.348 . S
C210 C212 1.353 . S
C210 H252 0.929 . S
C211 C208 1.356 . S
C211 C213 1.358 . S
C211 H253 0.930 . S
C212 N209 1.314 . S
C212 C210 1.353 . S
C212 H254 0.930 . S
C213 N209 1.279 . S
C213 C211 1.358 . S
C213 H255 0.930 . S
C214 C215 1.348 . S
C214 C216 1.356 . S
C214 O239 1.325 . S
C215 C214 1.348 . S
C215 C217 1.353 . S
C215 H256 0.929 . S
C216 C214 1.356 . S
C216 C218 1.358 . S
C216 H257 0.930 . S
C217 C215 1.353 . S
C217 N219 1.314 . S
C217 H258 0.930 . S
C218 C216 1.358 . S
C218 N219 1.279 . S
C218 H259 0.930 . S
N219 C217 1.314 . S
N219 C218 1.279 . S
C220 C222 1.353 . S
C220 N223 1.314 . S
C220 H226 0.930 . S
C221 N223 1.279 . S
C221 C224 1.358 . S
C221 H227 0.930 . S
C222 C220 1.353 . S
C222 C225 1.348 . S
C222 H260 0.929 . S
N223 Li178 1.990 . S
N223 C220 1.314 . S
N223 C221 1.279 . S
C224 C221 1.358 . S
C224 C225 1.356 . S
C224 H261 0.930 . S
C225 C222 1.348 . S
C225 C224 1.356 . S
H226 C220 0.930 . S
H227 C221 0.930 . S
C228 N229 1.314 . S
C228 C230 1.353 . S
C228 H234 0.930 . S
N229 Li179 1.990 . S
N229 C228 1.314 . S
N229 C232 1.279 . S
C230 C228 1.353 . S
C230 C233 1.348 . S
C230 H262 0.929 . S
C231 C232 1.358 . S
C231 C233 1.356 . S
C231 H263 0.930 . S
C232 N229 1.279 . S
C232 C231 1.358 . S
C232 H235 0.930 . S
C233 C230 1.348 . S
C233 C231 1.356 . S
H234 C228 0.930 . S
H235 C232 0.930 . S
O236 Li176 1.956 . S
O236 Li177 1.970 . S
O236 Li178 1.961 . S
O236 C180 1.325 . S
O237 Li176 1.970 . S
O237 Li177 1.956 . S
O237 Li179 1.961 . S
O237 C186 1.325 . S
O238 Li176 1.961 . S
O238 Li178 1.956 . S
O238 Li179 1.970 . S
O238 C208 1.325 . S
O239 Li177 1.961 . S
O239 Li178 1.970 . S
O239 Li179 1.956 . S
O239 C214 1.325 . S
H240 C182 0.929 . S
H241 C183 0.930 . S
H242 C184 0.930 . S
H243 C185 0.930 . S
H244 C187 0.930 . S
H245 C189 0.929 . S
H246 C190 0.930 . S
H247 C191 0.930 . S
H248 C194 0.930 . S
H249 C197 0.929 . S
H250 C202 0.929 . S
H251 C203 0.930 . S
H252 C210 0.929 . S
H253 C211 0.930 . S
H254 C212 0.930 . S
H255 C213 0.930 . S
H256 C215 0.929 . S
H257 C216 0.930 . S
H258 C217 0.930 . S
H259 C218 0.930 . S
H260 C222 0.929 . S
H261 C224 0.930 . S
H262 C230 0.929 . S
H263 C231 0.930 . S
Li264 N281 1.990 . S
Li264 O324 1.956 . S
Li264 O325 1.970 . S
Li264 O326 1.961 . S
Li265 N289 1.990 . S
Li265 O324 1.970 . S
Li265 O325 1.956 . S
Li265 O327 1.961 . S
Li266 N311 1.990 . S
Li266 O324 1.961 . S
Li266 O326 1.956 . S
Li266 O327 1.970 . S
Li267 N317 1.990 . S
Li267 O325 1.961 . S
Li267 O326 1.970 . S
Li267 O327 1.956 . S
C268 C270 1.348 . S
C268 C271 1.356 . S
C268 O324 1.325 . S
N269 C272 1.314 . S
N269 C273 1.279 . S
C270 C268 1.348 . S
C270 C272 1.353 . S
C270 H328 0.929 . S
C271 C268 1.356 . S
C271 C273 1.358 . S
C271 H329 0.930 . S
C272 N269 1.314 . S
C272 C270 1.353 . S
C272 H330 0.930 . S
C273 N269 1.279 . S
C273 C271 1.358 . S
C273 H331 0.930 . S
C274 C277 1.348 . S
C274 C278 1.356 . S
C274 O325 1.325 . S
C275 N276 1.279 . S
C275 C278 1.358 . S
C275 H332 0.930 . S
N276 C275 1.279 . S
N276 C279 1.314 . S
C277 C274 1.348 . S
C277 C279 1.353 . S
C277 H333 0.929 . S
C278 C274 1.356 . S
C278 C275 1.358 . S
C278 H334 0.930 . S
C279 N276 1.314 . S
C279 C277 1.353 . S
C279 H335 0.930 . S
C280 N281 1.314 . S
C280 C285 1.353 . S
C280 H286 0.930 . S
N281 Li264 1.990 . S
N281 C280 1.314 . S
N281 C283 1.279 . S
C282 C283 1.358 . S
C282 C284 1.356 . S
C282 H336 0.930 . S
C283 N281 1.279 . S
C283 C282 1.358 . S
C283 H287 0.930 . S
C284 C282 1.356 . S
C284 C285 1.348 . S
C285 C280 1.353 . S
C285 C284 1.348 . S
C285 H337 0.929 1_554 S
H286 C280 0.930 . S
H287 C283 0.930 . S
C288 N289 1.314 . S
C288 C290 1.353 . S
C288 H294 0.930 . S
N289 Li265 1.990 . S
N289 C288 1.314 . S
N289 C292 1.279 . S
C290 C288 1.353 . S
C290 C293 1.348 . S
C290 H338 0.929 . S
C291 C292 1.358 . S
C291 C293 1.356 . S
C291 H339 0.930 . S
C292 N289 1.279 . S
C292 C291 1.358 . S
C292 H295 0.930 . S
C293 C290 1.348 . S
C293 C291 1.356 . S
H294 C288 0.930 . S
H295 C292 0.930 . S
C296 C298 1.348 . S
C296 C299 1.356 . S
C296 O326 1.325 . S
N297 C300 1.314 . S
N297 C301 1.279 . S
C298 C296 1.348 . S
C298 C300 1.353 1_554 S
C298 H340 0.929 . S
C299 C296 1.356 . S
C299 C301 1.358 1_554 S
C299 H341 0.930 . S
C300 N297 1.314 . S
C300 C298 1.353 1_556 S
C300 H342 0.930 . S
C301 N297 1.279 . S
C301 C299 1.358 1_556 S
C301 H343 0.930 . S
C302 C303 1.348 . S
C302 C304 1.356 . S
C302 O327 1.325 . S
C303 C302 1.348 . S
C303 C305 1.353 . S
C303 H344 0.929 . S
C304 C302 1.356 . S
C304 C306 1.358 . S
C304 H345 0.930 . S
C305 C303 1.353 . S
C305 N307 1.314 . S
C305 H346 0.930 . S
C306 C304 1.358 . S
C306 N307 1.279 . S
C306 H347 0.930 . S
N307 C305 1.314 . S
N307 C306 1.279 . S
C308 C310 1.353 . S
C308 N311 1.314 . S
C308 H314 0.930 . S
C309 N311 1.279 . S
C309 C312 1.358 . S
C309 H315 0.930 . S
C310 C308 1.353 . S
C310 C313 1.348 . S
C310 H348 0.929 . S
N311 Li266 1.990 . S
N311 C308 1.314 . S
N311 C309 1.279 . S
C312 C309 1.358 . S
C312 C313 1.356 . S
C312 H349 0.930 . S
C313 C310 1.348 . S
C313 C312 1.356 . S
H314 C308 0.930 . S
H315 C309 0.930 . S
C316 N317 1.314 . S
C316 C318 1.353 . S
C316 H322 0.930 . S
N317 Li267 1.990 . S
N317 C316 1.314 . S
N317 C320 1.279 . S
C318 C316 1.353 . S
C318 C321 1.348 . S
C318 H350 0.929 . S
C319 C320 1.358 . S
C319 C321 1.356 . S
C319 H351 0.930 . S
C320 N317 1.279 . S
C320 C319 1.358 . S
C320 H323 0.930 . S
C321 C318 1.348 . S
C321 C319 1.356 . S
H322 C316 0.930 . S
H323 C320 0.930 . S
O324 Li264 1.956 . S
O324 Li265 1.970 . S
O324 Li266 1.961 . S
O324 C268 1.325 . S
O325 Li264 1.970 . S
O325 Li265 1.956 . S
O325 Li267 1.961 . S
O325 C274 1.325 . S
O326 Li264 1.961 . S
O326 Li266 1.956 . S
O326 Li267 1.970 . S
O326 C296 1.325 . S
O327 Li265 1.961 . S
O327 Li266 1.970 . S
O327 Li267 1.956 . S
O327 C302 1.325 . S
H328 C270 0.929 . S
H329 C271 0.930 . S
H330 C272 0.930 . S
H331 C273 0.930 . S
H332 C275 0.930 . S
H333 C277 0.929 . S
H334 C278 0.930 . S
H335 C279 0.930 . S
H336 C282 0.930 . S
H337 C285 0.929 1_556 S
H338 C290 0.929 . S
H339 C291 0.930 . S
H340 C298 0.929 . S
H341 C299 0.930 . S
H342 C300 0.930 . S
H343 C301 0.930 . S
H344 C303 0.929 . S
H345 C304 0.930 . S
H346 C305 0.930 . S
H347 C306 0.930 . S
H348 C310 0.929 . S
H349 C312 0.930 . S
H350 C318 0.929 . S
H351 C319 0.930 . S
Li352 N369 1.990 . S
Li352 O412 1.956 . S
Li352 O413 1.970 . S
Li352 O414 1.961 . S
Li353 N377 1.990 . S
Li353 O412 1.970 . S
Li353 O413 1.956 . S
Li353 O415 1.961 . S
Li354 N399 1.990 . S
Li354 O412 1.961 . S
Li354 O414 1.956 . S
Li354 O415 1.970 . S
Li355 N405 1.990 . S
Li355 O413 1.961 . S
Li355 O414 1.970 . S
Li355 O415 1.956 . S
C356 C358 1.348 . S
C356 C359 1.356 . S
C356 O412 1.325 . S
N357 C360 1.314 . S
N357 C361 1.279 . S
C358 C356 1.348 . S
C358 C360 1.353 . S
C358 H416 0.929 . S
C359 C356 1.356 . S
C359 C361 1.358 . S
C359 H417 0.930 . S
C360 N357 1.314 . S
C360 C358 1.353 . S
C360 H418 0.930 . S
C361 N357 1.279 . S
C361 C359 1.358 . S
C361 H419 0.930 . S
C362 C365 1.348 . S
C362 C366 1.356 . S
C362 O413 1.325 . S
C363 N364 1.279 . S
C363 C366 1.358 . S
C363 H420 0.930 . S
N364 C363 1.279 . S
N364 C367 1.314 . S
C365 C362 1.348 . S
C365 C367 1.353 . S
C365 H421 0.929 . S
C366 C362 1.356 . S
C366 C363 1.358 . S
C366 H422 0.930 . S
C367 N364 1.314 . S
C367 C365 1.353 . S
C367 H423 0.930 . S
C368 N369 1.314 . S
C368 C373 1.353 . S
C368 H374 0.930 . S
N369 Li352 1.990 . S
N369 C368 1.314 . S
N369 C371 1.279 . S
C370 C371 1.358 . S
C370 C372 1.356 . S
C370 H424 0.930 . S
C371 N369 1.279 . S
C371 C370 1.358 . S
C371 H375 0.930 . S
C372 C370 1.356 . S
C372 C373 1.348 . S
C373 C368 1.353 . S
C373 C372 1.348 . S
C373 H425 0.929 . S
H374 C368 0.930 . S
H375 C371 0.930 . S
C376 N377 1.314 . S
C376 C378 1.353 . S
C376 H382 0.930 . S
N377 Li353 1.990 . S
N377 C376 1.314 . S
N377 C380 1.279 . S
C378 C376 1.353 . S
C378 C381 1.348 . S
C378 H426 0.929 . S
C379 C380 1.358 . S
C379 C381 1.356 . S
C379 H427 0.930 . S
C380 N377 1.279 . S
C380 C379 1.358 . S
C380 H383 0.930 . S
C381 C378 1.348 . S
C381 C379 1.356 . S
H382 C376 0.930 . S
H383 C380 0.930 . S
C384 C386 1.348 . S
C384 C387 1.356 . S
C384 O414 1.325 . S
N385 C388 1.314 . S
N385 C389 1.279 . S
C386 C384 1.348 . S
C386 C388 1.353 . S
C386 H428 0.929 . S
C387 C384 1.356 . S
C387 C389 1.358 . S
C387 H429 0.930 . S
C388 N385 1.314 . S
C388 C386 1.353 . S
C388 H430 0.930 . S
C389 N385 1.279 . S
C389 C387 1.358 . S
C389 H431 0.930 . S
C390 C391 1.348 . S
C390 C392 1.356 . S
C390 O415 1.325 . S
C391 C390 1.348 . S
C391 C393 1.353 . S
C391 H432 0.929 . S
C392 C390 1.356 . S
C392 C394 1.358 . S
C392 H433 0.930 . S
C393 C391 1.353 . S
C393 N395 1.314 . S
C393 H434 0.930 . S
C394 C392 1.358 . S
C394 N395 1.279 . S
C394 H435 0.930 . S
N395 C393 1.314 . S
N395 C394 1.279 . S
C396 C398 1.353 . S
C396 N399 1.314 . S
C396 H402 0.930 . S
C397 N399 1.279 . S
C397 C400 1.358 . S
C397 H403 0.930 . S
C398 C396 1.353 . S
C398 C401 1.348 . S
C398 H436 0.929 . S
N399 Li354 1.990 . S
N399 C396 1.314 . S
N399 C397 1.279 . S
C400 C397 1.358 . S
C400 C401 1.356 . S
C400 H437 0.930 . S
C401 C398 1.348 . S
C401 C400 1.356 . S
H402 C396 0.930 . S
H403 C397 0.930 . S
C404 N405 1.314 . S
C404 C406 1.353 . S
C404 H410 0.930 . S
N405 Li355 1.990 . S
N405 C404 1.314 . S
N405 C408 1.279 . S
C406 C404 1.353 . S
C406 C409 1.348 . S
C406 H438 0.929 . S
C407 C408 1.358 . S
C407 C409 1.356 . S
C407 H439 0.930 . S
C408 N405 1.279 . S
C408 C407 1.358 . S
C408 H411 0.930 . S
C409 C406 1.348 . S
C409 C407 1.356 . S
H410 C404 0.930 . S
H411 C408 0.930 . S
O412 Li352 1.956 . S
O412 Li353 1.970 . S
O412 Li354 1.961 . S
O412 C356 1.325 . S
O413 Li352 1.970 . S
O413 Li353 1.956 . S
O413 Li355 1.961 . S
O413 C362 1.325 . S
O414 Li352 1.961 . S
O414 Li354 1.956 . S
O414 Li355 1.970 . S
O414 C384 1.325 . S
O415 Li353 1.961 . S
O415 Li354 1.970 . S
O415 Li355 1.956 . S
O415 C390 1.325 . S
H416 C358 0.929 . S
H417 C359 0.930 . S
H418 C360 0.930 . S
H419 C361 0.930 . S
H420 C363 0.930 . S
H421 C365 0.929 . S
H422 C366 0.930 . S
H423 C367 0.930 . S
H424 C370 0.930 . S
H425 C373 0.929 . S
H426 C378 0.929 . S
H427 C379 0.930 . S
H428 C386 0.929 . S
H429 C387 0.930 . S
H430 C388 0.930 . S
H431 C389 0.930 . S
H432 C391 0.929 . S
H433 C392 0.930 . S
H434 C393 0.930 . S
H435 C394 0.930 . S
H436 C398 0.929 . S
H437 C400 0.930 . S
H438 C406 0.929 . S
H439 C407 0.930 . S
Li440 N457 1.990 . S
Li440 O500 1.956 . S
Li440 O501 1.970 . S
Li440 O502 1.961 . S
Li441 N465 1.990 . S
Li441 O500 1.970 . S
Li441 O501 1.956 . S
Li441 O503 1.961 . S
Li442 N487 1.990 . S
Li442 O500 1.961 . S
Li442 O502 1.956 . S
Li442 O503 1.970 . S
Li443 N493 1.990 . S
Li443 O501 1.961 . S
Li443 O502 1.970 . S
Li443 O503 1.956 . S
C444 C446 1.348 . S
C444 C447 1.356 . S
C444 O500 1.325 . S
N445 C448 1.314 . S
N445 C449 1.279 . S
C446 C444 1.348 . S
C446 C448 1.353 . S
C446 H504 0.929 . S
C447 C444 1.356 . S
C447 C449 1.358 . S
C447 H505 0.930 . S
C448 N445 1.314 . S
C448 C446 1.353 . S
C448 H506 0.930 . S
C449 N445 1.279 . S
C449 C447 1.358 . S
C449 H507 0.930 . S
C450 C453 1.348 . S
C450 C454 1.356 . S
C450 O501 1.325 . S
C451 N452 1.279 . S
C451 C454 1.358 . S
C451 H508 0.930 . S
N452 C451 1.279 . S
N452 C455 1.314 . S
C453 C450 1.348 . S
C453 C455 1.353 . S
C453 H509 0.929 . S
C454 C450 1.356 . S
C454 C451 1.358 . S
C454 H510 0.930 . S
C455 N452 1.314 . S
C455 C453 1.353 . S
C455 H511 0.930 . S
C456 N457 1.314 . S
C456 C461 1.353 . S
C456 H462 0.930 . S
N457 Li440 1.990 . S
N457 C456 1.314 . S
N457 C459 1.279 . S
C458 C459 1.358 . S
C458 C460 1.356 . S
C458 H512 0.930 . S
C459 N457 1.279 . S
C459 C458 1.358 . S
C459 H463 0.930 . S
C460 C458 1.356 . S
C460 C461 1.348 . S
C461 C456 1.353 . S
C461 C460 1.348 . S
C461 H513 0.929 . S
H462 C456 0.930 . S
H463 C459 0.930 . S
C464 N465 1.314 . S
C464 C466 1.353 . S
C464 H470 0.930 . S
N465 Li441 1.990 . S
N465 C464 1.314 . S
N465 C468 1.279 . S
C466 C464 1.353 . S
C466 C469 1.348 . S
C466 H514 0.929 . S
C467 C468 1.358 . S
C467 C469 1.356 . S
C467 H515 0.930 . S
C468 N465 1.279 . S
C468 C467 1.358 . S
C468 H471 0.930 . S
C469 C466 1.348 . S
C469 C467 1.356 . S
H470 C464 0.930 . S
H471 C468 0.930 . S
C472 C474 1.348 . S
C472 C475 1.356 . S
C472 O502 1.325 . S
N473 C476 1.314 . S
N473 C477 1.279 . S
C474 C472 1.348 . S
C474 C476 1.353 . S
C474 H516 0.929 . S
C475 C472 1.356 . S
C475 C477 1.358 . S
C475 H517 0.930 . S
C476 N473 1.314 . S
C476 C474 1.353 . S
C476 H518 0.930 . S
C477 N473 1.279 . S
C477 C475 1.358 . S
C477 H519 0.930 . S
C478 C479 1.348 . S
C478 C480 1.356 . S
C478 O503 1.325 . S
C479 C478 1.348 . S
C479 C481 1.353 . S
C479 H520 0.929 . S
C480 C478 1.356 . S
C480 C482 1.358 . S
C480 H521 0.930 . S
C481 C479 1.353 . S
C481 N483 1.314 . S
C481 H522 0.930 . S
C482 C480 1.358 . S
C482 N483 1.279 . S
C482 H523 0.930 . S
N483 C481 1.314 . S
N483 C482 1.279 . S
C484 C486 1.353 . S
C484 N487 1.314 . S
C484 H490 0.930 . S
C485 N487 1.279 . S
C485 C488 1.358 . S
C485 H491 0.930 . S
C486 C484 1.353 . S
C486 C489 1.348 . S
C486 H524 0.929 . S
N487 Li442 1.990 . S
N487 C484 1.314 . S
N487 C485 1.279 . S
C488 C485 1.358 . S
C488 C489 1.356 . S
C488 H525 0.930 . S
C489 C486 1.348 . S
C489 C488 1.356 . S
H490 C484 0.930 . S
H491 C485 0.930 . S
C492 N493 1.314 . S
C492 C494 1.353 . S
C492 H498 0.930 . S
N493 Li443 1.990 . S
N493 C492 1.314 . S
N493 C496 1.279 . S
C494 C492 1.353 . S
C494 C497 1.348 . S
C494 H526 0.929 . S
C495 C496 1.358 . S
C495 C497 1.356 . S
C495 H527 0.930 . S
C496 N493 1.279 . S
C496 C495 1.358 . S
C496 H499 0.930 . S
C497 C494 1.348 . S
C497 C495 1.356 . S
H498 C492 0.930 . S
H499 C496 0.930 . S
O500 Li440 1.956 . S
O500 Li441 1.970 . S
O500 Li442 1.961 . S
O500 C444 1.325 . S
O501 Li440 1.970 . S
O501 Li441 1.956 . S
O501 Li443 1.961 . S
O501 C450 1.325 . S
O502 Li440 1.961 . S
O502 Li442 1.956 . S
O502 Li443 1.970 . S
O502 C472 1.325 . S
O503 Li441 1.961 . S
O503 Li442 1.970 . S
O503 Li443 1.956 . S
O503 C478 1.325 . S
H504 C446 0.929 . S
H505 C447 0.930 . S
H506 C448 0.930 . S
H507 C449 0.930 . S
H508 C451 0.930 . S
H509 C453 0.929 . S
H510 C454 0.930 . S
H511 C455 0.930 . S
H512 C458 0.930 . S
H513 C461 0.929 . S
H514 C466 0.929 . S
H515 C467 0.930 . S
H516 C474 0.929 . S
H517 C475 0.930 . S
H518 C476 0.930 . S
H519 C477 0.930 . S
H520 C479 0.929 . S
H521 C480 0.930 . S
H522 C481 0.930 . S
H523 C482 0.930 . S
H524 C486 0.929 . S
H525 C488 0.930 . S
H526 C494 0.929 . S
H527 C495 0.930 . S
Li528 N545 1.990 . S
Li528 O588 1.956 . S
Li528 O589 1.970 . S
Li528 O590 1.961 . S
Li529 N553 1.990 . S
Li529 O588 1.970 . S
Li529 O589 1.956 . S
Li529 O591 1.961 . S
Li530 N575 1.990 . S
Li530 O588 1.961 . S
Li530 O590 1.956 . S
Li530 O591 1.970 . S
Li531 N581 1.990 . S
Li531 O589 1.961 . S
Li531 O590 1.970 . S
Li531 O591 1.956 . S
C532 C534 1.348 . S
C532 C535 1.356 . S
C532 O588 1.325 . S
N533 C536 1.314 . S
N533 C537 1.279 . S
C534 C532 1.348 . S
C534 C536 1.353 . S
C534 H592 0.929 . S
C535 C532 1.356 . S
C535 C537 1.358 . S
C535 H593 0.930 . S
C536 N533 1.314 . S
C536 C534 1.353 . S
C536 H594 0.930 . S
C537 N533 1.279 . S
C537 C535 1.358 . S
C537 H595 0.930 . S
C538 C541 1.348 . S
C538 C542 1.356 . S
C538 O589 1.325 . S
C539 N540 1.279 . S
C539 C542 1.358 . S
C539 H596 0.930 . S
N540 C539 1.279 . S
N540 C543 1.314 . S
C541 C538 1.348 . S
C541 C543 1.353 . S
C541 H597 0.929 . S
C542 C538 1.356 . S
C542 C539 1.358 . S
C542 H598 0.930 . S
C543 N540 1.314 . S
C543 C541 1.353 . S
C543 H599 0.930 . S
C544 N545 1.314 . S
C544 C549 1.353 . S
C544 H550 0.930 . S
N545 Li528 1.990 . S
N545 C544 1.314 . S
N545 C547 1.279 . S
C546 C547 1.358 . S
C546 C548 1.356 . S
C546 H600 0.930 . S
C547 N545 1.279 . S
C547 C546 1.358 . S
C547 H551 0.930 . S
C548 C546 1.356 . S
C548 C549 1.348 . S
C549 C544 1.353 . S
C549 C548 1.348 . S
C549 H601 0.929 . S
H550 C544 0.930 . S
H551 C547 0.930 . S
C552 N553 1.314 . S
C552 C554 1.353 . S
C552 H558 0.930 . S
N553 Li529 1.990 . S
N553 C552 1.314 . S
N553 C556 1.279 . S
C554 C552 1.353 . S
C554 C557 1.348 . S
C554 H602 0.929 . S
C555 C556 1.358 . S
C555 C557 1.356 . S
C555 H603 0.930 . S
C556 N553 1.279 . S
C556 C555 1.358 . S
C556 H559 0.930 . S
C557 C554 1.348 . S
C557 C555 1.356 . S
H558 C552 0.930 . S
H559 C556 0.930 . S
C560 C562 1.348 . S
C560 C563 1.356 . S
C560 O590 1.325 . S
N561 C564 1.314 . S
N561 C565 1.279 . S
C562 C560 1.348 . S
C562 C564 1.353 . S
C562 H604 0.929 . S
C563 C560 1.356 . S
C563 C565 1.358 . S
C563 H605 0.930 . S
C564 N561 1.314 . S
C564 C562 1.353 . S
C564 H606 0.930 . S
C565 N561 1.279 . S
C565 C563 1.358 . S
C565 H607 0.930 . S
C566 C567 1.348 . S
C566 C568 1.356 . S
C566 O591 1.325 . S
C567 C566 1.348 . S
C567 C569 1.353 . S
C567 H608 0.929 . S
C568 C566 1.356 . S
C568 C570 1.358 . S
C568 H609 0.930 . S
C569 C567 1.353 . S
C569 N571 1.314 . S
C569 H610 0.930 . S
C570 C568 1.358 . S
C570 N571 1.279 . S
C570 H611 0.930 . S
N571 C569 1.314 . S
N571 C570 1.279 . S
C572 C574 1.353 . S
C572 N575 1.314 . S
C572 H578 0.930 . S
C573 N575 1.279 . S
C573 C576 1.358 . S
C573 H579 0.930 . S
C574 C572 1.353 . S
C574 C577 1.348 . S
C574 H612 0.929 . S
N575 Li530 1.990 . S
N575 C572 1.314 . S
N575 C573 1.279 . S
C576 C573 1.358 . S
C576 C577 1.356 . S
C576 H613 0.930 . S
C577 C574 1.348 . S
C577 C576 1.356 . S
H578 C572 0.930 . S
H579 C573 0.930 . S
C580 N581 1.314 . S
C580 C582 1.353 . S
C580 H586 0.930 . S
N581 Li531 1.990 . S
N581 C580 1.314 . S
N581 C584 1.279 . S
C582 C580 1.353 . S
C582 C585 1.348 . S
C582 H614 0.929 . S
C583 C584 1.358 . S
C583 C585 1.356 . S
C583 H615 0.930 . S
C584 N581 1.279 . S
C584 C583 1.358 . S
C584 H587 0.930 . S
C585 C582 1.348 . S
C585 C583 1.356 . S
H586 C580 0.930 . S
H587 C584 0.930 . S
O588 Li528 1.956 . S
O588 Li529 1.970 . S
O588 Li530 1.961 . S
O588 C532 1.325 . S
O589 Li528 1.970 . S
O589 Li529 1.956 . S
O589 Li531 1.961 . S
O589 C538 1.325 . S
O590 Li528 1.961 . S
O590 Li530 1.956 . S
O590 Li531 1.970 . S
O590 C560 1.325 . S
O591 Li529 1.961 . S
O591 Li530 1.970 . S
O591 Li531 1.956 . S
O591 C566 1.325 . S
H592 C534 0.929 . S
H593 C535 0.930 . S
H594 C536 0.930 . S
H595 C537 0.930 . S
H596 C539 0.930 . S
H597 C541 0.929 . S
H598 C542 0.930 . S
H599 C543 0.930 . S
H600 C546 0.930 . S
H601 C549 0.929 . S
H602 C554 0.929 . S
H603 C555 0.930 . S
H604 C562 0.929 . S
H605 C563 0.930 . S
H606 C564 0.930 . S
H607 C565 0.930 . S
H608 C567 0.929 . S
H609 C568 0.930 . S
H610 C569 0.930 . S
H611 C570 0.930 . S
H612 C574 0.929 . S
H613 C576 0.930 . S
H614 C582 0.929 . S
H615 C583 0.930 . S
Li616 N633 1.990 . S
Li616 O676 1.956 . S
Li616 O677 1.970 . S
Li616 O678 1.961 . S
Li617 N641 1.990 . S
Li617 O676 1.970 . S
Li617 O677 1.956 . S
Li617 O679 1.961 . S
Li618 N663 1.990 . S
Li618 O676 1.961 . S
Li618 O678 1.956 . S
Li618 O679 1.970 . S
Li619 N669 1.990 . S
Li619 O677 1.961 . S
Li619 O678 1.970 . S
Li619 O679 1.956 . S
C620 C622 1.348 . S
C620 C623 1.356 . S
C620 O676 1.325 . S
N621 C624 1.314 . S
N621 C625 1.279 . S
C622 C620 1.348 . S
C622 C624 1.353 . S
C622 H680 0.929 . S
C623 C620 1.356 . S
C623 C625 1.358 . S
C623 H681 0.930 . S
C624 N621 1.314 . S
C624 C622 1.353 . S
C624 H682 0.930 . S
C625 N621 1.279 . S
C625 C623 1.358 . S
C625 H683 0.930 . S
C626 C629 1.348 . S
C626 C630 1.356 . S
C626 O677 1.325 . S
C627 N628 1.279 . S
C627 C630 1.358 1_554 S
C627 H684 0.930 . S
N628 C627 1.279 . S
N628 C631 1.314 . S
C629 C626 1.348 . S
C629 C631 1.353 1_556 S
C629 H685 0.929 . S
C630 C626 1.356 . S
C630 C627 1.358 1_556 S
C630 H686 0.930 . S
C631 N628 1.314 . S
C631 C629 1.353 1_554 S
C631 H687 0.930 . S
C632 N633 1.314 . S
C632 C637 1.353 . S
C632 H638 0.930 . S
N633 Li616 1.990 . S
N633 C632 1.314 . S
N633 C635 1.279 . S
C634 C635 1.358 . S
C634 C636 1.356 . S
C634 H688 0.930 . S
C635 N633 1.279 . S
C635 C634 1.358 . S
C635 H639 0.930 . S
C636 C634 1.356 . S
C636 C637 1.348 . S
C637 C632 1.353 . S
C637 C636 1.348 . S
C637 H689 0.929 . S
H638 C632 0.930 . S
H639 C635 0.930 . S
C640 N641 1.314 . S
C640 C642 1.353 . S
C640 H646 0.930 . S
N641 Li617 1.990 . S
N641 C640 1.314 . S
N641 C644 1.279 . S
C642 C640 1.353 . S
C642 C645 1.348 . S
C642 H690 0.929 . S
C643 C644 1.358 . S
C643 C645 1.356 . S
C643 H691 0.930 . S
C644 N641 1.279 . S
C644 C643 1.358 . S
C644 H647 0.930 . S
C645 C642 1.348 . S
C645 C643 1.356 . S
H646 C640 0.930 . S
H647 C644 0.930 . S
C648 C650 1.348 . S
C648 C651 1.356 . S
C648 O678 1.325 . S
N649 C652 1.314 . S
N649 C653 1.279 . S
C650 C648 1.348 . S
C650 C652 1.353 . S
C650 H692 0.929 . S
C651 C648 1.356 . S
C651 C653 1.358 . S
C651 H693 0.930 . S
C652 N649 1.314 . S
C652 C650 1.353 . S
C652 H694 0.930 . S
C653 N649 1.279 . S
C653 C651 1.358 . S
C653 H695 0.930 . S
C654 C655 1.348 . S
C654 C656 1.356 . S
C654 O679 1.325 . S
C655 C654 1.348 . S
C655 C657 1.353 . S
C655 H696 0.929 . S
C656 C654 1.356 . S
C656 C658 1.358 . S
C656 H697 0.930 . S
C657 C655 1.353 . S
C657 N659 1.314 . S
C657 H698 0.930 . S
C658 C656 1.358 . S
C658 N659 1.279 . S
C658 H699 0.930 . S
N659 C657 1.314 . S
N659 C658 1.279 . S
C660 C662 1.353 . S
C660 N663 1.314 . S
C660 H666 0.930 . S
C661 N663 1.279 . S
C661 C664 1.358 . S
C661 H667 0.930 . S
C662 C660 1.353 . S
C662 C665 1.348 . S
C662 H700 0.929 . S
N663 Li618 1.990 . S
N663 C660 1.314 . S
N663 C661 1.279 . S
C664 C661 1.358 . S
C664 C665 1.356 . S
C664 H701 0.930 . S
C665 C662 1.348 . S
C665 C664 1.356 . S
H666 C660 0.930 . S
H667 C661 0.930 . S
C668 N669 1.314 . S
C668 C670 1.353 . S
C668 H674 0.930 . S
N669 Li619 1.990 . S
N669 C668 1.314 . S
N669 C672 1.279 . S
C670 C668 1.353 . S
C670 C673 1.348 . S
C670 H702 0.929 1_556 S
C671 C672 1.358 . S
C671 C673 1.356 . S
C671 H703 0.930 . S
C672 N669 1.279 . S
C672 C671 1.358 . S
C672 H675 0.930 . S
C673 C670 1.348 . S
C673 C671 1.356 . S
H674 C668 0.930 . S
H675 C672 0.930 . S
O676 Li616 1.956 . S
O676 Li617 1.970 . S
O676 Li618 1.961 . S
O676 C620 1.325 . S
O677 Li616 1.970 . S
O677 Li617 1.956 . S
O677 Li619 1.961 . S
O677 C626 1.325 . S
O678 Li616 1.961 . S
O678 Li618 1.956 . S
O678 Li619 1.970 . S
O678 C648 1.325 . S
O679 Li617 1.961 . S
O679 Li618 1.970 . S
O679 Li619 1.956 . S
O679 C654 1.325 . S
H680 C622 0.929 . S
H681 C623 0.930 . S
H682 C624 0.930 . S
H683 C625 0.930 . S
H684 C627 0.930 . S
H685 C629 0.929 . S
H686 C630 0.930 . S
H687 C631 0.930 . S
H688 C634 0.930 . S
H689 C637 0.929 . S
H690 C642 0.929 . S
H691 C643 0.930 . S
H692 C650 0.929 . S
H693 C651 0.930 . S
H694 C652 0.930 . S
H695 C653 0.930 . S
H696 C655 0.929 . S
H697 C656 0.930 . S
H698 C657 0.930 . S
H699 C658 0.930 . S
H700 C662 0.929 . S
H701 C664 0.930 . S
H702 C670 0.929 1_554 S
H703 C671 0.930 . S
Li704 N721 1.990 . S
Li704 O764 1.956 . S
Li704 O765 1.970 . S
Li704 O766 1.961 . S
Li705 N729 1.990 . S
Li705 O764 1.970 . S
Li705 O765 1.956 . S
Li705 O767 1.961 . S
Li706 N751 1.990 . S
Li706 O764 1.961 . S
Li706 O766 1.956 . S
Li706 O767 1.970 . S
Li707 N757 1.990 . S
Li707 O765 1.961 . S
Li707 O766 1.970 . S
Li707 O767 1.956 . S
C708 C710 1.348 . S
C708 C711 1.356 . S
C708 O764 1.325 . S
N709 C712 1.314 . S
N709 C713 1.279 . S
C710 C708 1.348 . S
C710 C712 1.353 . S
C710 H768 0.929 . S
C711 C708 1.356 . S
C711 C713 1.358 . S
C711 H769 0.930 . S
C712 N709 1.314 . S
C712 C710 1.353 . S
C712 H770 0.930 . S
C713 N709 1.279 . S
C713 C711 1.358 . S
C713 H771 0.930 . S
C714 C717 1.348 . S
C714 C718 1.356 . S
C714 O765 1.325 . S
C715 N716 1.279 . S
C715 C718 1.358 . S
C715 H772 0.930 . S
N716 C715 1.279 . S
N716 C719 1.314 . S
C717 C714 1.348 . S
C717 C719 1.353 . S
C717 H773 0.929 . S
C718 C714 1.356 . S
C718 C715 1.358 . S
C718 H774 0.930 . S
C719 N716 1.314 . S
C719 C717 1.353 . S
C719 H775 0.930 . S
C720 N721 1.314 . S
C720 C725 1.353 . S
C720 H726 0.930 . S
N721 Li704 1.990 . S
N721 C720 1.314 . S
N721 C723 1.279 . S
C722 C723 1.358 . S
C722 C724 1.356 . S
C722 H776 0.930 . S
C723 N721 1.279 . S
C723 C722 1.358 . S
C723 H727 0.930 . S
C724 C722 1.356 . S
C724 C725 1.348 . S
C725 C720 1.353 . S
C725 C724 1.348 . S
C725 H777 0.929 . S
H726 C720 0.930 . S
H727 C723 0.930 . S
C728 N729 1.314 . S
C728 C730 1.353 . S
C728 H734 0.930 . S
N729 Li705 1.990 . S
N729 C728 1.314 . S
N729 C732 1.279 . S
C730 C728 1.353 . S
C730 C733 1.348 . S
C730 H778 0.929 . S
C731 C732 1.358 . S
C731 C733 1.356 . S
C731 H779 0.930 . S
C732 N729 1.279 . S
C732 C731 1.358 . S
C732 H735 0.930 . S
C733 C730 1.348 . S
C733 C731 1.356 . S
H734 C728 0.930 . S
H735 C732 0.930 . S
C736 C738 1.348 . S
C736 C739 1.356 . S
C736 O766 1.325 . S
N737 C740 1.314 . S
N737 C741 1.279 . S
C738 C736 1.348 . S
C738 C740 1.353 . S
C738 H780 0.929 . S
C739 C736 1.356 . S
C739 C741 1.358 . S
C739 H781 0.930 . S
C740 N737 1.314 . S
C740 C738 1.353 . S
C740 H782 0.930 . S
C741 N737 1.279 . S
C741 C739 1.358 . S
C741 H783 0.930 . S
C742 C743 1.348 . S
C742 C744 1.356 . S
C742 O767 1.325 . S
C743 C742 1.348 . S
C743 C745 1.353 . S
C743 H784 0.929 . S
C744 C742 1.356 . S
C744 C746 1.358 . S
C744 H785 0.930 . S
C745 C743 1.353 . S
C745 N747 1.314 . S
C745 H786 0.930 . S
C746 C744 1.358 . S
C746 N747 1.279 . S
C746 H787 0.930 . S
N747 C745 1.314 . S
N747 C746 1.279 . S
C748 C750 1.353 . S
C748 N751 1.314 . S
C748 H754 0.930 . S
C749 N751 1.279 . S
C749 C752 1.358 . S
C749 H755 0.930 . S
C750 C748 1.353 . S
C750 C753 1.348 . S
C750 H788 0.929 . S
N751 Li706 1.990 . S
N751 C748 1.314 . S
N751 C749 1.279 . S
C752 C749 1.358 . S
C752 C753 1.356 . S
C752 H789 0.930 . S
C753 C750 1.348 . S
C753 C752 1.356 . S
H754 C748 0.930 . S
H755 C749 0.930 . S
C756 N757 1.314 . S
C756 C758 1.353 . S
C756 H762 0.930 . S
N757 Li707 1.990 . S
N757 C756 1.314 . S
N757 C760 1.279 . S
C758 C756 1.353 . S
C758 C761 1.348 . S
C758 H790 0.929 . S
C759 C760 1.358 . S
C759 C761 1.356 . S
C759 H791 0.930 . S
C760 N757 1.279 . S
C760 C759 1.358 . S
C760 H763 0.930 . S
C761 C758 1.348 . S
C761 C759 1.356 . S
H762 C756 0.930 . S
H763 C760 0.930 . S
O764 Li704 1.956 . S
O764 Li705 1.970 . S
O764 Li706 1.961 . S
O764 C708 1.325 . S
O765 Li704 1.970 . S
O765 Li705 1.956 . S
O765 Li707 1.961 . S
O765 C714 1.325 . S
O766 Li704 1.961 . S
O766 Li706 1.956 . S
O766 Li707 1.970 . S
O766 C736 1.325 . S
O767 Li705 1.961 . S
O767 Li706 1.970 . S
O767 Li707 1.956 . S
O767 C742 1.325 . S
H768 C710 0.929 . S
H769 C711 0.930 . S
H770 C712 0.930 . S
H771 C713 0.930 . S
H772 C715 0.930 . S
H773 C717 0.929 . S
H774 C718 0.930 . S
H775 C719 0.930 . S
H776 C722 0.930 . S
H777 C725 0.929 . S
H778 C730 0.929 . S
H779 C731 0.930 . S
H780 C738 0.929 . S
H781 C739 0.930 . S
H782 C740 0.930 . S
H783 C741 0.930 . S
H784 C743 0.929 . S
H785 C744 0.930 . S
H786 C745 0.930 . S
H787 C746 0.930 . S
H788 C750 0.929 . S
H789 C752 0.930 . S
H790 C758 0.929 . S
H791 C759 0.930 . S
Li792 N809 1.990 . S
Li792 O852 1.956 . S
Li792 O853 1.970 . S
Li792 O854 1.961 . S
Li793 N817 1.990 . S
Li793 O852 1.970 . S
Li793 O853 1.956 . S
Li793 O855 1.961 . S
Li794 N839 1.990 . S
Li794 O852 1.961 . S
Li794 O854 1.956 . S
Li794 O855 1.970 . S
Li795 N845 1.990 . S
Li795 O853 1.961 . S
Li795 O854 1.970 . S
Li795 O855 1.956 . S
C796 C798 1.348 . S
C796 C799 1.356 . S
C796 O852 1.325 . S
N797 C800 1.314 . S
N797 C801 1.279 . S
C798 C796 1.348 . S
C798 C800 1.353 . S
C798 H856 0.929 . S
C799 C796 1.356 . S
C799 C801 1.358 . S
C799 H857 0.930 . S
C800 N797 1.314 . S
C800 C798 1.353 . S
C800 H858 0.930 . S
C801 N797 1.279 . S
C801 C799 1.358 . S
C801 H859 0.930 . S
C802 C805 1.348 . S
C802 C806 1.356 . S
C802 O853 1.325 . S
C803 N804 1.279 . S
C803 C806 1.358 . S
C803 H860 0.930 . S
N804 C803 1.279 . S
N804 C807 1.314 . S
C805 C802 1.348 . S
C805 C807 1.353 . S
C805 H861 0.929 . S
C806 C802 1.356 . S
C806 C803 1.358 . S
C806 H862 0.930 . S
C807 N804 1.314 . S
C807 C805 1.353 . S
C807 H863 0.930 . S
C808 N809 1.314 . S
C808 C813 1.353 . S
C808 H814 0.930 . S
N809 Li792 1.990 . S
N809 C808 1.314 . S
N809 C811 1.279 . S
C810 C811 1.358 . S
C810 C812 1.356 . S
C810 H864 0.930 . S
C811 N809 1.279 . S
C811 C810 1.358 . S
C811 H815 0.930 . S
C812 C810 1.356 . S
C812 C813 1.348 . S
C813 C808 1.353 . S
C813 C812 1.348 . S
C813 H865 0.929 . S
H814 C808 0.930 . S
H815 C811 0.930 . S
C816 N817 1.314 . S
C816 C818 1.353 . S
C816 H822 0.930 . S
N817 Li793 1.990 . S
N817 C816 1.314 . S
N817 C820 1.279 . S
C818 C816 1.353 . S
C818 C821 1.348 . S
C818 H866 0.929 . S
C819 C820 1.358 . S
C819 C821 1.356 . S
C819 H867 0.930 . S
C820 N817 1.279 . S
C820 C819 1.358 . S
C820 H823 0.930 . S
C821 C818 1.348 . S
C821 C819 1.356 . S
H822 C816 0.930 . S
H823 C820 0.930 . S
C824 C826 1.348 . S
C824 C827 1.356 . S
C824 O854 1.325 . S
N825 C828 1.314 . S
N825 C829 1.279 . S
C826 C824 1.348 . S
C826 C828 1.353 . S
C826 H868 0.929 . S
C827 C824 1.356 . S
C827 C829 1.358 . S
C827 H869 0.930 . S
C828 N825 1.314 . S
C828 C826 1.353 . S
C828 H870 0.930 . S
C829 N825 1.279 . S
C829 C827 1.358 . S
C829 H871 0.930 . S
C830 C831 1.348 . S
C830 C832 1.356 . S
C830 O855 1.325 . S
C831 C830 1.348 . S
C831 C833 1.353 . S
C831 H872 0.929 . S
C832 C830 1.356 . S
C832 C834 1.358 . S
C832 H873 0.930 . S
C833 C831 1.353 . S
C833 N835 1.314 . S
C833 H874 0.930 . S
C834 C832 1.358 . S
C834 N835 1.279 . S
C834 H875 0.930 . S
N835 C833 1.314 . S
N835 C834 1.279 . S
C836 C838 1.353 . S
C836 N839 1.314 . S
C836 H842 0.930 . S
C837 N839 1.279 . S
C837 C840 1.358 . S
C837 H843 0.930 . S
C838 C836 1.353 . S
C838 C841 1.348 . S
C838 H876 0.929 . S
N839 Li794 1.990 . S
N839 C836 1.314 . S
N839 C837 1.279 . S
C840 C837 1.358 . S
C840 C841 1.356 . S
C840 H877 0.930 . S
C841 C838 1.348 . S
C841 C840 1.356 . S
H842 C836 0.930 . S
H843 C837 0.930 . S
C844 N845 1.314 . S
C844 C846 1.353 . S
C844 H850 0.930 . S
N845 Li795 1.990 . S
N845 C844 1.314 . S
N845 C848 1.279 . S
C846 C844 1.353 . S
C846 C849 1.348 . S
C846 H878 0.929 . S
C847 C848 1.358 . S
C847 C849 1.356 . S
C847 H879 0.930 . S
C848 N845 1.279 . S
C848 C847 1.358 . S
C848 H851 0.930 . S
C849 C846 1.348 . S
C849 C847 1.356 . S
H850 C844 0.930 . S
H851 C848 0.930 . S
O852 Li792 1.956 . S
O852 Li793 1.970 . S
O852 Li794 1.961 . S
O852 C796 1.325 . S
O853 Li792 1.970 . S
O853 Li793 1.956 . S
O853 Li795 1.961 . S
O853 C802 1.325 . S
O854 Li792 1.961 . S
O854 Li794 1.956 . S
O854 Li795 1.970 . S
O854 C824 1.325 . S
O855 Li793 1.961 . S
O855 Li794 1.970 . S
O855 Li795 1.956 . S
O855 C830 1.325 . S
H856 C798 0.929 . S
H857 C799 0.930 . S
H858 C800 0.930 . S
H859 C801 0.930 . S
H860 C803 0.930 . S
H861 C805 0.929 . S
H862 C806 0.930 . S
H863 C807 0.930 . S
H864 C810 0.930 . S
H865 C813 0.929 . S
H866 C818 0.929 . S
H867 C819 0.930 . S
H868 C826 0.929 . S
H869 C827 0.930 . S
H870 C828 0.930 . S
H871 C829 0.930 . S
H872 C831 0.929 . S
H873 C832 0.930 . S
H874 C833 0.930 . S
H875 C834 0.930 . S
H876 C838 0.929 . S
H877 C840 0.930 . S
H878 C846 0.929 . S
H879 C847 0.930 . S
Li880 N897 1.990 . S
Li880 O940 1.956 . S
Li880 O941 1.970 . S
Li880 O942 1.961 . S
Li881 N905 1.990 . S
Li881 O940 1.970 . S
Li881 O941 1.956 . S
Li881 O943 1.961 . S
Li882 N927 1.990 . S
Li882 O940 1.961 . S
Li882 O942 1.956 . S
Li882 O943 1.970 . S
Li883 N933 1.990 . S
Li883 O941 1.961 . S
Li883 O942 1.970 . S
Li883 O943 1.956 . S
C884 C886 1.348 . S
C884 C887 1.356 . S
C884 O940 1.325 . S
N885 C888 1.314 . S
N885 C889 1.279 . S
C886 C884 1.348 . S
C886 C888 1.353 1_556 S
C886 H944 0.929 . S
C887 C884 1.356 . S
C887 C889 1.358 1_556 S
C887 H945 0.930 . S
C888 N885 1.314 . S
C888 C886 1.353 1_554 S
C888 H946 0.930 . S
C889 N885 1.279 . S
C889 C887 1.358 1_554 S
C889 H947 0.930 . S
C890 C893 1.348 . S
C890 C894 1.356 . S
C890 O941 1.325 . S
C891 N892 1.279 . S
C891 C894 1.358 . S
C891 H948 0.930 . S
N892 C891 1.279 . S
N892 C895 1.314 . S
C893 C890 1.348 . S
C893 C895 1.353 . S
C893 H949 0.929 . S
C894 C890 1.356 . S
C894 C891 1.358 . S
C894 H950 0.930 . S
C895 N892 1.314 . S
C895 C893 1.353 . S
C895 H951 0.930 . S
C896 N897 1.314 . S
C896 C901 1.353 . S
C896 H902 0.930 . S
N897 Li880 1.990 . S
N897 C896 1.314 . S
N897 C899 1.279 . S
C898 C899 1.358 . S
C898 C900 1.356 . S
C898 H952 0.930 . S
C899 N897 1.279 . S
C899 C898 1.358 . S
C899 H903 0.930 . S
C900 C898 1.356 . S
C900 C901 1.348 . S
C901 C896 1.353 . S
C901 C900 1.348 . S
C901 H953 0.929 . S
H902 C896 0.930 . S
H903 C899 0.930 . S
C904 N905 1.314 . S
C904 C906 1.353 . S
C904 H910 0.930 . S
N905 Li881 1.990 . S
N905 C904 1.314 . S
N905 C908 1.279 . S
C906 C904 1.353 . S
C906 C909 1.348 . S
C906 H954 0.929 . S
C907 C908 1.358 . S
C907 C909 1.356 . S
C907 H955 0.930 . S
C908 N905 1.279 . S
C908 C907 1.358 . S
C908 H911 0.930 . S
C909 C906 1.348 . S
C909 C907 1.356 . S
H910 C904 0.930 . S
H911 C908 0.930 . S
C912 C914 1.348 . S
C912 C915 1.356 . S
C912 O942 1.325 . S
N913 C916 1.314 . S
N913 C917 1.279 . S
C914 C912 1.348 . S
C914 C916 1.353 . S
C914 H956 0.929 . S
C915 C912 1.356 . S
C915 C917 1.358 . S
C915 H957 0.930 . S
C916 N913 1.314 . S
C916 C914 1.353 . S
C916 H958 0.930 . S
C917 N913 1.279 . S
C917 C915 1.358 . S
C917 H959 0.930 . S
C918 C919 1.348 . S
C918 C920 1.356 . S
C918 O943 1.325 . S
C919 C918 1.348 . S
C919 C921 1.353 . S
C919 H960 0.929 . S
C920 C918 1.356 . S
C920 C922 1.358 . S
C920 H961 0.930 . S
C921 C919 1.353 . S
C921 N923 1.314 . S
C921 H962 0.930 . S
C922 C920 1.358 . S
C922 N923 1.279 . S
C922 H963 0.930 . S
N923 C921 1.314 . S
N923 C922 1.279 . S
C924 C926 1.353 . S
C924 N927 1.314 . S
C924 H930 0.930 . S
C925 N927 1.279 . S
C925 C928 1.358 . S
C925 H931 0.930 . S
C926 C924 1.353 . S
C926 C929 1.348 . S
C926 H964 0.929 1_556 S
N927 Li882 1.990 . S
N927 C924 1.314 . S
N927 C925 1.279 . S
C928 C925 1.358 . S
C928 C929 1.356 . S
C928 H965 0.930 . S
C929 C926 1.348 . S
C929 C928 1.356 . S
H930 C924 0.930 . S
H931 C925 0.930 . S
C932 N933 1.314 . S
C932 C934 1.353 . S
C932 H938 0.930 . S
N933 Li883 1.990 . S
N933 C932 1.314 . S
N933 C936 1.279 . S
C934 C932 1.353 . S
C934 C937 1.348 . S
C934 H966 0.929 . S
C935 C936 1.358 . S
C935 C937 1.356 . S
C935 H967 0.930 . S
C936 N933 1.279 . S
C936 C935 1.358 . S
C936 H939 0.930 . S
C937 C934 1.348 . S
C937 C935 1.356 . S
H938 C932 0.930 . S
H939 C936 0.930 . S
O940 Li880 1.956 . S
O940 Li881 1.970 . S
O940 Li882 1.961 . S
O940 C884 1.325 . S
O941 Li880 1.970 . S
O941 Li881 1.956 . S
O941 Li883 1.961 . S
O941 C890 1.325 . S
O942 Li880 1.961 . S
O942 Li882 1.956 . S
O942 Li883 1.970 . S
O942 C912 1.325 . S
O943 Li881 1.961 . S
O943 Li882 1.970 . S
O943 Li883 1.956 . S
O943 C918 1.325 . S
H944 C886 0.929 . S
H945 C887 0.930 . S
H946 C888 0.930 . S
H947 C889 0.930 . S
H948 C891 0.930 . S
H949 C893 0.929 . S
H950 C894 0.930 . S
H951 C895 0.930 . S
H952 C898 0.930 . S
H953 C901 0.929 . S
H954 C906 0.929 . S
H955 C907 0.930 . S
H956 C914 0.929 . S
H957 C915 0.930 . S
H958 C916 0.930 . S
H959 C917 0.930 . S
H960 C919 0.929 . S
H961 C920 0.930 . S
H962 C921 0.930 . S
H963 C922 0.930 . S
H964 C926 0.929 1_554 S
H965 C928 0.930 . S
H966 C934 0.929 . S
H967 C935 0.930 . S
Li968 N985 1.990 . S
Li968 O1028 1.956 . S
Li968 O1029 1.970 . S
Li968 O1030 1.961 . S
Li969 N993 1.990 . S
Li969 O1028 1.970 . S
Li969 O1029 1.956 . S
Li969 O1031 1.961 . S
Li970 N1015 1.990 . S
Li970 O1028 1.961 . S
Li970 O1030 1.956 . S
Li970 O1031 1.970 . S
Li971 N1021 1.990 . S
Li971 O1029 1.961 . S
Li971 O1030 1.970 . S
Li971 O1031 1.956 . S
C972 C974 1.348 . S
C972 C975 1.356 . S
C972 O1028 1.325 . S
N973 C976 1.314 . S
N973 C977 1.279 . S
C974 C972 1.348 . S
C974 C976 1.353 . S
C974 H1032 0.929 . S
C975 C972 1.356 . S
C975 C977 1.358 . S
C975 H1033 0.930 . S
C976 N973 1.314 . S
C976 C974 1.353 . S
C976 H1034 0.930 . S
C977 N973 1.279 . S
C977 C975 1.358 . S
C977 H1035 0.930 . S
C978 C981 1.348 . S
C978 C982 1.356 . S
C978 O1029 1.325 . S
C979 N980 1.279 . S
C979 C982 1.358 . S
C979 H1036 0.930 . S
N980 C979 1.279 . S
N980 C983 1.314 . S
C981 C978 1.348 . S
C981 C983 1.353 . S
C981 H1037 0.929 . S
C982 C978 1.356 . S
C982 C979 1.358 . S
C982 H1038 0.930 . S
C983 N980 1.314 . S
C983 C981 1.353 . S
C983 H1039 0.930 . S
C984 N985 1.314 . S
C984 C989 1.353 . S
C984 H990 0.930 . S
N985 Li968 1.990 . S
N985 C984 1.314 . S
N985 C987 1.279 . S
C986 C987 1.358 . S
C986 C988 1.356 . S
C986 H1040 0.930 . S
C987 N985 1.279 . S
C987 C986 1.358 . S
C987 H991 0.930 . S
C988 C986 1.356 . S
C988 C989 1.348 . S
C989 C984 1.353 . S
C989 C988 1.348 . S
C989 H1041 0.929 . S
H990 C984 0.930 . S
H991 C987 0.930 . S
C992 N993 1.314 . S
C992 C994 1.353 . S
C992 H998 0.930 . S
N993 Li969 1.990 . S
N993 C992 1.314 . S
N993 C996 1.279 . S
C994 C992 1.353 . S
C994 C997 1.348 . S
C994 H1042 0.929 . S
C995 C996 1.358 . S
C995 C997 1.356 . S
C995 H1043 0.930 . S
C996 N993 1.279 . S
C996 C995 1.358 . S
C996 H999 0.930 . S
C997 C994 1.348 . S
C997 C995 1.356 . S
H998 C992 0.930 . S
H999 C996 0.930 . S
C1000 C1002 1.348 . S
C1000 C1003 1.356 . S
C1000 O1030 1.325 . S
N1001 C1004 1.314 . S
N1001 C1005 1.279 . S
C1002 C1000 1.348 . S
C1002 C1004 1.353 . S
C1002 H1044 0.929 . S
C1003 C1000 1.356 . S
C1003 C1005 1.358 . S
C1003 H1045 0.930 . S
C1004 N1001 1.314 . S
C1004 C1002 1.353 . S
C1004 H1046 0.930 . S
C1005 N1001 1.279 . S
C1005 C1003 1.358 . S
C1005 H1047 0.930 . S
C1006 C1007 1.348 . S
C1006 C1008 1.356 . S
C1006 O1031 1.325 . S
C1007 C1006 1.348 . S
C1007 C1009 1.353 . S
C1007 H1048 0.929 . S
C1008 C1006 1.356 . S
C1008 C1010 1.358 . S
C1008 H1049 0.930 . S
C1009 C1007 1.353 . S
C1009 N1011 1.314 . S
C1009 H1050 0.930 . S
C1010 C1008 1.358 . S
C1010 N1011 1.279 . S
C1010 H1051 0.930 . S
N1011 C1009 1.314 . S
N1011 C1010 1.279 . S
C1012 C1014 1.353 . S
C1012 N1015 1.314 . S
C1012 H1018 0.930 . S
C1013 N1015 1.279 . S
C1013 C1016 1.358 . S
C1013 H1019 0.930 . S
C1014 C1012 1.353 . S
C1014 C1017 1.348 . S
C1014 H1052 0.929 . S
N1015 Li970 1.990 . S
N1015 C1012 1.314 . S
N1015 C1013 1.279 . S
C1016 C1013 1.358 . S
C1016 C1017 1.356 . S
C1016 H1053 0.930 . S
C1017 C1014 1.348 . S
C1017 C1016 1.356 . S
H1018 C1012 0.930 . S
H1019 C1013 0.930 . S
C1020 N1021 1.314 . S
C1020 C1022 1.353 . S
C1020 H1026 0.930 . S
N1021 Li971 1.990 . S
N1021 C1020 1.314 . S
N1021 C1024 1.279 . S
C1022 C1020 1.353 . S
C1022 C1025 1.348 . S
C1022 H1054 0.929 . S
C1023 C1024 1.358 . S
C1023 C1025 1.356 . S
C1023 H1055 0.930 . S
C1024 N1021 1.279 . S
C1024 C1023 1.358 . S
C1024 H1027 0.930 . S
C1025 C1022 1.348 . S
C1025 C1023 1.356 . S
H1026 C1020 0.930 . S
H1027 C1024 0.930 . S
O1028 Li968 1.956 . S
O1028 Li969 1.970 . S
O1028 Li970 1.961 . S
O1028 C972 1.325 . S
O1029 Li968 1.970 . S
O1029 Li969 1.956 . S
O1029 Li971 1.961 . S
O1029 C978 1.325 . S
O1030 Li968 1.961 . S
O1030 Li970 1.956 . S
O1030 Li971 1.970 . S
O1030 C1000 1.325 . S
O1031 Li969 1.961 . S
O1031 Li970 1.970 . S
O1031 Li971 1.956 . S
O1031 C1006 1.325 . S
H1032 C974 0.929 . S
H1033 C975 0.930 . S
H1034 C976 0.930 . S
H1035 C977 0.930 . S
H1036 C979 0.930 . S
H1037 C981 0.929 . S
H1038 C982 0.930 . S
H1039 C983 0.930 . S
H1040 C986 0.930 . S
H1041 C989 0.929 . S
H1042 C994 0.929 . S
H1043 C995 0.930 . S
H1044 C1002 0.929 . S
H1045 C1003 0.930 . S
H1046 C1004 0.930 . S
H1047 C1005 0.930 . S
H1048 C1007 0.929 . S
H1049 C1008 0.930 . S
H1050 C1009 0.930 . S
H1051 C1010 0.930 . S
H1052 C1014 0.929 . S
H1053 C1016 0.930 . S
H1054 C1022 0.929 . S
H1055 C1023 0.930 . S
H1056 C1068 0.930 . S
H1057 C1070 0.930 . S
H1058 C1071 0.930 . S
H1059 C1075 0.959 . S
H1060 C1075 0.959 . S
H1061 C1075 0.961 1_565 S
H1062 C1076 0.960 1_565 S
H1063 C1076 0.961 . S
H1064 C1076 0.961 1_554 S
H1065 C1079 0.929 . S
H1066 C1080 0.931 . S
H1067 C1082 0.930 . S
C1068 H1056 0.930 . S
C1068 C1069 1.399 . S
C1068 C1073 1.399 . S
C1069 C1068 1.399 . S
C1069 C1070 1.376 1_556 S
C1070 H1057 0.930 . S
C1070 C1069 1.376 1_554 S
C1070 C1071 1.388 . S
C1071 H1058 0.930 . S
C1071 C1070 1.388 . S
C1071 C1072 1.390 . S
C1072 C1071 1.390 . S
C1072 C1073 1.394 1_554 S
C1072 C1078 1.465 1_565 S
C1073 C1068 1.399 . S
C1073 C1072 1.394 1_556 S
C1073 C1074 1.516 1_565 S
C1074 C1073 1.516 1_545 S
C1074 C1075 1.502 . S
C1074 C1076 1.561 . S
C1074 C1077 1.526 . S
C1075 H1059 0.959 . S
C1075 H1060 0.959 . S
C1075 H1061 0.961 1_545 S
C1075 C1074 1.502 . S
C1076 H1062 0.960 1_545 S
C1076 H1063 0.961 . S
C1076 H1064 0.961 1_556 S
C1076 C1074 1.561 . S
C1077 C1074 1.526 . S
C1077 C1078 1.396 1_556 S
C1077 C1082 1.390 . S
C1078 C1072 1.465 1_545 S
C1078 C1077 1.396 1_554 S
C1078 C1079 1.399 . S
C1079 H1065 0.929 . S
C1079 C1078 1.399 . S
C1079 C1080 1.385 . S
C1080 H1066 0.931 . S
C1080 C1079 1.385 . S
C1080 C1081 1.389 . S
C1081 C1080 1.389 . S
C1081 C1082 1.387 1_554 S
C1082 H1067 0.930 . S
C1082 C1077 1.390 . S
C1082 C1081 1.387 1_556 S
H1083 C1095 0.930 . S
H1084 C1097 0.930 . S
H1085 C1098 0.930 . S
H1086 C1102 0.959 . S
H1087 C1102 0.959 . S
H1088 C1102 0.961 . S
H1089 C1103 0.960 . S
H1090 C1103 0.961 . S
H1091 C1103 0.959 . S
H1092 C1106 0.929 . S
H1093 C1107 0.931 . S
H1094 C1109 0.930 . S
C1095 H1083 0.930 . S
C1095 C1096 1.399 . S
C1095 C1100 1.399 . S
C1096 C1095 1.399 . S
C1096 C1097 1.376 . S
C1097 H1084 0.930 . S
C1097 C1096 1.376 . S
C1097 C1098 1.388 . S
C1098 H1085 0.930 . S
C1098 C1097 1.388 . S
C1098 C1099 1.390 . S
C1099 C1098 1.390 . S
C1099 C1100 1.394 . S
C1099 C1105 1.465 . S
C1100 C1095 1.399 . S
C1100 C1099 1.394 . S
C1100 C1101 1.516 . S
C1101 C1100 1.516 . S
C1101 C1102 1.502 . S
C1101 C1103 1.561 . S
C1101 C1104 1.526 . S
C1102 H1086 0.959 . S
C1102 H1087 0.959 . S
C1102 H1088 0.961 . S
C1102 C1101 1.502 . S
C1103 H1089 0.960 . S
C1103 H1090 0.961 . S
C1103 H1091 0.959 . S
C1103 C1101 1.561 . S
C1104 C1101 1.526 . S
C1104 C1105 1.396 . S
C1104 C1109 1.390 . S
C1105 C1099 1.465 . S
C1105 C1104 1.396 . S
C1105 C1106 1.399 . S
C1106 H1092 0.929 . S
C1106 C1105 1.399 . S
C1106 C1107 1.385 . S
C1107 H1093 0.931 . S
C1107 C1106 1.385 . S
C1107 C1108 1.389 . S
C1108 C1107 1.389 . S
C1108 C1109 1.387 . S
C1109 H1094 0.930 . S
C1109 C1104 1.390 . S
C1109 C1108 1.387 . S
H1110 C1122 0.930 . S
H1111 C1124 0.930 . S
H1112 C1125 0.930 . S
H1113 C1129 0.959 1_455 S
H1114 C1129 0.959 1_455 S
H1115 C1129 0.961 . S
H1116 C1130 0.960 . S
H1117 C1130 0.961 1_455 S
H1118 C1130 0.959 . S
H1119 C1133 0.929 . S
H1120 C1134 0.931 . S
H1121 C1136 0.930 . S
C1122 H1110 0.930 . S
C1122 C1123 1.399 . S
C1122 C1127 1.399 . S
C1123 C1122 1.399 . S
C1123 C1124 1.376 . S
C1124 H1111 0.930 . S
C1124 C1123 1.376 . S
C1124 C1125 1.388 . S
C1125 H1112 0.930 . S
C1125 C1124 1.388 . S
C1125 C1126 1.390 . S
C1126 C1125 1.390 . S
C1126 C1127 1.394 . S
C1126 C1132 1.465 1_655 S
C1127 C1122 1.399 . S
C1127 C1126 1.394 . S
C1127 C1128 1.516 . S
C1128 C1127 1.516 . S
C1128 C1129 1.502 . S
C1128 C1130 1.561 . S
C1128 C1131 1.526 1_655 S
C1129 H1113 0.959 1_655 S
C1129 H1114 0.959 1_655 S
C1129 H1115 0.961 . S
C1129 C1128 1.502 . S
C1130 H1116 0.960 . S
C1130 H1117 0.961 1_655 S
C1130 H1118 0.959 . S
C1130 C1128 1.561 . S
C1131 C1128 1.526 1_455 S
C1131 C1132 1.396 . S
C1131 C1136 1.390 . S
C1132 C1126 1.465 1_455 S
C1132 C1131 1.396 . S
C1132 C1133 1.399 . S
C1133 H1119 0.929 . S
C1133 C1132 1.399 . S
C1133 C1134 1.385 . S
C1134 H1120 0.931 . S
C1134 C1133 1.385 . S
C1134 C1135 1.389 . S
C1135 C1134 1.389 . S
C1135 C1136 1.387 . S
C1136 H1121 0.930 . S
C1136 C1131 1.390 . S
C1136 C1135 1.387 . S
H1137 C1149 0.930 . S
H1138 C1151 0.930 . S
H1139 C1152 0.930 . S
H1140 C1156 0.959 . S
H1141 C1156 0.959 . S
H1142 C1156 0.961 1_565 S
H1143 C1157 0.960 1_565 S
H1144 C1157 0.961 . S
H1145 C1157 0.959 . S
H1146 C1160 0.929 . S
H1147 C1161 0.931 . S
H1148 C1163 0.930 . S
C1149 H1137 0.930 . S
C1149 C1150 1.399 . S
C1149 C1154 1.399 . S
C1150 C1149 1.399 . S
C1150 C1151 1.376 1_554 S
C1151 H1138 0.930 . S
C1151 C1150 1.376 1_556 S
C1151 C1152 1.388 . S
C1152 H1139 0.930 . S
C1152 C1151 1.388 . S
C1152 C1153 1.390 . S
C1153 C1152 1.390 . S
C1153 C1154 1.394 1_556 S
C1153 C1159 1.465 1_565 S
C1154 C1149 1.399 . S
C1154 C1153 1.394 1_554 S
C1154 C1155 1.516 1_565 S
C1155 C1154 1.516 1_545 S
C1155 C1156 1.502 . S
C1155 C1157 1.561 . S
C1155 C1158 1.526 . S
C1156 H1140 0.959 . S
C1156 H1141 0.959 . S
C1156 H1142 0.961 1_545 S
C1156 C1155 1.502 . S
C1157 H1143 0.960 1_545 S
C1157 H1144 0.961 . S
C1157 H1145 0.959 . S
C1157 C1155 1.561 . S
C1158 C1155 1.526 . S
C1158 C1159 1.396 1_554 S
C1158 C1163 1.390 . S
C1159 C1153 1.465 1_545 S
C1159 C1158 1.396 1_556 S
C1159 C1160 1.399 . S
C1160 H1146 0.929 . S
C1160 C1159 1.399 . S
C1160 C1161 1.385 . S
C1161 H1147 0.931 . S
C1161 C1160 1.385 . S
C1161 C1162 1.389 . S
C1162 C1161 1.389 . S
C1162 C1163 1.387 1_556 S
C1163 H1148 0.930 . S
C1163 C1158 1.390 . S
C1163 C1162 1.387 1_554 S
H1164 C1176 0.930 . S
H1165 C1178 0.930 . S
H1166 C1179 0.930 . S
H1167 C1183 0.959 . S
H1168 C1183 0.959 . S
H1169 C1183 0.961 . S
H1170 C1184 0.960 . S
H1171 C1184 0.961 . S
H1172 C1184 0.959 . S
H1173 C1187 0.929 . S
H1174 C1188 0.931 . S
H1175 C1190 0.930 . S
C1176 H1164 0.930 . S
C1176 C1177 1.399 . S
C1176 C1181 1.399 . S
C1177 C1176 1.399 . S
C1177 C1178 1.376 . S
C1178 H1165 0.930 . S
C1178 C1177 1.376 . S
C1178 C1179 1.388 . S
C1179 H1166 0.930 . S
C1179 C1178 1.388 . S
C1179 C1180 1.390 . S
C1180 C1179 1.390 . S
C1180 C1181 1.394 . S
C1180 C1186 1.465 . S
C1181 C1176 1.399 . S
C1181 C1180 1.394 . S
C1181 C1182 1.516 . S
C1182 C1181 1.516 . S
C1182 C1183 1.502 . S
C1182 C1184 1.561 . S
C1182 C1185 1.526 . S
C1183 H1167 0.959 . S
C1183 H1168 0.959 . S
C1183 H1169 0.961 . S
C1183 C1182 1.502 . S
C1184 H1170 0.960 . S
C1184 H1171 0.961 . S
C1184 H1172 0.959 . S
C1184 C1182 1.561 . S
C1185 C1182 1.526 . S
C1185 C1186 1.396 . S
C1185 C1190 1.390 . S
C1186 C1180 1.465 . S
C1186 C1185 1.396 . S
C1186 C1187 1.399 . S
C1187 H1173 0.929 . S
C1187 C1186 1.399 . S
C1187 C1188 1.385 . S
C1188 H1174 0.931 . S
C1188 C1187 1.385 . S
C1188 C1189 1.389 . S
C1189 C1188 1.389 . S
C1189 C1190 1.387 . S
C1190 H1175 0.930 . S
C1190 C1185 1.390 . S
C1190 C1189 1.387 . S
H1191 C1203 0.930 . S
H1192 C1205 0.930 . S
H1193 C1206 0.930 . S
H1194 C1210 0.959 . S
H1195 C1210 0.959 1_455 S
H1196 C1210 0.961 . S
H1197 C1211 0.960 . S
H1198 C1211 0.961 1_455 S
H1199 C1211 0.959 . S
H1200 C1214 0.929 . S
H1201 C1215 0.931 . S
H1202 C1217 0.930 . S
C1203 H1191 0.930 . S
C1203 C1204 1.399 . S
C1203 C1208 1.399 . S
C1204 C1203 1.399 . S
C1204 C1205 1.376 . S
C1205 H1192 0.930 . S
C1205 C1204 1.376 . S
C1205 C1206 1.388 . S
C1206 H1193 0.930 . S
C1206 C1205 1.388 . S
C1206 C1207 1.390 . S
C1207 C1206 1.390 . S
C1207 C1208 1.394 . S
C1207 C1213 1.465 1_655 S
C1208 C1203 1.399 . S
C1208 C1207 1.394 . S
C1208 C1209 1.516 . S
C1209 C1208 1.516 . S
C1209 C1210 1.502 . S
C1209 C1211 1.561 . S
C1209 C1212 1.526 1_655 S
C1210 H1194 0.959 . S
C1210 H1195 0.959 1_655 S
C1210 H1196 0.961 . S
C1210 C1209 1.502 . S
C1211 H1197 0.960 . S
C1211 H1198 0.961 1_655 S
C1211 H1199 0.959 . S
C1211 C1209 1.561 . S
C1212 C1209 1.526 1_455 S
C1212 C1213 1.396 . S
C1212 C1217 1.390 . S
C1213 C1207 1.465 1_455 S
C1213 C1212 1.396 . S
C1213 C1214 1.399 . S
C1214 H1200 0.929 . S
C1214 C1213 1.399 . S
C1214 C1215 1.385 . S
C1215 H1201 0.931 . S
C1215 C1214 1.385 . S
C1215 C1216 1.389 . S
C1216 C1215 1.389 . S
C1216 C1217 1.387 . S
C1217 H1202 0.930 . S
C1217 C1212 1.390 . S
C1217 C1216 1.387 . S
H1218 C1230 0.930 . S
H1219 C1232 0.930 . S
H1220 C1233 0.930 . S
H1221 C1237 0.959 . S
H1222 C1237 0.959 . S
H1223 C1237 0.961 . S
H1224 C1238 0.960 . S
H1225 C1238 0.961 . S
H1226 C1238 0.959 . S
H1227 C1241 0.929 . S
H1228 C1242 0.931 . S
H1229 C1244 0.930 . S
C1230 H1218 0.930 . S
C1230 C1231 1.399 . S
C1230 C1235 1.399 . S
C1231 C1230 1.399 . S
C1231 C1232 1.376 . S
C1232 H1219 0.930 . S
C1232 C1231 1.376 . S
C1232 C1233 1.388 . S
C1233 H1220 0.930 . S
C1233 C1232 1.388 . S
C1233 C1234 1.390 . S
C1234 C1233 1.390 . S
C1234 C1235 1.394 . S
C1234 C1240 1.465 1_556 S
C1235 C1230 1.399 . S
C1235 C1234 1.394 . S
C1235 C1236 1.522 . S
C1236 C1235 1.522 . S
C1236 C1237 1.490 1_556 S
C1236 C1238 1.574 . S
C1236 C1239 1.520 1_556 S
C1237 H1221 0.959 . S
C1237 H1222 0.959 . S
C1237 H1223 0.961 . S
C1237 C1236 1.490 1_554 S
C1238 H1224 0.960 . S
C1238 H1225 0.961 . S
C1238 H1226 0.959 . S
C1238 C1236 1.574 . S
C1239 C1236 1.520 1_554 S
C1239 C1240 1.396 . S
C1239 C1244 1.390 . S
C1240 C1234 1.465 1_554 S
C1240 C1239 1.396 . S
C1240 C1241 1.399 . S
C1241 H1227 0.929 . S
C1241 C1240 1.399 . S
C1241 C1242 1.385 . S
C1242 H1228 0.931 . S
C1242 C1241 1.385 . S
C1242 C1243 1.389 . S
C1243 C1242 1.389 . S
C1243 C1244 1.387 . S
C1244 H1229 0.930 . S
C1244 C1239 1.390 . S
C1244 C1243 1.387 . S
H1245 C1257 0.930 . S
H1246 C1259 0.930 . S
H1247 C1260 0.930 . S
H1248 C1264 0.959 . S
H1249 C1264 0.959 . S
H1250 C1264 0.961 . S
H1251 C1265 0.960 . S
H1252 C1265 0.961 . S
H1253 C1265 0.959 . S
H1254 C1268 0.929 . S
H1255 C1269 0.931 . S
H1256 C1271 0.930 . S
C1257 H1245 0.930 . S
C1257 C1258 1.399 . S
C1257 C1262 1.399 . S
C1258 C1257 1.399 . S
C1258 C1259 1.376 . S
C1259 H1246 0.930 . S
C1259 C1258 1.376 . S
C1259 C1260 1.388 . S
C1260 H1247 0.930 . S
C1260 C1259 1.388 . S
C1260 C1261 1.390 . S
C1261 C1260 1.390 . S
C1261 C1262 1.394 . S
C1261 C1267 1.465 . S
C1262 C1257 1.399 . S
C1262 C1261 1.394 . S
C1262 C1263 1.516 . S
C1263 C1262 1.516 . S
C1263 C1264 1.502 . S
C1263 C1265 1.561 . S
C1263 C1266 1.526 . S
C1264 H1248 0.959 . S
C1264 H1249 0.959 . S
C1264 H1250 0.961 . S
C1264 C1263 1.502 . S
C1265 H1251 0.960 . S
C1265 H1252 0.961 . S
C1265 H1253 0.959 . S
C1265 C1263 1.561 . S
C1266 C1263 1.526 . S
C1266 C1267 1.396 . S
C1266 C1271 1.390 . S
C1267 C1261 1.465 . S
C1267 C1266 1.396 . S
C1267 C1268 1.399 . S
C1268 H1254 0.929 . S
C1268 C1267 1.399 . S
C1268 C1269 1.385 . S
C1269 H1255 0.931 . S
C1269 C1268 1.385 . S
C1269 C1270 1.389 . S
C1270 C1269 1.389 . S
C1270 C1271 1.387 . S
C1271 H1256 0.930 . S
C1271 C1266 1.390 . S
C1271 C1270 1.387 . S
H1272 C1284 0.930 . S
H1273 C1286 0.930 . S
H1274 C1287 0.930 . S
H1275 C1291 0.959 . S
H1276 C1291 0.959 . S
H1277 C1291 0.961 . S
H1278 C1292 0.960 . S
H1279 C1292 0.961 . S
H1280 C1292 0.959 . S
H1281 C1295 0.929 . S
H1282 C1296 0.931 . S
H1283 C1298 0.930 . S
C1284 H1272 0.930 . S
C1284 C1285 1.399 . S
C1284 C1289 1.399 . S
C1285 C1284 1.399 . S
C1285 C1286 1.376 . S
C1286 H1273 0.930 . S
C1286 C1285 1.376 . S
C1286 C1287 1.388 . S
C1287 H1274 0.930 . S
C1287 C1286 1.388 . S
C1287 C1288 1.390 . S
C1288 C1287 1.390 . S
C1288 C1289 1.394 . S
C1288 C1294 1.465 . S
C1289 C1284 1.399 . S
C1289 C1288 1.394 . S
C1289 C1290 1.516 . S
C1290 C1289 1.516 . S
C1290 C1291 1.502 . S
C1290 C1292 1.561 . S
C1290 C1293 1.526 . S
C1291 H1275 0.959 . S
C1291 H1276 0.959 . S
C1291 H1277 0.961 . S
C1291 C1290 1.502 . S
C1292 H1278 0.960 . S
C1292 H1279 0.961 . S
C1292 H1280 0.959 . S
C1292 C1290 1.561 . S
C1293 C1290 1.526 . S
C1293 C1294 1.396 . S
C1293 C1298 1.390 . S
C1294 C1288 1.465 . S
C1294 C1293 1.396 . S
C1294 C1295 1.399 . S
C1295 H1281 0.929 . S
C1295 C1294 1.399 . S
C1295 C1296 1.385 . S
C1296 H1282 0.931 . S
C1296 C1295 1.385 . S
C1296 C1297 1.389 . S
C1297 C1296 1.389 . S
C1297 C1298 1.387 . S
C1298 H1283 0.930 . S
C1298 C1293 1.390 . S
C1298 C1297 1.387 . S
H1299 C1311 0.930 . S
H1300 C1313 0.930 . S
H1301 C1314 0.930 . S
H1302 C1318 0.959 . S
H1303 C1318 0.959 . S
H1304 C1318 0.961 . S
H1305 C1319 0.960 . S
H1306 C1319 0.961 . S
H1307 C1319 0.959 . S
H1308 C1322 0.929 . S
H1309 C1323 0.931 . S
H1310 C1325 0.930 . S
C1311 H1299 0.930 . S
C1311 C1312 1.399 . S
C1311 C1316 1.399 . S
C1312 C1311 1.399 . S
C1312 C1313 1.376 . S
C1313 H1300 0.930 . S
C1313 C1312 1.376 . S
C1313 C1314 1.388 . S
C1314 H1301 0.930 . S
C1314 C1313 1.388 . S
C1314 C1315 1.390 . S
C1315 C1314 1.390 . S
C1315 C1316 1.394 . S
C1315 C1321 1.465 1_556 S
C1316 C1311 1.399 . S
C1316 C1315 1.394 . S
C1316 C1317 1.516 1_556 S
C1317 C1316 1.516 1_554 S
C1317 C1318 1.502 1_554 S
C1317 C1319 1.561 . S
C1317 C1320 1.526 . S
C1318 H1302 0.959 . S
C1318 H1303 0.959 . S
C1318 H1304 0.961 . S
C1318 C1317 1.502 1_556 S
C1319 H1305 0.960 . S
C1319 H1306 0.961 . S
C1319 H1307 0.959 . S
C1319 C1317 1.561 . S
C1320 C1317 1.526 . S
C1320 C1321 1.396 . S
C1320 C1325 1.390 . S
C1321 C1315 1.465 1_554 S
C1321 C1320 1.396 . S
C1321 C1322 1.399 . S
C1322 H1308 0.929 . S
C1322 C1321 1.399 . S
C1322 C1323 1.385 . S
C1323 H1309 0.931 . S
C1323 C1322 1.385 . S
C1323 C1324 1.389 . S
C1324 C1323 1.389 . S
C1324 C1325 1.387 . S
C1325 H1310 0.930 . S
C1325 C1320 1.390 . S
C1325 C1324 1.387 . S
H1326 C1338 0.930 . S
H1327 C1340 0.930 . S
H1328 C1341 0.930 . S
H1329 C1345 0.959 . S
H1330 C1345 0.959 . S
H1331 C1345 0.961 . S
H1332 C1346 0.960 . S
H1333 C1346 0.961 . S
H1334 C1346 0.959 . S
H1335 C1349 0.929 . S
H1336 C1350 0.931 . S
H1337 C1352 0.930 . S
C1338 H1326 0.930 . S
C1338 C1339 1.399 . S
C1338 C1343 1.399 . S
C1339 C1338 1.399 . S
C1339 C1340 1.376 . S
C1340 H1327 0.930 . S
C1340 C1339 1.376 . S
C1340 C1341 1.388 . S
C1341 H1328 0.930 . S
C1341 C1340 1.388 . S
C1341 C1342 1.390 . S
C1342 C1341 1.390 . S
C1342 C1343 1.394 . S
C1342 C1348 1.465 . S
C1343 C1338 1.399 . S
C1343 C1342 1.394 . S
C1343 C1344 1.516 . S
C1344 C1343 1.516 . S
C1344 C1345 1.502 . S
C1344 C1346 1.561 . S
C1344 C1347 1.526 . S
C1345 H1329 0.959 . S
C1345 H1330 0.959 . S
C1345 H1331 0.961 . S
C1345 C1344 1.502 . S
C1346 H1332 0.960 . S
C1346 H1333 0.961 . S
C1346 H1334 0.959 . S
C1346 C1344 1.561 . S
C1347 C1344 1.526 . S
C1347 C1348 1.396 . S
C1347 C1352 1.390 . S
C1348 C1342 1.465 . S
C1348 C1347 1.396 . S
C1348 C1349 1.399 . S
C1349 H1335 0.929 . S
C1349 C1348 1.399 . S
C1349 C1350 1.385 . S
C1350 H1336 0.931 . S
C1350 C1349 1.385 . S
C1350 C1351 1.389 . S
C1351 C1350 1.389 . S
C1351 C1352 1.387 . S
C1352 H1337 0.930 . S
C1352 C1347 1.390 . S
C1352 C1351 1.387 . S
H1353 C1365 0.930 . S
H1354 C1367 0.930 . S
H1355 C1368 0.930 . S
H1356 C1372 0.959 . S
H1357 C1372 0.959 . S
H1358 C1372 0.961 . S
H1359 C1373 0.960 . S
H1360 C1373 0.961 . S
H1361 C1373 0.959 . S
H1362 C1376 0.929 . S
H1363 C1377 0.931 . S
H1364 C1379 0.930 . S
C1365 H1353 0.930 . S
C1365 C1366 1.399 . S
C1365 C1370 1.399 . S
C1366 C1365 1.399 . S
C1366 C1367 1.376 . S
C1367 H1354 0.930 . S
C1367 C1366 1.376 . S
C1367 C1368 1.388 . S
C1368 H1355 0.930 . S
C1368 C1367 1.388 . S
C1368 C1369 1.390 . S
C1369 C1368 1.390 . S
C1369 C1370 1.394 . S
C1369 C1375 1.465 . S
C1370 C1365 1.399 . S
C1370 C1369 1.394 . S
C1370 C1371 1.516 . S
C1371 C1370 1.516 . S
C1371 C1372 1.502 . S
C1371 C1373 1.561 . S
C1371 C1374 1.526 . S
C1372 H1356 0.959 . S
C1372 H1357 0.959 . S
C1372 H1358 0.961 . S
C1372 C1371 1.502 . S
C1373 H1359 0.960 . S
C1373 H1360 0.961 . S
C1373 H1361 0.959 . S
C1373 C1371 1.561 . S
C1374 C1371 1.526 . S
C1374 C1375 1.396 . S
C1374 C1379 1.390 . S
C1375 C1369 1.465 . S
C1375 C1374 1.396 . S
C1375 C1376 1.399 . S
C1376 H1362 0.929 . S
C1376 C1375 1.399 . S
C1376 C1377 1.385 . S
C1377 H1363 0.931 . S
C1377 C1376 1.385 . S
C1377 C1378 1.389 . S
C1378 C1377 1.389 . S
C1378 C1379 1.387 . S
C1379 H1364 0.930 . S
C1379 C1374 1.390 . S
C1379 C1378 1.387 . S
H1380 C1392 0.930 . S
H1381 C1394 0.930 . S
H1382 C1395 0.930 . S
H1383 C1399 0.959 . S
H1384 C1399 0.959 . S
H1385 C1399 0.961 . S
H1386 C1400 0.960 . S
H1387 C1400 0.961 . S
H1388 C1400 0.959 . S
H1389 C1403 0.929 . S
H1390 C1404 0.931 . S
H1391 C1406 0.930 . S
C1392 H1380 0.930 . S
C1392 C1393 1.399 . S
C1392 C1397 1.399 . S
C1393 C1392 1.399 . S
C1393 C1394 1.376 . S
C1394 H1381 0.930 . S
C1394 C1393 1.376 . S
C1394 C1395 1.388 . S
C1395 H1382 0.930 . S
C1395 C1394 1.388 . S
C1395 C1396 1.390 . S
C1396 C1395 1.390 . S
C1396 C1397 1.394 . S
C1396 C1402 1.465 . S
C1397 C1392 1.399 . S
C1397 C1396 1.394 . S
C1397 C1398 1.516 . S
C1398 C1397 1.516 . S
C1398 C1399 1.502 . S
C1398 C1400 1.561 . S
C1398 C1401 1.526 . S
C1399 H1383 0.959 . S
C1399 H1384 0.959 . S
C1399 H1385 0.961 . S
C1399 C1398 1.502 . S
C1400 H1386 0.960 . S
C1400 H1387 0.961 . S
C1400 H1388 0.959 . S
C1400 C1398 1.561 . S
C1401 C1398 1.526 . S
C1401 C1402 1.396 . S
C1401 C1406 1.390 . S
C1402 C1396 1.465 . S
C1402 C1401 1.396 . S
C1402 C1403 1.399 . S
C1403 H1389 0.929 . S
C1403 C1402 1.399 . S
C1403 C1404 1.385 . S
C1404 H1390 0.931 . S
C1404 C1403 1.385 . S
C1404 C1405 1.389 . S
C1405 C1404 1.389 . S
C1405 C1406 1.387 . S
C1406 H1391 0.930 . S
C1406 C1401 1.390 . S
C1406 C1405 1.387 . S
H1407 C1419 0.930 . S
H1408 C1421 0.930 . S
H1409 C1422 0.930 . S
H1410 C1426 0.959 . S
H1411 C1426 0.959 . S
H1412 C1426 0.961 . S
H1413 C1427 0.960 . S
H1414 C1427 0.961 . S
H1415 C1427 0.959 . S
H1416 C1430 0.929 . S
H1417 C1431 0.931 . S
H1418 C1433 0.930 . S
C1419 H1407 0.930 . S
C1419 C1420 1.399 . S
C1419 C1424 1.399 . S
C1420 C1419 1.399 . S
C1420 C1421 1.376 . S
C1421 H1408 0.930 . S
C1421 C1420 1.376 . S
C1421 C1422 1.388 . S
C1422 H1409 0.930 . S
C1422 C1421 1.388 . S
C1422 C1423 1.390 . S
C1423 C1422 1.390 . S
C1423 C1424 1.394 . S
C1423 C1429 1.465 . S
C1424 C1419 1.399 . S
C1424 C1423 1.394 . S
C1424 C1425 1.516 . S
C1425 C1424 1.516 . S
C1425 C1426 1.502 . S
C1425 C1427 1.561 . S
C1425 C1428 1.526 . S
C1426 H1410 0.959 . S
C1426 H1411 0.959 . S
C1426 H1412 0.961 . S
C1426 C1425 1.502 . S
C1427 H1413 0.960 . S
C1427 H1414 0.961 . S
C1427 H1415 0.959 . S
C1427 C1425 1.561 . S
C1428 C1425 1.526 . S
C1428 C1429 1.396 . S
C1428 C1433 1.390 . S
C1429 C1423 1.465 . S
C1429 C1428 1.396 . S
C1429 C1430 1.399 . S
C1430 H1416 0.929 . S
C1430 C1429 1.399 . S
C1430 C1431 1.385 . S
C1431 H1417 0.931 . S
C1431 C1430 1.385 . S
C1431 C1432 1.389 . S
C1432 C1431 1.389 . S
C1432 C1433 1.387 . S
C1433 H1418 0.930 . S
C1433 C1428 1.390 . S
C1433 C1432 1.387 . S
H1434 C1446 0.930 . S
H1435 C1448 0.930 . S
H1436 C1449 0.930 . S
H1437 C1453 0.959 . S
H1438 C1453 0.959 . S
H1439 C1453 0.961 . S
H1440 C1454 0.960 . S
H1441 C1454 0.961 . S
H1442 C1454 0.959 . S
H1443 C1457 0.929 . S
H1444 C1458 0.931 . S
H1445 C1460 0.930 . S
C1446 H1434 0.930 . S
C1446 C1447 1.399 . S
C1446 C1451 1.399 . S
C1447 C1446 1.399 . S
C1447 C1448 1.376 . S
C1448 H1435 0.930 . S
C1448 C1447 1.376 . S
C1448 C1449 1.388 . S
C1449 H1436 0.930 . S
C1449 C1448 1.388 . S
C1449 C1450 1.390 . S
C1450 C1449 1.390 . S
C1450 C1451 1.394 . S
C1450 C1456 1.465 . S
C1451 C1446 1.399 . S
C1451 C1450 1.394 . S
C1451 C1452 1.516 . S
C1452 C1451 1.516 . S
C1452 C1453 1.502 . S
C1452 C1454 1.561 . S
C1452 C1455 1.526 . S
C1453 H1437 0.959 . S
C1453 H1438 0.959 . S
C1453 H1439 0.961 . S
C1453 C1452 1.502 . S
C1454 H1440 0.960 . S
C1454 H1441 0.961 . S
C1454 H1442 0.959 . S
C1454 C1452 1.561 . S
C1455 C1452 1.526 . S
C1455 C1456 1.396 . S
C1455 C1460 1.390 . S
C1456 C1450 1.465 . S
C1456 C1455 1.396 . S
C1456 C1457 1.399 . S
C1457 H1443 0.929 . S
C1457 C1456 1.399 . S
C1457 C1458 1.385 . S
C1458 H1444 0.931 . S
C1458 C1457 1.385 . S
C1458 C1459 1.389 . S
C1459 C1458 1.389 . S
C1459 C1460 1.387 . S
C1460 H1445 0.930 . S
C1460 C1455 1.390 . S
C1460 C1459 1.387 . S
H1461 C1473 0.930 . S
H1462 C1475 0.930 . S
H1463 C1476 0.930 . S
H1464 C1480 0.959 . S
H1465 C1480 0.959 . S
H1466 C1480 0.961 . S
H1467 C1481 0.960 . S
H1468 C1481 0.961 . S
H1469 C1481 0.959 . S
H1470 C1484 0.929 . S
H1471 C1485 0.931 . S
H1472 C1487 0.930 . S
C1473 H1461 0.930 . S
C1473 C1474 1.399 . S
C1473 C1478 1.399 . S
C1474 C1473 1.399 . S
C1474 C1475 1.376 . S
C1475 H1462 0.930 . S
C1475 C1474 1.376 . S
C1475 C1476 1.388 . S
C1476 H1463 0.930 . S
C1476 C1475 1.388 . S
C1476 C1477 1.390 . S
C1477 C1476 1.390 . S
C1477 C1478 1.394 . S
C1477 C1483 1.465 . S
C1478 C1473 1.399 . S
C1478 C1477 1.394 . S
C1478 C1479 1.516 . S
C1479 C1478 1.516 . S
C1479 C1480 1.502 . S
C1479 C1481 1.561 . S
C1479 C1482 1.526 . S
C1480 H1464 0.959 . S
C1480 H1465 0.959 . S
C1480 H1466 0.961 . S
C1480 C1479 1.502 . S
C1481 H1467 0.960 . S
C1481 H1468 0.961 . S
C1481 H1469 0.959 . S
C1481 C1479 1.561 . S
C1482 C1479 1.526 . S
C1482 C1483 1.396 . S
C1482 C1487 1.390 . S
C1483 C1477 1.465 . S
C1483 C1482 1.396 . S
C1483 C1484 1.399 . S
C1484 H1470 0.929 . S
C1484 C1483 1.399 . S
C1484 C1485 1.385 . S
C1485 H1471 0.931 . S
C1485 C1484 1.385 . S
C1485 C1486 1.389 . S
C1486 C1485 1.389 . S
C1486 C1487 1.387 . S
C1487 H1472 0.930 . S
C1487 C1482 1.390 . S
C1487 C1486 1.387 . S
H1488 C1500 0.930 . S
H1489 C1502 0.930 . S
H1490 C1503 0.930 . S
H1491 C1507 0.959 . S
H1492 C1507 0.959 . S
H1493 C1507 0.961 . S
H1494 C1508 0.960 . S
H1495 C1508 0.961 . S
H1496 C1508 0.959 . S
H1497 C1511 0.929 . S
H1498 C1512 0.931 . S
H1499 C1514 0.930 . S
C1500 H1488 0.930 . S
C1500 C1501 1.399 . S
C1500 C1505 1.399 . S
C1501 C1500 1.399 . S
C1501 C1502 1.376 . S
C1502 H1489 0.930 . S
C1502 C1501 1.376 . S
C1502 C1503 1.388 . S
C1503 H1490 0.930 . S
C1503 C1502 1.388 . S
C1503 C1504 1.390 . S
C1504 C1503 1.390 . S
C1504 C1505 1.394 . S
C1504 C1510 1.465 . S
C1505 C1500 1.399 . S
C1505 C1504 1.394 . S
C1505 C1506 1.516 . S
C1506 C1505 1.516 . S
C1506 C1507 1.502 . S
C1506 C1508 1.561 . S
C1506 C1509 1.526 . S
C1507 H1491 0.959 . S
C1507 H1492 0.959 . S
C1507 H1493 0.961 . S
C1507 C1506 1.502 . S
C1508 H1494 0.960 . S
C1508 H1495 0.961 . S
C1508 H1496 0.959 . S
C1508 C1506 1.561 . S
C1509 C1506 1.526 . S
C1509 C1510 1.396 . S
C1509 C1514 1.390 . S
C1510 C1504 1.465 . S
C1510 C1509 1.396 . S
C1510 C1511 1.399 . S
C1511 H1497 0.929 . S
C1511 C1510 1.399 . S
C1511 C1512 1.385 . S
C1512 H1498 0.931 . S
C1512 C1511 1.385 . S
C1512 C1513 1.389 . S
C1513 C1512 1.389 . S
C1513 C1514 1.387 . S
C1514 H1499 0.930 . S
C1514 C1509 1.390 . S
C1514 C1513 1.387 . S
H1515 C1527 0.930 . S
H1516 C1529 0.930 . S
H1517 C1530 0.930 . S
H1518 C1534 0.959 . S
H1519 C1534 0.959 . S
H1520 C1534 0.961 . S
H1521 C1535 0.960 . S
H1522 C1535 0.961 . S
H1523 C1535 0.959 . S
H1524 C1538 0.929 . S
H1525 C1539 0.931 . S
H1526 C1541 0.930 . S
C1527 H1515 0.930 . S
C1527 C1528 1.399 . S
C1527 C1532 1.399 . S
C1528 C1527 1.399 . S
C1528 C1529 1.376 . S
C1529 H1516 0.930 . S
C1529 C1528 1.376 . S
C1529 C1530 1.388 . S
C1530 H1517 0.930 . S
C1530 C1529 1.388 . S
C1530 C1531 1.390 . S
C1531 C1530 1.390 . S
C1531 C1532 1.394 . S
C1531 C1537 1.465 . S
C1532 C1527 1.399 . S
C1532 C1531 1.394 . S
C1532 C1533 1.516 . S
C1533 C1532 1.516 . S
C1533 C1534 1.502 . S
C1533 C1535 1.561 . S
C1533 C1536 1.526 . S
C1534 H1518 0.959 . S
C1534 H1519 0.959 . S
C1534 H1520 0.961 . S
C1534 C1533 1.502 . S
C1535 H1521 0.960 . S
C1535 H1522 0.961 . S
C1535 H1523 0.959 . S
C1535 C1533 1.561 . S
C1536 C1533 1.526 . S
C1536 C1537 1.396 . S
C1536 C1541 1.390 . S
C1537 C1531 1.465 . S
C1537 C1536 1.396 . S
C1537 C1538 1.399 . S
C1538 H1524 0.929 . S
C1538 C1537 1.399 . S
C1538 C1539 1.385 . S
C1539 H1525 0.931 . S
C1539 C1538 1.385 . S
C1539 C1540 1.389 . S
C1540 C1539 1.389 . S
C1540 C1541 1.387 . S
C1541 H1526 0.930 . S
C1541 C1536 1.390 . S
C1541 C1540 1.387 . S
H1542 C1554 0.930 . S
H1543 C1556 0.930 . S
H1544 C1557 0.930 . S
H1545 C1561 0.959 . S
H1546 C1561 0.959 . S
H1547 C1561 0.961 . S
H1548 C1562 0.960 . S
H1549 C1562 0.961 . S
H1550 C1562 0.959 . S
H1551 C1565 0.929 . S
H1552 C1566 0.931 . S
H1553 C1568 0.930 . S
C1554 H1542 0.930 . S
C1554 C1555 1.399 . S
C1554 C1559 1.399 . S
C1555 C1554 1.399 . S
C1555 C1556 1.376 . S
C1556 H1543 0.930 . S
C1556 C1555 1.376 . S
C1556 C1557 1.388 . S
C1557 H1544 0.930 . S
C1557 C1556 1.388 . S
C1557 C1558 1.390 . S
C1558 C1557 1.390 . S
C1558 C1559 1.394 . S
C1558 C1564 1.465 . S
C1559 C1554 1.399 . S
C1559 C1558 1.394 . S
C1559 C1560 1.516 . S
C1560 C1559 1.516 . S
C1560 C1561 1.502 . S
C1560 C1562 1.561 . S
C1560 C1563 1.526 . S
C1561 H1545 0.959 . S
C1561 H1546 0.959 . S
C1561 H1547 0.961 . S
C1561 C1560 1.502 . S
C1562 H1548 0.960 . S
C1562 H1549 0.961 . S
C1562 H1550 0.959 . S
C1562 C1560 1.561 . S
C1563 C1560 1.526 . S
C1563 C1564 1.396 . S
C1563 C1568 1.390 . S
C1564 C1558 1.465 . S
C1564 C1563 1.396 . S
C1564 C1565 1.399 . S
C1565 H1551 0.929 . S
C1565 C1564 1.399 . S
C1565 C1566 1.385 . S
C1566 H1552 0.931 . S
C1566 C1565 1.385 . S
C1566 C1567 1.389 . S
C1567 C1566 1.389 . S
C1567 C1568 1.387 . S
C1568 H1553 0.930 . S
C1568 C1563 1.390 . S
C1568 C1567 1.387 . S
H1569 C1581 0.930 . S
H1570 C1583 0.930 . S
H1571 C1584 0.930 . S
H1572 C1588 0.959 . S
H1573 C1588 0.959 . S
H1574 C1588 0.961 . S
H1575 C1589 0.960 . S
H1576 C1589 0.961 . S
H1577 C1589 0.959 . S
H1578 C1592 0.929 . S
H1579 C1593 0.931 . S
H1580 C1595 0.930 . S
C1581 H1569 0.930 . S
C1581 C1582 1.399 . S
C1581 C1586 1.399 . S
C1582 C1581 1.399 . S
C1582 C1583 1.376 1_655 S
C1583 H1570 0.930 . S
C1583 C1582 1.376 1_455 S
C1583 C1584 1.388 . S
C1584 H1571 0.930 . S
C1584 C1583 1.388 . S
C1584 C1585 1.390 . S
C1585 C1584 1.390 . S
C1585 C1586 1.394 1_455 S
C1585 C1591 1.465 . S
C1586 C1581 1.399 . S
C1586 C1585 1.394 1_655 S
C1586 C1587 1.516 . S
C1587 C1586 1.516 . S
C1587 C1588 1.502 . S
C1587 C1589 1.561 1_655 S
C1587 C1590 1.550 . S
C1588 H1572 0.959 . S
C1588 H1573 0.959 . S
C1588 H1574 0.961 . S
C1588 C1587 1.502 . S
C1589 H1575 0.960 . S
C1589 H1576 0.961 . S
C1589 H1577 0.959 . S
C1589 C1587 1.561 1_455 S
C1590 C1587 1.550 . S
C1590 C1591 1.391 1_655 S
C1590 C1595 1.371 . S
C1591 C1585 1.465 . S
C1591 C1590 1.391 1_455 S
C1591 C1592 1.399 . S
C1592 H1578 0.929 . S
C1592 C1591 1.399 . S
C1592 C1593 1.385 . S
C1593 H1579 0.931 . S
C1593 C1592 1.385 . S
C1593 C1594 1.389 . S
C1594 C1593 1.389 . S
C1594 C1595 1.387 1_455 S
C1595 H1580 0.930 . S
C1595 C1590 1.371 . S
C1595 C1594 1.387 1_655 S
H1596 C1608 0.930 . S
H1597 C1610 0.930 . S
H1598 C1611 0.930 . S
H1599 C1615 0.959 . S
H1600 C1615 0.959 . S
H1601 C1615 0.961 . S
H1602 C1616 0.960 . S
H1603 C1616 0.961 . S
H1604 C1616 0.959 . S
H1605 C1619 0.929 . S
H1606 C1620 0.931 . S
H1607 C1622 0.930 . S
C1608 H1596 0.930 . S
C1608 C1609 1.399 . S
C1608 C1613 1.399 . S
C1609 C1608 1.399 . S
C1609 C1610 1.376 1_545 S
C1610 H1597 0.930 . S
C1610 C1609 1.376 1_565 S
C1610 C1611 1.388 . S
C1611 H1598 0.930 . S
C1611 C1610 1.388 . S
C1611 C1612 1.390 . S
C1612 C1611 1.390 . S
C1612 C1613 1.394 1_565 S
C1612 C1618 1.465 . S
C1613 C1608 1.399 . S
C1613 C1612 1.394 1_545 S
C1613 C1614 1.516 . S
C1614 C1613 1.516 . S
C1614 C1615 1.502 . S
C1614 C1616 1.561 1_545 S
C1614 C1617 1.522 . S
C1615 H1599 0.959 . S
C1615 H1600 0.959 . S
C1615 H1601 0.961 . S
C1615 C1614 1.502 . S
C1616 H1602 0.960 . S
C1616 H1603 0.961 . S
C1616 H1604 0.959 . S
C1616 C1614 1.561 1_565 S
C1617 C1614 1.522 . S
C1617 C1618 1.377 1_545 S
C1617 C1622 1.410 . S
C1618 C1612 1.465 . S
C1618 C1617 1.377 1_565 S
C1618 C1619 1.399 . S
C1619 H1605 0.929 . S
C1619 C1618 1.399 . S
C1619 C1620 1.385 . S
C1620 H1606 0.931 . S
C1620 C1619 1.385 . S
C1620 C1621 1.389 . S
C1621 C1620 1.389 . S
C1621 C1622 1.387 1_565 S
C1622 H1607 0.930 . S
C1622 C1617 1.410 . S
C1622 C1621 1.387 1_545 S
H1623 C1635 0.930 . S
H1624 C1637 0.930 . S
H1625 C1638 0.930 . S
H1626 C1642 0.959 . S
H1627 C1642 0.959 . S
H1628 C1642 0.961 . S
H1629 C1643 0.960 . S
H1630 C1643 0.961 . S
H1631 C1643 0.959 . S
H1632 C1646 0.929 . S
H1633 C1647 0.931 . S
H1634 C1649 0.930 . S
C1635 H1623 0.930 . S
C1635 C1636 1.399 . S
C1635 C1640 1.399 . S
C1636 C1635 1.399 . S
C1636 C1637 1.376 . S
C1637 H1624 0.930 . S
C1637 C1636 1.376 . S
C1637 C1638 1.388 . S
C1638 H1625 0.930 . S
C1638 C1637 1.388 . S
C1638 C1639 1.390 . S
C1639 C1638 1.390 . S
C1639 C1640 1.394 . S
C1639 C1645 1.465 . S
C1640 C1635 1.399 . S
C1640 C1639 1.394 . S
C1640 C1641 1.516 . S
C1641 C1640 1.516 . S
C1641 C1642 1.502 . S
C1641 C1643 1.561 . S
C1641 C1644 1.526 . S
C1642 H1626 0.959 . S
C1642 H1627 0.959 . S
C1642 H1628 0.961 . S
C1642 C1641 1.502 . S
C1643 H1629 0.960 . S
C1643 H1630 0.961 . S
C1643 H1631 0.959 . S
C1643 C1641 1.561 . S
C1644 C1641 1.526 . S
C1644 C1645 1.396 . S
C1644 C1649 1.390 . S
C1645 C1639 1.465 . S
C1645 C1644 1.396 . S
C1645 C1646 1.399 . S
C1646 H1632 0.929 . S
C1646 C1645 1.399 . S
C1646 C1647 1.385 . S
C1647 H1633 0.931 . S
C1647 C1646 1.385 . S
C1647 C1648 1.389 . S
C1648 C1647 1.389 . S
C1648 C1649 1.387 . S
C1649 H1634 0.930 . S
C1649 C1644 1.390 . S
C1649 C1648 1.387 . S
H1650 C1662 0.922 1_655 S
H1651 C1664 0.930 . S
H1652 C1665 0.930 . S
H1653 C1669 0.959 . S
H1654 C1669 0.959 . S
H1655 C1669 0.961 . S
H1656 C1670 0.960 . S
H1657 C1670 0.961 . S
H1658 C1670 0.959 . S
H1659 C1673 0.929 . S
H1660 C1674 0.931 . S
H1661 C1676 0.930 . S
C1662 H1650 0.922 1_455 S
C1662 C1663 1.399 . S
C1662 C1667 1.396 . S
C1663 C1662 1.399 . S
C1663 C1664 1.376 . S
C1664 H1651 0.930 . S
C1664 C1663 1.376 . S
C1664 C1665 1.388 . S
C1665 H1652 0.930 . S
C1665 C1664 1.388 . S
C1665 C1666 1.390 . S
C1666 C1665 1.390 . S
C1666 C1667 1.404 . S
C1666 C1672 1.465 . S
C1667 C1662 1.396 . S
C1667 C1666 1.404 . S
C1667 C1668 1.520 1_455 S
C1668 C1667 1.520 1_655 S
C1668 C1669 1.502 . S
C1668 C1670 1.561 1_655 S
C1668 C1671 1.526 . S
C1669 H1653 0.959 . S
C1669 H1654 0.959 . S
C1669 H1655 0.961 . S
C1669 C1668 1.502 . S
C1670 H1656 0.960 . S
C1670 H1657 0.961 . S
C1670 H1658 0.959 . S
C1670 C1668 1.561 1_455 S
C1671 C1668 1.526 . S
C1671 C1672 1.396 1_655 S
C1671 C1676 1.390 . S
C1672 C1666 1.465 . S
C1672 C1671 1.396 1_455 S
C1672 C1673 1.399 . S
C1673 H1659 0.929 . S
C1673 C1672 1.399 . S
C1673 C1674 1.385 . S
C1674 H1660 0.931 . S
C1674 C1673 1.385 . S
C1674 C1675 1.389 1_455 S
C1675 C1674 1.389 1_655 S
C1675 C1676 1.387 . S
C1676 H1661 0.930 . S
C1676 C1671 1.390 . S
C1676 C1675 1.387 . S
H1677 C1689 0.930 . S
H1678 C1691 0.930 . S
H1679 C1692 0.930 . S
H1680 C1696 0.959 . S
H1681 C1696 0.959 . S
H1682 C1696 0.961 . S
H1683 C1697 0.960 . S
H1684 C1697 0.961 . S
H1685 C1697 0.959 . S
H1686 C1700 0.929 . S
H1687 C1701 0.931 . S
H1688 C1703 0.930 . S
C1689 H1677 0.930 . S
C1689 C1690 1.399 1_545 S
C1689 C1694 1.399 . S
C1690 C1689 1.399 1_565 S
C1690 C1691 1.376 . S
C1691 H1678 0.930 . S
C1691 C1690 1.376 . S
C1691 C1692 1.388 . S
C1692 H1679 0.930 . S
C1692 C1691 1.388 . S
C1692 C1693 1.390 . S
C1693 C1692 1.390 . S
C1693 C1694 1.394 1_565 S
C1693 C1699 1.465 . S
C1694 C1689 1.399 . S
C1694 C1693 1.394 1_545 S
C1694 C1695 1.516 . S
C1695 C1694 1.516 . S
C1695 C1696 1.502 . S
C1695 C1697 1.561 . S
C1695 C1698 1.526 . S
C1696 H1680 0.959 . S
C1696 H1681 0.959 . S
C1696 H1682 0.961 . S
C1696 C1695 1.502 . S
C1697 H1683 0.960 . S
C1697 H1684 0.961 . S
C1697 H1685 0.959 . S
C1697 C1695 1.561 . S
C1698 C1695 1.526 . S
C1698 C1699 1.396 1_545 S
C1698 C1703 1.390 . S
C1699 C1693 1.465 . S
C1699 C1698 1.396 1_565 S
C1699 C1700 1.399 . S
C1700 H1686 0.929 . S
C1700 C1699 1.399 . S
C1700 C1701 1.385 . S
C1701 H1687 0.931 . S
C1701 C1700 1.385 . S
C1701 C1702 1.389 1_565 S
C1702 C1701 1.389 1_545 S
C1702 C1703 1.387 . S
C1703 H1688 0.930 . S
C1703 C1698 1.390 . S
C1703 C1702 1.387 . S
C1069 C673 1.486 . S
C1081 C29 1.438 . S
C1096 C137 1.502 . S
C1108 C753 1.449 . S
C1123 C233 1.437 . S
C1135 C849 1.464 . S
C1150 C284 1.509 . S
C1162 C929 1.459 . S
C1177 C1025 1.513 . S
C1189 C372 1.472 . S
C1204 C557 1.435 . S
C1216 C460 1.475 . S
C1231 C909 0.945 . S
C1243 C49 0.938 . S
C1258 C117 0.959 . S
C1270 C988 0.945 . S
C1285 C196 0.937 . S
C1297 C577 0.954 . S
C1312 C636 0.952 . S
C1324 C321 0.955 . S
C1339 C733 0.936 . S
C1351 C409 0.953 . S
C1366 C812 0.939 . S
C1378 C497 0.957 . S
C1393 C20 1.659 . S
C1405 C761 1.662 . S
C1420 C145 1.661 . S
C1432 C841 1.658 . S
C1447 C937 1.650 . S
C1459 C225 1.647 . S
C1474 C293 1.648 . S
C1486 C1017 1.647 . S
C1501 C548 1.646 . S
C1513 C381 1.649 . S
C1528 C665 1.657 . S
C1540 C469 1.661 . S
C1555 C313 1.828 . S
C1567 C57 1.870 . S
C1582 C401 1.877 . S
C1594 C108 1.815 . S
C1609 C205 1.877 . S
C1621 C489 1.815 . S
C1636 C585 1.889 . S
C1648 C821 1.809 . S
C1663 C645 1.822 . S
C1675 C900 1.876 . S
C1690 C997 1.823 . S
C1702 C724 1.867 . S
