# Generated by pormake.
# Topology vbk, (5)-cn, num edge types: 1
# Building blocks:
#     Node 0, Type 0, BuildingBlock: XOMCOT_clean_sbu_0, # of connection points: 5
#     Node 1, Type 0, BuildingBlock: XOMCOT_clean_sbu_0, # of connection points: 5
#     Node 2, Type 0, BuildingBlock: XOMCOT_clean_sbu_0, # of connection points: 5
#     Node 3, Type 0, BuildingBlock: XOMCOT_clean_sbu_0, # of connection points: 5
#     Node 4, Type 0, BuildingBlock: XOMCOT_clean_sbu_0, # of connection points: 5
#     Node 5, Type 0, BuildingBlock: XOMCOT_clean_sbu_0, # of connection points: 5
#     Node 6, Type 0, BuildingBlock: XOMCOT_clean_sbu_0, # of connection points: 5
#     Node 7, Type 0, BuildingBlock: XOMCOT_clean_sbu_0, # of connection points: 5
#     Node 8, Type 0, BuildingBlock: XOMCOT_clean_sbu_0, # of connection points: 5
#     Node 9, Type 0, BuildingBlock: XOMCOT_clean_sbu_0, # of connection points: 5
#     Node 10, Type 0, BuildingBlock: XOMCOT_clean_sbu_0, # of connection points: 5
#     Node 11, Type 0, BuildingBlock: XOMCOT_clean_sbu_0, # of connection points: 5
#     Node 12, Type 0, BuildingBlock: XOMCOT_clean_sbu_0, # of connection points: 5
#     Node 13, Type 0, BuildingBlock: XOMCOT_clean_sbu_0, # of connection points: 5
#     Node 14, Type 0, BuildingBlock: XOMCOT_clean_sbu_0, # of connection points: 5
#     Node 15, Type 0, BuildingBlock: XOMCOT_clean_sbu_0, # of connection points: 5
#     Edge 16, Type (0, 0), BuildingBlock: UVAHIK_clean_linker_0, # of connection points: 2
#     Edge 17, Type (0, 0), BuildingBlock: UVAHIK_clean_linker_0, # of connection points: 2
#     Edge 18, Type (0, 0), BuildingBlock: UVAHIK_clean_linker_0, # of connection points: 2
#     Edge 19, Type (0, 0), BuildingBlock: UVAHIK_clean_linker_0, # of connection points: 2
#     Edge 20, Type (0, 0), BuildingBlock: UVAHIK_clean_linker_0, # of connection points: 2
#     Edge 21, Type (0, 0), BuildingBlock: UVAHIK_clean_linker_0, # of connection points: 2
#     Edge 22, Type (0, 0), BuildingBlock: UVAHIK_clean_linker_0, # of connection points: 2
#     Edge 23, Type (0, 0), BuildingBlock: UVAHIK_clean_linker_0, # of connection points: 2
#     Edge 24, Type (0, 0), BuildingBlock: UVAHIK_clean_linker_0, # of connection points: 2
#     Edge 25, Type (0, 0), BuildingBlock: UVAHIK_clean_linker_0, # of connection points: 2
#     Edge 26, Type (0, 0), BuildingBlock: UVAHIK_clean_linker_0, # of connection points: 2
#     Edge 27, Type (0, 0), BuildingBlock: UVAHIK_clean_linker_0, # of connection points: 2
#     Edge 28, Type (0, 0), BuildingBlock: UVAHIK_clean_linker_0, # of connection points: 2
#     Edge 29, Type (0, 0), BuildingBlock: UVAHIK_clean_linker_0, # of connection points: 2
#     Edge 30, Type (0, 0), BuildingBlock: UVAHIK_clean_linker_0, # of connection points: 2
#     Edge 31, Type (0, 0), BuildingBlock: UVAHIK_clean_linker_0, # of connection points: 2
#     Edge 32, Type (0, 0), BuildingBlock: UVAHIK_clean_linker_0, # of connection points: 2
#     Edge 33, Type (0, 0), BuildingBlock: UVAHIK_clean_linker_0, # of connection points: 2
#     Edge 34, Type (0, 0), BuildingBlock: UVAHIK_clean_linker_0, # of connection points: 2
#     Edge 35, Type (0, 0), BuildingBlock: UVAHIK_clean_linker_0, # of connection points: 2
#     Edge 36, Type (0, 0), BuildingBlock: UVAHIK_clean_linker_0, # of connection points: 2
#     Edge 37, Type (0, 0), BuildingBlock: UVAHIK_clean_linker_0, # of connection points: 2
#     Edge 38, Type (0, 0), BuildingBlock: UVAHIK_clean_linker_0, # of connection points: 2
#     Edge 39, Type (0, 0), BuildingBlock: UVAHIK_clean_linker_0, # of connection points: 2
#     Edge 40, Type (0, 0), BuildingBlock: UVAHIK_clean_linker_0, # of connection points: 2
#     Edge 41, Type (0, 0), BuildingBlock: UVAHIK_clean_linker_0, # of connection points: 2
#     Edge 42, Type (0, 0), BuildingBlock: UVAHIK_clean_linker_0, # of connection points: 2
#     Edge 43, Type (0, 0), BuildingBlock: UVAHIK_clean_linker_0, # of connection points: 2
#     Edge 44, Type (0, 0), BuildingBlock: UVAHIK_clean_linker_0, # of connection points: 2
#     Edge 45, Type (0, 0), BuildingBlock: UVAHIK_clean_linker_0, # of connection points: 2
#     Edge 46, Type (0, 0), BuildingBlock: UVAHIK_clean_linker_0, # of connection points: 2
#     Edge 47, Type (0, 0), BuildingBlock: UVAHIK_clean_linker_0, # of connection points: 2
#     Edge 48, Type (0, 0), BuildingBlock: UVAHIK_clean_linker_0, # of connection points: 2
#     Edge 49, Type (0, 0), BuildingBlock: UVAHIK_clean_linker_0, # of connection points: 2
#     Edge 50, Type (0, 0), BuildingBlock: UVAHIK_clean_linker_0, # of connection points: 2
#     Edge 51, Type (0, 0), BuildingBlock: UVAHIK_clean_linker_0, # of connection points: 2
#     Edge 52, Type (0, 0), BuildingBlock: UVAHIK_clean_linker_0, # of connection points: 2
#     Edge 53, Type (0, 0), BuildingBlock: UVAHIK_clean_linker_0, # of connection points: 2
#     Edge 54, Type (0, 0), BuildingBlock: UVAHIK_clean_linker_0, # of connection points: 2
#     Edge 55, Type (0, 0), BuildingBlock: UVAHIK_clean_linker_0, # of connection points: 2
# Relax obj value: 0.119
# Max RMSD: 0.184
# Mean RMSD: 0.184
data_MOF--net-vbk--node1-XOMCOT_clean_sbu_0--edge1-UVAHIK_clean_linker_0
_symmetry_space_group_name_H-M    P1
_symmetry_Int_Tables_number       1
_symmetry_cell_setting            triclinic
loop_
_symmetry_equiv_pos_as_xyz
'x, y, z'
_cell_length_a     84.707265
_cell_length_b     61.708054
_cell_length_c     32.775567
_cell_angle_alpha  89.957724
_cell_angle_beta   89.960755
_cell_angle_gamma 90.033476
loop_
_atom_site_label
_atom_site_type_symbol
_atom_site_fract_x
_atom_site_fract_y
_atom_site_fract_z
_atom_type_partial_charge
Co0 Co 0.14138 0.14254 0.13402 0.0
C1 C 0.10751 0.1474 0.10969 0.0
C2 C 0.11086 0.14663 0.17467 0.0
C3 C 0.09509 0.14948 0.16697 0.0
N4 N 0.11871 0.14568 0.13893 0.0
N5 N 0.093 0.14994 0.12629 0.0
H6 H 0.1099 0.14695 0.07726 0.0
H7 H 0.11615 0.14506 0.20449 0.0
C8 C 0.15174 0.1735 0.19968 0.0
O9 O 0.16129 0.18283 0.17336 0.0
N10 N 0.16433 0.13856 0.13097 0.0
C11 C 0.17311 0.13173 0.09898 0.0
C12 C 0.18861 0.12959 0.11101 0.0
C13 C 0.17463 0.13897 0.16254 0.0
N14 N 0.18955 0.13436 0.15101 0.0
C15 C 0.14954 0.17023 0.0678 0.0
C16 C 0.13547 0.20775 0.09587 0.0
C17 C 0.14381 0.2082 0.05887 0.0
C18 C 0.15066 0.18903 0.04475 0.0
C19 C 0.13484 0.18841 0.11853 0.0
N20 N 0.14243 0.17016 0.1051 0.0
H21 H 0.154 0.15556 0.0547 0.0
H22 H 0.12826 0.18812 0.14679 0.0
H23 H 0.16864 0.12763 0.06912 0.0
H24 H 0.17127 0.14153 0.19392 0.0
O25 O 0.13859 0.12439 0.08719 0.0
O26 O 0.13959 0.11238 0.15089 0.0
O27 O 0.14356 0.15701 0.1891 0.0
C28 C 0.13828 0.10803 0.11204 0.0
H29 H 0.08576 0.1505 0.18949 0.0
H30 H 0.19838 0.12481 0.09173 0.0
H31 H 0.12963 0.22214 0.1072 0.0
H32 H 0.1565 0.18839 0.01534 0.0
Co33 Co 0.37692 0.86406 0.6276 0.0
C34 C 0.41119 0.85767 0.60671 0.0
C35 C 0.40703 0.86611 0.66945 0.0
C36 C 0.42291 0.86284 0.66423 0.0
N37 N 0.39962 0.86261 0.63372 0.0
N38 N 0.42554 0.85753 0.62495 0.0
H39 H 0.40913 0.85368 0.57501 0.0
H40 H 0.40122 0.87058 0.6976 0.0
C41 C 0.3669 0.83278 0.693 0.0
O42 O 0.35741 0.82348 0.66656 0.0
N43 N 0.35384 0.86646 0.62347 0.0
C44 C 0.34516 0.87208 0.59054 0.0
C45 C 0.32953 0.87371 0.60159 0.0
C46 C 0.34327 0.86623 0.65459 0.0
N47 N 0.32829 0.86985 0.64194 0.0
C48 C 0.37083 0.83627 0.56021 0.0
C49 C 0.38433 0.79889 0.59061 0.0
C50 C 0.37676 0.79828 0.55254 0.0
C51 C 0.37028 0.81743 0.5372 0.0
C52 C 0.38447 0.8183 0.61309 0.0
N53 N 0.37705 0.83644 0.59854 0.0
H54 H 0.36659 0.85089 0.54636 0.0
H55 H 0.39054 0.81873 0.64208 0.0
H56 H 0.34976 0.87602 0.56074 0.0
H57 H 0.34646 0.86398 0.68615 0.0
O58 O 0.3794 0.88249 0.58096 0.0
O59 O 0.37745 0.89432 0.64456 0.0
O60 O 0.37501 0.84938 0.68262 0.0
C61 C 0.37892 0.89882 0.60579 0.0
H62 H 0.4319 0.86428 0.68754 0.0
H63 H 0.31992 0.87823 0.58158 0.0
H64 H 0.38994 0.78455 0.60298 0.0
H65 H 0.36509 0.81801 0.50699 0.0
Co66 Co 0.13779 0.86409 0.89716 0.0
C67 C 0.10211 0.86289 0.91153 0.0
C68 C 0.10981 0.88811 0.87121 0.0
C69 C 0.09381 0.89007 0.87647 0.0
N70 N 0.11525 0.87135 0.89375 0.0
N71 N 0.089 0.87423 0.9017 0.0
H72 H 0.1018 0.84874 0.93073 0.0
H73 H 0.11697 0.89838 0.85192 0.0
C74 C 0.12608 0.84045 0.82431 0.0
O75 O 0.11393 0.83456 0.84662 0.0
N76 N 0.16016 0.85794 0.899 0.0
C77 C 0.16868 0.85138 0.93137 0.0
C78 C 0.18433 0.8502 0.91994 0.0
C79 C 0.17066 0.86077 0.86847 0.0
N80 N 0.18558 0.85614 0.88037 0.0
C81 C 0.12774 0.83562 0.96042 0.0
C82 C 0.1404 0.79806 0.92826 0.0
C83 C 0.13396 0.79769 0.96764 0.0
C84 C 0.12731 0.81663 0.98334 0.0
C85 C 0.14013 0.81736 0.90566 0.0
N86 N 0.13377 0.83586 0.92177 0.0
H87 H 0.1236 0.85041 0.97438 0.0
H88 H 0.146 0.81775 0.8764 0.0
H89 H 0.16387 0.84791 0.96126 0.0
H90 H 0.16746 0.86673 0.83854 0.0
O91 O 0.13953 0.88046 0.94691 0.0
O92 O 0.14279 0.89423 0.88512 0.0
O93 O 0.137 0.8521 0.83988 0.0
C94 C 0.14239 0.89732 0.92447 0.0
H95 H 0.08621 0.902 0.86231 0.0
H96 H 0.19402 0.84528 0.93935 0.0
H97 H 0.14603 0.78379 0.91569 0.0
H98 H 0.12266 0.81707 0.01414 0.0
Co99 Co 0.3804 0.1442 0.39485 0.0
C100 C 0.41618 0.14141 0.40697 0.0
C101 C 0.40692 0.12272 0.3573 0.0
C102 C 0.42286 0.11926 0.35926 0.0
N103 N 0.40255 0.13643 0.38728 0.0
N104 N 0.42868 0.13095 0.39043 0.0
H105 H 0.41722 0.15219 0.43263 0.0
H106 H 0.39898 0.11572 0.33511 0.0
C107 C 0.39106 0.16826 0.32167 0.0
O108 O 0.40351 0.17365 0.34328 0.0
N109 N 0.35825 0.15077 0.40011 0.0
C110 C 0.3503 0.15763 0.43324 0.0
C111 C 0.33446 0.15876 0.42351 0.0
C112 C 0.34727 0.14764 0.371 0.0
N113 N 0.33258 0.15238 0.38436 0.0
C114 C 0.39197 0.17213 0.45725 0.0
C115 C 0.38014 0.21041 0.42601 0.0
C116 C 0.3873 0.21056 0.46458 0.0
C117 C 0.39341 0.19112 0.47986 0.0
C118 C 0.37919 0.191 0.40395 0.0
N119 N 0.38532 0.17218 0.41936 0.0
H120 H 0.39566 0.15712 0.4712 0.0
H121 H 0.37272 0.19094 0.37557 0.0
H122 H 0.3556 0.16117 0.4625 0.0
H123 H 0.35006 0.14185 0.34069 0.0
O124 O 0.37956 0.12744 0.44434 0.0
O125 O 0.37489 0.11422 0.38278 0.0
O126 O 0.38017 0.15671 0.33778 0.0
C127 C 0.37605 0.11082 0.42193 0.0
H128 H 0.42971 0.10917 0.33887 0.0
H129 H 0.32504 0.1633 0.44411 0.0
H130 H 0.37497 0.22502 0.41348 0.0
H131 H 0.39849 0.1903 0.51014 0.0
Co132 Co 0.87628 0.86205 0.88343 0.0
C133 C 0.91032 0.85698 0.90644 0.0
C134 C 0.90659 0.85822 0.84163 0.0
C135 C 0.92239 0.85526 0.84863 0.0
N136 N 0.89894 0.85895 0.87769 0.0
N137 N 0.92473 0.8545 0.8892 0.0
H138 H 0.90813 0.85719 0.93897 0.0
H139 H 0.90112 0.86 0.81207 0.0
C140 C 0.86581 0.83075 0.81838 0.0
O141 O 0.85639 0.82133 0.84489 0.0
N142 N 0.85332 0.86605 0.88735 0.0
C143 C 0.84496 0.87364 0.91945 0.0
C144 C 0.82946 0.87643 0.90812 0.0
C145 C 0.84274 0.86566 0.85634 0.0
N146 N 0.82801 0.87128 0.86835 0.0
C147 C 0.86837 0.83463 0.95024 0.0
C148 C 0.88267 0.79714 0.92279 0.0
C149 C 0.8745 0.79682 0.96005 0.0
C150 C 0.86751 0.81597 0.9738 0.0
C151 C 0.88305 0.81632 0.89962 0.0
N152 N 0.87541 0.83457 0.91284 0.0
H153 H 0.8638 0.84931 0.96303 0.0
H154 H 0.88953 0.81651 0.87119 0.0
H155 H 0.84979 0.87812 0.94874 0.0
H156 H 0.84581 0.86213 0.82516 0.0
O157 O 0.87935 0.88047 0.92982 0.0
O158 O 0.87791 0.89209 0.86591 0.0
O159 O 0.87385 0.84739 0.82869 0.0
C160 C 0.87941 0.89669 0.90461 0.0
H161 H 0.93158 0.85432 0.82571 0.0
H162 H 0.82017 0.88268 0.92743 0.0
H163 H 0.8886 0.78276 0.91166 0.0
H164 H 0.86177 0.81674 1.00333 0.0
Co165 Co 0.64434 0.13908 0.38863 0.0
C166 C 0.60864 0.13662 0.40213 0.0
C167 C 0.61754 0.11662 0.35387 0.0
C168 C 0.60156 0.11355 0.35645 0.0
N169 N 0.62217 0.1309 0.38264 0.0
N170 N 0.59596 0.12608 0.38673 0.0
H171 H 0.60777 0.14819 0.42658 0.0
H172 H 0.6253 0.10908 0.33185 0.0
C173 C 0.63272 0.1632 0.31654 0.0
O174 O 0.62044 0.16828 0.33906 0.0
N175 N 0.66648 0.14621 0.3925 0.0
C176 C 0.67452 0.15321 0.42534 0.0
C177 C 0.69012 0.15597 0.41437 0.0
C178 C 0.67719 0.14464 0.36224 0.0
N179 N 0.6918 0.15058 0.37463 0.0
C180 C 0.63306 0.16645 0.45222 0.0
C181 C 0.64372 0.20527 0.42043 0.0
C182 C 0.63679 0.20508 0.45931 0.0
C183 C 0.63133 0.18534 0.47494 0.0
C184 C 0.64497 0.18593 0.39828 0.0
N185 N 0.63936 0.16684 0.4139 0.0
H186 H 0.62968 0.15128 0.46615 0.0
H187 H 0.6512 0.18617 0.36952 0.0
H188 H 0.66939 0.15615 0.45506 0.0
H189 H 0.67434 0.13888 0.33197 0.0
O190 O 0.64582 0.12215 0.43781 0.0
O191 O 0.65001 0.10924 0.37579 0.0
O192 O 0.64386 0.15178 0.33174 0.0
C193 C 0.64916 0.10564 0.41494 0.0
H194 H 0.59452 0.10326 0.33684 0.0
H195 H 0.69944 0.16175 0.43414 0.0
H196 H 0.64842 0.22013 0.40765 0.0
H197 H 0.62645 0.18429 0.50544 0.0
Co198 Co 0.88063 0.14124 0.11292 0.0
C199 C 0.91628 0.14047 0.0995 0.0
C200 C 0.90764 0.1136 0.13432 0.0
C201 C 0.92359 0.11102 0.129 0.0
N202 N 0.9028 0.13187 0.11521 0.0
N203 N 0.92899 0.12791 0.10721 0.0
H204 H 0.9171 0.15572 0.08362 0.0
H205 H 0.90016 0.10273 0.15148 0.0
C206 C 0.89375 0.1646 0.18462 0.0
O207 O 0.90582 0.16979 0.16151 0.0
N208 N 0.85866 0.14958 0.11202 0.0
C209 C 0.85035 0.15744 0.08033 0.0
C210 C 0.83491 0.16024 0.09259 0.0
C211 C 0.84824 0.14753 0.14291 0.0
N212 N 0.83357 0.15397 0.13198 0.0
C213 C 0.89202 0.16791 0.0487 0.0
C214 C 0.88261 0.20737 0.08034 0.0
C215 C 0.8894 0.20665 0.04133 0.0
C216 C 0.89421 0.18663 0.02575 0.0
C217 C 0.88099 0.18815 0.10291 0.0
N218 N 0.88597 0.16876 0.08726 0.0
H219 H 0.89522 0.15255 0.03528 0.0
H220 H 0.87507 0.18875 0.13209 0.0
H221 H 0.85516 0.16077 0.05039 0.0
H222 H 0.85131 0.1409 0.17241 0.0
O223 O 0.87764 0.12477 0.06371 0.0
O224 O 0.87414 0.11175 0.12599 0.0
O225 O 0.8824 0.15343 0.16989 0.0
C226 C 0.87412 0.10837 0.08671 0.0
H227 H 0.93076 0.09799 0.14104 0.0
H228 H 0.82545 0.16651 0.07384 0.0
H229 H 0.8784 0.22252 0.09293 0.0
H230 H 0.89907 0.18531 0.99527 0.0
Co231 Co 0.63714 0.85867 0.61671 0.0
C232 C 0.6025 0.85392 0.59863 0.0
C233 C 0.60762 0.86203 0.66104 0.0
C234 C 0.59162 0.85945 0.65716 0.0
N235 N 0.61449 0.8583 0.62467 0.0
N236 N 0.58838 0.85435 0.61809 0.0
H237 H 0.60408 0.84987 0.56676 0.0
H238 H 0.61387 0.86613 0.68873 0.0
C239 C 0.64765 0.8273 0.68109 0.0
O240 O 0.657 0.81826 0.65398 0.0
N241 N 0.66016 0.86013 0.61085 0.0
C242 C 0.66865 0.86525 0.57727 0.0
C243 C 0.68425 0.86782 0.58787 0.0
C244 C 0.67078 0.8611 0.64171 0.0
N245 N 0.68565 0.86509 0.62852 0.0
C246 C 0.64195 0.82983 0.54966 0.0
C247 C 0.627 0.79395 0.58218 0.0
C248 C 0.63417 0.79239 0.54374 0.0
C249 C 0.64156 0.81066 0.52742 0.0
C250 C 0.62801 0.81348 0.60401 0.0
N251 N 0.63596 0.83092 0.58822 0.0
H252 H 0.64665 0.84396 0.53502 0.0
H253 H 0.62227 0.81465 0.63339 0.0
H254 H 0.6639 0.86864 0.54742 0.0
H255 H 0.6676 0.85973 0.67346 0.0
O256 O 0.63464 0.87723 0.57014 0.0
O257 O 0.63761 0.88888 0.63362 0.0
O258 O 0.63934 0.84383 0.67151 0.0
C259 C 0.63595 0.89351 0.59498 0.0
H260 H 0.58295 0.86118 0.68125 0.0
H261 H 0.69365 0.87251 0.56731 0.0
H262 H 0.62077 0.78026 0.59519 0.0
H263 H 0.64661 0.81032 0.49703 0.0
Co264 Co 0.64093 0.63572 0.1192 0.0
C265 C 0.60529 0.63514 0.10514 0.0
C266 C 0.61361 0.60967 0.14395 0.0
C267 C 0.59764 0.60715 0.13891 0.0
N268 N 0.61865 0.62698 0.12223 0.0
N269 N 0.59243 0.62316 0.11461 0.0
H270 H 0.60465 0.64966 0.08695 0.0
H271 H 0.62098 0.59946 0.16275 0.0
C272 C 0.62803 0.66035 0.18972 0.0
O273 O 0.61586 0.66512 0.16664 0.0
N274 N 0.66304 0.64337 0.11769 0.0
C275 C 0.67164 0.64937 0.08501 0.0
C276 C 0.68722 0.65122 0.09675 0.0
C277 C 0.67342 0.64157 0.14871 0.0
N278 N 0.68832 0.64628 0.13681 0.0
C279 C 0.63014 0.66194 0.05335 0.0
C280 C 0.64134 0.70104 0.08261 0.0
C281 C 0.63498 0.70009 0.04321 0.0
C282 C 0.62908 0.68037 0.02893 0.0
C283 C 0.64172 0.68226 0.1067 0.0
N284 N 0.63607 0.663 0.09204 0.0
H285 H 0.62648 0.64658 0.04072 0.0
H286 H 0.6475 0.68294 0.13604 0.0
H287 H 0.66696 0.65179 0.05465 0.0
H288 H 0.67019 0.63607 0.17894 0.0
O289 O 0.64364 0.61829 0.071 0.0
O290 O 0.64705 0.60635 0.13406 0.0
O291 O 0.63934 0.64897 0.17538 0.0
C292 C 0.64715 0.60229 0.09503 0.0
H293 H 0.59032 0.59479 0.15282 0.0
H294 H 0.69699 0.65572 0.07719 0.0
H295 H 0.64638 0.71596 0.09414 0.0
H296 H 0.62448 0.67894 0.99821 0.0
Co297 Co 0.88059 0.35946 0.6113 0.0
C298 C 0.91615 0.36142 0.597 0.0
C299 C 0.90711 0.38855 0.6303 0.0
C300 C 0.92301 0.39156 0.62467 0.0
N301 N 0.90256 0.3698 0.61242 0.0
N302 N 0.92867 0.37451 0.60388 0.0
H303 H 0.91721 0.34592 0.58212 0.0
H304 H 0.89949 0.39942 0.64697 0.0
C305 C 0.89466 0.33712 0.68298 0.0
O306 O 0.90679 0.33264 0.65956 0.0
N307 N 0.85882 0.35015 0.61131 0.0
C308 C 0.85056 0.34185 0.57994 0.0
C309 C 0.83522 0.33853 0.59254 0.0
C310 C 0.84845 0.35195 0.64238 0.0
N311 N 0.83387 0.34493 0.63183 0.0
C312 C 0.89214 0.33279 0.54721 0.0
C313 C 0.88352 0.29331 0.58033 0.0
C314 C 0.88975 0.29394 0.54068 0.0
C315 C 0.89423 0.31399 0.52442 0.0
C316 C 0.88189 0.31259 0.60256 0.0
N317 N 0.8864 0.33202 0.5861 0.0
H318 H 0.89501 0.34816 0.53329 0.0
H319 H 0.87623 0.31199 0.63209 0.0
H320 H 0.85533 0.3386 0.54994 0.0
H321 H 0.85146 0.35885 0.6717 0.0
O322 O 0.87697 0.37552 0.56184 0.0
O323 O 0.8735 0.38869 0.624 0.0
O324 O 0.88292 0.34759 0.66849 0.0
C325 C 0.87318 0.39187 0.58466 0.0
H326 H 0.93 0.40497 0.63602 0.0
H327 H 0.82582 0.33186 0.57407 0.0
H328 H 0.87963 0.27816 0.59368 0.0
H329 H 0.89866 0.31531 0.4935 0.0
Co330 Co 0.64473 0.35765 0.88779 0.0
C331 C 0.60901 0.36138 0.90049 0.0
C332 C 0.61856 0.38182 0.85368 0.0
C333 C 0.60264 0.38542 0.8559 0.0
N334 N 0.62277 0.36693 0.88182 0.0
N335 N 0.59661 0.37261 0.88528 0.0
H336 H 0.60779 0.34937 0.92412 0.0
H337 H 0.62656 0.38938 0.83225 0.0
C338 C 0.63262 0.33425 0.81535 0.0
O339 O 0.62012 0.32966 0.8375 0.0
N340 N 0.66666 0.34943 0.89161 0.0
C341 C 0.67456 0.34198 0.92435 0.0
C342 C 0.69015 0.33899 0.9135 0.0
C343 C 0.67746 0.35103 0.86153 0.0
N344 N 0.69197 0.3447 0.87393 0.0
C345 C 0.63271 0.3308 0.95134 0.0
C346 C 0.6428 0.29161 0.92005 0.0
C347 C 0.63605 0.29213 0.95912 0.0
C348 C 0.63081 0.31204 0.97442 0.0
C349 C 0.64424 0.31084 0.89753 0.0
N350 N 0.63899 0.33013 0.913 0.0
H351 H 0.62956 0.34611 0.96502 0.0
H352 H 0.6504 0.31033 0.86869 0.0
H353 H 0.66936 0.33902 0.954 0.0
H354 H 0.67476 0.35723 0.83146 0.0
O355 O 0.64671 0.37442 0.93698 0.0
O356 O 0.65132 0.38714 0.87498 0.0
O357 O 0.64397 0.34511 0.83091 0.0
C358 C 0.65069 0.3907 0.91415 0.0
H359 H 0.59592 0.39624 0.83657 0.0
H360 H 0.69939 0.33295 0.93325 0.0
H361 H 0.6473 0.27661 0.90746 0.0
H362 H 0.62603 0.31333 1.00499 0.0
Co363 Co 0.87879 0.63937 0.38663 0.0
C364 C 0.9135 0.64327 0.40201 0.0
C365 C 0.90778 0.63416 0.34043 0.0
C366 C 0.92384 0.63683 0.34316 0.0
N367 N 0.90128 0.6384 0.37705 0.0
N368 N 0.92741 0.64251 0.38173 0.0
H369 H 0.91223 0.64812 0.43357 0.0
H370 H 0.90122 0.62999 0.31325 0.0
C371 C 0.86704 0.67039 0.32303 0.0
O372 O 0.85756 0.67879 0.35056 0.0
N373 N 0.85593 0.63968 0.39439 0.0
C374 C 0.84737 0.64181 0.42884 0.0
C375 C 0.83158 0.64054 0.4192 0.0
C376 C 0.84514 0.63618 0.3647 0.0
N377 N 0.83011 0.63724 0.37863 0.0
C378 C 0.87962 0.66555 0.45823 0.0
C379 C 0.88848 0.70422 0.42244 0.0
C380 C 0.88562 0.70356 0.46452 0.0
C381 C 0.88145 0.68385 0.48241 0.0
C382 C 0.88685 0.68521 0.39929 0.0
N383 N 0.8815 0.66644 0.41687 0.0
H384 H 0.87686 0.65054 0.47335 0.0
H385 H 0.89016 0.68566 0.36753 0.0
H386 H 0.852 0.64371 0.4592 0.0
H387 H 0.84837 0.6334 0.33324 0.0
O388 O 0.88102 0.61974 0.43166 0.0
O389 O 0.87692 0.60947 0.36792 0.0
O390 O 0.87633 0.65488 0.33256 0.0
C391 C 0.87883 0.60404 0.40608 0.0
H392 H 0.93227 0.63511 0.31854 0.0
H393 H 0.82198 0.6418 0.44083 0.0
H394 H 0.89226 0.7191 0.40785 0.0
H395 H 0.87946 0.6826 0.515 0.0
Co396 Co 0.38034 0.36215 0.89491 0.0
C397 C 0.4163 0.36381 0.9059 0.0
C398 C 0.407 0.38386 0.85817 0.0
C399 C 0.42301 0.38677 0.85955 0.0
N400 N 0.40259 0.36965 0.88735 0.0
N401 N 0.42887 0.37423 0.8895 0.0
H402 H 0.41735 0.35233 0.93048 0.0
H403 H 0.39904 0.39152 0.8368 0.0
C404 C 0.39073 0.33839 0.82143 0.0
O405 O 0.40302 0.33256 0.84324 0.0
N406 N 0.35809 0.35589 0.90001 0.0
C407 C 0.34994 0.3498 0.93337 0.0
C408 C 0.33413 0.34855 0.92319 0.0
C409 C 0.34727 0.35833 0.87023 0.0
N410 N 0.3325 0.3539 0.88342 0.0
C411 C 0.39193 0.3336 0.95621 0.0
C412 C 0.37946 0.29572 0.92494 0.0
C413 C 0.38691 0.29523 0.96314 0.0
C414 C 0.39332 0.31447 0.97843 0.0
C415 C 0.37857 0.31528 0.90321 0.0
N416 N 0.38503 0.33389 0.91861 0.0
H417 H 0.39593 0.34844 0.97021 0.0
H418 H 0.37194 0.31564 0.87507 0.0
H419 H 0.35509 0.34674 0.96301 0.0
H420 H 0.35014 0.36391 0.83981 0.0
O421 O 0.37987 0.37829 0.94494 0.0
O422 O 0.37503 0.39245 0.88421 0.0
O423 O 0.37997 0.35015 0.83748 0.0
C424 C 0.37656 0.39531 0.92345 0.0
H425 H 0.42988 0.39703 0.83945 0.0
H426 H 0.32461 0.344 0.9435 0.0
H427 H 0.37403 0.28128 0.91245 0.0
H428 H 0.39865 0.31504 0.00846 0.0
Co429 Co 0.1412 0.64559 0.39968 0.0
C430 C 0.10657 0.65117 0.41743 0.0
C431 C 0.11168 0.6406 0.3563 0.0
C432 C 0.09567 0.64318 0.35991 0.0
N433 N 0.11856 0.64583 0.39199 0.0
N434 N 0.09247 0.64976 0.39816 0.0
H435 H 0.10812 0.6565 0.44863 0.0
H436 H 0.11793 0.63544 0.32923 0.0
C437 C 0.15148 0.67497 0.33181 0.0
O438 O 0.16083 0.6849 0.35777 0.0
N439 N 0.16424 0.64413 0.40517 0.0
C440 C 0.17287 0.64014 0.43904 0.0
C441 C 0.18848 0.63766 0.42838 0.0
C442 C 0.17478 0.64247 0.3742 0.0
N443 N 0.1897 0.63922 0.38751 0.0
C444 C 0.14632 0.67647 0.46323 0.0
C445 C 0.13056 0.71096 0.42823 0.0
C446 C 0.13769 0.71362 0.46648 0.0
C447 C 0.14557 0.69608 0.48394 0.0
C448 C 0.13196 0.69102 0.40788 0.0
N449 N 0.14019 0.67421 0.42501 0.0
H450 H 0.15127 0.66287 0.479 0.0
H451 H 0.12616 0.68896 0.37877 0.0
H452 H 0.16822 0.63757 0.46932 0.0
H453 H 0.17159 0.64298 0.34235 0.0
O454 O 0.1387 0.62868 0.4484 0.0
O455 O 0.14136 0.61485 0.38638 0.0
O456 O 0.14331 0.65862 0.34326 0.0
C457 C 0.13961 0.61159 0.42551 0.0
H458 H 0.08698 0.64057 0.3362 0.0
H459 H 0.19807 0.63391 0.44903 0.0
H460 H 0.12396 0.72406 0.41438 0.0
H461 H 0.15061 0.69727 0.51424 0.0
Co462 Co 0.37907 0.64044 0.12938 0.0
C463 C 0.4134 0.64325 0.10865 0.0
C464 C 0.40897 0.64168 0.17318 0.0
C465 C 0.42495 0.64361 0.16723 0.0
N466 N 0.4017 0.64178 0.13664 0.0
N467 N 0.4277 0.64457 0.12684 0.0
H468 H 0.41151 0.64353 0.07599 0.0
H469 H 0.4031 0.64005 0.20229 0.0
C470 C 0.36703 0.67111 0.19392 0.0
O471 O 0.35662 0.67881 0.16797 0.0
N472 N 0.35616 0.63852 0.12411 0.0
C473 C 0.34687 0.63943 0.09069 0.0
C474 C 0.33134 0.6371 0.10245 0.0
C475 C 0.34609 0.63464 0.15533 0.0
N476 N 0.33084 0.63428 0.14323 0.0
C477 C 0.37685 0.66596 0.05717 0.0
C478 C 0.38446 0.70574 0.09029 0.0
C479 C 0.37956 0.70465 0.04945 0.0
C480 C 0.37626 0.68433 0.03274 0.0
C481 C 0.38477 0.68673 0.11398 0.0
N482 N 0.37992 0.66736 0.09795 0.0
H483 H 0.3748 0.65054 0.04284 0.0
H484 H 0.38895 0.68771 0.14503 0.0
H485 H 0.3508 0.64135 0.05968 0.0
H486 H 0.34991 0.63222 0.18648 0.0
O487 O 0.38178 0.62057 0.08482 0.0
O488 O 0.37899 0.6107 0.14944 0.0
O489 O 0.3766 0.6562 0.18306 0.0
C490 C 0.38088 0.60508 0.1114 0.0
H491 H 0.43394 0.64378 0.1907 0.0
H492 H 0.3212 0.63786 0.08244 0.0
H493 H 0.38772 0.72108 0.1039 0.0
H494 H 0.37328 0.68259 1.00075 0.0
Co495 Co 0.14217 0.3646 0.63214 0.0
C496 C 0.10782 0.36092 0.61281 0.0
C497 C 0.11244 0.36418 0.67701 0.0
C498 C 0.09648 0.36168 0.67167 0.0
N499 N 0.11959 0.36341 0.6403 0.0
N500 N 0.0936 0.35966 0.63146 0.0
H501 H 0.10963 0.35969 0.5802 0.0
H502 H 0.11841 0.36644 0.70582 0.0
C503 C 0.15409 0.33431 0.69675 0.0
O504 O 0.16368 0.32584 0.66953 0.0
N505 N 0.1651 0.36647 0.62577 0.0
C506 C 0.17385 0.3676 0.59142 0.0
C507 C 0.18955 0.36938 0.60186 0.0
C508 C 0.17566 0.36889 0.65643 0.0
N509 N 0.19074 0.36992 0.64291 0.0
C510 C 0.14431 0.33721 0.56237 0.0
C511 C 0.13349 0.29938 0.59781 0.0
C512 C 0.13745 0.29947 0.55632 0.0
C513 C 0.14275 0.3187 0.53863 0.0
C514 C 0.13495 0.31856 0.62051 0.0
N515 N 0.14107 0.33696 0.60317 0.0
H516 H 0.14747 0.35198 0.54709 0.0
H517 H 0.13077 0.31868 0.65162 0.0
H518 H 0.16939 0.36792 0.56069 0.0
H519 H 0.17232 0.36962 0.6882 0.0
O520 O 0.13929 0.38314 0.58584 0.0
O521 O 0.14217 0.39493 0.64912 0.0
O522 O 0.14492 0.34991 0.68693 0.0
C523 C 0.1402 0.39946 0.61052 0.0
H524 H 0.08758 0.3617 0.69541 0.0
H525 H 0.19928 0.37053 0.58058 0.0
H526 H 0.12883 0.28489 0.6121 0.0
H527 H 0.14552 0.3195 0.50637 0.0
C528 C 0.21704 0.12296 0.16591 0.0
C529 C 0.20357 0.13512 0.17611 0.0
C530 C 0.23078 0.1244 0.18948 0.0
C531 C 0.25123 0.16042 0.26251 0.0
H532 H 0.27592 0.10914 0.28681 0.0
C533 C 0.30456 0.16236 0.37295 0.0
C534 C 0.31797 0.15028 0.3619 0.0
C535 C 0.29044 0.16033 0.35107 0.0
C536 C 0.26926 0.12367 0.27994 0.0
H537 H 0.1941 0.15844 0.21918 0.0
H538 H 0.2179 0.16063 0.26055 0.0
H539 H 0.25166 0.10578 0.24729 0.0
H540 H 0.32682 0.12625 0.31931 0.0
H541 H 0.30243 0.12311 0.2808 0.0
H542 H 0.26886 0.17834 0.29493 0.0
C543 C 0.21789 0.1501 0.23413 0.0
C544 C 0.25534 0.12173 0.25727 0.0
C545 C 0.20416 0.14862 0.21066 0.0
C546 C 0.31686 0.13605 0.32848 0.0
C547 C 0.30276 0.13402 0.30665 0.0
C548 C 0.26516 0.16237 0.28513 0.0
C549 C 0.23141 0.1381 0.22373 0.0
C550 C 0.24616 0.14009 0.24821 0.0
C551 C 0.28936 0.14613 0.31762 0.0
C552 C 0.27438 0.14402 0.29407 0.0
H553 H 0.21698 0.11228 0.13975 0.0
H554 H 0.24101 0.11506 0.18037 0.0
H555 H 0.24459 0.17495 0.25556 0.0
H556 H 0.30498 0.1736 0.39824 0.0
H557 H 0.28032 0.16976 0.36065 0.0
C558 C 0.1994 0.85609 0.81353 0.0
C559 C 0.19987 0.85777 0.85633 0.0
C560 C 0.21327 0.85763 0.79034 0.0
C561 C 0.25455 0.87778 0.79462 0.0
H562 H 0.26084 0.83913 0.70287 0.0
C563 C 0.31437 0.8719 0.70877 0.0
C564 C 0.31395 0.86935 0.66609 0.0
C565 C 0.30049 0.87076 0.732 0.0
C566 C 0.25922 0.85025 0.72807 0.0
H567 H 0.21543 0.8627 0.90804 0.0
H568 H 0.23954 0.86505 0.86779 0.0
H569 H 0.23664 0.83669 0.74285 0.0
H570 H 0.29834 0.86346 0.61476 0.0
H571 H 0.27426 0.86204 0.65494 0.0
H572 H 0.27711 0.89137 0.77979 0.0
C573 C 0.22843 0.8627 0.85208 0.0
C574 C 0.24531 0.84884 0.75105 0.0
C575 C 0.21459 0.86109 0.87525 0.0
C576 C 0.29921 0.86577 0.64739 0.0
C577 C 0.28536 0.86465 0.67059 0.0
C578 C 0.26846 0.87922 0.77159 0.0
C579 C 0.22798 0.86097 0.8093 0.0
C580 C 0.24278 0.86257 0.78465 0.0
C581 C 0.28579 0.86703 0.71325 0.0
C582 C 0.27099 0.86548 0.73797 0.0
H583 H 0.18834 0.85334 0.79788 0.0
H584 H 0.21243 0.85642 0.75745 0.0
H585 H 0.25293 0.88884 0.81991 0.0
H586 H 0.32539 0.87486 0.72441 0.0
H587 H 0.30133 0.87247 0.76481 0.0
C588 C 0.7149 0.86516 0.63399 0.0
C589 C 0.69996 0.86662 0.65266 0.0
C590 C 0.72874 0.86627 0.65716 0.0
C591 C 0.74413 0.8833 0.75862 0.0
H592 H 0.77957 0.84682 0.72894 0.0
C593 C 0.79877 0.87171 0.86264 0.0
C594 C 0.81375 0.87179 0.84392 0.0
C595 C 0.78497 0.87167 0.83922 0.0
C596 C 0.76984 0.85728 0.73739 0.0
H597 H 0.68817 0.8706 0.7111 0.0
H598 H 0.71218 0.87183 0.75132 0.0
H599 H 0.7554 0.8454 0.68879 0.0
H600 H 0.82566 0.8723 0.78515 0.0
H601 H 0.80164 0.8719 0.74461 0.0
H602 H 0.75856 0.89489 0.80766 0.0
C603 C 0.71319 0.87021 0.71853 0.0
C604 C 0.75596 0.85651 0.7143 0.0
C605 C 0.69933 0.86922 0.69533 0.0
C606 C 0.81446 0.8719 0.80097 0.0
C607 C 0.80064 0.8717 0.77756 0.0
C608 C 0.75798 0.88396 0.78187 0.0
C609 C 0.7281 0.86871 0.69979 0.0
C610 C 0.7429 0.86953 0.72453 0.0
C611 C 0.78573 0.87154 0.79639 0.0
C612 C 0.77101 0.87098 0.77151 0.0
H613 H 0.716 0.86289 0.60141 0.0
H614 H 0.73998 0.86535 0.64149 0.0
H615 H 0.73445 0.89384 0.76708 0.0
H616 H 0.79763 0.87124 0.89549 0.0
H617 H 0.77367 0.87125 0.85471 0.0
C618 C 0.70547 0.15211 0.30765 0.0
C619 C 0.70613 0.15096 0.35052 0.0
C620 C 0.71932 0.15235 0.28433 0.0
C621 C 0.76209 0.16412 0.29045 0.0
H622 H 0.76427 0.13006 0.19127 0.0
C623 C 0.82032 0.15362 0.19962 0.0
C624 C 0.81941 0.15367 0.15674 0.0
C625 C 0.80661 0.1532 0.2235 0.0
C626 C 0.76382 0.13989 0.2186 0.0
H627 H 0.72208 0.14893 0.40217 0.0
H628 H 0.74616 0.14951 0.36155 0.0
H629 H 0.74023 0.12963 0.23216 0.0
H630 H 0.80313 0.15314 0.10564 0.0
H631 H 0.77934 0.15299 0.14709 0.0
H632 H 0.78562 0.17453 0.27677 0.0
C633 C 0.7349 0.15046 0.34603 0.0
C634 C 0.75002 0.13962 0.24209 0.0
C635 C 0.72105 0.15015 0.36936 0.0
C636 C 0.80438 0.15335 0.13847 0.0
C637 C 0.79068 0.15297 0.16234 0.0
C638 C 0.77588 0.16446 0.26687 0.0
C639 C 0.73422 0.15152 0.3032 0.0
C640 C 0.74896 0.15175 0.2783 0.0
C641 C 0.79159 0.15285 0.20519 0.0
C642 C 0.77693 0.15237 0.23057 0.0
H643 H 0.69427 0.15315 0.29197 0.0
H644 H 0.71836 0.15351 0.25145 0.0
H645 H 0.76162 0.17389 0.31787 0.0
H646 H 0.83163 0.1541 0.2149 0.0
H647 H 0.80781 0.1529 0.25639 0.0
C648 C 0.70191 0.64865 0.20362 0.0
C649 C 0.7025 0.64516 0.16125 0.0
C650 C 0.71564 0.64746 0.22731 0.0
C651 C 0.75594 0.62452 0.22814 0.0
H652 H 0.76382 0.66794 0.31107 0.0
C653 C 0.81576 0.63049 0.31346 0.0
C654 C 0.81563 0.63659 0.3549 0.0
C655 C 0.80192 0.63103 0.2901 0.0
C656 C 0.76173 0.65546 0.28849 0.0
H657 H 0.71803 0.63739 0.11075 0.0
H658 H 0.74196 0.63541 0.15197 0.0
H659 H 0.73983 0.66987 0.27028 0.0
H660 H 0.80031 0.64778 0.40383 0.0
H661 H 0.77636 0.64798 0.36372 0.0
H662 H 0.77774 0.60995 0.24655 0.0
C663 C 0.73086 0.63902 0.16691 0.0
C664 C 0.74796 0.65663 0.26501 0.0
C665 C 0.71716 0.64039 0.14319 0.0
C666 C 0.80111 0.64283 0.37229 0.0
C667 C 0.78727 0.64323 0.34899 0.0
C668 C 0.76967 0.62326 0.25182 0.0
C669 C 0.73028 0.64256 0.20927 0.0
C670 C 0.7449 0.6412 0.23448 0.0
C671 C 0.78749 0.63756 0.30745 0.0
C672 C 0.77278 0.63874 0.28232 0.0
H673 H 0.69085 0.65254 0.21846 0.0
H674 H 0.71474 0.65011 0.25989 0.0
H675 H 0.75385 0.6122 0.20525 0.0
H676 H 0.82653 0.62539 0.29864 0.0
H677 H 0.80263 0.62674 0.25813 0.0
C678 C 0.8047 0.34492 0.63858 0.0
C679 C 0.81975 0.3449 0.65673 0.0
C680 C 0.79103 0.34496 0.66255 0.0
C681 C 0.77641 0.33285 0.76694 0.0
H682 H 0.74044 0.36715 0.73266 0.0
C683 C 0.72123 0.34527 0.86917 0.0
C684 C 0.70636 0.3445 0.85008 0.0
C685 C 0.73513 0.34532 0.84603 0.0
C686 C 0.75031 0.3573 0.74247 0.0
H687 H 0.83207 0.34469 0.71475 0.0
H688 H 0.80826 0.34526 0.75648 0.0
H689 H 0.76449 0.36743 0.69188 0.0
H690 H 0.69463 0.34267 0.79133 0.0
H691 H 0.7188 0.34288 0.75115 0.0
H692 H 0.76219 0.32281 0.81767 0.0
C693 C 0.80703 0.34499 0.7236 0.0
C694 C 0.76413 0.35744 0.71904 0.0
C695 C 0.82072 0.34493 0.6996 0.0
C696 C 0.7058 0.34367 0.80718 0.0
C697 C 0.7197 0.34378 0.78406 0.0
C698 C 0.76259 0.33275 0.79045 0.0
C699 C 0.79199 0.34504 0.7054 0.0
C700 C 0.77735 0.34515 0.73084 0.0
C701 C 0.73455 0.34465 0.80316 0.0
C702 C 0.74934 0.34491 0.77843 0.0
H703 H 0.80341 0.34513 0.60576 0.0
H704 H 0.77967 0.34472 0.64739 0.0
H705 H 0.78625 0.32293 0.7767 0.0
H706 H 0.72217 0.34623 0.90203 0.0
H707 H 0.74635 0.34629 0.86175 0.0
C708 C 0.21964 0.36399 0.64967 0.0
C709 C 0.20506 0.36987 0.66716 0.0
C710 C 0.23332 0.36269 0.67343 0.0
C711 C 0.2506 0.37952 0.77297 0.0
H712 H 0.27999 0.33283 0.7508 0.0
C713 C 0.30358 0.35986 0.87907 0.0
C714 C 0.31808 0.35525 0.85999 0.0
C715 C 0.28969 0.36168 0.85611 0.0
C716 C 0.27198 0.34609 0.75718 0.0
H717 H 0.19385 0.37957 0.72393 0.0
H718 H 0.21754 0.37673 0.7653 0.0
H719 H 0.25612 0.33626 0.70994 0.0
H720 H 0.32919 0.34849 0.80178 0.0
H721 H 0.30506 0.35178 0.7618 0.0
H722 H 0.26647 0.38918 0.82054 0.0
C723 C 0.2184 0.37335 0.73296 0.0
C724 C 0.25828 0.3481 0.73364 0.0
C725 C 0.20471 0.37475 0.70915 0.0
C726 C 0.31829 0.35228 0.81744 0.0
C727 C 0.30441 0.35395 0.79455 0.0
C728 C 0.26428 0.37744 0.79666 0.0
C729 C 0.23288 0.36712 0.71551 0.0
C730 C 0.24742 0.36491 0.74103 0.0
C731 C 0.28993 0.35875 0.81354 0.0
C732 C 0.27519 0.36075 0.78894 0.0
H733 H 0.22052 0.3599 0.61769 0.0
H734 H 0.24428 0.3582 0.65867 0.0
H735 H 0.24265 0.39285 0.77927 0.0
H736 H 0.30299 0.36242 0.91169 0.0
H737 H 0.27873 0.36519 0.87178 0.0
C738 C 0.20335 0.631 0.32219 0.0
C739 C 0.20394 0.63754 0.3633 0.0
C740 C 0.21716 0.62984 0.29871 0.0
C741 C 0.25806 0.65086 0.29392 0.0
H742 H 0.26483 0.60312 0.21909 0.0
C743 C 0.31746 0.63931 0.2099 0.0
C744 C 0.31692 0.63292 0.16872 0.0
C745 C 0.30381 0.63911 0.23399 0.0
C746 C 0.26306 0.6167 0.2395 0.0
H747 H 0.21962 0.64809 0.41164 0.0
H748 H 0.24363 0.64578 0.371 0.0
H749 H 0.24076 0.60437 0.25998 0.0
H750 H 0.30152 0.62078 0.12109 0.0
H751 H 0.27771 0.62084 0.16275 0.0
H752 H 0.28025 0.66331 0.2733 0.0
C753 C 0.23248 0.6417 0.35679 0.0
C754 C 0.24925 0.6174 0.26298 0.0
C755 C 0.2187 0.64278 0.38028 0.0
C756 C 0.30239 0.62601 0.1525 0.0
C757 C 0.28873 0.62582 0.17659 0.0
C758 C 0.27184 0.65018 0.2704 0.0
C759 C 0.23189 0.63528 0.31566 0.0
C760 C 0.24657 0.63448 0.29053 0.0
C761 C 0.28922 0.63253 0.21759 0.0
C762 C 0.27456 0.63309 0.24289 0.0
H763 H 0.19226 0.62662 0.3081 0.0
H764 H 0.21624 0.625 0.26704 0.0
H765 H 0.25628 0.66444 0.3143 0.0
H766 H 0.32835 0.64499 0.22342 0.0
H767 H 0.30471 0.64412 0.26556 0.0
C768 C 0.95458 0.11435 0.08254 0.0
C769 C 0.94518 0.13165 0.09592 0.0
C770 C 0.97067 0.1173 0.07497 0.0
C771 C 1.00233 0.15972 0.06576 0.0
H772 H 0.0292 0.11197 0.0987 0.0
C773 C 0.06715 0.16729 0.11854 0.0
C774 C 0.07792 0.15124 0.10651 0.0
C775 C 0.05134 0.16614 0.10668 0.0
C776 C 0.02187 0.12532 0.08864 0.0
H777 H 0.94506 0.16572 0.11113 0.0
H778 H 0.97334 0.17087 0.09979 0.0
H779 H 1.00075 0.10748 0.09975 0.0
H780 H 0.08092 0.1219 0.07148 0.0
H781 H 0.05302 0.1195 0.05112 0.0
H782 H 0.02372 0.1779 0.05736 0.0
C783 C 0.96828 0.15508 0.0938 0.0
C784 C 1.00548 0.12278 0.08912 0.0
C785 C 0.95207 0.15218 0.10052 0.0
C786 C 0.07282 0.13458 0.08058 0.0
C787 C 0.05689 0.13315 0.06932 0.0
C788 C 0.01876 0.16237 0.06596 0.0
C789 C 0.97789 0.13756 0.08158 0.0
C790 C 0.99542 0.14 0.07812 0.0
C791 C 0.04592 0.14862 0.08322 0.0
C792 C 0.02868 0.14525 0.07782 0.0
H793 H 0.94944 0.09844 0.07823 0.0
H794 H 0.97746 0.10355 0.06444 0.0
H795 H 0.99506 0.17325 0.05631 0.0
H796 H 0.07088 0.18017 0.13882 0.0
H797 H 0.04316 0.17817 0.11816 0.0
C798 C 0.56261 0.8366 0.62564 0.0
C799 C 0.57286 0.84962 0.60256 0.0
C800 C 0.54676 0.83445 0.6148 0.0
C801 C 0.515 0.86449 0.56542 0.0
H802 H 0.49186 0.81122 0.58479 0.0
C803 C 0.44631 0.86215 0.57233 0.0
C804 C 0.44075 0.85219 0.60812 0.0
C805 C 0.46215 0.85964 0.56036 0.0
C806 C 0.49813 0.82622 0.57906 0.0
H807 H 0.57476 0.87009 0.54926 0.0
H808 H 0.54673 0.86656 0.53013 0.0
H809 H 0.52064 0.81066 0.58357 0.0
H810 H 0.44696 0.83096 0.65806 0.0
H811 H 0.47432 0.82625 0.63716 0.0
H812 H 0.49243 0.88019 0.56274 0.0
C813 C 0.55106 0.85793 0.55664 0.0
C814 C 0.51463 0.8259 0.57836 0.0
C815 C 0.56709 0.85981 0.56728 0.0
C816 C 0.45099 0.83879 0.63036 0.0
C817 C 0.46665 0.83602 0.61819 0.0
C818 C 0.49843 0.86481 0.56612 0.0
C819 C 0.54066 0.84548 0.58073 0.0
C820 C 0.52329 0.84515 0.57308 0.0
C821 C 0.47257 0.8468 0.5836 0.0
C822 C 0.48982 0.8458 0.57449 0.0
H823 H 0.56681 0.8286 0.65298 0.0
H824 H 0.53912 0.82497 0.6344 0.0
H825 H 0.52128 0.87963 0.56153 0.0
H826 H 0.43864 0.87272 0.55495 0.0
H827 H 0.46634 0.8681 0.53347 0.0
C828 C 0.94538 0.86941 0.93408 0.0
C829 C 0.93994 0.85288 0.9083 0.0
C830 C 0.9614 0.87054 0.94463 0.0
C831 C 0.99928 0.84068 0.94651 0.0
H832 H 0.01759 0.89526 0.91214 0.0
C833 C 0.06605 0.85 0.91095 0.0
C834 C 0.07299 0.87054 0.91455 0.0
C835 C 0.04985 0.84724 0.91826 0.0
C836 C 0.0128 0.88005 0.92296 0.0
H837 H 0.9465 0.82391 0.87547 0.0
H838 H 0.97437 0.82537 0.89493 0.0
H839 H 0.98913 0.89121 0.91393 0.0
H840 H 0.06892 0.90393 0.93113 0.0
H841 H 0.04098 0.89909 0.94631 0.0
H842 H 0.02292 0.82946 0.95573 0.0
C843 C 0.96639 0.83753 0.90684 0.0
C844 C 0.99639 0.87775 0.92384 0.0
C845 C 0.95048 0.83667 0.89567 0.0
C846 C 0.06372 0.888 0.92773 0.0
C847 C 0.04767 0.88519 0.93599 0.0
C848 C 0.01574 0.84308 0.94637 0.0
C849 C 0.97214 0.8549 0.93017 0.0
C850 C 0.98945 0.85795 0.9349 0.0
C851 C 0.04034 0.86493 0.93013 0.0
C852 C 0.02278 0.8627 0.93385 0.0
H853 H 0.93746 0.88221 0.94363 0.0
H854 H 0.96552 0.88408 0.96274 0.0
H855 H 0.99423 0.82523 0.95527 0.0
H856 H 0.073 0.83636 0.90047 0.0
H857 H 0.04473 0.83144 0.91287 0.0
C858 C 0.56978 0.1096 0.39578 0.0
C859 C 0.5796 0.12787 0.3983 0.0
C860 C 0.55353 0.11149 0.4013 0.0
C861 C 0.52104 0.14599 0.43894 0.0
H862 H 0.49752 0.11471 0.3563 0.0
C863 C 0.45241 0.15144 0.41234 0.0
C864 C 0.44505 0.13175 0.4021 0.0
C865 C 0.46889 0.15243 0.417 0.0
C866 C 0.50387 0.12337 0.3799 0.0
H867 H 0.58023 0.1623 0.41084 0.0
H868 H 0.55153 0.16573 0.4203 0.0
H869 H 0.52613 0.11389 0.35529 0.0
H870 H 0.44883 0.09748 0.39232 0.0
H871 H 0.47732 0.09905 0.40102 0.0
H872 H 0.49848 0.15544 0.46336 0.0
C873 C 0.55651 0.1499 0.41419 0.0
C874 C 0.5203 0.1229 0.37932 0.0
C875 C 0.57291 0.14796 0.40883 0.0
C876 C 0.45426 0.11292 0.39938 0.0
C877 C 0.47057 0.11386 0.40424 0.0
C878 C 0.50445 0.14647 0.43953 0.0
C879 C 0.54662 0.13176 0.4092 0.0
C880 C 0.52911 0.13379 0.40926 0.0
C881 C 0.47817 0.13372 0.4116 0.0
C882 C 0.49571 0.13475 0.41044 0.0
H883 H 0.57466 0.09385 0.38859 0.0
H884 H 0.5463 0.09709 0.39836 0.0
H885 H 0.52752 0.1546 0.46234 0.0
H886 H 0.44554 0.16618 0.41448 0.0
H887 H 0.4744 0.16797 0.42274 0.0
C888 C 0.44855 0.62844 0.08424 0.0
C889 C 0.44309 0.64554 0.1086 0.0
C890 C 0.46462 0.62689 0.07441 0.0
C891 C 0.50258 0.6563 0.07065 0.0
H892 H 0.52068 0.60252 0.10971 0.0
C893 C 0.56942 0.64727 0.10521 0.0
C894 C 0.57627 0.62663 0.10278 0.0
C895 C 0.55319 0.64998 0.09847 0.0
C896 C 0.51593 0.61748 0.09761 0.0
H897 H 0.44967 0.67497 0.1399 0.0
H898 H 0.47766 0.67281 0.12153 0.0
H899 H 0.49221 0.60674 0.10787 0.0
H900 H 0.57193 0.59293 0.08887 0.0
H901 H 0.54391 0.59763 0.07491 0.0
H902 H 0.52626 0.66708 0.06009 0.0
C903 C 0.46964 0.66053 0.11019 0.0
C904 C 0.49953 0.61988 0.09672 0.0
C905 C 0.45368 0.66179 0.12071 0.0
C906 C 0.56683 0.60896 0.09145 0.0
C907 C 0.55073 0.61169 0.08383 0.0
C908 C 0.51903 0.65377 0.0708 0.0
C909 C 0.47538 0.64268 0.08816 0.0
C910 C 0.49268 0.63942 0.08388 0.0
C911 C 0.54353 0.63212 0.08839 0.0
C912 C 0.52598 0.63443 0.08497 0.0
H913 H 0.44058 0.61559 0.0752 0.0
H914 H 0.46875 0.61297 0.05736 0.0
H915 H 0.49759 0.67154 0.06051 0.0
H916 H 0.57647 0.6611 0.11424 0.0
H917 H 0.54816 0.66593 0.10283 0.0
C918 C 0.0676 0.34211 0.62953 0.0
C919 C 0.07821 0.3574 0.61358 0.0
C920 C 0.05176 0.34218 0.6177 0.0
C921 C 0.02157 0.38027 0.5905 0.0
H922 H 0.99615 0.32985 0.56467 0.0
C923 C 0.95416 0.38802 0.57843 0.0
C924 C 0.94497 0.37091 0.59363 0.0
C925 C 0.97037 0.38544 0.57238 0.0
C926 C 1.00301 0.34408 0.57231 0.0
H927 H 0.08087 0.38433 0.57198 0.0
H928 H 0.05288 0.38495 0.55184 0.0
H929 H 0.02486 0.32653 0.56862 0.0
H930 H 0.94534 0.33757 0.61372 0.0
H931 H 0.97382 0.33315 0.60513 0.0
H932 H 0.99998 0.39762 0.59708 0.0
C933 C 0.05692 0.37267 0.57303 0.0
C934 C 0.01948 0.34217 0.57416 0.0
C935 C 0.07289 0.37225 0.58424 0.0
C936 C 0.9522 0.35091 0.60159 0.0
C937 C 0.96853 0.34844 0.59645 0.0
C938 C 1.00513 0.3821 0.58944 0.0
C939 C 0.04615 0.35791 0.59033 0.0
C940 C 0.0289 0.36022 0.58362 0.0
C941 C 0.97793 0.36582 0.58245 0.0
C942 C 0.99555 0.364 0.58072 0.0
H943 H 0.07151 0.3306 0.65235 0.0
H944 H 0.04372 0.33075 0.63179 0.0
H945 H 0.02853 0.39436 0.59861 0.0
H946 H 0.94876 0.40351 0.57165 0.0
H947 H 0.977 0.39902 0.56036 0.0
C948 C 0.45228 0.35248 0.90953 0.0
C949 C 0.44534 0.37256 0.90007 0.0
C950 C 0.46876 0.35072 0.91354 0.0
C951 C 0.50443 0.37866 0.8768 0.0
H952 H 0.52738 0.34567 0.95817 0.0
C953 C 0.57065 0.38983 0.8938 0.0
C954 C 0.58014 0.37123 0.89613 0.0
C955 C 0.55434 0.38844 0.89876 0.0
C956 C 0.5211 0.35477 0.93505 0.0
H957 H 0.44993 0.40671 0.89092 0.0
H958 H 0.47841 0.4038 0.89842 0.0
H959 H 0.49834 0.34595 0.95915 0.0
H960 H 0.58006 0.33669 0.9077 0.0
H961 H 0.55126 0.33415 0.91626 0.0
H962 H 0.52691 0.38754 0.85255 0.0
C963 C 0.47132 0.38927 0.9015 0.0
C964 C 0.5045 0.35493 0.93561 0.0
C965 C 0.45501 0.39097 0.89733 0.0
C966 C 0.57302 0.35129 0.90585 0.0
C967 C 0.55656 0.34985 0.91069 0.0
C968 C 0.52088 0.3785 0.87625 0.0
C969 C 0.47848 0.36904 0.90826 0.0
C970 C 0.49601 0.36729 0.90694 0.0
C971 C 0.54701 0.36836 0.90595 0.0
C972 C 0.52945 0.36696 0.90581 0.0
H973 H 0.44508 0.33803 0.91168 0.0
H974 H 0.47392 0.33491 0.91882 0.0
H975 H 0.49828 0.38781 0.85351 0.0
H976 H 0.57585 0.40549 0.88725 0.0
H977 H 0.5474 0.40311 0.89605 0.0
C978 C 0.95171 0.66362 0.37389 0.0
C979 C 0.9429 0.64832 0.39582 0.0
C980 C 0.96767 0.66685 0.3824 0.0
C981 C 1.00059 0.65402 0.45445 0.0
H982 H 0.0254 0.66007 0.35565 0.0
C983 C 0.06917 0.6418 0.44073 0.0
C984 C 0.07697 0.65519 0.41256 0.0
C985 C 0.05274 0.64345 0.446 0.0
C986 C 0.01868 0.65874 0.38368 0.0
H987 H 0.94351 0.625 0.44494 0.0
H988 H 0.97177 0.63008 0.45941 0.0
H989 H 0.99694 0.65811 0.35109 0.0
H990 H 0.07422 0.68162 0.37003 0.0
H991 H 0.04575 0.68509 0.37993 0.0
H992 H 0.02273 0.65397 0.48668 0.0
C993 C 0.96627 0.63996 0.4361 0.0
C994 C 1.00228 0.65765 0.38109 0.0
C995 C 0.95012 0.63701 0.42792 0.0
C996 C 0.06839 0.67126 0.39209 0.0
C997 C 0.0521 0.67303 0.39746 0.0
C998 C 0.01715 0.65497 0.45702 0.0
C999 C 0.97537 0.65444 0.41247 0.0
C1000 C 0.99294 0.65551 0.41637 0.0
C1001 C 0.04395 0.6585 0.42302 0.0
C1002 C 0.02637 0.65758 0.4216 0.0
H1003 H 0.94629 0.67261 0.3492 0.0
H1004 H 0.97411 0.67863 0.36438 0.0
H1005 H 0.99379 0.65238 0.48227 0.0
H1006 H 0.07558 0.62906 0.45624 0.0
H1007 H 0.04682 0.63198 0.46581 0.0
C1008 C 0.1354 0.08276 0.05341 0.0
C1009 C 0.13744 0.08573 0.09559 0.0
C1010 C 0.13577 0.0621 0.03633 0.0
C1011 C 0.15053 0.0068 0.0548 0.0
H1012 H 0.12287 0.99265 0.96436 0.0
C1013 C 0.14533 0.92078 0.9859 0.0
C1014 C 0.14393 0.91897 0.9433 0.0
C1015 C 0.14522 0.94106 1.00474 0.0
C1016 C 0.13081 0.99645 0.98923 0.0
H1017 H 0.14119 0.06924 0.15314 0.0
H1018 H 0.14162 0.0328 0.12323 0.0
H1019 H 0.12019 0.02747 0.9986 0.0
H1020 H 0.14173 0.93703 0.88688 0.0
H1021 H 0.14156 0.97264 0.91987 0.0
H1022 H 0.16104 0.97561 0.0455 0.0
C1023 C 0.13992 0.04663 0.10335 0.0
C1024 C 0.12925 0.01639 0.00898 0.0
C1025 C 0.13955 0.06745 0.12055 0.0
C1026 C 0.14286 0.93793 0.91976 0.0
C1027 C 0.14263 0.95828 0.93868 0.0
C1028 C 0.15203 0.98678 0.03514 0.0
C1029 C 0.13814 0.04375 0.06094 0.0
C1030 C 0.13917 0.02191 0.0418 0.0
C1031 C 0.14359 0.96003 0.98145 0.0
C1032 C 0.14225 0.98144 1.00196 0.0
H1033 H 0.13379 0.09648 0.03321 0.0
H1034 H 0.13461 0.0606 1.00355 0.0
H1035 H 0.15852 0.01063 0.07955 0.0
H1036 H 0.14619 0.90646 1.00491 0.0
H1037 H 0.14585 0.94182 0.03771 0.0
C1038 C 0.37768 0.9394 0.61476 0.0
C1039 C 0.37923 0.92118 0.58941 0.0
C1040 C 0.37727 0.9603 0.59783 0.0
C1041 C 0.38721 0.99049 0.50276 0.0
H1042 H 0.35727 0.03276 0.54345 0.0
C1043 C 0.3745 0.07027 0.41655 0.0
C1044 C 0.37441 0.0891 0.44055 0.0
C1045 C 0.37446 0.04979 0.43505 0.0
C1046 C 0.36576 0.02116 0.53191 0.0
H1047 H 0.38162 0.91061 0.52651 0.0
H1048 H 0.38068 0.94661 0.49736 0.0
H1049 H 0.35927 0.99739 0.57657 0.0
H1050 H 0.37363 0.10129 0.50261 0.0
H1051 H 0.37348 0.06571 0.53467 0.0
H1052 H 0.39359 0.01415 0.4579 0.0
C1053 C 0.38006 0.94501 0.53024 0.0
C1054 C 0.36696 1.00093 0.55103 0.0
C1055 C 0.3805 0.92428 0.54704 0.0
C1056 C 0.37373 0.08707 0.48324 0.0
C1057 C 0.37356 0.06667 0.50167 0.0
C1058 C 0.38594 0.01062 0.48355 0.0
C1059 C 0.37842 0.96332 0.55529 0.0
C1060 C 0.37765 0.98529 0.53654 0.0
C1061 C 0.37418 0.04779 0.47785 0.0
C1062 C 0.37517 0.02618 0.49779 0.0
H1063 H 0.37665 0.93751 0.6475 0.0
H1064 H 0.37613 0.97408 0.61804 0.0
H1065 H 0.39578 0.97901 0.49122 0.0
H1066 H 0.37504 0.07134 0.38359 0.0
H1067 H 0.37476 0.03551 0.41587 0.0
C1068 C 0.88194 0.92248 0.96257 0.0
C1069 C 0.87982 0.91911 0.92051 0.0
C1070 C 0.88075 0.94318 0.97923 0.0
C1071 C 0.88228 0.0013 0.95508 0.0
H1072 H 0.85864 0.00685 0.05601 0.0
C1073 C 0.86984 0.08476 0.02611 0.0
C1074 C 0.87178 0.08671 0.06852 0.0
C1075 C 0.8696 0.06441 0.00757 0.0
C1076 C 0.86541 0.00557 0.02807 0.0
H1077 H 0.87526 0.93495 0.8627 0.0
H1078 H 0.87325 0.97144 0.89197 0.0
H1079 H 0.86117 0.97147 0.02365 0.0
H1080 H 0.87452 0.06886 0.12499 0.0
H1081 H 0.8743 0.03317 0.09257 0.0
H1082 H 0.88673 0.03532 0.95975 0.0
C1083 C 0.87585 0.95792 0.91195 0.0
C1084 C 0.86684 0.98529 0.00948 0.0
C1085 C 0.877 0.93707 0.89519 0.0
C1086 C 0.87289 0.06783 0.09227 0.0
C1087 C 0.87275 0.0474 0.07364 0.0
C1088 C 0.88089 0.02158 0.97375 0.0
C1089 C 0.87743 0.96111 0.95431 0.0
C1090 C 0.8754 0.98289 0.97294 0.0
C1091 C 0.87141 0.04548 0.03094 0.0
C1092 C 0.87249 0.02396 0.0106 0.0
H1093 H 0.88424 0.90902 0.98296 0.0
H1094 H 0.88238 0.94513 0.0118 0.0
H1095 H 0.88909 0.99994 0.92722 0.0
H1096 H 0.86883 0.09902 0.007 0.0
H1097 H 0.86818 0.06355 0.97477 0.0
C1098 C 0.64936 0.06504 0.40888 0.0
C1099 C 0.65053 0.08376 0.43303 0.0
C1100 C 0.64872 0.04451 0.42717 0.0
C1101 C 0.6387 0.01845 0.52601 0.0
H1102 H 0.65795 0.96783 0.47695 0.0
C1103 C 0.63983 0.93369 0.60428 0.0
C1104 C 0.63677 0.91589 0.57879 0.0
C1105 C 0.64179 0.95448 0.58762 0.0
C1106 C 0.6524 0.9818 0.49088 0.0
H1107 H 0.65273 0.09561 0.49506 0.0
H1108 H 0.65205 0.05998 0.5267 0.0
H1109 H 0.66154 0.00325 0.44523 0.0
H1110 H 0.63295 0.90604 0.51597 0.0
H1111 H 0.63623 0.94204 0.48727 0.0
H1112 H 0.62959 0.99693 0.5717 0.0
C1113 C 0.65117 0.06105 0.4938 0.0
C1114 C 0.65444 0.0021 0.47264 0.0
C1115 C 0.65169 0.0815 0.4756 0.0
C1116 C 0.63537 0.91936 0.53654 0.0
C1117 C 0.63738 0.94001 0.51996 0.0
C1118 C 0.63672 0.99815 0.54435 0.0
C1119 C 0.64934 0.0423 0.46995 0.0
C1120 C 0.64754 0.02069 0.48983 0.0
C1121 C 0.64081 0.95778 0.54516 0.0
C1122 C 0.64344 0.97955 0.52681 0.0
H1123 H 0.64832 0.0663 0.37603 0.0
H1124 H 0.64718 0.03045 0.40783 0.0
H1125 H 0.63298 0.03233 0.53978 0.0
H1126 H 0.64104 0.93152 0.63692 0.0
H1127 H 0.64448 0.96785 0.60784 0.0
C1128 C 0.65195 0.56237 0.1038 0.0
C1129 C 0.65038 0.58051 0.07822 0.0
C1130 C 0.65395 0.54165 0.08709 0.0
C1131 C 0.66495 0.51279 0.99167 0.0
H1132 H 0.63945 0.46644 0.03677 0.0
C1133 C 0.65441 0.43102 0.90823 0.0
C1134 C 0.65349 0.41226 0.93242 0.0
C1135 C 0.65562 0.45149 0.92651 0.0
C1136 C 0.64684 0.47909 0.02412 0.0
H1137 H 0.65008 0.59124 0.01515 0.0
H1138 H 0.65345 0.55529 0.98621 0.0
H1139 H 0.63902 0.50201 0.0687 0.0
H1140 H 0.65385 0.40015 0.99459 0.0
H1141 H 0.65624 0.43559 0.02621 0.0
H1142 H 0.67262 0.48986 0.94677 0.0
C1143 C 0.65329 0.55698 0.0191 0.0
C1144 C 0.6466 0.49951 0.0425 0.0
C1145 C 0.65125 0.5776 0.03574 0.0
C1146 C 0.65437 0.41431 0.97506 0.0
C1147 C 0.65565 0.43466 0.99325 0.0
C1148 C 0.66521 0.49233 0.97328 0.0
C1149 C 0.65449 0.53871 0.0445 0.0
C1150 C 0.65556 0.51666 0.02636 0.0
C1151 C 0.65598 0.45355 0.96931 0.0
C1152 C 0.65609 0.47525 0.98917 0.0
H1153 H 0.65134 0.56411 0.13664 0.0
H1154 H 0.65499 0.52793 0.10751 0.0
H1155 H 0.67214 0.5256 0.97874 0.0
H1156 H 0.6537 0.42994 0.8753 0.0
H1157 H 0.65574 0.46571 0.90716 0.0
C1158 C 0.86806 0.41503 0.52378 0.0
C1159 C 0.87018 0.41332 0.56618 0.0
C1160 C 0.86718 0.4353 0.50499 0.0
C1161 C 0.86163 0.49403 0.52506 0.0
H1162 H 0.88536 0.50069 0.42447 0.0
C1163 C 0.87935 0.57742 0.46309 0.0
C1164 C 0.87769 0.58148 0.42109 0.0
C1165 C 0.87738 0.5566 0.47875 0.0
C1166 C 0.87849 0.49902 0.4522 0.0
H1167 H 0.87255 0.43148 0.62236 0.0
H1168 H 0.87121 0.46701 0.58952 0.0
H1169 H 0.88338 0.46511 0.45651 0.0
H1170 H 0.87294 0.56672 0.36241 0.0
H1171 H 0.86959 0.52996 0.38995 0.0
H1172 H 0.85707 0.52808 0.52116 0.0
C1173 C 0.87002 0.45266 0.57079 0.0
C1174 C 0.87733 0.47862 0.47061 0.0
C1175 C 0.8708 0.43231 0.58966 0.0
C1176 C 0.87432 0.56407 0.39488 0.0
C1177 C 0.87242 0.54307 0.41064 0.0
C1178 C 0.86285 0.51442 0.50674 0.0
C1179 C 0.8685 0.45439 0.52809 0.0
C1180 C 0.86902 0.47591 0.5075 0.0
C1181 C 0.87374 0.53921 0.45287 0.0
C1182 C 0.87146 0.51721 0.47039 0.0
H1183 H 0.86742 0.40067 0.50487 0.0
H1184 H 0.86566 0.436 0.4722 0.0
H1185 H 0.8549 0.49248 0.55301 0.0
H1186 H 0.88201 0.59041 0.48421 0.0
H1187 H 0.87879 0.55411 0.51127 0.0
C1188 C 0.38234 0.41932 0.98243 0.0
C1189 C 0.37585 0.41682 0.94323 0.0
C1190 C 0.38253 0.43951 1.00143 0.0
C1191 C 0.36316 0.49123 0.00969 0.0
H1192 H 0.40392 0.51283 0.04544 0.0
C1193 C 0.37193 0.56639 0.11558 0.0
C1194 C 0.38149 0.58237 0.09767 0.0
C1195 C 0.37103 0.54565 0.09819 0.0
C1196 C 0.39247 0.50692 0.03579 0.0
H1197 H 0.36415 0.43346 0.89352 0.0
H1198 H 0.36409 0.46904 0.92764 0.0
H1199 H 0.40223 0.47792 0.01024 0.0
H1200 H 0.39803 0.58918 0.04885 0.0
H1201 H 0.39698 0.5528 0.01968 0.0
H1202 H 0.3534 0.52017 0.03598 0.0
C1203 C 0.36915 0.4552 0.94321 0.0
C1204 C 0.39151 0.48703 0.01567 0.0
C1205 C 0.36924 0.43494 0.9237 0.0
C1206 C 0.3906 0.5771 0.06327 0.0
C1207 C 0.39 0.55633 0.04658 0.0
C1208 C 0.3641 0.51098 0.03063 0.0
C1209 C 0.376 0.45765 0.98203 0.0
C1210 C 0.37687 0.47906 1.00226 0.0
C1211 C 0.38 0.54054 0.06337 0.0
C1212 C 0.37878 0.51903 0.04364 0.0
H1213 H 0.38759 0.40571 0.9983 0.0
H1214 H 0.3878 0.44096 0.03142 0.0
H1215 H 0.35174 0.48531 0.99987 0.0
H1216 H 0.36467 0.57018 0.14184 0.0
H1217 H 0.36329 0.53366 0.11173 0.0
C1218 C 0.13923 0.57085 0.42028 0.0
C1219 C 0.13916 0.58974 0.44415 0.0
C1220 C 0.13896 0.55038 0.43892 0.0
C1221 C 0.14804 0.52281 0.53636 0.0
H1222 H 0.12048 0.47777 0.49509 0.0
C1223 C 0.14009 0.44013 0.61935 0.0
C1224 C 0.13942 0.42179 0.59407 0.0
C1225 C 0.13956 0.46102 0.60233 0.0
C1226 C 0.12837 0.49009 0.50681 0.0
H1227 H 0.13877 0.60196 0.50627 0.0
H1228 H 0.13829 0.5665 0.53844 0.0
H1229 H 0.12104 0.51302 0.46153 0.0
H1230 H 0.13776 0.41101 0.53112 0.0
H1231 H 0.13714 0.44697 0.50186 0.0
H1232 H 0.15555 0.49981 0.58131 0.0
C1233 C 0.13867 0.56739 0.50544 0.0
C1234 C 0.12869 0.51029 0.48749 0.0
C1235 C 0.13884 0.58774 0.4869 0.0
C1236 C 0.1382 0.42475 0.55164 0.0
C1237 C 0.13772 0.44546 0.53475 0.0
C1238 C 0.14779 0.50256 0.55558 0.0
C1239 C 0.13875 0.54846 0.48176 0.0
C1240 C 0.13856 0.52687 0.50196 0.0
C1241 C 0.13835 0.4639 0.55975 0.0
C1242 C 0.13802 0.48588 0.5409 0.0
H1243 H 0.13951 0.57187 0.38729 0.0
H1244 H 0.13915 0.53606 0.41985 0.0
H1245 H 0.1559 0.5352 0.54803 0.0
H1246 H 0.14103 0.43836 0.65213 0.0
H1247 H 0.13996 0.47489 0.62251 0.0
C1248 C 0.16621 0.3131 0.7536 0.0
C1249 C 0.15346 0.32513 0.73839 0.0
C1250 C 0.1654 0.30353 0.79218 0.0
C1251 C 0.14219 0.30254 0.88935 0.0
H1252 H 0.16165 0.24596 0.89939 0.0
C1253 C 0.13155 0.239 0.01993 0.0
C1254 C 0.14509 0.2279 0.03319 0.0
C1255 C 0.13263 0.25418 0.98814 0.0
C1256 C 0.15629 0.26186 0.89722 0.0
H1257 H 0.1299 0.33681 0.75181 0.0
H1258 H 0.1282 0.31946 0.81852 0.0
H1259 H 0.1633 0.2653 0.8351 0.0
H1260 H 0.17047 0.22538 0.02667 0.0
H1261 H 0.17234 0.25177 0.9715 0.0
H1262 H 0.13469 0.29837 0.95159 0.0
C1263 C 0.13903 0.31785 0.80123 0.0
C1264 C 0.1573 0.27304 0.86035 0.0
C1265 C 0.13996 0.32772 0.76284 0.0
C1266 C 0.15983 0.23353 0.01663 0.0
C1267 C 0.16089 0.24855 0.98499 0.0
C1268 C 0.141 0.29114 0.92627 0.0
C1269 C 0.15167 0.30539 0.81623 0.0
C1270 C 0.1504 0.29363 0.85591 0.0
C1271 C 0.14724 0.25835 0.96927 0.0
C1272 C 0.1482 0.27078 0.93061 0.0
H1273 H 0.17686 0.31107 0.73569 0.0
H1274 H 0.17555 0.29457 0.80303 0.0
H1275 H 0.13683 0.31843 0.88724 0.0
H1276 H 0.12004 0.23486 0.03208 0.0
H1277 H 0.12192 0.26153 0.97654 0.0
C1278 C 0.3616 0.77313 0.50773 0.0
C1279 C 0.37586 0.77837 0.52725 0.0
C1280 C 0.3611 0.75719 0.47766 0.0
C1281 C 0.38727 0.73165 0.40204 0.0
H1282 H 0.34947 0.69874 0.37699 0.0
C1283 C 0.38191 0.67713 0.25897 0.0
C1284 C 0.3682 0.6803 0.23554 0.0
C1285 C 0.38325 0.68622 0.29787 0.0
C1286 C 0.36009 0.70787 0.38359 0.0
H1287 H 0.40057 0.76995 0.53272 0.0
H1288 H 0.39968 0.7415 0.4806 0.0
H1289 H 0.35138 0.71802 0.44178 0.0
H1290 H 0.34501 0.69513 0.23493 0.0
H1291 H 0.3473 0.71087 0.30314 0.0
H1292 H 0.39591 0.7215 0.34366 0.0
C1293 C 0.38892 0.75013 0.48797 0.0
C1294 C 0.36121 0.71893 0.4207 0.0
C1295 C 0.38942 0.76621 0.51818 0.0
C1296 C 0.35575 0.69247 0.25214 0.0
C1297 C 0.35701 0.70134 0.2913 0.0
C1298 C 0.38622 0.72038 0.36514 0.0
C1299 C 0.37485 0.74591 0.46643 0.0
C1300 C 0.37464 0.73144 0.42999 0.0
C1301 C 0.37083 0.69844 0.31444 0.0
C1302 C 0.37247 0.70878 0.35512 0.0
H1303 H 0.35092 0.78213 0.51441 0.0
H1304 H 0.35008 0.75463 0.46167 0.0
H1305 H 0.3977 0.74134 0.40773 0.0
H1306 H 0.39175 0.66792 0.24705 0.0
H1307 H 0.394 0.68362 0.31507 0.0
C1308 C 0.15065 0.77266 0.00877 0.0
C1309 C 0.13566 0.77868 0.9947 0.0
C1310 C 0.1522 0.75775 0.04071 0.0
C1311 C 0.1286 0.73542 0.12706 0.0
H1312 H 0.16623 0.70092 0.14462 0.0
C1313 C 0.1364 0.67885 0.26652 0.0
C1314 C 0.15005 0.68314 0.28953 0.0
C1315 C 0.13455 0.68783 0.22761 0.0
C1316 C 0.15565 0.71046 0.13999 0.0
H1317 H 0.11058 0.77314 1.0009 0.0
H1318 H 0.11318 0.74607 0.05482 0.0
H1319 H 0.1628 0.72019 0.08012 0.0
H1320 H 0.1727 0.6995 0.28927 0.0
H1321 H 0.16961 0.71476 0.22077 0.0
H1322 H 0.12141 0.72528 0.1868 0.0
C1323 C 0.1238 0.75339 0.04262 0.0
C1324 C 0.15369 0.72164 0.10314 0.0
C1325 C 0.12227 0.76865 0.01131 0.0
C1326 C 0.16203 0.69599 0.27232 0.0
C1327 C 0.16031 0.70461 0.23307 0.0
C1328 C 0.13043 0.72391 0.16349 0.0
C1329 C 0.13876 0.74829 0.05886 0.0
C1330 C 0.14025 0.73461 0.09638 0.0
C1331 C 0.14645 0.70089 0.21061 0.0
C1332 C 0.14407 0.71161 0.17058 0.0
H1333 H 0.16113 0.78049 0.99678 0.0
H1334 H 0.16391 0.75461 0.05248 0.0
H1335 H 0.11825 0.74555 0.12376 0.0
H1336 H 0.12693 0.66908 0.27904 0.0
H1337 H 0.12377 0.68468 0.21085 0.0
C1338 C 0.37507 0.33222 0.75711 0.0
C1339 C 0.38931 0.33046 0.77894 0.0
C1340 C 0.37382 0.32369 0.71758 0.0
C1341 C 0.39805 0.30475 0.63001 0.0
H1342 H 0.36242 0.26735 0.60649 0.0
C1343 C 0.40084 0.23565 0.51331 0.0
C1344 C 0.38731 0.23018 0.49078 0.0
C1345 C 0.4003 0.25203 0.54263 0.0
C1346 C 0.3723 0.27809 0.61213 0.0
H1347 H 0.41347 0.31888 0.77597 0.0
H1348 H 0.41127 0.30408 0.70765 0.0
H1349 H 0.36268 0.28854 0.66931 0.0
H1350 H 0.36275 0.23821 0.48016 0.0
H1351 H 0.36181 0.26706 0.53134 0.0
H1352 H 0.40791 0.29379 0.57353 0.0
C1353 C 0.4011 0.31214 0.72071 0.0
C1354 C 0.37245 0.29023 0.64819 0.0
C1355 C 0.40231 0.32047 0.76012 0.0
C1356 C 0.3734 0.24217 0.49685 0.0
C1357 C 0.37282 0.25852 0.52645 0.0
C1358 C 0.3979 0.29264 0.594 0.0
C1359 C 0.38683 0.31348 0.69902 0.0
C1360 C 0.38554 0.3032 0.6581 0.0
C1361 C 0.38618 0.26331 0.55028 0.0
C1362 C 0.38523 0.27868 0.58518 0.0
H1363 H 0.36484 0.33982 0.7708 0.0
H1364 H 0.36269 0.32505 0.70157 0.0
H1365 H 0.40817 0.31493 0.63636 0.0
H1366 H 0.41175 0.22676 0.50912 0.0
H1367 H 0.41077 0.25513 0.56065 0.0
C1368 C 0.85483 0.69207 0.26699 0.0
C1369 C 0.86757 0.6798 0.28155 0.0
C1370 C 0.8555 0.7018 0.22854 0.0
C1371 C 0.87802 0.70282 0.13036 0.0
H1372 H 0.85869 0.75956 0.12178 0.0
C1373 C 0.88728 0.76629 0.99875 0.0
C1374 C 0.87357 0.7773 0.98636 0.0
C1375 C 0.88661 0.75122 0.0308 0.0
C1376 C 0.86401 0.74362 0.12356 0.0
H1377 H 0.89096 0.66779 0.26706 0.0
H1378 H 0.89241 0.68545 0.20049 0.0
H1379 H 0.85759 0.74017 0.18609 0.0
H1380 H 0.84826 0.77971 0.99479 0.0
H1381 H 0.8471 0.75355 0.05046 0.0
H1382 H 0.88491 0.707 0.06764 0.0
C1383 C 0.8817 0.68715 0.21827 0.0
C1384 C 0.86332 0.73241 0.16044 0.0
C1385 C 0.88092 0.67712 0.25655 0.0
C1386 C 0.85904 0.77168 1.00416 0.0
C1387 C 0.85838 0.75677 0.03607 0.0
C1388 C 0.87889 0.71425 0.09341 0.0
C1389 C 0.86907 0.69986 0.20394 0.0
C1390 C 0.87014 0.71174 0.16434 0.0
C1391 C 0.87222 0.74706 0.05083 0.0
C1392 C 0.87171 0.73466 0.0896 0.0
H1393 H 0.84428 0.69415 0.2853 0.0
H1394 H 0.84534 0.71092 0.21821 0.0
H1395 H 0.88331 0.68688 0.13205 0.0
H1396 H 0.89864 0.77041 0.98565 0.0
H1397 H 0.89745 0.74393 0.04163 0.0
C1398 C 0.62271 0.22944 0.50828 0.0
C1399 C 0.63631 0.22472 0.48539 0.0
C1400 C 0.62291 0.24583 0.53763 0.0
C1401 C 0.65049 0.27308 0.60645 0.0
H1402 H 0.6139 0.30826 0.63216 0.0
C1403 C 0.6478 0.32754 0.75055 0.0
C1404 C 0.63373 0.32582 0.77314 0.0
C1405 C 0.64883 0.31872 0.71125 0.0
C1406 C 0.62421 0.29852 0.62543 0.0
H1407 H 0.66057 0.2341 0.47402 0.0
H1408 H 0.66089 0.26294 0.52526 0.0
H1409 H 0.61431 0.2871 0.56932 0.0
H1410 H 0.60963 0.31388 0.77178 0.0
H1411 H 0.61147 0.29846 0.70381 0.0
H1412 H 0.66017 0.28396 0.66319 0.0
C1413 C 0.65011 0.25382 0.52065 0.0
C1414 C 0.62445 0.28642 0.5894 0.0
C1415 C 0.64988 0.23747 0.49103 0.0
C1416 C 0.62066 0.31548 0.75531 0.0
C1417 C 0.62166 0.30679 0.7161 0.0
C1418 C 0.65024 0.28519 0.64252 0.0
C1419 C 0.63673 0.25784 0.54493 0.0
C1420 C 0.63742 0.27312 0.57999 0.0
C1421 C 0.63578 0.30815 0.69366 0.0
C1422 C 0.63693 0.2976 0.65295 0.0
H1423 H 0.61205 0.21996 0.5044 0.0
H1424 H 0.61243 0.24833 0.55598 0.0
H1425 H 0.66059 0.26283 0.60038 0.0
H1426 H 0.65808 0.33542 0.7634 0.0
H1427 H 0.65984 0.32016 0.69464 0.0
C1428 C 0.8772 0.23829 1.00508 0.0
C1429 C 0.89066 0.2261 0.01502 0.0
C1430 C 0.87779 0.25365 0.97356 0.0
C1431 C 0.90038 0.26312 0.87943 0.0
H1432 H 0.87776 0.31764 0.87394 0.0
C1433 C 0.90787 0.31912 0.742 0.0
C1434 C 0.89418 0.32823 0.72497 0.0
C1435 C 0.90739 0.30909 0.78012 0.0
C1436 C 0.88404 0.30237 0.87497 0.0
H1437 H 0.91553 0.22158 1.00253 0.0
H1438 H 0.91672 0.24871 0.94851 0.0
H1439 H 0.87729 0.29635 0.93716 0.0
H1440 H 0.86932 0.33464 0.7354 0.0
H1441 H 0.86845 0.31674 0.8021 0.0
H1442 H 0.90697 0.26876 0.81749 0.0
C1443 C 0.90558 0.24604 0.96399 0.0
C1444 C 0.88379 0.29021 0.91117 0.0
C1445 C 0.90496 0.23064 0.99512 0.0
C1446 C 0.88008 0.32776 0.74769 0.0
C1447 C 0.87959 0.31759 0.78596 0.0
C1448 C 0.90063 0.27519 0.84349 0.0
C1449 C 0.89187 0.25709 0.95166 0.0
C1450 C 0.89208 0.2705 0.91386 0.0
C1451 C 0.89319 0.30774 0.8022 0.0
C1452 C 0.89258 0.29504 0.84081 0.0
H1453 H 0.86601 0.23495 0.01981 0.0
H1454 H 0.86701 0.26184 0.96479 0.0
H1455 H 0.90651 0.24772 0.87993 0.0
H1456 H 0.91898 0.31945 0.72562 0.0
H1457 H 0.91817 0.30212 0.79212 0.0
C1458 C 0.61914 0.76482 0.50354 0.0
C1459 C 0.63355 0.77241 0.51896 0.0
C1460 C 0.6189 0.74886 0.47316 0.0
C1461 C 0.64497 0.72744 0.39169 0.0
H1462 H 0.61059 0.68696 0.37478 0.0
C1463 C 0.64329 0.66947 0.25319 0.0
C1464 C 0.62897 0.6694 0.23152 0.0
C1465 C 0.64424 0.67919 0.29171 0.0
C1466 C 0.62027 0.6982 0.37914 0.0
H1467 H 0.65891 0.76847 0.51714 0.0
H1468 H 0.65856 0.73993 0.46568 0.0
H1469 H 0.6116 0.70829 0.43751 0.0
H1470 H 0.60432 0.67885 0.2339 0.0
H1471 H 0.60598 0.69566 0.30102 0.0
H1472 H 0.65358 0.71742 0.33326 0.0
C1473 C 0.64742 0.7467 0.47573 0.0
C1474 C 0.62083 0.71048 0.41502 0.0
C1475 C 0.64765 0.76284 0.50557 0.0
C1476 C 0.61555 0.6787 0.24969 0.0
C1477 C 0.61646 0.68819 0.28832 0.0
C1478 C 0.64449 0.71502 0.35608 0.0
C1479 C 0.63309 0.74007 0.45794 0.0
C1480 C 0.63308 0.72551 0.42155 0.0
C1481 C 0.63085 0.68881 0.30955 0.0
C1482 C 0.63202 0.7005 0.34909 0.0
H1483 H 0.60814 0.7722 0.5131 0.0
H1484 H 0.60764 0.74436 0.46006 0.0
H1485 H 0.65441 0.73913 0.395 0.0
H1486 H 0.65385 0.66245 0.24005 0.0
H1487 H 0.65547 0.67929 0.30748 0.0
C1488 C 0.62215 0.72739 0.99776 0.0
C1489 C 0.63591 0.71872 0.01495 0.0
C1490 C 0.6231 0.74263 0.96624 0.0
C1491 C 0.65172 0.77718 0.90684 0.0
H1492 H 0.61976 0.77166 0.82281 0.0
C1493 C 0.65889 0.80551 0.73866 0.0
C1494 C 0.6465 0.81802 0.72261 0.0
C1495 C 0.65754 0.79604 0.77731 0.0
C1496 C 0.62868 0.77352 0.84623 0.0
H1497 H 0.66142 0.71919 0.01348 0.0
H1498 H 0.66322 0.74499 0.95735 0.0
H1499 H 0.61744 0.75049 0.88509 0.0
H1500 H 0.62302 0.83051 0.73446 0.0
H1501 H 0.62049 0.81335 0.80155 0.0
H1502 H 0.66336 0.79935 0.86619 0.0
C1503 C 0.65163 0.74083 0.96886 0.0
C1504 C 0.62732 0.7615 0.88222 0.0
C1505 C 0.65065 0.72596 1.00102 0.0
C1506 C 0.63279 0.82103 0.74611 0.0
C1507 C 0.63131 0.81117 0.78438 0.0
C1508 C 0.65323 0.78886 0.8704 0.0
C1509 C 0.63785 0.74905 0.95034 0.0
C1510 C 0.63886 0.76303 0.91307 0.0
C1511 C 0.64365 0.79852 0.80025 0.0
C1512 C 0.64175 0.78705 0.83971 0.0
H1513 H 0.61065 0.72197 0.0081 0.0
H1514 H 0.61221 0.74897 0.95377 0.0
H1515 H 0.6607 0.77922 0.93 0.0
H1516 H 0.66962 0.803 0.7213 0.0
H1517 H 0.66717 0.78624 0.78878 0.0
C1518 C 0.90592 0.18395 0.24378 0.0
C1519 C 0.89294 0.17294 0.22698 0.0
C1520 C 0.90512 0.19267 0.28302 0.0
C1521 C 0.87675 0.21287 0.3587 0.0
H1522 H 0.91355 0.21324 0.42904 0.0
C1523 C 0.87738 0.2607 0.51015 0.0
C1524 C 0.89058 0.2743 0.51463 0.0
C1525 C 0.87732 0.24434 0.48054 0.0
C1526 C 0.90317 0.21328 0.40977 0.0
H1527 H 0.86897 0.16215 0.23863 0.0
H1528 H 0.86759 0.17742 0.30741 0.0
H1529 H 0.91389 0.19201 0.36629 0.0
H1530 H 0.91439 0.28059 0.49357 0.0
H1531 H 0.91432 0.25216 0.44206 0.0
H1532 H 0.8662 0.23464 0.4016 0.0
C1533 C 0.87837 0.17939 0.28998 0.0
C1534 C 0.90337 0.20115 0.37377 0.0
C1535 C 0.87919 0.17056 0.25066 0.0
C1536 C 0.90402 0.27043 0.4906 0.0
C1537 C 0.904 0.25402 0.46129 0.0
C1538 C 0.87654 0.225 0.39475 0.0
C1539 C 0.89131 0.19065 0.30653 0.0
C1540 C 0.89032 0.20125 0.34726 0.0
C1541 C 0.89051 0.24114 0.45515 0.0
C1542 C 0.8899 0.22579 0.42018 0.0
H1543 H 0.9167 0.18609 0.22646 0.0
H1544 H 0.91522 0.20154 0.29448 0.0
H1545 H 0.86655 0.21347 0.33883 0.0
H1546 H 0.86681 0.26341 0.52807 0.0
H1547 H 0.8668 0.23454 0.47684 0.0
C1548 C 0.62076 0.1823 0.25688 0.0
C1549 C 0.63379 0.17168 0.27431 0.0
C1550 C 0.62168 0.19103 0.21768 0.0
C1551 C 0.65004 0.21221 0.14304 0.0
H1552 H 0.61366 0.21084 0.07127 0.0
C1553 C 0.64911 0.25976 0.99106 0.0
C1554 C 0.63559 0.27265 0.98574 0.0
C1555 C 0.64941 0.24354 0.02098 0.0
C1556 C 0.62392 0.21138 0.09095 0.0
H1557 H 0.65799 0.16165 0.26385 0.0
H1558 H 0.6596 0.17701 0.19503 0.0
H1559 H 0.61346 0.18964 0.1341 0.0
H1560 H 0.61151 0.27782 1.00575 0.0
H1561 H 0.61201 0.24966 0.05783 0.0
H1562 H 0.66031 0.23446 0.10045 0.0
C1563 C 0.64869 0.17861 0.21198 0.0
C1564 C 0.6238 0.19925 0.12697 0.0
C1565 C 0.64774 0.16974 0.2513 0.0
C1566 C 0.62212 0.26822 0.00935 0.0
C1567 C 0.62239 0.25196 0.03899 0.0
C1568 C 0.65016 0.22435 0.10694 0.0
C1569 C 0.63566 0.18943 0.19478 0.0
C1570 C 0.63669 0.19997 0.154 0.0
C1571 C 0.63616 0.23978 0.04588 0.0
C1572 C 0.63693 0.22451 0.08101 0.0
H1573 H 0.60982 0.18408 0.27366 0.0
H1574 H 0.61151 0.19956 0.20572 0.0
H1575 H 0.6601 0.21328 0.16331 0.0
H1576 H 0.65971 0.26291 0.97352 0.0
H1577 H 0.66015 0.23429 0.02526 0.0
C1578 C 0.87648 0.74057 0.48451 0.0
C1579 C 0.88674 0.72301 0.4906 0.0
C1580 C 0.87503 0.75667 0.51438 0.0
C1581 C 0.86519 0.77431 0.59786 0.0
H1582 H 0.90015 0.79633 0.66198 0.0
C1583 C 0.85858 0.80379 0.76419 0.0
C1584 C 0.86729 0.82205 0.77641 0.0
C1585 C 0.86068 0.79492 0.72528 0.0
C1586 C 0.89025 0.79056 0.64412 0.0
H1587 H 0.90424 0.70909 0.53089 0.0
H1588 H 0.90196 0.73729 0.58266 0.0
H1589 H 0.90542 0.77632 0.59919 0.0
H1590 H 0.88467 0.84573 0.75667 0.0
H1591 H 0.88838 0.83015 0.68909 0.0
H1592 H 0.85004 0.78806 0.64337 0.0
C1593 C 0.89501 0.73873 0.55507 0.0
C1594 C 0.89328 0.77899 0.6083 0.0
C1595 C 0.8963 0.72256 0.52554 0.0
C1596 C 0.87786 0.83154 0.74848 0.0
C1597 C 0.88003 0.8226 0.70973 0.0
C1598 C 0.86217 0.78574 0.63386 0.0
C1599 C 0.88398 0.75556 0.5505 0.0
C1600 C 0.88079 0.77041 0.58518 0.0
C1601 C 0.87158 0.80406 0.69783 0.0
C1602 C 0.87467 0.79365 0.65776 0.0
H1603 H 0.8689 0.74111 0.45793 0.0
H1604 H 0.86653 0.76955 0.50992 0.0
H1605 H 0.85532 0.76771 0.58095 0.0
H1606 H 0.85033 0.79608 0.78488 0.0
H1607 H 0.8541 0.7805 0.71717 0.0
C1608 C 0.373 0.26376 0.99607 0.0
C1609 C 0.38697 0.27549 0.98911 0.0
C1610 C 0.37249 0.24751 0.02594 0.0
C1611 C 0.3978 0.21351 0.09349 0.0
H1612 H 0.36292 0.21836 0.16965 0.0
C1613 C 0.40258 0.18632 0.26026 0.0
C1614 C 0.38959 0.17636 0.27925 0.0
C1615 C 0.40133 0.19464 0.2208 0.0
C1616 C 0.37259 0.21648 0.14832 0.0
H1617 H 0.4116 0.27846 1.00596 0.0
H1618 H 0.41075 0.25032 0.05796 0.0
H1619 H 0.36248 0.23911 0.10629 0.0
H1620 H 0.36508 0.16709 0.27139 0.0
H1621 H 0.36285 0.18186 0.20219 0.0
H1622 H 0.40816 0.19148 0.13624 0.0
C1623 C 0.40016 0.25352 0.04046 0.0
C1624 C 0.37234 0.22836 0.11192 0.0
C1625 C 0.40064 0.26978 0.01085 0.0
C1626 C 0.37531 0.17468 0.2576 0.0
C1627 C 0.37401 0.1832 0.21806 0.0
C1628 C 0.39806 0.20168 0.12987 0.0
C1629 C 0.38599 0.24257 0.04917 0.0
C1630 C 0.38514 0.22747 0.08459 0.0
C1631 C 0.38702 0.19333 0.19928 0.0
C1632 C 0.38567 0.20349 0.15823 0.0
H1633 H 0.36225 0.2679 0.97998 0.0
H1634 H 0.36143 0.23921 0.03158 0.0
H1635 H 0.4077 0.21212 0.07275 0.0
H1636 H 0.41378 0.18786 0.27597 0.0
H1637 H 0.4115 0.20264 0.20755 0.0
C1638 C 0.11443 0.82254 0.76278 0.0
C1639 C 0.12745 0.83238 0.78187 0.0
C1640 C 0.11579 0.81394 0.7235 0.0
C1641 C 0.14501 0.79059 0.65441 0.0
H1642 H 0.11188 0.79585 0.5734 0.0
C1643 C 0.14997 0.74456 0.50344 0.0
C1644 C 0.13628 0.73384 0.49035 0.0
C1645 C 0.14912 0.76062 0.53337 0.0
C1646 C 0.1212 0.79409 0.59573 0.0
H1647 H 0.15206 0.84129 0.77427 0.0
H1648 H 0.15447 0.82602 0.70569 0.0
H1649 H 0.11 0.81614 0.63721 0.0
H1650 H 0.11091 0.73195 0.49672 0.0
H1651 H 0.10935 0.75965 0.54983 0.0
H1652 H 0.15593 0.7679 0.61423 0.0
C1653 C 0.1432 0.82498 0.72125 0.0
C1654 C 0.12013 0.80578 0.63226 0.0
C1655 C 0.1418 0.8338 0.76044 0.0
C1656 C 0.12159 0.74026 0.50599 0.0
C1657 C 0.12075 0.75613 0.53645 0.0
C1658 C 0.14602 0.77878 0.61815 0.0
C1659 C 0.13024 0.81479 0.70248 0.0
C1660 C 0.13194 0.80394 0.66221 0.0
C1661 C 0.13458 0.76599 0.55155 0.0
C1662 C 0.13405 0.78016 0.58844 0.0
H1663 H 0.10319 0.82125 0.77834 0.0
H1664 H 0.10564 0.80598 0.71011 0.0
H1665 H 0.15419 0.78855 0.67711 0.0
H1666 H 0.16143 0.73981 0.49176 0.0
H1667 H 0.15997 0.76822 0.54336 0.0
C1668 C 0.35687 0.80936 0.74981 0.0
C1669 C 0.36813 0.82412 0.73503 0.0
C1670 C 0.35821 0.80076 0.78912 0.0
C1671 C 0.38723 0.78766 0.86767 0.0
H1672 H 0.35031 0.78085 0.93646 0.0
C1673 C 0.39003 0.73932 0.01898 0.0
C1674 C 0.37777 0.72416 0.02339 0.0
C1675 C 0.38899 0.7557 0.98936 0.0
C1676 C 0.36074 0.78257 0.91762 0.0
H1677 H 0.38964 0.84149 0.75 0.0
H1678 H 0.39208 0.82618 0.81856 0.0
H1679 H 0.34825 0.80108 0.87274 0.0
H1680 H 0.35445 0.71505 1.00243 0.0
H1681 H 0.35267 0.74318 0.95093 0.0
H1682 H 0.39957 0.76832 0.91151 0.0
C1683 C 0.38218 0.82137 0.79971 0.0
C1684 C 0.35955 0.79417 0.88113 0.0
C1685 C 0.38074 0.83019 0.76053 0.0
C1686 C 0.36413 0.72642 0.99943 0.0
C1687 C 0.36307 0.74272 0.97012 0.0
C1688 C 0.3884 0.77587 0.90405 0.0
C1689 C 0.37094 0.80654 0.81439 0.0
C1690 C 0.37268 0.7964 0.85528 0.0
C1691 C 0.37561 0.75728 0.96396 0.0
C1692 C 0.37506 0.77268 0.92895 0.0
H1693 H 0.34701 0.80438 0.73099 0.0
H1694 H 0.34946 0.78916 0.79939 0.0
H1695 H 0.39754 0.78901 0.84825 0.0
H1696 H 0.40069 0.73789 0.03701 0.0
H1697 H 0.39879 0.76681 0.98571 0.0
C1698 C 0.13964 0.17292 0.26958 0.0
C1699 C 0.15051 0.18194 0.24189 0.0
C1700 C 0.1379 0.18157 0.30874 0.0
C1701 C 0.15743 0.21637 0.38552 0.0
H1702 H 0.11473 0.22831 0.42193 0.0
C1703 C 0.14552 0.26207 0.53575 0.0
C1704 C 0.1357 0.28013 0.53024 0.0
C1705 C 0.14629 0.24594 0.50575 0.0
C1706 C 0.12672 0.22493 0.41233 0.0
H1707 H 0.16843 0.20674 0.23421 0.0
H1708 H 0.16538 0.22183 0.30248 0.0
H1709 H 0.11899 0.20845 0.35849 0.0
H1710 H 0.11833 0.29505 0.49085 0.0
H1711 H 0.11944 0.26684 0.43886 0.0
H1712 H 0.16516 0.23362 0.43853 0.0
C1713 C 0.15825 0.20799 0.29394 0.0
C1714 C 0.12916 0.21343 0.37614 0.0
C1715 C 0.15992 0.19943 0.25468 0.0
C1716 C 0.12591 0.28115 0.49577 0.0
C1717 C 0.12654 0.26497 0.46611 0.0
C1718 C 0.15498 0.22775 0.42186 0.0
C1719 C 0.14709 0.19932 0.32125 0.0
C1720 C 0.14455 0.20947 0.36183 0.0
C1721 C 0.13711 0.24755 0.47008 0.0
C1722 C 0.1396 0.2326 0.43516 0.0
H1723 H 0.13228 0.15934 0.26092 0.0
H1724 H 0.12932 0.17439 0.32922 0.0
H1725 H 0.16942 0.21334 0.37554 0.0
H1726 H 0.15326 0.2611 0.56198 0.0
H1727 H 0.15445 0.2326 0.50976 0.0
loop_
_geom_bond_atom_site_label_1
_geom_bond_atom_site_label_2
_geom_bond_distance
_geom_bond_site_symmetry_2
_ccdc_geom_bond_type
Co0 N4 2.148 . S
Co0 N10 2.128 . S
Co0 N20 2.194 . S
Co0 O25 2.351 . S
Co0 O26 2.155 . S
Co0 O27 2.096 . S
C1 N4 1.301 . S
C1 N5 1.328 . S
C1 H6 0.930 . S
C2 C3 1.333 . S
C2 N4 1.317 . S
C2 H7 0.930 . S
C3 C2 1.333 . S
C3 N5 1.350 . S
C3 H29 0.931 . S
N4 Co0 2.148 . S
N4 C1 1.301 . S
N4 C2 1.317 . S
N5 C1 1.328 . S
N5 C3 1.350 . S
H6 C1 0.930 . S
H7 C2 0.930 . S
C8 O9 1.224 . S
C8 O27 1.247 . S
O9 C8 1.224 . S
N10 Co0 2.128 . S
N10 C11 1.355 . S
N10 C13 1.311 . S
C11 N10 1.355 . S
C11 C12 1.363 . S
C11 H23 0.929 . S
C12 C11 1.363 . S
C12 N14 1.375 . S
C12 H30 0.931 . S
C13 N10 1.311 . S
C13 N14 1.347 . S
C13 H24 0.929 . S
N14 C12 1.375 . S
N14 C13 1.347 . S
C15 C18 1.365 1_554 S
C15 N20 1.328 . S
C15 H21 0.929 1_554 S
C16 C17 1.362 1_554 S
C16 C19 1.378 . S
C16 H31 0.929 . S
C17 C16 1.362 1_556 S
C17 C18 1.366 . S
C18 C15 1.365 1_556 S
C18 C17 1.366 . S
C18 H32 0.930 . S
C19 C16 1.378 . S
C19 N20 1.315 . S
C19 H22 0.930 . S
N20 Co0 2.194 . S
N20 C15 1.328 . S
N20 C19 1.315 . S
H21 C15 0.929 1_556 S
H22 C19 0.930 . S
H23 C11 0.929 . S
H24 C13 0.929 . S
O25 Co0 2.351 . S
O25 C28 1.244 . S
O26 Co0 2.155 . S
O26 C28 1.240 . S
O27 Co0 2.096 . S
O27 C8 1.247 . S
C28 O25 1.244 . S
C28 O26 1.240 . S
H29 C3 0.931 . S
H30 C12 0.931 . S
H31 C16 0.929 . S
H32 C18 0.930 . S
Co33 N37 2.148 . S
Co33 N43 2.128 . S
Co33 N53 2.194 . S
Co33 O58 2.351 . S
Co33 O59 2.155 . S
Co33 O60 2.096 . S
C34 N37 1.301 . S
C34 N38 1.328 . S
C34 H39 0.930 . S
C35 C36 1.333 . S
C35 N37 1.317 . S
C35 H40 0.930 . S
C36 C35 1.333 . S
C36 N38 1.350 . S
C36 H62 0.931 . S
N37 Co33 2.148 . S
N37 C34 1.301 . S
N37 C35 1.317 . S
N38 C34 1.328 . S
N38 C36 1.350 . S
H39 C34 0.930 . S
H40 C35 0.930 . S
C41 O42 1.224 . S
C41 O60 1.247 . S
O42 C41 1.224 . S
N43 Co33 2.128 . S
N43 C44 1.355 . S
N43 C46 1.311 . S
C44 N43 1.355 . S
C44 C45 1.363 . S
C44 H56 0.929 . S
C45 C44 1.363 . S
C45 N47 1.375 . S
C45 H63 0.931 . S
C46 N43 1.311 . S
C46 N47 1.347 . S
C46 H57 0.929 . S
N47 C45 1.375 . S
N47 C46 1.347 . S
C48 C51 1.365 . S
C48 N53 1.328 . S
C48 H54 0.929 . S
C49 C50 1.362 . S
C49 C52 1.378 . S
C49 H64 0.929 . S
C50 C49 1.362 . S
C50 C51 1.366 . S
C51 C48 1.365 . S
C51 C50 1.366 . S
C51 H65 0.930 . S
C52 C49 1.378 . S
C52 N53 1.315 . S
C52 H55 0.930 . S
N53 Co33 2.194 . S
N53 C48 1.328 . S
N53 C52 1.315 . S
H54 C48 0.929 . S
H55 C52 0.930 . S
H56 C44 0.929 . S
H57 C46 0.929 . S
O58 Co33 2.351 . S
O58 C61 1.244 . S
O59 Co33 2.155 . S
O59 C61 1.240 . S
O60 Co33 2.096 . S
O60 C41 1.247 . S
C61 O58 1.244 . S
C61 O59 1.240 . S
H62 C36 0.931 . S
H63 C45 0.931 . S
H64 C49 0.929 . S
H65 C51 0.930 . S
Co66 N70 2.148 . S
Co66 N76 2.128 . S
Co66 N86 2.194 . S
Co66 O91 2.351 . S
Co66 O92 2.155 . S
Co66 O93 2.096 . S
C67 N70 1.301 . S
C67 N71 1.328 . S
C67 H72 0.930 . S
C68 C69 1.333 . S
C68 N70 1.317 . S
C68 H73 0.930 . S
C69 C68 1.333 . S
C69 N71 1.350 . S
C69 H95 0.931 . S
N70 Co66 2.148 . S
N70 C67 1.301 . S
N70 C68 1.317 . S
N71 C67 1.328 . S
N71 C69 1.350 . S
H72 C67 0.930 . S
H73 C68 0.930 . S
C74 O75 1.224 . S
C74 O93 1.247 . S
O75 C74 1.224 . S
N76 Co66 2.128 . S
N76 C77 1.355 . S
N76 C79 1.311 . S
C77 N76 1.355 . S
C77 C78 1.363 . S
C77 H89 0.929 . S
C78 C77 1.363 . S
C78 N80 1.375 . S
C78 H96 0.931 . S
C79 N76 1.311 . S
C79 N80 1.347 . S
C79 H90 0.929 . S
N80 C78 1.375 . S
N80 C79 1.347 . S
C81 C84 1.341 1_556 S
C81 N86 1.357 . S
C81 H87 0.926 1_556 S
C82 C83 1.362 1_556 S
C82 C85 1.378 . S
C82 H97 0.929 . S
C83 C82 1.362 1_554 S
C83 C84 1.366 . S
C84 C81 1.341 1_554 S
C84 C83 1.366 . S
C84 H98 0.930 . S
C85 C82 1.378 . S
C85 N86 1.315 . S
C85 H88 0.930 . S
N86 Co66 2.194 . S
N86 C81 1.357 . S
N86 C85 1.315 . S
H87 C81 0.926 1_554 S
H88 C85 0.930 . S
H89 C77 0.929 . S
H90 C79 0.929 . S
O91 Co66 2.351 . S
O91 C94 1.244 . S
O92 Co66 2.155 . S
O92 C94 1.240 . S
O93 Co66 2.096 . S
O93 C74 1.247 . S
C94 O91 1.244 . S
C94 O92 1.240 . S
H95 C69 0.931 . S
H96 C78 0.931 . S
H97 C82 0.929 . S
H98 C84 0.930 . S
Co99 N103 2.148 . S
Co99 N109 2.128 . S
Co99 N119 2.194 . S
Co99 O124 2.351 . S
Co99 O125 2.155 . S
Co99 O126 2.096 . S
C100 N103 1.301 . S
C100 N104 1.328 . S
C100 H105 0.930 . S
C101 C102 1.333 . S
C101 N103 1.317 . S
C101 H106 0.930 . S
C102 C101 1.333 . S
C102 N104 1.350 . S
C102 H128 0.931 . S
N103 Co99 2.148 . S
N103 C100 1.301 . S
N103 C101 1.317 . S
N104 C100 1.328 . S
N104 C102 1.350 . S
H105 C100 0.930 . S
H106 C101 0.930 . S
C107 O108 1.224 . S
C107 O126 1.247 . S
O108 C107 1.224 . S
N109 Co99 2.128 . S
N109 C110 1.355 . S
N109 C112 1.311 . S
C110 N109 1.355 . S
C110 C111 1.363 . S
C110 H122 0.929 . S
C111 C110 1.363 . S
C111 N113 1.375 . S
C111 H129 0.931 . S
C112 N109 1.311 . S
C112 N113 1.347 . S
C112 H123 0.929 . S
N113 C111 1.375 . S
N113 C112 1.347 . S
C114 C117 1.365 . S
C114 N119 1.328 . S
C114 H120 0.929 . S
C115 C116 1.362 . S
C115 C118 1.378 . S
C115 H130 0.929 . S
C116 C115 1.362 . S
C116 C117 1.366 . S
C117 C114 1.365 . S
C117 C116 1.366 . S
C117 H131 0.930 . S
C118 C115 1.378 . S
C118 N119 1.315 . S
C118 H121 0.930 . S
N119 Co99 2.194 . S
N119 C114 1.328 . S
N119 C118 1.315 . S
H120 C114 0.929 . S
H121 C118 0.930 . S
H122 C110 0.929 . S
H123 C112 0.929 . S
O124 Co99 2.351 . S
O124 C127 1.244 . S
O125 Co99 2.155 . S
O125 C127 1.240 . S
O126 Co99 2.096 . S
O126 C107 1.247 . S
C127 O124 1.244 . S
C127 O125 1.240 . S
H128 C102 0.931 . S
H129 C111 0.931 . S
H130 C115 0.929 . S
H131 C117 0.930 . S
Co132 N136 2.148 . S
Co132 N142 2.128 . S
Co132 N152 2.194 . S
Co132 O157 2.351 . S
Co132 O158 2.155 . S
Co132 O159 2.096 . S
C133 N136 1.301 . S
C133 N137 1.328 . S
C133 H138 0.930 . S
C134 C135 1.333 . S
C134 N136 1.317 . S
C134 H139 0.930 . S
C135 C134 1.333 . S
C135 N137 1.350 . S
C135 H161 0.931 . S
N136 Co132 2.148 . S
N136 C133 1.301 . S
N136 C134 1.317 . S
N137 C133 1.328 . S
N137 C135 1.350 . S
H138 C133 0.930 . S
H139 C134 0.930 . S
C140 O141 1.224 . S
C140 O159 1.247 . S
O141 C140 1.224 . S
N142 Co132 2.128 . S
N142 C143 1.355 . S
N142 C145 1.311 . S
C143 N142 1.355 . S
C143 C144 1.363 . S
C143 H155 0.929 . S
C144 C143 1.363 . S
C144 N146 1.375 . S
C144 H162 0.931 . S
C145 N142 1.311 . S
C145 N146 1.347 . S
C145 H156 0.929 . S
N146 C144 1.375 . S
N146 C145 1.347 . S
C147 C150 1.365 1_556 S
C147 N152 1.328 . S
C147 H153 0.929 1_556 S
C148 C149 1.362 1_556 S
C148 C151 1.378 . S
C148 H163 0.929 . S
C149 C148 1.362 1_554 S
C149 C150 1.366 . S
C150 C147 1.365 1_554 S
C150 C149 1.366 . S
C150 H164 0.930 . S
C151 C148 1.378 . S
C151 N152 1.315 . S
C151 H154 0.930 . S
N152 Co132 2.194 . S
N152 C147 1.328 . S
N152 C151 1.315 . S
H153 C147 0.929 1_554 S
H154 C151 0.930 . S
H155 C143 0.929 . S
H156 C145 0.929 . S
O157 Co132 2.351 . S
O157 C160 1.244 . S
O158 Co132 2.155 . S
O158 C160 1.240 . S
O159 Co132 2.096 . S
O159 C140 1.247 . S
C160 O157 1.244 . S
C160 O158 1.240 . S
H161 C135 0.931 . S
H162 C144 0.931 . S
H163 C148 0.929 . S
H164 C150 0.930 . S
Co165 N169 2.148 . S
Co165 N175 2.128 . S
Co165 N185 2.194 . S
Co165 O190 2.351 . S
Co165 O191 2.155 . S
Co165 O192 2.096 . S
C166 N169 1.301 . S
C166 N170 1.328 . S
C166 H171 0.930 . S
C167 C168 1.333 . S
C167 N169 1.317 . S
C167 H172 0.930 . S
C168 C167 1.333 . S
C168 N170 1.350 . S
C168 H194 0.931 . S
N169 Co165 2.148 . S
N169 C166 1.301 . S
N169 C167 1.317 . S
N170 C166 1.328 . S
N170 C168 1.350 . S
H171 C166 0.930 . S
H172 C167 0.930 . S
C173 O174 1.224 . S
C173 O192 1.247 . S
O174 C173 1.224 . S
N175 Co165 2.128 . S
N175 C176 1.355 . S
N175 C178 1.311 . S
C176 N175 1.355 . S
C176 C177 1.363 . S
C176 H188 0.929 . S
C177 C176 1.363 . S
C177 N179 1.375 . S
C177 H195 0.931 . S
C178 N175 1.311 . S
C178 N179 1.347 . S
C178 H189 0.929 . S
N179 C177 1.375 . S
N179 C178 1.347 . S
C180 C183 1.365 . S
C180 N185 1.328 . S
C180 H186 0.929 . S
C181 C182 1.362 . S
C181 C184 1.378 . S
C181 H196 0.929 . S
C182 C181 1.362 . S
C182 C183 1.366 . S
C183 C180 1.365 . S
C183 C182 1.366 . S
C183 H197 0.930 . S
C184 C181 1.378 . S
C184 N185 1.315 . S
C184 H187 0.930 . S
N185 Co165 2.194 . S
N185 C180 1.328 . S
N185 C184 1.315 . S
H186 C180 0.929 . S
H187 C184 0.930 . S
H188 C176 0.929 . S
H189 C178 0.929 . S
O190 Co165 2.351 . S
O190 C193 1.244 . S
O191 Co165 2.155 . S
O191 C193 1.240 . S
O192 Co165 2.096 . S
O192 C173 1.247 . S
C193 O190 1.244 . S
C193 O191 1.240 . S
H194 C168 0.931 . S
H195 C177 0.931 . S
H196 C181 0.929 . S
H197 C183 0.930 . S
Co198 N202 2.148 . S
Co198 N208 2.128 . S
Co198 N218 2.194 . S
Co198 O223 2.351 . S
Co198 O224 2.155 . S
Co198 O225 2.096 . S
C199 N202 1.301 . S
C199 N203 1.328 . S
C199 H204 0.930 . S
C200 C201 1.333 . S
C200 N202 1.317 . S
C200 H205 0.930 . S
C201 C200 1.333 . S
C201 N203 1.350 . S
C201 H227 0.931 . S
N202 Co198 2.148 . S
N202 C199 1.301 . S
N202 C200 1.317 . S
N203 C199 1.328 . S
N203 C201 1.350 . S
H204 C199 0.930 . S
H205 C200 0.930 . S
C206 O207 1.224 . S
C206 O225 1.247 . S
O207 C206 1.224 . S
N208 Co198 2.128 . S
N208 C209 1.355 . S
N208 C211 1.311 . S
C209 N208 1.355 . S
C209 C210 1.363 . S
C209 H221 0.929 . S
C210 C209 1.363 . S
C210 N212 1.375 . S
C210 H228 0.931 . S
C211 N208 1.311 . S
C211 N212 1.347 . S
C211 H222 0.929 . S
N212 C210 1.375 . S
N212 C211 1.347 . S
C213 C216 1.341 1_554 S
C213 N218 1.357 . S
C213 H219 0.926 1_554 S
C214 C215 1.362 1_554 S
C214 C217 1.378 . S
C214 H229 0.929 . S
C215 C214 1.362 1_556 S
C215 C216 1.366 . S
C216 C213 1.341 1_556 S
C216 C215 1.366 . S
C216 H230 0.930 . S
C217 C214 1.378 . S
C217 N218 1.315 . S
C217 H220 0.930 . S
N218 Co198 2.194 . S
N218 C213 1.357 . S
N218 C217 1.315 . S
H219 C213 0.926 1_556 S
H220 C217 0.930 . S
H221 C209 0.929 . S
H222 C211 0.929 . S
O223 Co198 2.351 . S
O223 C226 1.244 . S
O224 Co198 2.155 . S
O224 C226 1.240 . S
O225 Co198 2.096 . S
O225 C206 1.247 . S
C226 O223 1.244 . S
C226 O224 1.240 . S
H227 C201 0.931 . S
H228 C210 0.931 . S
H229 C214 0.929 . S
H230 C216 0.930 . S
Co231 N235 2.148 . S
Co231 N241 2.128 . S
Co231 N251 2.194 . S
Co231 O256 2.351 . S
Co231 O257 2.155 . S
Co231 O258 2.096 . S
C232 N235 1.301 . S
C232 N236 1.328 . S
C232 H237 0.930 . S
C233 C234 1.333 . S
C233 N235 1.317 . S
C233 H238 0.930 . S
C234 C233 1.333 . S
C234 N236 1.350 . S
C234 H260 0.931 . S
N235 Co231 2.148 . S
N235 C232 1.301 . S
N235 C233 1.317 . S
N236 C232 1.328 . S
N236 C234 1.350 . S
H237 C232 0.930 . S
H238 C233 0.930 . S
C239 O240 1.224 . S
C239 O258 1.247 . S
O240 C239 1.224 . S
N241 Co231 2.128 . S
N241 C242 1.355 . S
N241 C244 1.311 . S
C242 N241 1.355 . S
C242 C243 1.363 . S
C242 H254 0.929 . S
C243 C242 1.363 . S
C243 N245 1.375 . S
C243 H261 0.931 . S
C244 N241 1.311 . S
C244 N245 1.347 . S
C244 H255 0.929 . S
N245 C243 1.375 . S
N245 C244 1.347 . S
C246 C249 1.365 . S
C246 N251 1.328 . S
C246 H252 0.929 . S
C247 C248 1.362 . S
C247 C250 1.378 . S
C247 H262 0.929 . S
C248 C247 1.362 . S
C248 C249 1.366 . S
C249 C246 1.365 . S
C249 C248 1.366 . S
C249 H263 0.930 . S
C250 C247 1.378 . S
C250 N251 1.315 . S
C250 H253 0.930 . S
N251 Co231 2.194 . S
N251 C246 1.328 . S
N251 C250 1.315 . S
H252 C246 0.929 . S
H253 C250 0.930 . S
H254 C242 0.929 . S
H255 C244 0.929 . S
O256 Co231 2.351 . S
O256 C259 1.244 . S
O257 Co231 2.155 . S
O257 C259 1.240 . S
O258 Co231 2.096 . S
O258 C239 1.247 . S
C259 O256 1.244 . S
C259 O257 1.240 . S
H260 C234 0.931 . S
H261 C243 0.931 . S
H262 C247 0.929 . S
H263 C249 0.930 . S
Co264 N268 2.148 . S
Co264 N274 2.128 . S
Co264 N284 2.194 . S
Co264 O289 2.351 . S
Co264 O290 2.155 . S
Co264 O291 2.096 . S
C265 N268 1.301 . S
C265 N269 1.328 . S
C265 H270 0.930 . S
C266 C267 1.333 . S
C266 N268 1.317 . S
C266 H271 0.930 . S
C267 C266 1.333 . S
C267 N269 1.350 . S
C267 H293 0.931 . S
N268 Co264 2.148 . S
N268 C265 1.301 . S
N268 C266 1.317 . S
N269 C265 1.328 . S
N269 C267 1.350 . S
H270 C265 0.930 . S
H271 C266 0.930 . S
C272 O273 1.224 . S
C272 O291 1.247 . S
O273 C272 1.224 . S
N274 Co264 2.128 . S
N274 C275 1.355 . S
N274 C277 1.311 . S
C275 N274 1.355 . S
C275 C276 1.363 . S
C275 H287 0.929 . S
C276 C275 1.363 . S
C276 N278 1.375 . S
C276 H294 0.931 . S
C277 N274 1.311 . S
C277 N278 1.347 . S
C277 H288 0.929 . S
N278 C276 1.375 . S
N278 C277 1.347 . S
C279 C282 1.341 1_554 S
C279 N284 1.357 . S
C279 H285 0.926 1_554 S
C280 C281 1.362 1_554 S
C280 C283 1.378 . S
C280 H295 0.929 . S
C281 C280 1.362 1_556 S
C281 C282 1.366 . S
C282 C279 1.341 1_556 S
C282 C281 1.366 . S
C282 H296 0.930 . S
C283 C280 1.378 . S
C283 N284 1.315 . S
C283 H286 0.930 . S
N284 Co264 2.194 . S
N284 C279 1.357 . S
N284 C283 1.315 . S
H285 C279 0.926 1_556 S
H286 C283 0.930 . S
H287 C275 0.929 . S
H288 C277 0.929 . S
O289 Co264 2.351 . S
O289 C292 1.244 . S
O290 Co264 2.155 . S
O290 C292 1.240 . S
O291 Co264 2.096 . S
O291 C272 1.247 . S
C292 O289 1.244 . S
C292 O290 1.240 . S
H293 C267 0.931 . S
H294 C276 0.931 . S
H295 C280 0.929 . S
H296 C282 0.930 . S
Co297 N301 2.148 . S
Co297 N307 2.128 . S
Co297 N317 2.194 . S
Co297 O322 2.351 . S
Co297 O323 2.155 . S
Co297 O324 2.096 . S
C298 N301 1.301 . S
C298 N302 1.328 . S
C298 H303 0.930 . S
C299 C300 1.333 . S
C299 N301 1.317 . S
C299 H304 0.930 . S
C300 C299 1.333 . S
C300 N302 1.350 . S
C300 H326 0.931 . S
N301 Co297 2.148 . S
N301 C298 1.301 . S
N301 C299 1.317 . S
N302 C298 1.328 . S
N302 C300 1.350 . S
H303 C298 0.930 . S
H304 C299 0.930 . S
C305 O306 1.224 . S
C305 O324 1.247 . S
O306 C305 1.224 . S
N307 Co297 2.128 . S
N307 C308 1.355 . S
N307 C310 1.311 . S
C308 N307 1.355 . S
C308 C309 1.363 . S
C308 H320 0.929 . S
C309 C308 1.363 . S
C309 N311 1.375 . S
C309 H327 0.931 . S
C310 N307 1.311 . S
C310 N311 1.347 . S
C310 H321 0.929 . S
N311 C309 1.375 . S
N311 C310 1.347 . S
C312 C315 1.365 . S
C312 N317 1.328 . S
C312 H318 0.929 . S
C313 C314 1.362 . S
C313 C316 1.378 . S
C313 H328 0.929 . S
C314 C313 1.362 . S
C314 C315 1.366 . S
C315 C312 1.365 . S
C315 C314 1.366 . S
C315 H329 0.930 . S
C316 C313 1.378 . S
C316 N317 1.315 . S
C316 H319 0.930 . S
N317 Co297 2.194 . S
N317 C312 1.328 . S
N317 C316 1.315 . S
H318 C312 0.929 . S
H319 C316 0.930 . S
H320 C308 0.929 . S
H321 C310 0.929 . S
O322 Co297 2.351 . S
O322 C325 1.244 . S
O323 Co297 2.155 . S
O323 C325 1.240 . S
O324 Co297 2.096 . S
O324 C305 1.247 . S
C325 O322 1.244 . S
C325 O323 1.240 . S
H326 C300 0.931 . S
H327 C309 0.931 . S
H328 C313 0.929 . S
H329 C315 0.930 . S
Co330 N334 2.148 . S
Co330 N340 2.128 . S
Co330 N350 2.194 . S
Co330 O355 2.351 . S
Co330 O356 2.155 . S
Co330 O357 2.096 . S
C331 N334 1.301 . S
C331 N335 1.328 . S
C331 H336 0.930 . S
C332 C333 1.333 . S
C332 N334 1.317 . S
C332 H337 0.930 . S
C333 C332 1.333 . S
C333 N335 1.350 . S
C333 H359 0.931 . S
N334 Co330 2.148 . S
N334 C331 1.301 . S
N334 C332 1.317 . S
N335 C331 1.328 . S
N335 C333 1.350 . S
H336 C331 0.930 . S
H337 C332 0.930 . S
C338 O339 1.224 . S
C338 O357 1.247 . S
O339 C338 1.224 . S
N340 Co330 2.128 . S
N340 C341 1.355 . S
N340 C343 1.311 . S
C341 N340 1.355 . S
C341 C342 1.363 . S
C341 H353 0.929 . S
C342 C341 1.363 . S
C342 N344 1.375 . S
C342 H360 0.931 . S
C343 N340 1.311 . S
C343 N344 1.347 . S
C343 H354 0.929 . S
N344 C342 1.375 . S
N344 C343 1.347 . S
C345 C348 1.341 1_556 S
C345 N350 1.357 . S
C345 H351 0.926 1_556 S
C346 C347 1.362 1_556 S
C346 C349 1.378 . S
C346 H361 0.929 . S
C347 C346 1.362 1_554 S
C347 C348 1.366 . S
C348 C345 1.341 1_554 S
C348 C347 1.366 . S
C348 H362 0.930 . S
C349 C346 1.378 . S
C349 N350 1.315 . S
C349 H352 0.930 . S
N350 Co330 2.194 . S
N350 C345 1.357 . S
N350 C349 1.315 . S
H351 C345 0.926 1_554 S
H352 C349 0.930 . S
H353 C341 0.929 . S
H354 C343 0.929 . S
O355 Co330 2.351 . S
O355 C358 1.244 . S
O356 Co330 2.155 . S
O356 C358 1.240 . S
O357 Co330 2.096 . S
O357 C338 1.247 . S
C358 O355 1.244 . S
C358 O356 1.240 . S
H359 C333 0.931 . S
H360 C342 0.931 . S
H361 C346 0.929 . S
H362 C348 0.930 . S
Co363 N367 2.148 . S
Co363 N373 2.128 . S
Co363 N383 2.194 . S
Co363 O388 2.351 . S
Co363 O389 2.155 . S
Co363 O390 2.096 . S
C364 N367 1.301 . S
C364 N368 1.328 . S
C364 H369 0.930 . S
C365 C366 1.333 . S
C365 N367 1.317 . S
C365 H370 0.930 . S
C366 C365 1.333 . S
C366 N368 1.350 . S
C366 H392 0.931 . S
N367 Co363 2.148 . S
N367 C364 1.301 . S
N367 C365 1.317 . S
N368 C364 1.328 . S
N368 C366 1.350 . S
H369 C364 0.930 . S
H370 C365 0.930 . S
C371 O372 1.224 . S
C371 O390 1.247 . S
O372 C371 1.224 . S
N373 Co363 2.128 . S
N373 C374 1.355 . S
N373 C376 1.311 . S
C374 N373 1.355 . S
C374 C375 1.363 . S
C374 H386 0.929 . S
C375 C374 1.363 . S
C375 N377 1.375 . S
C375 H393 0.931 . S
C376 N373 1.311 . S
C376 N377 1.347 . S
C376 H387 0.929 . S
N377 C375 1.375 . S
N377 C376 1.347 . S
C378 C381 1.365 . S
C378 N383 1.328 . S
C378 H384 0.929 . S
C379 C380 1.362 . S
C379 C382 1.378 . S
C379 H394 0.929 . S
C380 C379 1.362 . S
C380 C381 1.366 . S
C381 C378 1.365 . S
C381 C380 1.366 . S
C381 H395 0.930 . S
C382 C379 1.378 . S
C382 N383 1.315 . S
C382 H385 0.930 . S
N383 Co363 2.194 . S
N383 C378 1.328 . S
N383 C382 1.315 . S
H384 C378 0.929 . S
H385 C382 0.930 . S
H386 C374 0.929 . S
H387 C376 0.929 . S
O388 Co363 2.351 . S
O388 C391 1.244 . S
O389 Co363 2.155 . S
O389 C391 1.240 . S
O390 Co363 2.096 . S
O390 C371 1.247 . S
C391 O388 1.244 . S
C391 O389 1.240 . S
H392 C366 0.931 . S
H393 C375 0.931 . S
H394 C379 0.929 . S
H395 C381 0.930 . S
Co396 N400 2.148 . S
Co396 N406 2.128 . S
Co396 N416 2.194 . S
Co396 O421 2.351 . S
Co396 O422 2.155 . S
Co396 O423 2.096 . S
C397 N400 1.301 . S
C397 N401 1.328 . S
C397 H402 0.930 . S
C398 C399 1.333 . S
C398 N400 1.317 . S
C398 H403 0.930 . S
C399 C398 1.333 . S
C399 N401 1.350 . S
C399 H425 0.931 . S
N400 Co396 2.148 . S
N400 C397 1.301 . S
N400 C398 1.317 . S
N401 C397 1.328 . S
N401 C399 1.350 . S
H402 C397 0.930 . S
H403 C398 0.930 . S
C404 O405 1.224 . S
C404 O423 1.247 . S
O405 C404 1.224 . S
N406 Co396 2.128 . S
N406 C407 1.355 . S
N406 C409 1.311 . S
C407 N406 1.355 . S
C407 C408 1.363 . S
C407 H419 0.929 . S
C408 C407 1.363 . S
C408 N410 1.375 . S
C408 H426 0.931 . S
C409 N406 1.311 . S
C409 N410 1.347 . S
C409 H420 0.929 . S
N410 C408 1.375 . S
N410 C409 1.347 . S
C411 C414 1.341 1_556 S
C411 N416 1.357 . S
C411 H417 0.926 1_556 S
C412 C413 1.362 1_556 S
C412 C415 1.378 . S
C412 H427 0.929 . S
C413 C412 1.362 1_554 S
C413 C414 1.366 . S
C414 C411 1.341 1_554 S
C414 C413 1.366 . S
C414 H428 0.930 . S
C415 C412 1.378 . S
C415 N416 1.315 . S
C415 H418 0.930 . S
N416 Co396 2.194 . S
N416 C411 1.357 . S
N416 C415 1.315 . S
H417 C411 0.926 1_554 S
H418 C415 0.930 . S
H419 C407 0.929 . S
H420 C409 0.929 . S
O421 Co396 2.351 . S
O421 C424 1.244 . S
O422 Co396 2.155 . S
O422 C424 1.240 . S
O423 Co396 2.096 . S
O423 C404 1.247 . S
C424 O421 1.244 . S
C424 O422 1.240 . S
H425 C399 0.931 . S
H426 C408 0.931 . S
H427 C412 0.929 . S
H428 C414 0.930 . S
Co429 N433 2.148 . S
Co429 N439 2.128 . S
Co429 N449 2.194 . S
Co429 O454 2.351 . S
Co429 O455 2.155 . S
Co429 O456 2.096 . S
C430 N433 1.301 . S
C430 N434 1.328 . S
C430 H435 0.930 . S
C431 C432 1.333 . S
C431 N433 1.317 . S
C431 H436 0.930 . S
C432 C431 1.333 . S
C432 N434 1.350 . S
C432 H458 0.931 . S
N433 Co429 2.148 . S
N433 C430 1.301 . S
N433 C431 1.317 . S
N434 C430 1.328 . S
N434 C432 1.350 . S
H435 C430 0.930 . S
H436 C431 0.930 . S
C437 O438 1.224 . S
C437 O456 1.247 . S
O438 C437 1.224 . S
N439 Co429 2.128 . S
N439 C440 1.355 . S
N439 C442 1.311 . S
C440 N439 1.355 . S
C440 C441 1.363 . S
C440 H452 0.929 . S
C441 C440 1.363 . S
C441 N443 1.375 . S
C441 H459 0.931 . S
C442 N439 1.311 . S
C442 N443 1.347 . S
C442 H453 0.929 . S
N443 C441 1.375 . S
N443 C442 1.347 . S
C444 C447 1.365 . S
C444 N449 1.328 . S
C444 H450 0.929 . S
C445 C446 1.362 . S
C445 C448 1.378 . S
C445 H460 0.929 . S
C446 C445 1.362 . S
C446 C447 1.366 . S
C447 C444 1.365 . S
C447 C446 1.366 . S
C447 H461 0.930 . S
C448 C445 1.378 . S
C448 N449 1.315 . S
C448 H451 0.930 . S
N449 Co429 2.194 . S
N449 C444 1.328 . S
N449 C448 1.315 . S
H450 C444 0.929 . S
H451 C448 0.930 . S
H452 C440 0.929 . S
H453 C442 0.929 . S
O454 Co429 2.351 . S
O454 C457 1.244 . S
O455 Co429 2.155 . S
O455 C457 1.240 . S
O456 Co429 2.096 . S
O456 C437 1.247 . S
C457 O454 1.244 . S
C457 O455 1.240 . S
H458 C432 0.931 . S
H459 C441 0.931 . S
H460 C445 0.929 . S
H461 C447 0.930 . S
Co462 N466 2.148 . S
Co462 N472 2.128 . S
Co462 N482 2.194 . S
Co462 O487 2.351 . S
Co462 O488 2.155 . S
Co462 O489 2.096 . S
C463 N466 1.301 . S
C463 N467 1.328 . S
C463 H468 0.930 . S
C464 C465 1.333 . S
C464 N466 1.317 . S
C464 H469 0.930 . S
C465 C464 1.333 . S
C465 N467 1.350 . S
C465 H491 0.931 . S
N466 Co462 2.148 . S
N466 C463 1.301 . S
N466 C464 1.317 . S
N467 C463 1.328 . S
N467 C465 1.350 . S
H468 C463 0.930 . S
H469 C464 0.930 . S
C470 O471 1.224 . S
C470 O489 1.247 . S
O471 C470 1.224 . S
N472 Co462 2.128 . S
N472 C473 1.355 . S
N472 C475 1.311 . S
C473 N472 1.355 . S
C473 C474 1.363 . S
C473 H485 0.929 . S
C474 C473 1.363 . S
C474 N476 1.375 . S
C474 H492 0.931 . S
C475 N472 1.311 . S
C475 N476 1.347 . S
C475 H486 0.929 . S
N476 C474 1.375 . S
N476 C475 1.347 . S
C477 C480 1.341 1_554 S
C477 N482 1.357 . S
C477 H483 0.926 1_554 S
C478 C479 1.362 1_554 S
C478 C481 1.378 . S
C478 H493 0.929 . S
C479 C478 1.362 1_556 S
C479 C480 1.366 . S
C480 C477 1.341 1_556 S
C480 C479 1.366 . S
C480 H494 0.930 . S
C481 C478 1.378 . S
C481 N482 1.315 . S
C481 H484 0.930 . S
N482 Co462 2.194 . S
N482 C477 1.357 . S
N482 C481 1.315 . S
H483 C477 0.926 1_556 S
H484 C481 0.930 . S
H485 C473 0.929 . S
H486 C475 0.929 . S
O487 Co462 2.351 . S
O487 C490 1.244 . S
O488 Co462 2.155 . S
O488 C490 1.240 . S
O489 Co462 2.096 . S
O489 C470 1.247 . S
C490 O487 1.244 . S
C490 O488 1.240 . S
H491 C465 0.931 . S
H492 C474 0.931 . S
H493 C478 0.929 . S
H494 C480 0.930 . S
Co495 N499 2.148 . S
Co495 N505 2.128 . S
Co495 N515 2.194 . S
Co495 O520 2.351 . S
Co495 O521 2.155 . S
Co495 O522 2.096 . S
C496 N499 1.301 . S
C496 N500 1.328 . S
C496 H501 0.930 . S
C497 C498 1.333 . S
C497 N499 1.317 . S
C497 H502 0.930 . S
C498 C497 1.333 . S
C498 N500 1.350 . S
C498 H524 0.931 . S
N499 Co495 2.148 . S
N499 C496 1.301 . S
N499 C497 1.317 . S
N500 C496 1.328 . S
N500 C498 1.350 . S
H501 C496 0.930 . S
H502 C497 0.930 . S
C503 O504 1.224 . S
C503 O522 1.247 . S
O504 C503 1.224 . S
N505 Co495 2.128 . S
N505 C506 1.355 . S
N505 C508 1.311 . S
C506 N505 1.355 . S
C506 C507 1.363 . S
C506 H518 0.929 . S
C507 C506 1.363 . S
C507 N509 1.375 . S
C507 H525 0.931 . S
C508 N505 1.311 . S
C508 N509 1.347 . S
C508 H519 0.929 . S
N509 C507 1.375 . S
N509 C508 1.347 . S
C510 C513 1.365 . S
C510 N515 1.328 . S
C510 H516 0.929 . S
C511 C512 1.362 . S
C511 C514 1.378 . S
C511 H526 0.929 . S
C512 C511 1.362 . S
C512 C513 1.366 . S
C513 C510 1.365 . S
C513 C512 1.366 . S
C513 H527 0.930 . S
C514 C511 1.378 . S
C514 N515 1.315 . S
C514 H517 0.930 . S
N515 Co495 2.194 . S
N515 C510 1.328 . S
N515 C514 1.315 . S
H516 C510 0.929 . S
H517 C514 0.930 . S
H518 C506 0.929 . S
H519 C508 0.929 . S
O520 Co495 2.351 . S
O520 C523 1.244 . S
O521 Co495 2.155 . S
O521 C523 1.240 . S
O522 Co495 2.096 . S
O522 C503 1.247 . S
C523 O520 1.244 . S
C523 O521 1.240 . S
H524 C498 0.931 . S
H525 C507 0.931 . S
H526 C511 0.929 . S
H527 C513 0.930 . S
C528 C529 1.349 . S
C528 C530 1.327 . S
C528 H553 0.950 . S
C529 C528 1.349 . S
C529 C545 1.349 . S
C530 C528 1.327 . S
C530 C549 1.429 . S
C530 H554 0.950 . S
C531 C548 1.574 . S
C531 C550 1.368 . S
C531 H555 0.949 . S
H532 C536 0.949 . S
C533 C534 1.349 . S
C533 C535 1.327 . S
C533 H556 0.950 . S
C534 C533 1.349 . S
C534 C546 1.349 . S
C535 C533 1.327 . S
C535 C551 1.429 . S
C535 H557 0.950 . S
C536 H532 0.949 . S
C536 C544 1.574 . S
C536 C552 1.368 . S
H537 C545 0.950 . S
H538 C543 0.950 . S
H539 C544 0.949 . S
H540 C546 0.950 . S
H541 C547 0.950 . S
H542 C548 0.949 . S
C543 H538 0.950 . S
C543 C545 1.327 . S
C543 C549 1.429 . S
C544 C536 1.574 . S
C544 H539 0.949 . S
C544 C550 1.368 . S
C545 C529 1.349 . S
C545 H537 0.950 . S
C545 C543 1.327 . S
C546 C534 1.349 . S
C546 H540 0.950 . S
C546 C547 1.327 . S
C547 H541 0.950 . S
C547 C546 1.327 . S
C547 C551 1.429 . S
C548 C531 1.574 . S
C548 H542 0.949 . S
C548 C552 1.368 . S
C549 C530 1.429 . S
C549 C543 1.429 . S
C549 C550 1.523 . S
C550 C531 1.368 . S
C550 C544 1.368 . S
C550 C549 1.523 . S
C551 C535 1.429 . S
C551 C547 1.429 . S
C551 C552 1.523 . S
C552 C536 1.368 . S
C552 C548 1.368 . S
C552 C551 1.523 . S
H553 C528 0.950 . S
H554 C530 0.950 . S
H555 C531 0.949 . S
H556 C533 0.950 . S
H557 C535 0.950 . S
C558 C559 1.349 . S
C558 C560 1.327 . S
C558 H583 0.950 . S
C559 C558 1.349 . S
C559 C575 1.349 . S
C560 C558 1.327 . S
C560 C579 1.429 . S
C560 H584 0.950 . S
C561 C578 1.574 . S
C561 C580 1.368 . S
C561 H585 0.949 . S
H562 C566 0.949 . S
C563 C564 1.349 . S
C563 C565 1.327 . S
C563 H586 0.950 . S
C564 C563 1.349 . S
C564 C576 1.349 . S
C565 C563 1.327 . S
C565 C581 1.429 . S
C565 H587 0.950 . S
C566 H562 0.949 . S
C566 C574 1.574 . S
C566 C582 1.368 . S
H567 C575 0.950 . S
H568 C573 0.950 . S
H569 C574 0.949 . S
H570 C576 0.950 . S
H571 C577 0.950 . S
H572 C578 0.949 . S
C573 H568 0.950 . S
C573 C575 1.327 . S
C573 C579 1.429 . S
C574 C566 1.574 . S
C574 H569 0.949 . S
C574 C580 1.368 . S
C575 C559 1.349 . S
C575 H567 0.950 . S
C575 C573 1.327 . S
C576 C564 1.349 . S
C576 H570 0.950 . S
C576 C577 1.327 . S
C577 H571 0.950 . S
C577 C576 1.327 . S
C577 C581 1.429 . S
C578 C561 1.574 . S
C578 H572 0.949 . S
C578 C582 1.368 . S
C579 C560 1.429 . S
C579 C573 1.429 . S
C579 C580 1.523 . S
C580 C561 1.368 . S
C580 C574 1.368 . S
C580 C579 1.523 . S
C581 C565 1.429 . S
C581 C577 1.429 . S
C581 C582 1.523 . S
C582 C566 1.368 . S
C582 C578 1.368 . S
C582 C581 1.523 . S
H583 C558 0.950 . S
H584 C560 0.950 . S
H585 C561 0.949 . S
H586 C563 0.950 . S
H587 C565 0.950 . S
C588 C589 1.349 . S
C588 C590 1.327 . S
C588 H613 0.950 . S
C589 C588 1.349 . S
C589 C605 1.349 . S
C590 C588 1.327 . S
C590 C609 1.429 . S
C590 H614 0.950 . S
C591 C608 1.574 . S
C591 C610 1.368 . S
C591 H615 0.949 . S
H592 C596 0.949 . S
C593 C594 1.349 . S
C593 C595 1.327 . S
C593 H616 0.950 . S
C594 C593 1.349 . S
C594 C606 1.349 . S
C595 C593 1.327 . S
C595 C611 1.429 . S
C595 H617 0.950 . S
C596 H592 0.949 . S
C596 C604 1.574 . S
C596 C612 1.368 . S
H597 C605 0.950 . S
H598 C603 0.950 . S
H599 C604 0.949 . S
H600 C606 0.950 . S
H601 C607 0.950 . S
H602 C608 0.949 . S
C603 H598 0.950 . S
C603 C605 1.327 . S
C603 C609 1.429 . S
C604 C596 1.574 . S
C604 H599 0.949 . S
C604 C610 1.368 . S
C605 C589 1.349 . S
C605 H597 0.950 . S
C605 C603 1.327 . S
C606 C594 1.349 . S
C606 H600 0.950 . S
C606 C607 1.327 . S
C607 H601 0.950 . S
C607 C606 1.327 . S
C607 C611 1.429 . S
C608 C591 1.574 . S
C608 H602 0.949 . S
C608 C612 1.368 . S
C609 C590 1.429 . S
C609 C603 1.429 . S
C609 C610 1.523 . S
C610 C591 1.368 . S
C610 C604 1.368 . S
C610 C609 1.523 . S
C611 C595 1.429 . S
C611 C607 1.429 . S
C611 C612 1.523 . S
C612 C596 1.368 . S
C612 C608 1.368 . S
C612 C611 1.523 . S
H613 C588 0.950 . S
H614 C590 0.950 . S
H615 C591 0.949 . S
H616 C593 0.950 . S
H617 C595 0.950 . S
C618 C619 1.349 . S
C618 C620 1.327 . S
C618 H643 0.950 . S
C619 C618 1.349 . S
C619 C635 1.349 . S
C620 C618 1.327 . S
C620 C639 1.429 . S
C620 H644 0.950 . S
C621 C638 1.574 . S
C621 C640 1.368 . S
C621 H645 0.949 . S
H622 C626 0.949 . S
C623 C624 1.349 . S
C623 C625 1.327 . S
C623 H646 0.950 . S
C624 C623 1.349 . S
C624 C636 1.349 . S
C625 C623 1.327 . S
C625 C641 1.429 . S
C625 H647 0.950 . S
C626 H622 0.949 . S
C626 C634 1.574 . S
C626 C642 1.368 . S
H627 C635 0.950 . S
H628 C633 0.950 . S
H629 C634 0.949 . S
H630 C636 0.950 . S
H631 C637 0.950 . S
H632 C638 0.949 . S
C633 H628 0.950 . S
C633 C635 1.327 . S
C633 C639 1.429 . S
C634 C626 1.574 . S
C634 H629 0.949 . S
C634 C640 1.368 . S
C635 C619 1.349 . S
C635 H627 0.950 . S
C635 C633 1.327 . S
C636 C624 1.349 . S
C636 H630 0.950 . S
C636 C637 1.327 . S
C637 H631 0.950 . S
C637 C636 1.327 . S
C637 C641 1.429 . S
C638 C621 1.574 . S
C638 H632 0.949 . S
C638 C642 1.368 . S
C639 C620 1.429 . S
C639 C633 1.429 . S
C639 C640 1.523 . S
C640 C621 1.368 . S
C640 C634 1.368 . S
C640 C639 1.523 . S
C641 C625 1.429 . S
C641 C637 1.429 . S
C641 C642 1.523 . S
C642 C626 1.368 . S
C642 C638 1.368 . S
C642 C641 1.523 . S
H643 C618 0.950 . S
H644 C620 0.950 . S
H645 C621 0.949 . S
H646 C623 0.950 . S
H647 C625 0.950 . S
C648 C649 1.349 . S
C648 C650 1.327 . S
C648 H673 0.950 . S
C649 C648 1.349 . S
C649 C665 1.349 . S
C650 C648 1.327 . S
C650 C669 1.429 . S
C650 H674 0.950 . S
C651 C668 1.574 . S
C651 C670 1.368 . S
C651 H675 0.949 . S
H652 C656 0.949 . S
C653 C654 1.349 . S
C653 C655 1.327 . S
C653 H676 0.950 . S
C654 C653 1.349 . S
C654 C666 1.349 . S
C655 C653 1.327 . S
C655 C671 1.429 . S
C655 H677 0.950 . S
C656 H652 0.949 . S
C656 C664 1.574 . S
C656 C672 1.368 . S
H657 C665 0.950 . S
H658 C663 0.950 . S
H659 C664 0.949 . S
H660 C666 0.950 . S
H661 C667 0.950 . S
H662 C668 0.949 . S
C663 H658 0.950 . S
C663 C665 1.327 . S
C663 C669 1.429 . S
C664 C656 1.574 . S
C664 H659 0.949 . S
C664 C670 1.368 . S
C665 C649 1.349 . S
C665 H657 0.950 . S
C665 C663 1.327 . S
C666 C654 1.349 . S
C666 H660 0.950 . S
C666 C667 1.327 . S
C667 H661 0.950 . S
C667 C666 1.327 . S
C667 C671 1.429 . S
C668 C651 1.574 . S
C668 H662 0.949 . S
C668 C672 1.368 . S
C669 C650 1.429 . S
C669 C663 1.429 . S
C669 C670 1.523 . S
C670 C651 1.368 . S
C670 C664 1.368 . S
C670 C669 1.523 . S
C671 C655 1.429 . S
C671 C667 1.429 . S
C671 C672 1.523 . S
C672 C656 1.368 . S
C672 C668 1.368 . S
C672 C671 1.523 . S
H673 C648 0.950 . S
H674 C650 0.950 . S
H675 C651 0.949 . S
H676 C653 0.950 . S
H677 C655 0.950 . S
C678 C679 1.349 . S
C678 C680 1.327 . S
C678 H703 0.950 . S
C679 C678 1.349 . S
C679 C695 1.349 . S
C680 C678 1.327 . S
C680 C699 1.429 . S
C680 H704 0.950 . S
C681 C698 1.574 . S
C681 C700 1.368 . S
C681 H705 0.949 . S
H682 C686 0.949 . S
C683 C684 1.349 . S
C683 C685 1.327 . S
C683 H706 0.950 . S
C684 C683 1.349 . S
C684 C696 1.349 . S
C685 C683 1.327 . S
C685 C701 1.429 . S
C685 H707 0.950 . S
C686 H682 0.949 . S
C686 C694 1.574 . S
C686 C702 1.368 . S
H687 C695 0.950 . S
H688 C693 0.950 . S
H689 C694 0.949 . S
H690 C696 0.950 . S
H691 C697 0.950 . S
H692 C698 0.949 . S
C693 H688 0.950 . S
C693 C695 1.327 . S
C693 C699 1.429 . S
C694 C686 1.574 . S
C694 H689 0.949 . S
C694 C700 1.368 . S
C695 C679 1.349 . S
C695 H687 0.950 . S
C695 C693 1.327 . S
C696 C684 1.349 . S
C696 H690 0.950 . S
C696 C697 1.327 . S
C697 H691 0.950 . S
C697 C696 1.327 . S
C697 C701 1.429 . S
C698 C681 1.574 . S
C698 H692 0.949 . S
C698 C702 1.368 . S
C699 C680 1.429 . S
C699 C693 1.429 . S
C699 C700 1.523 . S
C700 C681 1.368 . S
C700 C694 1.368 . S
C700 C699 1.523 . S
C701 C685 1.429 . S
C701 C697 1.429 . S
C701 C702 1.523 . S
C702 C686 1.368 . S
C702 C698 1.368 . S
C702 C701 1.523 . S
H703 C678 0.950 . S
H704 C680 0.950 . S
H705 C681 0.949 . S
H706 C683 0.950 . S
H707 C685 0.950 . S
C708 C709 1.349 . S
C708 C710 1.327 . S
C708 H733 0.950 . S
C709 C708 1.349 . S
C709 C725 1.349 . S
C710 C708 1.327 . S
C710 C729 1.429 . S
C710 H734 0.950 . S
C711 C728 1.574 . S
C711 C730 1.368 . S
C711 H735 0.949 . S
H712 C716 0.949 . S
C713 C714 1.349 . S
C713 C715 1.327 . S
C713 H736 0.950 . S
C714 C713 1.349 . S
C714 C726 1.349 . S
C715 C713 1.327 . S
C715 C731 1.429 . S
C715 H737 0.950 . S
C716 H712 0.949 . S
C716 C724 1.574 . S
C716 C732 1.368 . S
H717 C725 0.950 . S
H718 C723 0.950 . S
H719 C724 0.949 . S
H720 C726 0.950 . S
H721 C727 0.950 . S
H722 C728 0.949 . S
C723 H718 0.950 . S
C723 C725 1.327 . S
C723 C729 1.429 . S
C724 C716 1.574 . S
C724 H719 0.949 . S
C724 C730 1.368 . S
C725 C709 1.349 . S
C725 H717 0.950 . S
C725 C723 1.327 . S
C726 C714 1.349 . S
C726 H720 0.950 . S
C726 C727 1.327 . S
C727 H721 0.950 . S
C727 C726 1.327 . S
C727 C731 1.429 . S
C728 C711 1.574 . S
C728 H722 0.949 . S
C728 C732 1.368 . S
C729 C710 1.429 . S
C729 C723 1.429 . S
C729 C730 1.523 . S
C730 C711 1.368 . S
C730 C724 1.368 . S
C730 C729 1.523 . S
C731 C715 1.429 . S
C731 C727 1.429 . S
C731 C732 1.523 . S
C732 C716 1.368 . S
C732 C728 1.368 . S
C732 C731 1.523 . S
H733 C708 0.950 . S
H734 C710 0.950 . S
H735 C711 0.949 . S
H736 C713 0.950 . S
H737 C715 0.950 . S
C738 C739 1.349 . S
C738 C740 1.327 . S
C738 H763 0.950 . S
C739 C738 1.349 . S
C739 C755 1.349 . S
C740 C738 1.327 . S
C740 C759 1.429 . S
C740 H764 0.950 . S
C741 C758 1.574 . S
C741 C760 1.368 . S
C741 H765 0.949 . S
H742 C746 0.949 . S
C743 C744 1.349 . S
C743 C745 1.327 . S
C743 H766 0.950 . S
C744 C743 1.349 . S
C744 C756 1.349 . S
C745 C743 1.327 . S
C745 C761 1.429 . S
C745 H767 0.950 . S
C746 H742 0.949 . S
C746 C754 1.574 . S
C746 C762 1.368 . S
H747 C755 0.950 . S
H748 C753 0.950 . S
H749 C754 0.949 . S
H750 C756 0.950 . S
H751 C757 0.950 . S
H752 C758 0.949 . S
C753 H748 0.950 . S
C753 C755 1.327 . S
C753 C759 1.429 . S
C754 C746 1.574 . S
C754 H749 0.949 . S
C754 C760 1.368 . S
C755 C739 1.349 . S
C755 H747 0.950 . S
C755 C753 1.327 . S
C756 C744 1.349 . S
C756 H750 0.950 . S
C756 C757 1.327 . S
C757 H751 0.950 . S
C757 C756 1.327 . S
C757 C761 1.429 . S
C758 C741 1.574 . S
C758 H752 0.949 . S
C758 C762 1.368 . S
C759 C740 1.429 . S
C759 C753 1.429 . S
C759 C760 1.523 . S
C760 C741 1.368 . S
C760 C754 1.368 . S
C760 C759 1.523 . S
C761 C745 1.429 . S
C761 C757 1.429 . S
C761 C762 1.523 . S
C762 C746 1.368 . S
C762 C758 1.368 . S
C762 C761 1.523 . S
H763 C738 0.950 . S
H764 C740 0.950 . S
H765 C741 0.949 . S
H766 C743 0.950 . S
H767 C745 0.950 . S
C768 C769 1.349 . S
C768 C770 1.327 . S
C768 H793 0.950 . S
C769 C768 1.349 . S
C769 C785 1.349 . S
C770 C768 1.327 . S
C770 C789 1.429 . S
C770 H794 0.950 . S
C771 C788 1.574 1_655 S
C771 C790 1.368 . S
C771 H795 0.949 . S
H772 C776 0.949 . S
C773 C774 1.349 . S
C773 C775 1.327 . S
C773 H796 0.950 . S
C774 C773 1.349 . S
C774 C786 1.349 . S
C775 C773 1.327 . S
C775 C791 1.429 . S
C775 H797 0.950 . S
C776 H772 0.949 . S
C776 C784 1.574 1_455 S
C776 C792 1.368 . S
H777 C785 0.950 . S
H778 C783 0.950 . S
H779 C784 0.949 . S
H780 C786 0.950 . S
H781 C787 0.950 . S
H782 C788 0.949 . S
C783 H778 0.950 . S
C783 C785 1.327 . S
C783 C789 1.429 . S
C784 C776 1.574 1_655 S
C784 H779 0.949 . S
C784 C790 1.368 . S
C785 C769 1.349 . S
C785 H777 0.950 . S
C785 C783 1.327 . S
C786 C774 1.349 . S
C786 H780 0.950 . S
C786 C787 1.327 . S
C787 H781 0.950 . S
C787 C786 1.327 . S
C787 C791 1.429 . S
C788 C771 1.574 1_455 S
C788 H782 0.949 . S
C788 C792 1.368 . S
C789 C770 1.429 . S
C789 C783 1.429 . S
C789 C790 1.523 . S
C790 C771 1.368 . S
C790 C784 1.368 . S
C790 C789 1.523 . S
C791 C775 1.429 . S
C791 C787 1.429 . S
C791 C792 1.523 . S
C792 C776 1.368 . S
C792 C788 1.368 . S
C792 C791 1.523 . S
H793 C768 0.950 . S
H794 C770 0.950 . S
H795 C771 0.949 . S
H796 C773 0.950 . S
H797 C775 0.950 . S
C798 C799 1.349 . S
C798 C800 1.327 . S
C798 H823 0.950 . S
C799 C798 1.349 . S
C799 C815 1.349 . S
C800 C798 1.327 . S
C800 C819 1.429 . S
C800 H824 0.950 . S
C801 C818 1.574 . S
C801 C820 1.368 . S
C801 H825 0.949 . S
H802 C806 0.949 . S
C803 C804 1.349 . S
C803 C805 1.327 . S
C803 H826 0.950 . S
C804 C803 1.349 . S
C804 C816 1.349 . S
C805 C803 1.327 . S
C805 C821 1.429 . S
C805 H827 0.950 . S
C806 H802 0.949 . S
C806 C814 1.574 . S
C806 C822 1.368 . S
H807 C815 0.950 . S
H808 C813 0.950 . S
H809 C814 0.949 . S
H810 C816 0.950 . S
H811 C817 0.950 . S
H812 C818 0.949 . S
C813 H808 0.950 . S
C813 C815 1.327 . S
C813 C819 1.429 . S
C814 C806 1.574 . S
C814 H809 0.949 . S
C814 C820 1.368 . S
C815 C799 1.349 . S
C815 H807 0.950 . S
C815 C813 1.327 . S
C816 C804 1.349 . S
C816 H810 0.950 . S
C816 C817 1.327 . S
C817 H811 0.950 . S
C817 C816 1.327 . S
C817 C821 1.429 . S
C818 C801 1.574 . S
C818 H812 0.949 . S
C818 C822 1.368 . S
C819 C800 1.429 . S
C819 C813 1.429 . S
C819 C820 1.523 . S
C820 C801 1.368 . S
C820 C814 1.368 . S
C820 C819 1.523 . S
C821 C805 1.429 . S
C821 C817 1.429 . S
C821 C822 1.523 . S
C822 C806 1.368 . S
C822 C818 1.368 . S
C822 C821 1.523 . S
H823 C798 0.950 . S
H824 C800 0.950 . S
H825 C801 0.949 . S
H826 C803 0.950 . S
H827 C805 0.950 . S
C828 C829 1.349 . S
C828 C830 1.327 . S
C828 H853 0.950 . S
C829 C828 1.349 . S
C829 C845 1.349 . S
C830 C828 1.327 . S
C830 C849 1.429 . S
C830 H854 0.950 . S
C831 C848 1.574 1_655 S
C831 C850 1.368 . S
C831 H855 0.949 . S
H832 C836 0.949 . S
C833 C834 1.349 . S
C833 C835 1.327 . S
C833 H856 0.950 . S
C834 C833 1.349 . S
C834 C846 1.349 . S
C835 C833 1.327 . S
C835 C851 1.429 . S
C835 H857 0.950 . S
C836 H832 0.949 . S
C836 C844 1.574 1_455 S
C836 C852 1.368 . S
H837 C845 0.950 . S
H838 C843 0.950 . S
H839 C844 0.949 . S
H840 C846 0.950 . S
H841 C847 0.950 . S
H842 C848 0.949 . S
C843 H838 0.950 . S
C843 C845 1.327 . S
C843 C849 1.429 . S
C844 C836 1.574 1_655 S
C844 H839 0.949 . S
C844 C850 1.368 . S
C845 C829 1.349 . S
C845 H837 0.950 . S
C845 C843 1.327 . S
C846 C834 1.349 . S
C846 H840 0.950 . S
C846 C847 1.327 . S
C847 H841 0.950 . S
C847 C846 1.327 . S
C847 C851 1.429 . S
C848 C831 1.574 1_455 S
C848 H842 0.949 . S
C848 C852 1.368 . S
C849 C830 1.429 . S
C849 C843 1.429 . S
C849 C850 1.523 . S
C850 C831 1.368 . S
C850 C844 1.368 . S
C850 C849 1.523 . S
C851 C835 1.429 . S
C851 C847 1.429 . S
C851 C852 1.523 . S
C852 C836 1.368 . S
C852 C848 1.368 . S
C852 C851 1.523 . S
H853 C828 0.950 . S
H854 C830 0.950 . S
H855 C831 0.949 . S
H856 C833 0.950 . S
H857 C835 0.950 . S
C858 C859 1.349 . S
C858 C860 1.327 . S
C858 H883 0.950 . S
C859 C858 1.349 . S
C859 C875 1.349 . S
C860 C858 1.327 . S
C860 C879 1.429 . S
C860 H884 0.950 . S
C861 C878 1.574 . S
C861 C880 1.368 . S
C861 H885 0.949 . S
H862 C866 0.949 . S
C863 C864 1.349 . S
C863 C865 1.327 . S
C863 H886 0.950 . S
C864 C863 1.349 . S
C864 C876 1.349 . S
C865 C863 1.327 . S
C865 C881 1.429 . S
C865 H887 0.950 . S
C866 H862 0.949 . S
C866 C874 1.574 . S
C866 C882 1.368 . S
H867 C875 0.950 . S
H868 C873 0.950 . S
H869 C874 0.949 . S
H870 C876 0.950 . S
H871 C877 0.950 . S
H872 C878 0.949 . S
C873 H868 0.950 . S
C873 C875 1.327 . S
C873 C879 1.429 . S
C874 C866 1.574 . S
C874 H869 0.949 . S
C874 C880 1.368 . S
C875 C859 1.349 . S
C875 H867 0.950 . S
C875 C873 1.327 . S
C876 C864 1.349 . S
C876 H870 0.950 . S
C876 C877 1.327 . S
C877 H871 0.950 . S
C877 C876 1.327 . S
C877 C881 1.429 . S
C878 C861 1.574 . S
C878 H872 0.949 . S
C878 C882 1.368 . S
C879 C860 1.429 . S
C879 C873 1.429 . S
C879 C880 1.523 . S
C880 C861 1.368 . S
C880 C874 1.368 . S
C880 C879 1.523 . S
C881 C865 1.429 . S
C881 C877 1.429 . S
C881 C882 1.523 . S
C882 C866 1.368 . S
C882 C878 1.368 . S
C882 C881 1.523 . S
H883 C858 0.950 . S
H884 C860 0.950 . S
H885 C861 0.949 . S
H886 C863 0.950 . S
H887 C865 0.950 . S
C888 C889 1.349 . S
C888 C890 1.327 . S
C888 H913 0.950 . S
C889 C888 1.349 . S
C889 C905 1.349 . S
C890 C888 1.327 . S
C890 C909 1.429 . S
C890 H914 0.950 . S
C891 C908 1.574 . S
C891 C910 1.368 . S
C891 H915 0.949 . S
H892 C896 0.949 . S
C893 C894 1.349 . S
C893 C895 1.327 . S
C893 H916 0.950 . S
C894 C893 1.349 . S
C894 C906 1.349 . S
C895 C893 1.327 . S
C895 C911 1.429 . S
C895 H917 0.950 . S
C896 H892 0.949 . S
C896 C904 1.574 . S
C896 C912 1.368 . S
H897 C905 0.950 . S
H898 C903 0.950 . S
H899 C904 0.949 . S
H900 C906 0.950 . S
H901 C907 0.950 . S
H902 C908 0.949 . S
C903 H898 0.950 . S
C903 C905 1.327 . S
C903 C909 1.429 . S
C904 C896 1.574 . S
C904 H899 0.949 . S
C904 C910 1.368 . S
C905 C889 1.349 . S
C905 H897 0.950 . S
C905 C903 1.327 . S
C906 C894 1.349 . S
C906 H900 0.950 . S
C906 C907 1.327 . S
C907 H901 0.950 . S
C907 C906 1.327 . S
C907 C911 1.429 . S
C908 C891 1.574 . S
C908 H902 0.949 . S
C908 C912 1.368 . S
C909 C890 1.429 . S
C909 C903 1.429 . S
C909 C910 1.523 . S
C910 C891 1.368 . S
C910 C904 1.368 . S
C910 C909 1.523 . S
C911 C895 1.429 . S
C911 C907 1.429 . S
C911 C912 1.523 . S
C912 C896 1.368 . S
C912 C908 1.368 . S
C912 C911 1.523 . S
H913 C888 0.950 . S
H914 C890 0.950 . S
H915 C891 0.949 . S
H916 C893 0.950 . S
H917 C895 0.950 . S
C918 C919 1.349 . S
C918 C920 1.327 . S
C918 H943 0.950 . S
C919 C918 1.349 . S
C919 C935 1.349 . S
C920 C918 1.327 . S
C920 C939 1.429 . S
C920 H944 0.950 . S
C921 C938 1.574 1_455 S
C921 C940 1.368 . S
C921 H945 0.949 . S
H922 C926 0.949 . S
C923 C924 1.349 . S
C923 C925 1.327 . S
C923 H946 0.950 . S
C924 C923 1.349 . S
C924 C936 1.349 . S
C925 C923 1.327 . S
C925 C941 1.429 . S
C925 H947 0.950 . S
C926 H922 0.949 . S
C926 C934 1.574 1_655 S
C926 C942 1.368 . S
H927 C935 0.950 . S
H928 C933 0.950 . S
H929 C934 0.949 . S
H930 C936 0.950 . S
H931 C937 0.950 . S
H932 C938 0.949 . S
C933 H928 0.950 . S
C933 C935 1.327 . S
C933 C939 1.429 . S
C934 C926 1.574 1_455 S
C934 H929 0.949 . S
C934 C940 1.368 . S
C935 C919 1.349 . S
C935 H927 0.950 . S
C935 C933 1.327 . S
C936 C924 1.349 . S
C936 H930 0.950 . S
C936 C937 1.327 . S
C937 H931 0.950 . S
C937 C936 1.327 . S
C937 C941 1.429 . S
C938 C921 1.574 1_655 S
C938 H932 0.949 . S
C938 C942 1.368 . S
C939 C920 1.429 . S
C939 C933 1.429 . S
C939 C940 1.523 . S
C940 C921 1.368 . S
C940 C934 1.368 . S
C940 C939 1.523 . S
C941 C925 1.429 . S
C941 C937 1.429 . S
C941 C942 1.523 . S
C942 C926 1.368 . S
C942 C938 1.368 . S
C942 C941 1.523 . S
H943 C918 0.950 . S
H944 C920 0.950 . S
H945 C921 0.949 . S
H946 C923 0.950 . S
H947 C925 0.950 . S
C948 C949 1.349 . S
C948 C950 1.327 . S
C948 H973 0.950 . S
C949 C948 1.349 . S
C949 C965 1.349 . S
C950 C948 1.327 . S
C950 C969 1.429 . S
C950 H974 0.950 . S
C951 C968 1.574 . S
C951 C970 1.368 . S
C951 H975 0.949 . S
H952 C956 0.949 . S
C953 C954 1.349 . S
C953 C955 1.327 . S
C953 H976 0.950 . S
C954 C953 1.349 . S
C954 C966 1.349 . S
C955 C953 1.327 . S
C955 C971 1.429 . S
C955 H977 0.950 . S
C956 H952 0.949 . S
C956 C964 1.574 . S
C956 C972 1.368 . S
H957 C965 0.950 . S
H958 C963 0.950 . S
H959 C964 0.949 . S
H960 C966 0.950 . S
H961 C967 0.950 . S
H962 C968 0.949 . S
C963 H958 0.950 . S
C963 C965 1.327 . S
C963 C969 1.429 . S
C964 C956 1.574 . S
C964 H959 0.949 . S
C964 C970 1.368 . S
C965 C949 1.349 . S
C965 H957 0.950 . S
C965 C963 1.327 . S
C966 C954 1.349 . S
C966 H960 0.950 . S
C966 C967 1.327 . S
C967 H961 0.950 . S
C967 C966 1.327 . S
C967 C971 1.429 . S
C968 C951 1.574 . S
C968 H962 0.949 . S
C968 C972 1.368 . S
C969 C950 1.429 . S
C969 C963 1.429 . S
C969 C970 1.523 . S
C970 C951 1.368 . S
C970 C964 1.368 . S
C970 C969 1.523 . S
C971 C955 1.429 . S
C971 C967 1.429 . S
C971 C972 1.523 . S
C972 C956 1.368 . S
C972 C968 1.368 . S
C972 C971 1.523 . S
H973 C948 0.950 . S
H974 C950 0.950 . S
H975 C951 0.949 . S
H976 C953 0.950 . S
H977 C955 0.950 . S
C978 C979 1.349 . S
C978 C980 1.327 . S
C978 H1003 0.950 . S
C979 C978 1.349 . S
C979 C995 1.349 . S
C980 C978 1.327 . S
C980 C999 1.429 . S
C980 H1004 0.950 . S
C981 C998 1.574 1_655 S
C981 C1000 1.368 . S
C981 H1005 0.949 . S
H982 C986 0.949 . S
C983 C984 1.349 . S
C983 C985 1.327 . S
C983 H1006 0.950 . S
C984 C983 1.349 . S
C984 C996 1.349 . S
C985 C983 1.327 . S
C985 C1001 1.429 . S
C985 H1007 0.950 . S
C986 H982 0.949 . S
C986 C994 1.574 1_455 S
C986 C1002 1.368 . S
H987 C995 0.950 . S
H988 C993 0.950 . S
H989 C994 0.949 . S
H990 C996 0.950 . S
H991 C997 0.950 . S
H992 C998 0.949 . S
C993 H988 0.950 . S
C993 C995 1.327 . S
C993 C999 1.429 . S
C994 C986 1.574 1_655 S
C994 H989 0.949 . S
C994 C1000 1.368 . S
C995 C979 1.349 . S
C995 H987 0.950 . S
C995 C993 1.327 . S
C996 C984 1.349 . S
C996 H990 0.950 . S
C996 C997 1.327 . S
C997 H991 0.950 . S
C997 C996 1.327 . S
C997 C1001 1.429 . S
C998 C981 1.574 1_455 S
C998 H992 0.949 . S
C998 C1002 1.368 . S
C999 C980 1.429 . S
C999 C993 1.429 . S
C999 C1000 1.523 . S
C1000 C981 1.368 . S
C1000 C994 1.368 . S
C1000 C999 1.523 . S
C1001 C985 1.429 . S
C1001 C997 1.429 . S
C1001 C1002 1.523 . S
C1002 C986 1.368 . S
C1002 C998 1.368 . S
C1002 C1001 1.523 . S
H1003 C978 0.950 . S
H1004 C980 0.950 . S
H1005 C981 0.949 . S
H1006 C983 0.950 . S
H1007 C985 0.950 . S
C1008 C1009 1.349 . S
C1008 C1010 1.327 . S
C1008 H1033 0.950 . S
C1009 C1008 1.349 . S
C1009 C1025 1.349 . S
C1010 C1008 1.327 . S
C1010 C1029 1.429 . S
C1010 H1034 0.950 1_554 S
C1011 C1028 1.574 1_545 S
C1011 C1030 1.368 . S
C1011 H1035 0.949 . S
H1012 C1016 0.949 . S
C1013 C1014 1.349 . S
C1013 C1015 1.327 . S
C1013 H1036 0.950 . S
C1014 C1013 1.349 . S
C1014 C1026 1.349 . S
C1015 C1013 1.327 . S
C1015 C1031 1.429 . S
C1015 H1037 0.950 1_556 S
C1016 H1012 0.949 . S
C1016 C1024 1.574 1_565 S
C1016 C1032 1.368 . S
H1017 C1025 0.950 . S
H1018 C1023 0.950 . S
H1019 C1024 0.949 . S
H1020 C1026 0.950 . S
H1021 C1027 0.950 . S
H1022 C1028 0.949 . S
C1023 H1018 0.950 . S
C1023 C1025 1.327 . S
C1023 C1029 1.429 . S
C1024 C1016 1.574 1_545 S
C1024 H1019 0.949 . S
C1024 C1030 1.368 1_556 S
C1025 C1009 1.349 . S
C1025 H1017 0.950 . S
C1025 C1023 1.327 . S
C1026 C1014 1.349 . S
C1026 H1020 0.950 . S
C1026 C1027 1.327 . S
C1027 H1021 0.950 . S
C1027 C1026 1.327 . S
C1027 C1031 1.429 . S
C1028 C1011 1.574 1_565 S
C1028 H1022 0.949 . S
C1028 C1032 1.368 1_554 S
C1029 C1010 1.429 . S
C1029 C1023 1.429 . S
C1029 C1030 1.523 . S
C1030 C1011 1.368 . S
C1030 C1024 1.368 1_554 S
C1030 C1029 1.523 . S
C1031 C1015 1.429 . S
C1031 C1027 1.429 . S
C1031 C1032 1.523 . S
C1032 C1016 1.368 . S
C1032 C1028 1.368 1_556 S
C1032 C1031 1.523 . S
H1033 C1008 0.950 . S
H1034 C1010 0.950 1_556 S
H1035 C1011 0.949 . S
H1036 C1013 0.950 . S
H1037 C1015 0.950 1_554 S
C1038 C1039 1.349 . S
C1038 C1040 1.327 . S
C1038 H1063 0.950 . S
C1039 C1038 1.349 . S
C1039 C1055 1.349 . S
C1040 C1038 1.327 . S
C1040 C1059 1.429 . S
C1040 H1064 0.950 . S
C1041 C1058 1.574 1_565 S
C1041 C1060 1.368 . S
C1041 H1065 0.949 . S
H1042 C1046 0.949 . S
C1043 C1044 1.349 . S
C1043 C1045 1.327 . S
C1043 H1066 0.950 . S
C1044 C1043 1.349 . S
C1044 C1056 1.349 . S
C1045 C1043 1.327 . S
C1045 C1061 1.429 . S
C1045 H1067 0.950 . S
C1046 H1042 0.949 . S
C1046 C1054 1.574 1_545 S
C1046 C1062 1.368 . S
H1047 C1055 0.950 . S
H1048 C1053 0.950 . S
H1049 C1054 0.949 . S
H1050 C1056 0.950 . S
H1051 C1057 0.950 . S
H1052 C1058 0.949 . S
C1053 H1048 0.950 . S
C1053 C1055 1.327 . S
C1053 C1059 1.429 . S
C1054 C1046 1.574 1_565 S
C1054 H1049 0.949 . S
C1054 C1060 1.368 . S
C1055 C1039 1.349 . S
C1055 H1047 0.950 . S
C1055 C1053 1.327 . S
C1056 C1044 1.349 . S
C1056 H1050 0.950 . S
C1056 C1057 1.327 . S
C1057 H1051 0.950 . S
C1057 C1056 1.327 . S
C1057 C1061 1.429 . S
C1058 C1041 1.574 1_545 S
C1058 H1052 0.949 . S
C1058 C1062 1.368 . S
C1059 C1040 1.429 . S
C1059 C1053 1.429 . S
C1059 C1060 1.523 . S
C1060 C1041 1.368 . S
C1060 C1054 1.368 . S
C1060 C1059 1.523 . S
C1061 C1045 1.429 . S
C1061 C1057 1.429 . S
C1061 C1062 1.523 . S
C1062 C1046 1.368 . S
C1062 C1058 1.368 . S
C1062 C1061 1.523 . S
H1063 C1038 0.950 . S
H1064 C1040 0.950 . S
H1065 C1041 0.949 . S
H1066 C1043 0.950 . S
H1067 C1045 0.950 . S
C1068 C1069 1.349 . S
C1068 C1070 1.327 . S
C1068 H1093 0.950 . S
C1069 C1068 1.349 . S
C1069 C1085 1.349 . S
C1070 C1068 1.327 . S
C1070 C1089 1.429 . S
C1070 H1094 0.950 1_556 S
C1071 C1088 1.574 1_565 S
C1071 C1090 1.368 . S
C1071 H1095 0.949 . S
H1072 C1076 0.949 . S
C1073 C1074 1.349 . S
C1073 C1075 1.327 . S
C1073 H1096 0.950 . S
C1074 C1073 1.349 . S
C1074 C1086 1.349 . S
C1075 C1073 1.327 . S
C1075 C1091 1.429 . S
C1075 H1097 0.950 1_554 S
C1076 H1072 0.949 . S
C1076 C1084 1.574 1_545 S
C1076 C1092 1.368 . S
H1077 C1085 0.950 . S
H1078 C1083 0.950 . S
H1079 C1084 0.949 . S
H1080 C1086 0.950 . S
H1081 C1087 0.950 . S
H1082 C1088 0.949 . S
C1083 H1078 0.950 . S
C1083 C1085 1.327 . S
C1083 C1089 1.429 . S
C1084 C1076 1.574 1_565 S
C1084 H1079 0.949 . S
C1084 C1090 1.368 1_554 S
C1085 C1069 1.349 . S
C1085 H1077 0.950 . S
C1085 C1083 1.327 . S
C1086 C1074 1.349 . S
C1086 H1080 0.950 . S
C1086 C1087 1.327 . S
C1087 H1081 0.950 . S
C1087 C1086 1.327 . S
C1087 C1091 1.429 . S
C1088 C1071 1.574 1_545 S
C1088 H1082 0.949 . S
C1088 C1092 1.368 1_556 S
C1089 C1070 1.429 . S
C1089 C1083 1.429 . S
C1089 C1090 1.523 . S
C1090 C1071 1.368 . S
C1090 C1084 1.368 1_556 S
C1090 C1089 1.523 . S
C1091 C1075 1.429 . S
C1091 C1087 1.429 . S
C1091 C1092 1.523 . S
C1092 C1076 1.368 . S
C1092 C1088 1.368 1_554 S
C1092 C1091 1.523 . S
H1093 C1068 0.950 . S
H1094 C1070 0.950 1_554 S
H1095 C1071 0.949 . S
H1096 C1073 0.950 . S
H1097 C1075 0.950 1_556 S
C1098 C1099 1.349 . S
C1098 C1100 1.327 . S
C1098 H1123 0.950 . S
C1099 C1098 1.349 . S
C1099 C1115 1.349 . S
C1100 C1098 1.327 . S
C1100 C1119 1.429 . S
C1100 H1124 0.950 . S
C1101 C1118 1.574 1_545 S
C1101 C1120 1.368 . S
C1101 H1125 0.949 . S
H1102 C1106 0.949 . S
C1103 C1104 1.349 . S
C1103 C1105 1.327 . S
C1103 H1126 0.950 . S
C1104 C1103 1.349 . S
C1104 C1116 1.349 . S
C1105 C1103 1.327 . S
C1105 C1121 1.429 . S
C1105 H1127 0.950 . S
C1106 H1102 0.949 . S
C1106 C1114 1.574 1_565 S
C1106 C1122 1.368 . S
H1107 C1115 0.950 . S
H1108 C1113 0.950 . S
H1109 C1114 0.949 . S
H1110 C1116 0.950 . S
H1111 C1117 0.950 . S
H1112 C1118 0.949 . S
C1113 H1108 0.950 . S
C1113 C1115 1.327 . S
C1113 C1119 1.429 . S
C1114 C1106 1.574 1_545 S
C1114 H1109 0.949 . S
C1114 C1120 1.368 . S
C1115 C1099 1.349 . S
C1115 H1107 0.950 . S
C1115 C1113 1.327 . S
C1116 C1104 1.349 . S
C1116 H1110 0.950 . S
C1116 C1117 1.327 . S
C1117 H1111 0.950 . S
C1117 C1116 1.327 . S
C1117 C1121 1.429 . S
C1118 C1101 1.574 1_565 S
C1118 H1112 0.949 . S
C1118 C1122 1.368 . S
C1119 C1100 1.429 . S
C1119 C1113 1.429 . S
C1119 C1120 1.523 . S
C1120 C1101 1.368 . S
C1120 C1114 1.368 . S
C1120 C1119 1.523 . S
C1121 C1105 1.429 . S
C1121 C1117 1.429 . S
C1121 C1122 1.523 . S
C1122 C1106 1.368 . S
C1122 C1118 1.368 . S
C1122 C1121 1.523 . S
H1123 C1098 0.950 . S
H1124 C1100 0.950 . S
H1125 C1101 0.949 . S
H1126 C1103 0.950 . S
H1127 C1105 0.950 . S
C1128 C1129 1.349 . S
C1128 C1130 1.327 . S
C1128 H1153 0.950 . S
C1129 C1128 1.349 . S
C1129 C1145 1.349 . S
C1130 C1128 1.327 . S
C1130 C1149 1.429 . S
C1130 H1154 0.950 . S
C1131 C1148 1.574 . S
C1131 C1150 1.368 1_556 S
C1131 H1155 0.949 . S
H1132 C1136 0.949 . S
C1133 C1134 1.349 . S
C1133 C1135 1.327 . S
C1133 H1156 0.950 . S
C1134 C1133 1.349 . S
C1134 C1146 1.349 . S
C1135 C1133 1.327 . S
C1135 C1151 1.429 . S
C1135 H1157 0.950 . S
C1136 H1132 0.949 . S
C1136 C1144 1.574 . S
C1136 C1152 1.368 1_554 S
H1137 C1145 0.950 . S
H1138 C1143 0.950 . S
H1139 C1144 0.949 . S
H1140 C1146 0.950 . S
H1141 C1147 0.950 . S
H1142 C1148 0.949 . S
C1143 H1138 0.950 . S
C1143 C1145 1.327 . S
C1143 C1149 1.429 . S
C1144 C1136 1.574 . S
C1144 H1139 0.949 . S
C1144 C1150 1.368 . S
C1145 C1129 1.349 . S
C1145 H1137 0.950 . S
C1145 C1143 1.327 . S
C1146 C1134 1.349 . S
C1146 H1140 0.950 . S
C1146 C1147 1.327 . S
C1147 H1141 0.950 . S
C1147 C1146 1.327 . S
C1147 C1151 1.429 . S
C1148 C1131 1.574 . S
C1148 H1142 0.949 . S
C1148 C1152 1.368 . S
C1149 C1130 1.429 . S
C1149 C1143 1.429 . S
C1149 C1150 1.523 . S
C1150 C1131 1.368 1_554 S
C1150 C1144 1.368 . S
C1150 C1149 1.523 . S
C1151 C1135 1.429 . S
C1151 C1147 1.429 . S
C1151 C1152 1.523 . S
C1152 C1136 1.368 1_556 S
C1152 C1148 1.368 . S
C1152 C1151 1.523 . S
H1153 C1128 0.950 . S
H1154 C1130 0.950 . S
H1155 C1131 0.949 . S
H1156 C1133 0.950 . S
H1157 C1135 0.950 . S
C1158 C1159 1.349 . S
C1158 C1160 1.327 . S
C1158 H1183 0.950 . S
C1159 C1158 1.349 . S
C1159 C1175 1.349 . S
C1160 C1158 1.327 . S
C1160 C1179 1.429 . S
C1160 H1184 0.950 . S
C1161 C1178 1.574 . S
C1161 C1180 1.368 . S
C1161 H1185 0.949 . S
H1162 C1166 0.949 . S
C1163 C1164 1.349 . S
C1163 C1165 1.327 . S
C1163 H1186 0.950 . S
C1164 C1163 1.349 . S
C1164 C1176 1.349 . S
C1165 C1163 1.327 . S
C1165 C1181 1.429 . S
C1165 H1187 0.950 . S
C1166 H1162 0.949 . S
C1166 C1174 1.574 . S
C1166 C1182 1.368 . S
H1167 C1175 0.950 . S
H1168 C1173 0.950 . S
H1169 C1174 0.949 . S
H1170 C1176 0.950 . S
H1171 C1177 0.950 . S
H1172 C1178 0.949 . S
C1173 H1168 0.950 . S
C1173 C1175 1.327 . S
C1173 C1179 1.429 . S
C1174 C1166 1.574 . S
C1174 H1169 0.949 . S
C1174 C1180 1.368 . S
C1175 C1159 1.349 . S
C1175 H1167 0.950 . S
C1175 C1173 1.327 . S
C1176 C1164 1.349 . S
C1176 H1170 0.950 . S
C1176 C1177 1.327 . S
C1177 H1171 0.950 . S
C1177 C1176 1.327 . S
C1177 C1181 1.429 . S
C1178 C1161 1.574 . S
C1178 H1172 0.949 . S
C1178 C1182 1.368 . S
C1179 C1160 1.429 . S
C1179 C1173 1.429 . S
C1179 C1180 1.523 . S
C1180 C1161 1.368 . S
C1180 C1174 1.368 . S
C1180 C1179 1.523 . S
C1181 C1165 1.429 . S
C1181 C1177 1.429 . S
C1181 C1182 1.523 . S
C1182 C1166 1.368 . S
C1182 C1178 1.368 . S
C1182 C1181 1.523 . S
H1183 C1158 0.950 . S
H1184 C1160 0.950 . S
H1185 C1161 0.949 . S
H1186 C1163 0.950 . S
H1187 C1165 0.950 . S
C1188 C1189 1.349 . S
C1188 C1190 1.327 . S
C1188 H1213 0.950 . S
C1189 C1188 1.349 . S
C1189 C1205 1.349 . S
C1190 C1188 1.327 . S
C1190 C1209 1.429 . S
C1190 H1214 0.950 1_556 S
C1191 C1208 1.574 . S
C1191 C1210 1.368 . S
C1191 H1215 0.949 . S
H1192 C1196 0.949 . S
C1193 C1194 1.349 . S
C1193 C1195 1.327 . S
C1193 H1216 0.950 . S
C1194 C1193 1.349 . S
C1194 C1206 1.349 . S
C1195 C1193 1.327 . S
C1195 C1211 1.429 . S
C1195 H1217 0.950 1_554 S
C1196 H1192 0.949 . S
C1196 C1204 1.574 . S
C1196 C1212 1.368 . S
H1197 C1205 0.950 . S
H1198 C1203 0.950 . S
H1199 C1204 0.949 . S
H1200 C1206 0.950 . S
H1201 C1207 0.950 . S
H1202 C1208 0.949 . S
C1203 H1198 0.950 . S
C1203 C1205 1.327 . S
C1203 C1209 1.429 . S
C1204 C1196 1.574 . S
C1204 H1199 0.949 . S
C1204 C1210 1.368 1_554 S
C1205 C1189 1.349 . S
C1205 H1197 0.950 . S
C1205 C1203 1.327 . S
C1206 C1194 1.349 . S
C1206 H1200 0.950 . S
C1206 C1207 1.327 . S
C1207 H1201 0.950 . S
C1207 C1206 1.327 . S
C1207 C1211 1.429 . S
C1208 C1191 1.574 . S
C1208 H1202 0.949 . S
C1208 C1212 1.368 1_556 S
C1209 C1190 1.429 . S
C1209 C1203 1.429 . S
C1209 C1210 1.523 . S
C1210 C1191 1.368 . S
C1210 C1204 1.368 1_556 S
C1210 C1209 1.523 . S
C1211 C1195 1.429 . S
C1211 C1207 1.429 . S
C1211 C1212 1.523 . S
C1212 C1196 1.368 . S
C1212 C1208 1.368 1_554 S
C1212 C1211 1.523 . S
H1213 C1188 0.950 . S
H1214 C1190 0.950 1_554 S
H1215 C1191 0.949 . S
H1216 C1193 0.950 . S
H1217 C1195 0.950 1_556 S
C1218 C1219 1.349 . S
C1218 C1220 1.327 . S
C1218 H1243 0.950 . S
C1219 C1218 1.349 . S
C1219 C1235 1.349 . S
C1220 C1218 1.327 . S
C1220 C1239 1.429 . S
C1220 H1244 0.950 . S
C1221 C1238 1.574 . S
C1221 C1240 1.368 . S
C1221 H1245 0.949 . S
H1222 C1226 0.949 . S
C1223 C1224 1.349 . S
C1223 C1225 1.327 . S
C1223 H1246 0.950 . S
C1224 C1223 1.349 . S
C1224 C1236 1.349 . S
C1225 C1223 1.327 . S
C1225 C1241 1.429 . S
C1225 H1247 0.950 . S
C1226 H1222 0.949 . S
C1226 C1234 1.574 . S
C1226 C1242 1.368 . S
H1227 C1235 0.950 . S
H1228 C1233 0.950 . S
H1229 C1234 0.949 . S
H1230 C1236 0.950 . S
H1231 C1237 0.950 . S
H1232 C1238 0.949 . S
C1233 H1228 0.950 . S
C1233 C1235 1.327 . S
C1233 C1239 1.429 . S
C1234 C1226 1.574 . S
C1234 H1229 0.949 . S
C1234 C1240 1.368 . S
C1235 C1219 1.349 . S
C1235 H1227 0.950 . S
C1235 C1233 1.327 . S
C1236 C1224 1.349 . S
C1236 H1230 0.950 . S
C1236 C1237 1.327 . S
C1237 H1231 0.950 . S
C1237 C1236 1.327 . S
C1237 C1241 1.429 . S
C1238 C1221 1.574 . S
C1238 H1232 0.949 . S
C1238 C1242 1.368 . S
C1239 C1220 1.429 . S
C1239 C1233 1.429 . S
C1239 C1240 1.523 . S
C1240 C1221 1.368 . S
C1240 C1234 1.368 . S
C1240 C1239 1.523 . S
C1241 C1225 1.429 . S
C1241 C1237 1.429 . S
C1241 C1242 1.523 . S
C1242 C1226 1.368 . S
C1242 C1238 1.368 . S
C1242 C1241 1.523 . S
H1243 C1218 0.950 . S
H1244 C1220 0.950 . S
H1245 C1221 0.949 . S
H1246 C1223 0.950 . S
H1247 C1225 0.950 . S
C1248 C1249 1.349 . S
C1248 C1250 1.327 . S
C1248 H1273 0.950 . S
C1249 C1248 1.349 . S
C1249 C1265 1.349 . S
C1250 C1248 1.327 . S
C1250 C1269 1.429 . S
C1250 H1274 0.950 . S
C1251 C1268 1.574 . S
C1251 C1270 1.368 . S
C1251 H1275 0.949 . S
H1252 C1256 0.949 . S
C1253 C1254 1.349 . S
C1253 C1255 1.327 . S
C1253 H1276 0.950 . S
C1254 C1253 1.349 . S
C1254 C1266 1.349 . S
C1255 C1253 1.327 . S
C1255 C1271 1.429 . S
C1255 H1277 0.950 . S
C1256 H1252 0.949 . S
C1256 C1264 1.574 . S
C1256 C1272 1.368 . S
H1257 C1265 0.950 . S
H1258 C1263 0.950 . S
H1259 C1264 0.949 . S
H1260 C1266 0.950 . S
H1261 C1267 0.950 . S
H1262 C1268 0.949 . S
C1263 H1258 0.950 . S
C1263 C1265 1.327 . S
C1263 C1269 1.429 . S
C1264 C1256 1.574 . S
C1264 H1259 0.949 . S
C1264 C1270 1.368 . S
C1265 C1249 1.349 . S
C1265 H1257 0.950 . S
C1265 C1263 1.327 . S
C1266 C1254 1.349 . S
C1266 H1260 0.950 . S
C1266 C1267 1.327 . S
C1267 H1261 0.950 . S
C1267 C1266 1.327 . S
C1267 C1271 1.429 . S
C1268 C1251 1.574 . S
C1268 H1262 0.949 . S
C1268 C1272 1.368 . S
C1269 C1250 1.429 . S
C1269 C1263 1.429 . S
C1269 C1270 1.523 . S
C1270 C1251 1.368 . S
C1270 C1264 1.368 . S
C1270 C1269 1.523 . S
C1271 C1255 1.429 . S
C1271 C1267 1.429 . S
C1271 C1272 1.523 . S
C1272 C1256 1.368 . S
C1272 C1268 1.368 . S
C1272 C1271 1.523 . S
H1273 C1248 0.950 . S
H1274 C1250 0.950 . S
H1275 C1251 0.949 . S
H1276 C1253 0.950 . S
H1277 C1255 0.950 . S
C1278 C1279 1.349 . S
C1278 C1280 1.327 . S
C1278 H1303 0.950 . S
C1279 C1278 1.349 . S
C1279 C1295 1.349 . S
C1280 C1278 1.327 . S
C1280 C1299 1.429 . S
C1280 H1304 0.950 . S
C1281 C1298 1.574 . S
C1281 C1300 1.368 . S
C1281 H1305 0.949 . S
H1282 C1286 0.949 . S
C1283 C1284 1.349 . S
C1283 C1285 1.327 . S
C1283 H1306 0.950 . S
C1284 C1283 1.349 . S
C1284 C1296 1.349 . S
C1285 C1283 1.327 . S
C1285 C1301 1.429 . S
C1285 H1307 0.950 . S
C1286 H1282 0.949 . S
C1286 C1294 1.574 . S
C1286 C1302 1.368 . S
H1287 C1295 0.950 . S
H1288 C1293 0.950 . S
H1289 C1294 0.949 . S
H1290 C1296 0.950 . S
H1291 C1297 0.950 . S
H1292 C1298 0.949 . S
C1293 H1288 0.950 . S
C1293 C1295 1.327 . S
C1293 C1299 1.429 . S
C1294 C1286 1.574 . S
C1294 H1289 0.949 . S
C1294 C1300 1.368 . S
C1295 C1279 1.349 . S
C1295 H1287 0.950 . S
C1295 C1293 1.327 . S
C1296 C1284 1.349 . S
C1296 H1290 0.950 . S
C1296 C1297 1.327 . S
C1297 H1291 0.950 . S
C1297 C1296 1.327 . S
C1297 C1301 1.429 . S
C1298 C1281 1.574 . S
C1298 H1292 0.949 . S
C1298 C1302 1.368 . S
C1299 C1280 1.429 . S
C1299 C1293 1.429 . S
C1299 C1300 1.523 . S
C1300 C1281 1.368 . S
C1300 C1294 1.368 . S
C1300 C1299 1.523 . S
C1301 C1285 1.429 . S
C1301 C1297 1.429 . S
C1301 C1302 1.523 . S
C1302 C1286 1.368 . S
C1302 C1298 1.368 . S
C1302 C1301 1.523 . S
H1303 C1278 0.950 . S
H1304 C1280 0.950 . S
H1305 C1281 0.949 . S
H1306 C1283 0.950 . S
H1307 C1285 0.950 . S
C1308 C1309 1.349 . S
C1308 C1310 1.327 . S
C1308 H1333 0.950 . S
C1309 C1308 1.349 . S
C1309 C1325 1.349 . S
C1310 C1308 1.327 . S
C1310 C1329 1.429 . S
C1310 H1334 0.950 . S
C1311 C1328 1.574 . S
C1311 C1330 1.368 . S
C1311 H1335 0.949 . S
H1312 C1316 0.949 . S
C1313 C1314 1.349 . S
C1313 C1315 1.327 . S
C1313 H1336 0.950 . S
C1314 C1313 1.349 . S
C1314 C1326 1.349 . S
C1315 C1313 1.327 . S
C1315 C1331 1.429 . S
C1315 H1337 0.950 . S
C1316 H1312 0.949 . S
C1316 C1324 1.574 . S
C1316 C1332 1.368 . S
H1317 C1325 0.950 . S
H1318 C1323 0.950 . S
H1319 C1324 0.949 . S
H1320 C1326 0.950 . S
H1321 C1327 0.950 . S
H1322 C1328 0.949 . S
C1323 H1318 0.950 . S
C1323 C1325 1.327 . S
C1323 C1329 1.429 . S
C1324 C1316 1.574 . S
C1324 H1319 0.949 . S
C1324 C1330 1.368 . S
C1325 C1309 1.349 . S
C1325 H1317 0.950 . S
C1325 C1323 1.327 . S
C1326 C1314 1.349 . S
C1326 H1320 0.950 . S
C1326 C1327 1.327 . S
C1327 H1321 0.950 . S
C1327 C1326 1.327 . S
C1327 C1331 1.429 . S
C1328 C1311 1.574 . S
C1328 H1322 0.949 . S
C1328 C1332 1.368 . S
C1329 C1310 1.429 . S
C1329 C1323 1.429 . S
C1329 C1330 1.523 . S
C1330 C1311 1.368 . S
C1330 C1324 1.368 . S
C1330 C1329 1.523 . S
C1331 C1315 1.429 . S
C1331 C1327 1.429 . S
C1331 C1332 1.523 . S
C1332 C1316 1.368 . S
C1332 C1328 1.368 . S
C1332 C1331 1.523 . S
H1333 C1308 0.950 . S
H1334 C1310 0.950 . S
H1335 C1311 0.949 . S
H1336 C1313 0.950 . S
H1337 C1315 0.950 . S
C1338 C1339 1.349 . S
C1338 C1340 1.327 . S
C1338 H1363 0.950 . S
C1339 C1338 1.349 . S
C1339 C1355 1.349 . S
C1340 C1338 1.327 . S
C1340 C1359 1.429 . S
C1340 H1364 0.950 . S
C1341 C1358 1.574 . S
C1341 C1360 1.368 . S
C1341 H1365 0.949 . S
H1342 C1346 0.949 . S
C1343 C1344 1.349 . S
C1343 C1345 1.327 . S
C1343 H1366 0.950 . S
C1344 C1343 1.349 . S
C1344 C1356 1.349 . S
C1345 C1343 1.327 . S
C1345 C1361 1.429 . S
C1345 H1367 0.950 . S
C1346 H1342 0.949 . S
C1346 C1354 1.574 . S
C1346 C1362 1.368 . S
H1347 C1355 0.950 . S
H1348 C1353 0.950 . S
H1349 C1354 0.949 . S
H1350 C1356 0.950 . S
H1351 C1357 0.950 . S
H1352 C1358 0.949 . S
C1353 H1348 0.950 . S
C1353 C1355 1.327 . S
C1353 C1359 1.429 . S
C1354 C1346 1.574 . S
C1354 H1349 0.949 . S
C1354 C1360 1.368 . S
C1355 C1339 1.349 . S
C1355 H1347 0.950 . S
C1355 C1353 1.327 . S
C1356 C1344 1.349 . S
C1356 H1350 0.950 . S
C1356 C1357 1.327 . S
C1357 H1351 0.950 . S
C1357 C1356 1.327 . S
C1357 C1361 1.429 . S
C1358 C1341 1.574 . S
C1358 H1352 0.949 . S
C1358 C1362 1.368 . S
C1359 C1340 1.429 . S
C1359 C1353 1.429 . S
C1359 C1360 1.523 . S
C1360 C1341 1.368 . S
C1360 C1354 1.368 . S
C1360 C1359 1.523 . S
C1361 C1345 1.429 . S
C1361 C1357 1.429 . S
C1361 C1362 1.523 . S
C1362 C1346 1.368 . S
C1362 C1358 1.368 . S
C1362 C1361 1.523 . S
H1363 C1338 0.950 . S
H1364 C1340 0.950 . S
H1365 C1341 0.949 . S
H1366 C1343 0.950 . S
H1367 C1345 0.950 . S
C1368 C1369 1.349 . S
C1368 C1370 1.327 . S
C1368 H1393 0.950 . S
C1369 C1368 1.349 . S
C1369 C1385 1.349 . S
C1370 C1368 1.327 . S
C1370 C1389 1.429 . S
C1370 H1394 0.950 . S
C1371 C1388 1.574 . S
C1371 C1390 1.368 . S
C1371 H1395 0.949 . S
H1372 C1376 0.949 . S
C1373 C1374 1.349 . S
C1373 C1375 1.327 . S
C1373 H1396 0.950 . S
C1374 C1373 1.349 . S
C1374 C1386 1.349 . S
C1375 C1373 1.327 . S
C1375 C1391 1.429 . S
C1375 H1397 0.950 . S
C1376 H1372 0.949 . S
C1376 C1384 1.574 . S
C1376 C1392 1.368 . S
H1377 C1385 0.950 . S
H1378 C1383 0.950 . S
H1379 C1384 0.949 . S
H1380 C1386 0.950 . S
H1381 C1387 0.950 . S
H1382 C1388 0.949 . S
C1383 H1378 0.950 . S
C1383 C1385 1.327 . S
C1383 C1389 1.429 . S
C1384 C1376 1.574 . S
C1384 H1379 0.949 . S
C1384 C1390 1.368 . S
C1385 C1369 1.349 . S
C1385 H1377 0.950 . S
C1385 C1383 1.327 . S
C1386 C1374 1.349 . S
C1386 H1380 0.950 . S
C1386 C1387 1.327 . S
C1387 H1381 0.950 . S
C1387 C1386 1.327 . S
C1387 C1391 1.429 . S
C1388 C1371 1.574 . S
C1388 H1382 0.949 . S
C1388 C1392 1.368 . S
C1389 C1370 1.429 . S
C1389 C1383 1.429 . S
C1389 C1390 1.523 . S
C1390 C1371 1.368 . S
C1390 C1384 1.368 . S
C1390 C1389 1.523 . S
C1391 C1375 1.429 . S
C1391 C1387 1.429 . S
C1391 C1392 1.523 . S
C1392 C1376 1.368 . S
C1392 C1388 1.368 . S
C1392 C1391 1.523 . S
H1393 C1368 0.950 . S
H1394 C1370 0.950 . S
H1395 C1371 0.949 . S
H1396 C1373 0.950 . S
H1397 C1375 0.950 . S
C1398 C1399 1.349 . S
C1398 C1400 1.327 . S
C1398 H1423 0.950 . S
C1399 C1398 1.349 . S
C1399 C1415 1.349 . S
C1400 C1398 1.327 . S
C1400 C1419 1.429 . S
C1400 H1424 0.950 . S
C1401 C1418 1.574 . S
C1401 C1420 1.368 . S
C1401 H1425 0.949 . S
H1402 C1406 0.949 . S
C1403 C1404 1.349 . S
C1403 C1405 1.327 . S
C1403 H1426 0.950 . S
C1404 C1403 1.349 . S
C1404 C1416 1.349 . S
C1405 C1403 1.327 . S
C1405 C1421 1.429 . S
C1405 H1427 0.950 . S
C1406 H1402 0.949 . S
C1406 C1414 1.574 . S
C1406 C1422 1.368 . S
H1407 C1415 0.950 . S
H1408 C1413 0.950 . S
H1409 C1414 0.949 . S
H1410 C1416 0.950 . S
H1411 C1417 0.950 . S
H1412 C1418 0.949 . S
C1413 H1408 0.950 . S
C1413 C1415 1.327 . S
C1413 C1419 1.429 . S
C1414 C1406 1.574 . S
C1414 H1409 0.949 . S
C1414 C1420 1.368 . S
C1415 C1399 1.349 . S
C1415 H1407 0.950 . S
C1415 C1413 1.327 . S
C1416 C1404 1.349 . S
C1416 H1410 0.950 . S
C1416 C1417 1.327 . S
C1417 H1411 0.950 . S
C1417 C1416 1.327 . S
C1417 C1421 1.429 . S
C1418 C1401 1.574 . S
C1418 H1412 0.949 . S
C1418 C1422 1.368 . S
C1419 C1400 1.429 . S
C1419 C1413 1.429 . S
C1419 C1420 1.523 . S
C1420 C1401 1.368 . S
C1420 C1414 1.368 . S
C1420 C1419 1.523 . S
C1421 C1405 1.429 . S
C1421 C1417 1.429 . S
C1421 C1422 1.523 . S
C1422 C1406 1.368 . S
C1422 C1418 1.368 . S
C1422 C1421 1.523 . S
H1423 C1398 0.950 . S
H1424 C1400 0.950 . S
H1425 C1401 0.949 . S
H1426 C1403 0.950 . S
H1427 C1405 0.950 . S
C1428 C1429 1.349 . S
C1428 C1430 1.327 . S
C1428 H1453 0.950 . S
C1429 C1428 1.349 . S
C1429 C1445 1.349 . S
C1430 C1428 1.327 . S
C1430 C1449 1.429 . S
C1430 H1454 0.950 . S
C1431 C1448 1.574 . S
C1431 C1450 1.368 . S
C1431 H1455 0.949 . S
H1432 C1436 0.949 . S
C1433 C1434 1.349 . S
C1433 C1435 1.327 . S
C1433 H1456 0.950 . S
C1434 C1433 1.349 . S
C1434 C1446 1.349 . S
C1435 C1433 1.327 . S
C1435 C1451 1.429 . S
C1435 H1457 0.950 . S
C1436 H1432 0.949 . S
C1436 C1444 1.574 . S
C1436 C1452 1.368 . S
H1437 C1445 0.950 . S
H1438 C1443 0.950 . S
H1439 C1444 0.949 . S
H1440 C1446 0.950 . S
H1441 C1447 0.950 . S
H1442 C1448 0.949 . S
C1443 H1438 0.950 . S
C1443 C1445 1.327 . S
C1443 C1449 1.429 . S
C1444 C1436 1.574 . S
C1444 H1439 0.949 . S
C1444 C1450 1.368 . S
C1445 C1429 1.349 . S
C1445 H1437 0.950 . S
C1445 C1443 1.327 . S
C1446 C1434 1.349 . S
C1446 H1440 0.950 . S
C1446 C1447 1.327 . S
C1447 H1441 0.950 . S
C1447 C1446 1.327 . S
C1447 C1451 1.429 . S
C1448 C1431 1.574 . S
C1448 H1442 0.949 . S
C1448 C1452 1.368 . S
C1449 C1430 1.429 . S
C1449 C1443 1.429 . S
C1449 C1450 1.523 . S
C1450 C1431 1.368 . S
C1450 C1444 1.368 . S
C1450 C1449 1.523 . S
C1451 C1435 1.429 . S
C1451 C1447 1.429 . S
C1451 C1452 1.523 . S
C1452 C1436 1.368 . S
C1452 C1448 1.368 . S
C1452 C1451 1.523 . S
H1453 C1428 0.950 . S
H1454 C1430 0.950 . S
H1455 C1431 0.949 . S
H1456 C1433 0.950 . S
H1457 C1435 0.950 . S
C1458 C1459 1.349 . S
C1458 C1460 1.327 . S
C1458 H1483 0.950 . S
C1459 C1458 1.349 . S
C1459 C1475 1.349 . S
C1460 C1458 1.327 . S
C1460 C1479 1.429 . S
C1460 H1484 0.950 . S
C1461 C1478 1.574 . S
C1461 C1480 1.368 . S
C1461 H1485 0.949 . S
H1462 C1466 0.949 . S
C1463 C1464 1.349 . S
C1463 C1465 1.327 . S
C1463 H1486 0.950 . S
C1464 C1463 1.349 . S
C1464 C1476 1.349 . S
C1465 C1463 1.327 . S
C1465 C1481 1.429 . S
C1465 H1487 0.950 . S
C1466 H1462 0.949 . S
C1466 C1474 1.574 . S
C1466 C1482 1.368 . S
H1467 C1475 0.950 . S
H1468 C1473 0.950 . S
H1469 C1474 0.949 . S
H1470 C1476 0.950 . S
H1471 C1477 0.950 . S
H1472 C1478 0.949 . S
C1473 H1468 0.950 . S
C1473 C1475 1.327 . S
C1473 C1479 1.429 . S
C1474 C1466 1.574 . S
C1474 H1469 0.949 . S
C1474 C1480 1.368 . S
C1475 C1459 1.349 . S
C1475 H1467 0.950 . S
C1475 C1473 1.327 . S
C1476 C1464 1.349 . S
C1476 H1470 0.950 . S
C1476 C1477 1.327 . S
C1477 H1471 0.950 . S
C1477 C1476 1.327 . S
C1477 C1481 1.429 . S
C1478 C1461 1.574 . S
C1478 H1472 0.949 . S
C1478 C1482 1.368 . S
C1479 C1460 1.429 . S
C1479 C1473 1.429 . S
C1479 C1480 1.523 . S
C1480 C1461 1.368 . S
C1480 C1474 1.368 . S
C1480 C1479 1.523 . S
C1481 C1465 1.429 . S
C1481 C1477 1.429 . S
C1481 C1482 1.523 . S
C1482 C1466 1.368 . S
C1482 C1478 1.368 . S
C1482 C1481 1.523 . S
H1483 C1458 0.950 . S
H1484 C1460 0.950 . S
H1485 C1461 0.949 . S
H1486 C1463 0.950 . S
H1487 C1465 0.950 . S
C1488 C1489 1.349 . S
C1488 C1490 1.327 . S
C1488 H1513 0.950 . S
C1489 C1488 1.349 . S
C1489 C1505 1.349 . S
C1490 C1488 1.327 . S
C1490 C1509 1.429 . S
C1490 H1514 0.950 . S
C1491 C1508 1.574 . S
C1491 C1510 1.368 . S
C1491 H1515 0.949 . S
H1492 C1496 0.949 . S
C1493 C1494 1.349 . S
C1493 C1495 1.327 . S
C1493 H1516 0.950 . S
C1494 C1493 1.349 . S
C1494 C1506 1.349 . S
C1495 C1493 1.327 . S
C1495 C1511 1.429 . S
C1495 H1517 0.950 . S
C1496 H1492 0.949 . S
C1496 C1504 1.574 . S
C1496 C1512 1.368 . S
H1497 C1505 0.950 . S
H1498 C1503 0.950 . S
H1499 C1504 0.949 . S
H1500 C1506 0.950 . S
H1501 C1507 0.950 . S
H1502 C1508 0.949 . S
C1503 H1498 0.950 . S
C1503 C1505 1.327 . S
C1503 C1509 1.429 . S
C1504 C1496 1.574 . S
C1504 H1499 0.949 . S
C1504 C1510 1.368 . S
C1505 C1489 1.349 . S
C1505 H1497 0.950 . S
C1505 C1503 1.327 . S
C1506 C1494 1.349 . S
C1506 H1500 0.950 . S
C1506 C1507 1.327 . S
C1507 H1501 0.950 . S
C1507 C1506 1.327 . S
C1507 C1511 1.429 . S
C1508 C1491 1.574 . S
C1508 H1502 0.949 . S
C1508 C1512 1.368 . S
C1509 C1490 1.429 . S
C1509 C1503 1.429 . S
C1509 C1510 1.523 . S
C1510 C1491 1.368 . S
C1510 C1504 1.368 . S
C1510 C1509 1.523 . S
C1511 C1495 1.429 . S
C1511 C1507 1.429 . S
C1511 C1512 1.523 . S
C1512 C1496 1.368 . S
C1512 C1508 1.368 . S
C1512 C1511 1.523 . S
H1513 C1488 0.950 . S
H1514 C1490 0.950 . S
H1515 C1491 0.949 . S
H1516 C1493 0.950 . S
H1517 C1495 0.950 . S
C1518 C1519 1.349 . S
C1518 C1520 1.327 . S
C1518 H1543 0.950 . S
C1519 C1518 1.349 . S
C1519 C1535 1.349 . S
C1520 C1518 1.327 . S
C1520 C1539 1.429 . S
C1520 H1544 0.950 . S
C1521 C1538 1.574 . S
C1521 C1540 1.368 . S
C1521 H1545 0.949 . S
H1522 C1526 0.949 . S
C1523 C1524 1.349 . S
C1523 C1525 1.327 . S
C1523 H1546 0.950 . S
C1524 C1523 1.349 . S
C1524 C1536 1.349 . S
C1525 C1523 1.327 . S
C1525 C1541 1.429 . S
C1525 H1547 0.950 . S
C1526 H1522 0.949 . S
C1526 C1534 1.574 . S
C1526 C1542 1.368 . S
H1527 C1535 0.950 . S
H1528 C1533 0.950 . S
H1529 C1534 0.949 . S
H1530 C1536 0.950 . S
H1531 C1537 0.950 . S
H1532 C1538 0.949 . S
C1533 H1528 0.950 . S
C1533 C1535 1.327 . S
C1533 C1539 1.429 . S
C1534 C1526 1.574 . S
C1534 H1529 0.949 . S
C1534 C1540 1.368 . S
C1535 C1519 1.349 . S
C1535 H1527 0.950 . S
C1535 C1533 1.327 . S
C1536 C1524 1.349 . S
C1536 H1530 0.950 . S
C1536 C1537 1.327 . S
C1537 H1531 0.950 . S
C1537 C1536 1.327 . S
C1537 C1541 1.429 . S
C1538 C1521 1.574 . S
C1538 H1532 0.949 . S
C1538 C1542 1.368 . S
C1539 C1520 1.429 . S
C1539 C1533 1.429 . S
C1539 C1540 1.523 . S
C1540 C1521 1.368 . S
C1540 C1534 1.368 . S
C1540 C1539 1.523 . S
C1541 C1525 1.429 . S
C1541 C1537 1.429 . S
C1541 C1542 1.523 . S
C1542 C1526 1.368 . S
C1542 C1538 1.368 . S
C1542 C1541 1.523 . S
H1543 C1518 0.950 . S
H1544 C1520 0.950 . S
H1545 C1521 0.949 . S
H1546 C1523 0.950 . S
H1547 C1525 0.950 . S
C1548 C1549 1.349 . S
C1548 C1550 1.327 . S
C1548 H1573 0.950 . S
C1549 C1548 1.349 . S
C1549 C1565 1.349 . S
C1550 C1548 1.327 . S
C1550 C1569 1.429 . S
C1550 H1574 0.950 . S
C1551 C1568 1.574 . S
C1551 C1570 1.368 . S
C1551 H1575 0.949 . S
H1552 C1556 0.949 . S
C1553 C1554 1.349 . S
C1553 C1555 1.327 . S
C1553 H1576 0.950 . S
C1554 C1553 1.349 . S
C1554 C1566 1.349 . S
C1555 C1553 1.327 . S
C1555 C1571 1.429 . S
C1555 H1577 0.950 . S
C1556 H1552 0.949 . S
C1556 C1564 1.574 . S
C1556 C1572 1.368 . S
H1557 C1565 0.950 . S
H1558 C1563 0.950 . S
H1559 C1564 0.949 . S
H1560 C1566 0.950 . S
H1561 C1567 0.950 . S
H1562 C1568 0.949 . S
C1563 H1558 0.950 . S
C1563 C1565 1.327 . S
C1563 C1569 1.429 . S
C1564 C1556 1.574 . S
C1564 H1559 0.949 . S
C1564 C1570 1.368 . S
C1565 C1549 1.349 . S
C1565 H1557 0.950 . S
C1565 C1563 1.327 . S
C1566 C1554 1.349 . S
C1566 H1560 0.950 . S
C1566 C1567 1.327 . S
C1567 H1561 0.950 . S
C1567 C1566 1.327 . S
C1567 C1571 1.429 . S
C1568 C1551 1.574 . S
C1568 H1562 0.949 . S
C1568 C1572 1.368 . S
C1569 C1550 1.429 . S
C1569 C1563 1.429 . S
C1569 C1570 1.523 . S
C1570 C1551 1.368 . S
C1570 C1564 1.368 . S
C1570 C1569 1.523 . S
C1571 C1555 1.429 . S
C1571 C1567 1.429 . S
C1571 C1572 1.523 . S
C1572 C1556 1.368 . S
C1572 C1568 1.368 . S
C1572 C1571 1.523 . S
H1573 C1548 0.950 . S
H1574 C1550 0.950 . S
H1575 C1551 0.949 . S
H1576 C1553 0.950 . S
H1577 C1555 0.950 . S
C1578 C1579 1.349 . S
C1578 C1580 1.327 . S
C1578 H1603 0.950 . S
C1579 C1578 1.349 . S
C1579 C1595 1.349 . S
C1580 C1578 1.327 . S
C1580 C1599 1.429 . S
C1580 H1604 0.950 . S
C1581 C1598 1.574 . S
C1581 C1600 1.368 . S
C1581 H1605 0.949 . S
H1582 C1586 0.949 . S
C1583 C1584 1.349 . S
C1583 C1585 1.327 . S
C1583 H1606 0.950 . S
C1584 C1583 1.349 . S
C1584 C1596 1.349 . S
C1585 C1583 1.327 . S
C1585 C1601 1.429 . S
C1585 H1607 0.950 . S
C1586 H1582 0.949 . S
C1586 C1594 1.574 . S
C1586 C1602 1.368 . S
H1587 C1595 0.950 . S
H1588 C1593 0.950 . S
H1589 C1594 0.949 . S
H1590 C1596 0.950 . S
H1591 C1597 0.950 . S
H1592 C1598 0.949 . S
C1593 H1588 0.950 . S
C1593 C1595 1.327 . S
C1593 C1599 1.429 . S
C1594 C1586 1.574 . S
C1594 H1589 0.949 . S
C1594 C1600 1.368 . S
C1595 C1579 1.349 . S
C1595 H1587 0.950 . S
C1595 C1593 1.327 . S
C1596 C1584 1.349 . S
C1596 H1590 0.950 . S
C1596 C1597 1.327 . S
C1597 H1591 0.950 . S
C1597 C1596 1.327 . S
C1597 C1601 1.429 . S
C1598 C1581 1.574 . S
C1598 H1592 0.949 . S
C1598 C1602 1.368 . S
C1599 C1580 1.429 . S
C1599 C1593 1.429 . S
C1599 C1600 1.523 . S
C1600 C1581 1.368 . S
C1600 C1594 1.368 . S
C1600 C1599 1.523 . S
C1601 C1585 1.429 . S
C1601 C1597 1.429 . S
C1601 C1602 1.523 . S
C1602 C1586 1.368 . S
C1602 C1598 1.368 . S
C1602 C1601 1.523 . S
H1603 C1578 0.950 . S
H1604 C1580 0.950 . S
H1605 C1581 0.949 . S
H1606 C1583 0.950 . S
H1607 C1585 0.950 . S
C1608 C1609 1.349 . S
C1608 C1610 1.327 . S
C1608 H1633 0.950 . S
C1609 C1608 1.349 . S
C1609 C1625 1.349 . S
C1610 C1608 1.327 . S
C1610 C1629 1.429 . S
C1610 H1634 0.950 . S
C1611 C1628 1.574 . S
C1611 C1630 1.368 . S
C1611 H1635 0.949 . S
H1612 C1616 0.949 . S
C1613 C1614 1.349 . S
C1613 C1615 1.327 . S
C1613 H1636 0.950 . S
C1614 C1613 1.349 . S
C1614 C1626 1.349 . S
C1615 C1613 1.327 . S
C1615 C1631 1.429 . S
C1615 H1637 0.950 . S
C1616 H1612 0.949 . S
C1616 C1624 1.574 . S
C1616 C1632 1.368 . S
H1617 C1625 0.950 . S
H1618 C1623 0.950 . S
H1619 C1624 0.949 . S
H1620 C1626 0.950 . S
H1621 C1627 0.950 . S
H1622 C1628 0.949 . S
C1623 H1618 0.950 . S
C1623 C1625 1.327 . S
C1623 C1629 1.429 . S
C1624 C1616 1.574 . S
C1624 H1619 0.949 . S
C1624 C1630 1.368 . S
C1625 C1609 1.349 . S
C1625 H1617 0.950 . S
C1625 C1623 1.327 . S
C1626 C1614 1.349 . S
C1626 H1620 0.950 . S
C1626 C1627 1.327 . S
C1627 H1621 0.950 . S
C1627 C1626 1.327 . S
C1627 C1631 1.429 . S
C1628 C1611 1.574 . S
C1628 H1622 0.949 . S
C1628 C1632 1.368 . S
C1629 C1610 1.429 . S
C1629 C1623 1.429 . S
C1629 C1630 1.523 . S
C1630 C1611 1.368 . S
C1630 C1624 1.368 . S
C1630 C1629 1.523 . S
C1631 C1615 1.429 . S
C1631 C1627 1.429 . S
C1631 C1632 1.523 . S
C1632 C1616 1.368 . S
C1632 C1628 1.368 . S
C1632 C1631 1.523 . S
H1633 C1608 0.950 . S
H1634 C1610 0.950 . S
H1635 C1611 0.949 . S
H1636 C1613 0.950 . S
H1637 C1615 0.950 . S
C1638 C1639 1.349 . S
C1638 C1640 1.327 . S
C1638 H1663 0.950 . S
C1639 C1638 1.349 . S
C1639 C1655 1.349 . S
C1640 C1638 1.327 . S
C1640 C1659 1.429 . S
C1640 H1664 0.950 . S
C1641 C1658 1.574 . S
C1641 C1660 1.368 . S
C1641 H1665 0.949 . S
H1642 C1646 0.949 . S
C1643 C1644 1.349 . S
C1643 C1645 1.327 . S
C1643 H1666 0.950 . S
C1644 C1643 1.349 . S
C1644 C1656 1.349 . S
C1645 C1643 1.327 . S
C1645 C1661 1.429 . S
C1645 H1667 0.950 . S
C1646 H1642 0.949 . S
C1646 C1654 1.574 . S
C1646 C1662 1.368 . S
H1647 C1655 0.950 . S
H1648 C1653 0.950 . S
H1649 C1654 0.949 . S
H1650 C1656 0.950 . S
H1651 C1657 0.950 . S
H1652 C1658 0.949 . S
C1653 H1648 0.950 . S
C1653 C1655 1.327 . S
C1653 C1659 1.429 . S
C1654 C1646 1.574 . S
C1654 H1649 0.949 . S
C1654 C1660 1.368 . S
C1655 C1639 1.349 . S
C1655 H1647 0.950 . S
C1655 C1653 1.327 . S
C1656 C1644 1.349 . S
C1656 H1650 0.950 . S
C1656 C1657 1.327 . S
C1657 H1651 0.950 . S
C1657 C1656 1.327 . S
C1657 C1661 1.429 . S
C1658 C1641 1.574 . S
C1658 H1652 0.949 . S
C1658 C1662 1.368 . S
C1659 C1640 1.429 . S
C1659 C1653 1.429 . S
C1659 C1660 1.523 . S
C1660 C1641 1.368 . S
C1660 C1654 1.368 . S
C1660 C1659 1.523 . S
C1661 C1645 1.429 . S
C1661 C1657 1.429 . S
C1661 C1662 1.523 . S
C1662 C1646 1.368 . S
C1662 C1658 1.368 . S
C1662 C1661 1.523 . S
H1663 C1638 0.950 . S
H1664 C1640 0.950 . S
H1665 C1641 0.949 . S
H1666 C1643 0.950 . S
H1667 C1645 0.950 . S
C1668 C1669 1.349 . S
C1668 C1670 1.327 . S
C1668 H1693 0.950 . S
C1669 C1668 1.349 . S
C1669 C1685 1.349 . S
C1670 C1668 1.327 . S
C1670 C1689 1.429 . S
C1670 H1694 0.950 . S
C1671 C1688 1.574 . S
C1671 C1690 1.368 . S
C1671 H1695 0.949 . S
H1672 C1676 0.949 . S
C1673 C1674 1.349 . S
C1673 C1675 1.327 . S
C1673 H1696 0.950 . S
C1674 C1673 1.349 . S
C1674 C1686 1.349 . S
C1675 C1673 1.327 . S
C1675 C1691 1.429 . S
C1675 H1697 0.950 . S
C1676 H1672 0.949 . S
C1676 C1684 1.574 . S
C1676 C1692 1.368 . S
H1677 C1685 0.950 . S
H1678 C1683 0.950 . S
H1679 C1684 0.949 . S
H1680 C1686 0.950 . S
H1681 C1687 0.950 . S
H1682 C1688 0.949 . S
C1683 H1678 0.950 . S
C1683 C1685 1.327 . S
C1683 C1689 1.429 . S
C1684 C1676 1.574 . S
C1684 H1679 0.949 . S
C1684 C1690 1.368 . S
C1685 C1669 1.349 . S
C1685 H1677 0.950 . S
C1685 C1683 1.327 . S
C1686 C1674 1.349 . S
C1686 H1680 0.950 . S
C1686 C1687 1.327 . S
C1687 H1681 0.950 . S
C1687 C1686 1.327 . S
C1687 C1691 1.429 . S
C1688 C1671 1.574 . S
C1688 H1682 0.949 . S
C1688 C1692 1.368 . S
C1689 C1670 1.429 . S
C1689 C1683 1.429 . S
C1689 C1690 1.523 . S
C1690 C1671 1.368 . S
C1690 C1684 1.368 . S
C1690 C1689 1.523 . S
C1691 C1675 1.429 . S
C1691 C1687 1.429 . S
C1691 C1692 1.523 . S
C1692 C1676 1.368 . S
C1692 C1688 1.368 . S
C1692 C1691 1.523 . S
H1693 C1668 0.950 . S
H1694 C1670 0.950 . S
H1695 C1671 0.949 . S
H1696 C1673 0.950 . S
H1697 C1675 0.950 . S
C1698 C1699 1.349 . S
C1698 C1700 1.327 . S
C1698 H1723 0.950 . S
C1699 C1698 1.349 . S
C1699 C1715 1.349 . S
C1700 C1698 1.327 . S
C1700 C1719 1.429 . S
C1700 H1724 0.950 . S
C1701 C1718 1.574 . S
C1701 C1720 1.368 . S
C1701 H1725 0.949 . S
H1702 C1706 0.949 . S
C1703 C1704 1.349 . S
C1703 C1705 1.327 . S
C1703 H1726 0.950 . S
C1704 C1703 1.349 . S
C1704 C1716 1.349 . S
C1705 C1703 1.327 . S
C1705 C1721 1.429 . S
C1705 H1727 0.950 . S
C1706 H1702 0.949 . S
C1706 C1714 1.574 . S
C1706 C1722 1.368 . S
H1707 C1715 0.950 . S
H1708 C1713 0.950 . S
H1709 C1714 0.949 . S
H1710 C1716 0.950 . S
H1711 C1717 0.950 . S
H1712 C1718 0.949 . S
C1713 H1708 0.950 . S
C1713 C1715 1.327 . S
C1713 C1719 1.429 . S
C1714 C1706 1.574 . S
C1714 H1709 0.949 . S
C1714 C1720 1.368 . S
C1715 C1699 1.349 . S
C1715 H1707 0.950 . S
C1715 C1713 1.327 . S
C1716 C1704 1.349 . S
C1716 H1710 0.950 . S
C1716 C1717 1.327 . S
C1717 H1711 0.950 . S
C1717 C1716 1.327 . S
C1717 C1721 1.429 . S
C1718 C1701 1.574 . S
C1718 H1712 0.949 . S
C1718 C1722 1.368 . S
C1719 C1700 1.429 . S
C1719 C1713 1.429 . S
C1719 C1720 1.523 . S
C1720 C1701 1.368 . S
C1720 C1714 1.368 . S
C1720 C1719 1.523 . S
C1721 C1705 1.429 . S
C1721 C1717 1.429 . S
C1721 C1722 1.523 . S
C1722 C1706 1.368 . S
C1722 C1718 1.368 . S
C1722 C1721 1.523 . S
H1723 C1698 0.950 . S
H1724 C1700 0.950 . S
H1725 C1701 0.949 . S
H1726 C1703 0.950 . S
H1727 C1705 0.950 . S
C529 N14 1.914 . S
C534 N113 1.914 . S
C559 N80 1.914 . S
C564 N47 1.914 . S
C589 N245 1.914 . S
C594 N146 1.914 . S
C619 N179 1.914 . S
C624 N212 1.914 . S
C649 N278 1.914 . S
C654 N377 1.914 . S
C679 N311 1.914 . S
C684 N344 1.914 . S
C709 N509 1.914 . S
C714 N410 1.914 . S
C739 N443 1.914 . S
C744 N476 1.915 . S
C769 N203 1.685 . S
C774 N5 1.685 . S
C799 N236 1.685 . S
C804 N38 1.685 . S
C829 N137 1.685 . S
C834 N71 1.685 . S
C859 N170 1.685 . S
C864 N104 1.685 . S
C889 N467 1.685 . S
C894 N269 1.685 . S
C919 N500 1.685 . S
C924 N302 1.685 . S
C949 N401 1.685 . S
C954 N335 1.685 . S
C979 N368 1.685 . S
C984 N434 1.685 . S
C1009 C28 1.561 . S
C1014 C94 1.561 . S
C1039 C61 1.561 . S
C1044 C127 1.561 . S
C1069 C160 1.561 . S
C1074 C226 1.561 . S
C1099 C193 1.561 . S
C1104 C259 1.561 . S
C1129 C292 1.561 . S
C1134 C358 1.561 . S
C1159 C325 1.561 . S
C1164 C391 1.561 . S
C1189 C424 1.561 . S
C1194 C490 1.561 . S
C1219 C457 1.561 . S
C1224 C523 1.561 . S
C1249 C503 0.910 . S
C1254 C17 0.910 . S
C1279 C50 0.911 . S
C1284 C470 0.910 . S
C1309 C83 0.910 . S
C1314 C437 0.910 . S
C1339 C404 0.910 . S
C1344 C116 0.911 . S
C1369 C371 0.910 . S
C1374 C149 0.910 . S
C1399 C182 0.911 . S
C1404 C338 0.910 . S
C1429 C215 0.910 . S
C1434 C305 0.910 . S
C1459 C248 0.911 . S
C1464 C272 0.910 . S
C1489 C281 0.910 . S
C1494 C239 0.910 . S
C1519 C206 0.910 . S
C1524 C314 0.911 . S
C1549 C173 0.910 . S
C1554 C347 0.910 . S
C1579 C380 0.911 . S
C1584 C140 0.910 . S
C1609 C413 0.910 . S
C1614 C107 0.910 . S
C1639 C74 0.910 . S
C1644 C446 0.911 . S
C1669 C41 0.910 . S
C1674 C479 0.910 . S
C1699 C8 0.910 . S
C1704 C512 0.911 . S
