# Generated by pormake.
# Topology sxi, (6)-cn, num edge types: 1
# Building blocks:
#     Node 0, Type 0, BuildingBlock: IZENUY_clean_sbu_0, # of connection points: 6
#     Node 1, Type 0, BuildingBlock: IZENUY_clean_sbu_0, # of connection points: 6
#     Node 2, Type 0, BuildingBlock: IZENUY_clean_sbu_0, # of connection points: 6
#     Node 3, Type 0, BuildingBlock: IZENUY_clean_sbu_0, # of connection points: 6
#     Node 4, Type 0, BuildingBlock: IZENUY_clean_sbu_0, # of connection points: 6
#     Node 5, Type 0, BuildingBlock: IZENUY_clean_sbu_0, # of connection points: 6
#     Node 6, Type 0, BuildingBlock: IZENUY_clean_sbu_0, # of connection points: 6
#     Node 7, Type 0, BuildingBlock: IZENUY_clean_sbu_0, # of connection points: 6
#     Node 8, Type 0, BuildingBlock: IZENUY_clean_sbu_0, # of connection points: 6
#     Node 9, Type 0, BuildingBlock: IZENUY_clean_sbu_0, # of connection points: 6
#     Node 10, Type 0, BuildingBlock: IZENUY_clean_sbu_0, # of connection points: 6
#     Node 11, Type 0, BuildingBlock: IZENUY_clean_sbu_0, # of connection points: 6
#     Node 12, Type 0, BuildingBlock: IZENUY_clean_sbu_0, # of connection points: 6
#     Node 13, Type 0, BuildingBlock: IZENUY_clean_sbu_0, # of connection points: 6
#     Node 14, Type 0, BuildingBlock: IZENUY_clean_sbu_0, # of connection points: 6
#     Node 15, Type 0, BuildingBlock: IZENUY_clean_sbu_0, # of connection points: 6
#     Node 16, Type 0, BuildingBlock: IZENUY_clean_sbu_0, # of connection points: 6
#     Node 17, Type 0, BuildingBlock: IZENUY_clean_sbu_0, # of connection points: 6
#     Node 18, Type 0, BuildingBlock: IZENUY_clean_sbu_0, # of connection points: 6
#     Node 19, Type 0, BuildingBlock: IZENUY_clean_sbu_0, # of connection points: 6
#     Node 20, Type 0, BuildingBlock: IZENUY_clean_sbu_0, # of connection points: 6
#     Node 21, Type 0, BuildingBlock: IZENUY_clean_sbu_0, # of connection points: 6
#     Node 22, Type 0, BuildingBlock: IZENUY_clean_sbu_0, # of connection points: 6
#     Node 23, Type 0, BuildingBlock: IZENUY_clean_sbu_0, # of connection points: 6
#     Edge 24, Type (0, 0), BuildingBlock: UVAHIK_clean_linker_0, # of connection points: 2
#     Edge 25, Type (0, 0), BuildingBlock: UVAHIK_clean_linker_0, # of connection points: 2
#     Edge 26, Type (0, 0), BuildingBlock: UVAHIK_clean_linker_0, # of connection points: 2
#     Edge 27, Type (0, 0), BuildingBlock: UVAHIK_clean_linker_0, # of connection points: 2
#     Edge 28, Type (0, 0), BuildingBlock: UVAHIK_clean_linker_0, # of connection points: 2
#     Edge 29, Type (0, 0), BuildingBlock: UVAHIK_clean_linker_0, # of connection points: 2
#     Edge 30, Type (0, 0), BuildingBlock: UVAHIK_clean_linker_0, # of connection points: 2
#     Edge 31, Type (0, 0), BuildingBlock: UVAHIK_clean_linker_0, # of connection points: 2
#     Edge 32, Type (0, 0), BuildingBlock: UVAHIK_clean_linker_0, # of connection points: 2
#     Edge 33, Type (0, 0), BuildingBlock: UVAHIK_clean_linker_0, # of connection points: 2
#     Edge 34, Type (0, 0), BuildingBlock: UVAHIK_clean_linker_0, # of connection points: 2
#     Edge 35, Type (0, 0), BuildingBlock: UVAHIK_clean_linker_0, # of connection points: 2
#     Edge 36, Type (0, 0), BuildingBlock: UVAHIK_clean_linker_0, # of connection points: 2
#     Edge 37, Type (0, 0), BuildingBlock: UVAHIK_clean_linker_0, # of connection points: 2
#     Edge 38, Type (0, 0), BuildingBlock: UVAHIK_clean_linker_0, # of connection points: 2
#     Edge 39, Type (0, 0), BuildingBlock: UVAHIK_clean_linker_0, # of connection points: 2
#     Edge 40, Type (0, 0), BuildingBlock: UVAHIK_clean_linker_0, # of connection points: 2
#     Edge 41, Type (0, 0), BuildingBlock: UVAHIK_clean_linker_0, # of connection points: 2
#     Edge 42, Type (0, 0), BuildingBlock: UVAHIK_clean_linker_0, # of connection points: 2
#     Edge 43, Type (0, 0), BuildingBlock: UVAHIK_clean_linker_0, # of connection points: 2
#     Edge 44, Type (0, 0), BuildingBlock: UVAHIK_clean_linker_0, # of connection points: 2
#     Edge 45, Type (0, 0), BuildingBlock: UVAHIK_clean_linker_0, # of connection points: 2
#     Edge 46, Type (0, 0), BuildingBlock: UVAHIK_clean_linker_0, # of connection points: 2
#     Edge 47, Type (0, 0), BuildingBlock: UVAHIK_clean_linker_0, # of connection points: 2
#     Edge 48, Type (0, 0), BuildingBlock: UVAHIK_clean_linker_0, # of connection points: 2
#     Edge 49, Type (0, 0), BuildingBlock: UVAHIK_clean_linker_0, # of connection points: 2
#     Edge 50, Type (0, 0), BuildingBlock: UVAHIK_clean_linker_0, # of connection points: 2
#     Edge 51, Type (0, 0), BuildingBlock: UVAHIK_clean_linker_0, # of connection points: 2
#     Edge 52, Type (0, 0), BuildingBlock: UVAHIK_clean_linker_0, # of connection points: 2
#     Edge 53, Type (0, 0), BuildingBlock: UVAHIK_clean_linker_0, # of connection points: 2
#     Edge 54, Type (0, 0), BuildingBlock: UVAHIK_clean_linker_0, # of connection points: 2
#     Edge 55, Type (0, 0), BuildingBlock: UVAHIK_clean_linker_0, # of connection points: 2
#     Edge 56, Type (0, 0), BuildingBlock: UVAHIK_clean_linker_0, # of connection points: 2
#     Edge 57, Type (0, 0), BuildingBlock: UVAHIK_clean_linker_0, # of connection points: 2
#     Edge 58, Type (0, 0), BuildingBlock: UVAHIK_clean_linker_0, # of connection points: 2
#     Edge 59, Type (0, 0), BuildingBlock: UVAHIK_clean_linker_0, # of connection points: 2
#     Edge 60, Type (0, 0), BuildingBlock: UVAHIK_clean_linker_0, # of connection points: 2
#     Edge 61, Type (0, 0), BuildingBlock: UVAHIK_clean_linker_0, # of connection points: 2
#     Edge 62, Type (0, 0), BuildingBlock: UVAHIK_clean_linker_0, # of connection points: 2
#     Edge 63, Type (0, 0), BuildingBlock: UVAHIK_clean_linker_0, # of connection points: 2
#     Edge 64, Type (0, 0), BuildingBlock: UVAHIK_clean_linker_0, # of connection points: 2
#     Edge 65, Type (0, 0), BuildingBlock: UVAHIK_clean_linker_0, # of connection points: 2
#     Edge 66, Type (0, 0), BuildingBlock: UVAHIK_clean_linker_0, # of connection points: 2
#     Edge 67, Type (0, 0), BuildingBlock: UVAHIK_clean_linker_0, # of connection points: 2
#     Edge 68, Type (0, 0), BuildingBlock: UVAHIK_clean_linker_0, # of connection points: 2
#     Edge 69, Type (0, 0), BuildingBlock: UVAHIK_clean_linker_0, # of connection points: 2
#     Edge 70, Type (0, 0), BuildingBlock: UVAHIK_clean_linker_0, # of connection points: 2
#     Edge 71, Type (0, 0), BuildingBlock: UVAHIK_clean_linker_0, # of connection points: 2
#     Edge 72, Type (0, 0), BuildingBlock: UVAHIK_clean_linker_0, # of connection points: 2
#     Edge 73, Type (0, 0), BuildingBlock: UVAHIK_clean_linker_0, # of connection points: 2
#     Edge 74, Type (0, 0), BuildingBlock: UVAHIK_clean_linker_0, # of connection points: 2
#     Edge 75, Type (0, 0), BuildingBlock: UVAHIK_clean_linker_0, # of connection points: 2
#     Edge 76, Type (0, 0), BuildingBlock: UVAHIK_clean_linker_0, # of connection points: 2
#     Edge 77, Type (0, 0), BuildingBlock: UVAHIK_clean_linker_0, # of connection points: 2
#     Edge 78, Type (0, 0), BuildingBlock: UVAHIK_clean_linker_0, # of connection points: 2
#     Edge 79, Type (0, 0), BuildingBlock: UVAHIK_clean_linker_0, # of connection points: 2
#     Edge 80, Type (0, 0), BuildingBlock: UVAHIK_clean_linker_0, # of connection points: 2
#     Edge 81, Type (0, 0), BuildingBlock: UVAHIK_clean_linker_0, # of connection points: 2
#     Edge 82, Type (0, 0), BuildingBlock: UVAHIK_clean_linker_0, # of connection points: 2
#     Edge 83, Type (0, 0), BuildingBlock: UVAHIK_clean_linker_0, # of connection points: 2
#     Edge 84, Type (0, 0), BuildingBlock: UVAHIK_clean_linker_0, # of connection points: 2
#     Edge 85, Type (0, 0), BuildingBlock: UVAHIK_clean_linker_0, # of connection points: 2
#     Edge 86, Type (0, 0), BuildingBlock: UVAHIK_clean_linker_0, # of connection points: 2
#     Edge 87, Type (0, 0), BuildingBlock: UVAHIK_clean_linker_0, # of connection points: 2
#     Edge 88, Type (0, 0), BuildingBlock: UVAHIK_clean_linker_0, # of connection points: 2
#     Edge 89, Type (0, 0), BuildingBlock: UVAHIK_clean_linker_0, # of connection points: 2
#     Edge 90, Type (0, 0), BuildingBlock: UVAHIK_clean_linker_0, # of connection points: 2
#     Edge 91, Type (0, 0), BuildingBlock: UVAHIK_clean_linker_0, # of connection points: 2
#     Edge 92, Type (0, 0), BuildingBlock: UVAHIK_clean_linker_0, # of connection points: 2
#     Edge 93, Type (0, 0), BuildingBlock: UVAHIK_clean_linker_0, # of connection points: 2
#     Edge 94, Type (0, 0), BuildingBlock: UVAHIK_clean_linker_0, # of connection points: 2
#     Edge 95, Type (0, 0), BuildingBlock: UVAHIK_clean_linker_0, # of connection points: 2
# Relax obj value: 0.411
# Max RMSD: 0.249
# Mean RMSD: 0.249
data_MOF--net-sxi--node1-IZENUY_clean_sbu_0--edge1-UVAHIK_clean_linker_0
_symmetry_space_group_name_H-M    P1
_symmetry_Int_Tables_number       1
_symmetry_cell_setting            triclinic
loop_
_symmetry_equiv_pos_as_xyz
'x, y, z'
_cell_length_a     59.881099
_cell_length_b     59.866792
_cell_length_c     59.876437
_cell_angle_alpha  90.002639
_cell_angle_beta   90.021417
_cell_angle_gamma 90.003662
loop_
_atom_site_label
_atom_site_type_symbol
_atom_site_fract_x
_atom_site_fract_y
_atom_site_fract_z
_atom_type_partial_charge
Fe0 Fe 0.0213 0.32214 0.40311 0.0
Fe1 Fe 0.06383 0.33863 0.37985 0.0
O2 O 0.03796 0.34438 0.39297 0.0
Fe3 Fe 0.02851 0.37215 0.39611 0.0
O4 O 0.02705 0.36943 0.42649 0.0
O5 O 0.0083 0.33809 0.42567 0.0
O6 O 0.04295 0.31412 0.42265 0.0
C7 C 0.06254 0.30888 0.41682 0.0
C8 C 0.99048 0.34849 0.38251 0.0
O9 O 0.06995 0.31414 0.39762 0.0
C10 C 0.04624 0.37492 0.35411 0.0
O11 O 0.03096 0.30172 0.38269 0.0
O12 O 0.05015 0.32137 0.35843 0.0
O13 O 0.99918 0.36488 0.39263 0.0
O14 O 0.9989 0.32919 0.38387 0.0
C15 C 0.07463 0.37538 0.4051 0.0
O16 O 0.06233 0.36244 0.36011 0.0
O17 O 0.02919 0.37698 0.36627 0.0
C18 C 0.03823 0.30458 0.36316 0.0
O19 O 0.07907 0.3553 0.40039 0.0
O20 O 0.05624 0.38415 0.39968 0.0
C21 C 0.01511 0.35503 0.43622 0.0
Fe22 Fe 0.91264 0.81273 0.6281 0.0
Fe23 Fe 0.88101 0.77514 0.64277 0.0
O24 O 0.90834 0.78596 0.64009 0.0
Fe25 Fe 0.93141 0.77005 0.64964 0.0
O26 O 0.93903 0.79152 0.66945 0.0
O27 O 0.93718 0.81937 0.64552 0.0
O28 O 0.89572 0.826 0.64997 0.0
C29 C 0.87636 0.81964 0.65558 0.0
C30 C 0.94713 0.78873 0.60968 0.0
O31 O 0.868 0.80219 0.64728 0.0
C32 C 0.90635 0.73805 0.6291 0.0
O33 O 0.88859 0.81099 0.60869 0.0
O34 O 0.8762 0.77671 0.61297 0.0
O35 O 0.95083 0.78092 0.62888 0.0
O36 O 0.93007 0.80068 0.60584 0.0
C37 C 0.89883 0.7618 0.68269 0.0
O38 O 0.88938 0.74629 0.63853 0.0
O39 O 0.92514 0.74753 0.63032 0.0
C40 C 0.87708 0.79452 0.60178 0.0
O41 O 0.8837 0.77275 0.67295 0.0
O42 O 0.91635 0.75621 0.67234 0.0
C43 C 0.94335 0.81147 0.66422 0.0
Fe44 Fe 0.48457 0.68168 0.89986 0.0
Fe45 Fe 0.44297 0.66349 0.87632 0.0
O46 O 0.46946 0.65887 0.88868 0.0
Fe47 Fe 0.48103 0.63181 0.89009 0.0
O48 O 0.48318 0.63309 0.9204 0.0
O49 O 0.49961 0.66562 0.92113 0.0
O50 O 0.46289 0.68668 0.92028 0.0
C51 C 0.44294 0.69113 0.915 0.0
C52 C 0.51683 0.65929 0.87695 0.0
O53 O 0.43563 0.68664 0.89551 0.0
C54 C 0.46192 0.62913 0.84876 0.0
O55 O 0.47271 0.70241 0.88099 0.0
O56 O 0.45528 0.6827 0.85553 0.0
O57 O 0.50972 0.6415 0.88597 0.0
O58 O 0.5067 0.67759 0.87967 0.0
C59 C 0.43593 0.62535 0.90129 0.0
O60 O 0.44545 0.6407 0.85549 0.0
O61 O 0.4796 0.62816 0.86013 0.0
C62 C 0.46595 0.70011 0.8612 0.0
O63 O 0.4294 0.64486 0.8964 0.0
O64 O 0.45433 0.61787 0.89419 0.0
C65 C 0.4942 0.64769 0.93076 0.0
Fe66 Fe 0.58809 0.18908 0.12758 0.0
Fe67 Fe 0.62222 0.22285 0.14597 0.0
O68 O 0.59423 0.21429 0.14193 0.0
Fe69 Fe 0.57226 0.23111 0.15242 0.0
O70 O 0.56298 0.20889 0.17052 0.0
O71 O 0.5633 0.18258 0.14475 0.0
O72 O 0.60414 0.17258 0.14765 0.0
C73 C 0.62427 0.17624 0.15277 0.0
C74 C 0.55515 0.21659 0.11131 0.0
O75 O 0.63354 0.19463 0.14829 0.0
C76 C 0.5997 0.263 0.1354 0.0
O77 O 0.61213 0.19105 0.1082 0.0
O78 O 0.6274 0.22349 0.11623 0.0
O79 O 0.55212 0.22335 0.13098 0.0
O80 O 0.57141 0.20397 0.10655 0.0
C81 C 0.60482 0.23476 0.18639 0.0
O82 O 0.61595 0.25262 0.14405 0.0
O83 O 0.58045 0.25442 0.13488 0.0
C84 C 0.62511 0.2071 0.1032 0.0
O85 O 0.61911 0.22294 0.17633 0.0
O86 O 0.58802 0.24218 0.17605 0.0
C87 C 0.55762 0.18959 0.16397 0.0
Fe88 Fe 0.52669 0.17866 0.59658 0.0
Fe89 Fe 0.56827 0.16382 0.6226 0.0
O90 O 0.5437 0.15704 0.60745 0.0
Fe91 Fe 0.53613 0.1288 0.6029 0.0
O92 O 0.53654 0.13212 0.57263 0.0
O93 O 0.51684 0.16292 0.57235 0.0
O94 O 0.54932 0.18874 0.57933 0.0
C95 C 0.56809 0.19481 0.58675 0.0
C96 C 0.49537 0.15001 0.61306 0.0
O97 O 0.5743 0.1893 0.60629 0.0
C98 C 0.5512 0.12558 0.64587 0.0
O99 O 0.53316 0.19866 0.61863 0.0
O100 O 0.55221 0.17952 0.64353 0.0
O101 O 0.5062 0.13412 0.60431 0.0
O102 O 0.5031 0.16963 0.6133 0.0
C103 C 0.58252 0.12896 0.59626 0.0
O104 O 0.56686 0.13921 0.64138 0.0
O105 O 0.53507 0.12314 0.63257 0.0
C106 C 0.53924 0.19549 0.63854 0.0
O107 O 0.58561 0.14891 0.60239 0.0
O108 O 0.56476 0.11863 0.60091 0.0
C109 C 0.52501 0.14634 0.5622 0.0
Fe110 Fe 0.09166 0.31153 0.87595 0.0
Fe111 Fe 0.12779 0.28055 0.85633 0.0
O112 O 0.09936 0.2869 0.86135 0.0
Fe113 Fe 0.07853 0.26856 0.85131 0.0
O114 O 0.06726 0.29016 0.8335 0.0
O115 O 0.06583 0.31601 0.85965 0.0
O116 O 0.10566 0.32901 0.85514 0.0
C117 C 0.12564 0.32664 0.84883 0.0
C118 C 0.06151 0.28145 0.89297 0.0
O119 O 0.13675 0.30951 0.85387 0.0
C120 C 0.10885 0.23912 0.86795 0.0
O121 O 0.11647 0.31136 0.89459 0.0
O122 O 0.1339 0.28017 0.88588 0.0
O123 O 0.05852 0.27477 0.87325 0.0
O124 O 0.07671 0.29546 0.89749 0.0
C125 C 0.10985 0.26793 0.81631 0.0
O126 O 0.12386 0.25041 0.85828 0.0
O127 O 0.08893 0.24599 0.86865 0.0
C128 C 0.13067 0.2962 0.89916 0.0
O129 O 0.12374 0.28045 0.82607 0.0
O130 O 0.09441 0.25874 0.82729 0.0
C131 C 0.06047 0.30889 0.84037 0.0
Fe132 Fe 0.96644 0.87575 0.10476 0.0
Fe133 Fe 0.97604 0.82615 0.0976 0.0
O134 O 0.95908 0.84745 0.10908 0.0
Fe135 Fe 0.93489 0.8402 0.12462 0.0
O136 O 0.91679 0.85558 0.10546 0.0
O137 O 0.93772 0.88583 0.10347 0.0
O138 O 0.96552 0.87277 0.07438 0.0
C139 C 0.9775 0.85904 0.0638 0.0
C140 C 0.95219 0.87818 0.1481 0.0
O141 O 0.98577 0.8424 0.07373 0.0
C142 C 0.96422 0.8083 0.13926 0.0
O143 O 0.99651 0.8705 0.10568 0.0
O144 O 0.99972 0.83489 0.11429 0.0
O145 O 0.93667 0.86431 0.14393 0.0
O146 O 0.96795 0.88107 0.13445 0.0
C147 C 0.93463 0.81017 0.08797 0.0
O148 O 0.96984 0.80553 0.11918 0.0
O149 O 0.95146 0.82419 0.14482 0.0
C150 C 0.00762 0.85445 0.11386 0.0
O151 O 0.9532 0.81656 0.08034 0.0
O152 O 0.92873 0.81506 0.10777 0.0
C153 C 0.91947 0.87582 0.1001 0.0
Fe154 Fe 0.37585 0.72303 0.35423 0.0
Fe155 Fe 0.42533 0.73485 0.35493 0.0
O156 O 0.40343 0.71651 0.36211 0.0
Fe157 Fe 0.40895 0.69146 0.37693 0.0
O158 O 0.38594 0.6754 0.36345 0.0
O159 O 0.37454 0.6984 0.33726 0.0
O160 O 0.3834 0.73819 0.32863 0.0
C161 C 0.4008 0.73735 0.31667 0.0
C162 C 0.37047 0.70446 0.39752 0.0
O163 O 0.41941 0.73267 0.32528 0.0
C164 C 0.43936 0.72292 0.39625 0.0
O165 O 0.376 0.74829 0.37066 0.0
O166 O 0.40824 0.76015 0.35771 0.0
O167 O 0.391 0.70009 0.40014 0.0
O168 O 0.36289 0.70899 0.37827 0.0
C169 C 0.4432 0.69192 0.34661 0.0
O170 O 0.43269 0.73852 0.38392 0.0
O171 O 0.43341 0.70289 0.3924 0.0
C172 C 0.38982 0.76384 0.36752 0.0
O173 O 0.44609 0.71251 0.35074 0.0
O174 O 0.42673 0.68149 0.35463 0.0
C175 C 0.37694 0.67886 0.34451 0.0
Fe176 Fe 0.39034 0.02685 0.37132 0.0
Fe177 Fe 0.40046 0.02041 0.32177 0.0
O178 O 0.38938 0.03693 0.34362 0.0
Fe179 Fe 0.37745 0.06325 0.33756 0.0
O180 O 0.39755 0.0774 0.35569 0.0
O181 O 0.39403 0.05431 0.38409 0.0
O182 O 0.4207 0.02462 0.37056 0.0
C183 C 0.43108 0.01272 0.35662 0.0
C184 C 0.34906 0.04606 0.37207 0.0
O185 O 0.42153 0.00637 0.33892 0.0
C186 C 0.36225 0.0388 0.30192 0.0
O187 O 0.38647 0.99765 0.36324 0.0
O188 O 0.38005 0.99871 0.32711 0.0
O189 O 0.35633 0.06208 0.36019 0.0
O190 O 0.3603 0.0284 0.37418 0.0
C191 C 0.41612 0.0613 0.31003 0.0
O192 O 0.38177 0.03113 0.3003 0.0
O193 O 0.35667 0.05046 0.3187 0.0
C194 C 0.37735 0.98959 0.34592 0.0
O195 O 0.42111 0.04149 0.31532 0.0
O196 O 0.3969 0.06924 0.31439 0.0
C197 C 0.40105 0.07244 0.37591 0.0
Fe198 Fe 0.23292 0.15186 0.57435 0.0
Fe199 Fe 0.1902 0.1275 0.58885 0.0
O200 O 0.21532 0.14167 0.59581 0.0
Fe201 Fe 0.22288 0.1461 0.62402 0.0
O202 O 0.22363 0.17633 0.62043 0.0
O203 O 0.24402 0.17552 0.59018 0.0
O204 O 0.21108 0.17021 0.56443 0.0
C205 C 0.19198 0.16368 0.55836 0.0
C206 C 0.2634 0.13417 0.60301 0.0
O207 O 0.18501 0.14427 0.56345 0.0
C208 C 0.20622 0.10367 0.62723 0.0
O209 O 0.22547 0.13029 0.55418 0.0
O210 O 0.20544 0.10605 0.57311 0.0
O211 O 0.2528 0.14333 0.61886 0.0
O212 O 0.25564 0.13403 0.5834 0.0
C213 C 0.1768 0.1546 0.62349 0.0
O214 O 0.19087 0.10854 0.61336 0.0
O215 O 0.22268 0.1165 0.62992 0.0
C216 C 0.21856 0.11063 0.55718 0.0
O217 O 0.17345 0.14818 0.6037 0.0
O218 O 0.19433 0.14942 0.63395 0.0
C219 C 0.23603 0.18613 0.60655 0.0
Fe220 Fe 0.10216 0.9802 0.82258 0.0
Fe221 Fe 0.12466 0.93678 0.83807 0.0
O222 O 0.11172 0.96265 0.84441 0.0
Fe223 Fe 0.10795 0.97111 0.87246 0.0
O224 O 0.07777 0.97291 0.86907 0.0
O225 O 0.07925 0.99269 0.83842 0.0
O226 O 0.08273 0.95907 0.81318 0.0
C227 C 0.08834 0.93951 0.80761 0.0
C228 C 0.12185 0.01022 0.85045 0.0
O229 O 0.10727 0.93158 0.81312 0.0
C230 C 0.14967 0.9529 0.87569 0.0
O231 O 0.12297 0.97116 0.8024 0.0
O232 O 0.14661 0.95059 0.82149 0.0
O233 O 0.11182 1.00069 0.86643 0.0
O234 O 0.12123 0.00222 0.83094 0.0
C235 C 0.09752 0.92551 0.87349 0.0
O236 O 0.14397 0.93734 0.86236 0.0
O237 O 0.13757 0.96995 0.878 0.0
C238 C 0.14227 0.96322 0.80506 0.0
O239 O 0.10336 0.92148 0.85365 0.0
O240 O 0.1037 0.94302 0.88339 0.0
C241 C 0.06836 0.98531 0.85488 0.0
Fe242 Fe 0.31504 0.87164 0.08976 0.0
Fe243 Fe 0.28243 0.85406 0.12555 0.0
O244 O 0.29065 0.85663 0.09729 0.0
Fe245 Fe 0.27431 0.84383 0.07628 0.0
O246 O 0.29726 0.82573 0.06877 0.0
O247 O 0.322 0.85287 0.06616 0.0
O248 O 0.33259 0.85356 0.10697 0.0
C249 C 0.32935 0.84931 0.12737 0.0
C250 C 0.28741 0.88379 0.05539 0.0
O251 O 0.31082 0.85324 0.13664 0.0
C252 C 0.24217 0.86242 0.10236 0.0
O253 O 0.31255 0.89258 0.11249 0.0
O254 O 0.28091 0.88402 0.12905 0.0
O255 O 0.28162 0.86359 0.05435 0.0
O256 O 0.29901 0.89073 0.07166 0.0
C257 C 0.27149 0.81225 0.11104 0.0
O258 O 0.25257 0.8549 0.1192 0.0
O259 O 0.2506 0.86141 0.08303 0.0
C260 C 0.29676 0.89749 0.12583 0.0
O261 O 0.28326 0.82351 0.12443 0.0
O262 O 0.26361 0.82134 0.09377 0.0
C263 C 0.3161 0.83277 0.06244 0.0
Fe264 Fe 0.89852 0.46717 0.63203 0.0
Fe265 Fe 0.9043 0.47815 0.68152 0.0
O266 O 0.89378 0.46034 0.66037 0.0
Fe267 Fe 0.87886 0.43575 0.6677 0.0
O268 O 0.89923 0.41811 0.65321 0.0
O269 O 0.90065 0.43839 0.62259 0.0
O270 O 0.92875 0.46691 0.63571 0.0
C271 C 0.93899 0.47882 0.64976 0.0
C272 C 0.85555 0.45194 0.62916 0.0
O273 O 0.92855 0.48776 0.66573 0.0
C274 C 0.86241 0.46567 0.69835 0.0
O275 O 0.89702 0.49718 0.63651 0.0
O276 O 0.88744 0.50136 0.6717 0.0
O277 O 0.86009 0.43653 0.64306 0.0
O278 O 0.8689 0.46795 0.62618 0.0
C279 C 0.91466 0.43725 0.69867 0.0
O280 O 0.88223 0.472 0.70153 0.0
O281 O 0.85771 0.45202 0.68289 0.0
C282 C 0.88798 0.50849 0.65187 0.0
O283 O 0.92173 0.45603 0.69226 0.0
O284 O 0.89522 0.43057 0.69337 0.0
C285 C 0.9056 0.42096 0.63329 0.0
Fe286 Fe 0.7703 0.65473 0.92695 0.0
Fe287 Fe 0.81231 0.62849 0.91326 0.0
O288 O 0.78889 0.64534 0.9061 0.0
Fe289 Fe 0.78425 0.65306 0.87806 0.0
O290 O 0.77151 0.68033 0.88437 0.0
O291 O 0.77542 0.68388 0.92057 0.0
O292 O 0.79188 0.65737 0.94858 0.0
C293 C 0.81283 0.65972 0.94669 0.0
C294 C 0.74171 0.6443 0.89045 0.0
O295 O 0.82343 0.65032 0.93108 0.0
C296 C 0.79857 0.60794 0.87488 0.0
O297 O 0.76372 0.62641 0.9347 0.0
O298 O 0.79834 0.61466 0.93739 0.0
O299 O 0.75744 0.63936 0.87743 0.0
O300 O 0.74556 0.65396 0.9089 0.0
C301 C 0.82918 0.6582 0.88054 0.0
O302 O 0.80273 0.60564 0.89549 0.0
O303 O 0.79593 0.62717 0.86641 0.0
C304 C 0.77775 0.61276 0.94231 0.0
O305 O 0.83044 0.63959 0.89066 0.0
O306 O 0.81061 0.66737 0.87721 0.0
C307 C 0.77209 0.69248 0.90167 0.0
Fe308 Fe 0.59963 0.52925 0.18354 0.0
Fe309 Fe 0.62513 0.57093 0.16813 0.0
O310 O 0.61134 0.54548 0.1618 0.0
Fe311 Fe 0.60901 0.5363 0.13384 0.0
O312 O 0.57861 0.53594 0.13517 0.0
O313 O 0.57682 0.5177 0.16681 0.0
O314 O 0.58105 0.55176 0.19121 0.0
C315 C 0.58756 0.57094 0.19703 0.0
C316 C 0.61846 0.49677 0.15791 0.0
O317 O 0.60714 0.57759 0.19229 0.0
C318 C 0.6514 0.55283 0.13254 0.0
O319 O 0.62012 0.53767 0.20448 0.0
O320 O 0.64561 0.55642 0.18583 0.0
O321 O 0.61092 0.50672 0.14085 0.0
O322 O 0.61755 0.50572 0.17698 0.0
C323 C 0.60074 0.58239 0.13102 0.0
O324 O 0.64531 0.56908 0.14475 0.0
O325 O 0.63903 0.53594 0.13037 0.0
C326 C 0.63996 0.54441 0.20232 0.0
O327 O 0.6053 0.58672 0.15115 0.0
O328 O 0.60677 0.56432 0.12201 0.0
C329 C 0.56762 0.52462 0.14914 0.0
Fe330 Fe 0.72623 0.35811 0.38028 0.0
Fe331 Fe 0.73642 0.35703 0.43006 0.0
O332 O 0.71814 0.36386 0.40795 0.0
Fe333 Fe 0.69176 0.3762 0.4133 0.0
O334 O 0.6776 0.36227 0.38929 0.0
O335 O 0.70335 0.3391 0.37715 0.0
O336 O 0.74346 0.33368 0.38712 0.0
C337 C 0.74273 0.32058 0.40367 0.0
C338 C 0.7043 0.39978 0.37628 0.0
O339 O 0.73673 0.32767 0.42253 0.0
C340 C 0.7208 0.39669 0.44536 0.0
O341 O 0.74968 0.37677 0.38227 0.0
O342 O 0.76197 0.36289 0.41397 0.0
O343 O 0.69865 0.40087 0.39663 0.0
O344 O 0.71054 0.38136 0.36798 0.0
C345 C 0.69374 0.34461 0.44636 0.0
O346 O 0.73748 0.38573 0.43894 0.0
O347 O 0.70126 0.39158 0.43869 0.0
C348 C 0.76508 0.3743 0.39635 0.0
O349 O 0.71394 0.34995 0.44995 0.0
O350 O 0.68326 0.35244 0.42985 0.0
C351 C 0.68314 0.3443 0.37931 0.0
Fe352 Fe 0.33874 0.38086 0.06723 0.0
Fe353 Fe 0.37139 0.39538 0.03038 0.0
O354 O 0.3439 0.3935 0.04095 0.0
Fe355 Fe 0.32135 0.40441 0.0252 0.0
O356 O 0.31472 0.42415 0.04706 0.0
O357 O 0.31488 0.39915 0.07403 0.0
O358 O 0.35625 0.40146 0.08136 0.0
C359 C 0.37595 0.40648 0.07571 0.0
C360 C 0.30343 0.36486 0.04291 0.0
O361 O 0.38434 0.39951 0.05766 0.0
C362 C 0.34546 0.38317 0.99297 0.0
O363 O 0.3621 0.36069 0.06548 0.0
O364 O 0.37527 0.3654 0.03162 0.0
O365 O 0.3009 0.3845 0.03574 0.0
O366 O 0.32054 0.35965 0.05428 0.0
C367 C 0.35527 0.43614 0.01725 0.0
O368 O 0.36295 0.39155 1.00139 0.0
O369 O 0.32676 0.38515 0.00248 0.0
C370 C 0.37382 0.3539 0.04917 0.0
O371 O 0.36984 0.42564 0.02823 0.0
O372 O 0.33735 0.42661 0.01155 0.0
C373 C 0.30985 0.41845 0.06676 0.0
Fe374 Fe 0.82387 0.1068 0.98805 0.0
Fe375 Fe 0.84206 0.12518 0.94364 0.0
O376 O 0.84661 0.11318 0.97037 0.0
Fe377 Fe 0.87402 0.10732 0.97942 0.0
O378 O 0.86644 0.08288 0.99644 0.0
O379 O 0.83106 0.07741 0.98889 0.0
O380 O 0.80457 0.09974 0.96513 0.0
C381 C 0.80855 0.09406 0.94512 0.0
C382 C 0.85642 0.12461 0.01737 0.0
O383 O 0.8255 0.10142 0.935 0.0
C384 C 0.8788 0.14879 0.95715 0.0
O385 O 0.81527 0.1356 0.98849 0.0
O386 O 0.81663 0.14095 0.95222 0.0
O387 O 0.87139 0.12613 0.00272 0.0
O388 O 0.83913 0.11282 0.01403 0.0
C389 C 0.87633 0.09326 0.93636 0.0
O390 O 0.85875 0.1498 0.95053 0.0
O391 O 0.88689 0.13055 0.96417 0.0
C392 C 0.80964 0.14651 0.97149 0.0
O393 O 0.8663 0.11102 0.93037 0.0
O394 O 0.87795 0.08821 0.95668 0.0
C395 C 0.8497 0.07002 0.99522 0.0
Fe396 Fe 0.12522 0.58786 0.19031 0.0
Fe397 Fe 0.1421 0.62358 0.22303 0.0
O398 O 0.13802 0.5952 0.216 0.0
Fe399 Fe 0.14715 0.57414 0.23466 0.0
O400 O 0.16627 0.56312 0.21406 0.0
O401 O 0.14192 0.56231 0.18648 0.0
O402 O 0.14708 0.60222 0.17458 0.0
C403 C 0.1528 0.62227 0.17759 0.0
C404 C 0.10649 0.557 0.21856 0.0
O405 O 0.14618 0.63308 0.19438 0.0
C406 C 0.1288 0.60388 0.26367 0.0
O407 O 0.10649 0.61256 0.18952 0.0
O408 O 0.11244 0.62911 0.22177 0.0
O409 O 0.12561 0.55412 0.22688 0.0
O410 O 0.10283 0.57252 0.20463 0.0
C411 C 0.18152 0.60625 0.23794 0.0
O412 O 0.13854 0.61921 0.2529 0.0
O413 O 0.12852 0.58408 0.25642 0.0
C414 C 0.10047 0.62615 0.20471 0.0
O415 O 0.17229 0.61996 0.22486 0.0
O416 O 0.17054 0.59016 0.24604 0.0
C417 C 0.1607 0.5569 0.19471 0.0
Fe418 Fe 0.68116 0.90186 0.47753 0.0
Fe419 Fe 0.66442 0.87654 0.43631 0.0
O420 O 0.6588 0.89075 0.4617 0.0
Fe421 Fe 0.63111 0.89424 0.47132 0.0
O422 O 0.63368 0.92462 0.47169 0.0
O423 O 0.66537 0.92493 0.48978 0.0
O424 O 0.68869 0.92036 0.45494 0.0
C425 C 0.6939 0.91374 0.43562 0.0
C426 C 0.65571 0.88352 0.5103 0.0
O427 O 0.68876 0.89417 0.42911 0.0
C428 C 0.62794 0.85172 0.45496 0.0
O429 O 0.70152 0.88113 0.46853 0.0
O430 O 0.68198 0.85576 0.45069 0.0
O431 O 0.63868 0.89179 0.50082 0.0
O432 O 0.67459 0.88385 0.50091 0.0
C433 C 0.62783 0.90209 0.42514 0.0
O434 O 0.6407 0.85682 0.43879 0.0
O435 O 0.62618 0.86445 0.47163 0.0
C436 C 0.6989 0.86125 0.46214 0.0
O437 O 0.64762 0.89649 0.42051 0.0
O438 O 0.61893 0.89707 0.44356 0.0
C439 C 0.64809 0.93492 0.48305 0.0
Fe440 Fe 0.35094 0.42656 0.73204 0.0
Fe441 Fe 0.37547 0.41406 0.68882 0.0
O442 O 0.36183 0.40599 0.71384 0.0
Fe443 Fe 0.35864 0.37741 0.72072 0.0
O444 O 0.32818 0.3797 0.72146 0.0
O445 O 0.32803 0.40945 0.74269 0.0
O446 O 0.33209 0.43653 0.71069 0.0
C447 C 0.33822 0.44328 0.69168 0.0
C448 C 0.3694 0.39784 0.7619 0.0
O449 O 0.35753 0.4387 0.68417 0.0
C450 C 0.40108 0.37646 0.70399 0.0
O451 O 0.37149 0.44779 0.72494 0.0
O452 O 0.39639 0.43068 0.70413 0.0
O453 O 0.36099 0.38198 0.75074 0.0
O454 O 0.36925 0.41758 0.75444 0.0
C455 C 0.35018 0.37839 0.67469 0.0
O456 O 0.39542 0.3903 0.68888 0.0
O457 O 0.38854 0.37298 0.72054 0.0
C458 C 0.391 0.44651 0.71714 0.0
O459 O 0.35523 0.39866 0.67202 0.0
O460 O 0.35597 0.36781 0.69193 0.0
C461 C 0.31794 0.39296 0.73425 0.0
Fe462 Fe 0.12934 0.60907 0.53073 0.0
Fe463 Fe 0.17927 0.60074 0.52429 0.0
O464 O 0.15705 0.61138 0.54064 0.0
Fe465 Fe 0.16257 0.62402 0.56688 0.0
O466 O 0.14537 0.6032 0.58131 0.0
O467 O 0.11698 0.60572 0.55826 0.0
O468 O 0.13117 0.57871 0.52924 0.0
C469 C 0.1458 0.56828 0.51824 0.0
C470 C 0.12723 0.65082 0.54889 0.0
O471 O 0.1631 0.57825 0.51146 0.0
C472 C 0.19748 0.64035 0.54202 0.0
O473 O 0.13694 0.6122 0.50153 0.0
O474 O 0.17286 0.61979 0.50154 0.0
O475 O 0.13906 0.64412 0.56521 0.0
O476 O 0.12546 0.63908 0.53149 0.0
C477 C 0.192 0.58681 0.56567 0.0
O478 O 0.19971 0.62095 0.53412 0.0
O479 O 0.1806 0.64536 0.55383 0.0
C480 C 0.1538 0.62123 0.49263 0.0
O481 O 0.18692 0.58122 0.546 0.0
O482 O 0.18663 0.60587 0.57332 0.0
C483 C 0.12566 0.59797 0.5758 0.0
Fe484 Fe 0.64956 0.87965 0.78626 0.0
Fe485 Fe 0.65949 0.9291 0.77826 0.0
O486 O 0.64623 0.90797 0.79408 0.0
Fe487 Fe 0.62995 0.91534 0.81769 0.0
O488 O 0.64787 0.89883 0.83608 0.0
O489 O 0.6489 0.86885 0.81479 0.0
O490 O 0.67992 0.88113 0.7888 0.0
C491 C 0.69188 0.89494 0.77827 0.0
C492 C 0.60566 0.87866 0.79846 0.0
O493 O 0.6832 0.91206 0.76957 0.0
C494 C 0.61815 0.94892 0.78886 0.0
O495 O 0.65054 0.88557 0.75637 0.0
O496 O 0.64378 0.92159 0.75349 0.0
O497 O 0.60978 0.89198 0.81451 0.0
O498 O 0.61976 0.87585 0.7831 0.0
C499 C 0.66769 0.94409 0.82036 0.0
O500 O 0.63856 0.95045 0.7839 0.0
O501 O 0.61114 0.93274 0.80059 0.0
C502 C 0.64375 0.90219 0.74521 0.0
O503 O 0.67589 0.93757 0.80208 0.0
O504 O 0.64753 0.93962 0.82536 0.0
C505 C 0.65258 0.87846 0.8332 0.0
Fe506 Fe 0.87291 0.09208 0.31484 0.0
Fe507 Fe 0.8502 0.12737 0.28571 0.0
O508 O 0.85761 0.09926 0.29045 0.0
Fe509 Fe 0.84962 0.07849 0.27109 0.0
O510 O 0.84487 0.05691 0.29256 0.0
O511 O 0.85032 0.0745 0.32446 0.0
O512 O 0.86076 0.11466 0.33227 0.0
C513 C 0.84198 0.12428 0.33008 0.0
C514 C 0.89074 0.06268 0.28179 0.0
O515 O 0.8339 0.12772 0.311 0.0
C516 C 0.86347 0.11495 0.24413 0.0
O517 O 0.89637 0.10974 0.30646 0.0
O518 O 0.87503 0.13884 0.29962 0.0
O519 O 0.87829 0.07031 0.26676 0.0
O520 O 0.88737 0.06774 0.3021 0.0
C521 C 0.81191 0.10414 0.27013 0.0
O522 O 0.86597 0.12834 0.26015 0.0
O523 O 0.85304 0.09665 0.24658 0.0
C524 C 0.89425 0.13046 0.30268 0.0
O525 O 0.82412 0.12137 0.27069 0.0
O526 O 0.82017 0.08513 0.27367 0.0
C527 C 0.84146 0.05887 0.31341 0.0
C528 C 0.9634 0.37346 0.36397 0.0
C529 C 0.96868 0.35204 0.37194 0.0
C530 C 0.94153 0.37883 0.35839 0.0
C531 C 0.88435 0.3575 0.35075 0.0
H532 H 0.86839 0.40708 0.38945 0.0
C533 C 0.80521 0.38026 0.40557 0.0
C534 C 0.78799 0.38005 0.38967 0.0
C535 C 0.8274 0.38175 0.39872 0.0
C536 C 0.87267 0.39348 0.3783 0.0
H537 H 0.95599 0.3187 0.37802 0.0
H538 H 0.91735 0.32823 0.36859 0.0
H539 H 0.90763 0.39842 0.38297 0.0
H540 H 0.78033 0.38266 0.35427 0.0
H541 H 0.81924 0.38472 0.3424 0.0
H542 H 0.84921 0.35203 0.347 0.0
C543 C 0.9302 0.34081 0.36657 0.0
C544 C 0.89505 0.38858 0.37446 0.0
C545 C 0.95223 0.33537 0.37206 0.0
C546 C 0.79326 0.38274 0.36692 0.0
C547 C 0.81546 0.38384 0.36007 0.0
C548 C 0.86191 0.36261 0.35437 0.0
C549 C 0.92458 0.36289 0.36079 0.0
C550 C 0.90107 0.37015 0.3612 0.0
C551 C 0.83265 0.38277 0.37589 0.0
C552 C 0.85598 0.38019 0.36874 0.0
H553 H 0.97599 0.38645 0.36324 0.0
H554 H 0.93763 0.39584 0.35359 0.0
H555 H 0.88864 0.34324 0.34048 0.0
H556 H 0.80159 0.37832 0.42319 0.0
H557 H 0.84048 0.38078 0.41119 0.0
C558 C 0.88087 0.548 0.66362 0.0
C559 C 0.88203 0.53174 0.64676 0.0
C560 C 0.87974 0.57059 0.65791 0.0
C561 C 0.86972 0.61729 0.6389 0.0
H562 H 0.91767 0.63318 0.59815 0.0
C563 C 0.88326 0.70736 0.61416 0.0
C564 C 0.9044 0.71515 0.62066 0.0
C565 C 0.87936 0.6846 0.61193 0.0
C566 C 0.90414 0.6289 0.60937 0.0
H567 H 0.88037 0.52603 0.61095 0.0
H568 H 0.87854 0.56538 0.60115 0.0
H569 H 0.91041 0.59385 0.6066 0.0
H570 H 0.93871 0.70574 0.62736 0.0
H571 H 0.93185 0.66562 0.62339 0.0
H572 H 0.86377 0.65233 0.6421 0.0
C573 C 0.87899 0.56072 0.61864 0.0
C574 C 0.8999 0.60651 0.61412 0.0
C575 C 0.88002 0.53826 0.6243 0.0
C576 C 0.92225 0.70008 0.62243 0.0
C577 C 0.91832 0.67719 0.62017 0.0
C578 C 0.87376 0.63964 0.63393 0.0
C579 C 0.87974 0.57705 0.63534 0.0
C580 C 0.88284 0.6006 0.62913 0.0
C581 C 0.89658 0.66933 0.61607 0.0
C582 C 0.89117 0.6456 0.61934 0.0
H583 H 0.88224 0.5434 0.68106 0.0
H584 H 0.88029 0.58301 0.67106 0.0
H585 H 0.85651 0.61305 0.65052 0.0
H586 H 0.86933 0.71876 0.61227 0.0
H587 H 0.86258 0.67886 0.60832 0.0
C588 C 0.71414 0.63856 0.85949 0.0
C589 C 0.71861 0.64357 0.88203 0.0
C590 C 0.69272 0.64162 0.85077 0.0
C591 C 0.64203 0.67408 0.86184 0.0
H592 H 0.61029 0.62778 0.82961 0.0
C593 C 0.55074 0.63888 0.86437 0.0
C594 C 0.53869 0.65896 0.8657 0.0
C595 C 0.57253 0.63878 0.85639 0.0
C596 C 0.61904 0.64101 0.83831 0.0
H597 H 0.70384 0.65413 0.91342 0.0
H598 H 0.66658 0.65911 0.89828 0.0
H599 H 0.65016 0.62338 0.83717 0.0
H600 H 0.53905 0.69424 0.85731 0.0
H601 H 0.57733 0.69402 0.84326 0.0
H602 H 0.61088 0.69089 0.86479 0.0
C603 C 0.67975 0.65349 0.88722 0.0
C604 C 0.64184 0.63853 0.84253 0.0
C605 C 0.70103 0.6504 0.89593 0.0
C606 C 0.54815 0.6786 0.857 0.0
C607 C 0.57001 0.67846 0.84888 0.0
C608 C 0.6193 0.67652 0.85776 0.0
C609 C 0.67556 0.64978 0.86445 0.0
C610 C 0.65315 0.65449 0.85542 0.0
C611 C 0.58273 0.65872 0.84942 0.0
C612 C 0.60732 0.65941 0.84707 0.0
H613 H 0.72735 0.63317 0.84837 0.0
H614 H 0.68979 0.63841 0.8332 0.0
H615 H 0.6506 0.6869 0.87133 0.0
H616 H 0.54378 0.62336 0.87052 0.0
H617 H 0.58185 0.6233 0.85729 0.0
C618 C 0.58435 0.30152 0.13006 0.0
C619 C 0.60269 0.28692 0.13058 0.0
C620 C 0.5878 0.32459 0.13025 0.0
C621 C 0.63077 0.36879 0.12404 0.0
H622 H 0.59475 0.39928 0.16839 0.0
C623 C 0.62312 0.45852 0.17413 0.0
C624 C 0.62408 0.47295 0.15567 0.0
C625 C 0.62387 0.43543 0.17093 0.0
C626 C 0.60518 0.39091 0.15621 0.0
H627 H 0.63887 0.28486 0.12945 0.0
H628 H 0.64482 0.32491 0.13005 0.0
H629 H 0.5876 0.36014 0.16024 0.0
H630 H 0.62883 0.47478 0.11977 0.0
H631 H 0.62986 0.43469 0.11422 0.0
H632 H 0.64867 0.3995 0.12041 0.0
C633 C 0.62783 0.3187 0.12955 0.0
C634 C 0.60076 0.36863 0.15119 0.0
C635 C 0.62441 0.29573 0.12936 0.0
C636 C 0.62773 0.46402 0.13429 0.0
C637 C 0.62849 0.44103 0.13111 0.0
C638 C 0.63523 0.39108 0.12911 0.0
C639 C 0.60959 0.33334 0.13086 0.0
C640 C 0.61346 0.35736 0.13501 0.0
C641 C 0.62571 0.4265 0.14927 0.0
C642 C 0.62243 0.40237 0.14521 0.0
H643 H 0.56742 0.2952 0.13081 0.0
H644 H 0.57343 0.33557 0.13079 0.0
H645 H 0.64081 0.36052 0.11147 0.0
H646 H 0.62048 0.46496 0.19082 0.0
H647 H 0.62213 0.42455 0.18528 0.0
C648 C 0.45667 0.1632 0.62171 0.0
C649 C 0.47217 0.14572 0.61984 0.0
C650 C 0.43405 0.15843 0.62474 0.0
C651 C 0.39469 0.11442 0.61073 0.0
H652 H 0.35314 0.15018 0.64512 0.0
C653 C 0.29443 0.1256 0.62919 0.0
C654 C 0.28665 0.12741 0.60711 0.0
C655 C 0.31711 0.12311 0.6335 0.0
C656 C 0.36457 0.13979 0.63571 0.0
H657 H 0.47664 0.10977 0.62186 0.0
H658 H 0.43726 0.10156 0.62729 0.0
H659 H 0.39319 0.15598 0.64974 0.0
H660 H 0.2962 0.12607 0.57218 0.0
H661 H 0.33602 0.12194 0.57975 0.0
H662 H 0.36606 0.09858 0.59633 0.0
C663 C 0.44246 0.11883 0.62584 0.0
C664 C 0.38744 0.14328 0.6382 0.0
C665 C 0.46497 0.12357 0.62275 0.0
C666 C 0.30175 0.12488 0.58937 0.0
C667 C 0.32452 0.12242 0.5937 0.0
C668 C 0.37182 0.11098 0.60818 0.0
C669 C 0.42672 0.13615 0.62607 0.0
C670 C 0.40267 0.1309 0.62545 0.0
C671 C 0.33242 0.12235 0.61582 0.0
C672 C 0.35657 0.12391 0.62036 0.0
H673 H 0.4618 0.18043 0.61967 0.0
H674 H 0.42221 0.1721 0.62479 0.0
H675 H 0.40608 0.10481 0.60048 0.0
H676 H 0.28309 0.12705 0.64321 0.0
H677 H 0.32278 0.12264 0.65068 0.0
C678 C 0.09753 0.20012 0.87778 0.0
C679 C 0.11433 0.21617 0.87474 0.0
C680 C 0.10322 0.17766 0.88033 0.0
C681 C 0.14661 0.14006 0.86165 0.0
H682 H 0.11499 0.09672 0.89783 0.0
C683 C 0.13187 0.04852 0.83724 0.0
C684 C 0.13081 0.03268 0.85446 0.0
C685 C 0.13598 0.07092 0.8423 0.0
C686 C 0.12429 0.10864 0.8879 0.0
H687 H 0.15018 0.22181 0.87436 0.0
H688 H 0.15998 0.18264 0.87881 0.0
H689 H 0.10932 0.13647 0.90461 0.0
H690 H 0.13576 0.02708 0.88994 0.0
H691 H 0.14306 0.06611 0.89867 0.0
H692 H 0.16097 0.11221 0.8444 0.0
C693 C 0.14251 0.18732 0.87871 0.0
C694 C 0.12087 0.13133 0.89166 0.0
C695 C 0.13685 0.20969 0.87617 0.0
C696 C 0.136 0.03912 0.87642 0.0
C697 C 0.14017 0.0614 0.88144 0.0
C698 C 0.14994 0.11735 0.85779 0.0
C699 C 0.12575 0.17104 0.87996 0.0
C700 C 0.13162 0.14721 0.87825 0.0
C701 C 0.13919 0.07761 0.86459 0.0
C702 C 0.13844 0.10147 0.87057 0.0
H703 H 0.08005 0.20468 0.87691 0.0
H704 H 0.08997 0.16536 0.88119 0.0
H705 H 0.15492 0.152 0.8509 0.0
H706 H 0.12804 0.04394 0.82016 0.0
H707 H 0.13508 0.08315 0.829 0.0
C708 C 0.04596 0.84018 0.12244 0.0
C709 C 0.03133 0.85821 0.11918 0.0
C710 C 0.0689 0.84389 0.12423 0.0
C711 C 0.1106 0.88381 0.10518 0.0
H712 H 0.15037 0.85005 0.14351 0.0
C713 C 0.21018 0.87231 0.12685 0.0
C714 C 0.2186 0.86877 0.10523 0.0
C715 C 0.18737 0.87505 0.13027 0.0
C716 C 0.13946 0.85985 0.13292 0.0
H717 H 0.02899 0.89438 0.11713 0.0
H718 H 0.06896 0.90077 0.12039 0.0
H719 H 0.11009 0.84659 0.14836 0.0
H720 H 0.21002 0.86694 0.07008 0.0
H721 H 0.16996 0.87152 0.07612 0.0
H722 H 0.13998 0.89682 0.08953 0.0
C723 C 0.06275 0.88378 0.12103 0.0
C724 C 0.11645 0.85768 0.13556 0.0
C725 C 0.03988 0.88009 0.11924 0.0
C726 C 0.20397 0.86954 0.08693 0.0
C727 C 0.18107 0.87224 0.09038 0.0
C728 C 0.13362 0.88592 0.10249 0.0
C729 C 0.07751 0.8657 0.12287 0.0
C730 C 0.10183 0.86942 0.12153 0.0
C731 C 0.17255 0.87431 0.11216 0.0
C732 C 0.14824 0.87375 0.11615 0.0
H733 H 0.03984 0.82314 0.1226 0.0
H734 H 0.07995 0.82963 0.12555 0.0
H735 H 0.09968 0.89286 0.09394 0.0
H736 H 0.22113 0.87222 0.14126 0.0
H737 H 0.18125 0.87709 0.14718 0.0
C738 C 0.35958 0.79204 0.37374 0.0
C739 C 0.38227 0.78711 0.37003 0.0
C740 C 0.35172 0.81387 0.3712 0.0
C741 C 0.34444 0.86531 0.3738 0.0
H742 H 0.36925 0.89383 0.32118 0.0
C743 C 0.36439 0.95712 0.36834 0.0
C744 C 0.36627 0.96769 0.34749 0.0
C745 C 0.35693 0.93517 0.36976 0.0
C746 C 0.36157 0.88607 0.33559 0.0
H747 H 0.41483 0.80143 0.36302 0.0
H748 H 0.40114 0.83939 0.35883 0.0
H749 H 0.37607 0.85448 0.32768 0.0
H750 H 0.35926 0.96457 0.31206 0.0
H751 H 0.34614 0.92603 0.31456 0.0
H752 H 0.33059 0.89723 0.38211 0.0
C753 C 0.38937 0.82631 0.36304 0.0
C754 C 0.36582 0.86359 0.33949 0.0
C755 C 0.39721 0.80461 0.36561 0.0
C756 C 0.35851 0.95664 0.3283 0.0
C757 C 0.35093 0.93463 0.32974 0.0
C758 C 0.34015 0.88791 0.3699 0.0
C759 C 0.36647 0.83093 0.36492 0.0
C760 C 0.35824 0.85336 0.35914 0.0
C761 C 0.35108 0.92337 0.35035 0.0
C762 C 0.34962 0.89873 0.3513 0.0
H763 H 0.34766 0.77891 0.37731 0.0
H764 H 0.33402 0.81717 0.37296 0.0
H765 H 0.33822 0.85761 0.38894 0.0
H766 H 0.36978 0.96535 0.38353 0.0
H767 H 0.35744 0.927 0.38588 0.0
C768 C 0.36777 0.36945 0.96096 0.0
C769 C 0.34678 0.3747 0.96998 0.0
C770 C 0.37023 0.3662 0.93812 0.0
C771 C 0.37149 0.35745 0.88858 0.0
H772 H 0.34152 0.40564 0.85736 0.0
C773 C 0.3753 0.3716 0.79343 0.0
C774 C 0.3742 0.39372 0.78563 0.0
C775 C 0.37429 0.36709 0.81619 0.0
C776 C 0.35021 0.39228 0.86592 0.0
H777 H 0.31144 0.37803 0.96273 0.0
H778 H 0.31573 0.37212 0.92257 0.0
H779 H 0.33233 0.39822 0.89611 0.0
H780 H 0.37377 0.42857 0.79554 0.0
H781 H 0.37251 0.42068 0.8355 0.0
H782 H 0.39003 0.35218 0.85849 0.0
C783 C 0.33034 0.37106 0.93318 0.0
C784 C 0.34456 0.38767 0.88797 0.0
C785 C 0.32787 0.37432 0.95613 0.0
C786 C 0.37438 0.41136 0.80106 0.0
C787 C 0.37343 0.40683 0.82389 0.0
C788 C 0.37722 0.36213 0.86649 0.0
C789 C 0.35171 0.36808 0.92389 0.0
C790 C 0.35534 0.37041 0.89962 0.0
C791 C 0.37232 0.38465 0.83155 0.0
C792 C 0.36684 0.3798 0.85508 0.0
H793 H 0.38258 0.36919 0.97137 0.0
H794 H 0.38691 0.36398 0.93151 0.0
H795 H 0.38001 0.34399 0.89717 0.0
H796 H 0.37551 0.35765 0.78189 0.0
H797 H 0.37352 0.34984 0.82159 0.0
C798 C 0.88236 0.14102 0.04565 0.0
C799 C 0.86079 0.13379 0.03977 0.0
C800 C 0.88719 0.14694 0.06765 0.0
C801 C 0.86244 0.15984 0.12254 0.0
H802 H 0.90827 0.12038 0.14589 0.0
C803 C 0.87352 0.14469 0.21666 0.0
C804 C 0.87037 0.12194 0.22163 0.0
C805 C 0.87789 0.15144 0.19479 0.0
C806 C 0.89574 0.1318 0.13955 0.0
H807 H 0.82697 0.12891 0.05178 0.0
H808 H 0.83543 0.13924 0.0902 0.0
H809 H 0.90425 0.12498 0.10559 0.0
H810 H 0.87072 0.08836 0.20807 0.0
H811 H 0.87856 0.10016 0.16991 0.0
H812 H 0.85307 0.16554 0.15654 0.0
C813 C 0.84858 0.14029 0.07782 0.0
C814 C 0.89352 0.13457 0.11656 0.0
C815 C 0.84379 0.13414 0.05589 0.0
C816 C 0.87287 0.106 0.20465 0.0
C817 C 0.87758 0.11273 0.18289 0.0
C818 C 0.86483 0.15726 0.14556 0.0
C819 C 0.87046 0.14604 0.08401 0.0
C820 C 0.87621 0.14781 0.10788 0.0
C821 C 0.8796 0.13552 0.17771 0.0
C822 C 0.88084 0.14244 0.15416 0.0
H823 H 0.89579 0.14113 0.03353 0.0
H824 H 0.90416 0.15141 0.07207 0.0
H825 H 0.84906 0.17022 0.11618 0.0
H826 H 0.87174 0.15734 0.22947 0.0
H827 H 0.87937 0.1691 0.19111 0.0
C828 C 0.12086 0.59163 0.30282 0.0
C829 C 0.12234 0.60873 0.28685 0.0
C830 C 0.12001 0.59698 0.32551 0.0
C831 C 0.1118 0.61523 0.37282 0.0
H832 H 0.1618 0.65376 0.38803 0.0
C833 C 0.12988 0.63699 0.46301 0.0
C834 C 0.15113 0.62973 0.46983 0.0
C835 C 0.12512 0.63975 0.44048 0.0
C836 C 0.1477 0.64317 0.38395 0.0
H837 H 0.12136 0.64465 0.28174 0.0
H838 H 0.12005 0.65383 0.3213 0.0
H839 H 0.15269 0.64685 0.34878 0.0
H840 H 0.18474 0.62202 0.45889 0.0
H841 H 0.17636 0.62693 0.41913 0.0
H842 H 0.10715 0.61108 0.40795 0.0
C843 C 0.12 0.63642 0.31633 0.0
C844 C 0.14239 0.63932 0.36162 0.0
C845 C 0.12073 0.63112 0.29375 0.0
C846 C 0.16823 0.62756 0.45398 0.0
C847 C 0.16343 0.63036 0.43131 0.0
C848 C 0.11692 0.61932 0.39514 0.0
C849 C 0.12063 0.61942 0.33236 0.0
C850 C 0.12461 0.62508 0.35592 0.0
C851 C 0.14155 0.63538 0.42443 0.0
C852 C 0.13508 0.63307 0.40085 0.0
H853 H 0.12194 0.57424 0.29795 0.0
H854 H 0.12046 0.5836 0.33769 0.0
H855 H 0.09806 0.60417 0.36875 0.0
H856 H 0.11653 0.63919 0.47502 0.0
H857 H 0.10825 0.64405 0.43552 0.0
C858 C 0.67328 0.87626 0.54749 0.0
C859 C 0.65406 0.87776 0.53413 0.0
C860 C 0.67133 0.87516 0.57068 0.0
C861 C 0.63156 0.86683 0.61725 0.0
H862 H 0.66834 0.91133 0.6467 0.0
C863 C 0.63748 0.87728 0.71262 0.0
C864 C 0.63964 0.89903 0.72119 0.0
C865 C 0.63701 0.87365 0.68968 0.0
C866 C 0.6578 0.89902 0.63865 0.0
H867 H 0.6178 0.87701 0.5343 0.0
H868 H 0.61446 0.87531 0.57466 0.0
H869 H 0.67353 0.90407 0.60706 0.0
H870 H 0.64136 0.93419 0.71254 0.0
H871 H 0.64036 0.9278 0.67225 0.0
H872 H 0.61549 0.8622 0.64883 0.0
C873 C 0.63099 0.87505 0.56733 0.0
C874 C 0.66106 0.89455 0.61607 0.0
C875 C 0.63293 0.8762 0.54421 0.0
C876 C 0.63986 0.91723 0.70641 0.0
C877 C 0.63945 0.91357 0.68339 0.0
C878 C 0.62832 0.87129 0.63988 0.0
C879 C 0.65016 0.8754 0.5808 0.0
C880 C 0.64792 0.87849 0.60514 0.0
C881 C 0.63868 0.8917 0.67487 0.0
C882 C 0.64133 0.88752 0.65073 0.0
H883 H 0.6898 0.87719 0.54017 0.0
H884 H 0.68637 0.87502 0.58074 0.0
H885 H 0.62123 0.85435 0.6092 0.0
H886 H 0.637 0.86293 0.72363 0.0
H887 H 0.63648 0.85662 0.68359 0.0
C888 C 0.15972 0.5328 0.50139 0.0
C889 C 0.14199 0.54495 0.51087 0.0
C890 C 0.15622 0.51153 0.49258 0.0
C891 C 0.11648 0.46403 0.49 0.0
H892 H 0.14282 0.45515 0.43148 0.0
C893 C 0.095 0.41115 0.40737 0.0
C894 C 0.091 0.38986 0.41625 0.0
C895 C 0.10582 0.42739 0.42006 0.0
C896 C 0.1355 0.45728 0.44788 0.0
H897 H 0.10687 0.54374 0.51954 0.0
H898 H 0.10061 0.50656 0.50371 0.0
H899 H 0.15143 0.48885 0.45248 0.0
H900 H 0.09569 0.36838 0.44493 0.0
H901 H 0.11468 0.39705 0.46745 0.0
H902 H 0.09974 0.43279 0.48479 0.0
C903 C 0.11731 0.51351 0.5033 0.0
C904 C 0.14053 0.47654 0.46001 0.0
C905 C 0.12084 0.53487 0.51225 0.0
C906 C 0.09899 0.38462 0.43765 0.0
C907 C 0.10956 0.40106 0.45057 0.0
C908 C 0.11149 0.44467 0.47785 0.0
C909 C 0.13488 0.50183 0.49291 0.0
C910 C 0.13078 0.48037 0.48105 0.0
C911 C 0.11254 0.42279 0.44207 0.0
C912 C 0.12058 0.44135 0.45644 0.0
H913 H 0.17634 0.53988 0.50042 0.0
H914 H 0.17023 0.50281 0.48517 0.0
H915 H 0.10889 0.46637 0.50624 0.0
H916 H 0.0887 0.4156 0.39099 0.0
H917 H 0.10762 0.44399 0.41309 0.0
C918 C 0.86401 0.85451 0.67621 0.0
C919 C 0.86306 0.83132 0.67281 0.0
C920 C 0.84969 0.8647 0.69182 0.0
C921 C 0.8131 0.85203 0.74046 0.0
H922 H 0.77496 0.89898 0.71753 0.0
C923 C 0.72388 0.86807 0.77337 0.0
C924 C 0.71551 0.88997 0.77287 0.0
C925 C 0.74526 0.86342 0.76502 0.0
C926 C 0.78571 0.88619 0.72446 0.0
H927 H 0.84745 0.80052 0.68397 0.0
H928 H 0.82309 0.81802 0.7109 0.0
H929 H 0.80752 0.88729 0.69611 0.0
H930 H 0.72361 0.92439 0.76488 0.0
H931 H 0.76081 0.91635 0.75078 0.0
H932 H 0.79089 0.85035 0.76844 0.0
C933 C 0.83459 0.82849 0.70164 0.0
C934 C 0.80443 0.87955 0.71216 0.0
C935 C 0.84843 0.81848 0.68595 0.0
C936 C 0.72943 0.90726 0.76516 0.0
C937 C 0.75075 0.90266 0.75697 0.0
C938 C 0.79443 0.85868 0.75278 0.0
C939 C 0.83474 0.85171 0.70458 0.0
C940 C 0.81791 0.86191 0.71968 0.0
C941 C 0.7587 0.88061 0.75617 0.0
C942 C 0.78013 0.87541 0.74463 0.0
H943 H 0.87519 0.86476 0.66636 0.0
H944 H 0.85014 0.88268 0.69378 0.0
H945 H 0.82337 0.83856 0.74681 0.0
H946 H 0.71356 0.85439 0.77918 0.0
H947 H 0.75078 0.84621 0.76452 0.0
C948 C 0.39953 0.61008 0.91637 0.0
C949 C 0.42298 0.61073 0.91636 0.0
C950 C 0.38822 0.59454 0.92987 0.0
C951 C 0.39568 0.55811 0.97928 0.0
H952 H 0.35643 0.51642 0.94911 0.0
C953 C 0.381 0.46891 0.01187 0.0
C954 C 0.35995 0.45898 0.00885 0.0
C955 C 0.38557 0.48996 0.00281 0.0
C956 C 0.36699 0.52812 0.95798 0.0
H957 H 0.45289 0.59665 0.93123 0.0
H958 H 0.43335 0.57022 0.9548 0.0
H959 H 0.36898 0.54998 0.92966 0.0
H960 H 0.32694 0.46383 0.99462 0.0
H961 H 0.33488 0.50055 0.9791 0.0
H962 H 0.39423 0.5361 0.00739 0.0
C963 C 0.4236 0.58137 0.94439 0.0
C964 C 0.37412 0.54739 0.94681 0.0
C965 C 0.4348 0.5964 0.93071 0.0
C966 C 0.34342 0.47087 0.99709 0.0
C967 C 0.34798 0.49192 0.98809 0.0
C968 C 0.38848 0.53895 0.99047 0.0
C969 C 0.40024 0.57998 0.94393 0.0
C970 C 0.38909 0.5622 0.95712 0.0
C971 C 0.36919 0.50164 0.99061 0.0
C972 C 0.37459 0.52336 0.97973 0.0
H973 H 0.39006 0.62097 0.90546 0.0
H974 H 0.37016 0.59377 0.92922 0.0
H975 H 0.40703 0.5694 0.98771 0.0
H976 H 0.39412 0.46024 0.02081 0.0
H977 H 0.4022 0.49678 0.00482 0.0
C978 C 0.6313 0.14918 0.18383 0.0
C979 C 0.63807 0.15903 0.16367 0.0
C980 C 0.64671 0.13725 0.19686 0.0
C981 C 0.7027 0.11067 0.19639 0.0
H982 H 0.70912 0.13547 0.25589 0.0
C983 C 0.77693 0.08746 0.25387 0.0
C984 C 0.78851 0.10614 0.26221 0.0
C985 C 0.75577 0.08994 0.24419 0.0
C986 C 0.70742 0.12823 0.2394 0.0
H987 H 0.66554 0.16307 0.14053 0.0
H988 H 0.69213 0.14171 0.16275 0.0
H989 H 0.67653 0.14525 0.23329 0.0
H990 H 0.78642 0.14185 0.26794 0.0
H991 H 0.7495 0.14609 0.25131 0.0
H992 H 0.73404 0.09439 0.20213 0.0
C993 C 0.67511 0.1432 0.16868 0.0
C994 C 0.68866 0.13364 0.22654 0.0
C995 C 0.65991 0.15545 0.15596 0.0
C996 C 0.77802 0.12714 0.26158 0.0
C997 C 0.75678 0.12955 0.25219 0.0
C998 C 0.72133 0.10505 0.20934 0.0
C999 C 0.66894 0.13465 0.18963 0.0
C1000 C 0.68644 0.12545 0.20465 0.0
C1001 C 0.7456 0.11107 0.24298 0.0
C1002 C 0.72423 0.11431 0.23073 0.0
H1003 H 0.61462 0.15202 0.19023 0.0
H1004 H 0.64151 0.13079 0.21293 0.0
H1005 H 0.70139 0.10406 0.1796 0.0
H1006 H 0.78452 0.07104 0.25409 0.0
H1007 H 0.74749 0.07537 0.23736 0.0
C1008 C 0.62821 0.97198 0.4808 0.0
C1009 C 0.64379 0.95788 0.49122 0.0
C1010 C 0.62458 0.99367 0.4889 0.0
C1011 C 0.64887 0.03633 0.52813 0.0
H1012 H 0.58848 0.05955 0.52821 0.0
C1013 C 0.6127 0.10121 0.59028 0.0
C1014 C 0.59831 0.11747 0.58154 0.0
C1015 C 0.62208 0.08505 0.57621 0.0
C1016 C 0.60551 0.05343 0.528 0.0
H1017 H 0.66748 0.95536 0.51856 0.0
H1018 H 0.66051 0.99234 0.53315 0.0
H1019 H 0.59636 0.02436 0.50946 0.0
H1020 H 0.58283 0.13026 0.5515 0.0
H1021 H 0.59908 0.10193 0.52689 0.0
H1022 H 0.65753 0.06492 0.54799 0.0
C1023 C 0.65166 0.98726 0.51822 0.0
C1024 C 0.61008 0.03325 0.51718 0.0
C1025 C 0.65553 0.96585 0.50993 0.0
C1026 C 0.59438 0.11817 0.55845 0.0
C1027 C 0.60343 0.10184 0.54446 0.0
C1028 C 0.64419 0.0563 0.53932 0.0
C1029 C 0.63621 1.00157 0.50783 0.0
C1030 C 0.63175 0.02419 0.51741 0.0
C1031 C 0.6167 0.08466 0.55334 0.0
C1032 C 0.62241 0.0649 0.53957 0.0
H1033 H 0.619 0.96635 0.46627 0.0
H1034 H 0.61274 0.00424 0.48025 0.0
H1035 H 0.6659 0.03027 0.52821 0.0
H1036 H 0.61537 0.10002 0.60814 0.0
H1037 H 0.63208 0.07186 0.58351 0.0
C1038 C 0.28679 0.39913 0.76116 0.0
C1039 C 0.29491 0.38815 0.74205 0.0
C1040 C 0.2653 0.39508 0.76906 0.0
C1041 C 0.21914 0.35401 0.76681 0.0
H1042 H 0.18773 0.40134 0.79807 0.0
C1043 C 0.13527 0.3377 0.81043 0.0
C1044 C 0.13629 0.34237 0.83338 0.0
C1045 C 0.1512 0.34657 0.79585 0.0
C1046 C 0.19625 0.38801 0.78928 0.0
H1047 H 0.28654 0.3644 0.71606 0.0
H1048 H 0.24848 0.35763 0.72961 0.0
H1049 H 0.22222 0.40977 0.77812 0.0
H1050 H 0.15397 0.36055 0.85908 0.0
H1051 H 0.18134 0.37695 0.83346 0.0
H1052 H 0.193 0.33231 0.77807 0.0
C1053 C 0.25904 0.36913 0.73873 0.0
C1054 C 0.21612 0.39275 0.77797 0.0
C1055 C 0.28082 0.37303 0.7309 0.0
C1056 C 0.15247 0.35731 0.84134 0.0
C1057 C 0.16821 0.3665 0.82669 0.0
C1058 C 0.19906 0.34936 0.77784 0.0
C1059 C 0.251 0.38015 0.75795 0.0
C1060 C 0.22824 0.37567 0.76718 0.0
C1061 C 0.16832 0.36042 0.80398 0.0
C1062 C 0.18772 0.3662 0.78967 0.0
H1063 H 0.2972 0.41071 0.77038 0.0
H1064 H 0.26011 0.40341 0.78424 0.0
H1065 H 0.22801 0.34037 0.75894 0.0
H1066 H 0.12329 0.3257 0.80407 0.0
H1067 H 0.15086 0.34167 0.77844 0.0
C1068 C 0.89539 0.90932 0.10045 0.0
C1069 C 0.90119 0.88897 0.0904 0.0
C1070 C 0.88296 0.92516 0.08873 0.0
C1071 C 0.85217 0.95496 0.06132 0.0
H1072 H 0.88212 0.96832 0.00547 0.0
C1073 C 0.83258 0.03414 0.00879 0.0
C1074 C 0.85166 0.04669 0.00323 0.0
C1075 C 0.83468 0.01244 0.01725 0.0
C1076 C 0.87346 0.96469 0.02094 0.0
H1077 H 0.89788 0.86861 0.06075 0.0
H1078 H 0.87621 0.89657 0.03992 0.0
H1079 H 0.89062 0.93362 0.02514 0.0
H1080 H 0.88783 0.04597 1.00146 0.0
H1081 H 0.89145 0.00811 0.016 0.0
H1082 H 0.83572 0.98654 0.05755 0.0
C1083 C 0.88105 0.90013 0.05699 0.0
C1084 C 0.87813 0.94471 0.03208 0.0
C1085 C 0.89321 0.88406 0.06893 0.0
C1086 C 0.87281 0.03683 0.00572 0.0
C1087 C 0.87488 0.01506 0.01387 0.0
C1088 C 0.84731 0.97484 0.05004 0.0
C1089 C 0.87649 0.92113 0.06653 0.0
C1090 C 0.86805 0.93995 0.05273 0.0
C1091 C 0.85587 0.00271 0.01994 0.0
C1092 C 0.85844 0.98023 0.0301 0.0
H1093 H 0.9017 0.91352 0.11689 0.0
H1094 H 0.87995 0.94124 0.09647 0.0
H1095 H 0.84411 0.95169 0.07719 0.0
H1096 H 0.81603 0.04125 0.00703 0.0
H1097 H 0.81975 0.00326 0.02172 0.0
C1098 C 0.34961 0.64728 0.34318 0.0
C1099 C 0.36484 0.66135 0.33224 0.0
C1100 C 0.33286 0.6364 0.33091 0.0
C1101 C 0.29953 0.64935 0.28254 0.0
H1102 H 0.27514 0.58967 0.28772 0.0
C1103 C 0.2193 0.62449 0.23521 0.0
C1104 C 0.20437 0.61033 0.24644 0.0
C1105 C 0.2408 0.62813 0.24371 0.0
C1106 C 0.28158 0.6065 0.28626 0.0
H1107 H 0.37621 0.67323 0.30003 0.0
H1108 H 0.34728 0.65412 0.27872 0.0
H1109 H 0.31 0.59897 0.30686 0.0
H1110 H 0.20024 0.58904 0.27551 0.0
H1111 H 0.23698 0.59611 0.29072 0.0
H1112 H 0.27082 0.65748 0.26308 0.0
C1113 C 0.34795 0.65172 0.29664 0.0
C1114 C 0.30162 0.61171 0.29713 0.0
C1115 C 0.36458 0.6625 0.30882 0.0
C1116 C 0.21138 0.59992 0.26629 0.0
C1117 C 0.23263 0.60382 0.27496 0.0
C1118 C 0.27937 0.64429 0.27202 0.0
C1119 C 0.33125 0.63957 0.30767 0.0
C1120 C 0.31073 0.63321 0.29539 0.0
C1121 C 0.24768 0.61799 0.26384 0.0
C1122 C 0.26999 0.62284 0.27384 0.0
H1123 H 0.34932 0.64638 0.36125 0.0
H1124 H 0.32013 0.62711 0.33978 0.0
H1125 H 0.306 0.6662 0.28125 0.0
H1126 H 0.21444 0.63264 0.2198 0.0
H1127 H 0.252 0.63888 0.23446 0.0
C1128 C 0.4339 0.09699 0.38413 0.0
C1129 C 0.41351 0.08754 0.39083 0.0
C1130 C 0.44793 0.10716 0.39993 0.0
C1131 C 0.44898 0.13139 0.45661 0.0
H1132 H 0.50933 0.1081 0.46051 0.0
C1133 C 0.50727 0.15948 0.52685 0.0
C1134 C 0.5178 0.14224 0.53885 0.0
C1135 C 0.49743 0.15531 0.50615 0.0
C1136 C 0.49255 0.11479 0.45958 0.0
H1137 H 0.39119 0.08224 0.41878 0.0
H1138 H 0.41517 0.10055 0.44608 0.0
H1139 H 0.4855 0.0977 0.42885 0.0
H1140 H 0.52757 0.10739 0.53773 0.0
H1141 H 0.51009 0.1 0.50148 0.0
H1142 H 0.45555 0.14784 0.48757 0.0
C1143 C 0.42051 0.10003 0.4288 0.0
C1144 C 0.47901 0.10905 0.44135 0.0
C1145 C 0.40678 0.08954 0.41319 0.0
C1146 C 0.5195 0.121 0.52896 0.0
C1147 C 0.50955 0.1168 0.50816 0.0
C1148 C 0.46252 0.13726 0.47466 0.0
C1149 C 0.4415 0.1084 0.42251 0.0
C1150 C 0.45693 0.11695 0.43994 0.0
C1151 C 0.49781 0.13377 0.49687 0.0
C1152 C 0.48434 0.12876 0.47658 0.0
H1153 H 0.43957 0.09533 0.36703 0.0
H1154 H 0.46399 0.11357 0.39463 0.0
H1155 H 0.43206 0.13776 0.45594 0.0
H1156 H 0.50599 0.17615 0.53377 0.0
H1157 H 0.48896 0.16886 0.49767 0.0
C1158 C 0.14253 0.16253 0.64575 0.0
C1159 C 0.16158 0.1702 0.63461 0.0
C1160 C 0.13215 0.17606 0.66178 0.0
C1161 C 0.13413 0.23308 0.68855 0.0
H1162 H 0.11917 0.19911 0.74156 0.0
C1163 C 0.13149 0.26785 0.78002 0.0
C1164 C 0.11295 0.26103 0.79272 0.0
C1165 C 0.13482 0.25926 0.75845 0.0
C1166 C 0.12311 0.20884 0.72682 0.0
H1167 H 0.18394 0.19813 0.63001 0.0
H1168 H 0.16655 0.22144 0.65821 0.0
H1169 H 0.12772 0.17955 0.70714 0.0
H1170 H 0.08267 0.24096 0.79208 0.0
H1171 H 0.0887 0.226 0.75499 0.0
H1172 H 0.13052 0.26237 0.70901 0.0
C1173 C 0.15905 0.20541 0.65456 0.0
C1174 C 0.12779 0.19763 0.70695 0.0
C1175 C 0.16915 0.19201 0.63842 0.0
C1176 C 0.09735 0.24635 0.78301 0.0
C1177 C 0.10076 0.23772 0.76171 0.0
C1178 C 0.12976 0.24429 0.70861 0.0
C1179 C 0.14101 0.19725 0.66718 0.0
C1180 C 0.13352 0.20955 0.68753 0.0
C1181 C 0.11973 0.24366 0.7494 0.0
C1182 C 0.12428 0.23223 0.72794 0.0
H1183 H 0.13661 0.14562 0.64318 0.0
H1184 H 0.11793 0.16943 0.67075 0.0
H1185 H 0.1382 0.24287 0.6739 0.0
H1186 H 0.14371 0.27928 0.78694 0.0
H1187 H 0.14961 0.26408 0.74923 0.0
C1188 C 0.08778 0.89497 0.89999 0.0
C1189 C 0.08097 0.9116 0.88499 0.0
C1190 C 0.07264 0.88634 0.9156 0.0
C1191 C 0.026 0.9057 0.9486 0.0
H1192 H 0.01916 0.84378 0.96605 0.0
C1193 C 0.97578 0.88098 0.02772 0.0
C1194 C 0.98502 0.86369 0.04063 0.0
C1195 C 0.98402 0.88543 0.00621 0.0
C1196 C 0.02103 0.8612 0.96157 0.0
H1197 H 0.05322 0.9319 0.87389 0.0
H1198 H 0.0268 0.917 0.90127 0.0
H1199 H 0.04049 0.85304 0.9326 0.0
H1200 H 0.0101 0.83744 0.04087 0.0
H1201 H 0.02476 0.84562 0.00432 0.0
H1202 H 0.00779 0.9141 0.97812 0.0
C1203 C 0.04364 0.91041 0.90085 0.0
C1204 C 0.03314 0.86643 0.9423 0.0
C1205 C 0.05866 0.91875 0.88507 0.0
C1206 C 0.00241 0.85083 0.03144 0.0
C1207 C 0.01075 0.8554 0.01022 0.0
C1208 C 0.01422 0.90051 0.96809 0.0
C1209 C 0.05067 0.89464 0.91672 0.0
C1210 C 0.03601 0.88874 0.9358 0.0
C1211 C 0.00179 0.87279 0.99726 0.0
C1212 C 0.01194 0.8782 0.97511 0.0
H1213 H 0.10508 0.8897 0.90055 0.0
H1214 H 0.07854 0.87434 0.92779 0.0
H1215 H 0.02816 0.92309 0.94409 0.0
H1216 H 0.9623 0.89112 0.03425 0.0
H1217 H 0.97649 0.8988 0.99664 0.0
C1218 C 0.35009 0.84741 0.16314 0.0
C1219 C 0.34706 0.83947 0.1413 0.0
C1220 C 0.36296 0.83542 0.17841 0.0
C1221 C 0.3964 0.80922 0.20641 0.0
H1222 H 0.37339 0.74899 0.21268 0.0
C1223 C 0.4186 0.75307 0.28204 0.0
C1224 C 0.39957 0.74491 0.29315 0.0
C1225 C 0.41676 0.76233 0.26063 0.0
C1226 C 0.38017 0.76568 0.211 0.0
H1227 H 0.35576 0.81337 0.11786 0.0
H1228 H 0.37806 0.79192 0.14489 0.0
H1229 H 0.36373 0.77098 0.17967 0.0
H1230 H 0.36398 0.739 0.29007 0.0
H1231 H 0.36086 0.75482 0.25269 0.0
H1232 H 0.41201 0.80427 0.23823 0.0
C1233 C 0.37069 0.80762 0.15004 0.0
C1234 C 0.37482 0.77819 0.19201 0.0
C1235 C 0.35813 0.81994 0.13456 0.0
C1236 C 0.37892 0.74526 0.28201 0.0
C1237 C 0.37716 0.75417 0.26052 0.0
C1238 C 0.40197 0.79661 0.22527 0.0
C1239 C 0.3727 0.81497 0.17228 0.0
C1240 C 0.38227 0.80035 0.18988 0.0
C1241 C 0.39596 0.7632 0.24977 0.0
C1242 C 0.39329 0.77498 0.2281 0.0
H1243 H 0.34157 0.86238 0.16872 0.0
H1244 H 0.36399 0.8414 0.19545 0.0
H1245 H 0.4024 0.82625 0.20516 0.0
H1246 H 0.43475 0.75306 0.29019 0.0
H1247 H 0.43153 0.7691 0.25268 0.0
C1248 C 0.01436 0.37638 0.47268 0.0
C1249 C 0.00644 0.35887 0.45915 0.0
C1250 C 0.00541 0.37981 0.49408 0.0
C1251 C 0.95414 0.37026 0.52602 0.0
H1252 H 0.99048 0.38067 0.57856 0.0
C1253 C 0.9115 0.38713 0.60986 0.0
C1254 C 0.92041 0.40511 0.62189 0.0
C1255 C 0.92395 0.37715 0.59272 0.0
C1256 C 0.98004 0.37793 0.56405 0.0
H1257 H 0.98315 0.33103 0.45781 0.0
H1258 H 0.96757 0.33726 0.49467 0.0
H1259 H 0.00846 0.37373 0.54256 0.0
H1260 H 0.94945 0.42608 0.62649 0.0
H1261 H 0.97098 0.40916 0.59665 0.0
H1262 H 0.92575 0.37536 0.5469 0.0
C1263 C 0.9806 0.34834 0.48879 0.0
C1264 C 0.99039 0.37398 0.54343 0.0
C1265 C 0.98964 0.34477 0.46764 0.0
C1266 C 0.94243 0.4119 0.61769 0.0
C1267 C 0.95476 0.40217 0.60048 0.0
C1268 C 0.9438 0.37448 0.54649 0.0
C1269 C 0.98822 0.36598 0.5022 0.0
C1270 C 0.97753 0.37019 0.5242 0.0
C1271 C 0.94533 0.38534 0.58705 0.0
C1272 C 0.95657 0.37851 0.56583 0.0
H1273 H 0.02734 0.38746 0.4667 0.0
H1274 H 0.01152 0.39362 0.50406 0.0
H1275 H 0.94377 0.36764 0.51142 0.0
H1276 H 0.89437 0.38194 0.61253 0.0
H1277 H 0.91631 0.36387 0.58311 0.0
C1278 C 0.85572 0.65472 0.849 0.0
C1279 C 0.84784 0.66697 0.86733 0.0
C1280 C 0.86661 0.66564 0.83143 0.0
C1281 C 0.89167 0.6923 0.79612 0.0
H1282 H 0.86204 0.74835 0.78275 0.0
C1283 C 0.91322 0.74343 0.71732 0.0
C1284 C 0.89534 0.7532 0.70562 0.0
C1285 C 0.90999 0.73413 0.73845 0.0
C1286 C 0.8704 0.73267 0.78613 0.0
H1287 H 0.84684 0.69953 0.88292 0.0
H1288 H 0.86706 0.7184 0.85302 0.0
H1289 H 0.85393 0.72921 0.8175 0.0
H1290 H 0.86008 0.76127 0.70722 0.0
H1291 H 0.85427 0.74458 0.74392 0.0
H1292 H 0.90718 0.69523 0.76408 0.0
C1293 C 0.8642 0.70059 0.85165 0.0
C1294 C 0.86607 0.72184 0.80632 0.0
C1295 C 0.85299 0.68975 0.86898 0.0
C1296 C 0.87421 0.7539 0.71578 0.0
C1297 C 0.87093 0.74442 0.7369 0.0
C1298 C 0.8959 0.70308 0.77582 0.0
C1299 C 0.86993 0.68894 0.83207 0.0
C1300 C 0.87648 0.70139 0.81152 0.0
C1301 C 0.88875 0.73422 0.74841 0.0
C1302 C 0.88512 0.72329 0.77046 0.0
H1303 H 0.85146 0.63722 0.84719 0.0
H1304 H 0.87068 0.6561 0.81662 0.0
H1305 H 0.9001 0.67668 0.79959 0.0
H1306 H 0.9298 0.74284 0.7101 0.0
H1307 H 0.92419 0.72686 0.74698 0.0
C1308 C 0.56388 0.59236 0.11582 0.0
C1309 C 0.58671 0.59728 0.11759 0.0
C1310 C 0.55127 0.60108 0.09824 0.0
C1311 C 0.54918 0.64248 0.05291 0.0
H1312 H 0.5216 0.59468 0.01896 0.0
C1313 C 0.52126 0.65508 0.96169 0.0
C1314 C 0.50281 0.64311 0.9535 0.0
C1315 C 0.52962 0.65092 0.98306 0.0
C1316 C 0.52873 0.60838 0.02837 0.0
H1317 H 0.61425 0.61561 0.10314 0.0
H1318 H 0.59198 0.6316 0.07264 0.0
H1319 H 0.53866 0.58659 0.05491 0.0
H1320 H 0.47829 0.61775 0.96151 0.0
H1321 H 0.49233 0.61098 0.99918 0.0
H1322 H 0.53907 0.66439 0.02659 0.0
C1323 C 0.5838 0.62114 0.08492 0.0
C1324 C 0.53859 0.60369 0.04899 0.0
C1325 C 0.5965 0.61215 0.10239 0.0
C1326 C 0.49269 0.62706 0.96728 0.0
C1327 C 0.50084 0.62315 0.98886 0.0
C1328 C 0.53897 0.64728 0.03243 0.0
C1329 C 0.5613 0.61492 0.08217 0.0
C1330 C 0.54917 0.62062 0.06133 0.0
C1331 C 0.51953 0.63494 0.99702 0.0
C1332 C 0.52893 0.63022 0.01966 0.0
H1333 H 0.55618 0.58048 0.1271 0.0
H1334 H 0.53395 0.59612 0.09657 0.0
H1335 H 0.55712 0.65586 0.06216 0.0
H1336 H 0.52955 0.66746 0.95143 0.0
H1337 H 0.54432 0.66 0.98841 0.0
C1338 C 0.67247 0.30839 0.3618 0.0
C1339 C 0.66699 0.33073 0.3665 0.0
C1340 C 0.66085 0.29644 0.34559 0.0
C1341 C 0.629 0.30737 0.29425 0.0
H1342 H 0.62616 0.24263 0.29233 0.0
C1343 C 0.59483 0.25969 0.21827 0.0
C1344 C 0.60895 0.24311 0.20936 0.0
C1345 C 0.59908 0.26904 0.23915 0.0
C1346 C 0.62694 0.26071 0.29266 0.0
H1347 H 0.64369 0.35745 0.35942 0.0
H1348 H 0.62271 0.33625 0.33132 0.0
H1349 H 0.63569 0.26143 0.32728 0.0
H1350 H 0.63815 0.22274 0.21597 0.0
H1351 H 0.64542 0.23903 0.25294 0.0
H1352 H 0.62004 0.30655 0.25964 0.0
C1353 C 0.63651 0.3282 0.33979 0.0
C1354 C 0.63238 0.27153 0.31265 0.0
C1355 C 0.64829 0.34027 0.35608 0.0
C1356 C 0.62703 0.23553 0.2223 0.0
C1357 C 0.63113 0.24477 0.24345 0.0
C1358 C 0.62322 0.29656 0.27439 0.0
C1359 C 0.64326 0.30643 0.33372 0.0
C1360 C 0.63399 0.29501 0.31359 0.0
C1361 C 0.61738 0.26189 0.25185 0.0
C1362 C 0.62254 0.27313 0.2733 0.0
H1363 H 0.6867 0.30051 0.36974 0.0
H1364 H 0.66678 0.27988 0.3414 0.0
H1365 H 0.63048 0.3254 0.29408 0.0
H1366 H 0.58066 0.26592 0.20891 0.0
H1367 H 0.58809 0.28202 0.24532 0.0
C1368 C 0.5335 0.52393 0.1245 0.0
C1369 C 0.54482 0.51661 0.14371 0.0
C1370 C 0.51255 0.51507 0.119 0.0
C1371 C 0.4654 0.48093 0.14196 0.0
H1372 H 0.45533 0.46706 0.07956 0.0
C1373 C 0.4001 0.41678 0.1083 0.0
C1374 C 0.38911 0.42274 0.0885 0.0
C1375 C 0.41661 0.43084 0.11721 0.0
C1376 C 0.45774 0.47108 0.09704 0.0
H1377 H 0.54265 0.49462 0.17249 0.0
H1378 H 0.50675 0.47888 0.16263 0.0
H1379 H 0.48892 0.48708 0.09042 0.0
H1380 H 0.3855 0.4483 0.06319 0.0
H1381 H 0.41403 0.47281 0.0787 0.0
H1382 H 0.43444 0.46404 0.14848 0.0
C1383 C 0.51368 0.49175 0.15199 0.0
C1384 C 0.47699 0.48266 0.10327 0.0
C1385 C 0.53446 0.5007 0.15756 0.0
C1386 C 0.39383 0.44338 0.07848 0.0
C1387 C 0.41024 0.45732 0.08727 0.0
C1388 C 0.44621 0.46911 0.13572 0.0
C1389 C 0.50253 0.49859 0.13251 0.0
C1390 C 0.48118 0.48764 0.12583 0.0
C1391 C 0.42238 0.45087 0.10626 0.0
C1392 C 0.44223 0.46402 0.11319 0.0
H1393 H 0.54091 0.53632 0.11359 0.0
H1394 H 0.50428 0.52103 0.10406 0.0
H1395 H 0.46788 0.48475 0.15946 0.0
H1396 H 0.39689 0.40075 0.11606 0.0
H1397 H 0.42578 0.42542 0.13183 0.0
C1398 C 0.03679 0.01065 0.84478 0.0
C1399 C 0.04546 0.99384 0.85875 0.0
C1400 C 0.01579 0.01984 0.84884 0.0
C1401 C 0.96227 0.0107 0.87731 0.0
H1402 H 0.96 0.07539 0.88028 0.0
C1403 C 0.8956 0.05792 0.92653 0.0
C1404 C 0.88953 0.07977 0.92047 0.0
C1405 C 0.91144 0.04615 0.91426 0.0
C1406 C 0.96009 0.05735 0.87897 0.0
H1407 H 0.03842 0.97293 0.88748 0.0
H1408 H 1.00148 0.98903 0.89452 0.0
H1409 H 0.99428 0.05698 0.86861 0.0
H1410 H 0.89396 0.10578 0.89572 0.0
H1411 H 0.92159 0.08495 0.87383 0.0
H1412 H 0.92814 0.01102 0.88783 0.0
C1413 C 0.01109 0.99503 0.88042 0.0
C1414 C 0.97983 0.04679 0.87243 0.0
C1415 C 0.03228 0.98592 0.87648 0.0
C1416 C 0.89839 0.089 0.90082 0.0
C1417 C 0.91436 0.07714 0.88845 0.0
C1418 C 0.94242 0.02127 0.88362 0.0
C1419 C 0.00282 0.01233 0.86683 0.0
C1420 C 0.98127 0.02336 0.87202 0.0
C1421 C 0.92161 0.05586 0.89549 0.0
C1422 C 0.94126 0.04472 0.8851 0.0
H1423 H 0.04638 0.01708 0.83087 0.0
H1424 H 0.00973 0.03297 0.83795 0.0
H1425 H 0.96282 0.99262 0.87677 0.0
H1426 H 0.88888 0.05024 0.94148 0.0
H1427 H 0.91667 0.02996 0.92039 0.0
C1428 C 0.19192 0.63202 0.16943 0.0
C1429 C 0.16934 0.63318 0.16324 0.0
C1430 C 0.20723 0.64761 0.16121 0.0
C1431 C 0.21768 0.6903 0.11859 0.0
H1432 H 0.2437 0.72513 0.16667 0.0
C1433 C 0.24597 0.78009 0.10442 0.0
C1434 C 0.26391 0.78928 0.1165 0.0
C1435 C 0.2381 0.75873 0.10906 0.0
C1436 C 0.23708 0.71536 0.15297 0.0
H1437 H 0.14505 0.6507 0.1431 0.0
H1438 H 0.17205 0.67741 0.12774 0.0
H1439 H 0.22373 0.69064 0.17516 0.0
H1440 H 0.28782 0.78295 0.1429 0.0
H1441 H 0.27432 0.74503 0.1508 0.0
H1442 H 0.23097 0.71477 0.09632 0.0
C1443 C 0.17792 0.66448 0.13896 0.0
C1444 C 0.22556 0.69562 0.15786 0.0
C1445 C 0.16252 0.64916 0.14756 0.0
C1446 C 0.27393 0.77638 0.13336 0.0
C1447 C 0.26613 0.75469 0.13789 0.0
C1448 C 0.22953 0.70979 0.11364 0.0
C1449 C 0.20021 0.6644 0.14642 0.0
C1450 C 0.21521 0.68327 0.14078 0.0
C1451 C 0.24807 0.74561 0.12575 0.0
C1452 C 0.23871 0.72304 0.13082 0.0
H1453 H 0.19737 0.62009 0.18191 0.0
H1454 H 0.2243 0.64718 0.16718 0.0
H1455 H 0.21005 0.68094 0.10511 0.0
H1456 H 0.23761 0.78956 0.09146 0.0
H1457 H 0.22377 0.75276 0.09979 0.0
C1458 C 0.46169 0.98512 0.35036 0.0
C1459 C 0.45363 0.00396 0.3618 0.0
C1460 C 0.48288 0.97657 0.35491 0.0
C1461 C 0.52768 0.97733 0.3978 0.0
H1462 H 0.56132 0.94778 0.35094 0.0
C1463 C 0.61373 0.93938 0.4152 0.0
C1464 C 0.61487 0.91652 0.41023 0.0
C1465 C 0.59667 0.95255 0.40628 0.0
C1466 C 0.55212 0.95603 0.36414 0.0
H1467 H 0.46168 0.02889 0.38676 0.0
H1468 H 0.49911 0.0144 0.39429 0.0
H1469 H 0.52638 0.96672 0.34183 0.0
H1470 H 0.5999 0.88949 0.39156 0.0
H1471 H 0.5703 0.91272 0.37523 0.0
H1472 H 0.55362 0.96676 0.42001 0.0
C1473 C 0.48879 0.00584 0.38216 0.0
C1474 C 0.532 0.96676 0.35901 0.0
C1475 C 0.46736 0.01422 0.37781 0.0
C1476 C 0.59961 0.90723 0.3951 0.0
C1477 C 0.58266 0.92049 0.38591 0.0
C1478 C 0.54795 0.96691 0.40283 0.0
C1479 C 0.49681 0.98683 0.37079 0.0
C1480 C 0.51925 0.97718 0.37586 0.0
C1481 C 0.58052 0.94306 0.39216 0.0
C1482 C 0.56019 0.95586 0.38613 0.0
H1483 H 0.45147 0.97667 0.33804 0.0
H1484 H 0.4881 0.96162 0.3462 0.0
H1485 H 0.51827 0.98478 0.41131 0.0
H1486 H 0.62512 0.94671 0.42721 0.0
H1487 H 0.59549 0.96991 0.41125 0.0
C1488 C 0.34367 0.35062 0.64462 0.0
C1489 C 0.33521 0.3669 0.65915 0.0
C1490 C 0.32931 0.33496 0.63489 0.0
C1491 C 0.28069 0.30394 0.65051 0.0
H1492 H 0.28023 0.28251 0.58946 0.0
C1493 C 0.23343 0.22313 0.6265 0.0
C1494 C 0.24378 0.2093 0.61062 0.0
C1495 C 0.24135 0.24484 0.63028 0.0
C1496 C 0.28032 0.28809 0.60666 0.0
H1497 H 0.3054 0.38018 0.67464 0.0
H1498 H 0.28025 0.35256 0.65789 0.0
H1499 H 0.3004 0.31673 0.5987 0.0
H1500 H 0.27068 0.20744 0.58638 0.0
H1501 H 0.285 0.24446 0.59366 0.0
H1502 H 0.26203 0.27476 0.65898 0.0
C1503 C 0.29783 0.35216 0.65364 0.0
C1504 C 0.29172 0.30782 0.61184 0.0
C1505 C 0.31213 0.36805 0.663 0.0
C1506 C 0.26214 0.21767 0.59863 0.0
C1507 C 0.27026 0.23912 0.60266 0.0
C1508 C 0.26967 0.284 0.64544 0.0
C1509 C 0.3064 0.33505 0.64009 0.0
C1510 C 0.29225 0.31574 0.63386 0.0
C1511 C 0.26004 0.25306 0.61855 0.0
C1512 C 0.26968 0.27554 0.62351 0.0
H1513 H 0.36151 0.34912 0.64197 0.0
H1514 H 0.33635 0.32177 0.6247 0.0
H1515 H 0.2811 0.30956 0.66771 0.0
H1516 H 0.21925 0.21723 0.636 0.0
H1517 H 0.2328 0.25513 0.64244 0.0
C1518 C 0.97325 0.48202 0.62559 0.0
C1519 C 0.96266 0.48514 0.64628 0.0
C1520 C 0.99477 0.49047 0.62195 0.0
C1521 C 0.03217 0.53485 0.64286 0.0
H1522 H 0.07448 0.50735 0.60236 0.0
C1523 C 0.11219 0.58054 0.61187 0.0
C1524 C 0.11248 0.58141 0.58844 0.0
C1525 C 0.09761 0.56575 0.62287 0.0
C1526 C 0.06292 0.51513 0.6139 0.0
H1527 H 0.96697 0.49814 0.67986 0.0
H1528 H 0.00443 0.51245 0.67363 0.0
H1529 H 0.04136 0.48659 0.614 0.0
H1530 H 0.09891 0.56673 0.5582 0.0
H1531 H 0.07427 0.54096 0.57713 0.0
H1532 H 0.05342 0.56366 0.64211 0.0
C1533 C 0.99597 0.50408 0.66 0.0
C1534 C 0.04387 0.50332 0.62042 0.0
C1535 C 0.97449 0.49578 0.66358 0.0
C1536 C 0.09895 0.56657 0.57628 0.0
C1537 C 0.08494 0.55162 0.58714 0.0
C1538 C 0.05129 0.54662 0.6364 0.0
C1539 C 0.00618 0.50205 0.63899 0.0
C1540 C 0.0279 0.5133 0.63442 0.0
C1541 C 0.08374 0.55127 0.61051 0.0
C1542 C 0.06646 0.53715 0.62127 0.0
H1543 H 0.96461 0.47385 0.61194 0.0
H1544 H 0.00203 0.48876 0.60549 0.0
H1545 H 0.02015 0.54318 0.65349 0.0
H1546 H 0.12248 0.59181 0.62158 0.0
H1547 H 0.09695 0.56581 0.64094 0.0
C1548 C 0.76344 0.72674 0.87923 0.0
C1549 C 0.76484 0.71612 0.90012 0.0
C1550 C 0.75398 0.748 0.87731 0.0
C1551 C 0.71167 0.78263 0.90354 0.0
H1552 H 0.73343 0.82815 0.86292 0.0
C1553 C 0.68337 0.87232 0.86059 0.0
C1554 C 0.66328 0.86514 0.85087 0.0
C1555 C 0.69679 0.85717 0.87238 0.0
C1556 C 0.72731 0.81581 0.87465 0.0
H1557 H 0.75822 0.72 0.93556 0.0
H1558 H 0.7414 0.75704 0.93208 0.0
H1559 H 0.75694 0.79592 0.87167 0.0
H1560 H 0.64062 0.83724 0.84703 0.0
H1561 H 0.66352 0.81108 0.86825 0.0
H1562 H 0.68159 0.80196 0.90562 0.0
C1563 C 0.74766 0.74884 0.91722 0.0
C1564 C 0.74068 0.79726 0.87948 0.0
C1565 C 0.7574 0.72767 0.9192 0.0
C1566 C 0.65595 0.84319 0.85459 0.0
C1567 C 0.66908 0.82824 0.86673 0.0
C1568 C 0.69819 0.80103 0.89849 0.0
C1569 C 0.74548 0.75905 0.8962 0.0
C1570 C 0.73278 0.78022 0.89356 0.0
C1571 C 0.69005 0.8348 0.87498 0.0
C1572 C 0.70566 0.81755 0.88358 0.0
H1573 H 0.76908 0.71835 0.86423 0.0
H1574 H 0.75238 0.75535 0.86085 0.0
H1575 H 0.70506 0.76969 0.91432 0.0
H1576 H 0.68951 0.88908 0.85759 0.0
H1577 H 0.71287 0.86266 0.87862 0.0
C1578 C 0.75593 0.28915 0.37968 0.0
C1579 C 0.75105 0.29742 0.40109 0.0
C1580 C 0.76412 0.26755 0.3769 0.0
C1581 C 0.79427 0.22245 0.40509 0.0
H1582 H 0.7721 0.18812 0.35488 0.0
C1583 C 0.8083 0.13525 0.35124 0.0
C1584 C 0.83154 0.13633 0.34871 0.0
C1585 C 0.79708 0.15125 0.36392 0.0
C1586 C 0.77826 0.19715 0.3693 0.0
H1587 H 0.75093 0.28937 0.43644 0.0
H1588 H 0.7654 0.25139 0.43148 0.0
H1589 H 0.75455 0.22333 0.36427 0.0
H1590 H 0.86159 0.15379 0.35858 0.0
H1591 H 0.84199 0.18231 0.38023 0.0
H1592 H 0.81826 0.19625 0.40984 0.0
C1593 C 0.7629 0.26181 0.41691 0.0
C1594 C 0.76835 0.21755 0.37446 0.0
C1595 C 0.75452 0.28349 0.4197 0.0
C1596 C 0.84365 0.1525 0.36057 0.0
C1597 C 0.83237 0.16884 0.37295 0.0
C1598 C 0.80426 0.20192 0.3999 0.0
C1599 C 0.7677 0.25361 0.39544 0.0
C1600 C 0.77659 0.23072 0.39202 0.0
C1601 C 0.80885 0.16904 0.37378 0.0
C1602 C 0.79663 0.18923 0.38163 0.0
H1603 H 0.75347 0.29938 0.36497 0.0
H1604 H 0.76798 0.26186 0.36016 0.0
H1605 H 0.801 0.23228 0.41871 0.0
H1606 H 0.79867 0.12285 0.34222 0.0
H1607 H 0.77903 0.15051 0.36474 0.0
C1608 C 0.08789 0.52024 0.21352 0.0
C1609 C 0.08934 0.54061 0.22503 0.0
C1610 C 0.07863 0.50136 0.22389 0.0
C1611 C 0.04812 0.48188 0.27518 0.0
H1612 H 0.08344 0.42828 0.26667 0.0
C1613 C 0.03018 0.40212 0.32646 0.0
C1614 C 0.04874 0.39029 0.3347 0.0
C1615 C 0.03278 0.41878 0.31025 0.0
C1616 C 0.07343 0.4431 0.26936 0.0
H1617 H 0.08181 0.55745 0.25605 0.0
H1618 H 0.06549 0.52487 0.27408 0.0
H1619 H 0.09063 0.461 0.24366 0.0
H1620 H 0.08459 0.38631 0.33165 0.0
H1621 H 0.08923 0.41557 0.30372 0.0
H1622 H 0.03175 0.46443 0.30169 0.0
C1623 C 0.07096 0.52332 0.25692 0.0
C1624 C 0.07732 0.46184 0.25586 0.0
C1625 C 0.08016 0.54213 0.24653 0.0
C1626 C 0.06989 0.39496 0.32561 0.0
C1627 C 0.07253 0.41177 0.3095 0.0
C1628 C 0.04431 0.46319 0.28875 0.0
C1629 C 0.07088 0.50241 0.2461 0.0
C1630 C 0.06495 0.48165 0.25878 0.0
C1631 C 0.05406 0.42426 0.30189 0.0
C1632 C 0.05711 0.4436 0.28627 0.0
H1633 H 0.09549 0.51847 0.1972 0.0
H1634 H 0.07855 0.48569 0.21486 0.0
H1635 H 0.03806 0.49667 0.27783 0.0
H1636 H 0.01359 0.39886 0.33292 0.0
H1637 H 0.01807 0.42759 0.3045 0.0
C1638 C 0.8431 0.78279 0.58008 0.0
C1639 C 0.86132 0.79743 0.58274 0.0
C1640 C 0.82675 0.78678 0.56383 0.0
C1641 C 0.80439 0.83295 0.5283 0.0
H1642 H 0.76947 0.78533 0.50157 0.0
C1643 C 0.73928 0.85299 0.46186 0.0
C1644 C 0.71753 0.84578 0.46688 0.0
C1645 C 0.75772 0.8438 0.47279 0.0
C1646 C 0.77908 0.79877 0.50894 0.0
H1647 H 0.87714 0.82712 0.56949 0.0
H1648 H 0.84929 0.83356 0.5405 0.0
H1649 H 0.80068 0.77616 0.52632 0.0
H1650 H 0.69809 0.82231 0.48625 0.0
H1651 H 0.73058 0.80569 0.50516 0.0
H1652 H 0.78301 0.85549 0.51065 0.0
C1653 C 0.84708 0.81941 0.55153 0.0
C1654 C 0.79695 0.79357 0.52325 0.0
C1655 C 0.86325 0.81562 0.56805 0.0
C1656 C 0.71471 0.82778 0.48167 0.0
C1657 C 0.73329 0.81846 0.49264 0.0
C1658 C 0.78684 0.83808 0.51378 0.0
C1659 C 0.82826 0.80535 0.54948 0.0
C1660 C 0.80983 0.81061 0.53328 0.0
C1661 C 0.75487 0.82717 0.48908 0.0
C1662 C 0.77392 0.82111 0.50396 0.0
H1663 H 0.84093 0.76865 0.59115 0.0
H1664 H 0.81249 0.77568 0.56317 0.0
H1665 H 0.81332 0.84664 0.53603 0.0
H1666 H 0.74189 0.86704 0.45074 0.0
H1667 H 0.77413 0.85062 0.46942 0.0
C1668 C 0.39629 0.48739 0.71976 0.0
C1669 C 0.40569 0.46595 0.72145 0.0
C1670 C 0.40665 0.50587 0.72947 0.0
C1671 C 0.4455 0.51942 0.77573 0.0
H1672 H 0.43523 0.57999 0.75512 0.0
C1673 C 0.47549 0.59666 0.82578 0.0
C1674 C 0.4592 0.61319 0.82976 0.0
C1675 C 0.47182 0.57964 0.81016 0.0
C1676 C 0.43818 0.56318 0.76113 0.0
H1677 H 0.43403 0.44724 0.7337 0.0
H1678 H 0.4528 0.47983 0.75022 0.0
H1679 H 0.42572 0.54856 0.731 0.0
H1680 H 0.42662 0.62515 0.81944 0.0
H1681 H 0.42043 0.59566 0.79178 0.0
H1682 H 0.45808 0.53421 0.80583 0.0
C1683 C 0.43708 0.48227 0.74163 0.0
C1684 C 0.43269 0.54508 0.74731 0.0
C1685 C 0.42658 0.46362 0.73183 0.0
C1686 C 0.43956 0.61278 0.81685 0.0
C1687 C 0.43602 0.59587 0.80096 0.0
C1688 C 0.45127 0.53754 0.78941 0.0
C1689 C 0.42685 0.50356 0.74124 0.0
C1690 C 0.43575 0.52286 0.75459 0.0
C1691 C 0.4519 0.57881 0.79779 0.0
C1692 C 0.44728 0.55965 0.78246 0.0
H1693 H 0.38005 0.48964 0.71206 0.0
H1694 H 0.39794 0.5217 0.72893 0.0
H1695 H 0.44782 0.50269 0.78221 0.0
H1696 H 0.49086 0.59633 0.83533 0.0
H1697 H 0.48451 0.56694 0.80794 0.0
C1698 C 0.64026 0.18645 0.0696 0.0
C1699 C 0.64074 0.20511 0.08392 0.0
C1700 C 0.65688 0.18347 0.05331 0.0
C1701 C 0.71559 0.19669 0.04413 0.0
H1702 H 0.70582 0.17859 0.98276 0.0
C1703 C 0.79118 0.17953 0.98841 0.0
C1704 C 0.78987 0.16087 0.97434 0.0
C1705 C 0.77184 0.18864 0.99787 0.0
C1706 C 0.70892 0.18344 0.99989 0.0
H1707 H 0.65862 0.2358 0.09142 0.0
H1708 H 0.68749 0.23037 0.06339 0.0
H1709 H 0.67382 0.18622 0.007 0.0
H1710 H 0.7674 0.13745 0.95852 0.0
H1711 H 0.73371 0.15272 0.97545 0.0
H1712 H 0.75038 0.19288 0.03784 0.0
C1713 C 0.67435 0.21802 0.06482 0.0
C1714 C 0.69052 0.18787 0.01375 0.0
C1715 C 0.65769 0.22113 0.08086 0.0
C1716 C 0.76877 0.15228 0.96881 0.0
C1717 C 0.74943 0.16103 0.9787 0.0
C1718 C 0.7339 0.19193 0.03048 0.0
C1719 C 0.67443 0.19894 0.05118 0.0
C1720 C 0.69368 0.19456 0.03603 0.0
C1721 C 0.75077 0.17874 0.99417 0.0
C1722 C 0.73095 0.18522 0.0081 0.0
H1723 H 0.62748 0.17379 0.07143 0.0
H1724 H 0.65654 0.16856 0.04307 0.0
H1725 H 0.71859 0.20144 0.06133 0.0
H1726 H 0.80731 0.18618 0.99323 0.0
H1727 H 0.77363 0.20273 0.00905 0.0
C1728 C 0.58346 0.96464 0.77075 0.0
C1729 C 0.60374 0.96789 0.78206 0.0
C1730 C 0.57327 0.98251 0.7593 0.0
C1731 C 0.57635 0.04494 0.75105 0.0
H1732 H 0.55569 0.03104 0.69132 0.0
C1733 C 0.57167 0.11063 0.67967 0.0
C1734 C 0.55339 0.10962 0.66492 0.0
C1735 C 0.57472 0.09417 0.6961 0.0
C1736 C 0.56113 0.03523 0.70806 0.0
H1737 H 0.62851 0.99255 0.79142 0.0
H1738 H 0.61105 0.0233 0.77183 0.0
H1739 H 0.5652 1.00079 0.71687 0.0
H1740 H 0.5236 0.09066 0.65657 0.0
H1741 H 0.52903 0.06211 0.68502 0.0
H1742 H 0.57309 0.07942 0.74183 0.0
C1743 C 0.60267 0.00728 0.7717 0.0
C1744 C 0.56649 0.01783 0.72281 0.0
C1745 C 0.61278 0.98955 0.78295 0.0
C1746 C 0.53794 0.09205 0.66751 0.0
C1747 C 0.5411 0.07553 0.68377 0.0
C1748 C 0.5712 0.06232 0.73622 0.0
C1749 C 0.58314 0.00396 0.75909 0.0
C1750 C 0.57457 0.0224 0.74442 0.0
C1751 C 0.55969 0.07618 0.6981 0.0
C1752 C 0.56383 0.05771 0.71442 0.0
H1753 H 0.57628 0.94807 0.76951 0.0
H1754 H 0.55807 0.97934 0.75004 0.0
H1755 H 0.58206 0.04923 0.76766 0.0
H1756 H 0.58394 0.12384 0.67819 0.0
H1757 H 0.58931 0.09513 0.70676 0.0
C1758 C 0.28878 0.32932 0.02623 0.0
C1759 C 0.28499 0.34912 0.03819 0.0
C1760 C 0.27104 0.31869 0.01505 0.0
C1761 C 0.20847 0.32043 0.00674 0.0
H1762 H 0.2237 0.30264 0.94643 0.0
C1763 C 0.14441 0.31671 0.9335 0.0
C1764 C 0.14615 0.29865 0.91855 0.0
C1765 C 0.16035 0.31978 0.95045 0.0
C1766 C 0.21915 0.30729 0.9633 0.0
H1767 H 0.25964 0.37241 0.04919 0.0
H1768 H 0.22905 0.35418 0.03002 0.0
H1769 H 0.25329 0.31181 0.97272 0.0
H1770 H 0.16583 0.26925 0.91037 0.0
H1771 H 0.19347 0.27479 0.93961 0.0
H1772 H 0.1742 0.31684 0.9968 0.0
C1773 C 0.24538 0.34647 0.02921 0.0
C1774 C 0.23618 0.31242 0.97851 0.0
C1775 C 0.26299 0.35699 0.0403 0.0
C1776 C 0.1639 0.28345 0.92143 0.0
C1777 C 0.17988 0.28665 0.93816 0.0
C1778 C 0.19142 0.31556 0.99143 0.0
C1779 C 0.24924 0.3277 0.01561 0.0
C1780 C 0.23113 0.3194 1.0004 0.0
C1781 C 0.17852 0.305 0.9527 0.0
C1782 C 0.19654 0.30918 0.96944 0.0
H1783 H 0.30562 0.32312 0.024 0.0
H1784 H 0.27464 0.30402 0.00511 0.0
H1785 H 0.20382 0.32532 0.02351 0.0
H1786 H 0.13102 0.32874 0.93182 0.0
H1787 H 0.15887 0.33417 0.96131 0.0
C1788 C 0.91744 0.04411 0.25582 0.0
C1789 C 0.90482 0.04336 0.27559 0.0
C1790 C 0.92624 0.02452 0.24658 0.0
C1791 C 0.91158 0.96696 0.23934 0.0
H1792 H 0.97202 0.95875 0.2178 0.0
C1793 C 0.93448 0.89049 0.18438 0.0
C1794 C 0.95003 0.89404 0.16716 0.0
C1795 C 0.93117 0.9067 0.20102 0.0
C1796 C 0.95496 0.96081 0.22338 0.0
H1797 H 0.89181 0.02164 0.3014 0.0
H1798 H 0.90675 0.98719 0.28486 0.0
H1799 H 0.96296 0.99127 0.24058 0.0
H1800 H 0.97448 0.91745 0.15419 0.0
H1801 H 0.96812 0.94576 0.1822 0.0
H1802 H 0.903 0.93756 0.22103 0.0
C1803 C 0.91023 0.00303 0.27685 0.0
C1804 C 0.94988 0.97939 0.23667 0.0
C1805 C 0.90193 0.02274 0.28643 0.0
C1806 C 0.96249 0.91396 0.16728 0.0
C1807 C 0.95892 0.93027 0.18359 0.0
C1808 C 0.91652 0.94864 0.22563 0.0
C1809 C 0.92203 0.00369 0.25655 0.0
C1810 C 0.92809 0.98279 0.24458 0.0
C1811 C 0.94305 0.92708 0.20065 0.0
C1812 C 0.93823 0.94543 0.21709 0.0
H1813 H 0.91956 0.05973 0.24694 0.0
H1814 H 0.93512 0.0255 0.23085 0.0
H1815 H 0.89456 0.96933 0.24499 0.0
H1816 H 0.92466 0.87531 0.18487 0.0
H1817 H 0.91913 0.90327 0.21405 0.0
C1818 C 0.23806 0.64718 0.53906 0.0
C1819 C 0.2163 0.65587 0.53792 0.0
C1820 C 0.25581 0.65778 0.52831 0.0
C1821 C 0.2652 0.69575 0.48015 0.0
H1822 H 0.32703 0.68265 0.49412 0.0
C1823 C 0.33186 0.6965 0.41122 0.0
C1824 C 0.35425 0.70161 0.41613 0.0
C1825 C 0.31602 0.69436 0.42819 0.0
C1826 C 0.30996 0.68686 0.48996 0.0
H1827 H 0.19637 0.68354 0.52608 0.0
H1828 H 0.22767 0.70293 0.50808 0.0
H1829 H 0.29834 0.67577 0.52184 0.0
H1830 H 0.3775 0.70856 0.44292 0.0
H1831 H 0.34963 0.70568 0.47273 0.0
H1832 H 0.27687 0.70773 0.44866 0.0
C1833 C 0.23095 0.68742 0.51677 0.0
C1834 C 0.2933 0.68256 0.50587 0.0
C1835 C 0.21302 0.67661 0.52749 0.0
C1836 C 0.36041 0.70448 0.4386 0.0
C1837 C 0.34437 0.70274 0.45569 0.0
C1838 C 0.28188 0.70048 0.46444 0.0
C1839 C 0.25243 0.6776 0.51613 0.0
C1840 C 0.27053 0.68614 0.50094 0.0
C1841 C 0.32184 0.69772 0.45073 0.0
C1842 C 0.30447 0.69535 0.46873 0.0
H1843 H 0.24106 0.63109 0.54683 0.0
H1844 H 0.27178 0.64933 0.52821 0.0
H1845 H 0.24801 0.69873 0.47544 0.0
H1846 H 0.32654 0.69387 0.39412 0.0
H1847 H 0.29919 0.68972 0.4235 0.0
C1848 C 0.2468 0.08507 0.54131 0.0
C1849 C 0.22517 0.09401 0.54031 0.0
C1850 C 0.25673 0.07581 0.52227 0.0
C1851 C 0.25407 0.08143 0.46083 0.0
H1852 H 0.29869 0.03461 0.46242 0.0
C1853 C 0.32078 0.03128 0.3993 0.0
C1854 C 0.3297 0.04944 0.38732 0.0
C1855 C 0.30513 0.03467 0.41633 0.0
C1856 C 0.28608 0.04753 0.46149 0.0
H1857 H 0.19672 0.09991 0.51889 0.0
H1858 H 0.21366 0.083 0.48571 0.0
H1859 H 0.2762 0.04203 0.49543 0.0
H1860 H 0.32827 0.0854 0.38337 0.0
H1861 H 0.30119 0.09137 0.41319 0.0
H1862 H 0.26392 0.08689 0.42686 0.0
C1863 C 0.22309 0.08322 0.50114 0.0
C1864 C 0.27331 0.05196 0.48059 0.0
C1865 C 0.21317 0.09249 0.52024 0.0
C1866 C 0.32169 0.071 0.39212 0.0
C1867 C 0.30609 0.07441 0.40927 0.0
C1868 C 0.26682 0.07697 0.44171 0.0
C1869 C 0.24533 0.07551 0.50168 0.0
C1870 C 0.25733 0.06919 0.48066 0.0
C1871 C 0.29799 0.05633 0.42199 0.0
C1872 C 0.28323 0.06015 0.44183 0.0
H1873 H 0.25667 0.08679 0.55639 0.0
H1874 H 0.27394 0.07037 0.52337 0.0
H1875 H 0.24217 0.09504 0.46025 0.0
H1876 H 0.3264 0.0144 0.39598 0.0
H1877 H 0.29892 0.02027 0.42535 0.0
C1878 C 0.15178 0.96124 0.76504 0.0
C1879 C 0.15821 0.96743 0.78675 0.0
C1880 C 0.16066 0.97212 0.74639 0.0
C1881 C 0.20387 0.01093 0.7253 0.0
H1882 H 0.15557 0.03351 0.68851 0.0
C1883 C 0.2171 0.08304 0.66212 0.0
C1884 C 0.20347 0.08457 0.64301 0.0
C1885 C 0.21345 0.06651 0.67824 0.0
C1886 C 0.16942 0.02705 0.69817 0.0
H1887 H 0.17987 0.98905 0.80591 0.0
H1888 H 0.19605 0.00775 0.77317 0.0
H1889 H 0.14746 0.00781 0.7188 0.0
H1890 H 0.17582 0.06911 0.62554 0.0
H1891 H 0.16998 0.03967 0.65315 0.0
H1892 H 0.22591 0.02992 0.70453 0.0
C1893 C 0.18417 0.99434 0.7706 0.0
C1894 C 0.16471 0.01231 0.71569 0.0
C1895 C 0.17514 0.98346 0.78936 0.0
C1896 C 0.18656 0.06855 0.64009 0.0
C1897 C 0.1831 0.05176 0.65611 0.0
C1898 C 0.20866 0.02543 0.70749 0.0
C1899 C 0.17619 0.98953 0.74899 0.0
C1900 C 0.18182 0.00419 0.7296 0.0
C1901 C 0.19624 0.0507 0.67567 0.0
C1902 C 0.19146 0.03396 0.69377 0.0
H1903 H 0.13841 0.94928 0.76258 0.0
H1904 H 0.15439 0.96779 0.72998 0.0
H1905 H 0.21744 0.00487 0.73562 0.0
H1906 H 0.23024 0.09512 0.6651 0.0
H1907 H 0.22374 0.0667 0.6931 0.0
C1908 C 0.18183 0.93035 0.89137 0.0
C1909 C 0.1687 0.94985 0.89151 0.0
C1910 C 0.19809 0.92676 0.90792 0.0
C1911 C 0.21112 0.94206 0.9661 0.0
H1912 H 0.26928 0.91675 0.95342 0.0
C1913 C 0.27164 0.91889 0.03813 0.0
C1914 C 0.28176 0.89787 0.03581 0.0
C1915 C 0.26106 0.92902 0.01971 0.0
C1916 C 0.25305 0.92368 0.95734 0.0
H1917 H 0.16316 0.98122 0.90893 0.0
H1918 H 0.1912 0.97483 0.93761 0.0
H1919 H 0.24412 0.9259 0.92269 0.0
H1920 H 0.29006 0.87171 0.01224 0.0
H1921 H 0.27187 0.88901 0.98059 0.0
H1922 H 0.21952 0.93901 1.00071 0.0
C1923 C 0.18882 0.96224 0.92483 0.0
C1924 C 0.23863 0.92894 0.93966 0.0
C1925 C 0.17279 0.96593 0.90823 0.0
C1926 C 0.28247 0.88799 0.01453 0.0
C1927 C 0.27204 0.89802 0.99627 0.0
C1928 C 0.22543 0.93657 0.98381 0.0
C1929 C 0.20146 0.94248 0.92512 0.0
C1930 C 0.21736 0.93793 0.94381 0.0
C1931 C 0.26051 0.91834 0.99865 0.0
C1932 C 0.24649 0.92694 0.97974 0.0
H1933 H 0.17917 0.91759 0.87882 0.0
H1934 H 0.20747 0.9113 0.90771 0.0
H1935 H 0.19477 0.94879 0.96992 0.0
H1936 H 0.2706 0.92675 0.05439 0.0
H1937 H 0.25267 0.94485 0.02216 0.0
C1938 C 0.28257 0.92071 0.15783 0.0
C1939 C 0.29852 0.91734 0.14085 0.0
C1940 C 0.28551 0.93734 0.17399 0.0
C1941 C 0.31588 0.98947 0.18743 0.0
H1942 H 0.30891 0.9702 0.24885 0.0
C1943 C 0.35606 0.03628 0.26116 0.0
C1944 C 0.34721 0.03437 0.2828 0.0
C1945 C 0.34598 0.02556 0.24306 0.0
C1946 C 0.31044 0.97616 0.23186 0.0
H1947 H 0.32964 0.9298 0.12716 0.0
H1948 H 0.33458 0.95913 0.15524 0.0
H1949 H 0.29984 0.94466 0.21856 0.0
H1950 H 0.32002 0.02077 0.30226 0.0
H1951 H 0.3017 0.00255 0.27041 0.0
H1952 H 0.32644 0.02098 0.20062 0.0
C1953 C 0.31981 0.94871 0.15602 0.0
C1954 C 0.30536 0.96139 0.21442 0.0
C1955 C 0.31699 0.93186 0.13991 0.0
C1956 C 0.32698 0.02288 0.28569 0.0
C1957 C 0.31678 0.01207 0.26747 0.0
C1958 C 0.3207 0.00437 0.20486 0.0
C1959 C 0.30436 0.95131 0.17356 0.0
C1960 C 0.30838 0.9677 0.19198 0.0
C1961 C 0.32666 0.01251 0.24603 0.0
C1962 C 0.31852 0.99781 0.2274 0.0
H1963 H 0.26805 0.90999 0.15914 0.0
H1964 H 0.27312 0.93908 0.18705 0.0
H1965 H 0.31807 0.995 0.17034 0.0
H1966 H 0.37184 0.04476 0.25849 0.0
H1967 H 0.35437 0.02623 0.22707 0.0
C1968 C 0.71522 0.40393 0.48592 0.0
C1969 C 0.72443 0.41062 0.4654 0.0
C1970 C 0.72449 0.41146 0.5061 0.0
C1971 C 0.76218 0.45292 0.53218 0.0
H1972 H 0.78286 0.40348 0.56852 0.0
C1973 C 0.83455 0.46354 0.59476 0.0
C1974 C 0.83613 0.44971 0.6137 0.0
C1975 C 0.81764 0.46042 0.57895 0.0
C1976 C 0.77687 0.41763 0.55899 0.0
H1977 H 0.74961 0.4313 0.44983 0.0
H1978 H 0.76501 0.4454 0.48494 0.0
H1979 H 0.75783 0.39645 0.53724 0.0
H1980 H 0.82038 0.42224 0.63121 0.0
H1981 H 0.7903 0.41729 0.60408 0.0
H1982 H 0.78096 0.4742 0.55384 0.0
C1983 C 0.75077 0.43424 0.48552 0.0
C1984 C 0.7625 0.41353 0.54095 0.0
C1985 C 0.74186 0.42632 0.4654 0.0
C1986 C 0.81978 0.43312 0.61677 0.0
C1987 C 0.8026 0.43018 0.60105 0.0
C1988 C 0.77621 0.45709 0.55045 0.0
C1989 C 0.74285 0.42615 0.50609 0.0
C1990 C 0.7554 0.43106 0.52703 0.0
C1991 C 0.80145 0.44357 0.58168 0.0
C1992 C 0.7843 0.43944 0.56382 0.0
H1993 H 0.70221 0.39135 0.4864 0.0
H1994 H 0.718 0.40499 0.52169 0.0
H1995 H 0.75684 0.46679 0.52185 0.0
H1996 H 0.84687 0.47642 0.59166 0.0
H1997 H 0.81782 0.47083 0.56418 0.0
C1998 C 0.84197 0.49865 0.71196 0.0
C1999 C 0.84537 0.47551 0.71316 0.0
C2000 C 0.83196 0.51018 0.72958 0.0
C2001 C 0.82301 0.50534 0.79086 0.0
H2002 H 0.79337 0.56202 0.78132 0.0
C2003 C 0.81634 0.57255 0.86077 0.0
C2004 C 0.79926 0.58855 0.85952 0.0
C2005 C 0.81871 0.55635 0.84394 0.0
C2006 C 0.80121 0.54607 0.78458 0.0
H2007 H 0.84045 0.44607 0.73347 0.0
H2008 H 0.82187 0.46604 0.7641 0.0
H2009 H 0.80071 0.5379 0.74988 0.0
H2010 H 0.77038 0.5993 0.84066 0.0
H2011 H 0.77341 0.57038 0.81233 0.0
H2012 H 0.82277 0.51323 0.82575 0.0
C2013 C 0.82724 0.47542 0.74961 0.0
C2014 C 0.80582 0.53229 0.76629 0.0
C2015 C 0.83745 0.46385 0.73188 0.0
C2016 C 0.78386 0.58727 0.8419 0.0
C2017 C 0.78582 0.57079 0.82546 0.0
C2018 C 0.81803 0.51899 0.80928 0.0
C2019 C 0.82502 0.4989 0.74902 0.0
C2020 C 0.81732 0.51197 0.769 0.0
C2021 C 0.80372 0.5555 0.82572 0.0
C2022 C 0.80744 0.53983 0.80642 0.0
H2023 H 0.8485 0.50811 0.69798 0.0
H2024 H 0.83106 0.5282 0.72843 0.0
H2025 H 0.83205 0.48996 0.79377 0.0
H2026 H 0.82859 0.57331 0.87407 0.0
H2027 H 0.83288 0.54519 0.8448 0.0
C2028 C 0.67826 0.53686 0.10455 0.0
C2029 C 0.67073 0.55527 0.11708 0.0
C2030 C 0.69387 0.53964 0.08738 0.0
C2031 C 0.73416 0.58002 0.06181 0.0
H2032 H 0.71968 0.54802 0.0074 0.0
C2033 C 0.78373 0.59448 0.97971 0.0
C2034 C 0.77013 0.5983 0.96094 0.0
C2035 C 0.77456 0.58558 0.9994 0.0
C2036 C 0.72403 0.55707 0.02245 0.0
H2037 H 0.67474 0.59093 0.12199 0.0
H2038 H 0.70174 0.59584 0.0919 0.0
H2039 H 0.69854 0.54064 0.04126 0.0
H2040 H 0.73669 0.59449 0.94765 0.0
H2041 H 0.72089 0.5788 0.98157 0.0
H2042 H 0.759 0.5972 0.04257 0.0
C2043 C 0.69575 0.57915 0.09548 0.0
C2044 C 0.71203 0.55266 0.04201 0.0
C2045 C 0.68018 0.57635 0.11277 0.0
C2046 C 0.74763 0.59165 0.96179 0.0
C2047 C 0.73857 0.58261 0.98129 0.0
C2048 C 0.7462 0.58443 0.0422 0.0
C2049 C 0.70235 0.56092 0.08214 0.0
C2050 C 0.71664 0.56433 0.06191 0.0
C2051 C 0.7517 0.58007 1.00061 0.0
C2052 C 0.74098 0.57333 0.02213 0.0
H2053 H 0.67153 0.52032 0.10751 0.0
H2054 H 0.69892 0.52511 0.07786 0.0
H2055 H 0.7384 0.58915 0.07684 0.0
H2056 H 0.80105 0.59967 0.97967 0.0
H2057 H 0.78522 0.5836 0.01388 0.0
C2058 C 0.68988 0.43857 0.36727 0.0
C2059 C 0.70163 0.41922 0.36098 0.0
C2060 C 0.68652 0.456 0.35189 0.0
C2061 C 0.7066 0.47835 0.29704 0.0
H2062 H 0.64709 0.50336 0.29304 0.0
C2063 C 0.67183 0.52264 0.21792 0.0
C2064 C 0.65539 0.53909 0.22076 0.0
C2065 C 0.68094 0.51167 0.23655 0.0
C2066 C 0.66396 0.49695 0.29411 0.0
H2067 H 0.71971 0.40353 0.33373 0.0
H2068 H 0.71373 0.43352 0.30722 0.0
H2069 H 0.65599 0.4775 0.32305 0.0
H2070 H 0.63649 0.55792 0.24511 0.0
H2071 H 0.65303 0.53964 0.27756 0.0
H2072 H 0.71437 0.49743 0.26772 0.0
C2073 C 0.70721 0.43545 0.32398 0.0
C2074 C 0.66906 0.48204 0.3114 0.0
C2075 C 0.71046 0.41808 0.33921 0.0
C2076 C 0.64944 0.54553 0.24251 0.0
C2077 C 0.65863 0.53475 0.26108 0.0
C2078 C 0.7015 0.49329 0.27973 0.0
C2079 C 0.69501 0.45457 0.32996 0.0
C2080 C 0.69033 0.47223 0.31291 0.0
C2081 C 0.67372 0.51695 0.25835 0.0
C2082 C 0.68001 0.50258 0.27784 0.0
H2083 H 0.68291 0.44006 0.38389 0.0
H2084 H 0.67721 0.47058 0.35716 0.0
H2085 H 0.72328 0.47142 0.29786 0.0
H2086 H 0.67619 0.51693 0.20132 0.0
H2087 H 0.69239 0.49796 0.23373 0.0
C2088 C 0.54053 0.24518 0.08537 0.0
C2089 C 0.53856 0.22374 0.09461 0.0
C2090 C 0.5219 0.25596 0.07619 0.0
C2091 C 0.4808 0.27484 0.05307 0.0
H2092 H 0.42673 0.26693 0.08777 0.0
C2093 C 0.40128 0.32614 0.03362 0.0
C2094 C 0.38923 0.33454 0.05197 0.0
C2095 C 0.41797 0.31001 0.03658 0.0
C2096 C 0.44168 0.26947 0.07794 0.0
H2097 H 0.51582 0.19645 0.101 0.0
H2098 H 0.48342 0.21472 0.08404 0.0
H2099 H 0.45918 0.24381 0.09559 0.0
H2100 H 0.38493 0.33183 0.08782 0.0
H2101 H 0.41418 0.30405 0.09306 0.0
H2102 H 0.4637 0.30131 0.03623 0.0
C2103 C 0.49926 0.22344 0.08408 0.0
C2104 C 0.46028 0.2559 0.08219 0.0
C2105 C 0.51791 0.21273 0.09338 0.0
C2106 C 0.39374 0.32569 0.07327 0.0
C2107 C 0.41055 0.30965 0.07625 0.0
C2108 C 0.46224 0.28849 0.0489 0.0
C2109 C 0.50077 0.24557 0.07617 0.0
C2110 C 0.48025 0.25856 0.07002 0.0
C2111 C 0.42322 0.30187 0.058 0.0
C2112 C 0.44248 0.28622 0.06146 0.0
H2113 H 0.55608 0.25432 0.08686 0.0
H2114 H 0.52381 0.27305 0.0706 0.0
H2115 H 0.49572 0.27729 0.04316 0.0
H2116 H 0.39818 0.33242 0.01693 0.0
H2117 H 0.42695 0.30412 0.02203 0.0
C2118 C 0.04418 0.24906 0.91132 0.0
C2119 C 0.04591 0.27241 0.90979 0.0
C2120 C 0.02501 0.23906 0.91999 0.0
C2121 C 0.97583 0.24193 0.95377 0.0
H2122 H 0.94797 0.20654 0.90708 0.0
C2123 C 0.91254 0.17023 0.9691 0.0
C2124 C 0.89418 0.16809 0.95458 0.0
C2125 C 0.92875 0.18668 0.96558 0.0
C2126 C 0.95533 0.21657 0.92023 0.0
H2127 H 0.0294 0.30368 0.91724 0.0
H2128 H 0.99584 0.28601 0.9334 0.0
H2129 H 0.98182 0.22787 0.89896 0.0
H2130 H 0.87808 0.18204 0.92535 0.0
H2131 H 0.90686 0.21055 0.91879 0.0
H2132 H 0.94986 0.2297 0.97534 0.0
C2133 C 0.0095 0.27557 0.92778 0.0
C2134 C 0.97478 0.22866 0.91562 0.0
C2135 C 0.02876 0.28566 0.91882 0.0
C2136 C 0.89198 0.18332 0.93686 0.0
C2137 C 0.9085 0.19955 0.93306 0.0
C2138 C 0.95653 0.22945 0.95853 0.0
C2139 C 0.00711 0.25217 0.92748 0.0
C2140 C 0.98539 0.24121 0.93238 0.0
C2141 C 0.92725 0.20118 0.94721 0.0
C2142 C 0.94621 0.21643 0.94184 0.0
H2143 H 0.05697 0.23846 0.90411 0.0
H2144 H 0.02364 0.22101 0.91969 0.0
H2145 H 0.98374 0.25145 0.96697 0.0
H2146 H 0.91464 0.1588 0.98298 0.0
H2147 H 0.94303 0.18734 0.97666 0.0
C2148 C 0.99394 0.79338 0.16375 0.0
C2149 C 0.97215 0.79151 0.15536 0.0
C2150 C 0.00482 0.77477 0.17283 0.0
C2151 C 0.02344 0.73408 0.19678 0.0
H2152 H 0.01462 0.67921 0.16351 0.0
C2153 C 0.07299 0.65444 0.21887 0.0
C2154 C 0.08141 0.64169 0.20101 0.0
C2155 C 0.05716 0.67123 0.2152 0.0
C2156 C 0.0174 0.69439 0.17293 0.0
H2157 H 0.94442 0.76899 0.15018 0.0
H2158 H 0.96298 0.73658 0.16688 0.0
H2159 H 0.99186 0.71181 0.15498 0.0
H2160 H 0.07907 0.63619 0.16532 0.0
H2161 H 0.05174 0.66572 0.1588 0.0
H2162 H 0.04971 0.71705 0.21396 0.0
C2163 C 0.97184 0.75233 0.16631 0.0
C2164 C 0.00406 0.71307 0.16827 0.0
C2165 C 0.961 0.77098 0.15716 0.0
C2166 C 0.07287 0.64557 0.17948 0.0
C2167 C 0.05712 0.66254 0.17577 0.0
C2168 C 0.03683 0.71545 0.20137 0.0
C2169 C 0.9942 0.75377 0.17355 0.0
C2170 C 0.00705 0.73328 0.17996 0.0
C2171 C 0.04938 0.67593 0.19352 0.0
C2172 C 0.03417 0.69537 0.18937 0.0
H2173 H 0.00314 0.80884 0.16179 0.0
H2174 H 0.02209 0.77657 0.17787 0.0
H2175 H 0.02614 0.74922 0.2063 0.0
H2176 H 0.07901 0.65178 0.23573 0.0
H2177 H 0.05124 0.68075 0.22939 0.0
C2178 C 0.45912 0.74705 0.42383 0.0
C2179 C 0.45909 0.72792 0.41023 0.0
C2180 C 0.47919 0.75571 0.43217 0.0
C2181 C 0.53591 0.76337 0.4149 0.0
H2182 H 0.54777 0.78173 0.47579 0.0
C2183 C 0.61418 0.81653 0.43606 0.0
C2184 C 0.61184 0.83285 0.45277 0.0
C2185 C 0.5976 0.80022 0.43284 0.0
C2186 C 0.54469 0.77707 0.45861 0.0
H2187 H 0.47996 0.70263 0.395 0.0
H2188 H 0.5152 0.71813 0.40917 0.0
H2189 H 0.51453 0.75972 0.46743 0.0
H2190 H 0.59019 0.84452 0.4794 0.0
H2191 H 0.56122 0.81716 0.47324 0.0
H2192 H 0.56496 0.78186 0.40559 0.0
C2193 C 0.49961 0.72608 0.41377 0.0
C2194 C 0.52569 0.76421 0.45392 0.0
C2195 C 0.47945 0.71705 0.40593 0.0
C2196 C 0.59276 0.83212 0.46647 0.0
C2197 C 0.57607 0.81617 0.463 0.0
C2198 C 0.55463 0.77668 0.41947 0.0
C2199 C 0.4997 0.74581 0.42651 0.0
C2200 C 0.52099 0.75741 0.43199 0.0
C2201 C 0.57802 0.80005 0.44598 0.0
C2202 C 0.55919 0.78406 0.44137 0.0
H2203 H 0.44371 0.756 0.42699 0.0
H2204 H 0.47878 0.77103 0.4418 0.0
H2205 H 0.53253 0.7586 0.39778 0.0
H2206 H 0.62868 0.81652 0.42526 0.0
H2207 H 0.60013 0.78789 0.41986 0.0
C2208 C 0.5094 0.20978 0.66327 0.0
C2209 C 0.53126 0.21187 0.65512 0.0
C2210 C 0.49823 0.22824 0.67235 0.0
C2211 C 0.47868 0.26866 0.69612 0.0
H2212 H 0.48806 0.32406 0.66393 0.0
C2213 C 0.42826 0.34788 0.71837 0.0
C2214 C 0.4204 0.36111 0.70059 0.0
C2215 C 0.44418 0.33112 0.71478 0.0
C2216 C 0.4851 0.30873 0.67305 0.0
H2217 H 0.5588 0.23472 0.65042 0.0
H2218 H 0.53978 0.26682 0.66717 0.0
H2219 H 0.51109 0.29166 0.65542 0.0
H2220 H 0.42385 0.36741 0.66512 0.0
H2221 H 0.45132 0.33798 0.65875 0.0
H2222 H 0.45198 0.28535 0.71297 0.0
C2223 C 0.53106 0.251 0.66639 0.0
C2224 C 0.49861 0.29014 0.66841 0.0
C2225 C 0.54219 0.2325 0.65723 0.0
C2226 C 0.42961 0.35769 0.67925 0.0
C2227 C 0.44544 0.34076 0.67561 0.0
C2228 C 0.46512 0.2872 0.7007 0.0
C2229 C 0.50861 0.24935 0.67333 0.0
C2230 C 0.49547 0.26973 0.67971 0.0
C2231 C 0.45262 0.32689 0.69325 0.0
C2232 C 0.46796 0.30749 0.68909 0.0
H2233 H 0.50032 0.19427 0.66104 0.0
H2234 H 0.48092 0.22623 0.67714 0.0
H2235 H 0.47583 0.25339 0.70537 0.0
H2236 H 0.42171 0.35013 0.73508 0.0
H2237 H 0.44962 0.32125 0.72892 0.0
C2238 C 0.98458 0.79341 0.5926 0.0
C2239 C 0.96361 0.78293 0.59236 0.0
C2240 C 0.00327 0.78283 0.58325 0.0
C2241 C 0.04149 0.74969 0.58118 0.0
H2242 H 0.03884 0.70587 0.53366 0.0
C2243 C 0.10707 0.67896 0.57283 0.0
C2244 C 0.11201 0.67034 0.55155 0.0
C2245 C 0.09043 0.69523 0.57557 0.0
C2246 C 0.04011 0.71825 0.54678 0.0
H2247 H 0.94559 0.75353 0.58174 0.0
H2248 H 0.97793 0.735 0.56551 0.0
H2249 H 0.00723 0.73055 0.53997 0.0
H2250 H 0.10407 0.67307 0.51631 0.0
H2251 H 0.07571 0.70185 0.52098 0.0
H2252 H 0.0745 0.73767 0.58775 0.0
C2253 C 0.9801 0.75163 0.57226 0.0
C2254 C 0.02175 0.73228 0.5506 0.0
C2255 C 0.9614 0.76234 0.5814 0.0
C2256 C 0.1006 0.67918 0.53299 0.0
C2257 C 0.08413 0.69559 0.5357 0.0
C2258 C 0.05991 0.7358 0.57724 0.0
C2259 C 1.00152 0.76128 0.5739 0.0
C2260 C 0.02198 0.74798 0.5681 0.0
C2261 C 0.07841 0.70353 0.55709 0.0
C2262 C 0.0594 0.71958 0.56022 0.0
H2263 H 0.98685 0.80898 0.60153 0.0
H2264 H 0.01932 0.79109 0.58444 0.0
H2265 H 0.04235 0.76126 0.59504 0.0
H2266 H 0.11536 0.67246 0.58753 0.0
H2267 H 0.08643 0.70062 0.59236 0.0
C2268 C 0.46757 0.74078 0.85407 0.0
C2269 C 0.47052 0.71898 0.84588 0.0
C2270 C 0.47839 0.75892 0.84415 0.0
C2271 C 0.52937 0.7706 0.81101 0.0
H2272 H 0.50863 0.83177 0.81612 0.0
C2273 C 0.58416 0.84555 0.78399 0.0
C2274 C 0.58623 0.86303 0.79964 0.0
C2275 C 0.56789 0.82894 0.78656 0.0
C2276 C 0.51469 0.81479 0.81465 0.0
H2277 H 0.48616 0.69925 0.82002 0.0
H2278 H 0.50455 0.73112 0.80194 0.0
H2279 H 0.48304 0.80101 0.82395 0.0
H2280 H 0.57188 0.87708 0.82977 0.0
H2281 H 0.54319 0.84824 0.834 0.0
H2282 H 0.56101 0.78449 0.80165 0.0
C2283 C 0.49412 0.73418 0.81639 0.0
C2284 C 0.50002 0.79707 0.81916 0.0
C2285 C 0.4832 0.71592 0.82642 0.0
C2286 C 0.57082 0.86395 0.81737 0.0
C2287 C 0.55433 0.84741 0.81979 0.0
C2288 C 0.54394 0.78831 0.80622 0.0
C2289 C 0.49259 0.75584 0.82568 0.0
C2290 C 0.50724 0.77467 0.81788 0.0
C2291 C 0.553 0.82941 0.80467 0.0
C2292 C 0.53692 0.81065 0.80835 0.0
H2293 H 0.45817 0.74359 0.86928 0.0
H2294 H 0.47684 0.77508 0.85209 0.0
H2295 H 0.53584 0.75374 0.8102 0.0
H2296 H 0.59561 0.84421 0.77007 0.0
H2297 H 0.56715 0.81553 0.77444 0.0
C2298 C 0.91134 0.16814 0.29675 0.0
C2299 C 0.91368 0.14593 0.30412 0.0
C2300 C 0.92879 0.18346 0.29902 0.0
C2301 C 0.97867 0.19482 0.33299 0.0
H2302 H 0.989 0.24107 0.2888 0.0
C2303 C 0.04102 0.26512 0.35128 0.0
C2304 C 0.03322 0.28679 0.34692 0.0
C2305 C 0.03044 0.24652 0.34187 0.0
C2306 C 0.98631 0.22833 0.30136 0.0
H2307 H 0.93665 0.12233 0.31912 0.0
H2308 H 0.96729 0.14923 0.32317 0.0
H2309 H 0.96289 0.2108 0.28072 0.0
H2310 H 0.0088 0.30616 0.32872 0.0
H2311 H 0.99022 0.27379 0.31216 0.0
H2312 H 1.00144 0.21262 0.35394 0.0
C2313 C 0.95175 0.15475 0.31575 0.0
C2314 C 0.97132 0.21094 0.29672 0.0
C2315 C 0.93424 0.13929 0.31334 0.0
C2316 C 0.01558 0.28965 0.33177 0.0
C2317 C 0.00483 0.27102 0.32245 0.0
C2318 C 0.99361 0.21221 0.33765 0.0
C2319 C 0.94916 0.1771 0.30878 0.0
C2320 C 0.96698 0.19417 0.31264 0.0
C2321 C 0.0115 0.24916 0.32818 0.0
C2322 C 0.99739 0.22943 0.32205 0.0
H2323 H 0.89582 0.17388 0.28943 0.0
H2324 H 0.92601 0.20053 0.29373 0.0
H2325 H 0.97554 0.18243 0.34579 0.0
H2326 H 0.05429 0.26248 0.36331 0.0
H2327 H 0.03637 0.23002 0.34631 0.0
C2328 C 0.09494 0.28314 0.42336 0.0
C2329 C 0.07598 0.29428 0.43159 0.0
C2330 C 0.10723 0.26887 0.43716 0.0
C2331 C 0.11999 0.25706 0.49588 0.0
H2332 H 0.13771 0.19871 0.47393 0.0
C2333 C 0.18384 0.20107 0.54154 0.0
C2334 C 0.17836 0.17834 0.54383 0.0
C2335 C 0.17097 0.21509 0.52806 0.0
C2336 C 0.13277 0.21491 0.48031 0.0
H2337 H 0.05532 0.29947 0.4609 0.0
H2338 H 0.07695 0.27472 0.48502 0.0
H2339 H 0.11597 0.22363 0.44993 0.0
H2340 H 0.15505 0.15251 0.53367 0.0
H2341 H 0.13269 0.17705 0.50987 0.0
H2342 H 0.13684 0.24838 0.52623 0.0
C2343 C 0.08223 0.277 0.46787 0.0
C2344 C 0.12052 0.22923 0.46652 0.0
C2345 C 0.06979 0.29108 0.45401 0.0
C2346 C 0.15973 0.16994 0.53226 0.0
C2347 C 0.14699 0.18394 0.51855 0.0
C2348 C 0.13244 0.24284 0.50958 0.0
C2349 C 0.10099 0.26565 0.45955 0.0
C2350 C 0.114 0.25045 0.47417 0.0
C2351 C 0.15245 0.20667 0.51638 0.0
C2352 C 0.13896 0.22162 0.50193 0.0
H2353 H 0.10016 0.28522 0.40616 0.0
H2354 H 0.12176 0.2605 0.43037 0.0
H2355 H 0.11531 0.27336 0.50216 0.0
H2356 H 0.19802 0.20811 0.5503 0.0
H2357 H 0.1757 0.23249 0.52654 0.0
C2358 C 0.0759 0.90323 0.79088 0.0
C2359 C 0.07346 0.92648 0.79279 0.0
C2360 C 0.06164 0.8909 0.77709 0.0
C2361 C 0.00716 0.89463 0.74702 0.0
H2362 H 0.03013 0.84294 0.71547 0.0
C2363 C 0.95895 0.84826 0.6768 0.0
C2364 C 0.95784 0.82491 0.67907 0.0
C2365 C 0.97279 0.86087 0.69079 0.0
C2366 C 0.02349 0.85728 0.72429 0.0
H2367 H 0.05433 0.9551 0.78149 0.0
H2368 H 0.0301 0.93381 0.75681 0.0
H2369 H 0.05501 0.86465 0.7393 0.0
H2370 H 0.97044 0.79649 0.69774 0.0
H2371 H 0.9949 0.81852 0.7218 0.0
H2372 H 0.97576 0.88745 0.73134 0.0
C2373 C 0.04253 0.9249 0.76645 0.0
C2374 C 0.03769 0.86968 0.73806 0.0
C2375 C 0.05656 0.93717 0.7805 0.0
C2376 C 0.97088 0.81445 0.69557 0.0
C2377 C 0.98498 0.82702 0.70928 0.0
C2378 C 0.99306 0.88242 0.73296 0.0
C2379 C 0.0448 0.90157 0.7646 0.0
C2380 C 0.0297 0.88847 0.74972 0.0
C2381 C 0.98605 0.85033 0.70703 0.0
C2382 C 1.00107 0.86357 0.72157 0.0
H2383 H 0.08863 0.89449 0.80032 0.0
H2384 H 0.06368 0.87294 0.77649 0.0
H2385 H 1.00023 0.9087 0.75602 0.0
H2386 H 0.94903 0.8568 0.66431 0.0
H2387 H 0.9734 0.87883 0.68868 0.0
C2388 C 0.43599 0.7073 0.95295 0.0
C2389 C 0.42923 0.70455 0.93062 0.0
C2390 C 0.42371 0.72078 0.96751 0.0
C2391 C 0.38466 0.768 0.96823 0.0
H2392 H 0.37217 0.74847 0.02871 0.0
C2393 C 0.34789 0.82682 0.03568 0.0
C2394 C 0.33009 0.81809 0.04826 0.0
C2395 C 0.36035 0.81295 0.02158 0.0
C2396 C 0.37548 0.75413 0.01185 0.0
H2397 H 0.40404 0.71361 0.90618 0.0
H2398 H 0.38265 0.73724 0.93165 0.0
H2399 H 0.39247 0.72382 0.00332 0.0
H2400 H 0.3118 0.78783 0.05629 0.0
H2401 H 0.33361 0.76372 0.03185 0.0
H2402 H 0.36758 0.79828 0.97675 0.0
C2403 C 0.39755 0.72903 0.9378 0.0
C2404 C 0.38723 0.74008 0.99738 0.0
C2405 C 0.40972 0.71537 0.92327 0.0
C2406 C 0.32534 0.79513 0.04677 0.0
C2407 C 0.33791 0.78126 0.03287 0.0
C2408 C 0.37308 0.78214 0.98278 0.0
C2409 C 0.40448 0.73196 0.96005 0.0
C2410 C 0.39188 0.74684 0.97538 0.0
C2411 C 0.35544 0.79004 0.01999 0.0
C2412 C 0.3683 0.77531 0.00472 0.0
H2413 H 0.45089 0.69916 0.95918 0.0
H2414 H 0.42956 0.72283 0.98451 0.0
H2415 H 0.38819 0.77375 0.95145 0.0
H2416 H 0.35199 0.84443 0.03645 0.0
H2417 H 0.37391 0.82013 0.01201 0.0
C2418 C 0.5418 0.15256 0.17554 0.0
C2419 C 0.54295 0.17585 0.1783 0.0
C2420 C 0.52834 0.13964 0.18963 0.0
C2421 C 0.4788 0.14242 0.22485 0.0
H2422 H 0.504 0.09184 0.25647 0.0
C2423 C 0.42935 0.09752 0.29394 0.0
C2424 C 0.43162 0.07426 0.29583 0.0
C2425 C 0.44337 0.10969 0.2798 0.0
C2426 C 0.49655 0.10567 0.24753 0.0
H2427 H 0.53069 0.20388 0.19775 0.0
H2428 H 0.50687 0.18137 0.22192 0.0
H2429 H 0.52717 0.11294 0.23042 0.0
H2430 H 0.45046 0.04548 0.28446 0.0
H2431 H 0.47435 0.06651 0.25922 0.0
H2432 H 0.44806 0.135 0.2413 0.0
C2433 C 0.51648 0.17313 0.20899 0.0
C2434 C 0.50988 0.11778 0.23266 0.0
C2435 C 0.5302 0.18597 0.19521 0.0
C2436 C 0.44838 0.06343 0.28348 0.0
C2437 C 0.46217 0.07554 0.26907 0.0
C2438 C 0.46537 0.13013 0.23942 0.0
C2439 C 0.5155 0.14985 0.20641 0.0
C2440 C 0.50117 0.13637 0.22136 0.0
C2441 C 0.45979 0.09883 0.26693 0.0
C2442 C 0.4741 0.1117 0.25114 0.0
H2443 H 0.55154 0.1443 0.16273 0.0
H2444 H 0.52778 0.12171 0.18728 0.0
H2445 H 0.47164 0.15657 0.21613 0.0
H2446 H 0.41674 0.10636 0.30344 0.0
H2447 H 0.44134 0.12764 0.27905 0.0
C2448 C 0.60321 0.21705 0.5807 0.0
C2449 C 0.58214 0.20997 0.57309 0.0
C2450 C 0.61643 0.23121 0.5676 0.0
C2451 C 0.62365 0.25055 0.50924 0.0
H2452 H 0.65595 0.29977 0.53628 0.0
C2453 C 0.6602 0.32202 0.45686 0.0
C2454 C 0.68185 0.32954 0.46201 0.0
C2455 C 0.64912 0.30714 0.47096 0.0
C2456 C 0.64723 0.28594 0.52853 0.0
H2457 H 0.55844 0.21236 0.54574 0.0
H2458 H 0.58125 0.2372 0.5232 0.0
H2459 H 0.63456 0.27423 0.55988 0.0
H2460 H 0.7087 0.32747 0.48626 0.0
H2461 H 0.6892 0.30142 0.511 0.0
H2462 H 0.63602 0.26241 0.4779 0.0
C2463 C 0.58777 0.23155 0.5391 0.0
C2464 C 0.63499 0.27129 0.54204 0.0
C2465 C 0.5746 0.2174 0.55213 0.0
C2466 C 0.69204 0.32202 0.4818 0.0
C2467 C 0.68085 0.30718 0.49602 0.0
C2468 C 0.63578 0.26521 0.49577 0.0
C2469 C 0.60889 0.23858 0.54661 0.0
C2470 C 0.62284 0.25357 0.53251 0.0
C2471 C 0.65934 0.29942 0.49062 0.0
C2472 C 0.64749 0.28323 0.50522 0.0
H2473 H 0.60958 0.21157 0.59672 0.0
H2474 H 0.63271 0.23611 0.57379 0.0
H2475 H 0.61491 0.2368 0.50137 0.0
H2476 H 0.65181 0.32742 0.44178 0.0
H2477 H 0.63243 0.30175 0.4665 0.0
C2478 C 0.9202 0.40511 0.72514 0.0
C2479 C 0.92886 0.42372 0.71373 0.0
C2480 C 0.93389 0.39245 0.73925 0.0
C2481 C 0.99267 0.37821 0.74914 0.0
H2482 H 0.97284 0.36092 0.80833 0.0
C2483 C 0.0415 0.31586 0.8038 0.0
C2484 C 0.04477 0.3218 0.82629 0.0
C2485 C 0.02693 0.32806 0.79029 0.0
C2486 C 0.97861 0.36571 0.79187 0.0
H2487 H 0.95874 0.4435 0.70808 0.0
H2488 H 0.98249 0.42137 0.73252 0.0
H2489 H 0.94801 0.38268 0.78419 0.0
H2490 H 0.03513 0.34517 0.85225 0.0
H2491 H 0.00951 0.36643 0.82859 0.0
H2492 H 0.02326 0.36138 0.75678 0.0
C2493 C 0.96516 0.41657 0.73056 0.0
C2494 C 0.96434 0.37797 0.778 0.0
C2495 C 0.95148 0.42932 0.71666 0.0
C2496 C 0.033 0.34016 0.835 0.0
C2497 C 0.01823 0.35225 0.82151 0.0
C2498 C 0.00682 0.3658 0.7629 0.0
C2499 C 0.95654 0.398 0.74198 0.0
C2500 C 0.9713 0.38444 0.75654 0.0
C2501 C 0.01515 0.34638 0.79899 0.0
C2502 C 0.99998 0.35948 0.78443 0.0
H2503 H 0.90286 0.40035 0.72323 0.0
H2504 H 0.92685 0.3781 0.74774 0.0
H2505 H 0.99841 0.38282 0.73261 0.0
H2506 H 0.05035 0.30185 0.79652 0.0
H2507 H 0.02474 0.32303 0.77305 0.0
C2508 C 0.90668 0.7792 0.08458 0.0
C2509 C 0.92093 0.79482 0.0744 0.0
C2510 C 0.89454 0.76405 0.07157 0.0
C2511 C 0.86962 0.7564 0.01697 0.0
H2512 H 0.87572 0.69268 0.02728 0.0
C2513 C 0.81334 0.69031 0.975 0.0
C2514 C 0.82487 0.67365 0.96312 0.0
C2515 C 0.82478 0.70466 0.98939 0.0
C2516 C 0.87388 0.71043 0.02429 0.0
H2517 H 0.93325 0.80726 0.04269 0.0
H2518 H 0.91148 0.78121 0.01997 0.0
H2519 H 0.89591 0.7192 0.05118 0.0
H2520 H 0.85731 0.65859 0.95744 0.0
H2521 H 0.87723 0.6834 0.98323 0.0
H2522 H 0.84738 0.7477 0.9903 0.0
C2523 C 0.90997 0.78052 0.03799 0.0
C2524 C 0.88528 0.72554 0.03799 0.0
C2525 C 0.92246 0.79533 0.05098 0.0
C2526 C 0.848 0.67127 0.96638 0.0
C2527 C 0.85937 0.68537 0.98115 0.0
C2528 C 0.85788 0.74133 0.00359 0.0
C2529 C 0.89608 0.76463 0.04817 0.0
C2530 C 0.88336 0.74864 0.03431 0.0
C2531 C 0.84788 0.70238 0.99251 0.0
C2532 C 0.86003 0.71822 0.00704 0.0
H2533 H 0.90527 0.77838 0.1026 0.0
H2534 H 0.88383 0.75198 0.07975 0.0
H2535 H 0.86786 0.77415 0.01388 0.0
H2536 H 0.79555 0.69267 0.97272 0.0
H2537 H 0.81557 0.71761 0.99805 0.0
C2538 C 0.45492 0.65786 0.32539 0.0
C2539 C 0.45942 0.67983 0.33237 0.0
C2540 C 0.46932 0.6469 0.3107 0.0
C2541 C 0.52668 0.64669 0.28877 0.0
H2542 H 0.5 0.61418 0.2395 0.0
C2543 C 0.57976 0.60593 0.21888 0.0
C2544 C 0.57301 0.58462 0.21165 0.0
C2545 C 0.56614 0.61849 0.23313 0.0
C2546 C 0.50774 0.62297 0.25329 0.0
H2547 H 0.4829 0.70734 0.32971 0.0
H2548 H 0.50812 0.68806 0.30408 0.0
H2549 H 0.47613 0.63393 0.26583 0.0
H2550 H 0.54655 0.55989 0.21367 0.0
H2551 H 0.52313 0.58156 0.23868 0.0
H2552 H 0.55829 0.63545 0.2764 0.0
C2553 C 0.49344 0.67936 0.31007 0.0
C2554 C 0.49405 0.63431 0.26837 0.0
C2555 C 0.47894 0.6904 0.32469 0.0
C2556 C 0.55229 0.57627 0.21885 0.0
C2557 C 0.53875 0.58877 0.2331 0.0
C2558 C 0.54041 0.63524 0.27373 0.0
C2559 C 0.48861 0.65759 0.3027 0.0
C2560 C 0.50334 0.64613 0.28638 0.0
C2561 C 0.5455 0.61003 0.24046 0.0
C2562 C 0.53107 0.62308 0.25591 0.0
H2563 H 0.44005 0.64921 0.33094 0.0
H2564 H 0.46533 0.63001 0.30557 0.0
H2565 H 0.53431 0.65553 0.3026 0.0
H2566 H 0.59557 0.61291 0.21359 0.0
H2567 H 0.57173 0.63493 0.23825 0.0
C2568 C 0.29389 0.43027 0.10357 0.0
C2569 C 0.29551 0.43325 0.08034 0.0
C2570 C 0.27979 0.44386 0.11627 0.0
C2571 C 0.22878 0.47636 0.11249 0.0
H2572 H 0.25007 0.50739 0.16519 0.0
C2573 C 0.17381 0.54048 0.15863 0.0
C2574 C 0.17579 0.54213 0.18194 0.0
C2575 C 0.18857 0.52717 0.14641 0.0
C2576 C 0.2437 0.49856 0.15076 0.0
H2577 H 0.2837 0.45288 0.05223 0.0
H2578 H 0.25872 0.47625 0.07443 0.0
H2579 H 0.27569 0.484 0.14382 0.0
H2580 H 0.19453 0.53083 0.2108 0.0
H2581 H 0.21966 0.50689 0.18966 0.0
H2582 H 0.19669 0.49016 0.11961 0.0
C2583 C 0.26847 0.46348 0.08275 0.0
C2584 C 0.25845 0.48527 0.13847 0.0
C2585 C 0.28285 0.45018 0.0701 0.0
C2586 C 0.19266 0.52999 0.19282 0.0
C2587 C 0.2072 0.51639 0.18065 0.0
C2588 C 0.21394 0.48932 0.12496 0.0
C2589 C 0.26677 0.4604 0.10592 0.0
C2590 C 0.25114 0.47419 0.11916 0.0
C2591 C 0.20545 0.5149 0.15725 0.0
C2592 C 0.22121 0.50073 0.14419 0.0
H2593 H 0.30352 0.41743 0.11192 0.0
H2594 H 0.27868 0.44114 0.13413 0.0
H2595 H 0.2227 0.46773 0.09779 0.0
H2596 H 0.16114 0.54986 0.14975 0.0
H2597 H 0.18694 0.52686 0.12841 0.0
C2598 C 0.79772 0.07173 0.91144 0.0
C2599 C 0.79258 0.07953 0.93298 0.0
C2600 C 0.78298 0.05771 0.90004 0.0
C2601 C 0.73576 0.0188 0.9086 0.0
H2602 H 0.72857 0.02623 0.84466 0.0
C2603 C 0.67272 0.96749 0.85497 0.0
C2604 C 0.68107 0.95934 0.83458 0.0
C2605 C 0.6853 0.98249 0.86781 0.0
C2606 C 0.73051 0.02386 0.8625 0.0
H2607 H 0.76779 0.07869 0.9594 0.0
H2608 H 0.74188 0.05444 0.9393 0.0
H2609 H 0.75209 0.05214 0.86538 0.0
H2610 H 0.70946 0.96026 0.81199 0.0
H2611 H 0.73116 0.98628 0.83428 0.0
H2612 H 0.71405 0.99044 0.90555 0.0
C2613 C 0.75748 0.05897 0.93137 0.0
C2614 C 0.74403 0.03868 0.87438 0.0
C2615 C 0.77229 0.07297 0.94283 0.0
C2616 C 0.70238 0.96627 0.82751 0.0
C2617 C 0.71482 0.98132 0.84023 0.0
C2618 C 0.7221 0.004 0.89669 0.0
C2619 C 0.76265 0.05118 0.90982 0.0
C2620 C 0.74711 0.03615 0.89752 0.0
C2621 C 0.70637 0.98975 0.86041 0.0
C2622 C 0.71962 0.00619 0.87345 0.0
H2623 H 0.81327 0.07625 0.90341 0.0
H2624 H 0.78772 0.0517 0.88365 0.0
H2625 H 0.73792 0.01623 0.92637 0.0
H2626 H 0.65642 0.96244 0.86093 0.0
H2627 H 0.67834 0.98877 0.88328 0.0
C2628 C 0.82078 0.04623 0.34743 0.0
C2629 C 0.8271 0.04249 0.32514 0.0
C2630 C 0.80611 0.0317 0.3582 0.0
C2631 C 0.78338 0.97478 0.3572 0.0
H2632 H 0.7354 1.00119 0.39177 0.0
C2633 C 0.71463 0.92152 0.39994 0.0
C2634 C 0.70828 0.92815 0.42155 0.0
C2635 C 0.7285 0.93514 0.38695 0.0
C2636 C 0.74883 0.99352 0.38238 0.0
H2637 H 0.82327 0.02018 0.29683 0.0
H2638 H 0.79767 0.99463 0.31579 0.0
H2639 H 0.76131 0.02524 0.37169 0.0
H2640 H 0.71157 0.95435 0.44642 0.0
H2641 H 0.73594 0.97773 0.42407 0.0
H2642 H 0.77113 0.94304 0.36826 0.0
C2643 C 0.80416 0.00888 0.32487 0.0
C2644 C 0.76365 0.00732 0.37086 0.0
C2645 C 0.81876 0.02354 0.314 0.0
C2646 C 0.71603 0.94872 0.42983 0.0
C2647 C 0.72992 0.96224 0.41692 0.0
C2648 C 0.7686 0.96093 0.36887 0.0
C2649 C 0.79747 0.01298 0.34698 0.0
C2650 C 0.78123 0.99812 0.35835 0.0
C2651 C 0.73633 0.95566 0.39532 0.0
C2652 C 0.7513 0.97017 0.38182 0.0
H2653 H 0.82686 0.06067 0.35653 0.0
H2654 H 0.8015 0.03511 0.37535 0.0
H2655 H 0.79687 0.96724 0.3478 0.0
H2656 H 0.70888 0.90582 0.39301 0.0
H2657 H 0.73292 0.92969 0.37028 0.0
C2658 C 0.30626 0.47013 0.68976 0.0
C2659 C 0.32336 0.45828 0.67891 0.0
C2660 C 0.29217 0.4843 0.67772 0.0
C2661 C 0.28715 0.51363 0.623 0.0
H2662 H 0.2251 0.51918 0.64075 0.0
C2663 C 0.21943 0.5554 0.56836 0.0
C2664 C 0.20657 0.57196 0.57896 0.0
C2665 C 0.23371 0.54176 0.58076 0.0
C2666 C 0.24243 0.51787 0.63573 0.0
H2667 H 0.33888 0.45168 0.64691 0.0
H2668 H 0.31377 0.47566 0.62571 0.0
H2669 H 0.24987 0.4945 0.66164 0.0
H2670 H 0.19824 0.58686 0.61089 0.0
H2671 H 0.2229 0.56252 0.63267 0.0
H2672 H 0.27928 0.53647 0.59657 0.0
C2673 C 0.31164 0.47466 0.64363 0.0
C2674 C 0.2567 0.50383 0.64774 0.0
C2675 C 0.32598 0.46078 0.65575 0.0
C2676 C 0.20802 0.57432 0.60227 0.0
C2677 C 0.22202 0.56037 0.61472 0.0
C2678 C 0.27277 0.52736 0.61078 0.0
C2679 C 0.29456 0.48667 0.65446 0.0
C2680 C 0.27929 0.50156 0.64158 0.0
C2681 C 0.23511 0.5441 0.60404 0.0
C2682 C 0.25032 0.52964 0.61708 0.0
H2683 H 0.30393 0.4687 0.70764 0.0
H2684 H 0.27957 0.49358 0.68677 0.0
H2685 H 0.30449 0.51273 0.61799 0.0
H2686 H 0.21873 0.55319 0.55042 0.0
H2687 H 0.24353 0.52922 0.57218 0.0
loop_
_geom_bond_atom_site_label_1
_geom_bond_atom_site_label_2
_geom_bond_distance
_geom_bond_site_symmetry_2
_ccdc_geom_bond_type
Fe0 O2 1.918 . S
Fe0 O5 1.997 . S
Fe0 O6 2.002 . S
Fe0 O11 1.976 . S
Fe0 O14 1.996 1_455 S
Fe1 O2 1.918 . S
Fe1 O9 1.997 . S
Fe1 O12 1.996 . S
Fe1 O16 1.976 . S
Fe1 O19 2.002 . S
O2 Fe0 1.918 . S
O2 Fe1 1.918 . S
O2 Fe3 1.918 . S
Fe3 O2 1.918 . S
Fe3 O4 2.002 . S
Fe3 O13 1.976 1_455 S
Fe3 O17 1.996 . S
Fe3 O20 1.997 . S
O4 Fe3 2.002 . S
O4 C21 1.295 . S
O5 Fe0 1.997 . S
O5 C21 1.235 . S
O6 Fe0 2.002 . S
O6 C7 1.295 . S
C7 O6 1.295 . S
C7 O9 1.235 . S
C8 O13 1.287 . S
C8 O14 1.255 . S
O9 Fe1 1.997 . S
O9 C7 1.235 . S
C10 O16 1.287 . S
C10 O17 1.255 . S
O11 Fe0 1.976 . S
O11 C18 1.287 . S
O12 Fe1 1.996 . S
O12 C18 1.255 . S
O13 Fe3 1.976 1_655 S
O13 C8 1.287 . S
O14 Fe0 1.996 1_655 S
O14 C8 1.255 . S
C15 O19 1.295 . S
C15 O20 1.235 . S
O16 Fe1 1.976 . S
O16 C10 1.287 . S
O17 Fe3 1.996 . S
O17 C10 1.255 . S
C18 O11 1.287 . S
C18 O12 1.255 . S
O19 Fe1 2.002 . S
O19 C15 1.295 . S
O20 Fe3 1.997 . S
O20 C15 1.235 . S
C21 O4 1.295 . S
C21 O5 1.235 . S
Fe22 O24 1.918 . S
Fe22 O27 1.997 . S
Fe22 O28 2.002 . S
Fe22 O33 1.976 . S
Fe22 O36 1.996 . S
Fe23 O24 1.918 . S
Fe23 O31 1.997 . S
Fe23 O34 1.996 . S
Fe23 O38 1.976 . S
Fe23 O41 2.002 . S
O24 Fe22 1.918 . S
O24 Fe23 1.918 . S
O24 Fe25 1.918 . S
Fe25 O24 1.918 . S
Fe25 O26 2.002 . S
Fe25 O35 1.976 . S
Fe25 O39 1.996 . S
Fe25 O42 1.997 . S
O26 Fe25 2.002 . S
O26 C43 1.295 . S
O27 Fe22 1.997 . S
O27 C43 1.235 . S
O28 Fe22 2.002 . S
O28 C29 1.295 . S
C29 O28 1.295 . S
C29 O31 1.235 . S
C30 O35 1.287 . S
C30 O36 1.255 . S
O31 Fe23 1.997 . S
O31 C29 1.235 . S
C32 O38 1.287 . S
C32 O39 1.255 . S
O33 Fe22 1.976 . S
O33 C40 1.287 . S
O34 Fe23 1.996 . S
O34 C40 1.255 . S
O35 Fe25 1.976 . S
O35 C30 1.287 . S
O36 Fe22 1.996 . S
O36 C30 1.255 . S
C37 O41 1.295 . S
C37 O42 1.235 . S
O38 Fe23 1.976 . S
O38 C32 1.287 . S
O39 Fe25 1.996 . S
O39 C32 1.255 . S
C40 O33 1.287 . S
C40 O34 1.255 . S
O41 Fe23 2.002 . S
O41 C37 1.295 . S
O42 Fe25 1.997 . S
O42 C37 1.235 . S
C43 O26 1.295 . S
C43 O27 1.235 . S
Fe44 O46 1.918 . S
Fe44 O49 1.997 . S
Fe44 O50 2.002 . S
Fe44 O55 1.976 . S
Fe44 O58 1.996 . S
Fe45 O46 1.918 . S
Fe45 O53 1.997 . S
Fe45 O56 1.996 . S
Fe45 O60 1.976 . S
Fe45 O63 2.002 . S
O46 Fe44 1.918 . S
O46 Fe45 1.918 . S
O46 Fe47 1.918 . S
Fe47 O46 1.918 . S
Fe47 O48 2.002 . S
Fe47 O57 1.976 . S
Fe47 O61 1.996 . S
Fe47 O64 1.997 . S
O48 Fe47 2.002 . S
O48 C65 1.295 . S
O49 Fe44 1.997 . S
O49 C65 1.235 . S
O50 Fe44 2.002 . S
O50 C51 1.295 . S
C51 O50 1.295 . S
C51 O53 1.235 . S
C52 O57 1.287 . S
C52 O58 1.255 . S
O53 Fe45 1.997 . S
O53 C51 1.235 . S
C54 O60 1.287 . S
C54 O61 1.255 . S
O55 Fe44 1.976 . S
O55 C62 1.287 . S
O56 Fe45 1.996 . S
O56 C62 1.255 . S
O57 Fe47 1.976 . S
O57 C52 1.287 . S
O58 Fe44 1.996 . S
O58 C52 1.255 . S
C59 O63 1.295 . S
C59 O64 1.235 . S
O60 Fe45 1.976 . S
O60 C54 1.287 . S
O61 Fe47 1.996 . S
O61 C54 1.255 . S
C62 O55 1.287 . S
C62 O56 1.255 . S
O63 Fe45 2.002 . S
O63 C59 1.295 . S
O64 Fe47 1.997 . S
O64 C59 1.235 . S
C65 O48 1.295 . S
C65 O49 1.235 . S
Fe66 O68 1.918 . S
Fe66 O71 1.997 . S
Fe66 O72 2.002 . S
Fe66 O77 1.976 . S
Fe66 O80 1.996 . S
Fe67 O68 1.918 . S
Fe67 O75 1.997 . S
Fe67 O78 1.996 . S
Fe67 O82 1.976 . S
Fe67 O85 2.002 . S
O68 Fe66 1.918 . S
O68 Fe67 1.918 . S
O68 Fe69 1.918 . S
Fe69 O68 1.918 . S
Fe69 O70 2.002 . S
Fe69 O79 1.976 . S
Fe69 O83 1.996 . S
Fe69 O86 1.997 . S
O70 Fe69 2.002 . S
O70 C87 1.295 . S
O71 Fe66 1.997 . S
O71 C87 1.235 . S
O72 Fe66 2.002 . S
O72 C73 1.295 . S
C73 O72 1.295 . S
C73 O75 1.235 . S
C74 O79 1.287 . S
C74 O80 1.255 . S
O75 Fe67 1.997 . S
O75 C73 1.235 . S
C76 O82 1.287 . S
C76 O83 1.255 . S
O77 Fe66 1.976 . S
O77 C84 1.287 . S
O78 Fe67 1.996 . S
O78 C84 1.255 . S
O79 Fe69 1.976 . S
O79 C74 1.287 . S
O80 Fe66 1.996 . S
O80 C74 1.255 . S
C81 O85 1.295 . S
C81 O86 1.235 . S
O82 Fe67 1.976 . S
O82 C76 1.287 . S
O83 Fe69 1.996 . S
O83 C76 1.255 . S
C84 O77 1.287 . S
C84 O78 1.255 . S
O85 Fe67 2.002 . S
O85 C81 1.295 . S
O86 Fe69 1.997 . S
O86 C81 1.235 . S
C87 O70 1.295 . S
C87 O71 1.235 . S
Fe88 O90 1.918 . S
Fe88 O93 1.997 . S
Fe88 O94 2.002 . S
Fe88 O99 1.976 . S
Fe88 O102 1.996 . S
Fe89 O90 1.918 . S
Fe89 O97 1.997 . S
Fe89 O100 1.996 . S
Fe89 O104 1.976 . S
Fe89 O107 2.002 . S
O90 Fe88 1.918 . S
O90 Fe89 1.918 . S
O90 Fe91 1.918 . S
Fe91 O90 1.918 . S
Fe91 O92 2.002 . S
Fe91 O101 1.976 . S
Fe91 O105 1.996 . S
Fe91 O108 1.997 . S
O92 Fe91 2.002 . S
O92 C109 1.295 . S
O93 Fe88 1.997 . S
O93 C109 1.235 . S
O94 Fe88 2.002 . S
O94 C95 1.295 . S
C95 O94 1.295 . S
C95 O97 1.235 . S
C96 O101 1.287 . S
C96 O102 1.255 . S
O97 Fe89 1.997 . S
O97 C95 1.235 . S
C98 O104 1.287 . S
C98 O105 1.255 . S
O99 Fe88 1.976 . S
O99 C106 1.287 . S
O100 Fe89 1.996 . S
O100 C106 1.255 . S
O101 Fe91 1.976 . S
O101 C96 1.287 . S
O102 Fe88 1.996 . S
O102 C96 1.255 . S
C103 O107 1.295 . S
C103 O108 1.235 . S
O104 Fe89 1.976 . S
O104 C98 1.287 . S
O105 Fe91 1.996 . S
O105 C98 1.255 . S
C106 O99 1.287 . S
C106 O100 1.255 . S
O107 Fe89 2.002 . S
O107 C103 1.295 . S
O108 Fe91 1.997 . S
O108 C103 1.235 . S
C109 O92 1.295 . S
C109 O93 1.235 . S
Fe110 O112 1.918 . S
Fe110 O115 1.997 . S
Fe110 O116 2.002 . S
Fe110 O121 1.976 . S
Fe110 O124 1.996 . S
Fe111 O112 1.918 . S
Fe111 O119 1.997 . S
Fe111 O122 1.996 . S
Fe111 O126 1.976 . S
Fe111 O129 2.002 . S
O112 Fe110 1.918 . S
O112 Fe111 1.918 . S
O112 Fe113 1.918 . S
Fe113 O112 1.918 . S
Fe113 O114 2.002 . S
Fe113 O123 1.976 . S
Fe113 O127 1.996 . S
Fe113 O130 1.997 . S
O114 Fe113 2.002 . S
O114 C131 1.295 . S
O115 Fe110 1.997 . S
O115 C131 1.235 . S
O116 Fe110 2.002 . S
O116 C117 1.295 . S
C117 O116 1.295 . S
C117 O119 1.235 . S
C118 O123 1.287 . S
C118 O124 1.255 . S
O119 Fe111 1.997 . S
O119 C117 1.235 . S
C120 O126 1.287 . S
C120 O127 1.255 . S
O121 Fe110 1.976 . S
O121 C128 1.287 . S
O122 Fe111 1.996 . S
O122 C128 1.255 . S
O123 Fe113 1.976 . S
O123 C118 1.287 . S
O124 Fe110 1.996 . S
O124 C118 1.255 . S
C125 O129 1.295 . S
C125 O130 1.235 . S
O126 Fe111 1.976 . S
O126 C120 1.287 . S
O127 Fe113 1.996 . S
O127 C120 1.255 . S
C128 O121 1.287 . S
C128 O122 1.255 . S
O129 Fe111 2.002 . S
O129 C125 1.295 . S
O130 Fe113 1.997 . S
O130 C125 1.235 . S
C131 O114 1.295 . S
C131 O115 1.235 . S
Fe132 O134 1.918 . S
Fe132 O137 1.997 . S
Fe132 O138 2.002 . S
Fe132 O143 1.976 1_655 S
Fe132 O146 1.996 . S
Fe133 O134 1.918 . S
Fe133 O141 1.997 . S
Fe133 O144 1.996 1_655 S
Fe133 O148 1.976 . S
Fe133 O151 2.002 . S
O134 Fe132 1.918 . S
O134 Fe133 1.918 . S
O134 Fe135 1.918 . S
Fe135 O134 1.918 . S
Fe135 O136 2.002 . S
Fe135 O145 1.976 . S
Fe135 O149 1.996 . S
Fe135 O152 1.997 . S
O136 Fe135 2.002 . S
O136 C153 1.295 . S
O137 Fe132 1.997 . S
O137 C153 1.235 . S
O138 Fe132 2.002 . S
O138 C139 1.295 . S
C139 O138 1.295 . S
C139 O141 1.235 . S
C140 O145 1.287 . S
C140 O146 1.255 . S
O141 Fe133 1.997 . S
O141 C139 1.235 . S
C142 O148 1.287 . S
C142 O149 1.255 . S
O143 Fe132 1.976 1_455 S
O143 C150 1.287 . S
O144 Fe133 1.996 1_455 S
O144 C150 1.255 . S
O145 Fe135 1.976 . S
O145 C140 1.287 . S
O146 Fe132 1.996 . S
O146 C140 1.255 . S
C147 O151 1.295 . S
C147 O152 1.235 . S
O148 Fe133 1.976 . S
O148 C142 1.287 . S
O149 Fe135 1.996 . S
O149 C142 1.255 . S
C150 O143 1.287 . S
C150 O144 1.255 . S
O151 Fe133 2.002 . S
O151 C147 1.295 . S
O152 Fe135 1.997 . S
O152 C147 1.235 . S
C153 O136 1.295 . S
C153 O137 1.235 . S
Fe154 O156 1.918 . S
Fe154 O159 1.997 . S
Fe154 O160 2.002 . S
Fe154 O165 1.976 . S
Fe154 O168 1.996 . S
Fe155 O156 1.918 . S
Fe155 O163 1.997 . S
Fe155 O166 1.996 . S
Fe155 O170 1.976 . S
Fe155 O173 2.002 . S
O156 Fe154 1.918 . S
O156 Fe155 1.918 . S
O156 Fe157 1.918 . S
Fe157 O156 1.918 . S
Fe157 O158 2.002 . S
Fe157 O167 1.976 . S
Fe157 O171 1.996 . S
Fe157 O174 1.997 . S
O158 Fe157 2.002 . S
O158 C175 1.295 . S
O159 Fe154 1.997 . S
O159 C175 1.235 . S
O160 Fe154 2.002 . S
O160 C161 1.295 . S
C161 O160 1.295 . S
C161 O163 1.235 . S
C162 O167 1.287 . S
C162 O168 1.255 . S
O163 Fe155 1.997 . S
O163 C161 1.235 . S
C164 O170 1.287 . S
C164 O171 1.255 . S
O165 Fe154 1.976 . S
O165 C172 1.287 . S
O166 Fe155 1.996 . S
O166 C172 1.255 . S
O167 Fe157 1.976 . S
O167 C162 1.287 . S
O168 Fe154 1.996 . S
O168 C162 1.255 . S
C169 O173 1.295 . S
C169 O174 1.235 . S
O170 Fe155 1.976 . S
O170 C164 1.287 . S
O171 Fe157 1.996 . S
O171 C164 1.255 . S
C172 O165 1.287 . S
C172 O166 1.255 . S
O173 Fe155 2.002 . S
O173 C169 1.295 . S
O174 Fe157 1.997 . S
O174 C169 1.235 . S
C175 O158 1.295 . S
C175 O159 1.235 . S
Fe176 O178 1.918 . S
Fe176 O181 1.997 . S
Fe176 O182 2.002 . S
Fe176 O187 1.976 1_545 S
Fe176 O190 1.996 . S
Fe177 O178 1.918 . S
Fe177 O185 1.997 . S
Fe177 O188 1.996 1_545 S
Fe177 O192 1.976 . S
Fe177 O195 2.002 . S
O178 Fe176 1.918 . S
O178 Fe177 1.918 . S
O178 Fe179 1.918 . S
Fe179 O178 1.918 . S
Fe179 O180 2.002 . S
Fe179 O189 1.976 . S
Fe179 O193 1.996 . S
Fe179 O196 1.997 . S
O180 Fe179 2.002 . S
O180 C197 1.295 . S
O181 Fe176 1.997 . S
O181 C197 1.235 . S
O182 Fe176 2.002 . S
O182 C183 1.295 . S
C183 O182 1.295 . S
C183 O185 1.235 . S
C184 O189 1.287 . S
C184 O190 1.255 . S
O185 Fe177 1.997 . S
O185 C183 1.235 . S
C186 O192 1.287 . S
C186 O193 1.255 . S
O187 Fe176 1.976 1_565 S
O187 C194 1.287 . S
O188 Fe177 1.996 1_565 S
O188 C194 1.255 . S
O189 Fe179 1.976 . S
O189 C184 1.287 . S
O190 Fe176 1.996 . S
O190 C184 1.255 . S
C191 O195 1.295 . S
C191 O196 1.235 . S
O192 Fe177 1.976 . S
O192 C186 1.287 . S
O193 Fe179 1.996 . S
O193 C186 1.255 . S
C194 O187 1.287 . S
C194 O188 1.255 . S
O195 Fe177 2.002 . S
O195 C191 1.295 . S
O196 Fe179 1.997 . S
O196 C191 1.235 . S
C197 O180 1.295 . S
C197 O181 1.235 . S
Fe198 O200 1.918 . S
Fe198 O203 1.997 . S
Fe198 O204 2.002 . S
Fe198 O209 1.976 . S
Fe198 O212 1.996 . S
Fe199 O200 1.918 . S
Fe199 O207 1.997 . S
Fe199 O210 1.996 . S
Fe199 O214 1.976 . S
Fe199 O217 2.002 . S
O200 Fe198 1.918 . S
O200 Fe199 1.918 . S
O200 Fe201 1.918 . S
Fe201 O200 1.918 . S
Fe201 O202 2.002 . S
Fe201 O211 1.976 . S
Fe201 O215 1.996 . S
Fe201 O218 1.997 . S
O202 Fe201 2.002 . S
O202 C219 1.295 . S
O203 Fe198 1.997 . S
O203 C219 1.235 . S
O204 Fe198 2.002 . S
O204 C205 1.295 . S
C205 O204 1.295 . S
C205 O207 1.235 . S
C206 O211 1.287 . S
C206 O212 1.255 . S
O207 Fe199 1.997 . S
O207 C205 1.235 . S
C208 O214 1.287 . S
C208 O215 1.255 . S
O209 Fe198 1.976 . S
O209 C216 1.287 . S
O210 Fe199 1.996 . S
O210 C216 1.255 . S
O211 Fe201 1.976 . S
O211 C206 1.287 . S
O212 Fe198 1.996 . S
O212 C206 1.255 . S
C213 O217 1.295 . S
C213 O218 1.235 . S
O214 Fe199 1.976 . S
O214 C208 1.287 . S
O215 Fe201 1.996 . S
O215 C208 1.255 . S
C216 O209 1.287 . S
C216 O210 1.255 . S
O217 Fe199 2.002 . S
O217 C213 1.295 . S
O218 Fe201 1.997 . S
O218 C213 1.235 . S
C219 O202 1.295 . S
C219 O203 1.235 . S
Fe220 O222 1.918 . S
Fe220 O225 1.997 . S
Fe220 O226 2.002 . S
Fe220 O231 1.976 . S
Fe220 O234 1.996 1_565 S
Fe221 O222 1.918 . S
Fe221 O229 1.997 . S
Fe221 O232 1.996 . S
Fe221 O236 1.976 . S
Fe221 O239 2.002 . S
O222 Fe220 1.918 . S
O222 Fe221 1.918 . S
O222 Fe223 1.918 . S
Fe223 O222 1.918 . S
Fe223 O224 2.002 . S
Fe223 O233 1.976 1_565 S
Fe223 O237 1.996 . S
Fe223 O240 1.997 . S
O224 Fe223 2.002 . S
O224 C241 1.295 . S
O225 Fe220 1.997 . S
O225 C241 1.235 . S
O226 Fe220 2.002 . S
O226 C227 1.295 . S
C227 O226 1.295 . S
C227 O229 1.235 . S
C228 O233 1.287 . S
C228 O234 1.255 . S
O229 Fe221 1.997 . S
O229 C227 1.235 . S
C230 O236 1.287 . S
C230 O237 1.255 . S
O231 Fe220 1.976 . S
O231 C238 1.287 . S
O232 Fe221 1.996 . S
O232 C238 1.255 . S
O233 Fe223 1.976 1_545 S
O233 C228 1.287 . S
O234 Fe220 1.996 1_545 S
O234 C228 1.255 . S
C235 O239 1.295 . S
C235 O240 1.235 . S
O236 Fe221 1.976 . S
O236 C230 1.287 . S
O237 Fe223 1.996 . S
O237 C230 1.255 . S
C238 O231 1.287 . S
C238 O232 1.255 . S
O239 Fe221 2.002 . S
O239 C235 1.295 . S
O240 Fe223 1.997 . S
O240 C235 1.235 . S
C241 O224 1.295 . S
C241 O225 1.235 . S
Fe242 O244 1.918 . S
Fe242 O247 1.997 . S
Fe242 O248 2.002 . S
Fe242 O253 1.976 . S
Fe242 O256 1.996 . S
Fe243 O244 1.918 . S
Fe243 O251 1.997 . S
Fe243 O254 1.996 . S
Fe243 O258 1.976 . S
Fe243 O261 2.002 . S
O244 Fe242 1.918 . S
O244 Fe243 1.918 . S
O244 Fe245 1.918 . S
Fe245 O244 1.918 . S
Fe245 O246 2.002 . S
Fe245 O255 1.976 . S
Fe245 O259 1.996 . S
Fe245 O262 1.997 . S
O246 Fe245 2.002 . S
O246 C263 1.295 . S
O247 Fe242 1.997 . S
O247 C263 1.235 . S
O248 Fe242 2.002 . S
O248 C249 1.295 . S
C249 O248 1.295 . S
C249 O251 1.235 . S
C250 O255 1.287 . S
C250 O256 1.255 . S
O251 Fe243 1.997 . S
O251 C249 1.235 . S
C252 O258 1.287 . S
C252 O259 1.255 . S
O253 Fe242 1.976 . S
O253 C260 1.287 . S
O254 Fe243 1.996 . S
O254 C260 1.255 . S
O255 Fe245 1.976 . S
O255 C250 1.287 . S
O256 Fe242 1.996 . S
O256 C250 1.255 . S
C257 O261 1.295 . S
C257 O262 1.235 . S
O258 Fe243 1.976 . S
O258 C252 1.287 . S
O259 Fe245 1.996 . S
O259 C252 1.255 . S
C260 O253 1.287 . S
C260 O254 1.255 . S
O261 Fe243 2.002 . S
O261 C257 1.295 . S
O262 Fe245 1.997 . S
O262 C257 1.235 . S
C263 O246 1.295 . S
C263 O247 1.235 . S
Fe264 O266 1.918 . S
Fe264 O269 1.997 . S
Fe264 O270 2.002 . S
Fe264 O275 1.976 . S
Fe264 O278 1.996 . S
Fe265 O266 1.918 . S
Fe265 O273 1.997 . S
Fe265 O276 1.996 . S
Fe265 O280 1.976 . S
Fe265 O283 2.002 . S
O266 Fe264 1.918 . S
O266 Fe265 1.918 . S
O266 Fe267 1.918 . S
Fe267 O266 1.918 . S
Fe267 O268 2.002 . S
Fe267 O277 1.976 . S
Fe267 O281 1.996 . S
Fe267 O284 1.997 . S
O268 Fe267 2.002 . S
O268 C285 1.295 . S
O269 Fe264 1.997 . S
O269 C285 1.235 . S
O270 Fe264 2.002 . S
O270 C271 1.295 . S
C271 O270 1.295 . S
C271 O273 1.235 . S
C272 O277 1.287 . S
C272 O278 1.255 . S
O273 Fe265 1.997 . S
O273 C271 1.235 . S
C274 O280 1.287 . S
C274 O281 1.255 . S
O275 Fe264 1.976 . S
O275 C282 1.287 . S
O276 Fe265 1.996 . S
O276 C282 1.255 . S
O277 Fe267 1.976 . S
O277 C272 1.287 . S
O278 Fe264 1.996 . S
O278 C272 1.255 . S
C279 O283 1.295 . S
C279 O284 1.235 . S
O280 Fe265 1.976 . S
O280 C274 1.287 . S
O281 Fe267 1.996 . S
O281 C274 1.255 . S
C282 O275 1.287 . S
C282 O276 1.255 . S
O283 Fe265 2.002 . S
O283 C279 1.295 . S
O284 Fe267 1.997 . S
O284 C279 1.235 . S
C285 O268 1.295 . S
C285 O269 1.235 . S
Fe286 O288 1.918 . S
Fe286 O291 1.997 . S
Fe286 O292 2.002 . S
Fe286 O297 1.976 . S
Fe286 O300 1.996 . S
Fe287 O288 1.918 . S
Fe287 O295 1.997 . S
Fe287 O298 1.996 . S
Fe287 O302 1.976 . S
Fe287 O305 2.002 . S
O288 Fe286 1.918 . S
O288 Fe287 1.918 . S
O288 Fe289 1.918 . S
Fe289 O288 1.918 . S
Fe289 O290 2.002 . S
Fe289 O299 1.976 . S
Fe289 O303 1.996 . S
Fe289 O306 1.997 . S
O290 Fe289 2.002 . S
O290 C307 1.295 . S
O291 Fe286 1.997 . S
O291 C307 1.235 . S
O292 Fe286 2.002 . S
O292 C293 1.295 . S
C293 O292 1.295 . S
C293 O295 1.235 . S
C294 O299 1.287 . S
C294 O300 1.255 . S
O295 Fe287 1.997 . S
O295 C293 1.235 . S
C296 O302 1.287 . S
C296 O303 1.255 . S
O297 Fe286 1.976 . S
O297 C304 1.287 . S
O298 Fe287 1.996 . S
O298 C304 1.255 . S
O299 Fe289 1.976 . S
O299 C294 1.287 . S
O300 Fe286 1.996 . S
O300 C294 1.255 . S
C301 O305 1.295 . S
C301 O306 1.235 . S
O302 Fe287 1.976 . S
O302 C296 1.287 . S
O303 Fe289 1.996 . S
O303 C296 1.255 . S
C304 O297 1.287 . S
C304 O298 1.255 . S
O305 Fe287 2.002 . S
O305 C301 1.295 . S
O306 Fe289 1.997 . S
O306 C301 1.235 . S
C307 O290 1.295 . S
C307 O291 1.235 . S
Fe308 O310 1.918 . S
Fe308 O313 1.997 . S
Fe308 O314 2.002 . S
Fe308 O319 1.976 . S
Fe308 O322 1.996 . S
Fe309 O310 1.918 . S
Fe309 O317 1.997 . S
Fe309 O320 1.996 . S
Fe309 O324 1.976 . S
Fe309 O327 2.002 . S
O310 Fe308 1.918 . S
O310 Fe309 1.918 . S
O310 Fe311 1.918 . S
Fe311 O310 1.918 . S
Fe311 O312 2.002 . S
Fe311 O321 1.976 . S
Fe311 O325 1.996 . S
Fe311 O328 1.997 . S
O312 Fe311 2.002 . S
O312 C329 1.295 . S
O313 Fe308 1.997 . S
O313 C329 1.235 . S
O314 Fe308 2.002 . S
O314 C315 1.295 . S
C315 O314 1.295 . S
C315 O317 1.235 . S
C316 O321 1.287 . S
C316 O322 1.255 . S
O317 Fe309 1.997 . S
O317 C315 1.235 . S
C318 O324 1.287 . S
C318 O325 1.255 . S
O319 Fe308 1.976 . S
O319 C326 1.287 . S
O320 Fe309 1.996 . S
O320 C326 1.255 . S
O321 Fe311 1.976 . S
O321 C316 1.287 . S
O322 Fe308 1.996 . S
O322 C316 1.255 . S
C323 O327 1.295 . S
C323 O328 1.235 . S
O324 Fe309 1.976 . S
O324 C318 1.287 . S
O325 Fe311 1.996 . S
O325 C318 1.255 . S
C326 O319 1.287 . S
C326 O320 1.255 . S
O327 Fe309 2.002 . S
O327 C323 1.295 . S
O328 Fe311 1.997 . S
O328 C323 1.235 . S
C329 O312 1.295 . S
C329 O313 1.235 . S
Fe330 O332 1.918 . S
Fe330 O335 1.997 . S
Fe330 O336 2.002 . S
Fe330 O341 1.976 . S
Fe330 O344 1.996 . S
Fe331 O332 1.918 . S
Fe331 O339 1.997 . S
Fe331 O342 1.996 . S
Fe331 O346 1.976 . S
Fe331 O349 2.002 . S
O332 Fe330 1.918 . S
O332 Fe331 1.918 . S
O332 Fe333 1.918 . S
Fe333 O332 1.918 . S
Fe333 O334 2.002 . S
Fe333 O343 1.976 . S
Fe333 O347 1.996 . S
Fe333 O350 1.997 . S
O334 Fe333 2.002 . S
O334 C351 1.295 . S
O335 Fe330 1.997 . S
O335 C351 1.235 . S
O336 Fe330 2.002 . S
O336 C337 1.295 . S
C337 O336 1.295 . S
C337 O339 1.235 . S
C338 O343 1.287 . S
C338 O344 1.255 . S
O339 Fe331 1.997 . S
O339 C337 1.235 . S
C340 O346 1.287 . S
C340 O347 1.255 . S
O341 Fe330 1.976 . S
O341 C348 1.287 . S
O342 Fe331 1.996 . S
O342 C348 1.255 . S
O343 Fe333 1.976 . S
O343 C338 1.287 . S
O344 Fe330 1.996 . S
O344 C338 1.255 . S
C345 O349 1.295 . S
C345 O350 1.235 . S
O346 Fe331 1.976 . S
O346 C340 1.287 . S
O347 Fe333 1.996 . S
O347 C340 1.255 . S
C348 O341 1.287 . S
C348 O342 1.255 . S
O349 Fe331 2.002 . S
O349 C345 1.295 . S
O350 Fe333 1.997 . S
O350 C345 1.235 . S
C351 O334 1.295 . S
C351 O335 1.235 . S
Fe352 O354 1.918 . S
Fe352 O357 1.997 . S
Fe352 O358 2.002 . S
Fe352 O363 1.976 . S
Fe352 O366 1.996 . S
Fe353 O354 1.918 . S
Fe353 O361 1.997 . S
Fe353 O364 1.996 . S
Fe353 O368 1.976 1_554 S
Fe353 O371 2.002 . S
O354 Fe352 1.918 . S
O354 Fe353 1.918 . S
O354 Fe355 1.918 . S
Fe355 O354 1.918 . S
Fe355 O356 2.002 . S
Fe355 O365 1.976 . S
Fe355 O369 1.996 1_554 S
Fe355 O372 1.997 . S
O356 Fe355 2.002 . S
O356 C373 1.295 . S
O357 Fe352 1.997 . S
O357 C373 1.235 . S
O358 Fe352 2.002 . S
O358 C359 1.295 . S
C359 O358 1.295 . S
C359 O361 1.235 . S
C360 O365 1.287 . S
C360 O366 1.255 . S
O361 Fe353 1.997 . S
O361 C359 1.235 . S
C362 O368 1.287 . S
C362 O369 1.255 . S
O363 Fe352 1.976 . S
O363 C370 1.287 . S
O364 Fe353 1.996 . S
O364 C370 1.255 . S
O365 Fe355 1.976 . S
O365 C360 1.287 . S
O366 Fe352 1.996 . S
O366 C360 1.255 . S
C367 O371 1.295 . S
C367 O372 1.235 . S
O368 Fe353 1.976 1_556 S
O368 C362 1.287 . S
O369 Fe355 1.996 1_556 S
O369 C362 1.255 . S
C370 O363 1.287 . S
C370 O364 1.255 . S
O371 Fe353 2.002 . S
O371 C367 1.295 . S
O372 Fe355 1.997 . S
O372 C367 1.235 . S
C373 O356 1.295 . S
C373 O357 1.235 . S
Fe374 O376 1.918 . S
Fe374 O379 1.997 . S
Fe374 O380 2.002 . S
Fe374 O385 1.976 . S
Fe374 O388 1.996 1_556 S
Fe375 O376 1.918 . S
Fe375 O383 1.997 . S
Fe375 O386 1.996 . S
Fe375 O390 1.976 . S
Fe375 O393 2.002 . S
O376 Fe374 1.918 . S
O376 Fe375 1.918 . S
O376 Fe377 1.918 . S
Fe377 O376 1.918 . S
Fe377 O378 2.002 . S
Fe377 O387 1.976 1_556 S
Fe377 O391 1.996 . S
Fe377 O394 1.997 . S
O378 Fe377 2.002 . S
O378 C395 1.295 . S
O379 Fe374 1.997 . S
O379 C395 1.235 . S
O380 Fe374 2.002 . S
O380 C381 1.295 . S
C381 O380 1.295 . S
C381 O383 1.235 . S
C382 O387 1.287 . S
C382 O388 1.255 . S
O383 Fe375 1.997 . S
O383 C381 1.235 . S
C384 O390 1.287 . S
C384 O391 1.255 . S
O385 Fe374 1.976 . S
O385 C392 1.287 . S
O386 Fe375 1.996 . S
O386 C392 1.255 . S
O387 Fe377 1.976 1_554 S
O387 C382 1.287 . S
O388 Fe374 1.996 1_554 S
O388 C382 1.255 . S
C389 O393 1.295 . S
C389 O394 1.235 . S
O390 Fe375 1.976 . S
O390 C384 1.287 . S
O391 Fe377 1.996 . S
O391 C384 1.255 . S
C392 O385 1.287 . S
C392 O386 1.255 . S
O393 Fe375 2.002 . S
O393 C389 1.295 . S
O394 Fe377 1.997 . S
O394 C389 1.235 . S
C395 O378 1.295 . S
C395 O379 1.235 . S
Fe396 O398 1.918 . S
Fe396 O401 1.997 . S
Fe396 O402 2.002 . S
Fe396 O407 1.976 . S
Fe396 O410 1.996 . S
Fe397 O398 1.918 . S
Fe397 O405 1.997 . S
Fe397 O408 1.996 . S
Fe397 O412 1.976 . S
Fe397 O415 2.002 . S
O398 Fe396 1.918 . S
O398 Fe397 1.918 . S
O398 Fe399 1.918 . S
Fe399 O398 1.918 . S
Fe399 O400 2.002 . S
Fe399 O409 1.976 . S
Fe399 O413 1.996 . S
Fe399 O416 1.997 . S
O400 Fe399 2.002 . S
O400 C417 1.295 . S
O401 Fe396 1.997 . S
O401 C417 1.235 . S
O402 Fe396 2.002 . S
O402 C403 1.295 . S
C403 O402 1.295 . S
C403 O405 1.235 . S
C404 O409 1.287 . S
C404 O410 1.255 . S
O405 Fe397 1.997 . S
O405 C403 1.235 . S
C406 O412 1.287 . S
C406 O413 1.255 . S
O407 Fe396 1.976 . S
O407 C414 1.287 . S
O408 Fe397 1.996 . S
O408 C414 1.255 . S
O409 Fe399 1.976 . S
O409 C404 1.287 . S
O410 Fe396 1.996 . S
O410 C404 1.255 . S
C411 O415 1.295 . S
C411 O416 1.235 . S
O412 Fe397 1.976 . S
O412 C406 1.287 . S
O413 Fe399 1.996 . S
O413 C406 1.255 . S
C414 O407 1.287 . S
C414 O408 1.255 . S
O415 Fe397 2.002 . S
O415 C411 1.295 . S
O416 Fe399 1.997 . S
O416 C411 1.235 . S
C417 O400 1.295 . S
C417 O401 1.235 . S
Fe418 O420 1.918 . S
Fe418 O423 1.997 . S
Fe418 O424 2.002 . S
Fe418 O429 1.976 . S
Fe418 O432 1.996 . S
Fe419 O420 1.918 . S
Fe419 O427 1.997 . S
Fe419 O430 1.996 . S
Fe419 O434 1.976 . S
Fe419 O437 2.002 . S
O420 Fe418 1.918 . S
O420 Fe419 1.918 . S
O420 Fe421 1.918 . S
Fe421 O420 1.918 . S
Fe421 O422 2.002 . S
Fe421 O431 1.976 . S
Fe421 O435 1.996 . S
Fe421 O438 1.997 . S
O422 Fe421 2.002 . S
O422 C439 1.295 . S
O423 Fe418 1.997 . S
O423 C439 1.235 . S
O424 Fe418 2.002 . S
O424 C425 1.295 . S
C425 O424 1.295 . S
C425 O427 1.235 . S
C426 O431 1.287 . S
C426 O432 1.255 . S
O427 Fe419 1.997 . S
O427 C425 1.235 . S
C428 O434 1.287 . S
C428 O435 1.255 . S
O429 Fe418 1.976 . S
O429 C436 1.287 . S
O430 Fe419 1.996 . S
O430 C436 1.255 . S
O431 Fe421 1.976 . S
O431 C426 1.287 . S
O432 Fe418 1.996 . S
O432 C426 1.255 . S
C433 O437 1.295 . S
C433 O438 1.235 . S
O434 Fe419 1.976 . S
O434 C428 1.287 . S
O435 Fe421 1.996 . S
O435 C428 1.255 . S
C436 O429 1.287 . S
C436 O430 1.255 . S
O437 Fe419 2.002 . S
O437 C433 1.295 . S
O438 Fe421 1.997 . S
O438 C433 1.235 . S
C439 O422 1.295 . S
C439 O423 1.235 . S
Fe440 O442 1.918 . S
Fe440 O445 1.997 . S
Fe440 O446 2.002 . S
Fe440 O451 1.976 . S
Fe440 O454 1.996 . S
Fe441 O442 1.918 . S
Fe441 O449 1.997 . S
Fe441 O452 1.996 . S
Fe441 O456 1.976 . S
Fe441 O459 2.002 . S
O442 Fe440 1.918 . S
O442 Fe441 1.918 . S
O442 Fe443 1.918 . S
Fe443 O442 1.918 . S
Fe443 O444 2.002 . S
Fe443 O453 1.976 . S
Fe443 O457 1.996 . S
Fe443 O460 1.997 . S
O444 Fe443 2.002 . S
O444 C461 1.295 . S
O445 Fe440 1.997 . S
O445 C461 1.235 . S
O446 Fe440 2.002 . S
O446 C447 1.295 . S
C447 O446 1.295 . S
C447 O449 1.235 . S
C448 O453 1.287 . S
C448 O454 1.255 . S
O449 Fe441 1.997 . S
O449 C447 1.235 . S
C450 O456 1.287 . S
C450 O457 1.255 . S
O451 Fe440 1.976 . S
O451 C458 1.287 . S
O452 Fe441 1.996 . S
O452 C458 1.255 . S
O453 Fe443 1.976 . S
O453 C448 1.287 . S
O454 Fe440 1.996 . S
O454 C448 1.255 . S
C455 O459 1.295 . S
C455 O460 1.235 . S
O456 Fe441 1.976 . S
O456 C450 1.287 . S
O457 Fe443 1.996 . S
O457 C450 1.255 . S
C458 O451 1.287 . S
C458 O452 1.255 . S
O459 Fe441 2.002 . S
O459 C455 1.295 . S
O460 Fe443 1.997 . S
O460 C455 1.235 . S
C461 O444 1.295 . S
C461 O445 1.235 . S
Fe462 O464 1.918 . S
Fe462 O467 1.997 . S
Fe462 O468 2.002 . S
Fe462 O473 1.976 . S
Fe462 O476 1.996 . S
Fe463 O464 1.918 . S
Fe463 O471 1.997 . S
Fe463 O474 1.996 . S
Fe463 O478 1.976 . S
Fe463 O481 2.002 . S
O464 Fe462 1.918 . S
O464 Fe463 1.918 . S
O464 Fe465 1.918 . S
Fe465 O464 1.918 . S
Fe465 O466 2.002 . S
Fe465 O475 1.976 . S
Fe465 O479 1.996 . S
Fe465 O482 1.997 . S
O466 Fe465 2.002 . S
O466 C483 1.295 . S
O467 Fe462 1.997 . S
O467 C483 1.235 . S
O468 Fe462 2.002 . S
O468 C469 1.295 . S
C469 O468 1.295 . S
C469 O471 1.235 . S
C470 O475 1.287 . S
C470 O476 1.255 . S
O471 Fe463 1.997 . S
O471 C469 1.235 . S
C472 O478 1.287 . S
C472 O479 1.255 . S
O473 Fe462 1.976 . S
O473 C480 1.287 . S
O474 Fe463 1.996 . S
O474 C480 1.255 . S
O475 Fe465 1.976 . S
O475 C470 1.287 . S
O476 Fe462 1.996 . S
O476 C470 1.255 . S
C477 O481 1.295 . S
C477 O482 1.235 . S
O478 Fe463 1.976 . S
O478 C472 1.287 . S
O479 Fe465 1.996 . S
O479 C472 1.255 . S
C480 O473 1.287 . S
C480 O474 1.255 . S
O481 Fe463 2.002 . S
O481 C477 1.295 . S
O482 Fe465 1.997 . S
O482 C477 1.235 . S
C483 O466 1.295 . S
C483 O467 1.235 . S
Fe484 O486 1.918 . S
Fe484 O489 1.997 . S
Fe484 O490 2.002 . S
Fe484 O495 1.976 . S
Fe484 O498 1.996 . S
Fe485 O486 1.918 . S
Fe485 O493 1.997 . S
Fe485 O496 1.996 . S
Fe485 O500 1.976 . S
Fe485 O503 2.002 . S
O486 Fe484 1.918 . S
O486 Fe485 1.918 . S
O486 Fe487 1.918 . S
Fe487 O486 1.918 . S
Fe487 O488 2.002 . S
Fe487 O497 1.976 . S
Fe487 O501 1.996 . S
Fe487 O504 1.997 . S
O488 Fe487 2.002 . S
O488 C505 1.295 . S
O489 Fe484 1.997 . S
O489 C505 1.235 . S
O490 Fe484 2.002 . S
O490 C491 1.295 . S
C491 O490 1.295 . S
C491 O493 1.235 . S
C492 O497 1.287 . S
C492 O498 1.255 . S
O493 Fe485 1.997 . S
O493 C491 1.235 . S
C494 O500 1.287 . S
C494 O501 1.255 . S
O495 Fe484 1.976 . S
O495 C502 1.287 . S
O496 Fe485 1.996 . S
O496 C502 1.255 . S
O497 Fe487 1.976 . S
O497 C492 1.287 . S
O498 Fe484 1.996 . S
O498 C492 1.255 . S
C499 O503 1.295 . S
C499 O504 1.235 . S
O500 Fe485 1.976 . S
O500 C494 1.287 . S
O501 Fe487 1.996 . S
O501 C494 1.255 . S
C502 O495 1.287 . S
C502 O496 1.255 . S
O503 Fe485 2.002 . S
O503 C499 1.295 . S
O504 Fe487 1.997 . S
O504 C499 1.235 . S
C505 O488 1.295 . S
C505 O489 1.235 . S
Fe506 O508 1.918 . S
Fe506 O511 1.997 . S
Fe506 O512 2.002 . S
Fe506 O517 1.976 . S
Fe506 O520 1.996 . S
Fe507 O508 1.918 . S
Fe507 O515 1.997 . S
Fe507 O518 1.996 . S
Fe507 O522 1.976 . S
Fe507 O525 2.002 . S
O508 Fe506 1.918 . S
O508 Fe507 1.918 . S
O508 Fe509 1.918 . S
Fe509 O508 1.918 . S
Fe509 O510 2.002 . S
Fe509 O519 1.976 . S
Fe509 O523 1.996 . S
Fe509 O526 1.997 . S
O510 Fe509 2.002 . S
O510 C527 1.295 . S
O511 Fe506 1.997 . S
O511 C527 1.235 . S
O512 Fe506 2.002 . S
O512 C513 1.295 . S
C513 O512 1.295 . S
C513 O515 1.235 . S
C514 O519 1.287 . S
C514 O520 1.255 . S
O515 Fe507 1.997 . S
O515 C513 1.235 . S
C516 O522 1.287 . S
C516 O523 1.255 . S
O517 Fe506 1.976 . S
O517 C524 1.287 . S
O518 Fe507 1.996 . S
O518 C524 1.255 . S
O519 Fe509 1.976 . S
O519 C514 1.287 . S
O520 Fe506 1.996 . S
O520 C514 1.255 . S
C521 O525 1.295 . S
C521 O526 1.235 . S
O522 Fe507 1.976 . S
O522 C516 1.287 . S
O523 Fe509 1.996 . S
O523 C516 1.255 . S
C524 O517 1.287 . S
C524 O518 1.255 . S
O525 Fe507 2.002 . S
O525 C521 1.295 . S
O526 Fe509 1.997 . S
O526 C521 1.235 . S
C527 O510 1.295 . S
C527 O511 1.235 . S
C528 C529 1.349 . S
C528 C530 1.327 . S
C528 H553 0.950 . S
C529 C528 1.349 . S
C529 C545 1.349 . S
C530 C528 1.327 . S
C530 C549 1.429 . S
C530 H554 0.950 . S
C531 C548 1.574 . S
C531 C550 1.368 . S
C531 H555 0.949 . S
H532 C536 0.949 . S
C533 C534 1.349 . S
C533 C535 1.327 . S
C533 H556 0.950 . S
C534 C533 1.349 . S
C534 C546 1.349 . S
C535 C533 1.327 . S
C535 C551 1.429 . S
C535 H557 0.950 . S
C536 H532 0.949 . S
C536 C544 1.574 . S
C536 C552 1.368 . S
H537 C545 0.950 . S
H538 C543 0.950 . S
H539 C544 0.949 . S
H540 C546 0.950 . S
H541 C547 0.950 . S
H542 C548 0.949 . S
C543 H538 0.950 . S
C543 C545 1.327 . S
C543 C549 1.429 . S
C544 C536 1.574 . S
C544 H539 0.949 . S
C544 C550 1.368 . S
C545 C529 1.349 . S
C545 H537 0.950 . S
C545 C543 1.327 . S
C546 C534 1.349 . S
C546 H540 0.950 . S
C546 C547 1.327 . S
C547 H541 0.950 . S
C547 C546 1.327 . S
C547 C551 1.429 . S
C548 C531 1.574 . S
C548 H542 0.949 . S
C548 C552 1.368 . S
C549 C530 1.429 . S
C549 C543 1.429 . S
C549 C550 1.523 . S
C550 C531 1.368 . S
C550 C544 1.368 . S
C550 C549 1.523 . S
C551 C535 1.429 . S
C551 C547 1.429 . S
C551 C552 1.523 . S
C552 C536 1.368 . S
C552 C548 1.368 . S
C552 C551 1.523 . S
H553 C528 0.950 . S
H554 C530 0.950 . S
H555 C531 0.949 . S
H556 C533 0.950 . S
H557 C535 0.950 . S
C558 C559 1.349 . S
C558 C560 1.327 . S
C558 H583 0.950 . S
C559 C558 1.349 . S
C559 C575 1.349 . S
C560 C558 1.327 . S
C560 C579 1.429 . S
C560 H584 0.950 . S
C561 C578 1.574 . S
C561 C580 1.368 . S
C561 H585 0.949 . S
H562 C566 0.949 . S
C563 C564 1.349 . S
C563 C565 1.327 . S
C563 H586 0.950 . S
C564 C563 1.349 . S
C564 C576 1.349 . S
C565 C563 1.327 . S
C565 C581 1.429 . S
C565 H587 0.950 . S
C566 H562 0.949 . S
C566 C574 1.574 . S
C566 C582 1.368 . S
H567 C575 0.950 . S
H568 C573 0.950 . S
H569 C574 0.949 . S
H570 C576 0.950 . S
H571 C577 0.950 . S
H572 C578 0.949 . S
C573 H568 0.950 . S
C573 C575 1.327 . S
C573 C579 1.429 . S
C574 C566 1.574 . S
C574 H569 0.949 . S
C574 C580 1.368 . S
C575 C559 1.349 . S
C575 H567 0.950 . S
C575 C573 1.327 . S
C576 C564 1.349 . S
C576 H570 0.950 . S
C576 C577 1.327 . S
C577 H571 0.950 . S
C577 C576 1.327 . S
C577 C581 1.429 . S
C578 C561 1.574 . S
C578 H572 0.949 . S
C578 C582 1.368 . S
C579 C560 1.429 . S
C579 C573 1.429 . S
C579 C580 1.523 . S
C580 C561 1.368 . S
C580 C574 1.368 . S
C580 C579 1.523 . S
C581 C565 1.429 . S
C581 C577 1.429 . S
C581 C582 1.523 . S
C582 C566 1.368 . S
C582 C578 1.368 . S
C582 C581 1.523 . S
H583 C558 0.950 . S
H584 C560 0.950 . S
H585 C561 0.949 . S
H586 C563 0.950 . S
H587 C565 0.950 . S
C588 C589 1.349 . S
C588 C590 1.327 . S
C588 H613 0.950 . S
C589 C588 1.349 . S
C589 C605 1.349 . S
C590 C588 1.327 . S
C590 C609 1.429 . S
C590 H614 0.950 . S
C591 C608 1.574 . S
C591 C610 1.368 . S
C591 H615 0.949 . S
H592 C596 0.949 . S
C593 C594 1.349 . S
C593 C595 1.327 . S
C593 H616 0.950 . S
C594 C593 1.349 . S
C594 C606 1.349 . S
C595 C593 1.327 . S
C595 C611 1.429 . S
C595 H617 0.950 . S
C596 H592 0.949 . S
C596 C604 1.574 . S
C596 C612 1.368 . S
H597 C605 0.950 . S
H598 C603 0.950 . S
H599 C604 0.949 . S
H600 C606 0.950 . S
H601 C607 0.950 . S
H602 C608 0.949 . S
C603 H598 0.950 . S
C603 C605 1.327 . S
C603 C609 1.429 . S
C604 C596 1.574 . S
C604 H599 0.949 . S
C604 C610 1.368 . S
C605 C589 1.349 . S
C605 H597 0.950 . S
C605 C603 1.327 . S
C606 C594 1.349 . S
C606 H600 0.950 . S
C606 C607 1.327 . S
C607 H601 0.950 . S
C607 C606 1.327 . S
C607 C611 1.429 . S
C608 C591 1.574 . S
C608 H602 0.949 . S
C608 C612 1.368 . S
C609 C590 1.429 . S
C609 C603 1.429 . S
C609 C610 1.523 . S
C610 C591 1.368 . S
C610 C604 1.368 . S
C610 C609 1.523 . S
C611 C595 1.429 . S
C611 C607 1.429 . S
C611 C612 1.523 . S
C612 C596 1.368 . S
C612 C608 1.368 . S
C612 C611 1.523 . S
H613 C588 0.950 . S
H614 C590 0.950 . S
H615 C591 0.949 . S
H616 C593 0.950 . S
H617 C595 0.950 . S
C618 C619 1.349 . S
C618 C620 1.327 . S
C618 H643 0.950 . S
C619 C618 1.349 . S
C619 C635 1.349 . S
C620 C618 1.327 . S
C620 C639 1.429 . S
C620 H644 0.950 . S
C621 C638 1.574 . S
C621 C640 1.368 . S
C621 H645 0.949 . S
H622 C626 0.949 . S
C623 C624 1.349 . S
C623 C625 1.327 . S
C623 H646 0.950 . S
C624 C623 1.349 . S
C624 C636 1.349 . S
C625 C623 1.327 . S
C625 C641 1.429 . S
C625 H647 0.950 . S
C626 H622 0.949 . S
C626 C634 1.574 . S
C626 C642 1.368 . S
H627 C635 0.950 . S
H628 C633 0.950 . S
H629 C634 0.949 . S
H630 C636 0.950 . S
H631 C637 0.950 . S
H632 C638 0.949 . S
C633 H628 0.950 . S
C633 C635 1.327 . S
C633 C639 1.429 . S
C634 C626 1.574 . S
C634 H629 0.949 . S
C634 C640 1.368 . S
C635 C619 1.349 . S
C635 H627 0.950 . S
C635 C633 1.327 . S
C636 C624 1.349 . S
C636 H630 0.950 . S
C636 C637 1.327 . S
C637 H631 0.950 . S
C637 C636 1.327 . S
C637 C641 1.429 . S
C638 C621 1.574 . S
C638 H632 0.949 . S
C638 C642 1.368 . S
C639 C620 1.429 . S
C639 C633 1.429 . S
C639 C640 1.523 . S
C640 C621 1.368 . S
C640 C634 1.368 . S
C640 C639 1.523 . S
C641 C625 1.429 . S
C641 C637 1.429 . S
C641 C642 1.523 . S
C642 C626 1.368 . S
C642 C638 1.368 . S
C642 C641 1.523 . S
H643 C618 0.950 . S
H644 C620 0.950 . S
H645 C621 0.949 . S
H646 C623 0.950 . S
H647 C625 0.950 . S
C648 C649 1.349 . S
C648 C650 1.327 . S
C648 H673 0.950 . S
C649 C648 1.349 . S
C649 C665 1.349 . S
C650 C648 1.327 . S
C650 C669 1.429 . S
C650 H674 0.950 . S
C651 C668 1.574 . S
C651 C670 1.368 . S
C651 H675 0.949 . S
H652 C656 0.949 . S
C653 C654 1.349 . S
C653 C655 1.327 . S
C653 H676 0.950 . S
C654 C653 1.349 . S
C654 C666 1.349 . S
C655 C653 1.327 . S
C655 C671 1.429 . S
C655 H677 0.950 . S
C656 H652 0.949 . S
C656 C664 1.574 . S
C656 C672 1.368 . S
H657 C665 0.950 . S
H658 C663 0.950 . S
H659 C664 0.949 . S
H660 C666 0.950 . S
H661 C667 0.950 . S
H662 C668 0.949 . S
C663 H658 0.950 . S
C663 C665 1.327 . S
C663 C669 1.429 . S
C664 C656 1.574 . S
C664 H659 0.949 . S
C664 C670 1.368 . S
C665 C649 1.349 . S
C665 H657 0.950 . S
C665 C663 1.327 . S
C666 C654 1.349 . S
C666 H660 0.950 . S
C666 C667 1.327 . S
C667 H661 0.950 . S
C667 C666 1.327 . S
C667 C671 1.429 . S
C668 C651 1.574 . S
C668 H662 0.949 . S
C668 C672 1.368 . S
C669 C650 1.429 . S
C669 C663 1.429 . S
C669 C670 1.523 . S
C670 C651 1.368 . S
C670 C664 1.368 . S
C670 C669 1.523 . S
C671 C655 1.429 . S
C671 C667 1.429 . S
C671 C672 1.523 . S
C672 C656 1.368 . S
C672 C668 1.368 . S
C672 C671 1.523 . S
H673 C648 0.950 . S
H674 C650 0.950 . S
H675 C651 0.949 . S
H676 C653 0.950 . S
H677 C655 0.950 . S
C678 C679 1.349 . S
C678 C680 1.327 . S
C678 H703 0.950 . S
C679 C678 1.349 . S
C679 C695 1.349 . S
C680 C678 1.327 . S
C680 C699 1.429 . S
C680 H704 0.950 . S
C681 C698 1.574 . S
C681 C700 1.368 . S
C681 H705 0.949 . S
H682 C686 0.949 . S
C683 C684 1.349 . S
C683 C685 1.327 . S
C683 H706 0.950 . S
C684 C683 1.349 . S
C684 C696 1.349 . S
C685 C683 1.327 . S
C685 C701 1.429 . S
C685 H707 0.950 . S
C686 H682 0.949 . S
C686 C694 1.574 . S
C686 C702 1.368 . S
H687 C695 0.950 . S
H688 C693 0.950 . S
H689 C694 0.949 . S
H690 C696 0.950 . S
H691 C697 0.950 . S
H692 C698 0.949 . S
C693 H688 0.950 . S
C693 C695 1.327 . S
C693 C699 1.429 . S
C694 C686 1.574 . S
C694 H689 0.949 . S
C694 C700 1.368 . S
C695 C679 1.349 . S
C695 H687 0.950 . S
C695 C693 1.327 . S
C696 C684 1.349 . S
C696 H690 0.950 . S
C696 C697 1.327 . S
C697 H691 0.950 . S
C697 C696 1.327 . S
C697 C701 1.429 . S
C698 C681 1.574 . S
C698 H692 0.949 . S
C698 C702 1.368 . S
C699 C680 1.429 . S
C699 C693 1.429 . S
C699 C700 1.523 . S
C700 C681 1.368 . S
C700 C694 1.368 . S
C700 C699 1.523 . S
C701 C685 1.429 . S
C701 C697 1.429 . S
C701 C702 1.523 . S
C702 C686 1.368 . S
C702 C698 1.368 . S
C702 C701 1.523 . S
H703 C678 0.950 . S
H704 C680 0.950 . S
H705 C681 0.949 . S
H706 C683 0.950 . S
H707 C685 0.950 . S
C708 C709 1.349 . S
C708 C710 1.327 . S
C708 H733 0.950 . S
C709 C708 1.349 . S
C709 C725 1.349 . S
C710 C708 1.327 . S
C710 C729 1.429 . S
C710 H734 0.950 . S
C711 C728 1.574 . S
C711 C730 1.368 . S
C711 H735 0.949 . S
H712 C716 0.949 . S
C713 C714 1.349 . S
C713 C715 1.327 . S
C713 H736 0.950 . S
C714 C713 1.349 . S
C714 C726 1.349 . S
C715 C713 1.327 . S
C715 C731 1.429 . S
C715 H737 0.950 . S
C716 H712 0.949 . S
C716 C724 1.574 . S
C716 C732 1.368 . S
H717 C725 0.950 . S
H718 C723 0.950 . S
H719 C724 0.949 . S
H720 C726 0.950 . S
H721 C727 0.950 . S
H722 C728 0.949 . S
C723 H718 0.950 . S
C723 C725 1.327 . S
C723 C729 1.429 . S
C724 C716 1.574 . S
C724 H719 0.949 . S
C724 C730 1.368 . S
C725 C709 1.349 . S
C725 H717 0.950 . S
C725 C723 1.327 . S
C726 C714 1.349 . S
C726 H720 0.950 . S
C726 C727 1.327 . S
C727 H721 0.950 . S
C727 C726 1.327 . S
C727 C731 1.429 . S
C728 C711 1.574 . S
C728 H722 0.949 . S
C728 C732 1.368 . S
C729 C710 1.429 . S
C729 C723 1.429 . S
C729 C730 1.523 . S
C730 C711 1.368 . S
C730 C724 1.368 . S
C730 C729 1.523 . S
C731 C715 1.429 . S
C731 C727 1.429 . S
C731 C732 1.523 . S
C732 C716 1.368 . S
C732 C728 1.368 . S
C732 C731 1.523 . S
H733 C708 0.950 . S
H734 C710 0.950 . S
H735 C711 0.949 . S
H736 C713 0.950 . S
H737 C715 0.950 . S
C738 C739 1.349 . S
C738 C740 1.327 . S
C738 H763 0.950 . S
C739 C738 1.349 . S
C739 C755 1.349 . S
C740 C738 1.327 . S
C740 C759 1.429 . S
C740 H764 0.950 . S
C741 C758 1.574 . S
C741 C760 1.368 . S
C741 H765 0.949 . S
H742 C746 0.949 . S
C743 C744 1.349 . S
C743 C745 1.327 . S
C743 H766 0.950 . S
C744 C743 1.349 . S
C744 C756 1.349 . S
C745 C743 1.327 . S
C745 C761 1.429 . S
C745 H767 0.950 . S
C746 H742 0.949 . S
C746 C754 1.574 . S
C746 C762 1.368 . S
H747 C755 0.950 . S
H748 C753 0.950 . S
H749 C754 0.949 . S
H750 C756 0.950 . S
H751 C757 0.950 . S
H752 C758 0.949 . S
C753 H748 0.950 . S
C753 C755 1.327 . S
C753 C759 1.429 . S
C754 C746 1.574 . S
C754 H749 0.949 . S
C754 C760 1.368 . S
C755 C739 1.349 . S
C755 H747 0.950 . S
C755 C753 1.327 . S
C756 C744 1.349 . S
C756 H750 0.950 . S
C756 C757 1.327 . S
C757 H751 0.950 . S
C757 C756 1.327 . S
C757 C761 1.429 . S
C758 C741 1.574 . S
C758 H752 0.949 . S
C758 C762 1.368 . S
C759 C740 1.429 . S
C759 C753 1.429 . S
C759 C760 1.523 . S
C760 C741 1.368 . S
C760 C754 1.368 . S
C760 C759 1.523 . S
C761 C745 1.429 . S
C761 C757 1.429 . S
C761 C762 1.523 . S
C762 C746 1.368 . S
C762 C758 1.368 . S
C762 C761 1.523 . S
H763 C738 0.950 . S
H764 C740 0.950 . S
H765 C741 0.949 . S
H766 C743 0.950 . S
H767 C745 0.950 . S
C768 C769 1.349 . S
C768 C770 1.327 . S
C768 H793 0.950 . S
C769 C768 1.349 . S
C769 C785 1.349 . S
C770 C768 1.327 . S
C770 C789 1.429 . S
C770 H794 0.950 . S
C771 C788 1.574 . S
C771 C790 1.368 . S
C771 H795 0.949 . S
H772 C776 0.949 . S
C773 C774 1.349 . S
C773 C775 1.327 . S
C773 H796 0.950 . S
C774 C773 1.349 . S
C774 C786 1.349 . S
C775 C773 1.327 . S
C775 C791 1.429 . S
C775 H797 0.950 . S
C776 H772 0.949 . S
C776 C784 1.574 . S
C776 C792 1.368 . S
H777 C785 0.950 . S
H778 C783 0.950 . S
H779 C784 0.949 . S
H780 C786 0.950 . S
H781 C787 0.950 . S
H782 C788 0.949 . S
C783 H778 0.950 . S
C783 C785 1.327 . S
C783 C789 1.429 . S
C784 C776 1.574 . S
C784 H779 0.949 . S
C784 C790 1.368 . S
C785 C769 1.349 . S
C785 H777 0.950 . S
C785 C783 1.327 . S
C786 C774 1.349 . S
C786 H780 0.950 . S
C786 C787 1.327 . S
C787 H781 0.950 . S
C787 C786 1.327 . S
C787 C791 1.429 . S
C788 C771 1.574 . S
C788 H782 0.949 . S
C788 C792 1.368 . S
C789 C770 1.429 . S
C789 C783 1.429 . S
C789 C790 1.523 . S
C790 C771 1.368 . S
C790 C784 1.368 . S
C790 C789 1.523 . S
C791 C775 1.429 . S
C791 C787 1.429 . S
C791 C792 1.523 . S
C792 C776 1.368 . S
C792 C788 1.368 . S
C792 C791 1.523 . S
H793 C768 0.950 . S
H794 C770 0.950 . S
H795 C771 0.949 . S
H796 C773 0.950 . S
H797 C775 0.950 . S
C798 C799 1.349 . S
C798 C800 1.327 . S
C798 H823 0.950 . S
C799 C798 1.349 . S
C799 C815 1.349 . S
C800 C798 1.327 . S
C800 C819 1.429 . S
C800 H824 0.950 . S
C801 C818 1.574 . S
C801 C820 1.368 . S
C801 H825 0.949 . S
H802 C806 0.949 . S
C803 C804 1.349 . S
C803 C805 1.327 . S
C803 H826 0.950 . S
C804 C803 1.349 . S
C804 C816 1.349 . S
C805 C803 1.327 . S
C805 C821 1.429 . S
C805 H827 0.950 . S
C806 H802 0.949 . S
C806 C814 1.574 . S
C806 C822 1.368 . S
H807 C815 0.950 . S
H808 C813 0.950 . S
H809 C814 0.949 . S
H810 C816 0.950 . S
H811 C817 0.950 . S
H812 C818 0.949 . S
C813 H808 0.950 . S
C813 C815 1.327 . S
C813 C819 1.429 . S
C814 C806 1.574 . S
C814 H809 0.949 . S
C814 C820 1.368 . S
C815 C799 1.349 . S
C815 H807 0.950 . S
C815 C813 1.327 . S
C816 C804 1.349 . S
C816 H810 0.950 . S
C816 C817 1.327 . S
C817 H811 0.950 . S
C817 C816 1.327 . S
C817 C821 1.429 . S
C818 C801 1.574 . S
C818 H812 0.949 . S
C818 C822 1.368 . S
C819 C800 1.429 . S
C819 C813 1.429 . S
C819 C820 1.523 . S
C820 C801 1.368 . S
C820 C814 1.368 . S
C820 C819 1.523 . S
C821 C805 1.429 . S
C821 C817 1.429 . S
C821 C822 1.523 . S
C822 C806 1.368 . S
C822 C818 1.368 . S
C822 C821 1.523 . S
H823 C798 0.950 . S
H824 C800 0.950 . S
H825 C801 0.949 . S
H826 C803 0.950 . S
H827 C805 0.950 . S
C828 C829 1.349 . S
C828 C830 1.327 . S
C828 H853 0.950 . S
C829 C828 1.349 . S
C829 C845 1.349 . S
C830 C828 1.327 . S
C830 C849 1.429 . S
C830 H854 0.950 . S
C831 C848 1.574 . S
C831 C850 1.368 . S
C831 H855 0.949 . S
H832 C836 0.949 . S
C833 C834 1.349 . S
C833 C835 1.327 . S
C833 H856 0.950 . S
C834 C833 1.349 . S
C834 C846 1.349 . S
C835 C833 1.327 . S
C835 C851 1.429 . S
C835 H857 0.950 . S
C836 H832 0.949 . S
C836 C844 1.574 . S
C836 C852 1.368 . S
H837 C845 0.950 . S
H838 C843 0.950 . S
H839 C844 0.949 . S
H840 C846 0.950 . S
H841 C847 0.950 . S
H842 C848 0.949 . S
C843 H838 0.950 . S
C843 C845 1.327 . S
C843 C849 1.429 . S
C844 C836 1.574 . S
C844 H839 0.949 . S
C844 C850 1.368 . S
C845 C829 1.349 . S
C845 H837 0.950 . S
C845 C843 1.327 . S
C846 C834 1.349 . S
C846 H840 0.950 . S
C846 C847 1.327 . S
C847 H841 0.950 . S
C847 C846 1.327 . S
C847 C851 1.429 . S
C848 C831 1.574 . S
C848 H842 0.949 . S
C848 C852 1.368 . S
C849 C830 1.429 . S
C849 C843 1.429 . S
C849 C850 1.523 . S
C850 C831 1.368 . S
C850 C844 1.368 . S
C850 C849 1.523 . S
C851 C835 1.429 . S
C851 C847 1.429 . S
C851 C852 1.523 . S
C852 C836 1.368 . S
C852 C848 1.368 . S
C852 C851 1.523 . S
H853 C828 0.950 . S
H854 C830 0.950 . S
H855 C831 0.949 . S
H856 C833 0.950 . S
H857 C835 0.950 . S
C858 C859 1.349 . S
C858 C860 1.327 . S
C858 H883 0.950 . S
C859 C858 1.349 . S
C859 C875 1.349 . S
C860 C858 1.327 . S
C860 C879 1.429 . S
C860 H884 0.950 . S
C861 C878 1.574 . S
C861 C880 1.368 . S
C861 H885 0.949 . S
H862 C866 0.949 . S
C863 C864 1.349 . S
C863 C865 1.327 . S
C863 H886 0.950 . S
C864 C863 1.349 . S
C864 C876 1.349 . S
C865 C863 1.327 . S
C865 C881 1.429 . S
C865 H887 0.950 . S
C866 H862 0.949 . S
C866 C874 1.574 . S
C866 C882 1.368 . S
H867 C875 0.950 . S
H868 C873 0.950 . S
H869 C874 0.949 . S
H870 C876 0.950 . S
H871 C877 0.950 . S
H872 C878 0.949 . S
C873 H868 0.950 . S
C873 C875 1.327 . S
C873 C879 1.429 . S
C874 C866 1.574 . S
C874 H869 0.949 . S
C874 C880 1.368 . S
C875 C859 1.349 . S
C875 H867 0.950 . S
C875 C873 1.327 . S
C876 C864 1.349 . S
C876 H870 0.950 . S
C876 C877 1.327 . S
C877 H871 0.950 . S
C877 C876 1.327 . S
C877 C881 1.429 . S
C878 C861 1.574 . S
C878 H872 0.949 . S
C878 C882 1.368 . S
C879 C860 1.429 . S
C879 C873 1.429 . S
C879 C880 1.523 . S
C880 C861 1.368 . S
C880 C874 1.368 . S
C880 C879 1.523 . S
C881 C865 1.429 . S
C881 C877 1.429 . S
C881 C882 1.523 . S
C882 C866 1.368 . S
C882 C878 1.368 . S
C882 C881 1.523 . S
H883 C858 0.950 . S
H884 C860 0.950 . S
H885 C861 0.949 . S
H886 C863 0.950 . S
H887 C865 0.950 . S
C888 C889 1.349 . S
C888 C890 1.327 . S
C888 H913 0.950 . S
C889 C888 1.349 . S
C889 C905 1.349 . S
C890 C888 1.327 . S
C890 C909 1.429 . S
C890 H914 0.950 . S
C891 C908 1.574 . S
C891 C910 1.368 . S
C891 H915 0.949 . S
H892 C896 0.949 . S
C893 C894 1.349 . S
C893 C895 1.327 . S
C893 H916 0.950 . S
C894 C893 1.349 . S
C894 C906 1.349 . S
C895 C893 1.327 . S
C895 C911 1.429 . S
C895 H917 0.950 . S
C896 H892 0.949 . S
C896 C904 1.574 . S
C896 C912 1.368 . S
H897 C905 0.950 . S
H898 C903 0.950 . S
H899 C904 0.949 . S
H900 C906 0.950 . S
H901 C907 0.950 . S
H902 C908 0.949 . S
C903 H898 0.950 . S
C903 C905 1.327 . S
C903 C909 1.429 . S
C904 C896 1.574 . S
C904 H899 0.949 . S
C904 C910 1.368 . S
C905 C889 1.349 . S
C905 H897 0.950 . S
C905 C903 1.327 . S
C906 C894 1.349 . S
C906 H900 0.950 . S
C906 C907 1.327 . S
C907 H901 0.950 . S
C907 C906 1.327 . S
C907 C911 1.429 . S
C908 C891 1.574 . S
C908 H902 0.949 . S
C908 C912 1.368 . S
C909 C890 1.429 . S
C909 C903 1.429 . S
C909 C910 1.523 . S
C910 C891 1.368 . S
C910 C904 1.368 . S
C910 C909 1.523 . S
C911 C895 1.429 . S
C911 C907 1.429 . S
C911 C912 1.523 . S
C912 C896 1.368 . S
C912 C908 1.368 . S
C912 C911 1.523 . S
H913 C888 0.950 . S
H914 C890 0.950 . S
H915 C891 0.949 . S
H916 C893 0.950 . S
H917 C895 0.950 . S
C918 C919 1.349 . S
C918 C920 1.327 . S
C918 H943 0.950 . S
C919 C918 1.349 . S
C919 C935 1.349 . S
C920 C918 1.327 . S
C920 C939 1.429 . S
C920 H944 0.950 . S
C921 C938 1.574 . S
C921 C940 1.368 . S
C921 H945 0.949 . S
H922 C926 0.949 . S
C923 C924 1.349 . S
C923 C925 1.327 . S
C923 H946 0.950 . S
C924 C923 1.349 . S
C924 C936 1.349 . S
C925 C923 1.327 . S
C925 C941 1.429 . S
C925 H947 0.950 . S
C926 H922 0.949 . S
C926 C934 1.574 . S
C926 C942 1.368 . S
H927 C935 0.950 . S
H928 C933 0.950 . S
H929 C934 0.949 . S
H930 C936 0.950 . S
H931 C937 0.950 . S
H932 C938 0.949 . S
C933 H928 0.950 . S
C933 C935 1.327 . S
C933 C939 1.429 . S
C934 C926 1.574 . S
C934 H929 0.949 . S
C934 C940 1.368 . S
C935 C919 1.349 . S
C935 H927 0.950 . S
C935 C933 1.327 . S
C936 C924 1.349 . S
C936 H930 0.950 . S
C936 C937 1.327 . S
C937 H931 0.950 . S
C937 C936 1.327 . S
C937 C941 1.429 . S
C938 C921 1.574 . S
C938 H932 0.949 . S
C938 C942 1.368 . S
C939 C920 1.429 . S
C939 C933 1.429 . S
C939 C940 1.523 . S
C940 C921 1.368 . S
C940 C934 1.368 . S
C940 C939 1.523 . S
C941 C925 1.429 . S
C941 C937 1.429 . S
C941 C942 1.523 . S
C942 C926 1.368 . S
C942 C938 1.368 . S
C942 C941 1.523 . S
H943 C918 0.950 . S
H944 C920 0.950 . S
H945 C921 0.949 . S
H946 C923 0.950 . S
H947 C925 0.950 . S
C948 C949 1.349 . S
C948 C950 1.327 . S
C948 H973 0.950 . S
C949 C948 1.349 . S
C949 C965 1.349 . S
C950 C948 1.327 . S
C950 C969 1.429 . S
C950 H974 0.950 . S
C951 C968 1.574 . S
C951 C970 1.368 . S
C951 H975 0.949 . S
H952 C956 0.949 . S
C953 C954 1.349 . S
C953 C955 1.327 . S
C953 H976 0.950 . S
C954 C953 1.349 . S
C954 C966 1.349 1_554 S
C955 C953 1.327 . S
C955 C971 1.429 1_554 S
C955 H977 0.950 . S
C956 H952 0.949 . S
C956 C964 1.574 . S
C956 C972 1.368 . S
H957 C965 0.950 . S
H958 C963 0.950 . S
H959 C964 0.949 . S
H960 C966 0.950 . S
H961 C967 0.950 . S
H962 C968 0.949 . S
C963 H958 0.950 . S
C963 C965 1.327 . S
C963 C969 1.429 . S
C964 C956 1.574 . S
C964 H959 0.949 . S
C964 C970 1.368 . S
C965 C949 1.349 . S
C965 H957 0.950 . S
C965 C963 1.327 . S
C966 C954 1.349 1_556 S
C966 H960 0.950 . S
C966 C967 1.327 . S
C967 H961 0.950 . S
C967 C966 1.327 . S
C967 C971 1.429 . S
C968 C951 1.574 . S
C968 H962 0.949 . S
C968 C972 1.368 . S
C969 C950 1.429 . S
C969 C963 1.429 . S
C969 C970 1.523 . S
C970 C951 1.368 . S
C970 C964 1.368 . S
C970 C969 1.523 . S
C971 C955 1.429 1_556 S
C971 C967 1.429 . S
C971 C972 1.523 . S
C972 C956 1.368 . S
C972 C968 1.368 . S
C972 C971 1.523 . S
H973 C948 0.950 . S
H974 C950 0.950 . S
H975 C951 0.949 . S
H976 C953 0.950 . S
H977 C955 0.950 . S
C978 C979 1.349 . S
C978 C980 1.327 . S
C978 H1003 0.950 . S
C979 C978 1.349 . S
C979 C995 1.349 . S
C980 C978 1.327 . S
C980 C999 1.429 . S
C980 H1004 0.950 . S
C981 C998 1.574 . S
C981 C1000 1.368 . S
C981 H1005 0.949 . S
H982 C986 0.949 . S
C983 C984 1.349 . S
C983 C985 1.327 . S
C983 H1006 0.950 . S
C984 C983 1.349 . S
C984 C996 1.349 . S
C985 C983 1.327 . S
C985 C1001 1.429 . S
C985 H1007 0.950 . S
C986 H982 0.949 . S
C986 C994 1.574 . S
C986 C1002 1.368 . S
H987 C995 0.950 . S
H988 C993 0.950 . S
H989 C994 0.949 . S
H990 C996 0.950 . S
H991 C997 0.950 . S
H992 C998 0.949 . S
C993 H988 0.950 . S
C993 C995 1.327 . S
C993 C999 1.429 . S
C994 C986 1.574 . S
C994 H989 0.949 . S
C994 C1000 1.368 . S
C995 C979 1.349 . S
C995 H987 0.950 . S
C995 C993 1.327 . S
C996 C984 1.349 . S
C996 H990 0.950 . S
C996 C997 1.327 . S
C997 H991 0.950 . S
C997 C996 1.327 . S
C997 C1001 1.429 . S
C998 C981 1.574 . S
C998 H992 0.949 . S
C998 C1002 1.368 . S
C999 C980 1.429 . S
C999 C993 1.429 . S
C999 C1000 1.523 . S
C1000 C981 1.368 . S
C1000 C994 1.368 . S
C1000 C999 1.523 . S
C1001 C985 1.429 . S
C1001 C997 1.429 . S
C1001 C1002 1.523 . S
C1002 C986 1.368 . S
C1002 C998 1.368 . S
C1002 C1001 1.523 . S
H1003 C978 0.950 . S
H1004 C980 0.950 . S
H1005 C981 0.949 . S
H1006 C983 0.950 . S
H1007 C985 0.950 . S
C1008 C1009 1.349 . S
C1008 C1010 1.327 . S
C1008 H1033 0.950 . S
C1009 C1008 1.349 . S
C1009 C1025 1.349 . S
C1010 C1008 1.327 . S
C1010 C1029 1.429 . S
C1010 H1034 0.950 . S
C1011 C1028 1.574 . S
C1011 C1030 1.368 . S
C1011 H1035 0.949 . S
H1012 C1016 0.949 . S
C1013 C1014 1.349 . S
C1013 C1015 1.327 . S
C1013 H1036 0.950 . S
C1014 C1013 1.349 . S
C1014 C1026 1.349 . S
C1015 C1013 1.327 . S
C1015 C1031 1.429 . S
C1015 H1037 0.950 . S
C1016 H1012 0.949 . S
C1016 C1024 1.574 . S
C1016 C1032 1.368 . S
H1017 C1025 0.950 . S
H1018 C1023 0.950 . S
H1019 C1024 0.949 . S
H1020 C1026 0.950 . S
H1021 C1027 0.950 . S
H1022 C1028 0.949 . S
C1023 H1018 0.950 . S
C1023 C1025 1.327 . S
C1023 C1029 1.429 . S
C1024 C1016 1.574 . S
C1024 H1019 0.949 . S
C1024 C1030 1.368 . S
C1025 C1009 1.349 . S
C1025 H1017 0.950 . S
C1025 C1023 1.327 . S
C1026 C1014 1.349 . S
C1026 H1020 0.950 . S
C1026 C1027 1.327 . S
C1027 H1021 0.950 . S
C1027 C1026 1.327 . S
C1027 C1031 1.429 . S
C1028 C1011 1.574 . S
C1028 H1022 0.949 . S
C1028 C1032 1.368 . S
C1029 C1010 1.429 . S
C1029 C1023 1.429 . S
C1029 C1030 1.523 1_565 S
C1030 C1011 1.368 . S
C1030 C1024 1.368 . S
C1030 C1029 1.523 1_545 S
C1031 C1015 1.429 . S
C1031 C1027 1.429 . S
C1031 C1032 1.523 . S
C1032 C1016 1.368 . S
C1032 C1028 1.368 . S
C1032 C1031 1.523 . S
H1033 C1008 0.950 . S
H1034 C1010 0.950 . S
H1035 C1011 0.949 . S
H1036 C1013 0.950 . S
H1037 C1015 0.950 . S
C1038 C1039 1.349 . S
C1038 C1040 1.327 . S
C1038 H1063 0.950 . S
C1039 C1038 1.349 . S
C1039 C1055 1.349 . S
C1040 C1038 1.327 . S
C1040 C1059 1.429 . S
C1040 H1064 0.950 . S
C1041 C1058 1.574 . S
C1041 C1060 1.368 . S
C1041 H1065 0.949 . S
H1042 C1046 0.949 . S
C1043 C1044 1.349 . S
C1043 C1045 1.327 . S
C1043 H1066 0.950 . S
C1044 C1043 1.349 . S
C1044 C1056 1.349 . S
C1045 C1043 1.327 . S
C1045 C1061 1.429 . S
C1045 H1067 0.950 . S
C1046 H1042 0.949 . S
C1046 C1054 1.574 . S
C1046 C1062 1.368 . S
H1047 C1055 0.950 . S
H1048 C1053 0.950 . S
H1049 C1054 0.949 . S
H1050 C1056 0.950 . S
H1051 C1057 0.950 . S
H1052 C1058 0.949 . S
C1053 H1048 0.950 . S
C1053 C1055 1.327 . S
C1053 C1059 1.429 . S
C1054 C1046 1.574 . S
C1054 H1049 0.949 . S
C1054 C1060 1.368 . S
C1055 C1039 1.349 . S
C1055 H1047 0.950 . S
C1055 C1053 1.327 . S
C1056 C1044 1.349 . S
C1056 H1050 0.950 . S
C1056 C1057 1.327 . S
C1057 H1051 0.950 . S
C1057 C1056 1.327 . S
C1057 C1061 1.429 . S
C1058 C1041 1.574 . S
C1058 H1052 0.949 . S
C1058 C1062 1.368 . S
C1059 C1040 1.429 . S
C1059 C1053 1.429 . S
C1059 C1060 1.523 . S
C1060 C1041 1.368 . S
C1060 C1054 1.368 . S
C1060 C1059 1.523 . S
C1061 C1045 1.429 . S
C1061 C1057 1.429 . S
C1061 C1062 1.523 . S
C1062 C1046 1.368 . S
C1062 C1058 1.368 . S
C1062 C1061 1.523 . S
H1063 C1038 0.950 . S
H1064 C1040 0.950 . S
H1065 C1041 0.949 . S
H1066 C1043 0.950 . S
H1067 C1045 0.950 . S
C1068 C1069 1.349 . S
C1068 C1070 1.327 . S
C1068 H1093 0.950 . S
C1069 C1068 1.349 . S
C1069 C1085 1.349 . S
C1070 C1068 1.327 . S
C1070 C1089 1.429 . S
C1070 H1094 0.950 . S
C1071 C1088 1.574 . S
C1071 C1090 1.368 . S
C1071 H1095 0.949 . S
H1072 C1076 0.949 1_545 S
C1073 C1074 1.349 . S
C1073 C1075 1.327 . S
C1073 H1096 0.950 . S
C1074 C1073 1.349 . S
C1074 C1086 1.349 1_556 S
C1075 C1073 1.327 . S
C1075 C1091 1.429 1_556 S
C1075 H1097 0.950 1_545 S
C1076 H1072 0.949 1_565 S
C1076 C1084 1.574 . S
C1076 C1092 1.368 . S
H1077 C1085 0.950 . S
H1078 C1083 0.950 . S
H1079 C1084 0.949 . S
H1080 C1086 0.950 . S
H1081 C1087 0.950 . S
H1082 C1088 0.949 . S
C1083 H1078 0.950 . S
C1083 C1085 1.327 . S
C1083 C1089 1.429 . S
C1084 C1076 1.574 . S
C1084 H1079 0.949 . S
C1084 C1090 1.368 . S
C1085 C1069 1.349 . S
C1085 H1077 0.950 . S
C1085 C1083 1.327 . S
C1086 C1074 1.349 1_554 S
C1086 H1080 0.950 . S
C1086 C1087 1.327 . S
C1087 H1081 0.950 . S
C1087 C1086 1.327 . S
C1087 C1091 1.429 . S
C1088 C1071 1.574 . S
C1088 H1082 0.949 . S
C1088 C1092 1.368 . S
C1089 C1070 1.429 . S
C1089 C1083 1.429 . S
C1089 C1090 1.523 . S
C1090 C1071 1.368 . S
C1090 C1084 1.368 . S
C1090 C1089 1.523 . S
C1091 C1075 1.429 1_554 S
C1091 C1087 1.429 . S
C1091 C1092 1.523 1_545 S
C1092 C1076 1.368 . S
C1092 C1088 1.368 . S
C1092 C1091 1.523 1_565 S
H1093 C1068 0.950 . S
H1094 C1070 0.950 . S
H1095 C1071 0.949 . S
H1096 C1073 0.950 . S
H1097 C1075 0.950 1_565 S
C1098 C1099 1.349 . S
C1098 C1100 1.327 . S
C1098 H1123 0.950 . S
C1099 C1098 1.349 . S
C1099 C1115 1.349 . S
C1100 C1098 1.327 . S
C1100 C1119 1.429 . S
C1100 H1124 0.950 . S
C1101 C1118 1.574 . S
C1101 C1120 1.368 . S
C1101 H1125 0.949 . S
H1102 C1106 0.949 . S
C1103 C1104 1.349 . S
C1103 C1105 1.327 . S
C1103 H1126 0.950 . S
C1104 C1103 1.349 . S
C1104 C1116 1.349 . S
C1105 C1103 1.327 . S
C1105 C1121 1.429 . S
C1105 H1127 0.950 . S
C1106 H1102 0.949 . S
C1106 C1114 1.574 . S
C1106 C1122 1.368 . S
H1107 C1115 0.950 . S
H1108 C1113 0.950 . S
H1109 C1114 0.949 . S
H1110 C1116 0.950 . S
H1111 C1117 0.950 . S
H1112 C1118 0.949 . S
C1113 H1108 0.950 . S
C1113 C1115 1.327 . S
C1113 C1119 1.429 . S
C1114 C1106 1.574 . S
C1114 H1109 0.949 . S
C1114 C1120 1.368 . S
C1115 C1099 1.349 . S
C1115 H1107 0.950 . S
C1115 C1113 1.327 . S
C1116 C1104 1.349 . S
C1116 H1110 0.950 . S
C1116 C1117 1.327 . S
C1117 H1111 0.950 . S
C1117 C1116 1.327 . S
C1117 C1121 1.429 . S
C1118 C1101 1.574 . S
C1118 H1112 0.949 . S
C1118 C1122 1.368 . S
C1119 C1100 1.429 . S
C1119 C1113 1.429 . S
C1119 C1120 1.523 . S
C1120 C1101 1.368 . S
C1120 C1114 1.368 . S
C1120 C1119 1.523 . S
C1121 C1105 1.429 . S
C1121 C1117 1.429 . S
C1121 C1122 1.523 . S
C1122 C1106 1.368 . S
C1122 C1118 1.368 . S
C1122 C1121 1.523 . S
H1123 C1098 0.950 . S
H1124 C1100 0.950 . S
H1125 C1101 0.949 . S
H1126 C1103 0.950 . S
H1127 C1105 0.950 . S
C1128 C1129 1.349 . S
C1128 C1130 1.327 . S
C1128 H1153 0.950 . S
C1129 C1128 1.349 . S
C1129 C1145 1.349 . S
C1130 C1128 1.327 . S
C1130 C1149 1.429 . S
C1130 H1154 0.950 . S
C1131 C1148 1.574 . S
C1131 C1150 1.368 . S
C1131 H1155 0.949 . S
H1132 C1136 0.949 . S
C1133 C1134 1.349 . S
C1133 C1135 1.327 . S
C1133 H1156 0.950 . S
C1134 C1133 1.349 . S
C1134 C1146 1.349 . S
C1135 C1133 1.327 . S
C1135 C1151 1.429 . S
C1135 H1157 0.950 . S
C1136 H1132 0.949 . S
C1136 C1144 1.574 . S
C1136 C1152 1.368 . S
H1137 C1145 0.950 . S
H1138 C1143 0.950 . S
H1139 C1144 0.949 . S
H1140 C1146 0.950 . S
H1141 C1147 0.950 . S
H1142 C1148 0.949 . S
C1143 H1138 0.950 . S
C1143 C1145 1.327 . S
C1143 C1149 1.429 . S
C1144 C1136 1.574 . S
C1144 H1139 0.949 . S
C1144 C1150 1.368 . S
C1145 C1129 1.349 . S
C1145 H1137 0.950 . S
C1145 C1143 1.327 . S
C1146 C1134 1.349 . S
C1146 H1140 0.950 . S
C1146 C1147 1.327 . S
C1147 H1141 0.950 . S
C1147 C1146 1.327 . S
C1147 C1151 1.429 . S
C1148 C1131 1.574 . S
C1148 H1142 0.949 . S
C1148 C1152 1.368 . S
C1149 C1130 1.429 . S
C1149 C1143 1.429 . S
C1149 C1150 1.523 . S
C1150 C1131 1.368 . S
C1150 C1144 1.368 . S
C1150 C1149 1.523 . S
C1151 C1135 1.429 . S
C1151 C1147 1.429 . S
C1151 C1152 1.523 . S
C1152 C1136 1.368 . S
C1152 C1148 1.368 . S
C1152 C1151 1.523 . S
H1153 C1128 0.950 . S
H1154 C1130 0.950 . S
H1155 C1131 0.949 . S
H1156 C1133 0.950 . S
H1157 C1135 0.950 . S
C1158 C1159 1.349 . S
C1158 C1160 1.327 . S
C1158 H1183 0.950 . S
C1159 C1158 1.349 . S
C1159 C1175 1.349 . S
C1160 C1158 1.327 . S
C1160 C1179 1.429 . S
C1160 H1184 0.950 . S
C1161 C1178 1.574 . S
C1161 C1180 1.368 . S
C1161 H1185 0.949 . S
H1162 C1166 0.949 . S
C1163 C1164 1.349 . S
C1163 C1165 1.327 . S
C1163 H1186 0.950 . S
C1164 C1163 1.349 . S
C1164 C1176 1.349 . S
C1165 C1163 1.327 . S
C1165 C1181 1.429 . S
C1165 H1187 0.950 . S
C1166 H1162 0.949 . S
C1166 C1174 1.574 . S
C1166 C1182 1.368 . S
H1167 C1175 0.950 . S
H1168 C1173 0.950 . S
H1169 C1174 0.949 . S
H1170 C1176 0.950 . S
H1171 C1177 0.950 . S
H1172 C1178 0.949 . S
C1173 H1168 0.950 . S
C1173 C1175 1.327 . S
C1173 C1179 1.429 . S
C1174 C1166 1.574 . S
C1174 H1169 0.949 . S
C1174 C1180 1.368 . S
C1175 C1159 1.349 . S
C1175 H1167 0.950 . S
C1175 C1173 1.327 . S
C1176 C1164 1.349 . S
C1176 H1170 0.950 . S
C1176 C1177 1.327 . S
C1177 H1171 0.950 . S
C1177 C1176 1.327 . S
C1177 C1181 1.429 . S
C1178 C1161 1.574 . S
C1178 H1172 0.949 . S
C1178 C1182 1.368 . S
C1179 C1160 1.429 . S
C1179 C1173 1.429 . S
C1179 C1180 1.523 . S
C1180 C1161 1.368 . S
C1180 C1174 1.368 . S
C1180 C1179 1.523 . S
C1181 C1165 1.429 . S
C1181 C1177 1.429 . S
C1181 C1182 1.523 . S
C1182 C1166 1.368 . S
C1182 C1178 1.368 . S
C1182 C1181 1.523 . S
H1183 C1158 0.950 . S
H1184 C1160 0.950 . S
H1185 C1161 0.949 . S
H1186 C1163 0.950 . S
H1187 C1165 0.950 . S
C1188 C1189 1.349 . S
C1188 C1190 1.327 . S
C1188 H1213 0.950 . S
C1189 C1188 1.349 . S
C1189 C1205 1.349 . S
C1190 C1188 1.327 . S
C1190 C1209 1.429 . S
C1190 H1214 0.950 . S
C1191 C1208 1.574 . S
C1191 C1210 1.368 . S
C1191 H1215 0.949 . S
H1192 C1196 0.949 . S
C1193 C1194 1.349 . S
C1193 C1195 1.321 1_655 S
C1193 H1216 0.950 . S
C1194 C1193 1.349 . S
C1194 C1206 1.349 1_655 S
C1195 C1193 1.321 1_455 S
C1195 C1211 1.439 . S
C1195 H1217 0.945 1_455 S
C1196 H1192 0.949 . S
C1196 C1204 1.574 . S
C1196 C1212 1.368 . S
H1197 C1205 0.950 . S
H1198 C1203 0.950 . S
H1199 C1204 0.949 . S
H1200 C1206 0.950 . S
H1201 C1207 0.950 . S
H1202 C1208 0.949 . S
C1203 H1198 0.950 . S
C1203 C1205 1.327 . S
C1203 C1209 1.429 . S
C1204 C1196 1.574 . S
C1204 H1199 0.949 . S
C1204 C1210 1.368 . S
C1205 C1189 1.349 . S
C1205 H1197 0.950 . S
C1205 C1203 1.327 . S
C1206 C1194 1.349 1_455 S
C1206 H1200 0.950 . S
C1206 C1207 1.327 . S
C1207 H1201 0.950 . S
C1207 C1206 1.327 . S
C1207 C1211 1.429 . S
C1208 C1191 1.574 . S
C1208 H1202 0.949 . S
C1208 C1212 1.368 . S
C1209 C1190 1.429 . S
C1209 C1203 1.429 . S
C1209 C1210 1.523 . S
C1210 C1191 1.368 . S
C1210 C1204 1.368 . S
C1210 C1209 1.523 . S
C1211 C1195 1.439 . S
C1211 C1207 1.429 . S
C1211 C1212 1.523 1_554 S
C1212 C1196 1.368 . S
C1212 C1208 1.368 . S
C1212 C1211 1.523 1_556 S
H1213 C1188 0.950 . S
H1214 C1190 0.950 . S
H1215 C1191 0.949 . S
H1216 C1193 0.950 . S
H1217 C1195 0.945 1_655 S
C1218 C1219 1.349 . S
C1218 C1220 1.327 . S
C1218 H1243 0.950 . S
C1219 C1218 1.349 . S
C1219 C1235 1.349 . S
C1220 C1218 1.327 . S
C1220 C1239 1.429 . S
C1220 H1244 0.950 . S
C1221 C1238 1.574 . S
C1221 C1240 1.368 . S
C1221 H1245 0.949 . S
H1222 C1226 0.949 . S
C1223 C1224 1.349 . S
C1223 C1225 1.327 . S
C1223 H1246 0.950 . S
C1224 C1223 1.349 . S
C1224 C1236 1.349 . S
C1225 C1223 1.327 . S
C1225 C1241 1.429 . S
C1225 H1247 0.950 . S
C1226 H1222 0.949 . S
C1226 C1234 1.574 . S
C1226 C1242 1.368 . S
H1227 C1235 0.950 . S
H1228 C1233 0.950 . S
H1229 C1234 0.949 . S
H1230 C1236 0.950 . S
H1231 C1237 0.950 . S
H1232 C1238 0.949 . S
C1233 H1228 0.950 . S
C1233 C1235 1.327 . S
C1233 C1239 1.429 . S
C1234 C1226 1.574 . S
C1234 H1229 0.949 . S
C1234 C1240 1.368 . S
C1235 C1219 1.349 . S
C1235 H1227 0.950 . S
C1235 C1233 1.327 . S
C1236 C1224 1.349 . S
C1236 H1230 0.950 . S
C1236 C1237 1.327 . S
C1237 H1231 0.950 . S
C1237 C1236 1.327 . S
C1237 C1241 1.429 . S
C1238 C1221 1.574 . S
C1238 H1232 0.949 . S
C1238 C1242 1.368 . S
C1239 C1220 1.429 . S
C1239 C1233 1.429 . S
C1239 C1240 1.523 . S
C1240 C1221 1.368 . S
C1240 C1234 1.368 . S
C1240 C1239 1.523 . S
C1241 C1225 1.429 . S
C1241 C1237 1.429 . S
C1241 C1242 1.523 . S
C1242 C1226 1.368 . S
C1242 C1238 1.368 . S
C1242 C1241 1.523 . S
H1243 C1218 0.950 . S
H1244 C1220 0.950 . S
H1245 C1221 0.949 . S
H1246 C1223 0.950 . S
H1247 C1225 0.950 . S
C1248 C1249 1.349 . S
C1248 C1250 1.327 . S
C1248 H1273 0.950 . S
C1249 C1248 1.349 . S
C1249 C1265 1.349 1_455 S
C1250 C1248 1.327 . S
C1250 C1269 1.429 1_455 S
C1250 H1274 0.950 . S
C1251 C1268 1.574 . S
C1251 C1270 1.368 . S
C1251 H1275 0.949 . S
H1252 C1256 0.949 . S
C1253 C1254 1.349 . S
C1253 C1255 1.327 . S
C1253 H1276 0.950 . S
C1254 C1253 1.349 . S
C1254 C1266 1.349 . S
C1255 C1253 1.327 . S
C1255 C1271 1.429 . S
C1255 H1277 0.950 . S
C1256 H1252 0.949 . S
C1256 C1264 1.574 . S
C1256 C1272 1.368 . S
H1257 C1265 0.950 . S
H1258 C1263 0.950 . S
H1259 C1264 0.949 . S
H1260 C1266 0.950 . S
H1261 C1267 0.950 . S
H1262 C1268 0.949 . S
C1263 H1258 0.950 . S
C1263 C1265 1.327 . S
C1263 C1269 1.429 . S
C1264 C1256 1.574 . S
C1264 H1259 0.949 . S
C1264 C1270 1.368 . S
C1265 C1249 1.349 1_655 S
C1265 H1257 0.950 . S
C1265 C1263 1.327 . S
C1266 C1254 1.349 . S
C1266 H1260 0.950 . S
C1266 C1267 1.327 . S
C1267 H1261 0.950 . S
C1267 C1266 1.327 . S
C1267 C1271 1.429 . S
C1268 C1251 1.574 . S
C1268 H1262 0.949 . S
C1268 C1272 1.368 . S
C1269 C1250 1.429 1_655 S
C1269 C1263 1.429 . S
C1269 C1270 1.523 . S
C1270 C1251 1.368 . S
C1270 C1264 1.368 . S
C1270 C1269 1.523 . S
C1271 C1255 1.429 . S
C1271 C1267 1.429 . S
C1271 C1272 1.523 . S
C1272 C1256 1.368 . S
C1272 C1268 1.368 . S
C1272 C1271 1.523 . S
H1273 C1248 0.950 . S
H1274 C1250 0.950 . S
H1275 C1251 0.949 . S
H1276 C1253 0.950 . S
H1277 C1255 0.950 . S
C1278 C1279 1.349 . S
C1278 C1280 1.327 . S
C1278 H1303 0.950 . S
C1279 C1278 1.349 . S
C1279 C1295 1.349 . S
C1280 C1278 1.327 . S
C1280 C1299 1.429 . S
C1280 H1304 0.950 . S
C1281 C1298 1.574 . S
C1281 C1300 1.368 . S
C1281 H1305 0.949 . S
H1282 C1286 0.949 . S
C1283 C1284 1.349 . S
C1283 C1285 1.327 . S
C1283 H1306 0.950 . S
C1284 C1283 1.349 . S
C1284 C1296 1.349 . S
C1285 C1283 1.327 . S
C1285 C1301 1.429 . S
C1285 H1307 0.950 . S
C1286 H1282 0.949 . S
C1286 C1294 1.574 . S
C1286 C1302 1.368 . S
H1287 C1295 0.950 . S
H1288 C1293 0.950 . S
H1289 C1294 0.949 . S
H1290 C1296 0.950 . S
H1291 C1297 0.950 . S
H1292 C1298 0.949 . S
C1293 H1288 0.950 . S
C1293 C1295 1.327 . S
C1293 C1299 1.429 . S
C1294 C1286 1.574 . S
C1294 H1289 0.949 . S
C1294 C1300 1.368 . S
C1295 C1279 1.349 . S
C1295 H1287 0.950 . S
C1295 C1293 1.327 . S
C1296 C1284 1.349 . S
C1296 H1290 0.950 . S
C1296 C1297 1.327 . S
C1297 H1291 0.950 . S
C1297 C1296 1.327 . S
C1297 C1301 1.429 . S
C1298 C1281 1.574 . S
C1298 H1292 0.949 . S
C1298 C1302 1.368 . S
C1299 C1280 1.429 . S
C1299 C1293 1.429 . S
C1299 C1300 1.523 . S
C1300 C1281 1.368 . S
C1300 C1294 1.368 . S
C1300 C1299 1.523 . S
C1301 C1285 1.429 . S
C1301 C1297 1.429 . S
C1301 C1302 1.523 . S
C1302 C1286 1.368 . S
C1302 C1298 1.368 . S
C1302 C1301 1.523 . S
H1303 C1278 0.950 . S
H1304 C1280 0.950 . S
H1305 C1281 0.949 . S
H1306 C1283 0.950 . S
H1307 C1285 0.950 . S
C1308 C1309 1.349 . S
C1308 C1310 1.327 . S
C1308 H1333 0.950 . S
C1309 C1308 1.349 . S
C1309 C1325 1.349 . S
C1310 C1308 1.327 . S
C1310 C1329 1.429 . S
C1310 H1334 0.950 . S
C1311 C1328 1.574 . S
C1311 C1330 1.368 . S
C1311 H1335 0.949 . S
H1312 C1316 0.949 . S
C1313 C1314 1.349 . S
C1313 C1315 1.327 . S
C1313 H1336 0.950 . S
C1314 C1313 1.349 . S
C1314 C1326 1.349 . S
C1315 C1313 1.327 . S
C1315 C1331 1.429 . S
C1315 H1337 0.950 . S
C1316 H1312 0.949 . S
C1316 C1324 1.574 . S
C1316 C1332 1.368 . S
H1317 C1325 0.950 . S
H1318 C1323 0.950 . S
H1319 C1324 0.949 . S
H1320 C1326 0.950 . S
H1321 C1327 0.950 . S
H1322 C1328 0.949 . S
C1323 H1318 0.950 . S
C1323 C1325 1.327 . S
C1323 C1329 1.429 . S
C1324 C1316 1.574 . S
C1324 H1319 0.949 . S
C1324 C1330 1.368 . S
C1325 C1309 1.349 . S
C1325 H1317 0.950 . S
C1325 C1323 1.327 . S
C1326 C1314 1.349 . S
C1326 H1320 0.950 . S
C1326 C1327 1.327 . S
C1327 H1321 0.950 . S
C1327 C1326 1.327 . S
C1327 C1331 1.429 . S
C1328 C1311 1.574 . S
C1328 H1322 0.949 . S
C1328 C1332 1.368 . S
C1329 C1310 1.429 . S
C1329 C1323 1.429 . S
C1329 C1330 1.523 . S
C1330 C1311 1.368 . S
C1330 C1324 1.368 . S
C1330 C1329 1.523 . S
C1331 C1315 1.429 . S
C1331 C1327 1.429 . S
C1331 C1332 1.523 1_556 S
C1332 C1316 1.368 . S
C1332 C1328 1.368 . S
C1332 C1331 1.523 1_554 S
H1333 C1308 0.950 . S
H1334 C1310 0.950 . S
H1335 C1311 0.949 . S
H1336 C1313 0.950 . S
H1337 C1315 0.950 . S
C1338 C1339 1.349 . S
C1338 C1340 1.327 . S
C1338 H1363 0.950 . S
C1339 C1338 1.349 . S
C1339 C1355 1.349 . S
C1340 C1338 1.327 . S
C1340 C1359 1.429 . S
C1340 H1364 0.950 . S
C1341 C1358 1.574 . S
C1341 C1360 1.368 . S
C1341 H1365 0.949 . S
H1342 C1346 0.949 . S
C1343 C1344 1.349 . S
C1343 C1345 1.327 . S
C1343 H1366 0.950 . S
C1344 C1343 1.349 . S
C1344 C1356 1.349 . S
C1345 C1343 1.327 . S
C1345 C1361 1.429 . S
C1345 H1367 0.950 . S
C1346 H1342 0.949 . S
C1346 C1354 1.574 . S
C1346 C1362 1.368 . S
H1347 C1355 0.950 . S
H1348 C1353 0.950 . S
H1349 C1354 0.949 . S
H1350 C1356 0.950 . S
H1351 C1357 0.950 . S
H1352 C1358 0.949 . S
C1353 H1348 0.950 . S
C1353 C1355 1.327 . S
C1353 C1359 1.429 . S
C1354 C1346 1.574 . S
C1354 H1349 0.949 . S
C1354 C1360 1.368 . S
C1355 C1339 1.349 . S
C1355 H1347 0.950 . S
C1355 C1353 1.327 . S
C1356 C1344 1.349 . S
C1356 H1350 0.950 . S
C1356 C1357 1.327 . S
C1357 H1351 0.950 . S
C1357 C1356 1.327 . S
C1357 C1361 1.429 . S
C1358 C1341 1.574 . S
C1358 H1352 0.949 . S
C1358 C1362 1.368 . S
C1359 C1340 1.429 . S
C1359 C1353 1.429 . S
C1359 C1360 1.523 . S
C1360 C1341 1.368 . S
C1360 C1354 1.368 . S
C1360 C1359 1.523 . S
C1361 C1345 1.429 . S
C1361 C1357 1.429 . S
C1361 C1362 1.523 . S
C1362 C1346 1.368 . S
C1362 C1358 1.368 . S
C1362 C1361 1.523 . S
H1363 C1338 0.950 . S
H1364 C1340 0.950 . S
H1365 C1341 0.949 . S
H1366 C1343 0.950 . S
H1367 C1345 0.950 . S
C1368 C1369 1.349 . S
C1368 C1370 1.327 . S
C1368 H1393 0.950 . S
C1369 C1368 1.349 . S
C1369 C1385 1.349 . S
C1370 C1368 1.327 . S
C1370 C1389 1.429 . S
C1370 H1394 0.950 . S
C1371 C1388 1.574 . S
C1371 C1390 1.368 . S
C1371 H1395 0.949 . S
H1372 C1376 0.949 . S
C1373 C1374 1.349 . S
C1373 C1375 1.327 . S
C1373 H1396 0.950 . S
C1374 C1373 1.349 . S
C1374 C1386 1.349 . S
C1375 C1373 1.327 . S
C1375 C1391 1.429 . S
C1375 H1397 0.950 . S
C1376 H1372 0.949 . S
C1376 C1384 1.574 . S
C1376 C1392 1.368 . S
H1377 C1385 0.950 . S
H1378 C1383 0.950 . S
H1379 C1384 0.949 . S
H1380 C1386 0.950 . S
H1381 C1387 0.950 . S
H1382 C1388 0.949 . S
C1383 H1378 0.950 . S
C1383 C1385 1.327 . S
C1383 C1389 1.429 . S
C1384 C1376 1.574 . S
C1384 H1379 0.949 . S
C1384 C1390 1.368 . S
C1385 C1369 1.349 . S
C1385 H1377 0.950 . S
C1385 C1383 1.327 . S
C1386 C1374 1.349 . S
C1386 H1380 0.950 . S
C1386 C1387 1.327 . S
C1387 H1381 0.950 . S
C1387 C1386 1.327 . S
C1387 C1391 1.429 . S
C1388 C1371 1.574 . S
C1388 H1382 0.949 . S
C1388 C1392 1.368 . S
C1389 C1370 1.429 . S
C1389 C1383 1.429 . S
C1389 C1390 1.523 . S
C1390 C1371 1.368 . S
C1390 C1384 1.368 . S
C1390 C1389 1.523 . S
C1391 C1375 1.429 . S
C1391 C1387 1.429 . S
C1391 C1392 1.523 . S
C1392 C1376 1.368 . S
C1392 C1388 1.368 . S
C1392 C1391 1.523 . S
H1393 C1368 0.950 . S
H1394 C1370 0.950 . S
H1395 C1371 0.949 . S
H1396 C1373 0.950 . S
H1397 C1375 0.950 . S
C1398 C1399 1.349 1_545 S
C1398 C1400 1.327 . S
C1398 H1423 0.950 . S
C1399 C1398 1.349 1_565 S
C1399 C1415 1.349 . S
C1400 C1398 1.327 . S
C1400 C1419 1.429 . S
C1400 H1424 0.950 . S
C1401 C1418 1.574 . S
C1401 C1420 1.368 . S
C1401 H1425 0.949 . S
H1402 C1406 0.949 . S
C1403 C1404 1.349 . S
C1403 C1405 1.327 . S
C1403 H1426 0.950 . S
C1404 C1403 1.349 . S
C1404 C1416 1.349 . S
C1405 C1403 1.327 . S
C1405 C1421 1.429 . S
C1405 H1427 0.950 . S
C1406 H1402 0.949 . S
C1406 C1414 1.574 . S
C1406 C1422 1.368 . S
H1407 C1415 0.950 . S
H1408 C1413 0.938 1_665 S
H1409 C1414 0.949 1_455 S
H1410 C1416 0.950 . S
H1411 C1417 0.950 . S
H1412 C1418 0.949 . S
C1413 H1408 0.938 1_445 S
C1413 C1415 1.310 1_545 S
C1413 C1419 1.458 . S
C1414 C1406 1.574 . S
C1414 H1409 0.949 1_655 S
C1414 C1420 1.368 . S
C1415 C1399 1.349 . S
C1415 H1407 0.950 . S
C1415 C1413 1.310 1_565 S
C1416 C1404 1.349 . S
C1416 H1410 0.950 . S
C1416 C1417 1.327 . S
C1417 H1411 0.950 . S
C1417 C1416 1.327 . S
C1417 C1421 1.429 . S
C1418 C1401 1.574 . S
C1418 H1412 0.949 . S
C1418 C1422 1.368 . S
C1419 C1400 1.429 . S
C1419 C1413 1.458 . S
C1419 C1420 1.523 1_455 S
C1420 C1401 1.368 . S
C1420 C1414 1.368 . S
C1420 C1419 1.523 1_655 S
C1421 C1405 1.429 . S
C1421 C1417 1.429 . S
C1421 C1422 1.523 . S
C1422 C1406 1.368 . S
C1422 C1418 1.368 . S
C1422 C1421 1.523 . S
H1423 C1398 0.950 . S
H1424 C1400 0.950 . S
H1425 C1401 0.949 . S
H1426 C1403 0.950 . S
H1427 C1405 0.950 . S
C1428 C1429 1.349 . S
C1428 C1430 1.327 . S
C1428 H1453 0.950 . S
C1429 C1428 1.349 . S
C1429 C1445 1.349 . S
C1430 C1428 1.327 . S
C1430 C1449 1.429 . S
C1430 H1454 0.950 . S
C1431 C1448 1.574 . S
C1431 C1450 1.368 . S
C1431 H1455 0.949 . S
H1432 C1436 0.949 . S
C1433 C1434 1.349 . S
C1433 C1435 1.327 . S
C1433 H1456 0.950 . S
C1434 C1433 1.349 . S
C1434 C1446 1.349 . S
C1435 C1433 1.327 . S
C1435 C1451 1.429 . S
C1435 H1457 0.950 . S
C1436 H1432 0.949 . S
C1436 C1444 1.574 . S
C1436 C1452 1.368 . S
H1437 C1445 0.950 . S
H1438 C1443 0.950 . S
H1439 C1444 0.949 . S
H1440 C1446 0.950 . S
H1441 C1447 0.950 . S
H1442 C1448 0.949 . S
C1443 H1438 0.950 . S
C1443 C1445 1.327 . S
C1443 C1449 1.429 . S
C1444 C1436 1.574 . S
C1444 H1439 0.949 . S
C1444 C1450 1.368 . S
C1445 C1429 1.349 . S
C1445 H1437 0.950 . S
C1445 C1443 1.327 . S
C1446 C1434 1.349 . S
C1446 H1440 0.950 . S
C1446 C1447 1.327 . S
C1447 H1441 0.950 . S
C1447 C1446 1.327 . S
C1447 C1451 1.429 . S
C1448 C1431 1.574 . S
C1448 H1442 0.949 . S
C1448 C1452 1.368 . S
C1449 C1430 1.429 . S
C1449 C1443 1.429 . S
C1449 C1450 1.523 . S
C1450 C1431 1.368 . S
C1450 C1444 1.368 . S
C1450 C1449 1.523 . S
C1451 C1435 1.429 . S
C1451 C1447 1.429 . S
C1451 C1452 1.523 . S
C1452 C1436 1.368 . S
C1452 C1448 1.368 . S
C1452 C1451 1.523 . S
H1453 C1428 0.950 . S
H1454 C1430 0.950 . S
H1455 C1431 0.949 . S
H1456 C1433 0.950 . S
H1457 C1435 0.950 . S
C1458 C1459 1.349 1_565 S
C1458 C1460 1.327 . S
C1458 H1483 0.950 1_565 S
C1459 C1458 1.349 1_545 S
C1459 C1475 1.349 1_545 S
C1460 C1458 1.327 . S
C1460 C1479 1.429 . S
C1460 H1484 0.950 . S
C1461 C1478 1.574 . S
C1461 C1480 1.368 . S
C1461 H1485 0.949 . S
H1462 C1466 0.949 . S
C1463 C1464 1.349 . S
C1463 C1465 1.327 . S
C1463 H1486 0.950 . S
C1464 C1463 1.349 . S
C1464 C1476 1.349 . S
C1465 C1463 1.327 . S
C1465 C1481 1.429 . S
C1465 H1487 0.950 . S
C1466 H1462 0.949 . S
C1466 C1474 1.574 . S
C1466 C1482 1.368 . S
H1467 C1475 0.945 1_545 S
H1468 C1473 0.950 . S
H1469 C1474 0.949 . S
H1470 C1476 0.950 . S
H1471 C1477 0.950 . S
H1472 C1478 0.949 . S
C1473 H1468 0.950 . S
C1473 C1475 1.327 . S
C1473 C1479 1.429 . S
C1474 C1466 1.574 . S
C1474 H1469 0.949 . S
C1474 C1480 1.368 . S
C1475 C1459 1.349 1_565 S
C1475 H1467 0.945 1_565 S
C1475 C1473 1.327 . S
C1476 C1464 1.349 . S
C1476 H1470 0.950 . S
C1476 C1477 1.327 . S
C1477 H1471 0.950 . S
C1477 C1476 1.327 . S
C1477 C1481 1.429 . S
C1478 C1461 1.574 . S
C1478 H1472 0.949 . S
C1478 C1482 1.368 . S
C1479 C1460 1.429 . S
C1479 C1473 1.429 . S
C1479 C1480 1.523 . S
C1480 C1461 1.368 . S
C1480 C1474 1.368 . S
C1480 C1479 1.523 . S
C1481 C1465 1.429 . S
C1481 C1477 1.429 . S
C1481 C1482 1.523 . S
C1482 C1466 1.368 . S
C1482 C1478 1.368 . S
C1482 C1481 1.523 . S
H1483 C1458 0.950 1_545 S
H1484 C1460 0.950 . S
H1485 C1461 0.949 . S
H1486 C1463 0.950 . S
H1487 C1465 0.950 . S
C1488 C1489 1.349 . S
C1488 C1490 1.327 . S
C1488 H1513 0.950 . S
C1489 C1488 1.349 . S
C1489 C1505 1.349 . S
C1490 C1488 1.327 . S
C1490 C1509 1.429 . S
C1490 H1514 0.950 . S
C1491 C1508 1.574 . S
C1491 C1510 1.368 . S
C1491 H1515 0.949 . S
H1492 C1496 0.949 . S
C1493 C1494 1.349 . S
C1493 C1495 1.327 . S
C1493 H1516 0.950 . S
C1494 C1493 1.349 . S
C1494 C1506 1.349 . S
C1495 C1493 1.327 . S
C1495 C1511 1.429 . S
C1495 H1517 0.950 . S
C1496 H1492 0.949 . S
C1496 C1504 1.574 . S
C1496 C1512 1.368 . S
H1497 C1505 0.950 . S
H1498 C1503 0.950 . S
H1499 C1504 0.949 . S
H1500 C1506 0.950 . S
H1501 C1507 0.950 . S
H1502 C1508 0.949 . S
C1503 H1498 0.950 . S
C1503 C1505 1.327 . S
C1503 C1509 1.429 . S
C1504 C1496 1.574 . S
C1504 H1499 0.949 . S
C1504 C1510 1.368 . S
C1505 C1489 1.349 . S
C1505 H1497 0.950 . S
C1505 C1503 1.327 . S
C1506 C1494 1.349 . S
C1506 H1500 0.950 . S
C1506 C1507 1.327 . S
C1507 H1501 0.950 . S
C1507 C1506 1.327 . S
C1507 C1511 1.429 . S
C1508 C1491 1.574 . S
C1508 H1502 0.949 . S
C1508 C1512 1.368 . S
C1509 C1490 1.429 . S
C1509 C1503 1.429 . S
C1509 C1510 1.523 . S
C1510 C1491 1.368 . S
C1510 C1504 1.368 . S
C1510 C1509 1.523 . S
C1511 C1495 1.429 . S
C1511 C1507 1.429 . S
C1511 C1512 1.523 . S
C1512 C1496 1.368 . S
C1512 C1508 1.368 . S
C1512 C1511 1.523 . S
H1513 C1488 0.950 . S
H1514 C1490 0.950 . S
H1515 C1491 0.949 . S
H1516 C1493 0.950 . S
H1517 C1495 0.950 . S
C1518 C1519 1.349 . S
C1518 C1520 1.327 . S
C1518 H1543 0.950 . S
C1519 C1518 1.349 . S
C1519 C1535 1.349 . S
C1520 C1518 1.327 . S
C1520 C1539 1.429 . S
C1520 H1544 0.950 1_655 S
C1521 C1538 1.574 . S
C1521 C1540 1.368 . S
C1521 H1545 0.949 1_455 S
H1522 C1526 0.949 . S
C1523 C1524 1.349 . S
C1523 C1525 1.327 . S
C1523 H1546 0.950 . S
C1524 C1523 1.349 . S
C1524 C1536 1.349 . S
C1525 C1523 1.327 . S
C1525 C1541 1.429 . S
C1525 H1547 0.950 . S
C1526 H1522 0.949 . S
C1526 C1534 1.574 . S
C1526 C1542 1.368 . S
H1527 C1535 0.950 . S
H1528 C1533 0.950 . S
H1529 C1534 0.949 . S
H1530 C1536 0.950 . S
H1531 C1537 0.950 . S
H1532 C1538 0.949 . S
C1533 H1528 0.950 . S
C1533 C1535 1.327 . S
C1533 C1539 1.429 . S
C1534 C1526 1.574 . S
C1534 H1529 0.949 . S
C1534 C1540 1.368 . S
C1535 C1519 1.349 . S
C1535 H1527 0.950 . S
C1535 C1533 1.327 . S
C1536 C1524 1.349 . S
C1536 H1530 0.950 . S
C1536 C1537 1.327 . S
C1537 H1531 0.950 . S
C1537 C1536 1.327 . S
C1537 C1541 1.429 . S
C1538 C1521 1.574 . S
C1538 H1532 0.949 . S
C1538 C1542 1.368 . S
C1539 C1520 1.429 . S
C1539 C1533 1.429 . S
C1539 C1540 1.523 1_655 S
C1540 C1521 1.368 . S
C1540 C1534 1.368 . S
C1540 C1539 1.523 1_455 S
C1541 C1525 1.429 . S
C1541 C1537 1.429 . S
C1541 C1542 1.523 . S
C1542 C1526 1.368 . S
C1542 C1538 1.368 . S
C1542 C1541 1.523 . S
H1543 C1518 0.950 . S
H1544 C1520 0.950 1_455 S
H1545 C1521 0.949 1_655 S
H1546 C1523 0.950 . S
H1547 C1525 0.950 . S
C1548 C1549 1.349 . S
C1548 C1550 1.327 . S
C1548 H1573 0.950 . S
C1549 C1548 1.349 . S
C1549 C1565 1.349 . S
C1550 C1548 1.327 . S
C1550 C1569 1.429 . S
C1550 H1574 0.950 . S
C1551 C1568 1.574 . S
C1551 C1570 1.368 . S
C1551 H1575 0.949 . S
H1552 C1556 0.949 . S
C1553 C1554 1.349 . S
C1553 C1555 1.327 . S
C1553 H1576 0.950 . S
C1554 C1553 1.349 . S
C1554 C1566 1.349 . S
C1555 C1553 1.327 . S
C1555 C1571 1.429 . S
C1555 H1577 0.950 . S
C1556 H1552 0.949 . S
C1556 C1564 1.574 . S
C1556 C1572 1.368 . S
H1557 C1565 0.950 . S
H1558 C1563 0.950 . S
H1559 C1564 0.949 . S
H1560 C1566 0.950 . S
H1561 C1567 0.950 . S
H1562 C1568 0.949 . S
C1563 H1558 0.950 . S
C1563 C1565 1.327 . S
C1563 C1569 1.429 . S
C1564 C1556 1.574 . S
C1564 H1559 0.949 . S
C1564 C1570 1.368 . S
C1565 C1549 1.349 . S
C1565 H1557 0.950 . S
C1565 C1563 1.327 . S
C1566 C1554 1.349 . S
C1566 H1560 0.950 . S
C1566 C1567 1.327 . S
C1567 H1561 0.950 . S
C1567 C1566 1.327 . S
C1567 C1571 1.429 . S
C1568 C1551 1.574 . S
C1568 H1562 0.949 . S
C1568 C1572 1.368 . S
C1569 C1550 1.429 . S
C1569 C1563 1.429 . S
C1569 C1570 1.523 . S
C1570 C1551 1.368 . S
C1570 C1564 1.368 . S
C1570 C1569 1.523 . S
C1571 C1555 1.429 . S
C1571 C1567 1.429 . S
C1571 C1572 1.523 . S
C1572 C1556 1.368 . S
C1572 C1568 1.368 . S
C1572 C1571 1.523 . S
H1573 C1548 0.950 . S
H1574 C1550 0.950 . S
H1575 C1551 0.949 . S
H1576 C1553 0.950 . S
H1577 C1555 0.950 . S
C1578 C1579 1.349 . S
C1578 C1580 1.327 . S
C1578 H1603 0.950 . S
C1579 C1578 1.349 . S
C1579 C1595 1.349 . S
C1580 C1578 1.327 . S
C1580 C1599 1.429 . S
C1580 H1604 0.950 . S
C1581 C1598 1.574 . S
C1581 C1600 1.368 . S
C1581 H1605 0.949 . S
H1582 C1586 0.949 . S
C1583 C1584 1.349 . S
C1583 C1585 1.327 . S
C1583 H1606 0.950 . S
C1584 C1583 1.349 . S
C1584 C1596 1.349 . S
C1585 C1583 1.327 . S
C1585 C1601 1.429 . S
C1585 H1607 0.950 . S
C1586 H1582 0.949 . S
C1586 C1594 1.574 . S
C1586 C1602 1.368 . S
H1587 C1595 0.950 . S
H1588 C1593 0.950 . S
H1589 C1594 0.949 . S
H1590 C1596 0.950 . S
H1591 C1597 0.950 . S
H1592 C1598 0.949 . S
C1593 H1588 0.950 . S
C1593 C1595 1.327 . S
C1593 C1599 1.429 . S
C1594 C1586 1.574 . S
C1594 H1589 0.949 . S
C1594 C1600 1.368 . S
C1595 C1579 1.349 . S
C1595 H1587 0.950 . S
C1595 C1593 1.327 . S
C1596 C1584 1.349 . S
C1596 H1590 0.950 . S
C1596 C1597 1.327 . S
C1597 H1591 0.950 . S
C1597 C1596 1.327 . S
C1597 C1601 1.429 . S
C1598 C1581 1.574 . S
C1598 H1592 0.949 . S
C1598 C1602 1.368 . S
C1599 C1580 1.429 . S
C1599 C1593 1.429 . S
C1599 C1600 1.523 . S
C1600 C1581 1.368 . S
C1600 C1594 1.368 . S
C1600 C1599 1.523 . S
C1601 C1585 1.429 . S
C1601 C1597 1.429 . S
C1601 C1602 1.523 . S
C1602 C1586 1.368 . S
C1602 C1598 1.368 . S
C1602 C1601 1.523 . S
H1603 C1578 0.950 . S
H1604 C1580 0.950 . S
H1605 C1581 0.949 . S
H1606 C1583 0.950 . S
H1607 C1585 0.950 . S
C1608 C1609 1.349 . S
C1608 C1610 1.327 . S
C1608 H1633 0.950 . S
C1609 C1608 1.349 . S
C1609 C1625 1.349 . S
C1610 C1608 1.327 . S
C1610 C1629 1.429 . S
C1610 H1634 0.950 . S
C1611 C1628 1.574 . S
C1611 C1630 1.368 . S
C1611 H1635 0.949 . S
H1612 C1616 0.949 . S
C1613 C1614 1.349 . S
C1613 C1615 1.327 . S
C1613 H1636 0.950 . S
C1614 C1613 1.349 . S
C1614 C1626 1.349 . S
C1615 C1613 1.327 . S
C1615 C1631 1.429 . S
C1615 H1637 0.950 . S
C1616 H1612 0.949 . S
C1616 C1624 1.574 . S
C1616 C1632 1.368 . S
H1617 C1625 0.950 . S
H1618 C1623 0.950 . S
H1619 C1624 0.949 . S
H1620 C1626 0.950 . S
H1621 C1627 0.950 . S
H1622 C1628 0.949 . S
C1623 H1618 0.950 . S
C1623 C1625 1.327 . S
C1623 C1629 1.429 . S
C1624 C1616 1.574 . S
C1624 H1619 0.949 . S
C1624 C1630 1.368 . S
C1625 C1609 1.349 . S
C1625 H1617 0.950 . S
C1625 C1623 1.327 . S
C1626 C1614 1.349 . S
C1626 H1620 0.950 . S
C1626 C1627 1.327 . S
C1627 H1621 0.950 . S
C1627 C1626 1.327 . S
C1627 C1631 1.429 . S
C1628 C1611 1.574 . S
C1628 H1622 0.949 . S
C1628 C1632 1.368 . S
C1629 C1610 1.429 . S
C1629 C1623 1.429 . S
C1629 C1630 1.523 . S
C1630 C1611 1.368 . S
C1630 C1624 1.368 . S
C1630 C1629 1.523 . S
C1631 C1615 1.429 . S
C1631 C1627 1.429 . S
C1631 C1632 1.523 . S
C1632 C1616 1.368 . S
C1632 C1628 1.368 . S
C1632 C1631 1.523 . S
H1633 C1608 0.950 . S
H1634 C1610 0.950 . S
H1635 C1611 0.949 . S
H1636 C1613 0.950 . S
H1637 C1615 0.950 . S
C1638 C1639 1.349 . S
C1638 C1640 1.327 . S
C1638 H1663 0.950 . S
C1639 C1638 1.349 . S
C1639 C1655 1.349 . S
C1640 C1638 1.327 . S
C1640 C1659 1.429 . S
C1640 H1664 0.950 . S
C1641 C1658 1.574 . S
C1641 C1660 1.368 . S
C1641 H1665 0.949 . S
H1642 C1646 0.949 . S
C1643 C1644 1.349 . S
C1643 C1645 1.327 . S
C1643 H1666 0.950 . S
C1644 C1643 1.349 . S
C1644 C1656 1.349 . S
C1645 C1643 1.327 . S
C1645 C1661 1.429 . S
C1645 H1667 0.950 . S
C1646 H1642 0.949 . S
C1646 C1654 1.574 . S
C1646 C1662 1.368 . S
H1647 C1655 0.950 . S
H1648 C1653 0.950 . S
H1649 C1654 0.949 . S
H1650 C1656 0.950 . S
H1651 C1657 0.950 . S
H1652 C1658 0.949 . S
C1653 H1648 0.950 . S
C1653 C1655 1.327 . S
C1653 C1659 1.429 . S
C1654 C1646 1.574 . S
C1654 H1649 0.949 . S
C1654 C1660 1.368 . S
C1655 C1639 1.349 . S
C1655 H1647 0.950 . S
C1655 C1653 1.327 . S
C1656 C1644 1.349 . S
C1656 H1650 0.950 . S
C1656 C1657 1.327 . S
C1657 H1651 0.950 . S
C1657 C1656 1.327 . S
C1657 C1661 1.429 . S
C1658 C1641 1.574 . S
C1658 H1652 0.949 . S
C1658 C1662 1.368 . S
C1659 C1640 1.429 . S
C1659 C1653 1.429 . S
C1659 C1660 1.523 . S
C1660 C1641 1.368 . S
C1660 C1654 1.368 . S
C1660 C1659 1.523 . S
C1661 C1645 1.429 . S
C1661 C1657 1.429 . S
C1661 C1662 1.523 . S
C1662 C1646 1.368 . S
C1662 C1658 1.368 . S
C1662 C1661 1.523 . S
H1663 C1638 0.950 . S
H1664 C1640 0.950 . S
H1665 C1641 0.949 . S
H1666 C1643 0.950 . S
H1667 C1645 0.950 . S
C1668 C1669 1.349 . S
C1668 C1670 1.327 . S
C1668 H1693 0.950 . S
C1669 C1668 1.349 . S
C1669 C1685 1.349 . S
C1670 C1668 1.327 . S
C1670 C1689 1.429 . S
C1670 H1694 0.950 . S
C1671 C1688 1.574 . S
C1671 C1690 1.368 . S
C1671 H1695 0.949 . S
H1672 C1676 0.949 . S
C1673 C1674 1.349 . S
C1673 C1675 1.327 . S
C1673 H1696 0.950 . S
C1674 C1673 1.349 . S
C1674 C1686 1.349 . S
C1675 C1673 1.327 . S
C1675 C1691 1.429 . S
C1675 H1697 0.950 . S
C1676 H1672 0.949 . S
C1676 C1684 1.574 . S
C1676 C1692 1.368 . S
H1677 C1685 0.950 . S
H1678 C1683 0.950 . S
H1679 C1684 0.949 . S
H1680 C1686 0.950 . S
H1681 C1687 0.950 . S
H1682 C1688 0.949 . S
C1683 H1678 0.950 . S
C1683 C1685 1.327 . S
C1683 C1689 1.429 . S
C1684 C1676 1.574 . S
C1684 H1679 0.949 . S
C1684 C1690 1.368 . S
C1685 C1669 1.349 . S
C1685 H1677 0.950 . S
C1685 C1683 1.327 . S
C1686 C1674 1.349 . S
C1686 H1680 0.950 . S
C1686 C1687 1.327 . S
C1687 H1681 0.950 . S
C1687 C1686 1.327 . S
C1687 C1691 1.429 . S
C1688 C1671 1.574 . S
C1688 H1682 0.949 . S
C1688 C1692 1.368 . S
C1689 C1670 1.429 . S
C1689 C1683 1.429 . S
C1689 C1690 1.523 . S
C1690 C1671 1.368 . S
C1690 C1684 1.368 . S
C1690 C1689 1.523 . S
C1691 C1675 1.429 . S
C1691 C1687 1.429 . S
C1691 C1692 1.523 . S
C1692 C1676 1.368 . S
C1692 C1688 1.368 . S
C1692 C1691 1.523 . S
H1693 C1668 0.950 . S
H1694 C1670 0.950 . S
H1695 C1671 0.949 . S
H1696 C1673 0.950 . S
H1697 C1675 0.950 . S
C1698 C1699 1.349 . S
C1698 C1700 1.327 . S
C1698 H1723 0.950 . S
C1699 C1698 1.349 . S
C1699 C1715 1.349 . S
C1700 C1698 1.327 . S
C1700 C1719 1.429 . S
C1700 H1724 0.950 . S
C1701 C1718 1.574 . S
C1701 C1720 1.368 . S
C1701 H1725 0.949 . S
H1702 C1706 0.949 1_556 S
C1703 C1704 1.349 . S
C1703 C1705 1.327 1_556 S
C1703 H1726 0.967 . S
C1704 C1703 1.349 . S
C1704 C1716 1.349 . S
C1705 C1703 1.327 1_554 S
C1705 C1721 1.427 1_554 S
C1705 H1727 0.950 . S
C1706 H1702 0.949 1_554 S
C1706 C1714 1.574 . S
C1706 C1722 1.368 . S
H1707 C1715 0.950 . S
H1708 C1713 0.950 . S
H1709 C1714 0.949 . S
H1710 C1716 0.950 . S
H1711 C1717 0.950 . S
H1712 C1718 0.949 . S
C1713 H1708 0.950 . S
C1713 C1715 1.327 . S
C1713 C1719 1.429 . S
C1714 C1706 1.574 . S
C1714 H1709 0.949 . S
C1714 C1720 1.368 . S
C1715 C1699 1.349 . S
C1715 H1707 0.950 . S
C1715 C1713 1.327 . S
C1716 C1704 1.349 . S
C1716 H1710 0.950 . S
C1716 C1717 1.327 . S
C1717 H1711 0.950 . S
C1717 C1716 1.327 . S
C1717 C1721 1.433 . S
C1718 C1701 1.574 . S
C1718 H1712 0.949 . S
C1718 C1722 1.368 . S
C1719 C1700 1.429 . S
C1719 C1713 1.429 . S
C1719 C1720 1.523 . S
C1720 C1701 1.368 . S
C1720 C1714 1.368 . S
C1720 C1719 1.523 . S
C1721 C1705 1.427 1_556 S
C1721 C1717 1.433 . S
C1721 C1722 1.520 1_556 S
C1722 C1706 1.368 . S
C1722 C1718 1.368 . S
C1722 C1721 1.520 1_554 S
H1723 C1698 0.950 . S
H1724 C1700 0.950 . S
H1725 C1701 0.949 . S
H1726 C1703 0.967 . S
H1727 C1705 0.950 . S
C1728 C1729 1.349 . S
C1728 C1730 1.327 . S
C1728 H1753 0.950 . S
C1729 C1728 1.349 . S
C1729 C1745 1.349 . S
C1730 C1728 1.327 . S
C1730 C1749 1.398 1_565 S
C1730 H1754 0.950 . S
C1731 C1748 1.574 . S
C1731 C1750 1.368 . S
C1731 H1755 0.949 . S
H1732 C1736 0.949 . S
C1733 C1734 1.349 . S
C1733 C1735 1.327 . S
C1733 H1756 0.950 . S
C1734 C1733 1.349 . S
C1734 C1746 1.349 . S
C1735 C1733 1.327 . S
C1735 C1751 1.429 . S
C1735 H1757 0.950 . S
C1736 H1732 0.949 . S
C1736 C1744 1.574 . S
C1736 C1752 1.368 . S
H1737 C1745 0.950 . S
H1738 C1743 0.950 . S
H1739 C1744 0.979 . S
H1740 C1746 0.950 . S
H1741 C1747 0.950 . S
H1742 C1748 0.949 . S
C1743 H1738 0.950 . S
C1743 C1745 1.327 1_545 S
C1743 C1749 1.431 . S
C1744 C1736 1.574 . S
C1744 H1739 0.979 . S
C1744 C1750 1.368 . S
C1745 C1729 1.349 . S
C1745 H1737 0.950 . S
C1745 C1743 1.327 1_565 S
C1746 C1734 1.349 . S
C1746 H1740 0.950 . S
C1746 C1747 1.327 . S
C1747 H1741 0.950 . S
C1747 C1746 1.327 . S
C1747 C1751 1.429 . S
C1748 C1731 1.574 . S
C1748 H1742 0.949 . S
C1748 C1752 1.368 . S
C1749 C1730 1.398 1_545 S
C1749 C1743 1.431 . S
C1749 C1750 1.550 . S
C1750 C1731 1.368 . S
C1750 C1744 1.368 . S
C1750 C1749 1.550 . S
C1751 C1735 1.429 . S
C1751 C1747 1.429 . S
C1751 C1752 1.523 . S
C1752 C1736 1.368 . S
C1752 C1748 1.368 . S
C1752 C1751 1.523 . S
H1753 C1728 0.950 . S
H1754 C1730 0.950 . S
H1755 C1731 0.949 . S
H1756 C1733 0.950 . S
H1757 C1735 0.950 . S
C1758 C1759 1.349 . S
C1758 C1760 1.327 1_554 S
C1758 H1783 0.950 1_554 S
C1759 C1758 1.349 . S
C1759 C1775 1.349 . S
C1760 C1758 1.327 1_556 S
C1760 C1779 1.426 1_556 S
C1760 H1784 0.950 . S
C1761 C1778 1.574 . S
C1761 C1780 1.368 . S
C1761 H1785 0.949 1_556 S
H1762 C1766 0.949 . S
C1763 C1764 1.349 . S
C1763 C1765 1.327 . S
C1763 H1786 0.950 . S
C1764 C1763 1.349 . S
C1764 C1776 1.349 . S
C1765 C1763 1.327 . S
C1765 C1781 1.429 . S
C1765 H1787 0.950 . S
C1766 H1762 0.949 . S
C1766 C1774 1.574 . S
C1766 C1782 1.368 . S
H1767 C1775 0.950 . S
H1768 C1773 0.950 . S
H1769 C1774 0.949 . S
H1770 C1776 0.950 . S
H1771 C1777 0.950 . S
H1772 C1778 0.949 . S
C1773 H1768 0.950 . S
C1773 C1775 1.327 . S
C1773 C1779 1.434 . S
C1774 C1766 1.574 . S
C1774 H1769 0.949 . S
C1774 C1780 1.368 . S
C1775 C1759 1.349 . S
C1775 H1767 0.950 . S
C1775 C1773 1.327 . S
C1776 C1764 1.349 . S
C1776 H1770 0.950 . S
C1776 C1777 1.327 . S
C1777 H1771 0.950 . S
C1777 C1776 1.327 . S
C1777 C1781 1.429 . S
C1778 C1761 1.574 . S
C1778 H1772 0.949 . S
C1778 C1782 1.368 . S
C1779 C1760 1.426 1_554 S
C1779 C1773 1.434 . S
C1779 C1780 1.520 1_554 S
C1780 C1761 1.368 . S
C1780 C1774 1.368 . S
C1780 C1779 1.520 1_556 S
C1781 C1765 1.429 . S
C1781 C1777 1.429 . S
C1781 C1782 1.523 . S
C1782 C1766 1.368 . S
C1782 C1778 1.368 . S
C1782 C1781 1.523 . S
H1783 C1758 0.950 1_556 S
H1784 C1760 0.950 . S
H1785 C1761 0.949 1_554 S
H1786 C1763 0.950 . S
H1787 C1765 0.950 . S
C1788 C1789 1.349 . S
C1788 C1790 1.327 . S
C1788 H1813 0.950 . S
C1789 C1788 1.349 . S
C1789 C1805 1.349 . S
C1790 C1788 1.327 . S
C1790 C1809 1.417 1_545 S
C1790 H1814 0.972 . S
C1791 C1808 1.574 . S
C1791 C1810 1.368 . S
C1791 H1815 0.949 . S
H1792 C1796 0.949 . S
C1793 C1794 1.349 . S
C1793 C1795 1.327 . S
C1793 H1816 0.950 . S
C1794 C1793 1.349 . S
C1794 C1806 1.349 . S
C1795 C1793 1.327 . S
C1795 C1811 1.429 . S
C1795 H1817 0.950 . S
C1796 H1792 0.949 . S
C1796 C1804 1.574 . S
C1796 C1812 1.368 . S
H1797 C1805 0.950 . S
H1798 C1803 0.950 . S
H1799 C1804 0.949 . S
H1800 C1806 0.950 . S
H1801 C1807 0.950 . S
H1802 C1808 0.949 . S
C1803 H1798 0.950 . S
C1803 C1805 1.327 . S
C1803 C1809 1.412 1_545 S
C1804 C1796 1.574 . S
C1804 H1799 0.949 . S
C1804 C1810 1.368 . S
C1805 C1789 1.349 . S
C1805 H1797 0.950 . S
C1805 C1803 1.327 . S
C1806 C1794 1.349 . S
C1806 H1800 0.950 . S
C1806 C1807 1.327 . S
C1807 H1801 0.950 . S
C1807 C1806 1.327 . S
C1807 C1811 1.429 . S
C1808 C1791 1.574 . S
C1808 H1802 0.949 . S
C1808 C1812 1.368 . S
C1809 C1790 1.417 1_565 S
C1809 C1803 1.412 1_565 S
C1809 C1810 1.550 . S
C1810 C1791 1.368 . S
C1810 C1804 1.368 . S
C1810 C1809 1.550 . S
C1811 C1795 1.429 . S
C1811 C1807 1.429 . S
C1811 C1812 1.523 . S
C1812 C1796 1.368 . S
C1812 C1808 1.368 . S
C1812 C1811 1.523 . S
H1813 C1788 0.950 . S
H1814 C1790 0.972 . S
H1815 C1791 0.949 . S
H1816 C1793 0.950 . S
H1817 C1795 0.950 . S
C1818 C1819 1.349 . S
C1818 C1820 1.327 . S
C1818 H1843 0.950 . S
C1819 C1818 1.349 . S
C1819 C1835 1.349 . S
C1820 C1818 1.327 . S
C1820 C1839 1.429 . S
C1820 H1844 0.950 . S
C1821 C1838 1.574 . S
C1821 C1840 1.368 . S
C1821 H1845 0.949 . S
H1822 C1826 0.949 . S
C1823 C1824 1.349 . S
C1823 C1825 1.327 . S
C1823 H1846 0.950 . S
C1824 C1823 1.349 . S
C1824 C1836 1.349 . S
C1825 C1823 1.327 . S
C1825 C1841 1.429 . S
C1825 H1847 0.950 . S
C1826 H1822 0.949 . S
C1826 C1834 1.574 . S
C1826 C1842 1.368 . S
H1827 C1835 0.950 . S
H1828 C1833 0.950 . S
H1829 C1834 0.949 . S
H1830 C1836 0.950 . S
H1831 C1837 0.950 . S
H1832 C1838 0.949 . S
C1833 H1828 0.950 . S
C1833 C1835 1.327 . S
C1833 C1839 1.429 . S
C1834 C1826 1.574 . S
C1834 H1829 0.949 . S
C1834 C1840 1.368 . S
C1835 C1819 1.349 . S
C1835 H1827 0.950 . S
C1835 C1833 1.327 . S
C1836 C1824 1.349 . S
C1836 H1830 0.950 . S
C1836 C1837 1.327 . S
C1837 H1831 0.950 . S
C1837 C1836 1.327 . S
C1837 C1841 1.429 . S
C1838 C1821 1.574 . S
C1838 H1832 0.949 . S
C1838 C1842 1.368 . S
C1839 C1820 1.429 . S
C1839 C1833 1.429 . S
C1839 C1840 1.523 . S
C1840 C1821 1.368 . S
C1840 C1834 1.368 . S
C1840 C1839 1.523 . S
C1841 C1825 1.429 . S
C1841 C1837 1.429 . S
C1841 C1842 1.523 . S
C1842 C1826 1.368 . S
C1842 C1838 1.368 . S
C1842 C1841 1.523 . S
H1843 C1818 0.950 . S
H1844 C1820 0.950 . S
H1845 C1821 0.949 . S
H1846 C1823 0.950 . S
H1847 C1825 0.950 . S
C1848 C1849 1.349 . S
C1848 C1850 1.327 . S
C1848 H1873 0.950 . S
C1849 C1848 1.349 . S
C1849 C1865 1.349 . S
C1850 C1848 1.327 . S
C1850 C1869 1.429 . S
C1850 H1874 0.950 . S
C1851 C1868 1.574 . S
C1851 C1870 1.368 . S
C1851 H1875 0.949 . S
H1852 C1856 0.949 . S
C1853 C1854 1.349 . S
C1853 C1855 1.327 . S
C1853 H1876 0.950 . S
C1854 C1853 1.349 . S
C1854 C1866 1.349 . S
C1855 C1853 1.327 . S
C1855 C1871 1.429 . S
C1855 H1877 0.950 . S
C1856 H1852 0.949 . S
C1856 C1864 1.574 . S
C1856 C1872 1.368 . S
H1857 C1865 0.950 . S
H1858 C1863 0.950 . S
H1859 C1864 0.949 . S
H1860 C1866 0.950 . S
H1861 C1867 0.950 . S
H1862 C1868 0.949 . S
C1863 H1858 0.950 . S
C1863 C1865 1.327 . S
C1863 C1869 1.429 . S
C1864 C1856 1.574 . S
C1864 H1859 0.949 . S
C1864 C1870 1.368 . S
C1865 C1849 1.349 . S
C1865 H1857 0.950 . S
C1865 C1863 1.327 . S
C1866 C1854 1.349 . S
C1866 H1860 0.950 . S
C1866 C1867 1.327 . S
C1867 H1861 0.950 . S
C1867 C1866 1.327 . S
C1867 C1871 1.429 . S
C1868 C1851 1.574 . S
C1868 H1862 0.949 . S
C1868 C1872 1.368 . S
C1869 C1850 1.429 . S
C1869 C1863 1.429 . S
C1869 C1870 1.523 . S
C1870 C1851 1.368 . S
C1870 C1864 1.368 . S
C1870 C1869 1.523 . S
C1871 C1855 1.429 . S
C1871 C1867 1.429 . S
C1871 C1872 1.523 . S
C1872 C1856 1.368 . S
C1872 C1868 1.368 . S
C1872 C1871 1.523 . S
H1873 C1848 0.950 . S
H1874 C1850 0.950 . S
H1875 C1851 0.949 . S
H1876 C1853 0.950 . S
H1877 C1855 0.950 . S
C1878 C1879 1.349 . S
C1878 C1880 1.327 . S
C1878 H1903 0.950 . S
C1879 C1878 1.349 . S
C1879 C1895 1.349 . S
C1880 C1878 1.327 . S
C1880 C1899 1.429 . S
C1880 H1904 0.950 1_565 S
C1881 C1898 1.574 . S
C1881 C1900 1.368 . S
C1881 H1905 0.949 . S
H1882 C1886 0.949 . S
C1883 C1884 1.349 . S
C1883 C1885 1.327 . S
C1883 H1906 0.950 . S
C1884 C1883 1.349 . S
C1884 C1896 1.349 . S
C1885 C1883 1.327 . S
C1885 C1901 1.429 . S
C1885 H1907 0.950 . S
C1886 H1882 0.949 . S
C1886 C1894 1.574 . S
C1886 C1902 1.368 . S
H1887 C1895 0.950 . S
H1888 C1893 0.950 . S
H1889 C1894 0.949 . S
H1890 C1896 0.950 . S
H1891 C1897 0.950 . S
H1892 C1898 0.949 . S
C1893 H1888 0.950 . S
C1893 C1895 1.327 . S
C1893 C1899 1.431 . S
C1894 C1886 1.574 . S
C1894 H1889 0.949 . S
C1894 C1900 1.368 . S
C1895 C1879 1.349 . S
C1895 H1887 0.950 . S
C1895 C1893 1.327 . S
C1896 C1884 1.349 . S
C1896 H1890 0.950 . S
C1896 C1897 1.327 . S
C1897 H1891 0.950 . S
C1897 C1896 1.327 . S
C1897 C1901 1.429 . S
C1898 C1881 1.574 . S
C1898 H1892 0.949 . S
C1898 C1902 1.368 . S
C1899 C1880 1.429 . S
C1899 C1893 1.431 . S
C1899 C1900 1.520 1_565 S
C1900 C1881 1.368 . S
C1900 C1894 1.368 . S
C1900 C1899 1.520 1_545 S
C1901 C1885 1.429 . S
C1901 C1897 1.429 . S
C1901 C1902 1.523 . S
C1902 C1886 1.368 . S
C1902 C1898 1.368 . S
C1902 C1901 1.523 . S
H1903 C1878 0.950 . S
H1904 C1880 0.950 1_545 S
H1905 C1881 0.949 . S
H1906 C1883 0.950 . S
H1907 C1885 0.950 . S
C1908 C1909 1.349 . S
C1908 C1910 1.327 . S
C1908 H1933 0.950 . S
C1909 C1908 1.349 . S
C1909 C1925 1.349 . S
C1910 C1908 1.327 . S
C1910 C1929 1.429 . S
C1910 H1934 0.950 . S
C1911 C1928 1.574 . S
C1911 C1930 1.368 . S
C1911 H1935 0.949 . S
H1912 C1916 0.949 . S
C1913 C1914 1.349 . S
C1913 C1915 1.327 . S
C1913 H1936 0.950 . S
C1914 C1913 1.349 . S
C1914 C1926 1.349 . S
C1915 C1913 1.327 . S
C1915 C1931 1.396 1_554 S
C1915 H1937 0.950 . S
C1916 H1912 0.949 . S
C1916 C1924 1.574 . S
C1916 C1932 1.368 . S
H1917 C1925 0.950 . S
H1918 C1923 0.950 . S
H1919 C1924 0.949 . S
H1920 C1926 0.950 . S
H1921 C1927 0.950 . S
H1922 C1928 0.922 1_554 S
C1923 H1918 0.950 . S
C1923 C1925 1.327 . S
C1923 C1929 1.429 . S
C1924 C1916 1.574 . S
C1924 H1919 0.949 . S
C1924 C1930 1.368 . S
C1925 C1909 1.349 . S
C1925 H1917 0.950 . S
C1925 C1923 1.327 . S
C1926 C1914 1.349 . S
C1926 H1920 0.950 . S
C1926 C1927 1.327 1_554 S
C1927 H1921 0.950 . S
C1927 C1926 1.327 1_556 S
C1927 C1931 1.432 . S
C1928 C1911 1.574 . S
C1928 H1922 0.922 1_556 S
C1928 C1932 1.368 . S
C1929 C1910 1.429 . S
C1929 C1923 1.429 . S
C1929 C1930 1.523 . S
C1930 C1911 1.368 . S
C1930 C1924 1.368 . S
C1930 C1929 1.523 . S
C1931 C1915 1.396 1_556 S
C1931 C1927 1.432 . S
C1931 C1932 1.550 . S
C1932 C1916 1.368 . S
C1932 C1928 1.368 . S
C1932 C1931 1.550 . S
H1933 C1908 0.950 . S
H1934 C1910 0.950 . S
H1935 C1911 0.949 . S
H1936 C1913 0.950 . S
H1937 C1915 0.950 . S
C1938 C1939 1.349 . S
C1938 C1940 1.327 . S
C1938 H1963 0.950 . S
C1939 C1938 1.349 . S
C1939 C1955 1.349 . S
C1940 C1938 1.327 . S
C1940 C1959 1.429 . S
C1940 H1964 0.950 . S
C1941 C1958 1.574 . S
C1941 C1960 1.368 . S
C1941 H1965 0.949 . S
H1942 C1946 0.949 . S
C1943 C1944 1.349 . S
C1943 C1945 1.327 . S
C1943 H1966 0.950 . S
C1944 C1943 1.349 . S
C1944 C1956 1.349 . S
C1945 C1943 1.327 . S
C1945 C1961 1.433 . S
C1945 H1967 0.950 . S
C1946 H1942 0.949 . S
C1946 C1954 1.574 . S
C1946 C1962 1.368 . S
H1947 C1955 0.950 . S
H1948 C1953 0.950 . S
H1949 C1954 0.949 . S
H1950 C1956 0.950 . S
H1951 C1957 0.950 . S
H1952 C1958 0.949 1_545 S
C1953 H1948 0.950 . S
C1953 C1955 1.327 . S
C1953 C1959 1.429 . S
C1954 C1946 1.574 . S
C1954 H1949 0.949 . S
C1954 C1960 1.368 . S
C1955 C1939 1.349 . S
C1955 H1947 0.950 . S
C1955 C1953 1.327 . S
C1956 C1944 1.349 . S
C1956 H1950 0.950 . S
C1956 C1957 1.327 1_545 S
C1957 H1951 0.950 . S
C1957 C1956 1.327 1_565 S
C1957 C1961 1.428 1_565 S
C1958 C1941 1.574 . S
C1958 H1952 0.949 1_565 S
C1958 C1962 1.368 . S
C1959 C1940 1.429 . S
C1959 C1953 1.429 . S
C1959 C1960 1.523 . S
C1960 C1941 1.368 . S
C1960 C1954 1.368 . S
C1960 C1959 1.523 . S
C1961 C1945 1.433 . S
C1961 C1957 1.428 1_545 S
C1961 C1962 1.520 1_545 S
C1962 C1946 1.368 . S
C1962 C1958 1.368 . S
C1962 C1961 1.520 1_565 S
H1963 C1938 0.950 . S
H1964 C1940 0.950 . S
H1965 C1941 0.949 . S
H1966 C1943 0.950 . S
H1967 C1945 0.950 . S
C1968 C1969 1.349 . S
C1968 C1970 1.327 . S
C1968 H1993 0.950 . S
C1969 C1968 1.349 . S
C1969 C1985 1.349 . S
C1970 C1968 1.327 . S
C1970 C1989 1.429 . S
C1970 H1994 0.950 . S
C1971 C1988 1.574 . S
C1971 C1990 1.368 . S
C1971 H1995 0.949 . S
H1972 C1976 0.949 . S
C1973 C1974 1.349 . S
C1973 C1975 1.327 . S
C1973 H1996 0.950 . S
C1974 C1973 1.349 . S
C1974 C1986 1.349 . S
C1975 C1973 1.327 . S
C1975 C1991 1.429 . S
C1975 H1997 0.950 . S
C1976 H1972 0.949 . S
C1976 C1984 1.574 . S
C1976 C1992 1.368 . S
H1977 C1985 0.950 . S
H1978 C1983 0.950 . S
H1979 C1984 0.949 . S
H1980 C1986 0.950 . S
H1981 C1987 0.950 . S
H1982 C1988 0.949 . S
C1983 H1978 0.950 . S
C1983 C1985 1.327 . S
C1983 C1989 1.429 . S
C1984 C1976 1.574 . S
C1984 H1979 0.949 . S
C1984 C1990 1.368 . S
C1985 C1969 1.349 . S
C1985 H1977 0.950 . S
C1985 C1983 1.327 . S
C1986 C1974 1.349 . S
C1986 H1980 0.950 . S
C1986 C1987 1.327 . S
C1987 H1981 0.950 . S
C1987 C1986 1.327 . S
C1987 C1991 1.429 . S
C1988 C1971 1.574 . S
C1988 H1982 0.949 . S
C1988 C1992 1.368 . S
C1989 C1970 1.429 . S
C1989 C1983 1.429 . S
C1989 C1990 1.523 . S
C1990 C1971 1.368 . S
C1990 C1984 1.368 . S
C1990 C1989 1.523 . S
C1991 C1975 1.429 . S
C1991 C1987 1.429 . S
C1991 C1992 1.523 . S
C1992 C1976 1.368 . S
C1992 C1988 1.368 . S
C1992 C1991 1.523 . S
H1993 C1968 0.950 . S
H1994 C1970 0.950 . S
H1995 C1971 0.949 . S
H1996 C1973 0.950 . S
H1997 C1975 0.950 . S
C1998 C1999 1.349 . S
C1998 C2000 1.327 . S
C1998 H2023 0.950 . S
C1999 C1998 1.349 . S
C1999 C2015 1.349 . S
C2000 C1998 1.327 . S
C2000 C2019 1.429 . S
C2000 H2024 0.950 . S
C2001 C2018 1.574 . S
C2001 C2020 1.368 . S
C2001 H2025 0.949 . S
H2002 C2006 0.949 . S
C2003 C2004 1.349 . S
C2003 C2005 1.327 . S
C2003 H2026 0.950 . S
C2004 C2003 1.349 . S
C2004 C2016 1.349 . S
C2005 C2003 1.327 . S
C2005 C2021 1.429 . S
C2005 H2027 0.950 . S
C2006 H2002 0.949 . S
C2006 C2014 1.574 . S
C2006 C2022 1.368 . S
H2007 C2015 0.950 . S
H2008 C2013 0.950 . S
H2009 C2014 0.949 . S
H2010 C2016 0.950 . S
H2011 C2017 0.950 . S
H2012 C2018 0.949 . S
C2013 H2008 0.950 . S
C2013 C2015 1.327 . S
C2013 C2019 1.429 . S
C2014 C2006 1.574 . S
C2014 H2009 0.949 . S
C2014 C2020 1.368 . S
C2015 C1999 1.349 . S
C2015 H2007 0.950 . S
C2015 C2013 1.327 . S
C2016 C2004 1.349 . S
C2016 H2010 0.950 . S
C2016 C2017 1.327 . S
C2017 H2011 0.950 . S
C2017 C2016 1.327 . S
C2017 C2021 1.429 . S
C2018 C2001 1.574 . S
C2018 H2012 0.949 . S
C2018 C2022 1.368 . S
C2019 C2000 1.429 . S
C2019 C2013 1.429 . S
C2019 C2020 1.523 . S
C2020 C2001 1.368 . S
C2020 C2014 1.368 . S
C2020 C2019 1.523 . S
C2021 C2005 1.429 . S
C2021 C2017 1.429 . S
C2021 C2022 1.523 . S
C2022 C2006 1.368 . S
C2022 C2018 1.368 . S
C2022 C2021 1.523 . S
H2023 C1998 0.950 . S
H2024 C2000 0.950 . S
H2025 C2001 0.949 . S
H2026 C2003 0.950 . S
H2027 C2005 0.950 . S
C2028 C2029 1.349 . S
C2028 C2030 1.327 . S
C2028 H2053 0.950 . S
C2029 C2028 1.349 . S
C2029 C2045 1.349 . S
C2030 C2028 1.327 . S
C2030 C2049 1.429 . S
C2030 H2054 0.950 . S
C2031 C2048 1.574 . S
C2031 C2050 1.368 . S
C2031 H2055 0.949 . S
H2032 C2036 0.996 . S
C2033 C2034 1.349 . S
C2033 C2035 1.327 1_556 S
C2033 H2056 0.950 . S
C2034 C2033 1.349 . S
C2034 C2046 1.349 . S
C2035 C2033 1.327 1_554 S
C2035 C2051 1.431 . S
C2035 H2057 0.950 . S
C2036 H2032 0.996 . S
C2036 C2044 1.574 . S
C2036 C2052 1.368 . S
H2037 C2045 0.950 . S
H2038 C2043 0.950 . S
H2039 C2044 0.949 . S
H2040 C2046 0.950 . S
H2041 C2047 0.950 . S
H2042 C2048 0.949 . S
C2043 H2038 0.950 . S
C2043 C2045 1.327 . S
C2043 C2049 1.429 . S
C2044 C2036 1.574 . S
C2044 H2039 0.949 . S
C2044 C2050 1.368 . S
C2045 C2029 1.349 . S
C2045 H2037 0.950 . S
C2045 C2043 1.327 . S
C2046 C2034 1.349 . S
C2046 H2040 0.950 . S
C2046 C2047 1.327 . S
C2047 H2041 0.950 . S
C2047 C2046 1.327 . S
C2047 C2051 1.398 1_556 S
C2048 C2031 1.574 . S
C2048 H2042 0.949 . S
C2048 C2052 1.368 . S
C2049 C2030 1.429 . S
C2049 C2043 1.429 . S
C2049 C2050 1.523 . S
C2050 C2031 1.368 . S
C2050 C2044 1.368 . S
C2050 C2049 1.523 . S
C2051 C2035 1.431 . S
C2051 C2047 1.398 1_554 S
C2051 C2052 1.550 . S
C2052 C2036 1.368 . S
C2052 C2048 1.368 . S
C2052 C2051 1.550 . S
H2053 C2028 0.950 . S
H2054 C2030 0.950 . S
H2055 C2031 0.949 . S
H2056 C2033 0.950 . S
H2057 C2035 0.950 . S
C2058 C2059 1.349 . S
C2058 C2060 1.327 . S
C2058 H2083 0.950 . S
C2059 C2058 1.349 . S
C2059 C2075 1.349 . S
C2060 C2058 1.327 . S
C2060 C2079 1.429 . S
C2060 H2084 0.950 . S
C2061 C2078 1.574 . S
C2061 C2080 1.368 . S
C2061 H2085 0.949 . S
H2062 C2066 0.949 . S
C2063 C2064 1.349 . S
C2063 C2065 1.327 . S
C2063 H2086 0.950 . S
C2064 C2063 1.349 . S
C2064 C2076 1.349 . S
C2065 C2063 1.327 . S
C2065 C2081 1.429 . S
C2065 H2087 0.950 . S
C2066 H2062 0.949 . S
C2066 C2074 1.574 . S
C2066 C2082 1.368 . S
H2067 C2075 0.950 . S
H2068 C2073 0.950 . S
H2069 C2074 0.949 . S
H2070 C2076 0.950 . S
H2071 C2077 0.950 . S
H2072 C2078 0.949 . S
C2073 H2068 0.950 . S
C2073 C2075 1.327 . S
C2073 C2079 1.429 . S
C2074 C2066 1.574 . S
C2074 H2069 0.949 . S
C2074 C2080 1.368 . S
C2075 C2059 1.349 . S
C2075 H2067 0.950 . S
C2075 C2073 1.327 . S
C2076 C2064 1.349 . S
C2076 H2070 0.950 . S
C2076 C2077 1.327 . S
C2077 H2071 0.950 . S
C2077 C2076 1.327 . S
C2077 C2081 1.429 . S
C2078 C2061 1.574 . S
C2078 H2072 0.949 . S
C2078 C2082 1.368 . S
C2079 C2060 1.429 . S
C2079 C2073 1.429 . S
C2079 C2080 1.523 . S
C2080 C2061 1.368 . S
C2080 C2074 1.368 . S
C2080 C2079 1.523 . S
C2081 C2065 1.429 . S
C2081 C2077 1.429 . S
C2081 C2082 1.523 . S
C2082 C2066 1.368 . S
C2082 C2078 1.368 . S
C2082 C2081 1.523 . S
H2083 C2058 0.950 . S
H2084 C2060 0.950 . S
H2085 C2061 0.949 . S
H2086 C2063 0.950 . S
H2087 C2065 0.950 . S
C2088 C2089 1.349 . S
C2088 C2090 1.327 . S
C2088 H2113 0.950 . S
C2089 C2088 1.349 . S
C2089 C2105 1.349 . S
C2090 C2088 1.327 . S
C2090 C2109 1.429 . S
C2090 H2114 0.950 . S
C2091 C2108 1.574 . S
C2091 C2110 1.368 . S
C2091 H2115 0.949 . S
H2092 C2096 0.949 . S
C2093 C2094 1.349 . S
C2093 C2095 1.327 . S
C2093 H2116 0.950 . S
C2094 C2093 1.349 . S
C2094 C2106 1.349 . S
C2095 C2093 1.327 . S
C2095 C2111 1.429 . S
C2095 H2117 0.950 . S
C2096 H2092 0.949 . S
C2096 C2104 1.574 . S
C2096 C2112 1.368 . S
H2097 C2105 0.950 . S
H2098 C2103 0.950 . S
H2099 C2104 0.949 . S
H2100 C2106 0.950 . S
H2101 C2107 0.950 . S
H2102 C2108 0.949 . S
C2103 H2098 0.950 . S
C2103 C2105 1.327 . S
C2103 C2109 1.429 . S
C2104 C2096 1.574 . S
C2104 H2099 0.949 . S
C2104 C2110 1.368 . S
C2105 C2089 1.349 . S
C2105 H2097 0.950 . S
C2105 C2103 1.327 . S
C2106 C2094 1.349 . S
C2106 H2100 0.950 . S
C2106 C2107 1.327 . S
C2107 H2101 0.950 . S
C2107 C2106 1.327 . S
C2107 C2111 1.429 . S
C2108 C2091 1.574 . S
C2108 H2102 0.949 . S
C2108 C2112 1.368 . S
C2109 C2090 1.429 . S
C2109 C2103 1.429 . S
C2109 C2110 1.523 . S
C2110 C2091 1.368 . S
C2110 C2104 1.368 . S
C2110 C2109 1.523 . S
C2111 C2095 1.429 . S
C2111 C2107 1.429 . S
C2111 C2112 1.523 . S
C2112 C2096 1.368 . S
C2112 C2108 1.368 . S
C2112 C2111 1.523 . S
H2113 C2088 0.950 . S
H2114 C2090 0.950 . S
H2115 C2091 0.949 . S
H2116 C2093 0.950 . S
H2117 C2095 0.950 . S
C2118 C2119 1.349 . S
C2118 C2120 1.327 . S
C2118 H2143 0.950 . S
C2119 C2118 1.349 . S
C2119 C2135 1.349 . S
C2120 C2118 1.327 . S
C2120 C2139 1.404 1_455 S
C2120 H2144 0.950 . S
C2121 C2138 1.574 . S
C2121 C2140 1.368 . S
C2121 H2145 0.949 . S
H2122 C2126 0.949 . S
C2123 C2124 1.349 . S
C2123 C2125 1.327 . S
C2123 H2146 0.950 . S
C2124 C2123 1.349 . S
C2124 C2136 1.349 . S
C2125 C2123 1.327 . S
C2125 C2141 1.429 . S
C2125 H2147 0.950 . S
C2126 H2122 0.949 . S
C2126 C2134 1.574 . S
C2126 C2142 1.368 . S
H2127 C2135 0.950 . S
H2128 C2133 0.950 1_655 S
H2129 C2134 0.949 . S
H2130 C2136 0.950 . S
H2131 C2137 0.950 . S
H2132 C2138 0.949 . S
C2133 H2128 0.950 1_455 S
C2133 C2135 1.327 . S
C2133 C2139 1.425 1_455 S
C2134 C2126 1.574 . S
C2134 H2129 0.949 . S
C2134 C2140 1.368 . S
C2135 C2119 1.349 . S
C2135 H2127 0.950 . S
C2135 C2133 1.327 . S
C2136 C2124 1.349 . S
C2136 H2130 0.950 . S
C2136 C2137 1.327 . S
C2137 H2131 0.950 . S
C2137 C2136 1.327 . S
C2137 C2141 1.429 . S
C2138 C2121 1.574 . S
C2138 H2132 0.949 . S
C2138 C2142 1.368 . S
C2139 C2120 1.404 1_655 S
C2139 C2133 1.425 1_655 S
C2139 C2140 1.550 . S
C2140 C2121 1.368 . S
C2140 C2134 1.368 . S
C2140 C2139 1.550 . S
C2141 C2125 1.429 . S
C2141 C2137 1.429 . S
C2141 C2142 1.523 . S
C2142 C2126 1.368 . S
C2142 C2138 1.368 . S
C2142 C2141 1.523 . S
H2143 C2118 0.950 . S
H2144 C2120 0.950 . S
H2145 C2121 0.949 . S
H2146 C2123 0.950 . S
H2147 C2125 0.950 . S
C2148 C2149 1.349 . S
C2148 C2150 1.327 1_655 S
C2148 H2173 0.960 . S
C2149 C2148 1.349 . S
C2149 C2165 1.349 . S
C2150 C2148 1.327 1_455 S
C2150 C2169 1.427 1_455 S
C2150 H2174 0.950 . S
C2151 C2168 1.574 . S
C2151 C2170 1.368 . S
C2151 H2175 0.949 1_455 S
H2152 C2156 0.949 . S
C2153 C2154 1.349 . S
C2153 C2155 1.327 . S
C2153 H2176 0.950 . S
C2154 C2153 1.349 . S
C2154 C2166 1.349 . S
C2155 C2153 1.327 . S
C2155 C2171 1.429 . S
C2155 H2177 0.950 . S
C2156 H2152 0.949 . S
C2156 C2164 1.574 . S
C2156 C2172 1.368 . S
H2157 C2165 0.950 . S
H2158 C2163 0.950 . S
H2159 C2164 0.949 . S
H2160 C2166 0.950 . S
H2161 C2167 0.950 . S
H2162 C2168 0.949 . S
C2163 H2158 0.950 . S
C2163 C2165 1.327 . S
C2163 C2169 1.434 . S
C2164 C2156 1.574 . S
C2164 H2159 0.949 . S
C2164 C2170 1.368 . S
C2165 C2149 1.349 . S
C2165 H2157 0.950 . S
C2165 C2163 1.327 . S
C2166 C2154 1.349 . S
C2166 H2160 0.950 . S
C2166 C2167 1.327 . S
C2167 H2161 0.950 . S
C2167 C2166 1.327 . S
C2167 C2171 1.429 . S
C2168 C2151 1.574 . S
C2168 H2162 0.949 . S
C2168 C2172 1.368 . S
C2169 C2150 1.427 1_655 S
C2169 C2163 1.434 . S
C2169 C2170 1.520 1_655 S
C2170 C2151 1.368 . S
C2170 C2164 1.368 . S
C2170 C2169 1.520 1_455 S
C2171 C2155 1.429 . S
C2171 C2167 1.429 . S
C2171 C2172 1.523 . S
C2172 C2156 1.368 . S
C2172 C2168 1.368 . S
C2172 C2171 1.523 . S
H2173 C2148 0.960 . S
H2174 C2150 0.950 . S
H2175 C2151 0.949 1_655 S
H2176 C2153 0.950 . S
H2177 C2155 0.950 . S
C2178 C2179 1.349 . S
C2178 C2180 1.327 . S
C2178 H2203 0.950 . S
C2179 C2178 1.349 . S
C2179 C2195 1.349 . S
C2180 C2178 1.327 . S
C2180 C2199 1.429 . S
C2180 H2204 0.950 . S
C2181 C2198 1.574 . S
C2181 C2200 1.368 . S
C2181 H2205 0.949 . S
H2182 C2186 0.949 . S
C2183 C2184 1.349 . S
C2183 C2185 1.327 . S
C2183 H2206 0.950 . S
C2184 C2183 1.349 . S
C2184 C2196 1.349 . S
C2185 C2183 1.327 . S
C2185 C2201 1.429 . S
C2185 H2207 0.950 . S
C2186 H2182 0.949 . S
C2186 C2194 1.574 . S
C2186 C2202 1.368 . S
H2187 C2195 0.950 . S
H2188 C2193 0.950 . S
H2189 C2194 0.949 . S
H2190 C2196 0.950 . S
H2191 C2197 0.950 . S
H2192 C2198 0.949 . S
C2193 H2188 0.950 . S
C2193 C2195 1.327 . S
C2193 C2199 1.429 . S
C2194 C2186 1.574 . S
C2194 H2189 0.949 . S
C2194 C2200 1.368 . S
C2195 C2179 1.349 . S
C2195 H2187 0.950 . S
C2195 C2193 1.327 . S
C2196 C2184 1.349 . S
C2196 H2190 0.950 . S
C2196 C2197 1.327 . S
C2197 H2191 0.950 . S
C2197 C2196 1.327 . S
C2197 C2201 1.429 . S
C2198 C2181 1.574 . S
C2198 H2192 0.949 . S
C2198 C2202 1.368 . S
C2199 C2180 1.429 . S
C2199 C2193 1.429 . S
C2199 C2200 1.523 . S
C2200 C2181 1.368 . S
C2200 C2194 1.368 . S
C2200 C2199 1.523 . S
C2201 C2185 1.429 . S
C2201 C2197 1.429 . S
C2201 C2202 1.523 . S
C2202 C2186 1.368 . S
C2202 C2198 1.368 . S
C2202 C2201 1.523 . S
H2203 C2178 0.950 . S
H2204 C2180 0.950 . S
H2205 C2181 0.949 . S
H2206 C2183 0.950 . S
H2207 C2185 0.950 . S
C2208 C2209 1.349 . S
C2208 C2210 1.327 . S
C2208 H2233 0.950 . S
C2209 C2208 1.349 . S
C2209 C2225 1.349 . S
C2210 C2208 1.327 . S
C2210 C2229 1.429 . S
C2210 H2234 0.950 . S
C2211 C2228 1.574 . S
C2211 C2230 1.368 . S
C2211 H2235 0.949 . S
H2212 C2216 0.949 . S
C2213 C2214 1.349 . S
C2213 C2215 1.327 . S
C2213 H2236 0.950 . S
C2214 C2213 1.349 . S
C2214 C2226 1.349 . S
C2215 C2213 1.327 . S
C2215 C2231 1.429 . S
C2215 H2237 0.950 . S
C2216 H2212 0.949 . S
C2216 C2224 1.574 . S
C2216 C2232 1.368 . S
H2217 C2225 0.950 . S
H2218 C2223 0.950 . S
H2219 C2224 0.949 . S
H2220 C2226 0.950 . S
H2221 C2227 0.950 . S
H2222 C2228 0.949 . S
C2223 H2218 0.950 . S
C2223 C2225 1.327 . S
C2223 C2229 1.429 . S
C2224 C2216 1.574 . S
C2224 H2219 0.949 . S
C2224 C2230 1.368 . S
C2225 C2209 1.349 . S
C2225 H2217 0.950 . S
C2225 C2223 1.327 . S
C2226 C2214 1.349 . S
C2226 H2220 0.950 . S
C2226 C2227 1.327 . S
C2227 H2221 0.950 . S
C2227 C2226 1.327 . S
C2227 C2231 1.429 . S
C2228 C2211 1.574 . S
C2228 H2222 0.949 . S
C2228 C2232 1.368 . S
C2229 C2210 1.429 . S
C2229 C2223 1.429 . S
C2229 C2230 1.523 . S
C2230 C2211 1.368 . S
C2230 C2224 1.368 . S
C2230 C2229 1.523 . S
C2231 C2215 1.429 . S
C2231 C2227 1.429 . S
C2231 C2232 1.523 . S
C2232 C2216 1.368 . S
C2232 C2228 1.368 . S
C2232 C2231 1.523 . S
H2233 C2208 0.950 . S
H2234 C2210 0.950 . S
H2235 C2211 0.949 . S
H2236 C2213 0.950 . S
H2237 C2215 0.950 . S
C2238 C2239 1.349 . S
C2238 C2240 1.327 . S
C2238 H2263 0.950 . S
C2239 C2238 1.349 . S
C2239 C2255 1.349 . S
C2240 C2238 1.327 . S
C2240 C2259 1.425 1_655 S
C2240 H2264 0.950 1_655 S
C2241 C2258 1.574 . S
C2241 C2260 1.368 . S
C2241 H2265 0.949 . S
H2242 C2246 0.949 . S
C2243 C2244 1.349 . S
C2243 C2245 1.327 . S
C2243 H2266 0.950 . S
C2244 C2243 1.349 . S
C2244 C2256 1.349 . S
C2245 C2243 1.327 . S
C2245 C2261 1.429 . S
C2245 H2267 0.950 . S
C2246 H2242 0.949 . S
C2246 C2254 1.574 . S
C2246 C2262 1.368 . S
H2247 C2255 0.950 . S
H2248 C2253 0.950 . S
H2249 C2254 0.949 . S
H2250 C2256 0.950 . S
H2251 C2257 0.950 . S
H2252 C2258 0.949 . S
C2253 H2248 0.950 . S
C2253 C2255 1.327 . S
C2253 C2259 1.404 1_655 S
C2254 C2246 1.574 . S
C2254 H2249 0.949 . S
C2254 C2260 1.368 . S
C2255 C2239 1.349 . S
C2255 H2247 0.950 . S
C2255 C2253 1.327 . S
C2256 C2244 1.349 . S
C2256 H2250 0.950 . S
C2256 C2257 1.327 . S
C2257 H2251 0.950 . S
C2257 C2256 1.327 . S
C2257 C2261 1.429 . S
C2258 C2241 1.574 . S
C2258 H2252 0.949 . S
C2258 C2262 1.368 . S
C2259 C2240 1.425 1_455 S
C2259 C2253 1.404 1_455 S
C2259 C2260 1.550 . S
C2260 C2241 1.368 . S
C2260 C2254 1.368 . S
C2260 C2259 1.550 . S
C2261 C2245 1.429 . S
C2261 C2257 1.429 . S
C2261 C2262 1.523 . S
C2262 C2246 1.368 . S
C2262 C2258 1.368 . S
C2262 C2261 1.523 . S
H2263 C2238 0.950 . S
H2264 C2240 0.950 1_455 S
H2265 C2241 0.949 . S
H2266 C2243 0.950 . S
H2267 C2245 0.950 . S
C2268 C2269 1.349 . S
C2268 C2270 1.327 . S
C2268 H2293 0.950 . S
C2269 C2268 1.349 . S
C2269 C2285 1.349 . S
C2270 C2268 1.327 . S
C2270 C2289 1.429 . S
C2270 H2294 0.950 . S
C2271 C2288 1.574 . S
C2271 C2290 1.368 . S
C2271 H2295 0.949 . S
H2272 C2276 0.949 . S
C2273 C2274 1.349 . S
C2273 C2275 1.327 . S
C2273 H2296 0.950 . S
C2274 C2273 1.349 . S
C2274 C2286 1.349 . S
C2275 C2273 1.327 . S
C2275 C2291 1.429 . S
C2275 H2297 0.950 . S
C2276 H2272 0.949 . S
C2276 C2284 1.574 . S
C2276 C2292 1.368 . S
H2277 C2285 0.950 . S
H2278 C2283 0.950 . S
H2279 C2284 0.949 . S
H2280 C2286 0.950 . S
H2281 C2287 0.950 . S
H2282 C2288 0.949 . S
C2283 H2278 0.950 . S
C2283 C2285 1.327 . S
C2283 C2289 1.429 . S
C2284 C2276 1.574 . S
C2284 H2279 0.949 . S
C2284 C2290 1.368 . S
C2285 C2269 1.349 . S
C2285 H2277 0.950 . S
C2285 C2283 1.327 . S
C2286 C2274 1.349 . S
C2286 H2280 0.950 . S
C2286 C2287 1.327 . S
C2287 H2281 0.950 . S
C2287 C2286 1.327 . S
C2287 C2291 1.429 . S
C2288 C2271 1.574 . S
C2288 H2282 0.949 . S
C2288 C2292 1.368 . S
C2289 C2270 1.429 . S
C2289 C2283 1.429 . S
C2289 C2290 1.523 . S
C2290 C2271 1.368 . S
C2290 C2284 1.368 . S
C2290 C2289 1.523 . S
C2291 C2275 1.429 . S
C2291 C2287 1.429 . S
C2291 C2292 1.523 . S
C2292 C2276 1.368 . S
C2292 C2288 1.368 . S
C2292 C2291 1.523 . S
H2293 C2268 0.950 . S
H2294 C2270 0.950 . S
H2295 C2271 0.949 . S
H2296 C2273 0.950 . S
H2297 C2275 0.950 . S
C2298 C2299 1.349 . S
C2298 C2300 1.327 . S
C2298 H2323 0.950 . S
C2299 C2298 1.349 . S
C2299 C2315 1.349 . S
C2300 C2298 1.327 . S
C2300 C2319 1.429 . S
C2300 H2324 0.950 . S
C2301 C2318 1.574 . S
C2301 C2320 1.368 . S
C2301 H2325 0.949 . S
H2302 C2306 0.949 . S
C2303 C2304 1.349 . S
C2303 C2305 1.327 . S
C2303 H2326 0.950 . S
C2304 C2303 1.349 . S
C2304 C2316 1.349 . S
C2305 C2303 1.327 . S
C2305 C2321 1.431 . S
C2305 H2327 0.950 . S
C2306 H2302 0.949 . S
C2306 C2314 1.574 . S
C2306 C2322 1.368 . S
H2307 C2315 0.950 . S
H2308 C2313 0.950 . S
H2309 C2314 0.949 . S
H2310 C2316 0.950 . S
H2311 C2317 0.950 1_655 S
H2312 C2318 0.949 . S
C2313 H2308 0.950 . S
C2313 C2315 1.327 . S
C2313 C2319 1.429 . S
C2314 C2306 1.574 . S
C2314 H2309 0.949 . S
C2314 C2320 1.368 . S
C2315 C2299 1.349 . S
C2315 H2307 0.950 . S
C2315 C2313 1.327 . S
C2316 C2304 1.349 . S
C2316 H2310 0.950 . S
C2316 C2317 1.327 . S
C2317 H2311 0.950 1_455 S
C2317 C2316 1.327 . S
C2317 C2321 1.429 . S
C2318 C2301 1.574 . S
C2318 H2312 0.949 . S
C2318 C2322 1.368 . S
C2319 C2300 1.429 . S
C2319 C2313 1.429 . S
C2319 C2320 1.523 . S
C2320 C2301 1.368 . S
C2320 C2314 1.368 . S
C2320 C2319 1.523 . S
C2321 C2305 1.431 . S
C2321 C2317 1.429 . S
C2321 C2322 1.520 1_455 S
C2322 C2306 1.368 . S
C2322 C2318 1.368 . S
C2322 C2321 1.520 1_655 S
H2323 C2298 0.950 . S
H2324 C2300 0.950 . S
H2325 C2301 0.949 . S
H2326 C2303 0.950 . S
H2327 C2305 0.950 . S
C2328 C2329 1.349 . S
C2328 C2330 1.327 . S
C2328 H2353 0.950 . S
C2329 C2328 1.349 . S
C2329 C2345 1.349 . S
C2330 C2328 1.327 . S
C2330 C2349 1.429 . S
C2330 H2354 0.950 . S
C2331 C2348 1.574 . S
C2331 C2350 1.368 . S
C2331 H2355 0.949 . S
H2332 C2336 0.949 . S
C2333 C2334 1.349 . S
C2333 C2335 1.327 . S
C2333 H2356 0.950 . S
C2334 C2333 1.349 . S
C2334 C2346 1.349 . S
C2335 C2333 1.327 . S
C2335 C2351 1.429 . S
C2335 H2357 0.950 . S
C2336 H2332 0.949 . S
C2336 C2344 1.574 . S
C2336 C2352 1.368 . S
H2337 C2345 0.950 . S
H2338 C2343 0.950 . S
H2339 C2344 0.949 . S
H2340 C2346 0.950 . S
H2341 C2347 0.950 . S
H2342 C2348 0.949 . S
C2343 H2338 0.950 . S
C2343 C2345 1.327 . S
C2343 C2349 1.429 . S
C2344 C2336 1.574 . S
C2344 H2339 0.949 . S
C2344 C2350 1.368 . S
C2345 C2329 1.349 . S
C2345 H2337 0.950 . S
C2345 C2343 1.327 . S
C2346 C2334 1.349 . S
C2346 H2340 0.950 . S
C2346 C2347 1.327 . S
C2347 H2341 0.950 . S
C2347 C2346 1.327 . S
C2347 C2351 1.429 . S
C2348 C2331 1.574 . S
C2348 H2342 0.949 . S
C2348 C2352 1.368 . S
C2349 C2330 1.429 . S
C2349 C2343 1.429 . S
C2349 C2350 1.523 . S
C2350 C2331 1.368 . S
C2350 C2344 1.368 . S
C2350 C2349 1.523 . S
C2351 C2335 1.429 . S
C2351 C2347 1.429 . S
C2351 C2352 1.523 . S
C2352 C2336 1.368 . S
C2352 C2348 1.368 . S
C2352 C2351 1.523 . S
H2353 C2328 0.950 . S
H2354 C2330 0.950 . S
H2355 C2331 0.949 . S
H2356 C2333 0.950 . S
H2357 C2335 0.950 . S
C2358 C2359 1.349 . S
C2358 C2360 1.327 . S
C2358 H2383 0.950 . S
C2359 C2358 1.349 . S
C2359 C2375 1.349 . S
C2360 C2358 1.327 . S
C2360 C2379 1.429 . S
C2360 H2384 0.950 . S
C2361 C2378 1.574 1_455 S
C2361 C2380 1.368 . S
C2361 H2385 0.949 1_455 S
H2362 C2366 0.949 . S
C2363 C2364 1.349 . S
C2363 C2365 1.327 . S
C2363 H2386 0.950 . S
C2364 C2363 1.349 . S
C2364 C2376 1.349 . S
C2365 C2363 1.327 . S
C2365 C2381 1.429 . S
C2365 H2387 0.950 . S
C2366 H2362 0.949 . S
C2366 C2374 1.574 . S
C2366 C2382 1.368 1_455 S
H2367 C2375 0.950 . S
H2368 C2373 0.950 . S
H2369 C2374 0.949 . S
H2370 C2376 0.950 . S
H2371 C2377 0.950 1_455 S
H2372 C2378 0.949 . S
C2373 H2368 0.950 . S
C2373 C2375 1.327 . S
C2373 C2379 1.429 . S
C2374 C2366 1.574 . S
C2374 H2369 0.949 . S
C2374 C2380 1.368 . S
C2375 C2359 1.349 . S
C2375 H2367 0.950 . S
C2375 C2373 1.327 . S
C2376 C2364 1.349 . S
C2376 H2370 0.950 . S
C2376 C2377 1.327 . S
C2377 H2371 0.950 1_655 S
C2377 C2376 1.327 . S
C2377 C2381 1.429 . S
C2378 C2361 1.574 1_655 S
C2378 H2372 0.949 . S
C2378 C2382 1.368 . S
C2379 C2360 1.429 . S
C2379 C2373 1.429 . S
C2379 C2380 1.523 . S
C2380 C2361 1.368 . S
C2380 C2374 1.368 . S
C2380 C2379 1.523 . S
C2381 C2365 1.429 . S
C2381 C2377 1.429 . S
C2381 C2382 1.523 . S
C2382 C2366 1.368 1_655 S
C2382 C2378 1.368 . S
C2382 C2381 1.523 . S
H2383 C2358 0.950 . S
H2384 C2360 0.950 . S
H2385 C2361 0.949 1_655 S
H2386 C2363 0.950 . S
H2387 C2365 0.950 . S
C2388 C2389 1.349 . S
C2388 C2390 1.327 . S
C2388 H2413 0.950 . S
C2389 C2388 1.349 . S
C2389 C2405 1.349 . S
C2390 C2388 1.327 . S
C2390 C2409 1.429 . S
C2390 H2414 0.950 . S
C2391 C2408 1.574 . S
C2391 C2410 1.368 . S
C2391 H2415 0.949 . S
H2392 C2396 0.949 . S
C2393 C2394 1.349 . S
C2393 C2395 1.327 . S
C2393 H2416 0.950 . S
C2394 C2393 1.349 . S
C2394 C2406 1.349 . S
C2395 C2393 1.327 . S
C2395 C2411 1.429 . S
C2395 H2417 0.950 1_554 S
C2396 H2392 0.949 . S
C2396 C2404 1.574 1_554 S
C2396 C2412 1.368 . S
H2397 C2405 0.950 . S
H2398 C2403 0.950 . S
H2399 C2404 0.950 1_554 S
H2400 C2406 0.950 . S
H2401 C2407 0.950 . S
H2402 C2408 0.949 . S
C2403 H2398 0.950 . S
C2403 C2405 1.327 . S
C2403 C2409 1.429 . S
C2404 C2396 1.574 1_556 S
C2404 H2399 0.950 1_556 S
C2404 C2410 1.368 . S
C2405 C2389 1.349 . S
C2405 H2397 0.950 . S
C2405 C2403 1.327 . S
C2406 C2394 1.349 . S
C2406 H2400 0.950 . S
C2406 C2407 1.327 . S
C2407 H2401 0.950 . S
C2407 C2406 1.327 . S
C2407 C2411 1.429 . S
C2408 C2391 1.574 . S
C2408 H2402 0.949 . S
C2408 C2412 1.368 1_556 S
C2409 C2390 1.429 . S
C2409 C2403 1.429 . S
C2409 C2410 1.523 . S
C2410 C2391 1.368 . S
C2410 C2404 1.368 . S
C2410 C2409 1.523 . S
C2411 C2395 1.429 . S
C2411 C2407 1.429 . S
C2411 C2412 1.523 . S
C2412 C2396 1.368 . S
C2412 C2408 1.368 1_554 S
C2412 C2411 1.523 . S
H2413 C2388 0.950 . S
H2414 C2390 0.950 . S
H2415 C2391 0.949 . S
H2416 C2393 0.950 . S
H2417 C2395 0.950 1_556 S
C2418 C2419 1.349 . S
C2418 C2420 1.327 . S
C2418 H2443 0.950 . S
C2419 C2418 1.349 . S
C2419 C2435 1.349 . S
C2420 C2418 1.327 . S
C2420 C2439 1.429 . S
C2420 H2444 0.950 . S
C2421 C2438 1.574 . S
C2421 C2440 1.368 . S
C2421 H2445 0.949 . S
H2422 C2426 0.949 . S
C2423 C2424 1.349 . S
C2423 C2425 1.327 . S
C2423 H2446 0.950 . S
C2424 C2423 1.349 . S
C2424 C2436 1.349 . S
C2425 C2423 1.327 . S
C2425 C2441 1.429 . S
C2425 H2447 0.950 . S
C2426 H2422 0.949 . S
C2426 C2434 1.574 . S
C2426 C2442 1.368 . S
H2427 C2435 0.950 . S
H2428 C2433 0.950 . S
H2429 C2434 0.949 . S
H2430 C2436 0.950 . S
H2431 C2437 0.950 . S
H2432 C2438 0.949 . S
C2433 H2428 0.950 . S
C2433 C2435 1.327 . S
C2433 C2439 1.429 . S
C2434 C2426 1.574 . S
C2434 H2429 0.949 . S
C2434 C2440 1.368 . S
C2435 C2419 1.349 . S
C2435 H2427 0.950 . S
C2435 C2433 1.327 . S
C2436 C2424 1.349 . S
C2436 H2430 0.950 . S
C2436 C2437 1.327 . S
C2437 H2431 0.950 . S
C2437 C2436 1.327 . S
C2437 C2441 1.429 . S
C2438 C2421 1.574 . S
C2438 H2432 0.949 . S
C2438 C2442 1.368 . S
C2439 C2420 1.429 . S
C2439 C2433 1.429 . S
C2439 C2440 1.523 . S
C2440 C2421 1.368 . S
C2440 C2434 1.368 . S
C2440 C2439 1.523 . S
C2441 C2425 1.429 . S
C2441 C2437 1.429 . S
C2441 C2442 1.523 . S
C2442 C2426 1.368 . S
C2442 C2438 1.368 . S
C2442 C2441 1.523 . S
H2443 C2418 0.950 . S
H2444 C2420 0.950 . S
H2445 C2421 0.949 . S
H2446 C2423 0.950 . S
H2447 C2425 0.950 . S
C2448 C2449 1.349 . S
C2448 C2450 1.327 . S
C2448 H2473 0.950 . S
C2449 C2448 1.349 . S
C2449 C2465 1.349 . S
C2450 C2448 1.327 . S
C2450 C2469 1.429 . S
C2450 H2474 0.950 . S
C2451 C2468 1.574 . S
C2451 C2470 1.368 . S
C2451 H2475 0.949 . S
H2452 C2456 0.949 . S
C2453 C2454 1.349 . S
C2453 C2455 1.327 . S
C2453 H2476 0.950 . S
C2454 C2453 1.349 . S
C2454 C2466 1.349 . S
C2455 C2453 1.327 . S
C2455 C2471 1.429 . S
C2455 H2477 0.950 . S
C2456 H2452 0.949 . S
C2456 C2464 1.574 . S
C2456 C2472 1.368 . S
H2457 C2465 0.950 . S
H2458 C2463 0.950 . S
H2459 C2464 0.949 . S
H2460 C2466 0.950 . S
H2461 C2467 0.950 . S
H2462 C2468 0.949 . S
C2463 H2458 0.950 . S
C2463 C2465 1.327 . S
C2463 C2469 1.429 . S
C2464 C2456 1.574 . S
C2464 H2459 0.949 . S
C2464 C2470 1.368 . S
C2465 C2449 1.349 . S
C2465 H2457 0.950 . S
C2465 C2463 1.327 . S
C2466 C2454 1.349 . S
C2466 H2460 0.950 . S
C2466 C2467 1.327 . S
C2467 H2461 0.950 . S
C2467 C2466 1.327 . S
C2467 C2471 1.429 . S
C2468 C2451 1.574 . S
C2468 H2462 0.949 . S
C2468 C2472 1.368 . S
C2469 C2450 1.429 . S
C2469 C2463 1.429 . S
C2469 C2470 1.523 . S
C2470 C2451 1.368 . S
C2470 C2464 1.368 . S
C2470 C2469 1.523 . S
C2471 C2455 1.429 . S
C2471 C2467 1.429 . S
C2471 C2472 1.523 . S
C2472 C2456 1.368 . S
C2472 C2468 1.368 . S
C2472 C2471 1.523 . S
H2473 C2448 0.950 . S
H2474 C2450 0.950 . S
H2475 C2451 0.949 . S
H2476 C2453 0.950 . S
H2477 C2455 0.950 . S
C2478 C2479 1.349 . S
C2478 C2480 1.327 . S
C2478 H2503 0.950 . S
C2479 C2478 1.349 . S
C2479 C2495 1.349 . S
C2480 C2478 1.327 . S
C2480 C2499 1.429 . S
C2480 H2504 0.950 . S
C2481 C2498 1.574 1_655 S
C2481 C2500 1.368 . S
C2481 H2505 0.949 . S
H2482 C2486 0.949 . S
C2483 C2484 1.349 . S
C2483 C2485 1.327 . S
C2483 H2506 0.950 . S
C2484 C2483 1.349 . S
C2484 C2496 1.349 . S
C2485 C2483 1.327 . S
C2485 C2501 1.429 . S
C2485 H2507 0.950 . S
C2486 H2482 0.949 . S
C2486 C2494 1.574 . S
C2486 C2502 1.368 1_655 S
H2487 C2495 0.950 . S
H2488 C2493 0.950 . S
H2489 C2494 0.949 . S
H2490 C2496 0.950 . S
H2491 C2497 0.906 1_655 S
H2492 C2498 0.949 . S
C2493 H2488 0.950 . S
C2493 C2495 1.327 . S
C2493 C2499 1.429 . S
C2494 C2486 1.574 . S
C2494 H2489 0.949 . S
C2494 C2500 1.368 . S
C2495 C2479 1.349 . S
C2495 H2487 0.950 . S
C2495 C2493 1.327 . S
C2496 C2484 1.349 . S
C2496 H2490 0.950 . S
C2496 C2497 1.327 . S
C2497 H2491 0.906 1_455 S
C2497 C2496 1.327 . S
C2497 C2501 1.429 . S
C2498 C2481 1.574 1_455 S
C2498 H2492 0.949 . S
C2498 C2502 1.368 . S
C2499 C2480 1.429 . S
C2499 C2493 1.429 . S
C2499 C2500 1.523 . S
C2500 C2481 1.368 . S
C2500 C2494 1.368 . S
C2500 C2499 1.523 . S
C2501 C2485 1.429 . S
C2501 C2497 1.429 . S
C2501 C2502 1.523 . S
C2502 C2486 1.368 1_455 S
C2502 C2498 1.368 . S
C2502 C2501 1.523 . S
H2503 C2478 0.950 . S
H2504 C2480 0.950 . S
H2505 C2481 0.949 . S
H2506 C2483 0.950 . S
H2507 C2485 0.950 . S
C2508 C2509 1.349 . S
C2508 C2510 1.327 . S
C2508 H2533 0.950 . S
C2509 C2508 1.349 . S
C2509 C2525 1.349 . S
C2510 C2508 1.327 . S
C2510 C2529 1.429 . S
C2510 H2534 0.950 . S
C2511 C2528 1.574 1_554 S
C2511 C2530 1.368 . S
C2511 H2535 0.949 . S
H2512 C2516 0.949 . S
C2513 C2514 1.349 . S
C2513 C2515 1.327 . S
C2513 H2536 0.950 . S
C2514 C2513 1.349 . S
C2514 C2526 1.349 . S
C2515 C2513 1.327 . S
C2515 C2531 1.429 . S
C2515 H2537 0.950 . S
C2516 H2512 0.949 . S
C2516 C2524 1.574 . S
C2516 C2532 1.368 1_554 S
H2517 C2525 0.950 . S
H2518 C2523 0.950 . S
H2519 C2524 0.949 . S
H2520 C2526 0.950 . S
H2521 C2527 0.972 . S
H2522 C2528 0.949 . S
C2523 H2518 0.950 . S
C2523 C2525 1.327 . S
C2523 C2529 1.429 . S
C2524 C2516 1.574 . S
C2524 H2519 0.949 . S
C2524 C2530 1.368 . S
C2525 C2509 1.349 . S
C2525 H2517 0.950 . S
C2525 C2523 1.327 . S
C2526 C2514 1.349 . S
C2526 H2520 0.950 . S
C2526 C2527 1.327 . S
C2527 H2521 0.972 . S
C2527 C2526 1.327 . S
C2527 C2531 1.429 . S
C2528 C2511 1.574 1_556 S
C2528 H2522 0.949 . S
C2528 C2532 1.368 . S
C2529 C2510 1.429 . S
C2529 C2523 1.429 . S
C2529 C2530 1.523 . S
C2530 C2511 1.368 . S
C2530 C2524 1.368 . S
C2530 C2529 1.523 . S
C2531 C2515 1.429 . S
C2531 C2527 1.429 . S
C2531 C2532 1.523 . S
C2532 C2516 1.368 1_556 S
C2532 C2528 1.368 . S
C2532 C2531 1.523 . S
H2533 C2508 0.950 . S
H2534 C2510 0.950 . S
H2535 C2511 0.949 . S
H2536 C2513 0.950 . S
H2537 C2515 0.950 . S
C2538 C2539 1.349 . S
C2538 C2540 1.327 . S
C2538 H2563 0.950 . S
C2539 C2538 1.349 . S
C2539 C2555 1.349 . S
C2540 C2538 1.327 . S
C2540 C2559 1.429 . S
C2540 H2564 0.950 . S
C2541 C2558 1.574 . S
C2541 C2560 1.368 . S
C2541 H2565 0.949 . S
H2542 C2546 0.949 . S
C2543 C2544 1.349 . S
C2543 C2545 1.327 . S
C2543 H2566 0.950 . S
C2544 C2543 1.349 . S
C2544 C2556 1.349 . S
C2545 C2543 1.327 . S
C2545 C2561 1.429 . S
C2545 H2567 0.950 . S
C2546 H2542 0.949 . S
C2546 C2554 1.574 . S
C2546 C2562 1.368 . S
H2547 C2555 0.950 . S
H2548 C2553 0.950 . S
H2549 C2554 0.949 . S
H2550 C2556 0.950 . S
H2551 C2557 0.950 . S
H2552 C2558 0.949 . S
C2553 H2548 0.950 . S
C2553 C2555 1.327 . S
C2553 C2559 1.429 . S
C2554 C2546 1.574 . S
C2554 H2549 0.949 . S
C2554 C2560 1.368 . S
C2555 C2539 1.349 . S
C2555 H2547 0.950 . S
C2555 C2553 1.327 . S
C2556 C2544 1.349 . S
C2556 H2550 0.950 . S
C2556 C2557 1.327 . S
C2557 H2551 0.950 . S
C2557 C2556 1.327 . S
C2557 C2561 1.429 . S
C2558 C2541 1.574 . S
C2558 H2552 0.949 . S
C2558 C2562 1.368 . S
C2559 C2540 1.429 . S
C2559 C2553 1.429 . S
C2559 C2560 1.523 . S
C2560 C2541 1.368 . S
C2560 C2554 1.368 . S
C2560 C2559 1.523 . S
C2561 C2545 1.429 . S
C2561 C2557 1.429 . S
C2561 C2562 1.523 . S
C2562 C2546 1.368 . S
C2562 C2558 1.368 . S
C2562 C2561 1.523 . S
H2563 C2538 0.950 . S
H2564 C2540 0.950 . S
H2565 C2541 0.949 . S
H2566 C2543 0.950 . S
H2567 C2545 0.950 . S
C2568 C2569 1.349 . S
C2568 C2570 1.327 . S
C2568 H2593 0.950 . S
C2569 C2568 1.349 . S
C2569 C2585 1.349 . S
C2570 C2568 1.327 . S
C2570 C2589 1.429 . S
C2570 H2594 0.950 . S
C2571 C2588 1.574 . S
C2571 C2590 1.368 . S
C2571 H2595 0.949 . S
H2572 C2576 0.949 . S
C2573 C2574 1.349 . S
C2573 C2575 1.327 . S
C2573 H2596 0.950 . S
C2574 C2573 1.349 . S
C2574 C2586 1.349 . S
C2575 C2573 1.327 . S
C2575 C2591 1.429 . S
C2575 H2597 0.950 . S
C2576 H2572 0.949 . S
C2576 C2584 1.574 . S
C2576 C2592 1.368 . S
H2577 C2585 0.950 . S
H2578 C2583 0.950 . S
H2579 C2584 0.949 . S
H2580 C2586 0.950 . S
H2581 C2587 0.950 . S
H2582 C2588 0.949 . S
C2583 H2578 0.950 . S
C2583 C2585 1.327 . S
C2583 C2589 1.429 . S
C2584 C2576 1.574 . S
C2584 H2579 0.949 . S
C2584 C2590 1.368 . S
C2585 C2569 1.349 . S
C2585 H2577 0.950 . S
C2585 C2583 1.327 . S
C2586 C2574 1.349 . S
C2586 H2580 0.950 . S
C2586 C2587 1.327 . S
C2587 H2581 0.950 . S
C2587 C2586 1.327 . S
C2587 C2591 1.429 . S
C2588 C2571 1.574 . S
C2588 H2582 0.949 . S
C2588 C2592 1.368 . S
C2589 C2570 1.429 . S
C2589 C2583 1.429 . S
C2589 C2590 1.523 . S
C2590 C2571 1.368 . S
C2590 C2584 1.368 . S
C2590 C2589 1.523 . S
C2591 C2575 1.429 . S
C2591 C2587 1.429 . S
C2591 C2592 1.523 . S
C2592 C2576 1.368 . S
C2592 C2588 1.368 . S
C2592 C2591 1.523 . S
H2593 C2568 0.950 . S
H2594 C2570 0.950 . S
H2595 C2571 0.949 . S
H2596 C2573 0.950 . S
H2597 C2575 0.950 . S
C2598 C2599 1.349 . S
C2598 C2600 1.327 . S
C2598 H2623 0.950 . S
C2599 C2598 1.349 . S
C2599 C2615 1.349 . S
C2600 C2598 1.327 . S
C2600 C2619 1.429 . S
C2600 H2624 0.950 . S
C2601 C2618 1.574 1_545 S
C2601 C2620 1.368 . S
C2601 H2625 0.949 . S
H2602 C2606 0.949 . S
C2603 C2604 1.349 . S
C2603 C2605 1.327 . S
C2603 H2626 0.950 . S
C2604 C2603 1.349 . S
C2604 C2616 1.349 . S
C2605 C2603 1.327 . S
C2605 C2621 1.429 . S
C2605 H2627 0.950 . S
C2606 H2602 0.949 . S
C2606 C2614 1.574 . S
C2606 C2622 1.368 1_545 S
H2607 C2615 0.950 . S
H2608 C2613 0.950 . S
H2609 C2614 0.949 . S
H2610 C2616 0.950 . S
H2611 C2617 0.950 . S
H2612 C2618 0.949 . S
C2613 H2608 0.950 . S
C2613 C2615 1.327 . S
C2613 C2619 1.429 . S
C2614 C2606 1.574 . S
C2614 H2609 0.949 . S
C2614 C2620 1.368 . S
C2615 C2599 1.349 . S
C2615 H2607 0.950 . S
C2615 C2613 1.327 . S
C2616 C2604 1.349 . S
C2616 H2610 0.950 . S
C2616 C2617 1.327 . S
C2617 H2611 0.950 . S
C2617 C2616 1.327 . S
C2617 C2621 1.429 . S
C2618 C2601 1.574 1_565 S
C2618 H2612 0.949 . S
C2618 C2622 1.368 . S
C2619 C2600 1.429 . S
C2619 C2613 1.429 . S
C2619 C2620 1.523 . S
C2620 C2601 1.368 . S
C2620 C2614 1.368 . S
C2620 C2619 1.523 . S
C2621 C2605 1.429 . S
C2621 C2617 1.429 . S
C2621 C2622 1.523 . S
C2622 C2606 1.368 1_565 S
C2622 C2618 1.368 . S
C2622 C2621 1.523 . S
H2623 C2598 0.950 . S
H2624 C2600 0.950 . S
H2625 C2601 0.949 . S
H2626 C2603 0.950 . S
H2627 C2605 0.950 . S
C2628 C2629 1.349 . S
C2628 C2630 1.327 . S
C2628 H2653 0.950 . S
C2629 C2628 1.349 . S
C2629 C2645 1.349 . S
C2630 C2628 1.327 . S
C2630 C2649 1.429 . S
C2630 H2654 0.950 . S
C2631 C2648 1.574 . S
C2631 C2650 1.368 1_565 S
C2631 H2655 0.949 . S
H2632 C2636 0.949 1_545 S
C2633 C2634 1.349 . S
C2633 C2635 1.327 . S
C2633 H2656 0.950 . S
C2634 C2633 1.349 . S
C2634 C2646 1.349 . S
C2635 C2633 1.327 . S
C2635 C2651 1.429 . S
C2635 H2657 0.950 . S
C2636 H2632 0.949 1_565 S
C2636 C2644 1.574 1_565 S
C2636 C2652 1.368 . S
H2637 C2645 0.950 . S
H2638 C2643 0.950 1_565 S
H2639 C2644 0.949 . S
H2640 C2646 0.950 . S
H2641 C2647 0.950 . S
H2642 C2648 0.949 . S
C2643 H2638 0.950 1_545 S
C2643 C2645 1.327 . S
C2643 C2649 1.429 . S
C2644 C2636 1.574 1_545 S
C2644 H2639 0.949 . S
C2644 C2650 1.368 . S
C2645 C2629 1.349 . S
C2645 H2637 0.950 . S
C2645 C2643 1.327 . S
C2646 C2634 1.349 . S
C2646 H2640 0.950 . S
C2646 C2647 1.327 . S
C2647 H2641 0.950 . S
C2647 C2646 1.327 . S
C2647 C2651 1.429 . S
C2648 C2631 1.574 . S
C2648 H2642 0.949 . S
C2648 C2652 1.368 . S
C2649 C2630 1.429 . S
C2649 C2643 1.429 . S
C2649 C2650 1.523 . S
C2650 C2631 1.368 1_545 S
C2650 C2644 1.368 . S
C2650 C2649 1.523 . S
C2651 C2635 1.429 . S
C2651 C2647 1.429 . S
C2651 C2652 1.523 . S
C2652 C2636 1.368 . S
C2652 C2648 1.368 . S
C2652 C2651 1.523 . S
H2653 C2628 0.950 . S
H2654 C2630 0.950 . S
H2655 C2631 0.949 . S
H2656 C2633 0.950 . S
H2657 C2635 0.950 . S
C2658 C2659 1.349 . S
C2658 C2660 1.327 . S
C2658 H2683 0.950 . S
C2659 C2658 1.349 . S
C2659 C2675 1.349 . S
C2660 C2658 1.327 . S
C2660 C2679 1.429 . S
C2660 H2684 0.950 . S
C2661 C2678 1.574 . S
C2661 C2680 1.368 . S
C2661 H2685 0.949 . S
H2662 C2666 0.949 . S
C2663 C2664 1.349 . S
C2663 C2665 1.327 . S
C2663 H2686 0.950 . S
C2664 C2663 1.349 . S
C2664 C2676 1.349 . S
C2665 C2663 1.327 . S
C2665 C2681 1.429 . S
C2665 H2687 0.950 . S
C2666 H2662 0.949 . S
C2666 C2674 1.574 . S
C2666 C2682 1.368 . S
H2667 C2675 0.950 . S
H2668 C2673 0.950 . S
H2669 C2674 0.949 . S
H2670 C2676 0.950 . S
H2671 C2677 0.950 . S
H2672 C2678 0.949 . S
C2673 H2668 0.950 . S
C2673 C2675 1.327 . S
C2673 C2679 1.429 . S
C2674 C2666 1.574 . S
C2674 H2669 0.949 . S
C2674 C2680 1.368 . S
C2675 C2659 1.349 . S
C2675 H2667 0.950 . S
C2675 C2673 1.327 . S
C2676 C2664 1.349 . S
C2676 H2670 0.950 . S
C2676 C2677 1.327 . S
C2677 H2671 0.950 . S
C2677 C2676 1.327 . S
C2677 C2681 1.429 . S
C2678 C2661 1.574 . S
C2678 H2672 0.949 . S
C2678 C2682 1.368 . S
C2679 C2660 1.429 . S
C2679 C2673 1.429 . S
C2679 C2680 1.523 . S
C2680 C2661 1.368 . S
C2680 C2674 1.368 . S
C2680 C2679 1.523 . S
C2681 C2665 1.429 . S
C2681 C2677 1.429 . S
C2681 C2682 1.523 . S
C2682 C2666 1.368 . S
C2682 C2678 1.368 . S
C2682 C2681 1.523 . S
H2683 C2658 0.950 . S
H2684 C2660 0.950 . S
H2685 C2661 0.949 . S
H2686 C2663 0.950 . S
H2687 C2665 0.950 . S
C529 C8 0.759 . S
C534 C348 0.759 . S
C559 C282 0.759 . S
C564 C32 0.759 . S
C589 C294 0.759 . S
C594 C52 0.759 . S
C619 C76 0.759 . S
C624 C316 0.759 . S
C649 C96 0.759 . S
C654 C206 0.759 . S
C679 C120 0.759 . S
C684 C228 0.759 . S
C709 C150 0.759 . S
C714 C252 0.759 . S
C739 C172 0.759 . S
C744 C194 0.759 . S
C769 C362 0.759 . S
C774 C448 0.759 . S
C799 C382 0.759 . S
C804 C516 0.759 . S
C829 C406 0.759 . S
C834 C480 0.759 . S
C859 C426 0.759 . S
C864 C502 0.759 . S
C889 C469 1.110 . S
C894 C15 1.098 . S
C919 C29 1.098 . S
C924 C491 1.110 . S
C949 C59 1.098 . S
C954 C367 1.110 . S
C979 C73 1.098 . S
C984 C521 1.110 . S
C1009 C439 1.110 . S
C1014 C103 1.098 . S
C1039 C461 1.110 . S
C1044 C117 1.098 . S
C1069 C153 1.098 . S
C1074 C395 1.110 . S
C1099 C175 1.098 . S
C1104 C411 1.110 . S
C1129 C197 1.098 . S
C1134 C109 1.110 . S
C1159 C213 1.098 . S
C1164 C125 1.110 . S
C1189 C235 1.098 . S
C1194 C139 1.110 . S
C1219 C249 1.098 . S
C1224 C161 1.110 . S
C1249 C21 1.110 . S
C1254 C285 1.098 . S
C1279 C301 1.098 . S
C1284 C37 1.110 . S
C1309 C323 1.098 . S
C1314 C65 1.110 . S
C1339 C351 1.098 . S
C1344 C81 1.110 . S
C1369 C329 1.110 . S
C1374 C359 1.098 . S
C1399 C241 1.110 . S
C1404 C389 1.098 . S
C1429 C403 1.098 . S
C1434 C257 1.110 . S
C1459 C183 1.110 . S
C1464 C433 1.098 . S
C1489 C455 1.098 . S
C1494 C219 1.110 . S
C1519 C271 1.110 . S
C1524 C483 1.098 . S
C1549 C307 1.110 . S
C1554 C505 1.098 . S
C1579 C337 1.110 . S
C1584 C513 1.098 . S
C1609 C404 1.286 . S
C1614 C10 1.301 . S
C1639 C40 1.301 . S
C1644 C436 1.286 . S
C1669 C458 1.286 . S
C1674 C54 1.301 . S
C1699 C84 1.301 . S
C1704 C392 1.286 . S
C1729 C494 1.286 . S
C1734 C98 1.301 . S
C1759 C360 1.286 . S
C1764 C128 1.301 . S
C1789 C514 1.286 . S
C1794 C140 1.301 . S
C1819 C472 1.286 . S
C1824 C162 1.301 . S
C1849 C216 1.286 . S
C1854 C184 1.301 . S
C1879 C238 1.286 . S
C1884 C208 1.301 . S
C1909 C230 1.301 . S
C1914 C250 1.286 . S
C1939 C260 1.301 . S
C1944 C186 1.286 . S
C1969 C340 1.286 . S
C1974 C272 1.301 . S
C1999 C274 1.286 . S
C2004 C296 1.301 . S
C2029 C318 1.301 . S
C2034 C304 1.286 . S
C2059 C338 1.301 . S
C2064 C326 1.286 . S
C2089 C74 1.286 . S
C2094 C370 1.301 . S
C2119 C118 1.286 . S
C2124 C384 1.301 . S
C2149 C142 1.286 . S
C2154 C414 1.301 . S
C2179 C164 1.286 . S
C2184 C428 1.301 . S
C2209 C106 1.286 . S
C2214 C450 1.301 . S
C2239 C30 1.286 . S
C2244 C470 1.301 . S
C2269 C62 1.286 . S
C2274 C492 1.301 . S
C2299 C524 1.301 . S
C2304 C18 1.286 . S
C2329 C7 1.652 . S
C2334 C205 1.652 . S
C2359 C227 1.652 . S
C2364 C43 1.652 . S
C2389 C51 1.652 . S
C2394 C263 1.652 . S
C2419 C87 1.652 . S
C2424 C191 1.652 . S
C2449 C95 1.652 . S
C2454 C345 1.652 . S
C2479 C279 1.652 . S
C2484 C131 1.652 . S
C2509 C147 1.652 . S
C2514 C293 1.652 . S
C2539 C169 1.652 . S
C2544 C315 1.652 . S
C2569 C373 1.652 . S
C2574 C417 1.652 . S
C2599 C381 1.652 . S
C2604 C499 1.652 . S
C2629 C527 1.652 . S
C2634 C425 1.652 . S
C2659 C447 1.652 . S
C2664 C477 1.652 . S
