# Generated by pormake.
# Topology ukm, (4)-cn, num edge types: 1
# Building blocks:
#     Node 0, Type 0, BuildingBlock: QUQFOY_clean_sbu_3, # of connection points: 4
#     Node 1, Type 0, BuildingBlock: QUQFOY_clean_sbu_3, # of connection points: 4
#     Node 2, Type 0, BuildingBlock: QUQFOY_clean_sbu_3, # of connection points: 4
#     Node 3, Type 0, BuildingBlock: QUQFOY_clean_sbu_3, # of connection points: 4
#     Node 4, Type 0, BuildingBlock: QUQFOY_clean_sbu_3, # of connection points: 4
#     Node 5, Type 0, BuildingBlock: QUQFOY_clean_sbu_3, # of connection points: 4
#     Node 6, Type 0, BuildingBlock: QUQFOY_clean_sbu_3, # of connection points: 4
#     Node 7, Type 0, BuildingBlock: QUQFOY_clean_sbu_3, # of connection points: 4
#     Node 8, Type 0, BuildingBlock: QUQFOY_clean_sbu_3, # of connection points: 4
#     Node 9, Type 0, BuildingBlock: QUQFOY_clean_sbu_3, # of connection points: 4
#     Node 10, Type 0, BuildingBlock: QUQFOY_clean_sbu_3, # of connection points: 4
#     Node 11, Type 0, BuildingBlock: QUQFOY_clean_sbu_3, # of connection points: 4
#     Node 12, Type 0, BuildingBlock: QUQFOY_clean_sbu_3, # of connection points: 4
#     Node 13, Type 0, BuildingBlock: QUQFOY_clean_sbu_3, # of connection points: 4
#     Node 14, Type 0, BuildingBlock: QUQFOY_clean_sbu_3, # of connection points: 4
#     Node 15, Type 0, BuildingBlock: QUQFOY_clean_sbu_3, # of connection points: 4
#     Node 16, Type 0, BuildingBlock: QUQFOY_clean_sbu_3, # of connection points: 4
#     Node 17, Type 0, BuildingBlock: QUQFOY_clean_sbu_3, # of connection points: 4
#     Node 18, Type 0, BuildingBlock: QUQFOY_clean_sbu_3, # of connection points: 4
#     Node 19, Type 0, BuildingBlock: QUQFOY_clean_sbu_3, # of connection points: 4
#     Node 20, Type 0, BuildingBlock: QUQFOY_clean_sbu_3, # of connection points: 4
#     Node 21, Type 0, BuildingBlock: QUQFOY_clean_sbu_3, # of connection points: 4
#     Node 22, Type 0, BuildingBlock: QUQFOY_clean_sbu_3, # of connection points: 4
#     Node 23, Type 0, BuildingBlock: QUQFOY_clean_sbu_3, # of connection points: 4
#     Node 24, Type 0, BuildingBlock: QUQFOY_clean_sbu_3, # of connection points: 4
#     Node 25, Type 0, BuildingBlock: QUQFOY_clean_sbu_3, # of connection points: 4
#     Node 26, Type 0, BuildingBlock: QUQFOY_clean_sbu_3, # of connection points: 4
#     Node 27, Type 0, BuildingBlock: QUQFOY_clean_sbu_3, # of connection points: 4
#     Node 28, Type 0, BuildingBlock: QUQFOY_clean_sbu_3, # of connection points: 4
#     Node 29, Type 0, BuildingBlock: QUQFOY_clean_sbu_3, # of connection points: 4
#     Node 30, Type 0, BuildingBlock: QUQFOY_clean_sbu_3, # of connection points: 4
#     Node 31, Type 0, BuildingBlock: QUQFOY_clean_sbu_3, # of connection points: 4
#     Edge 32, Type (0, 0), BuildingBlock: TEMPAE_clean_linker_10, # of connection points: 2
#     Edge 33, Type (0, 0), BuildingBlock: TEMPAE_clean_linker_10, # of connection points: 2
#     Edge 34, Type (0, 0), BuildingBlock: TEMPAE_clean_linker_10, # of connection points: 2
#     Edge 35, Type (0, 0), BuildingBlock: TEMPAE_clean_linker_10, # of connection points: 2
#     Edge 36, Type (0, 0), BuildingBlock: TEMPAE_clean_linker_10, # of connection points: 2
#     Edge 37, Type (0, 0), BuildingBlock: TEMPAE_clean_linker_10, # of connection points: 2
#     Edge 38, Type (0, 0), BuildingBlock: TEMPAE_clean_linker_10, # of connection points: 2
#     Edge 39, Type (0, 0), BuildingBlock: TEMPAE_clean_linker_10, # of connection points: 2
#     Edge 40, Type (0, 0), BuildingBlock: TEMPAE_clean_linker_10, # of connection points: 2
#     Edge 41, Type (0, 0), BuildingBlock: TEMPAE_clean_linker_10, # of connection points: 2
#     Edge 42, Type (0, 0), BuildingBlock: TEMPAE_clean_linker_10, # of connection points: 2
#     Edge 43, Type (0, 0), BuildingBlock: TEMPAE_clean_linker_10, # of connection points: 2
#     Edge 44, Type (0, 0), BuildingBlock: TEMPAE_clean_linker_10, # of connection points: 2
#     Edge 45, Type (0, 0), BuildingBlock: TEMPAE_clean_linker_10, # of connection points: 2
#     Edge 46, Type (0, 0), BuildingBlock: TEMPAE_clean_linker_10, # of connection points: 2
#     Edge 47, Type (0, 0), BuildingBlock: TEMPAE_clean_linker_10, # of connection points: 2
#     Edge 48, Type (0, 0), BuildingBlock: TEMPAE_clean_linker_10, # of connection points: 2
#     Edge 49, Type (0, 0), BuildingBlock: TEMPAE_clean_linker_10, # of connection points: 2
#     Edge 50, Type (0, 0), BuildingBlock: TEMPAE_clean_linker_10, # of connection points: 2
#     Edge 51, Type (0, 0), BuildingBlock: TEMPAE_clean_linker_10, # of connection points: 2
#     Edge 52, Type (0, 0), BuildingBlock: TEMPAE_clean_linker_10, # of connection points: 2
#     Edge 53, Type (0, 0), BuildingBlock: TEMPAE_clean_linker_10, # of connection points: 2
#     Edge 54, Type (0, 0), BuildingBlock: TEMPAE_clean_linker_10, # of connection points: 2
#     Edge 55, Type (0, 0), BuildingBlock: TEMPAE_clean_linker_10, # of connection points: 2
#     Edge 56, Type (0, 0), BuildingBlock: TEMPAE_clean_linker_10, # of connection points: 2
#     Edge 57, Type (0, 0), BuildingBlock: TEMPAE_clean_linker_10, # of connection points: 2
#     Edge 58, Type (0, 0), BuildingBlock: TEMPAE_clean_linker_10, # of connection points: 2
#     Edge 59, Type (0, 0), BuildingBlock: TEMPAE_clean_linker_10, # of connection points: 2
#     Edge 60, Type (0, 0), BuildingBlock: TEMPAE_clean_linker_10, # of connection points: 2
#     Edge 61, Type (0, 0), BuildingBlock: TEMPAE_clean_linker_10, # of connection points: 2
#     Edge 62, Type (0, 0), BuildingBlock: TEMPAE_clean_linker_10, # of connection points: 2
#     Edge 63, Type (0, 0), BuildingBlock: TEMPAE_clean_linker_10, # of connection points: 2
#     Edge 64, Type (0, 0), BuildingBlock: TEMPAE_clean_linker_10, # of connection points: 2
#     Edge 65, Type (0, 0), BuildingBlock: TEMPAE_clean_linker_10, # of connection points: 2
#     Edge 66, Type (0, 0), BuildingBlock: TEMPAE_clean_linker_10, # of connection points: 2
#     Edge 67, Type (0, 0), BuildingBlock: TEMPAE_clean_linker_10, # of connection points: 2
#     Edge 68, Type (0, 0), BuildingBlock: TEMPAE_clean_linker_10, # of connection points: 2
#     Edge 69, Type (0, 0), BuildingBlock: TEMPAE_clean_linker_10, # of connection points: 2
#     Edge 70, Type (0, 0), BuildingBlock: TEMPAE_clean_linker_10, # of connection points: 2
#     Edge 71, Type (0, 0), BuildingBlock: TEMPAE_clean_linker_10, # of connection points: 2
#     Edge 72, Type (0, 0), BuildingBlock: TEMPAE_clean_linker_10, # of connection points: 2
#     Edge 73, Type (0, 0), BuildingBlock: TEMPAE_clean_linker_10, # of connection points: 2
#     Edge 74, Type (0, 0), BuildingBlock: TEMPAE_clean_linker_10, # of connection points: 2
#     Edge 75, Type (0, 0), BuildingBlock: TEMPAE_clean_linker_10, # of connection points: 2
#     Edge 76, Type (0, 0), BuildingBlock: TEMPAE_clean_linker_10, # of connection points: 2
#     Edge 77, Type (0, 0), BuildingBlock: TEMPAE_clean_linker_10, # of connection points: 2
#     Edge 78, Type (0, 0), BuildingBlock: TEMPAE_clean_linker_10, # of connection points: 2
#     Edge 79, Type (0, 0), BuildingBlock: TEMPAE_clean_linker_10, # of connection points: 2
#     Edge 80, Type (0, 0), BuildingBlock: TEMPAE_clean_linker_10, # of connection points: 2
#     Edge 81, Type (0, 0), BuildingBlock: TEMPAE_clean_linker_10, # of connection points: 2
#     Edge 82, Type (0, 0), BuildingBlock: TEMPAE_clean_linker_10, # of connection points: 2
#     Edge 83, Type (0, 0), BuildingBlock: TEMPAE_clean_linker_10, # of connection points: 2
#     Edge 84, Type (0, 0), BuildingBlock: TEMPAE_clean_linker_10, # of connection points: 2
#     Edge 85, Type (0, 0), BuildingBlock: TEMPAE_clean_linker_10, # of connection points: 2
#     Edge 86, Type (0, 0), BuildingBlock: TEMPAE_clean_linker_10, # of connection points: 2
#     Edge 87, Type (0, 0), BuildingBlock: TEMPAE_clean_linker_10, # of connection points: 2
#     Edge 88, Type (0, 0), BuildingBlock: TEMPAE_clean_linker_10, # of connection points: 2
#     Edge 89, Type (0, 0), BuildingBlock: TEMPAE_clean_linker_10, # of connection points: 2
#     Edge 90, Type (0, 0), BuildingBlock: TEMPAE_clean_linker_10, # of connection points: 2
#     Edge 91, Type (0, 0), BuildingBlock: TEMPAE_clean_linker_10, # of connection points: 2
#     Edge 92, Type (0, 0), BuildingBlock: TEMPAE_clean_linker_10, # of connection points: 2
#     Edge 93, Type (0, 0), BuildingBlock: TEMPAE_clean_linker_10, # of connection points: 2
#     Edge 94, Type (0, 0), BuildingBlock: TEMPAE_clean_linker_10, # of connection points: 2
#     Edge 95, Type (0, 0), BuildingBlock: TEMPAE_clean_linker_10, # of connection points: 2
# Relax obj value: 0.274
# Max RMSD: 0.197
# Mean RMSD: 0.197
data_MOF--net-ukm--node1-QUQFOY_clean_sbu_3--edge1-TEMPAE_clean_linker_10
_symmetry_space_group_name_H-M    P1
_symmetry_Int_Tables_number       1
_symmetry_cell_setting            triclinic
loop_
_symmetry_equiv_pos_as_xyz
'x, y, z'
_cell_length_a     26.132539
_cell_length_b     105.07285
_cell_length_c     42.791213
_cell_angle_alpha  90.054581
_cell_angle_beta   89.95984
_cell_angle_gamma 89.951968
loop_
_atom_site_label
_atom_site_type_symbol
_atom_site_fract_x
_atom_site_fract_y
_atom_site_fract_z
_atom_type_partial_charge
C0 C 0.0602 0.27549 0.24848 0.0
O1 O 0.02075 0.28221 0.25392 0.0
Cd2 Cd 0.02344 0.30393 0.2717 0.0
O3 O 0.10469 0.27932 0.25603 0.0
Cd4 Cd 0.14418 0.2975 0.28324 0.0
C5 C 0.11227 0.31398 0.21797 0.0
O6 O 0.07478 0.30445 0.31761 0.0
O7 O 0.13682 0.31763 0.31009 0.0
O8 O 0.19925 0.28365 0.31498 0.0
C9 C 0.09467 0.3152 0.32348 0.0
O10 O 0.06636 0.31462 0.22795 0.0
C11 C 0.2405 0.28907 0.30646 0.0
O12 O 0.14637 0.30792 0.23311 0.0
O13 O 0.23644 0.29816 0.28706 0.0
C14 C 0.19959 0.93932 0.2896 0.0
O15 O 0.24064 0.93285 0.28991 0.0
Cd16 Cd 0.24024 0.91004 0.28439 0.0
O17 O 0.15636 0.9338 0.28854 0.0
Cd18 Cd 0.12258 0.91209 0.28789 0.0
C19 C 0.17361 0.90824 0.21648 0.0
O20 O 0.18301 0.90126 0.32272 0.0
O21 O 0.1349 0.88943 0.29368 0.0
O22 O 0.05362 0.919 0.32252 0.0
C23 C 0.16648 0.89024 0.31605 0.0
O24 O 0.21616 0.90586 0.22973 0.0
C25 C 0.01807 0.91441 0.30568 0.0
O26 O 0.13481 0.9116 0.23235 0.0
O27 O 0.03136 0.90882 0.28065 0.0
C28 C 0.11862 0.9563 0.93679 0.0
O29 O 0.07651 0.95026 0.93541 0.0
Cd30 Cd 0.0618 0.92802 0.9265 0.0
O31 O 0.16125 0.9508 0.9313 0.0
Cd32 Cd 0.19021 0.92921 0.91585 0.0
C33 C 0.14157 0.91823 0.98519 0.0
O34 O 0.11691 0.9235 0.88439 0.0
O35 O 0.17074 0.90843 0.89186 0.0
O36 O 0.2628 0.93668 0.88411 0.0
C37 C 0.12826 0.91192 0.88049 0.0
O38 O 0.0962 0.91835 0.97425 0.0
C39 C 0.29561 0.93017 0.89926 0.0
O40 O 0.17936 0.92226 0.96927 0.0
O41 O 0.27899 0.92353 0.92187 0.0
C42 C 0.25841 0.27151 0.98138 0.0
O43 O 0.28588 0.28148 0.98058 0.0
Cd44 Cd 0.27461 0.30033 0.94876 0.0
O45 O 0.21786 0.27063 0.9651 0.0
Cd46 Cd 0.16778 0.28615 0.93574 0.0
C47 C 0.17736 0.30808 -0.00485 0.0
O48 O 0.23033 0.29624 0.90073 0.0
O49 O 0.15704 0.30535 0.90723 0.0
O50 O 0.11661 0.2717 0.90265 0.0
C51 C 0.19993 0.30521 0.89348 0.0
O52 O 0.21925 0.31222 0.98386 0.0
C53 C 0.07444 0.27519 0.9149 0.0
O54 O 0.15539 0.29836 0.98348 0.0
O55 O 0.07705 0.28302 0.93745 0.0
C56 C 0.98673 0.70001 0.72573 0.0
O57 O 0.01957 0.69156 0.73275 0.0
Cd58 Cd 0.03055 0.67045 0.71165 0.0
O59 O 0.9523 0.69791 0.70532 0.0
Cd60 Cd 0.9248 0.67847 0.67786 0.0
C61 C 0.92183 0.66211 0.74738 0.0
O62 O 0.00637 0.66979 0.6578 0.0
O63 O 0.93966 0.65769 0.65691 0.0
O64 O 0.87923 0.68827 0.63319 0.0
C65 C 0.98604 0.65936 0.64957 0.0
O66 O 0.96912 0.65944 0.74447 0.0
C67 C 0.8365 0.6833 0.64066 0.0
O68 O 0.89962 0.66941 0.72789 0.0
O69 O 0.83547 0.6768 0.66563 0.0
C70 C 0.84327 0.02609 0.71652 0.0
O71 O 0.80028 0.03157 0.71323 0.0
Cd72 Cd 0.7936 0.05435 0.70886 0.0
O73 O 0.88472 0.03234 0.71437 0.0
Cd74 Cd 0.91528 0.05379 0.70302 0.0
C75 C 0.86619 0.06218 0.77291 0.0
O76 O 0.84846 0.06114 0.66727 0.0
O77 O 0.8989 0.07534 0.68701 0.0
O78 O 0.97835 0.0444 0.66789 0.0
C79 C 0.86293 0.07266 0.66828 0.0
O80 O 0.82223 0.06206 0.76004 0.0
C81 C 0.01639 0.05014 0.67982 0.0
O82 O 0.90601 0.05898 0.75767 0.0
O83 O 0.00734 0.05746 0.70282 0.0
C84 C 0.00326 0.02948 0.05766 0.0
O85 O 0.01722 0.04104 0.05968 0.0
Cd86 Cd 0.96329 0.05916 0.07101 0.0
O87 O 0.95654 0.02634 0.0612 0.0
Cd88 Cd 0.87435 0.03726 0.06844 0.0
C89 C 0.89481 0.05599 0.00418 0.0
O90 O 0.89786 0.05324 0.10719 0.0
O91 O 0.82505 0.05552 0.08426 0.0
O92 O 0.82863 0.02092 0.09846 0.0
C93 C 0.85672 0.05957 0.10431 0.0
O94 O 0.92396 0.06315 0.0203 0.0
C95 C 0.7933 0.01968 0.07822 0.0
O96 O 0.87618 0.04581 0.01567 0.0
O97 O 0.79853 0.02585 0.05292 0.0
C98 C 0.71421 0.6864 0.041 0.0
O99 O 0.69259 0.6757 0.03707 0.0
Cd100 Cd 0.73662 0.65565 0.03372 0.0
O101 O 0.76271 0.68721 0.04301 0.0
Cd102 Cd 0.83545 0.67252 0.03844 0.0
C103 C 0.80003 0.66218 0.96673 0.0
O104 O 0.80656 0.65454 0.07004 0.0
O105 O 0.86802 0.65109 0.0373 0.0
O106 O 0.89396 0.68302 0.07548 0.0
C107 C 0.84111 0.64711 0.05987 0.0
O108 O 0.76833 0.65475 0.98005 0.0
C109 C 0.92911 0.68472 0.05535 0.0
O110 O 0.82515 0.67033 0.98249 0.0
O111 O 0.91901 0.68148 0.02746 0.0
C112 C 0.94068 0.78195 0.8377 0.0
O113 O 0.89813 0.78748 0.8333 0.0
Cd114 Cd 0.90069 0.80992 0.82033 0.0
O115 O 0.98121 0.78853 0.83947 0.0
Cd116 Cd 0.00793 0.81055 0.83625 0.0
C117 C 0.98419 0.80647 0.76109 0.0
O118 O 0.94108 0.82482 0.85663 0.0
O119 O 0.98577 0.83132 0.81714 0.0
O120 O 0.06846 0.80846 0.87989 0.0
C121 C 0.9557 0.83401 0.83946 0.0
O122 O 0.93868 0.81002 0.76731 0.0
C123 C 0.10691 0.8121 0.86401 0.0
O124 O 0.01657 0.80486 0.78277 0.0
O125 O 0.09858 0.81539 0.83595 0.0
C126 C 0.26929 0.43769 0.77805 0.0
O127 O 0.29938 0.43058 0.76264 0.0
Cd128 Cd 0.28166 0.4083 0.75568 0.0
O129 O 0.22874 0.43316 0.79003 0.0
Cd130 Cd 0.18461 0.41269 0.79144 0.0
C131 C 0.17296 0.41142 0.71398 0.0
O132 O 0.25591 0.39827 0.80416 0.0
O133 O 0.18807 0.38987 0.78405 0.0
O134 O 0.14636 0.41991 0.84103 0.0
C135 C 0.23083 0.38831 0.79742 0.0
O136 O 0.21804 0.40681 0.71364 0.0
C137 C 0.10139 0.4165 0.83349 0.0
O138 O 0.15378 0.41563 0.73919 0.0
O139 O 0.09616 0.41094 0.80737 0.0
C140 C 0.94824 0.44502 0.43175 0.0
O141 O 0.90819 0.43865 0.43771 0.0
Cd142 Cd 0.91395 0.41591 0.44726 0.0
O143 O 0.99072 0.43935 0.42817 0.0
Cd144 Cd 0.02361 0.41776 0.43135 0.0
C145 C 0.99574 0.41724 0.50749 0.0
O146 O 0.95984 0.40317 0.40885 0.0
O147 O 0.01156 0.39565 0.4438 0.0
O148 O 0.08448 0.41773 0.38741 0.0
C149 C 0.97935 0.39351 0.42226 0.0
O150 O 0.95085 0.41368 0.49995 0.0
C151 C 0.12369 0.4183 0.4049 0.0
O152 O 0.02801 0.42035 0.48671 0.0
O153 O 0.11614 0.41852 0.43416 0.0
C154 C 0.22989 0.76723 0.48018 0.0
O155 O 0.25852 0.77507 0.49442 0.0
Cd156 Cd 0.239 0.79735 0.49799 0.0
O157 O 0.18681 0.77073 0.46936 0.0
Cd158 Cd 0.13741 0.79056 0.47223 0.0
C159 C 0.14328 0.79594 0.54925 0.0
O160 O 0.20326 0.80427 0.44874 0.0
O161 O 0.13777 0.81369 0.46877 0.0
O162 O 0.08412 0.78239 0.42888 0.0
C163 C 0.17739 0.81438 0.45183 0.0
O164 O 0.18617 0.80124 0.54414 0.0
C165 C 0.04239 0.78595 0.44143 0.0
O166 O 0.12093 0.78983 0.52763 0.0
O167 O 0.04553 0.79143 0.46773 0.0
C168 C 0.96277 0.19398 0.15542 0.0
O169 O 0.98464 0.1836 0.16264 0.0
Cd170 Cd 0.94343 0.16374 0.17348 0.0
O171 O 0.91422 0.19454 0.15272 0.0
Cd172 Cd 0.84221 0.17959 0.16068 0.0
C173 C 0.87402 0.1742 0.23598 0.0
O174 O 0.87543 0.16009 0.13749 0.0
O175 O 0.81381 0.15798 0.17069 0.0
O176 O 0.78201 0.18533 0.11891 0.0
C177 C 0.84285 0.15288 0.15051 0.0
O178 O 0.90788 0.16646 0.22599 0.0
C179 C 0.74791 0.18949 0.1375 0.0
O180 O 0.84812 0.18099 0.21712 0.0
O181 O 0.75921 0.18975 0.16633 0.0
C182 C 0.7795 0.52973 0.21645 0.0
O183 O 0.75807 0.54022 0.20968 0.0
Cd184 Cd 0.79783 0.55932 0.19137 0.0
O185 O 0.8278 0.52826 0.21412 0.0
Cd186 Cd 0.90186 0.54194 0.2022 0.0
C187 C 0.86224 0.56257 0.2597 0.0
O188 O 0.86717 0.55339 0.15825 0.0
O189 O 0.93516 0.5613 0.17877 0.0
O190 O 0.95877 0.52631 0.17731 0.0
C191 C 0.90142 0.5619 0.15758 0.0
O192 O 0.82934 0.56736 0.24116 0.0
C193 C 0.99478 0.52785 0.19696 0.0
O194 O 0.88984 0.55314 0.25144 0.0
O195 O 0.98559 0.53515 0.21998 0.0
C196 C 0.94716 0.53309 0.51957 0.0
O197 O 0.98262 0.54109 0.51449 0.0
Cd198 Cd 0.98696 0.56281 0.53306 0.0
O199 O 0.90763 0.53612 0.53529 0.0
Cd200 Cd 0.87363 0.55606 0.55716 0.0
C201 C 0.88822 0.5712 0.48699 0.0
O202 O 0.94934 0.56499 0.58356 0.0
O203 O 0.88303 0.57706 0.57792 0.0
O204 O 0.82703 0.54522 0.59921 0.0
C205 C 0.92764 0.57559 0.58887 0.0
O206 O 0.9345 0.5734 0.4945 0.0
C207 C 0.78374 0.54982 0.59166 0.0
O208 O 0.85967 0.56429 0.50421 0.0
O209 O 0.78244 0.55682 0.56747 0.0
C210 C 0.76818 0.19988 0.55351 0.0
O211 O 0.72449 0.19508 0.54822 0.0
Cd212 Cd 0.71921 0.17324 0.53052 0.0
O213 O 0.80781 0.19296 0.55155 0.0
Cd214 Cd 0.83339 0.17136 0.54012 0.0
C215 C 0.795 0.17487 0.46602 0.0
O216 O 0.76547 0.15829 0.56295 0.0
O217 O 0.81341 0.14965 0.5274 0.0
O218 O 0.89136 0.16923 0.58432 0.0
C219 C 0.78044 0.14827 0.54894 0.0
O220 O 0.74975 0.17315 0.47625 0.0
C221 C 0.93202 0.16998 0.56821 0.0
O222 O 0.83269 0.17546 0.48472 0.0
O223 O 0.92705 0.1711 0.53883 0.0
C224 C 0.54643 0.2881 0.77247 0.0
O225 O 0.5227 0.2986 0.76981 0.0
Cd226 Cd 0.56114 0.31911 0.7781 0.0
O227 O 0.59419 0.28773 0.77823 0.0
Cd228 Cd 0.66566 0.30263 0.78449 0.0
C229 C 0.64099 0.31783 0.71563 0.0
O230 O 0.62073 0.31669 0.82024 0.0
O231 O 0.69488 0.32301 0.80483 0.0
O232 O 0.70954 0.28656 0.81647 0.0
C233 C 0.65578 0.32499 0.82162 0.0
O234 O 0.60386 0.32356 0.72881 0.0
C235 C 0.75242 0.28794 0.80287 0.0
O236 O 0.66621 0.30928 0.73004 0.0
O237 O 0.7541 0.29578 0.78035 0.0
C238 C 0.83155 0.93311 0.76331 0.0
O239 O 0.85746 0.92486 0.74849 0.0
Cd240 Cd 0.83169 0.90302 0.74448 0.0
O241 O 0.78964 0.93004 0.77637 0.0
Cd242 Cd 0.73826 0.91061 0.77686 0.0
C243 C 0.73146 0.90904 0.6992 0.0
O244 O 0.80136 0.89473 0.79415 0.0
O245 O 0.73484 0.8877 0.77 0.0
O246 O 0.69066 0.91781 0.82393 0.0
C247 C 0.77304 0.88536 0.78728 0.0
O248 O 0.77184 0.90227 0.7001 0.0
C249 C 0.64722 0.91523 0.8121 0.0
O250 O 0.71511 0.91441 0.72376 0.0
O251 O 0.64716 0.91047 0.78489 0.0
C252 C 0.51313 0.95421 0.42571 0.0
O253 O 0.46895 0.9497 0.43089 0.0
Cd254 Cd 0.4606 0.9271 0.44008 0.0
O255 O 0.55063 0.94675 0.42133 0.0
Cd256 Cd 0.56435 0.92388 0.41887 0.0
C257 C 0.55192 0.92404 0.49532 0.0
O258 O 0.48775 0.91268 0.39901 0.0
O259 O 0.53359 0.90338 0.43438 0.0
O260 O 0.61993 0.92518 0.3726 0.0
C261 C 0.49908 0.90255 0.4137 0.0
O262 O 0.50432 0.92256 0.49005 0.0
C263 C 0.65719 0.91953 0.38575 0.0
O264 O 0.58275 0.92617 0.47304 0.0
O265 O 0.65039 0.91581 0.41363 0.0
C266 C 0.78112 0.28138 0.4522 0.0
O267 O 0.80736 0.29154 0.45176 0.0
Cd268 Cd 0.78144 0.31161 0.42902 0.0
O269 O 0.73581 0.28105 0.44147 0.0
Cd270 Cd 0.67476 0.29669 0.42278 0.0
C271 C 0.69611 0.31589 0.48648 0.0
O272 O 0.72631 0.30861 0.38455 0.0
O273 O 0.65254 0.31607 0.3984 0.0
O274 O 0.62199 0.28219 0.39116 0.0
C275 C 0.69139 0.31689 0.38086 0.0
O276 O 0.73543 0.32056 0.4732 0.0
C277 C 0.58131 0.28448 0.40655 0.0
O278 O 0.67125 0.30682 0.47386 0.0
O279 O 0.58556 0.29172 0.43018 0.0
C280 C 0.4743 0.69274 0.1756 0.0
O281 O 0.51569 0.68657 0.17154 0.0
Cd282 Cd 0.52567 0.66609 0.14677 0.0
O283 O 0.43189 0.68889 0.16436 0.0
Cd284 Cd 0.39599 0.67146 0.13267 0.0
C285 C 0.43549 0.6508 0.19127 0.0
O286 O 0.47192 0.66753 0.10272 0.0
O287 O 0.40731 0.65667 0.08825 0.0
O288 O 0.33121 0.6861 0.11166 0.0
C289 C 0.45538 0.65816 0.08711 0.0
O290 O 0.48227 0.65196 0.18329 0.0
C291 C 0.29407 0.67867 0.11795 0.0
O292 O 0.40015 0.65704 0.17752 0.0
O293 O 0.30495 0.66812 0.13084 0.0
C294 C 0.26255 0.02741 0.21432 0.0
O295 O 0.23425 0.03721 0.21681 0.0
Cd296 Cd 0.25421 0.05828 0.19741 0.0
O297 O 0.30694 0.02804 0.20215 0.0
Cd298 Cd 0.36571 0.04407 0.18155 0.0
C299 C 0.35405 0.0631 0.2468 0.0
O300 O 0.30222 0.05504 0.15057 0.0
O301 O 0.37792 0.06292 0.14936 0.0
O302 O 0.41134 0.02745 0.15177 0.0
C303 C 0.3315 0.06385 0.14123 0.0
O304 O 0.31013 0.06686 0.23777 0.0
C305 C 0.45511 0.03109 0.16124 0.0
O306 O 0.37844 0.05454 0.23179 0.0
O307 O 0.45627 0.0404 0.18012 0.0
C308 C 0.53712 0.04142 0.51375 0.0
O309 O 0.56844 0.05041 0.50883 0.0
Cd310 Cd 0.54908 0.07214 0.52239 0.0
O311 O 0.49355 0.04365 0.52574 0.0
Cd312 Cd 0.44651 0.06294 0.53969 0.0
C313 C 0.46023 0.07488 0.46715 0.0
O314 O 0.5065 0.07476 0.57274 0.0
O315 O 0.44466 0.08533 0.55152 0.0
O316 O 0.39633 0.05184 0.57995 0.0
C317 C 0.47901 0.08473 0.57236 0.0
O318 O 0.50263 0.07955 0.47617 0.0
C319 C 0.35336 0.05519 0.56875 0.0
O320 O 0.43475 0.06767 0.48516 0.0
O321 O 0.35425 0.06174 0.54387 0.0
C322 C 0.33421 0.67547 0.47113 0.0
O323 O 0.30124 0.6666 0.47178 0.0
Cd324 Cd 0.32312 0.64466 0.47825 0.0
O325 O 0.38168 0.67313 0.47484 0.0
Cd326 Cd 0.43877 0.65491 0.48556 0.0
C327 C 0.40559 0.64111 0.41671 0.0
O328 O 0.3793 0.64561 0.5221 0.0
O329 O 0.4452 0.63404 0.51189 0.0
O330 O 0.48718 0.67044 0.51622 0.0
C331 C 0.40461 0.63563 0.52767 0.0
O332 O 0.36309 0.63801 0.42912 0.0
C333 C 0.53099 0.66649 0.5078 0.0
O334 O 0.4381 0.64776 0.43165 0.0
O335 O 0.53195 0.65731 0.48846 0.0
C336 C 0.49991 0.77307 0.29917 0.0
O337 O 0.46902 0.78229 0.29524 0.0
Cd338 Cd 0.48215 0.80448 0.30664 0.0
O339 O 0.54485 0.77492 0.30977 0.0
Cd340 Cd 0.59653 0.79372 0.32297 0.0
C341 C 0.57388 0.80749 0.25173 0.0
O342 O 0.53243 0.80544 0.35292 0.0
O343 O 0.60268 0.81529 0.3432 0.0
O344 O 0.65521 0.78231 0.35833 0.0
C345 C 0.55882 0.81547 0.35576 0.0
O346 O 0.53087 0.81166 0.2613 0.0
C347 C 0.69502 0.7858 0.34345 0.0
O348 O 0.60105 0.8002 0.26868 0.0
O349 O 0.68809 0.79252 0.31919 0.0
C350 C 0.65976 0.45312 0.31827 0.0
O351 O 0.70203 0.4472 0.31663 0.0
Cd352 Cd 0.70886 0.42581 0.29809 0.0
O353 O 0.61769 0.44727 0.31423 0.0
Cd354 Cd 0.58852 0.42543 0.30466 0.0
C355 C 0.6344 0.42903 0.23232 0.0
O356 O 0.65483 0.41229 0.32782 0.0
O357 O 0.61266 0.404 0.28933 0.0
O358 O 0.52313 0.4227 0.34515 0.0
C359 C 0.64535 0.40264 0.31098 0.0
O360 O 0.67866 0.42677 0.24359 0.0
C361 C 0.48581 0.42308 0.32615 0.0
O362 O 0.59534 0.42985 0.24991 0.0
O363 O 0.49632 0.42454 0.29743 0.0
C364 C 0.56285 0.46124 0.91694 0.0
O365 O 0.52645 0.45326 0.91645 0.0
Cd366 Cd 0.53956 0.43116 0.92844 0.0
O367 O 0.60853 0.45749 0.9215 0.0
Cd368 Cd 0.65246 0.43727 0.93103 0.0
C369 C 0.59361 0.43532 -0.00025 0.0
O370 O 0.60743 0.42166 0.89847 0.0
O371 O 0.64717 0.41462 0.93923 0.0
O372 O 0.72608 0.44203 0.89759 0.0
C373 C 0.62519 0.41222 0.91351 0.0
O374 O 0.55652 0.4303 0.9849 0.0
C375 C 0.75908 0.43961 0.91859 0.0
O376 O 0.63187 0.43989 0.98529 0.0
O377 O 0.74217 0.43677 0.94548 0.0
C378 C 0.63762 0.77181 0.96498 0.0
O379 O 0.68199 0.77669 0.96314 0.0
Cd380 Cd 0.70111 0.79886 0.95885 0.0
O381 O 0.59753 0.77863 0.96225 0.0
Cd382 Cd 0.57843 0.80127 0.95141 0.0
C383 C 0.63071 0.80815 0.02197 0.0
O384 O 0.64974 0.8059 0.91635 0.0
O385 O 0.60793 0.82207 0.93396 0.0
O386 O 0.50405 0.79568 0.91907 0.0
C387 C 0.64287 0.81782 0.91625 0.0
O388 O 0.67523 0.8075 0.00992 0.0
C389 C 0.47356 0.80307 0.93358 0.0
O390 O 0.59106 0.80566 0.00592 0.0
O391 O 0.49202 0.80941 0.95617 0.0
C392 C 0.42211 0.19965 0.7459 0.0
O393 O 0.4557 0.19262 0.75861 0.0
Cd394 Cd 0.44313 0.17078 0.77144 0.0
O395 O 0.37893 0.19519 0.73754 0.0
Cd396 Cd 0.3376 0.17401 0.73694 0.0
C397 C 0.33476 0.17286 0.81594 0.0
O398 O 0.41356 0.16193 0.72338 0.0
O399 O 0.34803 0.15071 0.73675 0.0
O400 O 0.29999 0.17584 0.68462 0.0
C401 C 0.39283 0.15109 0.72532 0.0
O402 O 0.38243 0.17035 0.81522 0.0
C403 C 0.25409 0.17591 0.69432 0.0
O404 O 0.31032 0.175 0.79085 0.0
O405 O 0.24719 0.17536 0.72363 0.0
C406 C 0.28662 0.53258 0.75906 0.0
O407 O 0.24683 0.53907 0.75319 0.0
Cd408 Cd 0.25478 0.56181 0.74727 0.0
O409 O 0.33042 0.53779 0.75879 0.0
Cd410 Cd 0.36864 0.5584 0.7471 0.0
C411 C 0.31929 0.56975 0.81356 0.0
O412 O 0.31367 0.56679 0.70549 0.0
O413 O 0.36119 0.58021 0.73055 0.0
O414 O 0.42691 0.54663 0.71361 0.0
C415 C 0.33361 0.57779 0.70692 0.0
O416 O 0.27752 0.57076 0.79847 0.0
C417 C 0.46759 0.55167 0.72398 0.0
O418 O 0.35849 0.56471 0.80095 0.0
O419 O 0.4626 0.55965 0.74614 0.0
C420 C 0.48959 0.54121 0.02609 0.0
O421 O 0.51668 0.55109 0.02139 0.0
Cd422 Cd 0.52309 0.57059 0.05051 0.0
O423 O 0.45772 0.54056 0.04869 0.0
Cd424 Cd 0.4227 0.55548 0.08826 0.0
C425 C 0.40284 0.57838 0.02992 0.0
O426 O 0.5045 0.56388 0.1019 0.0
O427 O 0.44433 0.57067 0.131 0.0
O428 O 0.38103 0.5382 0.11838 0.0
C429 C 0.49046 0.57183 0.12232 0.0
O430 O 0.44968 0.5817 0.02948 0.0
C431 C 0.33786 0.54389 0.11844 0.0
O432 O 0.38769 0.56927 0.04726 0.0
O433 O 0.33576 0.55466 0.10505 0.0
C434 C 0.19468 0.20262 0.12631 0.0
O435 O 0.15933 0.19763 0.11014 0.0
Cd436 Cd 0.15344 0.17478 0.10154 0.0
O437 O 0.2293 0.19541 0.13697 0.0
Cd438 Cd 0.26292 0.18008 0.10007 0.0
C439 C 0.19862 0.18145 0.03265 0.0
O440 O 0.22112 0.16135 0.1228 0.0
O441 O 0.26209 0.15886 0.07913 0.0
O442 O 0.34676 0.17793 0.12506 0.0
C443 C 0.23969 0.15386 0.10236 0.0
O444 O 0.16649 0.17397 0.04535 0.0
C445 C 0.37092 0.18425 0.10454 0.0
O446 O 0.23142 0.18727 0.04935 0.0
O447 O 0.34497 0.18857 0.08189 0.0
C448 C 0.98734 0.37019 0.42974 0.0
C449 C 0.97153 0.38039 0.41099 0.0
C450 C 0.99456 0.35806 0.41697 0.0
C451 C 0.98609 0.35617 0.38466 0.0
C452 C 0.96346 0.36599 0.36667 0.0
C453 C 0.9564 0.37806 0.38011 0.0
C454 C 0.01743 0.34776 0.43723 0.0
C455 C 0.95251 0.36423 0.33233 0.0
C456 C 0.0903 0.33708 0.34524 0.0
C457 C 0.06649 0.32532 0.34021 0.0
C458 C 0.06404 0.34716 0.35928 0.0
C459 C 0.01254 0.34546 0.36876 0.0
C460 C 0.98818 0.33359 0.36406 0.0
C461 C 0.01552 0.32362 0.34973 0.0
C462 C 0.09168 0.35966 0.36399 0.0
C463 C 0.93334 0.33146 0.37384 0.0
H464 H 0.99782 0.37189 0.4539 0.0
H465 H 0.94339 0.38589 0.36566 0.0
H466 H 1.00061 0.33834 0.43166 0.0
H467 H 0.0592 0.34718 0.43273 0.0
H468 H 0.01162 0.34976 0.46249 0.0
H469 H 0.92502 0.37147 0.32359 0.0
H470 H 0.98871 0.3652 0.31896 0.0
H471 H 0.93686 0.35462 0.32758 0.0
H472 H 0.12965 0.33846 0.33796 0.0
H473 H 0.99682 0.31457 0.34568 0.0
H474 H 0.09343 0.36199 0.38926 0.0
H475 H 0.07055 0.36746 0.35221 0.0
H476 H 0.13137 0.35946 0.35468 0.0
H477 H 0.92776 0.33427 0.39861 0.0
H478 H 0.9214 0.32139 0.37096 0.0
H479 H 0.9077 0.33753 0.35957 0.0
C480 C 0.15361 0.86759 0.33039 0.0
C481 C 0.18099 0.87892 0.33434 0.0
C482 C 0.16243 0.85713 0.34981 0.0
C483 C 0.20008 0.85799 0.37348 0.0
C484 C 0.2303 0.86909 0.37626 0.0
C485 C 0.22002 0.87953 0.35678 0.0
C486 C 0.12932 0.84543 0.34612 0.0
C487 C 0.27179 0.87016 0.40065 0.0
C488 C 0.16399 0.83743 0.44197 0.0
C489 C 0.19055 0.82619 0.43514 0.0
C490 C 0.16996 0.84826 0.42335 0.0
C491 C 0.20311 0.84777 0.39721 0.0
C492 C 0.23292 0.83676 0.39157 0.0
C493 C 0.22636 0.82606 0.41073 0.0
C494 C 0.13777 0.85988 0.43026 0.0
C495 C 0.26872 0.83592 0.36395 0.0
H496 H 0.12364 0.86704 0.31294 0.0
H497 H 0.24176 0.88824 0.35959 0.0
H498 H 0.15343 0.83677 0.34433 0.0
H499 H 0.10457 0.84433 0.36703 0.0
H500 H 0.10441 0.84596 0.32513 0.0
H501 H 0.29661 0.87859 0.39676 0.0
H502 H 0.25413 0.87098 0.42414 0.0
H503 H 0.29606 0.86148 0.40069 0.0
H504 H 0.13684 0.83763 0.46114 0.0
H505 H 0.24727 0.81739 0.40553 0.0
H506 H 0.10823 0.86098 0.41184 0.0
H507 H 0.16173 0.86858 0.43005 0.0
H508 H 0.11819 0.85921 0.45326 0.0
H509 H 0.24612 0.83443 0.34233 0.0
H510 H 0.2961 0.82789 0.3663 0.0
H511 H 0.29045 0.8449 0.36105 0.0
C512 C 0.10479 0.89004 0.86392 0.0
C513 C 0.08936 0.90239 0.87163 0.0
C514 C 0.06881 0.88038 0.85905 0.0
C515 C 0.01589 0.8831 0.86242 0.0
C516 C 0.99985 0.89566 0.86928 0.0
C517 C 0.03688 0.9052 0.87363 0.0
C518 C 0.0877 0.86717 0.85099 0.0
C519 C 0.94403 0.89895 0.87355 0.0
C520 C 0.94705 0.85642 0.82333 0.0
C521 C 0.94776 0.84745 0.84753 0.0
C522 C 0.96213 0.86901 0.82877 0.0
C523 C 0.9786 0.87253 0.85903 0.0
C524 C 0.97074 0.86408 0.88438 0.0
C525 C 0.95537 0.85152 0.8783 0.0
C526 C 0.96766 0.87788 0.80129 0.0
C527 C 0.98519 0.86775 0.91728 0.0
H528 H 0.14527 0.88786 0.8622 0.0
H529 H 0.02469 0.91474 0.87978 0.0
H530 H 0.07706 0.86043 0.86985 0.0
H531 H 0.06943 0.8638 0.8291 0.0
H532 H 0.12989 0.86682 0.84788 0.0
H533 H 0.93217 0.89634 0.8976 0.0
H534 H 0.93705 0.9093 0.87039 0.0
H535 H 0.91933 0.89359 0.85707 0.0
H536 H 0.94004 0.85328 0.79956 0.0
H537 H 0.95523 0.84461 0.8971 0.0
H538 H 0.00806 0.8778 0.79325 0.0
H539 H 0.95782 0.8878 0.80789 0.0
H540 H 0.94298 0.87491 0.78145 0.0
H541 H 0.02731 0.86697 0.92003 0.0
H542 H 0.96676 0.86142 0.93476 0.0
H543 H 0.97413 0.87774 0.92223 0.0
C544 C 0.23339 0.36517 0.78657 0.0
C545 C 0.24917 0.37546 0.80498 0.0
C546 C 0.2396 0.35266 0.79708 0.0
C547 C 0.26056 0.35052 0.82708 0.0
C548 C 0.28211 0.3608 0.844 0.0
C549 C 0.27647 0.37323 0.83255 0.0
C550 C 0.2178 0.34192 0.7778 0.0
C551 C 0.30508 0.3589 0.87599 0.0
C552 C 0.18391 0.32703 0.8742 0.0
C553 C 0.21628 0.31641 0.87528 0.0
C554 C 0.1986 0.33817 0.85899 0.0
C555 C 0.24667 0.33867 0.84378 0.0
C556 C 0.27937 0.32792 0.84412 0.0
C557 C 0.26395 0.31689 0.86024 0.0
C558 C 0.16238 0.34942 0.85932 0.0
C559 C 0.33058 0.32809 0.82782 0.0
H560 H 0.21337 0.36692 0.76479 0.0
H561 H 0.28918 0.38123 0.84658 0.0
H562 H 0.24219 0.3333 0.77946 0.0
H563 H 0.17926 0.33943 0.78682 0.0
H564 H 0.21392 0.34463 0.75283 0.0
H565 H 0.32922 0.36711 0.88304 0.0
H566 H 0.2738 0.35785 0.89337 0.0
H567 H 0.32854 0.35011 0.87675 0.0
H568 H 0.14702 0.32677 0.88579 0.0
H569 H 0.28912 0.30869 0.86109 0.0
H570 H 0.15044 0.35176 0.83513 0.0
H571 H 0.18185 0.35791 0.8691 0.0
H572 H 0.12741 0.34758 0.87338 0.0
H573 H 0.32698 0.33216 0.80401 0.0
H574 H 0.34754 0.31841 0.826 0.0
H575 H 0.35744 0.33422 0.84106 0.0
C576 C 0.00809 0.5878 0.60032 0.0
C577 C 0.95473 0.58658 0.6024 0.0
C578 C 0.03223 0.59929 0.60869 0.0
C579 C 0.00208 0.60961 0.61945 0.0
C580 C 0.94855 0.60805 0.62333 0.0
C581 C 0.9257 0.59658 0.61469 0.0
C582 C 0.08937 0.60057 0.60474 0.0
C583 C 0.91468 0.61871 0.63515 0.0
C584 C 0.0301 0.63947 0.66285 0.0
C585 C 0.01597 0.64828 0.63992 0.0
C586 C 0.03456 0.62651 0.65548 0.0
C587 C 0.02415 0.62246 0.62457 0.0
C588 C 0.0187 0.63165 0.60055 0.0
C589 C 0.01404 0.64453 0.60864 0.0
C590 C 0.04157 0.6171 0.68172 0.0
C591 C 0.00877 0.62779 0.56713 0.0
H592 H 0.03057 0.58004 0.59077 0.0
H593 H 0.88451 0.59557 0.61666 0.0
H594 H 0.09786 0.60763 0.58619 0.0
H595 H 0.10697 0.60416 0.62662 0.0
H596 H 0.10775 0.59139 0.59835 0.0
H597 H 0.87424 0.61568 0.6381 0.0
H598 H 0.9288 0.62225 0.65799 0.0
H599 H 0.91554 0.62679 0.61848 0.0
H600 H 0.03128 0.64245 0.68713 0.0
H601 H 0.00285 0.65139 0.591 0.0
H602 H 0.06189 0.60843 0.67366 0.0
H603 H 0.00344 0.61417 0.69061 0.0
H604 H 0.06316 0.6214 0.70144 0.0
H605 H 0.03168 0.61931 0.56056 0.0
H606 H 0.01768 0.63566 0.55068 0.0
H607 H 0.96771 0.62532 0.56444 0.0
C608 C 0.86132 0.09466 0.64753 0.0
C609 C 0.83817 0.08269 0.64957 0.0
C610 C 0.83969 0.10434 0.62953 0.0
C611 C 0.79326 0.10204 0.61341 0.0
C612 C 0.76876 0.09009 0.61602 0.0
C613 C 0.79188 0.08046 0.6339 0.0
C614 C 0.86732 0.11695 0.62725 0.0
C615 C 0.71886 0.08739 0.59957 0.0
C616 C 0.74305 0.13397 0.58954 0.0
C617 C 0.76877 0.13546 0.56102 0.0
C618 C 0.74468 0.12232 0.60548 0.0
C619 C 0.77311 0.11211 0.59258 0.0
C620 C 0.79294 0.11309 0.56192 0.0
C621 C 0.79033 0.12478 0.54641 0.0
C622 C 0.72127 0.12146 0.63765 0.0
C623 C 0.82291 0.10237 0.54711 0.0
H624 H 0.89708 0.09642 0.65961 0.0
H625 H 0.77369 0.07122 0.63566 0.0
H626 H 0.87779 0.11889 0.60257 0.0
H627 H 0.8419 0.12477 0.63518 0.0
H628 H 0.90278 0.11718 0.64154 0.0
H629 H 0.70036 0.07859 0.60844 0.0
H630 H 0.69187 0.09546 0.60239 0.0
H631 H 0.72599 0.08618 0.57419 0.0
H632 H 0.7252 0.14213 0.60063 0.0
H633 H 0.80908 0.12579 0.52394 0.0
H634 H 0.75135 0.12319 0.65544 0.0
H635 H 0.70511 0.11185 0.64192 0.0
H636 H 0.69061 0.12867 0.64096 0.0
H637 H 0.86174 0.10203 0.55759 0.0
H638 H 0.82712 0.1037 0.52147 0.0
H639 H 0.80432 0.09307 0.5515 0.0
C640 C 0.87087 0.13361 0.12115 0.0
C641 C 0.84451 0.13896 0.14645 0.0
C642 C 0.87263 0.12039 0.11699 0.0
C643 C 0.84808 0.11237 0.13895 0.0
C644 C 0.82226 0.11772 0.16489 0.0
C645 C 0.82037 0.13098 0.16818 0.0
C646 C 0.89988 0.11501 0.08876 0.0
C647 C 0.7963 0.10943 0.18897 0.0
C648 C 0.80965 0.08009 0.10804 0.0
C649 C 0.85137 0.07254 0.1171 0.0
C650 C 0.80731 0.093 0.11592 0.0
C651 C 0.84729 0.09844 0.13371 0.0
C652 C 0.88797 0.09071 0.14457 0.0
C653 C 0.8897 0.07783 0.13596 0.0
C654 C 0.76341 0.10095 0.10378 0.0
C655 C 0.93072 0.09618 0.16412 0.0
H656 H 0.8895 0.13977 0.10433 0.0
H657 H 0.80034 0.13509 0.18796 0.0
H658 H 0.9301 0.10825 0.09624 0.0
H659 H 0.87241 0.10962 0.07408 0.0
H660 H 0.91775 0.12254 0.0742 0.0
H661 H 0.7805 0.11506 0.20874 0.0
H662 H 0.7646 0.10405 0.17794 0.0
H663 H 0.8238 0.10235 0.19836 0.0
H664 H 0.77968 0.07605 0.09362 0.0
H665 H 0.92185 0.07201 0.14319 0.0
H666 H 0.77813 0.10811 0.08698 0.0
H667 H 0.74493 0.10623 0.1232 0.0
H668 H 0.7339 0.09511 0.09183 0.0
H669 H 0.95387 0.10281 0.14973 0.0
H670 H 0.95641 0.08867 0.17347 0.0
H671 H 0.91488 0.10173 0.18397 0.0
C672 C 0.9266 0.58408 0.14447 0.0
C673 C 0.89473 0.57359 0.13907 0.0
C674 C 0.9171 0.59577 0.13 0.0
C675 C 0.87512 0.59692 0.10935 0.0
C676 C 0.84408 0.58623 0.10273 0.0
C677 C 0.85416 0.57466 0.11781 0.0
C678 C 0.95094 0.60701 0.13765 0.0
C679 C 0.79948 0.58711 0.0804 0.0
C680 C 0.82231 0.63019 0.09909 0.0
C681 C 0.84725 0.63405 0.07173 0.0
C682 C 0.83009 0.61797 0.11125 0.0
C683 C 0.86315 0.60944 0.09541 0.0
C684 C 0.8871 0.61315 0.06725 0.0
C685 C 0.87909 0.62546 0.05583 0.0
C686 C 0.80421 0.61431 0.1415 0.0
C687 C 0.92209 0.60423 0.04959 0.0
H688 H 0.95809 0.58329 0.16084 0.0
H689 H 0.82957 0.56655 0.11348 0.0
H690 H 0.96742 0.61104 0.11592 0.0
H691 H 0.92783 0.61461 0.14886 0.0
H692 H 0.98279 0.60442 0.15361 0.0
H693 H 0.78129 0.57771 0.07619 0.0
H694 H 0.77016 0.59369 0.08998 0.0
H695 H 0.81225 0.59107 0.05768 0.0
H696 H 0.79763 0.63682 0.11138 0.0
H697 H 0.89813 0.62838 0.03449 0.0
H698 H 0.83355 0.61244 0.15967 0.0
H699 H 0.782 0.60541 0.13835 0.0
H700 H 0.778 0.62186 0.15018 0.0
H701 H 0.95646 0.60212 0.06388 0.0
H702 H 0.93479 0.60828 0.0269 0.0
H703 H 0.90245 0.59505 0.04509 0.0
C704 C 0.60345 0.39655 0.87167 0.0
C705 C 0.62089 0.39905 0.902 0.0
C706 C 0.60454 0.38415 0.85955 0.0
C707 C 0.62333 0.3741 0.87834 0.0
C708 C 0.63852 0.37648 0.90949 0.0
C709 C 0.63722 0.38895 0.92093 0.0
C710 C 0.58796 0.38192 0.8262 0.0
C711 C 0.65847 0.36596 0.93025 0.0
C712 C 0.60135 0.34003 0.85234 0.0
C713 C 0.64803 0.33726 0.83762 0.0
C714 C 0.59267 0.35201 0.86586 0.0
C715 C 0.6316 0.36133 0.86457 0.0
C716 C 0.67904 0.3585 0.85019 0.0
C717 C 0.68667 0.34648 0.83693 0.0
C718 C 0.54175 0.35472 0.88118 0.0
C719 C 0.72156 0.36822 0.84852 0.0
H720 H 0.59065 0.40434 0.85702 0.0
H721 H 0.65032 0.39081 0.94453 0.0
H722 H 0.62167 0.37922 0.81185 0.0
H723 H 0.56036 0.37392 0.82499 0.0
H724 H 0.57002 0.39049 0.8157 0.0
H725 H 0.66397 0.36918 0.95476 0.0
H726 H 0.63176 0.35777 0.93017 0.0
H727 H 0.69574 0.36251 0.92114 0.0
H728 H 0.57141 0.33294 0.85291 0.0
H729 H 0.72295 0.34436 0.82561 0.0
H730 H 0.52258 0.36276 0.86914 0.0
H731 H 0.54761 0.35763 0.90585 0.0
H732 H 0.51584 0.34635 0.88069 0.0
H733 H 0.70818 0.37679 0.83577 0.0
H734 H 0.75621 0.36446 0.83656 0.0
H735 H 0.73245 0.3713 0.8724 0.0
C736 C 0.72148 0.82196 0.88424 0.0
C737 C 0.67658 0.82645 0.89855 0.0
C738 C 0.75241 0.83011 0.86636 0.0
C739 C 0.73717 0.84291 0.86222 0.0
C740 C 0.69296 0.84758 0.87768 0.0
C741 C 0.66345 0.83931 0.89578 0.0
C742 C 0.79986 0.82481 0.85096 0.0
C743 C 0.67521 0.8612 0.87389 0.0
C744 C 0.80579 0.87134 0.8299 0.0
C745 C 0.77888 0.87276 0.80179 0.0
C746 C 0.79788 0.86058 0.84871 0.0
C747 C 0.76249 0.8512 0.83887 0.0
C748 C 0.74169 0.85173 0.8084 0.0
C749 C 0.75011 0.86256 0.7902 0.0
C750 C 0.82268 0.85995 0.88047 0.0
C751 C 0.70511 0.84171 0.79659 0.0
H752 H 0.73224 0.81204 0.88672 0.0
H753 H 0.62904 0.84284 0.907 0.0
H754 H 0.78986 0.82117 0.8274 0.0
H755 H 0.82992 0.83217 0.84814 0.0
H756 H 0.81589 0.81675 0.8646 0.0
H757 H 0.6415 0.86344 0.88875 0.0
H758 H 0.7065 0.86787 0.88001 0.0
H759 H 0.66471 0.86297 0.84914 0.0
H760 H 0.82923 0.87909 0.83855 0.0
H761 H 0.7306 0.86348 0.76795 0.0
H762 H 0.85502 0.86676 0.88254 0.0
H763 H 0.83679 0.85018 0.88522 0.0
H764 H 0.79398 0.86232 0.8987 0.0
H765 H 0.71988 0.83204 0.80171 0.0
H766 H 0.69847 0.84253 0.77103 0.0
H767 H 0.66777 0.84277 0.80872 0.0
C768 C 0.48329 0.82893 0.37048 0.0
C769 C 0.53637 0.82756 0.36667 0.0
C770 C 0.46181 0.8408 0.3782 0.0
C771 C 0.49432 0.85145 0.38203 0.0
C772 C 0.548 0.85 0.37875 0.0
C773 C 0.56825 0.83809 0.37111 0.0
C774 C 0.40447 0.84195 0.38118 0.0
C775 C 0.58429 0.86107 0.38315 0.0
C776 C 0.46919 0.88643 0.37514 0.0
C777 C 0.47755 0.89 0.40622 0.0
C778 C 0.46722 0.87349 0.36695 0.0
C779 C 0.47385 0.86416 0.39048 0.0
C780 C 0.47396 0.86782 0.42226 0.0
C781 C 0.47614 0.88075 0.42977 0.0
C782 C 0.46472 0.86987 0.33289 0.0
C783 C 0.479 0.85814 0.44813 0.0
H784 H 0.45841 0.82083 0.36671 0.0
H785 H 0.60928 0.83706 0.36828 0.0
H786 H 0.39334 0.84871 0.39991 0.0
H787 H 0.38871 0.84559 0.35885 0.0
H788 H 0.3865 0.83258 0.38605 0.0
H789 H 0.62495 0.85829 0.37978 0.0
H790 H 0.57504 0.86875 0.36629 0.0
H791 H 0.57998 0.86507 0.40702 0.0
H792 H 0.46964 0.89362 0.35696 0.0
H793 H 0.48137 0.88358 0.45394 0.0
H794 H 0.44042 0.86132 0.32958 0.0
H795 H 0.50377 0.86752 0.32445 0.0
H796 H 0.44939 0.87776 0.31836 0.0
H797 H 0.45446 0.84974 0.44354 0.0
H798 H 0.46856 0.86224 0.47122 0.0
H799 H 0.51927 0.8548 0.44931 0.0
C800 C 0.74581 0.33268 0.35202 0.0
C801 C 0.69748 0.32816 0.36092 0.0
C802 C 0.75093 0.34474 0.33815 0.0
C803 C 0.70671 0.35234 0.33371 0.0
C804 C 0.65767 0.34734 0.34062 0.0
C805 C 0.65378 0.33528 0.35381 0.0
C806 C 0.8038 0.34948 0.3301 0.0
C807 C 0.60923 0.35505 0.33623 0.0
C808 C 0.69357 0.38741 0.34412 0.0
C809 C 0.67363 0.39066 0.31487 0.0
C810 C 0.71159 0.37507 0.34976 0.0
C811 C 0.71016 0.36597 0.32535 0.0
C812 C 0.69732 0.36981 0.29471 0.0
C813 C 0.678 0.38208 0.28989 0.0
C814 C 0.72629 0.37141 0.38265 0.0
C815 C 0.69903 0.36057 0.26773 0.0
H816 H 0.77971 0.32712 0.35731 0.0
H817 H 0.6163 0.33166 0.36008 0.0
H818 H 0.80301 0.35701 0.31195 0.0
H819 H 0.82204 0.35343 0.35141 0.0
H820 H 0.82826 0.34152 0.32174 0.0
H821 H 0.57431 0.34968 0.34294 0.0
H822 H 0.61095 0.36383 0.35064 0.0
H823 H 0.60528 0.35798 0.31147 0.0
H824 H 0.69132 0.39417 0.36324 0.0
H825 H 0.66439 0.38478 0.2669 0.0
H826 H 0.76229 0.36582 0.38256 0.0
H827 H 0.69586 0.36533 0.39287 0.0
H828 H 0.73147 0.37986 0.39794 0.0
H829 H 0.73255 0.35413 0.26978 0.0
H830 H 0.70086 0.36561 0.24495 0.0
H831 H 0.664 0.35461 0.26792 0.0
C832 C 0.49214 0.59419 0.14154 0.0
C833 C 0.51529 0.58447 0.12415 0.0
C834 C 0.50167 0.60699 0.13447 0.0
C835 C 0.53422 0.61001 0.10902 0.0
C836 C 0.56388 0.60032 0.09496 0.0
C837 C 0.5548 0.5876 0.10325 0.0
C838 C 0.4718 0.61715 0.15159 0.0
C839 C 0.60045 0.60309 0.06855 0.0
C840 C 0.46546 0.63612 0.06721 0.0
C841 C 0.48763 0.64681 0.08129 0.0
C842 C 0.48511 0.62394 0.07273 0.0
C843 C 0.52722 0.62248 0.09327 0.0
C844 C 0.55464 0.63335 0.10319 0.0
C845 C 0.53508 0.64548 0.09631 0.0
C846 C 0.45683 0.61258 0.05971 0.0
C847 C 0.60083 0.63229 0.12413 0.0
H848 H 0.46302 0.59185 0.15865 0.0
H849 H 0.57507 0.58012 0.09096 0.0
H850 H 0.49651 0.62546 0.15679 0.0
H851 H 0.43982 0.62049 0.13662 0.0
H852 H 0.45546 0.61354 0.17386 0.0
H853 H 0.6322 0.59605 0.06809 0.0
H854 H 0.5796 0.60235 0.04604 0.0
H855 H 0.61679 0.6128 0.07025 0.0
H856 H 0.4299 0.63714 0.0544 0.0
H857 H 0.55447 0.65377 0.10539 0.0
H858 H 0.43441 0.60798 0.07862 0.0
H859 H 0.48427 0.60545 0.05048 0.0
H860 H 0.43007 0.6153 0.04069 0.0
H861 H 0.58802 0.63238 0.14887 0.0
H862 H 0.62701 0.6405 0.12071 0.0
H863 H 0.62232 0.62334 0.12001 0.0
C864 C 0.23483 0.13433 0.13525 0.0
C865 C 0.23798 0.13992 0.10566 0.0
C866 C 0.24251 0.1212 0.13895 0.0
C867 C 0.25257 0.11357 0.11232 0.0
C868 C 0.2512 0.11904 0.08216 0.0
C869 C 0.24447 0.1322 0.07921 0.0
C870 C 0.24404 0.11571 0.17153 0.0
C871 C 0.2605 0.11116 0.05317 0.0
C872 C 0.34454 0.08638 0.1257 0.0
C873 C 0.31123 0.07606 0.12957 0.0
C874 C 0.32577 0.09858 0.11943 0.0
C875 C 0.27237 0.10046 0.11638 0.0
C876 C 0.23865 0.08996 0.11846 0.0
C877 C 0.2585 0.07785 0.12527 0.0
C878 C 0.36305 0.10954 0.11739 0.0
C879 C 0.18162 0.0916 0.11459 0.0
H880 H 0.22967 0.1403 0.15569 0.0
H881 H 0.24606 0.13651 0.05621 0.0
H882 H 0.22094 0.10688 0.17282 0.0
H883 H 0.28407 0.11315 0.17751 0.0
H884 H 0.22963 0.12254 0.18932 0.0
H885 H 0.24937 0.11633 0.03158 0.0
H886 H 0.30176 0.10875 0.05152 0.0
H887 H 0.23891 0.10209 0.05427 0.0
H888 H 0.38536 0.08506 0.12883 0.0
H889 H 0.23261 0.06988 0.12812 0.0
H890 H 0.35464 0.11657 0.13608 0.0
H891 H 0.35882 0.1145 0.09467 0.0
H892 H 0.40346 0.10641 0.11982 0.0
H893 H 0.16601 0.09699 0.13477 0.0
H894 H 0.16141 0.08232 0.11313 0.0
H895 H 0.17308 0.09718 0.09323 0.0
C896 C 0.50399 0.09199 0.62592 0.0
C897 C 0.48197 0.0946 0.59674 0.0
C898 C 0.49823 0.10055 0.65093 0.0
C899 C 0.46998 0.1119 0.64636 0.0
C900 C 0.45074 0.11492 0.61636 0.0
C901 C 0.45695 0.10622 0.59195 0.0
C902 C 0.51968 0.0971 0.68253 0.0
C903 C 0.42106 0.12703 0.61036 0.0
C904 C 0.38979 0.12851 0.70717 0.0
C905 C 0.41734 0.13983 0.71107 0.0
C906 C 0.40891 0.11871 0.68823 0.0
C907 C 0.45661 0.12031 0.67298 0.0
C908 C 0.48672 0.13118 0.67931 0.0
C909 C 0.46664 0.14084 0.69828 0.0
C910 C 0.37595 0.10716 0.68234 0.0
C911 C 0.53809 0.13313 0.66387 0.0
H912 H 0.52334 0.08299 0.62968 0.0
H913 H 0.4404 0.10832 0.5693 0.0
H914 H 0.53822 0.10545 0.69365 0.0
H915 H 0.48804 0.09403 0.69807 0.0
H916 H 0.54798 0.08923 0.68095 0.0
H917 H 0.41154 0.12829 0.58525 0.0
H918 H 0.38484 0.12689 0.62391 0.0
H919 H 0.44336 0.13541 0.61825 0.0
H920 H 0.35194 0.12762 0.71732 0.0
H921 H 0.48855 0.14949 0.70167 0.0
H922 H 0.39911 0.09832 0.68373 0.0
H923 H 0.35971 0.10769 0.65841 0.0
H924 H 0.34381 0.10647 0.69926 0.0
H925 H 0.56071 0.1242 0.66386 0.0
H926 H 0.56065 0.14071 0.67563 0.0
H927 H 0.53221 0.13596 0.63915 0.0
C928 C 0.33922 0.62795 0.5656 0.0
C929 C 0.38707 0.62636 0.55119 0.0
C930 C 0.32335 0.61981 0.58963 0.0
C931 C 0.35634 0.60995 0.59955 0.0
C932 C 0.40383 0.608 0.58428 0.0
C933 C 0.41859 0.61623 0.56017 0.0
C934 C 0.27227 0.62209 0.60521 0.0
C935 C 0.44 0.59755 0.59431 0.0
C936 C 0.35446 0.59875 0.68331 0.0
C937 C 0.3317 0.58674 0.68043 0.0
C938 C 0.3607 0.60664 0.65728 0.0
C939 C 0.34363 0.6024 0.62769 0.0
C940 C 0.31782 0.59062 0.62492 0.0
C941 C 0.31212 0.58289 0.65142 0.0
C942 C 0.38799 0.61921 0.6612 0.0
C943 C 0.29862 0.58589 0.59374 0.0
H944 H 0.31446 0.63571 0.55851 0.0
H945 H 0.45548 0.61495 0.54899 0.0
H946 H 0.25018 0.6131 0.60664 0.0
H947 H 0.27844 0.62548 0.62949 0.0
H948 H 0.24895 0.62929 0.59262 0.0
H949 H 0.47376 0.59675 0.57863 0.0
H950 H 0.45372 0.59947 0.6184 0.0
H951 H 0.41986 0.58827 0.5947 0.0
H952 H 0.36924 0.60182 0.70575 0.0
H953 H 0.29434 0.57362 0.64911 0.0
H954 H 0.36495 0.62703 0.65096 0.0
H955 H 0.42503 0.61893 0.64851 0.0
H956 H 0.39568 0.62149 0.68612 0.0
H957 H 0.27621 0.59341 0.58175 0.0
H958 H 0.27434 0.57727 0.59613 0.0
H959 H 0.33167 0.58353 0.5785 0.0
C960 C 0.52482 0.27382 0.36708 0.0
C961 C 0.5302 0.28058 0.39517 0.0
C962 C 0.47669 0.27256 0.35277 0.0
C963 C 0.43336 0.27836 0.3667 0.0
C964 C 0.438 0.28426 0.39629 0.0
C965 C 0.48629 0.28521 0.41028 0.0
C966 C 0.47297 0.26586 0.32166 0.0
C967 C 0.39288 0.29063 0.41193 0.0
C968 C 0.33301 0.2935 0.31498 0.0
C969 C 0.29082 0.2855 0.31963 0.0
C970 C 0.38005 0.291 0.32937 0.0
C971 C 0.3854 0.28009 0.34851 0.0
C972 C 0.34373 0.27162 0.3521 0.0
C973 C 0.29664 0.27449 0.33785 0.0
C974 C 0.42336 0.30037 0.32516 0.0
C975 C 0.34839 0.25975 0.37174 0.0
H976 H 0.55851 0.27011 0.35541 0.0
H977 H 0.48999 0.29034 0.43215 0.0
H978 H 0.43814 0.25984 0.3206 0.0
H979 H 0.47007 0.27303 0.30273 0.0
H980 H 0.50704 0.2598 0.31703 0.0
H981 H 0.40155 0.29354 0.43633 0.0
H982 H 0.38201 0.29925 0.39849 0.0
H983 H 0.35926 0.28421 0.41219 0.0
H984 H 0.32884 0.30201 0.3009 0.0
H985 H 0.26425 0.26821 0.34131 0.0
H986 H 0.45796 0.29542 0.31631 0.0
H987 H 0.43336 0.30468 0.34805 0.0
H988 H 0.41347 0.30815 0.30866 0.0
H989 H 0.38398 0.25451 0.3658 0.0
H990 H 0.31519 0.25328 0.36857 0.0
H991 H 0.35077 0.26241 0.39679 0.0
C992 C 0.92677 0.90783 0.30001 0.0
C993 C 0.96376 0.91533 0.31497 0.0
C994 C 0.87533 0.90824 0.30933 0.0
C995 C 0.86055 0.91649 0.33389 0.0
C996 C 0.89753 0.9243 0.34858 0.0
C997 C 0.94882 0.92356 0.3391 0.0
C998 C 0.83707 0.89963 0.29346 0.0
C999 C 0.88304 0.93333 0.37463 0.0
C1000 C 0.72087 0.92549 0.34467 0.0
C1001 C 0.70731 0.91794 0.37033 0.0
C1002 C 0.77048 0.92497 0.3321 0.0
C1003 C 0.80687 0.91655 0.34527 0.0
C1004 C 0.79265 0.90852 0.37034 0.0
C1005 C 0.74314 0.90939 0.38272 0.0
C1006 C 0.78451 0.93375 0.30555 0.0
C1007 C 0.83015 0.89926 0.38466 0.0
H1008 H 0.93818 0.90142 0.28139 0.0
H1009 H 0.97724 0.92943 0.35059 0.0
H1010 H 0.82078 0.89288 0.31074 0.0
H1011 H 0.80482 0.90531 0.28401 0.0
H1012 H 0.85445 0.89407 0.27406 0.0
H1013 H 0.91585 0.93925 0.38243 0.0
H1014 H 0.85172 0.93972 0.36689 0.0
H1015 H 0.8686 0.92786 0.39497 0.0
H1016 H 0.69331 0.93216 0.33514 0.0
H1017 H 0.73268 0.90346 0.40244 0.0
H1018 H 0.80079 0.92823 0.2858 0.0
H1019 H 0.81442 0.94053 0.31341 0.0
H1020 H 0.75113 0.93928 0.29693 0.0
H1021 H 0.84707 0.89311 0.36628 0.0
H1022 H 0.812 0.8931 0.4026 0.0
H1023 H 0.862 0.90457 0.39578 0.0
C1024 C 0.55361 0.91183 0.81802 0.0
C1025 C 0.59839 0.91784 0.82834 0.0
C1026 C 0.50608 0.91459 0.83153 0.0
C1027 C 0.50301 0.92375 0.85572 0.0
C1028 C 0.54812 0.92982 0.86648 0.0
C1029 C 0.5955 0.9267 0.8528 0.0
C1030 C 0.45907 0.90773 0.81976 0.0
C1031 C 0.54614 0.93973 0.892 0.0
C1032 C 0.36924 0.93725 0.8659 0.0
C1033 C 0.3503 0.92969 0.89026 0.0
C1034 C 0.42003 0.93595 0.85556 0.0
C1035 C 0.45231 0.92677 0.86971 0.0
C1036 C 0.43399 0.9195 0.89516 0.0
C1037 C 0.38332 0.92109 0.90521 0.0
C1038 C 0.43844 0.94399 0.82859 0.0
C1039 C 0.46698 0.90953 0.91068 0.0
H1040 H 0.55567 0.90492 0.79923 0.0
H1041 H 0.63001 0.93144 0.86067 0.0
H1042 H 0.43991 0.90272 0.83935 0.0
H1043 H 0.4313 0.9147 0.81017 0.0
H1044 H 0.46824 0.90067 0.80126 0.0
H1045 H 0.58467 0.94348 0.89791 0.0
H1046 H 0.5215 0.94778 0.88457 0.0
H1047 H 0.52875 0.93564 0.9134 0.0
H1048 H 0.34407 0.94398 0.85441 0.0
H1049 H 0.36909 0.91523 0.92415 0.0
H1050 H 0.44398 0.93789 0.80768 0.0
H1051 H 0.47597 0.94836 0.8342 0.0
H1052 H 0.41089 0.95167 0.8226 0.0
H1053 H 0.4743 0.90164 0.89403 0.0
H1054 H 0.44871 0.90553 0.93196 0.0
H1055 H 0.50463 0.9136 0.91723 0.0
C1056 C 0.79712 0.27126 0.83467 0.0
C1057 C 0.79949 0.28186 0.81483 0.0
C1058 C 0.84132 0.26669 0.84966 0.0
C1059 C 0.88825 0.27321 0.84558 0.0
C1060 C 0.89125 0.28343 0.8241 0.0
C1061 C 0.84697 0.28749 0.80864 0.0
C1062 C 0.83706 0.25538 0.87118 0.0
C1063 C 0.94028 0.29081 0.81936 0.0
C1064 C 0.98024 0.27812 0.91221 0.0
C1065 C 0.02424 0.27197 0.90101 0.0
C1066 C 0.9344 0.27783 0.89538 0.0
C1067 C 0.93199 0.2709 0.86704 0.0
C1068 C 0.97453 0.26351 0.8574 0.0
C1069 C 0.02059 0.26427 0.87431 0.0
C1070 C 0.89016 0.28593 0.90651 0.0
C1071 C 0.97261 0.25551 0.82813 0.0
H1072 H 0.76054 0.26675 0.83915 0.0
H1073 H 0.84902 0.29567 0.79325 0.0
H1074 H 0.87165 0.24927 0.86961 0.0
H1075 H 0.83365 0.25872 0.89568 0.0
H1076 H 0.8028 0.24953 0.86571 0.0
H1077 H 0.93686 0.29804 0.80054 0.0
H1078 H 0.95072 0.29575 0.84139 0.0
H1079 H 0.97212 0.28427 0.81338 0.0
H1080 H 0.98249 0.28397 0.93306 0.0
H1081 H 0.05424 0.25933 0.86575 0.0
H1082 H 0.85449 0.28025 0.90741 0.0
H1083 H 0.88378 0.29385 0.88979 0.0
H1084 H 0.89707 0.29007 0.93003 0.0
H1085 H 0.93471 0.25087 0.82555 0.0
H1086 H 0.00282 0.24806 0.82816 0.0
H1087 H 0.9787 0.26167 0.80744 0.0
C1088 C 0.7464 0.67731 0.62897 0.0
C1089 C 0.79079 0.68392 0.62024 0.0
C1090 C 0.70481 0.67617 0.60858 0.0
C1091 C 0.70717 0.68193 0.57873 0.0
C1092 C 0.75066 0.68922 0.57033 0.0
C1093 C 0.79223 0.69006 0.59115 0.0
C1094 C 0.65929 0.66827 0.61849 0.0
C1095 C 0.75405 0.69571 0.53897 0.0
C1096 C 0.62435 0.66481 0.51957 0.0
C1097 C 0.57842 0.67164 0.52184 0.0
C1098 C 0.66774 0.66852 0.53658 0.0
C1099 C 0.66536 0.67945 0.55592 0.0
C1100 C 0.62027 0.68692 0.55647 0.0
C1101 C 0.57711 0.68286 0.53965 0.0
C1102 C 0.71491 0.66021 0.53555 0.0
C1103 C 0.61659 0.6988 0.57621 0.0
H1104 H 0.74477 0.67258 0.65145 0.0
H1105 H 0.82632 0.69522 0.58428 0.0
H1106 H 0.62358 0.67392 0.61647 0.0
H1107 H 0.65544 0.65992 0.60279 0.0
H1108 H 0.6627 0.6648 0.64291 0.0
H1109 H 0.78707 0.70235 0.53764 0.0
H1110 H 0.75834 0.68845 0.52032 0.0
H1111 H 0.71839 0.70109 0.53408 0.0
H1112 H 0.62567 0.65615 0.50578 0.0
H1113 H 0.54187 0.68827 0.54121 0.0
H1114 H 0.71999 0.65546 0.55849 0.0
H1115 H 0.74951 0.66605 0.53124 0.0
H1116 H 0.71241 0.65277 0.51716 0.0
H1117 H 0.61385 0.69612 0.60123 0.0
H1118 H 0.58251 0.70462 0.57014 0.0
H1119 H 0.65141 0.70473 0.57342 0.0
C1120 C 0.10669 0.05756 0.67476 0.0
C1121 C 0.06832 0.04889 0.66646 0.0
C1122 C 0.15456 0.05734 0.65994 0.0
C1123 C 0.16447 0.0481 0.6366 0.0
C1124 C 0.12683 0.03889 0.6293 0.0
C1125 C 0.07897 0.03946 0.64415 0.0
C1126 C 0.19356 0.0674 0.66817 0.0
C1127 C 0.13636 0.02876 0.60494 0.0
C1128 C 0.25909 0.05796 0.57414 0.0
C1129 C 0.30453 0.05234 0.58476 0.0
C1130 C 0.21306 0.05639 0.59045 0.0
C1131 C 0.21227 0.04888 0.61789 0.0
C1132 C 0.25754 0.04276 0.6281 0.0
C1133 C 0.30333 0.04463 0.61149 0.0
C1134 C 0.16565 0.06315 0.57891 0.0
C1135 C 0.25787 0.03452 0.65697 0.0
H1136 H 0.09868 0.06486 0.692 0.0
H1137 H 0.04958 0.03265 0.63787 0.0
H1138 H 0.23079 0.06293 0.67398 0.0
H1139 H 0.19996 0.07369 0.64771 0.0
H1140 H 0.18122 0.07338 0.68824 0.0
H1141 H 0.10564 0.02146 0.6046 0.0
H1142 H 0.1385 0.03322 0.58148 0.0
H1143 H 0.17354 0.02397 0.60924 0.0
H1144 H 0.2597 0.06393 0.5535 0.0
H1145 H 0.3383 0.04021 0.61973 0.0
H1146 H 0.15252 0.0701 0.59674 0.0
H1147 H 0.13418 0.05623 0.57531 0.0
H1148 H 0.17237 0.0683 0.55663 0.0
H1149 H 0.25036 0.04047 0.67791 0.0
H1150 H 0.29501 0.02954 0.66022 0.0
H1151 H 0.22692 0.02731 0.65566 0.0
C1152 C 0.50489 0.01309 0.13719 0.0
C1153 C 0.50313 0.02546 0.14945 0.0
C1154 C 0.55083 0.00808 0.12509 0.0
C1155 C 0.59524 0.0158 0.1246 0.0
C1156 C 0.59344 0.02826 0.13727 0.0
C1157 C 0.54768 0.03284 0.14989 0.0
C1158 C 0.55195 -0.00543 0.11312 0.0
C1159 C 0.63949 0.03698 0.13669 0.0
C1160 C 0.735 0.00879 0.11608 0.0
C1161 C 0.74354 0.01381 0.08617 0.0
C1162 C 0.68501 0.00745 0.12768 0.0
C1163 C 0.64324 0.01153 0.10916 0.0
C1164 C 0.65146 0.01479 0.07747 0.0
C1165 C 0.70166 0.01573 0.06622 0.0
C1166 C 0.6775 0.00324 0.16105 0.0
C1167 C 0.60813 0.01914 0.05673 0.0
H1168 H 0.47053 0.00731 0.13724 0.0
H1169 H 0.54639 0.04243 0.15924 0.0
H1170 H 0.56921 -0.00587 0.08946 0.0
H1171 H 0.57628 -0.0113 0.12873 0.0
H1172 H 0.51315 -0.00972 0.11224 0.0
H1173 H 0.6311 0.0465 0.14679 0.0
H1174 H 0.67139 0.03268 0.1501 0.0
H1175 H 0.65288 0.03831 0.11229 0.0
H1176 H 0.7672 0.00696 0.1314 0.0
H1177 H 0.7079 0.01932 0.04278 0.0
H1178 H 0.64167 -0.00232 0.16361 0.0
H1179 H 0.67453 0.01173 0.17636 0.0
H1180 H 0.71022 -0.00262 0.1693 0.0
H1181 H 0.57377 0.01311 0.05993 0.0
H1182 H 0.61911 0.01901 0.03164 0.0
H1183 H 0.59748 0.02904 0.06311 0.0
C1184 C 0.02117 0.68792 0.04225 0.0
C1185 C 0.98167 0.68848 0.06443 0.0
C1186 C 0.07263 0.68856 0.05135 0.0
C1187 C 0.08488 0.68998 0.08337 0.0
C1188 C 0.04516 0.69179 0.10548 0.0
C1189 C 0.9939 0.69093 0.09578 0.0
C1190 C 0.11371 0.68653 0.027 0.0
C1191 C 0.05668 0.69365 0.13973 0.0
C1192 C 0.20343 0.67226 0.10977 0.0
C1193 C 0.24046 0.68189 0.11014 0.0
C1194 C 0.15264 0.67486 0.10155 0.0
C1195 C 0.13813 0.68748 0.09404 0.0
C1196 C 0.17496 0.69735 0.09522 0.0
C1197 C 0.22596 0.69441 0.10294 0.0
C1198 C 0.11478 0.664 0.10018 0.0
C1199 C 0.16059 0.71095 0.08804 0.0
H1200 H 0.0121 0.68614 0.01792 0.0
H1201 H 0.96358 0.69151 0.11303 0.0
H1202 H 0.14486 0.6936 0.02974 0.0
H1203 H 0.1308 0.67694 0.0301 0.0
H1204 H 0.09839 0.68721 0.00284 0.0
H1205 H 0.02288 0.69729 0.15275 0.0
H1206 H 0.06819 0.68442 0.15015 0.0
H1207 H 0.08895 0.70038 0.14295 0.0
H1208 H 0.21439 0.66256 0.11526 0.0
H1209 H 0.25439 0.70191 0.10348 0.0
H1210 H 0.09927 0.66311 0.07615 0.0
H1211 H 0.08205 0.66594 0.11601 0.0
H1212 H 0.13221 0.65476 0.10692 0.0
H1213 H 0.14908 0.71178 0.06318 0.0
H1214 H 0.19264 0.71764 0.09248 0.0
H1215 H 0.12723 0.71388 0.10241 0.0
C1216 C 0.38953 0.81431 0.93722 0.0
C1217 C 0.41918 0.80443 0.92454 0.0
C1218 C 0.33817 0.81594 0.92859 0.0
C1219 C 0.31572 0.80738 0.90706 0.0
C1220 C 0.34523 0.79729 0.89447 0.0
C1221 C 0.39677 0.79598 0.90321 0.0
C1222 C 0.30815 0.82692 0.94219 0.0
C1223 C 0.32242 0.7879 0.87167 0.0
C1224 C 0.17072 0.80479 0.90372 0.0
C1225 C 0.15956 0.81175 0.87663 0.0
C1226 C 0.2214 0.80335 0.91407 0.0
C1227 C 0.26166 0.80917 0.89713 0.0
C1228 C 0.25039 0.81654 0.87035 0.0
C1229 C 0.19952 0.81768 0.86031 0.0
C1230 C 0.23201 0.79534 0.94261 0.0
C1231 C 0.29218 0.82306 0.85195 0.0
H1232 H 0.40667 0.82091 0.95363 0.0
H1233 H 0.41943 0.7883 0.89344 0.0
H1234 H 0.29465 0.83323 0.92313 0.0
H1235 H 0.27374 0.82332 0.95452 0.0
H1236 H 0.33116 0.83266 0.95885 0.0
H1237 H 0.35 0.78034 0.86483 0.0
H1238 H 0.28814 0.78334 0.88209 0.0
H1239 H 0.30971 0.79294 0.85027 0.0
H1240 H 0.14001 0.80012 0.91631 0.0
H1241 H 0.1911 0.82311 0.83941 0.0
H1242 H 0.25341 0.80097 0.96021 0.0
H1243 H 0.25641 0.78711 0.93609 0.0
H1244 H 0.19636 0.79171 0.95358 0.0
H1245 H 0.31505 0.82928 0.86756 0.0
H1246 H 0.27678 0.82892 0.83251 0.0
H1247 H 0.31861 0.81584 0.84203 0.0
C1248 C 0.83308 0.44304 0.88255 0.0
C1249 C 0.81423 0.43868 0.91126 0.0
C1250 C 0.88353 0.44041 0.87334 0.0
C1251 C 0.91543 0.43305 0.89309 0.0
C1252 C 0.8975 0.42925 0.92284 0.0
C1253 C 0.84717 0.4322 0.93168 0.0
C1254 C 0.90168 0.44487 0.84169 0.0
C1255 C 0.93012 0.42129 0.94442 0.0
C1256 C 0.01098 0.41279 0.84893 0.0
C1257 C 0.05619 0.41978 0.85249 0.0
C1258 C 0.96545 0.41673 0.86326 0.0
C1259 C 0.96492 0.42811 0.88102 0.0
C1260 C 0.01089 0.43498 0.88564 0.0
C1261 C 0.05626 0.43065 0.87153 0.0
C1262 C 0.91748 0.40897 0.85838 0.0
C1263 C 0.01162 0.44723 0.90408 0.0
H1264 H 0.80789 0.44814 0.86681 0.0
H1265 H 0.83282 0.42879 0.95392 0.0
H1266 H 0.93995 0.44936 0.8436 0.0
H1267 H 0.90544 0.43658 0.82576 0.0
H1268 H 0.8748 0.4518 0.83096 0.0
H1269 H 0.9131 0.42047 0.96813 0.0
H1270 H 0.93434 0.41158 0.9345 0.0
H1271 H 0.96905 0.42539 0.94657 0.0
H1272 H 0.01096 0.40434 0.83435 0.0
H1273 H 0.09114 0.43613 0.87405 0.0
H1274 H 0.88959 0.4145 0.84434 0.0
H1275 H 0.89916 0.40683 0.88117 0.0
H1276 H 0.92529 0.39985 0.84609 0.0
H1277 H 0.9897 0.45463 0.89129 0.0
H1278 H 0.05114 0.45079 0.90795 0.0
H1279 H 0.99278 0.44592 0.92708 0.0
C1280 C 0.3941 0.42919 0.32231 0.0
C1281 C 0.43247 0.42203 0.33687 0.0
C1282 C 0.34326 0.42859 0.33272 0.0
C1283 C 0.33034 0.42024 0.35744 0.0
C1284 C 0.36884 0.4127 0.3716 0.0
C1285 C 0.41975 0.41388 0.36154 0.0
C1286 C 0.30368 0.43713 0.31782 0.0
C1287 C 0.35625 0.40337 0.3973 0.0
C1288 C 0.2123 0.42673 0.40651 0.0
C1289 C 0.17589 0.41892 0.39212 0.0
C1290 C 0.26243 0.42745 0.39501 0.0
C1291 C 0.27691 0.41976 0.36929 0.0
C1292 C 0.24037 0.41169 0.35497 0.0
C1293 C 0.18984 0.41156 0.3662 0.0
C1294 C 0.29974 0.43651 0.41022 0.0
C1295 C 0.25488 0.40302 0.32823 0.0
H1296 H 0.40417 0.43555 0.30333 0.0
H1297 H 0.4495 0.40826 0.37254 0.0
H1298 H 0.27241 0.43133 0.30764 0.0
H1299 H 0.28629 0.44338 0.33586 0.0
H1300 H 0.32018 0.4432 0.29912 0.0
H1301 H 0.38989 0.39754 0.40416 0.0
H1302 H 0.34227 0.40855 0.41821 0.0
H1303 H 0.32511 0.3969 0.38964 0.0
H1304 H 0.20122 0.43248 0.42647 0.0
H1305 H 0.16163 0.40543 0.35534 0.0
H1306 H 0.316 0.44304 0.39241 0.0
H1307 H 0.33208 0.43113 0.42053 0.0
H1308 H 0.28159 0.4423 0.42893 0.0
H1309 H 0.26839 0.40873 0.30806 0.0
H1310 H 0.22239 0.39699 0.32044 0.0
H1311 H 0.28697 0.39674 0.33536 0.0
C1312 C 0.75591 0.77506 0.38031 0.0
C1313 C 0.74738 0.78316 0.35484 0.0
C1314 C 0.8051 0.77371 0.39315 0.0
C1315 C 0.84625 0.78082 0.38056 0.0
C1316 C 0.83821 0.78856 0.35398 0.0
C1317 C 0.78899 0.78954 0.3413 0.0
C1318 C 0.81254 0.76514 0.42108 0.0
C1319 C 0.88082 0.79647 0.34013 0.0
C1320 C 0.95086 0.79181 0.43536 0.0
C1321 C 0.99225 0.78419 0.42618 0.0
C1322 C 0.90305 0.79066 0.42094 0.0
C1323 C 0.89607 0.78144 0.39718 0.0
C1324 C 0.93734 0.77346 0.38833 0.0
C1325 C 0.9853 0.77505 0.4027 0.0
C1326 C 0.86039 0.79956 0.43058 0.0
C1327 C 0.93091 0.76336 0.36355 0.0
H1328 H 0.72398 0.77001 0.39069 0.0
H1329 H 0.78278 0.79581 0.32154 0.0
H1330 H 0.84692 0.75907 0.41788 0.0
H1331 H 0.81888 0.77103 0.44227 0.0
H1332 H 0.77885 0.75893 0.42523 0.0
H1333 H 0.86927 0.80118 0.31799 0.0
H1334 H 0.89235 0.80394 0.35708 0.0
H1335 H 0.91497 0.79049 0.3355 0.0
H1336 H 0.95615 0.79894 0.45342 0.0
H1337 H 0.01718 0.76907 0.39576 0.0
H1338 H 0.82673 0.79402 0.43857 0.0
H1339 H 0.84803 0.80533 0.41022 0.0
H1340 H 0.87204 0.80613 0.44965 0.0
H1341 H 0.89788 0.75716 0.36935 0.0
H1342 H 0.96561 0.75734 0.36098 0.0
H1343 H 0.92256 0.76789 0.34071 0.0
C1344 C 0.67605 0.18632 0.09997 0.0
C1345 C 0.69508 0.19214 0.12706 0.0
C1346 C 0.62336 0.18628 0.09353 0.0
C1347 C 0.58924 0.19244 0.11437 0.0
C1348 C 0.60884 0.19928 0.14025 0.0
C1349 C 0.66152 0.19892 0.14649 0.0
C1350 C 0.60398 0.17878 0.06587 0.0
C1351 C 0.57388 0.20625 0.16257 0.0
C1352 C 0.44986 0.19645 0.09058 0.0
C1353 C 0.42664 0.1864 0.10684 0.0
C1354 C 0.50276 0.19864 0.09293 0.0
C1355 C 0.53312 0.19041 0.11142 0.0
C1356 C 0.50984 0.18017 0.12756 0.0
C1357 C 0.45681 0.17838 0.12535 0.0
C1358 C 0.52605 0.20981 0.07596 0.0
C1359 C 0.54098 0.17105 0.14713 0.0
H1360 H 0.70182 0.18101 0.08496 0.0
H1361 H 0.67617 0.20352 0.16734 0.0
H1362 H 0.58425 0.17009 0.07431 0.0
H1363 H 0.57568 0.18441 0.05239 0.0
H1364 H 0.63546 0.17586 0.04993 0.0
H1365 H 0.59542 0.21262 0.17858 0.0
H1366 H 0.54539 0.212 0.14954 0.0
H1367 H 0.55244 0.19925 0.17689 0.0
H1368 H 0.42651 0.20273 0.07643 0.0
H1369 H 0.43901 0.17056 0.13779 0.0
H1370 H 0.55584 0.20646 0.05942 0.0
H1371 H 0.54512 0.21623 0.09294 0.0
H1372 H 0.49708 0.21537 0.06275 0.0
H1373 H 0.57166 0.16669 0.1327 0.0
H1374 H 0.51727 0.16331 0.15728 0.0
H1375 H 0.5598 0.17627 0.16651 0.0
C1376 C 0.24701 0.54592 0.13477 0.0
C1377 C 0.29125 0.5384 0.13283 0.0
C1378 C 0.2015 0.54111 0.14719 0.0
C1379 C 0.19977 0.52838 0.15799 0.0
C1380 C 0.24426 0.52069 0.15629 0.0
C1381 C 0.28971 0.52582 0.14378 0.0
C1382 C 0.15511 0.54971 0.14862 0.0
C1383 C 0.24371 0.50708 0.1675 0.0
C1384 C 0.08678 0.52619 0.21188 0.0
C1385 C 0.04771 0.52355 0.19037 0.0
C1386 C 0.13828 0.52619 0.20261 0.0
C1387 C 0.15079 0.5235 0.17109 0.0
C1388 C 0.11215 0.5191 0.15054 0.0
C1389 C 0.06089 0.51917 0.16045 0.0
C1390 C 0.17825 0.5307 0.22551 0.0
C1391 C 0.12387 0.51589 0.11691 0.0
H1392 H 0.24779 0.55566 0.12647 0.0
H1393 H 0.32375 0.51995 0.14225 0.0
H1394 H 0.12329 0.54551 0.13493 0.0
H1395 H 0.14183 0.55067 0.17314 0.0
H1396 H 0.16304 0.55938 0.13932 0.0
H1397 H 0.28123 0.5023 0.16411 0.0
H1398 H 0.23369 0.50676 0.19268 0.0
H1399 H 0.21394 0.50162 0.15482 0.0
H1400 H 0.07699 0.52934 0.23527 0.0
H1401 H 0.03099 0.51692 0.1438 0.0
H1402 H 0.18619 0.54093 0.22129 0.0
H1403 H 0.21467 0.52542 0.22246 0.0
H1404 H 0.16514 0.52961 0.25007 0.0
H1405 H 0.12699 0.52483 0.10326 0.0
H1406 H 0.09322 0.50997 0.10632 0.0
H1407 H 0.16084 0.51077 0.11484 0.0
C1408 C 0.69225 0.55443 0.60394 0.0
C1409 C 0.73763 0.54796 0.61125 0.0
C1410 C 0.64958 0.55386 0.62374 0.0
C1411 C 0.65213 0.54653 0.65145 0.0
C1412 C 0.69715 0.5396 0.65845 0.0
C1413 C 0.73953 0.54044 0.63831 0.0
C1414 C 0.60226 0.5614 0.61543 0.0
C1415 C 0.70097 0.53156 0.68758 0.0
C1416 C 0.55931 0.55721 0.71444 0.0
C1417 C 0.51756 0.54915 0.70892 0.0
C1418 C 0.60443 0.55608 0.69683 0.0
C1419 C 0.608 0.54657 0.67342 0.0
C1420 C 0.56715 0.53792 0.6691 0.0
C1421 C 0.52228 0.53936 0.68678 0.0
C1422 C 0.6471 0.56553 0.70204 0.0
C1423 C 0.56977 0.52755 0.64471 0.0
H1424 H 0.69044 0.56026 0.58308 0.0
H1425 H 0.77444 0.53539 0.64407 0.0
H1426 H 0.5685 0.55502 0.61433 0.0
H1427 H 0.59455 0.5686 0.63383 0.0
H1428 H 0.60605 0.56638 0.59265 0.0
H1429 H 0.73726 0.52606 0.68854 0.0
H1430 H 0.69875 0.53775 0.70856 0.0
H1431 H 0.66837 0.52482 0.6888 0.0
H1432 H 0.55589 0.5648 0.7315 0.0
H1433 H 0.49028 0.53303 0.68258 0.0
H1434 H 0.65076 0.57176 0.68123 0.0
H1435 H 0.68412 0.56051 0.70502 0.0
H1436 H 0.64025 0.57162 0.72286 0.0
H1437 H 0.56826 0.53185 0.62106 0.0
H1438 H 0.53768 0.52067 0.64691 0.0
H1439 H 0.60645 0.52227 0.64651 0.0
C1440 C 0.99217 0.16259 0.60935 0.0
C1441 C 0.98253 0.17026 0.5833 0.0
C1442 C 0.03897 0.16335 0.62525 0.0
C1443 C 0.07594 0.17239 0.61558 0.0
C1444 C 0.06639 0.1801 0.5891 0.0
C1445 C 0.02004 0.17876 0.57287 0.0
C1446 C 0.04844 0.15464 0.6527 0.0
C1447 C 0.10405 0.19015 0.57878 0.0
C1448 C 0.16584 0.18265 0.68032 0.0
C1449 C 0.21043 0.17596 0.67265 0.0
C1450 C 0.12256 0.18206 0.66103 0.0
C1451 C 0.12337 0.17415 0.63421 0.0
C1452 C 0.16861 0.16746 0.62623 0.0
C1453 C 0.21205 0.16865 0.6453 0.0
C1454 C 0.07567 0.1897 0.66971 0.0
C1455 C 0.1704 0.1586 0.59845 0.0
H1456 H 0.96308 0.15597 0.61723 0.0
H1457 H 0.01213 0.18479 0.55289 0.0
H1458 H 0.08589 0.14977 0.65006 0.0
H1459 H 0.05004 0.1603 0.67458 0.0
H1460 H 0.01806 0.14733 0.65522 0.0
H1461 H 0.09155 0.19509 0.55714 0.0
H1462 H 0.10864 0.19733 0.5976 0.0
H1463 H 0.1422 0.18585 0.57459 0.0
H1464 H 0.16488 0.18836 0.70144 0.0
H1465 H 0.24651 0.16337 0.63964 0.0
H1466 H 0.04425 0.18319 0.67662 0.0
H1467 H 0.06212 0.19526 0.64928 0.0
H1468 H 0.0831 0.19636 0.68937 0.0
H1469 H 0.14267 0.15073 0.60192 0.0
H1470 H 0.20905 0.15444 0.59482 0.0
H1471 H 0.15893 0.16371 0.57689 0.0
C1472 C 0.97131 0.21733 0.14572 0.0
C1473 C 0.99231 0.20595 0.15702 0.0
C1474 C 0.99115 0.22912 0.15516 0.0
C1475 C 0.03151 0.22946 0.17718 0.0
C1476 C 0.05663 0.21805 0.18565 0.0
C1477 C 0.03712 0.20641 0.17507 0.0
C1478 C 0.96607 0.24119 0.14373 0.0
C1479 C 0.10055 0.21804 0.20854 0.0
C1480 C 0.08727 0.26077 0.206 0.0
C1481 C 0.05468 0.26349 0.23118 0.0
C1482 C 0.07983 0.24987 0.18758 0.0
C1483 C 0.04044 0.24123 0.19563 0.0
C1484 C 0.00853 0.24379 0.22175 0.0
C1485 C 0.01534 0.25506 0.23876 0.0
C1486 C 0.11394 0.24777 0.15956 0.0
C1487 C 0.96707 0.23464 0.23177 0.0
H1488 H 0.93747 0.21704 0.1311 0.0
H1489 H 0.05414 0.19765 0.1835 0.0
H1490 H 0.94074 0.24505 0.16228 0.0
H1491 H 0.99538 0.24852 0.13842 0.0
H1492 H 0.94261 0.23949 0.12249 0.0
H1493 H 0.11849 0.20849 0.21077 0.0
H1494 H 0.13026 0.22493 0.20116 0.0
H1495 H 0.08651 0.22106 0.23189 0.0
H1496 H 0.11744 0.26742 0.2 0.0
H1497 H 0.99033 0.2572 0.25831 0.0
H1498 H 0.09364 0.24264 0.14063 0.0
H1499 H 0.14756 0.242 0.16659 0.0
H1500 H 0.12844 0.25694 0.15015 0.0
H1501 H 0.93732 0.23401 0.21336 0.0
H1502 H 0.94836 0.2376 0.25395 0.0
H1503 H 0.98333 0.22496 0.23496 0.0
C1504 C 0.1614 0.95973 0.27161 0.0
C1505 C 0.20195 0.95328 0.28612 0.0
C1506 C 0.16635 0.97249 0.26267 0.0
C1507 C 0.2125 0.979 0.26911 0.0
C1508 C 0.25187 0.97285 0.2861 0.0
C1509 C 0.24641 0.95997 0.29405 0.0
C1510 C 0.12388 0.97863 0.24409 0.0
C1511 C 0.30102 0.97963 0.29421 0.0
C1512 C 0.25925 0.00386 0.21207 0.0
C1513 C 0.24547 0.01517 0.22718 0.0
C1514 C 0.24725 -0.00796 0.22512 0.0
C1515 C 0.22232 -0.00846 0.25449 0.0
C1516 C 0.20785 0.00295 0.26976 0.0
C1517 C 0.21899 0.01468 0.25563 0.0
C1518 C 0.26199 0.98007 0.20767 0.0
C1519 C 0.18241 0.00277 0.30144 0.0
H1520 H 0.12693 0.95459 0.26534 0.0
H1521 H 0.27759 0.95505 0.30559 0.0
H1522 H 0.11505 -0.01174 0.25331 0.0
H1523 H 0.13641 0.97979 0.21947 0.0
H1524 H 0.08828 0.97286 0.24434 0.0
H1525 H 0.32415 0.97422 0.31148 0.0
H1526 H 0.3243 0.98091 0.27275 0.0
H1527 H 0.29285 -0.01077 0.30382 0.0
H1528 H 0.27958 0.00429 0.18999 0.0
H1529 H 0.209 0.02347 0.26746 0.0
H1530 H 0.2281 0.97382 0.20479 0.0
H1531 H 0.29088 0.97467 0.22127 0.0
H1532 H 0.27815 0.98214 0.1842 0.0
H1533 H 0.17139 0.01245 0.30946 0.0
H1534 H 0.20892 -0.00145 0.31885 0.0
H1535 H 0.14772 -0.0033 0.3009 0.0
C1536 C 0.07538 0.02334 0.02272 0.0
C1537 C 0.03907 0.01987 0.04532 0.0
C1538 C 0.09977 0.01407 0.00437 0.0
C1539 C 0.08814 0.00108 0.0093 0.0
C1540 C 0.05566 -0.00248 0.03433 0.0
C1541 C 0.03099 0.00698 0.05182 0.0
C1542 C 0.13395 0.01826 0.97787 0.0
C1543 C 0.04343 0.98373 0.04096 0.0
C1544 C 0.0751 0.97707 0.94436 0.0
C1545 C 0.11781 0.96932 0.94954 0.0
C1546 C 0.06746 -0.01185 0.96195 0.0
C1547 C 0.1028 -0.00866 0.98579 0.0
C1548 C 0.14805 0.98408 0.98945 0.0
C1549 C 0.15528 0.97317 0.97099 0.0
C1550 C 0.01943 -0.00414 0.95665 0.0
C1551 C 0.18651 -0.01285 0.01463 0.0
H1552 H 0.08152 0.03333 0.01753 0.0
H1553 H 0.00325 0.00429 0.06947 0.0
H1554 H 0.16763 0.0119 0.97553 0.0
H1555 H 0.11221 0.01777 0.95563 0.0
H1556 H 0.14748 0.02819 0.9811 0.0
H1557 H 0.02371 0.98251 0.06376 0.0
H1558 H 0.01816 0.97997 0.02228 0.0
H1559 H 0.07889 0.97792 0.041 0.0
H1560 H 0.04637 0.97413 0.92757 0.0
H1561 H 0.18823 0.96712 0.97514 0.0
H1562 H 0.02851 0.00616 0.95571 0.0
H1563 H 0.9926 -0.00564 0.97642 0.0
H1564 H 0.99966 -0.00687 0.93466 0.0
H1565 H 0.19325 -0.00245 0.01621 0.0
H1566 H 0.22366 0.98228 0.01051 0.0
H1567 H 0.1713 0.98397 0.03755 0.0
C1568 C 0.25984 0.2194 0.11732 0.0
C1569 C 0.20794 0.21601 0.11966 0.0
C1570 C 0.27513 0.22977 0.09901 0.0
C1571 C 0.23749 0.23714 0.08372 0.0
C1572 C 0.18496 0.23488 0.08978 0.0
C1573 C 0.17073 0.22424 0.10757 0.0
C1574 C 0.33151 0.23177 0.09302 0.0
C1575 C 0.14378 0.24293 0.07491 0.0
C1576 C 0.27042 0.26681 0.03752 0.0
C1577 C 0.26554 0.2623 0.0068 0.0
C1578 C 0.26311 0.25867 0.06309 0.0
C1579 C 0.25225 0.24568 0.05761 0.0
C1580 C 0.25147 0.24091 0.02658 0.0
C1581 C 0.25708 0.24936 0.00149 0.0
C1582 C 0.26303 0.26418 0.0957 0.0
C1583 C 0.2417 0.22701 0.0198 0.0
H1584 H 0.28901 0.21315 0.12676 0.0
H1585 H 0.1306 0.22178 0.10978 0.0
H1586 H 0.34151 0.2277 0.06985 0.0
H1587 H 0.34117 0.24204 0.09247 0.0
H1588 H 0.35555 0.22702 0.11097 0.0
H1589 H 0.10498 0.24048 0.08361 0.0
H1590 H 0.15117 0.25316 0.07956 0.0
H1591 H 0.14429 0.24157 0.04919 0.0
H1592 H 0.27582 0.27692 0.04158 0.0
H1593 H 0.25292 0.24594 0.9777 0.0
H1594 H 0.28437 0.25796 0.11209 0.0
H1595 H 0.22302 0.26479 0.10429 0.0
H1596 H 0.27996 0.27387 0.09636 0.0
H1597 H 0.26776 0.22095 0.03385 0.0
H1598 H 0.24709 0.22467 -0.00531 0.0
H1599 H 0.2019 0.22452 0.02646 0.0
C1600 C 0.97318 0.72336 0.73226 0.0
C1601 C 0.98268 0.71143 0.74544 0.0
C1602 C 0.96599 0.73408 0.75138 0.0
C1603 C 0.96607 0.73265 0.78435 0.0
C1604 C 0.97464 0.72053 0.79769 0.0
C1605 C 0.98384 0.7101 0.77803 0.0
C1606 C 0.9586 0.74695 0.7363 0.0
C1607 C 0.97314 0.71854 0.83263 0.0
C1608 C 0.99498 0.76284 0.82889 0.0
C1609 C 0.94581 0.76806 0.83262 0.0
C1610 C 0.00208 0.751 0.81452 0.0
C1611 C 0.95889 0.74398 0.80468 0.0
C1612 C 0.90907 0.7485 0.81163 0.0
C1613 C 0.90304 0.76059 0.82524 0.0
C1614 C 0.05589 0.74662 0.80722 0.0
C1615 C 0.86209 0.74099 0.80268 0.0
H1616 H 0.97192 0.72431 0.70704 0.0
H1617 H 0.99001 0.70076 0.78815 0.0
H1618 H 0.92055 0.75085 0.74264 0.0
H1619 H 0.98786 0.75371 0.74508 0.0
H1620 H 0.96143 0.74649 0.71041 0.0
H1621 H 0.97838 0.70839 0.83916 0.0
H1622 H 0.00353 0.72424 0.84407 0.0
H1623 H 0.93595 0.72189 0.84211 0.0
H1624 H 0.0284 0.76845 0.83478 0.0
H1625 H 0.86492 0.76447 0.82831 0.0
H1626 H 0.06247 0.7472 0.78163 0.0
H1627 H 0.06142 0.73656 0.81418 0.0
H1628 H 0.08524 0.75252 0.81916 0.0
H1629 H 0.8563 0.74158 0.77704 0.0
H1630 H 0.82714 0.74467 0.81441 0.0
H1631 H 0.86693 0.73079 0.80875 0.0
C1632 C 0.8724 0.95108 0.73497 0.0
C1633 C 0.8451 0.94668 0.76102 0.0
C1634 C 0.876 0.96412 0.72864 0.0
C1635 C 0.85277 0.97292 0.74928 0.0
C1636 C 0.82856 0.96858 0.77687 0.0
C1637 C 0.8245 0.95547 0.78224 0.0
C1638 C 0.90157 0.96841 0.69878 0.0
C1639 C 0.80463 0.97774 0.79985 0.0
C1640 C 0.88812 0.00768 0.7407 0.0
C1641 C 0.84569 0.01246 0.72441 0.0
C1642 C 0.8907 -0.00516 0.74935 0.0
C1643 C 0.85043 0.98657 0.74083 0.0
C1644 C 0.80777 -0.00869 0.72403 0.0
C1645 C 0.80561 0.00427 0.71635 0.0
C1646 C 0.93615 -0.00983 0.76788 0.0
C1647 C 0.76455 0.98268 0.71405 0.0
H1648 H 0.88804 0.94431 0.71837 0.0
H1649 H 0.80363 0.95208 0.8025 0.0
H1650 H 0.87242 0.97251 0.68285 0.0
H1651 H 0.93 0.97598 0.70368 0.0
H1652 H 0.92114 0.96046 0.68649 0.0
H1653 H 0.79289 0.97294 0.82184 0.0
H1654 H 0.83175 0.9855 0.80564 0.0
H1655 H 0.7703 0.98218 0.78921 0.0
H1656 H 0.91892 0.01404 0.74729 0.0
H1657 H 0.77291 0.00795 0.70366 0.0
H1658 H 0.95631 0.98255 0.7548 0.0
H1659 H 0.923 0.98598 0.79028 0.0
H1660 H 0.96385 -0.0021 0.77307 0.0
H1661 H 0.77975 0.97474 0.69965 0.0
H1662 H 0.73491 -0.0122 0.70033 0.0
H1663 H 0.74608 0.97842 0.7349 0.0
C1664 C 0.5962 0.75447 -0.00452 0.0
C1665 C 0.63324 0.75834 0.97376 0.0
C1666 C 0.5981 0.74227 0.00879 0.0
C1667 C 0.63727 0.73376 -0.00049 0.0
C1668 C 0.6722 0.73733 0.97575 0.0
C1669 C 0.67019 0.74966 0.96349 0.0
C1670 C 0.56065 0.73888 0.03431 0.0
C1671 C 0.71367 0.7284 0.96453 0.0
C1672 C 0.70239 0.70955 0.05046 0.0
C1673 C 0.68442 0.6982 0.03734 0.0
C1674 C 0.68301 0.72131 0.04063 0.0
C1675 C 0.64592 0.72166 0.01653 0.0
C1676 C 0.62425 0.7102 0.00535 0.0
C1677 C 0.64345 0.69855 0.01621 0.0
C1678 C 0.7058 0.73335 0.05394 0.0
C1679 C 0.58483 0.71017 0.97959 0.0
H1680 H 0.56786 0.76126 0.00362 0.0
H1681 H 0.69855 0.75265 0.94651 0.0
H1682 H 0.54658 0.72899 0.03152 0.0
H1683 H 0.58024 0.73946 0.05726 0.0
H1684 H 0.52732 0.74545 0.03472 0.0
H1685 H 0.7338 0.7321 0.94355 0.0
H1686 H 0.74228 0.72699 0.98337 0.0
H1687 H 0.69728 0.71894 0.95881 0.0
H1688 H 0.73366 0.70927 0.06709 0.0
H1689 H 0.62951 0.68977 0.00598 0.0
H1690 H 0.67543 0.74047 0.0588 0.0
H1691 H 0.73244 0.73758 0.03662 0.0
H1692 H 0.72739 0.73152 0.07584 0.0
H1693 H 0.56466 0.70089 0.978 0.0
H1694 H 0.60415 0.71198 0.95693 0.0
H1695 H 0.55614 0.71782 0.98313 0.0
C1696 C 0.2431 0.51157 0.75322 0.0
C1697 C 0.28315 0.51884 0.76555 0.0
C1698 C 0.24222 0.49832 0.75714 0.0
C1699 C 0.2817 0.49232 0.77439 0.0
C1700 C 0.32107 0.4997 0.78796 0.0
C1701 C 0.32164 0.51287 0.78306 0.0
C1702 C 0.19997 0.4907 0.742 0.0
C1703 C 0.36306 0.49366 0.80716 0.0
C1704 C 0.25307 0.45889 0.80227 0.0
C1705 C 0.27801 0.45154 0.77951 0.0
C1706 C 0.25553 0.47221 0.8016 0.0
C1707 C 0.28274 0.47827 0.77723 0.0
C1708 C 0.3094 0.4709 0.75479 0.0
C1709 C 0.30713 0.45759 0.75639 0.0
C1710 C 0.22772 0.47978 0.82637 0.0
C1711 C 0.33844 0.47706 0.72829 0.0
H1712 H 0.21347 0.51618 0.73957 0.0
H1713 H 0.35238 0.51852 0.79291 0.0
H1714 H 0.21659 0.48394 0.72482 0.0
H1715 H 0.17954 0.48498 0.75984 0.0
H1716 H 0.17173 0.49684 0.72978 0.0
H1717 H 0.38878 0.50085 0.8179 0.0
H1718 H 0.34629 0.48774 0.82602 0.0
H1719 H 0.38638 0.48727 0.7922 0.0
H1720 H 0.23079 0.45423 0.82032 0.0
H1721 H 0.32616 0.45194 0.73863 0.0
H1722 H 0.19563 0.48511 0.81559 0.0
H1723 H 0.25384 0.48688 0.83704 0.0
H1724 H 0.21204 0.47362 0.84517 0.0
H1725 H 0.31157 0.48257 0.71347 0.0
H1726 H 0.35846 0.46997 0.71336 0.0
H1727 H 0.36711 0.48385 0.7376 0.0
C1728 C 0.99389 0.46499 0.44525 0.0
C1729 C 0.94838 0.45899 0.43592 0.0
C1730 C 0.99379 0.47752 0.45635 0.0
C1731 C 0.94733 0.48442 0.45707 0.0
C1732 C 0.90201 0.47881 0.4452 0.0
C1733 C 0.90284 0.46605 0.43528 0.0
C1734 C 0.04271 0.483 0.4695 0.0
C1735 C 0.8522 0.48607 0.44436 0.0
C1736 C 0.934 0.50963 0.52013 0.0
C1737 C 0.94874 0.52061 0.50404 0.0
C1738 C 0.9334 0.49777 0.50505 0.0
C1739 C 0.94572 0.49702 0.47282 0.0
C1740 C 0.95921 0.50818 0.45629 0.0
C1741 C 0.96156 0.51983 0.4723 0.0
C1742 C 0.92045 0.48601 0.52374 0.0
C1743 C 0.97069 0.50784 0.42171 0.0
H1744 H 0.02926 0.4596 0.44604 0.0
H1745 H 0.86764 0.46148 0.42796 0.0
H1746 H 0.05106 0.49237 0.4588 0.0
H1747 H 0.03821 0.48456 0.49502 0.0
H1748 H 0.07612 0.47665 0.46564 0.0
H1749 H 0.82296 0.48119 0.42983 0.0
H1750 H 0.83692 0.48706 0.46843 0.0
H1751 H 0.85829 0.49581 0.43502 0.0
H1752 H 0.9238 0.51031 0.54464 0.0
H1753 H 0.97185 0.52842 0.45975 0.0
H1754 H 0.95246 0.47909 0.52236 0.0
H1755 H 0.88612 0.48132 0.51381 0.0
H1756 H 0.91293 0.48821 0.54873 0.0
H1757 H 0.00544 0.50205 0.41728 0.0
H1758 H 0.97687 0.5175 0.41189 0.0
H1759 H 0.93865 0.50325 0.40898 0.0
C1760 C 0.26948 0.69245 0.48024 0.0
C1761 C 0.3172 0.68878 0.46832 0.0
C1762 C 0.2549 0.70528 0.48075 0.0
C1763 C 0.28831 0.71456 0.46822 0.0
C1764 C 0.33555 0.71083 0.45484 0.0
C1765 C 0.34981 0.69797 0.45549 0.0
C1766 C 0.20473 0.70894 0.49585 0.0
C1767 C 0.37144 0.72045 0.44048 0.0
C1768 C 0.22969 0.74677 0.45079 0.0
C1769 C 0.24619 0.75391 0.47654 0.0
C1770 C 0.24435 0.73401 0.44726 0.0
C1771 C 0.27486 0.72822 0.47057 0.0
C1772 C 0.29154 0.7354 0.49666 0.0
C1773 C 0.27758 0.74824 0.49909 0.0
C1774 C 0.22712 0.72673 0.41871 0.0
C1775 C 0.32312 0.72945 0.52234 0.0
H1776 H 0.24445 0.68534 0.49041 0.0
H1777 H 0.38658 0.69511 0.44605 0.0
H1778 H 0.2121 0.71519 0.51628 0.0
H1779 H 0.18082 0.71442 0.47922 0.0
H1780 H 0.18264 0.70052 0.50386 0.0
H1781 H 0.40446 0.71586 0.42859 0.0
H1782 H 0.35067 0.72642 0.42326 0.0
H1783 H 0.38631 0.7269 0.45887 0.0
H1784 H 0.20578 0.75121 0.43319 0.0
H1785 H 0.29002 0.75375 0.51912 0.0
H1786 H 0.20194 0.71874 0.42576 0.0
H1787 H 0.26071 0.72254 0.4066 0.0
H1788 H 0.20595 0.73284 0.40193 0.0
H1789 H 0.30201 0.72133 0.53274 0.0
H1790 H 0.3325 0.73633 0.54121 0.0
H1791 H 0.35937 0.72563 0.51263 0.0
C1792 C 0.6252 0.47303 0.29588 0.0
C1793 C 0.66073 0.46708 0.31564 0.0
C1794 C 0.63613 0.48485 0.2824 0.0
C1795 C 0.68274 0.49096 0.28984 0.0
C1796 C 0.71468 0.4859 0.31349 0.0
C1797 C 0.70369 0.47387 0.32582 0.0
C1798 C 0.6011 0.48989 0.25722 0.0
C1799 C 0.76344 0.4925 0.32319 0.0
C1800 C 0.75932 0.50699 0.22613 0.0
C1801 C 0.74941 0.51983 0.23208 0.0
C1802 C 0.73561 0.4975 0.24389 0.0
C1803 C 0.70293 0.50101 0.26896 0.0
C1804 C 0.69194 0.51398 0.2746 0.0
C1805 C 0.71484 0.52326 0.25571 0.0
C1806 C 0.7469 0.48372 0.23645 0.0
C1807 C 0.65867 0.51811 0.30164 0.0
H1808 H 0.59179 0.46783 0.28799 0.0
H1809 H 0.73082 0.46934 0.34145 0.0
H1810 H 0.59715 0.50038 0.25877 0.0
H1811 H 0.61776 0.48762 0.234 0.0
H1812 H 0.56244 0.48553 0.25854 0.0
H1813 H 0.77807 0.4888 0.34581 0.0
H1814 H 0.79324 0.4909 0.30511 0.0
H1815 H 0.75737 0.50291 0.3253 0.0
H1816 H 0.78614 0.50441 0.20783 0.0
H1817 H 0.70801 0.53325 0.26062 0.0
H1818 H 0.71071 0.47827 0.23427 0.0
H1819 H 0.76927 0.47941 0.25577 0.0
H1820 H 0.76904 0.48262 0.21444 0.0
H1821 H 0.64714 0.52825 0.29971 0.0
H1822 H 0.68022 0.51686 0.32376 0.0
H1823 H 0.62373 0.51216 0.30328 0.0
C1824 C 0.82482 0.21888 0.55318 0.0
C1825 C 0.77504 0.21384 0.55441 0.0
C1826 C 0.83344 0.23127 0.54242 0.0
C1827 C 0.79118 0.23883 0.53358 0.0
C1828 C 0.7408 0.23451 0.53959 0.0
C1829 C 0.73322 0.22196 0.54973 0.0
C1830 C 0.88775 0.23559 0.53682 0.0
C1831 C 0.69476 0.2426 0.53194 0.0
C1832 C 0.80496 0.27258 0.50355 0.0
C1833 C 0.79749 0.27064 0.47148 0.0
C1834 C 0.80514 0.26226 0.52433 0.0
C1835 C 0.79896 0.2498 0.51239 0.0
C1836 C 0.79586 0.2478 0.47965 0.0
C1837 C 0.7941 0.2583 0.45961 0.0
C1838 C 0.80736 0.26486 0.559 0.0
C1839 C 0.79099 0.23461 0.46588 0.0
H1840 H 0.8575 0.21278 0.55757 0.0
H1841 H 0.69462 0.21825 0.55137 0.0
H1842 H 0.89701 0.23447 0.51164 0.0
H1843 H 0.89256 0.24579 0.54285 0.0
H1844 H 0.91564 0.22989 0.55053 0.0
H1845 H 0.6595 0.23896 0.54336 0.0
H1846 H 0.70102 0.2526 0.53936 0.0
H1847 H 0.68859 0.2426 0.50628 0.0
H1848 H 0.80627 0.28221 0.51268 0.0
H1849 H 0.78771 0.25691 0.43479 0.0
H1850 H 0.82931 0.25741 0.57153 0.0
H1851 H 0.76786 0.26486 0.56855 0.0
H1852 H 0.82474 0.27429 0.56404 0.0
H1853 H 0.82061 0.2282 0.47576 0.0
H1854 H 0.79484 0.23464 0.44002 0.0
H1855 H 0.75302 0.23058 0.47195 0.0
C1856 C 0.48897 0.27431 0.74103 0.0
C1857 C 0.51917 0.2761 0.76767 0.0
C1858 C 0.46791 0.26234 0.73432 0.0
C1859 C 0.47604 0.25216 0.75538 0.0
C1860 C 0.50431 0.25417 0.78318 0.0
C1861 C 0.52647 0.26608 0.78866 0.0
C1862 C 0.43947 0.26042 0.70399 0.0
C1863 C 0.51246 0.24365 0.80671 0.0
C1864 C 0.3964 0.2221 0.75438 0.0
C1865 C 0.43225 0.21331 0.74317 0.0
C1866 C 0.40921 0.23501 0.75726 0.0
C1867 C 0.45833 0.23914 0.7477 0.0
C1868 C 0.49303 0.2304 0.73402 0.0
C1869 C 0.47993 0.2175 0.73254 0.0
C1870 C 0.37179 0.24398 0.77274 0.0
C1871 C 0.54508 0.23454 0.72253 0.0
H1872 H 0.48402 0.28211 0.72471 0.0
H1873 H 0.54977 0.26757 0.80931 0.0
H1874 H 0.46191 0.254 0.68858 0.0
H1875 H 0.40203 0.25578 0.70825 0.0
H1876 H 0.43286 0.26953 0.69144 0.0
H1877 H 0.53049 0.24717 0.82857 0.0
H1878 H 0.47543 0.2391 0.81267 0.0
H1879 H 0.53752 0.2362 0.7965 0.0
H1880 H 0.35967 0.21876 0.76284 0.0
H1881 H 0.50737 0.21063 0.72371 0.0
H1882 H 0.36799 0.2529 0.75914 0.0
H1883 H 0.38634 0.24659 0.79625 0.0
H1884 H 0.33329 0.23964 0.77548 0.0
H1885 H 0.54181 0.2433 0.7082 0.0
H1886 H 0.5641 0.22703 0.70838 0.0
H1887 H 0.56995 0.23679 0.74279 0.0
C1888 C 0.56494 0.02764 0.46985 0.0
C1889 C 0.54666 0.02873 0.50053 0.0
C1890 C 0.56361 0.01591 0.45416 0.0
C1891 C 0.54507 0.00504 0.47 0.0
C1892 C 0.52977 0.00598 0.50169 0.0
C1893 C 0.52981 0.01789 0.5164 0.0
C1894 C 0.57892 0.01535 0.42016 0.0
C1895 C 0.51148 -0.00551 0.51971 0.0
C1896 C 0.48353 0.9768 0.42991 0.0
C1897 C 0.52327 0.96787 0.4309 0.0
C1898 C 0.49126 -0.0107 0.44053 0.0
C1899 C 0.53932 -0.00726 0.4533 0.0
C1900 C 0.58027 0.98395 0.45283 0.0
C1901 C 0.57194 0.97167 0.44119 0.0
C1902 C 0.4472 -0.00141 0.43963 0.0
C1903 C 0.63172 -0.01284 0.46685 0.0
H1904 H 0.57699 0.03611 0.45741 0.0
H1905 H 0.51547 0.01881 0.54009 0.0
H1906 H 0.60618 0.00744 0.41598 0.0
H1907 H 0.54454 0.01346 0.40568 0.0
H1908 H 0.59669 0.02437 0.41209 0.0
H1909 H 0.50585 -0.00339 0.54492 0.0
H1910 H 0.47461 -0.00888 0.50991 0.0
H1911 H 0.53942 0.98658 0.51746 0.0
H1912 H 0.446 0.97391 0.4218 0.0
H1913 H 0.60281 0.96479 0.44224 0.0
H1914 H 0.46001 0.00789 0.43021 0.0
H1915 H 0.43289 0.00026 0.4637 0.0
H1916 H 0.41497 -0.00496 0.42514 0.0
H1917 H 0.64566 -0.00354 0.45807 0.0
H1918 H 0.661 0.97979 0.46164 0.0
H1919 H 0.62781 -0.012 0.4926 0.0
C1920 C 0.51125 0.74947 0.29759 0.0
C1921 C 0.48677 0.76044 0.28649 0.0
C1922 C 0.50546 0.73778 0.28213 0.0
C1923 C 0.47593 0.73721 0.25444 0.0
C1924 C 0.44937 0.74814 0.24396 0.0
C1925 C 0.4545 0.75959 0.26042 0.0
C1926 C 0.5328 0.72619 0.29462 0.0
C1927 C 0.41842 0.74799 0.21415 0.0
C1928 C 0.51473 0.7129 0.19337 0.0
C1929 C 0.47471 0.70413 0.19553 0.0
C1930 C 0.51545 0.72376 0.21242 0.0
C1931 C 0.47623 0.72556 0.23489 0.0
C1932 C 0.43653 0.71649 0.23775 0.0
C1933 C 0.43573 0.70597 0.21757 0.0
C1934 C 0.55765 0.73342 0.20809 0.0
C1935 C 0.39519 0.71785 0.26221 0.0
H1936 H 0.53599 0.75011 0.31786 0.0
H1937 H 0.43588 0.76808 0.2516 0.0
H1938 H 0.50672 0.71786 0.29495 0.0
H1939 H 0.56541 0.72377 0.2791 0.0
H1940 H 0.54781 0.72776 0.3186 0.0
H1941 H 0.3978 0.7571 0.2102 0.0
H1942 H 0.44422 0.74624 0.19397 0.0
H1943 H 0.39008 0.74015 0.21461 0.0
H1944 H 0.54481 0.71141 0.17628 0.0
H1945 H 0.40526 0.69902 0.21951 0.0
H1946 H 0.57972 0.73447 0.23007 0.0
H1947 H 0.54091 0.74286 0.20256 0.0
H1948 H 0.58451 0.73073 0.18906 0.0
H1949 H 0.36889 0.70955 0.26259 0.0
H1950 H 0.37239 0.72656 0.25773 0.0
H1951 H 0.41271 0.71892 0.28569 0.0
C1952 C 0.58936 0.48336 0.92974 0.0
C1953 C 0.55121 0.47499 0.91932 0.0
C1954 C 0.57666 0.49533 0.94185 0.0
C1955 C 0.52472 0.49912 0.94274 0.0
C1956 C 0.48695 0.49143 0.92843 0.0
C1957 C 0.50057 0.47936 0.9171 0.0
C1958 C 0.6182 0.50326 0.95677 0.0
C1959 C 0.43152 0.49545 0.92756 0.0
C1960 C 0.48994 0.51796 0.01508 0.0
C1961 C 0.49445 0.53045 0.00426 0.0
C1962 C 0.49817 0.50765 -0.00509 0.0
C1963 C 0.5096 0.50994 0.963 0.0
C1964 C 0.51105 0.52256 0.95158 0.0
C1965 C 0.50439 0.5327 0.97252 0.0
C1966 C 0.49689 0.49431 0.00809 0.0
C1967 C 0.52112 0.52538 0.91754 0.0
H1968 H 0.62875 0.48016 0.9311 0.0
H1969 H 0.47096 0.47304 0.9085 0.0
H1970 H 0.61546 0.51331 0.94906 0.0
H1971 H 0.61333 0.50314 0.98254 0.0
H1972 H 0.65709 0.49965 0.95112 0.0
H1973 H 0.4096 0.49 0.90979 0.0
H1974 H 0.41384 0.49372 0.95075 0.0
H1975 H 0.42797 0.50576 0.9224 0.0
H1976 H 0.48206 0.51626 0.03961 0.0
H1977 H 0.50687 0.5424 0.96405 0.0
H1978 H 0.53503 0.48979 0.00533 0.0
H1979 H 0.46893 0.48842 -0.00496 0.0
H1980 H 0.48641 0.49417 0.03325 0.0
H1981 H 0.56246 0.52414 0.9125 0.0
H1982 H 0.51024 0.53529 0.91134 0.0
H1983 H 0.49978 0.51871 0.90226 0.0
C1984 C 0.1692 0.31434 0.17141 0.0
C1985 C 0.12438 0.31857 0.18617 0.0
C1986 C 0.17593 0.31581 0.13921 0.0
C1987 C 0.13744 0.32195 0.1215 0.0
C1988 C 0.09503 0.32756 0.13679 0.0
C1989 C 0.0886 0.32566 0.16902 0.0
C1990 C 0.2217 0.30961 0.1238 0.0
C1991 C 0.05438 0.33465 0.11882 0.0
C1992 C 0.17766 0.32478 0.037 0.0
C1993 C 0.15804 0.31337 0.02489 0.0
C1994 C 0.1671 0.32847 0.06788 0.0
C1995 C 0.13756 0.32035 0.0871 0.0
C1996 C 0.1144 0.30936 0.07419 0.0
C1997 C 0.12441 0.30611 0.04311 0.0
C1998 C 0.19064 0.34053 0.08049 0.0
C1999 C 0.08295 0.30036 0.09394 0.0
H2000 H 0.19739 0.30898 0.18452 0.0
H2001 H 0.05431 0.32918 0.18039 0.0
H2002 H 0.20884 0.3013 0.10982 0.0
H2003 H 0.2407 0.31634 0.10761 0.0
H2004 H 0.25034 0.30626 0.14112 0.0
H2005 H 0.03161 0.34097 0.13435 0.0
H2006 H 0.07162 0.34046 0.0999 0.0
H2007 H 0.02789 0.32773 0.10782 0.0
H2008 H 0.20302 0.33056 0.02284 0.0
H2009 H 0.10877 0.29732 0.03387 0.0
H2010 H 0.22615 0.33816 0.09344 0.0
H2011 H 0.16425 0.34539 0.09697 0.0
H2012 H 0.20078 0.34722 0.06138 0.0
H2013 H 0.10794 0.29576 0.11161 0.0
H2014 H 0.06454 0.29277 0.07977 0.0
H2015 H 0.05269 0.30563 0.10671 0.0
C2016 C 0.11742 0.90583 0.03279 0.0
C2017 C 0.15016 0.91446 0.01791 0.0
C2018 C 0.12321 0.90308 0.06467 0.0
C2019 C 0.16148 0.90946 0.08208 0.0
C2020 C 0.19547 0.91792 0.06693 0.0
C2021 C 0.18983 0.92017 0.0349 0.0
C2022 C 0.08723 0.89373 0.07996 0.0
C2023 C 0.2358 0.92519 0.08485 0.0
C2024 C 0.13518 0.91622 0.16732 0.0
C2025 C 0.16947 0.90795 0.18218 0.0
C2026 C 0.13191 0.91668 0.13473 0.0
C2027 C 0.16267 0.9084 0.1166 0.0
C2028 C 0.19623 0.89972 0.13148 0.0
C2029 C 0.19987 0.89975 0.16422 0.0
C2030 C 0.09671 0.92632 0.11973 0.0
C2031 C 0.22852 0.89054 0.11281 0.0
H2032 H 0.08704 0.90132 0.01956 0.0
H2033 H 0.21498 0.92693 0.02347 0.0
H2034 H 0.10895 0.88689 0.09458 0.0
H2035 H 0.06045 0.89889 0.0956 0.0
H2036 H 0.06442 0.88834 0.06252 0.0
H2037 H 0.261 0.93085 0.06925 0.0
H2038 H 0.217 0.93176 0.10163 0.0
H2039 H 0.25992 0.91857 0.09863 0.0
H2040 H 0.11196 0.92265 0.1812 0.0
H2041 H 0.2261 0.89329 0.17578 0.0
H2042 H 0.06866 0.92146 0.10441 0.0
H2043 H 0.11927 0.93289 0.10481 0.0
H2044 H 0.07539 0.93206 0.13726 0.0
H2045 H 0.20408 0.8851 0.09634 0.0
H2046 H 0.24944 0.88372 0.12797 0.0
H2047 H 0.25683 0.89586 0.09861 0.0
C2048 C 0.91992 0.65147 0.79957 0.0
C2049 C 0.89449 0.65837 0.77622 0.0
C2050 C 0.89901 0.65038 0.82961 0.0
C2051 C 0.85166 0.65632 0.83634 0.0
C2052 C 0.82366 0.66228 0.81216 0.0
C2053 C 0.84537 0.6632 0.7823 0.0
C2054 C 0.92972 0.6438 0.85475 0.0
C2055 C 0.77288 0.66867 0.8184 0.0
C2056 C 0.79121 0.65058 0.9158 0.0
C2057 C 0.81001 0.66099 0.93285 0.0
C2058 C 0.80374 0.64897 0.88413 0.0
C2059 C 0.83555 0.65802 0.8693 0.0
C2060 C 0.8535 0.66872 0.88617 0.0
C2061 C 0.84057 0.67005 0.91772 0.0
C2062 C 0.78401 0.63747 0.86677 0.0
C2063 C 0.88722 0.67865 0.87106 0.0
H2064 H 0.95759 0.64757 0.79498 0.0
H2065 H 0.8251 0.66843 0.76432 0.0
H2066 H 0.94622 0.65105 0.8707 0.0
H2067 H 0.90491 0.6375 0.86896 0.0
H2068 H 0.96157 0.63806 0.84486 0.0
H2069 H 0.75231 0.671 0.79643 0.0
H2070 H 0.74801 0.66253 0.83301 0.0
H2071 H 0.77943 0.67764 0.83151 0.0
H2072 H 0.76764 0.64352 0.92736 0.0
H2073 H 0.85499 0.67817 0.93065 0.0
H2074 H 0.8166 0.63135 0.85962 0.0
H2075 H 0.76402 0.64045 0.84511 0.0
H2076 H 0.7573 0.63171 0.88117 0.0
H2077 H 0.92346 0.67421 0.86304 0.0
H2078 H 0.8967 0.68658 0.88725 0.0
H2079 H 0.86797 0.68268 0.85019 0.0
C2080 C 0.91582 0.06178 0.82261 0.0
C2081 C 0.87042 0.06477 0.80677 0.0
C2082 C 0.91817 0.06219 0.85527 0.0
C2083 C 0.87428 0.06585 0.87245 0.0
C2084 C 0.82954 0.0698 0.85657 0.0
C2085 C 0.82799 0.06912 0.82384 0.0
C2086 C 0.96654 0.05784 0.87139 0.0
C2087 C 0.7824 0.07403 0.87416 0.0
C2088 C 0.86387 0.04986 0.95121 0.0
C2089 C 0.88465 0.05912 0.9711 0.0
C2090 C 0.85852 0.05215 0.91917 0.0
C2091 C 0.87366 0.06405 0.90679 0.0
C2092 C 0.89213 0.07369 0.92694 0.0
C2093 C 0.89782 0.07107 0.9589 0.0
C2094 C 0.83898 0.04159 0.89836 0.0
C2095 C 0.9076 0.08657 0.91458 0.0
H2096 H 0.94888 0.05847 0.80962 0.0
H2097 H 0.79295 0.0716 0.81173 0.0
H2098 H 0.97872 0.06492 0.8891 0.0
H2099 H 0.95914 0.04876 0.88383 0.0
H2100 H 0.99854 0.05631 0.85469 0.0
H2101 H 0.75404 0.07869 0.85857 0.0
H2102 H 0.76395 0.06565 0.88517 0.0
H2103 H 0.79275 0.08074 0.89315 0.0
H2104 H 0.85349 0.04061 0.96044 0.0
H2105 H 0.91337 0.07832 0.97422 0.0
H2106 H 0.8696 0.0386 0.88192 0.0
H2107 H 0.80627 0.045 0.88414 0.0
H2108 H 0.82646 0.03312 0.91189 0.0
H2109 H 0.94297 0.08563 0.90041 0.0
H2110 H 0.9149 0.0935 0.93368 0.0
H2111 H 0.8774 0.09045 0.89905 0.0
C2112 C 0.03987 0.7953 0.72314 0.0
C2113 C 0.00083 0.80417 0.72873 0.0
C2114 C 0.06026 0.79365 0.69322 0.0
C2115 C 0.0417 0.80122 0.6684 0.0
C2116 C 0.00117 0.80993 0.67365 0.0
C2117 C 0.98077 0.81123 0.70387 0.0
C2118 C 0.10267 0.78406 0.6884 0.0
C2119 C 0.98076 0.8182 0.64766 0.0
C2120 C 0.13551 0.80606 0.60195 0.0
C2121 C 0.11763 0.79728 0.57985 0.0
C2122 C 0.11019 0.8077 0.63058 0.0
C2123 C 0.06635 0.80028 0.6373 0.0
C2124 C 0.04806 0.79141 0.6151 0.0
C2125 C 0.07382 0.79006 0.58658 0.0
C2126 C 0.13061 0.81728 0.65375 0.0
C2127 C 0.00184 0.78321 0.6217 0.0
H2128 H 0.05493 0.78971 0.74235 0.0
H2129 H 0.95069 0.81812 0.70828 0.0
H2130 H 0.09277 0.77746 0.66908 0.0
H2131 H 0.13841 0.78904 0.68165 0.0
H2132 H 0.11035 0.77836 0.70976 0.0
H2133 H 0.94738 0.824 0.65521 0.0
H2134 H 0.01133 0.82471 0.63942 0.0
H2135 H 0.96922 0.81225 0.62744 0.0
H2136 H 0.16905 0.81175 0.5968 0.0
H2137 H 0.05974 0.78324 0.56961 0.0
H2138 H 0.14329 0.81232 0.67529 0.0
H2139 H 0.09992 0.82404 0.66058 0.0
H2140 H 0.1634 0.82278 0.64426 0.0
H2141 H 0.00958 0.77699 0.64208 0.0
H2142 H 0.99139 0.77712 0.60145 0.0
H2143 H 0.9685 0.78926 0.62781 0.0
C2144 C 0.15701 0.405 0.65857 0.0
C2145 C 0.14214 0.41189 0.68511 0.0
C2146 C 0.12813 0.40555 0.63101 0.0
C2147 C 0.08384 0.41331 0.62993 0.0
C2148 C 0.06813 0.42011 0.65679 0.0
C2149 C 0.09735 0.41927 0.68412 0.0
C2150 C 0.14572 0.39807 0.60281 0.0
C2151 C 0.0215 0.42862 0.65633 0.0
C2152 C 0.05187 0.42552 0.54939 0.0
C2153 C 0.01261 0.41724 0.54027 0.0
C2154 C 0.07388 0.42465 0.57906 0.0
C2155 C 0.05666 0.41515 0.59992 0.0
C2156 C 0.01556 0.40709 0.59136 0.0
C2157 C 0.99361 0.4083 0.56157 0.0
C2158 C 0.11694 0.4336 0.58758 0.0
C2159 C 0.99652 0.3968 0.61305 0.0
H2160 H 0.19126 0.39918 0.6593 0.0
H2161 H 0.0856 0.42463 0.70456 0.0
H2162 H 0.11385 0.3922 0.59358 0.0
H2163 H 0.1574 0.40472 0.58398 0.0
H2164 H 0.17855 0.39173 0.60823 0.0
H2165 H 0.01242 0.43255 0.6798 0.0
H2166 H 0.02803 0.43667 0.64004 0.0
H2167 H 0.98775 0.4233 0.64764 0.0
H2168 H 0.06621 0.43253 0.533 0.0
H2169 H 0.96343 0.40186 0.55441 0.0
H2170 H 0.15301 0.42814 0.59033 0.0
H2171 H 0.10886 0.43831 0.61027 0.0
H2172 H 0.12307 0.44106 0.56959 0.0
H2173 H 0.02689 0.38953 0.61625 0.0
H2174 H 0.96169 0.39202 0.60391 0.0
H2175 H 0.98782 0.40083 0.63643 0.0
C2176 C 0.87904 0.16526 0.28994 0.0
C2177 C 0.86321 0.17502 0.26982 0.0
C2178 C 0.8669 0.16562 0.32184 0.0
C2179 C 0.83899 0.17607 0.33392 0.0
C2180 C 0.82366 0.18606 0.31386 0.0
C2181 C 0.83564 0.18537 0.28196 0.0
C2182 C 0.88341 0.15472 0.34254 0.0
C2183 C 0.7946 0.19746 0.32608 0.0
C2184 C 0.769 0.17107 0.4106 0.0
C2185 C 0.80448 0.17589 0.43211 0.0
C2186 C 0.77942 0.17123 0.37844 0.0
C2187 C 0.82599 0.17652 0.36764 0.0
C2188 C 0.86111 0.1818 0.38918 0.0
C2189 C 0.85011 0.18132 0.4212 0.0
C2190 C 0.74133 0.16539 0.35611 0.0
C2191 C 0.91071 0.18774 0.37845 0.0
H2192 H 0.90005 0.1572 0.28066 0.0
H2193 H 0.82355 0.19297 0.26653 0.0
H2194 H 0.90851 0.1583 0.3615 0.0
H2195 H 0.84942 0.15035 0.35377 0.0
H2196 H 0.90436 0.14723 0.3294 0.0
H2197 H 0.78652 0.20456 0.30749 0.0
H2198 H 0.75775 0.19436 0.33644 0.0
H2199 H 0.81682 0.20217 0.3449 0.0
H2200 H 0.73376 0.16683 0.41895 0.0
H2201 H 0.87742 0.18519 0.43773 0.0
H2202 H 0.75918 0.1572 0.34385 0.0
H2203 H 0.73016 0.17242 0.33802 0.0
H2204 H 0.70623 0.16202 0.36819 0.0
H2205 H 0.93525 0.1804 0.36734 0.0
H2206 H 0.93233 0.19213 0.39803 0.0
H2207 H 0.90304 0.19515 0.36059 0.0
C2208 C 0.90023 0.58336 0.43753 0.0
C2209 C 0.87117 0.57478 0.45528 0.0
C2210 C 0.89389 0.58418 0.40509 0.0
C2211 C 0.85804 0.57614 0.39021 0.0
C2212 C 0.82467 0.56855 0.40841 0.0
C2213 C 0.83143 0.56802 0.44087 0.0
C2214 C 0.92921 0.59267 0.38654 0.0
C2215 C 0.78565 0.5599 0.3934 0.0
C2216 C 0.83334 0.57711 0.3028 0.0
C2217 C 0.86515 0.5672 0.29231 0.0
C2218 C 0.83174 0.58051 0.33454 0.0
C2219 C 0.86227 0.57374 0.35616 0.0
C2220 C 0.89585 0.56407 0.34552 0.0
C2221 C 0.89706 0.56098 0.31374 0.0
C2222 C 0.79605 0.59098 0.34502 0.0
C2223 C 0.92919 0.55663 0.36787 0.0
H2224 H 0.93036 0.58882 0.44865 0.0
H2225 H 0.80848 0.56145 0.45447 0.0
H2226 H 0.96021 0.58681 0.37611 0.0
H2227 H 0.90841 0.59736 0.36711 0.0
H2228 H 0.94705 0.6001 0.40145 0.0
H2229 H 0.7575 0.55623 0.41065 0.0
H2230 H 0.76471 0.56493 0.37456 0.0
H2231 H 0.80556 0.55165 0.38262 0.0
H2232 H 0.80867 0.58201 0.28639 0.0
H2233 H 0.92191 0.55335 0.30589 0.0
H2234 H 0.81572 0.59753 0.36141 0.0
H2235 H 0.76314 0.58676 0.3577 0.0
H2236 H 0.78105 0.59657 0.325 0.0
H2237 H 0.95386 0.5632 0.38144 0.0
H2238 H 0.95411 0.54964 0.35565 0.0
H2239 H 0.90483 0.55141 0.3848 0.0
C2240 C 0.64167 0.31407 0.5341 0.0
C2241 C 0.68268 0.31991 0.51858 0.0
C2242 C 0.63408 0.31586 0.56617 0.0
C2243 C 0.66809 0.32376 0.58306 0.0
C2244 C 0.70695 0.33051 0.56712 0.0
C2245 C 0.71391 0.32848 0.53499 0.0
C2246 C 0.59197 0.30854 0.58234 0.0
C2247 C 0.74333 0.3392 0.58432 0.0
C2248 C 0.62709 0.33026 0.66646 0.0
C2249 C 0.6527 0.3205 0.68247 0.0
C2250 C 0.63389 0.33196 0.63421 0.0
C2251 C 0.6666 0.3236 0.61767 0.0
C2252 C 0.69447 0.31414 0.63395 0.0
C2253 C 0.68735 0.31275 0.66619 0.0
C2254 C 0.60427 0.34228 0.61765 0.0
C2255 C 0.72977 0.30504 0.61708 0.0
H2256 H 0.61693 0.30756 0.52156 0.0
H2257 H 0.74539 0.33314 0.52313 0.0
H2258 H 0.60909 0.30114 0.59761 0.0
H2259 H 0.56904 0.31495 0.59746 0.0
H2260 H 0.56587 0.3038 0.56548 0.0
H2261 H 0.76534 0.34535 0.56806 0.0
H2262 H 0.72232 0.34533 0.60111 0.0
H2263 H 0.77085 0.33338 0.59793 0.0
H2264 H 0.60065 0.33639 0.67894 0.0
H2265 H 0.70755 0.30523 0.67838 0.0
H2266 H 0.57348 0.33791 0.60339 0.0
H2267 H 0.62954 0.34762 0.60147 0.0
H2268 H 0.58649 0.34909 0.6343 0.0
H2269 H 0.70713 0.29892 0.60107 0.0
H2270 H 0.7512 0.29879 0.63343 0.0
H2271 H 0.75768 0.31037 0.60261 0.0
C2272 C 0.61965 0.92836 0.53444 0.0
C2273 C 0.57304 0.92252 0.52696 0.0
C2274 C 0.64368 0.92604 0.56305 0.0
C2275 C 0.62086 0.91752 0.58447 0.0
C2276 C 0.57324 0.91179 0.57738 0.0
C2277 C 0.54955 0.91445 0.54869 0.0
C2278 C 0.69388 0.93257 0.57012 0.0
C2279 C 0.54812 0.90258 0.59969 0.0
C2280 C 0.71209 0.90317 0.64366 0.0
C2281 C 0.70268 0.91084 0.66985 0.0
C2282 C 0.68439 0.90496 0.61591 0.0
C2283 C 0.64711 0.91473 0.61435 0.0
C2284 C 0.63718 0.92241 0.64079 0.0
C2285 C 0.6649 0.92033 0.66824 0.0
C2286 C 0.69552 0.89653 0.58813 0.0
C2287 C 0.59826 0.93305 0.63983 0.0
H2288 H 0.63768 0.93468 0.51771 0.0
H2289 H 0.51374 0.90985 0.54276 0.0
H2290 H 0.69096 0.93793 0.5924 0.0
H2291 H 0.72452 0.92536 0.57308 0.0
H2292 H 0.70553 0.93926 0.55134 0.0
H2293 H 0.51062 0.89913 0.5909 0.0
H2294 H 0.57355 0.89427 0.60346 0.0
H2295 H 0.54218 0.90718 0.62275 0.0
H2296 H 0.74092 0.89577 0.64487 0.0
H2297 H 0.65746 0.92632 0.68837 0.0
H2298 H 0.71146 0.90232 0.56878 0.0
H2299 H 0.6596 0.89214 0.57948 0.0
H2300 H 0.7232 0.88884 0.59379 0.0
H2301 H 0.61021 0.9403 0.62246 0.0
H2302 H 0.59359 0.93779 0.66287 0.0
H2303 H 0.56052 0.92934 0.63228 0.0
C2304 C 0.4467 0.64624 0.36593 0.0
C2305 C 0.41451 0.6383 0.38334 0.0
C2306 C 0.44906 0.64528 0.33335 0.0
C2307 C 0.41965 0.63587 0.31787 0.0
C2308 C 0.39045 0.62711 0.33553 0.0
C2309 C 0.38746 0.62857 0.36811 0.0
C2310 C 0.48029 0.65494 0.31542 0.0
C2311 C 0.36031 0.61661 0.32003 0.0
C2312 C 0.3814 0.64784 0.23845 0.0
C2313 C 0.42352 0.64397 0.22051 0.0
C2314 C 0.37713 0.6443 0.26988 0.0
C2315 C 0.41516 0.63642 0.28332 0.0
C2316 C 0.45398 0.63115 0.26421 0.0
C2317 C 0.45826 0.63516 0.23304 0.0
C2318 C 0.33514 0.65018 0.28944 0.0
C2319 C 0.49357 0.62217 0.2773 0.0
H2320 H 0.46767 0.65378 0.37756 0.0
H2321 H 0.363 0.6223 0.38156 0.0
H2322 H 0.50769 0.65006 0.29965 0.0
H2323 H 0.4546 0.66081 0.30064 0.0
H2324 H 0.50214 0.66138 0.33108 0.0
H2325 H 0.35171 0.60879 0.33666 0.0
H2326 H 0.32344 0.62048 0.31142 0.0
H2327 H 0.38131 0.61264 0.29969 0.0
H2328 H 0.3542 0.65458 0.22885 0.0
H2329 H 0.49036 0.63194 0.21904 0.0
H2330 H 0.31594 0.64284 0.30385 0.0
H2331 H 0.30581 0.65503 0.2749 0.0
H2332 H 0.352 0.65729 0.30564 0.0
H2333 H 0.52321 0.6277 0.28993 0.0
H2334 H 0.51275 0.61664 0.25849 0.0
H2335 H 0.47601 0.61545 0.29418 0.0
C2336 C 0.47037 0.08416 0.41344 0.0
C2337 C 0.44251 0.07669 0.43464 0.0
C2338 C 0.45737 0.08439 0.3816 0.0
C2339 C 0.41617 0.07684 0.37083 0.0
C2340 C 0.38628 0.06985 0.39239 0.0
C2341 C 0.39956 0.06996 0.42403 0.0
C2342 C 0.48926 0.0922 0.35931 0.0
C2343 C 0.34215 0.06161 0.38185 0.0
C2344 C 0.35324 0.07855 0.2914 0.0
C2345 C 0.37532 0.06799 0.27647 0.0
C2346 C 0.36904 0.08223 0.3214 0.0
C2347 C 0.40705 0.07503 0.33692 0.0
C2348 C 0.43156 0.06485 0.32123 0.0
C2349 C 0.41566 0.06152 0.29108 0.0
C2350 C 0.34296 0.09335 0.33715 0.0
C2351 C 0.47202 0.05686 0.33709 0.0
H2352 H 0.50332 0.08949 0.4215 0.0
H2353 H 0.3775 0.06424 0.44022 0.0
H2354 H 0.51416 0.08579 0.34538 0.0
H2355 H 0.46444 0.09744 0.34269 0.0
H2356 H 0.51398 0.09912 0.37182 0.0
H2357 H 0.32098 0.05737 0.4018 0.0
H2358 H 0.31489 0.06725 0.36761 0.0
H2359 H 0.35674 0.05377 0.36688 0.0
H2360 H 0.32257 0.08373 0.28004 0.0
H2361 H 0.43315 0.05339 0.27966 0.0
H2362 H 0.37137 0.09945 0.34926 0.0
H2363 H 0.3159 0.08976 0.35508 0.0
H2364 H 0.3212 0.09927 0.32025 0.0
H2365 H 0.50204 0.06302 0.34741 0.0
H2366 H 0.49049 0.05004 0.32075 0.0
H2367 H 0.45436 0.05139 0.35648 0.0
C2368 C 0.58147 0.80585 0.0712 0.0
C2369 C 0.62469 0.8106 0.0557 0.0
C2370 C 0.5766 0.80688 0.10362 0.0
C2371 C 0.61528 0.81313 0.12092 0.0
C2372 C 0.65791 0.81848 0.10531 0.0
C2373 C 0.66254 0.81698 0.0728 0.0
C2374 C 0.53111 0.80077 0.11946 0.0
C2375 C 0.6991 0.8255 0.12301 0.0
C2376 C 0.57113 0.82063 0.20306 0.0
C2377 C 0.59049 0.81014 0.21945 0.0
C2378 C 0.58236 0.82233 0.17126 0.0
C2379 C 0.61231 0.8131 0.1555 0.0
C2380 C 0.63386 0.80283 0.17231 0.0
C2381 C 0.62319 0.80157 0.2042 0.0
C2382 C 0.55999 0.8336 0.15422 0.0
C2383 C 0.66501 0.79262 0.1562 0.0
H2384 H 0.55228 0.80082 0.05811 0.0
H2385 H 0.69581 0.82074 0.06081 0.0
H2386 H 0.54443 0.79322 0.13566 0.0
H2387 H 0.51007 0.80792 0.13359 0.0
H2388 H 0.50403 0.79646 0.10249 0.0
H2389 H 0.72641 0.83037 0.10711 0.0
H2390 H 0.68173 0.83268 0.13883 0.0
H2391 H 0.72081 0.81872 0.13778 0.0
H2392 H 0.54636 0.82737 0.21491 0.0
H2393 H 0.63817 0.79342 0.21677 0.0
H2394 H 0.52809 0.83038 0.13907 0.0
H2395 H 0.58918 0.83805 0.13889 0.0
H2396 H 0.54499 0.84091 0.17061 0.0
H2397 H 0.64002 0.78717 0.14006 0.0
H2398 H 0.68251 0.78586 0.17305 0.0
H2399 H 0.69589 0.79694 0.14197 0.0
C2400 C 0.56889 0.42578 0.0509 0.0
C2401 C 0.59413 0.43534 0.03414 0.0
C2402 C 0.57395 0.42494 0.08345 0.0
C2403 C 0.60399 0.43406 0.09947 0.0
C2404 C 0.62766 0.44406 0.08276 0.0
C2405 C 0.62289 0.4445 0.05021 0.0
C2406 C 0.54872 0.41405 0.10055 0.0
C2407 C 0.65894 0.45413 0.09918 0.0
C2408 C 0.58522 0.43728 0.18683 0.0
C2409 C 0.62767 0.43059 0.19836 0.0
C2410 C 0.57731 0.43861 0.15464 0.0
C2411 C 0.61217 0.43291 0.13358 0.0
C2412 C 0.65511 0.42614 0.14506 0.0
C2413 C 0.66265 0.42518 0.1774 0.0
C2414 C 0.53177 0.44614 0.14318 0.0
C2415 C 0.6927 0.4198 0.1232 0.0
H2416 H 0.54693 0.41865 0.03844 0.0
H2417 H 0.64205 0.45197 0.03726 0.0
H2418 H 0.57841 0.40804 0.11177 0.0
H2419 H 0.52364 0.41775 0.11941 0.0
H2420 H 0.52547 0.40798 0.08475 0.0
H2421 H 0.67176 0.46176 0.08301 0.0
H2422 H 0.63629 0.45853 0.11831 0.0
H2423 H 0.69322 0.44972 0.10996 0.0
H2424 H 0.55833 0.44157 0.20301 0.0
H2425 H 0.6953 0.41994 0.18628 0.0
H2426 H 0.50647 0.43995 0.12897 0.0
H2427 H 0.54478 0.45401 0.12786 0.0
H2428 H 0.50898 0.45023 0.16268 0.0
H2429 H 0.67238 0.4129 0.10797 0.0
H2430 H 0.72352 0.41469 0.13593 0.0
H2431 H 0.71053 0.42701 0.10772 0.0
C2432 C 0.26003 0.17996 0.84808 0.0
C2433 C 0.30786 0.1739 0.84626 0.0
C2434 C 0.23544 0.18174 0.87691 0.0
C2435 C 0.25896 0.1772 0.90448 0.0
C2436 C 0.30656 0.17077 0.90271 0.0
C2437 C 0.3306 0.16928 0.87364 0.0
C2438 C 0.18502 0.18876 0.87797 0.0
C2439 C 0.33255 0.16566 0.93162 0.0
C2440 C 0.2346 0.19127 0.98445 0.0
C2441 C 0.20446 0.1818 -0.00168 0.0
C2442 C 0.24991 0.19031 0.95315 0.0
C2443 C 0.23514 0.17953 0.93547 0.0
C2444 C 0.20177 0.17039 0.94867 0.0
C2445 C 0.1865 0.17168 0.97996 0.0
C2446 C 0.28466 0.20039 0.93969 0.0
C2447 C 0.1853 0.15877 0.93054 0.0
H2448 H 0.2423 0.18363 0.82703 0.0
H2449 H 0.36738 0.16452 0.87238 0.0
H2450 H 0.15577 0.18296 0.89017 0.0
H2451 H 0.18952 0.19772 0.89145 0.0
H2452 H 0.17062 0.19116 0.85427 0.0
H2453 H 0.36822 0.16036 0.92606 0.0
H2454 H 0.34224 0.17363 0.94758 0.0
H2455 H 0.30625 0.15922 0.94442 0.0
H2456 H 0.24826 0.19916 -0.00153 0.0
H2457 H 0.1633 0.1643 0.99056 0.0
H2458 H 0.27027 0.2036 0.91662 0.0
H2459 H 0.32343 0.19634 0.93598 0.0
H2460 H 0.28812 0.2088 0.9553 0.0
H2461 H 0.17156 0.16146 0.90694 0.0
H2462 H 0.15453 0.15341 0.9427 0.0
H2463 H 0.21861 0.15233 0.92735 0.0
C2464 C 0.32641 0.57559 -0.00404 0.0
C2465 C 0.36915 0.58289 0.00445 0.0
C2466 C 0.30681 0.57616 0.96553 0.0
C2467 C 0.33003 0.58439 0.94356 0.0
C2468 C 0.36659 0.5934 0.95377 0.0
C2469 C 0.38608 0.5925 0.9842 0.0
C2470 C 0.2668 0.56659 0.95582 0.0
C2471 C 0.39036 0.60278 0.93142 0.0
C2472 C 0.36044 0.56907 0.86582 0.0
C2473 C 0.32202 0.57395 0.84646 0.0
C2474 C 0.36316 0.57246 0.89736 0.0
C2475 C 0.32703 0.58117 0.90984 0.0
C2476 C 0.28849 0.58631 0.89036 0.0
C2477 C 0.28624 0.58257 0.85883 0.0
C2478 C 0.40447 0.56653 0.9174 0.0
C2479 C 0.25024 0.59587 0.90258 0.0
H2480 H 0.31205 0.56835 0.01174 0.0
H2481 H 0.41802 0.59848 0.99096 0.0
H2482 H 0.23941 0.57079 0.93895 0.0
H2483 H 0.2859 0.55842 0.94415 0.0
H2484 H 0.24517 0.5629 0.97626 0.0
H2485 H 0.40818 0.61089 0.94404 0.0
H2486 H 0.4206 0.59792 0.91762 0.0
H2487 H 0.36147 0.60652 0.91481 0.0
H2488 H 0.38795 0.56234 0.85647 0.0
H2489 H 0.25674 0.58646 0.84382 0.0
H2490 H 0.38696 0.5614 0.93737 0.0
H2491 H 0.42956 0.57407 0.92714 0.0
H2492 H 0.42873 0.55972 0.90415 0.0
H2493 H 0.2349 0.59291 0.92563 0.0
H2494 H 0.21776 0.59725 0.88619 0.0
H2495 H 0.26957 0.60517 0.90591 0.0
loop_
_geom_bond_atom_site_label_1
_geom_bond_atom_site_label_2
_geom_bond_distance
_geom_bond_site_symmetry_2
_ccdc_geom_bond_type
C0 O1 1.306 . S
C0 O3 1.160 . S
O1 C0 1.306 . S
O1 Cd2 2.228 1_455 S
Cd2 O1 2.228 1_655 S
Cd2 O6 2.273 1_655 S
Cd2 O10 2.277 1_655 S
O3 C0 1.160 . S
O3 Cd4 2.203 . S
Cd4 O3 2.203 . S
Cd4 O6 2.411 . S
Cd4 O7 2.333 . S
Cd4 O8 2.352 . S
Cd4 O12 2.277 . S
Cd4 O13 2.356 . S
C5 O10 1.209 . S
C5 O12 1.226 . S
O6 Cd2 2.273 1_455 S
O6 Cd4 2.411 . S
O6 C9 1.320 . S
O7 Cd4 2.333 . S
O7 C9 1.214 . S
O8 Cd4 2.352 . S
O8 C11 1.258 . S
C9 O6 1.320 . S
C9 O7 1.214 . S
O10 Cd2 2.277 1_455 S
O10 C5 1.209 . S
C11 O8 1.258 . S
C11 O13 1.282 . S
O12 Cd4 2.277 . S
O12 C5 1.226 . S
O13 Cd4 2.356 . S
O13 C11 1.282 . S
C14 O15 1.306 . S
C14 O17 1.160 . S
O15 C14 1.306 . S
O15 Cd16 2.228 . S
Cd16 O15 2.228 . S
Cd16 O20 2.273 . S
Cd16 O24 2.277 . S
O17 C14 1.160 . S
O17 Cd18 2.203 . S
Cd18 O17 2.203 . S
Cd18 O20 2.411 . S
Cd18 O21 2.333 . S
Cd18 O22 2.352 . S
Cd18 O26 2.277 . S
Cd18 O27 2.356 . S
C19 O24 1.209 . S
C19 O26 1.226 . S
O20 Cd16 2.273 . S
O20 Cd18 2.411 . S
O20 C23 1.320 . S
O21 Cd18 2.333 . S
O21 C23 1.214 . S
O22 Cd18 2.352 . S
O22 C25 1.258 . S
C23 O20 1.320 . S
C23 O21 1.214 . S
O24 Cd16 2.277 . S
O24 C19 1.209 . S
C25 O22 1.258 . S
C25 O27 1.282 . S
O26 Cd18 2.277 . S
O26 C19 1.226 . S
O27 Cd18 2.356 . S
O27 C25 1.282 . S
C28 O29 1.306 . S
C28 O31 1.160 . S
O29 C28 1.306 . S
O29 Cd30 2.228 1_455 S
Cd30 O29 2.228 1_655 S
Cd30 O34 2.273 1_655 S
Cd30 O38 2.277 1_656 S
O31 C28 1.160 . S
O31 Cd32 2.203 . S
Cd32 O31 2.203 . S
Cd32 O34 2.411 . S
Cd32 O35 2.333 . S
Cd32 O36 2.352 . S
Cd32 O40 2.277 1_556 S
Cd32 O41 2.356 . S
C33 O38 1.209 . S
C33 O40 1.226 . S
O34 Cd30 2.273 1_455 S
O34 Cd32 2.411 . S
O34 C37 1.320 . S
O35 Cd32 2.333 . S
O35 C37 1.214 . S
O36 Cd32 2.352 . S
O36 C39 1.258 . S
C37 O34 1.320 . S
C37 O35 1.214 . S
O38 Cd30 2.277 1_454 S
O38 C33 1.209 . S
C39 O36 1.258 . S
C39 O41 1.282 . S
O40 Cd32 2.277 1_554 S
O40 C33 1.226 . S
O41 Cd32 2.356 . S
O41 C39 1.282 . S
C42 O43 1.306 . S
C42 O45 1.160 . S
O43 C42 1.306 . S
O43 Cd44 2.228 . S
Cd44 O43 2.228 . S
Cd44 O48 2.273 . S
Cd44 O52 2.277 1_556 S
O45 C42 1.160 . S
O45 Cd46 2.203 . S
Cd46 O45 2.203 . S
Cd46 O48 2.411 . S
Cd46 O49 2.333 . S
Cd46 O50 2.352 . S
Cd46 O54 2.277 1_556 S
Cd46 O55 2.356 . S
C47 O52 1.209 . S
C47 O54 1.226 . S
O48 Cd44 2.273 . S
O48 Cd46 2.411 . S
O48 C51 1.320 . S
O49 Cd46 2.333 . S
O49 C51 1.214 . S
O50 Cd46 2.352 . S
O50 C53 1.258 . S
C51 O48 1.320 . S
C51 O49 1.214 . S
O52 Cd44 2.277 1_554 S
O52 C47 1.209 . S
C53 O50 1.258 . S
C53 O55 1.282 . S
O54 Cd46 2.277 1_554 S
O54 C47 1.226 . S
O55 Cd46 2.356 . S
O55 C53 1.282 . S
C56 O57 1.306 . S
C56 O59 1.160 . S
O57 C56 1.306 . S
O57 Cd58 2.228 1_655 S
Cd58 O57 2.228 1_455 S
Cd58 O62 2.273 1_455 S
Cd58 O66 2.277 1_455 S
O59 C56 1.160 . S
O59 Cd60 2.203 . S
Cd60 O59 2.203 . S
Cd60 O62 2.411 . S
Cd60 O63 2.333 . S
Cd60 O64 2.352 . S
Cd60 O68 2.277 . S
Cd60 O69 2.356 . S
C61 O66 1.209 . S
C61 O68 1.226 . S
O62 Cd58 2.273 1_655 S
O62 Cd60 2.411 . S
O62 C65 1.320 . S
O63 Cd60 2.333 . S
O63 C65 1.214 . S
O64 Cd60 2.352 . S
O64 C67 1.258 . S
C65 O62 1.320 . S
C65 O63 1.214 . S
O66 Cd58 2.277 1_655 S
O66 C61 1.209 . S
C67 O64 1.258 . S
C67 O69 1.282 . S
O68 Cd60 2.277 . S
O68 C61 1.226 . S
O69 Cd60 2.356 . S
O69 C67 1.282 . S
C70 O71 1.306 . S
C70 O73 1.160 . S
O71 C70 1.306 . S
O71 Cd72 2.228 . S
Cd72 O71 2.228 . S
Cd72 O76 2.273 . S
Cd72 O80 2.277 . S
O73 C70 1.160 . S
O73 Cd74 2.203 . S
Cd74 O73 2.203 . S
Cd74 O76 2.411 . S
Cd74 O77 2.333 . S
Cd74 O78 2.352 . S
Cd74 O82 2.277 . S
Cd74 O83 2.356 . S
C75 O80 1.209 . S
C75 O82 1.226 . S
O76 Cd72 2.273 . S
O76 Cd74 2.411 . S
O76 C79 1.320 . S
O77 Cd74 2.333 . S
O77 C79 1.214 . S
O78 Cd74 2.352 . S
O78 C81 1.258 . S
C79 O76 1.320 . S
C79 O77 1.214 . S
O80 Cd72 2.277 . S
O80 C75 1.209 . S
C81 O78 1.258 . S
C81 O83 1.282 . S
O82 Cd74 2.277 . S
O82 C75 1.226 . S
O83 Cd74 2.356 . S
O83 C81 1.282 . S
C84 O85 1.306 . S
C84 O87 1.160 . S
O85 C84 1.306 . S
O85 Cd86 2.228 1_655 S
Cd86 O85 2.228 1_455 S
Cd86 O90 2.273 1_455 S
Cd86 O94 2.277 1_454 S
O87 C84 1.160 . S
O87 Cd88 2.203 . S
Cd88 O87 2.203 . S
Cd88 O90 2.411 . S
Cd88 O91 2.333 . S
Cd88 O92 2.352 . S
Cd88 O96 2.277 1_554 S
Cd88 O97 2.356 . S
C89 O94 1.209 . S
C89 O96 1.226 . S
O90 Cd86 2.273 1_655 S
O90 Cd88 2.411 . S
O90 C93 1.320 . S
O91 Cd88 2.333 . S
O91 C93 1.214 . S
O92 Cd88 2.352 . S
O92 C95 1.258 . S
C93 O90 1.320 . S
C93 O91 1.214 . S
O94 Cd86 2.277 1_656 S
O94 C89 1.209 . S
C95 O92 1.258 . S
C95 O97 1.282 . S
O96 Cd88 2.277 1_556 S
O96 C89 1.226 . S
O97 Cd88 2.356 . S
O97 C95 1.282 . S
C98 O99 1.306 . S
C98 O101 1.160 . S
O99 C98 1.306 . S
O99 Cd100 2.228 . S
Cd100 O99 2.228 . S
Cd100 O104 2.273 . S
Cd100 O108 2.277 1_554 S
O101 C98 1.160 . S
O101 Cd102 2.203 . S
Cd102 O101 2.203 . S
Cd102 O104 2.411 . S
Cd102 O105 2.333 . S
Cd102 O106 2.352 . S
Cd102 O110 2.277 1_554 S
Cd102 O111 2.356 . S
C103 O108 1.209 . S
C103 O110 1.226 . S
O104 Cd100 2.273 . S
O104 Cd102 2.411 . S
O104 C107 1.320 . S
O105 Cd102 2.333 . S
O105 C107 1.214 . S
O106 Cd102 2.352 . S
O106 C109 1.258 . S
C107 O104 1.320 . S
C107 O105 1.214 . S
O108 Cd100 2.277 1_556 S
O108 C103 1.209 . S
C109 O106 1.258 . S
C109 O111 1.282 . S
O110 Cd102 2.277 1_556 S
O110 C103 1.226 . S
O111 Cd102 2.356 . S
O111 C109 1.282 . S
C112 O113 1.306 . S
C112 O115 1.160 . S
O113 C112 1.306 . S
O113 Cd114 2.228 1_455 S
Cd114 O113 2.228 1_655 S
Cd114 O118 2.273 1_655 S
Cd114 O122 2.277 1_655 S
O115 C112 1.160 . S
O115 Cd116 2.203 . S
Cd116 O115 2.203 . S
Cd116 O118 2.411 . S
Cd116 O119 2.333 . S
Cd116 O120 2.352 . S
Cd116 O124 2.277 . S
Cd116 O125 2.356 . S
C117 O122 1.209 . S
C117 O124 1.226 . S
O118 Cd114 2.273 1_455 S
O118 Cd116 2.411 . S
O118 C121 1.320 . S
O119 Cd116 2.333 . S
O119 C121 1.214 . S
O120 Cd116 2.352 . S
O120 C123 1.258 . S
C121 O118 1.320 . S
C121 O119 1.214 . S
O122 Cd114 2.277 1_455 S
O122 C117 1.209 . S
C123 O120 1.258 . S
C123 O125 1.282 . S
O124 Cd116 2.277 . S
O124 C117 1.226 . S
O125 Cd116 2.356 . S
O125 C123 1.282 . S
C126 O127 1.306 . S
C126 O129 1.160 . S
O127 C126 1.306 . S
O127 Cd128 2.228 . S
Cd128 O127 2.228 . S
Cd128 O132 2.273 . S
Cd128 O136 2.277 . S
O129 C126 1.160 . S
O129 Cd130 2.203 . S
Cd130 O129 2.203 . S
Cd130 O132 2.411 . S
Cd130 O133 2.333 . S
Cd130 O134 2.352 . S
Cd130 O138 2.277 . S
Cd130 O139 2.356 . S
C131 O136 1.209 . S
C131 O138 1.226 . S
O132 Cd128 2.273 . S
O132 Cd130 2.411 . S
O132 C135 1.320 . S
O133 Cd130 2.333 . S
O133 C135 1.214 . S
O134 Cd130 2.352 . S
O134 C137 1.258 . S
C135 O132 1.320 . S
C135 O133 1.214 . S
O136 Cd128 2.277 . S
O136 C131 1.209 . S
C137 O134 1.258 . S
C137 O139 1.282 . S
O138 Cd130 2.277 . S
O138 C131 1.226 . S
O139 Cd130 2.356 . S
O139 C137 1.282 . S
C140 O141 1.306 . S
C140 O143 1.160 . S
O141 C140 1.306 . S
O141 Cd142 2.228 1_455 S
Cd142 O141 2.228 1_655 S
Cd142 O146 2.273 1_655 S
Cd142 O150 2.277 1_655 S
O143 C140 1.160 . S
O143 Cd144 2.203 . S
Cd144 O143 2.203 . S
Cd144 O146 2.411 . S
Cd144 O147 2.333 . S
Cd144 O148 2.352 . S
Cd144 O152 2.277 . S
Cd144 O153 2.356 . S
C145 O150 1.209 . S
C145 O152 1.226 . S
O146 Cd142 2.273 1_455 S
O146 Cd144 2.411 . S
O146 C149 1.320 . S
O147 Cd144 2.333 . S
O147 C149 1.214 . S
O148 Cd144 2.352 . S
O148 C151 1.258 . S
C149 O146 1.320 . S
C149 O147 1.214 . S
O150 Cd142 2.277 1_455 S
O150 C145 1.209 . S
C151 O148 1.258 . S
C151 O153 1.282 . S
O152 Cd144 2.277 . S
O152 C145 1.226 . S
O153 Cd144 2.356 . S
O153 C151 1.282 . S
C154 O155 1.306 . S
C154 O157 1.160 . S
O155 C154 1.306 . S
O155 Cd156 2.228 . S
Cd156 O155 2.228 . S
Cd156 O160 2.273 . S
Cd156 O164 2.277 . S
O157 C154 1.160 . S
O157 Cd158 2.203 . S
Cd158 O157 2.203 . S
Cd158 O160 2.411 . S
Cd158 O161 2.333 . S
Cd158 O162 2.352 . S
Cd158 O166 2.277 . S
Cd158 O167 2.356 . S
C159 O164 1.209 . S
C159 O166 1.226 . S
O160 Cd156 2.273 . S
O160 Cd158 2.411 . S
O160 C163 1.320 . S
O161 Cd158 2.333 . S
O161 C163 1.214 . S
O162 Cd158 2.352 . S
O162 C165 1.258 . S
C163 O160 1.320 . S
C163 O161 1.214 . S
O164 Cd156 2.277 . S
O164 C159 1.209 . S
C165 O162 1.258 . S
C165 O167 1.282 . S
O166 Cd158 2.277 . S
O166 C159 1.226 . S
O167 Cd158 2.356 . S
O167 C165 1.282 . S
C168 O169 1.306 . S
C168 O171 1.160 . S
O169 C168 1.306 . S
O169 Cd170 2.228 1_655 S
Cd170 O169 2.228 1_455 S
Cd170 O174 2.273 1_455 S
Cd170 O178 2.277 1_455 S
O171 C168 1.160 . S
O171 Cd172 2.203 . S
Cd172 O171 2.203 . S
Cd172 O174 2.411 . S
Cd172 O175 2.333 . S
Cd172 O176 2.352 . S
Cd172 O180 2.277 . S
Cd172 O181 2.356 . S
C173 O178 1.209 . S
C173 O180 1.226 . S
O174 Cd170 2.273 1_655 S
O174 Cd172 2.411 . S
O174 C177 1.320 . S
O175 Cd172 2.333 . S
O175 C177 1.214 . S
O176 Cd172 2.352 . S
O176 C179 1.258 . S
C177 O174 1.320 . S
C177 O175 1.214 . S
O178 Cd170 2.277 1_655 S
O178 C173 1.209 . S
C179 O176 1.258 . S
C179 O181 1.282 . S
O180 Cd172 2.277 . S
O180 C173 1.226 . S
O181 Cd172 2.356 . S
O181 C179 1.282 . S
C182 O183 1.306 . S
C182 O185 1.160 . S
O183 C182 1.306 . S
O183 Cd184 2.228 . S
Cd184 O183 2.228 . S
Cd184 O188 2.273 . S
Cd184 O192 2.277 . S
O185 C182 1.160 . S
O185 Cd186 2.203 . S
Cd186 O185 2.203 . S
Cd186 O188 2.411 . S
Cd186 O189 2.333 . S
Cd186 O190 2.352 . S
Cd186 O194 2.277 . S
Cd186 O195 2.356 . S
C187 O192 1.209 . S
C187 O194 1.226 . S
O188 Cd184 2.273 . S
O188 Cd186 2.411 . S
O188 C191 1.320 . S
O189 Cd186 2.333 . S
O189 C191 1.214 . S
O190 Cd186 2.352 . S
O190 C193 1.258 . S
C191 O188 1.320 . S
C191 O189 1.214 . S
O192 Cd184 2.277 . S
O192 C187 1.209 . S
C193 O190 1.258 . S
C193 O195 1.282 . S
O194 Cd186 2.277 . S
O194 C187 1.226 . S
O195 Cd186 2.356 . S
O195 C193 1.282 . S
C196 O197 1.306 . S
C196 O199 1.160 . S
O197 C196 1.306 . S
O197 Cd198 2.228 1_655 S
Cd198 O197 2.228 1_455 S
Cd198 O202 2.273 1_455 S
Cd198 O206 2.277 1_455 S
O199 C196 1.160 . S
O199 Cd200 2.203 . S
Cd200 O199 2.203 . S
Cd200 O202 2.411 . S
Cd200 O203 2.333 . S
Cd200 O204 2.352 . S
Cd200 O208 2.277 . S
Cd200 O209 2.356 . S
C201 O206 1.209 . S
C201 O208 1.226 . S
O202 Cd198 2.273 1_655 S
O202 Cd200 2.411 . S
O202 C205 1.320 . S
O203 Cd200 2.333 . S
O203 C205 1.214 . S
O204 Cd200 2.352 . S
O204 C207 1.258 . S
C205 O202 1.320 . S
C205 O203 1.214 . S
O206 Cd198 2.277 1_655 S
O206 C201 1.209 . S
C207 O204 1.258 . S
C207 O209 1.282 . S
O208 Cd200 2.277 . S
O208 C201 1.226 . S
O209 Cd200 2.356 . S
O209 C207 1.282 . S
C210 O211 1.306 . S
C210 O213 1.160 . S
O211 C210 1.306 . S
O211 Cd212 2.228 . S
Cd212 O211 2.228 . S
Cd212 O216 2.273 . S
Cd212 O220 2.277 . S
O213 C210 1.160 . S
O213 Cd214 2.203 . S
Cd214 O213 2.203 . S
Cd214 O216 2.411 . S
Cd214 O217 2.333 . S
Cd214 O218 2.352 . S
Cd214 O222 2.277 . S
Cd214 O223 2.356 . S
C215 O220 1.209 . S
C215 O222 1.226 . S
O216 Cd212 2.273 . S
O216 Cd214 2.411 . S
O216 C219 1.320 . S
O217 Cd214 2.333 . S
O217 C219 1.214 . S
O218 Cd214 2.352 . S
O218 C221 1.258 . S
C219 O216 1.320 . S
C219 O217 1.214 . S
O220 Cd212 2.277 . S
O220 C215 1.209 . S
C221 O218 1.258 . S
C221 O223 1.282 . S
O222 Cd214 2.277 . S
O222 C215 1.226 . S
O223 Cd214 2.356 . S
O223 C221 1.282 . S
C224 O225 1.306 . S
C224 O227 1.160 . S
O225 C224 1.306 . S
O225 Cd226 2.228 . S
Cd226 O225 2.228 . S
Cd226 O230 2.273 . S
Cd226 O234 2.277 . S
O227 C224 1.160 . S
O227 Cd228 2.203 . S
Cd228 O227 2.203 . S
Cd228 O230 2.411 . S
Cd228 O231 2.333 . S
Cd228 O232 2.352 . S
Cd228 O236 2.277 . S
Cd228 O237 2.356 . S
C229 O234 1.209 . S
C229 O236 1.226 . S
O230 Cd226 2.273 . S
O230 Cd228 2.411 . S
O230 C233 1.320 . S
O231 Cd228 2.333 . S
O231 C233 1.214 . S
O232 Cd228 2.352 . S
O232 C235 1.258 . S
C233 O230 1.320 . S
C233 O231 1.214 . S
O234 Cd226 2.277 . S
O234 C229 1.209 . S
C235 O232 1.258 . S
C235 O237 1.282 . S
O236 Cd228 2.277 . S
O236 C229 1.226 . S
O237 Cd228 2.356 . S
O237 C235 1.282 . S
C238 O239 1.306 . S
C238 O241 1.160 . S
O239 C238 1.306 . S
O239 Cd240 2.228 . S
Cd240 O239 2.228 . S
Cd240 O244 2.273 . S
Cd240 O248 2.277 . S
O241 C238 1.160 . S
O241 Cd242 2.203 . S
Cd242 O241 2.203 . S
Cd242 O244 2.411 . S
Cd242 O245 2.333 . S
Cd242 O246 2.352 . S
Cd242 O250 2.277 . S
Cd242 O251 2.356 . S
C243 O248 1.209 . S
C243 O250 1.226 . S
O244 Cd240 2.273 . S
O244 Cd242 2.411 . S
O244 C247 1.320 . S
O245 Cd242 2.333 . S
O245 C247 1.214 . S
O246 Cd242 2.352 . S
O246 C249 1.258 . S
C247 O244 1.320 . S
C247 O245 1.214 . S
O248 Cd240 2.277 . S
O248 C243 1.209 . S
C249 O246 1.258 . S
C249 O251 1.282 . S
O250 Cd242 2.277 . S
O250 C243 1.226 . S
O251 Cd242 2.356 . S
O251 C249 1.282 . S
C252 O253 1.306 . S
C252 O255 1.160 . S
O253 C252 1.306 . S
O253 Cd254 2.228 . S
Cd254 O253 2.228 . S
Cd254 O258 2.273 . S
Cd254 O262 2.277 . S
O255 C252 1.160 . S
O255 Cd256 2.203 . S
Cd256 O255 2.203 . S
Cd256 O258 2.411 . S
Cd256 O259 2.333 . S
Cd256 O260 2.352 . S
Cd256 O264 2.277 . S
Cd256 O265 2.356 . S
C257 O262 1.209 . S
C257 O264 1.226 . S
O258 Cd254 2.273 . S
O258 Cd256 2.411 . S
O258 C261 1.320 . S
O259 Cd256 2.333 . S
O259 C261 1.214 . S
O260 Cd256 2.352 . S
O260 C263 1.258 . S
C261 O258 1.320 . S
C261 O259 1.214 . S
O262 Cd254 2.277 . S
O262 C257 1.209 . S
C263 O260 1.258 . S
C263 O265 1.282 . S
O264 Cd256 2.277 . S
O264 C257 1.226 . S
O265 Cd256 2.356 . S
O265 C263 1.282 . S
C266 O267 1.306 . S
C266 O269 1.160 . S
O267 C266 1.306 . S
O267 Cd268 2.228 . S
Cd268 O267 2.228 . S
Cd268 O272 2.273 . S
Cd268 O276 2.277 . S
O269 C266 1.160 . S
O269 Cd270 2.203 . S
Cd270 O269 2.203 . S
Cd270 O272 2.411 . S
Cd270 O273 2.333 . S
Cd270 O274 2.352 . S
Cd270 O278 2.277 . S
Cd270 O279 2.356 . S
C271 O276 1.209 . S
C271 O278 1.226 . S
O272 Cd268 2.273 . S
O272 Cd270 2.411 . S
O272 C275 1.320 . S
O273 Cd270 2.333 . S
O273 C275 1.214 . S
O274 Cd270 2.352 . S
O274 C277 1.258 . S
C275 O272 1.320 . S
C275 O273 1.214 . S
O276 Cd268 2.277 . S
O276 C271 1.209 . S
C277 O274 1.258 . S
C277 O279 1.282 . S
O278 Cd270 2.277 . S
O278 C271 1.226 . S
O279 Cd270 2.356 . S
O279 C277 1.282 . S
C280 O281 1.306 . S
C280 O283 1.160 . S
O281 C280 1.306 . S
O281 Cd282 2.228 . S
Cd282 O281 2.228 . S
Cd282 O286 2.273 . S
Cd282 O290 2.277 . S
O283 C280 1.160 . S
O283 Cd284 2.203 . S
Cd284 O283 2.203 . S
Cd284 O286 2.411 . S
Cd284 O287 2.333 . S
Cd284 O288 2.352 . S
Cd284 O292 2.277 . S
Cd284 O293 2.356 . S
C285 O290 1.209 . S
C285 O292 1.226 . S
O286 Cd282 2.273 . S
O286 Cd284 2.411 . S
O286 C289 1.320 . S
O287 Cd284 2.333 . S
O287 C289 1.214 . S
O288 Cd284 2.352 . S
O288 C291 1.258 . S
C289 O286 1.320 . S
C289 O287 1.214 . S
O290 Cd282 2.277 . S
O290 C285 1.209 . S
C291 O288 1.258 . S
C291 O293 1.282 . S
O292 Cd284 2.277 . S
O292 C285 1.226 . S
O293 Cd284 2.356 . S
O293 C291 1.282 . S
C294 O295 1.306 . S
C294 O297 1.160 . S
O295 C294 1.306 . S
O295 Cd296 2.228 . S
Cd296 O295 2.228 . S
Cd296 O300 2.273 . S
Cd296 O304 2.277 . S
O297 C294 1.160 . S
O297 Cd298 2.203 . S
Cd298 O297 2.203 . S
Cd298 O300 2.411 . S
Cd298 O301 2.333 . S
Cd298 O302 2.352 . S
Cd298 O306 2.277 . S
Cd298 O307 2.356 . S
C299 O304 1.209 . S
C299 O306 1.226 . S
O300 Cd296 2.273 . S
O300 Cd298 2.411 . S
O300 C303 1.320 . S
O301 Cd298 2.333 . S
O301 C303 1.214 . S
O302 Cd298 2.352 . S
O302 C305 1.258 . S
C303 O300 1.320 . S
C303 O301 1.214 . S
O304 Cd296 2.277 . S
O304 C299 1.209 . S
C305 O302 1.258 . S
C305 O307 1.282 . S
O306 Cd298 2.277 . S
O306 C299 1.226 . S
O307 Cd298 2.356 . S
O307 C305 1.282 . S
C308 O309 1.306 . S
C308 O311 1.160 . S
O309 C308 1.306 . S
O309 Cd310 2.228 . S
Cd310 O309 2.228 . S
Cd310 O314 2.273 . S
Cd310 O318 2.277 . S
O311 C308 1.160 . S
O311 Cd312 2.203 . S
Cd312 O311 2.203 . S
Cd312 O314 2.411 . S
Cd312 O315 2.333 . S
Cd312 O316 2.352 . S
Cd312 O320 2.277 . S
Cd312 O321 2.356 . S
C313 O318 1.209 . S
C313 O320 1.226 . S
O314 Cd310 2.273 . S
O314 Cd312 2.411 . S
O314 C317 1.320 . S
O315 Cd312 2.333 . S
O315 C317 1.214 . S
O316 Cd312 2.352 . S
O316 C319 1.258 . S
C317 O314 1.320 . S
C317 O315 1.214 . S
O318 Cd310 2.277 . S
O318 C313 1.209 . S
C319 O316 1.258 . S
C319 O321 1.282 . S
O320 Cd312 2.277 . S
O320 C313 1.226 . S
O321 Cd312 2.356 . S
O321 C319 1.282 . S
C322 O323 1.306 . S
C322 O325 1.160 . S
O323 C322 1.306 . S
O323 Cd324 2.228 . S
Cd324 O323 2.228 . S
Cd324 O328 2.273 . S
Cd324 O332 2.277 . S
O325 C322 1.160 . S
O325 Cd326 2.203 . S
Cd326 O325 2.203 . S
Cd326 O328 2.411 . S
Cd326 O329 2.333 . S
Cd326 O330 2.352 . S
Cd326 O334 2.277 . S
Cd326 O335 2.356 . S
C327 O332 1.209 . S
C327 O334 1.226 . S
O328 Cd324 2.273 . S
O328 Cd326 2.411 . S
O328 C331 1.320 . S
O329 Cd326 2.333 . S
O329 C331 1.214 . S
O330 Cd326 2.352 . S
O330 C333 1.258 . S
C331 O328 1.320 . S
C331 O329 1.214 . S
O332 Cd324 2.277 . S
O332 C327 1.209 . S
C333 O330 1.258 . S
C333 O335 1.282 . S
O334 Cd326 2.277 . S
O334 C327 1.226 . S
O335 Cd326 2.356 . S
O335 C333 1.282 . S
C336 O337 1.306 . S
C336 O339 1.160 . S
O337 C336 1.306 . S
O337 Cd338 2.228 . S
Cd338 O337 2.228 . S
Cd338 O342 2.273 . S
Cd338 O346 2.277 . S
O339 C336 1.160 . S
O339 Cd340 2.203 . S
Cd340 O339 2.203 . S
Cd340 O342 2.411 . S
Cd340 O343 2.333 . S
Cd340 O344 2.352 . S
Cd340 O348 2.277 . S
Cd340 O349 2.356 . S
C341 O346 1.209 . S
C341 O348 1.226 . S
O342 Cd338 2.273 . S
O342 Cd340 2.411 . S
O342 C345 1.320 . S
O343 Cd340 2.333 . S
O343 C345 1.214 . S
O344 Cd340 2.352 . S
O344 C347 1.258 . S
C345 O342 1.320 . S
C345 O343 1.214 . S
O346 Cd338 2.277 . S
O346 C341 1.209 . S
C347 O344 1.258 . S
C347 O349 1.282 . S
O348 Cd340 2.277 . S
O348 C341 1.226 . S
O349 Cd340 2.356 . S
O349 C347 1.282 . S
C350 O351 1.306 . S
C350 O353 1.160 . S
O351 C350 1.306 . S
O351 Cd352 2.228 . S
Cd352 O351 2.228 . S
Cd352 O356 2.273 . S
Cd352 O360 2.277 . S
O353 C350 1.160 . S
O353 Cd354 2.203 . S
Cd354 O353 2.203 . S
Cd354 O356 2.411 . S
Cd354 O357 2.333 . S
Cd354 O358 2.352 . S
Cd354 O362 2.277 . S
Cd354 O363 2.356 . S
C355 O360 1.209 . S
C355 O362 1.226 . S
O356 Cd352 2.273 . S
O356 Cd354 2.411 . S
O356 C359 1.320 . S
O357 Cd354 2.333 . S
O357 C359 1.214 . S
O358 Cd354 2.352 . S
O358 C361 1.258 . S
C359 O356 1.320 . S
C359 O357 1.214 . S
O360 Cd352 2.277 . S
O360 C355 1.209 . S
C361 O358 1.258 . S
C361 O363 1.282 . S
O362 Cd354 2.277 . S
O362 C355 1.226 . S
O363 Cd354 2.356 . S
O363 C361 1.282 . S
C364 O365 1.306 . S
C364 O367 1.160 . S
O365 C364 1.306 . S
O365 Cd366 2.228 . S
Cd366 O365 2.228 . S
Cd366 O370 2.273 . S
Cd366 O374 2.277 1_556 S
O367 C364 1.160 . S
O367 Cd368 2.203 . S
Cd368 O367 2.203 . S
Cd368 O370 2.411 . S
Cd368 O371 2.333 . S
Cd368 O372 2.352 . S
Cd368 O376 2.277 1_556 S
Cd368 O377 2.356 . S
C369 O374 1.209 . S
C369 O376 1.226 . S
O370 Cd366 2.273 . S
O370 Cd368 2.411 . S
O370 C373 1.320 . S
O371 Cd368 2.333 . S
O371 C373 1.214 . S
O372 Cd368 2.352 . S
O372 C375 1.258 . S
C373 O370 1.320 . S
C373 O371 1.214 . S
O374 Cd366 2.277 1_554 S
O374 C369 1.209 . S
C375 O372 1.258 . S
C375 O377 1.282 . S
O376 Cd368 2.277 1_554 S
O376 C369 1.226 . S
O377 Cd368 2.356 . S
O377 C375 1.282 . S
C378 O379 1.306 . S
C378 O381 1.160 . S
O379 C378 1.306 . S
O379 Cd380 2.228 . S
Cd380 O379 2.228 . S
Cd380 O384 2.273 . S
Cd380 O388 2.277 1_556 S
O381 C378 1.160 . S
O381 Cd382 2.203 . S
Cd382 O381 2.203 . S
Cd382 O384 2.411 . S
Cd382 O385 2.333 . S
Cd382 O386 2.352 . S
Cd382 O390 2.277 1_556 S
Cd382 O391 2.356 . S
C383 O388 1.209 . S
C383 O390 1.226 . S
O384 Cd380 2.273 . S
O384 Cd382 2.411 . S
O384 C387 1.320 . S
O385 Cd382 2.333 . S
O385 C387 1.214 . S
O386 Cd382 2.352 . S
O386 C389 1.258 . S
C387 O384 1.320 . S
C387 O385 1.214 . S
O388 Cd380 2.277 1_554 S
O388 C383 1.209 . S
C389 O386 1.258 . S
C389 O391 1.282 . S
O390 Cd382 2.277 1_554 S
O390 C383 1.226 . S
O391 Cd382 2.356 . S
O391 C389 1.282 . S
C392 O393 1.306 . S
C392 O395 1.160 . S
O393 C392 1.306 . S
O393 Cd394 2.228 . S
Cd394 O393 2.228 . S
Cd394 O398 2.273 . S
Cd394 O402 2.277 . S
O395 C392 1.160 . S
O395 Cd396 2.203 . S
Cd396 O395 2.203 . S
Cd396 O398 2.411 . S
Cd396 O399 2.333 . S
Cd396 O400 2.352 . S
Cd396 O404 2.277 . S
Cd396 O405 2.356 . S
C397 O402 1.209 . S
C397 O404 1.226 . S
O398 Cd394 2.273 . S
O398 Cd396 2.411 . S
O398 C401 1.320 . S
O399 Cd396 2.333 . S
O399 C401 1.214 . S
O400 Cd396 2.352 . S
O400 C403 1.258 . S
C401 O398 1.320 . S
C401 O399 1.214 . S
O402 Cd394 2.277 . S
O402 C397 1.209 . S
C403 O400 1.258 . S
C403 O405 1.282 . S
O404 Cd396 2.277 . S
O404 C397 1.226 . S
O405 Cd396 2.356 . S
O405 C403 1.282 . S
C406 O407 1.306 . S
C406 O409 1.160 . S
O407 C406 1.306 . S
O407 Cd408 2.228 . S
Cd408 O407 2.228 . S
Cd408 O412 2.273 . S
Cd408 O416 2.277 . S
O409 C406 1.160 . S
O409 Cd410 2.203 . S
Cd410 O409 2.203 . S
Cd410 O412 2.411 . S
Cd410 O413 2.333 . S
Cd410 O414 2.352 . S
Cd410 O418 2.277 . S
Cd410 O419 2.356 . S
C411 O416 1.209 . S
C411 O418 1.226 . S
O412 Cd408 2.273 . S
O412 Cd410 2.411 . S
O412 C415 1.320 . S
O413 Cd410 2.333 . S
O413 C415 1.214 . S
O414 Cd410 2.352 . S
O414 C417 1.258 . S
C415 O412 1.320 . S
C415 O413 1.214 . S
O416 Cd408 2.277 . S
O416 C411 1.209 . S
C417 O414 1.258 . S
C417 O419 1.282 . S
O418 Cd410 2.277 . S
O418 C411 1.226 . S
O419 Cd410 2.356 . S
O419 C417 1.282 . S
C420 O421 1.306 . S
C420 O423 1.160 . S
O421 C420 1.306 . S
O421 Cd422 2.228 . S
Cd422 O421 2.228 . S
Cd422 O426 2.273 . S
Cd422 O430 2.277 1_554 S
O423 C420 1.160 . S
O423 Cd424 2.203 . S
Cd424 O423 2.203 . S
Cd424 O426 2.411 . S
Cd424 O427 2.333 . S
Cd424 O428 2.352 . S
Cd424 O432 2.277 1_554 S
Cd424 O433 2.356 . S
C425 O430 1.209 . S
C425 O432 1.226 . S
O426 Cd422 2.273 . S
O426 Cd424 2.411 . S
O426 C429 1.320 . S
O427 Cd424 2.333 . S
O427 C429 1.214 . S
O428 Cd424 2.352 . S
O428 C431 1.258 . S
C429 O426 1.320 . S
C429 O427 1.214 . S
O430 Cd422 2.277 1_556 S
O430 C425 1.209 . S
C431 O428 1.258 . S
C431 O433 1.282 . S
O432 Cd424 2.277 1_556 S
O432 C425 1.226 . S
O433 Cd424 2.356 . S
O433 C431 1.282 . S
C434 O435 1.306 . S
C434 O437 1.160 . S
O435 C434 1.306 . S
O435 Cd436 2.228 . S
Cd436 O435 2.228 . S
Cd436 O440 2.273 . S
Cd436 O444 2.277 1_554 S
O437 C434 1.160 . S
O437 Cd438 2.203 . S
Cd438 O437 2.203 . S
Cd438 O440 2.411 . S
Cd438 O441 2.333 . S
Cd438 O442 2.352 . S
Cd438 O446 2.277 1_554 S
Cd438 O447 2.356 . S
C439 O444 1.209 . S
C439 O446 1.226 . S
O440 Cd436 2.273 . S
O440 Cd438 2.411 . S
O440 C443 1.320 . S
O441 Cd438 2.333 . S
O441 C443 1.214 . S
O442 Cd438 2.352 . S
O442 C445 1.258 . S
C443 O440 1.320 . S
C443 O441 1.214 . S
O444 Cd436 2.277 1_556 S
O444 C439 1.209 . S
C445 O442 1.258 . S
C445 O447 1.282 . S
O446 Cd438 2.277 1_556 S
O446 C439 1.226 . S
O447 Cd438 2.356 . S
O447 C445 1.282 . S
C448 C449 1.391 . S
C448 C450 1.394 . S
C448 H464 0.931 . S
C449 C448 1.391 . S
C449 C453 1.376 . S
C450 C448 1.394 . S
C450 C451 1.369 . S
C450 C454 1.531 . S
C451 C450 1.369 . S
C451 C452 1.410 . S
C451 C459 1.503 . S
C452 C451 1.410 . S
C452 C453 1.392 . S
C452 C455 1.511 1_455 S
C453 C449 1.376 . S
C453 C452 1.392 . S
C453 H465 0.933 . S
C454 C450 1.531 . S
C454 H466 0.960 . S
C454 H467 0.962 . S
C454 H468 0.960 . S
C455 C452 1.511 1_655 S
C455 H469 0.961 . S
C455 H470 0.961 . S
C455 H471 0.961 . S
C456 C457 1.370 . S
C456 C458 1.363 . S
C456 H472 0.931 . S
C457 C456 1.370 . S
C457 C461 1.408 . S
C458 C456 1.363 . S
C458 C459 1.370 . S
C458 C462 1.524 . S
C459 C451 1.503 . S
C459 C458 1.370 . S
C459 C460 1.403 . S
C460 C459 1.403 . S
C460 C461 1.404 . S
C460 C463 1.539 . S
C461 C457 1.408 . S
C461 C460 1.404 . S
C461 H473 0.930 . S
C462 C458 1.524 . S
C462 H474 0.956 . S
C462 H475 0.961 . S
C462 H476 0.961 . S
C463 C460 1.539 . S
C463 H477 0.958 . S
C463 H478 0.961 . S
C463 H479 0.960 . S
H464 C448 0.931 . S
H465 C453 0.933 . S
H466 C454 0.960 . S
H467 C454 0.962 . S
H468 C454 0.960 . S
H469 C455 0.961 . S
H470 C455 0.961 . S
H471 C455 0.961 . S
H472 C456 0.931 . S
H473 C461 0.930 . S
H474 C462 0.956 . S
H475 C462 0.961 . S
H476 C462 0.961 . S
H477 C463 0.958 . S
H478 C463 0.961 . S
H479 C463 0.960 . S
C480 C481 1.391 . S
C480 C482 1.394 . S
C480 H496 0.931 . S
C481 C480 1.391 . S
C481 C485 1.376 . S
C482 C480 1.394 . S
C482 C483 1.369 . S
C482 C486 1.531 . S
C483 C482 1.369 . S
C483 C484 1.410 . S
C483 C491 1.503 . S
C484 C483 1.410 . S
C484 C485 1.392 . S
C484 C487 1.511 . S
C485 C481 1.376 . S
C485 C484 1.392 . S
C485 H497 0.929 . S
C486 C482 1.531 . S
C486 H498 0.960 . S
C486 H499 0.962 . S
C486 H500 0.960 . S
C487 C484 1.511 . S
C487 H501 0.961 . S
C487 H502 0.961 . S
C487 H503 0.961 . S
C488 C489 1.370 . S
C488 C490 1.363 . S
C488 H504 0.931 . S
C489 C488 1.370 . S
C489 C493 1.408 . S
C490 C488 1.363 . S
C490 C491 1.370 . S
C490 C494 1.524 . S
C491 C483 1.503 . S
C491 C490 1.370 . S
C491 C492 1.403 . S
C492 C491 1.403 . S
C492 C493 1.404 . S
C492 C495 1.539 . S
C493 C489 1.408 . S
C493 C492 1.404 . S
C493 H505 0.930 . S
C494 C490 1.524 . S
C494 H506 0.956 . S
C494 H507 0.961 . S
C494 H508 0.961 . S
C495 C492 1.539 . S
C495 H509 0.958 . S
C495 H510 0.961 . S
C495 H511 0.960 . S
H496 C480 0.931 . S
H497 C485 0.929 . S
H498 C486 0.960 . S
H499 C486 0.962 . S
H500 C486 0.960 . S
H501 C487 0.961 . S
H502 C487 0.961 . S
H503 C487 0.961 . S
H504 C488 0.931 . S
H505 C493 0.930 . S
H506 C494 0.956 . S
H507 C494 0.961 . S
H508 C494 0.961 . S
H509 C495 0.958 . S
H510 C495 0.961 . S
H511 C495 0.960 . S
C512 C513 1.391 . S
C512 C514 1.394 . S
C512 H528 0.931 . S
C513 C512 1.391 . S
C513 C517 1.376 . S
C514 C512 1.394 . S
C514 C515 1.369 . S
C514 C518 1.531 . S
C515 C514 1.369 . S
C515 C516 1.410 . S
C515 C523 1.503 . S
C516 C515 1.410 . S
C516 C517 1.392 . S
C516 C519 1.511 1_455 S
C517 C513 1.376 . S
C517 C516 1.392 . S
C517 H529 0.929 . S
C518 C514 1.531 . S
C518 H530 0.960 . S
C518 H531 0.962 . S
C518 H532 0.960 . S
C519 C516 1.511 1_655 S
C519 H533 0.961 . S
C519 H534 0.961 1_655 S
C519 H535 0.961 . S
C520 C521 1.370 . S
C520 C522 1.363 . S
C520 H536 0.931 . S
C521 C520 1.370 . S
C521 C525 1.408 . S
C522 C520 1.363 . S
C522 C523 1.370 . S
C522 C526 1.524 . S
C523 C515 1.503 . S
C523 C522 1.370 . S
C523 C524 1.403 . S
C524 C523 1.403 . S
C524 C525 1.404 . S
C524 C527 1.539 1_455 S
C525 C521 1.408 . S
C525 C524 1.404 . S
C525 H537 0.930 . S
C526 C522 1.524 . S
C526 H538 0.956 . S
C526 H539 0.961 . S
C526 H540 0.961 . S
C527 C524 1.539 1_655 S
C527 H541 0.958 1_655 S
C527 H542 0.961 . S
C527 H543 0.960 . S
H528 C512 0.931 . S
H529 C517 0.929 . S
H530 C518 0.960 . S
H531 C518 0.962 . S
H532 C518 0.960 . S
H533 C519 0.961 . S
H534 C519 0.961 1_455 S
H535 C519 0.961 . S
H536 C520 0.931 . S
H537 C525 0.930 . S
H538 C526 0.956 . S
H539 C526 0.961 . S
H540 C526 0.961 . S
H541 C527 0.958 1_455 S
H542 C527 0.961 . S
H543 C527 0.960 . S
C544 C545 1.391 . S
C544 C546 1.394 . S
C544 H560 0.931 . S
C545 C544 1.391 . S
C545 C549 1.376 . S
C546 C544 1.394 . S
C546 C547 1.369 . S
C546 C550 1.531 . S
C547 C546 1.369 . S
C547 C548 1.410 . S
C547 C555 1.503 . S
C548 C547 1.410 . S
C548 C549 1.392 . S
C548 C551 1.511 . S
C549 C545 1.376 . S
C549 C548 1.392 . S
C549 H561 0.929 . S
C550 C546 1.531 . S
C550 H562 0.960 . S
C550 H563 0.962 . S
C550 H564 0.960 . S
C551 C548 1.511 . S
C551 H565 0.961 . S
C551 H566 0.961 . S
C551 H567 0.961 . S
C552 C553 1.370 . S
C552 C554 1.363 . S
C552 H568 0.931 . S
C553 C552 1.370 . S
C553 C557 1.408 . S
C554 C552 1.363 . S
C554 C555 1.370 . S
C554 C558 1.524 . S
C555 C547 1.503 . S
C555 C554 1.370 . S
C555 C556 1.403 . S
C556 C555 1.403 . S
C556 C557 1.404 . S
C556 C559 1.539 . S
C557 C553 1.408 . S
C557 C556 1.404 . S
C557 H569 0.930 . S
C558 C554 1.524 . S
C558 H570 0.956 . S
C558 H571 0.961 . S
C558 H572 0.961 . S
C559 C556 1.539 . S
C559 H573 0.958 . S
C559 H574 0.961 . S
C559 H575 0.960 . S
H560 C544 0.931 . S
H561 C549 0.929 . S
H562 C550 0.960 . S
H563 C550 0.962 . S
H564 C550 0.960 . S
H565 C551 0.961 . S
H566 C551 0.961 . S
H567 C551 0.961 . S
H568 C552 0.931 . S
H569 C557 0.930 . S
H570 C558 0.956 . S
H571 C558 0.961 . S
H572 C558 0.961 . S
H573 C559 0.958 . S
H574 C559 0.961 . S
H575 C559 0.960 . S
C576 C577 1.391 . S
C576 C578 1.394 . S
C576 H592 0.931 . S
C577 C576 1.391 . S
C577 C581 1.376 . S
C578 C576 1.394 . S
C578 C579 1.369 . S
C578 C582 1.531 1_655 S
C579 C578 1.369 . S
C579 C580 1.410 . S
C579 C587 1.503 . S
C580 C579 1.410 . S
C580 C581 1.392 . S
C580 C583 1.511 . S
C581 C577 1.376 . S
C581 C580 1.392 . S
C581 H593 0.929 . S
C582 C578 1.531 1_455 S
C582 H594 0.960 . S
C582 H595 0.962 . S
C582 H596 0.960 . S
C583 C580 1.511 . S
C583 H597 0.961 . S
C583 H598 0.961 . S
C583 H599 0.961 . S
C584 C585 1.370 . S
C584 C586 1.363 . S
C584 H600 0.931 . S
C585 C584 1.370 . S
C585 C589 1.408 . S
C586 C584 1.363 . S
C586 C587 1.370 . S
C586 C590 1.524 . S
C587 C579 1.503 . S
C587 C586 1.370 . S
C587 C588 1.403 . S
C588 C587 1.403 . S
C588 C589 1.404 . S
C588 C591 1.539 . S
C589 C585 1.408 . S
C589 C588 1.404 . S
C589 H601 0.930 . S
C590 C586 1.524 . S
C590 H602 0.956 . S
C590 H603 0.961 . S
C590 H604 0.961 . S
C591 C588 1.539 . S
C591 H605 0.958 . S
C591 H606 0.961 . S
C591 H607 0.960 . S
H592 C576 0.931 . S
H593 C581 0.929 . S
H594 C582 0.960 . S
H595 C582 0.962 . S
H596 C582 0.960 . S
H597 C583 0.961 . S
H598 C583 0.961 . S
H599 C583 0.961 . S
H600 C584 0.931 . S
H601 C589 0.930 . S
H602 C590 0.956 . S
H603 C590 0.961 . S
H604 C590 0.961 . S
H605 C591 0.958 . S
H606 C591 0.961 . S
H607 C591 0.960 . S
C608 C609 1.391 . S
C608 C610 1.394 . S
C608 H624 0.931 . S
C609 C608 1.391 . S
C609 C613 1.376 . S
C610 C608 1.394 . S
C610 C611 1.369 . S
C610 C614 1.531 . S
C611 C610 1.369 . S
C611 C612 1.410 . S
C611 C619 1.503 . S
C612 C611 1.410 . S
C612 C613 1.392 . S
C612 C615 1.511 . S
C613 C609 1.376 . S
C613 C612 1.392 . S
C613 H625 0.929 . S
C614 C610 1.531 . S
C614 H626 0.960 . S
C614 H627 0.962 . S
C614 H628 0.960 . S
C615 C612 1.511 . S
C615 H629 0.961 . S
C615 H630 0.961 . S
C615 H631 0.961 . S
C616 C617 1.370 . S
C616 C618 1.363 . S
C616 H632 0.931 . S
C617 C616 1.370 . S
C617 C621 1.408 . S
C618 C616 1.363 . S
C618 C619 1.370 . S
C618 C622 1.524 . S
C619 C611 1.503 . S
C619 C618 1.370 . S
C619 C620 1.403 . S
C620 C619 1.403 . S
C620 C621 1.404 . S
C620 C623 1.539 . S
C621 C617 1.408 . S
C621 C620 1.404 . S
C621 H633 0.930 . S
C622 C618 1.524 . S
C622 H634 0.956 . S
C622 H635 0.961 . S
C622 H636 0.961 . S
C623 C620 1.539 . S
C623 H637 0.958 . S
C623 H638 0.961 . S
C623 H639 0.960 . S
H624 C608 0.931 . S
H625 C613 0.929 . S
H626 C614 0.960 . S
H627 C614 0.962 . S
H628 C614 0.960 . S
H629 C615 0.961 . S
H630 C615 0.961 . S
H631 C615 0.961 . S
H632 C616 0.931 . S
H633 C621 0.930 . S
H634 C622 0.956 . S
H635 C622 0.961 . S
H636 C622 0.961 . S
H637 C623 0.958 . S
H638 C623 0.961 . S
H639 C623 0.960 . S
C640 C641 1.391 . S
C640 C642 1.394 . S
C640 H656 0.911 1_655 S
C641 C640 1.391 . S
C641 C645 1.376 . S
C642 C640 1.394 . S
C642 C643 1.369 . S
C642 C646 1.531 1_655 S
C643 C642 1.369 . S
C643 C644 1.410 . S
C643 C651 1.503 . S
C644 C643 1.410 . S
C644 C645 1.392 . S
C644 C647 1.511 . S
C645 C641 1.376 . S
C645 C644 1.392 . S
C645 H657 0.929 . S
C646 C642 1.531 1_455 S
C646 H658 0.960 . S
C646 H659 0.962 . S
C646 H660 0.960 . S
C647 C644 1.511 . S
C647 H661 0.961 . S
C647 H662 0.961 . S
C647 H663 0.961 . S
C648 C649 1.370 . S
C648 C650 1.363 . S
C648 H664 0.931 . S
C649 C648 1.370 . S
C649 C653 1.408 . S
C650 C648 1.363 . S
C650 C651 1.370 . S
C650 C654 1.524 . S
C651 C643 1.503 . S
C651 C650 1.370 . S
C651 C652 1.403 . S
C652 C651 1.403 . S
C652 C653 1.404 . S
C652 C655 1.539 . S
C653 C649 1.408 . S
C653 C652 1.404 . S
C653 H665 0.930 . S
C654 C650 1.524 . S
C654 H666 0.956 . S
C654 H667 0.961 . S
C654 H668 0.961 . S
C655 C652 1.539 . S
C655 H669 0.958 . S
C655 H670 0.961 . S
C655 H671 0.960 . S
H656 C640 0.911 1_455 S
H657 C645 0.929 . S
H658 C646 0.960 . S
H659 C646 0.962 . S
H660 C646 0.960 . S
H661 C647 0.961 . S
H662 C647 0.961 . S
H663 C647 0.961 . S
H664 C648 0.931 . S
H665 C653 0.930 . S
H666 C654 0.956 . S
H667 C654 0.961 . S
H668 C654 0.961 . S
H669 C655 0.958 . S
H670 C655 0.961 . S
H671 C655 0.960 . S
C672 C673 1.391 . S
C672 C674 1.394 . S
C672 H688 0.931 . S
C673 C672 1.391 . S
C673 C677 1.376 . S
C674 C672 1.394 . S
C674 C675 1.369 . S
C674 C678 1.531 . S
C675 C674 1.369 . S
C675 C676 1.410 . S
C675 C683 1.503 . S
C676 C675 1.410 . S
C676 C677 1.392 . S
C676 C679 1.511 . S
C677 C673 1.376 . S
C677 C676 1.392 . S
C677 H689 0.929 . S
C678 C674 1.531 . S
C678 H690 0.960 . S
C678 H691 0.962 . S
C678 H692 0.960 . S
C679 C676 1.511 . S
C679 H693 0.961 . S
C679 H694 0.961 . S
C679 H695 0.961 . S
C680 C681 1.370 . S
C680 C682 1.363 . S
C680 H696 0.931 . S
C681 C680 1.370 . S
C681 C685 1.408 . S
C682 C680 1.363 . S
C682 C683 1.370 . S
C682 C686 1.524 . S
C683 C675 1.503 . S
C683 C682 1.370 . S
C683 C684 1.403 . S
C684 C683 1.403 . S
C684 C685 1.404 . S
C684 C687 1.539 . S
C685 C681 1.408 . S
C685 C684 1.404 . S
C685 H697 0.930 . S
C686 C682 1.524 . S
C686 H698 0.956 . S
C686 H699 0.961 . S
C686 H700 0.961 . S
C687 C684 1.539 . S
C687 H701 0.958 . S
C687 H702 0.961 . S
C687 H703 0.960 . S
H688 C672 0.931 . S
H689 C677 0.929 . S
H690 C678 0.960 . S
H691 C678 0.962 . S
H692 C678 0.960 . S
H693 C679 0.961 . S
H694 C679 0.961 . S
H695 C679 0.961 . S
H696 C680 0.931 . S
H697 C685 0.930 . S
H698 C686 0.956 . S
H699 C686 0.961 . S
H700 C686 0.961 . S
H701 C687 0.958 . S
H702 C687 0.961 . S
H703 C687 0.960 . S
C704 C705 1.391 . S
C704 C706 1.394 . S
C704 H720 0.931 . S
C705 C704 1.391 . S
C705 C709 1.376 . S
C706 C704 1.394 . S
C706 C707 1.369 . S
C706 C710 1.531 . S
C707 C706 1.369 . S
C707 C708 1.410 . S
C707 C715 1.503 . S
C708 C707 1.410 . S
C708 C709 1.392 . S
C708 C711 1.511 . S
C709 C705 1.376 . S
C709 C708 1.392 . S
C709 H721 0.929 . S
C710 C706 1.531 . S
C710 H722 0.960 . S
C710 H723 0.962 . S
C710 H724 0.960 . S
C711 C708 1.511 . S
C711 H725 0.961 . S
C711 H726 0.961 . S
C711 H727 0.961 . S
C712 C713 1.370 . S
C712 C714 1.363 . S
C712 H728 0.931 . S
C713 C712 1.370 . S
C713 C717 1.408 . S
C714 C712 1.363 . S
C714 C715 1.370 . S
C714 C718 1.524 . S
C715 C707 1.503 . S
C715 C714 1.370 . S
C715 C716 1.403 . S
C716 C715 1.403 . S
C716 C717 1.404 . S
C716 C719 1.539 . S
C717 C713 1.408 . S
C717 C716 1.404 . S
C717 H729 0.930 . S
C718 C714 1.524 . S
C718 H730 0.956 . S
C718 H731 0.961 . S
C718 H732 0.961 . S
C719 C716 1.539 . S
C719 H733 0.958 . S
C719 H734 0.961 . S
C719 H735 0.960 . S
H720 C704 0.931 . S
H721 C709 0.929 . S
H722 C710 0.960 . S
H723 C710 0.962 . S
H724 C710 0.960 . S
H725 C711 0.961 . S
H726 C711 0.961 . S
H727 C711 0.961 . S
H728 C712 0.931 . S
H729 C717 0.930 . S
H730 C718 0.956 . S
H731 C718 0.961 . S
H732 C718 0.961 . S
H733 C719 0.958 . S
H734 C719 0.961 . S
H735 C719 0.960 . S
C736 C737 1.391 . S
C736 C738 1.394 . S
C736 H752 0.931 . S
C737 C736 1.391 . S
C737 C741 1.376 . S
C738 C736 1.394 . S
C738 C739 1.369 . S
C738 C742 1.531 . S
C739 C738 1.369 . S
C739 C740 1.410 . S
C739 C747 1.503 . S
C740 C739 1.410 . S
C740 C741 1.392 . S
C740 C743 1.511 . S
C741 C737 1.376 . S
C741 C740 1.392 . S
C741 H753 0.929 . S
C742 C738 1.531 . S
C742 H754 0.960 . S
C742 H755 0.962 . S
C742 H756 0.960 . S
C743 C740 1.511 . S
C743 H757 0.961 . S
C743 H758 0.961 . S
C743 H759 0.961 . S
C744 C745 1.370 . S
C744 C746 1.363 . S
C744 H760 0.931 . S
C745 C744 1.370 . S
C745 C749 1.408 . S
C746 C744 1.363 . S
C746 C747 1.370 . S
C746 C750 1.524 . S
C747 C739 1.503 . S
C747 C746 1.370 . S
C747 C748 1.403 . S
C748 C747 1.403 . S
C748 C749 1.404 . S
C748 C751 1.539 . S
C749 C745 1.408 . S
C749 C748 1.404 . S
C749 H761 0.930 . S
C750 C746 1.524 . S
C750 H762 0.956 . S
C750 H763 0.961 . S
C750 H764 0.961 . S
C751 C748 1.539 . S
C751 H765 0.958 . S
C751 H766 0.961 . S
C751 H767 0.960 . S
H752 C736 0.931 . S
H753 C741 0.929 . S
H754 C742 0.960 . S
H755 C742 0.962 . S
H756 C742 0.960 . S
H757 C743 0.961 . S
H758 C743 0.961 . S
H759 C743 0.961 . S
H760 C744 0.931 . S
H761 C749 0.930 . S
H762 C750 0.956 . S
H763 C750 0.961 . S
H764 C750 0.961 . S
H765 C751 0.958 . S
H766 C751 0.961 . S
H767 C751 0.960 . S
C768 C769 1.391 . S
C768 C770 1.394 . S
C768 H784 0.931 . S
C769 C768 1.391 . S
C769 C773 1.376 . S
C770 C768 1.394 . S
C770 C771 1.369 . S
C770 C774 1.531 . S
C771 C770 1.369 . S
C771 C772 1.410 . S
C771 C779 1.503 . S
C772 C771 1.410 . S
C772 C773 1.392 . S
C772 C775 1.511 . S
C773 C769 1.376 . S
C773 C772 1.392 . S
C773 H785 0.929 . S
C774 C770 1.531 . S
C774 H786 0.960 . S
C774 H787 0.962 . S
C774 H788 0.960 . S
C775 C772 1.511 . S
C775 H789 0.961 . S
C775 H790 0.961 . S
C775 H791 0.961 . S
C776 C777 1.370 . S
C776 C778 1.363 . S
C776 H792 0.931 . S
C777 C776 1.370 . S
C777 C781 1.408 . S
C778 C776 1.363 . S
C778 C779 1.370 . S
C778 C782 1.524 . S
C779 C771 1.503 . S
C779 C778 1.370 . S
C779 C780 1.403 . S
C780 C779 1.403 . S
C780 C781 1.404 . S
C780 C783 1.539 . S
C781 C777 1.408 . S
C781 C780 1.404 . S
C781 H793 0.930 . S
C782 C778 1.524 . S
C782 H794 0.956 . S
C782 H795 0.961 . S
C782 H796 0.961 . S
C783 C780 1.539 . S
C783 H797 0.958 . S
C783 H798 0.961 . S
C783 H799 0.960 . S
H784 C768 0.931 . S
H785 C773 0.929 . S
H786 C774 0.960 . S
H787 C774 0.962 . S
H788 C774 0.960 . S
H789 C775 0.961 . S
H790 C775 0.961 . S
H791 C775 0.961 . S
H792 C776 0.931 . S
H793 C781 0.930 . S
H794 C782 0.956 . S
H795 C782 0.961 . S
H796 C782 0.961 . S
H797 C783 0.958 . S
H798 C783 0.961 . S
H799 C783 0.960 . S
C800 C801 1.391 . S
C800 C802 1.394 . S
C800 H816 0.931 . S
C801 C800 1.391 . S
C801 C805 1.376 . S
C802 C800 1.394 . S
C802 C803 1.369 . S
C802 C806 1.531 . S
C803 C802 1.369 . S
C803 C804 1.410 . S
C803 C811 1.503 . S
C804 C803 1.410 . S
C804 C805 1.392 . S
C804 C807 1.511 . S
C805 C801 1.376 . S
C805 C804 1.392 . S
C805 H817 0.929 . S
C806 C802 1.531 . S
C806 H818 0.960 . S
C806 H819 0.962 . S
C806 H820 0.960 . S
C807 C804 1.511 . S
C807 H821 0.961 . S
C807 H822 0.961 . S
C807 H823 0.961 . S
C808 C809 1.370 . S
C808 C810 1.363 . S
C808 H824 0.931 . S
C809 C808 1.370 . S
C809 C813 1.408 . S
C810 C808 1.363 . S
C810 C811 1.370 . S
C810 C814 1.524 . S
C811 C803 1.503 . S
C811 C810 1.370 . S
C811 C812 1.403 . S
C812 C811 1.403 . S
C812 C813 1.404 . S
C812 C815 1.539 . S
C813 C809 1.408 . S
C813 C812 1.404 . S
C813 H825 0.930 . S
C814 C810 1.524 . S
C814 H826 0.956 . S
C814 H827 0.961 . S
C814 H828 0.961 . S
C815 C812 1.539 . S
C815 H829 0.958 . S
C815 H830 0.961 . S
C815 H831 0.960 . S
H816 C800 0.931 . S
H817 C805 0.929 . S
H818 C806 0.960 . S
H819 C806 0.962 . S
H820 C806 0.960 . S
H821 C807 0.961 . S
H822 C807 0.961 . S
H823 C807 0.961 . S
H824 C808 0.931 . S
H825 C813 0.930 . S
H826 C814 0.956 . S
H827 C814 0.961 . S
H828 C814 0.961 . S
H829 C815 0.958 . S
H830 C815 0.961 . S
H831 C815 0.960 . S
C832 C833 1.391 . S
C832 C834 1.394 . S
C832 H848 0.931 . S
C833 C832 1.391 . S
C833 C837 1.376 . S
C834 C832 1.394 . S
C834 C835 1.369 . S
C834 C838 1.531 . S
C835 C834 1.369 . S
C835 C836 1.410 . S
C835 C843 1.503 . S
C836 C835 1.410 . S
C836 C837 1.392 . S
C836 C839 1.511 . S
C837 C833 1.376 . S
C837 C836 1.392 . S
C837 H849 0.929 . S
C838 C834 1.531 . S
C838 H850 0.960 . S
C838 H851 0.962 . S
C838 H852 0.960 . S
C839 C836 1.511 . S
C839 H853 0.961 . S
C839 H854 0.961 . S
C839 H855 0.961 . S
C840 C841 1.370 . S
C840 C842 1.363 . S
C840 H856 0.931 . S
C841 C840 1.370 . S
C841 C845 1.408 . S
C842 C840 1.363 . S
C842 C843 1.370 . S
C842 C846 1.524 . S
C843 C835 1.503 . S
C843 C842 1.370 . S
C843 C844 1.403 . S
C844 C843 1.403 . S
C844 C845 1.404 . S
C844 C847 1.539 . S
C845 C841 1.408 . S
C845 C844 1.404 . S
C845 H857 0.930 . S
C846 C842 1.524 . S
C846 H858 0.956 . S
C846 H859 0.961 . S
C846 H860 0.961 . S
C847 C844 1.539 . S
C847 H861 0.958 . S
C847 H862 0.961 . S
C847 H863 0.960 . S
H848 C832 0.931 . S
H849 C837 0.929 . S
H850 C838 0.960 . S
H851 C838 0.962 . S
H852 C838 0.960 . S
H853 C839 0.961 . S
H854 C839 0.961 . S
H855 C839 0.961 . S
H856 C840 0.931 . S
H857 C845 0.930 . S
H858 C846 0.956 . S
H859 C846 0.961 . S
H860 C846 0.961 . S
H861 C847 0.958 . S
H862 C847 0.961 . S
H863 C847 0.960 . S
C864 C865 1.391 . S
C864 C866 1.394 . S
C864 H880 0.931 . S
C865 C864 1.391 . S
C865 C869 1.376 . S
C866 C864 1.394 . S
C866 C867 1.369 . S
C866 C870 1.531 . S
C867 C866 1.369 . S
C867 C868 1.410 . S
C867 C875 1.503 . S
C868 C867 1.410 . S
C868 C869 1.392 . S
C868 C871 1.511 . S
C869 C865 1.376 . S
C869 C868 1.392 . S
C869 H881 0.929 . S
C870 C866 1.531 . S
C870 H882 0.960 . S
C870 H883 0.962 . S
C870 H884 0.960 . S
C871 C868 1.511 . S
C871 H885 0.961 . S
C871 H886 0.961 . S
C871 H887 0.961 . S
C872 C873 1.370 . S
C872 C874 1.363 . S
C872 H888 0.931 . S
C873 C872 1.370 . S
C873 C877 1.408 . S
C874 C872 1.363 . S
C874 C875 1.370 . S
C874 C878 1.524 . S
C875 C867 1.503 . S
C875 C874 1.370 . S
C875 C876 1.403 . S
C876 C875 1.403 . S
C876 C877 1.404 . S
C876 C879 1.539 . S
C877 C873 1.408 . S
C877 C876 1.404 . S
C877 H889 0.930 . S
C878 C874 1.524 . S
C878 H890 0.956 . S
C878 H891 0.961 . S
C878 H892 0.961 . S
C879 C876 1.539 . S
C879 H893 0.958 . S
C879 H894 0.961 . S
C879 H895 0.960 . S
H880 C864 0.931 . S
H881 C869 0.929 . S
H882 C870 0.960 . S
H883 C870 0.962 . S
H884 C870 0.960 . S
H885 C871 0.961 . S
H886 C871 0.961 . S
H887 C871 0.961 . S
H888 C872 0.931 . S
H889 C877 0.930 . S
H890 C878 0.956 . S
H891 C878 0.961 . S
H892 C878 0.961 . S
H893 C879 0.958 . S
H894 C879 0.961 . S
H895 C879 0.960 . S
C896 C897 1.391 . S
C896 C898 1.394 . S
C896 H912 0.931 . S
C897 C896 1.391 . S
C897 C901 1.376 . S
C898 C896 1.394 . S
C898 C899 1.369 . S
C898 C902 1.531 . S
C899 C898 1.369 . S
C899 C900 1.410 . S
C899 C907 1.503 . S
C900 C899 1.410 . S
C900 C901 1.392 . S
C900 C903 1.511 . S
C901 C897 1.376 . S
C901 C900 1.392 . S
C901 H913 0.929 . S
C902 C898 1.531 . S
C902 H914 0.960 . S
C902 H915 0.962 . S
C902 H916 0.960 . S
C903 C900 1.511 . S
C903 H917 0.961 . S
C903 H918 0.961 . S
C903 H919 0.961 . S
C904 C905 1.370 . S
C904 C906 1.363 . S
C904 H920 0.931 . S
C905 C904 1.370 . S
C905 C909 1.408 . S
C906 C904 1.363 . S
C906 C907 1.370 . S
C906 C910 1.524 . S
C907 C899 1.503 . S
C907 C906 1.370 . S
C907 C908 1.403 . S
C908 C907 1.403 . S
C908 C909 1.404 . S
C908 C911 1.539 . S
C909 C905 1.408 . S
C909 C908 1.404 . S
C909 H921 0.930 . S
C910 C906 1.524 . S
C910 H922 0.956 . S
C910 H923 0.961 . S
C910 H924 0.961 . S
C911 C908 1.539 . S
C911 H925 0.958 . S
C911 H926 0.961 . S
C911 H927 0.960 . S
H912 C896 0.931 . S
H913 C901 0.929 . S
H914 C902 0.960 . S
H915 C902 0.962 . S
H916 C902 0.960 . S
H917 C903 0.961 . S
H918 C903 0.961 . S
H919 C903 0.961 . S
H920 C904 0.931 . S
H921 C909 0.930 . S
H922 C910 0.956 . S
H923 C910 0.961 . S
H924 C910 0.961 . S
H925 C911 0.958 . S
H926 C911 0.961 . S
H927 C911 0.960 . S
C928 C929 1.391 . S
C928 C930 1.394 . S
C928 H944 0.931 . S
C929 C928 1.391 . S
C929 C933 1.376 . S
C930 C928 1.394 . S
C930 C931 1.369 . S
C930 C934 1.531 . S
C931 C930 1.369 . S
C931 C932 1.410 . S
C931 C939 1.503 . S
C932 C931 1.410 . S
C932 C933 1.392 . S
C932 C935 1.511 . S
C933 C929 1.376 . S
C933 C932 1.392 . S
C933 H945 0.929 . S
C934 C930 1.531 . S
C934 H946 0.960 . S
C934 H947 0.962 . S
C934 H948 0.960 . S
C935 C932 1.511 . S
C935 H949 0.961 . S
C935 H950 0.961 . S
C935 H951 0.961 . S
C936 C937 1.370 . S
C936 C938 1.363 . S
C936 H952 0.931 . S
C937 C936 1.370 . S
C937 C941 1.408 . S
C938 C936 1.363 . S
C938 C939 1.370 . S
C938 C942 1.524 . S
C939 C931 1.503 . S
C939 C938 1.370 . S
C939 C940 1.403 . S
C940 C939 1.403 . S
C940 C941 1.404 . S
C940 C943 1.539 . S
C941 C937 1.408 . S
C941 C940 1.404 . S
C941 H953 0.930 . S
C942 C938 1.524 . S
C942 H954 0.956 . S
C942 H955 0.961 . S
C942 H956 0.961 . S
C943 C940 1.539 . S
C943 H957 0.958 . S
C943 H958 0.961 . S
C943 H959 0.960 . S
H944 C928 0.931 . S
H945 C933 0.929 . S
H946 C934 0.960 . S
H947 C934 0.962 . S
H948 C934 0.960 . S
H949 C935 0.961 . S
H950 C935 0.961 . S
H951 C935 0.961 . S
H952 C936 0.931 . S
H953 C941 0.930 . S
H954 C942 0.956 . S
H955 C942 0.961 . S
H956 C942 0.961 . S
H957 C943 0.958 . S
H958 C943 0.961 . S
H959 C943 0.960 . S
C960 C961 1.391 . S
C960 C962 1.394 . S
C960 H976 0.931 . S
C961 C960 1.391 . S
C961 C965 1.376 . S
C962 C960 1.394 . S
C962 C963 1.369 . S
C962 C966 1.531 . S
C963 C962 1.369 . S
C963 C964 1.410 . S
C963 C971 1.503 . S
C964 C963 1.410 . S
C964 C965 1.392 . S
C964 C967 1.511 . S
C965 C961 1.376 . S
C965 C964 1.392 . S
C965 H977 0.929 . S
C966 C962 1.531 . S
C966 H978 0.960 . S
C966 H979 0.962 . S
C966 H980 0.960 . S
C967 C964 1.511 . S
C967 H981 0.961 . S
C967 H982 0.961 . S
C967 H983 0.961 . S
C968 C969 1.370 . S
C968 C970 1.363 . S
C968 H984 0.931 . S
C969 C968 1.370 . S
C969 C973 1.408 . S
C970 C968 1.363 . S
C970 C971 1.370 . S
C970 C974 1.524 . S
C971 C963 1.503 . S
C971 C970 1.370 . S
C971 C972 1.403 . S
C972 C971 1.403 . S
C972 C973 1.404 . S
C972 C975 1.539 . S
C973 C969 1.408 . S
C973 C972 1.404 . S
C973 H985 0.930 . S
C974 C970 1.524 . S
C974 H986 0.956 . S
C974 H987 0.961 . S
C974 H988 0.961 . S
C975 C972 1.539 . S
C975 H989 0.958 . S
C975 H990 0.961 . S
C975 H991 0.960 . S
H976 C960 0.931 . S
H977 C965 0.929 . S
H978 C966 0.960 . S
H979 C966 0.962 . S
H980 C966 0.960 . S
H981 C967 0.961 . S
H982 C967 0.961 . S
H983 C967 0.961 . S
H984 C968 0.931 . S
H985 C973 0.930 . S
H986 C974 0.956 . S
H987 C974 0.961 . S
H988 C974 0.961 . S
H989 C975 0.958 . S
H990 C975 0.961 . S
H991 C975 0.960 . S
C992 C993 1.391 1_655 S
C992 C994 1.394 . S
C992 H1008 0.931 . S
C993 C992 1.391 1_455 S
C993 C997 1.376 1_455 S
C994 C992 1.394 . S
C994 C995 1.369 . S
C994 C998 1.531 . S
C995 C994 1.369 . S
C995 C996 1.410 . S
C995 C1003 1.503 . S
C996 C995 1.410 . S
C996 C997 1.392 . S
C996 C999 1.511 . S
C997 C993 1.376 1_655 S
C997 C996 1.392 . S
C997 H1009 0.929 1_655 S
C998 C994 1.531 . S
C998 H1010 0.960 . S
C998 H1011 0.962 . S
C998 H1012 0.960 . S
C999 C996 1.511 . S
C999 H1013 0.961 . S
C999 H1014 0.961 . S
C999 H1015 0.961 . S
C1000 C1001 1.370 . S
C1000 C1002 1.363 . S
C1000 H1016 0.931 . S
C1001 C1000 1.370 . S
C1001 C1005 1.408 . S
C1002 C1000 1.363 . S
C1002 C1003 1.370 . S
C1002 C1006 1.524 . S
C1003 C995 1.503 . S
C1003 C1002 1.370 . S
C1003 C1004 1.403 . S
C1004 C1003 1.403 . S
C1004 C1005 1.404 . S
C1004 C1007 1.539 . S
C1005 C1001 1.408 . S
C1005 C1004 1.404 . S
C1005 H1017 0.930 . S
C1006 C1002 1.524 . S
C1006 H1018 0.956 . S
C1006 H1019 0.961 . S
C1006 H1020 0.961 . S
C1007 C1004 1.539 . S
C1007 H1021 0.958 . S
C1007 H1022 0.961 . S
C1007 H1023 0.960 . S
H1008 C992 0.931 . S
H1009 C997 0.929 1_455 S
H1010 C998 0.960 . S
H1011 C998 0.962 . S
H1012 C998 0.960 . S
H1013 C999 0.961 . S
H1014 C999 0.961 . S
H1015 C999 0.961 . S
H1016 C1000 0.931 . S
H1017 C1005 0.930 . S
H1018 C1006 0.956 . S
H1019 C1006 0.961 . S
H1020 C1006 0.961 . S
H1021 C1007 0.958 . S
H1022 C1007 0.961 . S
H1023 C1007 0.960 . S
C1024 C1025 1.391 . S
C1024 C1026 1.394 . S
C1024 H1040 0.931 . S
C1025 C1024 1.391 . S
C1025 C1029 1.376 . S
C1026 C1024 1.394 . S
C1026 C1027 1.369 . S
C1026 C1030 1.531 . S
C1027 C1026 1.369 . S
C1027 C1028 1.410 . S
C1027 C1035 1.503 . S
C1028 C1027 1.410 . S
C1028 C1029 1.392 . S
C1028 C1031 1.511 . S
C1029 C1025 1.376 . S
C1029 C1028 1.392 . S
C1029 H1041 0.929 . S
C1030 C1026 1.531 . S
C1030 H1042 0.960 . S
C1030 H1043 0.962 . S
C1030 H1044 0.960 . S
C1031 C1028 1.511 . S
C1031 H1045 0.961 . S
C1031 H1046 0.961 . S
C1031 H1047 0.961 . S
C1032 C1033 1.370 . S
C1032 C1034 1.363 . S
C1032 H1048 0.931 . S
C1033 C1032 1.370 . S
C1033 C1037 1.408 . S
C1034 C1032 1.363 . S
C1034 C1035 1.370 . S
C1034 C1038 1.524 . S
C1035 C1027 1.503 . S
C1035 C1034 1.370 . S
C1035 C1036 1.403 . S
C1036 C1035 1.403 . S
C1036 C1037 1.404 . S
C1036 C1039 1.539 . S
C1037 C1033 1.408 . S
C1037 C1036 1.404 . S
C1037 H1049 0.930 . S
C1038 C1034 1.524 . S
C1038 H1050 0.956 . S
C1038 H1051 0.961 . S
C1038 H1052 0.961 . S
C1039 C1036 1.539 . S
C1039 H1053 0.958 . S
C1039 H1054 0.961 . S
C1039 H1055 0.960 . S
H1040 C1024 0.931 . S
H1041 C1029 0.929 . S
H1042 C1030 0.960 . S
H1043 C1030 0.962 . S
H1044 C1030 0.960 . S
H1045 C1031 0.961 . S
H1046 C1031 0.961 . S
H1047 C1031 0.961 . S
H1048 C1032 0.931 . S
H1049 C1037 0.930 . S
H1050 C1038 0.956 . S
H1051 C1038 0.961 . S
H1052 C1038 0.961 . S
H1053 C1039 0.958 . S
H1054 C1039 0.961 . S
H1055 C1039 0.960 . S
C1056 C1057 1.391 . S
C1056 C1058 1.394 . S
C1056 H1072 0.931 . S
C1057 C1056 1.391 . S
C1057 C1061 1.376 . S
C1058 C1056 1.394 . S
C1058 C1059 1.369 . S
C1058 C1062 1.531 . S
C1059 C1058 1.369 . S
C1059 C1060 1.410 . S
C1059 C1067 1.503 . S
C1060 C1059 1.410 . S
C1060 C1061 1.392 . S
C1060 C1063 1.511 . S
C1061 C1057 1.376 . S
C1061 C1060 1.392 . S
C1061 H1073 0.929 . S
C1062 C1058 1.531 . S
C1062 H1074 0.960 . S
C1062 H1075 0.962 . S
C1062 H1076 0.960 . S
C1063 C1060 1.511 . S
C1063 H1077 0.961 . S
C1063 H1078 0.961 . S
C1063 H1079 0.961 . S
C1064 C1065 1.370 1_655 S
C1064 C1066 1.363 . S
C1064 H1080 0.931 . S
C1065 C1064 1.370 1_455 S
C1065 C1069 1.408 1_455 S
C1066 C1064 1.363 . S
C1066 C1067 1.370 . S
C1066 C1070 1.524 . S
C1067 C1059 1.503 . S
C1067 C1066 1.370 . S
C1067 C1068 1.403 . S
C1068 C1067 1.403 . S
C1068 C1069 1.404 . S
C1068 C1071 1.539 . S
C1069 C1065 1.408 1_655 S
C1069 C1068 1.404 . S
C1069 H1081 0.930 1_655 S
C1070 C1066 1.524 . S
C1070 H1082 0.956 . S
C1070 H1083 0.961 . S
C1070 H1084 0.961 . S
C1071 C1068 1.539 . S
C1071 H1085 0.958 . S
C1071 H1086 0.961 . S
C1071 H1087 0.960 . S
H1072 C1056 0.931 . S
H1073 C1061 0.929 . S
H1074 C1062 0.960 . S
H1075 C1062 0.962 . S
H1076 C1062 0.960 . S
H1077 C1063 0.961 . S
H1078 C1063 0.961 . S
H1079 C1063 0.961 . S
H1080 C1064 0.931 . S
H1081 C1069 0.930 1_455 S
H1082 C1070 0.956 . S
H1083 C1070 0.961 . S
H1084 C1070 0.961 . S
H1085 C1071 0.958 . S
H1086 C1071 0.961 . S
H1087 C1071 0.960 . S
C1088 C1089 1.391 . S
C1088 C1090 1.394 . S
C1088 H1104 0.931 . S
C1089 C1088 1.391 . S
C1089 C1093 1.376 . S
C1090 C1088 1.394 . S
C1090 C1091 1.369 . S
C1090 C1094 1.531 . S
C1091 C1090 1.369 . S
C1091 C1092 1.410 . S
C1091 C1099 1.503 . S
C1092 C1091 1.410 . S
C1092 C1093 1.392 . S
C1092 C1095 1.511 . S
C1093 C1089 1.376 . S
C1093 C1092 1.392 . S
C1093 H1105 0.929 . S
C1094 C1090 1.531 . S
C1094 H1106 0.960 . S
C1094 H1107 0.962 . S
C1094 H1108 0.960 . S
C1095 C1092 1.511 . S
C1095 H1109 0.961 . S
C1095 H1110 0.961 . S
C1095 H1111 0.961 . S
C1096 C1097 1.370 . S
C1096 C1098 1.363 . S
C1096 H1112 0.931 . S
C1097 C1096 1.370 . S
C1097 C1101 1.408 . S
C1098 C1096 1.363 . S
C1098 C1099 1.370 . S
C1098 C1102 1.524 . S
C1099 C1091 1.503 . S
C1099 C1098 1.370 . S
C1099 C1100 1.403 . S
C1100 C1099 1.403 . S
C1100 C1101 1.404 . S
C1100 C1103 1.539 . S
C1101 C1097 1.408 . S
C1101 C1100 1.404 . S
C1101 H1113 0.930 . S
C1102 C1098 1.524 . S
C1102 H1114 0.956 . S
C1102 H1115 0.961 . S
C1102 H1116 0.961 . S
C1103 C1100 1.539 . S
C1103 H1117 0.958 . S
C1103 H1118 0.961 . S
C1103 H1119 0.960 . S
H1104 C1088 0.931 . S
H1105 C1093 0.929 . S
H1106 C1094 0.960 . S
H1107 C1094 0.962 . S
H1108 C1094 0.960 . S
H1109 C1095 0.961 . S
H1110 C1095 0.961 . S
H1111 C1095 0.961 . S
H1112 C1096 0.931 . S
H1113 C1101 0.930 . S
H1114 C1102 0.956 . S
H1115 C1102 0.961 . S
H1116 C1102 0.961 . S
H1117 C1103 0.958 . S
H1118 C1103 0.961 . S
H1119 C1103 0.960 . S
C1120 C1121 1.390 1_455 S
C1120 C1122 1.394 . S
C1120 H1136 0.924 1_455 S
C1121 C1120 1.390 1_655 S
C1121 C1125 1.374 1_655 S
C1122 C1120 1.394 . S
C1122 C1123 1.369 . S
C1122 C1126 1.531 . S
C1123 C1122 1.369 . S
C1123 C1124 1.410 . S
C1123 C1131 1.503 . S
C1124 C1123 1.410 . S
C1124 C1125 1.392 . S
C1124 C1127 1.511 . S
C1125 C1121 1.374 1_455 S
C1125 C1124 1.392 . S
C1125 H1137 0.929 . S
C1126 C1122 1.531 . S
C1126 H1138 0.960 . S
C1126 H1139 0.962 . S
C1126 H1140 0.960 . S
C1127 C1124 1.511 . S
C1127 H1141 0.961 . S
C1127 H1142 0.961 . S
C1127 H1143 0.961 . S
C1128 C1129 1.370 . S
C1128 C1130 1.363 . S
C1128 H1144 0.931 . S
C1129 C1128 1.370 . S
C1129 C1133 1.408 . S
C1130 C1128 1.363 . S
C1130 C1131 1.370 . S
C1130 C1134 1.524 . S
C1131 C1123 1.503 . S
C1131 C1130 1.370 . S
C1131 C1132 1.403 . S
C1132 C1131 1.403 . S
C1132 C1133 1.404 . S
C1132 C1135 1.539 . S
C1133 C1129 1.408 . S
C1133 C1132 1.404 . S
C1133 H1145 0.930 . S
C1134 C1130 1.524 . S
C1134 H1146 0.956 . S
C1134 H1147 0.961 . S
C1134 H1148 0.961 . S
C1135 C1132 1.539 . S
C1135 H1149 0.958 . S
C1135 H1150 0.961 . S
C1135 H1151 0.960 . S
H1136 C1120 0.924 1_655 S
H1137 C1125 0.929 . S
H1138 C1126 0.960 . S
H1139 C1126 0.962 . S
H1140 C1126 0.960 . S
H1141 C1127 0.961 . S
H1142 C1127 0.961 . S
H1143 C1127 0.961 . S
H1144 C1128 0.931 . S
H1145 C1133 0.930 . S
H1146 C1134 0.956 . S
H1147 C1134 0.961 . S
H1148 C1134 0.961 . S
H1149 C1135 0.958 . S
H1150 C1135 0.961 . S
H1151 C1135 0.960 . S
C1152 C1153 1.391 . S
C1152 C1154 1.394 . S
C1152 H1168 0.931 . S
C1153 C1152 1.391 . S
C1153 C1157 1.376 . S
C1154 C1152 1.394 . S
C1154 C1155 1.369 . S
C1154 C1158 1.531 . S
C1155 C1154 1.369 . S
C1155 C1156 1.410 . S
C1155 C1163 1.503 . S
C1156 C1155 1.410 . S
C1156 C1157 1.392 . S
C1156 C1159 1.511 . S
C1157 C1153 1.376 . S
C1157 C1156 1.392 . S
C1157 H1169 0.929 . S
C1158 C1154 1.531 . S
C1158 H1170 0.960 . S
C1158 H1171 0.962 . S
C1158 H1172 0.960 . S
C1159 C1156 1.511 . S
C1159 H1173 0.961 . S
C1159 H1174 0.961 . S
C1159 H1175 0.961 . S
C1160 C1161 1.370 . S
C1160 C1162 1.363 . S
C1160 H1176 0.931 . S
C1161 C1160 1.370 . S
C1161 C1165 1.408 . S
C1162 C1160 1.363 . S
C1162 C1163 1.370 . S
C1162 C1166 1.524 . S
C1163 C1155 1.503 . S
C1163 C1162 1.370 . S
C1163 C1164 1.403 . S
C1164 C1163 1.403 . S
C1164 C1165 1.404 . S
C1164 C1167 1.539 . S
C1165 C1161 1.408 . S
C1165 C1164 1.404 . S
C1165 H1177 0.930 . S
C1166 C1162 1.524 . S
C1166 H1178 0.956 . S
C1166 H1179 0.961 . S
C1166 H1180 0.961 . S
C1167 C1164 1.539 . S
C1167 H1181 0.958 . S
C1167 H1182 0.961 . S
C1167 H1183 0.960 . S
H1168 C1152 0.931 . S
H1169 C1157 0.929 . S
H1170 C1158 0.960 . S
H1171 C1158 0.962 . S
H1172 C1158 0.960 . S
H1173 C1159 0.961 . S
H1174 C1159 0.961 . S
H1175 C1159 0.961 . S
H1176 C1160 0.931 . S
H1177 C1165 0.930 . S
H1178 C1166 0.956 . S
H1179 C1166 0.961 . S
H1180 C1166 0.961 . S
H1181 C1167 0.958 . S
H1182 C1167 0.961 . S
H1183 C1167 0.960 . S
C1184 C1185 1.391 1_455 S
C1184 C1186 1.394 . S
C1184 H1200 0.931 . S
C1185 C1184 1.391 1_655 S
C1185 C1189 1.376 1_655 S
C1186 C1184 1.394 . S
C1186 C1187 1.369 . S
C1186 C1190 1.531 . S
C1187 C1186 1.369 . S
C1187 C1188 1.410 . S
C1187 C1195 1.503 . S
C1188 C1187 1.410 . S
C1188 C1189 1.392 . S
C1188 C1191 1.511 . S
C1189 C1185 1.376 1_455 S
C1189 C1188 1.392 . S
C1189 H1201 0.929 1_455 S
C1190 C1186 1.531 . S
C1190 H1202 0.960 . S
C1190 H1203 0.962 . S
C1190 H1204 0.960 . S
C1191 C1188 1.511 . S
C1191 H1205 0.961 . S
C1191 H1206 0.961 . S
C1191 H1207 0.961 . S
C1192 C1193 1.370 . S
C1192 C1194 1.363 . S
C1192 H1208 0.931 . S
C1193 C1192 1.370 . S
C1193 C1197 1.408 . S
C1194 C1192 1.363 . S
C1194 C1195 1.370 . S
C1194 C1198 1.524 . S
C1195 C1187 1.503 . S
C1195 C1194 1.370 . S
C1195 C1196 1.403 . S
C1196 C1195 1.403 . S
C1196 C1197 1.404 . S
C1196 C1199 1.539 . S
C1197 C1193 1.408 . S
C1197 C1196 1.404 . S
C1197 H1209 0.930 . S
C1198 C1194 1.524 . S
C1198 H1210 0.956 . S
C1198 H1211 0.961 . S
C1198 H1212 0.961 . S
C1199 C1196 1.539 . S
C1199 H1213 0.958 . S
C1199 H1214 0.961 . S
C1199 H1215 0.960 . S
H1200 C1184 0.931 . S
H1201 C1189 0.929 1_655 S
H1202 C1190 0.960 . S
H1203 C1190 0.962 . S
H1204 C1190 0.960 . S
H1205 C1191 0.961 . S
H1206 C1191 0.961 . S
H1207 C1191 0.961 . S
H1208 C1192 0.931 . S
H1209 C1197 0.930 . S
H1210 C1198 0.956 . S
H1211 C1198 0.961 . S
H1212 C1198 0.961 . S
H1213 C1199 0.958 . S
H1214 C1199 0.961 . S
H1215 C1199 0.960 . S
C1216 C1217 1.391 . S
C1216 C1218 1.394 . S
C1216 H1232 0.931 . S
C1217 C1216 1.391 . S
C1217 C1221 1.376 . S
C1218 C1216 1.394 . S
C1218 C1219 1.369 . S
C1218 C1222 1.531 . S
C1219 C1218 1.369 . S
C1219 C1220 1.410 . S
C1219 C1227 1.503 . S
C1220 C1219 1.410 . S
C1220 C1221 1.392 . S
C1220 C1223 1.511 . S
C1221 C1217 1.376 . S
C1221 C1220 1.392 . S
C1221 H1233 0.929 . S
C1222 C1218 1.531 . S
C1222 H1234 0.960 . S
C1222 H1235 0.962 . S
C1222 H1236 0.960 . S
C1223 C1220 1.511 . S
C1223 H1237 0.961 . S
C1223 H1238 0.961 . S
C1223 H1239 0.961 . S
C1224 C1225 1.370 . S
C1224 C1226 1.363 . S
C1224 H1240 0.931 . S
C1225 C1224 1.370 . S
C1225 C1229 1.408 . S
C1226 C1224 1.363 . S
C1226 C1227 1.370 . S
C1226 C1230 1.524 . S
C1227 C1219 1.503 . S
C1227 C1226 1.370 . S
C1227 C1228 1.403 . S
C1228 C1227 1.403 . S
C1228 C1229 1.404 . S
C1228 C1231 1.539 . S
C1229 C1225 1.408 . S
C1229 C1228 1.404 . S
C1229 H1241 0.930 . S
C1230 C1226 1.524 . S
C1230 H1242 0.956 . S
C1230 H1243 0.961 . S
C1230 H1244 0.961 . S
C1231 C1228 1.539 . S
C1231 H1245 0.958 . S
C1231 H1246 0.961 . S
C1231 H1247 0.960 . S
H1232 C1216 0.931 . S
H1233 C1221 0.929 . S
H1234 C1222 0.960 . S
H1235 C1222 0.962 . S
H1236 C1222 0.960 . S
H1237 C1223 0.961 . S
H1238 C1223 0.961 . S
H1239 C1223 0.961 . S
H1240 C1224 0.931 . S
H1241 C1229 0.930 . S
H1242 C1230 0.956 . S
H1243 C1230 0.961 . S
H1244 C1230 0.961 . S
H1245 C1231 0.958 . S
H1246 C1231 0.961 . S
H1247 C1231 0.960 . S
C1248 C1249 1.391 . S
C1248 C1250 1.394 . S
C1248 H1264 0.931 . S
C1249 C1248 1.391 . S
C1249 C1253 1.376 . S
C1250 C1248 1.394 . S
C1250 C1251 1.369 . S
C1250 C1254 1.531 . S
C1251 C1250 1.369 . S
C1251 C1252 1.410 . S
C1251 C1259 1.503 . S
C1252 C1251 1.410 . S
C1252 C1253 1.392 . S
C1252 C1255 1.511 . S
C1253 C1249 1.376 . S
C1253 C1252 1.392 . S
C1253 H1265 0.929 . S
C1254 C1250 1.531 . S
C1254 H1266 0.960 . S
C1254 H1267 0.962 . S
C1254 H1268 0.960 . S
C1255 C1252 1.511 . S
C1255 H1269 0.961 . S
C1255 H1270 0.961 . S
C1255 H1271 0.961 . S
C1256 C1257 1.370 1_655 S
C1256 C1258 1.363 . S
C1256 H1272 0.931 . S
C1257 C1256 1.370 1_455 S
C1257 C1261 1.408 1_455 S
C1258 C1256 1.363 . S
C1258 C1259 1.370 . S
C1258 C1262 1.524 . S
C1259 C1251 1.503 . S
C1259 C1258 1.370 . S
C1259 C1260 1.403 . S
C1260 C1259 1.403 . S
C1260 C1261 1.404 . S
C1260 C1263 1.539 . S
C1261 C1257 1.408 1_655 S
C1261 C1260 1.404 . S
C1261 H1273 0.930 1_655 S
C1262 C1258 1.524 . S
C1262 H1274 0.956 . S
C1262 H1275 0.961 . S
C1262 H1276 0.961 . S
C1263 C1260 1.539 . S
C1263 H1277 0.958 . S
C1263 H1278 0.961 . S
C1263 H1279 0.960 . S
H1264 C1248 0.931 . S
H1265 C1253 0.929 . S
H1266 C1254 0.960 . S
H1267 C1254 0.962 . S
H1268 C1254 0.960 . S
H1269 C1255 0.961 . S
H1270 C1255 0.961 . S
H1271 C1255 0.961 . S
H1272 C1256 0.931 . S
H1273 C1261 0.930 1_455 S
H1274 C1262 0.956 . S
H1275 C1262 0.961 . S
H1276 C1262 0.961 . S
H1277 C1263 0.958 . S
H1278 C1263 0.961 . S
H1279 C1263 0.960 . S
C1280 C1281 1.391 . S
C1280 C1282 1.394 . S
C1280 H1296 0.931 . S
C1281 C1280 1.391 . S
C1281 C1285 1.376 . S
C1282 C1280 1.394 . S
C1282 C1283 1.369 . S
C1282 C1286 1.531 . S
C1283 C1282 1.369 . S
C1283 C1284 1.410 . S
C1283 C1291 1.503 . S
C1284 C1283 1.410 . S
C1284 C1285 1.392 . S
C1284 C1287 1.511 . S
C1285 C1281 1.376 . S
C1285 C1284 1.392 . S
C1285 H1297 0.929 . S
C1286 C1282 1.531 . S
C1286 H1298 0.960 . S
C1286 H1299 0.962 . S
C1286 H1300 0.960 . S
C1287 C1284 1.511 . S
C1287 H1301 0.961 . S
C1287 H1302 0.961 . S
C1287 H1303 0.961 . S
C1288 C1289 1.370 . S
C1288 C1290 1.363 . S
C1288 H1304 0.931 . S
C1289 C1288 1.370 . S
C1289 C1293 1.408 . S
C1290 C1288 1.363 . S
C1290 C1291 1.370 . S
C1290 C1294 1.524 . S
C1291 C1283 1.503 . S
C1291 C1290 1.370 . S
C1291 C1292 1.403 . S
C1292 C1291 1.403 . S
C1292 C1293 1.404 . S
C1292 C1295 1.539 . S
C1293 C1289 1.408 . S
C1293 C1292 1.404 . S
C1293 H1305 0.930 . S
C1294 C1290 1.524 . S
C1294 H1306 0.956 . S
C1294 H1307 0.961 . S
C1294 H1308 0.961 . S
C1295 C1292 1.539 . S
C1295 H1309 0.958 . S
C1295 H1310 0.961 . S
C1295 H1311 0.960 . S
H1296 C1280 0.931 . S
H1297 C1285 0.929 . S
H1298 C1286 0.960 . S
H1299 C1286 0.962 . S
H1300 C1286 0.960 . S
H1301 C1287 0.961 . S
H1302 C1287 0.961 . S
H1303 C1287 0.961 . S
H1304 C1288 0.931 . S
H1305 C1293 0.930 . S
H1306 C1294 0.956 . S
H1307 C1294 0.961 . S
H1308 C1294 0.961 . S
H1309 C1295 0.958 . S
H1310 C1295 0.961 . S
H1311 C1295 0.960 . S
C1312 C1313 1.391 . S
C1312 C1314 1.394 . S
C1312 H1328 0.931 . S
C1313 C1312 1.391 . S
C1313 C1317 1.376 . S
C1314 C1312 1.394 . S
C1314 C1315 1.369 . S
C1314 C1318 1.531 . S
C1315 C1314 1.369 . S
C1315 C1316 1.410 . S
C1315 C1323 1.503 . S
C1316 C1315 1.410 . S
C1316 C1317 1.392 . S
C1316 C1319 1.511 . S
C1317 C1313 1.376 . S
C1317 C1316 1.392 . S
C1317 H1329 0.929 . S
C1318 C1314 1.531 . S
C1318 H1330 0.960 . S
C1318 H1331 0.962 . S
C1318 H1332 0.960 . S
C1319 C1316 1.511 . S
C1319 H1333 0.961 . S
C1319 H1334 0.961 . S
C1319 H1335 0.961 . S
C1320 C1321 1.370 1_655 S
C1320 C1322 1.363 . S
C1320 H1336 0.931 . S
C1321 C1320 1.370 1_455 S
C1321 C1325 1.408 1_455 S
C1322 C1320 1.363 . S
C1322 C1323 1.370 . S
C1322 C1326 1.524 . S
C1323 C1315 1.503 . S
C1323 C1322 1.370 . S
C1323 C1324 1.403 . S
C1324 C1323 1.403 . S
C1324 C1325 1.404 . S
C1324 C1327 1.539 . S
C1325 C1321 1.408 1_655 S
C1325 C1324 1.404 . S
C1325 H1337 0.930 1_655 S
C1326 C1322 1.524 . S
C1326 H1338 0.956 . S
C1326 H1339 0.961 . S
C1326 H1340 0.961 . S
C1327 C1324 1.539 . S
C1327 H1341 0.958 . S
C1327 H1342 0.961 . S
C1327 H1343 0.960 . S
H1328 C1312 0.931 . S
H1329 C1317 0.929 . S
H1330 C1318 0.960 . S
H1331 C1318 0.962 . S
H1332 C1318 0.960 . S
H1333 C1319 0.961 . S
H1334 C1319 0.961 . S
H1335 C1319 0.961 . S
H1336 C1320 0.931 . S
H1337 C1325 0.930 1_455 S
H1338 C1326 0.956 . S
H1339 C1326 0.961 . S
H1340 C1326 0.961 . S
H1341 C1327 0.958 . S
H1342 C1327 0.961 . S
H1343 C1327 0.960 . S
C1344 C1345 1.391 . S
C1344 C1346 1.394 . S
C1344 H1360 0.931 . S
C1345 C1344 1.391 . S
C1345 C1349 1.376 . S
C1346 C1344 1.394 . S
C1346 C1347 1.369 . S
C1346 C1350 1.531 . S
C1347 C1346 1.369 . S
C1347 C1348 1.410 . S
C1347 C1355 1.503 . S
C1348 C1347 1.410 . S
C1348 C1349 1.392 . S
C1348 C1351 1.511 . S
C1349 C1345 1.376 . S
C1349 C1348 1.392 . S
C1349 H1361 0.929 . S
C1350 C1346 1.531 . S
C1350 H1362 0.960 . S
C1350 H1363 0.962 . S
C1350 H1364 0.960 . S
C1351 C1348 1.511 . S
C1351 H1365 0.961 . S
C1351 H1366 0.961 . S
C1351 H1367 0.961 . S
C1352 C1353 1.370 . S
C1352 C1354 1.363 . S
C1352 H1368 0.931 . S
C1353 C1352 1.370 . S
C1353 C1357 1.408 . S
C1354 C1352 1.363 . S
C1354 C1355 1.370 . S
C1354 C1358 1.524 . S
C1355 C1347 1.503 . S
C1355 C1354 1.370 . S
C1355 C1356 1.403 . S
C1356 C1355 1.403 . S
C1356 C1357 1.404 . S
C1356 C1359 1.539 . S
C1357 C1353 1.408 . S
C1357 C1356 1.404 . S
C1357 H1369 0.930 . S
C1358 C1354 1.524 . S
C1358 H1370 0.956 . S
C1358 H1371 0.961 . S
C1358 H1372 0.961 . S
C1359 C1356 1.539 . S
C1359 H1373 0.958 . S
C1359 H1374 0.961 . S
C1359 H1375 0.960 . S
H1360 C1344 0.931 . S
H1361 C1349 0.929 . S
H1362 C1350 0.960 . S
H1363 C1350 0.962 . S
H1364 C1350 0.960 . S
H1365 C1351 0.961 . S
H1366 C1351 0.961 . S
H1367 C1351 0.961 . S
H1368 C1352 0.931 . S
H1369 C1357 0.930 . S
H1370 C1358 0.956 . S
H1371 C1358 0.961 . S
H1372 C1358 0.961 . S
H1373 C1359 0.958 . S
H1374 C1359 0.961 . S
H1375 C1359 0.960 . S
C1376 C1377 1.391 . S
C1376 C1378 1.394 . S
C1376 H1392 0.931 . S
C1377 C1376 1.391 . S
C1377 C1381 1.376 . S
C1378 C1376 1.394 . S
C1378 C1379 1.369 . S
C1378 C1382 1.531 . S
C1379 C1378 1.369 . S
C1379 C1380 1.410 . S
C1379 C1387 1.503 . S
C1380 C1379 1.410 . S
C1380 C1381 1.392 . S
C1380 C1383 1.511 . S
C1381 C1377 1.376 . S
C1381 C1380 1.392 . S
C1381 H1393 0.929 . S
C1382 C1378 1.531 . S
C1382 H1394 0.960 . S
C1382 H1395 0.962 . S
C1382 H1396 0.960 . S
C1383 C1380 1.511 . S
C1383 H1397 0.961 . S
C1383 H1398 0.961 . S
C1383 H1399 0.961 . S
C1384 C1385 1.370 1_455 S
C1384 C1386 1.363 . S
C1384 H1400 0.931 . S
C1385 C1384 1.370 1_655 S
C1385 C1389 1.408 1_655 S
C1386 C1384 1.363 . S
C1386 C1387 1.370 . S
C1386 C1390 1.524 . S
C1387 C1379 1.503 . S
C1387 C1386 1.370 . S
C1387 C1388 1.403 . S
C1388 C1387 1.403 . S
C1388 C1389 1.404 . S
C1388 C1391 1.539 . S
C1389 C1385 1.408 1_455 S
C1389 C1388 1.404 . S
C1389 H1401 0.930 1_455 S
C1390 C1386 1.524 . S
C1390 H1402 0.956 . S
C1390 H1403 0.961 . S
C1390 H1404 0.961 . S
C1391 C1388 1.539 . S
C1391 H1405 0.958 . S
C1391 H1406 0.961 . S
C1391 H1407 0.960 . S
H1392 C1376 0.931 . S
H1393 C1381 0.929 . S
H1394 C1382 0.960 . S
H1395 C1382 0.962 . S
H1396 C1382 0.960 . S
H1397 C1383 0.961 . S
H1398 C1383 0.961 . S
H1399 C1383 0.961 . S
H1400 C1384 0.931 . S
H1401 C1389 0.930 1_655 S
H1402 C1390 0.956 . S
H1403 C1390 0.961 . S
H1404 C1390 0.961 . S
H1405 C1391 0.958 . S
H1406 C1391 0.961 . S
H1407 C1391 0.960 . S
C1408 C1409 1.391 . S
C1408 C1410 1.394 . S
C1408 H1424 0.931 . S
C1409 C1408 1.391 . S
C1409 C1413 1.376 . S
C1410 C1408 1.394 . S
C1410 C1411 1.369 . S
C1410 C1414 1.531 . S
C1411 C1410 1.369 . S
C1411 C1412 1.410 . S
C1411 C1419 1.503 . S
C1412 C1411 1.410 . S
C1412 C1413 1.392 . S
C1412 C1415 1.511 . S
C1413 C1409 1.376 . S
C1413 C1412 1.392 . S
C1413 H1425 0.929 . S
C1414 C1410 1.531 . S
C1414 H1426 0.960 . S
C1414 H1427 0.962 . S
C1414 H1428 0.960 . S
C1415 C1412 1.511 . S
C1415 H1429 0.961 . S
C1415 H1430 0.961 . S
C1415 H1431 0.961 . S
C1416 C1417 1.370 . S
C1416 C1418 1.363 . S
C1416 H1432 0.931 . S
C1417 C1416 1.370 . S
C1417 C1421 1.408 . S
C1418 C1416 1.363 . S
C1418 C1419 1.370 . S
C1418 C1422 1.524 . S
C1419 C1411 1.503 . S
C1419 C1418 1.370 . S
C1419 C1420 1.403 . S
C1420 C1419 1.403 . S
C1420 C1421 1.404 . S
C1420 C1423 1.539 . S
C1421 C1417 1.408 . S
C1421 C1420 1.404 . S
C1421 H1433 0.930 . S
C1422 C1418 1.524 . S
C1422 H1434 0.956 . S
C1422 H1435 0.961 . S
C1422 H1436 0.961 . S
C1423 C1420 1.539 . S
C1423 H1437 0.958 . S
C1423 H1438 0.961 . S
C1423 H1439 0.960 . S
H1424 C1408 0.931 . S
H1425 C1413 0.929 . S
H1426 C1414 0.960 . S
H1427 C1414 0.962 . S
H1428 C1414 0.960 . S
H1429 C1415 0.961 . S
H1430 C1415 0.961 . S
H1431 C1415 0.961 . S
H1432 C1416 0.931 . S
H1433 C1421 0.930 . S
H1434 C1422 0.956 . S
H1435 C1422 0.961 . S
H1436 C1422 0.961 . S
H1437 C1423 0.958 . S
H1438 C1423 0.961 . S
H1439 C1423 0.960 . S
C1440 C1441 1.387 1_455 S
C1440 C1442 1.394 . S
C1440 H1456 0.931 1_455 S
C1441 C1440 1.387 1_655 S
C1441 C1445 1.363 1_655 S
C1442 C1440 1.394 . S
C1442 C1443 1.369 . S
C1442 C1446 1.531 . S
C1443 C1442 1.369 . S
C1443 C1444 1.410 . S
C1443 C1451 1.503 . S
C1444 C1443 1.410 . S
C1444 C1445 1.392 . S
C1444 C1447 1.511 . S
C1445 C1441 1.363 1_455 S
C1445 C1444 1.392 . S
C1445 H1457 0.929 . S
C1446 C1442 1.531 . S
C1446 H1458 0.960 . S
C1446 H1459 0.962 . S
C1446 H1460 0.960 . S
C1447 C1444 1.511 . S
C1447 H1461 0.961 . S
C1447 H1462 0.961 . S
C1447 H1463 0.961 . S
C1448 C1449 1.370 . S
C1448 C1450 1.363 . S
C1448 H1464 0.931 . S
C1449 C1448 1.370 . S
C1449 C1453 1.408 . S
C1450 C1448 1.363 . S
C1450 C1451 1.370 . S
C1450 C1454 1.524 . S
C1451 C1443 1.503 . S
C1451 C1450 1.370 . S
C1451 C1452 1.403 . S
C1452 C1451 1.403 . S
C1452 C1453 1.404 . S
C1452 C1455 1.539 . S
C1453 C1449 1.408 . S
C1453 C1452 1.404 . S
C1453 H1465 0.930 . S
C1454 C1450 1.524 . S
C1454 H1466 0.956 . S
C1454 H1467 0.961 . S
C1454 H1468 0.961 . S
C1455 C1452 1.539 . S
C1455 H1469 0.958 . S
C1455 H1470 0.961 . S
C1455 H1471 0.960 . S
H1456 C1440 0.931 1_655 S
H1457 C1445 0.929 . S
H1458 C1446 0.960 . S
H1459 C1446 0.962 . S
H1460 C1446 0.960 . S
H1461 C1447 0.961 . S
H1462 C1447 0.961 . S
H1463 C1447 0.961 . S
H1464 C1448 0.931 . S
H1465 C1453 0.930 . S
H1466 C1454 0.956 . S
H1467 C1454 0.961 . S
H1468 C1454 0.961 . S
H1469 C1455 0.958 . S
H1470 C1455 0.961 . S
H1471 C1455 0.960 . S
C1472 C1473 1.391 . S
C1472 C1474 1.394 . S
C1472 H1488 0.931 . S
C1473 C1472 1.391 . S
C1473 C1477 1.376 1_655 S
C1474 C1472 1.394 . S
C1474 C1475 1.369 . S
C1474 C1478 1.531 . S
C1475 C1474 1.369 . S
C1475 C1476 1.410 1_655 S
C1475 C1483 1.503 1_655 S
C1476 C1475 1.410 1_455 S
C1476 C1477 1.392 . S
C1476 C1479 1.511 . S
C1477 C1473 1.376 1_455 S
C1477 C1476 1.392 . S
C1477 H1489 0.929 . S
C1478 C1474 1.531 . S
C1478 H1490 0.960 . S
C1478 H1491 0.962 . S
C1478 H1492 0.960 . S
C1479 C1476 1.511 . S
C1479 H1493 0.961 . S
C1479 H1494 0.961 . S
C1479 H1495 0.961 . S
C1480 C1481 1.370 . S
C1480 C1482 1.363 1_455 S
C1480 H1496 0.931 1_455 S
C1481 C1480 1.370 . S
C1481 C1485 1.408 . S
C1482 C1480 1.363 1_655 S
C1482 C1483 1.370 1_655 S
C1482 C1486 1.524 . S
C1483 C1475 1.503 1_455 S
C1483 C1482 1.370 1_455 S
C1483 C1484 1.403 . S
C1484 C1483 1.403 . S
C1484 C1485 1.404 . S
C1484 C1487 1.539 . S
C1485 C1481 1.408 . S
C1485 C1484 1.404 . S
C1485 H1497 0.930 . S
C1486 C1482 1.524 . S
C1486 H1498 0.956 . S
C1486 H1499 0.961 . S
C1486 H1500 0.961 . S
C1487 C1484 1.539 . S
C1487 H1501 0.958 . S
C1487 H1502 0.961 . S
C1487 H1503 0.960 . S
H1488 C1472 0.931 . S
H1489 C1477 0.929 . S
H1490 C1478 0.960 . S
H1491 C1478 0.962 . S
H1492 C1478 0.960 . S
H1493 C1479 0.961 . S
H1494 C1479 0.961 . S
H1495 C1479 0.961 . S
H1496 C1480 0.931 1_655 S
H1497 C1485 0.930 . S
H1498 C1486 0.956 . S
H1499 C1486 0.961 . S
H1500 C1486 0.961 . S
H1501 C1487 0.958 . S
H1502 C1487 0.961 . S
H1503 C1487 0.960 . S
C1504 C1505 1.391 . S
C1504 C1506 1.394 . S
C1504 H1520 0.931 . S
C1505 C1504 1.391 . S
C1505 C1509 1.376 . S
C1506 C1504 1.394 . S
C1506 C1507 1.369 . S
C1506 C1510 1.531 1_565 S
C1507 C1506 1.369 . S
C1507 C1508 1.410 . S
C1507 C1515 1.503 1_565 S
C1508 C1507 1.410 . S
C1508 C1509 1.392 . S
C1508 C1511 1.511 . S
C1509 C1505 1.376 . S
C1509 C1508 1.392 . S
C1509 H1521 0.929 . S
C1510 C1506 1.531 1_545 S
C1510 H1522 0.960 . S
C1510 H1523 0.962 . S
C1510 H1524 0.960 . S
C1511 C1508 1.511 . S
C1511 H1525 0.961 . S
C1511 H1526 0.961 . S
C1511 H1527 0.961 . S
C1512 C1513 1.370 . S
C1512 C1514 1.363 . S
C1512 H1528 0.931 . S
C1513 C1512 1.370 . S
C1513 C1517 1.408 . S
C1514 C1512 1.363 . S
C1514 C1515 1.370 . S
C1514 C1518 1.524 1_545 S
C1515 C1507 1.503 1_545 S
C1515 C1514 1.370 . S
C1515 C1516 1.403 . S
C1516 C1515 1.403 . S
C1516 C1517 1.404 . S
C1516 C1519 1.539 . S
C1517 C1513 1.408 . S
C1517 C1516 1.404 . S
C1517 H1529 0.930 . S
C1518 C1514 1.524 1_565 S
C1518 H1530 0.956 . S
C1518 H1531 0.961 . S
C1518 H1532 0.961 . S
C1519 C1516 1.539 . S
C1519 H1533 0.958 . S
C1519 H1534 0.961 . S
C1519 H1535 0.960 . S
H1520 C1504 0.931 . S
H1521 C1509 0.929 . S
H1522 C1510 0.960 . S
H1523 C1510 0.962 . S
H1524 C1510 0.960 . S
H1525 C1511 0.961 . S
H1526 C1511 0.961 . S
H1527 C1511 0.961 . S
H1528 C1512 0.931 . S
H1529 C1517 0.930 . S
H1530 C1518 0.956 . S
H1531 C1518 0.961 . S
H1532 C1518 0.961 . S
H1533 C1519 0.958 . S
H1534 C1519 0.961 . S
H1535 C1519 0.960 . S
C1536 C1537 1.391 . S
C1536 C1538 1.394 1_554 S
C1536 H1552 0.931 1_554 S
C1537 C1536 1.391 . S
C1537 C1541 1.376 . S
C1538 C1536 1.394 1_556 S
C1538 C1539 1.369 1_656 S
C1538 C1542 1.531 1_655 S
C1539 C1538 1.369 1_454 S
C1539 C1540 1.410 1_455 S
C1539 C1547 1.503 1_544 S
C1540 C1539 1.410 1_655 S
C1540 C1541 1.392 . S
C1540 C1543 1.511 1_645 S
C1541 C1537 1.376 . S
C1541 C1540 1.392 . S
C1541 H1553 0.929 . S
C1542 C1538 1.531 1_455 S
C1542 H1554 0.960 . S
C1542 H1555 0.962 1_455 S
C1542 H1556 0.960 . S
C1543 C1540 1.511 1_465 S
C1543 H1557 0.961 1_455 S
C1543 H1558 0.961 1_455 S
C1543 H1559 0.961 . S
C1544 C1545 1.370 1_655 S
C1544 C1546 1.363 . S
C1544 H1560 0.931 . S
C1545 C1544 1.370 1_455 S
C1545 C1549 1.408 . S
C1546 C1544 1.363 . S
C1546 C1547 1.370 1_655 S
C1546 C1550 1.524 . S
C1547 C1539 1.503 1_566 S
C1547 C1546 1.370 1_455 S
C1547 C1548 1.403 . S
C1548 C1547 1.403 . S
C1548 C1549 1.404 . S
C1548 C1551 1.566 1_556 S
C1549 C1545 1.408 . S
C1549 C1548 1.404 . S
C1549 H1561 0.930 . S
C1550 C1546 1.524 . S
C1550 H1562 0.956 . S
C1550 H1563 0.961 1_556 S
C1550 H1564 0.961 . S
C1551 C1548 1.566 1_554 S
C1551 H1565 0.928 1_564 S
C1551 H1566 0.991 . S
C1551 H1567 0.936 1_565 S
H1552 C1536 0.931 1_556 S
H1553 C1541 0.929 . S
H1554 C1542 0.960 . S
H1555 C1542 0.962 1_655 S
H1556 C1542 0.960 . S
H1557 C1543 0.961 1_655 S
H1558 C1543 0.961 1_655 S
H1559 C1543 0.961 . S
H1560 C1544 0.931 . S
H1561 C1549 0.930 . S
H1562 C1550 0.956 . S
H1563 C1550 0.961 1_554 S
H1564 C1550 0.961 . S
H1565 C1551 0.928 1_546 S
H1566 C1551 0.991 . S
H1567 C1551 0.936 1_545 S
C1568 C1569 1.391 . S
C1568 C1570 1.391 1_554 S
C1568 H1584 0.931 . S
C1569 C1568 1.391 . S
C1569 C1573 1.376 . S
C1570 C1568 1.391 1_556 S
C1570 C1571 1.368 1_556 S
C1570 C1574 1.534 . S
C1571 C1570 1.368 1_554 S
C1571 C1572 1.410 . S
C1571 C1579 1.503 1_554 S
C1572 C1571 1.410 . S
C1572 C1573 1.392 . S
C1572 C1575 1.511 . S
C1573 C1569 1.376 . S
C1573 C1572 1.392 . S
C1573 H1585 0.929 . S
C1574 C1570 1.534 . S
C1574 H1586 0.960 . S
C1574 H1587 0.962 . S
C1574 H1588 0.960 . S
C1575 C1572 1.511 . S
C1575 H1589 0.961 . S
C1575 H1590 0.961 . S
C1575 H1591 0.961 . S
C1576 C1577 1.370 . S
C1576 C1578 1.363 1_556 S
C1576 H1592 0.931 1_556 S
C1577 C1576 1.370 . S
C1577 C1581 1.408 . S
C1578 C1576 1.363 1_554 S
C1578 C1579 1.370 1_554 S
C1578 C1582 1.524 . S
C1579 C1571 1.503 1_556 S
C1579 C1578 1.370 1_556 S
C1579 C1580 1.403 . S
C1580 C1579 1.403 . S
C1580 C1581 1.404 . S
C1580 C1583 1.539 . S
C1581 C1577 1.408 . S
C1581 C1580 1.404 . S
C1581 H1593 0.930 . S
C1582 C1578 1.524 . S
C1582 H1594 0.956 . S
C1582 H1595 0.961 . S
C1582 H1596 0.961 . S
C1583 C1580 1.539 . S
C1583 H1597 0.958 . S
C1583 H1598 0.961 . S
C1583 H1599 0.960 . S
H1584 C1568 0.931 . S
H1585 C1573 0.929 . S
H1586 C1574 0.960 . S
H1587 C1574 0.962 . S
H1588 C1574 0.960 . S
H1589 C1575 0.961 . S
H1590 C1575 0.961 . S
H1591 C1575 0.961 . S
H1592 C1576 0.931 1_554 S
H1593 C1581 0.930 . S
H1594 C1582 0.956 . S
H1595 C1582 0.961 . S
H1596 C1582 0.961 . S
H1597 C1583 0.958 . S
H1598 C1583 0.961 . S
H1599 C1583 0.960 . S
C1600 C1601 1.391 . S
C1600 C1602 1.394 . S
C1600 H1616 0.931 . S
C1601 C1600 1.391 . S
C1601 C1605 1.376 . S
C1602 C1600 1.394 . S
C1602 C1603 1.369 . S
C1602 C1606 1.531 . S
C1603 C1602 1.369 . S
C1603 C1604 1.410 1_655 S
C1603 C1611 1.503 1_655 S
C1604 C1603 1.410 1_455 S
C1604 C1605 1.392 1_455 S
C1604 C1607 1.511 . S
C1605 C1601 1.376 . S
C1605 C1604 1.392 1_655 S
C1605 H1617 0.929 1_655 S
C1606 C1602 1.531 . S
C1606 H1618 0.960 . S
C1606 H1619 0.962 . S
C1606 H1620 0.960 . S
C1607 C1604 1.511 . S
C1607 H1621 0.961 . S
C1607 H1622 0.961 . S
C1607 H1623 0.961 . S
C1608 C1609 1.370 . S
C1608 C1610 1.363 . S
C1608 H1624 0.931 . S
C1609 C1608 1.370 . S
C1609 C1613 1.408 1_455 S
C1610 C1608 1.363 . S
C1610 C1611 1.370 . S
C1610 C1614 1.524 . S
C1611 C1603 1.503 1_455 S
C1611 C1610 1.370 . S
C1611 C1612 1.403 1_455 S
C1612 C1611 1.403 1_655 S
C1612 C1613 1.404 . S
C1612 C1615 1.539 . S
C1613 C1609 1.408 1_655 S
C1613 C1612 1.404 . S
C1613 H1625 0.930 . S
C1614 C1610 1.524 . S
C1614 H1626 0.956 . S
C1614 H1627 0.961 . S
C1614 H1628 0.961 . S
C1615 C1612 1.539 . S
C1615 H1629 0.958 . S
C1615 H1630 0.961 . S
C1615 H1631 0.960 . S
H1616 C1600 0.931 . S
H1617 C1605 0.929 1_455 S
H1618 C1606 0.960 . S
H1619 C1606 0.962 . S
H1620 C1606 0.960 . S
H1621 C1607 0.961 . S
H1622 C1607 0.961 . S
H1623 C1607 0.961 . S
H1624 C1608 0.931 . S
H1625 C1613 0.930 . S
H1626 C1614 0.956 . S
H1627 C1614 0.961 . S
H1628 C1614 0.961 . S
H1629 C1615 0.958 . S
H1630 C1615 0.961 . S
H1631 C1615 0.960 . S
C1632 C1633 1.391 . S
C1632 C1634 1.394 . S
C1632 H1648 0.931 . S
C1633 C1632 1.391 . S
C1633 C1637 1.376 . S
C1634 C1632 1.394 . S
C1634 C1635 1.369 . S
C1634 C1638 1.531 . S
C1635 C1634 1.369 . S
C1635 C1636 1.410 . S
C1635 C1643 1.503 1_565 S
C1636 C1635 1.410 . S
C1636 C1637 1.392 . S
C1636 C1639 1.511 1_565 S
C1637 C1633 1.376 . S
C1637 C1636 1.392 . S
C1637 H1649 0.929 . S
C1638 C1634 1.531 . S
C1638 H1650 0.960 . S
C1638 H1651 0.962 . S
C1638 H1652 0.960 . S
C1639 C1636 1.511 1_545 S
C1639 H1653 0.961 . S
C1639 H1654 0.961 . S
C1639 H1655 0.961 . S
C1640 C1641 1.370 . S
C1640 C1642 1.363 . S
C1640 H1656 0.931 . S
C1641 C1640 1.370 . S
C1641 C1645 1.408 . S
C1642 C1640 1.363 . S
C1642 C1643 1.370 . S
C1642 C1646 1.524 . S
C1643 C1635 1.503 1_545 S
C1643 C1642 1.370 . S
C1643 C1644 1.403 . S
C1644 C1643 1.403 . S
C1644 C1645 1.404 . S
C1644 C1647 1.539 . S
C1645 C1641 1.408 . S
C1645 C1644 1.404 . S
C1645 H1657 0.930 . S
C1646 C1642 1.524 . S
C1646 H1658 0.956 1_545 S
C1646 H1659 0.961 . S
C1646 H1660 0.961 . S
C1647 C1644 1.539 . S
C1647 H1661 0.958 . S
C1647 H1662 0.961 . S
C1647 H1663 0.960 . S
H1648 C1632 0.931 . S
H1649 C1637 0.929 . S
H1650 C1638 0.960 . S
H1651 C1638 0.962 . S
H1652 C1638 0.960 . S
H1653 C1639 0.961 . S
H1654 C1639 0.961 . S
H1655 C1639 0.961 . S
H1656 C1640 0.931 . S
H1657 C1645 0.930 . S
H1658 C1646 0.956 1_565 S
H1659 C1646 0.961 . S
H1660 C1646 0.961 . S
H1661 C1647 0.958 . S
H1662 C1647 0.961 . S
H1663 C1647 0.960 . S
C1664 C1665 1.391 . S
C1664 C1666 1.394 . S
C1664 H1680 0.931 . S
C1665 C1664 1.391 . S
C1665 C1669 1.376 . S
C1666 C1664 1.394 . S
C1666 C1667 1.369 . S
C1666 C1670 1.531 . S
C1667 C1666 1.369 . S
C1667 C1668 1.410 . S
C1667 C1675 1.503 1_556 S
C1668 C1667 1.410 . S
C1668 C1669 1.392 . S
C1668 C1671 1.511 . S
C1669 C1665 1.376 . S
C1669 C1668 1.392 . S
C1669 H1681 0.929 . S
C1670 C1666 1.531 . S
C1670 H1682 0.960 . S
C1670 H1683 0.962 . S
C1670 H1684 0.960 . S
C1671 C1668 1.511 . S
C1671 H1685 0.961 . S
C1671 H1686 0.961 1_556 S
C1671 H1687 0.961 . S
C1672 C1673 1.370 . S
C1672 C1674 1.363 . S
C1672 H1688 0.931 . S
C1673 C1672 1.370 . S
C1673 C1677 1.408 . S
C1674 C1672 1.363 . S
C1674 C1675 1.370 . S
C1674 C1678 1.524 . S
C1675 C1667 1.503 1_554 S
C1675 C1674 1.370 . S
C1675 C1676 1.403 1_554 S
C1676 C1675 1.403 1_556 S
C1676 C1677 1.404 1_556 S
C1676 C1679 1.539 . S
C1677 C1673 1.408 . S
C1677 C1676 1.404 1_554 S
C1677 H1689 0.930 1_554 S
C1678 C1674 1.524 . S
C1678 H1690 0.956 . S
C1678 H1691 0.961 . S
C1678 H1692 0.961 . S
C1679 C1676 1.539 . S
C1679 H1693 0.958 . S
C1679 H1694 0.961 . S
C1679 H1695 0.960 . S
H1680 C1664 0.931 . S
H1681 C1669 0.929 . S
H1682 C1670 0.960 . S
H1683 C1670 0.962 . S
H1684 C1670 0.960 . S
H1685 C1671 0.961 . S
H1686 C1671 0.961 1_554 S
H1687 C1671 0.961 . S
H1688 C1672 0.931 . S
H1689 C1677 0.930 1_556 S
H1690 C1678 0.956 . S
H1691 C1678 0.961 . S
H1692 C1678 0.961 . S
H1693 C1679 0.958 . S
H1694 C1679 0.961 . S
H1695 C1679 0.960 . S
C1696 C1697 1.391 . S
C1696 C1698 1.394 . S
C1696 H1712 0.931 . S
C1697 C1696 1.391 . S
C1697 C1701 1.376 . S
C1698 C1696 1.394 . S
C1698 C1699 1.369 . S
C1698 C1702 1.531 . S
C1699 C1698 1.369 . S
C1699 C1700 1.410 . S
C1699 C1707 1.503 . S
C1700 C1699 1.410 . S
C1700 C1701 1.392 . S
C1700 C1703 1.511 . S
C1701 C1697 1.376 . S
C1701 C1700 1.392 . S
C1701 H1713 0.929 . S
C1702 C1698 1.531 . S
C1702 H1714 0.960 . S
C1702 H1715 0.962 . S
C1702 H1716 0.960 . S
C1703 C1700 1.511 . S
C1703 H1717 0.961 . S
C1703 H1718 0.961 . S
C1703 H1719 0.961 . S
C1704 C1705 1.370 . S
C1704 C1706 1.363 . S
C1704 H1720 0.931 . S
C1705 C1704 1.370 . S
C1705 C1709 1.408 . S
C1706 C1704 1.363 . S
C1706 C1707 1.370 . S
C1706 C1710 1.524 . S
C1707 C1699 1.503 . S
C1707 C1706 1.370 . S
C1707 C1708 1.403 . S
C1708 C1707 1.403 . S
C1708 C1709 1.404 . S
C1708 C1711 1.539 . S
C1709 C1705 1.408 . S
C1709 C1708 1.404 . S
C1709 H1721 0.930 . S
C1710 C1706 1.524 . S
C1710 H1722 0.956 . S
C1710 H1723 0.961 . S
C1710 H1724 0.961 . S
C1711 C1708 1.539 . S
C1711 H1725 0.958 . S
C1711 H1726 0.961 . S
C1711 H1727 0.960 . S
H1712 C1696 0.931 . S
H1713 C1701 0.929 . S
H1714 C1702 0.960 . S
H1715 C1702 0.962 . S
H1716 C1702 0.960 . S
H1717 C1703 0.961 . S
H1718 C1703 0.961 . S
H1719 C1703 0.961 . S
H1720 C1704 0.931 . S
H1721 C1709 0.930 . S
H1722 C1710 0.956 . S
H1723 C1710 0.961 . S
H1724 C1710 0.961 . S
H1725 C1711 0.958 . S
H1726 C1711 0.961 . S
H1727 C1711 0.960 . S
C1728 C1729 1.391 . S
C1728 C1730 1.394 . S
C1728 H1744 0.931 . S
C1729 C1728 1.391 . S
C1729 C1733 1.376 1_455 S
C1730 C1728 1.394 . S
C1730 C1731 1.369 . S
C1730 C1734 1.531 . S
C1731 C1730 1.369 . S
C1731 C1732 1.410 1_455 S
C1731 C1739 1.503 1_455 S
C1732 C1731 1.410 1_655 S
C1732 C1733 1.392 . S
C1732 C1735 1.511 . S
C1733 C1729 1.376 1_655 S
C1733 C1732 1.392 . S
C1733 H1745 0.929 . S
C1734 C1730 1.531 . S
C1734 H1746 0.960 . S
C1734 H1747 0.962 . S
C1734 H1748 0.960 . S
C1735 C1732 1.511 . S
C1735 H1749 0.961 . S
C1735 H1750 0.961 . S
C1735 H1751 0.961 . S
C1736 C1737 1.370 . S
C1736 C1738 1.363 . S
C1736 H1752 0.931 . S
C1737 C1736 1.370 . S
C1737 C1741 1.408 . S
C1738 C1736 1.363 . S
C1738 C1739 1.370 . S
C1738 C1742 1.524 . S
C1739 C1731 1.503 1_655 S
C1739 C1738 1.370 . S
C1739 C1740 1.403 1_655 S
C1740 C1739 1.403 1_455 S
C1740 C1741 1.404 1_455 S
C1740 C1743 1.539 . S
C1741 C1737 1.408 . S
C1741 C1740 1.404 1_655 S
C1741 H1753 0.930 . S
C1742 C1738 1.524 . S
C1742 H1754 0.956 . S
C1742 H1755 0.961 . S
C1742 H1756 0.961 . S
C1743 C1740 1.539 . S
C1743 H1757 0.958 . S
C1743 H1758 0.961 . S
C1743 H1759 0.960 . S
H1744 C1728 0.931 . S
H1745 C1733 0.929 . S
H1746 C1734 0.960 . S
H1747 C1734 0.962 . S
H1748 C1734 0.960 . S
H1749 C1735 0.961 . S
H1750 C1735 0.961 . S
H1751 C1735 0.961 . S
H1752 C1736 0.931 . S
H1753 C1741 0.930 . S
H1754 C1742 0.956 . S
H1755 C1742 0.961 . S
H1756 C1742 0.961 . S
H1757 C1743 0.958 . S
H1758 C1743 0.961 . S
H1759 C1743 0.960 . S
C1760 C1761 1.391 . S
C1760 C1762 1.394 . S
C1760 H1776 0.931 . S
C1761 C1760 1.391 . S
C1761 C1765 1.376 . S
C1762 C1760 1.394 . S
C1762 C1763 1.369 . S
C1762 C1766 1.531 . S
C1763 C1762 1.369 . S
C1763 C1764 1.410 . S
C1763 C1771 1.503 . S
C1764 C1763 1.410 . S
C1764 C1765 1.392 . S
C1764 C1767 1.511 . S
C1765 C1761 1.376 . S
C1765 C1764 1.392 . S
C1765 H1777 0.929 . S
C1766 C1762 1.531 . S
C1766 H1778 0.960 . S
C1766 H1779 0.962 . S
C1766 H1780 0.960 . S
C1767 C1764 1.511 . S
C1767 H1781 0.961 . S
C1767 H1782 0.961 . S
C1767 H1783 0.961 . S
C1768 C1769 1.370 . S
C1768 C1770 1.363 . S
C1768 H1784 0.931 . S
C1769 C1768 1.370 . S
C1769 C1773 1.408 . S
C1770 C1768 1.363 . S
C1770 C1771 1.370 . S
C1770 C1774 1.524 . S
C1771 C1763 1.503 . S
C1771 C1770 1.370 . S
C1771 C1772 1.403 . S
C1772 C1771 1.403 . S
C1772 C1773 1.404 . S
C1772 C1775 1.539 . S
C1773 C1769 1.408 . S
C1773 C1772 1.404 . S
C1773 H1785 0.930 . S
C1774 C1770 1.524 . S
C1774 H1786 0.956 . S
C1774 H1787 0.961 . S
C1774 H1788 0.961 . S
C1775 C1772 1.539 . S
C1775 H1789 0.958 . S
C1775 H1790 0.961 . S
C1775 H1791 0.960 . S
H1776 C1760 0.931 . S
H1777 C1765 0.929 . S
H1778 C1766 0.960 . S
H1779 C1766 0.962 . S
H1780 C1766 0.960 . S
H1781 C1767 0.961 . S
H1782 C1767 0.961 . S
H1783 C1767 0.961 . S
H1784 C1768 0.931 . S
H1785 C1773 0.930 . S
H1786 C1774 0.956 . S
H1787 C1774 0.961 . S
H1788 C1774 0.961 . S
H1789 C1775 0.958 . S
H1790 C1775 0.961 . S
H1791 C1775 0.960 . S
C1792 C1793 1.391 . S
C1792 C1794 1.394 . S
C1792 H1808 0.931 . S
C1793 C1792 1.391 . S
C1793 C1797 1.376 . S
C1794 C1792 1.394 . S
C1794 C1795 1.369 . S
C1794 C1798 1.531 . S
C1795 C1794 1.369 . S
C1795 C1796 1.410 . S
C1795 C1803 1.503 . S
C1796 C1795 1.410 . S
C1796 C1797 1.392 . S
C1796 C1799 1.511 . S
C1797 C1793 1.376 . S
C1797 C1796 1.392 . S
C1797 H1809 0.929 . S
C1798 C1794 1.531 . S
C1798 H1810 0.960 . S
C1798 H1811 0.962 . S
C1798 H1812 0.960 . S
C1799 C1796 1.511 . S
C1799 H1813 0.961 . S
C1799 H1814 0.961 . S
C1799 H1815 0.961 . S
C1800 C1801 1.370 . S
C1800 C1802 1.363 . S
C1800 H1816 0.931 . S
C1801 C1800 1.370 . S
C1801 C1805 1.408 . S
C1802 C1800 1.363 . S
C1802 C1803 1.370 . S
C1802 C1806 1.524 . S
C1803 C1795 1.503 . S
C1803 C1802 1.370 . S
C1803 C1804 1.403 . S
C1804 C1803 1.403 . S
C1804 C1805 1.404 . S
C1804 C1807 1.539 . S
C1805 C1801 1.408 . S
C1805 C1804 1.404 . S
C1805 H1817 0.930 . S
C1806 C1802 1.524 . S
C1806 H1818 0.956 . S
C1806 H1819 0.961 . S
C1806 H1820 0.961 . S
C1807 C1804 1.539 . S
C1807 H1821 0.958 . S
C1807 H1822 0.961 . S
C1807 H1823 0.960 . S
H1808 C1792 0.931 . S
H1809 C1797 0.929 . S
H1810 C1798 0.960 . S
H1811 C1798 0.962 . S
H1812 C1798 0.960 . S
H1813 C1799 0.961 . S
H1814 C1799 0.961 . S
H1815 C1799 0.961 . S
H1816 C1800 0.931 . S
H1817 C1805 0.930 . S
H1818 C1806 0.956 . S
H1819 C1806 0.961 . S
H1820 C1806 0.961 . S
H1821 C1807 0.958 . S
H1822 C1807 0.961 . S
H1823 C1807 0.960 . S
C1824 C1825 1.391 . S
C1824 C1826 1.394 . S
C1824 H1840 0.931 . S
C1825 C1824 1.391 . S
C1825 C1829 1.376 . S
C1826 C1824 1.394 . S
C1826 C1827 1.369 . S
C1826 C1830 1.531 . S
C1827 C1826 1.369 . S
C1827 C1828 1.410 . S
C1827 C1835 1.503 . S
C1828 C1827 1.410 . S
C1828 C1829 1.392 . S
C1828 C1831 1.511 . S
C1829 C1825 1.376 . S
C1829 C1828 1.392 . S
C1829 H1841 0.929 . S
C1830 C1826 1.531 . S
C1830 H1842 0.960 . S
C1830 H1843 0.962 . S
C1830 H1844 0.960 . S
C1831 C1828 1.511 . S
C1831 H1845 0.961 . S
C1831 H1846 0.961 . S
C1831 H1847 0.961 . S
C1832 C1833 1.370 . S
C1832 C1834 1.363 . S
C1832 H1848 0.931 . S
C1833 C1832 1.370 . S
C1833 C1837 1.408 . S
C1834 C1832 1.363 . S
C1834 C1835 1.370 . S
C1834 C1838 1.524 . S
C1835 C1827 1.503 . S
C1835 C1834 1.370 . S
C1835 C1836 1.403 . S
C1836 C1835 1.403 . S
C1836 C1837 1.404 . S
C1836 C1839 1.539 . S
C1837 C1833 1.408 . S
C1837 C1836 1.404 . S
C1837 H1849 0.930 . S
C1838 C1834 1.524 . S
C1838 H1850 0.956 . S
C1838 H1851 0.961 . S
C1838 H1852 0.961 . S
C1839 C1836 1.539 . S
C1839 H1853 0.958 . S
C1839 H1854 0.961 . S
C1839 H1855 0.960 . S
H1840 C1824 0.931 . S
H1841 C1829 0.929 . S
H1842 C1830 0.960 . S
H1843 C1830 0.962 . S
H1844 C1830 0.960 . S
H1845 C1831 0.961 . S
H1846 C1831 0.961 . S
H1847 C1831 0.961 . S
H1848 C1832 0.931 . S
H1849 C1837 0.930 . S
H1850 C1838 0.956 . S
H1851 C1838 0.961 . S
H1852 C1838 0.961 . S
H1853 C1839 0.958 . S
H1854 C1839 0.961 . S
H1855 C1839 0.960 . S
C1856 C1857 1.391 . S
C1856 C1858 1.394 . S
C1856 H1872 0.931 . S
C1857 C1856 1.391 . S
C1857 C1861 1.376 . S
C1858 C1856 1.394 . S
C1858 C1859 1.369 . S
C1858 C1862 1.531 . S
C1859 C1858 1.369 . S
C1859 C1860 1.410 . S
C1859 C1867 1.503 . S
C1860 C1859 1.410 . S
C1860 C1861 1.392 . S
C1860 C1863 1.511 . S
C1861 C1857 1.376 . S
C1861 C1860 1.392 . S
C1861 H1873 0.929 . S
C1862 C1858 1.531 . S
C1862 H1874 0.960 . S
C1862 H1875 0.962 . S
C1862 H1876 0.960 . S
C1863 C1860 1.511 . S
C1863 H1877 0.961 . S
C1863 H1878 0.961 . S
C1863 H1879 0.961 . S
C1864 C1865 1.370 . S
C1864 C1866 1.363 . S
C1864 H1880 0.931 . S
C1865 C1864 1.370 . S
C1865 C1869 1.408 . S
C1866 C1864 1.363 . S
C1866 C1867 1.370 . S
C1866 C1870 1.524 . S
C1867 C1859 1.503 . S
C1867 C1866 1.370 . S
C1867 C1868 1.403 . S
C1868 C1867 1.403 . S
C1868 C1869 1.404 . S
C1868 C1871 1.539 . S
C1869 C1865 1.408 . S
C1869 C1868 1.404 . S
C1869 H1881 0.930 . S
C1870 C1866 1.524 . S
C1870 H1882 0.956 . S
C1870 H1883 0.961 . S
C1870 H1884 0.961 . S
C1871 C1868 1.539 . S
C1871 H1885 0.958 . S
C1871 H1886 0.961 . S
C1871 H1887 0.960 . S
H1872 C1856 0.931 . S
H1873 C1861 0.929 . S
H1874 C1862 0.960 . S
H1875 C1862 0.962 . S
H1876 C1862 0.960 . S
H1877 C1863 0.961 . S
H1878 C1863 0.961 . S
H1879 C1863 0.961 . S
H1880 C1864 0.931 . S
H1881 C1869 0.930 . S
H1882 C1870 0.956 . S
H1883 C1870 0.961 . S
H1884 C1870 0.961 . S
H1885 C1871 0.958 . S
H1886 C1871 0.961 . S
H1887 C1871 0.960 . S
C1888 C1889 1.391 . S
C1888 C1890 1.394 . S
C1888 H1904 0.931 . S
C1889 C1888 1.391 . S
C1889 C1893 1.376 . S
C1890 C1888 1.394 . S
C1890 C1891 1.369 . S
C1890 C1894 1.531 . S
C1891 C1890 1.369 . S
C1891 C1892 1.410 . S
C1891 C1899 1.503 1_545 S
C1892 C1891 1.410 . S
C1892 C1893 1.392 . S
C1892 C1895 1.511 1_545 S
C1893 C1889 1.376 . S
C1893 C1892 1.392 . S
C1893 H1905 0.929 . S
C1894 C1890 1.531 . S
C1894 H1906 0.960 . S
C1894 H1907 0.962 . S
C1894 H1908 0.960 . S
C1895 C1892 1.511 1_565 S
C1895 H1909 0.961 . S
C1895 H1910 0.961 . S
C1895 H1911 0.961 . S
C1896 C1897 1.370 . S
C1896 C1898 1.363 . S
C1896 H1912 0.931 . S
C1897 C1896 1.370 . S
C1897 C1901 1.408 . S
C1898 C1896 1.363 . S
C1898 C1899 1.370 . S
C1898 C1902 1.524 . S
C1899 C1891 1.503 1_565 S
C1899 C1898 1.370 . S
C1899 C1900 1.403 . S
C1900 C1899 1.403 . S
C1900 C1901 1.404 . S
C1900 C1903 1.539 . S
C1901 C1897 1.408 . S
C1901 C1900 1.404 . S
C1901 H1913 0.930 . S
C1902 C1898 1.524 . S
C1902 H1914 0.956 1_565 S
C1902 H1915 0.973 . S
C1902 H1916 0.961 . S
C1903 C1900 1.539 . S
C1903 H1917 0.958 . S
C1903 H1918 0.961 . S
C1903 H1919 0.960 . S
H1904 C1888 0.931 . S
H1905 C1893 0.929 . S
H1906 C1894 0.960 . S
H1907 C1894 0.962 . S
H1908 C1894 0.960 . S
H1909 C1895 0.961 . S
H1910 C1895 0.961 . S
H1911 C1895 0.961 . S
H1912 C1896 0.931 . S
H1913 C1901 0.930 . S
H1914 C1902 0.956 1_545 S
H1915 C1902 0.973 . S
H1916 C1902 0.961 . S
H1917 C1903 0.958 . S
H1918 C1903 0.961 . S
H1919 C1903 0.960 . S
C1920 C1921 1.391 . S
C1920 C1922 1.394 . S
C1920 H1936 0.931 . S
C1921 C1920 1.391 . S
C1921 C1925 1.376 . S
C1922 C1920 1.394 . S
C1922 C1923 1.369 . S
C1922 C1926 1.531 . S
C1923 C1922 1.369 . S
C1923 C1924 1.410 . S
C1923 C1931 1.503 . S
C1924 C1923 1.410 . S
C1924 C1925 1.392 . S
C1924 C1927 1.511 . S
C1925 C1921 1.376 . S
C1925 C1924 1.392 . S
C1925 H1937 0.929 . S
C1926 C1922 1.531 . S
C1926 H1938 0.960 . S
C1926 H1939 0.962 . S
C1926 H1940 0.960 . S
C1927 C1924 1.511 . S
C1927 H1941 0.961 . S
C1927 H1942 0.961 . S
C1927 H1943 0.961 . S
C1928 C1929 1.370 . S
C1928 C1930 1.363 . S
C1928 H1944 0.931 . S
C1929 C1928 1.370 . S
C1929 C1933 1.408 . S
C1930 C1928 1.363 . S
C1930 C1931 1.370 . S
C1930 C1934 1.524 . S
C1931 C1923 1.503 . S
C1931 C1930 1.370 . S
C1931 C1932 1.403 . S
C1932 C1931 1.403 . S
C1932 C1933 1.404 . S
C1932 C1935 1.539 . S
C1933 C1929 1.408 . S
C1933 C1932 1.404 . S
C1933 H1945 0.930 . S
C1934 C1930 1.524 . S
C1934 H1946 0.956 . S
C1934 H1947 0.961 . S
C1934 H1948 0.961 . S
C1935 C1932 1.539 . S
C1935 H1949 0.958 . S
C1935 H1950 0.961 . S
C1935 H1951 0.960 . S
H1936 C1920 0.931 . S
H1937 C1925 0.929 . S
H1938 C1926 0.960 . S
H1939 C1926 0.962 . S
H1940 C1926 0.960 . S
H1941 C1927 0.961 . S
H1942 C1927 0.961 . S
H1943 C1927 0.961 . S
H1944 C1928 0.931 . S
H1945 C1933 0.930 . S
H1946 C1934 0.956 . S
H1947 C1934 0.961 . S
H1948 C1934 0.961 . S
H1949 C1935 0.958 . S
H1950 C1935 0.961 . S
H1951 C1935 0.960 . S
C1952 C1953 1.391 . S
C1952 C1954 1.394 . S
C1952 H1968 0.931 . S
C1953 C1952 1.391 . S
C1953 C1957 1.376 . S
C1954 C1952 1.394 . S
C1954 C1955 1.369 . S
C1954 C1958 1.531 . S
C1955 C1954 1.369 . S
C1955 C1956 1.410 . S
C1955 C1963 1.503 1_556 S
C1956 C1955 1.410 . S
C1956 C1957 1.392 . S
C1956 C1959 1.511 . S
C1957 C1953 1.376 . S
C1957 C1956 1.392 . S
C1957 H1969 0.929 . S
C1958 C1954 1.531 . S
C1958 H1970 0.960 . S
C1958 H1971 0.962 1_556 S
C1958 H1972 0.960 . S
C1959 C1956 1.511 . S
C1959 H1973 0.961 . S
C1959 H1974 0.961 . S
C1959 H1975 0.961 . S
C1960 C1961 1.370 . S
C1960 C1962 1.363 . S
C1960 H1976 0.931 . S
C1961 C1960 1.370 . S
C1961 C1965 1.408 . S
C1962 C1960 1.363 . S
C1962 C1963 1.370 . S
C1962 C1966 1.524 . S
C1963 C1955 1.503 1_554 S
C1963 C1962 1.370 . S
C1963 C1964 1.403 1_554 S
C1964 C1963 1.403 1_556 S
C1964 C1965 1.404 1_556 S
C1964 C1967 1.539 . S
C1965 C1961 1.408 . S
C1965 C1964 1.404 1_554 S
C1965 H1977 0.930 1_554 S
C1966 C1962 1.524 . S
C1966 H1978 0.956 . S
C1966 H1979 0.961 . S
C1966 H1980 0.961 . S
C1967 C1964 1.539 . S
C1967 H1981 0.958 . S
C1967 H1982 0.961 . S
C1967 H1983 0.960 . S
H1968 C1952 0.931 . S
H1969 C1957 0.929 . S
H1970 C1958 0.960 . S
H1971 C1958 0.962 1_554 S
H1972 C1958 0.960 . S
H1973 C1959 0.961 . S
H1974 C1959 0.961 . S
H1975 C1959 0.961 . S
H1976 C1960 0.931 . S
H1977 C1965 0.930 1_556 S
H1978 C1966 0.956 . S
H1979 C1966 0.961 . S
H1980 C1966 0.961 . S
H1981 C1967 0.958 . S
H1982 C1967 0.961 . S
H1983 C1967 0.960 . S
C1984 C1985 1.391 . S
C1984 C1986 1.394 . S
C1984 H2000 0.931 . S
C1985 C1984 1.391 . S
C1985 C1989 1.376 . S
C1986 C1984 1.394 . S
C1986 C1987 1.369 . S
C1986 C1990 1.531 . S
C1987 C1986 1.369 . S
C1987 C1988 1.410 . S
C1987 C1995 1.503 . S
C1988 C1987 1.410 . S
C1988 C1989 1.392 . S
C1988 C1991 1.511 . S
C1989 C1985 1.376 . S
C1989 C1988 1.392 . S
C1989 H2001 0.929 . S
C1990 C1986 1.531 . S
C1990 H2002 0.960 . S
C1990 H2003 0.962 . S
C1990 H2004 0.960 . S
C1991 C1988 1.511 . S
C1991 H2005 0.961 1_455 S
C1991 H2006 0.961 . S
C1991 H2007 0.961 . S
C1992 C1993 1.370 . S
C1992 C1994 1.363 . S
C1992 H2008 0.931 . S
C1993 C1992 1.370 . S
C1993 C1997 1.408 . S
C1994 C1992 1.363 . S
C1994 C1995 1.370 . S
C1994 C1998 1.524 . S
C1995 C1987 1.503 . S
C1995 C1994 1.370 . S
C1995 C1996 1.403 . S
C1996 C1995 1.403 . S
C1996 C1997 1.404 . S
C1996 C1999 1.539 . S
C1997 C1993 1.408 . S
C1997 C1996 1.404 . S
C1997 H2009 0.930 . S
C1998 C1994 1.524 . S
C1998 H2010 0.956 . S
C1998 H2011 0.961 . S
C1998 H2012 0.961 . S
C1999 C1996 1.539 . S
C1999 H2013 0.958 . S
C1999 H2014 0.961 . S
C1999 H2015 0.960 . S
H2000 C1984 0.931 . S
H2001 C1989 0.929 . S
H2002 C1990 0.960 . S
H2003 C1990 0.962 . S
H2004 C1990 0.960 . S
H2005 C1991 0.961 1_655 S
H2006 C1991 0.961 . S
H2007 C1991 0.961 . S
H2008 C1992 0.931 . S
H2009 C1997 0.930 . S
H2010 C1998 0.956 . S
H2011 C1998 0.961 . S
H2012 C1998 0.961 . S
H2013 C1999 0.958 . S
H2014 C1999 0.961 . S
H2015 C1999 0.960 . S
C2016 C2017 1.391 . S
C2016 C2018 1.394 . S
C2016 H2032 0.931 . S
C2017 C2016 1.391 . S
C2017 C2021 1.376 . S
C2018 C2016 1.394 . S
C2018 C2019 1.369 . S
C2018 C2022 1.531 . S
C2019 C2018 1.369 . S
C2019 C2020 1.410 . S
C2019 C2027 1.503 . S
C2020 C2019 1.410 . S
C2020 C2021 1.392 . S
C2020 C2023 1.511 . S
C2021 C2017 1.376 . S
C2021 C2020 1.392 . S
C2021 H2033 0.929 . S
C2022 C2018 1.531 . S
C2022 H2034 0.960 . S
C2022 H2035 0.962 . S
C2022 H2036 0.960 . S
C2023 C2020 1.511 . S
C2023 H2037 0.961 . S
C2023 H2038 0.961 . S
C2023 H2039 0.961 . S
C2024 C2025 1.370 . S
C2024 C2026 1.363 . S
C2024 H2040 0.931 . S
C2025 C2024 1.370 . S
C2025 C2029 1.408 . S
C2026 C2024 1.363 . S
C2026 C2027 1.370 . S
C2026 C2030 1.524 . S
C2027 C2019 1.503 . S
C2027 C2026 1.370 . S
C2027 C2028 1.403 . S
C2028 C2027 1.403 . S
C2028 C2029 1.404 . S
C2028 C2031 1.539 . S
C2029 C2025 1.408 . S
C2029 C2028 1.404 . S
C2029 H2041 0.930 . S
C2030 C2026 1.524 . S
C2030 H2042 0.956 . S
C2030 H2043 0.961 . S
C2030 H2044 0.961 . S
C2031 C2028 1.539 . S
C2031 H2045 0.958 . S
C2031 H2046 0.961 . S
C2031 H2047 0.960 . S
H2032 C2016 0.931 . S
H2033 C2021 0.929 . S
H2034 C2022 0.960 . S
H2035 C2022 0.962 . S
H2036 C2022 0.960 . S
H2037 C2023 0.961 . S
H2038 C2023 0.961 . S
H2039 C2023 0.961 . S
H2040 C2024 0.931 . S
H2041 C2029 0.930 . S
H2042 C2030 0.956 . S
H2043 C2030 0.961 . S
H2044 C2030 0.961 . S
H2045 C2031 0.958 . S
H2046 C2031 0.961 . S
H2047 C2031 0.960 . S
C2048 C2049 1.391 . S
C2048 C2050 1.394 . S
C2048 H2064 0.931 . S
C2049 C2048 1.391 . S
C2049 C2053 1.376 . S
C2050 C2048 1.394 . S
C2050 C2051 1.369 . S
C2050 C2054 1.531 . S
C2051 C2050 1.369 . S
C2051 C2052 1.410 . S
C2051 C2059 1.503 . S
C2052 C2051 1.410 . S
C2052 C2053 1.392 . S
C2052 C2055 1.511 . S
C2053 C2049 1.376 . S
C2053 C2052 1.392 . S
C2053 H2065 0.929 . S
C2054 C2050 1.531 . S
C2054 H2066 0.960 . S
C2054 H2067 0.962 . S
C2054 H2068 0.960 . S
C2055 C2052 1.511 . S
C2055 H2069 0.961 . S
C2055 H2070 0.961 . S
C2055 H2071 0.961 . S
C2056 C2057 1.370 . S
C2056 C2058 1.363 . S
C2056 H2072 0.931 . S
C2057 C2056 1.370 . S
C2057 C2061 1.408 . S
C2058 C2056 1.363 . S
C2058 C2059 1.370 . S
C2058 C2062 1.524 . S
C2059 C2051 1.503 . S
C2059 C2058 1.370 . S
C2059 C2060 1.403 . S
C2060 C2059 1.403 . S
C2060 C2061 1.404 . S
C2060 C2063 1.539 . S
C2061 C2057 1.408 . S
C2061 C2060 1.404 . S
C2061 H2073 0.930 . S
C2062 C2058 1.524 . S
C2062 H2074 0.956 . S
C2062 H2075 0.961 . S
C2062 H2076 0.961 . S
C2063 C2060 1.539 . S
C2063 H2077 0.958 . S
C2063 H2078 0.961 . S
C2063 H2079 0.960 . S
H2064 C2048 0.931 . S
H2065 C2053 0.929 . S
H2066 C2054 0.960 . S
H2067 C2054 0.962 . S
H2068 C2054 0.960 . S
H2069 C2055 0.961 . S
H2070 C2055 0.961 . S
H2071 C2055 0.961 . S
H2072 C2056 0.931 . S
H2073 C2061 0.930 . S
H2074 C2062 0.956 . S
H2075 C2062 0.961 . S
H2076 C2062 0.961 . S
H2077 C2063 0.958 . S
H2078 C2063 0.961 . S
H2079 C2063 0.960 . S
C2080 C2081 1.391 . S
C2080 C2082 1.394 . S
C2080 H2096 0.931 . S
C2081 C2080 1.391 . S
C2081 C2085 1.376 . S
C2082 C2080 1.394 . S
C2082 C2083 1.369 . S
C2082 C2086 1.531 . S
C2083 C2082 1.369 . S
C2083 C2084 1.410 . S
C2083 C2091 1.503 . S
C2084 C2083 1.410 . S
C2084 C2085 1.392 . S
C2084 C2087 1.511 . S
C2085 C2081 1.376 . S
C2085 C2084 1.392 . S
C2085 H2097 0.929 . S
C2086 C2082 1.531 . S
C2086 H2098 0.960 . S
C2086 H2099 0.962 . S
C2086 H2100 0.960 . S
C2087 C2084 1.511 . S
C2087 H2101 0.961 . S
C2087 H2102 0.961 . S
C2087 H2103 0.961 . S
C2088 C2089 1.370 . S
C2088 C2090 1.363 . S
C2088 H2104 0.931 . S
C2089 C2088 1.370 . S
C2089 C2093 1.408 . S
C2090 C2088 1.363 . S
C2090 C2091 1.370 . S
C2090 C2094 1.524 . S
C2091 C2083 1.503 . S
C2091 C2090 1.370 . S
C2091 C2092 1.403 . S
C2092 C2091 1.403 . S
C2092 C2093 1.404 . S
C2092 C2095 1.539 . S
C2093 C2089 1.408 . S
C2093 C2092 1.404 . S
C2093 H2105 0.930 . S
C2094 C2090 1.524 . S
C2094 H2106 0.956 . S
C2094 H2107 0.961 . S
C2094 H2108 0.961 . S
C2095 C2092 1.539 . S
C2095 H2109 0.958 . S
C2095 H2110 0.961 . S
C2095 H2111 0.960 . S
H2096 C2080 0.931 . S
H2097 C2085 0.929 . S
H2098 C2086 0.960 . S
H2099 C2086 0.962 . S
H2100 C2086 0.960 . S
H2101 C2087 0.961 . S
H2102 C2087 0.961 . S
H2103 C2087 0.961 . S
H2104 C2088 0.931 . S
H2105 C2093 0.930 . S
H2106 C2094 0.956 . S
H2107 C2094 0.961 . S
H2108 C2094 0.961 . S
H2109 C2095 0.958 . S
H2110 C2095 0.961 . S
H2111 C2095 0.960 . S
C2112 C2113 1.391 . S
C2112 C2114 1.394 . S
C2112 H2128 0.931 . S
C2113 C2112 1.391 . S
C2113 C2117 1.376 . S
C2114 C2112 1.394 . S
C2114 C2115 1.369 . S
C2114 C2118 1.531 . S
C2115 C2114 1.369 . S
C2115 C2116 1.410 . S
C2115 C2123 1.503 . S
C2116 C2115 1.410 . S
C2116 C2117 1.392 . S
C2116 C2119 1.511 . S
C2117 C2113 1.376 . S
C2117 C2116 1.392 . S
C2117 H2129 0.929 . S
C2118 C2114 1.531 . S
C2118 H2130 0.960 . S
C2118 H2131 0.962 . S
C2118 H2132 0.960 . S
C2119 C2116 1.511 . S
C2119 H2133 0.961 . S
C2119 H2134 0.961 . S
C2119 H2135 0.961 . S
C2120 C2121 1.370 . S
C2120 C2122 1.363 . S
C2120 H2136 0.931 . S
C2121 C2120 1.370 . S
C2121 C2125 1.408 . S
C2122 C2120 1.363 . S
C2122 C2123 1.370 . S
C2122 C2126 1.524 . S
C2123 C2115 1.503 . S
C2123 C2122 1.370 . S
C2123 C2124 1.403 . S
C2124 C2123 1.403 . S
C2124 C2125 1.404 . S
C2124 C2127 1.539 . S
C2125 C2121 1.408 . S
C2125 C2124 1.404 . S
C2125 H2137 0.930 . S
C2126 C2122 1.524 . S
C2126 H2138 0.956 . S
C2126 H2139 0.961 . S
C2126 H2140 0.961 . S
C2127 C2124 1.539 . S
C2127 H2141 0.958 . S
C2127 H2142 0.961 . S
C2127 H2143 0.960 . S
H2128 C2112 0.931 . S
H2129 C2117 0.929 . S
H2130 C2118 0.960 . S
H2131 C2118 0.962 . S
H2132 C2118 0.960 . S
H2133 C2119 0.961 . S
H2134 C2119 0.961 . S
H2135 C2119 0.961 . S
H2136 C2120 0.931 . S
H2137 C2125 0.930 . S
H2138 C2126 0.956 . S
H2139 C2126 0.961 . S
H2140 C2126 0.961 . S
H2141 C2127 0.958 . S
H2142 C2127 0.961 . S
H2143 C2127 0.960 . S
C2144 C2145 1.391 . S
C2144 C2146 1.394 . S
C2144 H2160 0.931 . S
C2145 C2144 1.391 . S
C2145 C2149 1.376 . S
C2146 C2144 1.394 . S
C2146 C2147 1.369 . S
C2146 C2150 1.531 . S
C2147 C2146 1.369 . S
C2147 C2148 1.410 . S
C2147 C2155 1.503 . S
C2148 C2147 1.410 . S
C2148 C2149 1.392 . S
C2148 C2151 1.511 . S
C2149 C2145 1.376 . S
C2149 C2148 1.392 . S
C2149 H2161 0.929 . S
C2150 C2146 1.531 . S
C2150 H2162 0.960 . S
C2150 H2163 0.962 . S
C2150 H2164 0.960 . S
C2151 C2148 1.511 . S
C2151 H2165 0.961 . S
C2151 H2166 0.961 . S
C2151 H2167 0.961 . S
C2152 C2153 1.370 . S
C2152 C2154 1.363 . S
C2152 H2168 0.931 . S
C2153 C2152 1.370 . S
C2153 C2157 1.408 . S
C2154 C2152 1.363 . S
C2154 C2155 1.370 . S
C2154 C2158 1.524 . S
C2155 C2147 1.503 . S
C2155 C2154 1.370 . S
C2155 C2156 1.403 . S
C2156 C2155 1.403 . S
C2156 C2157 1.404 . S
C2156 C2159 1.539 . S
C2157 C2153 1.408 . S
C2157 C2156 1.404 . S
C2157 H2169 0.930 . S
C2158 C2154 1.524 . S
C2158 H2170 0.956 . S
C2158 H2171 0.961 . S
C2158 H2172 0.961 . S
C2159 C2156 1.539 . S
C2159 H2173 0.958 . S
C2159 H2174 0.961 1_455 S
C2159 H2175 0.960 . S
H2160 C2144 0.931 . S
H2161 C2149 0.929 . S
H2162 C2150 0.960 . S
H2163 C2150 0.962 . S
H2164 C2150 0.960 . S
H2165 C2151 0.961 . S
H2166 C2151 0.961 . S
H2167 C2151 0.961 . S
H2168 C2152 0.931 . S
H2169 C2157 0.930 . S
H2170 C2158 0.956 . S
H2171 C2158 0.961 . S
H2172 C2158 0.961 . S
H2173 C2159 0.958 . S
H2174 C2159 0.961 1_655 S
H2175 C2159 0.960 . S
C2176 C2177 1.391 . S
C2176 C2178 1.394 . S
C2176 H2192 0.931 . S
C2177 C2176 1.391 . S
C2177 C2181 1.376 . S
C2178 C2176 1.394 . S
C2178 C2179 1.369 . S
C2178 C2182 1.531 . S
C2179 C2178 1.369 . S
C2179 C2180 1.410 . S
C2179 C2187 1.503 . S
C2180 C2179 1.410 . S
C2180 C2181 1.392 . S
C2180 C2183 1.511 . S
C2181 C2177 1.376 . S
C2181 C2180 1.392 . S
C2181 H2193 0.929 . S
C2182 C2178 1.531 . S
C2182 H2194 0.960 . S
C2182 H2195 0.962 . S
C2182 H2196 0.960 . S
C2183 C2180 1.511 . S
C2183 H2197 0.961 . S
C2183 H2198 0.961 . S
C2183 H2199 0.961 . S
C2184 C2185 1.370 . S
C2184 C2186 1.363 . S
C2184 H2200 0.931 . S
C2185 C2184 1.370 . S
C2185 C2189 1.408 . S
C2186 C2184 1.363 . S
C2186 C2187 1.370 . S
C2186 C2190 1.524 . S
C2187 C2179 1.503 . S
C2187 C2186 1.370 . S
C2187 C2188 1.403 . S
C2188 C2187 1.403 . S
C2188 C2189 1.404 . S
C2188 C2191 1.539 . S
C2189 C2185 1.408 . S
C2189 C2188 1.404 . S
C2189 H2201 0.930 . S
C2190 C2186 1.524 . S
C2190 H2202 0.956 . S
C2190 H2203 0.961 . S
C2190 H2204 0.961 . S
C2191 C2188 1.539 . S
C2191 H2205 0.958 . S
C2191 H2206 0.961 . S
C2191 H2207 0.960 . S
H2192 C2176 0.931 . S
H2193 C2181 0.929 . S
H2194 C2182 0.960 . S
H2195 C2182 0.962 . S
H2196 C2182 0.960 . S
H2197 C2183 0.961 . S
H2198 C2183 0.961 . S
H2199 C2183 0.961 . S
H2200 C2184 0.931 . S
H2201 C2189 0.930 . S
H2202 C2190 0.956 . S
H2203 C2190 0.961 . S
H2204 C2190 0.961 . S
H2205 C2191 0.958 . S
H2206 C2191 0.961 . S
H2207 C2191 0.960 . S
C2208 C2209 1.391 . S
C2208 C2210 1.394 . S
C2208 H2224 0.931 . S
C2209 C2208 1.391 . S
C2209 C2213 1.376 . S
C2210 C2208 1.394 . S
C2210 C2211 1.369 . S
C2210 C2214 1.531 . S
C2211 C2210 1.369 . S
C2211 C2212 1.410 . S
C2211 C2219 1.503 . S
C2212 C2211 1.410 . S
C2212 C2213 1.392 . S
C2212 C2215 1.511 . S
C2213 C2209 1.376 . S
C2213 C2212 1.392 . S
C2213 H2225 0.929 . S
C2214 C2210 1.531 . S
C2214 H2226 0.960 . S
C2214 H2227 0.962 . S
C2214 H2228 0.947 1_655 S
C2215 C2212 1.511 . S
C2215 H2229 0.961 . S
C2215 H2230 0.961 . S
C2215 H2231 0.961 . S
C2216 C2217 1.370 . S
C2216 C2218 1.363 . S
C2216 H2232 0.931 . S
C2217 C2216 1.370 . S
C2217 C2221 1.408 . S
C2218 C2216 1.363 . S
C2218 C2219 1.370 . S
C2218 C2222 1.524 . S
C2219 C2211 1.503 . S
C2219 C2218 1.370 . S
C2219 C2220 1.403 . S
C2220 C2219 1.403 . S
C2220 C2221 1.404 . S
C2220 C2223 1.539 . S
C2221 C2217 1.408 . S
C2221 C2220 1.404 . S
C2221 H2233 0.930 . S
C2222 C2218 1.524 . S
C2222 H2234 0.956 . S
C2222 H2235 0.961 . S
C2222 H2236 0.961 . S
C2223 C2220 1.539 . S
C2223 H2237 0.958 . S
C2223 H2238 0.961 . S
C2223 H2239 0.960 . S
H2224 C2208 0.931 . S
H2225 C2213 0.929 . S
H2226 C2214 0.960 . S
H2227 C2214 0.962 . S
H2228 C2214 0.947 1_455 S
H2229 C2215 0.961 . S
H2230 C2215 0.961 . S
H2231 C2215 0.961 . S
H2232 C2216 0.931 . S
H2233 C2221 0.930 . S
H2234 C2222 0.956 . S
H2235 C2222 0.961 . S
H2236 C2222 0.961 . S
H2237 C2223 0.958 . S
H2238 C2223 0.961 . S
H2239 C2223 0.960 . S
C2240 C2241 1.391 . S
C2240 C2242 1.394 . S
C2240 H2256 0.931 . S
C2241 C2240 1.391 . S
C2241 C2245 1.376 . S
C2242 C2240 1.394 . S
C2242 C2243 1.369 . S
C2242 C2246 1.531 . S
C2243 C2242 1.369 . S
C2243 C2244 1.410 . S
C2243 C2251 1.503 . S
C2244 C2243 1.410 . S
C2244 C2245 1.392 . S
C2244 C2247 1.511 . S
C2245 C2241 1.376 . S
C2245 C2244 1.392 . S
C2245 H2257 0.929 . S
C2246 C2242 1.531 . S
C2246 H2258 0.960 . S
C2246 H2259 0.962 . S
C2246 H2260 0.960 . S
C2247 C2244 1.511 . S
C2247 H2261 0.961 . S
C2247 H2262 0.961 . S
C2247 H2263 0.961 . S
C2248 C2249 1.370 . S
C2248 C2250 1.363 . S
C2248 H2264 0.931 . S
C2249 C2248 1.370 . S
C2249 C2253 1.408 . S
C2250 C2248 1.363 . S
C2250 C2251 1.370 . S
C2250 C2254 1.524 . S
C2251 C2243 1.503 . S
C2251 C2250 1.370 . S
C2251 C2252 1.403 . S
C2252 C2251 1.403 . S
C2252 C2253 1.404 . S
C2252 C2255 1.539 . S
C2253 C2249 1.408 . S
C2253 C2252 1.404 . S
C2253 H2265 0.930 . S
C2254 C2250 1.524 . S
C2254 H2266 0.956 . S
C2254 H2267 0.961 . S
C2254 H2268 0.961 . S
C2255 C2252 1.539 . S
C2255 H2269 0.958 . S
C2255 H2270 0.961 . S
C2255 H2271 0.960 . S
H2256 C2240 0.931 . S
H2257 C2245 0.929 . S
H2258 C2246 0.960 . S
H2259 C2246 0.962 . S
H2260 C2246 0.960 . S
H2261 C2247 0.961 . S
H2262 C2247 0.961 . S
H2263 C2247 0.961 . S
H2264 C2248 0.931 . S
H2265 C2253 0.930 . S
H2266 C2254 0.956 . S
H2267 C2254 0.961 . S
H2268 C2254 0.961 . S
H2269 C2255 0.958 . S
H2270 C2255 0.961 . S
H2271 C2255 0.960 . S
C2272 C2273 1.391 . S
C2272 C2274 1.394 . S
C2272 H2288 0.931 . S
C2273 C2272 1.391 . S
C2273 C2277 1.376 . S
C2274 C2272 1.394 . S
C2274 C2275 1.369 . S
C2274 C2278 1.531 . S
C2275 C2274 1.369 . S
C2275 C2276 1.410 . S
C2275 C2283 1.503 . S
C2276 C2275 1.410 . S
C2276 C2277 1.392 . S
C2276 C2279 1.511 . S
C2277 C2273 1.376 . S
C2277 C2276 1.392 . S
C2277 H2289 0.929 . S
C2278 C2274 1.531 . S
C2278 H2290 0.960 . S
C2278 H2291 0.962 . S
C2278 H2292 0.960 . S
C2279 C2276 1.511 . S
C2279 H2293 0.961 . S
C2279 H2294 0.961 . S
C2279 H2295 0.961 . S
C2280 C2281 1.370 . S
C2280 C2282 1.363 . S
C2280 H2296 0.931 . S
C2281 C2280 1.370 . S
C2281 C2285 1.408 . S
C2282 C2280 1.363 . S
C2282 C2283 1.370 . S
C2282 C2286 1.524 . S
C2283 C2275 1.503 . S
C2283 C2282 1.370 . S
C2283 C2284 1.403 . S
C2284 C2283 1.403 . S
C2284 C2285 1.404 . S
C2284 C2287 1.539 . S
C2285 C2281 1.408 . S
C2285 C2284 1.404 . S
C2285 H2297 0.930 . S
C2286 C2282 1.524 . S
C2286 H2298 0.956 . S
C2286 H2299 0.961 . S
C2286 H2300 0.961 . S
C2287 C2284 1.539 . S
C2287 H2301 0.958 . S
C2287 H2302 0.961 . S
C2287 H2303 0.960 . S
H2288 C2272 0.931 . S
H2289 C2277 0.929 . S
H2290 C2278 0.960 . S
H2291 C2278 0.962 . S
H2292 C2278 0.960 . S
H2293 C2279 0.961 . S
H2294 C2279 0.961 . S
H2295 C2279 0.961 . S
H2296 C2280 0.931 . S
H2297 C2285 0.930 . S
H2298 C2286 0.956 . S
H2299 C2286 0.961 . S
H2300 C2286 0.961 . S
H2301 C2287 0.958 . S
H2302 C2287 0.961 . S
H2303 C2287 0.960 . S
C2304 C2305 1.391 . S
C2304 C2306 1.394 . S
C2304 H2320 0.931 . S
C2305 C2304 1.391 . S
C2305 C2309 1.376 . S
C2306 C2304 1.394 . S
C2306 C2307 1.369 . S
C2306 C2310 1.531 . S
C2307 C2306 1.369 . S
C2307 C2308 1.410 . S
C2307 C2315 1.503 . S
C2308 C2307 1.410 . S
C2308 C2309 1.392 . S
C2308 C2311 1.511 . S
C2309 C2305 1.376 . S
C2309 C2308 1.392 . S
C2309 H2321 0.929 . S
C2310 C2306 1.531 . S
C2310 H2322 0.960 . S
C2310 H2323 0.962 . S
C2310 H2324 0.960 . S
C2311 C2308 1.511 . S
C2311 H2325 0.961 . S
C2311 H2326 0.961 . S
C2311 H2327 0.961 . S
C2312 C2313 1.370 . S
C2312 C2314 1.363 . S
C2312 H2328 0.931 . S
C2313 C2312 1.370 . S
C2313 C2317 1.408 . S
C2314 C2312 1.363 . S
C2314 C2315 1.370 . S
C2314 C2318 1.524 . S
C2315 C2307 1.503 . S
C2315 C2314 1.370 . S
C2315 C2316 1.403 . S
C2316 C2315 1.403 . S
C2316 C2317 1.404 . S
C2316 C2319 1.539 . S
C2317 C2313 1.408 . S
C2317 C2316 1.404 . S
C2317 H2329 0.930 . S
C2318 C2314 1.524 . S
C2318 H2330 0.956 . S
C2318 H2331 0.961 . S
C2318 H2332 0.961 . S
C2319 C2316 1.539 . S
C2319 H2333 0.958 . S
C2319 H2334 0.961 . S
C2319 H2335 0.960 . S
H2320 C2304 0.931 . S
H2321 C2309 0.929 . S
H2322 C2310 0.960 . S
H2323 C2310 0.962 . S
H2324 C2310 0.960 . S
H2325 C2311 0.961 . S
H2326 C2311 0.961 . S
H2327 C2311 0.961 . S
H2328 C2312 0.931 . S
H2329 C2317 0.930 . S
H2330 C2318 0.956 . S
H2331 C2318 0.961 . S
H2332 C2318 0.961 . S
H2333 C2319 0.958 . S
H2334 C2319 0.961 . S
H2335 C2319 0.960 . S
C2336 C2337 1.391 . S
C2336 C2338 1.394 . S
C2336 H2352 0.931 . S
C2337 C2336 1.391 . S
C2337 C2341 1.376 . S
C2338 C2336 1.394 . S
C2338 C2339 1.369 . S
C2338 C2342 1.531 . S
C2339 C2338 1.369 . S
C2339 C2340 1.410 . S
C2339 C2347 1.503 . S
C2340 C2339 1.410 . S
C2340 C2341 1.392 . S
C2340 C2343 1.511 . S
C2341 C2337 1.376 . S
C2341 C2340 1.392 . S
C2341 H2353 0.929 . S
C2342 C2338 1.531 . S
C2342 H2354 0.960 . S
C2342 H2355 0.962 . S
C2342 H2356 0.960 . S
C2343 C2340 1.511 . S
C2343 H2357 0.961 . S
C2343 H2358 0.961 . S
C2343 H2359 0.961 . S
C2344 C2345 1.370 . S
C2344 C2346 1.363 . S
C2344 H2360 0.931 . S
C2345 C2344 1.370 . S
C2345 C2349 1.408 . S
C2346 C2344 1.363 . S
C2346 C2347 1.370 . S
C2346 C2350 1.524 . S
C2347 C2339 1.503 . S
C2347 C2346 1.370 . S
C2347 C2348 1.403 . S
C2348 C2347 1.403 . S
C2348 C2349 1.404 . S
C2348 C2351 1.539 . S
C2349 C2345 1.408 . S
C2349 C2348 1.404 . S
C2349 H2361 0.930 . S
C2350 C2346 1.524 . S
C2350 H2362 0.956 . S
C2350 H2363 0.961 . S
C2350 H2364 0.961 . S
C2351 C2348 1.539 . S
C2351 H2365 0.958 . S
C2351 H2366 0.961 . S
C2351 H2367 0.960 . S
H2352 C2336 0.931 . S
H2353 C2341 0.929 . S
H2354 C2342 0.960 . S
H2355 C2342 0.962 . S
H2356 C2342 0.960 . S
H2357 C2343 0.961 . S
H2358 C2343 0.961 . S
H2359 C2343 0.961 . S
H2360 C2344 0.931 . S
H2361 C2349 0.930 . S
H2362 C2350 0.956 . S
H2363 C2350 0.961 . S
H2364 C2350 0.961 . S
H2365 C2351 0.958 . S
H2366 C2351 0.961 . S
H2367 C2351 0.960 . S
C2368 C2369 1.391 . S
C2368 C2370 1.394 . S
C2368 H2384 0.931 . S
C2369 C2368 1.391 . S
C2369 C2373 1.376 . S
C2370 C2368 1.394 . S
C2370 C2371 1.369 . S
C2370 C2374 1.531 . S
C2371 C2370 1.369 . S
C2371 C2372 1.410 . S
C2371 C2379 1.503 . S
C2372 C2371 1.410 . S
C2372 C2373 1.392 . S
C2372 C2375 1.511 . S
C2373 C2369 1.376 . S
C2373 C2372 1.392 . S
C2373 H2385 0.929 . S
C2374 C2370 1.531 . S
C2374 H2386 0.960 . S
C2374 H2387 0.962 . S
C2374 H2388 0.960 . S
C2375 C2372 1.511 . S
C2375 H2389 0.961 . S
C2375 H2390 0.961 . S
C2375 H2391 0.961 . S
C2376 C2377 1.370 . S
C2376 C2378 1.363 . S
C2376 H2392 0.931 . S
C2377 C2376 1.370 . S
C2377 C2381 1.408 . S
C2378 C2376 1.363 . S
C2378 C2379 1.370 . S
C2378 C2382 1.524 . S
C2379 C2371 1.503 . S
C2379 C2378 1.370 . S
C2379 C2380 1.403 . S
C2380 C2379 1.403 . S
C2380 C2381 1.404 . S
C2380 C2383 1.539 . S
C2381 C2377 1.408 . S
C2381 C2380 1.404 . S
C2381 H2393 0.930 . S
C2382 C2378 1.524 . S
C2382 H2394 0.956 . S
C2382 H2395 0.961 . S
C2382 H2396 0.961 . S
C2383 C2380 1.539 . S
C2383 H2397 0.958 . S
C2383 H2398 0.961 . S
C2383 H2399 0.960 . S
H2384 C2368 0.931 . S
H2385 C2373 0.929 . S
H2386 C2374 0.960 . S
H2387 C2374 0.962 . S
H2388 C2374 0.960 . S
H2389 C2375 0.961 . S
H2390 C2375 0.961 . S
H2391 C2375 0.961 . S
H2392 C2376 0.931 . S
H2393 C2381 0.930 . S
H2394 C2382 0.956 . S
H2395 C2382 0.961 . S
H2396 C2382 0.961 . S
H2397 C2383 0.958 . S
H2398 C2383 0.961 . S
H2399 C2383 0.960 . S
C2400 C2401 1.391 . S
C2400 C2402 1.394 . S
C2400 H2416 0.931 . S
C2401 C2400 1.391 . S
C2401 C2405 1.376 . S
C2402 C2400 1.394 . S
C2402 C2403 1.369 . S
C2402 C2406 1.531 . S
C2403 C2402 1.369 . S
C2403 C2404 1.410 . S
C2403 C2411 1.503 . S
C2404 C2403 1.410 . S
C2404 C2405 1.392 . S
C2404 C2407 1.511 . S
C2405 C2401 1.376 . S
C2405 C2404 1.392 . S
C2405 H2417 0.929 . S
C2406 C2402 1.531 . S
C2406 H2418 0.960 . S
C2406 H2419 0.962 . S
C2406 H2420 0.960 . S
C2407 C2404 1.511 . S
C2407 H2421 0.961 . S
C2407 H2422 0.961 . S
C2407 H2423 0.961 . S
C2408 C2409 1.370 . S
C2408 C2410 1.363 . S
C2408 H2424 0.931 . S
C2409 C2408 1.370 . S
C2409 C2413 1.408 . S
C2410 C2408 1.363 . S
C2410 C2411 1.370 . S
C2410 C2414 1.524 . S
C2411 C2403 1.503 . S
C2411 C2410 1.370 . S
C2411 C2412 1.403 . S
C2412 C2411 1.403 . S
C2412 C2413 1.404 . S
C2412 C2415 1.539 . S
C2413 C2409 1.408 . S
C2413 C2412 1.404 . S
C2413 H2425 0.930 . S
C2414 C2410 1.524 . S
C2414 H2426 0.956 . S
C2414 H2427 0.961 . S
C2414 H2428 0.961 . S
C2415 C2412 1.539 . S
C2415 H2429 0.958 . S
C2415 H2430 0.961 . S
C2415 H2431 0.960 . S
H2416 C2400 0.931 . S
H2417 C2405 0.929 . S
H2418 C2406 0.960 . S
H2419 C2406 0.962 . S
H2420 C2406 0.960 . S
H2421 C2407 0.961 . S
H2422 C2407 0.961 . S
H2423 C2407 0.961 . S
H2424 C2408 0.931 . S
H2425 C2413 0.930 . S
H2426 C2414 0.956 . S
H2427 C2414 0.961 . S
H2428 C2414 0.961 . S
H2429 C2415 0.958 . S
H2430 C2415 0.961 . S
H2431 C2415 0.960 . S
C2432 C2433 1.391 . S
C2432 C2434 1.394 . S
C2432 H2448 0.931 . S
C2433 C2432 1.391 . S
C2433 C2437 1.376 . S
C2434 C2432 1.394 . S
C2434 C2435 1.369 . S
C2434 C2438 1.531 . S
C2435 C2434 1.369 . S
C2435 C2436 1.410 . S
C2435 C2443 1.503 . S
C2436 C2435 1.410 . S
C2436 C2437 1.392 . S
C2436 C2439 1.511 . S
C2437 C2433 1.376 . S
C2437 C2436 1.392 . S
C2437 H2449 0.929 . S
C2438 C2434 1.531 . S
C2438 H2450 0.960 . S
C2438 H2451 0.962 . S
C2438 H2452 0.960 . S
C2439 C2436 1.511 . S
C2439 H2453 0.961 . S
C2439 H2454 0.961 . S
C2439 H2455 0.961 . S
C2440 C2441 1.370 . S
C2440 C2442 1.363 . S
C2440 H2456 0.931 . S
C2441 C2440 1.370 . S
C2441 C2445 1.408 . S
C2442 C2440 1.363 . S
C2442 C2443 1.370 . S
C2442 C2446 1.524 . S
C2443 C2435 1.503 . S
C2443 C2442 1.370 . S
C2443 C2444 1.403 . S
C2444 C2443 1.403 . S
C2444 C2445 1.404 . S
C2444 C2447 1.539 . S
C2445 C2441 1.408 . S
C2445 C2444 1.404 . S
C2445 H2457 0.930 . S
C2446 C2442 1.524 . S
C2446 H2458 0.956 . S
C2446 H2459 0.961 . S
C2446 H2460 0.961 . S
C2447 C2444 1.539 . S
C2447 H2461 0.958 . S
C2447 H2462 0.961 . S
C2447 H2463 0.960 . S
H2448 C2432 0.931 . S
H2449 C2437 0.929 . S
H2450 C2438 0.960 . S
H2451 C2438 0.962 . S
H2452 C2438 0.960 . S
H2453 C2439 0.961 . S
H2454 C2439 0.961 . S
H2455 C2439 0.961 . S
H2456 C2440 0.931 . S
H2457 C2445 0.930 . S
H2458 C2446 0.956 . S
H2459 C2446 0.961 . S
H2460 C2446 0.961 . S
H2461 C2447 0.958 . S
H2462 C2447 0.961 . S
H2463 C2447 0.960 . S
C2464 C2465 1.391 . S
C2464 C2466 1.394 . S
C2464 H2480 0.931 . S
C2465 C2464 1.391 . S
C2465 C2469 1.376 . S
C2466 C2464 1.394 . S
C2466 C2467 1.369 . S
C2466 C2470 1.531 . S
C2467 C2466 1.369 . S
C2467 C2468 1.410 . S
C2467 C2475 1.503 . S
C2468 C2467 1.410 . S
C2468 C2469 1.392 . S
C2468 C2471 1.511 . S
C2469 C2465 1.376 . S
C2469 C2468 1.392 . S
C2469 H2481 0.929 . S
C2470 C2466 1.531 . S
C2470 H2482 0.960 . S
C2470 H2483 0.962 . S
C2470 H2484 0.960 . S
C2471 C2468 1.511 . S
C2471 H2485 0.961 . S
C2471 H2486 0.961 . S
C2471 H2487 0.961 . S
C2472 C2473 1.370 . S
C2472 C2474 1.363 . S
C2472 H2488 0.931 . S
C2473 C2472 1.370 . S
C2473 C2477 1.408 . S
C2474 C2472 1.363 . S
C2474 C2475 1.370 . S
C2474 C2478 1.524 . S
C2475 C2467 1.503 . S
C2475 C2474 1.370 . S
C2475 C2476 1.403 . S
C2476 C2475 1.403 . S
C2476 C2477 1.404 . S
C2476 C2479 1.539 . S
C2477 C2473 1.408 . S
C2477 C2476 1.404 . S
C2477 H2489 0.930 . S
C2478 C2474 1.524 . S
C2478 H2490 0.956 . S
C2478 H2491 0.961 . S
C2478 H2492 0.961 . S
C2479 C2476 1.539 . S
C2479 H2493 0.958 . S
C2479 H2494 0.961 . S
C2479 H2495 0.960 . S
H2480 C2464 0.931 . S
H2481 C2469 0.929 . S
H2482 C2470 0.960 . S
H2483 C2470 0.962 . S
H2484 C2470 0.960 . S
H2485 C2471 0.961 . S
H2486 C2471 0.961 . S
H2487 C2471 0.961 . S
H2488 C2472 0.931 . S
H2489 C2477 0.930 . S
H2490 C2478 0.956 . S
H2491 C2478 0.961 . S
H2492 C2478 0.961 . S
H2493 C2479 0.958 . S
H2494 C2479 0.961 . S
H2495 C2479 0.960 . S
C449 C149 1.270 . S
C457 C9 1.255 . S
C481 C23 1.266 . S
C489 C163 1.253 . S
C513 C37 1.279 . S
C521 C121 1.260 . S
C545 C135 1.277 . S
C553 C51 1.259 . S
C577 C205 1.250 . S
C585 C65 1.242 . S
C609 C79 1.256 . S
C617 C219 1.264 . S
C641 C177 1.256 . S
C649 C93 1.244 . S
C673 C191 1.225 . S
C681 C107 1.239 . S
C705 C373 1.218 . S
C713 C233 1.239 . S
C737 C387 1.217 . S
C745 C247 1.241 . S
C769 C345 1.224 . S
C777 C261 1.247 . S
C801 C275 1.247 . S
C809 C359 1.258 . S
C833 C429 1.259 . S
C841 C289 1.265 . S
C865 C443 1.256 . S
C873 C303 1.244 . S
C897 C317 1.267 . S
C905 C401 1.266 . S
C929 C331 1.242 . S
C937 C415 1.241 . S
C961 C277 1.308 . S
C969 C11 1.302 . S
C993 C25 1.303 . S
C1001 C263 1.283 . S
C1025 C249 1.301 . S
C1033 C39 1.282 . S
C1057 C235 1.296 . S
C1065 C53 1.305 . S
C1089 C67 1.303 . S
C1097 C333 1.301 . S
C1121 C81 1.266 . S
C1129 C319 1.302 . S
C1153 C305 1.314 . S
C1161 C95 1.295 . S
C1185 C109 1.298 . S
C1193 C291 1.303 . S
C1217 C389 1.298 . S
C1225 C123 1.282 . S
C1249 C375 1.289 . S
C1257 C137 1.305 . S
C1281 C361 1.263 . S
C1289 C151 1.298 . S
C1313 C347 1.298 . S
C1321 C165 1.305 . S
C1345 C179 1.265 . S
C1353 C445 1.294 . S
C1377 C431 1.305 . S
C1385 C193 1.300 . S
C1409 C207 1.312 . S
C1417 C417 1.297 . S
C1441 C221 1.280 . S
C1449 C403 1.295 . S
C1473 C168 1.295 . S
C1481 C0 1.332 . S
C1505 C14 1.356 . S
C1513 C294 1.309 . S
C1537 C84 1.328 . S
C1545 C28 1.318 . S
C1569 C434 1.287 . S
C1577 C42 1.336 . S
C1601 C56 1.293 . S
C1609 C112 1.336 . S
C1633 C238 1.302 . S
C1641 C70 1.330 . S
C1665 C378 1.356 . S
C1673 C98 1.309 . S
C1697 C406 1.332 . S
C1705 C126 1.322 . S
C1729 C140 1.350 . S
C1737 C196 1.310 . S
C1761 C322 1.341 . S
C1769 C154 1.317 . S
C1793 C350 1.357 . S
C1801 C182 1.309 . S
C1825 C210 1.309 . S
C1833 C266 1.326 . S
C1857 C224 1.286 . S
C1865 C392 1.337 . S
C1889 C308 1.348 . S
C1897 C252 1.310 . S
C1921 C336 1.356 . S
C1929 C280 1.309 . S
C1953 C364 1.356 . S
C1961 C420 1.308 . S
C1985 C5 1.039 . S
C1993 C47 1.046 . S
C2017 C33 1.051 . S
C2025 C19 1.067 . S
C2049 C61 1.028 . S
C2057 C103 1.055 . S
C2081 C75 1.079 . S
C2089 C89 1.054 . S
C2113 C117 1.057 . S
C2121 C159 1.044 . S
C2145 C131 1.044 . S
C2153 C145 1.067 . S
C2177 C173 1.029 . S
C2185 C215 1.054 . S
C2209 C201 1.035 . S
C2217 C187 1.051 . S
C2241 C271 1.080 . S
C2249 C229 1.052 . S
C2273 C257 1.053 . S
C2281 C243 1.044 . S
C2305 C327 1.079 . S
C2313 C285 1.054 . S
C2337 C313 1.080 . S
C2345 C299 1.052 . S
C2369 C383 1.039 . S
C2377 C341 1.047 . S
C2401 C369 1.049 . S
C2409 C355 1.067 . S
C2433 C397 1.043 . S
C2441 C439 1.067 . S
C2465 C425 1.038 . S
C2473 C411 1.067 . S
