# Generated by pormake.
# Topology yfx, (5)-cn, num edge types: 1
# Building blocks:
#     Node 0, Type 0, BuildingBlock: XOMCOT_clean_sbu_0, # of connection points: 5
#     Node 1, Type 0, BuildingBlock: XOMCOT_clean_sbu_0, # of connection points: 5
#     Node 2, Type 0, BuildingBlock: XOMCOT_clean_sbu_0, # of connection points: 5
#     Node 3, Type 0, BuildingBlock: XOMCOT_clean_sbu_0, # of connection points: 5
#     Node 4, Type 0, BuildingBlock: XOMCOT_clean_sbu_0, # of connection points: 5
#     Node 5, Type 0, BuildingBlock: XOMCOT_clean_sbu_0, # of connection points: 5
#     Node 6, Type 0, BuildingBlock: XOMCOT_clean_sbu_0, # of connection points: 5
#     Node 7, Type 0, BuildingBlock: XOMCOT_clean_sbu_0, # of connection points: 5
#     Edge 8, Type (0, 0), BuildingBlock: XIVTED_clean_linker_0, # of connection points: 2
#     Edge 9, Type (0, 0), BuildingBlock: XIVTED_clean_linker_0, # of connection points: 2
#     Edge 10, Type (0, 0), BuildingBlock: XIVTED_clean_linker_0, # of connection points: 2
#     Edge 11, Type (0, 0), BuildingBlock: XIVTED_clean_linker_0, # of connection points: 2
#     Edge 12, Type (0, 0), BuildingBlock: XIVTED_clean_linker_0, # of connection points: 2
#     Edge 13, Type (0, 0), BuildingBlock: XIVTED_clean_linker_0, # of connection points: 2
#     Edge 14, Type (0, 0), BuildingBlock: XIVTED_clean_linker_0, # of connection points: 2
#     Edge 15, Type (0, 0), BuildingBlock: XIVTED_clean_linker_0, # of connection points: 2
#     Edge 16, Type (0, 0), BuildingBlock: XIVTED_clean_linker_0, # of connection points: 2
#     Edge 17, Type (0, 0), BuildingBlock: XIVTED_clean_linker_0, # of connection points: 2
#     Edge 18, Type (0, 0), BuildingBlock: XIVTED_clean_linker_0, # of connection points: 2
#     Edge 19, Type (0, 0), BuildingBlock: XIVTED_clean_linker_0, # of connection points: 2
#     Edge 20, Type (0, 0), BuildingBlock: XIVTED_clean_linker_0, # of connection points: 2
#     Edge 21, Type (0, 0), BuildingBlock: XIVTED_clean_linker_0, # of connection points: 2
#     Edge 22, Type (0, 0), BuildingBlock: XIVTED_clean_linker_0, # of connection points: 2
#     Edge 23, Type (0, 0), BuildingBlock: XIVTED_clean_linker_0, # of connection points: 2
#     Edge 24, Type (0, 0), BuildingBlock: XIVTED_clean_linker_0, # of connection points: 2
#     Edge 25, Type (0, 0), BuildingBlock: XIVTED_clean_linker_0, # of connection points: 2
#     Edge 26, Type (0, 0), BuildingBlock: XIVTED_clean_linker_0, # of connection points: 2
#     Edge 27, Type (0, 0), BuildingBlock: XIVTED_clean_linker_0, # of connection points: 2
# Relax obj value: 0.104
# Max RMSD: 0.108
# Mean RMSD: 0.108
data_MOF--net-yfx--node1-XOMCOT_clean_sbu_0--edge1-XIVTED_clean_linker_0
_symmetry_space_group_name_H-M    P1
_symmetry_Int_Tables_number       1
_symmetry_cell_setting            triclinic
loop_
_symmetry_equiv_pos_as_xyz
'x, y, z'
_cell_length_a     35.358929
_cell_length_b     35.338149
_cell_length_c     29.464372
_cell_angle_alpha  90.020597
_cell_angle_beta   90.090726
_cell_angle_gamma 90.000335
loop_
_atom_site_label
_atom_site_type_symbol
_atom_site_fract_x
_atom_site_fract_y
_atom_site_fract_z
_atom_type_partial_charge
Co0 Co 0.21592 0.3675 0.03402 0.0
C1 C 0.2913 0.32993 0.03051 0.0
C2 C 0.29177 0.38229 0.06773 0.0
C3 C 0.32743 0.36704 0.06906 0.0
N4 N 0.26919 0.35911 0.04365 0.0
N5 N 0.32712 0.33421 0.0457 0.0
H6 H 0.28132 0.3059 1.01111 0.0
H7 H 0.28274 0.40839 0.08357 0.0
C8 C 0.21566 0.4457 0.99072 0.0
O9 O 0.18794 0.43719 0.96279 0.0
N10 N 0.1621 0.37755 0.02593 0.0
C11 C 0.13474 0.35525 1.00849 0.0
C12 C 0.1008 0.37441 1.00993 0.0
C13 C 0.14395 0.40945 0.0391 0.0
N14 N 0.10664 0.40869 0.02886 0.0
C15 C 0.20909 0.31542 0.95984 0.0
C16 C 0.25729 0.35267 0.90127 0.0
C17 C 0.244 0.31666 0.88909 0.0
C18 C 0.21906 0.29835 0.91879 0.0
C19 C 0.24649 0.36882 0.94264 0.0
N20 N 0.22221 0.3505 0.97132 0.0
H21 H 0.19272 0.29909 0.98361 0.0
H22 H 0.26021 0.39471 0.95274 0.0
H23 H 0.13846 0.32696 0.99575 0.0
H24 H 0.15793 0.4329 0.05573 0.0
O25 O 0.2054 0.31925 0.06266 0.0
O26 O 0.2101 0.37403 0.09867 0.0
O27 O 0.22849 0.42142 0.01884 0.0
C28 C 0.20633 0.33745 0.10106 0.0
H29 H 0.35185 0.37932 0.08567 0.0
H30 H 0.07404 0.36409 0.99705 0.0
H31 H 0.27763 0.36742 0.8803 0.0
H32 H 0.20813 0.27044 0.91113 0.0
Co33 Co 0.65535 0.21041 0.0374 0.0
C34 C 0.69002 0.28715 0.03707 0.0
C35 C 0.63956 0.28395 0.07752 0.0
C36 C 0.6535 0.32015 0.08003 0.0
N37 N 0.6624 0.26334 0.05067 0.0
N38 N 0.68514 0.32214 0.0546 0.0
H39 H 0.71336 0.27902 1.01548 0.0
H40 H 0.61452 0.27327 0.09422 0.0
C41 C 0.57546 0.209 0.99869 0.0
O42 O 0.58449 0.18575 0.96563 0.0
N43 N 0.64657 0.1569 0.02524 0.0
C44 C 0.6653 0.13315 0.99733 0.0
C45 C 0.64584 0.09941 0.9949 0.0
C46 C 0.61663 0.13664 0.04047 0.0
N47 N 0.61515 0.10171 0.02183 0.0
C48 C 0.70646 0.21062 0.96235 0.0
C49 C 0.66384 0.25424 0.90377 0.0
C50 C 0.70061 0.24386 0.89047 0.0
C51 C 0.72186 0.22183 0.92091 0.0
C52 C 0.64975 0.24302 0.94622 0.0
N53 N 0.67056 0.22046 0.97457 0.0
H54 H 0.72429 0.19503 0.98546 0.0
H55 H 0.62283 0.25422 0.95676 0.0
H56 H 0.69068 0.13961 0.97877 0.0
H57 H 0.595 0.14815 0.06248 0.0
O58 O 0.70463 0.19991 0.06381 0.0
O59 O 0.6508 0.20076 0.1018 0.0
O60 O 0.60051 0.2214 0.02611 0.0
C61 C 0.68745 0.19786 0.10275 0.0
H62 H 0.641 0.34339 0.09866 0.0
H63 H 0.65321 0.07531 0.97401 0.0
H64 H 0.64613 0.27149 0.88212 0.0
H65 H 0.75092 0.21429 0.9139 0.0
Co66 Co 0.80262 0.65338 0.03882 0.0
C67 C 0.72644 0.689 0.03686 0.0
C68 C 0.72815 0.63785 0.07631 0.0
C69 C 0.69222 0.65245 0.07836 0.0
N70 N 0.74952 0.66071 0.05038 0.0
N71 N 0.69117 0.68454 0.05359 0.0
H72 H 0.73536 0.71263 0.01613 0.0
H73 H 0.73818 0.61247 0.09293 0.0
C74 C 0.80392 0.5734 1.00002 0.0
O75 O 0.8276 0.58239 0.96743 0.0
N76 N 0.85628 0.64448 0.02852 0.0
C77 C 0.88207 0.66615 1.00709 0.0
C78 C 0.91638 0.64754 1.0072 0.0
C79 C 0.87568 0.61358 0.04243 0.0
N80 N 0.91228 0.61426 0.02912 0.0
C81 C 0.80475 0.70389 0.96304 0.0
C82 C 0.76057 0.66173 0.90453 0.0
C83 C 0.77156 0.69827 0.89097 0.0
C84 C 0.794 0.71926 0.92131 0.0
C85 C 0.77122 0.64775 0.94723 0.0
N86 N 0.79396 0.66833 0.97563 0.0
H87 H 0.82013 0.72173 0.98631 0.0
H88 H 0.75931 0.62119 0.95799 0.0
H89 H 0.87684 0.69345 0.9921 0.0
H90 H 0.86302 0.59081 0.06168 0.0
O91 O 0.81279 0.70275 0.0653 0.0
O92 O 0.81103 0.64892 0.10345 0.0
O93 O 0.79157 0.59847 0.02742 0.0
C94 C 0.81424 0.68556 0.10433 0.0
H95 H 0.66855 0.64023 0.09644 0.0
H96 H 0.94207 0.65739 0.99117 0.0
H97 H 0.74311 0.64414 0.88296 0.0
H98 H 0.80202 0.74818 0.91416 0.0
Co99 Co 0.36305 0.80756 0.03956 0.0
C100 C 0.33286 0.72898 0.03257 0.0
C101 C 0.38014 0.73376 0.07813 0.0
C102 C 0.36987 0.69637 0.07539 0.0
N103 N 0.35721 0.75412 0.05106 0.0
N104 N 0.34038 0.69332 0.04648 0.0
H105 H 0.3112 0.7363 1.00815 0.0
H106 H 0.40334 0.74529 0.09771 0.0
C107 C 0.44324 0.81029 1.00163 0.0
O108 O 0.43405 0.83338 0.96846 0.0
N109 N 0.37068 0.86153 0.02918 0.0
C110 C 0.34991 0.88587 1.00417 0.0
C111 C 0.36881 0.91989 1.0014 0.0
C112 C 0.40123 0.88181 0.0427 0.0
N113 N 0.40118 0.91723 0.02538 0.0
C114 C 0.31283 0.80837 0.96372 0.0
C115 C 0.35574 0.76517 0.90519 0.0
C116 C 0.3188 0.77512 0.89202 0.0
C117 C 0.2975 0.79712 0.92228 0.0
C118 C 0.36983 0.7765 0.94766 0.0
N119 N 0.34876 0.79865 0.97614 0.0
H120 H 0.29464 0.82332 0.98693 0.0
H121 H 0.39677 0.76534 0.95831 0.0
H122 H 0.32337 0.87971 0.98785 0.0
H123 H 0.42425 0.8701 0.06246 0.0
O124 O 0.31321 0.81614 0.06475 0.0
O125 O 0.36634 0.81601 0.10442 0.0
O126 O 0.41827 0.79792 0.02908 0.0
C127 C 0.32959 0.81779 0.10423 0.0
H128 H 0.3834 0.67315 0.09301 0.0
H129 H 0.35987 0.94445 0.98223 0.0
H130 H 0.37346 0.74794 0.88356 0.0
H131 H 0.26831 0.8043 0.91534 0.0
Co132 Co 0.7124 0.86488 0.53977 0.0
C133 C 0.79004 0.83167 0.53781 0.0
C134 C 0.78367 0.8749 0.58851 0.0
C135 C 0.81997 0.8611 0.59085 0.0
N136 N 0.76487 0.85637 0.55545 0.0
N137 N 0.82386 0.83418 0.55885 0.0
H138 H 0.78397 0.81216 0.51046 0.0
H139 H 0.77179 0.89708 0.60939 0.0
C140 C 0.71419 0.9443 0.50027 0.0
O141 O 0.69096 0.93553 0.46705 0.0
N142 N 0.65947 0.87506 0.52542 0.0
C143 C 0.63593 0.85642 0.49705 0.0
C144 C 0.60287 0.87672 0.49272 0.0
C145 C 0.63958 0.90579 0.53916 0.0
N146 N 0.60527 0.90781 0.51901 0.0
C147 C 0.7125 0.81341 0.46462 0.0
C148 C 0.75966 0.85428 0.40831 0.0
C149 C 0.74819 0.81801 0.39461 0.0
C150 C 0.72397 0.79776 0.42334 0.0
C151 C 0.74751 0.86894 0.45006 0.0
N152 N 0.72347 0.84892 0.47742 0.0
H153 H 0.69565 0.7962 0.48706 0.0
H154 H 0.75961 0.89531 0.46127 0.0
H155 H 0.64202 0.83047 0.47944 0.0
H156 H 0.65099 0.92753 0.56117 0.0
O157 O 0.6998 0.81613 0.56659 0.0
O158 O 0.7013 0.87059 0.60347 0.0
O159 O 0.72547 0.91922 0.52831 0.0
C160 C 0.69777 0.83402 0.60517 0.0
H161 H 0.84214 0.87073 0.61346 0.0
H162 H 0.57917 0.86962 0.47102 0.0
H163 H 0.77937 0.8705 0.38803 0.0
H164 H 0.71434 0.76963 0.41444 0.0
Co165 Co 0.1552 0.71114 0.54026 0.0
C166 C 0.18435 0.79138 0.53408 0.0
C167 C 0.14661 0.78248 0.58993 0.0
C168 C 0.1588 0.81937 0.59117 0.0
N169 N 0.16292 0.76456 0.55447 0.0
N170 N 0.18234 0.82484 0.55599 0.0
H171 H 0.20102 0.78728 0.50395 0.0
H172 H 0.12685 0.76973 0.61332 0.0
C173 C 0.08676 0.75192 0.50537 0.0
O174 O 0.10866 0.77868 0.48911 0.0
N175 N 0.14632 0.65821 0.5275 0.0
C176 C 0.16859 0.6343 0.50403 0.0
C177 C 0.14982 0.60031 0.49908 0.0
C178 C 0.11466 0.63839 0.53715 0.0
N179 N 0.11597 0.60294 0.51998 0.0
C180 C 0.21262 0.72158 0.47313 0.0
C181 C 0.16609 0.72977 0.39847 0.0
C182 C 0.20482 0.73798 0.39382 0.0
C183 C 0.22828 0.73175 0.43149 0.0
C184 C 0.15162 0.71892 0.44088 0.0
N185 N 0.1744 0.71813 0.47841 0.0
H186 H 0.23136 0.71899 0.50185 0.0
H187 H 0.12201 0.71201 0.44334 0.0
H188 H 0.1961 0.64134 0.49046 0.0
H189 H 0.09054 0.65016 0.5548 0.0
O190 O 0.20243 0.69921 0.57078 0.0
O191 O 0.14661 0.70189 0.6042 0.0
O192 O 0.10107 0.72232 0.52341 0.0
C193 C 0.18304 0.69797 0.60817 0.0
H194 H 0.15042 0.84079 0.61545 0.0
H195 H 0.16009 0.57565 0.48109 0.0
H196 H 0.14681 0.73281 0.37015 0.0
H197 H 0.2586 0.73559 0.42933 0.0
Co198 Co 0.30674 0.1541 0.53382 0.0
C199 C 0.22724 0.18594 0.53226 0.0
C200 C 0.23328 0.13545 0.57193 0.0
C201 C 0.19634 0.14714 0.57443 0.0
N202 N 0.25277 0.15947 0.54518 0.0
N203 N 0.19256 0.17887 0.54948 0.0
H204 H 0.23343 0.2104 0.51189 0.0
H205 H 0.24522 0.11084 0.58839 0.0
C206 C 0.2703 0.0855 0.49351 0.0
O207 O 0.24495 0.10748 0.47426 0.0
N208 N 0.36034 0.147 0.52415 0.0
C209 C 0.38446 0.1696 0.50148 0.0
C210 C 0.41898 0.15149 0.49838 0.0
C211 C 0.38051 0.11585 0.53515 0.0
N212 N 0.4164 0.11775 0.51964 0.0
C213 C 0.29499 0.21151 0.46725 0.0
C214 C 0.29847 0.1669 0.39052 0.0
C215 C 0.28796 0.20509 0.38593 0.0
C216 C 0.28729 0.22751 0.42513 0.0
C217 C 0.30598 0.15191 0.43382 0.0
N218 N 0.30147 0.17364 0.47187 0.0
H219 H 0.29394 0.22971 0.49657 0.0
H220 H 0.31514 0.12287 0.43649 0.0
H221 H 0.3772 0.19677 0.487 0.0
H222 H 0.36865 0.09155 0.5524 0.0
O223 O 0.31587 0.20143 0.56484 0.0
O224 O 0.31362 0.14558 0.59844 0.0
O225 O 0.298 0.09986 0.51545 0.0
C226 C 0.3165 0.18216 0.60234 0.0
H227 H 0.17391 0.13306 0.59281 0.0
H228 H 0.44389 0.16206 0.48127 0.0
H229 H 0.30099 0.14879 0.36103 0.0
H230 H 0.27961 0.25714 0.42381 0.0
Co231 Co 0.86306 0.30678 0.53838 0.0
C232 C 0.82685 0.2307 0.53976 0.0
C233 C 0.87616 0.23424 0.58233 0.0
C234 C 0.86167 0.1983 0.58542 0.0
N235 N 0.85441 0.25447 0.55375 0.0
N236 N 0.83077 0.19609 0.55862 0.0
H237 H 0.80436 0.23853 0.51668 0.0
H238 H 0.90093 0.24494 0.59964 0.0
C239 C 0.94265 0.3041 0.49901 0.0
O240 O 0.93449 0.3278 0.46607 0.0
N241 N 0.87345 0.35964 0.52412 0.0
C242 C 0.85512 0.38323 0.49554 0.0
C243 C 0.87537 0.41637 0.49182 0.0
C244 C 0.90401 0.37951 0.53846 0.0
N245 N 0.90615 0.41394 0.51863 0.0
C246 C 0.81158 0.30658 0.46317 0.0
C247 C 0.85174 0.25791 0.40793 0.0
C248 C 0.81552 0.26937 0.39415 0.0
C249 C 0.79563 0.2944 0.42229 0.0
C250 C 0.86668 0.27076 0.44928 0.0
N251 N 0.84701 0.29551 0.47611 0.0
H252 H 0.79459 0.32395 0.48532 0.0
H253 H 0.89297 0.25863 0.46067 0.0
H254 H 0.82938 0.37714 0.47746 0.0
H255 H 0.92547 0.36807 0.56081 0.0
O256 O 0.8144 0.3196 0.56511 0.0
O257 O 0.86878 0.31767 0.60217 0.0
O258 O 0.91731 0.29336 0.52692 0.0
C259 C 0.83224 0.32141 0.60376 0.0
H260 H 0.87345 0.17531 0.60517 0.0
H261 H 0.86838 0.44019 0.47029 0.0
H262 H 0.86768 0.23763 0.38812 0.0
H263 H 0.76753 0.30403 0.41331 0.0
H264 H 0.54578 0.2377 0.0759 0.0
H265 H 0.34425 0.29212 0.97104 0.0
H266 H 0.51516 0.20851 0.93838 0.0
H267 H 0.38261 0.32003 0.10586 0.0
H268 H 0.40291 0.25572 0.95906 0.0
H269 H 0.48282 0.26227 0.08811 0.0
C270 C 0.52572 0.23647 0.04809 0.0
C271 C 0.53599 0.2215 1.00579 0.0
C272 C 0.39823 0.26958 0.99134 0.0
C273 C 0.4631 0.25001 0.01963 0.0
C274 C 0.36478 0.29012 0.99824 0.0
C275 C 0.35895 0.30945 0.0393 0.0
C276 C 0.42564 0.26831 0.02595 0.0
C277 C 0.38635 0.30619 0.07342 0.0
C278 C 0.48955 0.25048 0.05517 0.0
C279 C 0.50843 0.22004 0.97144 0.0
N280 N 0.41844 0.28626 0.0659 0.0
N281 N 0.47321 0.23456 0.97894 0.0
H282 H 0.69847 0.3775 0.11535 0.0
H283 H 0.80977 0.51198 0.94187 0.0
H284 H 0.72421 0.34237 0.97873 0.0
H285 H 0.76926 0.54469 0.07438 0.0
H286 H 0.78534 0.4476 0.95542 0.0
H287 H 0.73179 0.43657 0.10214 0.0
C288 C 0.71122 0.38231 0.08248 0.0
C289 C 0.70811 0.35529 0.04791 0.0
C290 C 0.78203 0.46899 0.98144 0.0
C291 C 0.74648 0.42322 0.03218 0.0
C292 C 0.79595 0.50564 0.97375 0.0
C293 C 0.79118 0.5339 1.00679 0.0
C294 C 0.76365 0.46072 0.02258 0.0
C295 C 0.7732 0.52412 0.04757 0.0
C296 C 0.73038 0.41604 0.07489 0.0
C297 C 0.726 0.36257 1.00625 0.0
N298 N 0.76013 0.48856 0.05416 0.0
N299 N 0.74416 0.39612 0.99931 0.0
H300 H 0.63662 0.69895 0.11477 0.0
H301 H 0.50377 0.81333 0.94206 0.0
H302 H 0.67187 0.72498 0.97834 0.0
H303 H 0.47264 0.77802 0.0772 0.0
H304 H 0.56762 0.78736 0.95505 0.0
H305 H 0.5787 0.73445 0.10241 0.0
C306 C 0.63207 0.71224 0.08212 0.0
C307 C 0.65876 0.7086 0.04735 0.0
C308 C 0.54673 0.78559 0.9818 0.0
C309 C 0.59215 0.74947 0.03258 0.0
C310 C 0.51039 0.80042 0.97444 0.0
C311 C 0.48269 0.79744 1.00836 0.0
C312 C 0.55522 0.76805 0.02346 0.0
C313 C 0.49279 0.78053 0.04973 0.0
C314 C 0.59901 0.73266 0.07502 0.0
C315 C 0.65187 0.72716 1.00598 0.0
N316 N 0.52801 0.76647 0.05595 0.0
N317 N 0.61894 0.74653 0.99949 0.0
H318 H 0.18492 0.51466 0.96658 0.0
H319 H 0.37357 0.62473 0.03965 0.0
H320 H 0.28794 0.462 1.01333 0.0
H321 H 0.26776 0.68271 0.01776 0.0
H322 H 0.34361 0.56545 0.01874 0.0
H323 H 0.21572 0.57703 0.9739 0.0
C324 C 0.21409 0.51622 0.97773 0.0
C325 C 0.23385 0.48326 0.98976 0.0
C326 C 0.32677 0.59105 0.01843 0.0
C327 C 0.26899 0.55387 0.99811 0.0
C328 C 0.34388 0.62496 0.03069 0.0
C329 C 0.32297 0.65865 0.03138 0.0
C330 C 0.28825 0.59049 1.00682 0.0
C331 C 0.28484 0.65732 0.01786 0.0
C332 C 0.23153 0.5517 0.98214 0.0
C333 C 0.27147 0.48671 1.00427 0.0
N334 N 0.26852 0.62366 1.0065 0.0
N335 N 0.28768 0.52127 1.00811 0.0
H336 H 0.04388 0.79918 0.45244 0.0
H337 H 0.87128 0.80008 0.61733 0.0
H338 H 0.03555 0.71767 0.56103 0.0
H339 H 0.85474 0.82516 0.47571 0.0
H340 H 0.93358 0.77335 0.59948 0.0
H341 H 0.97625 0.81306 0.46121 0.0
C342 C 0.02775 0.78393 0.47775 0.0
C343 C 0.04535 0.75741 0.50623 0.0
C344 C 0.9161 0.78419 0.57221 0.0
C345 C 0.96853 0.77361 0.51688 0.0
C346 C 0.88078 0.79946 0.58241 0.0
C347 C 0.85819 0.81463 0.54787 0.0
C348 C 0.92931 0.7852 0.52732 0.0
C349 C 0.87146 0.81339 0.50308 0.0
C350 C 0.98922 0.79174 0.48258 0.0
C351 C 0.02311 0.73834 0.53835 0.0
N352 N 0.90659 0.79954 0.49409 0.0
N353 N 0.98599 0.74731 0.54338 0.0
H354 H 0.22383 0.04226 0.4398 0.0
H355 H 0.21614 0.87386 0.613 0.0
H356 H 0.30132 0.03491 0.55282 0.0
H357 H 0.18961 0.85514 0.47205 0.0
H358 H 0.24349 0.9354 0.59321 0.0
H359 H 0.20719 0.97551 0.45132 0.0
C360 C 0.23768 0.0265 0.46662 0.0
C361 C 0.26383 0.04421 0.49556 0.0
C362 C 0.23205 0.91768 0.56652 0.0
C363 C 0.24441 0.96842 0.50935 0.0
C364 C 0.2163 0.8828 0.57785 0.0
C365 C 0.20064 0.85971 0.54407 0.0
C366 C 0.23123 0.92995 0.52122 0.0
C367 C 0.20165 0.87223 0.49891 0.0
C368 C 0.22825 0.98847 0.47307 0.0
C369 C 0.28101 0.02244 0.5297 0.0
N370 N 0.21618 0.90689 0.48879 0.0
N371 N 0.27052 0.98587 0.53615 0.0
H372 H 0.13405 0.18507 0.6079 0.0
H373 H 1.00494 0.31095 0.44253 0.0
H374 H 0.17286 0.22206 0.47647 0.0
H375 H 0.9687 0.26215 0.56961 0.0
H376 H 0.06803 0.28313 0.45481 0.0
H377 H 0.0747 0.21798 0.59525 0.0
C378 C 0.13002 0.20005 0.57623 0.0
C379 C 0.15834 0.2004 0.54302 0.0
C380 C 0.04614 0.27868 0.47989 0.0
C381 C 0.0901 0.23865 0.52816 0.0
C382 C 0.01019 0.29454 0.47292 0.0
C383 C 0.98133 0.2887 0.50489 0.0
C384 C 0.05311 0.25714 0.51918 0.0
C385 C 0.98977 0.26725 0.54373 0.0
C386 C 0.0961 0.21905 0.56903 0.0
C387 C 0.15181 0.22117 0.50305 0.0
N388 N 0.02469 0.25235 0.54965 0.0
N389 N 0.11822 0.23931 0.49656 0.0
H390 H 0.81598 0.14097 0.61914 0.0
H391 H 0.70741 1.00622 0.4431 0.0
H392 H 0.79377 0.17542 0.48128 0.0
H393 H 0.75107 0.9721 0.57382 0.0
H394 H 0.73141 0.07066 0.4574 0.0
H395 H 0.78361 0.08153 0.60465 0.0
C396 C 0.8042 0.13595 0.58574 0.0
C397 C 0.80806 0.16286 0.5512 0.0
C398 C 0.73554 0.04892 0.48282 0.0
C399 C 0.77082 0.09456 0.53406 0.0
C400 C 0.72189 0.01223 0.4747 0.0
C401 C 0.72748 0.98361 0.50711 0.0
C402 C 0.75444 0.05686 0.52378 0.0
C403 C 0.74633 0.99298 0.54755 0.0
C404 C 0.78562 0.102 0.57742 0.0
C405 C 0.79138 0.15531 0.50882 0.0
N406 N 0.75903 0.02862 0.55462 0.0
N407 N 0.77374 0.12159 0.50121 0.0
H408 H 0.24742 0.17229 0.31598 0.0
H409 H 0.22158 0.36809 0.18407 0.0
H410 H 0.30268 0.27661 0.35395 0.0
H411 H 0.20347 0.26083 0.1174 0.0
H412 H 0.24098 0.3345 0.25255 0.0
H413 H 0.22376 0.20341 0.247 0.0
C414 C 0.25496 0.20152 0.30972 0.0
C415 C 0.27677 0.22189 0.34136 0.0
C416 C 0.23246 0.31827 0.22307 0.0
C417 C 0.24884 0.25783 0.2632 0.0
C418 C 0.22098 0.33744 0.18405 0.0
C419 C 0.21096 0.31728 0.14481 0.0
C420 C 0.23373 0.27854 0.2232 0.0
C421 C 0.21098 0.27752 0.14688 0.0
C422 C 0.24114 0.21932 0.27054 0.0
C423 C 0.28519 0.25989 0.33142 0.0
N424 N 0.22236 0.2594 0.18539 0.0
N425 N 0.27098 0.27661 0.29359 0.0
H426 H 0.76411 0.20415 0.11599 0.0
H427 H 0.74204 0.24656 0.38186 0.0
H428 H 0.65867 0.19637 0.18887 0.0
H429 H 0.8481 0.2563 0.31057 0.0
H430 H 0.71236 0.22354 0.3124 0.0
H431 H 0.79674 0.21736 0.1877 0.0
C432 C 0.7479 0.20451 0.14715 0.0
C433 C 0.70853 0.19921 0.14633 0.0
C434 C 0.74215 0.23058 0.31186 0.0
C435 C 0.74566 0.21495 0.22853 0.0
C436 C 0.75912 0.24407 0.35153 0.0
C437 C 0.79761 0.25394 0.35208 0.0
C438 C 0.76367 0.22689 0.27206 0.0
C439 C 0.81839 0.24901 0.31186 0.0
C440 C 0.76654 0.21232 0.18808 0.0
C441 C 0.68902 0.20031 0.18778 0.0
N442 N 0.80113 0.23611 0.27345 0.0
N443 N 0.7077 0.20833 0.22702 0.0
H444 H 0.81827 0.65674 0.19026 0.0
H445 H 0.75912 0.85131 0.31098 0.0
H446 H 0.80638 0.76213 0.11778 0.0
H447 H 0.77093 0.74466 0.38087 0.0
H448 H 0.78115 0.82088 0.24102 0.0
H449 H 0.80649 0.69014 0.26136 0.0
C450 C 0.81375 0.68705 0.18934 0.0
C451 C 0.81325 0.70661 0.1479 0.0
C452 C 0.77902 0.80419 0.27173 0.0
C453 C 0.79904 0.74513 0.22946 0.0
C454 C 0.76656 0.82159 0.31175 0.0
C455 C 0.76269 0.80048 0.35191 0.0
C456 C 0.78788 0.76539 0.2718 0.0
C457 C 0.7726 0.76197 0.35064 0.0
C458 C 0.80682 0.70613 0.23002 0.0
C459 C 0.80712 0.7459 0.14892 0.0
N460 N 0.78455 0.74573 0.31136 0.0
N461 N 0.79991 0.7638 0.18896 0.0
H462 H 0.2551 0.79851 0.11365 0.0
H463 H 0.26224 0.78977 0.38455 0.0
H464 H 0.35433 0.82744 0.19168 0.0
H465 H 0.18387 0.72352 0.30473 0.0
H466 H 0.29026 0.81373 0.3148 0.0
H467 H 0.22229 0.78215 0.18414 0.0
C468 C 0.26975 0.8022 0.14566 0.0
C469 C 0.30757 0.81438 0.14677 0.0
C470 C 0.26691 0.79397 0.31258 0.0
C471 C 0.2702 0.79542 0.22747 0.0
C472 C 0.251 0.77992 0.35246 0.0
C473 C 0.22092 0.75384 0.35091 0.0
C474 C 0.25244 0.78249 0.27046 0.0
C475 C 0.20685 0.74356 0.30794 0.0
C476 C 0.25109 0.79249 0.18582 0.0
C477 C 0.32522 0.81818 0.18923 0.0
N478 N 0.22278 0.75783 0.26948 0.0
N479 N 0.30642 0.80866 0.22785 0.0
H480 H 0.72081 0.8631 0.68597 0.0
H481 H 0.70582 0.68353 0.84176 0.0
H482 H 0.68319 0.75885 0.62433 0.0
H483 H 0.80677 0.75268 0.83844 0.0
H484 H 0.68415 0.71475 0.77222 0.0
H485 H 0.73709 0.82824 0.75481 0.0
C486 C 0.71506 0.83301 0.68722 0.0
C487 C 0.70055 0.81387 0.64921 0.0
C488 C 0.71102 0.72283 0.78702 0.0
C489 C 0.71914 0.77394 0.72825 0.0
C490 C 0.72375 0.70486 0.82663 0.0
C491 C 0.75833 0.71542 0.84701 0.0
C492 C 0.73239 0.7523 0.76828 0.0
C493 C 0.77947 0.74406 0.82551 0.0
C494 C 0.72475 0.81315 0.72641 0.0
C495 C 0.69426 0.77469 0.65286 0.0
N496 N 0.76594 0.76175 0.7879 0.0
N497 N 0.70353 0.75591 0.69181 0.0
H498 H 0.15318 0.72498 0.68683 0.0
H499 H 0.33303 0.70848 0.84476 0.0
H500 H 0.25625 0.67937 0.63081 0.0
H501 H 0.26426 0.80961 0.83921 0.0
H502 H 0.3006 0.68525 0.77661 0.0
H503 H 0.18759 0.74165 0.75608 0.0
C504 C 0.18283 0.71755 0.68951 0.0
C505 C 0.2019 0.70076 0.65295 0.0
C506 C 0.29282 0.71248 0.79066 0.0
C507 C 0.2413 0.71982 0.73216 0.0
C508 C 0.31151 0.72607 0.82937 0.0
C509 C 0.30136 0.76115 0.84866 0.0
C510 C 0.26315 0.73357 0.77177 0.0
C511 C 0.27254 0.78197 0.82701 0.0
C512 C 0.20247 0.72746 0.72884 0.0
C513 C 0.24051 0.6923 0.65823 0.0
N514 N 0.25422 0.76767 0.79027 0.0
N515 N 0.25905 0.70192 0.69718 0.0
H516 H 0.30912 0.15024 0.68682 0.0
H517 H 0.25848 0.34781 0.80528 0.0
H518 H 0.31655 0.25821 0.61907 0.0
H519 H 0.26186 0.24151 0.87734 0.0
H520 H 0.28169 0.31561 0.73742 0.0
H521 H 0.29463 0.18317 0.75785 0.0
C522 C 0.30836 0.18088 0.68703 0.0
C523 C 0.31399 0.20147 0.64689 0.0
C524 C 0.27743 0.29932 0.76811 0.0
C525 C 0.29671 0.23936 0.72789 0.0
C526 C 0.26424 0.31775 0.80698 0.0
C527 C 0.25786 0.2974 0.84719 0.0
C528 C 0.28431 0.26015 0.76923 0.0
C529 C 0.26552 0.25833 0.84698 0.0
C530 C 0.29985 0.19968 0.72755 0.0
C531 C 0.31238 0.24115 0.64915 0.0
N532 N 0.2782 0.24102 0.80867 0.0
N533 N 0.30357 0.25874 0.6888 0.0
H534 H 0.75451 0.20819 0.83795 0.0
H535 H 0.75724 0.3367 0.62257 0.0
H536 H 0.6858 0.30944 0.84104 0.0
H537 H 0.86071 0.29736 0.68444 0.0
H538 H 0.72315 0.32045 0.693 0.0
H539 H 0.78621 0.23227 0.77071 0.0
C540 C 0.74605 0.23556 0.825 0.0
C541 C 0.71766 0.25698 0.84649 0.0
C542 C 0.75342 0.31602 0.69109 0.0
C543 C 0.75321 0.28386 0.76754 0.0
C544 C 0.77287 0.32535 0.65113 0.0
C545 C 0.81194 0.31859 0.64767 0.0
C546 C 0.77303 0.29871 0.72699 0.0
C547 C 0.83071 0.30339 0.68557 0.0
C548 C 0.76412 0.24911 0.78625 0.0
C549 C 0.70719 0.29155 0.826 0.0
N550 N 0.81101 0.29333 0.72322 0.0
N551 N 0.72485 0.30385 0.78758 0.0
H552 H 0.89973 0.53869 0.03987 0.0
H553 H 0.12011 0.4846 0.03169 0.0
H554 H 0.98904 0.62136 0.02861 0.0
H555 H 0.03022 0.40218 0.03686 0.0
H556 H 0.07295 0.53515 0.03566 0.0
H557 H 0.9473 0.48869 0.04391 0.0
C558 C 0.92931 0.54648 0.03875 0.0
C559 C 0.94022 0.58452 0.03384 0.0
C560 C 0.06354 0.506 0.03612 0.0
C561 C 0.99515 0.52697 0.03787 0.0
C562 C 0.09053 0.47704 0.03418 0.0
C563 C 0.07925 0.43889 0.03383 0.0
C564 C 0.02485 0.49691 0.03785 0.0
C565 C 0.04032 0.43105 0.03641 0.0
C566 C 0.95654 0.51779 0.04074 0.0
C567 C 0.97916 0.59253 0.03182 0.0
N568 N 0.01463 0.45971 0.03822 0.0
N569 N 1.00511 0.56408 0.03376 0.0
H570 H 0.57335 0.08318 0.09601 0.0
H571 H 0.42483 0.96091 0.95576 0.0
H572 H 0.58674 0.05911 0.95359 0.0
H573 H 0.44757 0.93507 0.09606 0.0
H574 H 0.47739 1.00598 0.95621 0.0
H575 H 0.52071 0.03734 0.09883 0.0
C576 C 0.56518 0.06826 0.06543 0.0
C577 C 0.58456 0.07472 0.02458 0.0
C578 C 0.47087 0.99053 0.98696 0.0
C579 C 0.52427 0.02306 0.02732 0.0
C580 C 0.44071 0.96503 0.98681 0.0
C581 C 0.43175 0.94434 0.026 0.0
C582 C 0.49192 0.99611 0.02683 0.0
C583 C 0.45369 0.95039 0.06515 0.0
C584 C 0.53537 0.04207 0.06709 0.0
C585 C 0.57292 0.05463 0.98587 0.0
N586 N 0.48261 0.976 0.06475 0.0
N587 N 0.54338 0.03005 0.98809 0.0
H588 H 0.43112 0.06993 0.58961 0.0
H589 H 0.56854 0.93817 0.4474 0.0
H590 H 0.46629 0.09847 0.45394 0.0
H591 H 0.58215 0.94862 0.59214 0.0
H592 H 0.52331 0.99072 0.44862 0.0
H593 H 0.47896 0.01921 0.59118 0.0
C594 C 0.44891 0.06548 0.56022 0.0
C595 C 0.44485 0.08846 0.52163 0.0
C596 C 0.5362 0.98157 0.48014 0.0
C597 C 0.49898 0.03037 0.5229 0.0
C598 C 0.56178 0.95147 0.47949 0.0
C599 C 0.57894 0.93901 0.51977 0.0
C600 C 0.52692 0.9989 0.52152 0.0
C601 C 0.56957 0.95753 0.5604 0.0
C602 C 0.47626 0.03676 0.56122 0.0
C603 C 0.46873 0.08166 0.48449 0.0
N604 N 0.54382 0.98632 0.56037 0.0
N605 N 0.49443 0.053 0.48584 0.0
H606 H 0.09646 0.55537 0.45192 0.0
H607 H 0.94657 0.43534 0.59287 0.0
H608 H 0.06788 0.58642 0.58906 0.0
H609 H 0.93639 0.45296 0.44872 0.0
H610 H 0.99868 0.48184 0.5948 0.0
H611 H 0.04546 0.50835 0.4526 0.0
C612 C 0.0796 0.55205 0.48229 0.0
C613 C 0.08635 0.57482 0.52048 0.0
C614 C 0.98491 0.47547 0.56284 0.0
C615 C 0.02821 0.52081 0.52168 0.0
C616 C 0.95543 0.44891 0.56172 0.0
C617 C 0.93705 0.44058 0.52065 0.0
C618 C 0.99669 0.49294 0.52239 0.0
C619 C 0.9495 0.45895 0.48114 0.0
C620 C 0.0504 0.5254 0.48258 0.0
C621 C 0.06337 0.56959 0.55884 0.0
N622 N 0.97869 0.48397 0.48292 0.0
N623 N 0.03548 0.54291 0.55865 0.0
loop_
_geom_bond_atom_site_label_1
_geom_bond_atom_site_label_2
_geom_bond_distance
_geom_bond_site_symmetry_2
_ccdc_geom_bond_type
Co0 N4 2.148 . S
Co0 N10 2.128 . S
Co0 N20 2.194 1_554 S
Co0 O25 2.351 . S
Co0 O26 2.155 . S
Co0 O27 2.096 . S
C1 N4 1.301 . S
C1 N5 1.328 . S
C1 H6 0.930 . S
C2 C3 1.333 . S
C2 N4 1.317 . S
C2 H7 0.930 . S
C3 C2 1.333 . S
C3 N5 1.350 . S
C3 H29 0.931 . S
N4 Co0 2.148 . S
N4 C1 1.301 . S
N4 C2 1.317 . S
N5 C1 1.328 . S
N5 C3 1.350 . S
H6 C1 0.930 . S
H7 C2 0.930 . S
C8 O9 1.224 1_554 S
C8 O27 1.247 . S
O9 C8 1.224 1_556 S
N10 Co0 2.128 . S
N10 C11 1.355 . S
N10 C13 1.311 . S
C11 N10 1.355 . S
C11 C12 1.363 1_554 S
C11 H23 0.929 1_554 S
C12 C11 1.363 1_556 S
C12 N14 1.375 1_556 S
C12 H30 0.931 . S
C13 N10 1.311 . S
C13 N14 1.347 . S
C13 H24 0.929 . S
N14 C12 1.375 1_554 S
N14 C13 1.347 . S
C15 C18 1.365 . S
C15 N20 1.328 . S
C15 H21 0.929 . S
C16 C17 1.362 . S
C16 C19 1.378 . S
C16 H31 0.929 . S
C17 C16 1.362 . S
C17 C18 1.366 . S
C18 C15 1.365 . S
C18 C17 1.366 . S
C18 H32 0.930 . S
C19 C16 1.378 . S
C19 N20 1.315 . S
C19 H22 0.930 . S
N20 Co0 2.194 1_556 S
N20 C15 1.328 . S
N20 C19 1.315 . S
H21 C15 0.929 . S
H22 C19 0.930 . S
H23 C11 0.929 1_556 S
H24 C13 0.929 . S
O25 Co0 2.351 . S
O25 C28 1.244 . S
O26 Co0 2.155 . S
O26 C28 1.240 . S
O27 Co0 2.096 . S
O27 C8 1.247 . S
C28 O25 1.244 . S
C28 O26 1.240 . S
H29 C3 0.931 . S
H30 C12 0.931 . S
H31 C16 0.929 . S
H32 C18 0.930 . S
Co33 N37 2.148 . S
Co33 N43 2.128 . S
Co33 N53 2.194 1_554 S
Co33 O58 2.351 . S
Co33 O59 2.155 . S
Co33 O60 2.096 . S
C34 N37 1.301 . S
C34 N38 1.328 . S
C34 H39 0.930 . S
C35 C36 1.333 . S
C35 N37 1.317 . S
C35 H40 0.930 . S
C36 C35 1.333 . S
C36 N38 1.350 . S
C36 H62 0.931 . S
N37 Co33 2.148 . S
N37 C34 1.301 . S
N37 C35 1.317 . S
N38 C34 1.328 . S
N38 C36 1.350 . S
H39 C34 0.930 . S
H40 C35 0.930 . S
C41 O42 1.224 1_554 S
C41 O60 1.247 . S
O42 C41 1.224 1_556 S
N43 Co33 2.128 . S
N43 C44 1.355 . S
N43 C46 1.311 . S
C44 N43 1.355 . S
C44 C45 1.363 1_554 S
C44 H56 0.929 1_554 S
C45 C44 1.363 1_556 S
C45 N47 1.375 1_556 S
C45 H63 0.931 . S
C46 N43 1.311 . S
C46 N47 1.347 . S
C46 H57 0.929 . S
N47 C45 1.375 1_554 S
N47 C46 1.347 . S
C48 C51 1.365 . S
C48 N53 1.328 . S
C48 H54 0.929 . S
C49 C50 1.362 . S
C49 C52 1.378 . S
C49 H64 0.929 . S
C50 C49 1.362 . S
C50 C51 1.366 . S
C51 C48 1.365 . S
C51 C50 1.366 . S
C51 H65 0.930 . S
C52 C49 1.378 . S
C52 N53 1.315 . S
C52 H55 0.930 . S
N53 Co33 2.194 1_556 S
N53 C48 1.328 . S
N53 C52 1.315 . S
H54 C48 0.929 . S
H55 C52 0.930 . S
H56 C44 0.929 1_556 S
H57 C46 0.929 . S
O58 Co33 2.351 . S
O58 C61 1.244 . S
O59 Co33 2.155 . S
O59 C61 1.240 . S
O60 Co33 2.096 . S
O60 C41 1.247 . S
C61 O58 1.244 . S
C61 O59 1.240 . S
H62 C36 0.931 . S
H63 C45 0.931 . S
H64 C49 0.929 . S
H65 C51 0.930 . S
Co66 N70 2.148 . S
Co66 N76 2.128 . S
Co66 N86 2.194 1_554 S
Co66 O91 2.351 . S
Co66 O92 2.155 . S
Co66 O93 2.096 . S
C67 N70 1.301 . S
C67 N71 1.328 . S
C67 H72 0.930 . S
C68 C69 1.333 . S
C68 N70 1.317 . S
C68 H73 0.930 . S
C69 C68 1.333 . S
C69 N71 1.350 . S
C69 H95 0.931 . S
N70 Co66 2.148 . S
N70 C67 1.301 . S
N70 C68 1.317 . S
N71 C67 1.328 . S
N71 C69 1.350 . S
H72 C67 0.930 . S
H73 C68 0.930 . S
C74 O75 1.224 1_554 S
C74 O93 1.247 . S
O75 C74 1.224 1_556 S
N76 Co66 2.128 . S
N76 C77 1.355 . S
N76 C79 1.311 . S
C77 N76 1.355 . S
C77 C78 1.363 1_554 S
C77 H89 0.929 1_554 S
C78 C77 1.363 1_556 S
C78 N80 1.375 1_556 S
C78 H96 0.931 . S
C79 N76 1.311 . S
C79 N80 1.347 . S
C79 H90 0.929 . S
N80 C78 1.375 1_554 S
N80 C79 1.347 . S
C81 C84 1.365 . S
C81 N86 1.328 . S
C81 H87 0.929 . S
C82 C83 1.362 . S
C82 C85 1.378 . S
C82 H97 0.929 . S
C83 C82 1.362 . S
C83 C84 1.366 . S
C84 C81 1.365 . S
C84 C83 1.366 . S
C84 H98 0.930 . S
C85 C82 1.378 . S
C85 N86 1.315 . S
C85 H88 0.930 . S
N86 Co66 2.194 1_556 S
N86 C81 1.328 . S
N86 C85 1.315 . S
H87 C81 0.929 . S
H88 C85 0.930 . S
H89 C77 0.929 1_556 S
H90 C79 0.929 . S
O91 Co66 2.351 . S
O91 C94 1.244 . S
O92 Co66 2.155 . S
O92 C94 1.240 . S
O93 Co66 2.096 . S
O93 C74 1.247 . S
C94 O91 1.244 . S
C94 O92 1.240 . S
H95 C69 0.931 . S
H96 C78 0.931 . S
H97 C82 0.929 . S
H98 C84 0.930 . S
Co99 N103 2.148 . S
Co99 N109 2.128 . S
Co99 N119 2.194 1_554 S
Co99 O124 2.351 . S
Co99 O125 2.155 . S
Co99 O126 2.096 . S
C100 N103 1.301 . S
C100 N104 1.328 . S
C100 H105 0.930 . S
C101 C102 1.333 . S
C101 N103 1.317 . S
C101 H106 0.930 . S
C102 C101 1.333 . S
C102 N104 1.350 . S
C102 H128 0.931 . S
N103 Co99 2.148 . S
N103 C100 1.301 . S
N103 C101 1.317 . S
N104 C100 1.328 . S
N104 C102 1.350 . S
H105 C100 0.930 . S
H106 C101 0.930 . S
C107 O108 1.224 1_554 S
C107 O126 1.247 . S
O108 C107 1.224 1_556 S
N109 Co99 2.128 . S
N109 C110 1.355 . S
N109 C112 1.311 . S
C110 N109 1.355 . S
C110 C111 1.363 1_554 S
C110 H122 0.929 1_554 S
C111 C110 1.363 1_556 S
C111 N113 1.375 1_556 S
C111 H129 0.931 . S
C112 N109 1.311 . S
C112 N113 1.347 . S
C112 H123 0.929 . S
N113 C111 1.375 1_554 S
N113 C112 1.347 . S
C114 C117 1.365 . S
C114 N119 1.328 . S
C114 H120 0.929 . S
C115 C116 1.362 . S
C115 C118 1.378 . S
C115 H130 0.929 . S
C116 C115 1.362 . S
C116 C117 1.366 . S
C117 C114 1.365 . S
C117 C116 1.366 . S
C117 H131 0.930 . S
C118 C115 1.378 . S
C118 N119 1.315 . S
C118 H121 0.930 . S
N119 Co99 2.194 1_556 S
N119 C114 1.328 . S
N119 C118 1.315 . S
H120 C114 0.929 . S
H121 C118 0.930 . S
H122 C110 0.929 1_556 S
H123 C112 0.929 . S
O124 Co99 2.351 . S
O124 C127 1.244 . S
O125 Co99 2.155 . S
O125 C127 1.240 . S
O126 Co99 2.096 . S
O126 C107 1.247 . S
C127 O124 1.244 . S
C127 O125 1.240 . S
H128 C102 0.931 . S
H129 C111 0.931 . S
H130 C115 0.929 . S
H131 C117 0.930 . S
Co132 N136 2.148 . S
Co132 N142 2.128 . S
Co132 N152 2.194 . S
Co132 O157 2.351 . S
Co132 O158 2.155 . S
Co132 O159 2.096 . S
C133 N136 1.301 . S
C133 N137 1.328 . S
C133 H138 0.930 . S
C134 C135 1.333 . S
C134 N136 1.317 . S
C134 H139 0.930 . S
C135 C134 1.333 . S
C135 N137 1.350 . S
C135 H161 0.931 . S
N136 Co132 2.148 . S
N136 C133 1.301 . S
N136 C134 1.317 . S
N137 C133 1.328 . S
N137 C135 1.350 . S
H138 C133 0.930 . S
H139 C134 0.930 . S
C140 O141 1.224 . S
C140 O159 1.247 . S
O141 C140 1.224 . S
N142 Co132 2.128 . S
N142 C143 1.355 . S
N142 C145 1.311 . S
C143 N142 1.355 . S
C143 C144 1.363 . S
C143 H155 0.929 . S
C144 C143 1.363 . S
C144 N146 1.375 . S
C144 H162 0.931 . S
C145 N142 1.311 . S
C145 N146 1.347 . S
C145 H156 0.929 . S
N146 C144 1.375 . S
N146 C145 1.347 . S
C147 C150 1.365 . S
C147 N152 1.328 . S
C147 H153 0.929 . S
C148 C149 1.362 . S
C148 C151 1.378 . S
C148 H163 0.929 . S
C149 C148 1.362 . S
C149 C150 1.366 . S
C150 C147 1.365 . S
C150 C149 1.366 . S
C150 H164 0.930 . S
C151 C148 1.378 . S
C151 N152 1.315 . S
C151 H154 0.930 . S
N152 Co132 2.194 . S
N152 C147 1.328 . S
N152 C151 1.315 . S
H153 C147 0.929 . S
H154 C151 0.930 . S
H155 C143 0.929 . S
H156 C145 0.929 . S
O157 Co132 2.351 . S
O157 C160 1.244 . S
O158 Co132 2.155 . S
O158 C160 1.240 . S
O159 Co132 2.096 . S
O159 C140 1.247 . S
C160 O157 1.244 . S
C160 O158 1.240 . S
H161 C135 0.931 . S
H162 C144 0.931 . S
H163 C148 0.929 . S
H164 C150 0.930 . S
Co165 N169 2.148 . S
Co165 N175 2.128 . S
Co165 N185 2.194 . S
Co165 O190 2.351 . S
Co165 O191 2.155 . S
Co165 O192 2.096 . S
C166 N169 1.301 . S
C166 N170 1.328 . S
C166 H171 0.930 . S
C167 C168 1.333 . S
C167 N169 1.317 . S
C167 H172 0.930 . S
C168 C167 1.333 . S
C168 N170 1.350 . S
C168 H194 0.931 . S
N169 Co165 2.148 . S
N169 C166 1.301 . S
N169 C167 1.317 . S
N170 C166 1.328 . S
N170 C168 1.350 . S
H171 C166 0.930 . S
H172 C167 0.930 . S
C173 O174 1.224 . S
C173 O192 1.247 . S
O174 C173 1.224 . S
N175 Co165 2.128 . S
N175 C176 1.355 . S
N175 C178 1.311 . S
C176 N175 1.355 . S
C176 C177 1.363 . S
C176 H188 0.929 . S
C177 C176 1.363 . S
C177 N179 1.375 . S
C177 H195 0.931 . S
C178 N175 1.311 . S
C178 N179 1.347 . S
C178 H189 0.929 . S
N179 C177 1.375 . S
N179 C178 1.347 . S
C180 C183 1.365 . S
C180 N185 1.328 . S
C180 H186 0.929 . S
C181 C182 1.362 . S
C181 C184 1.378 . S
C181 H196 0.929 . S
C182 C181 1.362 . S
C182 C183 1.366 . S
C183 C180 1.365 . S
C183 C182 1.366 . S
C183 H197 0.930 . S
C184 C181 1.378 . S
C184 N185 1.315 . S
C184 H187 0.930 . S
N185 Co165 2.194 . S
N185 C180 1.328 . S
N185 C184 1.315 . S
H186 C180 0.929 . S
H187 C184 0.930 . S
H188 C176 0.929 . S
H189 C178 0.929 . S
O190 Co165 2.351 . S
O190 C193 1.244 . S
O191 Co165 2.155 . S
O191 C193 1.240 . S
O192 Co165 2.096 . S
O192 C173 1.247 . S
C193 O190 1.244 . S
C193 O191 1.240 . S
H194 C168 0.931 . S
H195 C177 0.931 . S
H196 C181 0.929 . S
H197 C183 0.930 . S
Co198 N202 2.148 . S
Co198 N208 2.128 . S
Co198 N218 2.194 . S
Co198 O223 2.351 . S
Co198 O224 2.155 . S
Co198 O225 2.096 . S
C199 N202 1.301 . S
C199 N203 1.328 . S
C199 H204 0.930 . S
C200 C201 1.333 . S
C200 N202 1.317 . S
C200 H205 0.930 . S
C201 C200 1.333 . S
C201 N203 1.350 . S
C201 H227 0.931 . S
N202 Co198 2.148 . S
N202 C199 1.301 . S
N202 C200 1.317 . S
N203 C199 1.328 . S
N203 C201 1.350 . S
H204 C199 0.930 . S
H205 C200 0.930 . S
C206 O207 1.224 . S
C206 O225 1.247 . S
O207 C206 1.224 . S
N208 Co198 2.128 . S
N208 C209 1.355 . S
N208 C211 1.311 . S
C209 N208 1.355 . S
C209 C210 1.363 . S
C209 H221 0.929 . S
C210 C209 1.363 . S
C210 N212 1.375 . S
C210 H228 0.931 . S
C211 N208 1.311 . S
C211 N212 1.347 . S
C211 H222 0.929 . S
N212 C210 1.375 . S
N212 C211 1.347 . S
C213 C216 1.365 . S
C213 N218 1.328 . S
C213 H219 0.929 . S
C214 C215 1.362 . S
C214 C217 1.378 . S
C214 H229 0.929 . S
C215 C214 1.362 . S
C215 C216 1.366 . S
C216 C213 1.365 . S
C216 C215 1.366 . S
C216 H230 0.930 . S
C217 C214 1.378 . S
C217 N218 1.315 . S
C217 H220 0.930 . S
N218 Co198 2.194 . S
N218 C213 1.328 . S
N218 C217 1.315 . S
H219 C213 0.929 . S
H220 C217 0.930 . S
H221 C209 0.929 . S
H222 C211 0.929 . S
O223 Co198 2.351 . S
O223 C226 1.244 . S
O224 Co198 2.155 . S
O224 C226 1.240 . S
O225 Co198 2.096 . S
O225 C206 1.247 . S
C226 O223 1.244 . S
C226 O224 1.240 . S
H227 C201 0.931 . S
H228 C210 0.931 . S
H229 C214 0.929 . S
H230 C216 0.930 . S
Co231 N235 2.148 . S
Co231 N241 2.128 . S
Co231 N251 2.194 . S
Co231 O256 2.351 . S
Co231 O257 2.155 . S
Co231 O258 2.096 . S
C232 N235 1.301 . S
C232 N236 1.328 . S
C232 H237 0.930 . S
C233 C234 1.333 . S
C233 N235 1.317 . S
C233 H238 0.930 . S
C234 C233 1.333 . S
C234 N236 1.350 . S
C234 H260 0.931 . S
N235 Co231 2.148 . S
N235 C232 1.301 . S
N235 C233 1.317 . S
N236 C232 1.328 . S
N236 C234 1.350 . S
H237 C232 0.930 . S
H238 C233 0.930 . S
C239 O240 1.224 . S
C239 O258 1.247 . S
O240 C239 1.224 . S
N241 Co231 2.128 . S
N241 C242 1.355 . S
N241 C244 1.311 . S
C242 N241 1.355 . S
C242 C243 1.363 . S
C242 H254 0.929 . S
C243 C242 1.363 . S
C243 N245 1.375 . S
C243 H261 0.931 . S
C244 N241 1.311 . S
C244 N245 1.347 . S
C244 H255 0.929 . S
N245 C243 1.375 . S
N245 C244 1.347 . S
C246 C249 1.365 . S
C246 N251 1.328 . S
C246 H252 0.929 . S
C247 C248 1.362 . S
C247 C250 1.378 . S
C247 H262 0.929 . S
C248 C247 1.362 . S
C248 C249 1.366 . S
C249 C246 1.365 . S
C249 C248 1.366 . S
C249 H263 0.930 . S
C250 C247 1.378 . S
C250 N251 1.315 . S
C250 H253 0.930 . S
N251 Co231 2.194 . S
N251 C246 1.328 . S
N251 C250 1.315 . S
H252 C246 0.929 . S
H253 C250 0.930 . S
H254 C242 0.929 . S
H255 C244 0.929 . S
O256 Co231 2.351 . S
O256 C259 1.244 . S
O257 Co231 2.155 . S
O257 C259 1.240 . S
O258 Co231 2.096 . S
O258 C239 1.247 . S
C259 O256 1.244 . S
C259 O257 1.240 . S
H260 C234 0.931 . S
H261 C243 0.931 . S
H262 C247 0.929 . S
H263 C249 0.930 . S
H264 C270 0.930 . S
H265 C274 0.930 . S
H266 C279 0.929 . S
H267 C277 0.929 . S
H268 C272 0.929 . S
H269 C278 0.929 . S
C270 H264 0.930 . S
C270 C271 1.367 . S
C270 C278 1.378 . S
C271 C270 1.367 . S
C271 C279 1.433 1_554 S
C272 H268 0.929 . S
C272 C274 1.378 . S
C272 C276 1.350 1_556 S
C273 C276 1.463 . S
C273 C278 1.350 . S
C273 N281 1.427 1_554 S
C274 H265 0.930 . S
C274 C272 1.378 . S
C274 C275 1.367 1_556 S
C275 C274 1.367 1_554 S
C275 C277 1.433 . S
C276 C272 1.350 1_554 S
C276 C273 1.463 . S
C276 N280 1.427 . S
C277 H267 0.929 . S
C277 C275 1.433 . S
C277 N280 1.384 . S
C278 H269 0.929 . S
C278 C270 1.378 . S
C278 C273 1.350 . S
C279 H266 0.929 . S
C279 C271 1.433 1_556 S
C279 N281 1.384 . S
N280 C276 1.427 . S
N280 C277 1.384 . S
N281 C273 1.427 1_556 S
N281 C279 1.384 . S
H282 C288 0.930 . S
H283 C292 0.930 . S
H284 C297 0.929 . S
H285 C295 0.929 . S
H286 C290 0.929 . S
H287 C296 0.929 . S
C288 H282 0.930 . S
C288 C289 1.367 . S
C288 C296 1.378 . S
C289 C288 1.367 . S
C289 C297 1.433 1_554 S
C290 H286 0.929 . S
C290 C292 1.378 . S
C290 C294 1.350 1_556 S
C291 C294 1.463 . S
C291 C296 1.350 . S
C291 N299 1.427 1_554 S
C292 H283 0.930 . S
C292 C290 1.378 . S
C292 C293 1.367 1_556 S
C293 C292 1.367 1_554 S
C293 C295 1.433 . S
C294 C290 1.350 1_554 S
C294 C291 1.463 . S
C294 N298 1.427 . S
C295 H285 0.929 . S
C295 C293 1.433 . S
C295 N298 1.384 . S
C296 H287 0.929 . S
C296 C288 1.378 . S
C296 C291 1.350 . S
C297 H284 0.929 . S
C297 C289 1.433 1_556 S
C297 N299 1.384 . S
N298 C294 1.427 . S
N298 C295 1.384 . S
N299 C291 1.427 1_556 S
N299 C297 1.384 . S
H300 C306 0.930 . S
H301 C310 0.930 . S
H302 C315 0.929 . S
H303 C313 0.929 . S
H304 C308 0.929 . S
H305 C314 0.929 . S
C306 H300 0.930 . S
C306 C307 1.367 . S
C306 C314 1.378 . S
C307 C306 1.367 . S
C307 C315 1.433 1_554 S
C308 H304 0.929 . S
C308 C310 1.378 . S
C308 C312 1.350 1_556 S
C309 C312 1.463 . S
C309 C314 1.350 . S
C309 N317 1.427 1_554 S
C310 H301 0.930 . S
C310 C308 1.378 . S
C310 C311 1.367 1_556 S
C311 C310 1.367 1_554 S
C311 C313 1.433 . S
C312 C308 1.350 1_554 S
C312 C309 1.463 . S
C312 N316 1.427 . S
C313 H303 0.929 . S
C313 C311 1.433 . S
C313 N316 1.384 . S
C314 H305 0.929 . S
C314 C306 1.378 . S
C314 C309 1.350 . S
C315 H302 0.929 . S
C315 C307 1.433 1_556 S
C315 N317 1.384 . S
N316 C312 1.427 . S
N316 C313 1.384 . S
N317 C309 1.427 1_556 S
N317 C315 1.384 . S
H318 C324 0.930 . S
H319 C328 0.930 . S
H320 C333 0.929 . S
H321 C331 0.929 . S
H322 C326 0.929 . S
H323 C332 0.929 . S
C324 H318 0.930 . S
C324 C325 1.367 . S
C324 C332 1.378 . S
C325 C324 1.367 . S
C325 C333 1.433 . S
C326 H322 0.929 . S
C326 C328 1.378 . S
C326 C330 1.350 . S
C327 C330 1.463 . S
C327 C332 1.350 . S
C327 N335 1.427 . S
C328 H319 0.930 . S
C328 C326 1.378 . S
C328 C329 1.367 . S
C329 C328 1.367 . S
C329 C331 1.433 . S
C330 C326 1.350 . S
C330 C327 1.463 . S
C330 N334 1.427 . S
C331 H321 0.929 . S
C331 C329 1.433 . S
C331 N334 1.384 . S
C332 H323 0.929 . S
C332 C324 1.378 . S
C332 C327 1.350 . S
C333 H320 0.929 . S
C333 C325 1.433 . S
C333 N335 1.384 . S
N334 C330 1.427 . S
N334 C331 1.384 . S
N335 C327 1.427 . S
N335 C333 1.384 . S
H336 C342 0.930 . S
H337 C346 0.930 . S
H338 C351 0.929 . S
H339 C349 0.929 . S
H340 C344 0.929 . S
H341 C350 0.929 . S
C342 H336 0.930 . S
C342 C343 1.367 . S
C342 C350 1.378 1_455 S
C343 C342 1.367 . S
C343 C351 1.433 . S
C344 H340 0.929 . S
C344 C346 1.378 . S
C344 C348 1.350 . S
C345 C348 1.463 . S
C345 C350 1.350 . S
C345 N353 1.427 . S
C346 H337 0.930 . S
C346 C344 1.378 . S
C346 C347 1.367 . S
C347 C346 1.367 . S
C347 C349 1.433 . S
C348 C344 1.350 . S
C348 C345 1.463 . S
C348 N352 1.427 . S
C349 H339 0.929 . S
C349 C347 1.433 . S
C349 N352 1.384 . S
C350 H341 0.929 . S
C350 C342 1.378 1_655 S
C350 C345 1.350 . S
C351 H338 0.929 . S
C351 C343 1.433 . S
C351 N353 1.384 1_455 S
N352 C348 1.427 . S
N352 C349 1.384 . S
N353 C345 1.427 . S
N353 C351 1.384 1_655 S
H354 C360 0.930 . S
H355 C364 0.930 . S
H356 C369 0.929 . S
H357 C367 0.929 . S
H358 C362 0.929 . S
H359 C368 0.929 . S
C360 H354 0.930 . S
C360 C361 1.367 . S
C360 C368 1.378 1_545 S
C361 C360 1.367 . S
C361 C369 1.433 . S
C362 H358 0.929 . S
C362 C364 1.378 . S
C362 C366 1.350 . S
C363 C366 1.463 . S
C363 C368 1.350 . S
C363 N371 1.427 . S
C364 H355 0.930 . S
C364 C362 1.378 . S
C364 C365 1.367 . S
C365 C364 1.367 . S
C365 C367 1.433 . S
C366 C362 1.350 . S
C366 C363 1.463 . S
C366 N370 1.427 . S
C367 H357 0.929 . S
C367 C365 1.433 . S
C367 N370 1.384 . S
C368 H359 0.929 . S
C368 C360 1.378 1_565 S
C368 C363 1.350 . S
C369 H356 0.929 . S
C369 C361 1.433 . S
C369 N371 1.384 1_545 S
N370 C366 1.427 . S
N370 C367 1.384 . S
N371 C363 1.427 . S
N371 C369 1.384 1_565 S
H372 C378 0.930 . S
H373 C382 0.930 . S
H374 C387 0.929 . S
H375 C385 0.929 . S
H376 C380 0.929 . S
H377 C386 0.929 . S
C378 H372 0.930 . S
C378 C379 1.367 . S
C378 C386 1.378 . S
C379 C378 1.367 . S
C379 C387 1.433 . S
C380 H376 0.929 . S
C380 C382 1.378 1_455 S
C380 C384 1.350 . S
C381 C384 1.463 . S
C381 C386 1.350 . S
C381 N389 1.427 . S
C382 H373 0.930 . S
C382 C380 1.378 1_655 S
C382 C383 1.367 . S
C383 C382 1.367 . S
C383 C385 1.433 . S
C384 C380 1.350 . S
C384 C381 1.463 . S
C384 N388 1.427 . S
C385 H375 0.929 . S
C385 C383 1.433 . S
C385 N388 1.384 1_655 S
C386 H377 0.929 . S
C386 C378 1.378 . S
C386 C381 1.350 . S
C387 H374 0.929 . S
C387 C379 1.433 . S
C387 N389 1.384 . S
N388 C384 1.427 . S
N388 C385 1.384 1_455 S
N389 C381 1.427 . S
N389 C387 1.384 . S
H390 C396 0.930 . S
H391 C400 0.930 . S
H392 C405 0.929 . S
H393 C403 0.929 . S
H394 C398 0.929 . S
H395 C404 0.929 . S
C396 H390 0.930 . S
C396 C397 1.367 . S
C396 C404 1.378 . S
C397 C396 1.367 . S
C397 C405 1.433 . S
C398 H394 0.929 . S
C398 C400 1.378 1_545 S
C398 C402 1.350 . S
C399 C402 1.463 . S
C399 C404 1.350 . S
C399 N407 1.427 . S
C400 H391 0.930 . S
C400 C398 1.378 1_565 S
C400 C401 1.367 . S
C401 C400 1.367 . S
C401 C403 1.433 . S
C402 C398 1.350 . S
C402 C399 1.463 . S
C402 N406 1.427 . S
C403 H393 0.929 . S
C403 C401 1.433 . S
C403 N406 1.384 1_565 S
C404 H395 0.929 . S
C404 C396 1.378 . S
C404 C399 1.350 . S
C405 H392 0.929 . S
C405 C397 1.433 . S
C405 N407 1.384 . S
N406 C402 1.427 . S
N406 C403 1.384 1_545 S
N407 C399 1.427 . S
N407 C405 1.384 . S
H408 C414 0.930 . S
H409 C418 0.930 . S
H410 C423 0.929 . S
H411 C421 0.929 . S
H412 C416 0.929 . S
H413 C422 0.929 . S
C414 H408 0.930 . S
C414 C415 1.367 . S
C414 C422 1.378 . S
C415 C414 1.367 . S
C415 C423 1.433 . S
C416 H412 0.929 . S
C416 C418 1.378 . S
C416 C420 1.350 . S
C417 C420 1.463 . S
C417 C422 1.350 . S
C417 N425 1.427 . S
C418 H409 0.930 . S
C418 C416 1.378 . S
C418 C419 1.367 . S
C419 C418 1.367 . S
C419 C421 1.433 . S
C420 C416 1.350 . S
C420 C417 1.463 . S
C420 N424 1.427 . S
C421 H411 0.929 . S
C421 C419 1.433 . S
C421 N424 1.384 . S
C422 H413 0.929 . S
C422 C414 1.378 . S
C422 C417 1.350 . S
C423 H410 0.929 . S
C423 C415 1.433 . S
C423 N425 1.384 . S
N424 C420 1.427 . S
N424 C421 1.384 . S
N425 C417 1.427 . S
N425 C423 1.384 . S
H426 C432 0.930 . S
H427 C436 0.930 . S
H428 C441 0.929 . S
H429 C439 0.929 . S
H430 C434 0.929 . S
H431 C440 0.929 . S
C432 H426 0.930 . S
C432 C433 1.367 . S
C432 C440 1.378 . S
C433 C432 1.367 . S
C433 C441 1.433 . S
C434 H430 0.929 . S
C434 C436 1.378 . S
C434 C438 1.350 . S
C435 C438 1.463 . S
C435 C440 1.350 . S
C435 N443 1.427 . S
C436 H427 0.930 . S
C436 C434 1.378 . S
C436 C437 1.367 . S
C437 C436 1.367 . S
C437 C439 1.433 . S
C438 C434 1.350 . S
C438 C435 1.463 . S
C438 N442 1.427 . S
C439 H429 0.929 . S
C439 C437 1.433 . S
C439 N442 1.384 . S
C440 H431 0.929 . S
C440 C432 1.378 . S
C440 C435 1.350 . S
C441 H428 0.929 . S
C441 C433 1.433 . S
C441 N443 1.384 . S
N442 C438 1.427 . S
N442 C439 1.384 . S
N443 C435 1.427 . S
N443 C441 1.384 . S
H444 C450 0.930 . S
H445 C454 0.930 . S
H446 C459 0.929 . S
H447 C457 0.929 . S
H448 C452 0.929 . S
H449 C458 0.929 . S
C450 H444 0.930 . S
C450 C451 1.367 . S
C450 C458 1.378 . S
C451 C450 1.367 . S
C451 C459 1.433 . S
C452 H448 0.929 . S
C452 C454 1.378 . S
C452 C456 1.350 . S
C453 C456 1.463 . S
C453 C458 1.350 . S
C453 N461 1.427 . S
C454 H445 0.930 . S
C454 C452 1.378 . S
C454 C455 1.367 . S
C455 C454 1.367 . S
C455 C457 1.433 . S
C456 C452 1.350 . S
C456 C453 1.463 . S
C456 N460 1.427 . S
C457 H447 0.929 . S
C457 C455 1.433 . S
C457 N460 1.384 . S
C458 H449 0.929 . S
C458 C450 1.378 . S
C458 C453 1.350 . S
C459 H446 0.929 . S
C459 C451 1.433 . S
C459 N461 1.384 . S
N460 C456 1.427 . S
N460 C457 1.384 . S
N461 C453 1.427 . S
N461 C459 1.384 . S
H462 C468 0.930 . S
H463 C472 0.930 . S
H464 C477 0.929 . S
H465 C475 0.929 . S
H466 C470 0.929 . S
H467 C476 0.929 . S
C468 H462 0.930 . S
C468 C469 1.367 . S
C468 C476 1.378 . S
C469 C468 1.367 . S
C469 C477 1.433 . S
C470 H466 0.929 . S
C470 C472 1.378 . S
C470 C474 1.350 . S
C471 C474 1.463 . S
C471 C476 1.350 . S
C471 N479 1.427 . S
C472 H463 0.930 . S
C472 C470 1.378 . S
C472 C473 1.367 . S
C473 C472 1.367 . S
C473 C475 1.433 . S
C474 C470 1.350 . S
C474 C471 1.463 . S
C474 N478 1.427 . S
C475 H465 0.929 . S
C475 C473 1.433 . S
C475 N478 1.384 . S
C476 H467 0.929 . S
C476 C468 1.378 . S
C476 C471 1.350 . S
C477 H464 0.929 . S
C477 C469 1.433 . S
C477 N479 1.384 . S
N478 C474 1.427 . S
N478 C475 1.384 . S
N479 C471 1.427 . S
N479 C477 1.384 . S
H480 C486 0.930 . S
H481 C490 0.930 . S
H482 C495 0.929 . S
H483 C493 0.929 . S
H484 C488 0.929 . S
H485 C494 0.929 . S
C486 H480 0.930 . S
C486 C487 1.367 . S
C486 C494 1.378 . S
C487 C486 1.367 . S
C487 C495 1.433 . S
C488 H484 0.929 . S
C488 C490 1.378 . S
C488 C492 1.350 . S
C489 C492 1.463 . S
C489 C494 1.350 . S
C489 N497 1.427 . S
C490 H481 0.930 . S
C490 C488 1.378 . S
C490 C491 1.367 . S
C491 C490 1.367 . S
C491 C493 1.433 . S
C492 C488 1.350 . S
C492 C489 1.463 . S
C492 N496 1.427 . S
C493 H483 0.929 . S
C493 C491 1.433 . S
C493 N496 1.384 . S
C494 H485 0.929 . S
C494 C486 1.378 . S
C494 C489 1.350 . S
C495 H482 0.929 . S
C495 C487 1.433 . S
C495 N497 1.384 . S
N496 C492 1.427 . S
N496 C493 1.384 . S
N497 C489 1.427 . S
N497 C495 1.384 . S
H498 C504 0.930 . S
H499 C508 0.930 . S
H500 C513 0.929 . S
H501 C511 0.929 . S
H502 C506 0.929 . S
H503 C512 0.929 . S
C504 H498 0.930 . S
C504 C505 1.367 . S
C504 C512 1.378 . S
C505 C504 1.367 . S
C505 C513 1.433 . S
C506 H502 0.929 . S
C506 C508 1.378 . S
C506 C510 1.350 . S
C507 C510 1.463 . S
C507 C512 1.350 . S
C507 N515 1.427 . S
C508 H499 0.930 . S
C508 C506 1.378 . S
C508 C509 1.367 . S
C509 C508 1.367 . S
C509 C511 1.433 . S
C510 C506 1.350 . S
C510 C507 1.463 . S
C510 N514 1.427 . S
C511 H501 0.929 . S
C511 C509 1.433 . S
C511 N514 1.384 . S
C512 H503 0.929 . S
C512 C504 1.378 . S
C512 C507 1.350 . S
C513 H500 0.929 . S
C513 C505 1.433 . S
C513 N515 1.384 . S
N514 C510 1.427 . S
N514 C511 1.384 . S
N515 C507 1.427 . S
N515 C513 1.384 . S
H516 C522 0.930 . S
H517 C526 0.930 . S
H518 C531 0.929 . S
H519 C529 0.929 . S
H520 C524 0.929 . S
H521 C530 0.929 . S
C522 H516 0.930 . S
C522 C523 1.367 . S
C522 C530 1.378 . S
C523 C522 1.367 . S
C523 C531 1.433 . S
C524 H520 0.929 . S
C524 C526 1.378 . S
C524 C528 1.350 . S
C525 C528 1.463 . S
C525 C530 1.350 . S
C525 N533 1.427 . S
C526 H517 0.930 . S
C526 C524 1.378 . S
C526 C527 1.367 . S
C527 C526 1.367 . S
C527 C529 1.433 . S
C528 C524 1.350 . S
C528 C525 1.463 . S
C528 N532 1.427 . S
C529 H519 0.929 . S
C529 C527 1.433 . S
C529 N532 1.384 . S
C530 H521 0.929 . S
C530 C522 1.378 . S
C530 C525 1.350 . S
C531 H518 0.929 . S
C531 C523 1.433 . S
C531 N533 1.384 . S
N532 C528 1.427 . S
N532 C529 1.384 . S
N533 C525 1.427 . S
N533 C531 1.384 . S
H534 C540 0.930 . S
H535 C544 0.930 . S
H536 C549 0.929 . S
H537 C547 0.929 . S
H538 C542 0.929 . S
H539 C548 0.929 . S
C540 H534 0.930 . S
C540 C541 1.367 . S
C540 C548 1.378 . S
C541 C540 1.367 . S
C541 C549 1.433 . S
C542 H538 0.929 . S
C542 C544 1.378 . S
C542 C546 1.350 . S
C543 C546 1.463 . S
C543 C548 1.350 . S
C543 N551 1.427 . S
C544 H535 0.930 . S
C544 C542 1.378 . S
C544 C545 1.367 . S
C545 C544 1.367 . S
C545 C547 1.433 . S
C546 C542 1.350 . S
C546 C543 1.463 . S
C546 N550 1.427 . S
C547 H537 0.929 . S
C547 C545 1.433 . S
C547 N550 1.384 . S
C548 H539 0.929 . S
C548 C540 1.378 . S
C548 C543 1.350 . S
C549 H536 0.929 . S
C549 C541 1.433 . S
C549 N551 1.384 . S
N550 C546 1.427 . S
N550 C547 1.384 . S
N551 C543 1.427 . S
N551 C549 1.384 . S
H552 C558 0.930 . S
H553 C562 0.930 . S
H554 C567 0.929 . S
H555 C565 0.929 . S
H556 C560 0.929 . S
H557 C566 0.929 . S
C558 H552 0.930 . S
C558 C559 1.367 . S
C558 C566 1.378 . S
C559 C558 1.367 . S
C559 C567 1.433 1_554 S
C560 H556 0.929 . S
C560 C562 1.378 . S
C560 C564 1.350 1_556 S
C561 C564 1.463 1_655 S
C561 C566 1.350 . S
C561 N569 1.427 1_554 S
C562 H553 0.930 . S
C562 C560 1.378 . S
C562 C563 1.367 1_556 S
C563 C562 1.367 1_554 S
C563 C565 1.433 . S
C564 C560 1.350 1_554 S
C564 C561 1.463 1_455 S
C564 N568 1.427 . S
C565 H555 0.929 . S
C565 C563 1.433 . S
C565 N568 1.384 . S
C566 H557 0.929 . S
C566 C558 1.378 . S
C566 C561 1.350 . S
C567 H554 0.929 . S
C567 C559 1.433 1_556 S
C567 N569 1.384 . S
N568 C564 1.427 . S
N568 C565 1.384 . S
N569 C561 1.427 1_556 S
N569 C567 1.384 . S
H570 C576 0.930 . S
H571 C580 0.930 . S
H572 C585 0.929 . S
H573 C583 0.929 . S
H574 C578 0.929 . S
H575 C584 0.929 . S
C576 H570 0.930 . S
C576 C577 1.367 . S
C576 C584 1.378 . S
C577 C576 1.367 . S
C577 C585 1.433 1_554 S
C578 H574 0.929 . S
C578 C580 1.378 . S
C578 C582 1.350 1_556 S
C579 C582 1.463 1_545 S
C579 C584 1.350 . S
C579 N587 1.427 1_554 S
C580 H571 0.930 . S
C580 C578 1.378 . S
C580 C581 1.367 1_556 S
C581 C580 1.367 1_554 S
C581 C583 1.433 . S
C582 C578 1.350 1_554 S
C582 C579 1.463 1_565 S
C582 N586 1.427 . S
C583 H573 0.929 . S
C583 C581 1.433 . S
C583 N586 1.384 . S
C584 H575 0.929 . S
C584 C576 1.378 . S
C584 C579 1.350 . S
C585 H572 0.929 . S
C585 C577 1.433 1_556 S
C585 N587 1.384 . S
N586 C582 1.427 . S
N586 C583 1.384 . S
N587 C579 1.427 1_556 S
N587 C585 1.384 . S
H588 C594 0.930 . S
H589 C598 0.930 . S
H590 C603 0.929 . S
H591 C601 0.929 . S
H592 C596 0.929 . S
H593 C602 0.929 . S
C594 H588 0.930 . S
C594 C595 1.367 . S
C594 C602 1.378 . S
C595 C594 1.367 . S
C595 C603 1.433 . S
C596 H592 0.929 . S
C596 C598 1.378 . S
C596 C600 1.350 . S
C597 C600 1.463 1_545 S
C597 C602 1.350 . S
C597 N605 1.427 . S
C598 H589 0.930 . S
C598 C596 1.378 . S
C598 C599 1.367 . S
C599 C598 1.367 . S
C599 C601 1.433 . S
C600 C596 1.350 . S
C600 C597 1.463 1_565 S
C600 N604 1.427 . S
C601 H591 0.929 . S
C601 C599 1.433 . S
C601 N604 1.384 . S
C602 H593 0.929 . S
C602 C594 1.378 . S
C602 C597 1.350 . S
C603 H590 0.929 . S
C603 C595 1.433 . S
C603 N605 1.384 . S
N604 C600 1.427 . S
N604 C601 1.384 . S
N605 C597 1.427 . S
N605 C603 1.384 . S
H606 C612 0.930 . S
H607 C616 0.930 . S
H608 C621 0.929 . S
H609 C619 0.929 . S
H610 C614 0.929 . S
H611 C620 0.929 . S
C612 H606 0.930 . S
C612 C613 1.367 . S
C612 C620 1.378 . S
C613 C612 1.367 . S
C613 C621 1.433 . S
C614 H610 0.929 . S
C614 C616 1.378 . S
C614 C618 1.350 . S
C615 C618 1.463 1_455 S
C615 C620 1.350 . S
C615 N623 1.427 . S
C616 H607 0.930 . S
C616 C614 1.378 . S
C616 C617 1.367 . S
C617 C616 1.367 . S
C617 C619 1.433 . S
C618 C614 1.350 . S
C618 C615 1.463 1_655 S
C618 N622 1.427 . S
C619 H609 0.929 . S
C619 C617 1.433 . S
C619 N622 1.384 . S
C620 H611 0.929 . S
C620 C612 1.378 . S
C620 C615 1.350 . S
C621 H608 0.929 . S
C621 C613 1.433 . S
C621 N623 1.384 . S
N622 C618 1.427 . S
N622 C619 1.384 . S
N623 C615 1.427 . S
N623 C621 1.384 . S
C271 C41 0.827 . S
C275 N5 0.815 . S
C289 N38 0.828 . S
C293 C74 0.827 . S
C307 N71 0.828 . S
C311 C107 0.827 . S
C325 C8 0.830 . S
C329 N104 0.807 . S
C343 C173 0.829 . S
C347 N137 0.819 . S
C361 C206 0.829 . S
C365 N170 0.816 . S
C379 N203 0.820 . S
C383 C239 0.829 . S
C397 N236 0.828 . S
C401 C140 0.827 . S
C415 C215 1.525 . S
C419 C28 1.551 . S
C433 C61 1.554 . S
C437 C248 1.518 . S
C451 C94 1.553 . S
C455 C149 1.522 . S
C469 C127 1.553 . S
C473 C182 1.517 . S
C487 C160 1.553 . S
C491 C83 1.523 . S
C505 C193 1.552 . S
C509 C116 1.523 . S
C523 C226 1.558 . S
C527 C17 1.535 . S
C541 C50 1.533 . S
C545 C259 1.563 . S
C559 N80 2.175 . S
C563 N14 2.176 . S
C577 N47 2.175 . S
C581 N113 2.175 . S
C595 N212 2.175 . S
C599 N146 2.175 . S
C613 N179 2.175 . S
C617 N245 2.175 . S
