# Generated by pormake.
# Topology wgu, (5)-cn, num edge types: 1
# Building blocks:
#     Node 0, Type 0, BuildingBlock: XOMCOT_clean_sbu_0, # of connection points: 5
#     Node 1, Type 0, BuildingBlock: XOMCOT_clean_sbu_0, # of connection points: 5
#     Node 2, Type 0, BuildingBlock: XOMCOT_clean_sbu_0, # of connection points: 5
#     Node 3, Type 0, BuildingBlock: XOMCOT_clean_sbu_0, # of connection points: 5
#     Node 4, Type 0, BuildingBlock: XOMCOT_clean_sbu_0, # of connection points: 5
#     Node 5, Type 0, BuildingBlock: XOMCOT_clean_sbu_0, # of connection points: 5
#     Node 6, Type 0, BuildingBlock: XOMCOT_clean_sbu_0, # of connection points: 5
#     Node 7, Type 0, BuildingBlock: XOMCOT_clean_sbu_0, # of connection points: 5
#     Edge 8, Type (0, 0), BuildingBlock: EYOCIG_clean_linker_4, # of connection points: 2
#     Edge 9, Type (0, 0), BuildingBlock: EYOCIG_clean_linker_4, # of connection points: 2
#     Edge 10, Type (0, 0), BuildingBlock: EYOCIG_clean_linker_4, # of connection points: 2
#     Edge 11, Type (0, 0), BuildingBlock: EYOCIG_clean_linker_4, # of connection points: 2
#     Edge 12, Type (0, 0), BuildingBlock: EYOCIG_clean_linker_4, # of connection points: 2
#     Edge 13, Type (0, 0), BuildingBlock: EYOCIG_clean_linker_4, # of connection points: 2
#     Edge 14, Type (0, 0), BuildingBlock: EYOCIG_clean_linker_4, # of connection points: 2
#     Edge 15, Type (0, 0), BuildingBlock: EYOCIG_clean_linker_4, # of connection points: 2
#     Edge 16, Type (0, 0), BuildingBlock: EYOCIG_clean_linker_4, # of connection points: 2
#     Edge 17, Type (0, 0), BuildingBlock: EYOCIG_clean_linker_4, # of connection points: 2
#     Edge 18, Type (0, 0), BuildingBlock: EYOCIG_clean_linker_4, # of connection points: 2
#     Edge 19, Type (0, 0), BuildingBlock: EYOCIG_clean_linker_4, # of connection points: 2
#     Edge 20, Type (0, 0), BuildingBlock: EYOCIG_clean_linker_4, # of connection points: 2
#     Edge 21, Type (0, 0), BuildingBlock: EYOCIG_clean_linker_4, # of connection points: 2
#     Edge 22, Type (0, 0), BuildingBlock: EYOCIG_clean_linker_4, # of connection points: 2
#     Edge 23, Type (0, 0), BuildingBlock: EYOCIG_clean_linker_4, # of connection points: 2
#     Edge 24, Type (0, 0), BuildingBlock: EYOCIG_clean_linker_4, # of connection points: 2
#     Edge 25, Type (0, 0), BuildingBlock: EYOCIG_clean_linker_4, # of connection points: 2
#     Edge 26, Type (0, 0), BuildingBlock: EYOCIG_clean_linker_4, # of connection points: 2
#     Edge 27, Type (0, 0), BuildingBlock: EYOCIG_clean_linker_4, # of connection points: 2
# Relax obj value: 0.181
# Max RMSD: 0.154
# Mean RMSD: 0.154
data_MOF--net-wgu--node1-XOMCOT_clean_sbu_0--edge1-EYOCIG_clean_linker_4
_symmetry_space_group_name_H-M    P1
_symmetry_Int_Tables_number       1
_symmetry_cell_setting            triclinic
loop_
_symmetry_equiv_pos_as_xyz
'x, y, z'
_cell_length_a     26.577026
_cell_length_b     26.56924
_cell_length_c     23.500468
_cell_angle_alpha  90.007425
_cell_angle_beta   89.979242
_cell_angle_gamma 90.000775
loop_
_atom_site_label
_atom_site_type_symbol
_atom_site_fract_x
_atom_site_fract_y
_atom_site_fract_z
_atom_type_partial_charge
Co0 Co 0.31922 0.39093 0.11173 0.0
C1 C 0.33945 0.28809 0.07552 0.0
C2 C 0.39371 0.31209 0.1373 0.0
C3 C 0.39873 0.26086 0.12975 0.0
N4 N 0.357 0.32928 0.1025 0.0
N5 N 0.3643 0.24641 0.09129 0.0
H6 H 0.30581 0.28774 0.04955 0.0
H7 H 0.41273 0.33452 0.16912 0.0
C8 C 0.42532 0.42661 0.07965 0.0
O9 O 0.4398 0.38115 0.06565 0.0
N10 N 0.28011 0.45199 0.1223 0.0
C11 C 0.25037 0.46458 0.16688 0.0
C12 C 0.22793 0.51015 0.15602 0.0
C13 C 0.27562 0.49058 0.08522 0.0
N14 N 0.2438 0.52592 0.1049 0.0
C15 C 0.2477 0.38487 1.02243 0.0
C16 C 0.31413 0.36829 0.93387 0.0
C17 C 0.2625 0.36195 0.92453 0.0
C18 C 0.22902 0.37181 0.9689 0.0
C19 C 0.33136 0.38166 0.98823 0.0
N20 N 0.29828 0.38824 0.03217 0.0
H21 H 0.22144 0.38995 0.05709 0.0
H22 H 0.37122 0.38346 0.99536 0.0
H23 H 0.2445 0.44255 0.20485 0.0
H24 H 0.29451 0.49235 0.04444 0.0
O25 O 0.26533 0.35058 0.14263 0.0
O26 O 0.32707 0.38435 0.19367 0.0
O27 O 0.37998 0.43575 0.09521 0.0
C28 C 0.28699 0.35608 0.19167 0.0
H29 H 0.42283 0.23577 0.15373 0.0
H30 H 0.20164 0.52996 0.18319 0.0
H31 H 0.34101 0.3609 0.90022 0.0
H32 H 0.18882 0.3674 0.96297 0.0
Co33 Co 0.64003 0.31903 0.61161 0.0
C34 C 0.74281 0.3395 0.57547 0.0
C35 C 0.71868 0.39369 0.63731 0.0
C36 C 0.76989 0.39883 0.6298 0.0
N37 N 0.70159 0.35695 0.60246 0.0
N38 N 0.78442 0.36444 0.59129 0.0
H39 H 0.74325 0.30587 0.54946 0.0
H40 H 0.6962 0.41265 0.66915 0.0
C41 C 0.6042 0.4251 0.57958 0.0
O42 O 0.64962 0.43965 0.56561 0.0
N43 N 0.57907 0.27977 0.6221 0.0
C44 C 0.56676 0.24951 0.66632 0.0
C45 C 0.52118 0.22712 0.65544 0.0
C46 C 0.54033 0.2756 0.58519 0.0
N47 N 0.50513 0.24352 0.60466 0.0
C48 C 0.64617 0.24752 0.52225 0.0
C49 C 0.66274 0.314 0.43375 0.0
C50 C 0.6691 0.26237 0.42437 0.0
C51 C 0.65925 0.22886 0.4687 0.0
C52 C 0.64936 0.33122 0.48812 0.0
N53 N 0.64278 0.29812 0.53203 0.0
H54 H 0.6411 0.22125 0.55689 0.0
H55 H 0.64755 0.37108 0.49528 0.0
H56 H 0.58899 0.24323 0.70404 0.0
H57 H 0.53836 0.2949 0.54468 0.0
O58 O 0.68047 0.2652 0.64247 0.0
O59 O 0.64652 0.32686 0.69356 0.0
O60 O 0.59511 0.37974 0.59512 0.0
C61 C 0.67489 0.28685 0.69153 0.0
H62 H 0.79491 0.42296 0.65382 0.0
H63 H 0.50155 0.2005 0.68237 0.0
H64 H 0.67013 0.3409 0.40013 0.0
H65 H 0.66368 0.18865 0.46274 0.0
Co66 Co 0.71186 0.64036 0.1119 0.0
C67 C 0.69135 0.74315 0.07582 0.0
C68 C 0.63721 0.71901 0.1377 0.0
C69 C 0.63204 0.77023 0.13018 0.0
N70 N 0.67394 0.70192 0.10282 0.0
N71 N 0.66639 0.78477 0.09164 0.0
H72 H 0.72496 0.7436 0.04977 0.0
H73 H 0.61828 0.69652 0.16955 0.0
C74 C 0.60584 0.6045 0.07986 0.0
O75 O 0.59128 0.64994 0.06595 0.0
N76 N 0.75113 0.57938 0.12231 0.0
C77 C 0.78145 0.56709 0.16646 0.0
C78 C 0.8038 0.52149 0.15554 0.0
C79 C 0.75522 0.54061 0.0854 0.0
N80 N 0.78732 0.5054 0.1048 0.0
C81 C 0.78335 0.64652 1.02253 0.0
C82 C 0.71691 0.66311 0.93405 0.0
C83 C 0.76853 0.66946 0.92466 0.0
C84 C 0.80202 0.6596 0.96898 0.0
C85 C 0.69969 0.64972 0.98842 0.0
N86 N 0.73277 0.64314 0.03232 0.0
H87 H 0.80961 0.64145 0.05716 0.0
H88 H 0.65983 0.64791 0.99558 0.0
H89 H 0.78781 0.58935 0.20415 0.0
H90 H 0.73586 0.53863 0.04493 0.0
O91 O 0.76567 0.68081 0.14279 0.0
O92 O 0.70404 0.64682 0.19386 0.0
O93 O 0.65119 0.59542 0.09538 0.0
C94 C 0.74404 0.6752 0.19185 0.0
H95 H 0.6079 0.79525 0.15421 0.0
H96 H 0.83046 0.50186 0.1824 0.0
H97 H 0.69002 0.6705 0.90043 0.0
H98 H 0.84221 0.66402 0.96301 0.0
Co99 Co 0.39049 0.71169 0.61162 0.0
C100 C 0.28771 0.6912 0.57559 0.0
C101 C 0.31184 0.63704 0.63742 0.0
C102 C 0.26062 0.63191 0.62997 0.0
N103 N 0.32893 0.67376 0.60254 0.0
N104 N 0.24609 0.66628 0.59146 0.0
H105 H 0.28727 0.72483 0.54957 0.0
H106 H 0.33432 0.6181 0.66925 0.0
C107 C 0.42632 0.60562 0.57958 0.0
O108 O 0.38089 0.59106 0.56566 0.0
N109 N 0.45144 0.75098 0.62203 0.0
C110 C 0.46361 0.78151 0.66606 0.0
C111 C 0.50923 0.80382 0.65516 0.0
C112 C 0.49029 0.75492 0.58521 0.0
N113 N 0.52544 0.78711 0.60456 0.0
C114 C 0.38438 0.78318 0.52226 0.0
C115 C 0.36772 0.71669 0.43379 0.0
C116 C 0.3614 0.76833 0.42442 0.0
C117 C 0.3713 0.80184 0.46873 0.0
C118 C 0.3811 0.69947 0.48815 0.0
N119 N 0.38773 0.73258 0.53204 0.0
H120 H 0.38948 0.80945 0.55689 0.0
H121 H 0.38288 0.65961 0.49531 0.0
H122 H 0.44125 0.78806 0.70364 0.0
H123 H 0.49237 0.73539 0.54484 0.0
O124 O 0.35004 0.76552 0.64252 0.0
O125 O 0.38402 0.70389 0.69357 0.0
O126 O 0.43541 0.65099 0.5951 0.0
C127 C 0.35564 0.74389 0.69157 0.0
H128 H 0.2356 0.60779 0.65403 0.0
H129 H 0.52877 0.83062 0.68194 0.0
H130 H 0.36029 0.68978 0.40018 0.0
H131 H 0.36691 0.84204 0.46277 0.0
Co132 Co 0.81914 0.1404 0.99249 0.0
C133 C 0.83976 0.2432 0.02855 0.0
C134 C 0.89383 0.219 0.96662 0.0
C135 C 0.89906 0.27021 0.97414 0.0
N136 N 0.85711 0.20195 1.00153 0.0
N137 N 0.86475 0.28479 1.0127 0.0
H138 H 0.80617 0.24369 0.05462 0.0
H139 H 0.91273 0.19649 0.93476 0.0
C140 C 0.92516 0.10454 1.02452 0.0
O141 O 0.93971 0.14998 0.03846 0.0
N142 N 0.77983 0.07945 0.98213 0.0
C143 C 0.74909 0.06736 0.93827 0.0
C144 C 0.72678 0.02175 0.94923 0.0
C145 C 0.776 0.04057 1.0189 0.0
N146 N 0.74369 1.00546 0.9997 0.0
C147 C 0.74767 0.14654 0.08187 0.0
C148 C 0.8141 0.16314 0.17037 0.0
C149 C 0.76247 0.16941 0.17976 0.0
C150 C 0.72899 0.15956 0.13543 0.0
C151 C 0.83134 0.14982 0.11598 0.0
N152 N 0.79826 0.14321 0.07208 0.0
H153 H 0.72141 0.14146 0.04724 0.0
H154 H 0.87119 0.14805 0.10881 0.0
H155 H 0.74238 0.08979 0.90079 0.0
H156 H 0.79567 0.03845 0.05917 0.0
O157 O 0.76536 0.18088 0.96162 0.0
O158 O 0.82693 0.14681 0.91052 0.0
O159 O 0.87981 0.09545 1.00899 0.0
C160 C 0.78696 0.17522 0.91255 0.0
H161 H 0.92322 0.29521 0.95009 0.0
H162 H 0.69983 1.00226 0.9226 0.0
H163 H 0.84098 0.17053 0.20399 0.0
H164 H 0.68879 0.16392 0.1414 0.0
Co165 Co 0.89058 0.81943 0.49283 0.0
C166 C 0.78777 0.83983 0.5289 0.0
C167 C 0.81189 0.89403 0.46708 0.0
C168 C 0.76067 0.89912 0.47456 0.0
N169 N 0.82899 0.85731 0.50195 0.0
N170 N 0.74614 0.86473 0.51305 0.0
H171 H 0.78734 0.8062 0.55491 0.0
H172 H 0.83437 0.91299 0.43526 0.0
C173 C 0.92632 0.92554 0.52485 0.0
O174 O 0.88088 0.94005 0.53883 0.0
N175 N 0.95157 0.7802 0.48238 0.0
C176 C 0.96385 0.74981 0.43825 0.0
C177 C 1.00945 0.72748 0.44915 0.0
C178 C 0.99035 0.77616 0.51925 0.0
N179 N 0.02555 0.74404 0.49985 0.0
C180 C 0.88452 0.74794 0.5822 0.0
C181 C 0.86784 0.81441 0.6707 0.0
C182 C 0.86159 0.76276 0.68009 0.0
C183 C 0.87148 0.72927 0.63575 0.0
C184 C 0.88118 0.83164 0.61632 0.0
N185 N 0.88782 0.79854 0.57242 0.0
H186 H 0.88963 0.72167 0.54756 0.0
H187 H 0.88292 0.87151 0.60916 0.0
H188 H 0.94157 0.74338 0.4006 0.0
H189 H 0.99234 0.79558 0.5597 0.0
O190 O 0.85019 0.76556 0.46197 0.0
O191 O 0.88411 0.82721 0.41088 0.0
O192 O 0.93544 0.88018 0.50932 0.0
C193 C 0.85577 0.78718 0.41291 0.0
H194 H 0.73565 0.92323 0.45051 0.0
H195 H 0.02905 0.70077 0.4223 0.0
H196 H 0.86041 0.84131 0.70433 0.0
H197 H 0.86714 0.68905 0.64172 0.0
Co198 Co 0.21163 0.89056 0.99269 0.0
C199 C 0.19078 0.78781 0.0287 0.0
C200 C 0.1368 0.8121 0.96677 0.0
C201 C 0.13149 0.76089 0.97425 0.0
N202 N 0.17351 0.82909 1.00171 0.0
N203 N 0.16575 0.74626 1.01282 0.0
H204 H 0.22436 0.78726 0.05477 0.0
H205 H 0.11797 0.83465 0.93491 0.0
C206 C 0.10566 0.92663 1.0247 0.0
O207 O 0.09102 0.88122 0.03865 0.0
N208 N 0.2511 0.95141 0.98237 0.0
C209 C 0.2824 0.96316 0.93888 0.0
C210 C 0.30465 1.0088 0.9498 0.0
C211 C 0.25458 0.9905 1.01892 0.0
N212 N 0.28717 0.02544 0.9999 0.0
C213 C 0.28302 0.88436 0.08208 0.0
C214 C 0.21651 0.86777 0.17055 0.0
C215 C 0.26813 0.86145 0.17995 0.0
C216 C 0.30165 0.8713 0.13562 0.0
C217 C 0.19933 0.88113 0.11618 0.0
N218 N 0.23244 0.88772 0.07228 0.0
H219 H 0.30931 0.88942 0.04745 0.0
H220 H 0.15948 0.88293 0.109 0.0
H221 H 0.28956 0.94046 0.90171 0.0
H222 H 0.23447 0.99288 0.05891 0.0
O223 O 0.26533 0.84995 0.96182 0.0
O224 O 0.20389 0.88419 0.91073 0.0
O225 O 0.15103 0.93564 1.00918 0.0
C226 C 0.24378 0.85566 0.91275 0.0
H227 H 0.10734 0.73594 0.95016 0.0
H228 H 0.33197 0.02806 0.92342 0.0
H229 H 0.1896 0.86038 0.20417 0.0
H230 H 0.34184 0.8669 0.1416 0.0
Co231 Co 0.14033 0.21206 0.49276 0.0
C232 C 0.24304 0.19115 0.52873 0.0
C233 C 0.21869 0.13714 0.46682 0.0
C234 C 0.26988 0.13179 0.47428 0.0
N235 N 0.20175 0.1739 0.50175 0.0
N236 N 0.28455 0.16607 0.51283 0.0
H237 H 0.24361 0.22475 0.5548 0.0
H238 H 0.19613 0.11831 0.43497 0.0
C239 C 0.10419 0.10609 0.52479 0.0
O240 O 0.14958 0.09143 0.53873 0.0
N241 N 0.07952 0.25158 0.48245 0.0
C242 C 0.06782 0.28294 0.43902 0.0
C243 C 0.02218 0.30519 0.44993 0.0
C244 C 0.0404 0.25502 0.51896 0.0
N245 N 1.0055 0.28764 0.49997 0.0
C246 C 0.14655 0.28351 0.58214 0.0
C247 C 0.1631 0.21702 0.67062 0.0
C248 C 0.16943 0.26866 0.68001 0.0
C249 C 0.15959 0.30217 0.63569 0.0
C250 C 0.14975 0.19981 0.61624 0.0
N251 N 0.14318 0.23292 0.57235 0.0
H252 H 0.14149 0.30979 0.54751 0.0
H253 H 0.14794 0.15995 0.60907 0.0
H254 H 0.09056 0.29015 0.40188 0.0
H255 H 0.03798 0.23486 0.5589 0.0
O256 O 0.18096 0.26575 0.46187 0.0
O257 O 0.14669 0.20429 0.41079 0.0
O258 O 0.09521 0.15148 0.50926 0.0
C259 C 0.17523 0.24417 0.4128 0.0
H260 H 0.29481 0.10759 0.45019 0.0
H261 H 1.00296 0.33254 0.42358 0.0
H262 H 0.17048 0.19012 0.70424 0.0
H263 H 0.164 0.34238 0.64166 0.0
C264 C 0.31699 0.10893 0.04665 0.0
C265 C 0.30198 0.06997 1.02684 0.0
C266 C 0.3356 0.15576 0.06509 0.0
C267 C 0.34996 0.1971 0.07819 0.0
C268 C 0.92196 0.31737 0.54667 0.0
C269 C 0.96094 0.3024 0.52688 0.0
C270 C 0.87511 0.33591 0.56511 0.0
C271 C 0.83375 0.3502 0.5782 0.0
C272 C 0.71351 0.92223 0.04673 0.0
C273 C 0.72865 0.96108 1.02679 0.0
C274 C 0.69487 0.87545 0.06532 0.0
C275 C 0.68058 0.83411 0.0785 0.0
C276 C 0.10869 0.71363 0.54682 0.0
C277 C 0.06988 0.72887 0.52693 0.0
C278 C 0.15544 0.6949 0.56532 0.0
C279 C 0.19676 0.68054 0.57843 0.0
C280 C 0.81771 0.42226 0.05771 0.0
C281 C 0.8025 0.46107 0.07768 0.0
C282 C 0.83637 0.3755 0.03908 0.0
C283 C 0.85062 0.33415 1.02586 0.0
C284 C 0.60869 0.81738 0.55765 0.0
C285 C 0.56983 0.8022 0.57751 0.0
C286 C 0.65547 0.83609 0.53918 0.0
C287 C 0.69681 0.85044 0.52609 0.0
C288 C 0.21291 0.60884 0.05773 0.0
C289 C 0.22833 0.57012 0.07773 0.0
C290 C 0.19412 0.65553 0.0391 0.0
C291 C 0.17985 0.69688 1.0259 0.0
C292 C 0.37529 0.19435 0.53906 0.0
C293 C 0.33393 0.18013 0.5259 0.0
C294 C 0.42204 0.21302 0.55764 0.0
C295 C 0.46083 0.22828 0.57758 0.0
C296 C 0.53564 0.5333 0.07813 0.0
C297 C 0.56883 0.56459 0.0795 0.0
C298 C 0.49562 0.49771 0.07808 0.0
C299 C 0.4624 0.46645 0.07937 0.0
C300 C 0.53305 0.49534 0.57794 0.0
C301 C 0.56431 0.46213 0.57927 0.0
C302 C 0.49747 0.53537 0.57794 0.0
C303 C 0.4662 0.56859 0.57926 0.0
C304 C 0.03547 0.99784 1.02624 0.0
C305 C 0.06868 0.96657 1.02494 0.0
C306 C 0.99542 0.0334 1.0262 0.0
C307 C 0.96219 0.06465 1.02485 0.0
C308 C 0.9974 0.99587 0.52644 0.0
C309 C 0.96617 0.96262 0.52513 0.0
C310 C 0.03295 0.03593 0.52642 0.0
C311 C 0.06423 0.06913 0.52508 0.0
C312 C 0.24582 0.3109 0.28013 0.0
C313 C 0.26628 0.33241 0.24132 0.0
C314 C 0.22031 0.28536 0.32428 0.0
C315 C 0.19883 0.26489 0.36311 0.0
C316 C 0.74569 0.22024 0.82407 0.0
C317 C 0.76621 0.19879 0.86288 0.0
C318 C 0.72011 0.24572 0.77996 0.0
C319 C 0.69858 0.26617 0.74116 0.0
C320 C 0.8107 0.74591 0.32445 0.0
C321 C 0.83216 0.76642 0.36325 0.0
C322 C 0.7852 0.72035 0.28032 0.0
C323 C 0.76473 0.69885 0.24151 0.0
C324 C 0.28497 0.81057 0.82423 0.0
C325 C 0.2645 0.83205 0.86306 0.0
C326 C 0.3105 0.78506 0.78008 0.0
C327 C 0.332 0.7646 0.74124 0.0
C328 C 0.80463 0.70582 0.8276 0.0
C329 C 0.78721 0.68931 0.87135 0.0
C330 C 0.82534 0.7266 0.77717 0.0
C331 C 0.8418 0.74405 0.73341 0.0
C332 C 0.32502 0.80443 0.32741 0.0
C333 C 0.34154 0.78701 0.37113 0.0
C334 C 0.30424 0.82516 0.277 0.0
C335 C 0.2868 0.84164 0.23326 0.0
C336 C 0.20567 0.3048 0.77708 0.0
C337 C 0.18921 0.28735 0.73334 0.0
C338 C 0.22639 0.32559 0.8275 0.0
C339 C 0.24381 0.3421 0.87124 0.0
C340 C 0.72629 0.2056 0.27687 0.0
C341 C 0.74376 0.18917 0.2331 0.0
C342 C 0.70549 0.22629 0.32731 0.0
C343 C 0.68897 0.24369 0.37107 0.0
loop_
_geom_bond_atom_site_label_1
_geom_bond_atom_site_label_2
_geom_bond_distance
_geom_bond_site_symmetry_2
_ccdc_geom_bond_type
Co0 N4 2.148 . S
Co0 N10 2.128 . S
Co0 N20 2.194 1_554 S
Co0 O25 2.351 . S
Co0 O26 2.155 . S
Co0 O27 2.096 . S
C1 N4 1.301 . S
C1 N5 1.328 . S
C1 H6 0.930 . S
C2 C3 1.333 . S
C2 N4 1.317 . S
C2 H7 0.930 . S
C3 C2 1.333 . S
C3 N5 1.350 . S
C3 H29 0.931 . S
N4 Co0 2.148 . S
N4 C1 1.301 . S
N4 C2 1.317 . S
N5 C1 1.328 . S
N5 C3 1.350 . S
H6 C1 0.930 . S
H7 C2 0.930 . S
C8 O9 1.224 1_554 S
C8 O27 1.247 . S
O9 C8 1.224 1_556 S
N10 Co0 2.128 . S
N10 C11 1.355 . S
N10 C13 1.311 . S
C11 N10 1.355 . S
C11 C12 1.363 . S
C11 H23 0.929 . S
C12 C11 1.363 . S
C12 N14 1.375 . S
C12 H30 0.931 . S
C13 N10 1.311 . S
C13 N14 1.347 . S
C13 H24 0.929 . S
N14 C12 1.375 . S
N14 C13 1.347 . S
C15 C18 1.365 . S
C15 N20 1.328 . S
C15 H21 0.929 1_556 S
C16 C17 1.362 . S
C16 C19 1.378 . S
C16 H31 0.929 . S
C17 C16 1.362 . S
C17 C18 1.366 . S
C18 C15 1.365 . S
C18 C17 1.366 . S
C18 H32 0.930 . S
C19 C16 1.378 . S
C19 N20 1.315 . S
C19 H22 0.930 . S
N20 Co0 2.194 1_556 S
N20 C15 1.328 . S
N20 C19 1.315 . S
H21 C15 0.929 1_554 S
H22 C19 0.930 . S
H23 C11 0.929 . S
H24 C13 0.929 . S
O25 Co0 2.351 . S
O25 C28 1.244 . S
O26 Co0 2.155 . S
O26 C28 1.240 . S
O27 Co0 2.096 . S
O27 C8 1.247 . S
C28 O25 1.244 . S
C28 O26 1.240 . S
H29 C3 0.931 . S
H30 C12 0.931 . S
H31 C16 0.929 . S
H32 C18 0.930 . S
Co33 N37 2.148 . S
Co33 N43 2.128 . S
Co33 N53 2.194 . S
Co33 O58 2.351 . S
Co33 O59 2.155 . S
Co33 O60 2.096 . S
C34 N37 1.301 . S
C34 N38 1.328 . S
C34 H39 0.930 . S
C35 C36 1.333 . S
C35 N37 1.317 . S
C35 H40 0.930 . S
C36 C35 1.333 . S
C36 N38 1.350 . S
C36 H62 0.931 . S
N37 Co33 2.148 . S
N37 C34 1.301 . S
N37 C35 1.317 . S
N38 C34 1.328 . S
N38 C36 1.350 . S
H39 C34 0.930 . S
H40 C35 0.930 . S
C41 O42 1.224 . S
C41 O60 1.247 . S
O42 C41 1.224 . S
N43 Co33 2.128 . S
N43 C44 1.355 . S
N43 C46 1.311 . S
C44 N43 1.355 . S
C44 C45 1.363 . S
C44 H56 0.929 . S
C45 C44 1.363 . S
C45 N47 1.375 . S
C45 H63 0.931 . S
C46 N43 1.311 . S
C46 N47 1.347 . S
C46 H57 0.929 . S
N47 C45 1.375 . S
N47 C46 1.347 . S
C48 C51 1.365 . S
C48 N53 1.328 . S
C48 H54 0.929 . S
C49 C50 1.362 . S
C49 C52 1.378 . S
C49 H64 0.929 . S
C50 C49 1.362 . S
C50 C51 1.366 . S
C51 C48 1.365 . S
C51 C50 1.366 . S
C51 H65 0.930 . S
C52 C49 1.378 . S
C52 N53 1.315 . S
C52 H55 0.930 . S
N53 Co33 2.194 . S
N53 C48 1.328 . S
N53 C52 1.315 . S
H54 C48 0.929 . S
H55 C52 0.930 . S
H56 C44 0.929 . S
H57 C46 0.929 . S
O58 Co33 2.351 . S
O58 C61 1.244 . S
O59 Co33 2.155 . S
O59 C61 1.240 . S
O60 Co33 2.096 . S
O60 C41 1.247 . S
C61 O58 1.244 . S
C61 O59 1.240 . S
H62 C36 0.931 . S
H63 C45 0.931 . S
H64 C49 0.929 . S
H65 C51 0.930 . S
Co66 N70 2.148 . S
Co66 N76 2.128 . S
Co66 N86 2.194 1_554 S
Co66 O91 2.351 . S
Co66 O92 2.155 . S
Co66 O93 2.096 . S
C67 N70 1.301 . S
C67 N71 1.328 . S
C67 H72 0.930 . S
C68 C69 1.333 . S
C68 N70 1.317 . S
C68 H73 0.930 . S
C69 C68 1.333 . S
C69 N71 1.350 . S
C69 H95 0.931 . S
N70 Co66 2.148 . S
N70 C67 1.301 . S
N70 C68 1.317 . S
N71 C67 1.328 . S
N71 C69 1.350 . S
H72 C67 0.930 . S
H73 C68 0.930 . S
C74 O75 1.224 1_554 S
C74 O93 1.247 . S
O75 C74 1.224 1_556 S
N76 Co66 2.128 . S
N76 C77 1.355 . S
N76 C79 1.311 . S
C77 N76 1.355 . S
C77 C78 1.363 . S
C77 H89 0.929 . S
C78 C77 1.363 . S
C78 N80 1.375 . S
C78 H96 0.931 . S
C79 N76 1.311 . S
C79 N80 1.347 . S
C79 H90 0.929 . S
N80 C78 1.375 . S
N80 C79 1.347 . S
C81 C84 1.365 . S
C81 N86 1.328 . S
C81 H87 0.929 1_556 S
C82 C83 1.362 . S
C82 C85 1.378 . S
C82 H97 0.929 . S
C83 C82 1.362 . S
C83 C84 1.366 . S
C84 C81 1.365 . S
C84 C83 1.366 . S
C84 H98 0.930 . S
C85 C82 1.378 . S
C85 N86 1.315 . S
C85 H88 0.930 . S
N86 Co66 2.194 1_556 S
N86 C81 1.328 . S
N86 C85 1.315 . S
H87 C81 0.929 1_554 S
H88 C85 0.930 . S
H89 C77 0.929 . S
H90 C79 0.929 . S
O91 Co66 2.351 . S
O91 C94 1.244 . S
O92 Co66 2.155 . S
O92 C94 1.240 . S
O93 Co66 2.096 . S
O93 C74 1.247 . S
C94 O91 1.244 . S
C94 O92 1.240 . S
H95 C69 0.931 . S
H96 C78 0.931 . S
H97 C82 0.929 . S
H98 C84 0.930 . S
Co99 N103 2.148 . S
Co99 N109 2.128 . S
Co99 N119 2.194 . S
Co99 O124 2.351 . S
Co99 O125 2.155 . S
Co99 O126 2.096 . S
C100 N103 1.301 . S
C100 N104 1.328 . S
C100 H105 0.930 . S
C101 C102 1.333 . S
C101 N103 1.317 . S
C101 H106 0.930 . S
C102 C101 1.333 . S
C102 N104 1.350 . S
C102 H128 0.931 . S
N103 Co99 2.148 . S
N103 C100 1.301 . S
N103 C101 1.317 . S
N104 C100 1.328 . S
N104 C102 1.350 . S
H105 C100 0.930 . S
H106 C101 0.930 . S
C107 O108 1.224 . S
C107 O126 1.247 . S
O108 C107 1.224 . S
N109 Co99 2.128 . S
N109 C110 1.355 . S
N109 C112 1.311 . S
C110 N109 1.355 . S
C110 C111 1.363 . S
C110 H122 0.929 . S
C111 C110 1.363 . S
C111 N113 1.375 . S
C111 H129 0.931 . S
C112 N109 1.311 . S
C112 N113 1.347 . S
C112 H123 0.929 . S
N113 C111 1.375 . S
N113 C112 1.347 . S
C114 C117 1.365 . S
C114 N119 1.328 . S
C114 H120 0.929 . S
C115 C116 1.362 . S
C115 C118 1.378 . S
C115 H130 0.929 . S
C116 C115 1.362 . S
C116 C117 1.366 . S
C117 C114 1.365 . S
C117 C116 1.366 . S
C117 H131 0.930 . S
C118 C115 1.378 . S
C118 N119 1.315 . S
C118 H121 0.930 . S
N119 Co99 2.194 . S
N119 C114 1.328 . S
N119 C118 1.315 . S
H120 C114 0.929 . S
H121 C118 0.930 . S
H122 C110 0.929 . S
H123 C112 0.929 . S
O124 Co99 2.351 . S
O124 C127 1.244 . S
O125 Co99 2.155 . S
O125 C127 1.240 . S
O126 Co99 2.096 . S
O126 C107 1.247 . S
C127 O124 1.244 . S
C127 O125 1.240 . S
H128 C102 0.931 . S
H129 C111 0.931 . S
H130 C115 0.929 . S
H131 C117 0.930 . S
Co132 N136 2.148 . S
Co132 N142 2.128 . S
Co132 N152 2.194 1_556 S
Co132 O157 2.351 . S
Co132 O158 2.155 . S
Co132 O159 2.096 . S
C133 N136 1.301 . S
C133 N137 1.328 . S
C133 H138 0.930 . S
C134 C135 1.333 . S
C134 N136 1.317 . S
C134 H139 0.930 . S
C135 C134 1.333 . S
C135 N137 1.350 . S
C135 H161 0.931 . S
N136 Co132 2.148 . S
N136 C133 1.301 . S
N136 C134 1.317 . S
N137 C133 1.328 . S
N137 C135 1.350 . S
H138 C133 0.930 . S
H139 C134 0.930 . S
C140 O141 1.224 . S
C140 O159 1.247 1_554 S
O141 C140 1.224 . S
N142 Co132 2.128 . S
N142 C143 1.355 1_546 S
N142 C145 1.311 1_545 S
C143 N142 1.355 1_564 S
C143 C144 1.363 . S
C143 H155 0.929 1_565 S
C144 C143 1.363 . S
C144 N146 1.375 . S
C144 H162 0.931 . S
C145 N142 1.311 1_565 S
C145 N146 1.347 1_556 S
C145 H156 0.929 . S
N146 C144 1.375 . S
N146 C145 1.347 1_554 S
C147 C150 1.365 . S
C147 N152 1.328 . S
C147 H153 0.929 . S
C148 C149 1.362 . S
C148 C151 1.378 . S
C148 H163 0.929 . S
C149 C148 1.362 . S
C149 C150 1.366 . S
C150 C147 1.365 . S
C150 C149 1.366 . S
C150 H164 0.930 . S
C151 C148 1.378 . S
C151 N152 1.315 . S
C151 H154 0.930 . S
N152 Co132 2.194 1_554 S
N152 C147 1.328 . S
N152 C151 1.315 . S
H153 C147 0.929 . S
H154 C151 0.930 . S
H155 C143 0.929 1_545 S
H156 C145 0.929 . S
O157 Co132 2.351 . S
O157 C160 1.244 . S
O158 Co132 2.155 . S
O158 C160 1.240 . S
O159 Co132 2.096 . S
O159 C140 1.247 1_556 S
C160 O157 1.244 . S
C160 O158 1.240 . S
H161 C135 0.931 . S
H162 C144 0.931 . S
H163 C148 0.929 . S
H164 C150 0.930 . S
Co165 N169 2.148 . S
Co165 N175 2.128 . S
Co165 N185 2.194 . S
Co165 O190 2.351 . S
Co165 O191 2.155 . S
Co165 O192 2.096 . S
C166 N169 1.301 . S
C166 N170 1.328 . S
C166 H171 0.930 . S
C167 C168 1.333 . S
C167 N169 1.317 . S
C167 H172 0.930 . S
C168 C167 1.333 . S
C168 N170 1.350 . S
C168 H194 0.931 . S
N169 Co165 2.148 . S
N169 C166 1.301 . S
N169 C167 1.317 . S
N170 C166 1.328 . S
N170 C168 1.350 . S
H171 C166 0.930 . S
H172 C167 0.930 . S
C173 O174 1.224 . S
C173 O192 1.247 . S
O174 C173 1.224 . S
N175 Co165 2.128 . S
N175 C176 1.355 1_655 S
N175 C178 1.311 1_655 S
C176 N175 1.355 1_455 S
C176 C177 1.363 . S
C176 H188 0.929 1_455 S
C177 C176 1.363 . S
C177 N179 1.375 . S
C177 H195 0.931 . S
C178 N175 1.311 1_455 S
C178 N179 1.347 . S
C178 H189 0.929 . S
N179 C177 1.375 . S
N179 C178 1.347 . S
C180 C183 1.365 . S
C180 N185 1.328 . S
C180 H186 0.929 . S
C181 C182 1.362 . S
C181 C184 1.378 . S
C181 H196 0.929 . S
C182 C181 1.362 . S
C182 C183 1.366 . S
C183 C180 1.365 . S
C183 C182 1.366 . S
C183 H197 0.930 . S
C184 C181 1.378 . S
C184 N185 1.315 . S
C184 H187 0.930 . S
N185 Co165 2.194 . S
N185 C180 1.328 . S
N185 C184 1.315 . S
H186 C180 0.929 . S
H187 C184 0.930 . S
H188 C176 0.929 1_655 S
H189 C178 0.929 . S
O190 Co165 2.351 . S
O190 C193 1.244 . S
O191 Co165 2.155 . S
O191 C193 1.240 . S
O192 Co165 2.096 . S
O192 C173 1.247 . S
C193 O190 1.244 . S
C193 O191 1.240 . S
H194 C168 0.931 . S
H195 C177 0.931 . S
H196 C181 0.929 . S
H197 C183 0.930 . S
Co198 N202 2.148 . S
Co198 N208 2.128 . S
Co198 N218 2.194 1_556 S
Co198 O223 2.351 . S
Co198 O224 2.155 . S
Co198 O225 2.096 . S
C199 N202 1.301 . S
C199 N203 1.328 . S
C199 H204 0.930 . S
C200 C201 1.333 . S
C200 N202 1.317 . S
C200 H205 0.930 . S
C201 C200 1.333 . S
C201 N203 1.350 . S
C201 H227 0.931 . S
N202 Co198 2.148 . S
N202 C199 1.301 . S
N202 C200 1.317 . S
N203 C199 1.328 . S
N203 C201 1.350 . S
H204 C199 0.930 . S
H205 C200 0.930 . S
C206 O207 1.224 . S
C206 O225 1.247 1_554 S
O207 C206 1.224 . S
N208 Co198 2.128 . S
N208 C209 1.355 1_566 S
N208 C211 1.311 1_565 S
C209 N208 1.355 1_544 S
C209 C210 1.363 . S
C209 H221 0.929 1_545 S
C210 C209 1.363 . S
C210 N212 1.375 . S
C210 H228 0.931 . S
C211 N208 1.311 1_545 S
C211 N212 1.347 1_556 S
C211 H222 0.929 . S
N212 C210 1.375 . S
N212 C211 1.347 1_554 S
C213 C216 1.365 . S
C213 N218 1.328 . S
C213 H219 0.929 . S
C214 C215 1.362 . S
C214 C217 1.378 . S
C214 H229 0.929 . S
C215 C214 1.362 . S
C215 C216 1.366 . S
C216 C213 1.365 . S
C216 C215 1.366 . S
C216 H230 0.930 . S
C217 C214 1.378 . S
C217 N218 1.315 . S
C217 H220 0.930 . S
N218 Co198 2.194 1_554 S
N218 C213 1.328 . S
N218 C217 1.315 . S
H219 C213 0.929 . S
H220 C217 0.930 . S
H221 C209 0.929 1_565 S
H222 C211 0.929 . S
O223 Co198 2.351 . S
O223 C226 1.244 . S
O224 Co198 2.155 . S
O224 C226 1.240 . S
O225 Co198 2.096 . S
O225 C206 1.247 1_556 S
C226 O223 1.244 . S
C226 O224 1.240 . S
H227 C201 0.931 . S
H228 C210 0.931 . S
H229 C214 0.929 . S
H230 C216 0.930 . S
Co231 N235 2.148 . S
Co231 N241 2.128 . S
Co231 N251 2.194 . S
Co231 O256 2.351 . S
Co231 O257 2.155 . S
Co231 O258 2.096 . S
C232 N235 1.301 . S
C232 N236 1.328 . S
C232 H237 0.930 . S
C233 C234 1.333 . S
C233 N235 1.317 . S
C233 H238 0.930 . S
C234 C233 1.333 . S
C234 N236 1.350 . S
C234 H260 0.931 . S
N235 Co231 2.148 . S
N235 C232 1.301 . S
N235 C233 1.317 . S
N236 C232 1.328 . S
N236 C234 1.350 . S
H237 C232 0.930 . S
H238 C233 0.930 . S
C239 O240 1.224 . S
C239 O258 1.247 . S
O240 C239 1.224 . S
N241 Co231 2.128 . S
N241 C242 1.355 1_455 S
N241 C244 1.311 1_455 S
C242 N241 1.355 1_655 S
C242 C243 1.363 . S
C242 H254 0.929 1_655 S
C243 C242 1.363 . S
C243 N245 1.375 . S
C243 H261 0.931 . S
C244 N241 1.311 1_655 S
C244 N245 1.347 . S
C244 H255 0.929 . S
N245 C243 1.375 . S
N245 C244 1.347 . S
C246 C249 1.365 . S
C246 N251 1.328 . S
C246 H252 0.929 . S
C247 C248 1.362 . S
C247 C250 1.378 . S
C247 H262 0.929 . S
C248 C247 1.362 . S
C248 C249 1.366 . S
C249 C246 1.365 . S
C249 C248 1.366 . S
C249 H263 0.930 . S
C250 C247 1.378 . S
C250 N251 1.315 . S
C250 H253 0.930 . S
N251 Co231 2.194 . S
N251 C246 1.328 . S
N251 C250 1.315 . S
H252 C246 0.929 . S
H253 C250 0.930 . S
H254 C242 0.929 1_455 S
H255 C244 0.929 . S
O256 Co231 2.351 . S
O256 C259 1.244 . S
O257 Co231 2.155 . S
O257 C259 1.240 . S
O258 Co231 2.096 . S
O258 C239 1.247 . S
C259 O256 1.244 . S
C259 O257 1.240 . S
H260 C234 0.931 . S
H261 C243 0.931 . S
H262 C247 0.929 . S
H263 C249 0.930 . S
C264 C265 1.170 . S
C264 C266 1.380 . S
C265 C264 1.170 . S
C266 C264 1.380 . S
C266 C267 1.170 . S
C267 C266 1.170 . S
C268 C269 1.170 . S
C268 C270 1.380 . S
C269 C268 1.170 . S
C270 C268 1.380 . S
C270 C271 1.170 . S
C271 C270 1.170 . S
C272 C273 1.170 . S
C272 C274 1.380 . S
C273 C272 1.170 . S
C274 C272 1.380 . S
C274 C275 1.170 . S
C275 C274 1.170 . S
C276 C277 1.170 . S
C276 C278 1.380 . S
C277 C276 1.170 . S
C278 C276 1.380 . S
C278 C279 1.170 . S
C279 C278 1.170 . S
C280 C281 1.170 . S
C280 C282 1.380 . S
C281 C280 1.170 . S
C282 C280 1.380 . S
C282 C283 1.170 1_554 S
C283 C282 1.170 1_556 S
C284 C285 1.170 . S
C284 C286 1.380 . S
C285 C284 1.170 . S
C286 C284 1.380 . S
C286 C287 1.170 . S
C287 C286 1.170 . S
C288 C289 1.170 . S
C288 C290 1.380 . S
C289 C288 1.170 . S
C290 C288 1.380 . S
C290 C291 1.170 1_554 S
C291 C290 1.170 1_556 S
C292 C293 1.170 . S
C292 C294 1.380 . S
C293 C292 1.170 . S
C294 C292 1.380 . S
C294 C295 1.170 . S
C295 C294 1.170 . S
C296 C297 1.170 . S
C296 C298 1.380 . S
C297 C296 1.170 . S
C298 C296 1.380 . S
C298 C299 1.170 . S
C299 C298 1.170 . S
C300 C301 1.170 . S
C300 C302 1.380 . S
C301 C300 1.170 . S
C302 C300 1.380 . S
C302 C303 1.170 . S
C303 C302 1.170 . S
C304 C305 1.170 . S
C304 C306 1.380 1_465 S
C305 C304 1.170 . S
C306 C304 1.380 1_645 S
C306 C307 1.170 . S
C307 C306 1.170 . S
C308 C309 1.170 . S
C308 C310 1.380 1_665 S
C309 C308 1.170 . S
C310 C308 1.380 1_445 S
C310 C311 1.170 . S
C311 C310 1.170 . S
C312 C313 1.170 . S
C312 C314 1.380 . S
C313 C312 1.170 . S
C314 C312 1.380 . S
C314 C315 1.170 . S
C315 C314 1.170 . S
C316 C317 1.170 . S
C316 C318 1.380 . S
C317 C316 1.170 . S
C318 C316 1.380 . S
C318 C319 1.170 . S
C319 C318 1.170 . S
C320 C321 1.170 . S
C320 C322 1.380 . S
C321 C320 1.170 . S
C322 C320 1.380 . S
C322 C323 1.170 . S
C323 C322 1.170 . S
C324 C325 1.170 . S
C324 C326 1.380 . S
C325 C324 1.170 . S
C326 C324 1.380 . S
C326 C327 1.170 . S
C327 C326 1.170 . S
C328 C329 1.170 . S
C328 C330 1.380 . S
C329 C328 1.170 . S
C330 C328 1.380 . S
C330 C331 1.170 . S
C331 C330 1.170 . S
C332 C333 1.170 . S
C332 C334 1.380 . S
C333 C332 1.170 . S
C334 C332 1.380 . S
C334 C335 1.170 . S
C335 C334 1.170 . S
C336 C337 1.170 . S
C336 C338 1.380 . S
C337 C336 1.170 . S
C338 C336 1.380 . S
C338 C339 1.170 . S
C339 C338 1.170 . S
C340 C341 1.170 . S
C340 C342 1.380 . S
C341 C340 1.170 . S
C342 C340 1.380 . S
C342 C343 1.170 . S
C343 C342 1.170 . S
C265 N212 0.961 . S
C267 N5 0.915 . S
C269 N245 0.960 . S
C271 N38 0.929 . S
C273 N146 0.949 . S
C275 N71 0.943 . S
C277 N179 0.905 . S
C279 N104 0.965 . S
C281 N80 0.918 . S
C283 N137 0.963 . S
C285 N113 0.900 . S
C287 N170 0.961 . S
C289 N14 0.926 . S
C291 N203 0.960 . S
C293 N236 0.951 . S
C295 N47 0.901 . S
C297 C74 2.462 . S
C299 C8 2.462 . S
C301 C41 2.462 . S
C303 C107 2.462 . S
C305 C206 2.460 . S
C307 C140 2.460 . S
C309 C173 2.460 . S
C311 C239 2.460 . S
C313 C28 1.950 . S
C315 C259 1.951 . S
C317 C160 1.953 . S
C319 C61 1.952 . S
C321 C193 1.947 . S
C323 C94 1.946 . S
C325 C226 1.946 . S
C327 C127 1.946 . S
C329 C83 1.191 . S
C331 C182 1.185 . S
C333 C116 1.184 . S
C335 C215 1.178 . S
C337 C248 1.179 . S
C339 C17 1.185 . S
C341 C149 1.201 . S
C343 C50 1.197 . S
