# Generated by pormake.
# Topology hbo, (4)-cn, num edge types: 1
# Building blocks:
#     Node 0, Type 0, BuildingBlock: QUQFOY_clean_sbu_1, # of connection points: 4
#     Node 1, Type 0, BuildingBlock: QUQFOY_clean_sbu_1, # of connection points: 4
#     Node 2, Type 0, BuildingBlock: QUQFOY_clean_sbu_1, # of connection points: 4
#     Node 3, Type 0, BuildingBlock: QUQFOY_clean_sbu_1, # of connection points: 4
#     Node 4, Type 0, BuildingBlock: QUQFOY_clean_sbu_1, # of connection points: 4
#     Node 5, Type 0, BuildingBlock: QUQFOY_clean_sbu_1, # of connection points: 4
#     Node 6, Type 0, BuildingBlock: QUQFOY_clean_sbu_1, # of connection points: 4
#     Node 7, Type 0, BuildingBlock: QUQFOY_clean_sbu_1, # of connection points: 4
#     Node 8, Type 0, BuildingBlock: QUQFOY_clean_sbu_1, # of connection points: 4
#     Node 9, Type 0, BuildingBlock: QUQFOY_clean_sbu_1, # of connection points: 4
#     Node 10, Type 0, BuildingBlock: QUQFOY_clean_sbu_1, # of connection points: 4
#     Node 11, Type 0, BuildingBlock: QUQFOY_clean_sbu_1, # of connection points: 4
#     Node 12, Type 0, BuildingBlock: QUQFOY_clean_sbu_1, # of connection points: 4
#     Node 13, Type 0, BuildingBlock: QUQFOY_clean_sbu_1, # of connection points: 4
#     Node 14, Type 0, BuildingBlock: QUQFOY_clean_sbu_1, # of connection points: 4
#     Node 15, Type 0, BuildingBlock: QUQFOY_clean_sbu_1, # of connection points: 4
#     Node 16, Type 0, BuildingBlock: QUQFOY_clean_sbu_1, # of connection points: 4
#     Node 17, Type 0, BuildingBlock: QUQFOY_clean_sbu_1, # of connection points: 4
#     Node 18, Type 0, BuildingBlock: QUQFOY_clean_sbu_1, # of connection points: 4
#     Node 19, Type 0, BuildingBlock: QUQFOY_clean_sbu_1, # of connection points: 4
#     Node 20, Type 0, BuildingBlock: QUQFOY_clean_sbu_1, # of connection points: 4
#     Node 21, Type 0, BuildingBlock: QUQFOY_clean_sbu_1, # of connection points: 4
#     Node 22, Type 0, BuildingBlock: QUQFOY_clean_sbu_1, # of connection points: 4
#     Node 23, Type 0, BuildingBlock: QUQFOY_clean_sbu_1, # of connection points: 4
#     Edge 24, Type (0, 0), BuildingBlock: KIFKEQ_clean_linker_1, # of connection points: 2
#     Edge 25, Type (0, 0), BuildingBlock: KIFKEQ_clean_linker_1, # of connection points: 2
#     Edge 26, Type (0, 0), BuildingBlock: KIFKEQ_clean_linker_1, # of connection points: 2
#     Edge 27, Type (0, 0), BuildingBlock: KIFKEQ_clean_linker_1, # of connection points: 2
#     Edge 28, Type (0, 0), BuildingBlock: KIFKEQ_clean_linker_1, # of connection points: 2
#     Edge 29, Type (0, 0), BuildingBlock: KIFKEQ_clean_linker_1, # of connection points: 2
#     Edge 30, Type (0, 0), BuildingBlock: KIFKEQ_clean_linker_1, # of connection points: 2
#     Edge 31, Type (0, 0), BuildingBlock: KIFKEQ_clean_linker_1, # of connection points: 2
#     Edge 32, Type (0, 0), BuildingBlock: KIFKEQ_clean_linker_1, # of connection points: 2
#     Edge 33, Type (0, 0), BuildingBlock: KIFKEQ_clean_linker_1, # of connection points: 2
#     Edge 34, Type (0, 0), BuildingBlock: KIFKEQ_clean_linker_1, # of connection points: 2
#     Edge 35, Type (0, 0), BuildingBlock: KIFKEQ_clean_linker_1, # of connection points: 2
#     Edge 36, Type (0, 0), BuildingBlock: KIFKEQ_clean_linker_1, # of connection points: 2
#     Edge 37, Type (0, 0), BuildingBlock: KIFKEQ_clean_linker_1, # of connection points: 2
#     Edge 38, Type (0, 0), BuildingBlock: KIFKEQ_clean_linker_1, # of connection points: 2
#     Edge 39, Type (0, 0), BuildingBlock: KIFKEQ_clean_linker_1, # of connection points: 2
#     Edge 40, Type (0, 0), BuildingBlock: KIFKEQ_clean_linker_1, # of connection points: 2
#     Edge 41, Type (0, 0), BuildingBlock: KIFKEQ_clean_linker_1, # of connection points: 2
#     Edge 42, Type (0, 0), BuildingBlock: KIFKEQ_clean_linker_1, # of connection points: 2
#     Edge 43, Type (0, 0), BuildingBlock: KIFKEQ_clean_linker_1, # of connection points: 2
#     Edge 44, Type (0, 0), BuildingBlock: KIFKEQ_clean_linker_1, # of connection points: 2
#     Edge 45, Type (0, 0), BuildingBlock: KIFKEQ_clean_linker_1, # of connection points: 2
#     Edge 46, Type (0, 0), BuildingBlock: KIFKEQ_clean_linker_1, # of connection points: 2
#     Edge 47, Type (0, 0), BuildingBlock: KIFKEQ_clean_linker_1, # of connection points: 2
#     Edge 48, Type (0, 0), BuildingBlock: KIFKEQ_clean_linker_1, # of connection points: 2
#     Edge 49, Type (0, 0), BuildingBlock: KIFKEQ_clean_linker_1, # of connection points: 2
#     Edge 50, Type (0, 0), BuildingBlock: KIFKEQ_clean_linker_1, # of connection points: 2
#     Edge 51, Type (0, 0), BuildingBlock: KIFKEQ_clean_linker_1, # of connection points: 2
#     Edge 52, Type (0, 0), BuildingBlock: KIFKEQ_clean_linker_1, # of connection points: 2
#     Edge 53, Type (0, 0), BuildingBlock: KIFKEQ_clean_linker_1, # of connection points: 2
#     Edge 54, Type (0, 0), BuildingBlock: KIFKEQ_clean_linker_1, # of connection points: 2
#     Edge 55, Type (0, 0), BuildingBlock: KIFKEQ_clean_linker_1, # of connection points: 2
#     Edge 56, Type (0, 0), BuildingBlock: KIFKEQ_clean_linker_1, # of connection points: 2
#     Edge 57, Type (0, 0), BuildingBlock: KIFKEQ_clean_linker_1, # of connection points: 2
#     Edge 58, Type (0, 0), BuildingBlock: KIFKEQ_clean_linker_1, # of connection points: 2
#     Edge 59, Type (0, 0), BuildingBlock: KIFKEQ_clean_linker_1, # of connection points: 2
#     Edge 60, Type (0, 0), BuildingBlock: KIFKEQ_clean_linker_1, # of connection points: 2
#     Edge 61, Type (0, 0), BuildingBlock: KIFKEQ_clean_linker_1, # of connection points: 2
#     Edge 62, Type (0, 0), BuildingBlock: KIFKEQ_clean_linker_1, # of connection points: 2
#     Edge 63, Type (0, 0), BuildingBlock: KIFKEQ_clean_linker_1, # of connection points: 2
#     Edge 64, Type (0, 0), BuildingBlock: KIFKEQ_clean_linker_1, # of connection points: 2
#     Edge 65, Type (0, 0), BuildingBlock: KIFKEQ_clean_linker_1, # of connection points: 2
#     Edge 66, Type (0, 0), BuildingBlock: KIFKEQ_clean_linker_1, # of connection points: 2
#     Edge 67, Type (0, 0), BuildingBlock: KIFKEQ_clean_linker_1, # of connection points: 2
#     Edge 68, Type (0, 0), BuildingBlock: KIFKEQ_clean_linker_1, # of connection points: 2
#     Edge 69, Type (0, 0), BuildingBlock: KIFKEQ_clean_linker_1, # of connection points: 2
#     Edge 70, Type (0, 0), BuildingBlock: KIFKEQ_clean_linker_1, # of connection points: 2
#     Edge 71, Type (0, 0), BuildingBlock: KIFKEQ_clean_linker_1, # of connection points: 2
# Relax obj value: 0.234
# Max RMSD: 0.214
# Mean RMSD: 0.214
data_MOF--net-hbo--node1-QUQFOY_clean_sbu_1--edge1-KIFKEQ_clean_linker_1
_symmetry_space_group_name_H-M    P1
_symmetry_Int_Tables_number       1
_symmetry_cell_setting            triclinic
loop_
_symmetry_equiv_pos_as_xyz
'x, y, z'
_cell_length_a     55.653412
_cell_length_b     55.703866
_cell_length_c     55.641954
_cell_angle_alpha  89.993664
_cell_angle_beta   90.007327
_cell_angle_gamma 89.998033
loop_
_atom_site_label
_atom_site_type_symbol
_atom_site_fract_x
_atom_site_fract_y
_atom_site_fract_z
_atom_type_partial_charge
O0 O 0.13451 0.32057 0.26942 0.0
Cd1 Cd 0.1308 0.34524 0.24191 0.0
Cd2 Cd 0.15735 0.37162 0.27144 0.0
O3 O 0.15282 0.34395 0.2956 0.0
O4 O 0.10281 0.33323 0.22301 0.0
O5 O 0.1027 0.36793 0.24233 0.0
C6 C 0.09133 0.35225 0.22957 0.0
C7 C 0.14735 0.41124 0.27997 0.0
C8 C 0.14366 0.32379 0.29011 0.0
C9 C 0.18027 0.35718 0.22491 0.0
O10 O 0.18329 0.36623 0.24566 0.0
O11 O 0.15979 0.34904 0.21878 0.0
O12 O 0.16606 0.40131 0.28941 0.0
O13 O 0.13376 0.39827 0.26634 0.0
O14 O 0.13271 0.68203 0.73799 0.0
Cd15 Cd 0.12832 0.65747 0.76549 0.0
Cd16 Cd 0.15594 0.63019 0.73761 0.0
O17 O 0.15217 0.65789 0.71333 0.0
O18 O 0.09901 0.66719 0.78377 0.0
O19 O 0.10142 0.63375 0.76241 0.0
C20 C 0.08882 0.64803 0.77564 0.0
C21 C 0.14744 0.59056 0.72729 0.0
C22 C 0.14278 0.6782 0.71784 0.0
C23 C 0.17709 0.64553 0.78472 0.0
O24 O 0.18081 0.63564 0.76447 0.0
O25 O 0.15651 0.6542 0.78965 0.0
O26 O 0.16636 0.60126 0.71923 0.0
O27 O 0.13294 0.60265 0.74075 0.0
O28 O 0.81664 0.63383 0.2415 0.0
Cd29 Cd 0.84189 0.62842 0.26797 0.0
Cd30 Cd 0.86944 0.65482 0.23927 0.0
O31 O 0.84098 0.65119 0.21552 0.0
O32 O 0.83237 0.59903 0.28612 0.0
O33 O 0.86523 0.6014 0.2638 0.0
C34 C 0.8512 0.58878 0.27729 0.0
C35 C 0.90885 0.64614 0.22808 0.0
C36 C 0.82031 0.64306 0.22093 0.0
C37 C 0.8557 0.67642 0.28688 0.0
O38 O 0.86542 0.67977 0.26647 0.0
O39 O 0.84626 0.65627 0.29198 0.0
O40 O 0.89804 0.66505 0.2202 0.0
O41 O 0.89692 0.63165 0.24171 0.0
O42 O 0.82033 0.36642 0.76947 0.0
Cd43 Cd 0.84223 0.3711 0.73996 0.0
Cd44 Cd 0.87193 0.34281 0.76464 0.0
O45 O 0.84506 0.34354 0.79028 0.0
O46 O 0.82957 0.4002 0.72343 0.0
O47 O 0.86596 0.39828 0.73931 0.0
C48 C 0.84965 0.41064 0.72838 0.0
C49 C 0.91155 0.35221 0.77422 0.0
C50 C 0.82496 0.35417 0.78817 0.0
C51 C 0.85393 0.32353 0.71768 0.0
O52 O 0.86678 0.3197 0.73618 0.0
O53 O 0.84282 0.34334 0.71525 0.0
O54 O 0.90188 0.33236 0.78123 0.0
O55 O 0.89842 0.36715 0.76228 0.0
O56 O 0.23073 0.17875 0.36711 0.0
Cd57 Cd 0.25994 0.15633 0.3709 0.0
Cd58 Cd 0.23437 0.12787 0.34208 0.0
O59 O 0.20913 0.15504 0.34389 0.0
O60 O 0.27713 0.16869 0.39976 0.0
O61 O 0.26087 0.1325 0.39801 0.0
C62 C 0.27216 0.14865 0.41025 0.0
C63 C 0.22485 0.08835 0.3517 0.0
C64 C 0.21176 0.17478 0.35505 0.0
C65 C 0.28137 0.14543 0.32265 0.0
O66 O 0.26256 0.13312 0.31864 0.0
O67 O 0.28426 0.15586 0.34279 0.0
O68 O 0.21741 0.09803 0.33199 0.0
O69 O 0.2372 0.10143 0.36636 0.0
O70 O 0.36413 0.7599 0.81872 0.0
Cd71 Cd 0.36948 0.73474 0.84541 0.0
Cd72 Cd 0.34416 0.76592 0.87082 0.0
O73 O 0.3501 0.78865 0.84203 0.0
O74 O 0.39833 0.71545 0.83612 0.0
O75 O 0.39735 0.73963 0.86766 0.0
C76 C 0.40936 0.7252 0.85405 0.0
C77 C 0.35359 0.77609 0.91035 0.0
C78 C 0.35689 0.78138 0.82144 0.0
C79 C 0.32042 0.71896 0.85888 0.0
O80 O 0.31762 0.74046 0.86606 0.0
O81 O 0.34097 0.71181 0.85186 0.0
O82 O 0.33538 0.78559 0.89959 0.0
O83 O 0.36692 0.76143 0.89832 0.0
O84 O 0.76824 0.82055 0.36565 0.0
Cd85 Cd 0.73927 0.84336 0.37031 0.0
Cd86 Cd 0.76537 0.87139 0.34167 0.0
O87 O 0.7907 0.84452 0.3435 0.0
O88 O 0.72253 0.83106 0.39947 0.0
O89 O 0.73933 0.867 0.39764 0.0
C90 C 0.72802 0.85094 0.40999 0.0
C91 C 0.77526 0.91122 0.34965 0.0
C92 C 0.78754 0.82454 0.35407 0.0
C93 C 0.71795 0.85425 0.32227 0.0
O94 O 0.73739 0.86551 0.31821 0.0
O95 O 0.71428 0.84469 0.34271 0.0
O96 O 0.78154 0.90097 0.32984 0.0
O97 O 0.76389 0.89851 0.3654 0.0
O98 O 0.63611 0.23892 0.81916 0.0
Cd99 Cd 0.6307 0.26507 0.84474 0.0
Cd100 Cd 0.65779 0.23616 0.87144 0.0
O101 O 0.65449 0.21281 0.84263 0.0
O102 O 0.60145 0.28334 0.83506 0.0
O103 O 0.60344 0.26102 0.86793 0.0
C104 C 0.591 0.27462 0.85384 0.0
C105 C 0.64958 0.22427 0.91079 0.0
C106 C 0.64582 0.21849 0.82223 0.0
C107 C 0.67865 0.28432 0.85813 0.0
O108 O 0.68222 0.26388 0.86766 0.0
O109 O 0.65837 0.28932 0.84889 0.0
O110 O 0.66903 0.21768 0.90003 0.0
O111 O 0.63427 0.23692 0.89879 0.0
O112 O 0.26123 0.86559 0.68281 0.0
Cd113 Cd 0.23383 0.87127 0.6586 0.0
Cd114 Cd 0.26012 0.84283 0.63064 0.0
O115 O 0.28473 0.8449 0.65853 0.0
O116 O 0.21672 0.90106 0.66855 0.0
O117 O 0.23716 0.89787 0.63454 0.0
C118 C 0.22448 0.91083 0.64901 0.0
C119 C 0.27155 0.85004 0.59095 0.0
C120 C 0.2808 0.85447 0.67893 0.0
C121 C 0.21186 0.82413 0.64653 0.0
O122 O 0.23135 0.81981 0.63544 0.0
O123 O 0.20852 0.8444 0.65644 0.0
O124 O 0.27723 0.83035 0.60175 0.0
O125 O 0.25997 0.8661 0.60303 0.0
O126 O 0.68075 0.73752 0.13731 0.0
Cd127 Cd 0.65472 0.76338 0.13173 0.0
Cd128 Cd 0.62871 0.73319 0.15747 0.0
O129 O 0.65708 0.70978 0.15276 0.0
O130 O 0.66461 0.78216 0.1028 0.0
O131 O 0.63226 0.75908 0.10387 0.0
C132 C 0.64632 0.77305 0.09183 0.0
C133 C 0.58909 0.72251 0.14911 0.0
C134 C 0.67769 0.71637 0.14541 0.0
C135 C 0.64155 0.78049 0.18033 0.0
O136 O 0.63357 0.75931 0.1833 0.0
O137 O 0.64917 0.78707 0.15981 0.0
O138 O 0.59991 0.71467 0.16806 0.0
O139 O 0.60115 0.73575 0.13437 0.0
O140 O 0.73934 0.13362 0.68256 0.0
Cd141 Cd 0.76677 0.12849 0.65828 0.0
Cd142 Cd 0.73903 0.15588 0.63072 0.0
O143 O 0.71461 0.15327 0.65869 0.0
O144 O 0.78391 0.09916 0.66944 0.0
O145 O 0.76512 0.10146 0.63446 0.0
C146 C 0.77717 0.08887 0.64979 0.0
C147 C 0.72775 0.1484 0.59105 0.0
C148 C 0.71932 0.14401 0.67906 0.0
C149 C 0.78689 0.17629 0.64618 0.0
O150 O 0.76703 0.17981 0.63544 0.0
O151 O 0.79128 0.15612 0.65593 0.0
O152 O 0.72151 0.16789 0.6019 0.0
O153 O 0.73977 0.13263 0.60309 0.0
O154 O 0.31905 0.26556 0.13642 0.0
Cd155 Cd 0.34266 0.23778 0.13034 0.0
Cd156 Cd 0.37074 0.2638 0.15878 0.0
O157 O 0.34328 0.28887 0.1573 0.0
O158 O 0.33042 0.22166 0.10086 0.0
O159 O 0.36605 0.23917 0.10283 0.0
C160 C 0.3501 0.22787 0.09032 0.0
C161 C 0.41057 0.27423 0.15097 0.0
C162 C 0.32288 0.28499 0.14774 0.0
C163 C 0.35429 0.21569 0.17749 0.0
O164 O 0.36555 0.23509 0.18174 0.0
O165 O 0.34438 0.21234 0.15718 0.0
O166 O 0.4002 0.28015 0.17084 0.0
O167 O 0.39795 0.26304 0.13503 0.0
O168 O 0.86516 0.68139 0.73338 0.0
Cd169 Cd 0.86972 0.65712 0.76093 0.0
Cd170 Cd 0.84327 0.62952 0.73236 0.0
O171 O 0.84712 0.65717 0.70781 0.0
O172 O 0.89825 0.66892 0.77913 0.0
O173 O 0.89741 0.63401 0.76021 0.0
C174 C 0.90924 0.64959 0.77267 0.0
C175 C 0.85278 0.58991 0.72295 0.0
C176 C 0.85581 0.67767 0.71288 0.0
C177 C 0.82098 0.64469 0.77922 0.0
O178 O 0.8179 0.63444 0.75903 0.0
O179 O 0.84119 0.65402 0.78443 0.0
O180 O 0.83382 0.60007 0.7143 0.0
O181 O 0.86685 0.6026 0.73633 0.0
O182 O 0.86631 0.3182 0.26598 0.0
Cd183 Cd 0.87206 0.34 0.23659 0.0
Cd184 Cd 0.8422 0.36975 0.25932 0.0
O185 O 0.84167 0.34282 0.28489 0.0
O186 O 0.90241 0.32925 0.22092 0.0
O187 O 0.89825 0.36471 0.23846 0.0
C188 C 0.91172 0.3495 0.22726 0.0
C189 C 0.84897 0.40951 0.27059 0.0
C190 C 0.85279 0.3229 0.28378 0.0
C191 C 0.82572 0.35098 0.21153 0.0
O192 O 0.82105 0.3644 0.22939 0.0
O193 O 0.84556 0.3397 0.21051 0.0
O194 O 0.82876 0.39902 0.27485 0.0
O195 O 0.86573 0.39713 0.26042 0.0
O196 O 0.18221 0.36586 0.76379 0.0
Cd197 Cd 0.1598 0.37141 0.73484 0.0
Cd198 Cd 0.13068 0.3425 0.75923 0.0
O199 O 0.15799 0.34232 0.78445 0.0
O200 O 0.17192 0.40118 0.71926 0.0
O201 O 0.13575 0.3983 0.73554 0.0
C202 C 0.15181 0.41122 0.72488 0.0
C203 C 0.09099 0.34995 0.77035 0.0
C204 C 0.17803 0.35306 0.78222 0.0
C205 C 0.1482 0.32474 0.71129 0.0
O206 O 0.13552 0.32055 0.72981 0.0
O207 O 0.15931 0.34458 0.7092 0.0
O208 O 0.10134 0.32982 0.77524 0.0
O209 O 0.10353 0.36634 0.75975 0.0
O210 O 0.17846 0.63522 0.22864 0.0
Cd211 Cd 0.15771 0.63001 0.25888 0.0
Cd212 Cd 0.12814 0.66024 0.23659 0.0
O213 O 0.15449 0.66093 0.2104 0.0
O214 O 0.17093 0.60047 0.27401 0.0
O215 O 0.13375 0.60298 0.26019 0.0
C216 C 0.15049 0.59031 0.27007 0.0
C217 C 0.08822 0.65233 0.22681 0.0
C218 C 0.17401 0.64908 0.21106 0.0
C219 C 0.14793 0.67651 0.28399 0.0
O220 O 0.13411 0.68128 0.26645 0.0
O221 O 0.15916 0.65665 0.28471 0.0
O222 O 0.098 0.67277 0.22202 0.0
O223 O 0.10144 0.63596 0.23662 0.0
O224 O 0.76007 0.8179 0.63323 0.0
Cd225 Cd 0.73426 0.84402 0.629 0.0
Cd226 Cd 0.76515 0.87021 0.65444 0.0
O227 O 0.78795 0.84133 0.64879 0.0
O228 O 0.71471 0.83531 0.60014 0.0
O229 O 0.73837 0.8672 0.60182 0.0
C230 C 0.72401 0.85373 0.58958 0.0
C231 C 0.77596 0.90958 0.6452 0.0
C232 C 0.78132 0.82087 0.64106 0.0
C233 C 0.71832 0.85754 0.67825 0.0
O234 O 0.73933 0.86613 0.68084 0.0
O235 O 0.71172 0.84914 0.65804 0.0
O236 O 0.78508 0.89867 0.66351 0.0
O237 O 0.76134 0.89777 0.63162 0.0
O238 O 0.63484 0.23802 0.18206 0.0
Cd239 Cd 0.62994 0.26394 0.15614 0.0
Cd240 Cd 0.65597 0.23389 0.12959 0.0
O241 O 0.65137 0.21083 0.15848 0.0
O242 O 0.60115 0.28317 0.16565 0.0
O243 O 0.60235 0.26006 0.13331 0.0
C244 C 0.59032 0.27421 0.1472 0.0
C245 C 0.64647 0.22314 0.09024 0.0
C246 C 0.64344 0.2171 0.179 0.0
C247 C 0.67874 0.28112 0.14238 0.0
O248 O 0.68175 0.26031 0.13348 0.0
O249 O 0.65848 0.28709 0.15112 0.0
O250 O 0.66514 0.21441 0.10086 0.0
O251 O 0.63266 0.23729 0.10236 0.0
O252 O 0.23851 0.18095 0.63284 0.0
Cd253 Cd 0.26607 0.1566 0.62867 0.0
Cd254 Cd 0.23869 0.12928 0.65688 0.0
O255 O 0.21495 0.15776 0.65469 0.0
O256 O 0.28408 0.16609 0.59922 0.0
O257 O 0.26327 0.13233 0.60222 0.0
C258 C 0.27629 0.14661 0.58938 0.0
C259 C 0.22662 0.08997 0.64922 0.0
C260 C 0.21898 0.17766 0.64422 0.0
C261 C 0.28671 0.1441 0.67661 0.0
O262 O 0.26706 0.13312 0.68038 0.0
O263 O 0.29053 0.15431 0.65653 0.0
O264 O 0.22073 0.10077 0.66886 0.0
O265 O 0.23867 0.1019 0.6334 0.0
O266 O 0.36545 0.75963 0.1816 0.0
Cd267 Cd 0.37013 0.73378 0.15557 0.0
Cd268 Cd 0.3442 0.76413 0.12928 0.0
O269 O 0.34849 0.78692 0.15842 0.0
O270 O 0.39897 0.71454 0.16468 0.0
O271 O 0.39739 0.73776 0.1324 0.0
C272 C 0.40956 0.72353 0.1461 0.0
C273 C 0.35247 0.77606 0.08996 0.0
C274 C 0.3567 0.78053 0.17879 0.0
C275 C 0.3216 0.71651 0.14173 0.0
O276 O 0.31877 0.73732 0.13278 0.0
O277 O 0.34172 0.71052 0.15073 0.0
O278 O 0.33342 0.78334 0.10099 0.0
O279 O 0.36743 0.76278 0.10171 0.0
O280 O 0.73742 0.13495 0.31965 0.0
Cd281 Cd 0.76384 0.13004 0.34509 0.0
Cd282 Cd 0.73486 0.15696 0.37184 0.0
O283 O 0.71113 0.1526 0.34345 0.0
O284 O 0.78276 0.10123 0.3352 0.0
O285 O 0.76048 0.10259 0.36812 0.0
C286 C 0.77432 0.09053 0.35395 0.0
C287 C 0.72493 0.14741 0.41138 0.0
C288 C 0.71678 0.14414 0.32296 0.0
C289 C 0.7822 0.17866 0.35782 0.0
O290 O 0.76167 0.18222 0.36721 0.0
O291 O 0.78752 0.15821 0.34918 0.0
O292 O 0.7162 0.16625 0.40108 0.0
O293 O 0.73864 0.13351 0.39887 0.0
O294 O 0.31998 0.26233 0.86535 0.0
Cd295 Cd 0.34379 0.23454 0.87082 0.0
Cd296 Cd 0.37205 0.26037 0.84213 0.0
O297 O 0.3439 0.28464 0.84295 0.0
O298 O 0.33341 0.21757 0.90059 0.0
O299 O 0.36766 0.23759 0.89767 0.0
C300 C 0.35289 0.2252 0.91057 0.0
C301 C 0.41151 0.27199 0.85006 0.0
C302 C 0.32375 0.28132 0.85325 0.0
C303 C 0.35638 0.21218 0.82368 0.0
O304 O 0.36794 0.23139 0.81949 0.0
O305 O 0.34582 0.20923 0.84373 0.0
O306 O 0.40112 0.27742 0.83006 0.0
O307 O 0.39909 0.26066 0.86605 0.0
O308 O 0.26566 0.86437 0.32 0.0
Cd309 Cd 0.23849 0.86931 0.34461 0.0
Cd310 Cd 0.26686 0.84224 0.37173 0.0
O311 O 0.29123 0.84581 0.34383 0.0
O312 O 0.22053 0.89789 0.33269 0.0
O313 O 0.23963 0.89714 0.36755 0.0
C314 C 0.22721 0.90896 0.35193 0.0
C315 C 0.27639 0.85182 0.41133 0.0
C316 C 0.28603 0.85466 0.3234 0.0
C317 C 0.21954 0.82085 0.35686 0.0
O318 O 0.23978 0.81733 0.36688 0.0
O319 O 0.21456 0.84121 0.34778 0.0
O320 O 0.28486 0.83275 0.40125 0.0
O321 O 0.26315 0.86596 0.39856 0.0
O322 O 0.68004 0.73239 0.86538 0.0
Cd323 Cd 0.6593 0.76238 0.8717 0.0
Cd324 Cd 0.62906 0.74077 0.84144 0.0
O325 O 0.65547 0.71466 0.83987 0.0
O326 O 0.67229 0.77646 0.90192 0.0
O327 O 0.63522 0.76248 0.89869 0.0
C328 C 0.65186 0.77188 0.91186 0.0
C329 C 0.58909 0.73037 0.84863 0.0
C330 C 0.67528 0.71511 0.85125 0.0
C331 C 0.64904 0.7884 0.82581 0.0
O332 O 0.63499 0.77107 0.82101 0.0
O333 O 0.66057 0.78877 0.84554 0.0
O334 O 0.59914 0.72634 0.82815 0.0
O335 O 0.60202 0.73983 0.86543 0.0
H336 H 0.18404 0.55876 0.28635 0.0
H337 H 0.10925 0.56355 0.26611 0.0
H338 H 0.17994 0.51585 0.29192 0.0
H339 H 0.10481 0.52037 0.27262 0.0
H340 H 0.11841 0.44018 0.2529 0.0
H341 H 0.11652 0.48385 0.25373 0.0
H342 H 0.16384 0.48462 0.31537 0.0
H343 H 0.16654 0.44103 0.31378 0.0
C344 C 0.16656 0.5507 0.2835 0.0
C345 C 0.14701 0.56457 0.27564 0.0
C346 C 0.16413 0.52602 0.28691 0.0
C347 C 0.14201 0.51452 0.28278 0.0
C348 C 0.1222 0.52855 0.27566 0.0
C349 C 0.12469 0.55332 0.27206 0.0
C350 C 0.1281 0.44968 0.26686 0.0
C351 C 0.1429 0.43722 0.28306 0.0
C352 C 0.12693 0.47476 0.26742 0.0
C353 C 0.14032 0.48787 0.2844 0.0
C354 C 0.15379 0.47519 0.30164 0.0
C355 C 0.15522 0.45017 0.30085 0.0
H356 H 0.93649 0.60897 0.76703 0.0
H357 H 0.94055 0.683 0.78972 0.0
H358 H 0.97988 0.60507 0.77209 0.0
H359 H 0.98377 0.67959 0.79363 0.0
H360 H 0.06036 0.66752 0.81046 0.0
H361 H 0.01687 0.66447 0.81412 0.0
H362 H 0.01522 0.61702 0.75259 0.0
H363 H 0.05879 0.61911 0.7499 0.0
C364 C 0.94664 0.62437 0.77322 0.0
C365 C 0.9351 0.64631 0.7779 0.0
C366 C 0.97156 0.62221 0.77596 0.0
C367 C 0.98553 0.64204 0.78313 0.0
C368 C 0.97374 0.66375 0.7885 0.0
C369 C 0.94886 0.66579 0.78609 0.0
C370 C 0.05069 0.65611 0.798 0.0
C371 C 0.06294 0.64372 0.77978 0.0
C372 C 0.02571 0.6545 0.79995 0.0
C373 C 0.01232 0.64083 0.7834 0.0
C374 C 0.0248 0.62753 0.76586 0.0
C375 C 0.04984 0.62882 0.7642 0.0
H376 H 0.89005 0.43651 0.26715 0.0
H377 H 0.81489 0.44095 0.286 0.0
H378 H 0.89403 0.47979 0.27307 0.0
H379 H 0.81853 0.484 0.29093 0.0
H380 H 0.83093 0.55962 0.31106 0.0
H381 H 0.83367 0.51606 0.31367 0.0
H382 H 0.88262 0.51567 0.25331 0.0
H383 H 0.8807 0.55929 0.25153 0.0
C384 C 0.87442 0.4467 0.27267 0.0
C385 C 0.85214 0.43532 0.27601 0.0
C386 C 0.87665 0.47153 0.27592 0.0
C387 C 0.8566 0.48551 0.28241 0.0
C388 C 0.8345 0.47389 0.28638 0.0
C389 C 0.83235 0.44913 0.28335 0.0
C390 C 0.84259 0.55023 0.29863 0.0
C391 C 0.8554 0.56283 0.28094 0.0
C392 C 0.84404 0.52523 0.29999 0.0
C393 C 0.85803 0.51221 0.28343 0.0
C394 C 0.87182 0.52501 0.26652 0.0
C395 C 0.87063 0.55006 0.2654 0.0
H396 H 0.06415 0.39108 0.76592 0.0
H397 H 0.0592 0.31628 0.7858 0.0
H398 H 0.02074 0.39525 0.7711 0.0
H399 H 0.01608 0.32004 0.78989 0.0
H400 H 0.94121 0.38203 0.74901 0.0
H401 H 0.98488 0.3841 0.75139 0.0
H402 H 0.98374 0.33513 0.81172 0.0
H403 H 0.94024 0.33213 0.80835 0.0
C404 C 0.05382 0.37557 0.77151 0.0
C405 C 0.0651 0.35334 0.77539 0.0
C406 C 0.02891 0.37791 0.77433 0.0
C407 C 0.01476 0.35799 0.78087 0.0
C408 C 0.02629 0.33595 0.78532 0.0
C409 C 0.05111 0.33371 0.78278 0.0
C410 C 0.95032 0.372 0.76298 0.0
C411 C 0.9374 0.35666 0.77827 0.0
C412 C 0.97539 0.37327 0.76446 0.0
C413 C 0.988 0.35947 0.78152 0.0
C414 C 0.97477 0.34546 0.79789 0.0
C415 C 0.9498 0.34386 0.79611 0.0
H416 H 0.11057 0.43752 0.73108 0.0
H417 H 0.18486 0.44371 0.70948 0.0
H418 H 0.10596 0.48099 0.72749 0.0
H419 H 0.18068 0.48689 0.70695 0.0
H420 H 0.16723 0.56338 0.69171 0.0
H421 H 0.16476 0.52002 0.68684 0.0
H422 H 0.11752 0.51596 0.74843 0.0
H423 H 0.11906 0.55946 0.75239 0.0
C424 C 0.12587 0.44814 0.72544 0.0
C425 C 0.1481 0.43718 0.72065 0.0
C426 C 0.12329 0.47308 0.72354 0.0
C427 C 0.14296 0.4876 0.71703 0.0
C428 C 0.16497 0.47641 0.71157 0.0
C429 C 0.16744 0.45155 0.71321 0.0
C430 C 0.15601 0.55322 0.70394 0.0
C431 C 0.14354 0.56476 0.72257 0.0
C432 C 0.15471 0.52832 0.70128 0.0
C433 C 0.14129 0.51431 0.7175 0.0
C434 C 0.12787 0.52607 0.73544 0.0
C435 C 0.12885 0.55105 0.73782 0.0
H436 H 0.94004 0.61722 0.25247 0.0
H437 H 0.93602 0.6668 0.19295 0.0
H438 H 0.98361 0.61617 0.24873 0.0
H439 H 0.97948 0.66489 0.18835 0.0
H440 H 0.05531 0.68547 0.21251 0.0
H441 H 0.01217 0.6808 0.2095 0.0
H442 H 0.01896 0.60559 0.2276 0.0
H443 H 0.06238 0.61064 0.23163 0.0
C444 C 0.94845 0.62741 0.23818 0.0
C445 C 0.93467 0.64235 0.22322 0.0
C446 C 0.97347 0.62673 0.23593 0.0
C447 C 0.98521 0.64073 0.21844 0.0
C448 C 0.97116 0.65438 0.20245 0.0
C449 C 0.94621 0.65536 0.20495 0.0
C450 C 0.04768 0.66786 0.21561 0.0
C451 C 0.06228 0.64847 0.22247 0.0
C452 C 0.02285 0.6651 0.21368 0.0
C453 C 0.01192 0.64279 0.21829 0.0
C454 C 0.02667 0.62313 0.22428 0.0
C455 C 0.05158 0.62597 0.22645 0.0
H456 H 0.8817 0.56014 0.74907 0.0
H457 H 0.83319 0.56111 0.68853 0.0
H458 H 0.8835 0.51652 0.74701 0.0
H459 H 0.83585 0.51758 0.68561 0.0
H460 H 0.81619 0.44229 0.71203 0.0
H461 H 0.82014 0.48535 0.70751 0.0
H462 H 0.89511 0.48069 0.72743 0.0
H463 H 0.89077 0.4374 0.73297 0.0
C464 C 0.87191 0.55105 0.73492 0.0
C465 C 0.85705 0.564 0.71917 0.0
C466 C 0.87302 0.52599 0.73363 0.0
C467 C 0.85954 0.51338 0.71634 0.0
C468 C 0.84596 0.52658 0.69958 0.0
C469 C 0.84456 0.55157 0.70112 0.0
C470 C 0.83361 0.45037 0.7152 0.0
C471 C 0.85312 0.43643 0.72302 0.0
C472 C 0.83595 0.47515 0.71242 0.0
C473 C 0.85797 0.48666 0.71711 0.0
C474 C 0.87778 0.47254 0.72403 0.0
C475 C 0.87535 0.4477 0.72706 0.0
H476 H 0.94061 0.32967 0.19315 0.0
H477 H 0.941 0.37981 0.25226 0.0
H478 H 0.98396 0.33381 0.1892 0.0
H479 H 0.98455 0.38291 0.24945 0.0
H480 H 0.06316 0.3923 0.23481 0.0
H481 H 0.01964 0.39507 0.22997 0.0
H482 H 0.01753 0.32019 0.20941 0.0
H483 H 0.06081 0.31795 0.21298 0.0
C484 C 0.95002 0.34165 0.20526 0.0
C485 C 0.9375 0.35426 0.22313 0.0
C486 C 0.97493 0.34389 0.20316 0.0
C487 C 0.98801 0.35835 0.21928 0.0
C488 C 0.97522 0.3718 0.2365 0.0
C489 C 0.95021 0.36994 0.23824 0.0
C490 C 0.05335 0.3766 0.22885 0.0
C491 C 0.06541 0.3549 0.22432 0.0
C492 C 0.02836 0.3781 0.22626 0.0
C493 C 0.01485 0.35783 0.21944 0.0
C494 C 0.02716 0.33636 0.21424 0.0
C495 C 0.0521 0.33499 0.21645 0.0
H496 H 0.31111 0.16593 0.56092 0.0
H497 H 0.25088 0.1171 0.55962 0.0
H498 H 0.31473 0.16276 0.51743 0.0
H499 H 0.25358 0.11485 0.51601 0.0
H500 H 0.26777 0.10753 0.43702 0.0
H501 H 0.27333 0.10325 0.48036 0.0
H502 H 0.29324 0.17817 0.4849 0.0
H503 H 0.28877 0.18203 0.44179 0.0
C504 C 0.29874 0.15438 0.55131 0.0
C505 C 0.28057 0.14196 0.56361 0.0
C506 C 0.30068 0.15268 0.52635 0.0
C507 C 0.28416 0.13892 0.51303 0.0
C508 C 0.26677 0.12547 0.52556 0.0
C509 C 0.26512 0.12684 0.55061 0.0
C510 C 0.27372 0.12294 0.4473 0.0
C511 C 0.27773 0.14514 0.436 0.0
C512 C 0.27675 0.12055 0.47217 0.0
C513 C 0.28363 0.14037 0.48628 0.0
C514 C 0.28837 0.16234 0.47472 0.0
C515 C 0.28561 0.16464 0.44991 0.0
H516 H 0.38095 0.74944 0.94102 0.0
H517 H 0.33569 0.81232 0.93815 0.0
H518 H 0.38329 0.75297 0.98449 0.0
H519 H 0.33903 0.81674 0.98159 0.0
H520 H 0.31984 0.79476 0.05869 0.0
H521 H 0.32317 0.79791 0.01539 0.0
H522 H 0.39659 0.77268 0.01917 0.0
H523 H 0.39271 0.76841 0.06265 0.0
C524 C 0.37198 0.76439 0.94965 0.0
C525 C 0.3579 0.78043 0.93621 0.0
C526 C 0.37344 0.76653 0.97465 0.0
C527 C 0.36114 0.78502 0.98676 0.0
C528 C 0.34824 0.80191 0.97303 0.0
C529 C 0.34645 0.79951 0.94808 0.0
C530 C 0.33682 0.79018 0.05034 0.0
C531 C 0.35594 0.78114 0.06409 0.0
C532 C 0.33882 0.79214 0.02541 0.0
C533 C 0.36014 0.78544 0.01357 0.0
C534 C 0.37972 0.77754 0.02754 0.0
C535 C 0.37758 0.77526 0.0525 0.0
H536 H 0.71121 0.81769 0.44163 0.0
H537 H 0.73344 0.89184 0.43694 0.0
H538 H 0.70696 0.82153 0.48478 0.0
H539 H 0.72815 0.8961 0.4803 0.0
H540 H 0.75015 0.88226 0.5595 0.0
H541 H 0.74771 0.88413 0.5159 0.0
H542 H 0.68576 0.83729 0.51744 0.0
H543 H 0.68904 0.83453 0.56101 0.0
C544 C 0.71472 0.835 0.44977 0.0
C545 C 0.72284 0.85441 0.43586 0.0
C546 C 0.71209 0.83729 0.47461 0.0
C547 C 0.71723 0.85914 0.48621 0.0
C548 C 0.72442 0.87887 0.4721 0.0
C549 C 0.72731 0.8765 0.44721 0.0
C550 C 0.73579 0.87265 0.55054 0.0
C551 C 0.71998 0.858 0.56365 0.0
C552 C 0.73429 0.87382 0.52548 0.0
C553 C 0.71672 0.8606 0.51298 0.0
C554 C 0.69993 0.8472 0.52634 0.0
C555 C 0.70167 0.84575 0.55136 0.0
H556 H 0.61825 0.24891 0.05958 0.0
H557 H 0.66548 0.18749 0.06247 0.0
H558 H 0.61641 0.24558 0.01606 0.0
H559 H 0.66268 0.18325 0.01899 0.0
H560 H 0.6824 0.20666 0.94248 0.0
H561 H 0.67849 0.20306 0.9857 0.0
H562 H 0.60431 0.22575 0.98094 0.0
H563 H 0.60872 0.23049 0.93755 0.0
C564 C 0.62774 0.23429 0.05094 0.0
C565 C 0.64225 0.21865 0.0644 0.0
C566 C 0.6266 0.23227 0.02592 0.0
C567 C 0.63965 0.2143 0.0138 0.0
C568 C 0.6529 0.19771 0.02755 0.0
C569 C 0.65437 0.2 0.05252 0.0
C570 C 0.66515 0.2106 0.9506 0.0
C571 C 0.64593 0.21905 0.93661 0.0
C572 C 0.66282 0.20836 0.97547 0.0
C573 C 0.64108 0.2142 0.98702 0.0
C574 C 0.62147 0.22155 0.9728 0.0
C575 C 0.62392 0.2241 0.94789 0.0
H576 H 0.25029 0.88081 0.44102 0.0
H577 H 0.31081 0.83233 0.44024 0.0
H578 H 0.25241 0.88285 0.48467 0.0
H579 H 0.31383 0.83527 0.4838 0.0
H580 H 0.28812 0.81644 0.55958 0.0
H581 H 0.29241 0.81995 0.5164 0.0
H582 H 0.27181 0.89472 0.52035 0.0
H583 H 0.26645 0.89078 0.56373 0.0
C584 C 0.26445 0.87108 0.45016 0.0
C585 C 0.28018 0.85617 0.43726 0.0
C586 C 0.26578 0.87233 0.47524 0.0
C587 C 0.28311 0.85896 0.48793 0.0
C588 C 0.29983 0.8453 0.47476 0.0
C589 C 0.29823 0.84374 0.44975 0.0
C590 C 0.28475 0.83372 0.55131 0.0
C591 C 0.27678 0.85328 0.56508 0.0
C592 C 0.2874 0.83582 0.52646 0.0
C593 C 0.28245 0.85764 0.51471 0.0
C594 C 0.27539 0.87752 0.52867 0.0
C595 C 0.27247 0.87532 0.55357 0.0
H596 H 0.66696 0.80749 0.06374 0.0
H597 H 0.61795 0.74745 0.06102 0.0
H598 H 0.66518 0.81098 0.02016 0.0
H599 H 0.61697 0.75017 0.01734 0.0
H600 H 0.61049 0.76677 0.93824 0.0
H601 H 0.60588 0.77086 0.98173 0.0
H602 H 0.68112 0.78931 0.98769 0.0
H603 H 0.68538 0.78616 0.94448 0.0
C604 C 0.65568 0.79512 0.05382 0.0
C605 C 0.64277 0.77706 0.06579 0.0
C606 C 0.65478 0.797 0.02879 0.0
C607 C 0.64126 0.78061 0.01509 0.0
C608 C 0.62742 0.76326 0.02722 0.0
C609 C 0.62807 0.7616 0.05231 0.0
C610 C 0.62592 0.77201 0.94887 0.0
C611 C 0.6483 0.77608 0.9379 0.0
C612 C 0.62334 0.77421 0.97382 0.0
C613 C 0.64313 0.78037 0.98835 0.0
C614 C 0.66533 0.78499 0.97717 0.0
C615 C 0.66784 0.78299 0.9523 0.0
H616 H 0.71061 0.18178 0.55975 0.0
H617 H 0.73383 0.10791 0.56367 0.0
H618 H 0.70678 0.17847 0.51652 0.0
H619 H 0.7289 0.10411 0.52023 0.0
H620 H 0.75108 0.11878 0.44135 0.0
H621 H 0.7484 0.11648 0.48492 0.0
H622 H 0.68628 0.16315 0.48343 0.0
H623 H 0.68988 0.16639 0.43993 0.0
C624 C 0.7144 0.16463 0.55141 0.0
C625 C 0.72269 0.14516 0.56513 0.0
C626 C 0.71202 0.16264 0.52652 0.0
C627 C 0.71756 0.14101 0.51468 0.0
C628 C 0.72488 0.12119 0.5286 0.0
C629 C 0.72756 0.12329 0.55354 0.0
C630 C 0.73666 0.12827 0.45033 0.0
C631 C 0.72088 0.14301 0.43727 0.0
C632 C 0.73501 0.12686 0.47536 0.0
C633 C 0.7173 0.13988 0.48789 0.0
C634 C 0.70057 0.15339 0.47454 0.0
C635 C 0.70249 0.15512 0.44956 0.0
H636 H 0.3166 0.21224 0.05841 0.0
H637 H 0.39098 0.23378 0.06339 0.0
H638 H 0.32033 0.20873 0.01522 0.0
H639 H 0.39517 0.22917 0.01993 0.0
H640 H 0.38188 0.25104 0.9405 0.0
H641 H 0.38367 0.2487 0.98418 0.0
H642 H 0.33581 0.18752 0.98269 0.0
H643 H 0.33308 0.19082 0.93916 0.0
C644 C 0.33394 0.21576 0.0503 0.0
C645 C 0.35346 0.22341 0.06433 0.0
C646 C 0.33616 0.21356 0.02544 0.0
C647 C 0.35809 0.21861 0.0139 0.0
C648 C 0.3779 0.22548 0.02809 0.0
C649 C 0.37557 0.22798 0.05303 0.0
C650 C 0.37203 0.2369 0.94954 0.0
C651 C 0.35709 0.22132 0.93649 0.0
C652 C 0.37313 0.23545 0.97462 0.0
C653 C 0.35959 0.21813 0.98714 0.0
C654 C 0.34594 0.20154 0.9738 0.0
C655 C 0.3445 0.20329 0.9488 0.0
H656 H 0.56253 0.30954 0.16673 0.0
H657 H 0.5595 0.24844 0.11909 0.0
H658 H 0.51903 0.31366 0.16428 0.0
H659 H 0.51593 0.25171 0.11754 0.0
H660 H 0.43727 0.26792 0.11001 0.0
H661 H 0.48074 0.272 0.10564 0.0
H662 H 0.48594 0.29338 0.18019 0.0
H663 H 0.4427 0.29034 0.18412 0.0
C664 C 0.55255 0.29707 0.15562 0.0
C665 C 0.5644 0.27855 0.14327 0.0
C666 C 0.52757 0.29929 0.15434 0.0
C667 C 0.51378 0.28278 0.14103 0.0
C668 C 0.52584 0.26493 0.12778 0.0
C669 C 0.55088 0.26295 0.12876 0.0
C670 C 0.44773 0.27384 0.12532 0.0
C671 C 0.43654 0.27873 0.14742 0.0
C672 C 0.47268 0.27603 0.12289 0.0
C673 C 0.48701 0.28291 0.14258 0.0
C674 C 0.4756 0.28846 0.16446 0.0
C675 C 0.45071 0.28654 0.16679 0.0
H676 H 0.56264 0.73419 0.89009 0.0
H677 H 0.55685 0.71566 0.81493 0.0
H678 H 0.5193 0.72887 0.89466 0.0
H679 H 0.51374 0.71127 0.81918 0.0
H680 H 0.43805 0.69132 0.83318 0.0
H681 H 0.4817 0.68863 0.83495 0.0
H682 H 0.48336 0.74907 0.88369 0.0
H683 H 0.43969 0.75101 0.88268 0.0
C684 C 0.55214 0.72888 0.87459 0.0
C685 C 0.56318 0.72543 0.85213 0.0
C686 C 0.52727 0.72596 0.87716 0.0
C687 C 0.5129 0.7197 0.85729 0.0
C688 C 0.52416 0.71567 0.83502 0.0
C689 C 0.54896 0.71838 0.83251 0.0
C690 C 0.44774 0.70376 0.84459 0.0
C691 C 0.43544 0.72151 0.85761 0.0
C692 C 0.4728 0.70235 0.84548 0.0
C693 C 0.48618 0.71888 0.85915 0.0
C694 C 0.47373 0.73588 0.87312 0.0
C695 C 0.44864 0.73709 0.87245 0.0
H696 H 0.76873 0.93759 0.39076 0.0
H697 H 0.79138 0.94352 0.31675 0.0
H698 H 0.77276 0.981 0.39542 0.0
H699 H 0.79433 0.98668 0.32096 0.0
H700 H 0.80998 0.0631 0.33457 0.0
H701 H 0.81446 0.01969 0.33707 0.0
H702 H 0.75237 0.01612 0.38368 0.0
H703 H 0.74878 0.05963 0.38212 0.0
C704 C 0.77468 0.94815 0.37554 0.0
C705 C 0.77965 0.93714 0.35337 0.0
C706 C 0.77684 0.97306 0.37814 0.0
C707 C 0.78377 0.98751 0.35855 0.0
C708 C 0.78939 0.97626 0.33662 0.0
C709 C 0.78751 0.95141 0.33412 0.0
C710 C 0.79756 0.05304 0.34567 0.0
C711 C 0.77889 0.06471 0.35796 0.0
C712 C 0.8 0.02811 0.34698 0.0
C713 C 0.78353 0.01422 0.36023 0.0
C714 C 0.76556 0.02613 0.37347 0.0
C715 C 0.76339 0.05111 0.37248 0.0
H716 H 0.43813 0.2665 0.89118 0.0
H717 H 0.44341 0.28861 0.81696 0.0
H718 H 0.48152 0.27129 0.89565 0.0
H719 H 0.48658 0.29236 0.82101 0.0
H720 H 0.5628 0.30963 0.83445 0.0
H721 H 0.51928 0.31327 0.837 0.0
H722 H 0.517 0.25132 0.88382 0.0
H723 H 0.56063 0.24855 0.88216 0.0
C724 C 0.44854 0.27252 0.87587 0.0
C725 C 0.43735 0.27709 0.8537 0.0
C726 C 0.47344 0.27511 0.87837 0.0
C727 C 0.48771 0.28211 0.85868 0.0
C728 C 0.47628 0.28737 0.83674 0.0
C729 C 0.45143 0.28504 0.83433 0.0
C730 C 0.553 0.29706 0.8456 0.0
C731 C 0.56508 0.27867 0.85792 0.0
C732 C 0.52801 0.29901 0.84694 0.0
C733 C 0.51446 0.28234 0.86028 0.0
C734 C 0.52675 0.26465 0.87355 0.0
C735 C 0.5518 0.26295 0.87251 0.0
H736 H 0.23332 0.93649 0.39232 0.0
H737 H 0.21027 0.94006 0.31829 0.0
H738 H 0.22854 0.97993 0.39586 0.0
H739 H 0.20667 0.98326 0.32132 0.0
H740 H 0.19004 0.05977 0.33263 0.0
H741 H 0.1863 0.01638 0.33623 0.0
H742 H 0.24796 0.01519 0.38358 0.0
H743 H 0.25068 0.05873 0.38098 0.0
C744 C 0.22712 0.94655 0.37685 0.0
C745 C 0.22223 0.93486 0.35501 0.0
C746 C 0.22454 0.97148 0.3788 0.0
C747 C 0.21733 0.98529 0.35886 0.0
C748 C 0.21181 0.97336 0.33725 0.0
C749 C 0.21405 0.94848 0.33542 0.0
C750 C 0.20251 0.05022 0.34412 0.0
C751 C 0.22078 0.06257 0.35635 0.0
C752 C 0.20052 0.0253 0.34606 0.0
C753 C 0.2171 0.01206 0.35984 0.0
C754 C 0.23468 0.02466 0.37298 0.0
C755 C 0.23636 0.04966 0.3714 0.0
H756 H 0.55723 0.70437 0.18144 0.0
H757 H 0.56229 0.73072 0.10863 0.0
H758 H 0.51395 0.70159 0.17757 0.0
H759 H 0.51884 0.72681 0.1042 0.0
H760 H 0.44041 0.75009 0.11885 0.0
H761 H 0.48393 0.74652 0.11698 0.0
H762 H 0.48049 0.6827 0.16116 0.0
H763 H 0.43706 0.68718 0.16404 0.0
C764 C 0.54912 0.70905 0.16437 0.0
C765 C 0.56317 0.71793 0.14541 0.0
C766 C 0.52421 0.70729 0.16206 0.0
C767 C 0.5127 0.71404 0.14056 0.0
C768 C 0.52695 0.72189 0.12118 0.0
C769 C 0.5519 0.72397 0.12364 0.0
C770 C 0.44896 0.73512 0.12788 0.0
C771 C 0.43538 0.71909 0.14184 0.0
C772 C 0.47396 0.73296 0.12671 0.0
C773 C 0.48592 0.71447 0.13917 0.0
C774 C 0.47205 0.69755 0.15186 0.0
C775 C 0.44711 0.69998 0.15338 0.0
H776 H 0.81224 0.93683 0.66376 0.0
H777 H 0.74989 0.94068 0.61774 0.0
H778 H 0.81684 0.98025 0.66125 0.0
H779 H 0.75362 0.98415 0.61619 0.0
H780 H 0.76975 0.06256 0.6088 0.0
H781 H 0.77374 0.01917 0.60398 0.0
H782 H 0.79738 0.01342 0.67781 0.0
H783 H 0.79447 0.05659 0.68215 0.0
C784 C 0.7996 0.94698 0.65299 0.0
C785 C 0.78059 0.93539 0.64113 0.0
C786 C 0.8021 0.97191 0.65167 0.0
C787 C 0.78537 0.98589 0.63885 0.0
C788 C 0.76703 0.97408 0.62604 0.0
C789 C 0.76478 0.9491 0.62703 0.0
C790 C 0.77616 0.05199 0.62384 0.0
C791 C 0.7817 0.06299 0.64588 0.0
C792 C 0.7783 0.02709 0.62115 0.0
C793 C 0.78575 0.01262 0.64053 0.0
C794 C 0.792 0.02386 0.6623 0.0
C795 C 0.79015 0.04871 0.66488 0.0
H796 H 0.23235 0.06271 0.60858 0.0
H797 H 0.20934 0.05879 0.68261 0.0
H798 H 0.22748 0.0193 0.60481 0.0
H799 H 0.2056 0.01562 0.67932 0.0
H800 H 0.18928 0.93915 0.66774 0.0
H801 H 0.18524 0.98251 0.66408 0.0
H802 H 0.24727 0.98415 0.61726 0.0
H803 H 0.25034 0.94063 0.61994 0.0
C804 C 0.2261 0.0526 0.62399 0.0
C805 C 0.22132 0.06416 0.64592 0.0
C806 C 0.22348 0.02768 0.62191 0.0
C807 C 0.21628 0.01378 0.64179 0.0
C808 C 0.21075 0.02561 0.66345 0.0
C809 C 0.21307 0.05046 0.66542 0.0
C810 C 0.20178 0.94879 0.65635 0.0
C811 C 0.22027 0.93658 0.64432 0.0
C812 C 0.19959 0.97368 0.65437 0.0
C813 C 0.21619 0.98703 0.64073 0.0
C814 C 0.23398 0.97457 0.62775 0.0
C815 C 0.23587 0.94959 0.62938 0.0
H816 H 0.11818 0.28182 0.29022 0.0
H817 H 0.17624 0.31849 0.32629 0.0
H818 H 0.1282 0.24495 0.31156 0.0
H819 H 0.1872 0.28156 0.34651 0.0
H820 H 0.20481 0.21431 0.38333 0.0
H821 H 0.18186 0.2502 0.37331 0.0
H822 H 0.15809 0.21629 0.30751 0.0
H823 H 0.17983 0.18017 0.3183 0.0
C824 C 0.1329 0.28206 0.30296 0.0
C825 C 0.14659 0.30298 0.30637 0.0
C826 C 0.13881 0.26086 0.31506 0.0
C827 C 0.15887 0.25996 0.33045 0.0
C828 C 0.17149 0.28141 0.33506 0.0
C829 C 0.16527 0.30269 0.32332 0.0
C830 C 0.19415 0.21439 0.36703 0.0
C831 C 0.19434 0.19453 0.35146 0.0
C832 C 0.18114 0.23505 0.36115 0.0
C833 C 0.16843 0.23651 0.33932 0.0
C834 C 0.16737 0.21595 0.3246 0.0
C835 C 0.17999 0.19515 0.33072 0.0
H836 H 0.27324 0.73125 0.86419 0.0
H837 H 0.31915 0.67145 0.84579 0.0
H838 H 0.23841 0.70872 0.85109 0.0
H839 H 0.28399 0.64835 0.83357 0.0
H840 H 0.22451 0.63622 0.77644 0.0
H841 H 0.25864 0.64976 0.79978 0.0
H842 H 0.2106 0.67707 0.85437 0.0
H843 H 0.17623 0.66434 0.83033 0.0
C844 C 0.27586 0.713 0.85798 0.0
C845 C 0.29907 0.70333 0.85566 0.0
C846 C 0.25575 0.69994 0.85058 0.0
C847 C 0.2583 0.67674 0.84091 0.0
C848 C 0.28137 0.66637 0.84038 0.0
C849 C 0.30154 0.67956 0.84755 0.0
C850 C 0.22116 0.64472 0.79362 0.0
C851 C 0.19758 0.64955 0.80129 0.0
C852 C 0.24084 0.65237 0.80717 0.0
C853 C 0.23749 0.66483 0.82891 0.0
C854 C 0.21389 0.66804 0.83746 0.0
C855 C 0.19415 0.66059 0.82375 0.0
H856 H 0.88126 0.71837 0.28805 0.0
H857 H 0.82255 0.68125 0.32256 0.0
H858 H 0.87116 0.75481 0.31008 0.0
H859 H 0.81149 0.71776 0.3434 0.0
H860 H 0.79352 0.78416 0.3814 0.0
H861 H 0.81644 0.74838 0.37092 0.0
H862 H 0.84171 0.78382 0.30649 0.0
H863 H 0.82007 0.8198 0.31782 0.0
C864 C 0.86636 0.71794 0.30057 0.0
C865 C 0.85253 0.69703 0.30335 0.0
C866 C 0.86041 0.73889 0.31307 0.0
C867 C 0.84016 0.73956 0.32823 0.0
C868 C 0.82736 0.71809 0.33216 0.0
C869 C 0.83362 0.69705 0.32005 0.0
C870 C 0.80449 0.78442 0.36532 0.0
C871 C 0.80477 0.80468 0.35029 0.0
C872 C 0.81749 0.76383 0.35916 0.0
C873 C 0.83061 0.76284 0.33754 0.0
C874 C 0.83211 0.78377 0.3234 0.0
C875 C 0.81952 0.80449 0.32982 0.0
H876 H 0.82119 0.31676 0.81951 0.0
H877 H 0.78468 0.3811 0.7963 0.0
H878 H 0.78576 0.30453 0.84167 0.0
H879 H 0.74949 0.36964 0.81969 0.0
H880 H 0.6826 0.32089 0.82583 0.0
H881 H 0.71883 0.34208 0.81442 0.0
H882 H 0.7575 0.30718 0.87214 0.0
H883 H 0.7213 0.28489 0.88263 0.0
C884 C 0.80584 0.32872 0.81982 0.0
C885 C 0.8056 0.3497 0.80585 0.0
C886 C 0.78544 0.32176 0.8327 0.0
C887 C 0.76442 0.33586 0.83226 0.0
C888 C 0.76502 0.35793 0.81992 0.0
C889 C 0.78528 0.36464 0.80666 0.0
C890 C 0.6987 0.3181 0.83642 0.0
C891 C 0.69916 0.30093 0.85489 0.0
C892 C 0.71958 0.33041 0.82995 0.0
C893 C 0.7414 0.32617 0.84208 0.0
C894 C 0.74128 0.31045 0.86191 0.0
C895 C 0.72046 0.2978 0.86808 0.0
H896 H 0.20639 0.78273 0.62063 0.0
H897 H 0.17874 0.82067 0.68237 0.0
H898 H 0.18338 0.74731 0.63212 0.0
H899 H 0.15705 0.78511 0.69475 0.0
H900 H 0.11741 0.72023 0.71515 0.0
H901 H 0.12782 0.75591 0.69202 0.0
H902 H 0.18788 0.71774 0.66073 0.0
H903 H 0.1765 0.68195 0.68261 0.0
C904 C 0.19516 0.78357 0.63651 0.0
C905 C 0.1946 0.80438 0.65074 0.0
C906 C 0.18211 0.76319 0.64325 0.0
C907 C 0.16866 0.76298 0.6647 0.0
C908 C 0.1669 0.78443 0.67799 0.0
C909 C 0.17952 0.80493 0.67096 0.0
C910 C 0.13248 0.71938 0.70285 0.0
C911 C 0.1463 0.69837 0.7009 0.0
C912 C 0.13861 0.73991 0.68972 0.0
C913 C 0.15903 0.74005 0.67477 0.0
C914 C 0.17187 0.71847 0.67175 0.0
C915 C 0.16544 0.69785 0.68448 0.0
H916 H 0.67828 0.66934 0.16007 0.0
H917 H 0.72501 0.72779 0.13954 0.0
H918 H 0.71314 0.64607 0.17281 0.0
H919 H 0.75957 0.70511 0.15312 0.0
H920 H 0.8211 0.66025 0.1747 0.0
H921 H 0.78676 0.67277 0.15053 0.0
H922 H 0.73872 0.6483 0.20647 0.0
H923 H 0.77281 0.63496 0.22999 0.0
C924 C 0.696 0.67711 0.15797 0.0
C925 C 0.6988 0.70057 0.1491 0.0
C926 C 0.71599 0.66382 0.16543 0.0
C927 C 0.73922 0.6738 0.16442 0.0
C928 C 0.74208 0.69665 0.15402 0.0
C929 C 0.72215 0.7098 0.14634 0.0
C930 C 0.80317 0.65708 0.18157 0.0
C931 C 0.79974 0.6469 0.20444 0.0
C932 C 0.78346 0.6644 0.16778 0.0
C933 C 0.75989 0.66193 0.17664 0.0
C934 C 0.7565 0.65032 0.19884 0.0
C935 C 0.77616 0.64279 0.21249 0.0
H936 H 0.82198 0.18045 0.68014 0.0
H937 H 0.78855 0.21876 0.62153 0.0
H938 H 0.84251 0.21682 0.69238 0.0
H939 H 0.81012 0.25507 0.63298 0.0
H940 H 0.81698 0.3189 0.68581 0.0
H941 H 0.8056 0.28319 0.66365 0.0
H942 H 0.87039 0.24764 0.68773 0.0
H943 H 0.88107 0.28314 0.71098 0.0
C944 C 0.81963 0.19648 0.66938 0.0
C945 C 0.80334 0.19681 0.6501 0.0
C946 C 0.83155 0.21743 0.67633 0.0
C947 C 0.82776 0.23916 0.66393 0.0
C948 C 0.81299 0.2389 0.64339 0.0
C949 C 0.80076 0.21802 0.63668 0.0
C950 C 0.82904 0.30363 0.686 0.0
C951 C 0.84973 0.30372 0.70045 0.0
C952 C 0.82259 0.28309 0.67313 0.0
C953 C 0.83688 0.26223 0.67408 0.0
C954 C 0.85858 0.26307 0.68705 0.0
C955 C 0.86482 0.2835 0.70026 0.0
H956 H 0.22756 0.36204 0.23666 0.0
H957 H 0.18081 0.34412 0.17733 0.0
H958 H 0.2621 0.34955 0.21343 0.0
H959 H 0.2157 0.33273 0.15338 0.0
H960 H 0.27551 0.2773 0.13802 0.0
H961 H 0.24147 0.2999 0.1527 0.0
H962 H 0.28959 0.35332 0.18211 0.0
H963 H 0.32392 0.32979 0.1684 0.0
C964 C 0.2247 0.35605 0.21836 0.0
C965 C 0.20135 0.3537 0.20901 0.0
C966 C 0.24464 0.34903 0.20488 0.0
C967 C 0.24183 0.33979 0.18151 0.0
C968 C 0.21857 0.33915 0.17152 0.0
C969 C 0.19854 0.34584 0.18518 0.0
C970 C 0.2789 0.29408 0.14725 0.0
C971 C 0.3025 0.30149 0.1524 0.0
C972 C 0.25925 0.30723 0.15557 0.0
C973 C 0.26262 0.32838 0.16897 0.0
C974 C 0.28625 0.33681 0.17243 0.0
C975 C 0.30597 0.32342 0.16439 0.0
H976 H 0.37905 0.21154 0.21976 0.0
H977 H 0.31924 0.18161 0.18043 0.0
H978 H 0.36706 0.18894 0.2553 0.0
H979 H 0.30647 0.1601 0.21607 0.0
H980 H 0.28681 0.11974 0.28109 0.0
H981 H 0.31022 0.13098 0.24583 0.0
H982 H 0.3367 0.19341 0.28373 0.0
H983 H 0.31438 0.18144 0.31915 0.0
C984 C 0.36351 0.19988 0.21863 0.0
C985 C 0.34993 0.19859 0.19738 0.0
C986 C 0.3565 0.18706 0.23906 0.0
C987 C 0.33547 0.17301 0.23885 0.0
C988 C 0.32288 0.17048 0.21703 0.0
C989 C 0.33014 0.18297 0.19651 0.0
C990 C 0.29808 0.13558 0.282 0.0
C991 C 0.29853 0.14985 0.30282 0.0
C992 C 0.31138 0.14214 0.26172 0.0
C993 C 0.3251 0.16337 0.26163 0.0
C994 C 0.32664 0.1768 0.28303 0.0
C995 C 0.31367 0.17001 0.30342 0.0
H996 H 0.36109 0.76856 0.77431 0.0
H997 H 0.34431 0.82901 0.81998 0.0
H998 H 0.34758 0.79089 0.73952 0.0
H999 H 0.33173 0.85194 0.78482 0.0
H1000 H 0.27371 0.86445 0.7264 0.0
H1001 H 0.29755 0.85091 0.76017 0.0
H1002 H 0.35055 0.82201 0.71127 0.0
H1003 H 0.32595 0.83469 0.67729 0.0
C1004 C 0.35515 0.7869 0.77686 0.0
C1005 C 0.35339 0.79683 0.80002 0.0
C1006 C 0.34752 0.79985 0.75678 0.0
C1007 C 0.33819 0.8232 0.75927 0.0
C1008 C 0.33824 0.8338 0.78225 0.0
C1009 C 0.34562 0.82072 0.80242 0.0
C1010 C 0.29065 0.85558 0.72278 0.0
C1011 C 0.2977 0.8503 0.6991 0.0
C1012 C 0.3045 0.84793 0.74225 0.0
C1013 C 0.32593 0.83504 0.73858 0.0
C1014 C 0.33388 0.83137 0.71483 0.0
C1015 C 0.31985 0.83878 0.69531 0.0
H1016 H 0.72495 0.8639 0.27476 0.0
H1017 H 0.67274 0.83454 0.32412 0.0
H1018 H 0.70105 0.85032 0.24111 0.0
H1019 H 0.64796 0.8219 0.29024 0.0
H1020 H 0.63656 0.76841 0.22755 0.0
H1021 H 0.65014 0.79089 0.26217 0.0
H1022 H 0.66733 0.85117 0.21628 0.0
H1023 H 0.65479 0.82798 0.18128 0.0
C1024 C 0.70799 0.85511 0.27846 0.0
C1025 C 0.70098 0.84996 0.30218 0.0
C1026 C 0.69409 0.84744 0.25905 0.0
C1027 C 0.67259 0.83468 0.2628 0.0
C1028 C 0.66469 0.83113 0.28659 0.0
C1029 C 0.67881 0.83853 0.30606 0.0
C1030 C 0.64282 0.78663 0.22482 0.0
C1031 C 0.64499 0.79622 0.20155 0.0
C1032 C 0.65049 0.79968 0.24482 0.0
C1033 C 0.66025 0.82283 0.24214 0.0
C1034 C 0.66054 0.83316 0.21902 0.0
C1035 C 0.65317 0.81994 0.19894 0.0
H1036 H 0.72839 0.13523 0.72638 0.0
H1037 H 0.67341 0.16212 0.67862 0.0
H1038 H 0.70552 0.14889 0.76069 0.0
H1039 H 0.64969 0.1748 0.71323 0.0
H1040 H 0.6393 0.22945 0.77494 0.0
H1041 H 0.65231 0.20655 0.74037 0.0
H1042 H 0.673 0.14794 0.78699 0.0
H1043 H 0.66103 0.1716 0.82187 0.0
C1044 C 0.71104 0.14345 0.7232 0.0
C1045 C 0.70294 0.14796 0.6997 0.0
C1046 C 0.69774 0.15117 0.74301 0.0
C1047 C 0.6758 0.16332 0.73988 0.0
C1048 C 0.6668 0.16609 0.71637 0.0
C1049 C 0.6803 0.15866 0.69649 0.0
C1050 C 0.64625 0.21152 0.77785 0.0
C1051 C 0.64951 0.20254 0.80123 0.0
C1052 C 0.65357 0.19822 0.7579 0.0
C1053 C 0.66405 0.1754 0.76075 0.0
C1054 C 0.66559 0.16568 0.78408 0.0
C1055 C 0.65858 0.17917 0.80411 0.0
H1056 H 0.82891 0.82012 0.65403 0.0
H1057 H 0.76974 0.7737 0.63485 0.0
H1058 H 0.85271 0.7851 0.66524 0.0
H1059 H 0.79291 0.73899 0.64701 0.0
H1060 H 0.83745 0.67711 0.66705 0.0
H1061 H 0.82475 0.71166 0.64328 0.0
H1062 H 0.85202 0.75916 0.69837 0.0
H1063 H 0.86558 0.72489 0.72136 0.0
C1064 C 0.82108 0.80244 0.65192 0.0
C1065 C 0.79729 0.79976 0.64388 0.0
C1066 C 0.83467 0.78234 0.65849 0.0
C1067 C 0.82467 0.75914 0.65747 0.0
C1068 C 0.80143 0.75644 0.64787 0.0
C1069 C 0.78799 0.77647 0.64103 0.0
C1070 C 0.84124 0.69496 0.67376 0.0
C1071 C 0.8522 0.6982 0.69629 0.0
C1072 C 0.8338 0.7148 0.66022 0.0
C1073 C 0.83691 0.7383 0.66904 0.0
C1074 C 0.84944 0.74146 0.69077 0.0
C1075 C 0.8571 0.72168 0.70414 0.0
H1076 H 0.72193 0.27924 0.11891 0.0
H1077 H 0.68321 0.31895 0.17315 0.0
H1078 H 0.75854 0.30103 0.12904 0.0
H1079 H 0.71981 0.33971 0.18421 0.0
H1080 H 0.78625 0.37832 0.20116 0.0
H1081 H 0.75117 0.36634 0.17787 0.0
H1082 H 0.78625 0.29933 0.16016 0.0
H1083 H 0.82162 0.31199 0.18222 0.0
C1084 C 0.72118 0.29283 0.13281 0.0
C1085 C 0.69973 0.29717 0.1454 0.0
C1086 C 0.74223 0.30521 0.13878 0.0
C1087 C 0.74242 0.3219 0.15779 0.0
C1088 C 0.72052 0.32726 0.1693 0.0
C1089 C 0.69942 0.3152 0.16304 0.0
C1090 C 0.78663 0.3613 0.19175 0.0
C1091 C 0.80659 0.34598 0.19375 0.0
C1092 C 0.76642 0.3543 0.17855 0.0
C1093 C 0.7655 0.33159 0.16747 0.0
C1094 C 0.78619 0.31703 0.16817 0.0
C1095 C 0.80656 0.32425 0.18097 0.0
H1096 H 0.18516 0.32068 0.67934 0.0
H1097 H 0.12156 0.28406 0.70451 0.0
H1098 H 0.19752 0.28478 0.65802 0.0
H1099 H 0.13328 0.24833 0.68214 0.0
H1100 H 0.18382 0.18236 0.67806 0.0
H1101 H 0.16218 0.2186 0.6887 0.0
H1102 H 0.19408 0.25545 0.62817 0.0
H1103 H 0.21669 0.21932 0.61827 0.0
C1104 C 0.17339 0.3052 0.67965 0.0
C1105 C 0.1526 0.30509 0.69395 0.0
C1106 C 0.18043 0.28453 0.66729 0.0
C1107 C 0.16664 0.26336 0.66864 0.0
C1108 C 0.14472 0.26403 0.68123 0.0
C1109 C 0.13788 0.28459 0.6939 0.0
C1110 C 0.18587 0.19804 0.66673 0.0
C1111 C 0.20228 0.19807 0.64756 0.0
C1112 C 0.17329 0.2189 0.67274 0.0
C1113 C 0.17656 0.24021 0.65951 0.0
C1114 C 0.19156 0.23961 0.63916 0.0
C1115 C 0.20442 0.21883 0.63337 0.0
H1116 H 0.17878 0.68816 0.18193 0.0
H1117 H 0.21267 0.62085 0.20014 0.0
H1118 H 0.21424 0.70006 0.15958 0.0
H1119 H 0.24784 0.63212 0.17663 0.0
H1120 H 0.31668 0.67853 0.17226 0.0
H1121 H 0.27977 0.65824 0.18321 0.0
H1122 H 0.24166 0.69758 0.12806 0.0
H1123 H 0.27859 0.71884 0.11799 0.0
C1124 C 0.19352 0.67554 0.18047 0.0
C1125 C 0.19308 0.65374 0.19313 0.0
C1126 C 0.21392 0.68231 0.1675 0.0
C1127 C 0.23424 0.66725 0.16654 0.0
C1128 C 0.23287 0.64451 0.1775 0.0
C1129 C 0.21262 0.63793 0.19084 0.0
C1130 C 0.30055 0.6825 0.16211 0.0
C1131 C 0.30049 0.70058 0.14453 0.0
C1132 C 0.27927 0.67072 0.16831 0.0
C1133 C 0.25747 0.67645 0.1568 0.0
C1134 C 0.25791 0.69313 0.13779 0.0
C1135 C 0.27914 0.70521 0.13187 0.0
H1136 H 0.87962 0.28299 0.29391 0.0
H1137 H 0.81423 0.31969 0.31378 0.0
H1138 H 0.86774 0.24863 0.31829 0.0
H1139 H 0.80165 0.28505 0.33692 0.0
H1140 H 0.78172 0.22236 0.38036 0.0
H1141 H 0.8039 0.25827 0.36877 0.0
H1142 H 0.84052 0.21753 0.31363 0.0
H1143 H 0.81942 0.18165 0.32615 0.0
C1144 C 0.86281 0.2838 0.3037 0.0
C1145 C 0.84773 0.30393 0.3017 0.0
C1146 C 0.85588 0.26402 0.31755 0.0
C1147 C 0.83347 0.26371 0.3293 0.0
C1148 C 0.81914 0.28455 0.32845 0.0
C1149 C 0.8263 0.30447 0.31499 0.0
C1150 C 0.79496 0.22103 0.36616 0.0
C1151 C 0.7986 0.19923 0.35399 0.0
C1152 C 0.80756 0.24167 0.35934 0.0
C1153 C 0.82374 0.24108 0.33989 0.0
C1154 C 0.82847 0.21883 0.32884 0.0
C1155 C 0.81621 0.19815 0.33594 0.0
H1156 H 0.1814 0.31637 0.81457 0.0
H1157 H 0.21957 0.37857 0.7883 0.0
H1158 H 0.21698 0.30365 0.8363 0.0
H1159 H 0.255 0.36647 0.811 0.0
H1160 H 0.32013 0.31515 0.81794 0.0
H1161 H 0.28433 0.33679 0.80575 0.0
H1162 H 0.24587 0.30765 0.86667 0.0
H1163 H 0.28156 0.28506 0.87819 0.0
C1164 C 0.19718 0.32775 0.81405 0.0
C1165 C 0.19777 0.34828 0.79941 0.0
C1166 C 0.21765 0.32051 0.82665 0.0
C1167 C 0.23912 0.33382 0.82519 0.0
C1168 C 0.23903 0.35542 0.81206 0.0
C1169 C 0.21865 0.36247 0.79918 0.0
C1170 C 0.30419 0.31372 0.82902 0.0
C1171 C 0.30359 0.2981 0.84882 0.0
C1172 C 0.28358 0.32628 0.82209 0.0
C1173 C 0.26196 0.32379 0.83501 0.0
C1174 C 0.26197 0.30956 0.85591 0.0
C1175 C 0.28249 0.29672 0.86264 0.0
H1176 H 0.21968 0.77737 0.3798 0.0
H1177 H 0.18253 0.81769 0.32489 0.0
H1178 H 0.19739 0.74145 0.36846 0.0
H1179 H 0.16122 0.78177 0.31272 0.0
H1180 H 0.12127 0.71643 0.29434 0.0
H1181 H 0.13355 0.75092 0.3183 0.0
H1182 H 0.19968 0.7144 0.33656 0.0
H1183 H 0.18676 0.67964 0.31372 0.0
C1184 C 0.20654 0.77863 0.3655 0.0
C1185 C 0.20309 0.80031 0.35305 0.0
C1186 C 0.19387 0.75798 0.35885 0.0
C1187 C 0.17776 0.75845 0.33935 0.0
C1188 C 0.17323 0.78059 0.32799 0.0
C1189 C 0.1856 0.80129 0.33488 0.0
C1190 C 0.13817 0.71561 0.30396 0.0
C1191 C 0.15318 0.69543 0.3019 0.0
C1192 C 0.14532 0.73547 0.31757 0.0
C1193 C 0.16786 0.73578 0.32906 0.0
C1194 C 0.1821 0.71489 0.32824 0.0
C1195 C 0.17475 0.69489 0.31498 0.0
H1196 H 0.77754 0.62164 0.77816 0.0
H1197 H 0.81708 0.67628 0.81649 0.0
H1198 H 0.74127 0.63236 0.80024 0.0
H1199 H 0.78081 0.68779 0.83765 0.0
H1200 H 0.71509 0.7043 0.87792 0.0
H1201 H 0.74991 0.68104 0.86519 0.0
H1202 H 0.71382 0.66408 0.79847 0.0
H1203 H 0.67874 0.68625 0.81178 0.0
C1204 C 0.77855 0.63576 0.79151 0.0
C1205 C 0.80013 0.64829 0.79537 0.0
C1206 C 0.7577 0.64204 0.80406 0.0
C1207 C 0.75787 0.66123 0.82052 0.0
C1208 C 0.77988 0.67273 0.82539 0.0
C1209 C 0.80077 0.66622 0.8131 0.0
C1210 C 0.71443 0.69509 0.86079 0.0
C1211 C 0.69428 0.69735 0.84573 0.0
C1212 C 0.73448 0.6819 0.85338 0.0
C1213 C 0.73501 0.67102 0.83055 0.0
C1214 C 0.71414 0.67196 0.81625 0.0
C1215 C 0.69396 0.68482 0.82384 0.0
H1216 H 0.67973 0.82776 0.68317 0.0
H1217 H 0.72198 0.88006 0.72185 0.0
H1218 H 0.65945 0.81672 0.72007 0.0
H1219 H 0.70075 0.86994 0.7588 0.0
H1220 H 0.6891 0.81624 0.82137 0.0
H1221 H 0.70194 0.8383 0.78604 0.0
H1222 H 0.63359 0.82367 0.75203 0.0
H1223 H 0.62136 0.80041 0.78704 0.0
C1224 C 0.68417 0.83745 0.69946 0.0
C1225 C 0.70272 0.85454 0.69962 0.0
C1226 C 0.67239 0.83121 0.72073 0.0
C1227 C 0.67859 0.84218 0.74269 0.0
C1228 C 0.69589 0.86063 0.74243 0.0
C1229 C 0.70796 0.86659 0.72119 0.0
C1230 C 0.67661 0.81818 0.80657 0.0
C1231 C 0.65437 0.80627 0.80685 0.0
C1232 C 0.68393 0.83098 0.78623 0.0
C1233 C 0.669 0.83252 0.76583 0.0
C1234 C 0.64589 0.82231 0.76705 0.0
C1235 C 0.63876 0.80914 0.78722 0.0
H1236 H 0.67039 0.16097 0.32288 0.0
H1237 H 0.72665 0.1358 0.27567 0.0
H1238 H 0.64678 0.17324 0.28805 0.0
H1239 H 0.70374 0.14896 0.24112 0.0
H1240 H 0.6364 0.22812 0.22625 0.0
H1241 H 0.64946 0.20543 0.26097 0.0
H1242 H 0.67096 0.1469 0.21468 0.0
H1243 H 0.65881 0.17025 0.17965 0.0
C1244 C 0.6776 0.15777 0.30508 0.0
C1245 C 0.70057 0.14771 0.30211 0.0
C1246 C 0.66413 0.16496 0.28509 0.0
C1247 C 0.67346 0.16251 0.26168 0.0
C1248 C 0.69575 0.15097 0.25874 0.0
C1249 C 0.70905 0.14355 0.27868 0.0
C1250 C 0.64351 0.21024 0.22343 0.0
C1251 C 0.64694 0.2012 0.20009 0.0
C1252 C 0.65087 0.19707 0.24347 0.0
C1253 C 0.66161 0.17437 0.24074 0.0
C1254 C 0.66331 0.16456 0.21747 0.0
C1255 C 0.65619 0.17788 0.19736 0.0
H1256 H 0.32137 0.17842 0.681 0.0
H1257 H 0.29005 0.11793 0.71807 0.0
H1258 H 0.34298 0.18948 0.71716 0.0
H1259 H 0.31271 0.1282 0.7541 0.0
H1260 H 0.32058 0.17902 0.81959 0.0
H1261 H 0.30875 0.15754 0.7836 0.0
H1262 H 0.37189 0.18413 0.74689 0.0
H1263 H 0.38297 0.20672 0.78272 0.0
C1264 C 0.31972 0.16701 0.69668 0.0
C1265 C 0.3037 0.14754 0.69678 0.0
C1266 C 0.33226 0.17327 0.7175 0.0
C1267 C 0.3294 0.15997 0.73885 0.0
C1268 C 0.31489 0.13928 0.73827 0.0
C1269 C 0.30202 0.13326 0.71754 0.0
C1270 C 0.33223 0.17986 0.80401 0.0
C1271 C 0.35248 0.19488 0.80388 0.0
C1272 C 0.32551 0.16739 0.78329 0.0
C1273 C 0.33912 0.16935 0.76203 0.0
C1274 C 0.36057 0.18272 0.76265 0.0
C1275 C 0.36706 0.19553 0.78327 0.0
H1276 H 0.33174 0.83599 0.32325 0.0
H1277 H 0.27681 0.86432 0.27626 0.0
H1278 H 0.35491 0.82324 0.2883 0.0
H1279 H 0.29916 0.85066 0.24161 0.0
H1280 H 0.3632 0.76879 0.22593 0.0
H1281 H 0.35108 0.79164 0.26087 0.0
H1282 H 0.3317 0.85134 0.2151 0.0
H1283 H 0.34281 0.82781 0.17985 0.0
C1284 C 0.32475 0.83979 0.30549 0.0
C1285 C 0.30225 0.85086 0.3026 0.0
C1286 C 0.33795 0.83231 0.28541 0.0
C1287 C 0.32878 0.83547 0.26202 0.0
C1288 C 0.30704 0.84805 0.2592 0.0
C1289 C 0.29404 0.85577 0.27921 0.0
C1290 C 0.35674 0.78695 0.22328 0.0
C1291 C 0.35359 0.7963 0.20003 0.0
C1292 C 0.34993 0.80021 0.24344 0.0
C1293 C 0.34007 0.82334 0.24094 0.0
C1294 C 0.33865 0.83338 0.21774 0.0
C1295 C 0.34517 0.81995 0.1975 0.0
loop_
_geom_bond_atom_site_label_1
_geom_bond_atom_site_label_2
_geom_bond_distance
_geom_bond_site_symmetry_2
_ccdc_geom_bond_type
O0 Cd1 2.223 . S
O0 C8 1.315 . S
Cd1 O0 2.223 . S
Cd1 O4 2.297 . S
Cd1 O5 2.439 . S
Cd1 O11 2.240 . S
Cd2 O3 2.240 . S
Cd2 O10 2.223 . S
Cd2 O12 2.297 . S
Cd2 O13 2.439 . S
O3 Cd2 2.240 . S
O3 C8 1.279 . S
O4 Cd1 2.297 . S
O4 C6 1.247 . S
O5 Cd1 2.439 . S
O5 C6 1.208 . S
C6 O4 1.247 . S
C6 O5 1.208 . S
C7 O12 1.247 . S
C7 O13 1.208 . S
C8 O0 1.315 . S
C8 O3 1.279 . S
C9 O10 1.315 . S
C9 O11 1.279 . S
O10 Cd2 2.223 . S
O10 C9 1.315 . S
O11 Cd1 2.240 . S
O11 C9 1.279 . S
O12 Cd2 2.297 . S
O12 C7 1.247 . S
O13 Cd2 2.439 . S
O13 C7 1.208 . S
O14 Cd15 2.223 . S
O14 C22 1.315 . S
Cd15 O14 2.223 . S
Cd15 O18 2.297 . S
Cd15 O19 2.439 . S
Cd15 O25 2.240 . S
Cd16 O17 2.240 . S
Cd16 O24 2.223 . S
Cd16 O26 2.297 . S
Cd16 O27 2.439 . S
O17 Cd16 2.240 . S
O17 C22 1.279 . S
O18 Cd15 2.297 . S
O18 C20 1.247 . S
O19 Cd15 2.439 . S
O19 C20 1.208 . S
C20 O18 1.247 . S
C20 O19 1.208 . S
C21 O26 1.247 . S
C21 O27 1.208 . S
C22 O14 1.315 . S
C22 O17 1.279 . S
C23 O24 1.315 . S
C23 O25 1.279 . S
O24 Cd16 2.223 . S
O24 C23 1.315 . S
O25 Cd15 2.240 . S
O25 C23 1.279 . S
O26 Cd16 2.297 . S
O26 C21 1.247 . S
O27 Cd16 2.439 . S
O27 C21 1.208 . S
O28 Cd29 2.223 . S
O28 C36 1.315 . S
Cd29 O28 2.223 . S
Cd29 O32 2.297 . S
Cd29 O33 2.439 . S
Cd29 O39 2.240 . S
Cd30 O31 2.240 . S
Cd30 O38 2.223 . S
Cd30 O40 2.297 . S
Cd30 O41 2.439 . S
O31 Cd30 2.240 . S
O31 C36 1.279 . S
O32 Cd29 2.297 . S
O32 C34 1.247 . S
O33 Cd29 2.439 . S
O33 C34 1.208 . S
C34 O32 1.247 . S
C34 O33 1.208 . S
C35 O40 1.247 . S
C35 O41 1.208 . S
C36 O28 1.315 . S
C36 O31 1.279 . S
C37 O38 1.315 . S
C37 O39 1.279 . S
O38 Cd30 2.223 . S
O38 C37 1.315 . S
O39 Cd29 2.240 . S
O39 C37 1.279 . S
O40 Cd30 2.297 . S
O40 C35 1.247 . S
O41 Cd30 2.439 . S
O41 C35 1.208 . S
O42 Cd43 2.223 . S
O42 C50 1.315 . S
Cd43 O42 2.223 . S
Cd43 O46 2.297 . S
Cd43 O47 2.439 . S
Cd43 O53 2.240 . S
Cd44 O45 2.240 . S
Cd44 O52 2.223 . S
Cd44 O54 2.297 . S
Cd44 O55 2.439 . S
O45 Cd44 2.240 . S
O45 C50 1.279 . S
O46 Cd43 2.297 . S
O46 C48 1.247 . S
O47 Cd43 2.439 . S
O47 C48 1.208 . S
C48 O46 1.247 . S
C48 O47 1.208 . S
C49 O54 1.247 . S
C49 O55 1.208 . S
C50 O42 1.315 . S
C50 O45 1.279 . S
C51 O52 1.315 . S
C51 O53 1.279 . S
O52 Cd44 2.223 . S
O52 C51 1.315 . S
O53 Cd43 2.240 . S
O53 C51 1.279 . S
O54 Cd44 2.297 . S
O54 C49 1.247 . S
O55 Cd44 2.439 . S
O55 C49 1.208 . S
O56 Cd57 2.223 . S
O56 C64 1.315 . S
Cd57 O56 2.223 . S
Cd57 O60 2.297 . S
Cd57 O61 2.439 . S
Cd57 O67 2.240 . S
Cd58 O59 2.240 . S
Cd58 O66 2.223 . S
Cd58 O68 2.297 . S
Cd58 O69 2.439 . S
O59 Cd58 2.240 . S
O59 C64 1.279 . S
O60 Cd57 2.297 . S
O60 C62 1.247 . S
O61 Cd57 2.439 . S
O61 C62 1.208 . S
C62 O60 1.247 . S
C62 O61 1.208 . S
C63 O68 1.247 . S
C63 O69 1.208 . S
C64 O56 1.315 . S
C64 O59 1.279 . S
C65 O66 1.315 . S
C65 O67 1.279 . S
O66 Cd58 2.223 . S
O66 C65 1.315 . S
O67 Cd57 2.240 . S
O67 C65 1.279 . S
O68 Cd58 2.297 . S
O68 C63 1.247 . S
O69 Cd58 2.439 . S
O69 C63 1.208 . S
O70 Cd71 2.223 . S
O70 C78 1.315 . S
Cd71 O70 2.223 . S
Cd71 O74 2.297 . S
Cd71 O75 2.439 . S
Cd71 O81 2.240 . S
Cd72 O73 2.240 . S
Cd72 O80 2.223 . S
Cd72 O82 2.297 . S
Cd72 O83 2.439 . S
O73 Cd72 2.240 . S
O73 C78 1.279 . S
O74 Cd71 2.297 . S
O74 C76 1.247 . S
O75 Cd71 2.439 . S
O75 C76 1.208 . S
C76 O74 1.247 . S
C76 O75 1.208 . S
C77 O82 1.247 . S
C77 O83 1.208 . S
C78 O70 1.315 . S
C78 O73 1.279 . S
C79 O80 1.315 . S
C79 O81 1.279 . S
O80 Cd72 2.223 . S
O80 C79 1.315 . S
O81 Cd71 2.240 . S
O81 C79 1.279 . S
O82 Cd72 2.297 . S
O82 C77 1.247 . S
O83 Cd72 2.439 . S
O83 C77 1.208 . S
O84 Cd85 2.223 . S
O84 C92 1.315 . S
Cd85 O84 2.223 . S
Cd85 O88 2.297 . S
Cd85 O89 2.439 . S
Cd85 O95 2.240 . S
Cd86 O87 2.240 . S
Cd86 O94 2.223 . S
Cd86 O96 2.297 . S
Cd86 O97 2.439 . S
O87 Cd86 2.240 . S
O87 C92 1.279 . S
O88 Cd85 2.297 . S
O88 C90 1.247 . S
O89 Cd85 2.439 . S
O89 C90 1.208 . S
C90 O88 1.247 . S
C90 O89 1.208 . S
C91 O96 1.247 . S
C91 O97 1.208 . S
C92 O84 1.315 . S
C92 O87 1.279 . S
C93 O94 1.315 . S
C93 O95 1.279 . S
O94 Cd86 2.223 . S
O94 C93 1.315 . S
O95 Cd85 2.240 . S
O95 C93 1.279 . S
O96 Cd86 2.297 . S
O96 C91 1.247 . S
O97 Cd86 2.439 . S
O97 C91 1.208 . S
O98 Cd99 2.223 . S
O98 C106 1.315 . S
Cd99 O98 2.223 . S
Cd99 O102 2.297 . S
Cd99 O103 2.439 . S
Cd99 O109 2.240 . S
Cd100 O101 2.240 . S
Cd100 O108 2.223 . S
Cd100 O110 2.297 . S
Cd100 O111 2.439 . S
O101 Cd100 2.240 . S
O101 C106 1.279 . S
O102 Cd99 2.297 . S
O102 C104 1.247 . S
O103 Cd99 2.439 . S
O103 C104 1.208 . S
C104 O102 1.247 . S
C104 O103 1.208 . S
C105 O110 1.247 . S
C105 O111 1.208 . S
C106 O98 1.315 . S
C106 O101 1.279 . S
C107 O108 1.315 . S
C107 O109 1.279 . S
O108 Cd100 2.223 . S
O108 C107 1.315 . S
O109 Cd99 2.240 . S
O109 C107 1.279 . S
O110 Cd100 2.297 . S
O110 C105 1.247 . S
O111 Cd100 2.439 . S
O111 C105 1.208 . S
O112 Cd113 2.223 . S
O112 C120 1.315 . S
Cd113 O112 2.223 . S
Cd113 O116 2.297 . S
Cd113 O117 2.439 . S
Cd113 O123 2.240 . S
Cd114 O115 2.240 . S
Cd114 O122 2.223 . S
Cd114 O124 2.297 . S
Cd114 O125 2.439 . S
O115 Cd114 2.240 . S
O115 C120 1.279 . S
O116 Cd113 2.297 . S
O116 C118 1.247 . S
O117 Cd113 2.439 . S
O117 C118 1.208 . S
C118 O116 1.247 . S
C118 O117 1.208 . S
C119 O124 1.247 . S
C119 O125 1.208 . S
C120 O112 1.315 . S
C120 O115 1.279 . S
C121 O122 1.315 . S
C121 O123 1.279 . S
O122 Cd114 2.223 . S
O122 C121 1.315 . S
O123 Cd113 2.240 . S
O123 C121 1.279 . S
O124 Cd114 2.297 . S
O124 C119 1.247 . S
O125 Cd114 2.439 . S
O125 C119 1.208 . S
O126 Cd127 2.223 . S
O126 C134 1.315 . S
Cd127 O126 2.223 . S
Cd127 O130 2.297 . S
Cd127 O131 2.439 . S
Cd127 O137 2.240 . S
Cd128 O129 2.240 . S
Cd128 O136 2.223 . S
Cd128 O138 2.297 . S
Cd128 O139 2.439 . S
O129 Cd128 2.240 . S
O129 C134 1.279 . S
O130 Cd127 2.297 . S
O130 C132 1.247 . S
O131 Cd127 2.439 . S
O131 C132 1.208 . S
C132 O130 1.247 . S
C132 O131 1.208 . S
C133 O138 1.247 . S
C133 O139 1.208 . S
C134 O126 1.315 . S
C134 O129 1.279 . S
C135 O136 1.315 . S
C135 O137 1.279 . S
O136 Cd128 2.223 . S
O136 C135 1.315 . S
O137 Cd127 2.240 . S
O137 C135 1.279 . S
O138 Cd128 2.297 . S
O138 C133 1.247 . S
O139 Cd128 2.439 . S
O139 C133 1.208 . S
O140 Cd141 2.223 . S
O140 C148 1.315 . S
Cd141 O140 2.223 . S
Cd141 O144 2.297 . S
Cd141 O145 2.439 . S
Cd141 O151 2.240 . S
Cd142 O143 2.240 . S
Cd142 O150 2.223 . S
Cd142 O152 2.297 . S
Cd142 O153 2.439 . S
O143 Cd142 2.240 . S
O143 C148 1.279 . S
O144 Cd141 2.297 . S
O144 C146 1.247 . S
O145 Cd141 2.439 . S
O145 C146 1.208 . S
C146 O144 1.247 . S
C146 O145 1.208 . S
C147 O152 1.247 . S
C147 O153 1.208 . S
C148 O140 1.315 . S
C148 O143 1.279 . S
C149 O150 1.315 . S
C149 O151 1.279 . S
O150 Cd142 2.223 . S
O150 C149 1.315 . S
O151 Cd141 2.240 . S
O151 C149 1.279 . S
O152 Cd142 2.297 . S
O152 C147 1.247 . S
O153 Cd142 2.439 . S
O153 C147 1.208 . S
O154 Cd155 2.223 . S
O154 C162 1.315 . S
Cd155 O154 2.223 . S
Cd155 O158 2.297 . S
Cd155 O159 2.439 . S
Cd155 O165 2.240 . S
Cd156 O157 2.240 . S
Cd156 O164 2.223 . S
Cd156 O166 2.297 . S
Cd156 O167 2.439 . S
O157 Cd156 2.240 . S
O157 C162 1.279 . S
O158 Cd155 2.297 . S
O158 C160 1.247 . S
O159 Cd155 2.439 . S
O159 C160 1.208 . S
C160 O158 1.247 . S
C160 O159 1.208 . S
C161 O166 1.247 . S
C161 O167 1.208 . S
C162 O154 1.315 . S
C162 O157 1.279 . S
C163 O164 1.315 . S
C163 O165 1.279 . S
O164 Cd156 2.223 . S
O164 C163 1.315 . S
O165 Cd155 2.240 . S
O165 C163 1.279 . S
O166 Cd156 2.297 . S
O166 C161 1.247 . S
O167 Cd156 2.439 . S
O167 C161 1.208 . S
O168 Cd169 2.223 . S
O168 C176 1.315 . S
Cd169 O168 2.223 . S
Cd169 O172 2.297 . S
Cd169 O173 2.439 . S
Cd169 O179 2.240 . S
Cd170 O171 2.240 . S
Cd170 O178 2.223 . S
Cd170 O180 2.297 . S
Cd170 O181 2.439 . S
O171 Cd170 2.240 . S
O171 C176 1.279 . S
O172 Cd169 2.297 . S
O172 C174 1.247 . S
O173 Cd169 2.439 . S
O173 C174 1.208 . S
C174 O172 1.247 . S
C174 O173 1.208 . S
C175 O180 1.247 . S
C175 O181 1.208 . S
C176 O168 1.315 . S
C176 O171 1.279 . S
C177 O178 1.315 . S
C177 O179 1.279 . S
O178 Cd170 2.223 . S
O178 C177 1.315 . S
O179 Cd169 2.240 . S
O179 C177 1.279 . S
O180 Cd170 2.297 . S
O180 C175 1.247 . S
O181 Cd170 2.439 . S
O181 C175 1.208 . S
O182 Cd183 2.223 . S
O182 C190 1.315 . S
Cd183 O182 2.223 . S
Cd183 O186 2.297 . S
Cd183 O187 2.439 . S
Cd183 O193 2.240 . S
Cd184 O185 2.240 . S
Cd184 O192 2.223 . S
Cd184 O194 2.297 . S
Cd184 O195 2.439 . S
O185 Cd184 2.240 . S
O185 C190 1.279 . S
O186 Cd183 2.297 . S
O186 C188 1.247 . S
O187 Cd183 2.439 . S
O187 C188 1.208 . S
C188 O186 1.247 . S
C188 O187 1.208 . S
C189 O194 1.247 . S
C189 O195 1.208 . S
C190 O182 1.315 . S
C190 O185 1.279 . S
C191 O192 1.315 . S
C191 O193 1.279 . S
O192 Cd184 2.223 . S
O192 C191 1.315 . S
O193 Cd183 2.240 . S
O193 C191 1.279 . S
O194 Cd184 2.297 . S
O194 C189 1.247 . S
O195 Cd184 2.439 . S
O195 C189 1.208 . S
O196 Cd197 2.223 . S
O196 C204 1.315 . S
Cd197 O196 2.223 . S
Cd197 O200 2.297 . S
Cd197 O201 2.439 . S
Cd197 O207 2.240 . S
Cd198 O199 2.240 . S
Cd198 O206 2.223 . S
Cd198 O208 2.297 . S
Cd198 O209 2.439 . S
O199 Cd198 2.240 . S
O199 C204 1.279 . S
O200 Cd197 2.297 . S
O200 C202 1.247 . S
O201 Cd197 2.439 . S
O201 C202 1.208 . S
C202 O200 1.247 . S
C202 O201 1.208 . S
C203 O208 1.247 . S
C203 O209 1.208 . S
C204 O196 1.315 . S
C204 O199 1.279 . S
C205 O206 1.315 . S
C205 O207 1.279 . S
O206 Cd198 2.223 . S
O206 C205 1.315 . S
O207 Cd197 2.240 . S
O207 C205 1.279 . S
O208 Cd198 2.297 . S
O208 C203 1.247 . S
O209 Cd198 2.439 . S
O209 C203 1.208 . S
O210 Cd211 2.223 . S
O210 C218 1.315 . S
Cd211 O210 2.223 . S
Cd211 O214 2.297 . S
Cd211 O215 2.439 . S
Cd211 O221 2.240 . S
Cd212 O213 2.240 . S
Cd212 O220 2.223 . S
Cd212 O222 2.297 . S
Cd212 O223 2.439 . S
O213 Cd212 2.240 . S
O213 C218 1.279 . S
O214 Cd211 2.297 . S
O214 C216 1.247 . S
O215 Cd211 2.439 . S
O215 C216 1.208 . S
C216 O214 1.247 . S
C216 O215 1.208 . S
C217 O222 1.247 . S
C217 O223 1.208 . S
C218 O210 1.315 . S
C218 O213 1.279 . S
C219 O220 1.315 . S
C219 O221 1.279 . S
O220 Cd212 2.223 . S
O220 C219 1.315 . S
O221 Cd211 2.240 . S
O221 C219 1.279 . S
O222 Cd212 2.297 . S
O222 C217 1.247 . S
O223 Cd212 2.439 . S
O223 C217 1.208 . S
O224 Cd225 2.223 . S
O224 C232 1.315 . S
Cd225 O224 2.223 . S
Cd225 O228 2.297 . S
Cd225 O229 2.439 . S
Cd225 O235 2.240 . S
Cd226 O227 2.240 . S
Cd226 O234 2.223 . S
Cd226 O236 2.297 . S
Cd226 O237 2.439 . S
O227 Cd226 2.240 . S
O227 C232 1.279 . S
O228 Cd225 2.297 . S
O228 C230 1.247 . S
O229 Cd225 2.439 . S
O229 C230 1.208 . S
C230 O228 1.247 . S
C230 O229 1.208 . S
C231 O236 1.247 . S
C231 O237 1.208 . S
C232 O224 1.315 . S
C232 O227 1.279 . S
C233 O234 1.315 . S
C233 O235 1.279 . S
O234 Cd226 2.223 . S
O234 C233 1.315 . S
O235 Cd225 2.240 . S
O235 C233 1.279 . S
O236 Cd226 2.297 . S
O236 C231 1.247 . S
O237 Cd226 2.439 . S
O237 C231 1.208 . S
O238 Cd239 2.223 . S
O238 C246 1.315 . S
Cd239 O238 2.223 . S
Cd239 O242 2.297 . S
Cd239 O243 2.439 . S
Cd239 O249 2.240 . S
Cd240 O241 2.240 . S
Cd240 O248 2.223 . S
Cd240 O250 2.297 . S
Cd240 O251 2.439 . S
O241 Cd240 2.240 . S
O241 C246 1.279 . S
O242 Cd239 2.297 . S
O242 C244 1.247 . S
O243 Cd239 2.439 . S
O243 C244 1.208 . S
C244 O242 1.247 . S
C244 O243 1.208 . S
C245 O250 1.247 . S
C245 O251 1.208 . S
C246 O238 1.315 . S
C246 O241 1.279 . S
C247 O248 1.315 . S
C247 O249 1.279 . S
O248 Cd240 2.223 . S
O248 C247 1.315 . S
O249 Cd239 2.240 . S
O249 C247 1.279 . S
O250 Cd240 2.297 . S
O250 C245 1.247 . S
O251 Cd240 2.439 . S
O251 C245 1.208 . S
O252 Cd253 2.223 . S
O252 C260 1.315 . S
Cd253 O252 2.223 . S
Cd253 O256 2.297 . S
Cd253 O257 2.439 . S
Cd253 O263 2.240 . S
Cd254 O255 2.240 . S
Cd254 O262 2.223 . S
Cd254 O264 2.297 . S
Cd254 O265 2.439 . S
O255 Cd254 2.240 . S
O255 C260 1.279 . S
O256 Cd253 2.297 . S
O256 C258 1.247 . S
O257 Cd253 2.439 . S
O257 C258 1.208 . S
C258 O256 1.247 . S
C258 O257 1.208 . S
C259 O264 1.247 . S
C259 O265 1.208 . S
C260 O252 1.315 . S
C260 O255 1.279 . S
C261 O262 1.315 . S
C261 O263 1.279 . S
O262 Cd254 2.223 . S
O262 C261 1.315 . S
O263 Cd253 2.240 . S
O263 C261 1.279 . S
O264 Cd254 2.297 . S
O264 C259 1.247 . S
O265 Cd254 2.439 . S
O265 C259 1.208 . S
O266 Cd267 2.223 . S
O266 C274 1.315 . S
Cd267 O266 2.223 . S
Cd267 O270 2.297 . S
Cd267 O271 2.439 . S
Cd267 O277 2.240 . S
Cd268 O269 2.240 . S
Cd268 O276 2.223 . S
Cd268 O278 2.297 . S
Cd268 O279 2.439 . S
O269 Cd268 2.240 . S
O269 C274 1.279 . S
O270 Cd267 2.297 . S
O270 C272 1.247 . S
O271 Cd267 2.439 . S
O271 C272 1.208 . S
C272 O270 1.247 . S
C272 O271 1.208 . S
C273 O278 1.247 . S
C273 O279 1.208 . S
C274 O266 1.315 . S
C274 O269 1.279 . S
C275 O276 1.315 . S
C275 O277 1.279 . S
O276 Cd268 2.223 . S
O276 C275 1.315 . S
O277 Cd267 2.240 . S
O277 C275 1.279 . S
O278 Cd268 2.297 . S
O278 C273 1.247 . S
O279 Cd268 2.439 . S
O279 C273 1.208 . S
O280 Cd281 2.223 . S
O280 C288 1.315 . S
Cd281 O280 2.223 . S
Cd281 O284 2.297 . S
Cd281 O285 2.439 . S
Cd281 O291 2.240 . S
Cd282 O283 2.240 . S
Cd282 O290 2.223 . S
Cd282 O292 2.297 . S
Cd282 O293 2.439 . S
O283 Cd282 2.240 . S
O283 C288 1.279 . S
O284 Cd281 2.297 . S
O284 C286 1.247 . S
O285 Cd281 2.439 . S
O285 C286 1.208 . S
C286 O284 1.247 . S
C286 O285 1.208 . S
C287 O292 1.247 . S
C287 O293 1.208 . S
C288 O280 1.315 . S
C288 O283 1.279 . S
C289 O290 1.315 . S
C289 O291 1.279 . S
O290 Cd282 2.223 . S
O290 C289 1.315 . S
O291 Cd281 2.240 . S
O291 C289 1.279 . S
O292 Cd282 2.297 . S
O292 C287 1.247 . S
O293 Cd282 2.439 . S
O293 C287 1.208 . S
O294 Cd295 2.223 . S
O294 C302 1.315 . S
Cd295 O294 2.223 . S
Cd295 O298 2.297 . S
Cd295 O299 2.439 . S
Cd295 O305 2.240 . S
Cd296 O297 2.240 . S
Cd296 O304 2.223 . S
Cd296 O306 2.297 . S
Cd296 O307 2.439 . S
O297 Cd296 2.240 . S
O297 C302 1.279 . S
O298 Cd295 2.297 . S
O298 C300 1.247 . S
O299 Cd295 2.439 . S
O299 C300 1.208 . S
C300 O298 1.247 . S
C300 O299 1.208 . S
C301 O306 1.247 . S
C301 O307 1.208 . S
C302 O294 1.315 . S
C302 O297 1.279 . S
C303 O304 1.315 . S
C303 O305 1.279 . S
O304 Cd296 2.223 . S
O304 C303 1.315 . S
O305 Cd295 2.240 . S
O305 C303 1.279 . S
O306 Cd296 2.297 . S
O306 C301 1.247 . S
O307 Cd296 2.439 . S
O307 C301 1.208 . S
O308 Cd309 2.223 . S
O308 C316 1.315 . S
Cd309 O308 2.223 . S
Cd309 O312 2.297 . S
Cd309 O313 2.439 . S
Cd309 O319 2.240 . S
Cd310 O311 2.240 . S
Cd310 O318 2.223 . S
Cd310 O320 2.297 . S
Cd310 O321 2.439 . S
O311 Cd310 2.240 . S
O311 C316 1.279 . S
O312 Cd309 2.297 . S
O312 C314 1.247 . S
O313 Cd309 2.439 . S
O313 C314 1.208 . S
C314 O312 1.247 . S
C314 O313 1.208 . S
C315 O320 1.247 . S
C315 O321 1.208 . S
C316 O308 1.315 . S
C316 O311 1.279 . S
C317 O318 1.315 . S
C317 O319 1.279 . S
O318 Cd310 2.223 . S
O318 C317 1.315 . S
O319 Cd309 2.240 . S
O319 C317 1.279 . S
O320 Cd310 2.297 . S
O320 C315 1.247 . S
O321 Cd310 2.439 . S
O321 C315 1.208 . S
O322 Cd323 2.223 . S
O322 C330 1.315 . S
Cd323 O322 2.223 . S
Cd323 O326 2.297 . S
Cd323 O327 2.439 . S
Cd323 O333 2.240 . S
Cd324 O325 2.240 . S
Cd324 O332 2.223 . S
Cd324 O334 2.297 . S
Cd324 O335 2.439 . S
O325 Cd324 2.240 . S
O325 C330 1.279 . S
O326 Cd323 2.297 . S
O326 C328 1.247 . S
O327 Cd323 2.439 . S
O327 C328 1.208 . S
C328 O326 1.247 . S
C328 O327 1.208 . S
C329 O334 1.247 . S
C329 O335 1.208 . S
C330 O322 1.315 . S
C330 O325 1.279 . S
C331 O332 1.315 . S
C331 O333 1.279 . S
O332 Cd324 2.223 . S
O332 C331 1.315 . S
O333 Cd323 2.240 . S
O333 C331 1.279 . S
O334 Cd324 2.297 . S
O334 C329 1.247 . S
O335 Cd324 2.439 . S
O335 C329 1.208 . S
H336 C344 0.950 . S
H337 C349 0.950 . S
H338 C346 0.950 . S
H339 C348 0.950 . S
H340 C350 0.950 . S
H341 C352 0.950 . S
H342 C354 0.950 . S
H343 C355 0.950 . S
C344 H336 0.950 . S
C344 C345 1.386 . S
C344 C346 1.391 . S
C345 C344 1.386 . S
C345 C349 1.393 . S
C346 H338 0.950 . S
C346 C344 1.391 . S
C346 C347 1.400 . S
C347 C346 1.400 . S
C347 C348 1.398 . S
C347 C353 1.491 . S
C348 H339 0.950 . S
C348 C347 1.398 . S
C348 C349 1.391 . S
C349 H337 0.950 . S
C349 C345 1.393 . S
C349 C348 1.391 . S
C350 H340 0.950 . S
C350 C351 1.386 . S
C350 C352 1.391 . S
C351 C350 1.386 . S
C351 C355 1.393 . S
C352 H341 0.950 . S
C352 C350 1.391 . S
C352 C353 1.400 . S
C353 C347 1.491 . S
C353 C352 1.400 . S
C353 C354 1.398 . S
C354 H342 0.950 . S
C354 C353 1.398 . S
C354 C355 1.391 . S
C355 H343 0.950 . S
C355 C351 1.393 . S
C355 C354 1.391 . S
H356 C364 0.950 . S
H357 C369 0.950 . S
H358 C366 0.950 . S
H359 C368 0.950 . S
H360 C370 0.950 . S
H361 C372 0.950 . S
H362 C374 0.950 . S
H363 C375 0.950 . S
C364 H356 0.950 . S
C364 C365 1.386 . S
C364 C366 1.391 . S
C365 C364 1.386 . S
C365 C369 1.393 . S
C366 H358 0.950 . S
C366 C364 1.391 . S
C366 C367 1.400 . S
C367 C366 1.400 . S
C367 C368 1.398 . S
C367 C373 1.491 1_655 S
C368 H359 0.950 . S
C368 C367 1.398 . S
C368 C369 1.391 . S
C369 H357 0.950 . S
C369 C365 1.393 . S
C369 C368 1.391 . S
C370 H360 0.950 . S
C370 C371 1.386 . S
C370 C372 1.391 . S
C371 C370 1.386 . S
C371 C375 1.393 . S
C372 H361 0.950 . S
C372 C370 1.391 . S
C372 C373 1.400 . S
C373 C367 1.491 1_455 S
C373 C372 1.400 . S
C373 C374 1.398 . S
C374 H362 0.950 . S
C374 C373 1.398 . S
C374 C375 1.391 . S
C375 H363 0.950 . S
C375 C371 1.393 . S
C375 C374 1.391 . S
H376 C384 0.950 . S
H377 C389 0.950 . S
H378 C386 0.950 . S
H379 C388 0.950 . S
H380 C390 0.950 . S
H381 C392 0.950 . S
H382 C394 0.950 . S
H383 C395 0.950 . S
C384 H376 0.950 . S
C384 C385 1.386 . S
C384 C386 1.391 . S
C385 C384 1.386 . S
C385 C389 1.393 . S
C386 H378 0.950 . S
C386 C384 1.391 . S
C386 C387 1.400 . S
C387 C386 1.400 . S
C387 C388 1.398 . S
C387 C393 1.491 . S
C388 H379 0.950 . S
C388 C387 1.398 . S
C388 C389 1.391 . S
C389 H377 0.950 . S
C389 C385 1.393 . S
C389 C388 1.391 . S
C390 H380 0.950 . S
C390 C391 1.386 . S
C390 C392 1.391 . S
C391 C390 1.386 . S
C391 C395 1.393 . S
C392 H381 0.950 . S
C392 C390 1.391 . S
C392 C393 1.400 . S
C393 C387 1.491 . S
C393 C392 1.400 . S
C393 C394 1.398 . S
C394 H382 0.950 . S
C394 C393 1.398 . S
C394 C395 1.391 . S
C395 H383 0.950 . S
C395 C391 1.393 . S
C395 C394 1.391 . S
H396 C404 0.950 . S
H397 C409 0.950 . S
H398 C406 0.950 . S
H399 C408 0.950 . S
H400 C410 0.950 . S
H401 C412 0.950 . S
H402 C414 0.950 . S
H403 C415 0.950 . S
C404 H396 0.950 . S
C404 C405 1.386 . S
C404 C406 1.391 . S
C405 C404 1.386 . S
C405 C409 1.393 . S
C406 H398 0.950 . S
C406 C404 1.391 . S
C406 C407 1.400 . S
C407 C406 1.400 . S
C407 C408 1.398 . S
C407 C413 1.491 1_455 S
C408 H399 0.950 . S
C408 C407 1.398 . S
C408 C409 1.391 . S
C409 H397 0.950 . S
C409 C405 1.393 . S
C409 C408 1.391 . S
C410 H400 0.950 . S
C410 C411 1.386 . S
C410 C412 1.391 . S
C411 C410 1.386 . S
C411 C415 1.393 . S
C412 H401 0.950 . S
C412 C410 1.391 . S
C412 C413 1.400 . S
C413 C407 1.491 1_655 S
C413 C412 1.400 . S
C413 C414 1.398 . S
C414 H402 0.950 . S
C414 C413 1.398 . S
C414 C415 1.391 . S
C415 H403 0.950 . S
C415 C411 1.393 . S
C415 C414 1.391 . S
H416 C424 0.950 . S
H417 C429 0.950 . S
H418 C426 0.950 . S
H419 C428 0.950 . S
H420 C430 0.950 . S
H421 C432 0.950 . S
H422 C434 0.950 . S
H423 C435 0.950 . S
C424 H416 0.950 . S
C424 C425 1.386 . S
C424 C426 1.391 . S
C425 C424 1.386 . S
C425 C429 1.393 . S
C426 H418 0.950 . S
C426 C424 1.391 . S
C426 C427 1.400 . S
C427 C426 1.400 . S
C427 C428 1.398 . S
C427 C433 1.491 . S
C428 H419 0.950 . S
C428 C427 1.398 . S
C428 C429 1.391 . S
C429 H417 0.950 . S
C429 C425 1.393 . S
C429 C428 1.391 . S
C430 H420 0.950 . S
C430 C431 1.386 . S
C430 C432 1.391 . S
C431 C430 1.386 . S
C431 C435 1.393 . S
C432 H421 0.950 . S
C432 C430 1.391 . S
C432 C433 1.400 . S
C433 C427 1.491 . S
C433 C432 1.400 . S
C433 C434 1.398 . S
C434 H422 0.950 . S
C434 C433 1.398 . S
C434 C435 1.391 . S
C435 H423 0.950 . S
C435 C431 1.393 . S
C435 C434 1.391 . S
H436 C444 0.950 . S
H437 C449 0.950 . S
H438 C446 0.950 . S
H439 C448 0.950 . S
H440 C450 0.950 . S
H441 C452 0.950 . S
H442 C454 0.950 . S
H443 C455 0.950 . S
C444 H436 0.950 . S
C444 C445 1.386 . S
C444 C446 1.391 . S
C445 C444 1.386 . S
C445 C449 1.393 . S
C446 H438 0.950 . S
C446 C444 1.391 . S
C446 C447 1.400 . S
C447 C446 1.400 . S
C447 C448 1.398 . S
C447 C453 1.491 1_655 S
C448 H439 0.950 . S
C448 C447 1.398 . S
C448 C449 1.391 . S
C449 H437 0.950 . S
C449 C445 1.393 . S
C449 C448 1.391 . S
C450 H440 0.950 . S
C450 C451 1.386 . S
C450 C452 1.391 . S
C451 C450 1.386 . S
C451 C455 1.393 . S
C452 H441 0.950 . S
C452 C450 1.391 . S
C452 C453 1.400 . S
C453 C447 1.491 1_455 S
C453 C452 1.400 . S
C453 C454 1.398 . S
C454 H442 0.950 . S
C454 C453 1.398 . S
C454 C455 1.391 . S
C455 H443 0.950 . S
C455 C451 1.393 . S
C455 C454 1.391 . S
H456 C464 0.950 . S
H457 C469 0.950 . S
H458 C466 0.950 . S
H459 C468 0.950 . S
H460 C470 0.950 . S
H461 C472 0.950 . S
H462 C474 0.950 . S
H463 C475 0.950 . S
C464 H456 0.950 . S
C464 C465 1.386 . S
C464 C466 1.391 . S
C465 C464 1.386 . S
C465 C469 1.393 . S
C466 H458 0.950 . S
C466 C464 1.391 . S
C466 C467 1.400 . S
C467 C466 1.400 . S
C467 C468 1.398 . S
C467 C473 1.491 . S
C468 H459 0.950 . S
C468 C467 1.398 . S
C468 C469 1.391 . S
C469 H457 0.950 . S
C469 C465 1.393 . S
C469 C468 1.391 . S
C470 H460 0.950 . S
C470 C471 1.386 . S
C470 C472 1.391 . S
C471 C470 1.386 . S
C471 C475 1.393 . S
C472 H461 0.950 . S
C472 C470 1.391 . S
C472 C473 1.400 . S
C473 C467 1.491 . S
C473 C472 1.400 . S
C473 C474 1.398 . S
C474 H462 0.950 . S
C474 C473 1.398 . S
C474 C475 1.391 . S
C475 H463 0.950 . S
C475 C471 1.393 . S
C475 C474 1.391 . S
H476 C484 0.950 . S
H477 C489 0.950 . S
H478 C486 0.950 . S
H479 C488 0.950 . S
H480 C490 0.950 . S
H481 C492 0.950 . S
H482 C494 0.950 . S
H483 C495 0.950 . S
C484 H476 0.950 . S
C484 C485 1.386 . S
C484 C486 1.391 . S
C485 C484 1.386 . S
C485 C489 1.393 . S
C486 H478 0.950 . S
C486 C484 1.391 . S
C486 C487 1.400 . S
C487 C486 1.400 . S
C487 C488 1.398 . S
C487 C493 1.491 1_655 S
C488 H479 0.950 . S
C488 C487 1.398 . S
C488 C489 1.391 . S
C489 H477 0.950 . S
C489 C485 1.393 . S
C489 C488 1.391 . S
C490 H480 0.950 . S
C490 C491 1.386 . S
C490 C492 1.391 . S
C491 C490 1.386 . S
C491 C495 1.393 . S
C492 H481 0.950 . S
C492 C490 1.391 . S
C492 C493 1.400 . S
C493 C487 1.491 1_455 S
C493 C492 1.400 . S
C493 C494 1.398 . S
C494 H482 0.950 . S
C494 C493 1.398 . S
C494 C495 1.391 . S
C495 H483 0.950 . S
C495 C491 1.393 . S
C495 C494 1.391 . S
H496 C504 0.950 . S
H497 C509 0.950 . S
H498 C506 0.950 . S
H499 C508 0.950 . S
H500 C510 0.950 . S
H501 C512 0.950 . S
H502 C514 0.950 . S
H503 C515 0.950 . S
C504 H496 0.950 . S
C504 C505 1.386 . S
C504 C506 1.391 . S
C505 C504 1.386 . S
C505 C509 1.393 . S
C506 H498 0.950 . S
C506 C504 1.391 . S
C506 C507 1.400 . S
C507 C506 1.400 . S
C507 C508 1.398 . S
C507 C513 1.491 . S
C508 H499 0.950 . S
C508 C507 1.398 . S
C508 C509 1.391 . S
C509 H497 0.950 . S
C509 C505 1.393 . S
C509 C508 1.391 . S
C510 H500 0.950 . S
C510 C511 1.386 . S
C510 C512 1.391 . S
C511 C510 1.386 . S
C511 C515 1.393 . S
C512 H501 0.950 . S
C512 C510 1.391 . S
C512 C513 1.400 . S
C513 C507 1.491 . S
C513 C512 1.400 . S
C513 C514 1.398 . S
C514 H502 0.950 . S
C514 C513 1.398 . S
C514 C515 1.391 . S
C515 H503 0.950 . S
C515 C511 1.393 . S
C515 C514 1.391 . S
H516 C524 0.950 . S
H517 C529 0.950 . S
H518 C526 0.950 . S
H519 C528 0.950 . S
H520 C530 0.950 . S
H521 C532 0.950 . S
H522 C534 0.950 . S
H523 C535 0.950 . S
C524 H516 0.950 . S
C524 C525 1.386 . S
C524 C526 1.391 . S
C525 C524 1.386 . S
C525 C529 1.393 . S
C526 H518 0.950 . S
C526 C524 1.391 . S
C526 C527 1.400 . S
C527 C526 1.400 . S
C527 C528 1.398 . S
C527 C533 1.491 1_556 S
C528 H519 0.950 . S
C528 C527 1.398 . S
C528 C529 1.391 . S
C529 H517 0.950 . S
C529 C525 1.393 . S
C529 C528 1.391 . S
C530 H520 0.950 . S
C530 C531 1.386 . S
C530 C532 1.391 . S
C531 C530 1.386 . S
C531 C535 1.393 . S
C532 H521 0.950 . S
C532 C530 1.391 . S
C532 C533 1.400 . S
C533 C527 1.491 1_554 S
C533 C532 1.400 . S
C533 C534 1.398 . S
C534 H522 0.950 . S
C534 C533 1.398 . S
C534 C535 1.391 . S
C535 H523 0.950 . S
C535 C531 1.393 . S
C535 C534 1.391 . S
H536 C544 0.950 . S
H537 C549 0.950 . S
H538 C546 0.950 . S
H539 C548 0.950 . S
H540 C550 0.950 . S
H541 C552 0.950 . S
H542 C554 0.950 . S
H543 C555 0.950 . S
C544 H536 0.950 . S
C544 C545 1.386 . S
C544 C546 1.391 . S
C545 C544 1.386 . S
C545 C549 1.393 . S
C546 H538 0.950 . S
C546 C544 1.391 . S
C546 C547 1.400 . S
C547 C546 1.400 . S
C547 C548 1.398 . S
C547 C553 1.491 . S
C548 H539 0.950 . S
C548 C547 1.398 . S
C548 C549 1.391 . S
C549 H537 0.950 . S
C549 C545 1.393 . S
C549 C548 1.391 . S
C550 H540 0.950 . S
C550 C551 1.386 . S
C550 C552 1.391 . S
C551 C550 1.386 . S
C551 C555 1.393 . S
C552 H541 0.950 . S
C552 C550 1.391 . S
C552 C553 1.400 . S
C553 C547 1.491 . S
C553 C552 1.400 . S
C553 C554 1.398 . S
C554 H542 0.950 . S
C554 C553 1.398 . S
C554 C555 1.391 . S
C555 H543 0.950 . S
C555 C551 1.393 . S
C555 C554 1.391 . S
H556 C564 0.950 . S
H557 C569 0.950 . S
H558 C566 0.950 . S
H559 C568 0.950 . S
H560 C570 0.950 . S
H561 C572 0.950 . S
H562 C574 0.950 . S
H563 C575 0.950 . S
C564 H556 0.950 . S
C564 C565 1.386 . S
C564 C566 1.391 . S
C565 C564 1.386 . S
C565 C569 1.393 . S
C566 H558 0.950 . S
C566 C564 1.391 . S
C566 C567 1.400 . S
C567 C566 1.400 . S
C567 C568 1.398 . S
C567 C573 1.491 1_554 S
C568 H559 0.950 . S
C568 C567 1.398 . S
C568 C569 1.391 . S
C569 H557 0.950 . S
C569 C565 1.393 . S
C569 C568 1.391 . S
C570 H560 0.950 . S
C570 C571 1.386 . S
C570 C572 1.391 . S
C571 C570 1.386 . S
C571 C575 1.393 . S
C572 H561 0.950 . S
C572 C570 1.391 . S
C572 C573 1.400 . S
C573 C567 1.491 1_556 S
C573 C572 1.400 . S
C573 C574 1.398 . S
C574 H562 0.950 . S
C574 C573 1.398 . S
C574 C575 1.391 . S
C575 H563 0.950 . S
C575 C571 1.393 . S
C575 C574 1.391 . S
H576 C584 0.950 . S
H577 C589 0.950 . S
H578 C586 0.950 . S
H579 C588 0.950 . S
H580 C590 0.950 . S
H581 C592 0.950 . S
H582 C594 0.950 . S
H583 C595 0.950 . S
C584 H576 0.950 . S
C584 C585 1.386 . S
C584 C586 1.391 . S
C585 C584 1.386 . S
C585 C589 1.393 . S
C586 H578 0.950 . S
C586 C584 1.391 . S
C586 C587 1.400 . S
C587 C586 1.400 . S
C587 C588 1.398 . S
C587 C593 1.491 . S
C588 H579 0.950 . S
C588 C587 1.398 . S
C588 C589 1.391 . S
C589 H577 0.950 . S
C589 C585 1.393 . S
C589 C588 1.391 . S
C590 H580 0.950 . S
C590 C591 1.386 . S
C590 C592 1.391 . S
C591 C590 1.386 . S
C591 C595 1.393 . S
C592 H581 0.950 . S
C592 C590 1.391 . S
C592 C593 1.400 . S
C593 C587 1.491 . S
C593 C592 1.400 . S
C593 C594 1.398 . S
C594 H582 0.950 . S
C594 C593 1.398 . S
C594 C595 1.391 . S
C595 H583 0.950 . S
C595 C591 1.393 . S
C595 C594 1.391 . S
H596 C604 0.950 . S
H597 C609 0.950 . S
H598 C606 0.950 . S
H599 C608 0.950 . S
H600 C610 0.950 . S
H601 C612 0.950 . S
H602 C614 0.950 . S
H603 C615 0.950 . S
C604 H596 0.950 . S
C604 C605 1.386 . S
C604 C606 1.391 . S
C605 C604 1.386 . S
C605 C609 1.393 . S
C606 H598 0.950 . S
C606 C604 1.391 . S
C606 C607 1.400 . S
C607 C606 1.400 . S
C607 C608 1.398 . S
C607 C613 1.491 1_554 S
C608 H599 0.950 . S
C608 C607 1.398 . S
C608 C609 1.391 . S
C609 H597 0.950 . S
C609 C605 1.393 . S
C609 C608 1.391 . S
C610 H600 0.950 . S
C610 C611 1.386 . S
C610 C612 1.391 . S
C611 C610 1.386 . S
C611 C615 1.393 . S
C612 H601 0.950 . S
C612 C610 1.391 . S
C612 C613 1.400 . S
C613 C607 1.491 1_556 S
C613 C612 1.400 . S
C613 C614 1.398 . S
C614 H602 0.950 . S
C614 C613 1.398 . S
C614 C615 1.391 . S
C615 H603 0.950 . S
C615 C611 1.393 . S
C615 C614 1.391 . S
H616 C624 0.950 . S
H617 C629 0.950 . S
H618 C626 0.950 . S
H619 C628 0.950 . S
H620 C630 0.950 . S
H621 C632 0.950 . S
H622 C634 0.950 . S
H623 C635 0.950 . S
C624 H616 0.950 . S
C624 C625 1.386 . S
C624 C626 1.391 . S
C625 C624 1.386 . S
C625 C629 1.393 . S
C626 H618 0.950 . S
C626 C624 1.391 . S
C626 C627 1.400 . S
C627 C626 1.400 . S
C627 C628 1.398 . S
C627 C633 1.491 . S
C628 H619 0.950 . S
C628 C627 1.398 . S
C628 C629 1.391 . S
C629 H617 0.950 . S
C629 C625 1.393 . S
C629 C628 1.391 . S
C630 H620 0.950 . S
C630 C631 1.386 . S
C630 C632 1.391 . S
C631 C630 1.386 . S
C631 C635 1.393 . S
C632 H621 0.950 . S
C632 C630 1.391 . S
C632 C633 1.400 . S
C633 C627 1.491 . S
C633 C632 1.400 . S
C633 C634 1.398 . S
C634 H622 0.950 . S
C634 C633 1.398 . S
C634 C635 1.391 . S
C635 H623 0.950 . S
C635 C631 1.393 . S
C635 C634 1.391 . S
H636 C644 0.950 . S
H637 C649 0.950 . S
H638 C646 0.950 . S
H639 C648 0.950 . S
H640 C650 0.950 . S
H641 C652 0.950 . S
H642 C654 0.950 . S
H643 C655 0.950 . S
C644 H636 0.950 . S
C644 C645 1.386 . S
C644 C646 1.391 . S
C645 C644 1.386 . S
C645 C649 1.393 . S
C646 H638 0.950 . S
C646 C644 1.391 . S
C646 C647 1.400 . S
C647 C646 1.400 . S
C647 C648 1.398 . S
C647 C653 1.491 1_554 S
C648 H639 0.950 . S
C648 C647 1.398 . S
C648 C649 1.391 . S
C649 H637 0.950 . S
C649 C645 1.393 . S
C649 C648 1.391 . S
C650 H640 0.950 . S
C650 C651 1.386 . S
C650 C652 1.391 . S
C651 C650 1.386 . S
C651 C655 1.393 . S
C652 H641 0.950 . S
C652 C650 1.391 . S
C652 C653 1.400 . S
C653 C647 1.491 1_556 S
C653 C652 1.400 . S
C653 C654 1.398 . S
C654 H642 0.950 . S
C654 C653 1.398 . S
C654 C655 1.391 . S
C655 H643 0.950 . S
C655 C651 1.393 . S
C655 C654 1.391 . S
H656 C664 0.950 . S
H657 C669 0.950 . S
H658 C666 0.950 . S
H659 C668 0.950 . S
H660 C670 0.950 . S
H661 C672 0.950 . S
H662 C674 0.950 . S
H663 C675 0.950 . S
C664 H656 0.950 . S
C664 C665 1.386 . S
C664 C666 1.391 . S
C665 C664 1.386 . S
C665 C669 1.393 . S
C666 H658 0.950 . S
C666 C664 1.391 . S
C666 C667 1.400 . S
C667 C666 1.400 . S
C667 C668 1.398 . S
C667 C673 1.491 . S
C668 H659 0.950 . S
C668 C667 1.398 . S
C668 C669 1.391 . S
C669 H657 0.950 . S
C669 C665 1.393 . S
C669 C668 1.391 . S
C670 H660 0.950 . S
C670 C671 1.386 . S
C670 C672 1.391 . S
C671 C670 1.386 . S
C671 C675 1.393 . S
C672 H661 0.950 . S
C672 C670 1.391 . S
C672 C673 1.400 . S
C673 C667 1.491 . S
C673 C672 1.400 . S
C673 C674 1.398 . S
C674 H662 0.950 . S
C674 C673 1.398 . S
C674 C675 1.391 . S
C675 H663 0.950 . S
C675 C671 1.393 . S
C675 C674 1.391 . S
H676 C684 0.950 . S
H677 C689 0.950 . S
H678 C686 0.950 . S
H679 C688 0.950 . S
H680 C690 0.950 . S
H681 C692 0.950 . S
H682 C694 0.950 . S
H683 C695 0.950 . S
C684 H676 0.950 . S
C684 C685 1.386 . S
C684 C686 1.391 . S
C685 C684 1.386 . S
C685 C689 1.393 . S
C686 H678 0.950 . S
C686 C684 1.391 . S
C686 C687 1.400 . S
C687 C686 1.400 . S
C687 C688 1.398 . S
C687 C693 1.491 . S
C688 H679 0.950 . S
C688 C687 1.398 . S
C688 C689 1.391 . S
C689 H677 0.950 . S
C689 C685 1.393 . S
C689 C688 1.391 . S
C690 H680 0.950 . S
C690 C691 1.386 . S
C690 C692 1.391 . S
C691 C690 1.386 . S
C691 C695 1.393 . S
C692 H681 0.950 . S
C692 C690 1.391 . S
C692 C693 1.400 . S
C693 C687 1.491 . S
C693 C692 1.400 . S
C693 C694 1.398 . S
C694 H682 0.950 . S
C694 C693 1.398 . S
C694 C695 1.391 . S
C695 H683 0.950 . S
C695 C691 1.393 . S
C695 C694 1.391 . S
H696 C704 0.950 . S
H697 C709 0.950 . S
H698 C706 0.950 . S
H699 C708 0.950 . S
H700 C710 0.950 . S
H701 C712 0.950 . S
H702 C714 0.950 . S
H703 C715 0.950 . S
C704 H696 0.950 . S
C704 C705 1.386 . S
C704 C706 1.391 . S
C705 C704 1.386 . S
C705 C709 1.393 . S
C706 H698 0.950 . S
C706 C704 1.391 . S
C706 C707 1.400 . S
C707 C706 1.400 . S
C707 C708 1.398 . S
C707 C713 1.491 1_565 S
C708 H699 0.950 . S
C708 C707 1.398 . S
C708 C709 1.391 . S
C709 H697 0.950 . S
C709 C705 1.393 . S
C709 C708 1.391 . S
C710 H700 0.950 . S
C710 C711 1.386 . S
C710 C712 1.391 . S
C711 C710 1.386 . S
C711 C715 1.393 . S
C712 H701 0.950 . S
C712 C710 1.391 . S
C712 C713 1.400 . S
C713 C707 1.491 1_545 S
C713 C712 1.400 . S
C713 C714 1.398 . S
C714 H702 0.950 . S
C714 C713 1.398 . S
C714 C715 1.391 . S
C715 H703 0.950 . S
C715 C711 1.393 . S
C715 C714 1.391 . S
H716 C724 0.950 . S
H717 C729 0.950 . S
H718 C726 0.950 . S
H719 C728 0.950 . S
H720 C730 0.950 . S
H721 C732 0.950 . S
H722 C734 0.950 . S
H723 C735 0.950 . S
C724 H716 0.950 . S
C724 C725 1.386 . S
C724 C726 1.391 . S
C725 C724 1.386 . S
C725 C729 1.393 . S
C726 H718 0.950 . S
C726 C724 1.391 . S
C726 C727 1.400 . S
C727 C726 1.400 . S
C727 C728 1.398 . S
C727 C733 1.491 . S
C728 H719 0.950 . S
C728 C727 1.398 . S
C728 C729 1.391 . S
C729 H717 0.950 . S
C729 C725 1.393 . S
C729 C728 1.391 . S
C730 H720 0.950 . S
C730 C731 1.386 . S
C730 C732 1.391 . S
C731 C730 1.386 . S
C731 C735 1.393 . S
C732 H721 0.950 . S
C732 C730 1.391 . S
C732 C733 1.400 . S
C733 C727 1.491 . S
C733 C732 1.400 . S
C733 C734 1.398 . S
C734 H722 0.950 . S
C734 C733 1.398 . S
C734 C735 1.391 . S
C735 H723 0.950 . S
C735 C731 1.393 . S
C735 C734 1.391 . S
H736 C744 0.950 . S
H737 C749 0.950 . S
H738 C746 0.950 . S
H739 C748 0.950 . S
H740 C750 0.950 . S
H741 C752 0.950 . S
H742 C754 0.950 . S
H743 C755 0.950 . S
C744 H736 0.950 . S
C744 C745 1.386 . S
C744 C746 1.391 . S
C745 C744 1.386 . S
C745 C749 1.393 . S
C746 H738 0.950 . S
C746 C744 1.391 . S
C746 C747 1.400 . S
C747 C746 1.400 . S
C747 C748 1.398 . S
C747 C753 1.491 1_565 S
C748 H739 0.950 . S
C748 C747 1.398 . S
C748 C749 1.391 . S
C749 H737 0.950 . S
C749 C745 1.393 . S
C749 C748 1.391 . S
C750 H740 0.950 . S
C750 C751 1.386 . S
C750 C752 1.391 . S
C751 C750 1.386 . S
C751 C755 1.393 . S
C752 H741 0.950 . S
C752 C750 1.391 . S
C752 C753 1.400 . S
C753 C747 1.491 1_545 S
C753 C752 1.400 . S
C753 C754 1.398 . S
C754 H742 0.950 . S
C754 C753 1.398 . S
C754 C755 1.391 . S
C755 H743 0.950 . S
C755 C751 1.393 . S
C755 C754 1.391 . S
H756 C764 0.950 . S
H757 C769 0.950 . S
H758 C766 0.950 . S
H759 C768 0.950 . S
H760 C770 0.950 . S
H761 C772 0.950 . S
H762 C774 0.950 . S
H763 C775 0.950 . S
C764 H756 0.950 . S
C764 C765 1.386 . S
C764 C766 1.391 . S
C765 C764 1.386 . S
C765 C769 1.393 . S
C766 H758 0.950 . S
C766 C764 1.391 . S
C766 C767 1.400 . S
C767 C766 1.400 . S
C767 C768 1.398 . S
C767 C773 1.491 . S
C768 H759 0.950 . S
C768 C767 1.398 . S
C768 C769 1.391 . S
C769 H757 0.950 . S
C769 C765 1.393 . S
C769 C768 1.391 . S
C770 H760 0.950 . S
C770 C771 1.386 . S
C770 C772 1.391 . S
C771 C770 1.386 . S
C771 C775 1.393 . S
C772 H761 0.950 . S
C772 C770 1.391 . S
C772 C773 1.400 . S
C773 C767 1.491 . S
C773 C772 1.400 . S
C773 C774 1.398 . S
C774 H762 0.950 . S
C774 C773 1.398 . S
C774 C775 1.391 . S
C775 H763 0.950 . S
C775 C771 1.393 . S
C775 C774 1.391 . S
H776 C784 0.950 . S
H777 C789 0.950 . S
H778 C786 0.950 . S
H779 C788 0.950 . S
H780 C790 0.950 . S
H781 C792 0.950 . S
H782 C794 0.950 . S
H783 C795 0.950 . S
C784 H776 0.950 . S
C784 C785 1.386 . S
C784 C786 1.391 . S
C785 C784 1.386 . S
C785 C789 1.393 . S
C786 H778 0.950 . S
C786 C784 1.391 . S
C786 C787 1.400 . S
C787 C786 1.400 . S
C787 C788 1.398 . S
C787 C793 1.491 1_565 S
C788 H779 0.950 . S
C788 C787 1.398 . S
C788 C789 1.391 . S
C789 H777 0.950 . S
C789 C785 1.393 . S
C789 C788 1.391 . S
C790 H780 0.950 . S
C790 C791 1.386 . S
C790 C792 1.391 . S
C791 C790 1.386 . S
C791 C795 1.393 . S
C792 H781 0.950 . S
C792 C790 1.391 . S
C792 C793 1.400 . S
C793 C787 1.491 1_545 S
C793 C792 1.400 . S
C793 C794 1.398 . S
C794 H782 0.950 . S
C794 C793 1.398 . S
C794 C795 1.391 . S
C795 H783 0.950 . S
C795 C791 1.393 . S
C795 C794 1.391 . S
H796 C804 0.950 . S
H797 C809 0.950 . S
H798 C806 0.950 . S
H799 C808 0.950 . S
H800 C810 0.950 . S
H801 C812 0.950 . S
H802 C814 0.950 . S
H803 C815 0.950 . S
C804 H796 0.950 . S
C804 C805 1.386 . S
C804 C806 1.391 . S
C805 C804 1.386 . S
C805 C809 1.393 . S
C806 H798 0.950 . S
C806 C804 1.391 . S
C806 C807 1.400 . S
C807 C806 1.400 . S
C807 C808 1.398 . S
C807 C813 1.491 1_545 S
C808 H799 0.950 . S
C808 C807 1.398 . S
C808 C809 1.391 . S
C809 H797 0.950 . S
C809 C805 1.393 . S
C809 C808 1.391 . S
C810 H800 0.950 . S
C810 C811 1.386 . S
C810 C812 1.391 . S
C811 C810 1.386 . S
C811 C815 1.393 . S
C812 H801 0.950 . S
C812 C810 1.391 . S
C812 C813 1.400 . S
C813 C807 1.491 1_565 S
C813 C812 1.400 . S
C813 C814 1.398 . S
C814 H802 0.950 . S
C814 C813 1.398 . S
C814 C815 1.391 . S
C815 H803 0.950 . S
C815 C811 1.393 . S
C815 C814 1.391 . S
H816 C824 0.950 . S
H817 C829 0.950 . S
H818 C826 0.950 . S
H819 C828 0.950 . S
H820 C830 0.950 . S
H821 C832 0.950 . S
H822 C834 0.950 . S
H823 C835 0.950 . S
C824 H816 0.950 . S
C824 C825 1.386 . S
C824 C826 1.391 . S
C825 C824 1.386 . S
C825 C829 1.393 . S
C826 H818 0.950 . S
C826 C824 1.391 . S
C826 C827 1.400 . S
C827 C826 1.400 . S
C827 C828 1.398 . S
C827 C833 1.491 . S
C828 H819 0.950 . S
C828 C827 1.398 . S
C828 C829 1.391 . S
C829 H817 0.950 . S
C829 C825 1.393 . S
C829 C828 1.391 . S
C830 H820 0.950 . S
C830 C831 1.386 . S
C830 C832 1.391 . S
C831 C830 1.386 . S
C831 C835 1.393 . S
C832 H821 0.950 . S
C832 C830 1.391 . S
C832 C833 1.400 . S
C833 C827 1.491 . S
C833 C832 1.400 . S
C833 C834 1.398 . S
C834 H822 0.950 . S
C834 C833 1.398 . S
C834 C835 1.391 . S
C835 H823 0.950 . S
C835 C831 1.393 . S
C835 C834 1.391 . S
H836 C844 0.950 . S
H837 C849 0.950 . S
H838 C846 0.950 . S
H839 C848 0.950 . S
H840 C850 0.950 . S
H841 C852 0.950 . S
H842 C854 0.950 . S
H843 C855 0.950 . S
C844 H836 0.950 . S
C844 C845 1.386 . S
C844 C846 1.391 . S
C845 C844 1.386 . S
C845 C849 1.393 . S
C846 H838 0.950 . S
C846 C844 1.391 . S
C846 C847 1.400 . S
C847 C846 1.400 . S
C847 C848 1.398 . S
C847 C853 1.491 . S
C848 H839 0.950 . S
C848 C847 1.398 . S
C848 C849 1.391 . S
C849 H837 0.950 . S
C849 C845 1.393 . S
C849 C848 1.391 . S
C850 H840 0.950 . S
C850 C851 1.386 . S
C850 C852 1.391 . S
C851 C850 1.386 . S
C851 C855 1.393 . S
C852 H841 0.950 . S
C852 C850 1.391 . S
C852 C853 1.400 . S
C853 C847 1.491 . S
C853 C852 1.400 . S
C853 C854 1.398 . S
C854 H842 0.950 . S
C854 C853 1.398 . S
C854 C855 1.391 . S
C855 H843 0.950 . S
C855 C851 1.393 . S
C855 C854 1.391 . S
H856 C864 0.950 . S
H857 C869 0.950 . S
H858 C866 0.950 . S
H859 C868 0.950 . S
H860 C870 0.950 . S
H861 C872 0.950 . S
H862 C874 0.950 . S
H863 C875 0.950 . S
C864 H856 0.950 . S
C864 C865 1.386 . S
C864 C866 1.391 . S
C865 C864 1.386 . S
C865 C869 1.393 . S
C866 H858 0.950 . S
C866 C864 1.391 . S
C866 C867 1.400 . S
C867 C866 1.400 . S
C867 C868 1.398 . S
C867 C873 1.491 . S
C868 H859 0.950 . S
C868 C867 1.398 . S
C868 C869 1.391 . S
C869 H857 0.950 . S
C869 C865 1.393 . S
C869 C868 1.391 . S
C870 H860 0.950 . S
C870 C871 1.386 . S
C870 C872 1.391 . S
C871 C870 1.386 . S
C871 C875 1.393 . S
C872 H861 0.950 . S
C872 C870 1.391 . S
C872 C873 1.400 . S
C873 C867 1.491 . S
C873 C872 1.400 . S
C873 C874 1.398 . S
C874 H862 0.950 . S
C874 C873 1.398 . S
C874 C875 1.391 . S
C875 H863 0.950 . S
C875 C871 1.393 . S
C875 C874 1.391 . S
H876 C884 0.950 . S
H877 C889 0.950 . S
H878 C886 0.950 . S
H879 C888 0.950 . S
H880 C890 0.950 . S
H881 C892 0.950 . S
H882 C894 0.950 . S
H883 C895 0.950 . S
C884 H876 0.950 . S
C884 C885 1.386 . S
C884 C886 1.391 . S
C885 C884 1.386 . S
C885 C889 1.393 . S
C886 H878 0.950 . S
C886 C884 1.391 . S
C886 C887 1.400 . S
C887 C886 1.400 . S
C887 C888 1.398 . S
C887 C893 1.491 . S
C888 H879 0.950 . S
C888 C887 1.398 . S
C888 C889 1.391 . S
C889 H877 0.950 . S
C889 C885 1.393 . S
C889 C888 1.391 . S
C890 H880 0.950 . S
C890 C891 1.386 . S
C890 C892 1.391 . S
C891 C890 1.386 . S
C891 C895 1.393 . S
C892 H881 0.950 . S
C892 C890 1.391 . S
C892 C893 1.400 . S
C893 C887 1.491 . S
C893 C892 1.400 . S
C893 C894 1.398 . S
C894 H882 0.950 . S
C894 C893 1.398 . S
C894 C895 1.391 . S
C895 H883 0.950 . S
C895 C891 1.393 . S
C895 C894 1.391 . S
H896 C904 0.950 . S
H897 C909 0.950 . S
H898 C906 0.950 . S
H899 C908 0.950 . S
H900 C910 0.950 . S
H901 C912 0.950 . S
H902 C914 0.950 . S
H903 C915 0.950 . S
C904 H896 0.950 . S
C904 C905 1.386 . S
C904 C906 1.391 . S
C905 C904 1.386 . S
C905 C909 1.393 . S
C906 H898 0.950 . S
C906 C904 1.391 . S
C906 C907 1.400 . S
C907 C906 1.400 . S
C907 C908 1.398 . S
C907 C913 1.491 . S
C908 H899 0.950 . S
C908 C907 1.398 . S
C908 C909 1.391 . S
C909 H897 0.950 . S
C909 C905 1.393 . S
C909 C908 1.391 . S
C910 H900 0.950 . S
C910 C911 1.386 . S
C910 C912 1.391 . S
C911 C910 1.386 . S
C911 C915 1.393 . S
C912 H901 0.950 . S
C912 C910 1.391 . S
C912 C913 1.400 . S
C913 C907 1.491 . S
C913 C912 1.400 . S
C913 C914 1.398 . S
C914 H902 0.950 . S
C914 C913 1.398 . S
C914 C915 1.391 . S
C915 H903 0.950 . S
C915 C911 1.393 . S
C915 C914 1.391 . S
H916 C924 0.950 . S
H917 C929 0.950 . S
H918 C926 0.950 . S
H919 C928 0.950 . S
H920 C930 0.950 . S
H921 C932 0.950 . S
H922 C934 0.950 . S
H923 C935 0.950 . S
C924 H916 0.950 . S
C924 C925 1.386 . S
C924 C926 1.391 . S
C925 C924 1.386 . S
C925 C929 1.393 . S
C926 H918 0.950 . S
C926 C924 1.391 . S
C926 C927 1.400 . S
C927 C926 1.400 . S
C927 C928 1.398 . S
C927 C933 1.491 . S
C928 H919 0.950 . S
C928 C927 1.398 . S
C928 C929 1.391 . S
C929 H917 0.950 . S
C929 C925 1.393 . S
C929 C928 1.391 . S
C930 H920 0.950 . S
C930 C931 1.386 . S
C930 C932 1.391 . S
C931 C930 1.386 . S
C931 C935 1.393 . S
C932 H921 0.950 . S
C932 C930 1.391 . S
C932 C933 1.400 . S
C933 C927 1.491 . S
C933 C932 1.400 . S
C933 C934 1.398 . S
C934 H922 0.950 . S
C934 C933 1.398 . S
C934 C935 1.391 . S
C935 H923 0.950 . S
C935 C931 1.393 . S
C935 C934 1.391 . S
H936 C944 0.950 . S
H937 C949 0.950 . S
H938 C946 0.950 . S
H939 C948 0.950 . S
H940 C950 0.950 . S
H941 C952 0.950 . S
H942 C954 0.950 . S
H943 C955 0.950 . S
C944 H936 0.950 . S
C944 C945 1.386 . S
C944 C946 1.391 . S
C945 C944 1.386 . S
C945 C949 1.393 . S
C946 H938 0.950 . S
C946 C944 1.391 . S
C946 C947 1.400 . S
C947 C946 1.400 . S
C947 C948 1.398 . S
C947 C953 1.491 . S
C948 H939 0.950 . S
C948 C947 1.398 . S
C948 C949 1.391 . S
C949 H937 0.950 . S
C949 C945 1.393 . S
C949 C948 1.391 . S
C950 H940 0.950 . S
C950 C951 1.386 . S
C950 C952 1.391 . S
C951 C950 1.386 . S
C951 C955 1.393 . S
C952 H941 0.950 . S
C952 C950 1.391 . S
C952 C953 1.400 . S
C953 C947 1.491 . S
C953 C952 1.400 . S
C953 C954 1.398 . S
C954 H942 0.950 . S
C954 C953 1.398 . S
C954 C955 1.391 . S
C955 H943 0.950 . S
C955 C951 1.393 . S
C955 C954 1.391 . S
H956 C964 0.950 . S
H957 C969 0.950 . S
H958 C966 0.950 . S
H959 C968 0.950 . S
H960 C970 0.950 . S
H961 C972 0.950 . S
H962 C974 0.950 . S
H963 C975 0.950 . S
C964 H956 0.950 . S
C964 C965 1.386 . S
C964 C966 1.391 . S
C965 C964 1.386 . S
C965 C969 1.393 . S
C966 H958 0.950 . S
C966 C964 1.391 . S
C966 C967 1.400 . S
C967 C966 1.400 . S
C967 C968 1.398 . S
C967 C973 1.491 . S
C968 H959 0.950 . S
C968 C967 1.398 . S
C968 C969 1.391 . S
C969 H957 0.950 . S
C969 C965 1.393 . S
C969 C968 1.391 . S
C970 H960 0.950 . S
C970 C971 1.386 . S
C970 C972 1.391 . S
C971 C970 1.386 . S
C971 C975 1.393 . S
C972 H961 0.950 . S
C972 C970 1.391 . S
C972 C973 1.400 . S
C973 C967 1.491 . S
C973 C972 1.400 . S
C973 C974 1.398 . S
C974 H962 0.950 . S
C974 C973 1.398 . S
C974 C975 1.391 . S
C975 H963 0.950 . S
C975 C971 1.393 . S
C975 C974 1.391 . S
H976 C984 0.950 . S
H977 C989 0.950 . S
H978 C986 0.950 . S
H979 C988 0.950 . S
H980 C990 0.950 . S
H981 C992 0.950 . S
H982 C994 0.950 . S
H983 C995 0.950 . S
C984 H976 0.950 . S
C984 C985 1.386 . S
C984 C986 1.391 . S
C985 C984 1.386 . S
C985 C989 1.393 . S
C986 H978 0.950 . S
C986 C984 1.391 . S
C986 C987 1.400 . S
C987 C986 1.400 . S
C987 C988 1.398 . S
C987 C993 1.491 . S
C988 H979 0.950 . S
C988 C987 1.398 . S
C988 C989 1.391 . S
C989 H977 0.950 . S
C989 C985 1.393 . S
C989 C988 1.391 . S
C990 H980 0.950 . S
C990 C991 1.386 . S
C990 C992 1.391 . S
C991 C990 1.386 . S
C991 C995 1.393 . S
C992 H981 0.950 . S
C992 C990 1.391 . S
C992 C993 1.400 . S
C993 C987 1.491 . S
C993 C992 1.400 . S
C993 C994 1.398 . S
C994 H982 0.950 . S
C994 C993 1.398 . S
C994 C995 1.391 . S
C995 H983 0.950 . S
C995 C991 1.393 . S
C995 C994 1.391 . S
H996 C1004 0.950 . S
H997 C1009 0.950 . S
H998 C1006 0.950 . S
H999 C1008 0.950 . S
H1000 C1010 0.950 . S
H1001 C1012 0.950 . S
H1002 C1014 0.950 . S
H1003 C1015 0.950 . S
C1004 H996 0.950 . S
C1004 C1005 1.386 . S
C1004 C1006 1.391 . S
C1005 C1004 1.386 . S
C1005 C1009 1.393 . S
C1006 H998 0.950 . S
C1006 C1004 1.391 . S
C1006 C1007 1.400 . S
C1007 C1006 1.400 . S
C1007 C1008 1.398 . S
C1007 C1013 1.491 . S
C1008 H999 0.950 . S
C1008 C1007 1.398 . S
C1008 C1009 1.391 . S
C1009 H997 0.950 . S
C1009 C1005 1.393 . S
C1009 C1008 1.391 . S
C1010 H1000 0.950 . S
C1010 C1011 1.386 . S
C1010 C1012 1.391 . S
C1011 C1010 1.386 . S
C1011 C1015 1.393 . S
C1012 H1001 0.950 . S
C1012 C1010 1.391 . S
C1012 C1013 1.400 . S
C1013 C1007 1.491 . S
C1013 C1012 1.400 . S
C1013 C1014 1.398 . S
C1014 H1002 0.950 . S
C1014 C1013 1.398 . S
C1014 C1015 1.391 . S
C1015 H1003 0.950 . S
C1015 C1011 1.393 . S
C1015 C1014 1.391 . S
H1016 C1024 0.950 . S
H1017 C1029 0.950 . S
H1018 C1026 0.950 . S
H1019 C1028 0.950 . S
H1020 C1030 0.950 . S
H1021 C1032 0.950 . S
H1022 C1034 0.950 . S
H1023 C1035 0.950 . S
C1024 H1016 0.950 . S
C1024 C1025 1.386 . S
C1024 C1026 1.391 . S
C1025 C1024 1.386 . S
C1025 C1029 1.393 . S
C1026 H1018 0.950 . S
C1026 C1024 1.391 . S
C1026 C1027 1.400 . S
C1027 C1026 1.400 . S
C1027 C1028 1.398 . S
C1027 C1033 1.491 . S
C1028 H1019 0.950 . S
C1028 C1027 1.398 . S
C1028 C1029 1.391 . S
C1029 H1017 0.950 . S
C1029 C1025 1.393 . S
C1029 C1028 1.391 . S
C1030 H1020 0.950 . S
C1030 C1031 1.386 . S
C1030 C1032 1.391 . S
C1031 C1030 1.386 . S
C1031 C1035 1.393 . S
C1032 H1021 0.950 . S
C1032 C1030 1.391 . S
C1032 C1033 1.400 . S
C1033 C1027 1.491 . S
C1033 C1032 1.400 . S
C1033 C1034 1.398 . S
C1034 H1022 0.950 . S
C1034 C1033 1.398 . S
C1034 C1035 1.391 . S
C1035 H1023 0.950 . S
C1035 C1031 1.393 . S
C1035 C1034 1.391 . S
H1036 C1044 0.950 . S
H1037 C1049 0.950 . S
H1038 C1046 0.950 . S
H1039 C1048 0.950 . S
H1040 C1050 0.950 . S
H1041 C1052 0.950 . S
H1042 C1054 0.950 . S
H1043 C1055 0.950 . S
C1044 H1036 0.950 . S
C1044 C1045 1.386 . S
C1044 C1046 1.391 . S
C1045 C1044 1.386 . S
C1045 C1049 1.393 . S
C1046 H1038 0.950 . S
C1046 C1044 1.391 . S
C1046 C1047 1.400 . S
C1047 C1046 1.400 . S
C1047 C1048 1.398 . S
C1047 C1053 1.491 . S
C1048 H1039 0.950 . S
C1048 C1047 1.398 . S
C1048 C1049 1.391 . S
C1049 H1037 0.950 . S
C1049 C1045 1.393 . S
C1049 C1048 1.391 . S
C1050 H1040 0.950 . S
C1050 C1051 1.386 . S
C1050 C1052 1.391 . S
C1051 C1050 1.386 . S
C1051 C1055 1.393 . S
C1052 H1041 0.950 . S
C1052 C1050 1.391 . S
C1052 C1053 1.400 . S
C1053 C1047 1.491 . S
C1053 C1052 1.400 . S
C1053 C1054 1.398 . S
C1054 H1042 0.950 . S
C1054 C1053 1.398 . S
C1054 C1055 1.391 . S
C1055 H1043 0.950 . S
C1055 C1051 1.393 . S
C1055 C1054 1.391 . S
H1056 C1064 0.950 . S
H1057 C1069 0.950 . S
H1058 C1066 0.950 . S
H1059 C1068 0.950 . S
H1060 C1070 0.950 . S
H1061 C1072 0.950 . S
H1062 C1074 0.950 . S
H1063 C1075 0.950 . S
C1064 H1056 0.950 . S
C1064 C1065 1.386 . S
C1064 C1066 1.391 . S
C1065 C1064 1.386 . S
C1065 C1069 1.393 . S
C1066 H1058 0.950 . S
C1066 C1064 1.391 . S
C1066 C1067 1.400 . S
C1067 C1066 1.400 . S
C1067 C1068 1.398 . S
C1067 C1073 1.491 . S
C1068 H1059 0.950 . S
C1068 C1067 1.398 . S
C1068 C1069 1.391 . S
C1069 H1057 0.950 . S
C1069 C1065 1.393 . S
C1069 C1068 1.391 . S
C1070 H1060 0.950 . S
C1070 C1071 1.386 . S
C1070 C1072 1.391 . S
C1071 C1070 1.386 . S
C1071 C1075 1.393 . S
C1072 H1061 0.950 . S
C1072 C1070 1.391 . S
C1072 C1073 1.400 . S
C1073 C1067 1.491 . S
C1073 C1072 1.400 . S
C1073 C1074 1.398 . S
C1074 H1062 0.950 . S
C1074 C1073 1.398 . S
C1074 C1075 1.391 . S
C1075 H1063 0.950 . S
C1075 C1071 1.393 . S
C1075 C1074 1.391 . S
H1076 C1084 0.950 . S
H1077 C1089 0.950 . S
H1078 C1086 0.950 . S
H1079 C1088 0.950 . S
H1080 C1090 0.950 . S
H1081 C1092 0.950 . S
H1082 C1094 0.950 . S
H1083 C1095 0.950 . S
C1084 H1076 0.950 . S
C1084 C1085 1.386 . S
C1084 C1086 1.391 . S
C1085 C1084 1.386 . S
C1085 C1089 1.393 . S
C1086 H1078 0.950 . S
C1086 C1084 1.391 . S
C1086 C1087 1.400 . S
C1087 C1086 1.400 . S
C1087 C1088 1.398 . S
C1087 C1093 1.491 . S
C1088 H1079 0.950 . S
C1088 C1087 1.398 . S
C1088 C1089 1.391 . S
C1089 H1077 0.950 . S
C1089 C1085 1.393 . S
C1089 C1088 1.391 . S
C1090 H1080 0.950 . S
C1090 C1091 1.386 . S
C1090 C1092 1.391 . S
C1091 C1090 1.386 . S
C1091 C1095 1.393 . S
C1092 H1081 0.950 . S
C1092 C1090 1.391 . S
C1092 C1093 1.400 . S
C1093 C1087 1.491 . S
C1093 C1092 1.400 . S
C1093 C1094 1.398 . S
C1094 H1082 0.950 . S
C1094 C1093 1.398 . S
C1094 C1095 1.391 . S
C1095 H1083 0.950 . S
C1095 C1091 1.393 . S
C1095 C1094 1.391 . S
H1096 C1104 0.950 . S
H1097 C1109 0.950 . S
H1098 C1106 0.950 . S
H1099 C1108 0.950 . S
H1100 C1110 0.950 . S
H1101 C1112 0.950 . S
H1102 C1114 0.950 . S
H1103 C1115 0.950 . S
C1104 H1096 0.950 . S
C1104 C1105 1.386 . S
C1104 C1106 1.391 . S
C1105 C1104 1.386 . S
C1105 C1109 1.393 . S
C1106 H1098 0.950 . S
C1106 C1104 1.391 . S
C1106 C1107 1.400 . S
C1107 C1106 1.400 . S
C1107 C1108 1.398 . S
C1107 C1113 1.491 . S
C1108 H1099 0.950 . S
C1108 C1107 1.398 . S
C1108 C1109 1.391 . S
C1109 H1097 0.950 . S
C1109 C1105 1.393 . S
C1109 C1108 1.391 . S
C1110 H1100 0.950 . S
C1110 C1111 1.386 . S
C1110 C1112 1.391 . S
C1111 C1110 1.386 . S
C1111 C1115 1.393 . S
C1112 H1101 0.950 . S
C1112 C1110 1.391 . S
C1112 C1113 1.400 . S
C1113 C1107 1.491 . S
C1113 C1112 1.400 . S
C1113 C1114 1.398 . S
C1114 H1102 0.950 . S
C1114 C1113 1.398 . S
C1114 C1115 1.391 . S
C1115 H1103 0.950 . S
C1115 C1111 1.393 . S
C1115 C1114 1.391 . S
H1116 C1124 0.950 . S
H1117 C1129 0.950 . S
H1118 C1126 0.950 . S
H1119 C1128 0.950 . S
H1120 C1130 0.950 . S
H1121 C1132 0.950 . S
H1122 C1134 0.950 . S
H1123 C1135 0.950 . S
C1124 H1116 0.950 . S
C1124 C1125 1.386 . S
C1124 C1126 1.391 . S
C1125 C1124 1.386 . S
C1125 C1129 1.393 . S
C1126 H1118 0.950 . S
C1126 C1124 1.391 . S
C1126 C1127 1.400 . S
C1127 C1126 1.400 . S
C1127 C1128 1.398 . S
C1127 C1133 1.491 . S
C1128 H1119 0.950 . S
C1128 C1127 1.398 . S
C1128 C1129 1.391 . S
C1129 H1117 0.950 . S
C1129 C1125 1.393 . S
C1129 C1128 1.391 . S
C1130 H1120 0.950 . S
C1130 C1131 1.386 . S
C1130 C1132 1.391 . S
C1131 C1130 1.386 . S
C1131 C1135 1.393 . S
C1132 H1121 0.950 . S
C1132 C1130 1.391 . S
C1132 C1133 1.400 . S
C1133 C1127 1.491 . S
C1133 C1132 1.400 . S
C1133 C1134 1.398 . S
C1134 H1122 0.950 . S
C1134 C1133 1.398 . S
C1134 C1135 1.391 . S
C1135 H1123 0.950 . S
C1135 C1131 1.393 . S
C1135 C1134 1.391 . S
H1136 C1144 0.950 . S
H1137 C1149 0.950 . S
H1138 C1146 0.950 . S
H1139 C1148 0.950 . S
H1140 C1150 0.950 . S
H1141 C1152 0.950 . S
H1142 C1154 0.950 . S
H1143 C1155 0.950 . S
C1144 H1136 0.950 . S
C1144 C1145 1.386 . S
C1144 C1146 1.391 . S
C1145 C1144 1.386 . S
C1145 C1149 1.393 . S
C1146 H1138 0.950 . S
C1146 C1144 1.391 . S
C1146 C1147 1.400 . S
C1147 C1146 1.400 . S
C1147 C1148 1.398 . S
C1147 C1153 1.491 . S
C1148 H1139 0.950 . S
C1148 C1147 1.398 . S
C1148 C1149 1.391 . S
C1149 H1137 0.950 . S
C1149 C1145 1.393 . S
C1149 C1148 1.391 . S
C1150 H1140 0.950 . S
C1150 C1151 1.386 . S
C1150 C1152 1.391 . S
C1151 C1150 1.386 . S
C1151 C1155 1.393 . S
C1152 H1141 0.950 . S
C1152 C1150 1.391 . S
C1152 C1153 1.400 . S
C1153 C1147 1.491 . S
C1153 C1152 1.400 . S
C1153 C1154 1.398 . S
C1154 H1142 0.950 . S
C1154 C1153 1.398 . S
C1154 C1155 1.391 . S
C1155 H1143 0.950 . S
C1155 C1151 1.393 . S
C1155 C1154 1.391 . S
H1156 C1164 0.950 . S
H1157 C1169 0.950 . S
H1158 C1166 0.950 . S
H1159 C1168 0.950 . S
H1160 C1170 0.950 . S
H1161 C1172 0.950 . S
H1162 C1174 0.950 . S
H1163 C1175 0.950 . S
C1164 H1156 0.950 . S
C1164 C1165 1.386 . S
C1164 C1166 1.391 . S
C1165 C1164 1.386 . S
C1165 C1169 1.393 . S
C1166 H1158 0.950 . S
C1166 C1164 1.391 . S
C1166 C1167 1.400 . S
C1167 C1166 1.400 . S
C1167 C1168 1.398 . S
C1167 C1173 1.491 . S
C1168 H1159 0.950 . S
C1168 C1167 1.398 . S
C1168 C1169 1.391 . S
C1169 H1157 0.950 . S
C1169 C1165 1.393 . S
C1169 C1168 1.391 . S
C1170 H1160 0.950 . S
C1170 C1171 1.386 . S
C1170 C1172 1.391 . S
C1171 C1170 1.386 . S
C1171 C1175 1.393 . S
C1172 H1161 0.950 . S
C1172 C1170 1.391 . S
C1172 C1173 1.400 . S
C1173 C1167 1.491 . S
C1173 C1172 1.400 . S
C1173 C1174 1.398 . S
C1174 H1162 0.950 . S
C1174 C1173 1.398 . S
C1174 C1175 1.391 . S
C1175 H1163 0.950 . S
C1175 C1171 1.393 . S
C1175 C1174 1.391 . S
H1176 C1184 0.950 . S
H1177 C1189 0.950 . S
H1178 C1186 0.950 . S
H1179 C1188 0.950 . S
H1180 C1190 0.950 . S
H1181 C1192 0.950 . S
H1182 C1194 0.950 . S
H1183 C1195 0.950 . S
C1184 H1176 0.950 . S
C1184 C1185 1.386 . S
C1184 C1186 1.391 . S
C1185 C1184 1.386 . S
C1185 C1189 1.393 . S
C1186 H1178 0.950 . S
C1186 C1184 1.391 . S
C1186 C1187 1.400 . S
C1187 C1186 1.400 . S
C1187 C1188 1.398 . S
C1187 C1193 1.491 . S
C1188 H1179 0.950 . S
C1188 C1187 1.398 . S
C1188 C1189 1.391 . S
C1189 H1177 0.950 . S
C1189 C1185 1.393 . S
C1189 C1188 1.391 . S
C1190 H1180 0.950 . S
C1190 C1191 1.386 . S
C1190 C1192 1.391 . S
C1191 C1190 1.386 . S
C1191 C1195 1.393 . S
C1192 H1181 0.950 . S
C1192 C1190 1.391 . S
C1192 C1193 1.400 . S
C1193 C1187 1.491 . S
C1193 C1192 1.400 . S
C1193 C1194 1.398 . S
C1194 H1182 0.950 . S
C1194 C1193 1.398 . S
C1194 C1195 1.391 . S
C1195 H1183 0.950 . S
C1195 C1191 1.393 . S
C1195 C1194 1.391 . S
H1196 C1204 0.950 . S
H1197 C1209 0.950 . S
H1198 C1206 0.950 . S
H1199 C1208 0.950 . S
H1200 C1210 0.950 . S
H1201 C1212 0.950 . S
H1202 C1214 0.950 . S
H1203 C1215 0.950 . S
C1204 H1196 0.950 . S
C1204 C1205 1.386 . S
C1204 C1206 1.391 . S
C1205 C1204 1.386 . S
C1205 C1209 1.393 . S
C1206 H1198 0.950 . S
C1206 C1204 1.391 . S
C1206 C1207 1.400 . S
C1207 C1206 1.400 . S
C1207 C1208 1.398 . S
C1207 C1213 1.491 . S
C1208 H1199 0.950 . S
C1208 C1207 1.398 . S
C1208 C1209 1.391 . S
C1209 H1197 0.950 . S
C1209 C1205 1.393 . S
C1209 C1208 1.391 . S
C1210 H1200 0.950 . S
C1210 C1211 1.386 . S
C1210 C1212 1.391 . S
C1211 C1210 1.386 . S
C1211 C1215 1.393 . S
C1212 H1201 0.950 . S
C1212 C1210 1.391 . S
C1212 C1213 1.400 . S
C1213 C1207 1.491 . S
C1213 C1212 1.400 . S
C1213 C1214 1.398 . S
C1214 H1202 0.950 . S
C1214 C1213 1.398 . S
C1214 C1215 1.391 . S
C1215 H1203 0.950 . S
C1215 C1211 1.393 . S
C1215 C1214 1.391 . S
H1216 C1224 0.950 . S
H1217 C1229 0.950 . S
H1218 C1226 0.950 . S
H1219 C1228 0.950 . S
H1220 C1230 0.950 . S
H1221 C1232 0.950 . S
H1222 C1234 0.950 . S
H1223 C1235 0.950 . S
C1224 H1216 0.950 . S
C1224 C1225 1.386 . S
C1224 C1226 1.391 . S
C1225 C1224 1.386 . S
C1225 C1229 1.393 . S
C1226 H1218 0.950 . S
C1226 C1224 1.391 . S
C1226 C1227 1.400 . S
C1227 C1226 1.400 . S
C1227 C1228 1.398 . S
C1227 C1233 1.491 . S
C1228 H1219 0.950 . S
C1228 C1227 1.398 . S
C1228 C1229 1.391 . S
C1229 H1217 0.950 . S
C1229 C1225 1.393 . S
C1229 C1228 1.391 . S
C1230 H1220 0.950 . S
C1230 C1231 1.386 . S
C1230 C1232 1.391 . S
C1231 C1230 1.386 . S
C1231 C1235 1.393 . S
C1232 H1221 0.950 . S
C1232 C1230 1.391 . S
C1232 C1233 1.400 . S
C1233 C1227 1.491 . S
C1233 C1232 1.400 . S
C1233 C1234 1.398 . S
C1234 H1222 0.950 . S
C1234 C1233 1.398 . S
C1234 C1235 1.391 . S
C1235 H1223 0.950 . S
C1235 C1231 1.393 . S
C1235 C1234 1.391 . S
H1236 C1244 0.950 . S
H1237 C1249 0.950 . S
H1238 C1246 0.950 . S
H1239 C1248 0.950 . S
H1240 C1250 0.950 . S
H1241 C1252 0.950 . S
H1242 C1254 0.950 . S
H1243 C1255 0.950 . S
C1244 H1236 0.950 . S
C1244 C1245 1.386 . S
C1244 C1246 1.391 . S
C1245 C1244 1.386 . S
C1245 C1249 1.393 . S
C1246 H1238 0.950 . S
C1246 C1244 1.391 . S
C1246 C1247 1.400 . S
C1247 C1246 1.400 . S
C1247 C1248 1.398 . S
C1247 C1253 1.491 . S
C1248 H1239 0.950 . S
C1248 C1247 1.398 . S
C1248 C1249 1.391 . S
C1249 H1237 0.950 . S
C1249 C1245 1.393 . S
C1249 C1248 1.391 . S
C1250 H1240 0.950 . S
C1250 C1251 1.386 . S
C1250 C1252 1.391 . S
C1251 C1250 1.386 . S
C1251 C1255 1.393 . S
C1252 H1241 0.950 . S
C1252 C1250 1.391 . S
C1252 C1253 1.400 . S
C1253 C1247 1.491 . S
C1253 C1252 1.400 . S
C1253 C1254 1.398 . S
C1254 H1242 0.950 . S
C1254 C1253 1.398 . S
C1254 C1255 1.391 . S
C1255 H1243 0.950 . S
C1255 C1251 1.393 . S
C1255 C1254 1.391 . S
H1256 C1264 0.950 . S
H1257 C1269 0.950 . S
H1258 C1266 0.950 . S
H1259 C1268 0.950 . S
H1260 C1270 0.950 . S
H1261 C1272 0.950 . S
H1262 C1274 0.950 . S
H1263 C1275 0.950 . S
C1264 H1256 0.950 . S
C1264 C1265 1.386 . S
C1264 C1266 1.391 . S
C1265 C1264 1.386 . S
C1265 C1269 1.393 . S
C1266 H1258 0.950 . S
C1266 C1264 1.391 . S
C1266 C1267 1.400 . S
C1267 C1266 1.400 . S
C1267 C1268 1.398 . S
C1267 C1273 1.491 . S
C1268 H1259 0.950 . S
C1268 C1267 1.398 . S
C1268 C1269 1.391 . S
C1269 H1257 0.950 . S
C1269 C1265 1.393 . S
C1269 C1268 1.391 . S
C1270 H1260 0.950 . S
C1270 C1271 1.386 . S
C1270 C1272 1.391 . S
C1271 C1270 1.386 . S
C1271 C1275 1.393 . S
C1272 H1261 0.950 . S
C1272 C1270 1.391 . S
C1272 C1273 1.400 . S
C1273 C1267 1.491 . S
C1273 C1272 1.400 . S
C1273 C1274 1.398 . S
C1274 H1262 0.950 . S
C1274 C1273 1.398 . S
C1274 C1275 1.391 . S
C1275 H1263 0.950 . S
C1275 C1271 1.393 . S
C1275 C1274 1.391 . S
H1276 C1284 0.950 . S
H1277 C1289 0.950 . S
H1278 C1286 0.950 . S
H1279 C1288 0.950 . S
H1280 C1290 0.950 . S
H1281 C1292 0.950 . S
H1282 C1294 0.950 . S
H1283 C1295 0.950 . S
C1284 H1276 0.950 . S
C1284 C1285 1.386 . S
C1284 C1286 1.391 . S
C1285 C1284 1.386 . S
C1285 C1289 1.393 . S
C1286 H1278 0.950 . S
C1286 C1284 1.391 . S
C1286 C1287 1.400 . S
C1287 C1286 1.400 . S
C1287 C1288 1.398 . S
C1287 C1293 1.491 . S
C1288 H1279 0.950 . S
C1288 C1287 1.398 . S
C1288 C1289 1.391 . S
C1289 H1277 0.950 . S
C1289 C1285 1.393 . S
C1289 C1288 1.391 . S
C1290 H1280 0.950 . S
C1290 C1291 1.386 . S
C1290 C1292 1.391 . S
C1291 C1290 1.386 . S
C1291 C1295 1.393 . S
C1292 H1281 0.950 . S
C1292 C1290 1.391 . S
C1292 C1293 1.400 . S
C1293 C1287 1.491 . S
C1293 C1292 1.400 . S
C1293 C1294 1.398 . S
C1294 H1282 0.950 . S
C1294 C1293 1.398 . S
C1294 C1295 1.391 . S
C1295 H1283 0.950 . S
C1295 C1291 1.393 . S
C1295 C1294 1.391 . S
C345 C216 1.382 . S
C351 C7 1.395 . S
C365 C174 1.383 . S
C371 C20 1.393 . S
C385 C189 1.392 . S
C391 C34 1.385 . S
C405 C203 1.395 . S
C411 C49 1.382 . S
C425 C202 1.383 . S
C431 C21 1.394 . S
C445 C35 1.391 . S
C451 C217 1.386 . S
C465 C175 1.395 . S
C471 C48 1.382 . S
C485 C188 1.392 . S
C491 C6 1.385 . S
C505 C258 1.390 . S
C511 C62 1.387 . S
C525 C77 1.393 . S
C531 C273 1.384 . S
C545 C90 1.384 . S
C551 C230 1.392 . S
C565 C245 1.395 . S
C571 C105 1.382 . S
C585 C315 1.394 . S
C591 C119 1.382 . S
C605 C132 1.395 . S
C611 C328 1.382 . S
C625 C147 1.386 . S
C631 C287 1.391 . S
C645 C160 1.394 . S
C651 C300 1.382 . S
C665 C244 1.385 . S
C671 C161 1.391 . S
C685 C329 1.391 . S
C691 C76 1.386 . S
C705 C91 1.382 . S
C711 C286 1.395 . S
C725 C301 1.385 . S
C731 C104 1.392 . S
C745 C314 1.392 . S
C751 C63 1.385 . S
C765 C133 1.390 . S
C771 C272 1.386 . S
C785 C231 1.392 . S
C791 C146 1.385 . S
C805 C259 1.384 . S
C811 C118 1.393 . S
C825 C8 0.902 . S
C831 C64 0.918 . S
C845 C79 0.920 . S
C851 C23 0.929 . S
C865 C37 0.903 . S
C871 C92 0.920 . S
C885 C50 0.924 . S
C891 C107 0.909 . S
C905 C121 0.901 . S
C911 C22 0.917 . S
C925 C134 0.926 . S
C931 C36 0.911 . S
C945 C149 0.924 . S
C951 C51 0.908 . S
C965 C9 0.920 . S
C971 C162 0.929 . S
C985 C163 0.902 . S
C991 C65 0.918 . S
C1005 C78 0.898 . S
C1011 C120 0.911 . S
C1025 C93 0.920 . S
C1031 C135 0.929 . S
C1045 C148 0.921 . S
C1051 C106 0.929 . S
C1065 C232 0.916 . S
C1071 C176 0.928 . S
C1085 C247 0.909 . S
C1091 C191 0.897 . S
C1105 C205 0.900 . S
C1111 C260 0.915 . S
C1125 C218 0.899 . S
C1131 C275 0.913 . S
C1145 C190 0.926 . S
C1151 C289 0.912 . S
C1165 C204 0.923 . S
C1171 C302 0.929 . S
C1185 C317 0.927 . S
C1191 C219 0.913 . S
C1205 C177 0.917 . S
C1211 C330 0.901 . S
C1225 C233 0.910 . S
C1231 C331 0.925 . S
C1245 C288 0.924 . S
C1251 C246 0.929 . S
C1265 C261 0.909 . S
C1271 C303 0.925 . S
C1285 C316 0.925 . S
C1291 C274 0.929 . S
