# Generated by pormake.
# Topology tfs, (6)-cn, num edge types: 1
# Building blocks:
#     Node 0, Type 0, BuildingBlock: BETDAH_clean_sbu_0, # of connection points: 6
#     Node 1, Type 0, BuildingBlock: BETDAH_clean_sbu_0, # of connection points: 6
#     Node 2, Type 0, BuildingBlock: BETDAH_clean_sbu_0, # of connection points: 6
#     Node 3, Type 0, BuildingBlock: BETDAH_clean_sbu_0, # of connection points: 6
#     Node 4, Type 0, BuildingBlock: BETDAH_clean_sbu_0, # of connection points: 6
#     Node 5, Type 0, BuildingBlock: BETDAH_clean_sbu_0, # of connection points: 6
#     Edge 6, Type (0, 0), BuildingBlock: TEMPAE_clean_linker_10, # of connection points: 2
#     Edge 7, Type (0, 0), BuildingBlock: TEMPAE_clean_linker_10, # of connection points: 2
#     Edge 8, Type (0, 0), BuildingBlock: TEMPAE_clean_linker_10, # of connection points: 2
#     Edge 9, Type (0, 0), BuildingBlock: TEMPAE_clean_linker_10, # of connection points: 2
#     Edge 10, Type (0, 0), BuildingBlock: TEMPAE_clean_linker_10, # of connection points: 2
#     Edge 11, Type (0, 0), BuildingBlock: TEMPAE_clean_linker_10, # of connection points: 2
#     Edge 12, Type (0, 0), BuildingBlock: TEMPAE_clean_linker_10, # of connection points: 2
#     Edge 13, Type (0, 0), BuildingBlock: TEMPAE_clean_linker_10, # of connection points: 2
#     Edge 14, Type (0, 0), BuildingBlock: TEMPAE_clean_linker_10, # of connection points: 2
#     Edge 15, Type (0, 0), BuildingBlock: TEMPAE_clean_linker_10, # of connection points: 2
#     Edge 16, Type (0, 0), BuildingBlock: TEMPAE_clean_linker_10, # of connection points: 2
#     Edge 17, Type (0, 0), BuildingBlock: TEMPAE_clean_linker_10, # of connection points: 2
#     Edge 18, Type (0, 0), BuildingBlock: TEMPAE_clean_linker_10, # of connection points: 2
#     Edge 19, Type (0, 0), BuildingBlock: TEMPAE_clean_linker_10, # of connection points: 2
#     Edge 20, Type (0, 0), BuildingBlock: TEMPAE_clean_linker_10, # of connection points: 2
#     Edge 21, Type (0, 0), BuildingBlock: TEMPAE_clean_linker_10, # of connection points: 2
#     Edge 22, Type (0, 0), BuildingBlock: TEMPAE_clean_linker_10, # of connection points: 2
#     Edge 23, Type (0, 0), BuildingBlock: TEMPAE_clean_linker_10, # of connection points: 2
# Relax obj value: 0.553
# Max RMSD: 0.463
# Mean RMSD: 0.362
data_MOF--net-tfs--node1-BETDAH_clean_sbu_0--edge1-TEMPAE_clean_linker_10
_symmetry_space_group_name_H-M    P1
_symmetry_Int_Tables_number       1
_symmetry_cell_setting            triclinic
loop_
_symmetry_equiv_pos_as_xyz
'x, y, z'
_cell_length_a     53.998507
_cell_length_b     50.670884
_cell_length_c     13.010942
_cell_angle_alpha  98.760009
_cell_angle_beta   92.339435
_cell_angle_gamma 127.07932
loop_
_atom_site_label
_atom_site_type_symbol
_atom_site_fract_x
_atom_site_fract_y
_atom_site_fract_z
_atom_type_partial_charge
Ho0 Ho 0.3253 0.4642 0.65737 0.0
Ho1 Ho 0.30552 0.5085 0.60608 0.0
C2 C 0.25278 0.43027 0.60728 0.0
C3 C 0.34902 0.43709 0.72726 0.0
C4 C 0.35404 0.41235 0.68353 0.0
C5 C 0.3675 0.4035 0.75116 0.0
C6 C 0.37514 0.38248 0.71036 0.0
C7 C 0.36949 0.36989 0.60083 0.0
C8 C 0.35523 0.37819 0.53348 0.0
C9 C 0.34764 0.39928 0.57445 0.0
C10 C 0.31151 0.45903 0.45001 0.0
C11 C 0.37771 0.54301 0.63887 0.0
C12 C 0.28212 0.5367 0.5476 0.0
C13 C 0.28358 0.56566 0.60037 0.0
C14 C 0.28957 0.59014 0.54528 0.0
C15 C 0.29118 0.61777 0.59476 0.0
C16 C 0.28657 0.62136 0.70031 0.0
C17 C 0.28075 0.59681 0.75539 0.0
C18 C 0.27944 0.56939 0.7062 0.0
C19 C 0.32536 0.51795 0.80986 0.0
O20 O 0.27359 0.43107 0.66842 0.0
O21 O 0.26184 0.45441 0.55539 0.0
O22 O 0.36547 0.46558 0.6958 0.0
O23 O 0.31997 0.42553 0.73022 0.0
O24 O 0.30832 0.43518 0.48805 0.0
O25 O 0.32391 0.48437 0.52379 0.0
O26 O 0.35543 0.54094 0.5825 0.0
O27 O 0.37088 0.51895 0.68942 0.0
O28 O 0.26643 0.50978 0.58791 0.0
O29 O 0.30844 0.5439 0.52191 0.0
O30 O 0.32795 0.54135 0.7712 0.0
O31 O 0.30927 0.49042 0.74297 0.0
H32 H 0.3727 0.41342 0.83558 0.0
H33 H 0.38569 0.37627 0.76464 0.0
H34 H 0.35086 0.36931 0.44877 0.0
H35 H 0.33751 0.40605 0.5208 0.0
H36 H 0.29314 0.58795 0.46402 0.0
H37 H 0.29634 0.63651 0.55044 0.0
H38 H 0.27674 0.59848 0.83619 0.0
H39 H 0.27506 0.55103 0.75109 0.0
Ho40 Ho 0.86847 0.18595 0.40156 0.0
Ho41 Ho 0.80302 0.1608 0.27668 0.0
C42 C 0.80517 0.10882 0.38034 0.0
C43 C 0.91556 0.20631 0.54084 0.0
C44 C 0.9502 0.22887 0.55115 0.0
C45 C 0.96884 0.24163 0.65082 0.0
C46 C 1.00171 0.26171 0.66117 0.0
C47 C 1.01655 0.26924 0.57177 0.0
C48 C 0.99771 0.25668 0.47206 0.0
C49 C 0.96488 0.2368 0.4619 0.0
C50 C 0.85684 0.15965 0.19375 0.0
C51 C 0.86969 0.23278 0.2612 0.0
C52 C 0.75542 0.14611 0.15276 0.0
C53 C 0.73035 0.1501 0.15846 0.0
C54 C 0.73769 0.18222 0.19 0.0
C55 C 0.71384 0.18572 0.1885 0.0
C56 C 0.68195 0.15722 0.15584 0.0
C57 C 0.67468 0.12504 0.12561 0.0
C58 C 0.69858 0.12158 0.12661 0.0
C59 C 0.81507 0.18709 0.48589 0.0
O60 O 0.83184 0.13563 0.44087 0.0
O61 O 0.79177 0.11146 0.29857 0.0
O62 O 0.9005 0.17839 0.46736 0.0
O63 O 0.90199 0.22079 0.54426 0.0
O64 O 0.8851 0.18188 0.24793 0.0
O65 O 0.837 0.15082 0.25481 0.0
O66 O 0.84009 0.20703 0.21837 0.0
O67 O 0.88499 0.23234 0.34228 0.0
O68 O 0.75375 0.1246 0.20234 0.0
O69 O 0.78431 0.17377 0.1618 0.0
O70 O 0.78721 0.16629 0.43004 0.0
O71 O 0.83449 0.19593 0.42366 0.0
H72 H 0.95794 0.23571 0.7206 0.0
H73 H 1.01548 0.27079 0.73896 0.0
H74 H 1.00837 0.26245 0.40185 0.0
H75 H 0.95092 0.22734 0.38421 0.0
H76 H 0.76192 0.20482 0.21452 0.0
H77 H 0.72054 0.21097 0.21085 0.0
H78 H 0.65046 0.10242 0.10146 0.0
H79 H 0.69223 0.09654 0.1015 0.0
Ho80 Ho 0.66183 0.80827 0.59704 0.0
Ho81 Ho 0.64167 0.84639 0.73471 0.0
C82 C 0.69822 0.88846 0.61748 0.0
C83 C 0.68109 0.78513 0.45857 0.0
C84 C 0.70166 0.77541 0.45985 0.0
C85 C 0.70267 0.75882 0.36575 0.0
C86 C 0.72147 0.74849 0.36587 0.0
C87 C 0.73956 0.75464 0.46032 0.0
C88 C 0.73893 0.77192 0.55432 0.0
C89 C 0.72001 0.78216 0.55412 0.0
C90 C 0.68175 0.82513 0.80827 0.0
C91 C 0.59423 0.76332 0.67424 0.0
C92 C 0.63462 0.87706 0.89363 0.0
C93 C 0.61309 0.87767 0.95601 0.0
C94 C 0.58245 0.84852 0.95483 0.0
C95 C 0.56208 0.85125 0.00988 0.0
C96 C 0.57222 0.88316 0.06609 0.0
C97 C 0.60363 0.91175 0.07161 0.0
C98 C 0.6238 0.90898 0.01695 0.0
C99 C 0.62181 0.82956 0.52389 0.0
O100 O 0.68745 0.85948 0.55292 0.0
O101 O 0.68918 0.88881 0.70982 0.0
O102 O 0.65474 0.76572 0.49391 0.0
O103 O 0.69493 0.81739 0.49236 0.0
O104 O 0.67559 0.79878 0.74537 0.0
O105 O 0.67957 0.84207 0.7529 0.0
O106 O 0.60182 0.79153 0.73626 0.0
O107 O 0.61193 0.7641 0.60464 0.0
O108 O 0.63423 0.88252 0.7986 0.0
O109 O 0.63828 0.85402 0.89956 0.0
O110 O 0.62703 0.85576 0.5858 0.0
O111 O 0.62467 0.81322 0.57946 0.0
H112 H 0.68872 0.75362 0.29233 0.0
H113 H 0.72181 0.73559 0.29211 0.0
H114 H 0.75239 0.7767 0.62829 0.0
H115 H 0.71941 0.79499 0.62749 0.0
H116 H 0.57407 0.82404 0.90899 0.0
H117 H 0.53807 0.82875 0.0048 0.0
H118 H 0.61217 0.93679 0.11228 0.0
H119 H 0.64758 0.93162 0.01937 0.0
Ho120 Ho 0.85974 0.54206 0.11887 0.0
Ho121 Ho 0.90135 0.52471 0.01339 0.0
C122 C 0.93534 0.59218 0.19823 0.0
C123 C 0.82993 0.55165 0.25021 0.0
C124 C 0.83256 0.58053 0.30835 0.0
C125 C 0.8577 0.61383 0.304 0.0
C126 C 0.85769 0.64072 0.34881 0.0
C127 C 0.8325 0.63456 0.3982 0.0
C128 C 0.80831 0.60125 0.40705 0.0
C129 C 0.80838 0.57448 0.36247 0.0
C130 C 0.88153 0.5681 0.94766 0.0
C131 C 0.82748 0.48101 0.92382 0.0
C132 C 0.93034 0.50708 0.90661 0.0
C133 C 0.9418 0.48856 0.9337 0.0
C134 C 0.93295 0.45945 0.862 0.0
C135 C 0.93596 0.43643 0.89565 0.0
C136 C 0.94782 0.44219 0.0017 0.0
C137 C 0.9593 0.47288 0.07073 0.0
C138 C 0.95618 0.49577 0.03727 0.0
C139 C 0.88025 0.50064 0.1879 0.0
O140 O 0.9072 0.58174 0.21661 0.0
O141 O 0.93938 0.57668 0.11635 0.0
O142 O 0.82226 0.54488 0.14764 0.0
O143 O 0.85241 0.55006 0.27896 0.0
O144 O 0.85654 0.5624 -0.02053 0.0
O145 O 0.895 0.56359 0.01569 0.0
O146 O 0.85552 0.49392 0.89774 0.0
O147 O 0.82395 0.49086 0.01822 0.0
O148 O 0.94463 0.53778 0.96311 0.0
O149 O 0.89971 0.48917 0.89224 0.0
O150 O 0.90564 0.50746 0.15759 0.0
O151 O 0.86602 0.50318 0.11649 0.0
H152 H 0.87666 0.61882 0.26277 0.0
H153 H 0.87683 0.66613 0.34179 0.0
H154 H 0.78832 0.59549 0.4431 0.0
H155 H 0.78886 0.54885 0.36647 0.0
H156 H 0.92157 0.45327 0.78205 0.0
H157 H 0.92672 0.41292 0.84074 0.0
H158 H 0.96898 0.47823 0.15248 0.0
H159 H 0.9631 0.51795 0.09455 0.0
Ho160 Ho 0.251 0.84668 0.90635 0.0
Ho161 Ho 0.31812 0.89011 0.84002 0.0
C162 C 0.26779 0.90205 0.77463 0.0
C163 C 0.20146 0.81769 -0.00707 0.0
C164 C 0.17016 0.80395 0.94042 0.0
C165 C 0.14295 0.77555 0.96485 0.0
C166 C 0.11444 0.75662 0.89462 0.0
C167 C 0.11307 0.7653 0.79754 0.0
C168 C 0.14004 0.79539 0.77823 0.0
C169 C 0.1681 0.81461 0.84934 0.0
C170 C 0.2512 0.82828 0.70209 0.0
C171 C 0.29608 0.82402 0.92068 0.0
C172 C 0.37141 0.92826 0.77831 0.0
C173 C 0.40312 0.94681 0.83852 0.0
C174 C 0.42488 0.94432 0.79327 0.0
C175 C 0.45075 0.95204 0.85739 0.0
C176 C 0.45501 0.96215 0.96771 0.0
C177 C 0.43502 0.96805 0.0115 0.0
C178 C 0.40927 0.96052 0.94727 0.0
C179 C 0.31514 0.90374 0.046 0.0
O180 O 0.25063 0.88571 0.84485 0.0
O181 O 0.2917 0.90272 0.75137 0.0
O182 O 0.2118 0.80176 0.94979 0.0
O183 O 0.22277 0.85074 0.01143 0.0
O184 O 0.22681 0.82332 0.73652 0.0
O185 O 0.27259 0.83996 0.77848 0.0
O186 O 0.31381 0.84476 0.85969 0.0
O187 O 0.27377 0.8241 0.96048 0.0
O188 O 0.35538 0.93877 0.80935 0.0
O189 O 0.35475 0.89522 0.7603 0.0
O190 O 0.33852 0.90637 0.01214 0.0
O191 O 0.29614 0.89648 0.96823 0.0
H192 H 0.14415 0.76683 0.03457 0.0
H193 H 0.09396 0.73422 0.91403 0.0
H194 H 0.14042 0.80297 0.70455 0.0
H195 H 0.18889 0.83632 0.82839 0.0
H196 H 0.42042 0.9336 0.70977 0.0
H197 H 0.46563 0.94697 0.82143 0.0
H198 H 0.43799 0.97613 0.09609 0.0
H199 H 0.39289 0.96289 -0.01587 0.0
Ho200 Ho 0.45778 0.18594 0.24165 0.0
Ho201 Ho 0.50628 0.25324 0.16841 0.0
C202 C 0.45218 0.24792 0.27723 0.0
C203 C 0.42017 0.14042 0.34285 0.0
C204 C 0.38858 0.12276 0.3731 0.0
C205 C 0.38367 0.13775 0.46173 0.0
C206 C 0.35633 0.11831 0.50515 0.0
C207 C 0.33341 0.08353 0.46064 0.0
C208 C 0.33702 0.06937 0.36639 0.0
C209 C 0.36444 0.08875 0.32343 0.0
C210 C 0.44514 0.18518 0.0383 0.0
C211 C 0.51795 0.19592 0.162 0.0
C212 C 0.54058 0.29615 0.05544 0.0
C213 C 0.56632 0.30292 0.0003 0.0
C214 C 0.58196 0.28979 0.02304 0.0
C215 C 0.60631 0.29604 0.96998 0.0
C216 C 0.61577 0.31605 0.89437 0.0
C217 C 0.59961 0.32868 0.87054 0.0
C218 C 0.57521 0.32233 0.92382 0.0
C219 C 0.51809 0.25359 0.37081 0.0
O220 O 0.44464 0.21978 0.30296 0.0
O221 O 0.47277 0.26328 0.21374 0.0
O222 O 0.42186 0.13309 0.24374 0.0
O223 O 0.44128 0.17261 0.38692 0.0
O224 O 0.43864 0.15905 0.0707 0.0
O225 O 0.4565 0.20938 0.11647 0.0
O226 O 0.52402 0.22237 0.12692 0.0
O227 O 0.49568 0.18025 0.22057 0.0
O228 O 0.54687 0.30324 0.15864 0.0
O229 O 0.51311 0.26688 0.01703 0.0
O230 O 0.52505 0.28039 0.34087 0.0
O231 O 0.50708 0.22978 0.29227 0.0
H232 H 0.40175 0.16393 0.50159 0.0
H233 H 0.35413 0.1299 0.57768 0.0
H234 H 0.32002 0.04252 0.33107 0.0
H235 H 0.36761 0.07643 0.25548 0.0
H236 H 0.57569 0.2752 0.08315 0.0
H237 H 0.61842 0.28614 -0.00953 0.0
H238 H 0.60689 0.34494 0.81482 0.0
H239 H 0.56385 0.33335 0.90746 0.0
C240 C 0.41976 0.25144 0.4039 0.0
C241 C 0.43748 0.26318 0.32269 0.0
C242 C 0.40721 0.26695 0.45106 0.0
C243 C 0.41236 0.2948 0.41608 0.0
C244 C 0.42982 0.30641 0.33315 0.0
C245 C 0.44216 0.29054 0.28771 0.0
C246 C 0.38886 0.25386 0.53952 0.0
C247 C 0.4359 0.33601 0.29337 0.0
C248 C 0.36048 0.32119 0.47206 0.0
C249 C 0.37961 0.34939 0.55682 0.0
C250 C 0.37046 0.30265 0.42725 0.0
C251 C 0.40036 0.31257 0.4677 0.0
C252 C 0.41952 0.34062 0.55439 0.0
C253 C 0.40894 0.35864 0.59778 0.0
C254 C 0.34922 0.27278 0.33538 0.0
C255 C 0.45162 0.3522 0.59965 0.0
H256 H 0.41613 0.23048 0.43214 0.0
H257 H 0.45574 0.29983 0.225 0.0
H258 H 0.40092 0.27413 0.6127 0.0
H259 H 0.36509 0.24675 0.51975 0.0
H260 H 0.38624 0.23146 0.55576 0.0
H261 H 0.44926 0.34144 0.22666 0.0
H262 H 0.41327 0.33081 0.26703 0.0
H263 H 0.44944 0.35908 0.35818 0.0
H264 H 0.33763 0.31355 0.44071 0.0
H265 H 0.42411 0.38064 0.66221 0.0
H266 H 0.3451 0.24981 0.35304 0.0
H267 H 0.36077 0.27787 0.26451 0.0
H268 H 0.3261 0.26733 0.3163 0.0
H269 H 0.44974 0.3308 0.62155 0.0
H270 H 0.46296 0.37336 0.67043 0.0
H271 H 0.46719 0.36076 0.53922 0.0
C272 C 0.20652 0.37788 0.65789 0.0
C273 C 0.21831 0.40319 0.5998 0.0
C274 C 0.17386 0.35395 0.65606 0.0
C275 C 0.15252 0.35549 0.5953 0.0
C276 C 0.16429 0.38057 0.53513 0.0
C277 C 0.19687 0.40391 0.5378 0.0
C278 C 0.1622 0.32739 0.72054 0.0
C279 C 0.1425 0.3833 0.46947 0.0
C280 C 0.06529 0.28099 0.51096 0.0
C281 C 0.05152 0.29019 0.58218 0.0
C282 C 0.09818 0.30122 0.51708 0.0
C283 C 0.11788 0.33161 0.5958 0.0
C284 C 0.10415 0.34059 0.66955 0.0
C285 C 0.0712 0.31975 0.66207 0.0
C286 C 0.1118 0.29054 0.43746 0.0
C287 C 0.12421 0.37291 0.75405 0.0
H288 H 0.2228 0.37706 0.7061 0.0
H289 H 0.20551 0.42324 0.49236 0.0
H290 H 0.15034 0.33101 0.78237 0.0
H291 H 0.14452 0.3017 0.66968 0.0
H292 H 0.18159 0.32843 0.75921 0.0
H293 H 0.15536 0.40392 0.42583 0.0
H294 H 0.12501 0.35901 0.41167 0.0
H295 H 0.12921 0.38823 0.52102 0.0
H296 H 0.0503 0.25791 0.45006 0.0
H297 H 0.06078 0.3272 0.71692 0.0
H298 H 0.13027 0.29055 0.47819 0.0
H299 H 0.12316 0.30897 0.38597 0.0
H300 H 0.09358 0.26489 0.38691 0.0
H301 H 0.14284 0.37415 0.79961 0.0
H302 H 0.11016 0.37513 0.80964 0.0
H303 H 0.13617 0.3951 0.71686 0.0
C304 C 0.76012 0.04674 0.35792 0.0
C305 C 0.79079 0.07519 0.40517 0.0
C306 C 0.74603 0.01541 0.38636 0.0
C307 C 0.76305 1.0125 0.46364 0.0
C308 C 0.79438 0.04082 0.50875 0.0
C309 C 0.80784 0.07172 0.4789 0.0
C310 C 0.71261 0.98568 0.33613 0.0
C311 C 0.8134 0.03888 0.5913 0.0
C312 C 0.71708 0.94762 0.62961 0.0
C313 C 0.71671 0.92066 0.5807 0.0
C314 C 0.73183 0.97738 0.59162 0.0
C315 C 0.74732 0.98077 0.50374 0.0
C316 C 0.74791 0.95414 0.45573 0.0
C317 C 0.73209 0.92409 0.49361 0.0
C318 C 0.73064 1.00514 0.64536 0.0
C319 C 0.76524 0.95744 0.36449 0.0
H320 H 0.74683 0.04911 0.30051 0.0
H321 H 0.83167 0.09341 0.51533 0.0
H322 H 0.69734 0.9776 0.39753 0.0
H323 H 0.70283 0.99176 0.27544 0.0
H324 H 0.71164 0.96382 0.2987 0.0
H325 H 0.80315 0.03582 0.66483 0.0
H326 H 0.81256 0.01647 0.56428 0.0
H327 H 0.83841 0.062 0.61031 0.0
H328 H 0.70498 0.94516 0.69625 0.0
H329 H 0.7319 0.90338 0.45544 0.0
H330 H 0.72099 1.01192 0.5869 0.0
H331 H 0.75479 0.02826 0.68074 0.0
H332 H 0.71599 0.99768 0.70866 0.0
H333 H 0.76668 0.93635 0.34418 0.0
H334 H 0.78951 0.98177 0.38336 0.0
H335 H 0.75311 0.95771 0.29427 0.0
C336 C 0.83458 0.68262 0.35952 0.0
C337 C 0.82907 0.66152 0.42855 0.0
C338 C 0.82502 0.70304 0.3747 0.0
C339 C 0.80939 0.70206 0.46039 0.0
C340 C 0.80626 0.68314 0.53537 0.0
C341 C 0.81626 0.66316 0.51872 0.0
C342 C 0.82914 0.72321 0.29366 0.0
C343 C 0.7899 0.68163 0.62822 0.0
C344 C 0.78887 0.7621 0.51562 0.0
C345 C 0.75786 0.74168 0.46107 0.0
C346 C 0.80616 0.74971 0.51629 0.0
C347 C 0.79192 0.7161 0.46179 0.0
C348 C 0.76056 0.69538 0.40719 0.0
C349 C 0.74396 0.70844 0.40744 0.0
C350 C 0.83963 0.77254 0.57449 0.0
C351 C 0.74443 0.65929 0.34856 0.0
H352 H 0.8443 0.68143 0.2893 0.0
H353 H 0.81256 0.64744 0.57352 0.0
H354 H 0.80615 0.71014 0.24239 0.0
H355 H 0.83721 0.74884 0.33236 0.0
H356 H 0.84628 0.72596 0.2429 0.0
H357 H 0.79362 0.67015 0.68728 0.0
H358 H 0.79834 0.70735 0.66756 0.0
H359 H 0.76422 0.66611 0.59996 0.0
H360 H 0.79973 0.78791 0.55654 0.0
H361 H 0.71982 0.69242 0.36668 0.0
H362 H 0.85584 0.77588 0.51879 0.0
H363 H 0.84212 0.7607 0.63503 0.0
H364 H 0.84715 0.79793 0.61378 0.0
H365 H 0.75778 0.65896 0.28642 0.0
H366 H 0.71987 0.64652 0.31082 0.0
H367 H 0.74397 0.64433 0.40356 0.0
C368 C 0.07777 0.75351 0.63539 0.0
C369 C 0.08537 0.74139 0.71136 0.0
C370 C 0.0548 0.73127 0.54564 0.0
C371 C 0.03795 0.69591 0.5336 0.0
C372 C 0.04459 0.68336 0.61157 0.0
C373 C 0.06839 0.70622 0.69863 0.0
C374 C 0.049 0.74565 0.46268 0.0
C375 C 1.02624 0.64581 0.60526 0.0
C376 C 0.95732 0.63659 0.36369 0.0
C377 C 0.96265 0.62158 0.27639 0.0
C378 C 0.9817 0.66111 0.44713 0.0
C379 C 1.0125 0.67195 0.44168 0.0
C380 C 1.01853 0.6586 0.35098 0.0
C381 C 0.99341 0.6332 0.26969 0.0
C382 C 0.97406 0.67388 0.54375 0.0
C383 C 0.05132 0.67019 0.34192 0.0
H384 H 0.09011 0.7805 0.64495 0.0
H385 H 0.07416 0.69631 0.75518 0.0
H386 H 0.05181 0.73622 0.38474 0.0
H387 H 1.0245 0.737 0.45532 0.0
H388 H 0.06534 0.77383 0.48108 0.0
H389 H 0.03922 0.64045 0.65523 0.0
H390 H 1.0038 0.63616 0.6343 0.0
H391 H 1.02049 0.63145 0.52322 0.0
H392 H 0.93369 0.62803 0.36995 0.0
H393 H 0.99779 0.62195 0.20239 0.0
H394 H 0.98805 0.70184 0.55867 0.0
H395 H 0.9805 0.66794 0.61404 0.0
H396 H 0.94869 0.66239 0.536 0.0
H397 H 0.06825 0.69832 0.35901 0.0
H398 H 0.05267 0.65997 0.26233 0.0
H399 H 0.05882 0.66167 0.40118 0.0
C400 C 0.27589 0.93212 0.63169 0.0
C401 C 0.26193 0.9219 0.72081 0.0
C402 C 0.27814 0.95749 0.59262 0.0
C403 C 0.265 0.97233 0.64156 0.0
C404 C 0.2474 0.95917 0.72324 0.0
C405 C 0.24637 0.93424 0.76312 0.0
C406 C 0.2973 0.97052 0.50544 0.0
C407 C 0.23141 0.97273 0.77364 0.0
C408 C 0.32088 0.06289 0.62623 0.0
C409 C 0.3101 0.06057 0.52291 0.0
C410 C 0.30368 0.03525 0.67418 0.0
C411 C 0.27485 1.00486 0.61768 0.0
C412 C 0.26138 1.00463 0.52167 0.0
C413 C 0.27949 0.03236 0.47398 0.0
C414 C 0.31872 0.03696 0.77799 0.0
C415 C 0.22955 0.97362 0.4634 0.0
H416 H 0.28707 0.92185 0.59622 0.0
H417 H 0.23499 0.92595 0.8308 0.0
H418 H 0.2831 0.96917 0.43795 0.0
H419 H 0.31817 0.9975 0.53452 0.0
H420 H 0.30571 0.95591 0.47598 0.0
H421 H 0.20897 0.95202 0.79537 0.0
H422 H 0.24676 0.99181 0.84748 0.0
H423 H 0.22641 0.98483 0.72097 0.0
H424 H 0.34442 0.08472 0.66496 0.0
H425 H 0.27071 0.03085 0.39512 0.0
H426 H 0.33922 0.06335 0.81717 0.0
H427 H 0.32693 0.02143 0.76423 0.0
H428 H 0.30138 0.02647 0.83233 0.0
H429 H 0.23219 0.95576 0.41456 0.0
H430 H 0.21861 0.98043 0.41006 0.0
H431 H 0.21352 0.96028 0.51939 0.0
C432 C 0.32378 0.79877 0.89679 0.0
C433 C 0.29834 0.79672 0.9296 0.0
C434 C 0.32292 0.77024 0.87763 0.0
C435 C 0.29605 0.73891 0.89251 0.0
C436 C 0.27179 0.73755 0.93631 0.0
C437 C 0.2732 0.76654 0.95432 0.0
C438 C 0.3495 0.77302 0.83214 0.0
C439 C 0.24315 0.70483 0.95603 0.0
C440 C 0.27492 0.66221 0.6951 0.0
C441 C 0.28766 0.65047 0.75228 0.0
C442 C 0.27683 0.6904 0.74099 0.0
C443 C 0.29146 0.70713 0.84746 0.0
C444 C 0.30339 0.69477 0.90703 0.0
C445 C 0.30158 0.66676 0.85853 0.0
C446 C 0.26386 0.70282 0.67444 0.0
C447 C 0.31883 0.71167 0.021 0.0
H448 H 0.34364 0.8222 0.87957 0.0
H449 H 0.25358 0.76482 -0.01921 0.0
H450 H 0.35679 0.7604 0.87253 0.0
H451 H 0.34134 0.75997 0.74747 0.0
H452 H 0.37039 0.79983 0.83863 0.0
H453 H 0.22961 0.70927 0.00797 0.0
H454 H 0.22748 0.68806 0.87974 0.0
H455 H 0.24997 0.6912 -0.00745 0.0
H456 H 0.26345 0.64937 0.6139 0.0
H457 H 0.31176 0.65814 0.90335 0.0
H458 H 0.28316 0.729 0.66747 0.0
H459 H 0.24632 0.70369 0.71278 0.0
H460 H 0.25246 0.68644 0.59381 0.0
H461 H 0.34171 0.73691 0.02573 0.0
H462 H 0.32316 0.69645 0.06002 0.0
H463 H 0.30397 0.71586 0.06559 0.0
C464 C 0.5643 0.20383 0.09136 0.0
C465 C 0.53943 0.18678 0.14816 0.0
C466 C 0.58655 0.19781 0.08675 0.0
C467 C 0.584 0.17409 0.1402 0.0
C468 C 0.55825 0.1558 0.19414 0.0
C469 C 0.53637 0.16236 0.19753 0.0
C470 C 0.61349 0.2179 0.028 0.0
C471 C 0.55431 0.12995 0.25096 0.0
C472 C 0.63039 0.14126 0.07044 0.0
C473 C 0.65654 0.16116 0.15229 0.0
C474 C 0.60661 0.14507 0.06559 0.0
C475 C 0.60898 0.16954 0.14399 0.0
C476 C 0.63526 0.18971 0.22667 0.0
C477 C 0.65855 0.18519 0.23009 0.0
C478 C 0.57906 0.12308 0.97596 0.0
C479 C 0.63882 0.21617 0.31179 0.0
H480 H 0.56686 0.22248 0.05205 0.0
H481 H 0.51724 0.14884 0.24132 0.0
H482 H 0.63536 0.23755 0.08567 0.0
H483 H 0.61759 0.20133 -0.02084 0.0
H484 H 0.60922 0.2307 0.97599 0.0
H485 H 0.53204 0.11637 0.28369 0.0
H486 H 0.55456 0.11102 0.19656 0.0
H487 H 0.57432 0.14271 0.3167 0.0
H488 H 0.6287 0.123 0.00882 0.0
H489 H 0.67826 0.20037 0.2947 0.0
H490 H 0.57822 0.13924 0.92949 0.0
H491 H 0.55668 0.10864 0.00759 0.0
H492 H 0.58036 0.10484 0.92218 0.0
H493 H 0.63911 0.23483 0.27582 0.0
H494 H 0.66073 0.22999 0.37027 0.0
H495 H 0.61838 0.20401 0.35397 0.0
C496 C 0.55652 0.69975 0.61889 0.0
C497 C 0.56401 0.73007 0.67747 0.0
C498 C 0.52743 0.66824 0.61682 0.0
C499 C 0.50515 0.66688 0.6745 0.0
C500 C 0.51292 0.69727 0.73621 0.0
C501 C 0.5422 0.72845 0.73694 0.0
C502 C 0.52017 0.63647 0.55033 0.0
C503 C 0.48984 0.697 0.79871 0.0
C504 C 0.41826 0.59466 0.57497 0.0
C505 C 0.41084 0.57347 0.64567 0.0
C506 C 0.44886 0.62476 0.58287 0.0
C507 C 0.47287 0.63415 0.66362 0.0
C508 C 0.46578 0.61253 0.73394 0.0
C509 C 0.43484 0.58237 0.72399 0.0
C510 C 0.45534 0.64681 0.50553 0.0
C511 C 0.49077 0.62157 0.82069 0.0
H512 H 0.57324 0.70059 0.57326 0.0
H513 H 0.54764 0.75164 0.7823 0.0
H514 H 0.51243 0.6172 0.59822 0.0
H515 H 0.50051 0.62533 0.48473 0.0
H516 H 0.54079 0.64148 0.51628 0.0
H517 H 0.5003 0.72236 0.84882 0.0
H518 H 0.46896 0.68881 0.74395 0.0
H519 H 0.48143 0.67851 0.84996 0.0
H520 H 0.40002 0.58784 0.51324 0.0
H521 H 0.42932 0.56618 0.77898 0.0
H522 H 0.47457 0.651 0.46395 0.0
H523 H 0.4633 0.67204 0.54848 0.0
H524 H 0.43426 0.63547 0.4457 0.0
H525 H 0.51105 0.62563 0.78687 0.0
H526 H 0.48177 0.60158 0.86662 0.0
H527 H 0.49971 0.64571 0.87543 0.0
C528 C 0.93061 0.40674 0.13575 0.0
C529 C 0.94371 0.41433 0.04359 0.0
C530 C 0.92231 0.37792 0.17012 0.0
C531 C 0.92737 0.35614 0.11129 0.0
C532 C 0.94202 0.36448 0.02105 0.0
C533 C 0.94979 0.39338 -0.01236 0.0
C534 C 0.90644 0.36979 0.26617 0.0
C535 C 0.9481 0.34206 0.95691 0.0
C536 C 0.9175 0.29118 0.25436 0.0
C537 C 0.88585 0.26334 0.21587 0.0
C538 C 0.93205 0.32106 0.21653 0.0
C539 C 0.91443 0.32318 0.13933 0.0
C540 C 0.88297 0.29461 0.09672 0.0
C541 C 0.86913 0.26506 0.13519 0.0
C542 C 0.96586 0.35079 0.26214 0.0
C543 C 0.86324 0.29579 0.01461 0.0
H544 H 0.92528 0.42241 0.17834 0.0
H545 H 0.96003 0.39923 0.91663 0.0
H546 H 0.88179 0.3462 0.24233 0.0
H547 H 0.91863 0.36524 0.32307 0.0
H548 H 0.90609 0.39046 0.30698 0.0
H549 H 0.96462 0.35505 0.90164 0.0
H550 H 0.95788 0.33388 0.00906 0.0
H551 H 0.92557 0.31888 0.91004 0.0
H552 H 0.93078 0.28996 0.31562 0.0
H553 H 0.84478 0.24361 0.10376 0.0
H554 H 0.9668 0.37133 0.31171 0.0
H555 H 0.9795 0.3612 0.19805 0.0
H556 H 0.97744 0.34377 0.31147 0.0
H557 H 0.85797 0.3128 0.05108 0.0
H558 H 0.84061 0.27033 -0.01941 0.0
H559 H 0.87627 0.3063 0.94954 0.0
C560 C 0.4637 0.9397 0.11078 0.0
C561 C 0.47591 0.95972 0.03547 0.0
C562 C 0.47891 0.92799 0.15209 0.0
C563 C 0.50669 0.93639 0.11631 0.0
C564 C 0.52113 0.96013 0.05101 0.0
C565 C 0.50549 0.97152 0.01122 0.0
C566 C 0.46331 0.90372 0.22442 0.0
C567 C 0.55128 0.97049 0.01319 0.0
C568 C 0.55846 0.91348 0.19136 0.0
C569 C 0.54946 0.88841 0.10148 0.0
C570 C 0.54248 0.92728 0.20462 0.0
C571 C 0.51699 0.91549 0.12639 0.0
C572 C 0.50509 0.88689 0.04417 0.0
C573 C 0.52154 0.87369 0.03264 0.0
C574 C 0.55504 0.95676 0.29592 0.0
C575 C 0.47728 0.8728 0.96062 0.0
H576 H 0.44081 0.93053 0.13016 0.0
H577 H 0.51519 0.98754 0.95464 0.0
H578 H 0.44779 0.87731 0.17662 0.0
H579 H 0.48091 0.90618 0.28086 0.0
H580 H 0.4485 0.90796 0.26936 0.0
H581 H 0.56142 0.99224 0.97437 0.0
H582 H 0.56908 0.97753 0.07994 0.0
H583 H 0.54652 0.94876 0.95552 0.0
H584 H 0.57953 0.92425 0.24671 0.0
H585 H 0.51425 0.85421 0.96329 0.0
H586 H 0.53584 0.95682 0.32286 0.0
H587 H 0.57174 0.98084 0.27054 0.0
H588 H 0.56789 0.95624 0.36345 0.0
H589 H 0.45753 0.86914 -0.00267 0.0
H590 H 0.46872 0.84815 0.91007 0.0
H591 H 0.48419 0.89108 0.9094 0.0
C592 C 0.77446 0.45766 0.84338 0.0
C593 C 0.79856 0.4547 0.84842 0.0
C594 C 0.74318 0.42905 0.80805 0.0
C595 C 0.73615 0.39686 0.77755 0.0
C596 C 0.76092 0.39486 0.7642 0.0
C597 C 0.79223 0.42404 0.80137 0.0
C598 C 0.71763 0.43279 0.81922 0.0
C599 C 0.75428 0.36137 0.72288 0.0
C600 C 0.67231 0.34131 0.92506 0.0
C601 C 0.64541 0.32841 0.85373 0.0
C602 C 0.70218 0.36067 0.89668 0.0
C603 C 0.70519 0.36699 0.79361 0.0
C604 C 0.67783 0.35043 0.71732 0.0
C605 C 0.64814 0.33166 0.74875 0.0
C606 C 0.73059 0.37756 -0.01874 0.0
C607 C 0.67968 0.35448 0.60483 0.0
H608 H 0.77976 0.48182 0.87735 0.0
H609 H 0.81112 0.42202 0.80336 0.0
H610 H 0.69959 0.41868 0.74683 0.0
H611 H 0.70579 0.42201 0.88608 0.0
H612 H 0.72709 0.45975 0.8341 0.0
H613 H 0.77383 0.36505 0.68441 0.0
H614 H 0.75205 0.34911 0.78934 0.0
H615 H 0.73195 0.34397 0.6655 0.0
H616 H 0.6704 0.33891 0.00628 0.0
H617 H 0.62725 0.32094 0.69246 0.0
H618 H 0.74349 0.40541 0.0002 0.0
H619 H 0.74696 0.37283 0.95318 0.0
H620 H 0.72403 0.36831 0.05517 0.0
H621 H 0.67617 0.37338 0.59406 0.0
H622 H 0.66055 0.33012 0.54997 0.0
H623 H 0.70267 0.36295 0.58273 0.0
C624 C 0.35551 0.48901 0.35622 0.0
C625 C 0.32289 0.46539 0.35165 0.0
C626 C 0.36759 0.50565 0.27454 0.0
C627 C 0.34636 0.49683 0.18518 0.0
C628 C 0.3135 0.47037 0.1762 0.0
C629 C 0.30206 0.4552 0.2613 0.0
C630 C 0.40266 0.53342 0.2865 0.0
C631 C 0.29017 0.4595 0.07979 0.0
C632 C 0.34599 0.54424 -0.00023 0.0
C633 C 0.3431 0.52358 0.90836 0.0
C634 C 0.35328 0.54038 0.09805 0.0
C635 C 0.3575 0.51549 0.10118 0.0
C636 C 0.36125 0.50035 0.00969 0.0
C637 C 0.35315 0.50404 0.91342 0.0
C638 C 0.35112 0.55846 0.19639 0.0
C639 C 0.36759 0.47516 0.01057 0.0
H640 H 0.37136 0.49653 0.4278 0.0
H641 H 0.27691 0.43712 0.25995 0.0
H642 H 0.40794 0.55492 0.25347 0.0
H643 H 0.41422 0.54332 0.3705 0.0
H644 H 0.41337 0.5231 0.24301 0.0
H645 H 0.26579 0.43765 0.0848 0.0
H646 H 0.29015 0.48089 0.07044 0.0
H647 H 0.29689 0.45217 0.00787 0.0
H648 H 0.33906 0.56019 -0.00507 0.0
H649 H 0.35176 0.48903 0.84237 0.0
H650 H 0.36811 0.56458 0.26458 0.0
H651 H 0.32706 0.54166 0.21563 0.0
H652 H 0.35563 0.58223 0.18513 0.0
H653 H 0.3808 0.47571 0.94661 0.0
H654 H 0.34481 0.44922 -0.0035 0.0
H655 H 0.38116 0.48023 0.087 0.0
C656 C 0.8723 0.16551 0.01675 0.0
C657 C 0.84948 0.15635 0.0813 0.0
C658 C 0.86698 0.16808 0.91386 0.0
C659 C 0.83948 0.1642 0.87989 0.0
C660 C 0.81618 0.15425 0.94483 0.0
C661 C 0.82075 0.14829 0.04202 0.0
C662 C 0.89137 0.17622 0.84432 0.0
C663 C 0.7876 0.15255 0.91826 0.0
C664 C 0.8451 0.20976 0.66704 0.0
C665 C 0.82095 0.18236 0.58883 0.0
C666 C 0.85141 0.20448 0.76401 0.0
C667 C 0.8349 0.17075 0.77754 0.0
C668 C 0.81165 0.14297 0.69567 0.0
C669 C 0.80356 0.14934 0.60503 0.0
C670 C 0.87553 0.23513 0.8504 0.0
C671 C 0.79492 0.10662 0.70451 0.0
H672 H 0.89436 0.17107 0.04697 0.0
H673 H 0.80277 0.14001 0.09101 0.0
H674 H 0.88084 0.16595 0.75936 0.0
H675 H 0.90938 0.20413 0.85767 0.0
H676 H 0.90366 0.16582 0.86422 0.0
H677 H 0.79236 0.17609 0.96274 0.0
H678 H 0.7814 0.15054 0.83394 0.0
H679 H 0.76672 0.13076 0.94319 0.0
H680 H 0.85841 0.23525 0.65338 0.0
H681 H 0.78459 0.12821 0.54427 0.0
H682 H 0.89935 0.24338 0.84005 0.0
H683 H 0.87161 0.23 0.93039 0.0
H684 H 0.8753 0.25666 0.84522 0.0
H685 H 0.77962 0.08824 0.62948 0.0
H686 H 0.77981 0.10056 0.76607 0.0
H687 H 0.81244 0.10287 0.72784 0.0
C688 C 0.62667 0.80119 0.36359 0.0
C689 C 0.62507 0.82665 0.41202 0.0
C690 C 0.63595 0.80112 0.26513 0.0
C691 C 0.64181 0.82595 0.21031 0.0
C692 C 0.63794 0.85035 0.25583 0.0
C693 C 0.63017 0.85077 0.3574 0.0
C694 C 0.6407 0.77525 0.22215 0.0
C695 C 0.64205 0.87644 0.20019 0.0
C696 C 0.69401 0.85054 -0.00018 0.0
C697 C 0.67331 0.82382 0.91378 0.0
C698 C 0.68432 0.85103 0.09813 0.0
C699 C 0.65237 0.82609 0.10677 0.0
C700 C 0.63122 0.79976 0.01788 0.0
C701 C 0.64267 0.7977 0.92514 0.0
C702 C 0.70822 0.87837 0.19187 0.0
C703 C 0.5962 0.77435 0.01632 0.0
H704 H 0.62212 0.7821 0.40513 0.0
H705 H 0.6287 0.87035 0.39455 0.0
H706 H 0.62367 0.75788 0.14898 0.0
H707 H 0.66477 0.78826 0.2026 0.0
H708 H 0.63725 0.75933 0.27835 0.0
H709 H 0.66091 0.90225 0.24834 0.0
H710 H 0.64791 0.87444 0.12033 0.0
H711 H 0.62002 0.87373 0.19383 0.0
H712 H 0.71778 0.87072 -0.0095 0.0
H713 H 0.62697 0.77654 0.85934 0.0
H714 H 0.70546 0.86771 0.26283 0.0
H715 H 0.70462 0.89783 0.20934 0.0
H716 H 0.7327 0.89108 0.17678 0.0
H717 H 0.58852 0.74816 -0.00911 0.0
H718 H 0.58354 0.77762 0.95656 0.0
H719 H 0.5887 0.77689 0.09277 0.0
C720 C 0.87074 0.57163 0.76379 0.0
C721 C 0.88471 0.56454 0.83618 0.0
C722 C 0.87028 0.56341 0.65532 0.0
C723 C 0.88139 0.545 0.61984 0.0
C724 C 0.89526 0.53772 0.69352 0.0
C725 C 0.89873 0.54988 0.8004 0.0
C726 C 0.85751 0.57395 0.57962 0.0
C727 C 0.90536 0.51586 0.66273 0.0
C728 C 0.85171 0.49394 0.33836 0.0
C729 C 0.87995 0.51017 0.29881 0.0
C730 C 0.85147 0.50506 0.44346 0.0
C731 C 0.87992 0.53431 0.50667 0.0
C732 C 0.90827 0.55119 0.46508 0.0
C733 C 0.90811 0.53808 0.36285 0.0
C734 C 0.82082 0.48515 0.4853 0.0
C735 C 0.939 0.58252 0.52946 0.0
H736 H 0.86031 0.58355 0.7918 0.0
H737 H 0.91027 0.54529 0.85618 0.0
H738 H 0.87087 0.58131 0.51313 0.0
H739 H 0.83256 0.55241 0.54652 0.0
H740 H 0.85842 0.59557 0.61981 0.0
H741 H 0.93019 0.52961 0.69967 0.0
H742 H 0.89073 0.49264 0.69432 0.0
H743 H 0.90297 0.50758 0.57673 0.0
H744 H 0.82997 0.47244 0.28759 0.0
H745 H 0.92998 0.55052 0.33177 0.0
H746 H 0.80753 0.49457 0.46747 0.0
H747 H 0.82441 0.48746 0.57175 0.0
H748 H 0.80591 0.45783 0.4458 0.0
H749 H 0.93572 0.60111 0.56775 0.0
H750 H 0.95784 0.59466 0.48084 0.0
H751 H 0.94726 0.5758 0.59256 0.0
C752 C 0.30908 0.86853 0.16769 0.0
C753 C 0.30399 0.89058 0.139 0.0
C754 C 0.29301 0.8497 0.24129 0.0
C755 C 0.27485 0.85654 0.29659 0.0
C756 C 0.26983 0.87911 0.26869 0.0
C757 C 0.28388 0.89521 0.18725 0.0
C758 C 0.29595 0.823 0.26105 0.0
C759 C 0.24992 0.88643 0.32429 0.0
C760 C 0.2315 0.81318 0.51041 0.0
C761 C 0.25662 0.83107 0.59454 0.0
C762 C 0.23701 0.81974 0.40975 0.0
C763 C 0.26785 0.8465 0.39734 0.0
C764 C 0.29301 0.8647 0.48318 0.0
C765 C 0.28723 0.85502 0.57861 0.0
C766 C 0.20967 0.79872 0.31941 0.0
C767 C 0.32582 0.89549 0.47683 0.0
H768 H 0.32415 0.86442 0.12821 0.0
H769 H 0.27945 0.91164 0.16188 0.0
H770 H 0.27379 0.80129 0.28091 0.0
H771 H 0.30168 0.81334 0.19102 0.0
H772 H 0.31515 0.834 0.32814 0.0
H773 H 0.22471 0.86499 0.29439 0.0
H774 H 0.25423 0.88912 0.41067 0.0
H775 H 0.25434 0.90983 0.30939 0.0
H776 H 0.20773 0.79429 0.52325 0.0
H777 H 0.30642 0.8684 0.64353 0.0
H778 H 0.21729 0.79979 0.24121 0.0
H779 H 0.19556 0.80798 0.32369 0.0
H780 H 0.19392 0.7718 0.32606 0.0
H781 H 0.33868 0.8873 0.43756 0.0
H782 H 0.33974 0.91136 0.55623 0.0
H783 H 0.32489 0.91167 0.43071 0.0
C784 C 0.44007 0.19968 0.87002 0.0
C785 C 0.45398 0.191 0.93541 0.0
C786 C 0.45183 0.21025 0.77834 0.0
C787 C 0.48014 0.21562 0.75904 0.0
C788 C 0.49445 0.20739 0.82755 0.0
C789 C 0.47967 0.19272 0.91008 0.0
C790 C 0.43368 0.21575 0.70501 0.0
C791 C 0.52573 0.21468 0.81782 0.0
C792 C 0.50563 0.21659 0.49355 0.0
C793 C 0.51476 0.24777 0.47758 0.0
C794 C 0.49334 0.20534 0.58317 0.0
C795 C 0.4937 0.22765 0.66457 0.0
C796 C 0.50655 0.26099 0.65368 0.0
C797 C 0.51619 0.27035 0.55853 0.0
C798 C 0.47849 0.16884 0.58544 0.0
C799 C 0.5086 0.28644 0.73835 0.0
H800 H 0.41989 0.19792 0.89002 0.0
H801 H 0.48954 0.18469 0.95891 0.0
H802 H 0.43685 0.23907 0.74184 0.0
H803 H 0.44085 0.21804 0.62625 0.0
H804 H 0.40809 0.19441 0.69408 0.0
H805 H 0.52176 0.19075 0.78366 0.0
H806 H 0.53965 0.23358 0.76953 0.0
H807 H 0.54006 0.22423 0.89713 0.0
H808 H 0.50533 0.19944 0.43147 0.0
H809 H 0.52369 0.29471 0.54631 0.0
H810 H 0.46065 0.15842 0.63821 0.0
H811 H 0.49717 0.16705 0.61091 0.0
H812 H 0.46696 0.15221 0.50527 0.0
H813 H 0.50834 0.28091 0.81767 0.0
H814 H 0.48845 0.2865 0.71881 0.0
H815 H 0.53031 0.31243 0.74047 0.0
loop_
_geom_bond_atom_site_label_1
_geom_bond_atom_site_label_2
_geom_bond_distance
_geom_bond_site_symmetry_2
_ccdc_geom_bond_type
Ho0 C3 2.811 . S
Ho0 O20 2.322 . S
Ho0 O22 2.378 . S
Ho0 O23 2.524 . S
Ho0 O24 2.381 . S
Ho0 O25 2.669 . S
Ho0 O27 2.346 . S
Ho0 O31 2.305 1_556 S
Ho1 C12 2.811 . S
Ho1 O21 2.346 . S
Ho1 O25 2.305 . S
Ho1 O26 2.322 1_556 S
Ho1 O28 2.378 1_556 S
Ho1 O29 2.524 . S
Ho1 O30 2.381 1_556 S
Ho1 O31 2.669 1_556 S
C2 O20 1.259 . S
C2 O21 1.268 . S
C3 Ho0 2.811 . S
C3 C4 1.488 . S
C3 O22 1.215 . S
C3 O23 1.289 . S
C4 C3 1.488 . S
C4 C5 1.348 . S
C4 C9 1.413 . S
C5 C4 1.348 . S
C5 C6 1.442 . S
C5 H32 0.930 . S
C6 C5 1.442 . S
C6 C7 1.381 . S
C6 H33 0.931 . S
C7 C6 1.381 . S
C7 C8 1.321 . S
C8 C7 1.321 . S
C8 C9 1.403 . S
C8 H34 0.934 . S
C9 C4 1.413 . S
C9 C8 1.403 . S
C9 H35 0.930 . S
C10 O24 1.275 . S
C10 O25 1.256 . S
C11 O26 1.261 . S
C11 O27 1.266 1_554 S
C12 Ho1 2.811 . S
C12 C13 1.488 1_556 S
C12 O28 1.215 1_556 S
C12 O29 1.289 . S
C13 C12 1.488 1_554 S
C13 C14 1.348 1_554 S
C13 C18 1.413 . S
C14 C13 1.348 1_556 S
C14 C15 1.442 . S
C14 H36 0.930 . S
C15 C14 1.442 . S
C15 C16 1.381 1_556 S
C15 H37 0.931 . S
C16 C15 1.381 1_554 S
C16 C17 1.321 . S
C17 C16 1.321 . S
C17 C18 1.403 . S
C17 H38 0.934 . S
C18 C13 1.413 . S
C18 C17 1.403 . S
C18 H39 0.930 . S
C19 O30 1.275 . S
C19 O31 1.256 . S
O20 Ho0 2.322 . S
O20 C2 1.259 . S
O21 Ho1 2.346 . S
O21 C2 1.268 . S
O22 Ho0 2.378 . S
O22 C3 1.215 . S
O23 Ho0 2.524 . S
O23 C3 1.289 . S
O24 Ho0 2.381 . S
O24 C10 1.275 . S
O25 Ho0 2.669 . S
O25 Ho1 2.305 . S
O25 C10 1.256 . S
O26 Ho1 2.322 1_554 S
O26 C11 1.261 . S
O27 Ho0 2.346 . S
O27 C11 1.266 1_556 S
O28 Ho1 2.378 1_554 S
O28 C12 1.215 1_554 S
O29 Ho1 2.524 . S
O29 C12 1.289 . S
O30 Ho1 2.381 1_554 S
O30 C19 1.275 . S
O31 Ho0 2.305 1_554 S
O31 Ho1 2.669 1_554 S
O31 C19 1.256 . S
H32 C5 0.930 . S
H33 C6 0.931 . S
H34 C8 0.934 . S
H35 C9 0.930 . S
H36 C14 0.930 . S
H37 C15 0.931 . S
H38 C17 0.934 . S
H39 C18 0.930 . S
Ho40 C43 2.811 . S
Ho40 O60 2.322 . S
Ho40 O62 2.378 . S
Ho40 O63 2.524 . S
Ho40 O64 2.381 1_554 S
Ho40 O65 2.669 1_554 S
Ho40 O67 2.346 . S
Ho40 O71 2.305 . S
Ho41 C52 2.811 1_554 S
Ho41 O61 2.346 . S
Ho41 O65 2.305 1_554 S
Ho41 O66 2.322 . S
Ho41 O68 2.378 . S
Ho41 O69 2.524 1_554 S
Ho41 O70 2.381 . S
Ho41 O71 2.669 . S
C42 O60 1.259 . S
C42 O61 1.268 . S
C43 Ho40 2.811 . S
C43 C44 1.488 . S
C43 O62 1.215 . S
C43 O63 1.289 . S
C44 C43 1.488 . S
C44 C45 1.348 . S
C44 C49 1.413 . S
C45 C44 1.348 . S
C45 C46 1.442 . S
C45 H72 0.930 . S
C46 C45 1.442 . S
C46 C47 1.381 . S
C46 H73 0.931 . S
C47 C46 1.381 . S
C47 C48 1.321 . S
C48 C47 1.321 . S
C48 C49 1.403 . S
C48 H74 0.934 . S
C49 C44 1.413 . S
C49 C48 1.403 . S
C49 H75 0.930 . S
C50 O64 1.275 . S
C50 O65 1.256 . S
C51 O66 1.259 . S
C51 O67 1.268 . S
C52 Ho41 2.811 1_556 S
C52 C53 1.488 . S
C52 O68 1.215 1_556 S
C52 O69 1.289 . S
C53 C52 1.488 . S
C53 C54 1.348 . S
C53 C58 1.413 1_556 S
C54 C53 1.348 . S
C54 C55 1.442 . S
C54 H76 0.930 . S
C55 C54 1.442 . S
C55 C56 1.381 . S
C55 H77 0.931 . S
C56 C55 1.381 . S
C56 C57 1.321 . S
C57 C56 1.321 . S
C57 C58 1.403 1_556 S
C57 H78 0.934 1_556 S
C58 C53 1.413 1_554 S
C58 C57 1.403 1_554 S
C58 H79 0.929 . S
C59 O70 1.275 . S
C59 O71 1.256 . S
O60 Ho40 2.322 . S
O60 C42 1.259 . S
O61 Ho41 2.346 . S
O61 C42 1.268 . S
O62 Ho40 2.378 . S
O62 C43 1.215 . S
O63 Ho40 2.524 . S
O63 C43 1.289 . S
O64 Ho40 2.381 1_556 S
O64 C50 1.275 . S
O65 Ho40 2.669 1_556 S
O65 Ho41 2.305 1_556 S
O65 C50 1.256 . S
O66 Ho41 2.322 . S
O66 C51 1.259 . S
O67 Ho40 2.346 . S
O67 C51 1.268 . S
O68 Ho41 2.378 . S
O68 C52 1.215 1_554 S
O69 Ho41 2.524 1_556 S
O69 C52 1.289 . S
O70 Ho41 2.381 . S
O70 C59 1.275 . S
O71 Ho40 2.305 . S
O71 Ho41 2.669 . S
O71 C59 1.256 . S
H72 C45 0.930 . S
H73 C46 0.931 . S
H74 C48 0.934 . S
H75 C49 0.930 . S
H76 C54 0.930 . S
H77 C55 0.931 . S
H78 C57 0.934 1_554 S
H79 C58 0.929 . S
Ho80 C83 2.811 . S
Ho80 O100 2.322 1_556 S
Ho80 O102 2.378 1_556 S
Ho80 O103 2.524 . S
Ho80 O104 2.381 1_556 S
Ho80 O105 2.669 1_556 S
Ho80 O107 2.346 1_556 S
Ho80 O111 2.305 . S
Ho81 C92 2.811 . S
Ho81 O101 2.346 1_554 S
Ho81 O105 2.305 . S
Ho81 O106 2.322 1_554 S
Ho81 O108 2.378 1_554 S
Ho81 O109 2.524 . S
Ho81 O110 2.381 1_554 S
Ho81 O111 2.669 1_554 S
C82 O100 1.259 1_556 S
C82 O101 1.268 . S
C83 Ho80 2.811 . S
C83 C84 1.488 . S
C83 O102 1.215 1_556 S
C83 O103 1.289 . S
C84 C83 1.488 . S
C84 C85 1.348 . S
C84 C89 1.413 . S
C85 C84 1.348 . S
C85 C86 1.442 . S
C85 H112 0.930 . S
C86 C85 1.442 . S
C86 C87 1.381 . S
C86 H113 0.931 . S
C87 C86 1.381 . S
C87 C88 1.321 . S
C88 C87 1.321 . S
C88 C89 1.403 . S
C88 H114 0.934 . S
C89 C84 1.413 . S
C89 C88 1.403 . S
C89 H115 0.930 1_556 S
C90 O104 1.275 . S
C90 O105 1.256 . S
C91 O106 1.259 1_554 S
C91 O107 1.268 . S
C92 Ho81 2.811 . S
C92 C93 1.488 . S
C92 O108 1.215 1_554 S
C92 O109 1.289 . S
C93 C92 1.488 . S
C93 C94 1.348 . S
C93 C98 1.413 . S
C94 C93 1.348 . S
C94 C95 1.442 . S
C94 H116 0.930 . S
C95 C94 1.442 . S
C95 C96 1.381 . S
C95 H117 0.931 . S
C96 C95 1.381 . S
C96 C97 1.321 . S
C97 C96 1.321 . S
C97 C98 1.403 . S
C97 H118 0.934 . S
C98 C93 1.413 . S
C98 C97 1.403 . S
C98 H119 0.930 1_554 S
C99 O110 1.275 . S
C99 O111 1.256 . S
O100 Ho80 2.322 1_554 S
O100 C82 1.259 1_554 S
O101 Ho81 2.346 1_556 S
O101 C82 1.268 . S
O102 Ho80 2.378 1_554 S
O102 C83 1.215 1_554 S
O103 Ho80 2.524 . S
O103 C83 1.289 . S
O104 Ho80 2.381 1_554 S
O104 C90 1.275 . S
O105 Ho80 2.669 1_554 S
O105 Ho81 2.305 . S
O105 C90 1.256 . S
O106 Ho81 2.322 1_556 S
O106 C91 1.259 1_556 S
O107 Ho80 2.346 1_554 S
O107 C91 1.268 . S
O108 Ho81 2.378 1_556 S
O108 C92 1.215 1_556 S
O109 Ho81 2.524 . S
O109 C92 1.289 . S
O110 Ho81 2.381 1_556 S
O110 C99 1.275 . S
O111 Ho80 2.305 . S
O111 Ho81 2.669 1_556 S
O111 C99 1.256 . S
H112 C85 0.930 . S
H113 C86 0.931 . S
H114 C88 0.934 . S
H115 C89 0.930 1_554 S
H116 C94 0.930 . S
H117 C95 0.931 . S
H118 C97 0.934 . S
H119 C98 0.930 1_556 S
Ho120 C123 2.811 . S
Ho120 O140 2.322 . S
Ho120 O142 2.378 1_554 S
Ho120 O143 2.524 . S
Ho120 O144 2.381 1_554 S
Ho120 O145 2.669 1_554 S
Ho120 O147 2.346 1_554 S
Ho120 O151 2.305 . S
Ho121 C132 2.811 . S
Ho121 O141 2.346 1_556 S
Ho121 O145 2.305 . S
Ho121 O146 2.322 . S
Ho121 O148 2.378 1_556 S
Ho121 O149 2.524 . S
Ho121 O150 2.381 1_556 S
Ho121 O151 2.669 1_556 S
C122 O140 1.259 . S
C122 O141 1.268 . S
C123 Ho120 2.811 . S
C123 C124 1.488 . S
C123 O142 1.215 1_554 S
C123 O143 1.289 . S
C124 C123 1.488 . S
C124 C125 1.348 . S
C124 C129 1.413 . S
C125 C124 1.348 . S
C125 C126 1.442 . S
C125 H152 0.930 . S
C126 C125 1.442 . S
C126 C127 1.381 . S
C126 H153 0.931 . S
C127 C126 1.381 . S
C127 C128 1.321 . S
C128 C127 1.321 . S
C128 C129 1.403 . S
C128 H154 0.934 . S
C129 C124 1.413 . S
C129 C128 1.403 . S
C129 H155 0.930 1_554 S
C130 O144 1.275 . S
C130 O145 1.256 . S
C131 O146 1.259 . S
C131 O147 1.268 . S
C132 Ho121 2.811 . S
C132 C133 1.488 . S
C132 O148 1.215 1_556 S
C132 O149 1.289 . S
C133 C132 1.488 . S
C133 C134 1.348 . S
C133 C138 1.413 . S
C134 C133 1.348 . S
C134 C135 1.442 . S
C134 H156 0.930 . S
C135 C134 1.442 . S
C135 C136 1.381 . S
C135 H157 0.931 . S
C136 C135 1.381 . S
C136 C137 1.321 . S
C137 C136 1.321 . S
C137 C138 1.403 . S
C137 H158 0.934 . S
C138 C133 1.413 . S
C138 C137 1.403 . S
C138 H159 0.930 1_556 S
C139 O150 1.275 . S
C139 O151 1.256 . S
O140 Ho120 2.322 . S
O140 C122 1.259 . S
O141 Ho121 2.346 1_554 S
O141 C122 1.268 . S
O142 Ho120 2.378 1_556 S
O142 C123 1.215 1_556 S
O143 Ho120 2.524 . S
O143 C123 1.289 . S
O144 Ho120 2.381 1_556 S
O144 C130 1.275 . S
O145 Ho120 2.669 1_556 S
O145 Ho121 2.305 . S
O145 C130 1.256 . S
O146 Ho121 2.322 . S
O146 C131 1.259 . S
O147 Ho120 2.346 1_556 S
O147 C131 1.268 . S
O148 Ho121 2.378 1_554 S
O148 C132 1.215 1_554 S
O149 Ho121 2.524 . S
O149 C132 1.289 . S
O150 Ho121 2.381 1_554 S
O150 C139 1.275 . S
O151 Ho120 2.305 . S
O151 Ho121 2.669 1_554 S
O151 C139 1.256 . S
H152 C125 0.930 . S
H153 C126 0.931 . S
H154 C128 0.934 . S
H155 C129 0.930 1_556 S
H156 C134 0.930 . S
H157 C135 0.931 . S
H158 C137 0.934 . S
H159 C138 0.930 1_554 S
Ho160 C163 2.811 . S
Ho160 O180 2.322 . S
Ho160 O182 2.378 . S
Ho160 O183 2.524 1_556 S
Ho160 O184 2.381 . S
Ho160 O185 2.669 . S
Ho160 O187 2.346 . S
Ho160 O191 2.305 1_556 S
Ho161 C172 2.811 . S
Ho161 O181 2.346 . S
Ho161 O185 2.305 1_554 S
Ho161 O186 2.322 . S
Ho161 O188 2.378 . S
Ho161 O189 2.524 1_554 S
Ho161 O190 2.381 . S
Ho161 O191 2.669 . S
C162 O180 1.259 . S
C162 O181 1.268 1_556 S
C163 Ho160 2.811 . S
C163 C164 1.488 . S
C163 O182 1.215 . S
C163 O183 1.289 1_556 S
C164 C163 1.488 . S
C164 C165 1.348 . S
C164 C169 1.413 . S
C165 C164 1.348 . S
C165 C166 1.442 . S
C165 H192 0.930 1_556 S
C166 C165 1.442 . S
C166 C167 1.381 . S
C166 H193 0.931 1_556 S
C167 C166 1.381 . S
C167 C168 1.321 . S
C168 C167 1.321 . S
C168 C169 1.403 . S
C168 H194 0.934 . S
C169 C164 1.413 . S
C169 C168 1.403 . S
C169 H195 0.930 . S
C170 O184 1.275 . S
C170 O185 1.256 . S
C171 O186 1.259 . S
C171 O187 1.268 1_554 S
C172 Ho161 2.811 . S
C172 C173 1.488 . S
C172 O188 1.215 . S
C172 O189 1.289 1_554 S
C173 C172 1.488 . S
C173 C174 1.348 . S
C173 C178 1.413 . S
C174 C173 1.348 . S
C174 C175 1.442 . S
C174 H196 0.930 1_554 S
C175 C174 1.442 . S
C175 C176 1.381 . S
C175 H197 0.931 1_554 S
C176 C175 1.381 . S
C176 C177 1.321 . S
C177 C176 1.321 . S
C177 C178 1.403 . S
C177 H198 0.934 . S
C178 C173 1.413 . S
C178 C177 1.403 . S
C178 H199 0.930 . S
C179 O190 1.275 . S
C179 O191 1.256 . S
O180 Ho160 2.322 . S
O180 C162 1.259 . S
O181 Ho161 2.346 . S
O181 C162 1.268 1_554 S
O182 Ho160 2.378 . S
O182 C163 1.215 . S
O183 Ho160 2.524 1_554 S
O183 C163 1.289 1_554 S
O184 Ho160 2.381 . S
O184 C170 1.275 . S
O185 Ho160 2.669 . S
O185 Ho161 2.305 1_556 S
O185 C170 1.256 . S
O186 Ho161 2.322 . S
O186 C171 1.259 . S
O187 Ho160 2.346 . S
O187 C171 1.268 1_556 S
O188 Ho161 2.378 . S
O188 C172 1.215 . S
O189 Ho161 2.524 1_556 S
O189 C172 1.289 1_556 S
O190 Ho161 2.381 . S
O190 C179 1.275 . S
O191 Ho160 2.305 1_554 S
O191 Ho161 2.669 . S
O191 C179 1.256 . S
H192 C165 0.930 1_554 S
H193 C166 0.931 1_554 S
H194 C168 0.934 . S
H195 C169 0.930 . S
H196 C174 0.930 1_556 S
H197 C175 0.931 1_556 S
H198 C177 0.934 . S
H199 C178 0.930 . S
Ho200 C203 2.811 1_556 S
Ho200 O220 2.322 . S
Ho200 O222 2.378 . S
Ho200 O223 2.524 1_556 S
Ho200 O224 2.381 . S
Ho200 O225 2.669 . S
Ho200 O227 2.346 . S
Ho200 O231 2.305 1_556 S
Ho201 C212 2.811 1_554 S
Ho201 O221 2.346 . S
Ho201 O225 2.305 1_554 S
Ho201 O226 2.322 . S
Ho201 O228 2.378 . S
Ho201 O229 2.524 1_554 S
Ho201 O230 2.381 . S
Ho201 O231 2.669 . S
C202 O220 1.259 1_554 S
C202 O221 1.268 . S
C203 Ho200 2.811 1_554 S
C203 C204 1.488 . S
C203 O222 1.215 1_554 S
C203 O223 1.289 . S
C204 C203 1.488 . S
C204 C205 1.348 . S
C204 C209 1.413 1_544 S
C205 C204 1.348 . S
C205 C206 1.442 . S
C205 H232 0.930 . S
C206 C205 1.442 . S
C206 C207 1.381 1_545 S
C206 H233 0.931 . S
C207 C206 1.381 1_565 S
C207 C208 1.321 1_554 S
C208 C207 1.321 1_556 S
C208 C209 1.403 . S
C208 H234 0.934 . S
C209 C204 1.413 1_566 S
C209 C208 1.403 . S
C209 H235 0.930 . S
C210 O224 1.275 . S
C210 O225 1.256 . S
C211 O226 1.259 1_556 S
C211 O227 1.268 . S
C212 Ho201 2.811 1_556 S
C212 C213 1.488 . S
C212 O228 1.215 1_556 S
C212 O229 1.289 . S
C213 C212 1.488 . S
C213 C214 1.348 . S
C213 C218 1.413 1_556 S
C214 C213 1.348 . S
C214 C215 1.442 . S
C214 H236 0.930 . S
C215 C214 1.442 . S
C215 C216 1.381 . S
C215 H237 0.931 . S
C216 C215 1.381 . S
C216 C217 1.321 1_556 S
C217 C216 1.321 1_554 S
C217 C218 1.403 . S
C217 H238 0.934 . S
C218 C213 1.413 1_554 S
C218 C217 1.403 . S
C218 H239 0.930 . S
C219 O230 1.275 . S
C219 O231 1.256 . S
O220 Ho200 2.322 . S
O220 C202 1.259 1_556 S
O221 Ho201 2.346 . S
O221 C202 1.268 . S
O222 Ho200 2.378 . S
O222 C203 1.215 1_556 S
O223 Ho200 2.524 1_554 S
O223 C203 1.289 . S
O224 Ho200 2.381 . S
O224 C210 1.275 . S
O225 Ho200 2.669 . S
O225 Ho201 2.305 1_556 S
O225 C210 1.256 . S
O226 Ho201 2.322 . S
O226 C211 1.259 1_554 S
O227 Ho200 2.346 . S
O227 C211 1.268 . S
O228 Ho201 2.378 . S
O228 C212 1.215 1_554 S
O229 Ho201 2.524 1_556 S
O229 C212 1.289 . S
O230 Ho201 2.381 . S
O230 C219 1.275 . S
O231 Ho200 2.305 1_554 S
O231 Ho201 2.669 . S
O231 C219 1.256 . S
H232 C205 0.930 . S
H233 C206 0.931 . S
H234 C208 0.934 . S
H235 C209 0.930 . S
H236 C214 0.930 . S
H237 C215 0.931 . S
H238 C217 0.934 . S
H239 C218 0.930 . S
C240 C241 1.391 . S
C240 C242 1.394 . S
C240 H256 0.931 . S
C241 C240 1.391 . S
C241 C245 1.376 . S
C242 C240 1.394 . S
C242 C243 1.369 . S
C242 C246 1.531 . S
C243 C242 1.369 . S
C243 C244 1.410 . S
C243 C251 1.503 . S
C244 C243 1.410 . S
C244 C245 1.392 . S
C244 C247 1.511 . S
C245 C241 1.376 . S
C245 C244 1.392 . S
C245 H257 0.929 . S
C246 C242 1.531 . S
C246 H258 0.960 . S
C246 H259 0.962 . S
C246 H260 0.960 . S
C247 C244 1.511 . S
C247 H261 0.961 . S
C247 H262 0.961 . S
C247 H263 0.961 . S
C248 C249 1.370 . S
C248 C250 1.363 . S
C248 H264 0.931 . S
C249 C248 1.370 . S
C249 C253 1.408 . S
C250 C248 1.363 . S
C250 C251 1.370 . S
C250 C254 1.524 . S
C251 C243 1.503 . S
C251 C250 1.370 . S
C251 C252 1.403 . S
C252 C251 1.403 . S
C252 C253 1.404 . S
C252 C255 1.539 . S
C253 C249 1.408 . S
C253 C252 1.404 . S
C253 H265 0.930 . S
C254 C250 1.524 . S
C254 H266 0.956 . S
C254 H267 0.961 . S
C254 H268 0.961 . S
C255 C252 1.539 . S
C255 H269 0.958 . S
C255 H270 0.961 . S
C255 H271 0.960 . S
H256 C240 0.931 . S
H257 C245 0.929 . S
H258 C246 0.960 . S
H259 C246 0.962 . S
H260 C246 0.960 . S
H261 C247 0.961 . S
H262 C247 0.961 . S
H263 C247 0.961 . S
H264 C248 0.931 . S
H265 C253 0.930 . S
H266 C254 0.956 . S
H267 C254 0.961 . S
H268 C254 0.961 . S
H269 C255 0.958 . S
H270 C255 0.961 . S
H271 C255 0.960 . S
C272 C273 1.391 . S
C272 C274 1.394 . S
C272 H288 0.931 . S
C273 C272 1.391 . S
C273 C277 1.376 . S
C274 C272 1.394 . S
C274 C275 1.369 . S
C274 C278 1.531 . S
C275 C274 1.369 . S
C275 C276 1.410 . S
C275 C283 1.503 . S
C276 C275 1.410 . S
C276 C277 1.392 . S
C276 C279 1.511 . S
C277 C273 1.376 . S
C277 C276 1.392 . S
C277 H289 0.929 . S
C278 C274 1.531 . S
C278 H290 0.960 . S
C278 H291 0.962 . S
C278 H292 0.960 . S
C279 C276 1.511 . S
C279 H293 0.961 . S
C279 H294 0.961 . S
C279 H295 0.961 . S
C280 C281 1.370 . S
C280 C282 1.363 . S
C280 H296 0.931 . S
C281 C280 1.370 . S
C281 C285 1.408 . S
C282 C280 1.363 . S
C282 C283 1.370 . S
C282 C286 1.524 . S
C283 C275 1.503 . S
C283 C282 1.370 . S
C283 C284 1.403 . S
C284 C283 1.403 . S
C284 C285 1.404 . S
C284 C287 1.539 . S
C285 C281 1.408 . S
C285 C284 1.404 . S
C285 H297 0.930 . S
C286 C282 1.524 . S
C286 H298 0.956 . S
C286 H299 0.961 . S
C286 H300 0.961 . S
C287 C284 1.539 . S
C287 H301 0.958 . S
C287 H302 0.961 . S
C287 H303 0.960 . S
H288 C272 0.931 . S
H289 C277 0.929 . S
H290 C278 0.960 . S
H291 C278 0.962 . S
H292 C278 0.960 . S
H293 C279 0.961 . S
H294 C279 0.961 . S
H295 C279 0.961 . S
H296 C280 0.931 . S
H297 C285 0.930 . S
H298 C286 0.956 . S
H299 C286 0.961 . S
H300 C286 0.961 . S
H301 C287 0.958 . S
H302 C287 0.961 . S
H303 C287 0.960 . S
C304 C305 1.391 . S
C304 C306 1.394 . S
C304 H320 0.931 . S
C305 C304 1.391 . S
C305 C309 1.376 . S
C306 C304 1.394 . S
C306 C307 1.369 . S
C306 C310 1.531 1_545 S
C307 C306 1.369 . S
C307 C308 1.410 . S
C307 C315 1.503 1_545 S
C308 C307 1.410 . S
C308 C309 1.392 . S
C308 C311 1.511 . S
C309 C305 1.376 . S
C309 C308 1.392 . S
C309 H321 0.929 . S
C310 C306 1.531 1_565 S
C310 H322 0.960 . S
C310 H323 0.962 1_565 S
C310 H324 0.960 . S
C311 C308 1.511 . S
C311 H325 0.961 . S
C311 H326 0.961 . S
C311 H327 0.961 1_545 S
C312 C313 1.370 1_545 S
C312 C314 1.363 . S
C312 H328 0.931 . S
C313 C312 1.370 1_565 S
C313 C317 1.408 . S
C314 C312 1.363 . S
C314 C315 1.370 1_545 S
C314 C318 1.524 . S
C315 C307 1.503 1_565 S
C315 C314 1.370 1_565 S
C315 C316 1.403 . S
C316 C315 1.403 . S
C316 C317 1.404 . S
C316 C319 1.539 . S
C317 C313 1.408 . S
C317 C316 1.404 . S
C317 H329 0.930 . S
C318 C314 1.524 . S
C318 H330 0.956 . S
C318 H331 0.961 . S
C318 H332 0.961 . S
C319 C316 1.539 . S
C319 H333 0.958 . S
C319 H334 0.961 . S
C319 H335 0.960 . S
H320 C304 0.931 . S
H321 C309 0.929 . S
H322 C310 0.960 . S
H323 C310 0.962 1_545 S
H324 C310 0.960 . S
H325 C311 0.961 . S
H326 C311 0.961 . S
H327 C311 0.961 1_565 S
H328 C312 0.931 . S
H329 C317 0.930 . S
H330 C318 0.956 . S
H331 C318 0.961 . S
H332 C318 0.961 . S
H333 C319 0.958 . S
H334 C319 0.961 . S
H335 C319 0.960 . S
C336 C337 1.391 . S
C336 C338 1.394 . S
C336 H352 0.931 . S
C337 C336 1.391 . S
C337 C341 1.376 . S
C338 C336 1.394 . S
C338 C339 1.369 . S
C338 C342 1.531 . S
C339 C338 1.369 . S
C339 C340 1.410 . S
C339 C347 1.503 . S
C340 C339 1.410 . S
C340 C341 1.392 . S
C340 C343 1.511 . S
C341 C337 1.376 . S
C341 C340 1.392 . S
C341 H353 0.929 . S
C342 C338 1.531 . S
C342 H354 0.960 . S
C342 H355 0.962 . S
C342 H356 0.960 . S
C343 C340 1.511 . S
C343 H357 0.961 . S
C343 H358 0.961 . S
C343 H359 0.961 . S
C344 C345 1.370 . S
C344 C346 1.363 . S
C344 H360 0.931 . S
C345 C344 1.370 . S
C345 C349 1.408 . S
C346 C344 1.363 . S
C346 C347 1.370 . S
C346 C350 1.524 . S
C347 C339 1.503 . S
C347 C346 1.370 . S
C347 C348 1.403 . S
C348 C347 1.403 . S
C348 C349 1.404 . S
C348 C351 1.539 . S
C349 C345 1.408 . S
C349 C348 1.404 . S
C349 H361 0.930 . S
C350 C346 1.524 . S
C350 H362 0.956 . S
C350 H363 0.961 . S
C350 H364 0.961 . S
C351 C348 1.539 . S
C351 H365 0.958 . S
C351 H366 0.961 . S
C351 H367 0.960 . S
H352 C336 0.931 . S
H353 C341 0.929 . S
H354 C342 0.960 . S
H355 C342 0.962 . S
H356 C342 0.960 . S
H357 C343 0.961 . S
H358 C343 0.961 . S
H359 C343 0.961 . S
H360 C344 0.931 . S
H361 C349 0.930 . S
H362 C350 0.956 . S
H363 C350 0.961 . S
H364 C350 0.961 . S
H365 C351 0.958 . S
H366 C351 0.961 . S
H367 C351 0.960 . S
C368 C369 1.391 . S
C368 C370 1.394 1_455 S
C368 H384 0.931 . S
C369 C368 1.391 . S
C369 C373 1.376 . S
C370 C368 1.394 1_655 S
C370 C371 1.369 . S
C370 C374 1.531 . S
C371 C370 1.369 . S
C371 C372 1.410 1_655 S
C371 C379 1.503 . S
C372 C371 1.410 1_455 S
C372 C373 1.392 . S
C372 C375 1.511 . S
C373 C369 1.376 . S
C373 C372 1.392 . S
C373 H385 0.929 . S
C374 C370 1.531 . S
C374 H386 0.960 . S
C374 H387 0.962 . S
C374 H388 0.960 . S
C375 C372 1.511 . S
C375 H389 0.961 . S
C375 H390 0.961 . S
C375 H391 0.961 . S
C376 C377 1.370 . S
C376 C378 1.363 . S
C376 H392 0.931 . S
C377 C376 1.370 . S
C377 C381 1.408 . S
C378 C376 1.363 . S
C378 C379 1.370 . S
C378 C382 1.524 . S
C379 C371 1.503 . S
C379 C378 1.370 . S
C379 C380 1.403 . S
C380 C379 1.403 . S
C380 C381 1.404 . S
C380 C383 1.539 1_655 S
C381 C377 1.408 . S
C381 C380 1.404 . S
C381 H393 0.930 . S
C382 C378 1.524 . S
C382 H394 0.956 . S
C382 H395 0.961 . S
C382 H396 0.961 . S
C383 C380 1.539 1_455 S
C383 H397 0.958 . S
C383 H398 0.961 . S
C383 H399 0.960 . S
H384 C368 0.931 . S
H385 C373 0.929 . S
H386 C374 0.960 . S
H387 C374 0.962 . S
H388 C374 0.960 . S
H389 C375 0.961 . S
H390 C375 0.961 . S
H391 C375 0.961 . S
H392 C376 0.931 . S
H393 C381 0.930 . S
H394 C382 0.956 . S
H395 C382 0.961 . S
H396 C382 0.961 . S
H397 C383 0.958 . S
H398 C383 0.961 . S
H399 C383 0.960 . S
C400 C401 1.391 . S
C400 C402 1.394 . S
C400 H416 0.931 . S
C401 C400 1.391 . S
C401 C405 1.376 . S
C402 C400 1.394 . S
C402 C403 1.369 . S
C402 C406 1.531 . S
C403 C402 1.369 . S
C403 C404 1.410 . S
C403 C411 1.503 . S
C404 C403 1.410 . S
C404 C405 1.392 . S
C404 C407 1.511 . S
C405 C401 1.376 . S
C405 C404 1.392 . S
C405 H417 0.929 . S
C406 C402 1.531 . S
C406 H418 0.960 . S
C406 H419 0.962 . S
C406 H420 0.960 . S
C407 C404 1.511 . S
C407 H421 0.961 1_565 S
C407 H422 0.961 1_565 S
C407 H423 0.961 . S
C408 C409 1.370 . S
C408 C410 1.363 . S
C408 H424 0.931 . S
C409 C408 1.370 . S
C409 C413 1.408 . S
C410 C408 1.363 . S
C410 C411 1.370 . S
C410 C414 1.524 . S
C411 C403 1.503 . S
C411 C410 1.370 . S
C411 C412 1.403 . S
C412 C411 1.403 . S
C412 C413 1.404 . S
C412 C415 1.539 . S
C413 C409 1.408 . S
C413 C412 1.404 . S
C413 H425 0.930 . S
C414 C410 1.524 . S
C414 H426 0.956 . S
C414 H427 0.961 . S
C414 H428 0.961 . S
C415 C412 1.539 . S
C415 H429 0.958 . S
C415 H430 0.961 . S
C415 H431 0.960 . S
H416 C400 0.931 . S
H417 C405 0.929 . S
H418 C406 0.960 . S
H419 C406 0.962 . S
H420 C406 0.960 . S
H421 C407 0.961 1_545 S
H422 C407 0.961 1_545 S
H423 C407 0.961 . S
H424 C408 0.931 . S
H425 C413 0.930 . S
H426 C414 0.956 . S
H427 C414 0.961 . S
H428 C414 0.961 . S
H429 C415 0.958 . S
H430 C415 0.961 . S
H431 C415 0.960 . S
C432 C433 1.391 . S
C432 C434 1.394 . S
C432 H448 0.931 . S
C433 C432 1.391 . S
C433 C437 1.376 . S
C434 C432 1.394 . S
C434 C435 1.369 . S
C434 C438 1.531 . S
C435 C434 1.369 . S
C435 C436 1.410 . S
C435 C443 1.503 . S
C436 C435 1.410 . S
C436 C437 1.392 . S
C436 C439 1.511 . S
C437 C433 1.376 . S
C437 C436 1.392 . S
C437 H449 0.929 . S
C438 C434 1.531 . S
C438 H450 0.960 . S
C438 H451 0.962 . S
C438 H452 0.960 . S
C439 C436 1.511 . S
C439 H453 0.961 . S
C439 H454 0.961 . S
C439 H455 0.961 . S
C440 C441 1.370 1_556 S
C440 C442 1.363 . S
C440 H456 0.931 . S
C441 C440 1.370 1_554 S
C441 C445 1.408 . S
C442 C440 1.363 . S
C442 C443 1.370 1_556 S
C442 C446 1.524 . S
C443 C435 1.503 . S
C443 C442 1.370 1_554 S
C443 C444 1.403 . S
C444 C443 1.403 . S
C444 C445 1.404 . S
C444 C447 1.539 . S
C445 C441 1.408 . S
C445 C444 1.404 . S
C445 H457 0.930 . S
C446 C442 1.524 . S
C446 H458 0.956 . S
C446 H459 0.961 . S
C446 H460 0.961 . S
C447 C444 1.539 . S
C447 H461 0.958 . S
C447 H462 0.961 . S
C447 H463 0.960 . S
H448 C432 0.931 . S
H449 C437 0.929 . S
H450 C438 0.960 . S
H451 C438 0.962 . S
H452 C438 0.960 . S
H453 C439 0.961 . S
H454 C439 0.961 . S
H455 C439 0.961 . S
H456 C440 0.931 . S
H457 C445 0.930 . S
H458 C446 0.956 . S
H459 C446 0.961 . S
H460 C446 0.961 . S
H461 C447 0.958 . S
H462 C447 0.961 . S
H463 C447 0.960 . S
C464 C465 1.391 . S
C464 C466 1.394 . S
C464 H480 0.931 . S
C465 C464 1.391 . S
C465 C469 1.376 1_556 S
C466 C464 1.394 . S
C466 C467 1.369 . S
C466 C470 1.531 . S
C467 C466 1.369 . S
C467 C468 1.410 1_556 S
C467 C475 1.503 . S
C468 C467 1.410 1_554 S
C468 C469 1.392 . S
C468 C471 1.511 . S
C469 C465 1.376 1_554 S
C469 C468 1.392 . S
C469 H481 0.929 . S
C470 C466 1.531 . S
C470 H482 0.960 . S
C470 H483 0.962 . S
C470 H484 0.960 . S
C471 C468 1.511 . S
C471 H485 0.961 . S
C471 H486 0.961 . S
C471 H487 0.961 . S
C472 C473 1.370 . S
C472 C474 1.363 . S
C472 H488 0.931 . S
C473 C472 1.370 . S
C473 C477 1.408 . S
C474 C472 1.363 . S
C474 C475 1.370 . S
C474 C478 1.524 . S
C475 C467 1.503 . S
C475 C474 1.370 . S
C475 C476 1.403 . S
C476 C475 1.403 . S
C476 C477 1.404 . S
C476 C479 1.539 . S
C477 C473 1.408 . S
C477 C476 1.404 . S
C477 H489 0.930 . S
C478 C474 1.524 . S
C478 H490 0.956 . S
C478 H491 0.961 . S
C478 H492 0.961 . S
C479 C476 1.539 . S
C479 H493 0.958 . S
C479 H494 0.961 . S
C479 H495 0.960 . S
H480 C464 0.931 . S
H481 C469 0.929 . S
H482 C470 0.960 . S
H483 C470 0.962 . S
H484 C470 0.960 . S
H485 C471 0.961 . S
H486 C471 0.961 . S
H487 C471 0.961 . S
H488 C472 0.931 . S
H489 C477 0.930 . S
H490 C478 0.956 . S
H491 C478 0.961 . S
H492 C478 0.961 . S
H493 C479 0.958 . S
H494 C479 0.961 . S
H495 C479 0.960 . S
C496 C497 1.391 1_556 S
C496 C498 1.394 . S
C496 H512 0.931 . S
C497 C496 1.391 1_554 S
C497 C501 1.376 . S
C498 C496 1.394 . S
C498 C499 1.369 1_556 S
C498 C502 1.531 . S
C499 C498 1.369 1_554 S
C499 C500 1.410 . S
C499 C507 1.503 . S
C500 C499 1.410 . S
C500 C501 1.392 . S
C500 C503 1.511 . S
C501 C497 1.376 . S
C501 C500 1.392 . S
C501 H513 0.929 . S
C502 C498 1.531 . S
C502 H514 0.960 . S
C502 H515 0.962 . S
C502 H516 0.960 . S
C503 C500 1.511 . S
C503 H517 0.961 . S
C503 H518 0.961 . S
C503 H519 0.961 . S
C504 C505 1.370 . S
C504 C506 1.363 . S
C504 H520 0.931 . S
C505 C504 1.370 . S
C505 C509 1.408 1_554 S
C506 C504 1.363 . S
C506 C507 1.370 . S
C506 C510 1.524 . S
C507 C499 1.503 . S
C507 C506 1.370 . S
C507 C508 1.403 1_554 S
C508 C507 1.403 1_556 S
C508 C509 1.404 . S
C508 C511 1.539 . S
C509 C505 1.408 1_556 S
C509 C508 1.404 . S
C509 H521 0.930 . S
C510 C506 1.524 . S
C510 H522 0.956 . S
C510 H523 0.961 . S
C510 H524 0.961 . S
C511 C508 1.539 . S
C511 H525 0.958 . S
C511 H526 0.961 . S
C511 H527 0.960 . S
H512 C496 0.931 . S
H513 C501 0.929 . S
H514 C502 0.960 . S
H515 C502 0.962 . S
H516 C502 0.960 . S
H517 C503 0.961 . S
H518 C503 0.961 . S
H519 C503 0.961 . S
H520 C504 0.931 . S
H521 C509 0.930 . S
H522 C510 0.956 . S
H523 C510 0.961 . S
H524 C510 0.961 . S
H525 C511 0.958 . S
H526 C511 0.961 . S
H527 C511 0.960 . S
C528 C529 1.391 . S
C528 C530 1.394 . S
C528 H544 0.931 . S
C529 C528 1.391 . S
C529 C533 1.376 . S
C530 C528 1.394 . S
C530 C531 1.369 . S
C530 C534 1.531 1_556 S
C531 C530 1.369 . S
C531 C532 1.410 . S
C531 C539 1.503 . S
C532 C531 1.410 . S
C532 C533 1.392 . S
C532 C535 1.511 . S
C533 C529 1.376 . S
C533 C532 1.392 . S
C533 H545 0.929 . S
C534 C530 1.531 1_554 S
C534 H546 0.960 . S
C534 H547 0.962 . S
C534 H548 0.960 . S
C535 C532 1.511 . S
C535 H549 0.961 . S
C535 H550 0.961 . S
C535 H551 0.961 . S
C536 C537 1.370 1_554 S
C536 C538 1.363 1_554 S
C536 H552 0.931 . S
C537 C536 1.370 1_556 S
C537 C541 1.408 . S
C538 C536 1.363 1_556 S
C538 C539 1.370 . S
C538 C542 1.524 1_556 S
C539 C531 1.503 . S
C539 C538 1.370 . S
C539 C540 1.403 . S
C540 C539 1.403 . S
C540 C541 1.404 . S
C540 C543 1.539 . S
C541 C537 1.408 . S
C541 C540 1.404 . S
C541 H553 0.930 . S
C542 C538 1.524 1_554 S
C542 H554 0.956 . S
C542 H555 0.961 1_554 S
C542 H556 0.961 . S
C543 C540 1.539 . S
C543 H557 0.958 . S
C543 H558 0.961 . S
C543 H559 0.960 . S
H544 C528 0.931 . S
H545 C533 0.929 . S
H546 C534 0.960 . S
H547 C534 0.962 . S
H548 C534 0.960 . S
H549 C535 0.961 . S
H550 C535 0.961 . S
H551 C535 0.961 . S
H552 C536 0.931 . S
H553 C541 0.930 . S
H554 C542 0.956 . S
H555 C542 0.961 1_556 S
H556 C542 0.961 . S
H557 C543 0.958 . S
H558 C543 0.961 . S
H559 C543 0.960 . S
C560 C561 1.391 . S
C560 C562 1.394 . S
C560 H576 0.931 . S
C561 C560 1.391 . S
C561 C565 1.376 . S
C562 C560 1.394 . S
C562 C563 1.369 . S
C562 C566 1.531 . S
C563 C562 1.369 . S
C563 C564 1.410 . S
C563 C571 1.503 . S
C564 C563 1.410 . S
C564 C565 1.392 . S
C564 C567 1.511 1_554 S
C565 C561 1.376 . S
C565 C564 1.392 . S
C565 H577 0.929 1_554 S
C566 C562 1.531 . S
C566 H578 0.960 . S
C566 H579 0.962 . S
C566 H580 0.960 . S
C567 C564 1.511 1_556 S
C567 H581 0.961 . S
C567 H582 0.961 . S
C567 H583 0.961 . S
C568 C569 1.370 . S
C568 C570 1.363 . S
C568 H584 0.931 . S
C569 C568 1.370 . S
C569 C573 1.408 . S
C570 C568 1.363 . S
C570 C571 1.370 . S
C570 C574 1.524 . S
C571 C563 1.503 . S
C571 C570 1.370 . S
C571 C572 1.403 . S
C572 C571 1.403 . S
C572 C573 1.404 . S
C572 C575 1.539 . S
C573 C569 1.408 . S
C573 C572 1.404 . S
C573 H585 0.930 . S
C574 C570 1.524 . S
C574 H586 0.956 . S
C574 H587 0.961 . S
C574 H588 0.961 . S
C575 C572 1.539 . S
C575 H589 0.958 . S
C575 H590 0.961 . S
C575 H591 0.960 . S
H576 C560 0.931 . S
H577 C565 0.929 1_556 S
H578 C566 0.960 . S
H579 C566 0.962 . S
H580 C566 0.960 . S
H581 C567 0.961 . S
H582 C567 0.961 . S
H583 C567 0.961 . S
H584 C568 0.931 . S
H585 C573 0.930 . S
H586 C574 0.956 . S
H587 C574 0.961 . S
H588 C574 0.961 . S
H589 C575 0.958 . S
H590 C575 0.961 . S
H591 C575 0.960 . S
C592 C593 1.391 . S
C592 C594 1.394 . S
C592 H608 0.931 . S
C593 C592 1.391 . S
C593 C597 1.376 . S
C594 C592 1.394 . S
C594 C595 1.369 . S
C594 C598 1.531 . S
C595 C594 1.369 . S
C595 C596 1.410 . S
C595 C603 1.503 . S
C596 C595 1.410 . S
C596 C597 1.392 . S
C596 C599 1.511 1_556 S
C597 C593 1.376 . S
C597 C596 1.392 . S
C597 H609 0.929 1_556 S
C598 C594 1.531 . S
C598 H610 0.960 . S
C598 H611 0.962 . S
C598 H612 0.960 . S
C599 C596 1.511 1_554 S
C599 H613 0.961 . S
C599 H614 0.961 . S
C599 H615 0.961 . S
C600 C601 1.370 . S
C600 C602 1.363 . S
C600 H616 0.931 . S
C601 C600 1.370 . S
C601 C605 1.408 . S
C602 C600 1.363 . S
C602 C603 1.370 . S
C602 C606 1.524 1_556 S
C603 C595 1.503 . S
C603 C602 1.370 . S
C603 C604 1.403 . S
C604 C603 1.403 . S
C604 C605 1.404 . S
C604 C607 1.539 . S
C605 C601 1.408 . S
C605 C604 1.404 . S
C605 H617 0.930 . S
C606 C602 1.524 1_554 S
C606 H618 0.956 1_554 S
C606 H619 0.961 . S
C606 H620 0.961 . S
C607 C604 1.539 . S
C607 H621 0.958 . S
C607 H622 0.961 . S
C607 H623 0.960 . S
H608 C592 0.931 . S
H609 C597 0.929 1_554 S
H610 C598 0.960 . S
H611 C598 0.962 . S
H612 C598 0.960 . S
H613 C599 0.961 . S
H614 C599 0.961 . S
H615 C599 0.961 . S
H616 C600 0.931 . S
H617 C605 0.930 . S
H618 C606 0.956 1_556 S
H619 C606 0.961 . S
H620 C606 0.961 . S
H621 C607 0.958 . S
H622 C607 0.961 . S
H623 C607 0.960 . S
C624 C625 1.391 . S
C624 C626 1.394 . S
C624 H640 0.931 . S
C625 C624 1.391 . S
C625 C629 1.376 . S
C626 C624 1.394 . S
C626 C627 1.369 . S
C626 C630 1.531 . S
C627 C626 1.369 . S
C627 C628 1.410 . S
C627 C635 1.503 . S
C628 C627 1.410 . S
C628 C629 1.392 . S
C628 C631 1.511 . S
C629 C625 1.376 . S
C629 C628 1.392 . S
C629 H641 0.929 . S
C630 C626 1.531 . S
C630 H642 0.960 . S
C630 H643 0.962 . S
C630 H644 0.960 . S
C631 C628 1.511 . S
C631 H645 0.961 . S
C631 H646 0.961 . S
C631 H647 0.961 . S
C632 C633 1.370 . S
C632 C634 1.363 . S
C632 H648 0.931 . S
C633 C632 1.370 . S
C633 C637 1.408 . S
C634 C632 1.363 . S
C634 C635 1.370 . S
C634 C638 1.524 . S
C635 C627 1.503 . S
C635 C634 1.370 . S
C635 C636 1.403 . S
C636 C635 1.403 . S
C636 C637 1.404 . S
C636 C639 1.539 . S
C637 C633 1.408 . S
C637 C636 1.404 . S
C637 H649 0.930 . S
C638 C634 1.524 . S
C638 H650 0.956 . S
C638 H651 0.961 . S
C638 H652 0.961 . S
C639 C636 1.539 . S
C639 H653 0.958 . S
C639 H654 0.961 . S
C639 H655 0.960 . S
H640 C624 0.931 . S
H641 C629 0.929 . S
H642 C630 0.960 . S
H643 C630 0.962 . S
H644 C630 0.960 . S
H645 C631 0.961 . S
H646 C631 0.961 . S
H647 C631 0.961 . S
H648 C632 0.931 . S
H649 C637 0.930 . S
H650 C638 0.956 . S
H651 C638 0.961 . S
H652 C638 0.961 . S
H653 C639 0.958 . S
H654 C639 0.961 . S
H655 C639 0.960 . S
C656 C657 1.391 . S
C656 C658 1.394 . S
C656 H672 0.931 . S
C657 C656 1.391 . S
C657 C661 1.376 . S
C658 C656 1.394 . S
C658 C659 1.369 . S
C658 C662 1.531 . S
C659 C658 1.369 . S
C659 C660 1.410 . S
C659 C667 1.503 . S
C660 C659 1.410 . S
C660 C661 1.392 . S
C660 C663 1.511 . S
C661 C657 1.376 . S
C661 C660 1.392 . S
C661 H673 0.929 . S
C662 C658 1.531 . S
C662 H674 0.960 . S
C662 H675 0.962 . S
C662 H676 0.960 . S
C663 C660 1.511 . S
C663 H677 0.961 . S
C663 H678 0.961 . S
C663 H679 0.961 . S
C664 C665 1.370 . S
C664 C666 1.363 . S
C664 H680 0.931 . S
C665 C664 1.370 . S
C665 C669 1.408 . S
C666 C664 1.363 . S
C666 C667 1.370 . S
C666 C670 1.524 . S
C667 C659 1.503 . S
C667 C666 1.370 . S
C667 C668 1.403 . S
C668 C667 1.403 . S
C668 C669 1.404 . S
C668 C671 1.539 . S
C669 C665 1.408 . S
C669 C668 1.404 . S
C669 H681 0.930 . S
C670 C666 1.524 . S
C670 H682 0.956 . S
C670 H683 0.961 . S
C670 H684 0.961 . S
C671 C668 1.539 . S
C671 H685 0.958 . S
C671 H686 0.961 . S
C671 H687 0.960 . S
H672 C656 0.931 . S
H673 C661 0.929 . S
H674 C662 0.960 . S
H675 C662 0.962 . S
H676 C662 0.960 . S
H677 C663 0.961 . S
H678 C663 0.961 . S
H679 C663 0.961 . S
H680 C664 0.931 . S
H681 C669 0.930 . S
H682 C670 0.956 . S
H683 C670 0.961 . S
H684 C670 0.961 . S
H685 C671 0.958 . S
H686 C671 0.961 . S
H687 C671 0.960 . S
C688 C689 1.391 . S
C688 C690 1.394 . S
C688 H704 0.931 . S
C689 C688 1.391 . S
C689 C693 1.376 . S
C690 C688 1.394 . S
C690 C691 1.369 . S
C690 C694 1.531 . S
C691 C690 1.369 . S
C691 C692 1.410 . S
C691 C699 1.503 . S
C692 C691 1.410 . S
C692 C693 1.392 . S
C692 C695 1.511 . S
C693 C689 1.376 . S
C693 C692 1.392 . S
C693 H705 0.929 . S
C694 C690 1.531 . S
C694 H706 0.960 . S
C694 H707 0.962 . S
C694 H708 0.960 . S
C695 C692 1.511 . S
C695 H709 0.961 . S
C695 H710 0.961 . S
C695 H711 0.961 . S
C696 C697 1.370 . S
C696 C698 1.363 . S
C696 H712 0.931 . S
C697 C696 1.370 . S
C697 C701 1.408 . S
C698 C696 1.363 . S
C698 C699 1.370 . S
C698 C702 1.524 . S
C699 C691 1.503 . S
C699 C698 1.370 . S
C699 C700 1.403 . S
C700 C699 1.403 . S
C700 C701 1.404 . S
C700 C703 1.539 . S
C701 C697 1.408 . S
C701 C700 1.404 . S
C701 H713 0.930 . S
C702 C698 1.524 . S
C702 H714 0.956 . S
C702 H715 0.961 . S
C702 H716 0.961 . S
C703 C700 1.539 . S
C703 H717 0.958 . S
C703 H718 0.961 . S
C703 H719 0.960 . S
H704 C688 0.931 . S
H705 C693 0.929 . S
H706 C694 0.960 . S
H707 C694 0.962 . S
H708 C694 0.960 . S
H709 C695 0.961 . S
H710 C695 0.961 . S
H711 C695 0.961 . S
H712 C696 0.931 . S
H713 C701 0.930 . S
H714 C702 0.956 . S
H715 C702 0.961 . S
H716 C702 0.961 . S
H717 C703 0.958 . S
H718 C703 0.961 . S
H719 C703 0.960 . S
C720 C721 1.391 . S
C720 C722 1.394 . S
C720 H736 0.931 . S
C721 C720 1.391 . S
C721 C725 1.376 . S
C722 C720 1.394 . S
C722 C723 1.369 . S
C722 C726 1.531 . S
C723 C722 1.369 . S
C723 C724 1.410 . S
C723 C731 1.503 . S
C724 C723 1.410 . S
C724 C725 1.392 . S
C724 C727 1.511 . S
C725 C721 1.376 . S
C725 C724 1.392 . S
C725 H737 0.929 . S
C726 C722 1.531 . S
C726 H738 0.960 . S
C726 H739 0.962 . S
C726 H740 0.960 . S
C727 C724 1.511 . S
C727 H741 0.961 . S
C727 H742 0.961 . S
C727 H743 0.961 . S
C728 C729 1.370 . S
C728 C730 1.363 . S
C728 H744 0.931 . S
C729 C728 1.370 . S
C729 C733 1.408 . S
C730 C728 1.363 . S
C730 C731 1.370 . S
C730 C734 1.524 . S
C731 C723 1.503 . S
C731 C730 1.370 . S
C731 C732 1.403 . S
C732 C731 1.403 . S
C732 C733 1.404 . S
C732 C735 1.539 . S
C733 C729 1.408 . S
C733 C732 1.404 . S
C733 H745 0.930 . S
C734 C730 1.524 . S
C734 H746 0.956 . S
C734 H747 0.961 . S
C734 H748 0.961 . S
C735 C732 1.539 . S
C735 H749 0.958 . S
C735 H750 0.961 . S
C735 H751 0.960 . S
H736 C720 0.931 . S
H737 C725 0.929 . S
H738 C726 0.960 . S
H739 C726 0.962 . S
H740 C726 0.960 . S
H741 C727 0.961 . S
H742 C727 0.961 . S
H743 C727 0.961 . S
H744 C728 0.931 . S
H745 C733 0.930 . S
H746 C734 0.956 . S
H747 C734 0.961 . S
H748 C734 0.961 . S
H749 C735 0.958 . S
H750 C735 0.961 . S
H751 C735 0.960 . S
C752 C753 1.391 . S
C752 C754 1.394 . S
C752 H768 0.931 . S
C753 C752 1.391 . S
C753 C757 1.376 . S
C754 C752 1.394 . S
C754 C755 1.369 . S
C754 C758 1.531 . S
C755 C754 1.369 . S
C755 C756 1.410 . S
C755 C763 1.503 . S
C756 C755 1.410 . S
C756 C757 1.392 . S
C756 C759 1.511 . S
C757 C753 1.376 . S
C757 C756 1.392 . S
C757 H769 0.929 . S
C758 C754 1.531 . S
C758 H770 0.960 . S
C758 H771 0.962 . S
C758 H772 0.960 . S
C759 C756 1.511 . S
C759 H773 0.961 . S
C759 H774 0.961 . S
C759 H775 0.961 . S
C760 C761 1.370 . S
C760 C762 1.363 . S
C760 H776 0.931 . S
C761 C760 1.370 . S
C761 C765 1.408 . S
C762 C760 1.363 . S
C762 C763 1.370 . S
C762 C766 1.524 . S
C763 C755 1.503 . S
C763 C762 1.370 . S
C763 C764 1.403 . S
C764 C763 1.403 . S
C764 C765 1.404 . S
C764 C767 1.539 . S
C765 C761 1.408 . S
C765 C764 1.404 . S
C765 H777 0.930 . S
C766 C762 1.524 . S
C766 H778 0.956 . S
C766 H779 0.961 . S
C766 H780 0.961 . S
C767 C764 1.539 . S
C767 H781 0.958 . S
C767 H782 0.961 . S
C767 H783 0.960 . S
H768 C752 0.931 . S
H769 C757 0.929 . S
H770 C758 0.960 . S
H771 C758 0.962 . S
H772 C758 0.960 . S
H773 C759 0.961 . S
H774 C759 0.961 . S
H775 C759 0.961 . S
H776 C760 0.931 . S
H777 C765 0.930 . S
H778 C766 0.956 . S
H779 C766 0.961 . S
H780 C766 0.961 . S
H781 C767 0.958 . S
H782 C767 0.961 . S
H783 C767 0.960 . S
C784 C785 1.391 . S
C784 C786 1.394 . S
C784 H800 0.931 . S
C785 C784 1.391 . S
C785 C789 1.376 . S
C786 C784 1.394 . S
C786 C787 1.369 . S
C786 C790 1.531 . S
C787 C786 1.369 . S
C787 C788 1.410 . S
C787 C795 1.503 . S
C788 C787 1.410 . S
C788 C789 1.392 . S
C788 C791 1.511 . S
C789 C785 1.376 . S
C789 C788 1.392 . S
C789 H801 0.929 . S
C790 C786 1.531 . S
C790 H802 0.960 . S
C790 H803 0.962 . S
C790 H804 0.960 . S
C791 C788 1.511 . S
C791 H805 0.961 . S
C791 H806 0.961 . S
C791 H807 0.961 . S
C792 C793 1.370 . S
C792 C794 1.363 . S
C792 H808 0.931 . S
C793 C792 1.370 . S
C793 C797 1.408 . S
C794 C792 1.363 . S
C794 C795 1.370 . S
C794 C798 1.524 . S
C795 C787 1.503 . S
C795 C794 1.370 . S
C795 C796 1.403 . S
C796 C795 1.403 . S
C796 C797 1.404 . S
C796 C799 1.539 . S
C797 C793 1.408 . S
C797 C796 1.404 . S
C797 H809 0.930 . S
C798 C794 1.524 . S
C798 H810 0.956 . S
C798 H811 0.961 . S
C798 H812 0.961 . S
C799 C796 1.539 . S
C799 H813 0.958 . S
C799 H814 0.961 . S
C799 H815 0.960 . S
H800 C784 0.931 . S
H801 C789 0.929 . S
H802 C790 0.960 . S
H803 C790 0.962 . S
H804 C790 0.960 . S
H805 C791 0.961 . S
H806 C791 0.961 . S
H807 C791 0.961 . S
H808 C792 0.931 . S
H809 C797 0.930 . S
H810 C798 0.956 . S
H811 C798 0.961 . S
H812 C798 0.961 . S
H813 C799 0.958 . S
H814 C799 0.961 . S
H815 C799 0.960 . S
C241 C202 3.690 . S
C249 C7 3.616 . S
C273 C2 3.564 . S
C281 C47 3.356 1_455 S
C305 C42 3.081 . S
C313 C82 3.042 . S
C337 C127 2.394 . S
C345 C87 2.243 . S
C369 C167 2.813 . S
C377 C122 3.246 . S
C401 C162 2.600 . S
C409 C207 2.552 . S
C433 C171 2.465 . S
C441 C16 2.415 . S
C465 C211 3.214 . S
C473 C56 3.196 . S
C497 C91 3.688 . S
C505 C11 3.727 . S
C529 C136 2.017 . S
C537 C51 2.103 1_556 S
C561 C176 0.845 . S
C569 C96 0.857 . S
C593 C131 1.249 . S
C601 C216 1.261 . S
C625 C10 0.465 . S
C633 C19 0.499 . S
C657 C50 0.598 . S
C665 C59 0.456 . S
C689 C99 0.583 . S
C697 C90 0.487 . S
C721 C130 0.377 . S
C729 C139 0.344 . S
C753 C179 0.665 . S
C761 C170 0.583 . S
C785 C210 0.428 . S
C793 C219 0.443 . S
