# Generated by pormake.
# Topology ske, (6)-cn, num edge types: 1
# Building blocks:
#     Node 0, Type 0, BuildingBlock: BETDEL_clean_sbu_0, # of connection points: 6
#     Node 1, Type 0, BuildingBlock: BETDEL_clean_sbu_0, # of connection points: 6
#     Node 2, Type 0, BuildingBlock: BETDEL_clean_sbu_0, # of connection points: 6
#     Node 3, Type 0, BuildingBlock: BETDEL_clean_sbu_0, # of connection points: 6
#     Node 4, Type 0, BuildingBlock: BETDEL_clean_sbu_0, # of connection points: 6
#     Node 5, Type 0, BuildingBlock: BETDEL_clean_sbu_0, # of connection points: 6
#     Node 6, Type 0, BuildingBlock: BETDEL_clean_sbu_0, # of connection points: 6
#     Node 7, Type 0, BuildingBlock: BETDEL_clean_sbu_0, # of connection points: 6
#     Edge 8, Type (0, 0), BuildingBlock: ZUJKAS_clean_linker_0, # of connection points: 2
#     Edge 9, Type (0, 0), BuildingBlock: ZUJKAS_clean_linker_0, # of connection points: 2
#     Edge 10, Type (0, 0), BuildingBlock: ZUJKAS_clean_linker_0, # of connection points: 2
#     Edge 11, Type (0, 0), BuildingBlock: ZUJKAS_clean_linker_0, # of connection points: 2
#     Edge 12, Type (0, 0), BuildingBlock: ZUJKAS_clean_linker_0, # of connection points: 2
#     Edge 13, Type (0, 0), BuildingBlock: ZUJKAS_clean_linker_0, # of connection points: 2
#     Edge 14, Type (0, 0), BuildingBlock: ZUJKAS_clean_linker_0, # of connection points: 2
#     Edge 15, Type (0, 0), BuildingBlock: ZUJKAS_clean_linker_0, # of connection points: 2
#     Edge 16, Type (0, 0), BuildingBlock: ZUJKAS_clean_linker_0, # of connection points: 2
#     Edge 17, Type (0, 0), BuildingBlock: ZUJKAS_clean_linker_0, # of connection points: 2
#     Edge 18, Type (0, 0), BuildingBlock: ZUJKAS_clean_linker_0, # of connection points: 2
#     Edge 19, Type (0, 0), BuildingBlock: ZUJKAS_clean_linker_0, # of connection points: 2
#     Edge 20, Type (0, 0), BuildingBlock: ZUJKAS_clean_linker_0, # of connection points: 2
#     Edge 21, Type (0, 0), BuildingBlock: ZUJKAS_clean_linker_0, # of connection points: 2
#     Edge 22, Type (0, 0), BuildingBlock: ZUJKAS_clean_linker_0, # of connection points: 2
#     Edge 23, Type (0, 0), BuildingBlock: ZUJKAS_clean_linker_0, # of connection points: 2
#     Edge 24, Type (0, 0), BuildingBlock: ZUJKAS_clean_linker_0, # of connection points: 2
#     Edge 25, Type (0, 0), BuildingBlock: ZUJKAS_clean_linker_0, # of connection points: 2
#     Edge 26, Type (0, 0), BuildingBlock: ZUJKAS_clean_linker_0, # of connection points: 2
#     Edge 27, Type (0, 0), BuildingBlock: ZUJKAS_clean_linker_0, # of connection points: 2
#     Edge 28, Type (0, 0), BuildingBlock: ZUJKAS_clean_linker_0, # of connection points: 2
#     Edge 29, Type (0, 0), BuildingBlock: ZUJKAS_clean_linker_0, # of connection points: 2
#     Edge 30, Type (0, 0), BuildingBlock: ZUJKAS_clean_linker_0, # of connection points: 2
#     Edge 31, Type (0, 0), BuildingBlock: ZUJKAS_clean_linker_0, # of connection points: 2
# Relax obj value: 0.143
# Max RMSD: 0.160
# Mean RMSD: 0.158
data_MOF--net-ske--node1-BETDEL_clean_sbu_0--edge1-ZUJKAS_clean_linker_0
_symmetry_space_group_name_H-M    P1
_symmetry_Int_Tables_number       1
_symmetry_cell_setting            triclinic
loop_
_symmetry_equiv_pos_as_xyz
'x, y, z'
_cell_length_a     88.03982
_cell_length_b     37.747927
_cell_length_c     19.993475
_cell_angle_alpha  89.995921
_cell_angle_beta   90.012157
_cell_angle_gamma 84.852871
loop_
_atom_site_label
_atom_site_type_symbol
_atom_site_fract_x
_atom_site_fract_y
_atom_site_fract_z
_atom_type_partial_charge
Dy0 Dy 0.15584 0.26231 0.56095 0.0
C1 C 0.09109 0.23943 0.5607 0.0
C2 C 0.18568 0.26623 0.59535 0.0
Dy3 Dy 0.12041 0.25767 0.5604 0.0
O4 O 0.17769 0.23971 0.60705 0.0
O5 O 0.1774 0.29121 0.56335 0.0
O6 O 0.15861 0.21124 0.50522 0.0
O7 O 0.14047 0.21943 0.57372 0.0
C8 C 0.14663 0.19847 0.52997 0.0
C9 C 0.12647 0.32673 0.55669 0.0
O10 O 0.12579 0.24861 0.66878 0.0
O11 O 0.14931 0.27173 0.66815 0.0
O12 O 0.09733 0.25725 0.60716 0.0
O13 O 0.10108 0.23042 0.51421 0.0
O14 O 0.11284 0.31639 0.55673 0.0
O15 O 0.13576 0.29944 0.55942 0.0
O16 O 0.15064 0.27741 0.45465 0.0
O17 O 0.1269 0.25413 0.45167 0.0
C18 C 0.13753 0.26052 0.70046 0.0
C19 C 0.13868 0.26715 0.42137 0.0
Dy20 Dy 0.8634 0.26135 0.5557 0.0
C21 C 0.92773 0.26492 0.53357 0.0
C22 C 0.83318 0.25816 0.58597 0.0
Dy23 Dy 0.89719 0.26028 0.55423 0.0
O24 O 0.84042 0.28649 0.58608 0.0
O25 O 0.8424 0.23099 0.5676 0.0
O26 O 0.8611 0.31209 0.49939 0.0
O27 O 0.87914 0.30337 0.56872 0.0
C28 C 0.87312 0.32443 0.5247 0.0
C29 C 0.88717 0.19593 0.57764 0.0
O30 O 0.89378 0.27227 0.6626 0.0
O31 O 0.86941 0.25444 0.6641 0.0
O32 O 0.91967 0.24151 0.50709 0.0
O33 O 0.91904 0.28646 0.57078 0.0
O34 O 0.89904 0.20748 0.60564 0.0
O35 O 0.88148 0.21895 0.53685 0.0
O36 O 0.86704 0.24806 0.44776 0.0
O37 O 0.89094 0.26917 0.44624 0.0
C38 C 0.8816 0.26393 0.69558 0.0
C39 C 0.87901 0.258 0.41466 0.0
Dy40 Dy 0.12342 0.76145 0.42307 0.0
C41 C 0.18717 0.7661 0.39944 0.0
C42 C 0.09258 0.75648 0.43399 0.0
Dy43 Dy 0.15687 0.76057 0.42606 0.0
O44 O 0.09904 0.78069 0.40164 0.0
O45 O 0.10301 0.7343 0.46068 0.0
O46 O 0.12206 0.8151 0.37488 0.0
O47 O 0.13888 0.80284 0.44654 0.0
C48 C 0.13348 0.8265 0.40641 0.0
C49 C 0.14696 0.69714 0.45305 0.0
O50 O 0.15295 0.77435 0.53371 0.0
O51 O 0.12802 0.75905 0.53383 0.0
O52 O 0.18096 0.73689 0.41086 0.0
O53 O 0.17686 0.79287 0.40454 0.0
O54 O 0.15847 0.70978 0.48214 0.0
O55 O 0.14145 0.71824 0.40791 0.0
O56 O 0.12805 0.74339 0.31835 0.0
O57 O 0.15146 0.7658 0.31655 0.0
C58 C 0.14039 0.76743 0.56607 0.0
C59 C 0.13985 0.75349 0.28494 0.0
Dy60 Dy 0.89845 0.76107 0.43637 0.0
C61 C 0.83472 0.74929 0.4082 0.0
C62 C 0.92891 0.76735 0.45688 0.0
Dy63 Dy 0.86455 0.7599 0.43554 0.0
O64 O 0.92138 0.74177 0.47868 0.0
O65 O 0.91973 0.79018 0.42449 0.0
O66 O 0.90063 0.70792 0.38619 0.0
O67 O 0.88311 0.71918 0.45571 0.0
C68 C 0.8889 0.69618 0.41516 0.0
C69 C 0.87352 0.82426 0.46209 0.0
O70 O 0.86907 0.74501 0.54231 0.0
O71 O 0.89205 0.77032 0.54402 0.0
O72 O 0.83938 0.77688 0.43772 0.0
O73 O 0.84637 0.72664 0.3956 0.0
O74 O 0.8614 0.81211 0.48674 0.0
O75 O 0.87978 0.80262 0.4197 0.0
O76 O 0.89514 0.77201 0.32757 0.0
O77 O 0.86996 0.75892 0.32589 0.0
C78 C 0.88054 0.75723 0.57561 0.0
C79 C 0.88256 0.76628 0.2947 0.0
Dy80 Dy 0.65794 0.75549 0.06033 0.0
C81 C 0.5933 0.75283 0.04493 0.0
C82 C 0.68793 0.76449 0.08765 0.0
Dy83 Dy 0.62409 0.75635 0.06127 0.0
O84 O 0.68299 0.73709 0.05852 0.0
O85 O 0.67648 0.78778 0.09987 0.0
O86 O 0.66036 0.7034 0.00885 0.0
O87 O 0.6423 0.71371 0.07752 0.0
C88 C 0.64824 0.69184 0.03468 0.0
C89 C 0.63461 0.8205 0.0809 0.0
O90 O 0.62765 0.74262 0.16879 0.0
O91 O 0.65262 0.75697 0.17025 0.0
O92 O 0.60022 0.78159 0.04778 0.0
O93 O 0.60325 0.72535 0.05038 0.0
O94 O 0.62323 0.80905 0.11298 0.0
O95 O 0.63981 0.79717 0.03967 0.0
O96 O 0.65366 0.77067 0.95352 0.0
O97 O 0.6296 0.75038 0.95192 0.0
C98 C 0.64018 0.74875 0.20164 0.0
C99 C 0.64163 0.76109 0.92037 0.0
Dy100 Dy 0.36457 0.76563 0.056 0.0
C101 C 0.4295 0.76431 0.03871 0.0
C102 C 0.33425 0.76156 0.08364 0.0
Dy103 Dy 0.39872 0.76196 0.05675 0.0
O104 O 0.3408 0.79055 0.07443 0.0
O105 O 0.34422 0.73428 0.07582 0.0
O106 O 0.36339 0.81606 -0.00119 0.0
O107 O 0.38096 0.80592 0.07026 0.0
C108 C 0.37557 0.82713 0.02518 0.0
C109 C 0.38717 0.6993 0.07937 0.0
O110 O 0.39529 0.77476 0.16456 0.0
O111 O 0.37018 0.76134 0.16547 0.0
O112 O 0.42185 0.73737 0.02583 0.0
O113 O 0.42028 0.79055 0.06085 0.0
O114 O 0.39907 0.70949 0.10957 0.0
O115 O 0.38229 0.72271 0.0378 0.0
O116 O 0.36846 0.75102 0.94886 0.0
O117 O 0.39298 0.76903 0.94764 0.0
C118 C 0.3827 0.76888 0.19709 0.0
C119 C 0.38075 0.75931 0.916 0.0
Dy120 Dy 0.62243 0.25654 0.927 0.0
C121 C 0.68621 0.25996 0.90036 0.0
C122 C 0.59169 0.25052 0.93784 0.0
Dy123 Dy 0.65592 0.25623 0.92894 0.0
O124 O 0.59801 0.27424 0.90354 0.0
O125 O 0.60222 0.22939 0.96654 0.0
O126 O 0.62067 0.31057 0.88013 0.0
O127 O 0.63782 0.29806 0.95011 0.0
C128 C 0.63224 0.32186 0.91075 0.0
C129 C 0.64632 0.19276 0.95678 0.0
O130 O 0.6522 0.26917 0.03712 0.0
O131 O 0.62718 0.25438 0.03761 0.0
O132 O 0.67928 0.23123 0.90368 0.0
O133 O 0.67665 0.28725 0.91451 0.0
O134 O 0.65784 0.20572 0.98509 0.0
O135 O 0.64055 0.21365 0.91179 0.0
O136 O 0.62722 0.23874 0.82221 0.0
O137 O 0.65007 0.26361 0.82035 0.0
C138 C 0.63962 0.26248 0.06962 0.0
C139 C 0.63872 0.25025 0.78869 0.0
Dy140 Dy 0.39758 0.26241 0.93781 0.0
C141 C 0.33326 0.26566 0.90532 0.0
C142 C 0.4282 0.26607 0.95808 0.0
Dy143 Dy 0.36354 0.26624 0.93687 0.0
O144 O 0.41925 0.29004 0.9273 0.0
O145 O 0.42037 0.24063 0.9782 0.0
O146 O 0.39853 0.20964 0.88616 0.0
O147 O 0.38114 0.22287 0.95527 0.0
C148 C 0.38642 0.1994 0.91455 0.0
C149 C 0.37458 0.32762 0.96917 0.0
O150 O 0.36698 0.25224 0.04456 0.0
O151 O 0.39152 0.27008 0.04643 0.0
O152 O 0.34114 0.29297 0.90253 0.0
O153 O 0.34186 0.23822 0.92725 0.0
O154 O 0.36237 0.31648 0.99505 0.0
O155 O 0.37996 0.30654 0.92397 0.0
O156 O 0.39426 0.2744 0.82954 0.0
O157 O 0.36958 0.25835 0.82855 0.0
C158 C 0.37926 0.26037 0.07775 0.0
C159 C 0.38192 0.26687 0.79684 0.0
H160 H 0.20332 0.21271 0.65384 0.0
H161 H 0.22845 0.21462 0.7043 0.0
H162 H 0.22895 0.32437 0.64505 0.0
H163 H 0.2035 0.32268 0.59447 0.0
H164 H 0.25623 0.23046 0.64768 0.0
H165 H 0.23701 0.32602 0.84866 0.0
H166 H 0.22382 0.30314 0.799 0.0
H167 H 0.23256 0.34026 0.76455 0.0
C168 C 0.20879 0.23727 0.65113 0.0
C169 C 0.20142 0.26763 0.62043 0.0
C170 C 0.22317 0.23828 0.68001 0.0
C171 C 0.2305 0.26972 0.67932 0.0
C172 C 0.22338 0.29996 0.64712 0.0
H173 H 0.31578 0.32191 0.85421 0.0
H174 H 0.29093 0.32215 0.80006 0.0
C175 C 0.20892 0.29893 0.61784 0.0
C176 C 0.2455 0.27043 0.71321 0.0
H177 H 0.26321 0.30662 0.84547 0.0
C178 C 0.25779 0.24716 0.69085 0.0
C179 C 0.24746 0.29209 0.76973 0.0
C180 C 0.23451 0.31663 0.79748 0.0
C181 C 0.27205 0.24525 0.72294 0.0
C182 C 0.27398 0.26662 0.77998 0.0
C183 C 0.2617 0.29008 0.80204 0.0
C184 C 0.28881 0.26612 0.81589 0.0
C185 C 0.28499 0.22092 0.69451 0.0
C186 C 0.29578 0.23466 0.84443 0.0
C187 C 0.3101 0.23442 0.87541 0.0
C188 C 0.31757 0.26571 0.87882 0.0
C189 C 0.31031 0.29734 0.85234 0.0
C190 C 0.29609 0.29754 0.8213 0.0
H191 H 0.28281 0.21363 0.64174 0.0
H192 H 0.2959 0.23351 0.69675 0.0
H193 H 0.2863 0.19602 0.72428 0.0
H194 H 0.29022 0.21025 0.84228 0.0
H195 H 0.31542 0.20971 0.89555 0.0
H196 H 0.70579 0.20345 0.86613 0.0
H197 H 0.73081 0.20375 0.81363 0.0
H198 H 0.72718 0.31835 0.82221 0.0
H199 H 0.70198 0.31821 0.87533 0.0
H200 H 0.73682 0.23671 0.69081 0.0
H201 H 0.77003 0.2887 0.89982 0.0
H202 H 0.75191 0.27076 0.91243 0.0
H203 H 0.75256 0.3148 0.87925 0.0
C204 C 0.71039 0.22875 0.85772 0.0
C205 C 0.70196 0.26084 0.87504 0.0
C206 C 0.72468 0.22885 0.82747 0.0
C207 C 0.73091 0.26101 0.8143 0.0
C208 C 0.72267 0.29318 0.83276 0.0
H209 H 0.81397 0.31461 0.62368 0.0
H210 H 0.78892 0.31432 0.67575 0.0
C211 C 0.70829 0.2931 0.86301 0.0
C212 C 0.74573 0.26061 0.7786 0.0
H213 H 0.78249 0.28141 0.79524 0.0
C214 C 0.74683 0.24639 0.71364 0.0
C215 C 0.75876 0.27321 0.80854 0.0
C216 C 0.75838 0.28748 0.87905 0.0
C217 C 0.76055 0.24499 0.67738 0.0
C218 C 0.7736 0.25755 0.70734 0.0
C219 C 0.77249 0.27174 0.77234 0.0
C220 C 0.78843 0.25718 0.67169 0.0
C221 C 0.76088 0.23089 0.60674 0.0
C222 C 0.79648 0.2251 0.65141 0.0
C223 C 0.81088 0.22518 0.62121 0.0
C224 C 0.81743 0.25736 0.61126 0.0
C225 C 0.80921 0.28938 0.63051 0.0
C226 C 0.79489 0.28928 0.66052 0.0
H227 H 0.74921 0.23038 0.58571 0.0
H228 H 0.76757 0.24725 0.57359 0.0
H229 H 0.76639 0.20328 0.60648 0.0
H230 H 0.79183 0.19994 0.6605 0.0
H231 H 0.81703 0.20012 0.6074 0.0
H232 H 0.31332 0.81787 0.10332 0.0
H233 H 0.28839 0.81813 0.15724 0.0
H234 H 0.29461 0.70395 0.17629 0.0
H235 H 0.31978 0.7036 0.12292 0.0
H236 H 0.26237 0.78515 0.12427 0.0
H237 H 0.28592 0.73696 0.36893 0.0
H238 H 0.29773 0.75268 0.30347 0.0
H239 H 0.29139 0.7088 0.29898 0.0
C240 C 0.30933 0.79276 0.11845 0.0
C241 C 0.31851 0.7607 0.10918 0.0
C242 C 0.29508 0.79297 0.14933 0.0
C243 C 0.28974 0.76117 0.17196 0.0
C244 C 0.29864 0.7289 0.16051 0.0
H245 H 0.20852 0.71043 0.38203 0.0
H246 H 0.2334 0.7106 0.32796 0.0
C247 C 0.31294 0.72867 0.12949 0.0
C248 C 0.27496 0.76213 0.20827 0.0
H249 H 0.25904 0.74367 0.3588 0.0
C250 C 0.26163 0.77615 0.17559 0.0
C251 C 0.27403 0.75054 0.27537 0.0
C252 C 0.28803 0.73668 0.31413 0.0
C253 C 0.24736 0.77822 0.20765 0.0
C254 C 0.24643 0.76665 0.27478 0.0
C255 C 0.25977 0.75266 0.30747 0.0
C256 C 0.23164 0.76743 0.31108 0.0
C257 C 0.23337 0.79192 0.16869 0.0
C258 C 0.22251 0.7995 0.32143 0.0
C259 C 0.20821 0.79946 0.3524 0.0
C260 C 0.20289 0.76739 0.37396 0.0
C261 C 0.21231 0.73558 0.36594 0.0
C262 C 0.22654 0.73562 0.33495 0.0
H263 H 0.23547 0.79127 0.11389 0.0
H264 H 0.22364 0.77606 0.17974 0.0
H265 H 0.23005 0.81992 0.18317 0.0
H266 H 0.22636 0.82449 0.30482 0.0
H267 H 0.2012 0.82436 0.35804 0.0
H268 H 0.71199 0.71485 0.07087 0.0
H269 H 0.73689 0.71236 0.12598 0.0
H270 H 0.7242 0.81367 0.21944 0.0
H271 H 0.69913 0.81604 0.16501 0.0
H272 H 0.76018 0.75763 0.12378 0.0
H273 H 0.73598 0.74906 0.37911 0.0
H274 H 0.72492 0.74308 0.30461 0.0
H275 H 0.72842 0.78703 0.33167 0.0
C276 C 0.71456 0.73679 0.10259 0.0
C277 C 0.7036 0.76558 0.11389 0.0
C278 C 0.72879 0.7353 0.13416 0.0
C279 C 0.73231 0.76245 0.17794 0.0
C280 C 0.72161 0.79201 0.18705 0.0
H281 H 0.81032 0.79789 0.42533 0.0
H282 H 0.78548 0.79956 0.37 0.0
C283 C 0.70735 0.79352 0.15544 0.0
C284 C 0.74707 0.75937 0.21471 0.0
H285 H 0.76255 0.75409 0.37164 0.0
C286 C 0.76071 0.75675 0.17796 0.0
C287 C 0.74774 0.75808 0.28545 0.0
C288 C 0.7335 0.75913 0.32767 0.0
C289 C 0.775 0.75364 0.20997 0.0
C290 C 0.77567 0.75239 0.28073 0.0
C291 C 0.76203 0.75494 0.31746 0.0
C292 C 0.79043 0.74971 0.31759 0.0
C293 C 0.78923 0.75269 0.16772 0.0
C294 C 0.80132 0.72055 0.30832 0.0
C295 C 0.81556 0.71952 0.34002 0.0
C296 C 0.81909 0.74754 0.38188 0.0
C297 C 0.80793 0.77589 0.39338 0.0
C298 C 0.79373 0.77692 0.36168 0.0
H299 H 0.78673 0.76274 0.11628 0.0
H300 H 0.7978 0.76881 0.19075 0.0
H301 H 0.79435 0.72483 0.1637 0.0
H302 H 0.7989 0.69883 0.27574 0.0
H303 H 0.82395 0.69733 0.3303 0.0
H304 H 0.15468 0.85838 0.48053 0.0
H305 H 0.15544 0.9222 0.50239 0.0
H306 H 0.11556 0.94492 0.37881 0.0
H307 H 0.11521 0.8817 0.35451 0.0
H308 H 0.13459 0.99089 0.35363 0.0
H309 H 0.12953 0.98275 0.62885 0.0
H310 H 0.14596 0.95612 0.59838 0.0
H311 H 0.12716 0.94529 0.57505 0.0
C312 C 0.14616 0.8771 0.45772 0.0
C313 C 0.13485 0.86502 0.41606 0.0
C314 C 0.14647 0.91354 0.47093 0.0
C315 C 0.13529 0.93849 0.44384 0.0
C316 C 0.12425 0.92635 0.40085 0.0
H317 H 0.1231 0.16242 0.58024 0.0
H318 H 0.11863 0.09981 0.55878 0.0
C319 C 0.12407 0.89011 0.38688 0.0
C320 C 0.13524 0.97731 0.45835 0.0
H321 H 0.13625 0.03822 0.58468 0.0
C322 C 0.13483 1.00115 0.40427 0.0
C323 C 0.13516 0.99108 0.52437 0.0
C324 C 0.1343 0.96751 0.58495 0.0
C325 C 0.13484 0.03798 0.41414 0.0
C326 C 0.13582 0.0515 0.47995 0.0
C327 C 0.13568 0.0279 0.53421 0.0
C328 C 0.13806 0.08956 0.49287 0.0
C329 C 0.13367 0.06203 0.35368 0.0
C330 C 0.1505 0.10446 0.46379 0.0
C331 C 0.15293 0.13991 0.47534 0.0
C332 C 0.14317 0.16136 0.51741 0.0
C333 C 0.13077 0.14653 0.54742 0.0
C334 C 0.12825 0.11081 0.5353 0.0
H335 H 0.12763 0.04987 0.31192 0.0
H336 H 0.12757 0.08831 0.36555 0.0
H337 H 0.14531 0.06626 0.33592 0.0
H338 H 0.15849 0.0885 0.43252 0.0
H339 H 0.16268 0.15037 0.4518 0.0
H340 H 0.89689 0.35949 0.57489 0.0
H341 H 0.90139 0.42222 0.55607 0.0
H342 H 0.86091 0.43578 0.4336 0.0
H343 H 0.85676 0.37367 0.45001 0.0
H344 H 0.88338 0.4654 0.37562 0.0
H345 H 0.87928 0.50916 0.64074 0.0
H346 H 0.89387 0.47383 0.62469 0.0
H347 H 0.87415 0.46618 0.614 0.0
C348 C 0.88902 0.37599 0.54397 0.0
C349 C 0.87644 0.36175 0.51424 0.0
C350 C 0.89151 0.41185 0.53364 0.0
C351 C 0.88134 0.43397 0.49423 0.0
C352 C 0.86892 0.41942 0.46423 0.0
H353 H 0.86687 0.66443 0.48343 0.0
H354 H 0.86525 0.60048 0.50048 0.0
C355 C 0.86654 0.3838 0.47384 0.0
C356 C 0.88345 0.47218 0.48259 0.0
H357 H 0.8849 0.55227 0.56092 0.0
C358 C 0.88376 0.48436 0.41622 0.0
C359 C 0.88371 0.49706 0.53546 0.0
C360 C 0.8826 0.48607 0.60774 0.0
C361 C 0.88409 0.52062 0.40117 0.0
C362 C 0.88466 0.54543 0.454 0.0
C363 C 0.88452 0.53326 0.52042 0.0
C364 C 0.88529 0.58414 0.44144 0.0
C365 C 0.88325 0.53198 0.32876 0.0
C366 C 0.89702 0.59629 0.40238 0.0
C367 C 0.89779 0.63267 0.39168 0.0
C368 C 0.88704 0.65775 0.42103 0.0
C369 C 0.87527 0.64567 0.45998 0.0
C370 C 0.87439 0.60918 0.47004 0.0
H371 H 0.87815 0.51201 0.29699 0.0
H372 H 0.87641 0.55796 0.32271 0.0
H373 H 0.89495 0.53467 0.30996 0.0
H374 H 0.90577 0.57766 0.38113 0.0
H375 H 0.90709 0.64116 0.36198 0.0
H376 H 0.89726 0.85934 0.41127 0.0
H377 H 0.90197 0.92195 0.43134 0.0
H378 H 0.8616 0.93541 0.55426 0.0
H379 H 0.85716 0.8736 0.53628 0.0
H380 H 0.88438 0.98422 0.4035 0.0
H381 H 0.89279 0.97259 0.67651 0.0
H382 H 0.89288 0.93418 0.62276 0.0
H383 H 0.87512 0.9563 0.65193 0.0
C384 C 0.88951 0.87573 0.4429 0.0
C385 C 0.87691 0.86154 0.47251 0.0
C386 C 0.89217 0.91142 0.45426 0.0
C387 C 0.8823 0.93319 0.49553 0.0
C388 C 0.86962 0.91898 0.52389 0.0
H389 H 0.86561 0.16353 0.50701 0.0
H390 H 0.8649 0.0996 0.48653 0.0
C391 C 0.86704 0.88359 0.51307 0.0
C392 C 0.88476 0.97106 0.50829 0.0
H393 H 0.88603 0.03163 0.63455 0.0
C394 C 0.88496 0.99457 0.45396 0.0
C395 C 0.88575 0.98454 0.57409 0.0
C396 C 0.88679 0.96048 0.63454 0.0
C397 C 0.88551 0.03135 0.46377 0.0
C398 C 0.8854 0.04511 0.52979 0.0
C399 C 0.8858 0.02134 0.58394 0.0
C400 C 0.88525 0.08387 0.54415 0.0
C401 C 0.88637 0.05494 0.40321 0.0
C402 C 0.89637 0.09626 0.58638 0.0
C403 C 0.89653 0.13257 0.59952 0.0
C404 C 0.88565 0.1574 0.57028 0.0
C405 C 0.8742 0.145 0.52983 0.0
C406 C 0.87392 0.10852 0.51738 0.0
H407 H 0.89114 0.0397 0.35929 0.0
H408 H 0.87472 0.06637 0.38982 0.0
H409 H 0.89353 0.07713 0.41315 0.0
H410 H 0.90515 0.07786 0.60821 0.0
H411 H 0.9055 0.14125 0.63103 0.0
H412 H 0.12827 0.65717 0.37841 0.0
H413 H 0.12459 0.59363 0.39404 0.0
H414 H 0.15509 0.58942 0.56318 0.0
H415 H 0.15863 0.65215 0.54856 0.0
H416 H 0.14742 0.53347 0.3951 0.0
H417 H 0.11686 0.54865 0.63728 0.0
H418 H 0.11905 0.58573 0.58216 0.0
H419 H 0.13449 0.56915 0.63578 0.0
C420 C 0.13404 0.64265 0.41918 0.0
C421 C 0.14369 0.65964 0.46233 0.0
C422 C 0.13201 0.6064 0.42789 0.0
C423 C 0.13946 0.58687 0.48022 0.0
C424 C 0.14904 0.60399 0.52315 0.0
H425 H 0.15418 0.35462 0.53733 0.0
H426 H 0.15821 0.41765 0.51745 0.0
C427 C 0.15108 0.6399 0.51449 0.0
C428 C 0.13751 0.54852 0.49049 0.0
H429 H 0.12617 0.48986 0.60637 0.0
C430 C 0.14268 0.52388 0.44105 0.0
C431 C 0.13132 0.53606 0.55045 0.0
C432 C 0.12498 0.56127 0.60424 0.0
C433 C 0.14198 0.48707 0.45041 0.0
C434 C 0.13616 0.47459 0.5112 0.0
C435 C 0.13085 0.49934 0.56019 0.0
C436 C 0.13424 0.43632 0.52318 0.0
C437 C 0.14719 0.46189 0.39473 0.0
C438 C 0.11956 0.42604 0.53461 0.0
C439 C 0.11731 0.39051 0.54644 0.0
C440 C 0.12967 0.36423 0.5474 0.0
C441 C 0.14446 0.37435 0.53689 0.0
C442 C 0.14673 0.41024 0.52494 0.0
H443 H 0.14832 0.47604 0.3465 0.0
H444 H 0.15849 0.44823 0.40774 0.0
H445 H 0.13908 0.44127 0.3879 0.0
H446 H 0.10976 0.44557 0.53376 0.0
H447 H 0.10576 0.38359 0.55437 0.0
H448 H 0.66385 0.64198 0.95889 0.0
H449 H 0.6588 0.58056 0.94101 0.0
H450 H 0.61912 0.59544 0.0679 0.0
H451 H 0.62444 0.65769 0.08782 0.0
H452 H 0.63641 0.53206 0.09317 0.0
H453 H 0.62648 0.54576 0.82142 0.0
H454 H 0.64443 0.56118 0.84434 0.0
H455 H 0.62699 0.58376 0.87585 0.0
C456 C 0.65399 0.6324 0.98303 0.0
C457 C 0.64449 0.65477 0.02458 0.0
C458 C 0.65106 0.59721 0.97229 0.0
C459 C 0.63839 0.58352 0.00176 0.0
C460 C 0.6289 0.60557 0.04411 0.0
H461 H 0.61361 0.37735 0.86206 0.0
H462 H 0.61407 0.44039 0.88792 0.0
C463 C 0.63191 0.64106 0.05538 0.0
C464 C 0.63552 0.54589 0.9887 0.0
H465 H 0.63312 0.4863 0.86152 0.0
C466 C 0.63546 0.52207 0.04261 0.0
C467 C 0.63405 0.53289 0.92281 0.0
C468 C 0.63282 0.55735 0.86292 0.0
C469 C 0.63461 0.48542 0.03219 0.0
C470 C 0.63425 0.4721 0.96593 0.0
C471 C 0.63369 0.49622 0.9123 0.0
C472 C 0.63416 0.43344 0.95071 0.0
C473 C 0.63393 0.46152 0.09239 0.0
C474 C 0.64551 0.40834 0.976 0.0
C475 C 0.64515 0.37204 0.96186 0.0
C476 C 0.63362 0.36028 0.92107 0.0
C477 C 0.62265 0.38554 0.89369 0.0
C478 C 0.62288 0.42165 0.90859 0.0
H479 H 0.6294 0.47659 0.13693 0.0
H480 H 0.62666 0.43952 0.08269 0.0
H481 H 0.64561 0.44984 0.10468 0.0
H482 H 0.65465 0.41677 0.00672 0.0
H483 H 0.6538 0.35316 0.98329 0.0
H484 H 0.36938 0.86642 0.91488 0.0
H485 H 0.37265 0.92921 0.89786 0.0
H486 H 0.3938 0.93369 0.09205 0.0
H487 H 0.39087 0.87 0.10855 0.0
H488 H 0.3592 0.98225 0.97301 0.0
H489 H 0.42205 0.98738 0.97632 0.0
H490 H 0.41326 0.94625 0.96717 0.0
H491 H 0.4144 0.96655 0.0481 0.0
C492 C 0.37499 0.88062 0.9535 0.0
C493 C 0.37983 0.86349 0.01312 0.0
C494 C 0.37681 0.91653 0.94377 0.0
C495 C 0.38346 0.93625 0.99358 0.0
C496 C 0.38884 0.91891 0.05244 0.0
H497 H 0.36874 0.16871 0.0065 0.0
H498 H 0.36771 0.10509 0.02765 0.0
C499 C 0.38716 0.8826 0.06194 0.0
C500 C 0.38361 0.97533 0.98484 0.0
H501 H 0.40695 0.04254 0.97205 0.0
C502 C 0.36965 0.99544 0.97287 0.0
C503 C 0.39724 0.99246 0.98416 0.0
C504 C 0.41262 0.97209 0.99403 0.0
C505 C 0.36895 0.03205 0.95945 0.0
C506 C 0.38256 0.04931 0.95963 0.0
C507 C 0.39652 0.02929 0.97216 0.0
C508 C 0.38262 0.08795 0.94544 0.0
C509 C 0.35368 0.05159 0.94316 0.0
C510 C 0.39139 0.09956 0.89246 0.0
C511 C 0.39209 0.13589 0.88064 0.0
C512 C 0.38405 0.16132 0.92168 0.0
C513 C 0.37495 0.14972 0.97365 0.0
C514 C 0.37434 0.11335 0.98574 0.0
H515 H 0.34527 0.03308 0.92698 0.0
H516 H 0.34909 0.06573 0.98849 0.0
H517 H 0.35476 0.07155 0.90303 0.0
H518 H 0.39784 0.08046 0.86064 0.0
H519 H 0.39921 0.14407 0.84033 0.0
H520 H 0.39046 0.37005 0.88738 0.0
H521 H 0.39364 0.43357 0.90432 0.0
H522 H 0.37141 0.42985 0.09621 0.0
H523 H 0.36788 0.36722 0.07871 0.0
H524 H 0.35873 0.48335 0.02018 0.0
H525 H 0.4217 0.486 0.02309 0.0
H526 H 0.41428 0.46556 0.95036 0.0
H527 H 0.41256 0.44528 0.031 0.0
C528 C 0.38654 0.38278 0.93359 0.0
C529 C 0.37885 0.36393 0.9816 0.0
C530 C 0.38838 0.41899 0.94334 0.0
C531 C 0.38279 0.43649 0.00169 0.0
C532 C 0.37575 0.41703 0.05071 0.0
H533 H 0.39933 0.64391 0.15525 0.0
H534 H 0.39761 0.58036 0.13556 0.0
C535 C 0.37377 0.38122 0.0407 0.0
C536 C 0.38317 0.47549 0.01062 0.0
H537 H 0.40697 0.5417 0.02549 0.0
C538 C 0.36929 0.49611 0.0213 0.0
C539 C 0.39695 0.49206 0.01262 0.0
C540 C 0.41224 0.47112 0.00426 0.0
C541 C 0.36878 0.5327 0.0346 0.0
C542 C 0.38253 0.54942 0.03561 0.0
C543 C 0.39643 0.52887 0.02447 0.0
C544 C 0.38279 0.58804 0.04941 0.0
C545 C 0.35356 0.55283 0.04944 0.0
C546 C 0.37486 0.61352 0.00811 0.0
C547 C 0.37566 0.64985 0.01983 0.0
C548 C 0.38462 0.66132 0.07244 0.0
C549 C 0.39232 0.63583 0.11444 0.0
C550 C 0.39142 0.59953 0.10299 0.0
H551 H 0.34495 0.53471 0.06511 0.0
H552 H 0.3546 0.57288 0.08944 0.0
H553 H 0.34925 0.56693 0.00358 0.0
H554 H 0.36836 0.60534 0.96574 0.0
H555 H 0.36972 0.6689 0.98626 0.0
H556 H 0.66466 0.14267 0.02052 0.0
H557 H 0.66114 0.08036 0.0373 0.0
H558 H 0.6182 0.09404 0.93215 0.0
H559 H 0.62204 0.15716 0.91262 0.0
H560 H 0.64006 0.05175 0.10583 0.0
H561 H 0.63794 1.00592 0.84221 0.0
H562 H 0.64373 0.04902 0.86448 0.0
H563 H 0.62386 0.04149 0.86363 0.0
C564 C 0.65448 0.13255 0.00038 0.0
C565 C 0.64363 0.15485 0.96499 0.0
C566 C 0.65247 0.09678 0.01019 0.0
C567 C 0.63948 0.08223 0.98566 0.0
C568 C 0.62849 0.10441 0.9504 0.0
H569 H 0.61745 0.87579 0.13875 0.0
H570 H 0.61798 0.93913 0.1154 0.0
C571 C 0.63063 0.14048 0.93961 0.0
C572 C 0.63757 0.04412 -0.00025 0.0
H573 H 0.63451 0.9633 0.92624 0.0
C574 C 0.63879 0.03245 0.06647 0.0
C575 C 0.63612 0.0188 0.94844 0.0
C576 C 0.63547 0.02925 0.8756 0.0
C577 C 0.63893 0.99632 0.08326 0.0
C578 C 0.63723 0.97104 0.03214 0.0
C579 C 0.63578 0.98268 0.96545 0.0
C580 C 0.63705 0.93241 0.04686 0.0
C581 C 0.64149 0.98557 0.15541 0.0
C582 C 0.64742 0.90727 0.01525 0.0
C583 C 0.647 0.87085 0.0279 0.0
C584 C 0.63621 0.85893 0.07242 0.0
C585 C 0.62601 0.88414 0.10471 0.0
C586 C 0.62632 0.92044 0.09155 0.0
H587 H 0.64719 1.00595 0.18383 0.0
H588 H 0.63032 0.98274 0.17954 0.0
H589 H 0.64856 0.95979 0.15948 0.0
H590 H 0.65579 0.91584 0.98051 0.0
H591 H 0.65495 0.85201 0.00201 0.0
H592 H 0.11613 0.24946 0.33691 0.0
H593 H 0.11622 0.24927 0.21507 0.0
H594 H 0.16092 0.28741 0.21456 0.0
H595 H 0.16093 0.28809 0.33718 0.0
H596 H 0.14017 0.3228 0.12299 0.0
H597 H 0.14117 0.17619 0.09818 0.0
H598 H 0.12605 0.19581 0.15015 0.0
H599 H 0.14555 0.19758 0.1757 0.0
C600 C 0.12602 0.25786 0.31121 0.0
C601 C 0.13859 0.26856 0.34714 0.0
C602 C 0.12607 0.25752 0.24137 0.0
C603 C 0.13869 0.26764 0.20576 0.0
C604 C 0.15111 0.27921 0.24117 0.0
H605 H 0.15991 0.28174 0.78237 0.0
H606 H 0.16008 0.28402 0.90427 0.0
C607 C 0.15109 0.27958 0.31126 0.0
C608 C 0.13881 0.26635 0.13157 0.0
H609 H 0.13663 0.21001 -0.00116 0.0
C610 C 0.1395 0.29814 0.09576 0.0
C611 C 0.13788 0.23412 0.09622 0.0
C612 C 0.13776 0.19891 0.13191 0.0
C613 C 0.13895 0.29869 0.02551 0.0
C614 C 0.13795 0.26648 0.99018 0.0
C615 C 0.13732 0.23468 0.02601 0.0
C616 C 0.13776 0.2651 0.91597 0.0
C617 C 0.13907 0.33388 0.98979 0.0
C618 C 0.12531 0.25277 0.88193 0.0
C619 C 0.12519 0.2512 0.81195 0.0
C620 C 0.13758 0.26173 0.77471 0.0
C621 C 0.15011 0.27364 0.8092 0.0
C622 C 0.15021 0.27519 0.87903 0.0
H623 H 0.13578 0.35664 0.02361 0.0
H624 H 0.15075 0.33684 0.97106 0.0
H625 H 0.13119 0.33529 0.94629 0.0
H626 H 0.11563 0.24461 0.90955 0.0
H627 H 0.11538 0.24181 0.78715 0.0
H628 H 0.85634 0.2408 0.32918 0.0
H629 H 0.85689 0.24097 0.20652 0.0
H630 H 0.90233 0.27506 0.21042 0.0
H631 H 0.90199 0.27471 0.33222 0.0
H632 H 0.86154 0.29954 0.12084 0.0
H633 H 0.90636 0.18791 0.08595 0.0
H634 H 0.89625 0.19572 0.16389 0.0
H635 H 0.91154 0.22203 0.14195 0.0
C636 C 0.86648 0.24814 0.30393 0.0
C637 C 0.87914 0.25761 0.3406 0.0
C638 C 0.86677 0.24826 0.23391 0.0
C639 C 0.87974 0.25752 0.19956 0.0
C640 C 0.89233 0.26716 0.23599 0.0
H641 H 0.90449 0.27983 0.78113 0.0
H642 H 0.90395 0.27957 0.90378 0.0
C643 C 0.89205 0.26712 0.30574 0.0
C644 C 0.88003 0.25825 0.12555 0.0
H645 H 0.89911 0.22214 0.98956 0.0
C646 C 0.86968 0.28248 0.09202 0.0
C647 C 0.89075 0.23612 0.0883 0.0
C648 C 0.90178 0.20873 0.12169 0.0
C649 C 0.86991 0.28561 0.02209 0.0
C650 C 0.88061 0.26344 0.9848 0.0
C651 C 0.89097 0.23921 0.01836 0.0
C652 C 0.88091 0.26419 0.91076 0.0
C653 C 0.85891 0.31311 0.98883 0.0
C654 C 0.86821 0.25522 0.87429 0.0
C655 C 0.86847 0.25538 0.80454 0.0
C656 C 0.88149 0.26428 0.76967 0.0
C657 C 0.89427 0.27299 0.80637 0.0
C658 C 0.89399 0.27281 0.87639 0.0
H659 H 0.8545 0.33413 0.02452 0.0
H660 H 0.86439 0.32587 0.94619 0.0
H661 H 0.84903 0.29999 0.96928 0.0
H662 H 0.85813 0.24774 0.89983 0.0
H663 H 0.85844 0.24832 0.77807 0.0
H664 H 0.11702 0.73666 0.20025 0.0
H665 H 0.11717 0.73788 0.07765 0.0
H666 H 0.163 0.76962 0.07982 0.0
H667 H 0.16305 0.76822 0.20177 0.0
H668 H 0.1218 0.79767 0.99573 0.0
H669 H 0.16564 0.68535 0.94861 0.0
H670 H 0.15604 0.6919 0.02807 0.0
H671 H 0.1714 0.71805 0.00635 0.0
C672 C 0.12719 0.74353 0.17463 0.0
C673 C 0.14004 0.75225 0.21088 0.0
C674 C 0.12724 0.74429 0.10463 0.0
C675 C 0.14016 0.75342 0.06974 0.0
C676 C 0.15302 0.76187 0.10574 0.0
H677 H 0.16343 0.78169 0.65182 0.0
H678 H 0.1631 0.77994 0.77428 0.0
C679 C 0.15297 0.76123 0.17556 0.0
C680 C 0.14004 0.75567 0.99575 0.0
H681 H 0.15804 0.72177 0.85544 0.0
C682 C 0.12964 0.78093 0.96494 0.0
C683 C 0.15036 0.73396 0.95589 0.0
C684 C 0.16142 0.70555 0.98622 0.0
C685 C 0.12948 0.78553 0.89524 0.0
C686 C 0.13981 0.7638 0.85534 0.0
C687 C 0.15019 0.7385 0.88619 0.0
C688 C 0.1398 0.76628 0.78133 0.0
C689 C 0.1185 0.81414 0.86509 0.0
C690 C 0.12684 0.75905 0.74479 0.0
C691 C 0.12697 0.76012 0.67498 0.0
C692 C 0.14012 0.76819 0.64017 0.0
C693 C 0.15309 0.77553 0.67697 0.0
C694 C 0.15294 0.77447 0.74694 0.0
H695 H 0.11448 0.83454 0.90269 0.0
H696 H 0.12384 0.82754 0.82283 0.0
H697 H 0.10838 0.80191 0.84569 0.0
H698 H 0.11669 0.75194 0.77024 0.0
H699 H 0.1168 0.75407 0.64839 0.0
H700 H 0.90338 0.77458 0.65831 0.0
H701 H 0.90356 0.7754 0.78018 0.0
H702 H 0.85811 0.74125 0.78317 0.0
H703 H 0.8579 0.7397 0.66068 0.0
H704 H 0.88446 0.81531 0.86502 0.0
H705 H 0.88096 0.67118 0.91069 0.0
H706 H 0.88544 0.68858 0.82966 0.0
H707 H 0.86602 0.69142 0.85845 0.0
C708 C 0.89342 0.76702 0.68468 0.0
C709 C 0.88063 0.75694 0.64965 0.0
C710 C 0.89356 0.76755 0.75444 0.0
C711 C 0.88094 0.75797 0.79075 0.0
C712 C 0.8681 0.74803 0.75611 0.0
H713 H 0.859 0.75389 0.21154 0.0
H714 H 0.85888 0.75318 0.08964 0.0
C715 C 0.86797 0.74733 0.68611 0.0
C716 C 0.88114 0.75946 0.86482 0.0
H717 H 0.87864 0.70908 0.00554 0.0
C718 C 0.88325 0.79206 0.89579 0.0
C719 C 0.87959 0.72907 0.90476 0.0
C720 C 0.87802 0.69299 0.87434 0.0
C721 C 0.88361 0.79522 0.9657 0.0
C722 C 0.88198 0.76488 0.00555 0.0
C723 C 0.87987 0.73229 0.97468 0.0
C724 C 0.88215 0.76646 0.07952 0.0
C725 C 0.8854 0.83112 -0.00357 0.0
C726 C 0.89533 0.7741 0.11426 0.0
C727 C 0.89547 0.77455 0.18426 0.0
C728 C 0.88243 0.76724 0.22061 0.0
C729 C 0.86925 0.75974 0.18536 0.0
C730 C 0.86914 0.75924 0.11558 0.0
H731 H 0.88314 0.85303 0.95967 0.0
H732 H 0.87756 0.83608 0.0396 0.0
H733 H 0.89725 0.83173 0.01496 0.0
H734 H 0.90557 0.77922 0.08723 0.0
H735 H 0.90583 0.78024 0.20977 0.0
H736 H 0.66402 0.75908 0.28464 0.0
H737 H 0.66412 0.76021 0.40657 0.0
H738 H 0.61695 0.73786 0.40906 0.0
H739 H 0.61673 0.73634 0.2866 0.0
H740 H 0.6454 0.80603 0.48902 0.0
H741 H 0.63759 0.66406 0.53956 0.0
H742 H 0.64336 0.67956 0.4588 0.0
H743 H 0.62373 0.6862 0.48417 0.0
C744 C 0.65367 0.75408 0.31089 0.0
C745 C 0.64036 0.74753 0.2757 0.0
C746 C 0.65376 0.75481 0.38067 0.0
C747 C 0.6406 0.7488 0.41678 0.0
C748 C 0.62731 0.74198 0.38206 0.0
H749 H 0.61813 0.74805 0.83747 0.0
H750 H 0.61808 0.74666 0.71556 0.0
C751 C 0.62719 0.74125 0.31208 0.0
C752 C 0.6407 0.75104 0.49072 0.0
H753 H 0.63655 0.70283 0.63289 0.0
C754 C 0.64352 0.78346 0.52058 0.0
C755 C 0.63822 0.72154 0.53156 0.0
C756 C 0.63568 0.68575 0.50211 0.0
C757 C 0.64369 0.78737 0.59038 0.0
C758 C 0.64125 0.75785 0.63127 0.0
C759 C 0.63843 0.72542 0.60136 0.0
C760 C 0.64133 0.76007 0.70525 0.0
C761 C 0.64612 0.82327 0.61968 0.0
C762 C 0.65446 0.76806 0.73999 0.0
C763 C 0.65454 0.76905 0.80996 0.0
C764 C 0.64151 0.76173 0.84633 0.0
C765 C 0.62838 0.75382 0.81118 0.0
C766 C 0.62831 0.75296 0.74141 0.0
H767 H 0.64389 0.84495 0.5824 0.0
H768 H 0.63861 0.8292 0.66365 0.0
H769 H 0.65813 0.82326 0.63645 0.0
H770 H 0.66474 0.77295 0.71304 0.0
H771 H 0.66487 0.77496 0.83546 0.0
H772 H 0.40418 0.77278 0.83302 0.0
H773 H 0.40415 0.77451 0.71108 0.0
H774 H 0.35771 0.7467 0.70864 0.0
H775 H 0.35754 0.74518 0.83112 0.0
H776 H 0.39864 0.71983 0.61959 0.0
H777 H 0.35651 0.83782 0.59346 0.0
H778 H 0.36605 0.82619 0.67142 0.0
H779 H 0.35041 0.80236 0.644 0.0
C780 C 0.39393 0.76702 0.80678 0.0
C781 C 0.38082 0.75901 0.84196 0.0
C782 C 0.39396 0.768 0.73701 0.0
C783 C 0.38087 0.76123 0.701 0.0
C784 C 0.36784 0.75262 0.73568 0.0
H785 H 0.35898 0.7574 0.27997 0.0
H786 H 0.35897 0.75549 0.40187 0.0
C787 C 0.3678 0.75157 0.80563 0.0
C788 C 0.38099 0.76296 0.62706 0.0
H789 H 0.36469 0.80824 0.4937 0.0
C790 C 0.39125 0.73919 0.59196 0.0
C791 C 0.37135 0.78831 0.5914 0.0
C792 C 0.36053 0.81537 0.62682 0.0
C793 C 0.39195 0.73967 0.52184 0.0
C794 C 0.38233 0.76509 0.48615 0.0
C795 C 0.37207 0.78885 0.52129 0.0
C796 C 0.38248 0.76694 0.41217 0.0
C797 C 0.40272 0.71247 0.48654 0.0
C798 C 0.39567 0.77462 0.37755 0.0
C799 C 0.39575 0.7757 0.3076 0.0
C800 C 0.3826 0.7693 0.27117 0.0
C801 C 0.36933 0.76235 0.30628 0.0
C802 C 0.36928 0.76126 0.37604 0.0
H803 H 0.40647 0.68972 0.51969 0.0
H804 H 0.3973 0.7021 0.44128 0.0
H805 H 0.41302 0.72516 0.47054 0.0
H806 H 0.40589 0.7798 0.40463 0.0
H807 H 0.40613 0.7813 0.2822 0.0
H808 H 0.6162 0.24819 0.15204 0.0
H809 H 0.61604 0.24655 0.27385 0.0
H810 H 0.66212 0.2767 0.27782 0.0
H811 H 0.66252 0.27791 0.15531 0.0
H812 H 0.65762 0.2191 0.36019 0.0
H813 H 0.61284 0.32957 0.40463 0.0
H814 H 0.60708 0.29616 0.34852 0.0
H815 H 0.62224 0.32254 0.32487 0.0
C816 C 0.62629 0.2548 0.17858 0.0
C817 C 0.63937 0.26333 0.14373 0.0
C818 C 0.62613 0.25403 0.24838 0.0
C819 C 0.63897 0.26206 0.28492 0.0
C820 C 0.65205 0.27064 0.25049 0.0
H821 H 0.66153 0.26752 0.70573 0.0
H822 H 0.66153 0.26887 0.5838 0.0
C823 C 0.65224 0.27137 0.18049 0.0
C824 C 0.63893 0.25999 0.35897 0.0
H825 H 0.62032 0.29331 0.49841 0.0
C826 C 0.64954 0.23547 0.39048 0.0
C827 C 0.6283 0.28125 0.3983 0.0
C828 C 0.61706 0.3091 0.36749 0.0
C829 C 0.64966 0.23126 0.46025 0.0
C830 C 0.63902 0.25246 0.4995 0.0
C831 C 0.6284 0.27694 0.46806 0.0
C832 C 0.63907 0.25053 0.5735 0.0
C833 C 0.661 0.20372 0.49132 0.0
C834 C 0.62632 0.24025 0.60824 0.0
C835 C 0.62625 0.23949 0.67826 0.0
C836 C 0.63888 0.24938 0.71462 0.0
C837 C 0.65162 0.25962 0.67943 0.0
C838 C 0.65169 0.26025 0.60963 0.0
H839 H 0.66559 0.18368 0.45409 0.0
H840 H 0.67072 0.21707 0.51182 0.0
H841 H 0.65573 0.18974 0.53304 0.0
H842 H 0.61643 0.23285 0.58114 0.0
H843 H 0.61623 0.23164 0.70379 0.0
H844 H 0.40246 0.27507 0.16086 0.0
H845 H 0.40266 0.2752 0.28273 0.0
H846 H 0.3565 0.24546 0.28507 0.0
H847 H 0.35622 0.2448 0.16254 0.0
H848 H 0.38342 0.31662 0.36847 0.0
H849 H 0.37912 0.17235 0.41031 0.0
H850 H 0.38407 0.19012 0.33018 0.0
H851 H 0.36455 0.19374 0.35746 0.0
C852 C 0.39234 0.26835 0.18704 0.0
C853 C 0.37932 0.2598 0.1518 0.0
C854 C 0.39249 0.2685 0.2568 0.0
C855 C 0.37968 0.25995 0.29287 0.0
C856 C 0.36662 0.2515 0.25809 0.0
H857 H 0.35857 0.25228 0.71435 0.0
H858 H 0.35829 0.25156 0.59244 0.0
C859 C 0.36645 0.25131 0.18809 0.0
C860 C 0.37994 0.26089 0.3669 0.0
H861 H 0.37753 0.20939 0.50617 0.0
C862 C 0.38218 0.29318 0.39866 0.0
C863 C 0.37833 0.23023 0.40597 0.0
C864 C 0.37651 0.19454 0.37442 0.0
C865 C 0.38263 0.29577 0.46863 0.0
C866 C 0.38104 0.26511 0.5077 0.0
C867 C 0.37877 0.23283 0.47596 0.0
C868 C 0.38137 0.26608 0.58171 0.0
C869 C 0.38448 0.33145 0.50019 0.0
C870 C 0.39452 0.27425 0.61613 0.0
C871 C 0.39474 0.27474 0.68611 0.0
C872 C 0.38182 0.26688 0.72277 0.0
C873 C 0.36872 0.25854 0.68788 0.0
C874 C 0.36852 0.25805 0.61811 0.0
H875 H 0.38192 0.35365 0.46428 0.0
H876 H 0.3769 0.33591 0.54435 0.0
H877 H 0.39643 0.33216 0.51731 0.0
H878 H 0.40465 0.27992 0.58887 0.0
H879 H 0.40503 0.28109 0.71137 0.0
H880 H 0.07508 0.21026 0.45988 0.0
H881 H 0.04715 0.21236 0.44901 0.0
H882 H 0.04198 0.26413 0.64082 0.0
H883 H 0.06969 0.26191 0.6523 0.0
H884 H 0.02352 0.18811 0.55856 0.0
H885 H 0.01911 0.33114 0.48656 0.0
H886 H 0.03623 0.30186 0.47286 0.0
H887 H 0.03144 0.3175 0.55556 0.0
C888 C 0.06796 0.22151 0.50012 0.0
C889 C 0.07453 0.23598 0.55684 0.0
C890 C 0.05205 0.22279 0.49377 0.0
C891 C 0.04258 0.23876 0.54384 0.0
C892 C 0.04913 0.25196 0.6015 0.0
H893 H 0.94695 0.30371 0.60475 0.0
H894 H 0.97493 0.29689 0.6039 0.0
C895 C 0.06496 0.25054 0.60801 0.0
C896 C 0.02581 0.24298 0.53551 0.0
H897 H 0.99604 0.30552 0.50671 0.0
C898 C 0.01747 0.21363 0.54657 0.0
C899 C 0.01803 0.27644 0.52062 0.0
C900 C 0.02659 0.30863 0.50778 0.0
C901 C 1.00144 0.21705 0.54477 0.0
C902 C 0.9936 0.2506 0.52981 0.0
C903 C 1.00203 0.27985 0.51803 0.0
C904 C 0.97668 0.25604 0.52755 0.0
C905 C 0.99306 0.18501 0.5614 0.0
C906 C 0.96836 0.23617 0.48354 0.0
C907 C 0.95242 0.23989 0.4843 0.0
C908 C 0.94449 0.26393 0.52837 0.0
C909 C 0.95278 0.28499 0.57029 0.0
C910 C 0.96876 0.28105 0.56989 0.0
H911 H 1.00041 0.16461 0.58937 0.0
H912 H 0.98271 0.19265 0.59169 0.0
H913 H 0.98946 0.17264 0.51432 0.0
H914 H 0.9742 0.21746 0.4491 0.0
H915 H 0.94631 0.2235 0.45108 0.0
H916 H 0.94702 0.81501 0.40178 0.0
H917 H 0.97501 0.81211 0.40381 0.0
H918 H 0.97643 0.71796 0.52665 0.0
H919 H 0.94857 0.72045 0.52401 0.0
H920 H 0.99568 0.81243 0.51102 0.0
H921 H 1.00394 0.68558 0.3695 0.0
H922 H 0.98574 0.7116 0.37426 0.0
H923 H 0.99235 0.68366 0.44306 0.0
C924 C 0.95333 0.79386 0.4295 0.0
C925 C 0.94565 0.76784 0.46239 0.0
C926 C 0.9693 0.79218 0.43057 0.0
C927 C 0.97783 0.76439 0.46427 0.0
C928 C 0.97012 0.73914 0.49904 0.0
H929 H 0.07656 0.70893 0.50301 0.0
H930 H 0.04866 0.71029 0.51465 0.0
C931 C 0.95419 0.74076 0.49788 0.0
C932 C 0.99478 0.76168 0.46285 0.0
H933 H 0.02614 0.70811 0.4132 0.0
C934 C 1.00234 0.78965 0.48956 0.0
C935 C 1.00347 0.73183 0.43512 0.0
C936 C 0.99599 0.70157 0.4033 0.0
C937 C 0.01834 0.78853 0.48962 0.0
C938 C 0.02702 0.7589 0.46116 0.0
C939 C 0.01948 0.73071 0.43525 0.0
C940 C 0.04388 0.75765 0.45445 0.0
C941 C 0.02583 0.81895 0.52078 0.0
C942 C 0.05039 0.78332 0.41576 0.0
C943 C 0.0662 0.78253 0.40904 0.0
C944 C 0.07586 0.75592 0.44052 0.0
C945 C 0.06937 0.72977 0.47837 0.0
C946 C 0.05347 0.73056 0.48504 0.0
H947 H 0.01811 0.83403 0.55676 0.0
H948 H 0.0365 0.80928 0.54718 0.0
H949 H 0.02875 0.83761 0.48087 0.0
H950 H 0.04323 0.80397 0.39044 0.0
H951 H 0.07086 0.80293 0.3792 0.0
H952 H 0.57659 0.6954 0.0277 0.0
H953 H 0.54867 0.69624 0.0196 0.0
H954 H 0.54458 0.81018 0.04516 0.0
H955 H 0.57226 0.80956 0.05107 0.0
H956 H 0.5268 0.71744 0.1093 0.0
H957 H 0.51834 0.8015 0.8833 0.0
H958 H 0.53692 0.7822 0.90898 0.0
H959 H 0.52861 0.82263 0.94713 0.0
C960 C 0.56969 0.72058 0.03091 0.0
C961 C 0.57657 0.75243 0.03938 0.0
C962 C 0.55376 0.72107 0.02637 0.0
C963 C 0.5445 0.75339 0.03026 0.0
C964 C 0.55144 0.78506 0.03985 0.0
H965 H 0.44754 0.81812 0.06561 0.0
H966 H 0.47557 0.81496 0.06239 0.0
C967 C 0.56728 0.78462 0.04373 0.0
C968 C 0.52758 0.75414 0.02717 0.0
H969 H 0.49605 0.79422 0.94869 0.0
C970 C 0.52009 0.73393 0.0737 0.0
C971 C 0.51879 0.77572 0.98074 0.0
C972 C 0.52609 0.79644 0.9268 0.0
C973 C 0.50409 0.73546 0.07625 0.0
C974 C 0.49535 0.7576 0.03081 0.0
C975 C 0.50279 0.77752 0.98385 0.0
C976 C 0.47843 0.75995 0.03073 0.0
C977 C 0.49663 0.71399 0.12854 0.0
C978 C 0.4708 0.73034 0.01268 0.0
C979 C 0.45488 0.73215 0.01413 0.0
C980 C 0.44628 0.76363 0.03365 0.0
C981 C 0.4539 0.79353 0.05043 0.0
C982 C 0.46987 0.79175 0.04865 0.0
H983 H 0.50477 0.70427 0.16834 0.0
H984 H 0.48686 0.73003 0.15202 0.0
H985 H 0.49218 0.69054 0.10441 0.0
H986 H 0.47718 0.70573 -0.00226 0.0
H987 H 0.44931 0.7087 0.00075 0.0
H988 H 0.44737 0.2176 0.02403 0.0
H989 H 0.47523 0.21457 0.02952 0.0
H990 H 0.47468 0.30993 0.91031 0.0
H991 H 0.44675 0.31344 0.9058 0.0
H992 H 0.49532 0.20716 0.92571 0.0
H993 H 0.50276 0.33207 0.06262 0.0
H994 H 0.48468 0.31311 0.05831 0.0
H995 H 0.49103 0.33873 0.98951 0.0
C996 C 0.45319 0.23818 -0.00028 0.0
C997 C 0.44492 0.26586 0.96473 0.0
C998 C 0.4691 0.23636 0.00277 0.0
C999 C 0.47706 0.26224 0.97107 0.0
C1000 C 0.46879 0.2901 0.93644 0.0
H1001 H 0.56981 0.29511 0.87962 0.0
H1002 H 0.5422 0.29567 0.89124 0.0
C1003 C 0.45284 0.292 0.9336 0.0
C1004 C 0.49401 0.25901 0.97143 0.0
H1005 H 0.52496 0.30344 0.0105 0.0
C1006 C 0.50182 0.22804 0.94489 0.0
C1007 C 0.50248 0.28622 -0.00335 0.0
C1008 C 0.49483 0.31926 0.02899 0.0
C1009 C 0.51782 0.22411 0.94074 0.0
C1010 C 0.52624 0.25168 0.96454 0.0
C1011 C 0.51847 0.28234 0.99223 0.0
C1012 C 0.54308 0.25028 0.95759 0.0
C1013 C 0.52556 0.19107 0.90875 0.0
C1014 C 0.55279 0.22452 0.99119 0.0
C1015 C 0.56867 0.2241 0.98455 0.0
C1016 C 0.57502 0.24951 0.94437 0.0
C1017 C 0.56525 0.27513 0.91085 0.0
C1018 C 0.54946 0.27557 0.91755 0.0
H1019 H 0.51736 0.17567 0.88134 0.0
H1020 H 0.53456 0.19803 0.87342 0.0
H1021 H 0.53108 0.17367 0.94816 0.0
H1022 H 0.54809 0.20506 0.02313 0.0
H1023 H 0.57596 0.2042 0.01119 0.0
loop_
_geom_bond_atom_site_label_1
_geom_bond_atom_site_label_2
_geom_bond_distance
_geom_bond_site_symmetry_2
_ccdc_geom_bond_type
Dy0 O4 2.398 . S
Dy0 O5 2.491 . S
Dy0 O6 2.403 . S
Dy0 O7 2.664 . S
Dy0 O11 2.326 . S
Dy0 O15 2.310 . S
Dy0 O16 2.351 . S
C1 O12 1.185 . S
C1 O13 1.355 . S
C2 O4 1.185 . S
C2 O5 1.355 . S
Dy3 O7 2.310 . S
Dy3 O10 2.351 . S
Dy3 O12 2.398 . S
Dy3 O13 2.491 . S
Dy3 O14 2.403 . S
Dy3 O15 2.664 . S
Dy3 O17 2.326 . S
O4 Dy0 2.398 . S
O4 C2 1.185 . S
O5 Dy0 2.491 . S
O5 C2 1.355 . S
O6 Dy0 2.403 . S
O6 C8 1.254 . S
O7 Dy0 2.664 . S
O7 Dy3 2.310 . S
O7 C8 1.268 . S
C8 O6 1.254 . S
C8 O7 1.268 . S
C9 O14 1.254 . S
C9 O15 1.268 . S
O10 Dy3 2.351 . S
O10 C18 1.249 . S
O11 Dy0 2.326 . S
O11 C18 1.267 . S
O12 C1 1.185 . S
O12 Dy3 2.398 . S
O13 C1 1.355 . S
O13 Dy3 2.491 . S
O14 Dy3 2.403 . S
O14 C9 1.254 . S
O15 Dy0 2.310 . S
O15 Dy3 2.664 . S
O15 C9 1.268 . S
O16 Dy0 2.351 . S
O16 C19 1.249 . S
O17 Dy3 2.326 . S
O17 C19 1.267 . S
C18 O10 1.249 . S
C18 O11 1.267 . S
C19 O16 1.249 . S
C19 O17 1.267 . S
Dy20 O24 2.398 . S
Dy20 O25 2.491 . S
Dy20 O26 2.403 . S
Dy20 O27 2.664 . S
Dy20 O31 2.326 . S
Dy20 O35 2.310 . S
Dy20 O36 2.351 . S
C21 O32 1.185 . S
C21 O33 1.355 . S
C22 O24 1.185 . S
C22 O25 1.355 . S
Dy23 O27 2.310 . S
Dy23 O30 2.351 . S
Dy23 O32 2.398 . S
Dy23 O33 2.491 . S
Dy23 O34 2.403 . S
Dy23 O35 2.664 . S
Dy23 O37 2.326 . S
O24 Dy20 2.398 . S
O24 C22 1.185 . S
O25 Dy20 2.491 . S
O25 C22 1.355 . S
O26 Dy20 2.403 . S
O26 C28 1.254 . S
O27 Dy20 2.664 . S
O27 Dy23 2.310 . S
O27 C28 1.268 . S
C28 O26 1.254 . S
C28 O27 1.268 . S
C29 O34 1.254 . S
C29 O35 1.268 . S
O30 Dy23 2.351 . S
O30 C38 1.249 . S
O31 Dy20 2.326 . S
O31 C38 1.267 . S
O32 C21 1.185 . S
O32 Dy23 2.398 . S
O33 C21 1.355 . S
O33 Dy23 2.491 . S
O34 Dy23 2.403 . S
O34 C29 1.254 . S
O35 Dy20 2.310 . S
O35 Dy23 2.664 . S
O35 C29 1.268 . S
O36 Dy20 2.351 . S
O36 C39 1.249 . S
O37 Dy23 2.326 . S
O37 C39 1.267 . S
C38 O30 1.249 . S
C38 O31 1.267 . S
C39 O36 1.249 . S
C39 O37 1.267 . S
Dy40 O44 2.398 . S
Dy40 O45 2.491 . S
Dy40 O46 2.403 . S
Dy40 O47 2.664 . S
Dy40 O51 2.326 . S
Dy40 O55 2.310 . S
Dy40 O56 2.351 . S
C41 O52 1.185 . S
C41 O53 1.355 . S
C42 O44 1.185 . S
C42 O45 1.355 . S
Dy43 O47 2.310 . S
Dy43 O50 2.351 . S
Dy43 O52 2.398 . S
Dy43 O53 2.491 . S
Dy43 O54 2.403 . S
Dy43 O55 2.664 . S
Dy43 O57 2.326 . S
O44 Dy40 2.398 . S
O44 C42 1.185 . S
O45 Dy40 2.491 . S
O45 C42 1.355 . S
O46 Dy40 2.403 . S
O46 C48 1.254 . S
O47 Dy40 2.664 . S
O47 Dy43 2.310 . S
O47 C48 1.268 . S
C48 O46 1.254 . S
C48 O47 1.268 . S
C49 O54 1.254 . S
C49 O55 1.268 . S
O50 Dy43 2.351 . S
O50 C58 1.249 . S
O51 Dy40 2.326 . S
O51 C58 1.267 . S
O52 C41 1.185 . S
O52 Dy43 2.398 . S
O53 C41 1.355 . S
O53 Dy43 2.491 . S
O54 Dy43 2.403 . S
O54 C49 1.254 . S
O55 Dy40 2.310 . S
O55 Dy43 2.664 . S
O55 C49 1.268 . S
O56 Dy40 2.351 . S
O56 C59 1.249 . S
O57 Dy43 2.326 . S
O57 C59 1.267 . S
C58 O50 1.249 . S
C58 O51 1.267 . S
C59 O56 1.249 . S
C59 O57 1.267 . S
Dy60 O64 2.398 . S
Dy60 O65 2.491 . S
Dy60 O66 2.403 . S
Dy60 O67 2.664 . S
Dy60 O71 2.326 . S
Dy60 O75 2.310 . S
Dy60 O76 2.351 . S
C61 O72 1.185 . S
C61 O73 1.355 . S
C62 O64 1.185 . S
C62 O65 1.355 . S
Dy63 O67 2.310 . S
Dy63 O70 2.351 . S
Dy63 O72 2.398 . S
Dy63 O73 2.491 . S
Dy63 O74 2.403 . S
Dy63 O75 2.664 . S
Dy63 O77 2.326 . S
O64 Dy60 2.398 . S
O64 C62 1.185 . S
O65 Dy60 2.491 . S
O65 C62 1.355 . S
O66 Dy60 2.403 . S
O66 C68 1.254 . S
O67 Dy60 2.664 . S
O67 Dy63 2.310 . S
O67 C68 1.268 . S
C68 O66 1.254 . S
C68 O67 1.268 . S
C69 O74 1.254 . S
C69 O75 1.268 . S
O70 Dy63 2.351 . S
O70 C78 1.249 . S
O71 Dy60 2.326 . S
O71 C78 1.267 . S
O72 C61 1.185 . S
O72 Dy63 2.398 . S
O73 C61 1.355 . S
O73 Dy63 2.491 . S
O74 Dy63 2.403 . S
O74 C69 1.254 . S
O75 Dy60 2.310 . S
O75 Dy63 2.664 . S
O75 C69 1.268 . S
O76 Dy60 2.351 . S
O76 C79 1.249 . S
O77 Dy63 2.326 . S
O77 C79 1.267 . S
C78 O70 1.249 . S
C78 O71 1.267 . S
C79 O76 1.249 . S
C79 O77 1.267 . S
Dy80 O84 2.398 1_556 S
Dy80 O85 2.491 1_556 S
Dy80 O86 2.403 . S
Dy80 O87 2.664 . S
Dy80 O91 2.326 1_556 S
Dy80 O95 2.310 1_556 S
Dy80 O96 2.351 . S
C81 O92 1.185 . S
C81 O93 1.355 . S
C82 O84 1.185 . S
C82 O85 1.355 . S
Dy83 O87 2.310 1_554 S
Dy83 O90 2.351 . S
Dy83 O92 2.398 1_554 S
Dy83 O93 2.491 1_554 S
Dy83 O94 2.403 . S
Dy83 O95 2.664 . S
Dy83 O97 2.326 1_554 S
O84 Dy80 2.398 1_554 S
O84 C82 1.185 . S
O85 Dy80 2.491 1_554 S
O85 C82 1.355 . S
O86 Dy80 2.403 . S
O86 C88 1.254 . S
O87 Dy80 2.664 . S
O87 Dy83 2.310 1_556 S
O87 C88 1.268 . S
C88 O86 1.254 . S
C88 O87 1.268 . S
C89 O94 1.254 . S
C89 O95 1.268 . S
O90 Dy83 2.351 . S
O90 C98 1.249 . S
O91 Dy80 2.326 1_554 S
O91 C98 1.267 . S
O92 C81 1.185 . S
O92 Dy83 2.398 1_556 S
O93 C81 1.355 . S
O93 Dy83 2.491 1_556 S
O94 Dy83 2.403 . S
O94 C89 1.254 . S
O95 Dy80 2.310 1_554 S
O95 Dy83 2.664 . S
O95 C89 1.268 . S
O96 Dy80 2.351 . S
O96 C99 1.249 . S
O97 Dy83 2.326 1_556 S
O97 C99 1.267 . S
C98 O90 1.249 . S
C98 O91 1.267 . S
C99 O96 1.249 . S
C99 O97 1.267 . S
Dy100 O104 2.398 1_556 S
Dy100 O105 2.491 1_556 S
Dy100 O106 2.403 . S
Dy100 O107 2.664 . S
Dy100 O111 2.326 1_556 S
Dy100 O115 2.310 1_556 S
Dy100 O116 2.351 . S
C101 O112 1.185 . S
C101 O113 1.355 . S
C102 O104 1.185 . S
C102 O105 1.355 . S
Dy103 O107 2.310 1_554 S
Dy103 O110 2.351 . S
Dy103 O112 2.398 1_554 S
Dy103 O113 2.491 1_554 S
Dy103 O114 2.403 . S
Dy103 O115 2.664 . S
Dy103 O117 2.326 1_554 S
O104 Dy100 2.398 1_554 S
O104 C102 1.185 . S
O105 Dy100 2.491 1_554 S
O105 C102 1.355 . S
O106 Dy100 2.403 . S
O106 C108 1.254 . S
O107 Dy100 2.664 . S
O107 Dy103 2.310 1_556 S
O107 C108 1.268 . S
C108 O106 1.254 . S
C108 O107 1.268 . S
C109 O114 1.254 . S
C109 O115 1.268 . S
O110 Dy103 2.351 . S
O110 C118 1.249 . S
O111 Dy100 2.326 1_554 S
O111 C118 1.267 . S
O112 C101 1.185 . S
O112 Dy103 2.398 1_556 S
O113 C101 1.355 . S
O113 Dy103 2.491 1_556 S
O114 Dy103 2.403 . S
O114 C109 1.254 . S
O115 Dy100 2.310 1_554 S
O115 Dy103 2.664 . S
O115 C109 1.268 . S
O116 Dy100 2.351 . S
O116 C119 1.249 . S
O117 Dy103 2.326 1_556 S
O117 C119 1.267 . S
C118 O110 1.249 . S
C118 O111 1.267 . S
C119 O116 1.249 . S
C119 O117 1.267 . S
Dy120 O124 2.398 1_556 S
Dy120 O125 2.491 1_556 S
Dy120 O126 2.403 . S
Dy120 O127 2.664 . S
Dy120 O131 2.326 1_556 S
Dy120 O135 2.310 1_556 S
Dy120 O136 2.351 . S
C121 O132 1.185 . S
C121 O133 1.355 . S
C122 O124 1.185 . S
C122 O125 1.355 . S
Dy123 O127 2.310 1_554 S
Dy123 O130 2.351 . S
Dy123 O132 2.398 1_554 S
Dy123 O133 2.491 1_554 S
Dy123 O134 2.403 . S
Dy123 O135 2.664 . S
Dy123 O137 2.326 1_554 S
O124 Dy120 2.398 1_554 S
O124 C122 1.185 . S
O125 Dy120 2.491 1_554 S
O125 C122 1.355 . S
O126 Dy120 2.403 . S
O126 C128 1.254 . S
O127 Dy120 2.664 . S
O127 Dy123 2.310 1_556 S
O127 C128 1.268 . S
C128 O126 1.254 . S
C128 O127 1.268 . S
C129 O134 1.254 . S
C129 O135 1.268 . S
O130 Dy123 2.351 . S
O130 C138 1.249 . S
O131 Dy120 2.326 1_554 S
O131 C138 1.267 . S
O132 C121 1.185 . S
O132 Dy123 2.398 1_556 S
O133 C121 1.355 . S
O133 Dy123 2.491 1_556 S
O134 Dy123 2.403 . S
O134 C129 1.254 . S
O135 Dy120 2.310 1_554 S
O135 Dy123 2.664 . S
O135 C129 1.268 . S
O136 Dy120 2.351 . S
O136 C139 1.249 . S
O137 Dy123 2.326 1_556 S
O137 C139 1.267 . S
C138 O130 1.249 . S
C138 O131 1.267 . S
C139 O136 1.249 . S
C139 O137 1.267 . S
Dy140 O144 2.398 1_556 S
Dy140 O145 2.491 1_556 S
Dy140 O146 2.403 . S
Dy140 O147 2.664 . S
Dy140 O151 2.326 1_556 S
Dy140 O155 2.310 1_556 S
Dy140 O156 2.351 . S
C141 O152 1.185 . S
C141 O153 1.355 . S
C142 O144 1.185 . S
C142 O145 1.355 . S
Dy143 O147 2.310 1_554 S
Dy143 O150 2.351 . S
Dy143 O152 2.398 1_554 S
Dy143 O153 2.491 1_554 S
Dy143 O154 2.403 . S
Dy143 O155 2.664 . S
Dy143 O157 2.326 1_554 S
O144 Dy140 2.398 1_554 S
O144 C142 1.185 . S
O145 Dy140 2.491 1_554 S
O145 C142 1.355 . S
O146 Dy140 2.403 . S
O146 C148 1.254 . S
O147 Dy140 2.664 . S
O147 Dy143 2.310 1_556 S
O147 C148 1.268 . S
C148 O146 1.254 . S
C148 O147 1.268 . S
C149 O154 1.254 . S
C149 O155 1.268 . S
O150 Dy143 2.351 . S
O150 C158 1.249 . S
O151 Dy140 2.326 1_554 S
O151 C158 1.267 . S
O152 C141 1.185 . S
O152 Dy143 2.398 1_556 S
O153 C141 1.355 . S
O153 Dy143 2.491 1_556 S
O154 Dy143 2.403 . S
O154 C149 1.254 . S
O155 Dy140 2.310 1_554 S
O155 Dy143 2.664 . S
O155 C149 1.268 . S
O156 Dy140 2.351 . S
O156 C159 1.249 . S
O157 Dy143 2.326 1_556 S
O157 C159 1.267 . S
C158 O150 1.249 . S
C158 O151 1.267 . S
C159 O156 1.249 . S
C159 O157 1.267 . S
H160 C168 0.929 . S
H161 C170 0.930 . S
H162 C172 0.930 . S
H163 C175 0.929 . S
H164 C178 0.930 . S
H165 C180 0.960 . S
H166 C180 0.960 . S
H167 C180 0.960 . S
C168 H160 0.929 . S
C168 C169 1.377 . S
C168 C170 1.384 . S
C169 C168 1.377 . S
C169 C175 1.390 . S
C170 H161 0.930 . S
C170 C168 1.384 . S
C170 C171 1.372 . S
C171 C170 1.372 . S
C171 C172 1.400 . S
C171 C176 1.490 . S
C172 H162 0.930 . S
C172 C171 1.400 . S
C172 C175 1.386 . S
H173 C189 0.930 . S
H174 C190 0.931 . S
C175 H163 0.929 . S
C175 C169 1.390 . S
C175 C172 1.386 . S
C176 C171 1.490 . S
C176 C178 1.395 . S
C176 C179 1.403 . S
H177 C183 0.930 . S
C178 H164 0.930 . S
C178 C176 1.395 . S
C178 C181 1.403 . S
C179 C176 1.403 . S
C179 C180 1.524 . S
C179 C183 1.400 . S
C180 H165 0.960 . S
C180 H166 0.960 . S
C180 H167 0.960 . S
C180 C179 1.524 . S
C181 C178 1.403 . S
C181 C182 1.392 . S
C181 C185 1.495 . S
C182 C181 1.392 . S
C182 C183 1.385 . S
C182 C184 1.478 . S
C183 H177 0.930 . S
C183 C179 1.400 . S
C183 C182 1.385 . S
C184 C182 1.478 . S
C184 C186 1.381 . S
C184 C190 1.383 . S
C185 C181 1.495 . S
C185 H191 0.959 . S
C185 H192 0.961 . S
C185 H193 0.960 . S
C186 C184 1.381 . S
C186 C187 1.394 . S
C186 H194 0.930 . S
C187 C186 1.394 . S
C187 C188 1.383 . S
C187 H195 0.929 . S
C188 C187 1.383 . S
C188 C189 1.377 . S
C189 H173 0.930 . S
C189 C188 1.377 . S
C189 C190 1.379 . S
C190 H174 0.931 . S
C190 C184 1.383 . S
C190 C189 1.379 . S
H191 C185 0.959 . S
H192 C185 0.961 . S
H193 C185 0.960 . S
H194 C186 0.930 . S
H195 C187 0.929 . S
H196 C204 0.929 . S
H197 C206 0.930 . S
H198 C208 0.930 . S
H199 C211 0.929 . S
H200 C214 0.930 . S
H201 C216 0.960 . S
H202 C216 0.960 . S
H203 C216 0.960 . S
C204 H196 0.929 . S
C204 C205 1.377 . S
C204 C206 1.384 . S
C205 C204 1.377 . S
C205 C211 1.390 . S
C206 H197 0.930 . S
C206 C204 1.384 . S
C206 C207 1.372 . S
C207 C206 1.372 . S
C207 C208 1.400 . S
C207 C212 1.490 . S
C208 H198 0.930 . S
C208 C207 1.400 . S
C208 C211 1.386 . S
H209 C225 0.930 . S
H210 C226 0.931 . S
C211 H199 0.929 . S
C211 C205 1.390 . S
C211 C208 1.386 . S
C212 C207 1.490 . S
C212 C214 1.395 . S
C212 C215 1.403 . S
H213 C219 0.930 . S
C214 H200 0.930 . S
C214 C212 1.395 . S
C214 C217 1.403 . S
C215 C212 1.403 . S
C215 C216 1.524 . S
C215 C219 1.400 . S
C216 H201 0.960 . S
C216 H202 0.960 . S
C216 H203 0.960 . S
C216 C215 1.524 . S
C217 C214 1.403 . S
C217 C218 1.392 . S
C217 C221 1.495 . S
C218 C217 1.392 . S
C218 C219 1.385 . S
C218 C220 1.478 . S
C219 H213 0.930 . S
C219 C215 1.400 . S
C219 C218 1.385 . S
C220 C218 1.478 . S
C220 C222 1.381 . S
C220 C226 1.383 . S
C221 C217 1.495 . S
C221 H227 0.959 . S
C221 H228 0.961 . S
C221 H229 0.960 . S
C222 C220 1.381 . S
C222 C223 1.394 . S
C222 H230 0.930 . S
C223 C222 1.394 . S
C223 C224 1.383 . S
C223 H231 0.929 . S
C224 C223 1.383 . S
C224 C225 1.377 . S
C225 H209 0.930 . S
C225 C224 1.377 . S
C225 C226 1.379 . S
C226 H210 0.931 . S
C226 C220 1.383 . S
C226 C225 1.379 . S
H227 C221 0.959 . S
H228 C221 0.961 . S
H229 C221 0.960 . S
H230 C222 0.930 . S
H231 C223 0.929 . S
H232 C240 0.929 . S
H233 C242 0.930 . S
H234 C244 0.930 . S
H235 C247 0.929 . S
H236 C250 0.930 . S
H237 C252 0.960 . S
H238 C252 0.960 . S
H239 C252 0.960 . S
C240 H232 0.929 . S
C240 C241 1.377 . S
C240 C242 1.384 . S
C241 C240 1.377 . S
C241 C247 1.390 . S
C242 H233 0.930 . S
C242 C240 1.384 . S
C242 C243 1.372 . S
C243 C242 1.372 . S
C243 C244 1.400 . S
C243 C248 1.490 . S
C244 H234 0.930 . S
C244 C243 1.400 . S
C244 C247 1.386 . S
H245 C261 0.930 . S
H246 C262 0.931 . S
C247 H235 0.929 . S
C247 C241 1.390 . S
C247 C244 1.386 . S
C248 C243 1.490 . S
C248 C250 1.395 . S
C248 C251 1.403 . S
H249 C255 0.930 . S
C250 H236 0.930 . S
C250 C248 1.395 . S
C250 C253 1.403 . S
C251 C248 1.403 . S
C251 C252 1.524 . S
C251 C255 1.400 . S
C252 H237 0.960 . S
C252 H238 0.960 . S
C252 H239 0.960 . S
C252 C251 1.524 . S
C253 C250 1.403 . S
C253 C254 1.392 . S
C253 C257 1.495 . S
C254 C253 1.392 . S
C254 C255 1.385 . S
C254 C256 1.478 . S
C255 H249 0.930 . S
C255 C251 1.400 . S
C255 C254 1.385 . S
C256 C254 1.478 . S
C256 C258 1.381 . S
C256 C262 1.383 . S
C257 C253 1.495 . S
C257 H263 0.959 . S
C257 H264 0.961 . S
C257 H265 0.960 . S
C258 C256 1.381 . S
C258 C259 1.394 . S
C258 H266 0.930 . S
C259 C258 1.394 . S
C259 C260 1.383 . S
C259 H267 0.929 . S
C260 C259 1.383 . S
C260 C261 1.377 . S
C261 H245 0.930 . S
C261 C260 1.377 . S
C261 C262 1.379 . S
C262 H246 0.931 . S
C262 C256 1.383 . S
C262 C261 1.379 . S
H263 C257 0.959 . S
H264 C257 0.961 . S
H265 C257 0.960 . S
H266 C258 0.930 . S
H267 C259 0.929 . S
H268 C276 0.929 . S
H269 C278 0.930 . S
H270 C280 0.930 . S
H271 C283 0.929 . S
H272 C286 0.930 . S
H273 C288 0.960 . S
H274 C288 0.960 . S
H275 C288 0.960 . S
C276 H268 0.929 . S
C276 C277 1.377 . S
C276 C278 1.384 . S
C277 C276 1.377 . S
C277 C283 1.390 . S
C278 H269 0.930 . S
C278 C276 1.384 . S
C278 C279 1.372 . S
C279 C278 1.372 . S
C279 C280 1.400 . S
C279 C284 1.490 . S
C280 H270 0.930 . S
C280 C279 1.400 . S
C280 C283 1.386 . S
H281 C297 0.930 . S
H282 C298 0.931 . S
C283 H271 0.929 . S
C283 C277 1.390 . S
C283 C280 1.386 . S
C284 C279 1.490 . S
C284 C286 1.395 . S
C284 C287 1.403 . S
H285 C291 0.930 . S
C286 H272 0.930 . S
C286 C284 1.395 . S
C286 C289 1.403 . S
C287 C284 1.403 . S
C287 C288 1.524 . S
C287 C291 1.400 . S
C288 H273 0.960 . S
C288 H274 0.960 . S
C288 H275 0.960 . S
C288 C287 1.524 . S
C289 C286 1.403 . S
C289 C290 1.392 . S
C289 C293 1.495 . S
C290 C289 1.392 . S
C290 C291 1.385 . S
C290 C292 1.478 . S
C291 H285 0.930 . S
C291 C287 1.400 . S
C291 C290 1.385 . S
C292 C290 1.478 . S
C292 C294 1.381 . S
C292 C298 1.383 . S
C293 C289 1.495 . S
C293 H299 0.959 . S
C293 H300 0.961 . S
C293 H301 0.960 . S
C294 C292 1.381 . S
C294 C295 1.394 . S
C294 H302 0.930 . S
C295 C294 1.394 . S
C295 C296 1.383 . S
C295 H303 0.929 . S
C296 C295 1.383 . S
C296 C297 1.377 . S
C297 H281 0.930 . S
C297 C296 1.377 . S
C297 C298 1.379 . S
C298 H282 0.931 . S
C298 C292 1.383 . S
C298 C297 1.379 . S
H299 C293 0.959 . S
H300 C293 0.961 . S
H301 C293 0.960 . S
H302 C294 0.930 . S
H303 C295 0.929 . S
H304 C312 0.929 . S
H305 C314 0.930 . S
H306 C316 0.930 . S
H307 C319 0.929 . S
H308 C322 0.930 . S
H309 C324 0.960 . S
H310 C324 0.960 . S
H311 C324 0.960 . S
C312 H304 0.929 . S
C312 C313 1.377 . S
C312 C314 1.384 . S
C313 C312 1.377 . S
C313 C319 1.390 . S
C314 H305 0.930 . S
C314 C312 1.384 . S
C314 C315 1.372 . S
C315 C314 1.372 . S
C315 C316 1.400 . S
C315 C320 1.490 . S
C316 H306 0.930 . S
C316 C315 1.400 . S
C316 C319 1.386 . S
H317 C333 0.930 . S
H318 C334 0.931 . S
C319 H307 0.929 . S
C319 C313 1.390 . S
C319 C316 1.386 . S
C320 C315 1.490 . S
C320 C322 1.395 . S
C320 C323 1.403 . S
H321 C327 0.930 . S
C322 H308 0.930 . S
C322 C320 1.395 . S
C322 C325 1.403 1_565 S
C323 C320 1.403 . S
C323 C324 1.524 . S
C323 C327 1.400 1_565 S
C324 H309 0.960 . S
C324 H310 0.960 . S
C324 H311 0.960 . S
C324 C323 1.524 . S
C325 C322 1.403 1_545 S
C325 C326 1.392 . S
C325 C329 1.495 . S
C326 C325 1.392 . S
C326 C327 1.385 . S
C326 C328 1.478 . S
C327 H321 0.930 . S
C327 C323 1.400 1_545 S
C327 C326 1.385 . S
C328 C326 1.478 . S
C328 C330 1.381 . S
C328 C334 1.383 . S
C329 C325 1.495 . S
C329 H335 0.959 . S
C329 H336 0.961 . S
C329 H337 0.960 . S
C330 C328 1.381 . S
C330 C331 1.394 . S
C330 H338 0.930 . S
C331 C330 1.394 . S
C331 C332 1.383 . S
C331 H339 0.929 . S
C332 C331 1.383 . S
C332 C333 1.377 . S
C333 H317 0.930 . S
C333 C332 1.377 . S
C333 C334 1.379 . S
C334 H318 0.931 . S
C334 C328 1.383 . S
C334 C333 1.379 . S
H335 C329 0.959 . S
H336 C329 0.961 . S
H337 C329 0.960 . S
H338 C330 0.930 . S
H339 C331 0.929 . S
H340 C348 0.929 . S
H341 C350 0.930 . S
H342 C352 0.930 . S
H343 C355 0.929 . S
H344 C358 0.930 . S
H345 C360 0.960 . S
H346 C360 0.960 . S
H347 C360 0.960 . S
C348 H340 0.929 . S
C348 C349 1.377 . S
C348 C350 1.384 . S
C349 C348 1.377 . S
C349 C355 1.390 . S
C350 H341 0.930 . S
C350 C348 1.384 . S
C350 C351 1.372 . S
C351 C350 1.372 . S
C351 C352 1.400 . S
C351 C356 1.490 . S
C352 H342 0.930 . S
C352 C351 1.400 . S
C352 C355 1.386 . S
H353 C369 0.930 . S
H354 C370 0.931 . S
C355 H343 0.929 . S
C355 C349 1.390 . S
C355 C352 1.386 . S
C356 C351 1.490 . S
C356 C358 1.395 . S
C356 C359 1.403 . S
H357 C363 0.930 . S
C358 H344 0.930 . S
C358 C356 1.395 . S
C358 C361 1.403 . S
C359 C356 1.403 . S
C359 C360 1.524 . S
C359 C363 1.400 . S
C360 H345 0.960 . S
C360 H346 0.960 . S
C360 H347 0.960 . S
C360 C359 1.524 . S
C361 C358 1.403 . S
C361 C362 1.392 . S
C361 C365 1.495 . S
C362 C361 1.392 . S
C362 C363 1.385 . S
C362 C364 1.478 . S
C363 H357 0.930 . S
C363 C359 1.400 . S
C363 C362 1.385 . S
C364 C362 1.478 . S
C364 C366 1.381 . S
C364 C370 1.383 . S
C365 C361 1.495 . S
C365 H371 0.959 . S
C365 H372 0.961 . S
C365 H373 0.960 . S
C366 C364 1.381 . S
C366 C367 1.394 . S
C366 H374 0.930 . S
C367 C366 1.394 . S
C367 C368 1.383 . S
C367 H375 0.929 . S
C368 C367 1.383 . S
C368 C369 1.377 . S
C369 H353 0.930 . S
C369 C368 1.377 . S
C369 C370 1.379 . S
C370 H354 0.931 . S
C370 C364 1.383 . S
C370 C369 1.379 . S
H371 C365 0.959 . S
H372 C365 0.961 . S
H373 C365 0.960 . S
H374 C366 0.930 . S
H375 C367 0.929 . S
H376 C384 0.929 . S
H377 C386 0.930 . S
H378 C388 0.930 . S
H379 C391 0.929 . S
H380 C394 0.930 . S
H381 C396 0.960 . S
H382 C396 0.960 . S
H383 C396 0.960 . S
C384 H376 0.929 . S
C384 C385 1.377 . S
C384 C386 1.384 . S
C385 C384 1.377 . S
C385 C391 1.390 . S
C386 H377 0.930 . S
C386 C384 1.384 . S
C386 C387 1.372 . S
C387 C386 1.372 . S
C387 C388 1.400 . S
C387 C392 1.490 . S
C388 H378 0.930 . S
C388 C387 1.400 . S
C388 C391 1.386 . S
H389 C405 0.930 . S
H390 C406 0.931 . S
C391 H379 0.929 . S
C391 C385 1.390 . S
C391 C388 1.386 . S
C392 C387 1.490 . S
C392 C394 1.395 . S
C392 C395 1.403 . S
H393 C399 0.930 . S
C394 H380 0.930 . S
C394 C392 1.395 . S
C394 C397 1.403 1_565 S
C395 C392 1.403 . S
C395 C396 1.524 . S
C395 C399 1.400 1_565 S
C396 H381 0.960 . S
C396 H382 0.960 . S
C396 H383 0.960 . S
C396 C395 1.524 . S
C397 C394 1.403 1_545 S
C397 C398 1.392 . S
C397 C401 1.495 . S
C398 C397 1.392 . S
C398 C399 1.385 . S
C398 C400 1.478 . S
C399 H393 0.930 . S
C399 C395 1.400 1_545 S
C399 C398 1.385 . S
C400 C398 1.478 . S
C400 C402 1.381 . S
C400 C406 1.383 . S
C401 C397 1.495 . S
C401 H407 0.959 . S
C401 H408 0.961 . S
C401 H409 0.960 . S
C402 C400 1.381 . S
C402 C403 1.394 . S
C402 H410 0.930 . S
C403 C402 1.394 . S
C403 C404 1.383 . S
C403 H411 0.929 . S
C404 C403 1.383 . S
C404 C405 1.377 . S
C405 H389 0.930 . S
C405 C404 1.377 . S
C405 C406 1.379 . S
C406 H390 0.931 . S
C406 C400 1.383 . S
C406 C405 1.379 . S
H407 C401 0.959 . S
H408 C401 0.961 . S
H409 C401 0.960 . S
H410 C402 0.930 . S
H411 C403 0.929 . S
H412 C420 0.929 . S
H413 C422 0.930 . S
H414 C424 0.930 . S
H415 C427 0.929 . S
H416 C430 0.930 . S
H417 C432 0.960 . S
H418 C432 0.960 . S
H419 C432 0.960 . S
C420 H412 0.929 . S
C420 C421 1.377 . S
C420 C422 1.384 . S
C421 C420 1.377 . S
C421 C427 1.390 . S
C422 H413 0.930 . S
C422 C420 1.384 . S
C422 C423 1.372 . S
C423 C422 1.372 . S
C423 C424 1.400 . S
C423 C428 1.490 . S
C424 H414 0.930 . S
C424 C423 1.400 . S
C424 C427 1.386 . S
H425 C441 0.930 . S
H426 C442 0.931 . S
C427 H415 0.929 . S
C427 C421 1.390 . S
C427 C424 1.386 . S
C428 C423 1.490 . S
C428 C430 1.395 . S
C428 C431 1.403 . S
H429 C435 0.930 . S
C430 H416 0.930 . S
C430 C428 1.395 . S
C430 C433 1.403 . S
C431 C428 1.403 . S
C431 C432 1.524 . S
C431 C435 1.400 . S
C432 H417 0.960 . S
C432 H418 0.960 . S
C432 H419 0.960 . S
C432 C431 1.524 . S
C433 C430 1.403 . S
C433 C434 1.392 . S
C433 C437 1.495 . S
C434 C433 1.392 . S
C434 C435 1.385 . S
C434 C436 1.478 . S
C435 H429 0.930 . S
C435 C431 1.400 . S
C435 C434 1.385 . S
C436 C434 1.478 . S
C436 C438 1.381 . S
C436 C442 1.383 . S
C437 C433 1.495 . S
C437 H443 0.959 . S
C437 H444 0.961 . S
C437 H445 0.960 . S
C438 C436 1.381 . S
C438 C439 1.394 . S
C438 H446 0.930 . S
C439 C438 1.394 . S
C439 C440 1.383 . S
C439 H447 0.929 . S
C440 C439 1.383 . S
C440 C441 1.377 . S
C441 H425 0.930 . S
C441 C440 1.377 . S
C441 C442 1.379 . S
C442 H426 0.931 . S
C442 C436 1.383 . S
C442 C441 1.379 . S
H443 C437 0.959 . S
H444 C437 0.961 . S
H445 C437 0.960 . S
H446 C438 0.930 . S
H447 C439 0.929 . S
H448 C456 0.929 . S
H449 C458 0.930 . S
H450 C460 0.930 . S
H451 C463 0.929 . S
H452 C466 0.930 . S
H453 C468 0.960 . S
H454 C468 0.960 . S
H455 C468 0.960 . S
C456 H448 0.929 . S
C456 C457 1.377 . S
C456 C458 1.384 . S
C457 C456 1.377 . S
C457 C463 1.390 1_556 S
C458 H449 0.930 . S
C458 C456 1.384 . S
C458 C459 1.372 . S
C459 C458 1.372 . S
C459 C460 1.400 1_556 S
C459 C464 1.490 . S
C460 H450 0.930 . S
C460 C459 1.400 1_554 S
C460 C463 1.386 . S
H461 C477 0.930 . S
H462 C478 0.931 . S
C463 H451 0.929 . S
C463 C457 1.390 1_554 S
C463 C460 1.386 . S
C464 C459 1.490 . S
C464 C466 1.395 1_556 S
C464 C467 1.403 . S
H465 C471 0.930 . S
C466 H452 0.930 . S
C466 C464 1.395 1_554 S
C466 C469 1.403 . S
C467 C464 1.403 . S
C467 C468 1.524 . S
C467 C471 1.400 . S
C468 H453 0.960 . S
C468 H454 0.960 . S
C468 H455 0.960 . S
C468 C467 1.524 . S
C469 C466 1.403 . S
C469 C470 1.392 . S
C469 C473 1.495 . S
C470 C469 1.392 . S
C470 C471 1.385 1_554 S
C470 C472 1.478 . S
C471 H465 0.930 . S
C471 C467 1.400 . S
C471 C470 1.385 1_556 S
C472 C470 1.478 . S
C472 C474 1.381 1_554 S
C472 C478 1.383 . S
C473 C469 1.495 . S
C473 H479 0.959 . S
C473 H480 0.961 . S
C473 H481 0.960 . S
C474 C472 1.381 1_556 S
C474 C475 1.394 . S
C474 H482 0.930 . S
C475 C474 1.394 . S
C475 C476 1.381 1_556 S
C475 H483 0.929 . S
C476 C475 1.381 1_554 S
C476 C477 1.379 . S
C477 H461 0.930 . S
C477 C476 1.379 . S
C477 C478 1.379 . S
C478 H462 0.931 . S
C478 C472 1.383 . S
C478 C477 1.379 . S
H479 C473 0.959 . S
H480 C473 0.961 . S
H481 C473 0.960 . S
H482 C474 0.930 . S
H483 C475 0.929 . S
H484 C492 0.929 . S
H485 C494 0.930 . S
H486 C496 0.930 . S
H487 C499 0.929 . S
H488 C502 0.930 . S
H489 C504 0.960 . S
H490 C504 0.960 1_556 S
H491 C504 0.960 . S
C492 H484 0.929 . S
C492 C493 1.377 . S
C492 C494 1.384 . S
C493 C492 1.377 . S
C493 C499 1.390 1_556 S
C494 H485 0.930 . S
C494 C492 1.384 . S
C494 C495 1.372 . S
C495 C494 1.372 . S
C495 C496 1.400 1_556 S
C495 C500 1.490 . S
C496 H486 0.930 . S
C496 C495 1.400 1_554 S
C496 C499 1.386 . S
H497 C513 0.930 . S
H498 C514 0.931 . S
C499 H487 0.929 . S
C499 C493 1.390 1_554 S
C499 C496 1.386 . S
C500 C495 1.490 . S
C500 C502 1.395 . S
C500 C503 1.403 1_556 S
H501 C507 0.930 . S
C502 H488 0.930 . S
C502 C500 1.395 . S
C502 C505 1.403 1_565 S
C503 C500 1.403 1_554 S
C503 C504 1.524 . S
C503 C507 1.400 1_565 S
C504 H489 0.960 . S
C504 H490 0.960 1_554 S
C504 H491 0.960 . S
C504 C503 1.524 . S
C505 C502 1.403 1_545 S
C505 C506 1.392 . S
C505 C509 1.495 . S
C506 C505 1.392 . S
C506 C507 1.385 1_556 S
C506 C508 1.478 . S
C507 H501 0.930 . S
C507 C503 1.400 1_545 S
C507 C506 1.385 1_554 S
C508 C506 1.478 . S
C508 C510 1.381 . S
C508 C514 1.383 1_556 S
C509 C505 1.495 . S
C509 H515 0.959 . S
C509 H516 0.961 . S
C509 H517 0.960 . S
C510 C508 1.381 . S
C510 C511 1.394 . S
C510 H518 0.930 . S
C511 C510 1.394 . S
C511 C512 1.383 . S
C511 H519 0.929 . S
C512 C511 1.383 . S
C512 C513 1.377 1_556 S
C513 H497 0.930 . S
C513 C512 1.377 1_554 S
C513 C514 1.379 . S
C514 H498 0.931 . S
C514 C508 1.383 1_554 S
C514 C513 1.379 . S
H515 C509 0.959 . S
H516 C509 0.961 . S
H517 C509 0.960 . S
H518 C510 0.930 . S
H519 C511 0.929 . S
H520 C528 0.929 . S
H521 C530 0.930 . S
H522 C532 0.930 . S
H523 C535 0.929 . S
H524 C538 0.930 . S
H525 C540 0.960 . S
H526 C540 0.960 1_556 S
H527 C540 0.960 . S
C528 H520 0.929 . S
C528 C529 1.377 1_556 S
C528 C530 1.384 . S
C529 C528 1.377 1_554 S
C529 C535 1.390 . S
C530 H521 0.930 . S
C530 C528 1.384 . S
C530 C531 1.379 . S
C531 C530 1.379 . S
C531 C532 1.393 1_556 S
C531 C536 1.490 . S
C532 H522 0.930 . S
C532 C531 1.393 1_554 S
C532 C535 1.386 . S
H533 C549 0.930 . S
H534 C550 0.931 . S
C535 H523 0.929 . S
C535 C529 1.390 . S
C535 C532 1.386 . S
C536 C531 1.490 . S
C536 C538 1.395 . S
C536 C539 1.403 1_556 S
H537 C543 0.930 . S
C538 H524 0.930 . S
C538 C536 1.395 . S
C538 C541 1.403 . S
C539 C536 1.403 1_554 S
C539 C540 1.524 . S
C539 C543 1.400 . S
C540 H525 0.960 . S
C540 H526 0.960 1_554 S
C540 H527 0.960 . S
C540 C539 1.524 . S
C541 C538 1.403 . S
C541 C542 1.392 . S
C541 C545 1.495 . S
C542 C541 1.392 . S
C542 C543 1.385 1_556 S
C542 C544 1.478 1_556 S
C543 H537 0.930 . S
C543 C539 1.400 . S
C543 C542 1.385 1_554 S
C544 C542 1.478 1_554 S
C544 C546 1.380 1_554 S
C544 C550 1.384 . S
C545 C541 1.495 . S
C545 H551 0.959 . S
C545 H552 0.961 1_556 S
C545 H553 0.960 . S
C546 C544 1.380 1_556 S
C546 C547 1.394 . S
C546 H554 0.930 . S
C547 C546 1.394 . S
C547 C548 1.383 1_556 S
C547 H555 0.929 . S
C548 C547 1.383 1_554 S
C548 C549 1.377 . S
C549 H533 0.930 . S
C549 C548 1.377 . S
C549 C550 1.379 . S
C550 H534 0.931 . S
C550 C544 1.384 . S
C550 C549 1.379 . S
H551 C545 0.959 . S
H552 C545 0.961 1_554 S
H553 C545 0.960 . S
H554 C546 0.930 . S
H555 C547 0.929 . S
H556 C564 0.929 . S
H557 C566 0.930 . S
H558 C568 0.930 . S
H559 C571 0.929 . S
H560 C574 0.930 . S
H561 C576 0.960 . S
H562 C576 0.960 . S
H563 C576 0.960 . S
C564 H556 0.929 . S
C564 C565 1.377 1_556 S
C564 C566 1.384 . S
C565 C564 1.377 1_554 S
C565 C571 1.390 . S
C566 H557 0.930 . S
C566 C564 1.384 . S
C566 C567 1.368 1_556 S
C567 C566 1.368 1_554 S
C567 C568 1.404 . S
C567 C572 1.490 . S
C568 H558 0.930 . S
C568 C567 1.404 . S
C568 C571 1.386 . S
H569 C585 0.930 . S
H570 C586 0.931 . S
C571 H559 0.929 . S
C571 C565 1.390 . S
C571 C568 1.386 . S
C572 C567 1.490 . S
C572 C574 1.395 . S
C572 C575 1.403 1_554 S
H573 C579 0.930 . S
C574 H560 0.930 . S
C574 C572 1.395 . S
C574 C577 1.403 1_545 S
C575 C572 1.403 1_556 S
C575 C576 1.524 . S
C575 C579 1.400 1_545 S
C576 H561 0.960 . S
C576 H562 0.960 . S
C576 H563 0.960 . S
C576 C575 1.524 . S
C577 C574 1.403 1_565 S
C577 C578 1.392 . S
C577 C581 1.495 . S
C578 C577 1.392 . S
C578 C579 1.385 1_554 S
C578 C580 1.478 . S
C579 H573 0.930 . S
C579 C575 1.400 1_565 S
C579 C578 1.385 1_556 S
C580 C578 1.478 . S
C580 C582 1.381 1_554 S
C580 C586 1.383 . S
C581 C577 1.495 . S
C581 H587 0.959 . S
C581 H588 0.961 . S
C581 H589 0.960 . S
C582 C580 1.381 1_556 S
C582 C583 1.394 . S
C582 H590 0.930 . S
C583 C582 1.394 . S
C583 C584 1.383 1_556 S
C583 H591 0.929 . S
C584 C583 1.383 1_554 S
C584 C585 1.377 . S
C585 H569 0.930 . S
C585 C584 1.377 . S
C585 C586 1.379 . S
C586 H570 0.931 . S
C586 C580 1.383 . S
C586 C585 1.379 . S
H587 C581 0.959 . S
H588 C581 0.961 . S
H589 C581 0.960 . S
H590 C582 0.930 . S
H591 C583 0.929 . S
H592 C600 0.929 . S
H593 C602 0.930 . S
H594 C604 0.930 . S
H595 C607 0.929 . S
H596 C610 0.930 . S
H597 C612 0.960 . S
H598 C612 0.960 . S
H599 C612 0.960 . S
C600 H592 0.929 . S
C600 C601 1.377 . S
C600 C602 1.384 . S
C601 C600 1.377 . S
C601 C607 1.390 . S
C602 H593 0.930 . S
C602 C600 1.384 . S
C602 C603 1.372 . S
C603 C602 1.372 . S
C603 C604 1.400 . S
C603 C608 1.490 . S
C604 H594 0.930 . S
C604 C603 1.400 . S
C604 C607 1.386 . S
H605 C621 0.930 . S
H606 C622 0.931 . S
C607 H595 0.929 . S
C607 C601 1.390 . S
C607 C604 1.386 . S
C608 C603 1.490 . S
C608 C610 1.395 . S
C608 C611 1.403 . S
H609 C615 0.930 . S
C610 H596 0.930 . S
C610 C608 1.395 . S
C610 C613 1.403 1_554 S
C611 C608 1.403 . S
C611 C612 1.524 . S
C611 C615 1.400 1_554 S
C612 H597 0.960 . S
C612 H598 0.960 . S
C612 H599 0.960 . S
C612 C611 1.524 . S
C613 C610 1.403 1_556 S
C613 C614 1.392 . S
C613 C617 1.495 . S
C614 C613 1.392 . S
C614 C615 1.385 . S
C614 C616 1.478 . S
C615 H609 0.930 . S
C615 C611 1.400 1_556 S
C615 C614 1.385 . S
C616 C614 1.478 . S
C616 C618 1.381 . S
C616 C622 1.383 . S
C617 C613 1.495 . S
C617 H623 0.959 . S
C617 H624 0.961 . S
C617 H625 0.960 . S
C618 C616 1.381 . S
C618 C619 1.394 . S
C618 H626 0.930 . S
C619 C618 1.394 . S
C619 C620 1.383 . S
C619 H627 0.929 . S
C620 C619 1.383 . S
C620 C621 1.377 . S
C621 H605 0.930 . S
C621 C620 1.377 . S
C621 C622 1.379 . S
C622 H606 0.931 . S
C622 C616 1.383 . S
C622 C621 1.379 . S
H623 C617 0.959 . S
H624 C617 0.961 . S
H625 C617 0.960 . S
H626 C618 0.930 . S
H627 C619 0.929 . S
H628 C636 0.929 . S
H629 C638 0.930 . S
H630 C640 0.930 . S
H631 C643 0.929 . S
H632 C646 0.930 . S
H633 C648 0.960 . S
H634 C648 0.960 . S
H635 C648 0.960 . S
C636 H628 0.929 . S
C636 C637 1.377 . S
C636 C638 1.384 . S
C637 C636 1.377 . S
C637 C643 1.390 . S
C638 H629 0.930 . S
C638 C636 1.384 . S
C638 C639 1.372 . S
C639 C638 1.372 . S
C639 C640 1.400 . S
C639 C644 1.490 . S
C640 H630 0.930 . S
C640 C639 1.400 . S
C640 C643 1.386 . S
H641 C657 0.930 . S
H642 C658 0.931 . S
C643 H631 0.929 . S
C643 C637 1.390 . S
C643 C640 1.386 . S
C644 C639 1.490 . S
C644 C646 1.395 . S
C644 C647 1.403 . S
H645 C651 0.930 . S
C646 H632 0.930 . S
C646 C644 1.395 . S
C646 C649 1.403 1_554 S
C647 C644 1.403 . S
C647 C648 1.524 . S
C647 C651 1.400 1_554 S
C648 H633 0.960 . S
C648 H634 0.960 . S
C648 H635 0.960 . S
C648 C647 1.524 . S
C649 C646 1.403 1_556 S
C649 C650 1.392 . S
C649 C653 1.495 . S
C650 C649 1.392 . S
C650 C651 1.385 . S
C650 C652 1.478 . S
C651 H645 0.930 . S
C651 C647 1.400 1_556 S
C651 C650 1.385 . S
C652 C650 1.478 . S
C652 C654 1.381 . S
C652 C658 1.383 . S
C653 C649 1.495 . S
C653 H659 0.959 . S
C653 H660 0.961 . S
C653 H661 0.960 . S
C654 C652 1.381 . S
C654 C655 1.394 . S
C654 H662 0.930 . S
C655 C654 1.394 . S
C655 C656 1.383 . S
C655 H663 0.929 . S
C656 C655 1.383 . S
C656 C657 1.377 . S
C657 H641 0.930 . S
C657 C656 1.377 . S
C657 C658 1.379 . S
C658 H642 0.931 . S
C658 C652 1.383 . S
C658 C657 1.379 . S
H659 C653 0.959 . S
H660 C653 0.961 . S
H661 C653 0.960 . S
H662 C654 0.930 . S
H663 C655 0.929 . S
H664 C672 0.929 . S
H665 C674 0.930 . S
H666 C676 0.930 . S
H667 C679 0.929 . S
H668 C682 0.930 . S
H669 C684 0.960 . S
H670 C684 0.960 . S
H671 C684 0.960 . S
C672 H664 0.929 . S
C672 C673 1.377 . S
C672 C674 1.384 . S
C673 C672 1.377 . S
C673 C679 1.390 . S
C674 H665 0.930 . S
C674 C672 1.384 . S
C674 C675 1.372 . S
C675 C674 1.372 . S
C675 C676 1.400 . S
C675 C680 1.490 . S
C676 H666 0.930 . S
C676 C675 1.400 . S
C676 C679 1.386 . S
H677 C693 0.930 . S
H678 C694 0.931 . S
C679 H667 0.929 . S
C679 C673 1.390 . S
C679 C676 1.386 . S
C680 C675 1.490 . S
C680 C682 1.395 . S
C680 C683 1.403 . S
H681 C687 0.930 . S
C682 H668 0.930 . S
C682 C680 1.395 . S
C682 C685 1.403 1_554 S
C683 C680 1.403 . S
C683 C684 1.524 . S
C683 C687 1.400 1_554 S
C684 H669 0.960 . S
C684 H670 0.960 . S
C684 H671 0.960 . S
C684 C683 1.524 . S
C685 C682 1.403 1_556 S
C685 C686 1.392 . S
C685 C689 1.495 . S
C686 C685 1.392 . S
C686 C687 1.385 . S
C686 C688 1.478 . S
C687 H681 0.930 . S
C687 C683 1.400 1_556 S
C687 C686 1.385 . S
C688 C686 1.478 . S
C688 C690 1.381 . S
C688 C694 1.383 . S
C689 C685 1.495 . S
C689 H695 0.959 . S
C689 H696 0.961 . S
C689 H697 0.960 . S
C690 C688 1.381 . S
C690 C691 1.394 . S
C690 H698 0.930 . S
C691 C690 1.394 . S
C691 C692 1.383 . S
C691 H699 0.929 . S
C692 C691 1.383 . S
C692 C693 1.377 . S
C693 H677 0.930 . S
C693 C692 1.377 . S
C693 C694 1.379 . S
C694 H678 0.931 . S
C694 C688 1.383 . S
C694 C693 1.379 . S
H695 C689 0.959 . S
H696 C689 0.961 . S
H697 C689 0.960 . S
H698 C690 0.930 . S
H699 C691 0.929 . S
H700 C708 0.929 . S
H701 C710 0.930 . S
H702 C712 0.930 . S
H703 C715 0.929 . S
H704 C718 0.930 . S
H705 C720 0.960 . S
H706 C720 0.960 . S
H707 C720 0.960 . S
C708 H700 0.929 . S
C708 C709 1.377 . S
C708 C710 1.384 . S
C709 C708 1.377 . S
C709 C715 1.390 . S
C710 H701 0.930 . S
C710 C708 1.384 . S
C710 C711 1.372 . S
C711 C710 1.372 . S
C711 C712 1.400 . S
C711 C716 1.490 . S
C712 H702 0.930 . S
C712 C711 1.400 . S
C712 C715 1.386 . S
H713 C729 0.930 . S
H714 C730 0.931 . S
C715 H703 0.929 . S
C715 C709 1.390 . S
C715 C712 1.386 . S
C716 C711 1.490 . S
C716 C718 1.395 . S
C716 C719 1.403 . S
H717 C723 0.930 . S
C718 H704 0.930 . S
C718 C716 1.395 . S
C718 C721 1.403 1_556 S
C719 C716 1.403 . S
C719 C720 1.524 . S
C719 C723 1.400 1_556 S
C720 H705 0.960 . S
C720 H706 0.960 . S
C720 H707 0.960 . S
C720 C719 1.524 . S
C721 C718 1.403 1_554 S
C721 C722 1.392 . S
C721 C725 1.495 . S
C722 C721 1.392 . S
C722 C723 1.385 . S
C722 C724 1.478 . S
C723 H717 0.930 . S
C723 C719 1.400 1_554 S
C723 C722 1.385 . S
C724 C722 1.478 . S
C724 C726 1.381 . S
C724 C730 1.383 . S
C725 C721 1.495 . S
C725 H731 0.959 . S
C725 H732 0.961 . S
C725 H733 0.960 . S
C726 C724 1.381 . S
C726 C727 1.394 . S
C726 H734 0.930 . S
C727 C726 1.394 . S
C727 C728 1.383 . S
C727 H735 0.929 . S
C728 C727 1.383 . S
C728 C729 1.377 . S
C729 H713 0.930 . S
C729 C728 1.377 . S
C729 C730 1.379 . S
C730 H714 0.931 . S
C730 C724 1.383 . S
C730 C729 1.379 . S
H731 C725 0.959 . S
H732 C725 0.961 . S
H733 C725 0.960 . S
H734 C726 0.930 . S
H735 C727 0.929 . S
H736 C744 0.929 . S
H737 C746 0.930 . S
H738 C748 0.930 . S
H739 C751 0.929 . S
H740 C754 0.930 . S
H741 C756 0.960 . S
H742 C756 0.960 . S
H743 C756 0.960 . S
C744 H736 0.929 . S
C744 C745 1.377 . S
C744 C746 1.384 . S
C745 C744 1.377 . S
C745 C751 1.390 . S
C746 H737 0.930 . S
C746 C744 1.384 . S
C746 C747 1.372 . S
C747 C746 1.372 . S
C747 C748 1.400 . S
C747 C752 1.490 . S
C748 H738 0.930 . S
C748 C747 1.400 . S
C748 C751 1.386 . S
H749 C765 0.930 . S
H750 C766 0.931 . S
C751 H739 0.929 . S
C751 C745 1.390 . S
C751 C748 1.386 . S
C752 C747 1.490 . S
C752 C754 1.395 . S
C752 C755 1.403 . S
H753 C759 0.930 . S
C754 H740 0.930 . S
C754 C752 1.395 . S
C754 C757 1.403 . S
C755 C752 1.403 . S
C755 C756 1.524 . S
C755 C759 1.400 . S
C756 H741 0.960 . S
C756 H742 0.960 . S
C756 H743 0.960 . S
C756 C755 1.524 . S
C757 C754 1.403 . S
C757 C758 1.392 . S
C757 C761 1.495 . S
C758 C757 1.392 . S
C758 C759 1.385 . S
C758 C760 1.478 . S
C759 H753 0.930 . S
C759 C755 1.400 . S
C759 C758 1.385 . S
C760 C758 1.478 . S
C760 C762 1.381 . S
C760 C766 1.383 . S
C761 C757 1.495 . S
C761 H767 0.959 . S
C761 H768 0.961 . S
C761 H769 0.960 . S
C762 C760 1.381 . S
C762 C763 1.394 . S
C762 H770 0.930 . S
C763 C762 1.394 . S
C763 C764 1.383 . S
C763 H771 0.929 . S
C764 C763 1.383 . S
C764 C765 1.377 . S
C765 H749 0.930 . S
C765 C764 1.377 . S
C765 C766 1.379 . S
C766 H750 0.931 . S
C766 C760 1.383 . S
C766 C765 1.379 . S
H767 C761 0.959 . S
H768 C761 0.961 . S
H769 C761 0.960 . S
H770 C762 0.930 . S
H771 C763 0.929 . S
H772 C780 0.929 . S
H773 C782 0.930 . S
H774 C784 0.930 . S
H775 C787 0.929 . S
H776 C790 0.930 . S
H777 C792 0.960 . S
H778 C792 0.960 . S
H779 C792 0.960 . S
C780 H772 0.929 . S
C780 C781 1.377 . S
C780 C782 1.384 . S
C781 C780 1.377 . S
C781 C787 1.390 . S
C782 H773 0.930 . S
C782 C780 1.384 . S
C782 C783 1.372 . S
C783 C782 1.372 . S
C783 C784 1.400 . S
C783 C788 1.490 . S
C784 H774 0.930 . S
C784 C783 1.400 . S
C784 C787 1.386 . S
H785 C801 0.930 . S
H786 C802 0.931 . S
C787 H775 0.929 . S
C787 C781 1.390 . S
C787 C784 1.386 . S
C788 C783 1.490 . S
C788 C790 1.395 . S
C788 C791 1.403 . S
H789 C795 0.930 . S
C790 H776 0.930 . S
C790 C788 1.395 . S
C790 C793 1.403 . S
C791 C788 1.403 . S
C791 C792 1.524 . S
C791 C795 1.400 . S
C792 H777 0.960 . S
C792 H778 0.960 . S
C792 H779 0.960 . S
C792 C791 1.524 . S
C793 C790 1.403 . S
C793 C794 1.392 . S
C793 C797 1.495 . S
C794 C793 1.392 . S
C794 C795 1.385 . S
C794 C796 1.478 . S
C795 H789 0.930 . S
C795 C791 1.400 . S
C795 C794 1.385 . S
C796 C794 1.478 . S
C796 C798 1.381 . S
C796 C802 1.383 . S
C797 C793 1.495 . S
C797 H803 0.959 . S
C797 H804 0.961 . S
C797 H805 0.960 . S
C798 C796 1.381 . S
C798 C799 1.394 . S
C798 H806 0.930 . S
C799 C798 1.394 . S
C799 C800 1.383 . S
C799 H807 0.929 . S
C800 C799 1.383 . S
C800 C801 1.377 . S
C801 H785 0.930 . S
C801 C800 1.377 . S
C801 C802 1.379 . S
C802 H786 0.931 . S
C802 C796 1.383 . S
C802 C801 1.379 . S
H803 C797 0.959 . S
H804 C797 0.961 . S
H805 C797 0.960 . S
H806 C798 0.930 . S
H807 C799 0.929 . S
H808 C816 0.929 . S
H809 C818 0.930 . S
H810 C820 0.930 . S
H811 C823 0.929 . S
H812 C826 0.930 . S
H813 C828 0.960 . S
H814 C828 0.960 . S
H815 C828 0.960 . S
C816 H808 0.929 . S
C816 C817 1.377 . S
C816 C818 1.384 . S
C817 C816 1.377 . S
C817 C823 1.390 . S
C818 H809 0.930 . S
C818 C816 1.384 . S
C818 C819 1.372 . S
C819 C818 1.372 . S
C819 C820 1.400 . S
C819 C824 1.490 . S
C820 H810 0.930 . S
C820 C819 1.400 . S
C820 C823 1.386 . S
H821 C837 0.930 . S
H822 C838 0.931 . S
C823 H811 0.929 . S
C823 C817 1.390 . S
C823 C820 1.386 . S
C824 C819 1.490 . S
C824 C826 1.395 . S
C824 C827 1.403 . S
H825 C831 0.930 . S
C826 H812 0.930 . S
C826 C824 1.395 . S
C826 C829 1.403 . S
C827 C824 1.403 . S
C827 C828 1.524 . S
C827 C831 1.400 . S
C828 H813 0.960 . S
C828 H814 0.960 . S
C828 H815 0.960 . S
C828 C827 1.524 . S
C829 C826 1.403 . S
C829 C830 1.392 . S
C829 C833 1.495 . S
C830 C829 1.392 . S
C830 C831 1.385 . S
C830 C832 1.478 . S
C831 H825 0.930 . S
C831 C827 1.400 . S
C831 C830 1.385 . S
C832 C830 1.478 . S
C832 C834 1.381 . S
C832 C838 1.383 . S
C833 C829 1.495 . S
C833 H839 0.959 . S
C833 H840 0.961 . S
C833 H841 0.960 . S
C834 C832 1.381 . S
C834 C835 1.394 . S
C834 H842 0.930 . S
C835 C834 1.394 . S
C835 C836 1.383 . S
C835 H843 0.929 . S
C836 C835 1.383 . S
C836 C837 1.377 . S
C837 H821 0.930 . S
C837 C836 1.377 . S
C837 C838 1.379 . S
C838 H822 0.931 . S
C838 C832 1.383 . S
C838 C837 1.379 . S
H839 C833 0.959 . S
H840 C833 0.961 . S
H841 C833 0.960 . S
H842 C834 0.930 . S
H843 C835 0.929 . S
H844 C852 0.929 . S
H845 C854 0.930 . S
H846 C856 0.930 . S
H847 C859 0.929 . S
H848 C862 0.930 . S
H849 C864 0.960 . S
H850 C864 0.960 . S
H851 C864 0.960 . S
C852 H844 0.929 . S
C852 C853 1.377 . S
C852 C854 1.384 . S
C853 C852 1.377 . S
C853 C859 1.390 . S
C854 H845 0.930 . S
C854 C852 1.384 . S
C854 C855 1.372 . S
C855 C854 1.372 . S
C855 C856 1.400 . S
C855 C860 1.490 . S
C856 H846 0.930 . S
C856 C855 1.400 . S
C856 C859 1.386 . S
H857 C873 0.930 . S
H858 C874 0.931 . S
C859 H847 0.929 . S
C859 C853 1.390 . S
C859 C856 1.386 . S
C860 C855 1.490 . S
C860 C862 1.395 . S
C860 C863 1.403 . S
H861 C867 0.930 . S
C862 H848 0.930 . S
C862 C860 1.395 . S
C862 C865 1.403 . S
C863 C860 1.403 . S
C863 C864 1.524 . S
C863 C867 1.400 . S
C864 H849 0.960 . S
C864 H850 0.960 . S
C864 H851 0.960 . S
C864 C863 1.524 . S
C865 C862 1.403 . S
C865 C866 1.392 . S
C865 C869 1.495 . S
C866 C865 1.392 . S
C866 C867 1.385 . S
C866 C868 1.478 . S
C867 H861 0.930 . S
C867 C863 1.400 . S
C867 C866 1.385 . S
C868 C866 1.478 . S
C868 C870 1.381 . S
C868 C874 1.383 . S
C869 C865 1.495 . S
C869 H875 0.959 . S
C869 H876 0.961 . S
C869 H877 0.960 . S
C870 C868 1.381 . S
C870 C871 1.394 . S
C870 H878 0.930 . S
C871 C870 1.394 . S
C871 C872 1.383 . S
C871 H879 0.929 . S
C872 C871 1.383 . S
C872 C873 1.377 . S
C873 H857 0.930 . S
C873 C872 1.377 . S
C873 C874 1.379 . S
C874 H858 0.931 . S
C874 C868 1.383 . S
C874 C873 1.379 . S
H875 C869 0.959 . S
H876 C869 0.961 . S
H877 C869 0.960 . S
H878 C870 0.930 . S
H879 C871 0.929 . S
H880 C888 0.929 . S
H881 C890 0.930 . S
H882 C892 0.930 . S
H883 C895 0.929 . S
H884 C898 0.930 . S
H885 C900 0.960 . S
H886 C900 0.960 . S
H887 C900 0.960 . S
C888 H880 0.929 . S
C888 C889 1.377 . S
C888 C890 1.384 . S
C889 C888 1.377 . S
C889 C895 1.390 . S
C890 H881 0.930 . S
C890 C888 1.384 . S
C890 C891 1.372 . S
C891 C890 1.372 . S
C891 C892 1.400 . S
C891 C896 1.490 . S
C892 H882 0.930 . S
C892 C891 1.400 . S
C892 C895 1.386 . S
H893 C909 0.930 . S
H894 C910 0.931 . S
C895 H883 0.929 . S
C895 C889 1.390 . S
C895 C892 1.386 . S
C896 C891 1.490 . S
C896 C898 1.395 . S
C896 C899 1.403 . S
H897 C903 0.930 . S
C898 H884 0.930 . S
C898 C896 1.395 . S
C898 C901 1.403 1_455 S
C899 C896 1.403 . S
C899 C900 1.524 . S
C899 C903 1.400 1_455 S
C900 H885 0.960 . S
C900 H886 0.960 . S
C900 H887 0.960 . S
C900 C899 1.524 . S
C901 C898 1.403 1_655 S
C901 C902 1.392 . S
C901 C905 1.495 . S
C902 C901 1.392 . S
C902 C903 1.385 . S
C902 C904 1.478 . S
C903 H897 0.930 . S
C903 C899 1.400 1_655 S
C903 C902 1.385 . S
C904 C902 1.478 . S
C904 C906 1.381 . S
C904 C910 1.383 . S
C905 C901 1.495 . S
C905 H911 0.959 . S
C905 H912 0.961 . S
C905 H913 0.960 . S
C906 C904 1.381 . S
C906 C907 1.394 . S
C906 H914 0.930 . S
C907 C906 1.394 . S
C907 C908 1.383 . S
C907 H915 0.929 . S
C908 C907 1.383 . S
C908 C909 1.377 . S
C909 H893 0.930 . S
C909 C908 1.377 . S
C909 C910 1.379 . S
C910 H894 0.931 . S
C910 C904 1.383 . S
C910 C909 1.379 . S
H911 C905 0.959 . S
H912 C905 0.961 . S
H913 C905 0.960 . S
H914 C906 0.930 . S
H915 C907 0.929 . S
H916 C924 0.929 . S
H917 C926 0.930 . S
H918 C928 0.930 . S
H919 C931 0.929 . S
H920 C934 0.930 . S
H921 C936 0.960 . S
H922 C936 0.960 . S
H923 C936 0.960 . S
C924 H916 0.929 . S
C924 C925 1.377 . S
C924 C926 1.384 . S
C925 C924 1.377 . S
C925 C931 1.390 . S
C926 H917 0.930 . S
C926 C924 1.384 . S
C926 C927 1.372 . S
C927 C926 1.372 . S
C927 C928 1.400 . S
C927 C932 1.490 . S
C928 H918 0.930 . S
C928 C927 1.400 . S
C928 C931 1.386 . S
H929 C945 0.930 . S
H930 C946 0.931 . S
C931 H919 0.929 . S
C931 C925 1.390 . S
C931 C928 1.386 . S
C932 C927 1.490 . S
C932 C934 1.395 . S
C932 C935 1.403 . S
H933 C939 0.930 . S
C934 H920 0.930 . S
C934 C932 1.395 . S
C934 C937 1.403 1_655 S
C935 C932 1.403 . S
C935 C936 1.524 . S
C935 C939 1.400 1_655 S
C936 H921 0.960 . S
C936 H922 0.960 . S
C936 H923 0.960 . S
C936 C935 1.524 . S
C937 C934 1.403 1_455 S
C937 C938 1.392 . S
C937 C941 1.495 . S
C938 C937 1.392 . S
C938 C939 1.385 . S
C938 C940 1.478 . S
C939 H933 0.930 . S
C939 C935 1.400 1_455 S
C939 C938 1.385 . S
C940 C938 1.478 . S
C940 C942 1.381 . S
C940 C946 1.383 . S
C941 C937 1.495 . S
C941 H947 0.959 . S
C941 H948 0.961 . S
C941 H949 0.960 . S
C942 C940 1.381 . S
C942 C943 1.394 . S
C942 H950 0.930 . S
C943 C942 1.394 . S
C943 C944 1.383 . S
C943 H951 0.929 . S
C944 C943 1.383 . S
C944 C945 1.377 . S
C945 H929 0.930 . S
C945 C944 1.377 . S
C945 C946 1.379 . S
C946 H930 0.931 . S
C946 C940 1.383 . S
C946 C945 1.379 . S
H947 C941 0.959 . S
H948 C941 0.961 . S
H949 C941 0.960 . S
H950 C942 0.930 . S
H951 C943 0.929 . S
H952 C960 0.929 . S
H953 C962 0.930 . S
H954 C964 0.930 . S
H955 C967 0.929 . S
H956 C970 0.930 . S
H957 C972 0.960 . S
H958 C972 0.960 . S
H959 C972 0.960 . S
C960 H952 0.929 . S
C960 C961 1.377 . S
C960 C962 1.384 . S
C961 C960 1.377 . S
C961 C967 1.390 . S
C962 H953 0.930 . S
C962 C960 1.384 . S
C962 C963 1.372 . S
C963 C962 1.372 . S
C963 C964 1.400 . S
C963 C968 1.490 . S
C964 H954 0.930 . S
C964 C963 1.400 . S
C964 C967 1.386 . S
H965 C981 0.930 . S
H966 C982 0.931 . S
C967 H955 0.929 . S
C967 C961 1.390 . S
C967 C964 1.386 . S
C968 C963 1.490 . S
C968 C970 1.395 . S
C968 C971 1.403 . S
H969 C975 0.930 . S
C970 H956 0.930 . S
C970 C968 1.395 . S
C970 C973 1.403 . S
C971 C968 1.403 . S
C971 C972 1.524 . S
C971 C975 1.400 . S
C972 H957 0.960 . S
C972 H958 0.960 . S
C972 H959 0.960 . S
C972 C971 1.524 . S
C973 C970 1.403 . S
C973 C974 1.392 . S
C973 C977 1.495 . S
C974 C973 1.392 . S
C974 C975 1.385 . S
C974 C976 1.478 . S
C975 H969 0.930 . S
C975 C971 1.400 . S
C975 C974 1.385 . S
C976 C974 1.478 . S
C976 C978 1.381 . S
C976 C982 1.383 . S
C977 C973 1.495 . S
C977 H983 0.959 . S
C977 H984 0.961 . S
C977 H985 0.960 . S
C978 C976 1.381 . S
C978 C979 1.394 . S
C978 H986 0.930 . S
C979 C978 1.394 . S
C979 C980 1.383 . S
C979 H987 0.929 . S
C980 C979 1.383 . S
C980 C981 1.377 . S
C981 H965 0.930 . S
C981 C980 1.377 . S
C981 C982 1.379 . S
C982 H966 0.931 . S
C982 C976 1.383 . S
C982 C981 1.379 . S
H983 C977 0.959 . S
H984 C977 0.961 . S
H985 C977 0.960 . S
H986 C978 0.930 . S
H987 C979 0.929 . S
H988 C996 0.929 . S
H989 C998 0.930 . S
H990 C1000 0.924 1_556 S
H991 C1003 0.929 1_556 S
H992 C1006 0.930 . S
H993 C1008 0.960 . S
H994 C1008 0.960 . S
H995 C1008 0.960 . S
C996 H988 0.929 . S
C996 C997 1.377 . S
C996 C998 1.384 . S
C997 C996 1.377 . S
C997 C1003 1.390 . S
C998 H989 0.930 . S
C998 C996 1.384 . S
C998 C999 1.372 . S
C999 C998 1.372 . S
C999 C1000 1.400 . S
C999 C1004 1.490 . S
C1000 H990 0.924 1_554 S
C1000 C999 1.400 . S
C1000 C1003 1.386 . S
H1001 C1017 0.930 1_556 S
H1002 C1018 0.931 1_556 S
C1003 H991 0.929 1_554 S
C1003 C997 1.390 . S
C1003 C1000 1.386 . S
C1004 C999 1.490 . S
C1004 C1006 1.395 . S
C1004 C1007 1.403 . S
H1005 C1011 0.930 . S
C1006 H992 0.930 . S
C1006 C1004 1.395 . S
C1006 C1009 1.403 . S
C1007 C1004 1.403 . S
C1007 C1008 1.524 . S
C1007 C1011 1.400 . S
C1008 H993 0.960 . S
C1008 H994 0.960 . S
C1008 H995 0.960 . S
C1008 C1007 1.524 . S
C1009 C1006 1.403 . S
C1009 C1010 1.392 . S
C1009 C1013 1.495 . S
C1010 C1009 1.392 . S
C1010 C1011 1.385 . S
C1010 C1012 1.478 . S
C1011 H1005 0.930 . S
C1011 C1007 1.400 . S
C1011 C1010 1.385 . S
C1012 C1010 1.478 . S
C1012 C1014 1.381 . S
C1012 C1018 1.383 . S
C1013 C1009 1.495 . S
C1013 H1019 0.959 . S
C1013 H1020 0.961 . S
C1013 H1021 0.960 . S
C1014 C1012 1.381 . S
C1014 C1015 1.394 . S
C1014 H1022 0.930 . S
C1015 C1014 1.394 . S
C1015 C1016 1.383 . S
C1015 H1023 0.929 . S
C1016 C1015 1.383 . S
C1016 C1017 1.377 . S
C1017 H1001 0.930 1_554 S
C1017 C1016 1.377 . S
C1017 C1018 1.379 . S
C1018 H1002 0.931 1_554 S
C1018 C1012 1.383 . S
C1018 C1017 1.379 . S
H1019 C1013 0.959 . S
H1020 C1013 0.961 . S
H1021 C1013 0.960 . S
H1022 C1014 0.930 . S
H1023 C1015 0.929 . S
C169 C2 1.726 . S
C188 C141 1.728 . S
C205 C121 1.724 . S
C224 C22 1.714 . S
C241 C102 1.725 . S
C260 C41 1.728 . S
C277 C82 1.725 . S
C296 C61 1.726 . S
C313 C48 1.466 . S
C332 C8 1.462 . S
C349 C28 1.464 . S
C368 C68 1.437 . S
C385 C69 1.463 . S
C404 C29 1.444 . S
C421 C49 1.465 . S
C440 C9 1.453 . S
C457 C88 1.457 . S
C476 C128 1.475 1_554 S
C493 C108 1.461 . S
C512 C148 1.477 . S
C529 C149 1.462 . S
C548 C109 1.479 . S
C565 C129 1.459 . S
C584 C89 1.474 . S
C601 C19 1.628 . S
C620 C18 1.638 . S
C637 C39 1.621 . S
C656 C38 1.608 . S
C673 C59 1.621 . S
C692 C58 1.621 . S
C709 C78 1.624 . S
C728 C79 1.604 . S
C745 C98 1.621 . S
C764 C99 1.608 . S
C781 C119 1.628 . S
C800 C118 1.634 . S
C817 C138 1.628 . S
C836 C139 1.632 . S
C853 C158 1.624 . S
C872 C159 1.604 . S
C889 C1 1.926 . S
C908 C21 1.908 . S
C925 C62 1.917 . S
C944 C42 1.911 . S
C961 C81 1.926 . S
C980 C101 1.903 . S
C997 C142 1.926 . S
C1016 C122 1.926 . S
