# Generated by pormake.
# Topology rkf, (6)-cn, num edge types: 1
# Building blocks:
#     Node 0, Type 0, BuildingBlock: BETDEL_clean_sbu_0, # of connection points: 6
#     Node 1, Type 0, BuildingBlock: BETDEL_clean_sbu_0, # of connection points: 6
#     Node 2, Type 0, BuildingBlock: BETDEL_clean_sbu_0, # of connection points: 6
#     Node 3, Type 0, BuildingBlock: BETDEL_clean_sbu_0, # of connection points: 6
#     Node 4, Type 0, BuildingBlock: BETDEL_clean_sbu_0, # of connection points: 6
#     Node 5, Type 0, BuildingBlock: BETDEL_clean_sbu_0, # of connection points: 6
#     Edge 6, Type (0, 0), BuildingBlock: KIFKEQ_clean_linker_1, # of connection points: 2
#     Edge 7, Type (0, 0), BuildingBlock: KIFKEQ_clean_linker_1, # of connection points: 2
#     Edge 8, Type (0, 0), BuildingBlock: KIFKEQ_clean_linker_1, # of connection points: 2
#     Edge 9, Type (0, 0), BuildingBlock: KIFKEQ_clean_linker_1, # of connection points: 2
#     Edge 10, Type (0, 0), BuildingBlock: KIFKEQ_clean_linker_1, # of connection points: 2
#     Edge 11, Type (0, 0), BuildingBlock: KIFKEQ_clean_linker_1, # of connection points: 2
#     Edge 12, Type (0, 0), BuildingBlock: KIFKEQ_clean_linker_1, # of connection points: 2
#     Edge 13, Type (0, 0), BuildingBlock: KIFKEQ_clean_linker_1, # of connection points: 2
#     Edge 14, Type (0, 0), BuildingBlock: KIFKEQ_clean_linker_1, # of connection points: 2
#     Edge 15, Type (0, 0), BuildingBlock: KIFKEQ_clean_linker_1, # of connection points: 2
#     Edge 16, Type (0, 0), BuildingBlock: KIFKEQ_clean_linker_1, # of connection points: 2
#     Edge 17, Type (0, 0), BuildingBlock: KIFKEQ_clean_linker_1, # of connection points: 2
#     Edge 18, Type (0, 0), BuildingBlock: KIFKEQ_clean_linker_1, # of connection points: 2
#     Edge 19, Type (0, 0), BuildingBlock: KIFKEQ_clean_linker_1, # of connection points: 2
#     Edge 20, Type (0, 0), BuildingBlock: KIFKEQ_clean_linker_1, # of connection points: 2
#     Edge 21, Type (0, 0), BuildingBlock: KIFKEQ_clean_linker_1, # of connection points: 2
#     Edge 22, Type (0, 0), BuildingBlock: KIFKEQ_clean_linker_1, # of connection points: 2
#     Edge 23, Type (0, 0), BuildingBlock: KIFKEQ_clean_linker_1, # of connection points: 2
# Relax obj value: 0.372
# Max RMSD: 0.269
# Mean RMSD: 0.269
data_MOF--net-rkf--node1-BETDEL_clean_sbu_0--edge1-KIFKEQ_clean_linker_1
_symmetry_space_group_name_H-M    P1
_symmetry_Int_Tables_number       1
_symmetry_cell_setting            triclinic
loop_
_symmetry_equiv_pos_as_xyz
'x, y, z'
_cell_length_a     25.00732
_cell_length_b     25.078384
_cell_length_c     40.798646
_cell_angle_alpha  90.259725
_cell_angle_beta   90.076681
_cell_angle_gamma 119.45588
loop_
_atom_site_label
_atom_site_type_symbol
_atom_site_fract_x
_atom_site_fract_y
_atom_site_fract_z
_atom_type_partial_charge
Dy0 Dy 0.23644 0.0442 0.07402 0.0
C1 C 0.32985 0.25034 0.98646 0.0
C2 C 0.1666 0.96637 0.12336 0.0
Dy3 Dy 0.31936 0.16693 1.03304 0.0
O4 O 0.16607 0.0153 0.11363 0.0
O5 O 0.20641 0.95892 0.10578 0.0
O6 O 0.15666 0.03613 1.04549 0.0
O7 O 0.23123 0.12271 1.05605 0.0
C8 C 0.18171 0.09453 1.04047 0.0
C9 C 0.38006 0.1157 0.05927 0.0
O10 O 0.3347 0.20747 0.08346 0.0
O11 O 0.29895 0.11438 0.11093 0.0
O12 O 0.35863 0.21885 0.98583 0.0
O13 O 0.2996 0.23942 1.01374 0.0
O14 O 0.40721 0.17346 1.05061 0.0
O15 O 0.32513 0.08787 1.04918 0.0
O16 O 0.23337 -0.00063 1.0255 0.0
O17 O 0.27359 0.09101 0.99589 0.0
C18 C 0.32751 0.17532 0.11057 0.0
C19 C 0.247 0.03023 0.99729 0.0
Dy20 Dy 0.29085 0.23788 0.40529 0.0
C21 C 0.10835 0.24325 0.31929 0.0
C22 C 0.33336 0.19842 0.45682 0.0
Dy23 Dy 0.19432 0.25984 0.36663 0.0
O24 O 0.30816 0.16802 0.43013 0.0
O25 O 0.34185 0.25385 0.45364 0.0
O26 O 0.27991 0.17007 0.36783 0.0
O27 O 0.20333 0.17993 0.38039 0.0
C28 C 0.22252 0.15183 0.36188 0.0
C29 C 0.27213 0.35284 0.40476 0.0
O30 O 0.14494 0.23482 0.41468 0.0
O31 O 0.22369 0.23142 0.44336 0.0
O32 O 0.15998 0.29359 0.32428 0.0
O33 O 0.10336 0.20275 0.34066 0.0
O34 O 0.22009 0.34751 0.39471 0.0
O35 O 0.28213 0.3151 0.3895 0.0
O36 O 0.35256 0.28942 0.36357 0.0
O37 O 0.26941 0.27598 0.33072 0.0
C38 C 0.16999 0.22942 0.44226 0.0
C39 C 0.32844 0.2918 0.3347 0.0
Dy40 Dy 0.02412 0.25954 0.75136 0.0
C41 C 0.82735 0.11646 0.66159 0.0
C42 C 0.13095 0.30591 0.78684 0.0
Dy43 Dy 0.90137 0.2026 0.70745 0.0
O44 O 0.11079 0.26022 0.76626 0.0
O45 O 0.0945 0.32952 0.7863 0.0
O46 O -0.01736 0.17469 0.78258 0.0
O47 O 0.95515 0.17081 0.73393 0.0
C48 C 0.94286 0.14202 0.76047 0.0
C49 C 0.95163 0.32129 0.72121 0.0
O50 O 0.86401 0.19035 0.75866 0.0
O51 O 0.9544 0.26721 0.78308 0.0
O52 O 0.82099 0.16293 0.67113 0.0
O53 O 0.87239 0.11714 0.67762 0.0
O54 O 0.89345 0.28717 0.71366 0.0
O55 O -0.01955 0.29228 0.71682 0.0
O56 O 0.06294 0.26585 0.69977 0.0
O57 O -0.02687 0.23547 0.66926 0.0
C58 C 0.89448 0.22643 0.78411 0.0
C59 C 0.0327 0.25489 0.67123 0.0
Dy60 Dy 0.77277 0.0189 0.07812 0.0
C61 C 0.72402 0.82065 0.9882 0.0
C62 C 0.82645 0.11428 0.12225 0.0
Dy63 Dy 0.71615 0.89808 1.03361 0.0
O64 O 0.84977 0.11122 0.09423 0.0
O65 O 0.77078 0.06819 0.12421 0.0
O66 O 0.84772 -0.00449 0.08725 0.0
O67 O 0.80454 -0.02399 1.04311 0.0
C68 C 0.84852 -0.0232 0.05775 0.0
C69 C 0.63337 0.92056 0.06189 0.0
O70 O 0.71788 0.86392 0.08516 0.0
O71 O 0.71837 0.94535 0.11296 0.0
O72 O 0.68208 0.83736 0.98833 0.0
O73 O 0.75949 0.84408 1.01374 0.0
O74 O 0.61951 0.86612 1.05088 0.0
O75 O 0.6866 0.95956 1.05282 0.0
O76 O 0.76678 0.06092 1.03054 0.0
O77 O 0.73811 -0.02623 0.99734 0.0
C78 C 0.70965 0.88911 0.11226 0.0
C79 C 0.75507 0.03299 1.00127 0.0
Dy80 Dy 0.75473 0.7878 0.42151 0.0
C81 C 0.89575 0.76062 0.31992 0.0
C82 C 0.71205 0.84387 0.46354 0.0
Dy83 Dy 0.81182 0.72918 0.37019 0.0
O84 O 0.74811 0.86968 0.43864 0.0
O85 O 0.69517 0.78548 0.46383 0.0
O86 O 0.84862 0.84057 0.44536 0.0
O87 O 0.83933 0.81303 0.39668 0.0
C88 C 0.87615 0.83441 0.42015 0.0
C89 C 0.69788 0.6543 0.39041 0.0
O90 O 0.83633 0.70688 0.41965 0.0
O91 O 0.75989 0.71386 0.44986 0.0
O92 O 0.86197 0.7046 0.33083 0.0
O93 O 0.88344 0.7972 0.3367 0.0
O94 O 0.73242 0.63374 0.37747 0.0
O95 O 0.72321 0.71155 0.38735 0.0
O96 O 0.72334 0.80589 0.37183 0.0
O97 O 0.75838 0.75489 0.33675 0.0
C98 C 0.80298 0.69735 0.44686 0.0
C99 C 0.7299 0.78689 0.34203 0.0
Dy100 Dy 0.9573 0.7435 0.73535 0.0
C101 C 0.1484 0.92347 0.6522 0.0
C102 C 0.86957 0.70415 0.78379 0.0
Dy103 Dy 0.07558 0.83637 0.69749 0.0
O104 O 0.87675 0.74162 0.76031 0.0
O105 O 0.90819 0.6836 0.77956 0.0
O106 O 0.90539 0.76188 0.69789 0.0
O107 O -0.00932 0.83394 0.71366 0.0
C108 C 0.94417 0.81983 0.69539 0.0
C109 C 0.08669 0.75273 0.73263 0.0
O110 O 0.09998 0.88399 0.74621 0.0
O111 O 0.02278 0.80233 0.77469 0.0
O112 O 0.15152 0.87458 0.6595 0.0
O113 O 0.10594 0.92488 0.66993 0.0
O114 O 0.13421 0.80437 0.72406 0.0
O115 O 0.03981 0.74615 0.71777 0.0
O116 O 0.94192 0.68381 0.69134 0.0
O117 O 0.01442 0.76591 0.65998 0.0
C118 C 0.07298 0.85663 0.77394 0.0
C119 C -0.03165 0.7084 0.66271 0.0
H120 H -0.03712 0.04865 0.08265 0.0
H121 H 0.86405 -0.0273 0.99205 0.0
H122 H 0.05144 0.11923 1.05234 0.0
H123 H 0.95426 0.04452 0.96089 0.0
H124 H 0.13819 0.04222 0.98081 0.0
H125 H 0.05725 0.05179 0.95391 0.0
H126 H 0.10246 0.2131 1.01024 0.0
H127 H 0.18482 0.20515 1.03765 0.0
C128 C -0.03945 0.04642 0.05611 0.0
C129 C 0.90671 0.00498 1.03981 0.0
C130 C 0.01088 0.08853 1.03844 0.0
C131 C 0.00938 0.08973 1.00379 0.0
C132 C 0.95622 0.04622 0.98743 0.0
C133 C 0.90548 0.00402 1.00526 0.0
C134 C 0.13325 0.08185 0.98634 0.0
C135 C 0.16347 0.11987 1.01332 0.0
C136 C 0.08736 0.08815 0.97049 0.0
C137 C 0.06764 0.12576 0.9856 0.0
C138 C 0.11314 0.17844 1.00172 0.0
C139 C 0.15982 0.17343 1.01794 0.0
H140 H -0.03166 0.93402 0.44939 0.0
H141 H 0.93194 0.78153 0.38626 0.0
H142 H 0.06959 -0.00693 0.42486 0.0
H143 H 0.03076 0.84322 0.3589 0.0
H144 H 0.25063 0.06035 0.3651 0.0
H145 H 0.17484 0.95572 0.3785 0.0
H146 H 0.03 -0.0079 0.3496 0.0
H147 H 0.10533 0.09856 0.33884 0.0
C148 C -0.01701 0.91236 0.43117 0.0
C149 C 0.94156 0.85569 0.41753 0.0
C150 C 0.04057 0.94596 0.41709 0.0
C151 C 0.05548 0.92296 0.38916 0.0
C152 C 0.01884 0.86193 0.37984 0.0
C153 C -0.03784 0.82755 0.3949 0.0
C154 C 0.20275 0.04543 0.36006 0.0
C155 C 0.18295 0.08784 0.35264 0.0
C156 C 0.15971 -0.0147 0.36747 0.0
C157 C 0.09751 0.96756 0.36589 0.0
C158 C 0.07842 0.00608 0.35128 0.0
C159 C 0.12121 0.06688 0.3453 0.0
H160 H 0.82298 0.78754 0.68985 0.0
H161 H 0.00598 0.94396 0.69589 0.0
H162 H 0.78109 0.84732 0.71525 0.0
H163 H -0.0369 0.00447 0.71892 0.0
H164 H 0.94476 0.05815 0.80142 0.0
H165 H 0.90298 0.95228 0.78403 0.0
H166 H 0.79466 -0.02252 0.70985 0.0
H167 H 0.82986 0.08122 0.73089 0.0
C168 C 0.85394 0.83552 0.69506 0.0
C169 C 0.91829 0.86074 0.69271 0.0
C170 C 0.82966 0.86919 0.70972 0.0
C171 C 0.86963 0.92857 0.72049 0.0
C172 C 0.93213 0.95733 0.71188 0.0
C173 C 0.9566 0.92329 0.69826 0.0
C174 C 0.90851 0.03976 0.78315 0.0
C175 C 0.89533 0.07838 0.7644 0.0
C176 C 0.88416 -0.02097 0.77331 0.0
C177 C 0.85032 0.95982 0.74391 0.0
C178 C 0.82371 -0.00686 0.73145 0.0
C179 C 0.84562 0.05289 0.74251 0.0
H180 H 0.37851 0.26563 0.92467 0.0
H181 H 0.25041 0.295 0.98198 0.0
H182 H 0.34351 0.29367 0.87503 0.0
H183 H 0.21334 0.32023 0.93255 0.0
H184 H 0.16378 0.38277 0.84053 0.0
H185 H 0.22436 0.38385 0.88799 0.0
H186 H 0.25797 0.24888 0.84034 0.0
H187 H 0.19988 0.24992 0.79289 0.0
C188 C 0.34359 0.2791 0.92674 0.0
C189 C 0.31735 0.2781 0.95731 0.0
C190 C 0.32284 0.29449 0.89818 0.0
C191 C 0.27474 0.30862 0.89936 0.0
C192 C 0.25084 0.31052 0.93035 0.0
C193 C 0.27201 0.29573 0.95887 0.0
C194 C 0.18561 0.35468 0.83993 0.0
C195 C 0.17692 0.31627 0.81289 0.0
C196 C 0.21979 0.35462 0.86734 0.0
C197 C 0.24587 0.31587 0.8685 0.0
C198 C 0.23964 0.28001 0.84056 0.0
C199 C 0.20589 0.28037 0.8132 0.0
H200 H -0.00136 0.14001 0.30754 0.0
H201 H 0.11867 0.31963 0.26868 0.0
H202 H 0.92919 0.11751 0.261 0.0
H203 H 0.0488 0.29754 0.22205 0.0
H204 H 0.79045 0.10403 0.18634 0.0
H205 H 0.85639 0.141 0.23488 0.0
H206 H 0.01553 0.23424 0.17283 0.0
H207 H 0.94936 0.19777 0.12437 0.0
C208 C 0.00985 0.17503 0.28921 0.0
C209 C 0.06424 0.23164 0.2919 0.0
C210 C -0.03025 0.16228 0.26252 0.0
C211 C -0.01705 0.20566 0.23755 0.0
C212 C 0.03715 0.26271 0.24053 0.0
C213 C 0.07712 0.27558 0.26739 0.0
C214 C 0.83934 0.13377 0.18306 0.0
C215 C 0.86447 0.14801 0.15137 0.0
C216 C 0.87738 0.15437 0.21095 0.0
C217 C 0.9417 0.19002 0.208 0.0
C218 C -0.03363 0.20726 0.17627 0.0
C219 C 0.92831 0.1864 0.14837 0.0
H220 H 0.7588 0.12497 0.61058 0.0
H221 H 0.82341 0.00806 0.65083 0.0
H222 H 0.71714 0.05605 0.56279 0.0
H223 H 0.78174 0.93954 0.60389 0.0
H224 H 0.74664 0.96555 0.46614 0.0
H225 H 0.76198 0.02827 0.51504 0.0
H226 H 0.68725 0.866 0.57483 0.0
H227 H 0.67197 0.80331 0.52583 0.0
C228 C 0.76295 0.084 0.60958 0.0
C229 C 0.79417 0.07191 0.63461 0.0
C230 C 0.7395 0.0447 0.58212 0.0
C231 C 0.74581 -0.0081 0.5794 0.0
C232 C 0.77502 -0.021 0.60519 0.0
C233 C 0.79918 0.01857 0.63217 0.0
C234 C 0.73189 0.94302 0.48962 0.0
C235 C 0.7081 0.87932 0.49201 0.0
C236 C 0.74066 -0.02092 0.51772 0.0
C237 C 0.72653 0.95249 0.54907 0.0
C238 C 0.69942 0.88825 0.55119 0.0
C239 C 0.69008 0.85213 0.52303 0.0
H240 H 0.8231 0.80347 0.98014 0.0
H241 H 0.65376 0.76718 0.93334 0.0
H242 H 0.8504 0.76374 0.93213 0.0
H243 H 0.67947 0.72494 0.8857 0.0
H244 H 0.78466 0.74042 0.79064 0.0
H245 H 0.7445 0.75906 0.84075 0.0
H246 H 0.83732 0.68292 0.89697 0.0
H247 H 0.87956 0.66621 0.8461 0.0
C248 C 0.79098 0.78573 0.95982 0.0
C249 C 0.7363 0.78882 0.9606 0.0
C250 C 0.80651 0.76249 0.9322 0.0
C251 C 0.76763 0.74122 0.90449 0.0
C252 C 0.71153 0.74194 0.90603 0.0
C253 C 0.69633 0.76572 0.93355 0.0
C254 C 0.79551 0.7263 0.81361 0.0
C255 C 0.83521 0.70151 0.81421 0.0
C256 C 0.77215 0.73689 0.8426 0.0
C257 C 0.78749 0.72296 0.87342 0.0
C258 C 0.82499 0.69528 0.87392 0.0
C259 C 0.84857 0.68471 0.84469 0.0
H260 H -0.02021 0.87788 0.30786 0.0
H261 H 0.91459 0.69546 0.26959 0.0
H262 H 0.0465 0.92085 0.26098 0.0
H263 H -0.01782 0.73942 0.22146 0.0
H264 H 0.16059 0.86296 0.15289 0.0
H265 H 0.09749 0.80669 0.20069 0.0
H266 H 0.02098 0.92782 0.20324 0.0
H267 H 0.08288 -0.01695 0.15662 0.0
C268 C -0.02008 0.84666 0.28945 0.0
C269 C 0.94106 0.78309 0.29245 0.0
C270 C 0.01827 0.87152 0.26236 0.0
C271 C 0.01913 0.8339 0.23694 0.0
C272 C -0.01731 0.76982 0.24054 0.0
C273 C 0.9439 0.74461 0.26806 0.0
C274 C 0.12998 0.87712 0.16368 0.0
C275 C 0.12744 0.92805 0.15102 0.0
C276 C 0.09367 0.84479 0.19096 0.0
C277 C 0.05464 0.86319 0.20624 0.0
C278 C 0.05122 0.9129 0.19273 0.0
C279 C 0.08683 0.94462 0.16574 0.0
H280 H 0.23837 0.92551 0.61302 0.0
H281 H 0.1409 0.02394 0.6328 0.0
H282 H 0.29487 -0.00285 0.56906 0.0
H283 H 0.19605 0.09481 0.58839 0.0
H284 H 0.3165 0.08388 0.46611 0.0
H285 H 0.2784 0.02125 0.51506 0.0
H286 H 0.29146 0.17634 0.56852 0.0
H287 H 0.3287 0.23873 0.519 0.0
C288 C 0.22913 0.96261 0.60803 0.0
C289 C 0.18498 0.96883 0.6264 0.0
C290 C 0.26134 0.00365 0.58265 0.0
C291 C 0.25027 0.05214 0.57484 0.0
C292 C 0.20683 0.0589 0.5938 0.0
C293 C 0.17472 0.01788 0.61919 0.0
C294 C 0.31299 0.10516 0.48857 0.0
C295 C 0.32625 0.16656 0.48861 0.0
C296 C 0.29092 0.06909 0.51678 0.0
C297 C 0.28104 0.09316 0.54598 0.0
C298 C 0.29744 0.15567 0.54647 0.0
C299 C 0.31987 0.19191 0.51819 0.0
H300 H 0.5027 0.16494 0.06779 0.0
H301 H 0.33099 -0.00354 0.07778 0.0
H302 H 0.5586 0.1109 0.07872 0.0
H303 H 0.38692 0.942 0.09047 0.0
H304 H 0.51056 0.86464 1.0497 0.0
H305 H 0.44391 0.90846 0.05915 0.0
H306 H 0.58998 0.05813 0.11332 0.0
H307 H 0.65736 0.01615 0.10158 0.0
C308 C 0.47696 0.11648 0.07321 0.0
C309 C 0.41277 0.08457 0.07138 0.0
C310 C 0.50896 0.08537 0.07985 0.0
C311 C 0.47734 0.02174 0.08531 0.0
C312 C 0.41274 -0.00929 0.08576 0.0
C313 C 0.3807 0.02185 0.07866 0.0
C314 C 0.52767 0.90612 0.06425 0.0
C315 C 0.58915 0.93789 0.07441 0.0
C316 C 0.48945 0.93119 0.06989 0.0
C317 C 0.512 -0.01224 0.08637 0.0
C318 C 0.57172 0.01564 0.0996 0.0
C319 C 0.61023 -0.00855 0.09316 0.0
H320 H 0.31293 0.4702 0.3858 0.0
H321 H 0.34808 0.35902 0.45307 0.0
H322 H 0.41893 0.55257 0.39219 0.0
H323 H 0.45396 0.44115 0.45987 0.0
H324 H 0.63755 0.53128 0.39985 0.0
H325 H 0.53044 0.46719 0.41543 0.0
H326 H 0.51008 0.628 0.42489 0.0
H327 H 0.61756 0.69219 0.40915 0.0
C328 C 0.34251 0.46478 0.40331 0.0
C329 C 0.32325 0.4084 0.41866 0.0
C330 C 0.4033 0.51173 0.40687 0.0
C331 C 0.44504 0.5025 0.42588 0.0
C332 C 0.4231 0.44888 0.44449 0.0
C333 C 0.3626 0.40208 0.44078 0.0
C334 C 0.61039 0.55289 0.40574 0.0
C335 C 0.63534 0.61633 0.40297 0.0
C336 C 0.54928 0.5164 0.41499 0.0
C337 C 0.51195 0.54272 0.4215 0.0
C338 C 0.53774 0.60657 0.41993 0.0
C339 C 0.5991 0.64314 0.41093 0.0
H340 H 0.89364 0.38613 0.7331 0.0
H341 H 0.07297 0.40062 0.73378 0.0
H342 H 0.93948 0.49395 0.74689 0.0
H343 H 0.1195 0.5094 0.74838 0.0
H344 H 0.16001 0.70733 0.71271 0.0
H345 H 0.13534 0.60082 0.71896 0.0
H346 H -0.00784 0.57193 0.78767 0.0
H347 H 0.01543 0.67759 0.78006 0.0
C348 C 0.94291 0.41237 0.73671 0.0
C349 C -0.02013 0.38545 0.73205 0.0
C350 C -0.03075 0.47408 0.74504 0.0
C351 C 0.03325 0.51031 0.74901 0.0
C352 C 0.07014 0.48274 0.74539 0.0
C353 C 0.04358 0.42065 0.73706 0.0
C354 C 0.1252 0.67876 0.73022 0.0
C355 C 0.08904 0.69979 0.74571 0.0
C356 C 0.1109 0.61771 0.7338 0.0
C357 C 0.06062 0.57752 0.75313 0.0
C358 C 0.03001 0.60135 0.77189 0.0
C359 C 0.04359 0.66185 0.76783 0.0
H360 H 0.33597 0.1251 0.16804 0.0
H361 H 0.37556 0.29803 0.12527 0.0
H362 H 0.36318 0.17243 0.22158 0.0
H363 H 0.4049 0.34644 0.17945 0.0
H364 H 0.32302 0.3546 0.28247 0.0
H365 H 0.3456 0.34057 0.22639 0.0
H366 H 0.43498 0.24115 0.26082 0.0
H367 H 0.41019 0.25386 0.31734 0.0
C368 C 0.35153 0.17366 0.16992 0.0
C369 C 0.35224 0.20742 0.14231 0.0
C370 C 0.36818 0.20118 0.20078 0.0
C371 C 0.38622 0.26341 0.20507 0.0
C372 C 0.39057 0.29822 0.17713 0.0
C373 C 0.37381 0.27051 0.14606 0.0
C374 C 0.34971 0.33187 0.27814 0.0
C375 C 0.36402 0.30446 0.30414 0.0
C376 C 0.36289 0.32391 0.24586 0.0
C377 C 0.39067 0.28823 0.23889 0.0
C378 C 0.41211 0.26759 0.2653 0.0
C379 C 0.3988 0.27562 0.29774 0.0
H380 H 0.16767 0.16571 0.49637 0.0
H381 H 0.11669 0.29658 0.4614 0.0
H382 H 0.14136 0.17903 0.55211 0.0
H383 H 0.09417 0.31351 0.51728 0.0
H384 H -0.00191 0.28414 0.6146 0.0
H385 H 0.0284 0.27607 0.55982 0.0
H386 H 0.16963 0.24146 0.59847 0.0
H387 H 0.13523 0.24523 0.65437 0.0
C388 C 0.14991 0.19679 0.50066 0.0
C389 C 0.14275 0.22904 0.47445 0.0
C390 C 0.13605 0.2055 0.53278 0.0
C391 C 0.116 0.24786 0.53973 0.0
C392 C 0.10819 0.27951 0.5132 0.0
C393 C 0.12071 0.26965 0.48096 0.0
C394 C 0.0361 0.27531 0.61162 0.0
C395 C 0.06368 0.26449 0.63901 0.0
C396 C 0.05403 0.27122 0.57986 0.0
C397 C 0.10129 0.25745 0.57417 0.0
C398 C 0.13195 0.25064 0.60168 0.0
C399 C 0.11318 0.25394 0.63383 0.0
H400 H 0.94661 0.27387 0.84391 0.0
H401 H 0.77352 0.14735 0.79833 0.0
H402 H 0.90387 0.23387 0.89741 0.0
H403 H 0.72992 0.10892 0.85216 0.0
H404 H 0.71895 -0.01175 0.93943 0.0
H405 H 0.7443 0.04404 0.88857 0.0
H406 H 0.83511 0.21515 0.94222 0.0
H407 H 0.81111 0.15847 0.9938 0.0
C408 C 0.89878 0.23881 0.84529 0.0
C409 C 0.8639 0.21311 0.81661 0.0
C410 C 0.87409 0.21598 0.87618 0.0
C411 C 0.8137 0.1672 0.87922 0.0
C412 C 0.77714 0.14539 0.85074 0.0
C413 C 0.80201 0.16782 0.81981 0.0
C414 C 0.74377 0.03782 0.94064 0.0
C415 C 0.76357 0.06875 0.97087 0.0
C416 C 0.75779 0.07003 0.91125 0.0
C417 C 0.79187 0.13433 0.91106 0.0
C418 C 0.80936 0.16561 0.94138 0.0
C419 C 0.79526 0.13315 0.97099 0.0
H420 H 0.64132 0.90389 0.15861 0.0
H421 H 0.73734 0.80384 0.13828 0.0
H422 H 0.63194 0.87475 0.21594 0.0
H423 H 0.72617 0.77299 0.19616 0.0
H424 H 0.66069 0.69922 0.29856 0.0
H425 H 0.64312 0.71437 0.2414 0.0
H426 H 0.71882 0.90776 0.26018 0.0
H427 H 0.73797 0.89265 0.31763 0.0
C428 C 0.6593 0.87441 0.16627 0.0
C429 C 0.69088 0.85674 0.14398 0.0
C430 C 0.65404 0.85807 0.19918 0.0
C431 C 0.67916 0.8226 0.21057 0.0
C432 C 0.7064 0.80054 0.1879 0.0
C433 C 0.71244 0.81769 0.15477 0.0
C434 C 0.6718 0.74476 0.29072 0.0
C435 C 0.70066 0.79488 0.31247 0.0
C436 C 0.66237 0.75338 0.25794 0.0
C437 C 0.68065 0.81222 0.24627 0.0
C438 C 0.70436 0.86178 0.26864 0.0
C439 C 0.71464 0.85321 0.30157 0.0
H440 H 0.74735 0.67525 0.50669 0.0
H441 H 0.89186 0.6638 0.45468 0.0
H442 H 0.78248 0.65438 0.55767 0.0
H443 H 0.92565 0.63989 0.50597 0.0
H444 H 0.02694 0.72469 0.60475 0.0
H445 H -0.01995 0.70054 0.55097 0.0
H446 H 0.80117 0.59439 0.59517 0.0
H447 H 0.84874 0.62135 0.64957 0.0
C448 C 0.78581 0.66675 0.50592 0.0
C449 C 0.81759 0.67264 0.47653 0.0
C450 C 0.80564 0.65394 0.53535 0.0
C451 C 0.85757 0.64609 0.53628 0.0
C452 C 0.88631 0.64699 0.5064 0.0
C453 C 0.86673 0.66041 0.47689 0.0
C454 C -0.02229 0.69473 0.60303 0.0
C455 C 0.94142 0.67599 0.63144 0.0
C456 C 0.95065 0.68041 0.57199 0.0
C457 C 0.88643 0.64659 0.56849 0.0
C458 C 0.85066 0.62194 0.59691 0.0
C459 C 0.87792 0.6366 0.62815 0.0
H460 H 0.19421 0.936 0.78794 0.0
H461 H 0.01555 0.83674 0.83281 0.0
H462 H 0.2409 0.97069 0.84199 0.0
H463 H 0.06136 0.87334 0.88655 0.0
H464 H 0.29219 0.07914 0.9378 0.0
H465 H 0.25193 0.03696 0.88445 0.0
H466 H 0.12146 0.8657 0.92897 0.0
H467 H 0.16029 0.90994 0.98338 0.0
C468 C 0.16482 0.92263 0.80929 0.0
C469 C 0.10124 0.88397 0.80605 0.0
C470 C 0.1915 0.94233 0.84039 0.0
C471 C 0.15509 0.92464 0.86895 0.0
C472 C 0.09127 0.8868 0.86543 0.0
C473 C 0.06482 0.86647 0.83446 0.0
C474 C 0.25521 0.03217 0.93643 0.0
C475 C 0.22904 -0.00185 0.96509 0.0
C476 C 0.23235 0.00767 0.90552 0.0
C477 C 0.18293 0.94791 0.90206 0.0
C478 C 0.15879 0.9124 0.93063 0.0
C479 C 0.18156 0.93732 0.96186 0.0
loop_
_geom_bond_atom_site_label_1
_geom_bond_atom_site_label_2
_geom_bond_distance
_geom_bond_site_symmetry_2
_ccdc_geom_bond_type
Dy0 O4 2.398 1_545 S
Dy0 O5 2.491 1_545 S
Dy0 O6 2.403 . S
Dy0 O7 2.664 1_554 S
Dy0 O11 2.326 . S
Dy0 O15 2.310 . S
Dy0 O16 2.351 1_544 S
C1 O12 1.185 . S
C1 O13 1.355 . S
C2 O4 1.185 . S
C2 O5 1.355 . S
Dy3 O7 2.310 . S
Dy3 O10 2.351 1_556 S
Dy3 O12 2.398 . S
Dy3 O13 2.491 . S
Dy3 O14 2.403 . S
Dy3 O15 2.664 1_556 S
Dy3 O17 2.326 . S
O4 Dy0 2.398 1_565 S
O4 C2 1.185 . S
O5 Dy0 2.491 1_565 S
O5 C2 1.355 . S
O6 Dy0 2.403 . S
O6 C8 1.254 . S
O7 Dy0 2.664 1_556 S
O7 Dy3 2.310 . S
O7 C8 1.268 1_556 S
C8 O6 1.254 . S
C8 O7 1.268 1_554 S
C9 O14 1.237 1_554 S
C9 O15 1.277 . S
O10 Dy3 2.351 1_554 S
O10 C18 1.249 . S
O11 Dy0 2.326 . S
O11 C18 1.267 . S
O12 C1 1.185 . S
O12 Dy3 2.398 . S
O13 C1 1.355 . S
O13 Dy3 2.491 . S
O14 Dy3 2.403 . S
O14 C9 1.237 1_556 S
O15 Dy0 2.310 . S
O15 Dy3 2.664 1_554 S
O15 C9 1.277 . S
O16 Dy0 2.351 1_566 S
O16 C19 1.249 1_565 S
O17 Dy3 2.326 . S
O17 C19 1.267 . S
C18 O10 1.249 . S
C18 O11 1.267 . S
C19 O16 1.249 1_545 S
C19 O17 1.267 . S
Dy20 O24 2.398 . S
Dy20 O25 2.491 . S
Dy20 O26 2.403 . S
Dy20 O27 2.664 . S
Dy20 O31 2.326 . S
Dy20 O35 2.310 . S
Dy20 O36 2.351 . S
C21 O32 1.185 . S
C21 O33 1.355 . S
C22 O24 1.185 . S
C22 O25 1.355 . S
Dy23 O27 2.310 . S
Dy23 O30 2.351 . S
Dy23 O32 2.398 . S
Dy23 O33 2.491 . S
Dy23 O34 2.403 . S
Dy23 O35 2.664 . S
Dy23 O37 2.326 . S
O24 Dy20 2.398 . S
O24 C22 1.185 . S
O25 Dy20 2.491 . S
O25 C22 1.355 . S
O26 Dy20 2.403 . S
O26 C28 1.254 . S
O27 Dy20 2.664 . S
O27 Dy23 2.310 . S
O27 C28 1.268 . S
C28 O26 1.254 . S
C28 O27 1.268 . S
C29 O34 1.254 . S
C29 O35 1.268 . S
O30 Dy23 2.351 . S
O30 C38 1.249 . S
O31 Dy20 2.326 . S
O31 C38 1.267 . S
O32 C21 1.185 . S
O32 Dy23 2.398 . S
O33 C21 1.355 . S
O33 Dy23 2.491 . S
O34 Dy23 2.403 . S
O34 C29 1.254 . S
O35 Dy20 2.310 . S
O35 Dy23 2.664 . S
O35 C29 1.268 . S
O36 Dy20 2.351 . S
O36 C39 1.249 . S
O37 Dy23 2.326 . S
O37 C39 1.267 . S
C38 O30 1.249 . S
C38 O31 1.267 . S
C39 O36 1.249 . S
C39 O37 1.267 . S
Dy40 O44 2.398 . S
Dy40 O45 2.491 . S
Dy40 O46 2.403 . S
Dy40 O47 2.664 1_455 S
Dy40 O51 2.326 1_455 S
Dy40 O55 2.310 . S
Dy40 O56 2.351 . S
C41 O52 1.185 . S
C41 O53 1.355 . S
C42 O44 1.185 . S
C42 O45 1.355 . S
Dy43 O47 2.310 . S
Dy43 O50 2.351 . S
Dy43 O52 2.398 . S
Dy43 O53 2.491 . S
Dy43 O54 2.403 . S
Dy43 O55 2.664 1_655 S
Dy43 O57 2.326 1_655 S
O44 Dy40 2.398 . S
O44 C42 1.185 . S
O45 Dy40 2.491 . S
O45 C42 1.355 . S
O46 Dy40 2.403 . S
O46 C48 1.254 . S
O47 Dy40 2.664 1_655 S
O47 Dy43 2.310 . S
O47 C48 1.268 1_655 S
C48 O46 1.254 . S
C48 O47 1.268 1_455 S
C49 O54 1.254 . S
C49 O55 1.268 1_655 S
O50 Dy43 2.351 . S
O50 C58 1.249 . S
O51 Dy40 2.326 1_655 S
O51 C58 1.267 . S
O52 C41 1.185 . S
O52 Dy43 2.398 . S
O53 C41 1.355 . S
O53 Dy43 2.491 . S
O54 Dy43 2.403 . S
O54 C49 1.254 . S
O55 Dy40 2.310 . S
O55 Dy43 2.664 1_455 S
O55 C49 1.268 1_455 S
O56 Dy40 2.351 . S
O56 C59 1.249 . S
O57 Dy43 2.326 1_455 S
O57 C59 1.267 . S
C58 O50 1.249 . S
C58 O51 1.267 . S
C59 O56 1.249 . S
C59 O57 1.267 . S
Dy60 O64 2.398 . S
Dy60 O65 2.491 . S
Dy60 O66 2.403 . S
Dy60 O67 2.664 1_544 S
Dy60 O71 2.326 1_545 S
Dy60 O75 2.310 . S
Dy60 O76 2.351 1_554 S
C61 O72 1.185 . S
C61 O73 1.355 . S
C62 O64 1.185 . S
C62 O65 1.355 . S
Dy63 O67 2.310 . S
Dy63 O70 2.351 1_556 S
Dy63 O72 2.398 . S
Dy63 O73 2.491 . S
Dy63 O74 2.403 . S
Dy63 O75 2.664 1_566 S
Dy63 O77 2.326 1_565 S
O64 Dy60 2.398 . S
O64 C62 1.185 . S
O65 Dy60 2.491 . S
O65 C62 1.355 . S
O66 Dy60 2.403 . S
O66 C68 1.254 . S
O67 Dy60 2.664 1_566 S
O67 Dy63 2.310 . S
O67 C68 1.268 1_566 S
C68 O66 1.254 . S
C68 O67 1.268 1_544 S
C69 O74 1.237 1_554 S
C69 O75 1.277 1_565 S
O70 Dy63 2.351 1_554 S
O70 C78 1.249 . S
O71 Dy60 2.326 1_565 S
O71 C78 1.267 . S
O72 C61 1.185 . S
O72 Dy63 2.398 . S
O73 C61 1.355 . S
O73 Dy63 2.491 . S
O74 Dy63 2.403 . S
O74 C69 1.237 1_556 S
O75 Dy60 2.310 . S
O75 Dy63 2.664 1_544 S
O75 C69 1.277 1_545 S
O76 Dy60 2.351 1_556 S
O76 C79 1.249 . S
O77 Dy63 2.326 1_545 S
O77 C79 1.267 . S
C78 O70 1.249 . S
C78 O71 1.267 . S
C79 O76 1.249 . S
C79 O77 1.267 . S
Dy80 O84 2.398 . S
Dy80 O85 2.491 . S
Dy80 O86 2.403 . S
Dy80 O87 2.664 . S
Dy80 O91 2.326 . S
Dy80 O95 2.310 . S
Dy80 O96 2.351 . S
C81 O92 1.185 . S
C81 O93 1.355 . S
C82 O84 1.185 . S
C82 O85 1.355 . S
Dy83 O87 2.310 . S
Dy83 O90 2.351 . S
Dy83 O92 2.398 . S
Dy83 O93 2.491 . S
Dy83 O94 2.403 . S
Dy83 O95 2.664 . S
Dy83 O97 2.326 . S
O84 Dy80 2.398 . S
O84 C82 1.185 . S
O85 Dy80 2.491 . S
O85 C82 1.355 . S
O86 Dy80 2.403 . S
O86 C88 1.254 . S
O87 Dy80 2.664 . S
O87 Dy83 2.310 . S
O87 C88 1.268 . S
C88 O86 1.254 . S
C88 O87 1.268 . S
C89 O94 1.254 . S
C89 O95 1.268 . S
O90 Dy83 2.351 . S
O90 C98 1.249 . S
O91 Dy80 2.326 . S
O91 C98 1.267 . S
O92 C81 1.185 . S
O92 Dy83 2.398 . S
O93 C81 1.355 . S
O93 Dy83 2.491 . S
O94 Dy83 2.403 . S
O94 C89 1.254 . S
O95 Dy80 2.310 . S
O95 Dy83 2.664 . S
O95 C89 1.268 . S
O96 Dy80 2.351 . S
O96 C99 1.249 . S
O97 Dy83 2.326 . S
O97 C99 1.267 . S
C98 O90 1.249 . S
C98 O91 1.267 . S
C99 O96 1.249 . S
C99 O97 1.267 . S
Dy100 O104 2.398 1_455 S
Dy100 O105 2.491 1_455 S
Dy100 O106 2.403 . S
Dy100 O107 2.664 . S
Dy100 O111 2.326 . S
Dy100 O115 2.310 . S
Dy100 O116 2.351 1_455 S
C101 O112 1.185 . S
C101 O113 1.355 . S
C102 O104 1.185 . S
C102 O105 1.355 . S
Dy103 O107 2.310 . S
Dy103 O110 2.351 . S
Dy103 O112 2.398 . S
Dy103 O113 2.491 . S
Dy103 O114 2.403 . S
Dy103 O115 2.664 . S
Dy103 O117 2.326 . S
O104 Dy100 2.398 1_655 S
O104 C102 1.185 . S
O105 Dy100 2.491 1_655 S
O105 C102 1.355 . S
O106 Dy100 2.403 . S
O106 C108 1.254 . S
O107 Dy100 2.664 . S
O107 Dy103 2.310 . S
O107 C108 1.268 . S
C108 O106 1.254 . S
C108 O107 1.268 . S
C109 O114 1.254 . S
C109 O115 1.268 . S
O110 Dy103 2.351 . S
O110 C118 1.249 . S
O111 Dy100 2.326 . S
O111 C118 1.267 . S
O112 C101 1.185 . S
O112 Dy103 2.398 . S
O113 C101 1.355 . S
O113 Dy103 2.491 . S
O114 Dy103 2.403 . S
O114 C109 1.254 . S
O115 Dy100 2.310 . S
O115 Dy103 2.664 . S
O115 C109 1.268 . S
O116 Dy100 2.351 1_655 S
O116 C119 1.249 1_655 S
O117 Dy103 2.326 . S
O117 C119 1.267 . S
C118 O110 1.249 . S
C118 O111 1.267 . S
C119 O116 1.249 1_455 S
C119 O117 1.267 . S
H120 C128 0.950 . S
H121 C133 0.950 . S
H122 C130 0.950 1_455 S
H123 C132 0.950 . S
H124 C134 0.950 . S
H125 C136 0.950 . S
H126 C138 0.950 . S
H127 C139 0.950 . S
C128 H120 0.950 . S
C128 C129 1.386 1_544 S
C128 C130 1.391 . S
C129 C128 1.386 1_566 S
C129 C133 1.393 . S
C130 H122 0.950 1_655 S
C130 C128 1.391 . S
C130 C131 1.400 1_654 S
C131 C130 1.400 1_456 S
C131 C132 1.398 1_445 S
C131 C137 1.491 . S
C132 H123 0.950 . S
C132 C131 1.398 1_665 S
C132 C133 1.391 . S
C133 H121 0.950 . S
C133 C129 1.393 . S
C133 C132 1.391 . S
C134 H124 0.950 . S
C134 C135 1.386 . S
C134 C136 1.391 . S
C135 C134 1.386 . S
C135 C139 1.393 1_556 S
C136 H125 0.950 . S
C136 C134 1.391 . S
C136 C137 1.400 . S
C137 C131 1.491 . S
C137 C136 1.400 . S
C137 C138 1.398 1_556 S
C138 H126 0.950 . S
C138 C137 1.398 1_554 S
C138 C139 1.391 . S
C139 H127 0.950 . S
C139 C135 1.393 1_554 S
C139 C138 1.391 . S
H140 C148 0.950 . S
H141 C153 0.950 . S
H142 C150 0.950 1_545 S
H143 C152 0.950 . S
H144 C154 0.950 . S
H145 C156 0.950 . S
H146 C158 0.950 . S
H147 C159 0.950 . S
C148 H140 0.950 . S
C148 C149 1.386 . S
C148 C150 1.391 . S
C149 C148 1.386 . S
C149 C153 1.393 . S
C150 H142 0.950 1_565 S
C150 C148 1.391 . S
C150 C151 1.400 1_665 S
C151 C150 1.400 1_445 S
C151 C152 1.398 1_545 S
C151 C157 1.491 . S
C152 H143 0.950 . S
C152 C151 1.398 1_565 S
C152 C153 1.391 1_455 S
C153 H141 0.950 . S
C153 C149 1.393 . S
C153 C152 1.391 1_655 S
C154 H144 0.950 . S
C154 C155 1.386 . S
C154 C156 1.391 . S
C155 C154 1.386 . S
C155 C159 1.393 . S
C156 H145 0.950 . S
C156 C154 1.391 . S
C156 C157 1.400 . S
C157 C151 1.491 . S
C157 C156 1.400 . S
C157 C158 1.398 . S
C158 H146 0.950 . S
C158 C157 1.398 . S
C158 C159 1.391 . S
C159 H147 0.950 . S
C159 C155 1.393 . S
C159 C158 1.391 . S
H160 C168 0.950 . S
H161 C173 0.950 1_545 S
H162 C170 0.950 1_655 S
H163 C172 0.950 . S
H164 C174 0.950 . S
H165 C176 0.950 . S
H166 C178 0.950 . S
H167 C179 0.950 . S
C168 H160 0.950 . S
C168 C169 1.386 . S
C168 C170 1.391 . S
C169 C168 1.386 . S
C169 C173 1.393 . S
C170 H162 0.950 1_455 S
C170 C168 1.391 . S
C170 C171 1.400 1_565 S
C171 C170 1.400 1_545 S
C171 C172 1.398 . S
C171 C177 1.491 . S
C172 H163 0.950 . S
C172 C171 1.398 . S
C172 C173 1.391 1_545 S
C173 H161 0.950 1_565 S
C173 C169 1.393 . S
C173 C172 1.391 1_565 S
C174 H164 0.950 . S
C174 C175 1.386 1_455 S
C174 C176 1.391 . S
C175 C174 1.386 1_655 S
C175 C179 1.393 . S
C176 H165 0.950 . S
C176 C174 1.391 . S
C176 C177 1.400 . S
C177 C171 1.491 . S
C177 C176 1.400 . S
C177 C178 1.398 1_455 S
C178 H166 0.950 . S
C178 C177 1.398 1_655 S
C178 C179 1.391 . S
C179 H167 0.950 . S
C179 C175 1.393 . S
C179 C178 1.391 . S
H180 C188 0.950 . S
H181 C193 0.950 . S
H182 C190 0.950 . S
H183 C192 0.950 . S
H184 C194 0.950 . S
H185 C196 0.950 . S
H186 C198 0.950 . S
H187 C199 0.950 . S
C188 H180 0.950 . S
C188 C189 1.386 . S
C188 C190 1.391 . S
C189 C188 1.386 . S
C189 C193 1.393 . S
C190 H182 0.950 . S
C190 C188 1.391 . S
C190 C191 1.400 . S
C191 C190 1.400 . S
C191 C192 1.398 . S
C191 C197 1.491 . S
C192 H183 0.950 . S
C192 C191 1.398 . S
C192 C193 1.391 . S
C193 H181 0.950 . S
C193 C189 1.393 . S
C193 C192 1.391 . S
C194 H184 0.950 . S
C194 C195 1.386 . S
C194 C196 1.391 . S
C195 C194 1.386 . S
C195 C199 1.393 . S
C196 H185 0.950 . S
C196 C194 1.391 . S
C196 C197 1.400 . S
C197 C191 1.491 . S
C197 C196 1.400 . S
C197 C198 1.398 . S
C198 H186 0.950 . S
C198 C197 1.398 . S
C198 C199 1.391 . S
C199 H187 0.950 . S
C199 C195 1.393 . S
C199 C198 1.391 . S
H200 C208 0.950 . S
H201 C213 0.950 . S
H202 C210 0.950 . S
H203 C212 0.950 . S
H204 C214 0.950 . S
H205 C216 0.950 . S
H206 C218 0.950 . S
H207 C219 0.950 . S
C208 H200 0.950 . S
C208 C209 1.386 . S
C208 C210 1.391 . S
C209 C208 1.386 . S
C209 C213 1.393 . S
C210 H202 0.950 . S
C210 C208 1.391 . S
C210 C211 1.400 . S
C211 C210 1.400 . S
C211 C212 1.398 . S
C211 C217 1.491 1_455 S
C212 H203 0.950 . S
C212 C211 1.398 . S
C212 C213 1.391 . S
C213 H201 0.950 . S
C213 C209 1.393 . S
C213 C212 1.391 . S
C214 H204 0.950 . S
C214 C215 1.386 . S
C214 C216 1.391 . S
C215 C214 1.386 . S
C215 C219 1.393 . S
C216 H205 0.950 . S
C216 C214 1.391 . S
C216 C217 1.400 . S
C217 C211 1.491 1_655 S
C217 C216 1.400 . S
C217 C218 1.398 . S
C218 H206 0.950 . S
C218 C217 1.398 . S
C218 C219 1.391 . S
C219 H207 0.950 . S
C219 C215 1.393 . S
C219 C218 1.391 . S
H220 C228 0.950 . S
H221 C233 0.950 . S
H222 C230 0.950 . S
H223 C232 0.950 . S
H224 C234 0.950 . S
H225 C236 0.950 . S
H226 C238 0.950 . S
H227 C239 0.950 . S
C228 H220 0.950 . S
C228 C229 1.386 . S
C228 C230 1.391 . S
C229 C228 1.386 . S
C229 C233 1.393 . S
C230 H222 0.950 . S
C230 C228 1.391 . S
C230 C231 1.400 . S
C231 C230 1.400 . S
C231 C232 1.398 . S
C231 C237 1.491 1_545 S
C232 H223 0.950 . S
C232 C231 1.398 . S
C232 C233 1.391 . S
C233 H221 0.950 . S
C233 C229 1.393 . S
C233 C232 1.391 . S
C234 H224 0.950 . S
C234 C235 1.386 . S
C234 C236 1.391 . S
C235 C234 1.386 . S
C235 C239 1.393 . S
C236 H225 0.950 . S
C236 C234 1.391 . S
C236 C237 1.400 . S
C237 C231 1.491 1_565 S
C237 C236 1.400 . S
C237 C238 1.398 . S
C238 H226 0.950 . S
C238 C237 1.398 . S
C238 C239 1.391 . S
C239 H227 0.950 . S
C239 C235 1.393 . S
C239 C238 1.391 . S
H240 C248 0.950 . S
H241 C253 0.950 . S
H242 C250 0.950 . S
H243 C252 0.950 . S
H244 C254 0.950 . S
H245 C256 0.950 . S
H246 C258 0.950 . S
H247 C259 0.951 1_455 S
C248 H240 0.950 . S
C248 C249 1.386 . S
C248 C250 1.391 . S
C249 C248 1.386 . S
C249 C253 1.393 . S
C250 H242 0.950 . S
C250 C248 1.391 . S
C250 C251 1.400 . S
C251 C250 1.400 . S
C251 C252 1.398 . S
C251 C257 1.491 . S
C252 H243 0.950 . S
C252 C251 1.398 . S
C252 C253 1.391 . S
C253 H241 0.950 . S
C253 C249 1.393 . S
C253 C252 1.391 . S
C254 H244 0.950 . S
C254 C255 1.386 . S
C254 C256 1.391 . S
C255 C254 1.386 . S
C255 C259 1.393 . S
C256 H245 0.950 . S
C256 C254 1.391 . S
C256 C257 1.400 . S
C257 C251 1.491 . S
C257 C256 1.400 . S
C257 C258 1.398 . S
C258 H246 0.950 . S
C258 C257 1.398 . S
C258 C259 1.391 . S
C259 H247 0.951 1_655 S
C259 C255 1.393 . S
C259 C258 1.391 . S
H260 C268 0.950 . S
H261 C273 0.948 . S
H262 C270 0.950 . S
H263 C272 0.950 . S
H264 C274 0.950 . S
H265 C276 0.950 . S
H266 C278 0.950 . S
H267 C279 0.950 1_545 S
C268 H260 0.950 . S
C268 C269 1.386 . S
C268 C270 1.391 1_655 S
C269 C268 1.386 . S
C269 C273 1.393 1_655 S
C270 H262 0.950 . S
C270 C268 1.391 1_455 S
C270 C271 1.400 . S
C271 C270 1.400 . S
C271 C272 1.398 . S
C271 C277 1.491 . S
C272 H263 0.950 . S
C272 C271 1.398 . S
C272 C273 1.391 . S
C273 H261 0.948 . S
C273 C269 1.393 1_455 S
C273 C272 1.391 . S
C274 H264 0.950 . S
C274 C275 1.386 . S
C274 C276 1.391 . S
C275 C274 1.386 . S
C275 C279 1.393 . S
C276 H265 0.950 . S
C276 C274 1.391 . S
C276 C277 1.400 . S
C277 C271 1.491 . S
C277 C276 1.400 . S
C277 C278 1.398 . S
C278 H266 0.950 . S
C278 C277 1.398 . S
C278 C279 1.391 . S
C279 H267 0.950 1_565 S
C279 C275 1.393 . S
C279 C278 1.391 . S
H280 C288 0.950 . S
H281 C293 0.950 . S
H282 C290 0.950 . S
H283 C292 0.950 . S
H284 C294 0.950 . S
H285 C296 0.950 . S
H286 C298 0.950 . S
H287 C299 0.950 . S
C288 H280 0.950 . S
C288 C289 1.386 . S
C288 C290 1.391 1_565 S
C289 C288 1.386 . S
C289 C293 1.393 . S
C290 H282 0.950 . S
C290 C288 1.391 1_545 S
C290 C291 1.400 . S
C291 C290 1.400 . S
C291 C292 1.398 . S
C291 C297 1.491 . S
C292 H283 0.950 . S
C292 C291 1.398 . S
C292 C293 1.391 1_545 S
C293 H281 0.950 . S
C293 C289 1.393 . S
C293 C292 1.391 1_565 S
C294 H284 0.950 . S
C294 C295 1.386 . S
C294 C296 1.391 . S
C295 C294 1.386 . S
C295 C299 1.393 . S
C296 H285 0.950 . S
C296 C294 1.391 . S
C296 C297 1.400 . S
C297 C291 1.491 . S
C297 C296 1.400 . S
C297 C298 1.398 . S
C298 H286 0.950 . S
C298 C297 1.398 . S
C298 C299 1.391 . S
C299 H287 0.950 . S
C299 C295 1.393 . S
C299 C298 1.391 . S
H300 C308 0.950 . S
H301 C313 0.950 . S
H302 C310 0.950 . S
H303 C312 0.950 . S
H304 C314 0.950 . S
H305 C316 0.950 1_565 S
H306 C318 0.950 . S
H307 C319 0.950 . S
C308 H300 0.950 . S
C308 C309 1.386 1_556 S
C308 C310 1.391 . S
C309 C308 1.386 1_554 S
C309 C313 1.393 . S
C310 H302 0.950 . S
C310 C308 1.391 . S
C310 C311 1.400 1_556 S
C311 C310 1.400 1_554 S
C311 C312 1.398 . S
C311 C317 1.491 . S
C312 H303 0.950 . S
C312 C311 1.398 . S
C312 C313 1.391 . S
C313 H301 0.950 . S
C313 C309 1.393 . S
C313 C312 1.391 . S
C314 H304 0.950 . S
C314 C315 1.386 . S
C314 C316 1.391 1_565 S
C315 C314 1.386 . S
C315 C319 1.393 1_564 S
C316 H305 0.950 1_545 S
C316 C314 1.391 1_545 S
C316 C317 1.400 . S
C317 C311 1.491 . S
C317 C316 1.400 . S
C317 C318 1.398 1_554 S
C318 H306 0.950 . S
C318 C317 1.398 1_556 S
C318 C319 1.391 . S
C319 H307 0.950 . S
C319 C315 1.393 1_546 S
C319 C318 1.391 . S
H320 C328 0.950 . S
H321 C333 0.950 . S
H322 C330 0.950 . S
H323 C332 0.950 . S
H324 C334 0.950 . S
H325 C336 0.950 . S
H326 C338 0.950 . S
H327 C339 0.950 . S
C328 H320 0.950 . S
C328 C329 1.386 . S
C328 C330 1.391 . S
C329 C328 1.386 . S
C329 C333 1.393 . S
C330 H322 0.950 . S
C330 C328 1.391 . S
C330 C331 1.400 . S
C331 C330 1.400 . S
C331 C332 1.398 . S
C331 C337 1.491 . S
C332 H323 0.950 . S
C332 C331 1.398 . S
C332 C333 1.391 . S
C333 H321 0.950 . S
C333 C329 1.393 . S
C333 C332 1.391 . S
C334 H324 0.950 . S
C334 C335 1.386 . S
C334 C336 1.391 . S
C335 C334 1.386 . S
C335 C339 1.393 . S
C336 H325 0.950 . S
C336 C334 1.391 . S
C336 C337 1.400 . S
C337 C331 1.491 . S
C337 C336 1.400 . S
C337 C338 1.398 . S
C338 H326 0.950 . S
C338 C337 1.398 . S
C338 C339 1.391 . S
C339 H327 0.950 . S
C339 C335 1.393 . S
C339 C338 1.391 . S
H340 C348 0.950 . S
H341 C353 0.950 . S
H342 C350 0.950 . S
H343 C352 0.950 . S
H344 C354 0.950 . S
H345 C356 0.950 . S
H346 C358 0.950 1_655 S
H347 C359 0.950 . S
C348 H340 0.950 . S
C348 C349 1.393 . S
C348 C350 1.391 . S
C349 C348 1.393 . S
C349 C353 1.388 1_655 S
C350 H342 0.950 . S
C350 C348 1.391 . S
C350 C351 1.400 1_655 S
C351 C350 1.400 1_455 S
C351 C352 1.398 . S
C351 C357 1.491 . S
C352 H343 0.950 . S
C352 C351 1.398 . S
C352 C353 1.391 . S
C353 H341 0.950 . S
C353 C349 1.388 1_455 S
C353 C352 1.391 . S
C354 H344 0.950 . S
C354 C355 1.386 . S
C354 C356 1.391 . S
C355 C354 1.386 . S
C355 C359 1.393 . S
C356 H345 0.950 . S
C356 C354 1.391 . S
C356 C357 1.400 . S
C357 C351 1.491 . S
C357 C356 1.400 . S
C357 C358 1.398 . S
C358 H346 0.950 1_455 S
C358 C357 1.398 . S
C358 C359 1.391 . S
C359 H347 0.950 . S
C359 C355 1.393 . S
C359 C358 1.391 . S
H360 C368 0.950 . S
H361 C373 0.950 . S
H362 C370 0.950 . S
H363 C372 0.950 . S
H364 C374 0.950 . S
H365 C376 0.950 . S
H366 C378 0.950 . S
H367 C379 0.950 . S
C368 H360 0.950 . S
C368 C369 1.386 . S
C368 C370 1.391 . S
C369 C368 1.386 . S
C369 C373 1.393 . S
C370 H362 0.950 . S
C370 C368 1.391 . S
C370 C371 1.400 . S
C371 C370 1.400 . S
C371 C372 1.398 . S
C371 C377 1.491 . S
C372 H363 0.950 . S
C372 C371 1.398 . S
C372 C373 1.391 . S
C373 H361 0.950 . S
C373 C369 1.393 . S
C373 C372 1.391 . S
C374 H364 0.950 . S
C374 C375 1.386 . S
C374 C376 1.391 . S
C375 C374 1.386 . S
C375 C379 1.393 . S
C376 H365 0.950 . S
C376 C374 1.391 . S
C376 C377 1.400 . S
C377 C371 1.491 . S
C377 C376 1.400 . S
C377 C378 1.398 . S
C378 H366 0.950 . S
C378 C377 1.398 . S
C378 C379 1.391 . S
C379 H367 0.950 . S
C379 C375 1.393 . S
C379 C378 1.391 . S
H380 C388 0.950 . S
H381 C393 0.950 . S
H382 C390 0.950 . S
H383 C392 0.950 . S
H384 C394 0.950 . S
H385 C396 0.950 . S
H386 C398 0.950 . S
H387 C399 0.950 . S
C388 H380 0.950 . S
C388 C389 1.386 . S
C388 C390 1.391 . S
C389 C388 1.386 . S
C389 C393 1.393 . S
C390 H382 0.950 . S
C390 C388 1.391 . S
C390 C391 1.400 . S
C391 C390 1.400 . S
C391 C392 1.398 . S
C391 C397 1.491 . S
C392 H383 0.950 . S
C392 C391 1.398 . S
C392 C393 1.391 . S
C393 H381 0.950 . S
C393 C389 1.393 . S
C393 C392 1.391 . S
C394 H384 0.950 . S
C394 C395 1.386 . S
C394 C396 1.391 . S
C395 C394 1.386 . S
C395 C399 1.393 . S
C396 H385 0.950 . S
C396 C394 1.391 . S
C396 C397 1.400 . S
C397 C391 1.491 . S
C397 C396 1.400 . S
C397 C398 1.398 . S
C398 H386 0.950 . S
C398 C397 1.398 . S
C398 C399 1.391 . S
C399 H387 0.950 . S
C399 C395 1.393 . S
C399 C398 1.391 . S
H400 C408 0.950 1_455 S
H401 C413 0.950 . S
H402 C410 0.950 . S
H403 C412 0.950 . S
H404 C414 0.950 . S
H405 C416 0.950 . S
H406 C418 0.950 . S
H407 C419 0.950 . S
C408 H400 0.950 1_655 S
C408 C409 1.386 . S
C408 C410 1.391 . S
C409 C408 1.386 . S
C409 C413 1.393 . S
C410 H402 0.950 . S
C410 C408 1.391 . S
C410 C411 1.400 . S
C411 C410 1.400 . S
C411 C412 1.398 . S
C411 C417 1.491 . S
C412 H403 0.950 . S
C412 C411 1.398 . S
C412 C413 1.391 . S
C413 H401 0.950 . S
C413 C409 1.393 . S
C413 C412 1.391 . S
C414 H404 0.950 . S
C414 C415 1.386 . S
C414 C416 1.391 . S
C415 C414 1.386 . S
C415 C419 1.393 . S
C416 H405 0.950 . S
C416 C414 1.391 . S
C416 C417 1.400 . S
C417 C411 1.491 . S
C417 C416 1.400 . S
C417 C418 1.398 . S
C418 H406 0.950 . S
C418 C417 1.398 . S
C418 C419 1.391 . S
C419 H407 0.950 . S
C419 C415 1.393 . S
C419 C418 1.391 . S
H420 C428 0.950 1_545 S
H421 C433 0.950 . S
H422 C430 0.950 . S
H423 C432 0.950 . S
H424 C434 0.950 . S
H425 C436 0.950 . S
H426 C438 0.950 . S
H427 C439 0.950 . S
C428 H420 0.950 1_565 S
C428 C429 1.386 . S
C428 C430 1.391 . S
C429 C428 1.386 . S
C429 C433 1.393 . S
C430 H422 0.950 . S
C430 C428 1.391 . S
C430 C431 1.400 . S
C431 C430 1.400 . S
C431 C432 1.398 . S
C431 C437 1.491 . S
C432 H423 0.950 . S
C432 C431 1.398 . S
C432 C433 1.391 . S
C433 H421 0.950 . S
C433 C429 1.393 . S
C433 C432 1.391 . S
C434 H424 0.950 . S
C434 C435 1.386 . S
C434 C436 1.391 . S
C435 C434 1.386 . S
C435 C439 1.393 . S
C436 H425 0.950 . S
C436 C434 1.391 . S
C436 C437 1.400 . S
C437 C431 1.491 . S
C437 C436 1.400 . S
C437 C438 1.398 . S
C438 H426 0.950 . S
C438 C437 1.398 . S
C438 C439 1.391 . S
C439 H427 0.950 . S
C439 C435 1.393 . S
C439 C438 1.391 . S
H440 C448 0.950 . S
H441 C453 0.950 1_455 S
H442 C450 0.950 . S
H443 C452 0.950 1_455 S
H444 C454 0.950 . S
H445 C456 0.950 . S
H446 C458 0.950 . S
H447 C459 0.950 . S
C448 H440 0.950 . S
C448 C449 1.386 . S
C448 C450 1.391 . S
C449 C448 1.386 . S
C449 C453 1.393 . S
C450 H442 0.950 . S
C450 C448 1.391 . S
C450 C451 1.400 . S
C451 C450 1.400 . S
C451 C452 1.398 . S
C451 C457 1.491 . S
C452 H443 0.950 1_655 S
C452 C451 1.398 . S
C452 C453 1.391 . S
C453 H441 0.950 1_655 S
C453 C449 1.393 . S
C453 C452 1.391 . S
C454 H444 0.950 . S
C454 C455 1.386 1_455 S
C454 C456 1.391 . S
C455 C454 1.386 1_655 S
C455 C459 1.393 . S
C456 H445 0.950 . S
C456 C454 1.391 . S
C456 C457 1.400 1_455 S
C457 C451 1.491 . S
C457 C456 1.400 1_655 S
C457 C458 1.398 . S
C458 H446 0.950 . S
C458 C457 1.398 . S
C458 C459 1.391 . S
C459 H447 0.950 . S
C459 C455 1.393 . S
C459 C458 1.391 . S
H460 C468 0.950 . S
H461 C473 0.950 . S
H462 C470 0.950 . S
H463 C472 0.950 . S
H464 C474 0.950 1_545 S
H465 C476 0.950 . S
H466 C478 0.950 . S
H467 C479 0.950 . S
C468 H460 0.950 . S
C468 C469 1.386 . S
C468 C470 1.391 . S
C469 C468 1.386 . S
C469 C473 1.393 . S
C470 H462 0.950 . S
C470 C468 1.391 . S
C470 C471 1.400 . S
C471 C470 1.400 . S
C471 C472 1.398 . S
C471 C477 1.491 . S
C472 H463 0.950 . S
C472 C471 1.398 . S
C472 C473 1.391 . S
C473 H461 0.950 . S
C473 C469 1.393 . S
C473 C472 1.391 . S
C474 H464 0.950 1_565 S
C474 C475 1.386 . S
C474 C476 1.391 . S
C475 C474 1.386 . S
C475 C479 1.393 . S
C476 H465 0.950 . S
C476 C474 1.391 . S
C476 C477 1.400 . S
C477 C471 1.491 . S
C477 C476 1.400 . S
C477 C478 1.398 . S
C478 H466 0.950 . S
C478 C477 1.398 . S
C478 C479 1.391 . S
C479 H467 0.950 . S
C479 C475 1.393 . S
C479 C478 1.391 . S
C129 C68 1.354 1_566 S
C135 C8 1.360 1_556 S
C149 C88 1.354 . S
C155 C28 1.360 . S
C169 C108 1.326 . S
C175 C48 1.338 1_655 S
C189 C1 1.404 . S
C195 C42 1.379 . S
C209 C21 1.401 . S
C215 C62 1.358 . S
C229 C41 1.424 . S
C235 C82 1.394 . S
C249 C61 1.415 . S
C255 C102 1.368 . S
C269 C81 1.397 . S
C275 C2 1.359 . S
C289 C101 1.421 . S
C295 C22 1.394 . S
C309 C9 1.115 . S
C315 C69 1.107 . S
C329 C29 1.115 . S
C335 C89 1.113 . S
C349 C49 1.118 . S
C355 C109 1.108 . S
C369 C18 1.864 . S
C375 C39 1.890 . S
C389 C38 1.861 . S
C395 C59 1.897 . S
C409 C58 1.864 . S
C415 C79 1.890 . S
C429 C78 1.864 . S
C435 C99 1.891 . S
C449 C98 1.865 . S
C455 C119 1.896 1_655 S
C469 C118 1.855 . S
C475 C19 1.897 1_565 S
