# Generated by pormake.
# Topology wjd, (6)-cn, num edge types: 1
# Building blocks:
#     Node 0, Type 0, BuildingBlock: KUMJIN_clean_sbu_0, # of connection points: 6
#     Node 1, Type 0, BuildingBlock: KUMJIN_clean_sbu_0, # of connection points: 6
#     Node 2, Type 0, BuildingBlock: KUMJIN_clean_sbu_0, # of connection points: 6
#     Node 3, Type 0, BuildingBlock: KUMJIN_clean_sbu_0, # of connection points: 6
#     Node 4, Type 0, BuildingBlock: KUMJIN_clean_sbu_0, # of connection points: 6
#     Node 5, Type 0, BuildingBlock: KUMJIN_clean_sbu_0, # of connection points: 6
#     Node 6, Type 0, BuildingBlock: KUMJIN_clean_sbu_0, # of connection points: 6
#     Node 7, Type 0, BuildingBlock: KUMJIN_clean_sbu_0, # of connection points: 6
#     Node 8, Type 0, BuildingBlock: KUMJIN_clean_sbu_0, # of connection points: 6
#     Node 9, Type 0, BuildingBlock: KUMJIN_clean_sbu_0, # of connection points: 6
#     Node 10, Type 0, BuildingBlock: KUMJIN_clean_sbu_0, # of connection points: 6
#     Node 11, Type 0, BuildingBlock: KUMJIN_clean_sbu_0, # of connection points: 6
#     Edge 12, Type (0, 0), BuildingBlock: UVAHIK_clean_linker_0, # of connection points: 2
#     Edge 13, Type (0, 0), BuildingBlock: UVAHIK_clean_linker_0, # of connection points: 2
#     Edge 14, Type (0, 0), BuildingBlock: UVAHIK_clean_linker_0, # of connection points: 2
#     Edge 15, Type (0, 0), BuildingBlock: UVAHIK_clean_linker_0, # of connection points: 2
#     Edge 16, Type (0, 0), BuildingBlock: UVAHIK_clean_linker_0, # of connection points: 2
#     Edge 17, Type (0, 0), BuildingBlock: UVAHIK_clean_linker_0, # of connection points: 2
#     Edge 18, Type (0, 0), BuildingBlock: UVAHIK_clean_linker_0, # of connection points: 2
#     Edge 19, Type (0, 0), BuildingBlock: UVAHIK_clean_linker_0, # of connection points: 2
#     Edge 20, Type (0, 0), BuildingBlock: UVAHIK_clean_linker_0, # of connection points: 2
#     Edge 21, Type (0, 0), BuildingBlock: UVAHIK_clean_linker_0, # of connection points: 2
#     Edge 22, Type (0, 0), BuildingBlock: UVAHIK_clean_linker_0, # of connection points: 2
#     Edge 23, Type (0, 0), BuildingBlock: UVAHIK_clean_linker_0, # of connection points: 2
#     Edge 24, Type (0, 0), BuildingBlock: UVAHIK_clean_linker_0, # of connection points: 2
#     Edge 25, Type (0, 0), BuildingBlock: UVAHIK_clean_linker_0, # of connection points: 2
#     Edge 26, Type (0, 0), BuildingBlock: UVAHIK_clean_linker_0, # of connection points: 2
#     Edge 27, Type (0, 0), BuildingBlock: UVAHIK_clean_linker_0, # of connection points: 2
#     Edge 28, Type (0, 0), BuildingBlock: UVAHIK_clean_linker_0, # of connection points: 2
#     Edge 29, Type (0, 0), BuildingBlock: UVAHIK_clean_linker_0, # of connection points: 2
#     Edge 30, Type (0, 0), BuildingBlock: UVAHIK_clean_linker_0, # of connection points: 2
#     Edge 31, Type (0, 0), BuildingBlock: UVAHIK_clean_linker_0, # of connection points: 2
#     Edge 32, Type (0, 0), BuildingBlock: UVAHIK_clean_linker_0, # of connection points: 2
#     Edge 33, Type (0, 0), BuildingBlock: UVAHIK_clean_linker_0, # of connection points: 2
#     Edge 34, Type (0, 0), BuildingBlock: UVAHIK_clean_linker_0, # of connection points: 2
#     Edge 35, Type (0, 0), BuildingBlock: UVAHIK_clean_linker_0, # of connection points: 2
#     Edge 36, Type (0, 0), BuildingBlock: UVAHIK_clean_linker_0, # of connection points: 2
#     Edge 37, Type (0, 0), BuildingBlock: UVAHIK_clean_linker_0, # of connection points: 2
#     Edge 38, Type (0, 0), BuildingBlock: UVAHIK_clean_linker_0, # of connection points: 2
#     Edge 39, Type (0, 0), BuildingBlock: UVAHIK_clean_linker_0, # of connection points: 2
#     Edge 40, Type (0, 0), BuildingBlock: UVAHIK_clean_linker_0, # of connection points: 2
#     Edge 41, Type (0, 0), BuildingBlock: UVAHIK_clean_linker_0, # of connection points: 2
#     Edge 42, Type (0, 0), BuildingBlock: UVAHIK_clean_linker_0, # of connection points: 2
#     Edge 43, Type (0, 0), BuildingBlock: UVAHIK_clean_linker_0, # of connection points: 2
#     Edge 44, Type (0, 0), BuildingBlock: UVAHIK_clean_linker_0, # of connection points: 2
#     Edge 45, Type (0, 0), BuildingBlock: UVAHIK_clean_linker_0, # of connection points: 2
#     Edge 46, Type (0, 0), BuildingBlock: UVAHIK_clean_linker_0, # of connection points: 2
#     Edge 47, Type (0, 0), BuildingBlock: UVAHIK_clean_linker_0, # of connection points: 2
# Relax obj value: 0.099
# Max RMSD: 0.208
# Mean RMSD: 0.208
data_MOF--net-wjd--node1-KUMJIN_clean_sbu_0--edge1-UVAHIK_clean_linker_0
_symmetry_space_group_name_H-M    P1
_symmetry_Int_Tables_number       1
_symmetry_cell_setting            triclinic
loop_
_symmetry_equiv_pos_as_xyz
'x, y, z'
_cell_length_a     47.231256
_cell_length_b     47.262196
_cell_length_c     70.86067
_cell_angle_alpha  90.202389
_cell_angle_beta   89.911485
_cell_angle_gamma 120.02892
loop_
_atom_site_label
_atom_site_type_symbol
_atom_site_fract_x
_atom_site_fract_y
_atom_site_fract_z
_atom_type_partial_charge
Eu0 Eu 0.37134 0.1866 0.11356 0.0
C1 C 0.37061 0.0906 0.16212 0.0
C2 C 0.39285 0.06301 0.1437 0.0
C3 C 0.41071 0.07883 0.17605 0.0
C4 C 0.37258 0.07699 0.14524 0.0
C5 C 0.38863 0.09034 0.17796 0.0
C6 C 0.41283 0.06518 0.15892 0.0
C7 C 0.35782 0.10762 0.19712 0.0
N8 N 0.3488 0.10118 0.16357 0.0
C9 C 0.34049 0.10721 0.18106 0.0
C10 C 0.38271 0.10009 0.19547 0.0
Eu11 Eu 0.32487 0.10538 0.13476 0.0
N12 N 0.35307 0.07542 0.13075 0.0
C13 C 0.34937 0.05607 0.11542 0.0
C14 C 0.39167 0.04632 0.12715 0.0
C15 C 0.36914 0.04206 0.11317 0.0
H16 H 0.32066 0.11217 0.18281 0.0
H17 H 0.36675 0.02771 0.10072 0.0
H18 H 0.42907 0.05525 0.15783 0.0
H19 H 0.35183 0.11362 0.21076 0.0
H20 H 0.33108 0.05088 0.1048 0.0
H21 H 0.31314 0.24514 0.15094 0.0
H22 H 0.40691 0.03538 0.12539 0.0
H23 H 0.39075 0.1934 0.06756 0.0
H24 H 0.34602 0.21826 0.14754 0.0
H25 H 0.3744 0.20776 0.03753 0.0
H26 H 0.42521 0.07908 0.18795 0.0
H27 H 0.28906 0.25567 0.12271 0.0
H28 H 0.2831 0.25366 0.08745 0.0
H29 H 0.39599 0.10022 0.20796 0.0
H30 H 0.29886 0.24231 0.05645 0.0
N31 N 0.33966 0.21223 0.11783 0.0
C32 C 0.33532 0.22219 0.13516 0.0
C33 C 0.30338 0.24367 0.12117 0.0
C34 C 0.30926 0.23484 0.10335 0.0
C35 C 0.31692 0.23777 0.13712 0.0
C36 C 0.32799 0.21919 0.10211 0.0
H37 H 0.33331 0.22564 0.03767 0.0
N38 N 0.35716 0.20037 0.08418 0.0
C39 C 0.36322 0.20881 0.05066 0.0
C40 C 0.33653 0.21249 0.08471 0.0
C41 C 0.37232 0.20061 0.06763 0.0
C42 C 0.33995 0.21878 0.0508 0.0
C43 C 0.32708 0.22175 0.06802 0.0
O44 O 0.41987 0.22056 0.10213 0.0
O45 O 0.37539 0.14585 0.12708 0.0
O46 O 0.32983 0.1445 0.15525 0.0
O47 O 0.37916 0.18798 0.14559 0.0
O48 O 0.40059 0.16517 0.10182 0.0
O49 O 0.40361 0.2335 0.12731 0.0
O50 O 0.28533 0.07737 0.15487 0.0
O51 O 0.32379 0.15086 0.12663 0.0
O52 O 0.34523 0.14921 0.08957 0.0
O53 O 0.33089 0.09952 0.10393 0.0
O54 O 0.2852 0.10687 0.11765 0.0
O55 O 0.28287 0.05897 0.12656 0.0
C56 C 0.39475 0.14444 0.11516 0.0
C57 C 0.43783 0.27655 0.1071 0.0
C58 C 0.47645 0.33525 0.10776 0.0
C59 C 0.46675 0.30342 0.11407 0.0
C60 C 0.45732 0.33977 0.09426 0.0
C61 C 0.41929 0.2818 0.09359 0.0
C62 C 0.429 0.31316 0.08719 0.0
C63 C 0.35727 0.17188 0.15887 0.0
C64 C 0.42625 0.2434 0.11448 0.0
C65 C 0.30673 0.23545 0.06913 0.0
C66 C 0.29786 0.24202 0.08678 0.0
C67 C 0.29688 0.13791 0.11787 0.0
C68 C 0.25326 0.02005 0.14974 0.0
C69 C 0.22036 0.99872 0.14517 0.0
C70 C 0.20486 0.96562 0.15037 0.0
C71 C 0.22298 0.95426 0.16031 0.0
C72 C 0.27104 1.00838 0.15955 0.0
C73 C 0.25581 0.97556 0.16487 0.0
C74 C 0.3341 0.11725 0.08895 0.0
C75 C 0.26868 0.05373 0.14293 0.0
H76 H 0.48117 0.29969 0.1246 0.0
H77 H 0.46447 0.36397 0.08905 0.0
H78 H 0.39722 0.2618 0.08801 0.0
H79 H 0.41443 0.31684 0.07676 0.0
H80 H 0.20706 1.00783 0.13714 0.0
H81 H 0.2117 0.929 0.16473 0.0
H82 H 0.2966 0.02452 0.16292 0.0
H83 H 0.26952 0.96654 0.17249 0.0
Eu84 Eu 0.80362 0.7023 0.3832 0.0
C85 C 0.90765 0.69857 0.4358 0.0
C86 C 0.95935 0.72715 0.4193 0.0
C87 C 0.95832 0.72768 0.45358 0.0
C88 C 0.92489 0.70846 0.41909 0.0
C89 C 0.92421 0.70722 0.45326 0.0
C90 C 0.97588 0.73761 0.43662 0.0
C91 C 0.87275 0.67124 0.46855 0.0
N92 N 0.87493 0.67791 0.43492 0.0
C93 C 0.85757 0.66299 0.45087 0.0
C94 C 0.90615 0.69384 0.46978 0.0
Eu95 Eu 0.85034 0.66625 0.40463 0.0
N96 N 0.90816 0.69742 0.40264 0.0
C97 C 0.92455 0.70195 0.38603 0.0
C98 C 0.97618 0.73361 0.40216 0.0
C99 C 0.95871 0.72045 0.38549 0.0
H100 H 0.83174 0.64547 0.44995 0.0
H101 H 0.97151 0.72465 0.3722 0.0
H102 H 1.00231 0.75239 0.43706 0.0
H103 H 0.85872 0.66006 0.48119 0.0
H104 H 0.91144 0.69192 0.37303 0.0
H105 H 0.68093 0.6355 0.41345 0.0
H106 H 1.00264 0.74793 0.4017 0.0
H107 H 0.82565 0.7249 0.33827 0.0
H108 H 0.74083 0.67051 0.41394 0.0
H109 H 0.80048 0.71262 0.30662 0.0
H110 H 0.97147 0.73493 0.46686 0.0
H111 H 0.65174 0.6162 0.38302 0.0
H112 H 0.6541 0.61729 0.34757 0.0
H113 H 0.91795 0.69991 0.48347 0.0
H114 H 0.68656 0.6385 0.31851 0.0
N115 N 0.74587 0.67041 0.38408 0.0
C116 C 0.72852 0.6624 0.40054 0.0
C117 C 0.67811 0.63159 0.38314 0.0
C118 C 0.69588 0.64147 0.36628 0.0
C119 C 0.69448 0.6425 0.40034 0.0
C120 C 0.73017 0.66135 0.36724 0.0
H121 H 0.74108 0.67435 0.3031 0.0
N122 N 0.78108 0.69344 0.35249 0.0
C123 C 0.78553 0.70135 0.31896 0.0
C124 C 0.74835 0.67329 0.35092 0.0
C125 C 0.79969 0.70833 0.33692 0.0
C126 C 0.75202 0.67966 0.31703 0.0
C127 C 0.73289 0.66565 0.33314 0.0
O128 O 0.82145 0.75304 0.3752 0.0
O129 O 0.85182 0.71118 0.3939 0.0
O130 O 0.84609 0.69974 0.42642 0.0
O131 O 0.80013 0.70081 0.41513 0.0
O132 O 0.85275 0.73553 0.36947 0.0
O133 O 0.78676 0.73169 0.3981 0.0
O134 O 0.83703 0.61734 0.41461 0.0
O135 O 0.80226 0.65742 0.39411 0.0
O136 O 0.80427 0.66637 0.36258 0.0
O137 O 0.85241 0.66811 0.37202 0.0
O138 O 0.80116 0.6324 0.41811 0.0
O139 O 0.86364 0.63503 0.38854 0.0
C140 C 0.8704 0.73139 0.38173 0.0
C141 C 0.78613 0.77378 0.38058 0.0
C142 C 0.78161 0.82299 0.3784 0.0
C143 C 0.79776 0.80678 0.38517 0.0
C144 C 0.75385 0.80558 0.36685 0.0
C145 C 0.7584 0.75694 0.36913 0.0
C146 C 0.74239 0.77284 0.36231 0.0
C147 C 0.82187 0.70609 0.4284 0.0
C148 C 0.80346 0.75738 0.38753 0.0
C149 C 0.69888 0.64486 0.33204 0.0
C150 C 0.6804 0.63278 0.34859 0.0
C151 C 0.78342 0.63686 0.40604 0.0
C152 C 0.87494 0.60042 0.40689 0.0
C153 C 0.87027 0.56992 0.40084 0.0
C154 C 0.89294 0.56006 0.40595 0.0
C155 C 0.91987 0.58091 0.41731 0.0
C156 C 0.90192 0.62053 0.41828 0.0
C157 C 0.92422 0.61086 0.42344 0.0
C158 C 0.8297 0.66265 0.35915 0.0
C159 C 0.85236 0.61181 0.40107 0.0
H160 H 0.81911 0.81963 0.39413 0.0
H161 H 0.74119 0.81739 0.36109 0.0
H162 H 0.74924 0.7316 0.36544 0.0
H163 H 0.72108 0.75978 0.35338 0.0
H164 H 0.84948 0.55425 0.39201 0.0
H165 H 0.93738 0.57382 0.42172 0.0
H166 H 0.90579 0.64374 0.4232 0.0
H167 H 0.94494 0.62663 0.43225 0.0
Eu168 Eu 0.84182 0.18428 0.11522 0.0
C169 C 0.95503 0.27403 0.16837 0.0
C170 C 0.97242 0.33033 0.16072 0.0
C171 C 0.97678 0.31547 0.19297 0.0
C172 C 0.95881 0.29735 0.15527 0.0
C173 C 0.96445 0.28286 0.18729 0.0
C174 C 0.98075 0.33915 0.17971 0.0
C175 C 0.95078 0.22701 0.19321 0.0
N176 N 0.94283 0.24271 0.16243 0.0
C177 C 0.94191 0.21947 0.17425 0.0
C178 C 0.96174 0.25875 0.19982 0.0
Eu179 Eu 0.92789 0.23194 0.1303 0.0
N180 N 0.95094 0.2881 0.137 0.0
C181 C 0.95841 0.31083 0.12322 0.0
C182 C 0.97815 0.35357 0.1468 0.0
C183 C 0.97156 0.34382 0.12792 0.0
H184 H 0.93325 0.19493 0.16905 0.0
H185 H 0.97662 0.36167 0.11699 0.0
H186 H 0.99099 0.36434 0.18421 0.0
H187 H 0.94915 0.20837 0.20271 0.0
H188 H 0.95364 0.30344 0.10859 0.0
H189 H 0.78421 0.06009 0.14293 0.0
H190 H 0.98847 0.37916 0.1504 0.0
H191 H 0.83596 0.20673 0.07071 0.0
H192 H 0.80854 0.11983 0.14462 0.0
H193 H 0.82432 0.1826 0.03861 0.0
H194 H 0.98392 0.32273 0.2075 0.0
H195 H 0.77897 0.03311 0.11215 0.0
H196 H 0.7847 0.03771 0.07695 0.0
H197 H 0.96863 0.26453 0.2145 0.0
H198 H 0.79624 0.07127 0.04846 0.0
N199 N 0.81805 0.12694 0.11513 0.0
C200 C 0.8066 0.1085 0.13109 0.0
C201 C 0.78975 0.05942 0.11279 0.0
C202 C 0.79971 0.07829 0.09635 0.0
C203 C 0.79259 0.07454 0.13019 0.0
C204 C 0.81365 0.11248 0.09794 0.0
H205 H 0.81029 0.12513 0.03404 0.0
N206 N 0.83045 0.16378 0.08383 0.0
C207 C 0.82342 0.16807 0.05061 0.0
C208 C 0.8203 0.13147 0.08182 0.0
C209 C 0.82981 0.18157 0.06874 0.0
C210 C 0.81566 0.13565 0.04809 0.0
C211 C 0.81301 0.11664 0.06382 0.0
O212 O 0.80641 0.19723 0.10442 0.0
O213 O 0.88631 0.23465 0.1175 0.0
O214 O 0.895 0.22464 0.15547 0.0
O215 O 0.84566 0.1783 0.14716 0.0
O216 O 0.8422 0.23021 0.12467 0.0
O217 O 0.79335 0.16336 0.12784 0.0
O218 O 0.96378 0.21594 0.13224 0.0
O219 O 0.88267 0.18204 0.12875 0.0
O220 O 0.87841 0.19367 0.09073 0.0
O221 O 0.92115 0.24337 0.10033 0.0
O222 O 0.92616 0.18435 0.12281 0.0
O223 O 0.97485 0.25897 0.11576 0.0
C224 C 0.87297 0.24989 0.12407 0.0
C225 C 0.75049 0.15695 0.10796 0.0
C226 C 0.69235 0.13965 0.10705 0.0
C227 C 0.72419 0.16099 0.11377 0.0
C228 C 0.68731 0.11483 0.09421 0.0
C229 C 0.74482 0.13205 0.0951 0.0
C230 C 0.71346 0.11123 0.08821 0.0
C231 C 0.86544 0.20035 0.15975 0.0
C232 C 0.78332 0.1777 0.11603 0.0
C233 C 0.8015 0.08299 0.06219 0.0
C234 C 0.79485 0.06385 0.07842 0.0
C235 C 0.89523 0.16549 0.12327 0.0
C236 C 1.01911 0.25623 0.12988 0.0
C237 C 0.03892 0.24239 0.12625 0.0
C238 C 0.07088 0.25686 0.13358 0.0
C239 C 0.08251 0.28516 0.14479 0.0
C240 C 0.03113 0.28434 0.14115 0.0
C241 C 0.0627 0.29868 0.14856 0.0
C242 C 0.90655 0.22072 0.08724 0.0
C243 C 0.98567 0.24026 0.1223 0.0
H244 H 0.72831 0.18004 0.12381 0.0
H245 H 0.66311 0.09831 0.08872 0.0
H246 H 0.76447 0.12842 0.09051 0.0
H247 H 0.70936 0.09206 0.0783 0.0
H248 H 0.02955 0.2206 0.11756 0.0
H249 H 0.10681 0.29661 0.15085 0.0
H250 H 1.01616 0.29515 0.14425 0.0
H251 H 0.07184 0.32033 0.15731 0.0
Eu252 Eu 0.33502 0.10976 0.38167 0.0
C253 C 0.33948 0.21481 0.43717 0.0
C254 C 0.3111 0.23898 0.42166 0.0
C255 C 0.31072 0.23572 0.45589 0.0
C256 C 0.3297 0.22317 0.42079 0.0
C257 C 0.33107 0.222 0.45493 0.0
C258 C 0.30075 0.24421 0.43926 0.0
C259 C 0.36742 0.20618 0.4693 0.0
N260 N 0.36005 0.20272 0.4357 0.0
C261 C 0.3754 0.19995 0.45134 0.0
C262 C 0.3447 0.21672 0.47113 0.0
Eu263 Eu 0.37161 0.19136 0.40493 0.0
N264 N 0.3406 0.21823 0.40407 0.0
C265 C 0.33596 0.23085 0.38782 0.0
C266 C 0.30459 0.2502 0.40489 0.0
C267 C 0.31757 0.24661 0.38794 0.0
H268 H 0.39309 0.19194 0.44996 0.0
H269 H 0.31328 0.25582 0.37494 0.0
H270 H 0.28605 0.25589 0.4402 0.0
H271 H 0.3789 0.203 0.48169 0.0
H272 H 0.34581 0.22827 0.37461 0.0
H273 H 0.40125 0.0513 0.40881 0.0
H274 H 0.29033 0.26239 0.40494 0.0
H275 H 0.31222 0.11242 0.33712 0.0
H276 H 0.36672 0.07662 0.41076 0.0
H277 H 0.32401 0.10139 0.30488 0.0
H278 H 0.30363 0.24105 0.4694 0.0
H279 H 0.41987 0.04292 0.37772 0.0
H280 H 0.41831 0.04627 0.34237 0.0
H281 H 0.33885 0.22193 0.48504 0.0
H282 H 0.39707 0.0596 0.3141 0.0
N283 N 0.36648 0.0835 0.3811 0.0
C284 C 0.37457 0.0731 0.39708 0.0
C285 C 0.4047 0.05409 0.37849 0.0
C286 C 0.39475 0.0631 0.36209 0.0
C287 C 0.39418 0.05871 0.39605 0.0
C288 C 0.37517 0.07773 0.36388 0.0
H289 H 0.36163 0.07982 0.29999 0.0
N290 N 0.34333 0.09788 0.35036 0.0
C291 C 0.33521 0.09671 0.31689 0.0
C292 C 0.36317 0.08509 0.34801 0.0
C293 C 0.32851 0.10285 0.33519 0.0
C294 C 0.35653 0.08464 0.31418 0.0
C295 C 0.37049 0.07827 0.32985 0.0
O296 O 0.28395 0.07768 0.37373 0.0
O297 O 0.32644 0.14862 0.39361 0.0
O298 O 0.3386 0.1525 0.42633 0.0
O299 O 0.3367 0.10591 0.41346 0.0
O300 O 0.30205 0.12667 0.36881 0.0
O301 O 0.30571 0.06249 0.39542 0.0
O302 O 0.42128 0.22549 0.41468 0.0
O303 O 0.38014 0.15253 0.39324 0.0
O304 O 0.37158 0.14724 0.36183 0.0
O305 O 0.36973 0.1931 0.3723 0.0
O306 O 0.40526 0.1752 0.4176 0.0
O307 O 0.40237 0.2377 0.39033 0.0
C308 C 0.30629 0.14777 0.38164 0.0
C309 C 0.26272 0.0212 0.37743 0.0
C310 C 0.2131 0.96781 0.37461 0.0
C311 C 0.22982 0.99971 0.38217 0.0
C312 C 0.22987 0.95808 0.3621 0.0
C313 C 0.27892 1.01092 0.36502 0.0
C314 C 0.26249 0.97949 0.35739 0.0
C315 C 0.33182 0.12166 0.42739 0.0
C316 C 0.27972 0.05445 0.38525 0.0
C317 C 0.39096 0.06481 0.32794 0.0
C318 C 0.40307 0.05725 0.34403 0.0
C319 C 0.40062 0.15354 0.40503 0.0
C320 C 0.4383 0.2812 0.4101 0.0
C321 C 0.4674 0.30825 0.40339 0.0
C322 C 0.47781 0.33989 0.4106 0.0
C323 C 0.45908 0.3438 0.42474 0.0
C324 C 0.42022 0.28603 0.42416 0.0
C325 C 0.43056 0.31706 0.43145 0.0
C326 C 0.3752 0.17644 0.35898 0.0
C327 C 0.42629 0.24803 0.40242 0.0
H328 H 0.21745 1.00772 0.39187 0.0
H329 H 0.21763 0.93399 0.35573 0.0
H330 H 0.30417 0.02721 0.3612 0.0
H331 H 0.27505 0.97172 0.34772 0.0
H332 H 0.48147 0.30478 0.39246 0.0
H333 H 0.46671 0.36764 0.43079 0.0
H334 H 0.39811 0.26582 0.42959 0.0
H335 H 0.4164 0.32039 0.44235 0.0
Eu336 Eu 0.8409 0.66105 0.11372 0.0
C337 C 0.73335 0.65122 0.15347 0.0
C338 C 0.69086 0.64242 0.13121 0.0
C339 C 0.67674 0.60998 0.15978 0.0
C340 C 0.72416 0.65865 0.13656 0.0
C341 C 0.70951 0.62764 0.1656 0.0
C342 C 0.66744 0.6173 0.14257 0.0
C343 C 0.75133 0.64347 0.18928 0.0
N344 N 0.76525 0.66846 0.15861 0.0
C345 C 0.77388 0.66661 0.17679 0.0
C346 C 0.71914 0.62322 0.18348 0.0
Eu347 Eu 0.80316 0.70459 0.13577 0.0
N348 N 0.74744 0.68295 0.12585 0.0
C349 C 0.73803 0.69536 0.11123 0.0
C350 C 0.68191 0.65263 0.11494 0.0
C351 C 0.7055 0.67981 0.1052 0.0
H352 H 0.79794 0.68338 0.18208 0.0
H353 H 0.6986 0.68913 0.09319 0.0
H354 H 0.64191 0.60415 0.13848 0.0
H355 H 0.75871 0.64165 0.20347 0.0
H356 H 0.75539 0.71744 0.10406 0.0
H357 H 0.95607 0.71952 0.15266 0.0
H358 H 0.65666 0.64073 0.11032 0.0
H359 H 0.83135 0.64369 0.06728 0.0
H360 H 0.8967 0.6852 0.14831 0.0
H361 H 0.86348 0.66265 0.03779 0.0
H362 H 0.65826 0.59133 0.16873 0.0
H363 H 0.9917 0.74672 0.12517 0.0
H364 H 0.99712 0.75526 0.09011 0.0
H365 H 0.70161 0.6054 0.1932 0.0
H366 H 0.9716 0.74053 0.05868 0.0
N367 N 0.898 0.69389 0.11883 0.0
C368 C 0.91166 0.6973 0.13625 0.0
C369 C 0.9655 0.73179 0.12321 0.0
C370 C 0.95155 0.72676 0.10523 0.0
C371 C 0.94549 0.7165 0.13874 0.0
C372 C 0.91729 0.70715 0.10346 0.0
H373 H 0.92184 0.70553 0.039 0.0
N374 N 0.87047 0.67737 0.08477 0.0
C375 C 0.87483 0.67341 0.05118 0.0
C376 C 0.90295 0.69908 0.08584 0.0
C377 C 0.85675 0.66278 0.06787 0.0
C378 C 0.90771 0.69769 0.05192 0.0
C379 C 0.92246 0.71007 0.06944 0.0
O380 O 0.82795 0.61349 0.10124 0.0
O381 O 0.79539 0.65532 0.12744 0.0
O382 O 0.83596 0.69872 0.15673 0.0
O383 O 0.83459 0.65189 0.1456 0.0
O384 O 0.79052 0.63229 0.10148 0.0
O385 O 0.85486 0.62818 0.12716 0.0
O386 O 0.81404 0.73523 0.16103 0.0
O387 O 0.85045 0.70753 0.12751 0.0
O388 O 0.82859 0.68599 0.08975 0.0
O389 O 0.79831 0.7066 0.10443 0.0
O390 O 0.84435 0.74627 0.11974 0.0
O391 O 0.79711 0.74771 0.13533 0.0
C392 C 0.77507 0.63673 0.11514 0.0
C393 C 0.86615 0.59589 0.10666 0.0
C394 C 0.88582 0.55684 0.10605 0.0
C395 C 0.86272 0.56564 0.11206 0.0
C396 C 0.91176 0.57832 0.09435 0.0
C397 C 0.89238 0.61681 0.09505 0.0
C398 C 0.91491 0.60803 0.08888 0.0
C399 C 0.83862 0.67254 0.15937 0.0
C400 C 0.8435 0.60644 0.11379 0.0
C401 C 0.95629 0.73146 0.07112 0.0
C402 C 0.97083 0.73975 0.089 0.0
C403 C 0.86432 0.73516 0.11957 0.0
C404 C 0.80882 0.78395 0.16235 0.0
C405 C 0.81303 0.81126 0.15203 0.0
C406 C 0.8146 0.83821 0.16149 0.0
C407 C 0.81187 0.83769 0.18122 0.0
C408 C 0.80657 0.78411 0.1821 0.0
C409 C 0.808 0.81082 0.19144 0.0
C410 C 0.8106 0.70036 0.08935 0.0
C411 C 0.80678 0.7553 0.15272 0.0
H412 H 0.84275 0.54947 0.12121 0.0
H413 H 0.92958 0.57202 0.08931 0.0
H414 H 0.89566 0.64006 0.09084 0.0
H415 H 0.93502 0.62441 0.0799 0.0
H416 H 0.81512 0.81161 0.13678 0.0
H417 H 0.81304 0.85828 0.18871 0.0
H418 H 0.80339 0.76343 0.19032 0.0
H419 H 0.80608 0.81069 0.20667 0.0
Eu420 Eu 0.92808 0.23286 0.38375 0.0
C421 C 0.82263 0.13173 0.43836 0.0
C422 C 0.79829 0.07885 0.42301 0.0
C423 C 0.80179 0.0824 0.45723 0.0
C424 C 0.81415 0.11324 0.42203 0.0
C425 C 0.81566 0.11647 0.45617 0.0
C426 C 0.79308 0.06361 0.44066 0.0
C427 C 0.83239 0.16905 0.47044 0.0
N428 N 0.83488 0.16439 0.43681 0.0
C429 C 0.83836 0.18293 0.45245 0.0
C430 C 0.82144 0.13574 0.47233 0.0
Eu431 Eu 0.84575 0.18655 0.40593 0.0
N432 N 0.81917 0.12873 0.40523 0.0
C433 C 0.80668 0.11117 0.389 0.0
C434 C 0.78707 0.06078 0.40628 0.0
C435 C 0.79081 0.07702 0.38924 0.0
H436 H 0.84682 0.20871 0.45103 0.0
H437 H 0.78166 0.06327 0.37626 0.0
H438 H 0.78135 0.03725 0.44168 0.0
H439 H 0.83608 0.184 0.48281 0.0
H440 H 0.80943 0.12338 0.37573 0.0
H441 H 0.98225 0.35917 0.40814 0.0
H442 H 0.77482 0.03433 0.40641 0.0
H443 H 0.92804 0.20487 0.33991 0.0
H444 H 0.9583 0.2997 0.41137 0.0
H445 H 0.94013 0.22557 0.30739 0.0
H446 H 0.79659 0.07025 0.47078 0.0
H447 H 0.99151 0.38394 0.37641 0.0
H448 H 0.98998 0.37665 0.3412 0.0
H449 H 0.81645 0.12495 0.48627 0.0
H450 H 0.97883 0.34037 0.31381 0.0
N451 N 0.95314 0.29047 0.38184 0.0
C452 C 0.96229 0.31007 0.39746 0.0
C453 C 0.98097 0.35774 0.37776 0.0
C454 C 0.97323 0.33772 0.36179 0.0
C455 C 0.97586 0.34387 0.39568 0.0
C456 C 0.95937 0.30374 0.36434 0.0
H457 H 0.9606 0.28411 0.30108 0.0
N458 N 0.94106 0.2511 0.3521 0.0
C459 C 0.94389 0.24212 0.31895 0.0
C460 C 0.95324 0.28343 0.34897 0.0
C461 C 0.93714 0.23049 0.33747 0.0
C462 C 0.95537 0.27515 0.31544 0.0
C463 C 0.96055 0.29635 0.33056 0.0
O464 O 0.96127 0.21424 0.37808 0.0
O465 O 0.88928 0.18519 0.39534 0.0
O466 O 0.88512 0.1933 0.4274 0.0
O467 O 0.92951 0.24048 0.41537 0.0
O468 O 0.91295 0.18294 0.3713 0.0
O469 O 0.97474 0.25282 0.39864 0.0
O470 O 0.81087 0.20115 0.41558 0.0
O471 O 0.88407 0.23409 0.39428 0.0
O472 O 0.89115 0.23038 0.36304 0.0
O473 O 0.84466 0.18284 0.37319 0.0
O474 O 0.86013 0.23629 0.41819 0.0
O475 O 0.79946 0.17023 0.39103 0.0
C476 C 0.89107 0.16597 0.38366 0.0
C477 C 1.0173 0.25119 0.38198 0.0
C478 C 0.07057 0.25475 0.379 0.0
C479 C 0.0386 0.23943 0.38643 0.0
C480 C 0.08056 0.28169 0.3669 0.0
C481 C 0.02784 0.27808 0.36996 0.0
C482 C 0.05934 0.2932 0.36245 0.0
C483 C 0.91458 0.21963 0.42927 0.0
C484 C 0.98387 0.23468 0.38952 0.0
C485 C 0.97327 0.33 0.32786 0.0
C486 C 0.97959 0.35065 0.34345 0.0
C487 C 0.8818 0.25342 0.40571 0.0
C488 C 0.75533 0.1622 0.41041 0.0
C489 C 0.72848 0.1646 0.40369 0.0
C490 C 0.69666 0.1433 0.4106 0.0
C491 C 0.6924 0.12023 0.42447 0.0
C492 C 0.75017 0.13893 0.42421 0.0
C493 C 0.71896 0.11815 0.4312 0.0
C494 C 0.86189 0.20486 0.35995 0.0
C495 C 0.78868 0.18356 0.40307 0.0
H496 H 0.03037 0.21866 0.39577 0.0
H497 H 0.10472 0.29366 0.36064 0.0
H498 H 1.01169 0.28727 0.36631 0.0
H499 H 0.0673 0.31386 0.35309 0.0
H500 H 0.73222 0.18247 0.39299 0.0
H501 H 0.66842 0.10393 0.43029 0.0
H502 H 0.77029 0.13685 0.42966 0.0
H503 H 0.71536 0.10035 0.44189 0.0
Eu504 Eu 0.11051 0.32314 0.63128 0.0
C505 C 0.21981 0.32856 0.58479 0.0
C506 C 0.2437 0.30085 0.60162 0.0
C507 C 0.24041 0.29807 0.56741 0.0
C508 C 0.22825 0.31985 0.60175 0.0
C509 C 0.22711 0.3188 0.56746 0.0
C510 C 0.24865 0.28909 0.58444 0.0
C511 C 0.21274 0.35494 0.55144 0.0
N512 N 0.20746 0.34911 0.58515 0.0
C513 C 0.20626 0.36428 0.56891 0.0
C514 C 0.2225 0.33155 0.55069 0.0
Eu515 Eu 0.19683 0.36245 0.61574 0.0
N516 N 0.22345 0.33167 0.61824 0.0
C517 C 0.23602 0.32783 0.63476 0.0
C518 C 0.2548 0.29515 0.6187 0.0
C519 C 0.25154 0.30928 0.63527 0.0
H520 H 0.19873 0.38245 0.5695 0.0
H521 H 0.26085 0.30576 0.64846 0.0
H522 H 0.25997 0.27403 0.58414 0.0
H523 H 0.21038 0.36591 0.5386 0.0
H524 H 0.23414 0.33889 0.64766 0.0
H525 H 0.06109 0.40181 0.61287 0.0
H526 H 0.26673 0.28066 0.61917 0.0
H527 H 0.10416 0.28449 0.67183 0.0
H528 H 0.08401 0.36577 0.60676 0.0
H529 H 0.08847 0.28591 0.70514 0.0
H530 H 0.24567 0.28992 0.55424 0.0
H531 H 0.05006 0.41177 0.64566 0.0
H532 H 0.04831 0.39884 0.68022 0.0
H533 H 0.22786 0.32462 0.53713 0.0
H534 H 0.05544 0.36704 0.70533 0.0
N535 N 0.0872 0.35664 0.6358 0.0
C536 C 0.07942 0.37008 0.62112 0.0
C537 C 0.06027 0.39607 0.64306 0.0
C538 C 0.06632 0.38042 0.65795 0.0
C539 C 0.06637 0.39044 0.62452 0.0
C540 C 0.07978 0.3604 0.65379 0.0
H541 H 0.07001 0.32451 0.71473 0.0
N542 N 0.09554 0.32251 0.66319 0.0
C543 C 0.08719 0.30206 0.69483 0.0
C544 C 0.08372 0.34251 0.66791 0.0
C545 C 0.09593 0.30121 0.67605 0.0
C546 C 0.07682 0.32394 0.70019 0.0
C547 C 0.07444 0.34412 0.68661 0.0
O548 O 0.07541 0.2713 0.63484 0.0
O549 O 0.15645 0.31998 0.62975 0.0
O550 O 0.15981 0.33175 0.59228 0.0
O551 O 0.11545 0.33697 0.60061 0.0
O552 O 0.11327 0.27698 0.62645 0.0
O553 O 0.06323 0.30085 0.61689 0.0
O554 O 0.22783 0.40984 0.60237 0.0
O555 O 0.15144 0.36715 0.61746 0.0
O556 O 0.14365 0.34994 0.65618 0.0
O557 O 0.19423 0.35543 0.64795 0.0
O558 O 0.19506 0.40658 0.62625 0.0
O559 O 0.24695 0.39412 0.62548 0.0
C560 C 0.14433 0.29022 0.62588 0.0
C561 C 1.0198 0.25505 0.63229 0.0
C562 C 0.96794 0.20423 0.63661 0.0
C563 C 0.9997 0.22135 0.62896 0.0
C564 C 0.95683 0.22137 0.64781 0.0
C565 C 1.00828 0.27161 0.64354 0.0
C566 C 0.97693 0.25477 0.65126 0.0
C567 C 0.13093 0.3286 0.58837 0.0
C568 C 0.05306 0.27215 0.62448 0.0
C569 C 0.06241 0.36518 0.69101 0.0
C570 C 0.05838 0.38332 0.67671 0.0
C571 C 0.16441 0.3955 0.62443 0.0
C572 C 0.28519 0.42996 0.60305 0.0
C573 C 0.31275 0.45863 0.60981 0.0
C574 C 0.34344 0.4706 0.60097 0.0
C575 C 0.34592 0.45408 0.58507 0.0
C576 C 0.28862 0.41386 0.58731 0.0
C577 C 0.31868 0.42597 0.57831 0.0
C578 C 0.17372 0.35666 0.66045 0.0
C579 C 0.25337 0.41658 0.61278 0.0
H580 H 1.0087 0.20858 0.62028 0.0
H581 H 0.93273 0.20883 0.65414 0.0
H582 H 0.02349 0.29745 0.6464 0.0
H583 H 0.96819 0.26764 0.66 0.0
H584 H 0.3105 0.47107 0.62211 0.0
H585 H 0.36905 0.463 0.57782 0.0
H586 H 0.26826 0.39186 0.58192 0.0
H587 H 0.32091 0.41337 0.56611 0.0
Eu588 Eu 0.20113 0.83663 0.90199 0.0
C589 C 0.29579 0.94407 0.86193 0.0
C590 C 0.34215 0.96853 0.88324 0.0
C591 C 0.35088 0.96385 0.84989 0.0
C592 C 0.30812 0.9534 0.88 0.0
C593 C 0.31727 0.95037 0.84658 0.0
C594 C 0.3633 0.97287 0.8682 0.0
C595 C 0.27167 0.93424 0.82554 0.0
N596 N 0.26317 0.93108 0.85915 0.0
C597 C 0.25154 0.9288 0.84116 0.0
C598 C 0.30456 0.94423 0.82827 0.0
Eu599 Eu 0.2302 0.91967 0.88684 0.0
N600 N 0.28702 0.94835 0.89436 0.0
C601 C 0.29887 0.96103 0.91185 0.0
C602 C 0.35401 0.97924 0.90147 0.0
C603 C 0.3323 0.97601 0.91576 0.0
H604 H 0.22671 0.92311 0.83864 0.0
H605 H 0.34131 0.98532 0.92977 0.0
H606 H 0.38939 0.98393 0.8705 0.0
H607 H 0.2619 0.93124 0.8114 0.0
H608 H 0.28301 0.96043 0.92292 0.0
H609 H 0.09552 0.75945 0.85686 0.0
H610 H 0.37992 0.99084 0.90454 0.0
H611 H 0.19981 0.84144 0.95065 0.0
H612 H 0.15315 0.7901 0.86537 0.0
H613 H 0.16114 0.83357 0.97555 0.0
H614 H 0.36761 0.96832 0.83831 0.0
H615 H 0.05327 0.75186 0.88008 0.0
H616 H 0.03929 0.76026 0.91279 0.0
H617 H 0.32024 0.94877 0.81613 0.0
H618 H 0.05719 0.78115 0.94492 0.0
N619 N 0.14517 0.80394 0.89281 0.0
C620 C 0.13569 0.78896 0.87554 0.0
C621 C 0.07889 0.76615 0.88386 0.0
C622 C 0.08844 0.7793 0.90196 0.0
C623 C 0.10264 0.77058 0.8707 0.0
C624 C 0.1222 0.79796 0.90619 0.0
H625 H 0.10234 0.80862 0.96834 0.0
N626 N 0.16488 0.82682 0.92811 0.0
C627 C 0.1527 0.82763 0.96111 0.0
C628 C 0.13232 0.81005 0.92425 0.0
C629 C 0.1749 0.83323 0.94659 0.0
C630 C 0.11956 0.81333 0.95701 0.0
C631 C 0.10885 0.80336 0.93855 0.0
O632 O 0.21528 0.81078 0.92211 0.0
O633 O 0.2467 0.88538 0.89747 0.0
O634 O 0.20238 0.88431 0.86287 0.0
O635 O 0.20298 0.83662 0.8699 0.0
O636 O 0.2442 0.84467 0.88458 0.0
O637 O 0.19509 0.78883 0.89514 0.0
O638 O 0.21315 0.94622 0.86936 0.0
O639 O 0.18521 0.87074 0.89127 0.0
O640 O 0.22971 0.87349 0.92596 0.0
O641 O 0.22778 0.92024 0.91823 0.0
O642 O 0.1856 0.91079 0.90337 0.0
O643 O 0.24054 0.96849 0.89486 0.0
C644 C 0.2626 0.8755 0.88769 0.0
C645 C 0.18311 0.75273 0.92046 0.0
C646 C 0.16171 0.69369 0.92138 0.0
C647 C 0.18355 0.72477 0.91392 0.0
C648 C 0.13974 0.69111 0.93561 0.0
C649 C 0.16091 0.74941 0.93465 0.0
C650 C 0.13944 0.71879 0.94218 0.0
C651 C 0.20044 0.85641 0.85778 0.0
C652 C 0.20454 0.7847 0.91159 0.0
C653 C 0.07541 0.78606 0.93417 0.0
C654 C 0.06522 0.77406 0.91591 0.0
C655 C 0.16826 0.8798 0.90052 0.0
C656 C 0.24267 1.00403 0.87109 0.0
C657 C 0.23299 0.02685 0.87568 0.0
C658 C 0.24892 0.05823 0.86764 0.0
C659 C 0.27461 0.06624 0.8548 0.0
C660 C 0.26852 1.01253 0.85845 0.0
C661 C 0.2843 0.04352 0.85028 0.0
C662 C 0.23065 0.90127 0.93061 0.0
C663 C 0.22601 0.97199 0.88022 0.0
H664 H 0.20036 0.72713 0.90279 0.0
H665 H 0.12301 0.66766 0.94185 0.0
H666 H 0.15995 0.77034 0.9399 0.0
H667 H 0.12244 0.71651 0.95314 0.0
H668 H 0.21344 0.02031 0.8858 0.0
H669 H 0.28705 0.08998 0.8481 0.0
H670 H 0.27656 0.99538 0.85498 0.0
H671 H 0.30414 0.04998 0.84044 0.0
Eu672 Eu 0.70701 0.7936 0.6322 0.0
C673 C 0.70302 0.89856 0.58076 0.0
C674 C 0.73159 0.94991 0.5977 0.0
C675 C 0.73183 0.94957 0.5634 0.0
C676 C 0.71296 0.91547 0.59762 0.0
C677 C 0.71152 0.91545 0.56345 0.0
C678 C 0.74183 0.96679 0.58051 0.0
C679 C 0.67574 0.86425 0.54776 0.0
N680 N 0.68251 0.86581 0.58138 0.0
C681 C 0.66764 0.84873 0.56531 0.0
C682 C 0.69816 0.89771 0.5468 0.0
Eu683 Eu 0.67091 0.8407 0.61148 0.0
N684 N 0.70217 0.89841 0.61394 0.0
C685 C 0.70711 0.91443 0.63076 0.0
C686 C 0.73828 0.96637 0.615 0.0
C687 C 0.72558 0.94855 0.63158 0.0
H688 H 0.65024 0.82286 0.56602 0.0
H689 H 0.73005 0.96106 0.645 0.0
H690 H 0.75655 0.99321 0.58029 0.0
H691 H 0.66459 0.85044 0.53503 0.0
H692 H 0.6974 0.90103 0.64368 0.0
H693 H 0.64059 0.67165 0.6008 0.0
H694 H 0.75248 0.9928 0.61568 0.0
H695 H 0.72956 0.81468 0.67728 0.0
H696 H 0.67532 0.73154 0.60086 0.0
H697 H 0.71747 0.78882 0.70869 0.0
H698 H 0.73894 0.96297 0.55024 0.0
H699 H 0.6216 0.64174 0.63097 0.0
H700 H 0.62284 0.64329 0.66644 0.0
H701 H 0.70411 0.90977 0.53321 0.0
H702 H 0.64397 0.67511 0.69578 0.0
N703 N 0.67539 0.73588 0.63078 0.0
C704 C 0.66735 0.71892 0.61415 0.0
C705 C 0.63688 0.66811 0.63109 0.0
C706 C 0.64677 0.68548 0.64811 0.0
C707 C 0.64761 0.68489 0.61404 0.0
C708 C 0.6665 0.7198 0.64747 0.0
H709 H 0.67955 0.72932 0.71167 0.0
N710 N 0.69837 0.77039 0.66267 0.0
C711 C 0.7063 0.77412 0.69622 0.0
C712 C 0.67842 0.7376 0.66394 0.0
C713 C 0.71316 0.78868 0.6784 0.0
C714 C 0.6848 0.74055 0.69785 0.0
C715 C 0.67089 0.72176 0.68158 0.0
O716 O 0.75773 0.81125 0.64031 0.0
O717 O 0.71579 0.84192 0.62203 0.0
O718 O 0.70464 0.83717 0.58958 0.0
O719 O 0.70544 0.7908 0.60024 0.0
O720 O 0.74015 0.84247 0.64637 0.0
O721 O 0.73657 0.77751 0.61685 0.0
O722 O 0.62186 0.82717 0.60153 0.0
O723 O 0.66209 0.79244 0.62149 0.0
O724 O 0.67076 0.79339 0.65278 0.0
O725 O 0.67246 0.8418 0.64418 0.0
O726 O 0.63714 0.79191 0.59752 0.0
O727 O 0.63981 0.85415 0.62755 0.0
C728 C 0.73597 0.86032 0.6343 0.0
C729 C 0.77895 0.77661 0.63397 0.0
C730 C 0.82907 0.7738 0.63605 0.0
C731 C 0.81237 0.78985 0.63005 0.0
C732 C 0.81174 0.74437 0.64614 0.0
C733 C 0.76212 0.74734 0.64407 0.0
C734 C 0.77852 0.73132 0.65012 0.0
C735 C 0.71097 0.81299 0.58726 0.0
C736 C 0.76219 0.79387 0.62759 0.0
C737 C 0.65026 0.68772 0.68236 0.0
C738 C 0.63821 0.66961 0.66566 0.0
C739 C 0.64159 0.77392 0.60938 0.0
C740 C 0.60493 0.86507 0.60916 0.0
C741 C 0.57412 0.85992 0.61486 0.0
C742 C 0.56422 0.88252 0.60982 0.0
C743 C 0.5852 0.90984 0.59886 0.0
C744 C 0.62519 0.89237 0.59809 0.0
C745 C 0.61541 0.91459 0.59298 0.0
C746 C 0.66707 0.81868 0.65671 0.0
C747 C 0.61644 0.84266 0.61504 0.0
H748 H 0.82522 0.81243 0.62213 0.0
H749 H 0.82397 0.73165 0.65119 0.0
H750 H 0.7364 0.73694 0.64728 0.0
H751 H 0.76548 0.70875 0.65796 0.0
H752 H 0.55824 0.83886 0.6234 0.0
H753 H 0.57799 0.92735 0.59463 0.0
H754 H 0.64863 0.89658 0.59341 0.0
H755 H 0.63132 0.93559 0.58444 0.0
Eu756 Eu 0.19461 0.36016 0.90647 0.0
C757 C 0.08391 0.35643 0.85465 0.0
C758 C 0.06589 0.39016 0.87042 0.0
C759 C 0.06286 0.3852 0.83623 0.0
C760 C 0.07941 0.36949 0.87106 0.0
C761 C 0.07518 0.36365 0.83704 0.0
C762 C 0.05824 0.39845 0.85289 0.0
C763 C 0.08947 0.32614 0.82254 0.0
N764 N 0.0957 0.33562 0.85596 0.0
C765 C 0.09768 0.31968 0.84032 0.0
C766 C 0.07848 0.34849 0.82085 0.0
Eu767 Eu 0.11109 0.32743 0.88635 0.0
N768 N 0.08682 0.36076 0.88774 0.0
C769 C 0.07908 0.36993 0.90438 0.0
C770 C 0.05971 0.4012 0.88743 0.0
C771 C 0.06592 0.39065 0.90449 0.0
H772 H 0.10643 0.3026 0.84143 0.0
H773 H 0.06066 0.39854 0.91774 0.0
H774 H 0.0481 0.41452 0.8521 0.0
H775 H 0.09175 0.31398 0.81014 0.0
H776 H 0.08377 0.36207 0.91769 0.0
H777 H 0.25522 0.3008 0.87253 0.0
H778 H 0.04948 0.41723 0.88755 0.0
H779 H 0.1958 0.37865 0.95227 0.0
H780 H 0.22826 0.33385 0.87411 0.0
H781 H 0.20798 0.36284 0.98311 0.0
H782 H 0.05625 0.39126 0.82283 0.0
H783 H 0.26338 0.27702 0.90163 0.0
H784 H 0.25886 0.27178 0.93694 0.0
H785 H 0.0721 0.35343 0.80706 0.0
H786 H 0.24565 0.28843 0.96712 0.0
N787 N 0.22016 0.32812 0.90374 0.0
C788 C 0.23152 0.32359 0.88692 0.0
C789 C 0.25144 0.29149 0.90241 0.0
C790 C 0.24135 0.29771 0.91975 0.0
C791 C 0.24695 0.30493 0.88597 0.0
C792 C 0.22585 0.31662 0.91996 0.0
H793 H 0.22727 0.32291 0.98449 0.0
N794 N 0.20666 0.34686 0.93651 0.0
C795 C 0.21088 0.35215 0.97024 0.0
C796 C 0.21856 0.32606 0.93691 0.0
C797 C 0.2041 0.36111 0.95277 0.0
C798 C 0.22163 0.3295 0.97096 0.0
C799 C 0.22632 0.31672 0.95415 0.0
O800 O 0.23083 0.40871 0.91675 0.0
O801 O 0.15657 0.37143 0.89663 0.0
O802 O 0.14737 0.36162 0.86514 0.0
O803 O 0.19377 0.35899 0.87374 0.0
O804 O 0.182 0.39535 0.92076 0.0
O805 O 0.23999 0.39041 0.89089 0.0
O806 O 0.07649 0.27657 0.87918 0.0
O807 O 0.14976 0.31689 0.89576 0.0
O808 O 0.15622 0.32589 0.92778 0.0
O809 O 0.11209 0.33151 0.91826 0.0
O810 O 0.12396 0.29234 0.87187 0.0
O811 O 0.06615 0.29957 0.90258 0.0
C812 C 0.16002 0.39234 0.90891 0.0
C813 C 0.28561 0.4245 0.90985 0.0
C814 C 0.34415 0.46429 0.90999 0.0
C815 C 0.31202 0.45488 0.90422 0.0
C816 C 0.34929 0.44322 0.92162 0.0
C817 C 0.29152 0.40413 0.92152 0.0
C818 C 0.32312 0.41342 0.92736 0.0
C819 C 0.1761 0.36456 0.86118 0.0
C820 C 0.25199 0.41369 0.9035 0.0
C821 C 0.23984 0.29616 0.95402 0.0
C822 C 0.24738 0.2867 0.93684 0.0
C823 C 0.14651 0.29616 0.88348 0.0
C824 C 0.02126 0.25754 0.88611 0.0
C825 C 1.00082 0.22386 0.88905 0.0
C826 C 0.96785 0.20814 0.88339 0.0
C827 C 0.95581 0.22664 0.87458 0.0
C828 C 1.00889 0.27553 0.87722 0.0
C829 C 0.97626 0.26007 0.87149 0.0
C830 C 0.12747 0.32368 0.93093 0.0
C831 C 0.05553 0.27341 0.89213 0.0
H832 H 0.30768 0.47079 0.89518 0.0
H833 H 0.37364 0.45 0.92646 0.0
H834 H 0.27172 0.38104 0.92616 0.0
H835 H 0.32733 0.39745 0.93637 0.0
H836 H 1.01048 0.21003 0.89596 0.0
H837 H 0.93065 0.21516 0.86986 0.0
H838 H 0.02442 0.30144 0.87472 0.0
H839 H 0.96679 0.27402 0.86461 0.0
Eu840 Eu 0.23519 0.92122 0.63275 0.0
C841 C 0.13317 0.81254 0.58487 0.0
C842 C 0.08468 0.79263 0.60427 0.0
C843 C 0.07969 0.79028 0.57012 0.0
C844 C 0.11895 0.80738 0.60249 0.0
C845 C 0.11354 0.80285 0.56849 0.0
C846 C 0.06527 0.78508 0.58799 0.0
C847 C 0.16109 0.81278 0.55049 0.0
N848 N 0.16567 0.82332 0.58388 0.0
C849 C 0.1793 0.82138 0.56717 0.0
C850 C 0.12818 0.80411 0.55109 0.0
Eu851 Eu 0.19537 0.83834 0.61279 0.0
N852 N 0.13836 0.81454 0.61792 0.0
C853 C 0.12484 0.80548 0.63546 0.0
C854 C 0.07086 0.78481 0.62231 0.0
C855 C 0.09101 0.79077 0.63795 0.0
H856 H 0.20473 0.82778 0.56671 0.0
H857 H 0.08054 0.78411 0.65194 0.0
H858 H 0.03896 0.7741 0.58908 0.0
H859 H 0.17236 0.81253 0.53722 0.0
H860 H 0.13994 0.80939 0.64763 0.0
H861 H 0.33691 1.00595 0.58696 0.0
H862 H 0.04466 0.77346 0.62426 0.0
H863 H 0.24297 0.90614 0.67887 0.0
H864 H 0.28088 0.97861 0.599 0.0
H865 H 0.28341 0.90458 0.69957 0.0
H866 H 0.06427 0.78309 0.55769 0.0
H867 H 0.37985 1.00081 0.60383 0.0
H868 H 0.39634 0.98113 0.63221 0.0
H869 H 0.11395 0.79689 0.53819 0.0
H870 H 0.38188 0.95384 0.66305 0.0
N871 N 0.29014 0.95388 0.62136 0.0
C872 C 0.29863 0.97438 0.60612 0.0
C873 C 0.35492 0.98792 0.60899 0.0
C874 C 0.34699 0.97008 0.62575 0.0
C875 C 0.33075 0.99076 0.5994 0.0
C876 C 0.31406 0.95356 0.63181 0.0
H877 H 0.34003 0.9256 0.68835 0.0
N878 N 0.27432 0.92341 0.65482 0.0
C879 C 0.29 0.91335 0.68525 0.0
C880 C 0.30592 0.93799 0.64908 0.0
C881 C 0.26669 0.91332 0.67313 0.0
C882 C 0.32192 0.92542 0.67891 0.0
C883 C 0.33048 0.93881 0.66083 0.0
O884 O 0.22662 0.94244 0.65812 0.0
O885 O 0.18712 0.87673 0.62577 0.0
O886 O 0.20529 0.87366 0.58821 0.0
O887 O 0.23702 0.92592 0.60116 0.0
O888 O 0.19326 0.92154 0.6175 0.0
O889 O 0.24249 0.97091 0.63203 0.0
O890 O 0.20917 0.80354 0.60161 0.0
O891 O 0.2419 0.87869 0.62539 0.0
O892 O 0.20268 0.88464 0.65463 0.0
O893 O 0.20151 0.83725 0.64482 0.0
O894 O 0.24499 0.85894 0.59963 0.0
O895 O 0.18046 0.79175 0.62683 0.0
C896 C 0.17323 0.89047 0.61782 0.0
C897 C 0.23328 0.99691 0.6593 0.0
C898 C 0.22817 0.04575 0.65867 0.0
C899 C 0.2289 0.02001 0.64912 0.0
C900 C 0.23195 0.04837 0.67834 0.0
C901 C 0.23665 0.99975 0.67901 0.0
C902 C 0.23609 0.02543 0.68844 0.0
C903 C 0.22329 0.90588 0.58679 0.0
C904 C 0.23395 0.96962 0.64961 0.0
C905 C 0.36287 0.95358 0.65437 0.0
C906 C 0.37109 0.9691 0.63682 0.0
C907 C 0.26143 0.87947 0.61284 0.0
C908 C 0.17055 0.74786 0.6069 0.0
C909 C 0.1743 0.72128 0.61241 0.0
C910 C 0.1517 0.68934 0.60624 0.0
C911 C 0.126 0.68457 0.59422 0.0
C912 C 0.1445 0.74221 0.59505 0.0
C913 C 0.12252 0.71087 0.58866 0.0
C914 C 0.19874 0.85547 0.65809 0.0
C915 C 0.19272 0.78115 0.6141 0.0
H916 H 0.22589 0.0179 0.63392 0.0
H917 H 0.2314 0.06807 0.68589 0.0
H918 H 0.23995 0.98223 0.68713 0.0
H919 H 0.23883 0.02752 0.70362 0.0
H920 H 0.19411 0.7253 0.62178 0.0
H921 H 0.10859 0.66039 0.58904 0.0
H922 H 0.14088 0.76192 0.5908 0.0
H923 H 0.10258 0.70692 0.57947 0.0
Eu924 Eu 0.66321 0.83506 0.9026 0.0
C925 C 0.67204 0.73703 0.86069 0.0
C926 C 0.64612 0.69008 0.88143 0.0
C927 C 0.63642 0.68267 0.8477 0.0
C928 C 0.66652 0.72407 0.87871 0.0
C929 C 0.65801 0.71615 0.84494 0.0
C930 C 0.63044 0.66967 0.86592 0.0
C931 C 0.69145 0.76177 0.82473 0.0
N932 N 0.69309 0.7695 0.85841 0.0
C933 C 0.70482 0.78137 0.84073 0.0
C934 C 0.66726 0.7292 0.82682 0.0
Eu935 Eu 0.71321 0.80127 0.88666 0.0
N936 N 0.68159 0.74445 0.89354 0.0
C937 C 0.67961 0.73181 0.91115 0.0
C938 C 0.64239 0.67748 0.89966 0.0
C939 C 0.65968 0.69838 0.91452 0.0
H940 H 0.72454 0.80614 0.83873 0.0
H941 H 0.65781 0.68876 0.92859 0.0
H942 H 0.6143 0.64364 0.86781 0.0
H943 H 0.70009 0.77177 0.81081 0.0
H944 H 0.6936 0.74699 0.92276 0.0
H945 H 0.70287 0.94413 0.85881 0.0
H946 H 0.62688 0.65158 0.90232 0.0
H947 H 0.66426 0.8337 0.95134 0.0
H948 H 0.67291 0.88606 0.86603 0.0
H949 H 0.69397 0.87031 0.97733 0.0
H950 H 0.62505 0.66643 0.83578 0.0
H951 H 0.73591 0.98428 0.8834 0.0
H952 H 0.75504 0.99559 0.91677 0.0
H953 H 0.6571 0.71397 0.8144 0.0
H954 H 0.75391 0.97538 0.94877 0.0
N955 N 0.69085 0.89155 0.89431 0.0
C956 C 0.68822 0.9025 0.87689 0.0
C957 C 0.72314 0.95843 0.88666 0.0
C958 C 0.72426 0.94745 0.90477 0.0
C959 C 0.70471 0.93585 0.87274 0.0
C960 C 0.70731 0.91343 0.90832 0.0
H961 H 0.7316 0.92891 0.9714 0.0
N962 N 0.68897 0.86931 0.92961 0.0
C963 C 0.6986 0.87949 0.96302 0.0
C964 C 0.7069 0.90199 0.92634 0.0
C965 C 0.68259 0.85843 0.94792 0.0
C966 C 0.71961 0.91252 0.95962 0.0
C967 C 0.72308 0.92437 0.94125 0.0
O968 O 0.62253 0.82308 0.92203 0.0
O969 O 0.66338 0.78782 0.89791 0.0
O970 O 0.70548 0.82803 0.86233 0.0
O971 O 0.66022 0.83273 0.87054 0.0
O972 O 0.6256 0.79231 0.88603 0.0
O973 O 0.62428 0.84509 0.89516 0.0
O974 O 0.75778 0.81691 0.87016 0.0
O975 O 0.71229 0.84809 0.89108 0.0
O976 O 0.67067 0.8062 0.92661 0.0
O977 O 0.71696 0.80385 0.91801 0.0
O978 O 0.7513 0.84553 0.90243 0.0
O979 O 0.74853 0.78686 0.89496 0.0
C980 C 0.63709 0.77301 0.88843 0.0
C981 C 0.59975 0.858 0.91994 0.0
C982 C 0.56316 0.88062 0.92092 0.0
C983 C 0.57102 0.85741 0.91396 0.0
C984 C 0.58415 0.90406 0.93408 0.0
C985 C 0.62019 0.88159 0.93314 0.0
C986 C 0.61236 0.9044 0.94017 0.0
C987 C 0.68057 0.83212 0.85798 0.0
C988 C 0.60924 0.83556 0.91124 0.0
C989 C 0.74106 0.95799 0.93754 0.0
C990 C 0.74159 0.96951 0.91935 0.0
C991 C 0.73888 0.864 0.90002 0.0
C992 C 0.78272 0.78419 0.87179 0.0
C993 C 0.81528 0.79363 0.87595 0.0
C994 C 0.82985 0.77661 0.86817 0.0
C995 C 0.81128 0.75003 0.85602 0.0
C996 C 0.76445 0.75751 0.8598 0.0
C997 C 0.77881 0.74063 0.85188 0.0
C998 C 0.69665 0.80347 0.93078 0.0
C999 C 0.76821 0.80173 0.88094 0.0
H1000 H 0.55534 0.83955 0.90357 0.0
H1001 H 0.57855 0.92199 0.93979 0.0
H1002 H 0.64232 0.88267 0.93793 0.0
H1003 H 0.62834 0.92254 0.95032 0.0
H1004 H 0.82901 0.81382 0.88561 0.0
H1005 H 0.82193 0.73667 0.84962 0.0
H1006 H 0.73916 0.74959 0.85669 0.0
H1007 H 0.7647 0.72009 0.84256 0.0
C1008 C 0.12522 0.26317 0.12483 0.0
C1009 C 0.09221 0.24269 0.12967 0.0
C1010 C 0.14593 0.25036 0.1221 0.0
C1011 C 0.15576 0.18068 0.1354 0.0
H1012 H 0.2214 0.2131 0.09588 0.0
C1013 C 0.26514 0.15831 0.13541 0.0
C1014 C 0.27411 0.15053 0.11813 0.0
C1015 C 0.24177 0.16814 0.13604 0.0
C1016 C 0.20305 0.20362 0.1069 0.0
H1017 H 0.05489 0.19251 0.1351 0.0
H1018 H 0.09113 0.17002 0.13025 0.0
H1019 H 0.18206 0.23224 0.09769 0.0
H1020 H 0.26465 0.14483 0.08812 0.0
H1021 H 0.22402 0.16276 0.08905 0.0
H1022 H 0.17678 0.1521 0.14462 0.0
C1023 C 0.101 0.19609 0.12871 0.0
C1024 C 0.18069 0.21479 0.10804 0.0
C1025 C 0.08018 0.20891 0.13131 0.0
C1026 C 0.25859 0.15158 0.10152 0.0
C1027 C 0.23544 0.16183 0.10209 0.0
C1028 C 0.17823 0.16967 0.13432 0.0
C1029 C 0.1342 0.21673 0.12421 0.0
C1030 C 0.15689 0.20359 0.12237 0.0
C1031 C 0.22677 0.17021 0.11938 0.0
C1032 C 0.20225 0.18115 0.12012 0.0
H1033 H 0.13512 0.28924 0.12324 0.0
H1034 H 0.17139 0.26698 0.1188 0.0
H1035 H 0.13798 0.17182 0.14673 0.0
H1036 H 0.27621 0.15673 0.14846 0.0
H1037 H 0.23581 0.17462 0.14955 0.0
C1038 C 0.15491 0.95473 0.38015 0.0
C1039 C 0.17827 0.94455 0.37946 0.0
C1040 C 0.1217 0.93193 0.3829 0.0
C1041 C 0.06368 0.84436 0.37548 0.0
H1042 H 1.00374 0.86003 0.4051 0.0
C1043 C 0.92468 0.76523 0.36698 0.0
C1044 C 0.9057 0.75447 0.38343 0.0
C1045 C 0.95787 0.78851 0.36797 0.0
C1046 C 0.02027 0.85523 0.3969 0.0
H1047 H 0.18524 0.9028 0.38254 0.0
H1048 H 0.12764 0.86326 0.38726 0.0
H1049 H 0.06221 0.90085 0.40489 0.0
H1050 H 0.9056 0.76114 0.41366 0.0
H1051 H 0.96412 0.80211 0.41549 0.0
H1052 H 0.02201 0.7989 0.36746 0.0
C1053 C 0.13478 0.88868 0.38522 0.0
C1054 C 0.05366 0.87872 0.39663 0.0
C1055 C 0.16783 0.91137 0.3825 0.0
C1056 C 0.92009 0.76844 0.40086 0.0
C1057 C 0.95337 0.79211 0.40186 0.0
C1058 C 0.03042 0.82107 0.37567 0.0
C1059 C 0.11119 0.8985 0.38502 0.0
C1060 C 0.07575 0.87356 0.38586 0.0
C1061 C 0.97269 0.80211 0.38541 0.0
C1062 C 1.00826 0.82633 0.38622 0.0
H1063 H 0.16209 0.98008 0.3778 0.0
H1064 H 0.10414 0.94029 0.38259 0.0
H1065 H 0.07988 0.83972 0.36684 0.0
H1066 H 0.91384 0.75533 0.35334 0.0
H1067 H 0.9719 0.79614 0.35502 0.0
C1068 C 0.88096 0.11232 0.10858 0.0
C1069 C 0.88107 0.13003 0.12451 0.0
C1070 C 0.87136 0.07922 0.11012 0.0
C1071 C 0.8283 1.00792 0.14213 0.0
H1072 H 0.87515 0.97399 0.11371 0.0
C1073 C 0.79342 0.87356 0.14956 0.0
C1074 C 0.8194 0.86739 0.15122 0.0
C1075 C 0.79901 0.90388 0.14317 0.0
C1076 C 0.86189 0.98306 0.12182 0.0
H1077 H 0.87397 0.12842 0.15471 0.0
H1078 H 0.85764 0.07068 0.15762 0.0
H1079 H 0.88913 0.03071 0.10963 0.0
H1080 H 0.87127 0.88717 0.14702 0.0
H1081 H 0.88145 0.94058 0.13627 0.0
H1082 H 0.80224 0.961 0.15507 0.0
C1083 C 0.86346 0.0817 0.14376 0.0
C1084 C 0.86964 0.01553 0.1193 0.0
C1085 C 0.87276 0.1147 0.14215 0.0
C1086 C 0.85084 0.89139 0.14561 0.0
C1087 C 0.85657 0.92193 0.13943 0.0
C1088 C 0.82074 0.9756 0.14476 0.0
C1089 C 0.86257 0.06349 0.12775 0.0
C1090 C 0.85319 0.02847 0.1296 0.0
C1091 C 0.83086 0.92891 0.13868 0.0
C1092 C 0.83758 0.96274 0.13476 0.0
H1093 H 0.88827 0.12412 0.09494 0.0
H1094 H 0.87074 0.06596 0.09749 0.0
H1095 H 0.81475 0.01686 0.15007 0.0
H1096 H 0.76899 0.85531 0.15388 0.0
H1097 H 0.77847 0.90801 0.14233 0.0
C1098 C 0.27249 0.16895 0.36782 0.0
C1099 C 0.28325 0.15993 0.38392 0.0
C1100 C 0.24926 0.17883 0.36931 0.0
C1101 C 0.18257 0.1732 0.39876 0.0
H1102 H 0.19842 0.2498 0.37042 0.0
C1103 C 0.08335 0.2093 0.38355 0.0
C1104 C 0.09365 0.24287 0.38354 0.0
C1105 C 0.10606 0.19871 0.38595 0.0
C1106 C 0.19369 0.22855 0.37858 0.0
H1107 H 0.27662 0.15172 0.41404 0.0
H1108 H 0.23572 0.16923 0.41676 0.0
H1109 H 0.23918 0.23271 0.37029 0.0
H1110 H 0.13547 0.29138 0.38748 0.0
H1111 H 0.17485 0.27302 0.3916 0.0
H1112 H 0.13692 0.16915 0.40703 0.0
C1113 C 0.24569 0.16912 0.40301 0.0
C1114 C 0.21694 0.21855 0.37834 0.0
C1115 C 0.26933 0.15953 0.40152 0.0
C1116 C 0.12682 0.26541 0.38692 0.0
C1117 C 0.14942 0.25488 0.3893 0.0
C1118 C 0.15912 0.18314 0.39893 0.0
C1119 C 0.23571 0.17925 0.38692 0.0
C1120 C 0.21156 0.19061 0.38826 0.0
C1121 C 0.13951 0.22148 0.38838 0.0
C1122 C 0.1644 0.21091 0.38878 0.0
H1123 H 0.28234 0.16864 0.35404 0.0
H1124 H 0.24164 0.18586 0.3566 0.0
H1125 H 0.17768 0.15146 0.40647 0.0
H1126 H 0.05799 0.19128 0.38093 0.0
H1127 H 0.09763 0.1728 0.38509 0.0
C1128 C 0.15954 0.9112 0.13896 0.0
C1129 C 0.16997 0.94312 0.14538 0.0
C1130 C 0.12663 0.88987 0.13465 0.0
C1131 C 0.04429 0.87558 0.14558 0.0
H1132 H 1.01766 0.81544 0.10321 0.0
C1133 C 0.91425 0.76556 0.13898 0.0
C1134 C 0.89948 0.75846 0.12114 0.0
C1135 C 0.94719 0.78906 0.14101 0.0
C1136 C 0.02472 0.83228 0.115 0.0
H1137 H 0.15394 0.97775 0.15204 0.0
H1138 H 0.09668 0.94071 0.14428 0.0
H1139 H 0.0756 0.85524 0.10791 0.0
H1140 H 0.90643 0.77126 0.09156 0.0
H1141 H 0.96467 0.81235 0.09497 0.0
H1142 H 0.99353 0.8528 0.15265 0.0
C1143 C 0.1139 0.93205 0.14278 0.0
C1144 C 0.05791 0.85485 0.1178 0.0
C1145 C 0.14679 0.95338 0.14706 0.0
C1146 C 0.91773 0.77595 0.10538 0.0
C1147 C 0.95092 0.79932 0.10735 0.0
C1148 C 1.01121 0.853 0.14282 0.0
C1149 C 0.10336 0.89993 0.13669 0.0
C1150 C 0.06808 0.87666 0.13319 0.0
C1151 C 0.96596 0.80612 0.12522 0.0
C1152 C 1.00106 0.83095 0.12758 0.0
H1153 H 0.17684 0.90269 0.13723 0.0
H1154 H 0.11931 0.86523 0.13013 0.0
H1155 H 0.05127 0.89174 0.15769 0.0
H1156 H 0.90028 0.75288 0.15139 0.0
H1157 H 0.95807 0.79351 0.15493 0.0
C1158 C 0.77105 0.86849 0.38695 0.0
C1159 C 0.79353 0.85796 0.38307 0.0
C1160 C 0.78164 0.9016 0.38959 0.0
C1161 C 0.85364 0.98285 0.39947 0.0
H1162 H 0.80406 0.01406 0.37161 0.0
C1163 C 0.8782 0.11688 0.40324 0.0
C1164 C 0.87826 0.13068 0.38572 0.0
C1165 C 0.8682 0.08356 0.40452 0.0
C1166 C 0.81818 1.00574 0.37946 0.0
H1167 H 0.84508 0.8741 0.37977 0.0
H1168 H 0.86362 0.93212 0.38446 0.0
H1169 H 0.78651 0.95607 0.37126 0.0
H1170 H 0.86992 0.12148 0.35575 0.0
H1171 H 0.85186 0.06332 0.35795 0.0
H1172 H 0.8857 0.03296 0.40732 0.0
C1173 C 0.83774 0.91458 0.3855 0.0
C1174 C 0.80795 0.97245 0.37942 0.0
C1175 C 0.8271 0.88132 0.3828 0.0
C1176 C 0.86925 0.11109 0.36947 0.0
C1177 C 0.85891 0.07786 0.37075 0.0
C1178 C 0.86378 0.01627 0.39961 0.0
C1179 C 0.81502 0.92514 0.38849 0.0
C1180 C 0.82565 0.96058 0.3893 0.0
C1181 C 0.85808 0.06365 0.38828 0.0
C1182 C 0.84637 0.02808 0.38938 0.0
H1183 H 0.74509 0.85111 0.38774 0.0
H1184 H 0.76356 0.90884 0.39228 0.0
H1185 H 0.86766 0.97443 0.40733 0.0
H1186 H 0.88602 0.13186 0.41588 0.0
H1187 H 0.86779 0.07326 0.41821 0.0
C1188 C 0.19118 0.06307 0.64425 0.0
C1189 C 0.22298 0.06998 0.64855 0.0
C1190 C 0.18556 0.08801 0.63822 0.0
C1191 C 0.22376 0.1778 0.64207 0.0
H1192 H 0.152 0.16412 0.60961 0.0
C1193 C 0.17076 0.26403 0.64295 0.0
C1194 C 0.16042 0.27063 0.62587 0.0
C1195 C 0.18101 0.24098 0.64366 0.0
C1196 C 0.17245 0.16854 0.6185 0.0
H1197 H 0.27399 0.1074 0.64908 0.0
H1198 H 0.26455 0.15085 0.63784 0.0
H1199 H 0.16552 0.12092 0.61295 0.0
H1200 H 0.15073 0.25752 0.59637 0.0
H1201 H 0.16987 0.21797 0.59731 0.0
H1202 H 0.23094 0.22552 0.64745 0.0
C1203 C 0.24376 0.12651 0.63954 0.0
C1204 C 0.17995 0.14359 0.6206 0.0
C1205 C 0.24928 0.10164 0.64576 0.0
C1206 C 0.15968 0.25342 0.60956 0.0
C1207 C 0.1702 0.23054 0.61019 0.0
C1208 C 0.21639 0.20277 0.63988 0.0
C1209 C 0.21172 0.12029 0.63633 0.0
C1210 C 0.20542 0.14771 0.63264 0.0
C1211 C 0.18077 0.22386 0.62729 0.0
C1212 C 0.19029 0.19827 0.62834 0.0
H1213 H 0.17055 0.03881 0.64656 0.0
H1214 H 0.16055 0.08229 0.63608 0.0
H1215 H 0.24324 0.18181 0.65168 0.0
H1216 H 0.17018 0.27617 0.65584 0.0
H1217 H 0.18825 0.23594 0.65716 0.0
C1218 C 0.11454 0.86786 0.91329 0.0
C1219 C 0.1328 0.86544 0.89843 0.0
C1220 C 0.08126 0.85677 0.91097 0.0
C1221 C 1.01042 0.80536 0.88004 0.0
H1222 H 0.97526 0.85663 0.90199 0.0
C1223 C 0.87294 0.7626 0.87663 0.0
C1224 C 0.86421 0.7864 0.87286 0.0
C1225 C 0.90532 0.77171 0.88073 0.0
C1226 C 0.98473 0.84217 0.89564 0.0
H1227 H 0.13158 0.85145 0.86918 0.0
H1228 H 0.07351 0.83257 0.8649 0.0
H1229 H 0.03258 0.87344 0.90679 0.0
H1230 H 0.88263 0.8385 0.87057 0.0
H1231 H 0.93921 0.85442 0.87752 0.0
H1232 H 0.96293 0.77483 0.86827 0.0
C1233 C 0.08443 0.84181 0.8786 0.0
C1234 C 1.0175 0.85154 0.89862 0.0
C1235 C 0.11764 0.85259 0.88102 0.0
C1236 C 0.88852 0.81957 0.87356 0.0
C1237 C 0.92095 0.82869 0.87759 0.0
C1238 C 0.97771 0.7961 0.87697 0.0
C1239 C 0.06585 0.84382 0.89355 0.0
C1240 C 0.03077 0.83331 0.89081 0.0
C1241 C 0.92979 0.80484 0.88109 0.0
C1242 C 0.96446 0.81442 0.8847 0.0
H1243 H 0.12604 0.8782 0.92674 0.0
H1244 H 0.06761 0.85831 0.92283 0.0
H1245 H 1.01975 0.79054 0.87401 0.0
H1246 H 0.85466 0.73687 0.87659 0.0
H1247 H 0.91113 0.75273 0.88375 0.0
C1248 C 0.77235 0.90942 0.61476 0.0
C1249 C 0.75966 0.89542 0.63242 0.0
C1250 C 0.79646 0.94245 0.61345 0.0
C1251 C 0.86008 1.01046 0.64172 0.0
H1252 H 0.85313 0.06608 0.60414 0.0
C1253 C 0.95837 0.14685 0.63465 0.0
C1254 C 0.94634 0.16861 0.63311 0.0
C1255 C 0.93732 0.11313 0.63262 0.0
C1256 C 0.85541 0.05086 0.61473 0.0
H1257 H 0.76296 0.90406 0.66254 0.0
H1258 H 0.80464 0.96173 0.66033 0.0
H1259 H 0.81275 1.00779 0.60471 0.0
H1260 H 0.90314 0.17212 0.62737 0.0
H1261 H 0.86645 0.11344 0.62403 0.0
H1262 H 0.90218 0.05353 0.65206 0.0
C1263 C 0.7961 0.94745 0.64747 0.0
C1264 C 0.83242 0.01741 0.61495 0.0
C1265 C 0.77208 0.91455 0.64875 0.0
C1266 C 0.91307 0.15597 0.62888 0.0
C1267 C 0.89211 0.12234 0.62675 0.0
C1268 C 0.88313 0.04381 0.64144 0.0
C1269 C 0.80862 0.96183 0.62981 0.0
C1270 C 0.8342 0.99693 0.62865 0.0
C1271 C 0.90385 0.10044 0.62886 0.0
C1272 C 0.88083 0.06453 0.62811 0.0
H1273 H 0.76381 0.89481 0.60201 0.0
H1274 H 0.80585 0.9527 0.59966 0.0
H1275 H 0.86242 0.99526 0.6523 0.0
H1276 H 0.98385 0.15581 0.63797 0.0
H1277 H 0.94722 0.09695 0.63414 0.0
C1278 C 0.16002 0.25884 0.90126 0.0
C1279 C 0.15889 0.27326 0.88422 0.0
C1280 C 0.1699 0.2354 0.90142 0.0
C1281 C 0.21698 0.20759 0.87312 0.0
H1282 H 0.17096 0.12754 0.90201 0.0
C1283 C 0.26256 0.11561 0.87522 0.0
C1284 C 0.23888 0.08256 0.8726 0.0
C1285 C 0.25327 0.13887 0.87889 0.0
C1286 C 0.18399 0.14975 0.89384 0.0
H1287 H 0.16491 0.27339 0.85395 0.0
H1288 H 0.1825 0.23283 0.85414 0.0
H1289 H 0.15341 0.16822 0.90381 0.0
H1290 H 0.18673 0.04795 0.87234 0.0
H1291 H 0.17051 0.08864 0.87869 0.0
H1292 H 0.24693 0.18898 0.86268 0.0
C1293 C 0.17659 0.24002 0.86744 0.0
C1294 C 0.17415 0.17317 0.89502 0.0
C1295 C 0.16648 0.26313 0.8673 0.0
C1296 C 0.20563 0.07317 0.87439 0.0
C1297 C 0.19632 0.09648 0.87807 0.0
C1298 C 0.22682 0.1843 0.87197 0.0
C1299 C 0.1787 0.22608 0.88451 0.0
C1300 C 0.19027 0.20211 0.88444 0.0
C1301 C 0.22004 0.1297 0.88003 0.0
C1302 C 0.21029 0.15497 0.88216 0.0
H1303 H 0.15325 0.26565 0.91441 0.0
H1304 H 0.17131 0.2251 0.91478 0.0
H1305 H 0.23018 0.22986 0.865 0.0
H1306 H 0.28838 0.12356 0.87441 0.0
H1307 H 0.27217 0.16415 0.88072 0.0
C1308 C 0.12105 0.87714 0.60182 0.0
C1309 C 0.13793 0.87818 0.61829 0.0
C1310 C 0.08773 0.86719 0.60264 0.0
C1311 C 0.02353 0.85933 0.63573 0.0
H1312 H 0.96381 0.79828 0.5986 0.0
C1313 C 0.88666 0.82122 0.63435 0.0
C1314 C 0.86448 0.78765 0.63198 0.0
C1315 C 0.92017 0.8338 0.63146 0.0
C1316 C 0.98016 0.81527 0.60911 0.0
H1317 H 0.13459 0.87226 0.64861 0.0
H1318 H 0.07642 0.85472 0.65015 0.0
H1319 H 0.02217 0.81716 0.59628 0.0
H1320 H 0.85997 0.74127 0.62395 0.0
H1321 H 0.91836 0.76308 0.61915 0.0
H1322 H 0.98152 0.85689 0.64883 0.0
C1323 C 0.08851 0.86109 0.63655 0.0
C1324 C 1.01364 0.82631 0.60768 0.0
C1325 C 0.12165 0.8707 0.63568 0.0
C1326 C 0.87647 0.76715 0.62615 0.0
C1327 C 0.90991 0.77973 0.62319 0.0
C1328 C 0.9901 0.84838 0.63713 0.0
C1329 C 0.07108 0.85903 0.62004 0.0
C1330 C 0.03567 0.84826 0.62107 0.0
C1331 C 0.93222 0.81313 0.62601 0.0
C1332 C 0.96797 0.82602 0.62392 0.0
H1333 H 0.13356 0.88368 0.58834 0.0
H1334 H 0.07511 0.86629 0.58971 0.0
H1335 H 0.03989 0.87652 0.64617 0.0
H1336 H 0.87822 0.83764 0.63891 0.0
H1337 H 0.93667 0.85972 0.63354 0.0
C1338 C 0.95601 0.14998 0.88219 0.0
C1339 C 0.94587 0.1726 0.8866 0.0
C1340 C 0.93443 0.1164 0.88424 0.0
C1341 C 0.85816 0.05654 0.90818 0.0
H1342 H 0.8518 0.99834 0.8676 0.0
C1343 C 0.78063 0.91627 0.91435 0.0
C1344 C 0.76109 0.89943 0.89879 0.0
C1345 C 0.80355 0.94953 0.91306 0.0
C1346 C 0.85318 0.01432 0.879 0.0
H1347 H 0.90573 0.17783 0.89731 0.0
H1348 H 0.86813 0.11938 0.90081 0.0
H1349 H 0.89167 0.05665 0.8655 0.0
H1350 H 0.75161 0.90301 0.86927 0.0
H1351 H 0.79176 0.96144 0.86693 0.0
H1352 H 0.8194 0.01435 0.92156 0.0
C1353 C 0.89266 0.1275 0.89575 0.0
C1354 C 0.87628 0.04764 0.8779 0.0
C1355 C 0.9141 0.16098 0.89358 0.0
C1356 C 0.76574 0.9159 0.88163 0.0
C1357 C 0.78898 0.94914 0.88024 0.0
C1358 C 0.83522 0.02323 0.90932 0.0
C1359 C 0.90242 0.10479 0.89091 0.0
C1360 C 0.87891 0.06915 0.89243 0.0
C1361 C 0.80797 0.96637 0.89601 0.0
C1362 C 0.83239 1.00176 0.89472 0.0
H1363 H 0.98033 0.15821 0.87673 0.0
H1364 H 0.94278 0.09951 0.88058 0.0
H1365 H 0.85974 0.07243 0.91968 0.0
H1366 H 0.77794 0.90368 0.92756 0.0
H1367 H 0.81817 0.96197 0.92535 0.0
C1368 C 0.36209 0.20069 0.33138 0.0
C1369 C 0.38045 0.18774 0.33923 0.0
C1370 C 0.36199 0.2049 0.31181 0.0
C1371 C 0.40627 0.21609 0.26796 0.0
H1372 H 0.32189 0.16224 0.2443 0.0
C1373 C 0.39332 0.19178 0.18728 0.0
C1374 C 0.36357 0.18363 0.17855 0.0
C1375 C 0.39687 0.19654 0.20686 0.0
C1376 C 0.3456 0.17817 0.25053 0.0
H1377 H 0.41394 0.17016 0.33303 0.0
H1378 H 0.41491 0.17897 0.29896 0.0
H1379 H 0.3261 0.16478 0.27852 0.0
H1380 H 0.31492 0.17595 0.18298 0.0
H1381 H 0.32171 0.1867 0.21676 0.0
H1382 H 0.4259 0.2303 0.24016 0.0
C1383 C 0.40047 0.1856 0.30788 0.0
C1384 C 0.34793 0.17938 0.27022 0.0
C1385 C 0.39996 0.18066 0.32734 0.0
C1386 C 0.33811 0.18219 0.18946 0.0
C1387 C 0.34192 0.18785 0.20891 0.0
C1388 C 0.40387 0.21554 0.24824 0.0
C1389 C 0.38087 0.19698 0.29989 0.0
C1390 C 0.37831 0.19807 0.2791 0.0
C1391 C 0.37097 0.19405 0.21806 0.0
C1392 C 0.37352 0.19626 0.23917 0.0
H1393 H 0.34632 0.20568 0.34019 0.0
H1394 H 0.3466 0.2136 0.30592 0.0
H1395 H 0.42999 0.23069 0.27453 0.0
H1396 H 0.41305 0.19232 0.17916 0.0
H1397 H 0.41944 0.20067 0.21322 0.0
C1398 C 0.86608 0.67285 0.33126 0.0
C1399 C 0.8347 0.65662 0.33931 0.0
C1400 C 0.86998 0.6717 0.31173 0.0
C1401 C 0.83555 0.62654 0.26852 0.0
H1402 H 0.86814 0.71011 0.24376 0.0
C1403 C 0.82406 0.63666 0.18766 0.0
C1404 C 0.84533 0.66624 0.17872 0.0
C1405 C 0.8258 0.63358 0.20723 0.0
C1406 C 0.85983 0.68658 0.25028 0.0
H1407 H 0.78301 0.62553 0.33347 0.0
H1408 H 0.79006 0.62247 0.29942 0.0
H1409 H 0.86646 0.70742 0.27798 0.0
H1410 H 0.88658 0.71487 0.18264 0.0
H1411 H 0.89179 0.70874 0.21631 0.0
H1412 H 0.82967 0.60555 0.24103 0.0
C1413 C 0.81149 0.63622 0.30819 0.0
C1414 C 0.85865 0.68513 0.26998 0.0
C1415 C 0.80751 0.63797 0.32763 0.0
C1416 C 0.86985 0.69183 0.18931 0.0
C1417 C 0.87237 0.68841 0.20871 0.0
C1418 C 0.8375 0.62803 0.24878 0.0
C1419 C 0.84267 0.65366 0.30003 0.0
C1420 C 0.8462 0.6551 0.27925 0.0
C1421 C 0.84954 0.65974 0.21816 0.0
C1422 C 0.84933 0.65807 0.2393 0.0
H1423 H 0.88736 0.68789 0.33989 0.0
H1424 H 0.89423 0.68548 0.30568 0.0
H1425 H 0.82582 0.60308 0.27543 0.0
H1426 H 0.80452 0.61684 0.17977 0.0
H1427 H 0.80739 0.61125 0.21379 0.0
C1428 C 0.87079 0.22425 0.19183 0.0
C1429 C 0.85608 0.19672 0.17993 0.0
C1430 C 0.86426 0.2213 0.21114 0.0
C1431 C 0.83916 0.16397 0.25048 0.0
H1432 H 0.82779 0.23031 0.27602 0.0
C1433 C 0.83076 0.16876 0.33239 0.0
C1434 C 0.85033 0.20007 0.34015 0.0
C1435 C 0.82491 0.16485 0.31284 0.0
C1436 C 0.83104 0.21161 0.26915 0.0
H1437 H 0.82266 0.14445 0.17898 0.0
H1438 H 0.81119 0.13924 0.21304 0.0
H1439 H 0.83026 0.22996 0.2417 0.0
H1440 H 0.8779 0.25184 0.33369 0.0
H1441 H 0.86811 0.2451 0.30005 0.0
H1442 H 0.84129 0.14645 0.27803 0.0
C1443 C 0.82785 0.16311 0.20726 0.0
C1444 C 0.83239 0.2114 0.24946 0.0
C1445 C 0.83419 0.16613 0.18778 0.0
C1446 C 0.86264 0.22734 0.32818 0.0
C1447 C 0.85684 0.22348 0.30882 0.0
C1448 C 0.83802 0.16431 0.27026 0.0
C1449 C 0.84288 0.19072 0.21914 0.0
C1450 C 0.83726 0.18809 0.2399 0.0
C1451 C 0.83831 0.1922 0.30079 0.0
C1452 C 0.83479 0.18869 0.27985 0.0
H1453 H 0.88764 0.24821 0.18623 0.0
H1454 H 0.8766 0.24298 0.2199 0.0
H1455 H 0.84313 0.14581 0.24351 0.0
H1456 H 0.82126 0.14728 0.34123 0.0
H1457 H 0.81035 0.14042 0.30714 0.0
C1458 C 0.1679 0.37597 0.6922 0.0
C1459 C 0.18306 0.36323 0.68061 0.0
C1460 C 0.1739 0.37971 0.71156 0.0
C1461 C 0.19884 0.34781 0.75131 0.0
H1462 H 0.20654 0.42387 0.77708 0.0
C1463 C 0.20673 0.36031 0.83316 0.0
C1464 C 0.18657 0.37113 0.84117 0.0
C1465 C 0.21228 0.36245 0.8136 0.0
C1466 C 0.20428 0.40237 0.77015 0.0
H1467 H 0.2169 0.34489 0.68027 0.0
H1468 H 0.22761 0.3516 0.71437 0.0
H1469 H 0.20507 0.42164 0.74274 0.0
H1470 H 0.15759 0.39397 0.83506 0.0
H1471 H 0.16679 0.39729 0.80131 0.0
H1472 H 0.1969 0.32806 0.77879 0.0
C1473 C 0.21092 0.35854 0.70834 0.0
C1474 C 0.2035 0.40114 0.75044 0.0
C1475 C 0.20505 0.355 0.68881 0.0
C1476 C 0.17324 0.38534 0.82937 0.0
C1477 C 0.17872 0.38747 0.80995 0.0
C1478 C 0.19946 0.34897 0.7711 0.0
C1479 C 0.19525 0.37081 0.71994 0.0
C1480 C 0.20003 0.37355 0.74078 0.0
C1481 C 0.19794 0.37568 0.80172 0.0
C1482 C 0.20143 0.37598 0.78077 0.0
H1483 H 0.15096 0.38273 0.68631 0.0
H1484 H 0.16106 0.3888 0.72008 0.0
H1485 H 0.1959 0.3261 0.7443 0.0
H1486 H 0.21713 0.34899 0.84185 0.0
H1487 H 0.22743 0.35339 0.80775 0.0
C1488 C 0.17836 0.85858 0.82617 0.0
C1489 C 0.19439 0.84686 0.83768 0.0
C1490 C 0.17519 0.85218 0.80681 0.0
C1491 C 0.21389 0.83401 0.76739 0.0
H1492 H 0.13459 0.81563 0.74097 0.0
C1493 C 0.20392 0.82507 0.68564 0.0
C1494 C 0.1913 0.84369 0.67774 0.0
C1495 C 0.20126 0.8189 0.70511 0.0
C1496 C 0.15693 0.82078 0.74812 0.0
H1497 H 0.21912 0.81869 0.83807 0.0
H1498 H 0.21356 0.80743 0.80408 0.0
H1499 H 0.13582 0.81736 0.77536 0.0
H1500 H 0.16474 0.8691 0.68369 0.0
H1501 H 0.15984 0.85818 0.71735 0.0
H1502 H 0.23532 0.83852 0.74008 0.0
C1503 C 0.20356 0.82168 0.81007 0.0
C1504 C 0.15763 0.82179 0.76782 0.0
C1505 C 0.20648 0.82786 0.82953 0.0
C1506 C 0.17466 0.85463 0.68941 0.0
C1507 C 0.17172 0.84822 0.70871 0.0
C1508 C 0.21321 0.83308 0.74762 0.0
C1509 C 0.18808 0.834 0.79848 0.0
C1510 C 0.18633 0.82917 0.77768 0.0
C1511 C 0.1855 0.83083 0.71689 0.0
C1512 C 0.18494 0.82722 0.73776 0.0
H1513 H 0.16868 0.87318 0.83209 0.0
H1514 H 0.16348 0.86236 0.79827 0.0
H1515 H 0.23646 0.84004 0.77456 0.0
H1516 H 0.2172 0.8167 0.67696 0.0
H1517 H 0.21199 0.80529 0.71098 0.0
C1518 C 0.67607 0.85356 0.68537 0.0
C1519 C 0.661 0.82263 0.67675 0.0
C1520 C 0.67571 0.85634 0.70509 0.0
C1521 C 0.66573 0.80688 0.74788 0.0
H1522 H 0.66298 0.87732 0.77446 0.0
C1523 C 0.65119 0.80601 0.82844 0.0
C1524 C 0.67444 0.83422 0.83789 0.0
C1525 C 0.64817 0.80603 0.80883 0.0
C1526 C 0.66392 0.85762 0.76718 0.0
H1527 H 0.63201 0.77052 0.68176 0.0
H1528 H 0.63025 0.77529 0.71581 0.0
H1529 H 0.65915 0.8745 0.73996 0.0
H1530 H 0.71213 0.88477 0.83476 0.0
H1531 H 0.70601 0.88532 0.80028 0.0
H1532 H 0.66997 0.78974 0.77507 0.0
C1533 C 0.6433 0.79746 0.70761 0.0
C1534 C 0.66183 0.85602 0.74742 0.0
C1535 C 0.64393 0.79471 0.68803 0.0
C1536 C 0.69384 0.86288 0.82764 0.0
C1537 C 0.69033 0.86314 0.80801 0.0
C1538 C 0.6674 0.80827 0.76756 0.0
C1539 C 0.66008 0.82822 0.71649 0.0
C1540 C 0.66249 0.83048 0.73751 0.0
C1541 C 0.66796 0.83448 0.79838 0.0
C1542 C 0.66637 0.83354 0.77743 0.0
H1543 H 0.68981 0.87546 0.67702 0.0
H1544 H 0.68905 0.88042 0.7114 0.0
H1545 H 0.66736 0.7874 0.74079 0.0
H1546 H 0.63635 0.78355 0.83614 0.0
H1547 H 0.63066 0.78364 0.8018 0.0
C1548 C 0.26703 0.91977 0.95919 0.0
C1549 C 0.23885 0.91513 0.94981 0.0
C1550 C 0.27987 0.94195 0.97435 0.0
C1551 C 0.2819 0.01662 0.99128 0.0
H1552 H 0.30836 0.99939 0.03959 0.0
C1553 C 0.33921 0.11162 0.05365 0.0
C1554 C 0.32379 0.09861 0.071 0.0
C1555 C 0.33175 0.09111 0.03775 0.0
C1556 C 0.30133 1.00463 0.02607 0.0
H1557 H 0.20065 0.92776 0.94964 0.0
H1558 H 0.2226 0.96576 0.97605 0.0
H1559 H 0.28919 0.95771 0.01475 0.0
H1560 H 0.28675 0.05459 0.08488 0.0
H1561 H 0.27438 0.01942 0.0576 0.0
H1562 H 0.29333 0.06327 1.00279 0.0
C1563 C 0.23524 0.95305 0.97159 0.0
C1564 C 0.29051 0.98084 0.01187 0.0
C1565 C 0.22244 0.93095 0.95666 0.0
C1566 C 0.29971 0.06534 0.07186 0.0
C1567 C 0.29263 0.04504 0.05624 0.0
C1568 C 0.29311 0.04059 1.00542 0.0
C1569 C 0.26474 0.95978 0.98013 0.0
C1570 C 0.27981 0.98622 0.99451 0.0
C1571 C 0.30907 0.0574 0.03914 0.0
C1572 C 0.30207 0.03446 0.02313 0.0
H1573 H 0.28042 0.90832 0.95392 0.0
H1574 H 0.30257 0.94655 0.98079 0.0
H1575 H 0.27421 0.02161 0.97791 0.0
H1576 H 0.35792 0.13706 0.05255 0.0
H1577 H 0.34454 0.10129 0.02461 0.0
C1578 C 0.81972 0.75121 0.44477 0.0
C1579 C 0.81866 0.7211 0.4459 0.0
C1580 C 0.81087 0.76352 0.46022 0.0
C1581 C 0.79226 0.75211 0.51183 0.0
H1582 H 0.74648 0.79894 0.50031 0.0
C1583 C 0.75661 0.81165 0.57106 0.0
C1584 C 0.72642 0.81044 0.56979 0.0
C1585 C 0.76927 0.8032 0.55561 0.0
C1586 C 0.75892 0.78567 0.50384 0.0
H1587 H 0.80765 0.68007 0.46393 0.0
H1588 H 0.79148 0.70109 0.49101 0.0
H1589 H 0.76544 0.77822 0.47478 0.0
H1590 H 0.68565 0.79969 0.55149 0.0
H1591 H 0.70733 0.78429 0.52439 0.0
H1592 H 0.78417 0.758 0.54089 0.0
C1593 C 0.80004 0.71584 0.47838 0.0
C1594 C 0.77036 0.77419 0.48914 0.0
C1595 C 0.80943 0.70375 0.46291 0.0
C1596 C 0.70939 0.80155 0.55263 0.0
C1597 C 0.72184 0.79261 0.53715 0.0
C1598 C 0.78047 0.76324 0.52653 0.0
C1599 C 0.79995 0.74561 0.47709 0.0
C1600 C 0.78747 0.75748 0.4929 0.0
C1601 C 0.75165 0.79258 0.53859 0.0
C1602 C 0.76387 0.78045 0.52278 0.0
H1603 H 0.82661 0.76489 0.4317 0.0
H1604 H 0.81206 0.78688 0.45875 0.0
H1605 H 0.80544 0.73958 0.51538 0.0
H1606 H 0.77007 0.81829 0.58424 0.0
H1607 H 0.79266 0.80443 0.55719 0.0
C1608 C 0.10295 0.28295 0.95715 0.0
C1609 C 0.11152 0.31357 0.94951 0.0
C1610 C 0.0815 0.27076 0.97261 0.0
C1611 C 0.0476 0.29557 0.01208 0.0
H1612 H 0.96943 0.21072 1.00648 0.0
C1613 C 0.93994 0.25913 0.06195 0.0
C1614 C 0.92284 0.22694 0.06868 0.0
C1615 C 0.9616 0.26741 0.04684 0.0
C1616 C 0.99128 0.23425 1.00844 0.0
H1617 H 0.10578 0.35604 0.9523 0.0
H1618 H 0.0696 0.33552 0.97961 0.0
H1619 H 1.01275 0.22961 0.98268 0.0
H1620 H 0.91366 0.17774 0.06436 0.0
H1621 H 0.95235 0.19226 0.03805 0.0
H1622 H 0.02687 0.30041 0.0378 0.0
C1623 C 0.07901 0.32069 0.9737 0.0
C1624 C 1.01613 0.24504 0.99479 0.0
C1625 C 0.09977 0.33248 0.9581 0.0
C1626 C 0.92636 0.20269 0.05928 0.0
C1627 C 0.94864 0.21111 0.04426 0.0
C1628 C 0.02308 0.2847 0.02577 0.0
C1629 C 0.06894 0.28937 0.98086 0.0
C1630 C 0.04428 0.2761 0.99631 0.0
C1631 C 0.96742 0.24388 0.03828 0.0
C1632 C 0.99417 0.25421 0.02397 0.0
H1633 H 0.11131 0.26774 0.95052 0.0
H1634 H 0.07426 0.24661 0.9779 0.0
H1635 H 0.06918 0.31943 0.01377 0.0
H1636 H 0.93748 0.27828 0.06888 0.0
H1637 H 0.97454 0.29262 0.04225 0.0
C1638 C 0.33285 0.112 0.46219 0.0
C1639 C 0.31718 0.10235 0.44462 0.0
C1640 C 0.32141 0.09034 0.47752 0.0
C1641 C 0.27056 1.00102 0.48765 0.0
H1642 H 0.27436 0.03053 0.5391 0.0
C1643 C 0.24103 0.91556 0.55289 0.0
C1644 C 0.22686 0.92203 0.5685 0.0
C1645 C 0.25092 0.9364 0.53716 0.0
C1646 C 0.27271 0.02171 0.52479 0.0
H1647 H 0.27669 0.06334 0.42941 0.0
H1648 H 0.25606 0.02618 0.45608 0.0
H1649 H 0.29314 0.07001 0.51356 0.0
H1650 H 0.20993 0.95366 0.57962 0.0
H1651 H 0.22547 0.98879 0.55208 0.0
H1652 H 0.2491 0.95256 0.49884 0.0
C1653 C 0.27768 0.04988 0.45808 0.0
C1654 C 0.28401 0.04454 0.51013 0.0
C1655 C 0.28926 0.07133 0.44282 0.0
C1656 C 0.22091 0.94825 0.56772 0.0
C1657 C 0.23029 0.96868 0.55203 0.0
C1658 C 0.25902 0.97814 0.5023 0.0
C1659 C 0.29404 0.05868 0.47554 0.0
C1660 C 0.28284 0.03452 0.49132 0.0
C1661 C 0.2465 0.96383 0.53679 0.0
C1662 C 0.25962 0.98811 0.52108 0.0
H1663 H 0.3549 0.13542 0.46382 0.0
H1664 H 0.33486 0.09795 0.49067 0.0
H1665 H 0.2699 0.99237 0.4734 0.0
H1666 H 0.24626 0.89572 0.55332 0.0
H1667 H 0.26339 0.93189 0.52572 0.0
C1668 C 0.79553 0.69438 0.05468 0.0
C1669 C 0.80453 0.71263 0.0715 0.0
C1670 C 0.78413 0.70454 0.03919 0.0
C1671 C 0.78011 0.77728 0.02141 0.0
H1672 H 0.70752 0.71354 0.99137 0.0
C1673 C 0.73638 0.81585 0.95624 0.0
C1674 C 0.70383 0.79761 0.95015 0.0
C1675 C 0.74741 0.80576 0.97159 0.0
C1676 C 0.72743 0.73171 0.99984 0.0
H1677 H 0.81027 0.75644 0.08499 0.0
H1678 H 0.79001 0.77338 0.0588 0.0
H1679 H 0.73111 0.69509 0.01576 0.0
H1680 H 0.65673 0.75514 0.9558 0.0
H1681 H 0.67555 0.73805 0.98361 0.0
H1682 H 0.77552 0.81386 1.00657 0.0
C1683 C 0.79196 0.75166 0.05704 0.0
C1684 C 0.74144 0.72108 0.01359 0.0
C1685 C 0.80341 0.74174 0.07224 0.0
C1686 C 0.68179 0.77001 0.96051 0.0
C1687 C 0.69284 0.7599 0.97614 0.0
C1688 C 0.76577 0.78782 1.00806 0.0
C1689 C 0.78173 0.73314 0.04032 0.0
C1690 C 0.76796 0.74379 0.02463 0.0
C1691 C 0.7261 0.7772 0.98158 0.0
C1692 C 0.73939 0.76531 0.9969 0.0
H1693 H 0.79588 0.67168 0.05379 0.0
H1694 H 0.77682 0.68981 0.02648 0.0
H1695 H 0.80084 0.79568 0.02928 0.0
H1696 H 0.75397 0.83696 0.94828 0.0
H1697 H 0.77323 0.81957 0.97489 0.0
C1698 C 0.08918 0.28063 0.57064 0.0
C1699 C 0.1139 0.31354 0.57063 0.0
C1700 C 0.06796 0.26731 0.55523 0.0
C1701 C 0.056 0.28299 0.50513 0.0
H1702 H 0.96402 0.2259 0.51644 0.0
C1703 C 0.95794 0.25969 0.45069 0.0
C1704 C 0.93261 0.22745 0.44745 0.0
C1705 C 0.97868 0.26745 0.46615 0.0
C1706 C 0.98964 0.24144 0.51303 0.0
H1707 H 0.13616 0.35855 0.55479 0.0
H1708 H 0.09922 0.33555 0.52776 0.0
H1709 H 1.00432 0.24467 0.54191 0.0
H1710 H 0.90793 0.17835 0.4588 0.0
H1711 H 0.94455 0.19208 0.48627 0.0
H1712 H 0.04127 0.28039 0.47635 0.0
C1713 C 0.09647 0.31961 0.53941 0.0
C1714 C 1.01283 0.25221 0.52762 0.0
C1715 C 0.11773 0.33286 0.55483 0.0
C1716 C 0.92731 0.20338 0.46085 0.0
C1717 C 0.94829 0.21125 0.47652 0.0
C1718 C 0.03286 0.27237 0.49062 0.0
C1719 C 0.07082 0.2868 0.53956 0.0
C1720 C 0.04632 0.27352 0.52389 0.0
C1721 C 0.97484 0.24326 0.47898 0.0
C1722 C 0.99933 0.25192 0.4944 0.0
H1723 H 0.08548 0.26551 0.5829 0.0
H1724 H 0.04891 0.2419 0.55579 0.0
H1725 H 0.08153 0.29876 0.50161 0.0
H1726 H 0.96237 0.27911 0.44099 0.0
H1727 H 0.99815 0.29252 0.46791 0.0
C1728 C 0.63592 0.11499 0.12029 0.0
C1729 C 0.66394 0.14256 0.11329 0.0
C1730 C 0.60737 0.11605 0.12387 0.0
C1731 C 0.56433 0.15681 0.10689 0.0
H1732 H 0.50594 0.11402 0.1491 0.0
C1733 C 0.43057 0.12396 0.10393 0.0
C1734 C 0.41949 0.13505 0.11904 0.0
C1735 C 0.4597 0.12334 0.10537 0.0
C1736 C 0.52209 0.12616 0.1373 0.0
H1737 H 0.68464 0.19322 0.10517 0.0
H1738 H 0.63439 0.19507 0.11122 0.0
H1739 H 0.56023 0.11905 0.14854 0.0
H1740 H 0.42963 0.15371 0.14766 0.0
H1741 H 0.48048 0.15176 0.15044 0.0
H1742 H 0.52617 0.16348 0.09547 0.0
C1743 C 0.63459 0.17264 0.11397 0.0
C1744 C 0.55306 0.12895 0.13693 0.0
C1745 C 0.66336 0.17169 0.11064 0.0
C1746 C 0.43726 0.14417 0.136 0.0
C1747 C 0.46642 0.14331 0.13752 0.0
C1748 C 0.53332 0.15368 0.10715 0.0
C1749 C 0.60609 0.14461 0.12029 0.0
C1750 C 0.57441 0.14409 0.12165 0.0
C1751 C 0.4785 0.13405 0.12194 0.0
C1752 C 0.51172 0.138 0.12223 0.0
H1753 H 0.63584 0.09228 0.12251 0.0
H1754 H 0.58582 0.094 0.12857 0.0
H1755 H 0.58002 0.16827 0.09483 0.0
H1756 H 0.41752 0.11737 0.09061 0.0
H1757 H 0.46819 0.11568 0.09324 0.0
C1758 C 0.73747 0.59787 0.38502 0.0
C1759 C 0.74909 0.61129 0.403 0.0
C1760 C 0.70681 0.56955 0.38301 0.0
C1761 C 0.62835 0.5181 0.40765 0.0
H1762 H 0.62373 0.44647 0.37827 0.0
C1763 C 0.50729 0.39814 0.40009 0.0
C1764 C 0.50801 0.36932 0.40384 0.0
C1765 C 0.53615 0.4276 0.39701 0.0
C1766 C 0.62467 0.46625 0.38652 0.0
H1767 H 0.73791 0.60619 0.43283 0.0
H1768 H 0.68432 0.55734 0.42937 0.0
H1769 H 0.67445 0.49955 0.37867 0.0
H1770 H 0.5395 0.34839 0.40601 0.0
H1771 H 0.59035 0.40019 0.40054 0.0
H1772 H 0.57913 0.48493 0.41595 0.0
C1773 C 0.69858 0.5686 0.4168 0.0
C1774 C 0.65357 0.49673 0.38659 0.0
C1775 C 0.72924 0.59655 0.4188 0.0
C1776 C 0.53819 0.37019 0.40312 0.0
C1777 C 0.56727 0.39986 0.40002 0.0
C1778 C 0.59952 0.48785 0.40748 0.0
C1779 C 0.68725 0.55433 0.39894 0.0
C1780 C 0.65581 0.52289 0.39734 0.0
C1781 C 0.56661 0.4291 0.39756 0.0
C1782 C 0.59732 0.46145 0.39702 0.0
H1783 H 0.7526 0.60837 0.37265 0.0
H1784 H 0.69862 0.55924 0.36907 0.0
H1785 H 0.62924 0.53776 0.41602 0.0
H1786 H 0.48434 0.39813 0.4002 0.0
H1787 H 0.53467 0.44946 0.39469 0.0
C1788 C 0.88428 0.30089 0.14022 0.0
C1789 C 0.88555 0.28519 0.1237 0.0
C1790 C 0.88732 0.33184 0.13938 0.0
C1791 C 0.87149 0.3823 0.10632 0.0
H1792 H 0.91419 0.44945 0.14453 0.0
C1793 C 0.85481 0.49555 0.10922 0.0
C1794 C 0.8837 0.52563 0.11179 0.0
C1795 C 0.85467 0.46612 0.11208 0.0
C1796 C 0.90221 0.431 0.1337 0.0
H1797 H 0.89111 0.2891 0.09337 0.0
H1798 H 0.89712 0.34363 0.0918 0.0
H1799 H 0.91884 0.40037 0.14573 0.0
H1800 H 0.93443 0.54855 0.12045 0.0
H1801 H 0.93428 0.49757 0.12536 0.0
H1802 H 0.85541 0.41319 0.09406 0.0
C1803 C 0.89382 0.33215 0.10545 0.0
C1804 C 0.90472 0.40275 0.13446 0.0
C1805 C 0.89092 0.30123 0.10633 0.0
C1806 C 0.91188 0.52571 0.11821 0.0
C1807 C 0.91171 0.49644 0.12115 0.0
C1808 C 0.86897 0.41054 0.10556 0.0
C1809 C 0.89102 0.34739 0.1219 0.0
C1810 C 0.88948 0.37808 0.12075 0.0
C1811 C 0.88334 0.46625 0.11774 0.0
C1812 C 0.8844 0.43532 0.1192 0.0
H1813 H 0.8793 0.28848 0.15369 0.0
H1814 H 0.88477 0.34266 0.1523 0.0
H1815 H 0.85894 0.36355 0.0957 0.0
H1816 H 0.83277 0.49479 0.10423 0.0
H1817 H 0.83226 0.44328 0.10959 0.0
C1818 C 0.43985 0.14719 0.38387 0.0
C1819 C 0.42579 0.14432 0.40176 0.0
C1820 C 0.46814 0.14476 0.3819 0.0
C1821 C 0.51843 0.11599 0.40621 0.0
H1822 H 0.59139 0.1845 0.37855 0.0
C1823 C 0.63859 0.11502 0.39958 0.0
C1824 C 0.66741 0.14438 0.40379 0.0
C1825 C 0.60927 0.11464 0.39633 0.0
C1826 C 0.57124 0.16524 0.38633 0.0
H1827 H 0.42964 0.13617 0.43143 0.0
H1828 H 0.47834 0.13126 0.428 0.0
H1829 H 0.53834 0.18223 0.37858 0.0
H1830 H 0.68848 0.19675 0.4067 0.0
H1831 H 0.63692 0.19616 0.40099 0.0
H1832 H 0.55118 0.09944 0.41445 0.0
C1833 C 0.46766 0.13516 0.41547 0.0
C1834 C 0.54077 0.1637 0.38617 0.0
C1835 C 0.43977 0.13797 0.41745 0.0
C1836 C 0.66668 0.17376 0.40344 0.0
C1837 C 0.63714 0.17339 0.4002 0.0
C1838 C 0.54868 0.11739 0.40628 0.0
C1839 C 0.48265 0.13925 0.39776 0.0
C1840 C 0.51412 0.13924 0.3963 0.0
C1841 C 0.60787 0.14362 0.39722 0.0
C1842 C 0.57556 0.1421 0.39644 0.0
H1843 H 0.42993 0.15278 0.3716 0.0
H1844 H 0.479 0.14778 0.36805 0.0
H1845 H 0.49841 0.09678 0.4141 0.0
H1846 H 0.63849 0.09205 0.3994 0.0
H1847 H 0.58742 0.09141 0.3936 0.0
C1848 C 0.50449 0.39134 0.12151 0.0
C1849 C 0.50632 0.36425 0.11495 0.0
C1850 C 0.53288 0.42088 0.1253 0.0
C1851 C 0.62325 0.46084 0.13099 0.0
H1852 H 0.62027 0.53629 0.11218 0.0
C1853 C 0.73534 0.59125 0.13553 0.0
C1854 C 0.74181 0.61027 0.11921 0.0
C1855 C 0.70546 0.56222 0.13755 0.0
C1856 C 0.62159 0.51551 0.11746 0.0
H1857 H 0.53905 0.34608 0.10817 0.0
H1858 H 0.58905 0.39808 0.11444 0.0
H1859 H 0.57139 0.48279 0.11106 0.0
H1860 H 0.723 0.61398 0.09212 0.0
H1861 H 0.67088 0.5634 0.0955 0.0
H1862 H 0.67407 0.49357 0.13646 0.0
C1863 C 0.56563 0.39642 0.11691 0.0
C1864 C 0.59339 0.4848 0.11707 0.0
C1865 C 0.53706 0.36664 0.1133 0.0
C1866 C 0.71805 0.60005 0.10503 0.0
C1867 C 0.68824 0.57111 0.10702 0.0
C1868 C 0.65161 0.49163 0.13128 0.0
C1869 C 0.56385 0.42419 0.1224 0.0
C1870 C 0.59383 0.457 0.12374 0.0
C1871 C 0.68177 0.55152 0.12316 0.0
C1872 C 0.65117 0.51928 0.12433 0.0
H1873 H 0.481 0.38995 0.12311 0.0
H1874 H 0.53052 0.44142 0.13002 0.0
H1875 H 0.62445 0.44004 0.13637 0.0
H1876 H 0.75377 0.5983 0.14642 0.0
H1877 H 0.70114 0.5479 0.15023 0.0
C1878 C 0.91614 0.52631 0.39343 0.0
C1879 C 0.88894 0.52806 0.39998 0.0
C1880 C 0.91426 0.49614 0.39068 0.0
C1881 C 0.86827 0.41182 0.40824 0.0
H1882 H 0.91928 0.3963 0.37096 0.0
C1883 C 0.89468 0.30751 0.41795 0.0
C1884 C 0.89056 0.28758 0.4023 0.0
C1885 C 0.89584 0.33736 0.41571 0.0
C1886 C 0.90471 0.40014 0.38136 0.0
H1887 H 0.83783 0.49947 0.40769 0.0
H1888 H 0.83427 0.44651 0.40259 0.0
H1889 H 0.91523 0.44583 0.36916 0.0
H1890 H 0.88532 0.2835 0.3719 0.0
H1891 H 0.88748 0.33608 0.36787 0.0
H1892 H 0.85746 0.36616 0.42036 0.0
C1893 C 0.85729 0.46859 0.39989 0.0
C1894 C 0.90256 0.42864 0.38043 0.0
C1895 C 0.85918 0.49889 0.40262 0.0
C1896 C 0.88909 0.29871 0.38417 0.0
C1897 C 0.89017 0.32873 0.3819 0.0
C1898 C 0.87039 0.38342 0.40916 0.0
C1899 C 0.88509 0.46686 0.39438 0.0
C1900 C 0.88468 0.43507 0.39403 0.0
C1901 C 0.89238 0.34782 0.39775 0.0
C1902 C 0.88912 0.37748 0.39595 0.0
H1903 H 0.93932 0.54841 0.39106 0.0
H1904 H 0.93623 0.49591 0.38656 0.0
H1905 H 0.85459 0.416 0.4191 0.0
H1906 H 0.89577 0.29936 0.43207 0.0
H1907 H 0.89844 0.35182 0.42816 0.0
C1908 C 0.12576 0.63227 0.61845 0.0
C1909 C 0.15397 0.66045 0.61216 0.0
C1910 C 0.12601 0.60325 0.62144 0.0
C1911 C 0.16924 0.56051 0.6061 0.0
H1912 H 0.11832 0.49985 0.64579 0.0
C1913 C 0.14708 0.42921 0.60653 0.0
C1914 C 0.15192 0.41826 0.62394 0.0
C1915 C 0.14428 0.45728 0.60564 0.0
C1916 C 0.13275 0.51654 0.63466 0.0
H1917 H 0.20505 0.68081 0.60491 0.0
H1918 H 0.20574 0.62993 0.61039 0.0
H1919 H 0.12314 0.55364 0.64475 0.0
H1920 H 0.15741 0.42736 0.65399 0.0
H1921 H 0.15211 0.47614 0.65259 0.0
H1922 H 0.17945 0.52369 0.59626 0.0
C1923 C 0.18323 0.63024 0.61273 0.0
C1924 C 0.13535 0.54732 0.63398 0.0
C1925 C 0.18299 0.65946 0.60981 0.0
C1926 C 0.15281 0.435 0.64048 0.0
C1927 C 0.14986 0.46295 0.63963 0.0
C1928 C 0.16666 0.52973 0.60679 0.0
C1929 C 0.15452 0.6016 0.61822 0.0
C1930 C 0.15351 0.56966 0.61965 0.0
C1931 C 0.14666 0.47506 0.62213 0.0
C1932 C 0.14828 0.5073 0.62104 0.0
H1933 H 0.10311 0.63243 0.62052 0.0
H1934 H 0.1034 0.58172 0.62551 0.0
H1935 H 0.18307 0.5769 0.59472 0.0
H1936 H 0.14722 0.41707 0.59356 0.0
H1937 H 0.14138 0.46569 0.59197 0.0
C1938 C 0.31492 0.88428 0.87459 0.0
C1939 C 0.29768 0.88718 0.88989 0.0
C1940 C 0.34574 0.88764 0.87726 0.0
C1941 C 0.39183 0.87332 0.91354 0.0
H1942 H 0.46435 0.91655 0.87861 0.0
C1943 C 0.50254 0.85242 0.91512 0.0
C1944 C 0.53337 0.88094 0.91459 0.0
C1945 C 0.47419 0.8538 0.91118 0.0
C1946 C 0.44434 0.90442 0.88852 0.0
H1947 H 0.29885 0.89598 0.91995 0.0
H1948 H 0.35294 0.90189 0.92472 0.0
H1949 H 0.41572 0.92162 0.87442 0.0
H1950 H 0.5589 0.93279 0.90853 0.0
H1951 H 0.5096 0.93519 0.90153 0.0
H1952 H 0.42041 0.85612 0.92765 0.0
C1953 C 0.34278 0.89736 0.91061 0.0
C1954 C 0.41647 0.90723 0.88607 0.0
C1955 C 0.31208 0.89443 0.90787 0.0
C1956 C 0.53541 0.9105 0.90922 0.0
C1957 C 0.50719 0.91181 0.90509 0.0
C1958 C 0.41959 0.87029 0.9159 0.0
C1959 C 0.35954 0.89313 0.8954 0.0
C1960 C 0.38992 0.89175 0.89857 0.0
C1961 C 0.4762 0.88364 0.90638 0.0
C1962 C 0.44619 0.88583 0.90342 0.0
H1963 H 0.30389 0.87804 0.86069 0.0
H1964 H 0.35787 0.88398 0.8653 0.0
H1965 H 0.37157 0.86069 0.92324 0.0
H1966 H 0.50027 0.82933 0.91926 0.0
H1967 H 0.45067 0.83159 0.91206 0.0
C1968 C 0.60126 0.72033 0.59599 0.0
C1969 C 0.61616 0.73949 0.61202 0.0
C1970 C 0.57335 0.68961 0.59767 0.0
C1971 C 0.50219 0.64294 0.62824 0.0
H1972 H 0.48899 0.5711 0.59584 0.0
C1973 C 0.37456 0.52985 0.61086 0.0
C1974 C 0.37342 0.49984 0.60807 0.0
C1975 C 0.40453 0.55837 0.61443 0.0
C1976 C 0.49229 0.59069 0.60519 0.0
H1977 H 0.61363 0.74173 0.64248 0.0
H1978 H 0.56472 0.68755 0.64552 0.0
H1979 H 0.54197 0.6208 0.59648 0.0
H1980 H 0.402 0.47556 0.60846 0.0
H1981 H 0.45383 0.52481 0.615 0.0
H1982 H 0.45221 0.6126 0.63685 0.0
C1983 C 0.57478 0.69634 0.63162 0.0
C1984 C 0.52265 0.61935 0.60541 0.0
C1985 C 0.603 0.72713 0.62992 0.0
C1986 C 0.40227 0.49848 0.61021 0.0
C1987 C 0.43199 0.52675 0.61386 0.0
C1988 C 0.47163 0.61414 0.62799 0.0
C1989 C 0.55934 0.67748 0.61546 0.0
C1990 C 0.52792 0.64598 0.61675 0.0
C1991 C 0.43376 0.55725 0.61536 0.0
C1992 C 0.46629 0.58771 0.61638 0.0
H1993 H 0.6107 0.72959 0.58203 0.0
H1994 H 0.56191 0.67598 0.58492 0.0
H1995 H 0.50535 0.66317 0.63698 0.0
H1996 H 0.35267 0.53157 0.60925 0.0
H1997 H 0.40501 0.58147 0.61549 0.0
C1998 C 0.13198 0.63477 0.91148 0.0
C1999 C 0.16171 0.66381 0.91471 0.0
C2000 C 0.13151 0.60561 0.90735 0.0
C2001 C 0.1376 0.54827 0.8923 0.0
H2002 H 0.19268 0.53081 0.92507 0.0
C2003 C 0.15094 0.43132 0.88933 0.0
C2004 C 0.15176 0.41838 0.90701 0.0
C2005 C 0.14997 0.46047 0.88821 0.0
C2006 C 0.17709 0.53529 0.91583 0.0
H2007 H 0.21439 0.68532 0.91524 0.0
H2008 H 0.21365 0.63433 0.90791 0.0
H2009 H 0.19704 0.58432 0.92584 0.0
H2010 H 0.15093 0.42467 0.93723 0.0
H2011 H 0.14915 0.47523 0.93531 0.0
H2012 H 0.11717 0.49866 0.88266 0.0
C2013 C 0.19064 0.6341 0.90877 0.0
C2014 C 0.1799 0.56612 0.91609 0.0
C2015 C 0.1911 0.66337 0.91281 0.0
C2016 C 0.15021 0.43415 0.92344 0.0
C2017 C 0.14945 0.46319 0.92234 0.0
C2018 C 0.13494 0.51736 0.89194 0.0
C2019 C 0.16078 0.60473 0.9064 0.0
C2020 C 0.15987 0.57289 0.90455 0.0
C2021 C 0.15042 0.47726 0.90475 0.0
C2022 C 0.15423 0.5104 0.90399 0.0
H2023 H 0.10894 0.63444 0.91258 0.0
H2024 H 0.1081 0.58346 0.90574 0.0
H2025 H 0.12199 0.5528 0.88312 0.0
H2026 H 0.15272 0.4199 0.87645 0.0
H2027 H 0.1507 0.47076 0.87446 0.0
C2028 C 0.30192 0.87442 0.63305 0.0
C2029 C 0.29469 0.88566 0.61644 0.0
C2030 C 0.33143 0.87437 0.63475 0.0
C2031 C 0.39112 0.86754 0.60507 0.0
H2032 H 0.44733 0.89699 0.64914 0.0
C2033 C 0.53049 0.90433 0.62392 0.0
C2034 C 0.5321 0.87818 0.61556 0.0
C2035 C 0.50042 0.90271 0.62659 0.0
C2036 C 0.43179 0.88857 0.63676 0.0
H2037 H 0.31199 0.90518 0.58856 0.0
H2038 H 0.36361 0.90522 0.59147 0.0
H2039 H 0.39811 0.90194 0.64843 0.0
H2040 H 0.50355 0.82923 0.60422 0.0
H2041 H 0.45065 0.82629 0.60886 0.0
H2042 H 0.42486 0.85467 0.59322 0.0
C2043 C 0.34673 0.89676 0.60325 0.0
C2044 C 0.4036 0.89129 0.63641 0.0
C2045 C 0.31742 0.89704 0.60164 0.0
C2046 C 0.50292 0.84965 0.61078 0.0
C2047 C 0.47275 0.84813 0.61327 0.0
C2048 C 0.41908 0.86456 0.60549 0.0
C2049 C 0.35373 0.88474 0.61965 0.0
C2050 C 0.38323 0.88121 0.62044 0.0
C2051 C 0.47126 0.87498 0.62081 0.0
C2052 C 0.43996 0.87537 0.62125 0.0
H2053 H 0.28425 0.86456 0.64442 0.0
H2054 H 0.33607 0.86477 0.6475 0.0
H2055 H 0.37562 0.85913 0.59268 0.0
H2056 H 0.55268 0.92657 0.62778 0.0
H2057 H 0.50019 0.92389 0.6323 0.0
C2058 C 0.60367 0.72226 0.90704 0.0
C2059 C 0.6131 0.73797 0.8895 0.0
C2060 C 0.57554 0.69143 0.90851 0.0
C2061 C 0.51488 0.6203 0.88039 0.0
H2062 H 0.45653 0.60875 0.92194 0.0
C2063 C 0.40101 0.49636 0.8974 0.0
C2064 C 0.37279 0.49582 0.90419 0.0
C2065 C 0.42979 0.52593 0.89439 0.0
C2066 C 0.47237 0.61173 0.91014 0.0
H2067 H 0.60097 0.73436 0.85987 0.0
H2068 H 0.55226 0.68042 0.86225 0.0
H2069 H 0.50932 0.659 0.91972 0.0
H2070 H 0.35211 0.52584 0.91242 0.0
H2071 H 0.40257 0.57794 0.90694 0.0
H2072 H 0.47773 0.57339 0.87058 0.0
C2073 C 0.56665 0.69138 0.87484 0.0
C2074 C 0.50289 0.64031 0.90904 0.0
C2075 C 0.59454 0.72222 0.87343 0.0
C2076 C 0.3735 0.52558 0.90711 0.0
C2077 C 0.40248 0.55533 0.90419 0.0
C2078 C 0.48441 0.59176 0.88149 0.0
C2079 C 0.55631 0.67596 0.89247 0.0
C2080 C 0.52452 0.64492 0.89415 0.0
C2081 C 0.43114 0.55581 0.89811 0.0
C2082 C 0.46279 0.58705 0.8964 0.0
H2083 H 0.6171 0.73447 0.91971 0.0
H2084 H 0.56841 0.68009 0.92226 0.0
H2085 H 0.53099 0.623 0.86878 0.0
H2086 H 0.40108 0.47376 0.89491 0.0
H2087 H 0.45136 0.52529 0.88986 0.0
loop_
_geom_bond_atom_site_label_1
_geom_bond_atom_site_label_2
_geom_bond_distance
_geom_bond_site_symmetry_2
_ccdc_geom_bond_type
Eu0 N31 2.657 . S
Eu0 N38 2.609 . S
Eu0 O44 2.558 . S
Eu0 O45 2.612 . S
Eu0 O47 2.339 . S
Eu0 O48 2.563 . S
Eu0 O49 2.419 . S
Eu0 O51 2.380 . S
Eu0 O52 2.432 . S
Eu0 C64 2.848 . S
C1 C4 1.429 . S
C1 C5 1.411 . S
C1 N8 1.377 . S
C2 C4 1.420 . S
C2 C6 1.423 . S
C2 C14 1.392 . S
C3 C5 1.420 . S
C3 C6 1.351 . S
C3 H26 0.931 . S
C4 C1 1.429 . S
C4 C2 1.420 . S
C4 N12 1.362 . S
C5 C1 1.411 . S
C5 C3 1.420 . S
C5 C10 1.395 . S
C6 C2 1.423 . S
C6 C3 1.351 . S
C6 H18 0.930 . S
C7 C9 1.400 . S
C7 C10 1.386 . S
C7 H19 0.930 . S
N8 C1 1.377 . S
N8 C9 1.321 . S
N8 Eu11 2.609 . S
C9 C7 1.400 . S
C9 N8 1.321 . S
C9 H16 0.930 . S
C10 C5 1.395 . S
C10 C7 1.386 . S
C10 H29 0.930 . S
Eu11 N8 2.609 . S
Eu11 N12 2.657 . S
Eu11 O45 2.380 . S
Eu11 O46 2.432 . S
Eu11 O50 2.558 . S
Eu11 O51 2.612 . S
Eu11 O53 2.339 . S
Eu11 O54 2.563 . S
Eu11 O55 2.419 . S
Eu11 C75 2.848 . S
N12 C4 1.362 . S
N12 Eu11 2.657 . S
N12 C13 1.334 . S
C13 N12 1.334 . S
C13 C15 1.413 . S
C13 H20 0.929 . S
C14 C2 1.392 . S
C14 C15 1.367 . S
C14 H22 0.930 . S
C15 C13 1.413 . S
C15 C14 1.367 . S
C15 H17 0.930 . S
H16 C9 0.930 . S
H17 C15 0.930 . S
H18 C6 0.930 . S
H19 C7 0.930 . S
H20 C13 0.929 . S
H21 C35 0.930 . S
H22 C14 0.930 . S
H23 C41 0.930 . S
H24 C32 0.929 . S
H25 C39 0.930 . S
H26 C3 0.931 . S
H27 C33 0.930 . S
H28 C66 0.930 . S
H29 C10 0.930 . S
H30 C65 0.931 . S
N31 Eu0 2.657 . S
N31 C32 1.334 . S
N31 C36 1.362 . S
C32 H24 0.929 . S
C32 N31 1.334 . S
C32 C35 1.413 . S
C33 H27 0.930 . S
C33 C34 1.392 . S
C33 C35 1.367 . S
C34 C33 1.392 . S
C34 C36 1.420 . S
C34 C66 1.423 . S
C35 H21 0.930 . S
C35 C32 1.413 . S
C35 C33 1.367 . S
C36 N31 1.362 . S
C36 C34 1.420 . S
C36 C40 1.429 . S
H37 C42 0.930 . S
N38 Eu0 2.609 . S
N38 C40 1.377 . S
N38 C41 1.321 . S
C39 H25 0.930 . S
C39 C41 1.400 . S
C39 C42 1.386 . S
C40 C36 1.429 . S
C40 N38 1.377 . S
C40 C43 1.411 . S
C41 H23 0.930 . S
C41 N38 1.321 . S
C41 C39 1.400 . S
C42 H37 0.930 . S
C42 C39 1.386 . S
C42 C43 1.395 . S
C43 C40 1.411 . S
C43 C42 1.395 . S
C43 C65 1.420 . S
O44 Eu0 2.558 . S
O44 C64 1.257 . S
O45 Eu0 2.612 . S
O45 Eu11 2.380 . S
O45 C56 1.276 . S
O46 Eu11 2.432 . S
O46 C63 1.264 . S
O47 Eu0 2.339 . S
O47 C63 1.254 . S
O48 Eu0 2.563 . S
O48 C56 1.235 . S
O49 Eu0 2.419 . S
O49 C64 1.249 . S
O50 Eu11 2.558 . S
O50 C75 1.257 . S
O51 Eu0 2.380 . S
O51 Eu11 2.612 . S
O51 C67 1.276 . S
O52 Eu0 2.432 . S
O52 C74 1.264 . S
O53 Eu11 2.339 . S
O53 C74 1.254 . S
O54 Eu11 2.563 . S
O54 C67 1.235 . S
O55 Eu11 2.419 . S
O55 C75 1.249 . S
C56 O45 1.276 . S
C56 O48 1.235 . S
C57 C59 1.393 . S
C57 C61 1.395 . S
C57 C64 1.492 . S
C58 C59 1.392 . S
C58 C60 1.386 . S
C59 C57 1.393 . S
C59 C58 1.392 . S
C59 H76 0.930 . S
C60 C58 1.386 . S
C60 C62 1.395 . S
C60 H77 0.930 . S
C61 C57 1.395 . S
C61 C62 1.379 . S
C61 H78 0.930 . S
C62 C60 1.395 . S
C62 C61 1.379 . S
C62 H79 0.930 . S
C63 O46 1.264 . S
C63 O47 1.254 . S
C64 Eu0 2.848 . S
C64 O44 1.257 . S
C64 O49 1.249 . S
C64 C57 1.492 . S
C65 H30 0.931 . S
C65 C43 1.420 . S
C65 C66 1.351 . S
C66 H28 0.930 . S
C66 C34 1.423 . S
C66 C65 1.351 . S
C67 O51 1.276 . S
C67 O54 1.235 . S
C68 C69 1.393 . S
C68 C72 1.395 . S
C68 C75 1.492 . S
C69 C68 1.393 . S
C69 C70 1.392 1_545 S
C69 H80 0.930 . S
C70 C69 1.392 1_565 S
C70 C71 1.386 . S
C71 C70 1.386 . S
C71 C73 1.395 . S
C71 H81 0.930 . S
C72 C68 1.395 . S
C72 C73 1.379 1_545 S
C72 H82 0.930 . S
C73 C71 1.395 . S
C73 C72 1.379 1_565 S
C73 H83 0.930 . S
C74 O52 1.264 . S
C74 O53 1.254 . S
C75 Eu11 2.848 . S
C75 O50 1.257 . S
C75 O55 1.249 . S
C75 C68 1.492 . S
H76 C59 0.930 . S
H77 C60 0.930 . S
H78 C61 0.930 . S
H79 C62 0.930 . S
H80 C69 0.930 . S
H81 C71 0.930 . S
H82 C72 0.930 . S
H83 C73 0.930 . S
Eu84 N115 2.657 . S
Eu84 N122 2.609 . S
Eu84 O128 2.558 . S
Eu84 O129 2.612 . S
Eu84 O131 2.339 . S
Eu84 O132 2.563 . S
Eu84 O133 2.419 . S
Eu84 O135 2.380 . S
Eu84 O136 2.432 . S
Eu84 C148 2.848 . S
C85 C88 1.429 . S
C85 C89 1.411 . S
C85 N92 1.377 . S
C86 C88 1.420 . S
C86 C90 1.423 . S
C86 C98 1.392 . S
C87 C89 1.420 . S
C87 C90 1.351 . S
C87 H110 0.931 . S
C88 C85 1.429 . S
C88 C86 1.420 . S
C88 N96 1.362 . S
C89 C85 1.411 . S
C89 C87 1.420 . S
C89 C94 1.395 . S
C90 C86 1.423 . S
C90 C87 1.351 . S
C90 H102 0.930 1_655 S
C91 C93 1.400 . S
C91 C94 1.386 . S
C91 H103 0.930 . S
N92 C85 1.377 . S
N92 C93 1.321 . S
N92 Eu95 2.609 . S
C93 C91 1.400 . S
C93 N92 1.321 . S
C93 H100 0.930 . S
C94 C89 1.395 . S
C94 C91 1.386 . S
C94 H113 0.930 . S
Eu95 N92 2.609 . S
Eu95 N96 2.657 . S
Eu95 O129 2.380 . S
Eu95 O130 2.432 . S
Eu95 O134 2.558 . S
Eu95 O135 2.612 . S
Eu95 O137 2.339 . S
Eu95 O138 2.563 . S
Eu95 O139 2.419 . S
Eu95 C159 2.848 . S
N96 C88 1.362 . S
N96 Eu95 2.657 . S
N96 C97 1.334 . S
C97 N96 1.334 . S
C97 C99 1.413 . S
C97 H104 0.929 . S
C98 C86 1.392 . S
C98 C99 1.367 . S
C98 H106 0.930 . S
C99 C97 1.413 . S
C99 C98 1.367 . S
C99 H101 0.930 . S
H100 C93 0.930 . S
H101 C99 0.930 . S
H102 C90 0.930 1_455 S
H103 C91 0.930 . S
H104 C97 0.929 . S
H105 C119 0.930 . S
H106 C98 0.930 . S
H107 C125 0.930 . S
H108 C116 0.929 . S
H109 C123 0.930 . S
H110 C87 0.931 . S
H111 C117 0.930 . S
H112 C150 0.930 . S
H113 C94 0.930 . S
H114 C149 0.931 . S
N115 Eu84 2.657 . S
N115 C116 1.334 . S
N115 C120 1.362 . S
C116 H108 0.929 . S
C116 N115 1.334 . S
C116 C119 1.413 . S
C117 H111 0.930 . S
C117 C118 1.392 . S
C117 C119 1.367 . S
C118 C117 1.392 . S
C118 C120 1.420 . S
C118 C150 1.423 . S
C119 H105 0.930 . S
C119 C116 1.413 . S
C119 C117 1.367 . S
C120 N115 1.362 . S
C120 C118 1.420 . S
C120 C124 1.429 . S
H121 C126 0.930 . S
N122 Eu84 2.609 . S
N122 C124 1.377 . S
N122 C125 1.321 . S
C123 H109 0.930 . S
C123 C125 1.400 . S
C123 C126 1.386 . S
C124 C120 1.429 . S
C124 N122 1.377 . S
C124 C127 1.411 . S
C125 H107 0.930 . S
C125 N122 1.321 . S
C125 C123 1.400 . S
C126 H121 0.930 . S
C126 C123 1.386 . S
C126 C127 1.395 . S
C127 C124 1.411 . S
C127 C126 1.395 . S
C127 C149 1.420 . S
O128 Eu84 2.558 . S
O128 C148 1.257 . S
O129 Eu84 2.612 . S
O129 Eu95 2.380 . S
O129 C140 1.276 . S
O130 Eu95 2.432 . S
O130 C147 1.264 . S
O131 Eu84 2.339 . S
O131 C147 1.254 . S
O132 Eu84 2.563 . S
O132 C140 1.235 . S
O133 Eu84 2.419 . S
O133 C148 1.249 . S
O134 Eu95 2.558 . S
O134 C159 1.257 . S
O135 Eu84 2.380 . S
O135 Eu95 2.612 . S
O135 C151 1.276 . S
O136 Eu84 2.432 . S
O136 C158 1.264 . S
O137 Eu95 2.339 . S
O137 C158 1.254 . S
O138 Eu95 2.563 . S
O138 C151 1.235 . S
O139 Eu95 2.419 . S
O139 C159 1.249 . S
C140 O129 1.276 . S
C140 O132 1.235 . S
C141 C143 1.393 . S
C141 C145 1.395 . S
C141 C148 1.492 . S
C142 C143 1.392 . S
C142 C144 1.386 . S
C143 C141 1.393 . S
C143 C142 1.392 . S
C143 H160 0.930 . S
C144 C142 1.386 . S
C144 C146 1.395 . S
C144 H161 0.930 . S
C145 C141 1.395 . S
C145 C146 1.379 . S
C145 H162 0.930 . S
C146 C144 1.395 . S
C146 C145 1.379 . S
C146 H163 0.930 . S
C147 O130 1.264 . S
C147 O131 1.254 . S
C148 Eu84 2.848 . S
C148 O128 1.257 . S
C148 O133 1.249 . S
C148 C141 1.492 . S
C149 H114 0.931 . S
C149 C127 1.420 . S
C149 C150 1.351 . S
C150 H112 0.930 . S
C150 C118 1.423 . S
C150 C149 1.351 . S
C151 O135 1.276 . S
C151 O138 1.235 . S
C152 C153 1.393 . S
C152 C156 1.395 . S
C152 C159 1.492 . S
C153 C152 1.393 . S
C153 C154 1.392 . S
C153 H164 0.930 . S
C154 C153 1.392 . S
C154 C155 1.386 . S
C155 C154 1.386 . S
C155 C157 1.395 . S
C155 H165 0.930 . S
C156 C152 1.395 . S
C156 C157 1.379 . S
C156 H166 0.930 . S
C157 C155 1.395 . S
C157 C156 1.379 . S
C157 H167 0.930 . S
C158 O136 1.264 . S
C158 O137 1.254 . S
C159 Eu95 2.848 . S
C159 O134 1.257 . S
C159 O139 1.249 . S
C159 C152 1.492 . S
H160 C143 0.930 . S
H161 C144 0.930 . S
H162 C145 0.930 . S
H163 C146 0.930 . S
H164 C153 0.930 . S
H165 C155 0.930 . S
H166 C156 0.930 . S
H167 C157 0.930 . S
Eu168 N199 2.657 . S
Eu168 N206 2.609 . S
Eu168 O212 2.558 . S
Eu168 O213 2.612 . S
Eu168 O215 2.339 . S
Eu168 O216 2.563 . S
Eu168 O217 2.419 . S
Eu168 O219 2.380 . S
Eu168 O220 2.432 . S
Eu168 C232 2.848 . S
C169 C172 1.429 . S
C169 C173 1.411 . S
C169 N176 1.377 . S
C170 C172 1.420 . S
C170 C174 1.423 . S
C170 C182 1.392 . S
C171 C173 1.420 . S
C171 C174 1.351 . S
C171 H194 0.931 . S
C172 C169 1.429 . S
C172 C170 1.420 . S
C172 N180 1.362 . S
C173 C169 1.411 . S
C173 C171 1.420 . S
C173 C178 1.395 . S
C174 C170 1.423 . S
C174 C171 1.351 . S
C174 H186 0.930 . S
C175 C177 1.400 . S
C175 C178 1.386 . S
C175 H187 0.930 . S
N176 C169 1.377 . S
N176 C177 1.321 . S
N176 Eu179 2.609 . S
C177 C175 1.400 . S
C177 N176 1.321 . S
C177 H184 0.930 . S
C178 C173 1.395 . S
C178 C175 1.386 . S
C178 H197 0.930 . S
Eu179 N176 2.609 . S
Eu179 N180 2.657 . S
Eu179 O213 2.380 . S
Eu179 O214 2.432 . S
Eu179 O218 2.558 . S
Eu179 O219 2.612 . S
Eu179 O221 2.339 . S
Eu179 O222 2.563 . S
Eu179 O223 2.419 . S
Eu179 C243 2.848 . S
N180 C172 1.362 . S
N180 Eu179 2.657 . S
N180 C181 1.334 . S
C181 N180 1.334 . S
C181 C183 1.413 . S
C181 H188 0.929 . S
C182 C170 1.392 . S
C182 C183 1.367 . S
C182 H190 0.930 . S
C183 C181 1.413 . S
C183 C182 1.367 . S
C183 H185 0.930 . S
H184 C177 0.930 . S
H185 C183 0.930 . S
H186 C174 0.930 . S
H187 C175 0.930 . S
H188 C181 0.929 . S
H189 C203 0.930 . S
H190 C182 0.930 . S
H191 C209 0.930 . S
H192 C200 0.929 . S
H193 C207 0.930 . S
H194 C171 0.931 . S
H195 C201 0.930 . S
H196 C234 0.930 1_565 S
H197 C178 0.930 . S
H198 C233 0.931 . S
N199 Eu168 2.657 . S
N199 C200 1.334 . S
N199 C204 1.362 . S
C200 H192 0.929 . S
C200 N199 1.334 . S
C200 C203 1.413 . S
C201 H195 0.930 . S
C201 C202 1.392 . S
C201 C203 1.367 . S
C202 C201 1.392 . S
C202 C204 1.420 . S
C202 C234 1.423 . S
C203 H189 0.930 . S
C203 C200 1.413 . S
C203 C201 1.367 . S
C204 N199 1.362 . S
C204 C202 1.420 . S
C204 C208 1.429 . S
H205 C210 0.930 . S
N206 Eu168 2.609 . S
N206 C208 1.377 . S
N206 C209 1.321 . S
C207 H193 0.930 . S
C207 C209 1.400 . S
C207 C210 1.386 . S
C208 C204 1.429 . S
C208 N206 1.377 . S
C208 C211 1.411 . S
C209 H191 0.930 . S
C209 N206 1.321 . S
C209 C207 1.400 . S
C210 H205 0.930 . S
C210 C207 1.386 . S
C210 C211 1.395 . S
C211 C208 1.411 . S
C211 C210 1.395 . S
C211 C233 1.420 . S
O212 Eu168 2.558 . S
O212 C232 1.257 . S
O213 Eu168 2.612 . S
O213 Eu179 2.380 . S
O213 C224 1.276 . S
O214 Eu179 2.432 . S
O214 C231 1.264 . S
O215 Eu168 2.339 . S
O215 C231 1.254 . S
O216 Eu168 2.563 . S
O216 C224 1.235 . S
O217 Eu168 2.419 . S
O217 C232 1.249 . S
O218 Eu179 2.558 . S
O218 C243 1.257 . S
O219 Eu168 2.380 . S
O219 Eu179 2.612 . S
O219 C235 1.276 . S
O220 Eu168 2.432 . S
O220 C242 1.264 . S
O221 Eu179 2.339 . S
O221 C242 1.254 . S
O222 Eu179 2.563 . S
O222 C235 1.235 . S
O223 Eu179 2.419 . S
O223 C243 1.249 . S
C224 O213 1.276 . S
C224 O216 1.235 . S
C225 C227 1.393 . S
C225 C229 1.395 . S
C225 C232 1.492 . S
C226 C227 1.392 . S
C226 C228 1.386 . S
C227 C225 1.393 . S
C227 C226 1.392 . S
C227 H244 0.930 . S
C228 C226 1.386 . S
C228 C230 1.395 . S
C228 H245 0.930 . S
C229 C225 1.395 . S
C229 C230 1.379 . S
C229 H246 0.930 . S
C230 C228 1.395 . S
C230 C229 1.379 . S
C230 H247 0.930 . S
C231 O214 1.264 . S
C231 O215 1.254 . S
C232 Eu168 2.848 . S
C232 O212 1.257 . S
C232 O217 1.249 . S
C232 C225 1.492 . S
C233 H198 0.931 . S
C233 C211 1.420 . S
C233 C234 1.351 . S
C234 H196 0.930 1_545 S
C234 C202 1.423 . S
C234 C233 1.351 . S
C235 O219 1.276 . S
C235 O222 1.235 . S
C236 C237 1.393 . S
C236 C240 1.395 . S
C236 C243 1.492 . S
C237 C236 1.393 . S
C237 C238 1.392 1_655 S
C237 H248 0.930 . S
C238 C237 1.392 1_455 S
C238 C239 1.386 . S
C239 C238 1.386 . S
C239 C241 1.395 . S
C239 H249 0.930 . S
C240 C236 1.395 . S
C240 C241 1.379 1_655 S
C240 H250 0.930 . S
C241 C239 1.395 . S
C241 C240 1.379 1_455 S
C241 H251 0.930 . S
C242 O220 1.264 . S
C242 O221 1.254 . S
C243 Eu179 2.848 . S
C243 O218 1.257 . S
C243 O223 1.249 . S
C243 C236 1.492 . S
H244 C227 0.930 . S
H245 C228 0.930 . S
H246 C229 0.930 . S
H247 C230 0.930 . S
H248 C237 0.930 . S
H249 C239 0.930 . S
H250 C240 0.930 . S
H251 C241 0.930 . S
Eu252 N283 2.657 . S
Eu252 N290 2.609 . S
Eu252 O296 2.558 . S
Eu252 O297 2.612 . S
Eu252 O299 2.339 . S
Eu252 O300 2.563 . S
Eu252 O301 2.419 . S
Eu252 O303 2.380 . S
Eu252 O304 2.432 . S
Eu252 C316 2.848 . S
C253 C256 1.429 . S
C253 C257 1.411 . S
C253 N260 1.377 . S
C254 C256 1.420 . S
C254 C258 1.423 . S
C254 C266 1.392 . S
C255 C257 1.420 . S
C255 C258 1.351 . S
C255 H278 0.931 . S
C256 C253 1.429 . S
C256 C254 1.420 . S
C256 N264 1.362 . S
C257 C253 1.411 . S
C257 C255 1.420 . S
C257 C262 1.395 . S
C258 C254 1.423 . S
C258 C255 1.351 . S
C258 H270 0.930 . S
C259 C261 1.400 . S
C259 C262 1.386 . S
C259 H271 0.930 . S
N260 C253 1.377 . S
N260 C261 1.321 . S
N260 Eu263 2.609 . S
C261 C259 1.400 . S
C261 N260 1.321 . S
C261 H268 0.930 . S
C262 C257 1.395 . S
C262 C259 1.386 . S
C262 H281 0.930 . S
Eu263 N260 2.609 . S
Eu263 N264 2.657 . S
Eu263 O297 2.380 . S
Eu263 O298 2.432 . S
Eu263 O302 2.558 . S
Eu263 O303 2.612 . S
Eu263 O305 2.339 . S
Eu263 O306 2.563 . S
Eu263 O307 2.419 . S
Eu263 C327 2.848 . S
N264 C256 1.362 . S
N264 Eu263 2.657 . S
N264 C265 1.334 . S
C265 N264 1.334 . S
C265 C267 1.413 . S
C265 H272 0.929 . S
C266 C254 1.392 . S
C266 C267 1.367 . S
C266 H274 0.930 . S
C267 C265 1.413 . S
C267 C266 1.367 . S
C267 H269 0.930 . S
H268 C261 0.930 . S
H269 C267 0.930 . S
H270 C258 0.930 . S
H271 C259 0.930 . S
H272 C265 0.929 . S
H273 C287 0.930 . S
H274 C266 0.930 . S
H275 C293 0.930 . S
H276 C284 0.929 . S
H277 C291 0.930 . S
H278 C255 0.931 . S
H279 C285 0.930 . S
H280 C318 0.930 . S
H281 C262 0.930 . S
H282 C317 0.931 . S
N283 Eu252 2.657 . S
N283 C284 1.334 . S
N283 C288 1.362 . S
C284 H276 0.929 . S
C284 N283 1.334 . S
C284 C287 1.413 . S
C285 H279 0.930 . S
C285 C286 1.392 . S
C285 C287 1.367 . S
C286 C285 1.392 . S
C286 C288 1.420 . S
C286 C318 1.423 . S
C287 H273 0.930 . S
C287 C284 1.413 . S
C287 C285 1.367 . S
C288 N283 1.362 . S
C288 C286 1.420 . S
C288 C292 1.429 . S
H289 C294 0.930 . S
N290 Eu252 2.609 . S
N290 C292 1.377 . S
N290 C293 1.321 . S
C291 H277 0.930 . S
C291 C293 1.400 . S
C291 C294 1.386 . S
C292 C288 1.429 . S
C292 N290 1.377 . S
C292 C295 1.411 . S
C293 H275 0.930 . S
C293 N290 1.321 . S
C293 C291 1.400 . S
C294 H289 0.930 . S
C294 C291 1.386 . S
C294 C295 1.395 . S
C295 C292 1.411 . S
C295 C294 1.395 . S
C295 C317 1.420 . S
O296 Eu252 2.558 . S
O296 C316 1.257 . S
O297 Eu252 2.612 . S
O297 Eu263 2.380 . S
O297 C308 1.276 . S
O298 Eu263 2.432 . S
O298 C315 1.264 . S
O299 Eu252 2.339 . S
O299 C315 1.254 . S
O300 Eu252 2.563 . S
O300 C308 1.235 . S
O301 Eu252 2.419 . S
O301 C316 1.249 . S
O302 Eu263 2.558 . S
O302 C327 1.257 . S
O303 Eu252 2.380 . S
O303 Eu263 2.612 . S
O303 C319 1.276 . S
O304 Eu252 2.432 . S
O304 C326 1.264 . S
O305 Eu263 2.339 . S
O305 C326 1.254 . S
O306 Eu263 2.563 . S
O306 C319 1.235 . S
O307 Eu263 2.419 . S
O307 C327 1.249 . S
C308 O297 1.276 . S
C308 O300 1.235 . S
C309 C311 1.393 . S
C309 C313 1.395 . S
C309 C316 1.492 . S
C310 C311 1.392 1_565 S
C310 C312 1.386 . S
C311 C309 1.393 . S
C311 C310 1.392 1_545 S
C311 H328 0.930 . S
C312 C310 1.386 . S
C312 C314 1.395 . S
C312 H329 0.930 . S
C313 C309 1.395 . S
C313 C314 1.379 1_545 S
C313 H330 0.930 . S
C314 C312 1.395 . S
C314 C313 1.379 1_565 S
C314 H331 0.930 . S
C315 O298 1.264 . S
C315 O299 1.254 . S
C316 Eu252 2.848 . S
C316 O296 1.257 . S
C316 O301 1.249 . S
C316 C309 1.492 . S
C317 H282 0.931 . S
C317 C295 1.420 . S
C317 C318 1.351 . S
C318 H280 0.930 . S
C318 C286 1.423 . S
C318 C317 1.351 . S
C319 O303 1.276 . S
C319 O306 1.235 . S
C320 C321 1.393 . S
C320 C324 1.395 . S
C320 C327 1.492 . S
C321 C320 1.393 . S
C321 C322 1.392 . S
C321 H332 0.930 . S
C322 C321 1.392 . S
C322 C323 1.386 . S
C323 C322 1.386 . S
C323 C325 1.395 . S
C323 H333 0.930 . S
C324 C320 1.395 . S
C324 C325 1.379 . S
C324 H334 0.930 . S
C325 C323 1.395 . S
C325 C324 1.379 . S
C325 H335 0.930 . S
C326 O304 1.264 . S
C326 O305 1.254 . S
C327 Eu263 2.848 . S
C327 O302 1.257 . S
C327 O307 1.249 . S
C327 C320 1.492 . S
H328 C311 0.930 . S
H329 C312 0.930 . S
H330 C313 0.930 . S
H331 C314 0.930 . S
H332 C321 0.930 . S
H333 C323 0.930 . S
H334 C324 0.930 . S
H335 C325 0.930 . S
Eu336 N367 2.657 . S
Eu336 N374 2.609 . S
Eu336 O380 2.558 . S
Eu336 O381 2.612 . S
Eu336 O383 2.339 . S
Eu336 O384 2.563 . S
Eu336 O385 2.419 . S
Eu336 O387 2.380 . S
Eu336 O388 2.432 . S
Eu336 C400 2.848 . S
C337 C340 1.429 . S
C337 C341 1.411 . S
C337 N344 1.377 . S
C338 C340 1.420 . S
C338 C342 1.423 . S
C338 C350 1.392 . S
C339 C341 1.420 . S
C339 C342 1.351 . S
C339 H362 0.931 . S
C340 C337 1.429 . S
C340 C338 1.420 . S
C340 N348 1.362 . S
C341 C337 1.411 . S
C341 C339 1.420 . S
C341 C346 1.395 . S
C342 C338 1.423 . S
C342 C339 1.351 . S
C342 H354 0.930 . S
C343 C345 1.400 . S
C343 C346 1.386 . S
C343 H355 0.930 . S
N344 C337 1.377 . S
N344 C345 1.321 . S
N344 Eu347 2.609 . S
C345 C343 1.400 . S
C345 N344 1.321 . S
C345 H352 0.930 . S
C346 C341 1.395 . S
C346 C343 1.386 . S
C346 H365 0.930 . S
Eu347 N344 2.609 . S
Eu347 N348 2.657 . S
Eu347 O381 2.380 . S
Eu347 O382 2.432 . S
Eu347 O386 2.558 . S
Eu347 O387 2.612 . S
Eu347 O389 2.339 . S
Eu347 O390 2.563 . S
Eu347 O391 2.419 . S
Eu347 C411 2.848 . S
N348 C340 1.362 . S
N348 Eu347 2.657 . S
N348 C349 1.334 . S
C349 N348 1.334 . S
C349 C351 1.413 . S
C349 H356 0.929 . S
C350 C338 1.392 . S
C350 C351 1.367 . S
C350 H358 0.930 . S
C351 C349 1.413 . S
C351 C350 1.367 . S
C351 H353 0.930 . S
H352 C345 0.930 . S
H353 C351 0.930 . S
H354 C342 0.930 . S
H355 C343 0.930 . S
H356 C349 0.929 . S
H357 C371 0.930 . S
H358 C350 0.930 . S
H359 C377 0.930 . S
H360 C368 0.929 . S
H361 C375 0.930 . S
H362 C339 0.931 . S
H363 C369 0.930 . S
H364 C402 0.930 1_455 S
H365 C346 0.930 . S
H366 C401 0.931 . S
N367 Eu336 2.657 . S
N367 C368 1.334 . S
N367 C372 1.362 . S
C368 H360 0.929 . S
C368 N367 1.334 . S
C368 C371 1.413 . S
C369 H363 0.930 . S
C369 C370 1.392 . S
C369 C371 1.367 . S
C370 C369 1.392 . S
C370 C372 1.420 . S
C370 C402 1.423 . S
C371 H357 0.930 . S
C371 C368 1.413 . S
C371 C369 1.367 . S
C372 N367 1.362 . S
C372 C370 1.420 . S
C372 C376 1.429 . S
H373 C378 0.930 . S
N374 Eu336 2.609 . S
N374 C376 1.377 . S
N374 C377 1.321 . S
C375 H361 0.930 . S
C375 C377 1.400 . S
C375 C378 1.386 . S
C376 C372 1.429 . S
C376 N374 1.377 . S
C376 C379 1.411 . S
C377 H359 0.930 . S
C377 N374 1.321 . S
C377 C375 1.400 . S
C378 H373 0.930 . S
C378 C375 1.386 . S
C378 C379 1.395 . S
C379 C376 1.411 . S
C379 C378 1.395 . S
C379 C401 1.420 . S
O380 Eu336 2.558 . S
O380 C400 1.257 . S
O381 Eu336 2.612 . S
O381 Eu347 2.380 . S
O381 C392 1.276 . S
O382 Eu347 2.432 . S
O382 C399 1.264 . S
O383 Eu336 2.339 . S
O383 C399 1.254 . S
O384 Eu336 2.563 . S
O384 C392 1.235 . S
O385 Eu336 2.419 . S
O385 C400 1.249 . S
O386 Eu347 2.558 . S
O386 C411 1.257 . S
O387 Eu336 2.380 . S
O387 Eu347 2.612 . S
O387 C403 1.276 . S
O388 Eu336 2.432 . S
O388 C410 1.264 . S
O389 Eu347 2.339 . S
O389 C410 1.254 . S
O390 Eu347 2.563 . S
O390 C403 1.235 . S
O391 Eu347 2.419 . S
O391 C411 1.249 . S
C392 O381 1.276 . S
C392 O384 1.235 . S
C393 C395 1.393 . S
C393 C397 1.395 . S
C393 C400 1.492 . S
C394 C395 1.392 . S
C394 C396 1.386 . S
C395 C393 1.393 . S
C395 C394 1.392 . S
C395 H412 0.930 . S
C396 C394 1.386 . S
C396 C398 1.395 . S
C396 H413 0.930 . S
C397 C393 1.395 . S
C397 C398 1.379 . S
C397 H414 0.930 . S
C398 C396 1.395 . S
C398 C397 1.379 . S
C398 H415 0.930 . S
C399 O382 1.264 . S
C399 O383 1.254 . S
C400 Eu336 2.848 . S
C400 O380 1.257 . S
C400 O385 1.249 . S
C400 C393 1.492 . S
C401 H366 0.931 . S
C401 C379 1.420 . S
C401 C402 1.351 . S
C402 H364 0.930 1_655 S
C402 C370 1.423 . S
C402 C401 1.351 . S
C403 O387 1.276 . S
C403 O390 1.235 . S
C404 C405 1.393 . S
C404 C408 1.395 . S
C404 C411 1.492 . S
C405 C404 1.393 . S
C405 C406 1.392 . S
C405 H416 0.930 . S
C406 C405 1.392 . S
C406 C407 1.386 . S
C407 C406 1.386 . S
C407 C409 1.395 . S
C407 H417 0.930 . S
C408 C404 1.395 . S
C408 C409 1.379 . S
C408 H418 0.930 . S
C409 C407 1.395 . S
C409 C408 1.379 . S
C409 H419 0.930 . S
C410 O388 1.264 . S
C410 O389 1.254 . S
C411 Eu347 2.848 . S
C411 O386 1.257 . S
C411 O391 1.249 . S
C411 C404 1.492 . S
H412 C395 0.930 . S
H413 C396 0.930 . S
H414 C397 0.930 . S
H415 C398 0.930 . S
H416 C405 0.930 . S
H417 C407 0.930 . S
H418 C408 0.930 . S
H419 C409 0.930 . S
Eu420 N451 2.657 . S
Eu420 N458 2.609 . S
Eu420 O464 2.558 . S
Eu420 O465 2.612 . S
Eu420 O467 2.339 . S
Eu420 O468 2.563 . S
Eu420 O469 2.419 . S
Eu420 O471 2.380 . S
Eu420 O472 2.432 . S
Eu420 C484 2.848 . S
C421 C424 1.429 . S
C421 C425 1.411 . S
C421 N428 1.377 . S
C422 C424 1.420 . S
C422 C426 1.423 . S
C422 C434 1.392 . S
C423 C425 1.420 . S
C423 C426 1.351 . S
C423 H446 0.931 . S
C424 C421 1.429 . S
C424 C422 1.420 . S
C424 N432 1.362 . S
C425 C421 1.411 . S
C425 C423 1.420 . S
C425 C430 1.395 . S
C426 C422 1.423 . S
C426 C423 1.351 . S
C426 H438 0.930 1_545 S
C427 C429 1.400 . S
C427 C430 1.386 . S
C427 H439 0.930 . S
N428 C421 1.377 . S
N428 C429 1.321 . S
N428 Eu431 2.609 . S
C429 C427 1.400 . S
C429 N428 1.321 . S
C429 H436 0.930 . S
C430 C425 1.395 . S
C430 C427 1.386 . S
C430 H449 0.930 . S
Eu431 N428 2.609 . S
Eu431 N432 2.657 . S
Eu431 O465 2.380 . S
Eu431 O466 2.432 . S
Eu431 O470 2.558 . S
Eu431 O471 2.612 . S
Eu431 O473 2.339 . S
Eu431 O474 2.563 . S
Eu431 O475 2.419 . S
Eu431 C495 2.848 . S
N432 C424 1.362 . S
N432 Eu431 2.657 . S
N432 C433 1.334 . S
C433 N432 1.334 . S
C433 C435 1.413 . S
C433 H440 0.929 . S
C434 C422 1.392 . S
C434 C435 1.367 . S
C434 H442 0.930 . S
C435 C433 1.413 . S
C435 C434 1.367 . S
C435 H437 0.930 . S
H436 C429 0.930 . S
H437 C435 0.930 . S
H438 C426 0.930 1_565 S
H439 C427 0.930 . S
H440 C433 0.929 . S
H441 C455 0.930 . S
H442 C434 0.930 . S
H443 C461 0.930 . S
H444 C452 0.929 . S
H445 C459 0.930 . S
H446 C423 0.931 . S
H447 C453 0.930 . S
H448 C486 0.930 . S
H449 C430 0.930 . S
H450 C485 0.931 . S
N451 Eu420 2.657 . S
N451 C452 1.334 . S
N451 C456 1.362 . S
C452 H444 0.929 . S
C452 N451 1.334 . S
C452 C455 1.413 . S
C453 H447 0.930 . S
C453 C454 1.392 . S
C453 C455 1.367 . S
C454 C453 1.392 . S
C454 C456 1.420 . S
C454 C486 1.423 . S
C455 H441 0.930 . S
C455 C452 1.413 . S
C455 C453 1.367 . S
C456 N451 1.362 . S
C456 C454 1.420 . S
C456 C460 1.429 . S
H457 C462 0.930 . S
N458 Eu420 2.609 . S
N458 C460 1.377 . S
N458 C461 1.321 . S
C459 H445 0.930 . S
C459 C461 1.400 . S
C459 C462 1.386 . S
C460 C456 1.429 . S
C460 N458 1.377 . S
C460 C463 1.411 . S
C461 H443 0.930 . S
C461 N458 1.321 . S
C461 C459 1.400 . S
C462 H457 0.930 . S
C462 C459 1.386 . S
C462 C463 1.395 . S
C463 C460 1.411 . S
C463 C462 1.395 . S
C463 C485 1.420 . S
O464 Eu420 2.558 . S
O464 C484 1.257 . S
O465 Eu420 2.612 . S
O465 Eu431 2.380 . S
O465 C476 1.276 . S
O466 Eu431 2.432 . S
O466 C483 1.264 . S
O467 Eu420 2.339 . S
O467 C483 1.254 . S
O468 Eu420 2.563 . S
O468 C476 1.235 . S
O469 Eu420 2.419 . S
O469 C484 1.249 . S
O470 Eu431 2.558 . S
O470 C495 1.257 . S
O471 Eu420 2.380 . S
O471 Eu431 2.612 . S
O471 C487 1.276 . S
O472 Eu420 2.432 . S
O472 C494 1.264 . S
O473 Eu431 2.339 . S
O473 C494 1.254 . S
O474 Eu431 2.563 . S
O474 C487 1.235 . S
O475 Eu431 2.419 . S
O475 C495 1.249 . S
C476 O465 1.276 . S
C476 O468 1.235 . S
C477 C479 1.393 . S
C477 C481 1.395 . S
C477 C484 1.492 . S
C478 C479 1.392 1_455 S
C478 C480 1.386 . S
C479 C477 1.393 . S
C479 C478 1.392 1_655 S
C479 H496 0.930 . S
C480 C478 1.386 . S
C480 C482 1.395 . S
C480 H497 0.930 . S
C481 C477 1.395 . S
C481 C482 1.379 1_655 S
C481 H498 0.930 . S
C482 C480 1.395 . S
C482 C481 1.379 1_455 S
C482 H499 0.930 . S
C483 O466 1.264 . S
C483 O467 1.254 . S
C484 Eu420 2.848 . S
C484 O464 1.257 . S
C484 O469 1.249 . S
C484 C477 1.492 . S
C485 H450 0.931 . S
C485 C463 1.420 . S
C485 C486 1.351 . S
C486 H448 0.930 . S
C486 C454 1.423 . S
C486 C485 1.351 . S
C487 O471 1.276 . S
C487 O474 1.235 . S
C488 C489 1.393 . S
C488 C492 1.395 . S
C488 C495 1.492 . S
C489 C488 1.393 . S
C489 C490 1.392 . S
C489 H500 0.930 . S
C490 C489 1.392 . S
C490 C491 1.386 . S
C491 C490 1.386 . S
C491 C493 1.395 . S
C491 H501 0.930 . S
C492 C488 1.395 . S
C492 C493 1.379 . S
C492 H502 0.930 . S
C493 C491 1.395 . S
C493 C492 1.379 . S
C493 H503 0.930 . S
C494 O472 1.264 . S
C494 O473 1.254 . S
C495 Eu431 2.848 . S
C495 O470 1.257 . S
C495 O475 1.249 . S
C495 C488 1.492 . S
H496 C479 0.930 . S
H497 C480 0.930 . S
H498 C481 0.930 . S
H499 C482 0.930 . S
H500 C489 0.930 . S
H501 C491 0.930 . S
H502 C492 0.930 . S
H503 C493 0.930 . S
Eu504 N535 2.657 . S
Eu504 N542 2.609 . S
Eu504 O548 2.558 . S
Eu504 O549 2.612 . S
Eu504 O551 2.339 . S
Eu504 O552 2.563 . S
Eu504 O553 2.419 . S
Eu504 O555 2.380 . S
Eu504 O556 2.432 . S
Eu504 C568 2.848 . S
C505 C508 1.429 . S
C505 C509 1.411 . S
C505 N512 1.377 . S
C506 C508 1.420 . S
C506 C510 1.423 . S
C506 C518 1.392 . S
C507 C509 1.420 . S
C507 C510 1.351 . S
C507 H530 0.931 . S
C508 C505 1.429 . S
C508 C506 1.420 . S
C508 N516 1.362 . S
C509 C505 1.411 . S
C509 C507 1.420 . S
C509 C514 1.395 . S
C510 C506 1.423 . S
C510 C507 1.351 . S
C510 H522 0.930 . S
C511 C513 1.400 . S
C511 C514 1.386 . S
C511 H523 0.930 . S
N512 C505 1.377 . S
N512 C513 1.321 . S
N512 Eu515 2.609 . S
C513 C511 1.400 . S
C513 N512 1.321 . S
C513 H520 0.930 . S
C514 C509 1.395 . S
C514 C511 1.386 . S
C514 H533 0.930 . S
Eu515 N512 2.609 . S
Eu515 N516 2.657 . S
Eu515 O549 2.380 . S
Eu515 O550 2.432 . S
Eu515 O554 2.558 . S
Eu515 O555 2.612 . S
Eu515 O557 2.339 . S
Eu515 O558 2.563 . S
Eu515 O559 2.419 . S
Eu515 C579 2.848 . S
N516 C508 1.362 . S
N516 Eu515 2.657 . S
N516 C517 1.334 . S
C517 N516 1.334 . S
C517 C519 1.413 . S
C517 H524 0.929 . S
C518 C506 1.392 . S
C518 C519 1.367 . S
C518 H526 0.930 . S
C519 C517 1.413 . S
C519 C518 1.367 . S
C519 H521 0.930 . S
H520 C513 0.930 . S
H521 C519 0.930 . S
H522 C510 0.930 . S
H523 C511 0.930 . S
H524 C517 0.929 . S
H525 C539 0.930 . S
H526 C518 0.930 . S
H527 C545 0.930 . S
H528 C536 0.929 . S
H529 C543 0.930 . S
H530 C507 0.931 . S
H531 C537 0.930 . S
H532 C570 0.930 . S
H533 C514 0.930 . S
H534 C569 0.931 . S
N535 Eu504 2.657 . S
N535 C536 1.334 . S
N535 C540 1.362 . S
C536 H528 0.929 . S
C536 N535 1.334 . S
C536 C539 1.413 . S
C537 H531 0.930 . S
C537 C538 1.392 . S
C537 C539 1.367 . S
C538 C537 1.392 . S
C538 C540 1.420 . S
C538 C570 1.423 . S
C539 H525 0.930 . S
C539 C536 1.413 . S
C539 C537 1.367 . S
C540 N535 1.362 . S
C540 C538 1.420 . S
C540 C544 1.429 . S
H541 C546 0.930 . S
N542 Eu504 2.609 . S
N542 C544 1.377 . S
N542 C545 1.321 . S
C543 H529 0.930 . S
C543 C545 1.400 . S
C543 C546 1.386 . S
C544 C540 1.429 . S
C544 N542 1.377 . S
C544 C547 1.411 . S
C545 H527 0.930 . S
C545 N542 1.321 . S
C545 C543 1.400 . S
C546 H541 0.930 . S
C546 C543 1.386 . S
C546 C547 1.395 . S
C547 C544 1.411 . S
C547 C546 1.395 . S
C547 C569 1.420 . S
O548 Eu504 2.558 . S
O548 C568 1.257 . S
O549 Eu504 2.612 . S
O549 Eu515 2.380 . S
O549 C560 1.276 . S
O550 Eu515 2.432 . S
O550 C567 1.264 . S
O551 Eu504 2.339 . S
O551 C567 1.254 . S
O552 Eu504 2.563 . S
O552 C560 1.235 . S
O553 Eu504 2.419 . S
O553 C568 1.249 . S
O554 Eu515 2.558 . S
O554 C579 1.257 . S
O555 Eu504 2.380 . S
O555 Eu515 2.612 . S
O555 C571 1.276 . S
O556 Eu504 2.432 . S
O556 C578 1.264 . S
O557 Eu515 2.339 . S
O557 C578 1.254 . S
O558 Eu515 2.563 . S
O558 C571 1.235 . S
O559 Eu515 2.419 . S
O559 C579 1.249 . S
C560 O549 1.276 . S
C560 O552 1.235 . S
C561 C563 1.393 . S
C561 C565 1.395 . S
C561 C568 1.492 . S
C562 C563 1.392 1_655 S
C562 C564 1.386 . S
C563 C561 1.393 . S
C563 C562 1.392 1_455 S
C563 H580 0.930 . S
C564 C562 1.386 . S
C564 C566 1.395 . S
C564 H581 0.930 . S
C565 C561 1.395 . S
C565 C566 1.379 1_455 S
C565 H582 0.930 . S
C566 C564 1.395 . S
C566 C565 1.379 1_655 S
C566 H583 0.930 . S
C567 O550 1.264 . S
C567 O551 1.254 . S
C568 Eu504 2.848 . S
C568 O548 1.257 . S
C568 O553 1.249 . S
C568 C561 1.492 . S
C569 H534 0.931 . S
C569 C547 1.420 . S
C569 C570 1.351 . S
C570 H532 0.930 . S
C570 C538 1.423 . S
C570 C569 1.351 . S
C571 O555 1.276 . S
C571 O558 1.235 . S
C572 C573 1.393 . S
C572 C576 1.395 . S
C572 C579 1.492 . S
C573 C572 1.393 . S
C573 C574 1.392 . S
C573 H584 0.930 . S
C574 C573 1.392 . S
C574 C575 1.386 . S
C575 C574 1.386 . S
C575 C577 1.395 . S
C575 H585 0.930 . S
C576 C572 1.395 . S
C576 C577 1.379 . S
C576 H586 0.930 . S
C577 C575 1.395 . S
C577 C576 1.379 . S
C577 H587 0.930 . S
C578 O556 1.264 . S
C578 O557 1.254 . S
C579 Eu515 2.848 . S
C579 O554 1.257 . S
C579 O559 1.249 . S
C579 C572 1.492 . S
H580 C563 0.930 . S
H581 C564 0.930 . S
H582 C565 0.930 . S
H583 C566 0.930 . S
H584 C573 0.930 . S
H585 C575 0.930 . S
H586 C576 0.930 . S
H587 C577 0.930 . S
Eu588 N619 2.657 . S
Eu588 N626 2.609 . S
Eu588 O632 2.558 . S
Eu588 O633 2.612 . S
Eu588 O635 2.339 . S
Eu588 O636 2.563 . S
Eu588 O637 2.419 . S
Eu588 O639 2.380 . S
Eu588 O640 2.432 . S
Eu588 C652 2.848 . S
C589 C592 1.429 . S
C589 C593 1.411 . S
C589 N596 1.377 . S
C590 C592 1.420 . S
C590 C594 1.423 . S
C590 C602 1.392 . S
C591 C593 1.420 . S
C591 C594 1.351 . S
C591 H614 0.931 . S
C592 C589 1.429 . S
C592 C590 1.420 . S
C592 N600 1.362 . S
C593 C589 1.411 . S
C593 C591 1.420 . S
C593 C598 1.395 . S
C594 C590 1.423 . S
C594 C591 1.351 . S
C594 H606 0.930 . S
C595 C597 1.400 . S
C595 C598 1.386 . S
C595 H607 0.930 . S
N596 C589 1.377 . S
N596 C597 1.321 . S
N596 Eu599 2.609 . S
C597 C595 1.400 . S
C597 N596 1.321 . S
C597 H604 0.930 . S
C598 C593 1.395 . S
C598 C595 1.386 . S
C598 H617 0.930 . S
Eu599 N596 2.609 . S
Eu599 N600 2.657 . S
Eu599 O633 2.380 . S
Eu599 O634 2.432 . S
Eu599 O638 2.558 . S
Eu599 O639 2.612 . S
Eu599 O641 2.339 . S
Eu599 O642 2.563 . S
Eu599 O643 2.419 . S
Eu599 C663 2.848 . S
N600 C592 1.362 . S
N600 Eu599 2.657 . S
N600 C601 1.334 . S
C601 N600 1.334 . S
C601 C603 1.413 . S
C601 H608 0.929 . S
C602 C590 1.392 . S
C602 C603 1.367 . S
C602 H610 0.930 . S
C603 C601 1.413 . S
C603 C602 1.367 . S
C603 H605 0.930 . S
H604 C597 0.930 . S
H605 C603 0.930 . S
H606 C594 0.930 . S
H607 C595 0.930 . S
H608 C601 0.929 . S
H609 C623 0.930 . S
H610 C602 0.930 . S
H611 C629 0.930 . S
H612 C620 0.929 . S
H613 C627 0.930 . S
H614 C591 0.931 . S
H615 C621 0.930 . S
H616 C654 0.930 1_655 S
H617 C598 0.930 . S
H618 C653 0.931 . S
N619 Eu588 2.657 . S
N619 C620 1.334 . S
N619 C624 1.362 . S
C620 H612 0.929 . S
C620 N619 1.334 . S
C620 C623 1.413 . S
C621 H615 0.930 . S
C621 C622 1.392 . S
C621 C623 1.367 . S
C622 C621 1.392 . S
C622 C624 1.420 . S
C622 C654 1.423 . S
C623 H609 0.930 . S
C623 C620 1.413 . S
C623 C621 1.367 . S
C624 N619 1.362 . S
C624 C622 1.420 . S
C624 C628 1.429 . S
H625 C630 0.930 . S
N626 Eu588 2.609 . S
N626 C628 1.377 . S
N626 C629 1.321 . S
C627 H613 0.930 . S
C627 C629 1.400 . S
C627 C630 1.386 . S
C628 C624 1.429 . S
C628 N626 1.377 . S
C628 C631 1.411 . S
C629 H611 0.930 . S
C629 N626 1.321 . S
C629 C627 1.400 . S
C630 H625 0.930 . S
C630 C627 1.386 . S
C630 C631 1.395 . S
C631 C628 1.411 . S
C631 C630 1.395 . S
C631 C653 1.420 . S
O632 Eu588 2.558 . S
O632 C652 1.257 . S
O633 Eu588 2.612 . S
O633 Eu599 2.380 . S
O633 C644 1.276 . S
O634 Eu599 2.432 . S
O634 C651 1.264 . S
O635 Eu588 2.339 . S
O635 C651 1.254 . S
O636 Eu588 2.563 . S
O636 C644 1.235 . S
O637 Eu588 2.419 . S
O637 C652 1.249 . S
O638 Eu599 2.558 . S
O638 C663 1.257 . S
O639 Eu588 2.380 . S
O639 Eu599 2.612 . S
O639 C655 1.276 . S
O640 Eu588 2.432 . S
O640 C662 1.264 . S
O641 Eu599 2.339 . S
O641 C662 1.254 . S
O642 Eu599 2.563 . S
O642 C655 1.235 . S
O643 Eu599 2.419 . S
O643 C663 1.249 . S
C644 O633 1.276 . S
C644 O636 1.235 . S
C645 C647 1.393 . S
C645 C649 1.395 . S
C645 C652 1.492 . S
C646 C647 1.392 . S
C646 C648 1.386 . S
C647 C645 1.393 . S
C647 C646 1.392 . S
C647 H664 0.930 . S
C648 C646 1.386 . S
C648 C650 1.395 . S
C648 H665 0.930 . S
C649 C645 1.395 . S
C649 C650 1.379 . S
C649 H666 0.930 . S
C650 C648 1.395 . S
C650 C649 1.379 . S
C650 H667 0.930 . S
C651 O634 1.264 . S
C651 O635 1.254 . S
C652 Eu588 2.848 . S
C652 O632 1.257 . S
C652 O637 1.249 . S
C652 C645 1.492 . S
C653 H618 0.931 . S
C653 C631 1.420 . S
C653 C654 1.351 . S
C654 H616 0.930 1_455 S
C654 C622 1.423 . S
C654 C653 1.351 . S
C655 O639 1.276 . S
C655 O642 1.235 . S
C656 C657 1.393 . S
C656 C660 1.395 . S
C656 C663 1.492 . S
C657 C656 1.393 . S
C657 C658 1.392 1_565 S
C657 H668 0.930 . S
C658 C657 1.392 1_545 S
C658 C659 1.386 . S
C659 C658 1.386 . S
C659 C661 1.395 . S
C659 H669 0.930 . S
C660 C656 1.395 . S
C660 C661 1.379 1_565 S
C660 H670 0.930 . S
C661 C659 1.395 . S
C661 C660 1.379 1_545 S
C661 H671 0.930 . S
C662 O640 1.264 . S
C662 O641 1.254 . S
C663 Eu599 2.848 . S
C663 O638 1.257 . S
C663 O643 1.249 . S
C663 C656 1.492 . S
H664 C647 0.930 . S
H665 C648 0.930 . S
H666 C649 0.930 . S
H667 C650 0.930 . S
H668 C657 0.930 . S
H669 C659 0.930 . S
H670 C660 0.930 . S
H671 C661 0.930 . S
Eu672 N703 2.657 . S
Eu672 N710 2.609 . S
Eu672 O716 2.558 . S
Eu672 O717 2.612 . S
Eu672 O719 2.339 . S
Eu672 O720 2.563 . S
Eu672 O721 2.419 . S
Eu672 O723 2.380 . S
Eu672 O724 2.432 . S
Eu672 C736 2.848 . S
C673 C676 1.429 . S
C673 C677 1.411 . S
C673 N680 1.377 . S
C674 C676 1.420 . S
C674 C678 1.423 . S
C674 C686 1.392 . S
C675 C677 1.420 . S
C675 C678 1.351 . S
C675 H698 0.931 . S
C676 C673 1.429 . S
C676 C674 1.420 . S
C676 N684 1.362 . S
C677 C673 1.411 . S
C677 C675 1.420 . S
C677 C682 1.395 . S
C678 C674 1.423 . S
C678 C675 1.351 . S
C678 H690 0.930 1_565 S
C679 C681 1.400 . S
C679 C682 1.386 . S
C679 H691 0.930 . S
N680 C673 1.377 . S
N680 C681 1.321 . S
N680 Eu683 2.609 . S
C681 C679 1.400 . S
C681 N680 1.321 . S
C681 H688 0.930 . S
C682 C677 1.395 . S
C682 C679 1.386 . S
C682 H701 0.930 . S
Eu683 N680 2.609 . S
Eu683 N684 2.657 . S
Eu683 O717 2.380 . S
Eu683 O718 2.432 . S
Eu683 O722 2.558 . S
Eu683 O723 2.612 . S
Eu683 O725 2.339 . S
Eu683 O726 2.563 . S
Eu683 O727 2.419 . S
Eu683 C747 2.848 . S
N684 C676 1.362 . S
N684 Eu683 2.657 . S
N684 C685 1.334 . S
C685 N684 1.334 . S
C685 C687 1.413 . S
C685 H692 0.929 . S
C686 C674 1.392 . S
C686 C687 1.367 . S
C686 H694 0.930 . S
C687 C685 1.413 . S
C687 C686 1.367 . S
C687 H689 0.930 . S
H688 C681 0.930 . S
H689 C687 0.930 . S
H690 C678 0.930 1_545 S
H691 C679 0.930 . S
H692 C685 0.929 . S
H693 C707 0.930 . S
H694 C686 0.930 . S
H695 C713 0.930 . S
H696 C704 0.929 . S
H697 C711 0.930 . S
H698 C675 0.931 . S
H699 C705 0.930 . S
H700 C738 0.930 . S
H701 C682 0.930 . S
H702 C737 0.931 . S
N703 Eu672 2.657 . S
N703 C704 1.334 . S
N703 C708 1.362 . S
C704 H696 0.929 . S
C704 N703 1.334 . S
C704 C707 1.413 . S
C705 H699 0.930 . S
C705 C706 1.392 . S
C705 C707 1.367 . S
C706 C705 1.392 . S
C706 C708 1.420 . S
C706 C738 1.423 . S
C707 H693 0.930 . S
C707 C704 1.413 . S
C707 C705 1.367 . S
C708 N703 1.362 . S
C708 C706 1.420 . S
C708 C712 1.429 . S
H709 C714 0.930 . S
N710 Eu672 2.609 . S
N710 C712 1.377 . S
N710 C713 1.321 . S
C711 H697 0.930 . S
C711 C713 1.400 . S
C711 C714 1.386 . S
C712 C708 1.429 . S
C712 N710 1.377 . S
C712 C715 1.411 . S
C713 H695 0.930 . S
C713 N710 1.321 . S
C713 C711 1.400 . S
C714 H709 0.930 . S
C714 C711 1.386 . S
C714 C715 1.395 . S
C715 C712 1.411 . S
C715 C714 1.395 . S
C715 C737 1.420 . S
O716 Eu672 2.558 . S
O716 C736 1.257 . S
O717 Eu672 2.612 . S
O717 Eu683 2.380 . S
O717 C728 1.276 . S
O718 Eu683 2.432 . S
O718 C735 1.264 . S
O719 Eu672 2.339 . S
O719 C735 1.254 . S
O720 Eu672 2.563 . S
O720 C728 1.235 . S
O721 Eu672 2.419 . S
O721 C736 1.249 . S
O722 Eu683 2.558 . S
O722 C747 1.257 . S
O723 Eu672 2.380 . S
O723 Eu683 2.612 . S
O723 C739 1.276 . S
O724 Eu672 2.432 . S
O724 C746 1.264 . S
O725 Eu683 2.339 . S
O725 C746 1.254 . S
O726 Eu683 2.563 . S
O726 C739 1.235 . S
O727 Eu683 2.419 . S
O727 C747 1.249 . S
C728 O717 1.276 . S
C728 O720 1.235 . S
C729 C731 1.393 . S
C729 C733 1.395 . S
C729 C736 1.492 . S
C730 C731 1.392 . S
C730 C732 1.386 . S
C731 C729 1.393 . S
C731 C730 1.392 . S
C731 H748 0.930 . S
C732 C730 1.386 . S
C732 C734 1.395 . S
C732 H749 0.930 . S
C733 C729 1.395 . S
C733 C734 1.379 . S
C733 H750 0.930 . S
C734 C732 1.395 . S
C734 C733 1.379 . S
C734 H751 0.930 . S
C735 O718 1.264 . S
C735 O719 1.254 . S
C736 Eu672 2.848 . S
C736 O716 1.257 . S
C736 O721 1.249 . S
C736 C729 1.492 . S
C737 H702 0.931 . S
C737 C715 1.420 . S
C737 C738 1.351 . S
C738 H700 0.930 . S
C738 C706 1.423 . S
C738 C737 1.351 . S
C739 O723 1.276 . S
C739 O726 1.235 . S
C740 C741 1.393 . S
C740 C744 1.395 . S
C740 C747 1.492 . S
C741 C740 1.393 . S
C741 C742 1.392 . S
C741 H752 0.930 . S
C742 C741 1.392 . S
C742 C743 1.386 . S
C743 C742 1.386 . S
C743 C745 1.395 . S
C743 H753 0.930 . S
C744 C740 1.395 . S
C744 C745 1.379 . S
C744 H754 0.930 . S
C745 C743 1.395 . S
C745 C744 1.379 . S
C745 H755 0.930 . S
C746 O724 1.264 . S
C746 O725 1.254 . S
C747 Eu683 2.848 . S
C747 O722 1.257 . S
C747 O727 1.249 . S
C747 C740 1.492 . S
H748 C731 0.930 . S
H749 C732 0.930 . S
H750 C733 0.930 . S
H751 C734 0.930 . S
H752 C741 0.930 . S
H753 C743 0.930 . S
H754 C744 0.930 . S
H755 C745 0.930 . S
Eu756 N787 2.657 . S
Eu756 N794 2.609 . S
Eu756 O800 2.558 . S
Eu756 O801 2.612 . S
Eu756 O803 2.339 . S
Eu756 O804 2.563 . S
Eu756 O805 2.419 . S
Eu756 O807 2.380 . S
Eu756 O808 2.432 . S
Eu756 C820 2.848 . S
C757 C760 1.429 . S
C757 C761 1.411 . S
C757 N764 1.377 . S
C758 C760 1.420 . S
C758 C762 1.423 . S
C758 C770 1.392 . S
C759 C761 1.420 . S
C759 C762 1.351 . S
C759 H782 0.931 . S
C760 C757 1.429 . S
C760 C758 1.420 . S
C760 N768 1.362 . S
C761 C757 1.411 . S
C761 C759 1.420 . S
C761 C766 1.395 . S
C762 C758 1.423 . S
C762 C759 1.351 . S
C762 H774 0.930 . S
C763 C765 1.400 . S
C763 C766 1.386 . S
C763 H775 0.930 . S
N764 C757 1.377 . S
N764 C765 1.321 . S
N764 Eu767 2.609 . S
C765 C763 1.400 . S
C765 N764 1.321 . S
C765 H772 0.930 . S
C766 C761 1.395 . S
C766 C763 1.386 . S
C766 H785 0.930 . S
Eu767 N764 2.609 . S
Eu767 N768 2.657 . S
Eu767 O801 2.380 . S
Eu767 O802 2.432 . S
Eu767 O806 2.558 . S
Eu767 O807 2.612 . S
Eu767 O809 2.339 . S
Eu767 O810 2.563 . S
Eu767 O811 2.419 . S
Eu767 C831 2.848 . S
N768 C760 1.362 . S
N768 Eu767 2.657 . S
N768 C769 1.334 . S
C769 N768 1.334 . S
C769 C771 1.413 . S
C769 H776 0.929 . S
C770 C758 1.392 . S
C770 C771 1.367 . S
C770 H778 0.930 . S
C771 C769 1.413 . S
C771 C770 1.367 . S
C771 H773 0.930 . S
H772 C765 0.930 . S
H773 C771 0.930 . S
H774 C762 0.930 . S
H775 C763 0.930 . S
H776 C769 0.929 . S
H777 C791 0.930 . S
H778 C770 0.930 . S
H779 C797 0.930 . S
H780 C788 0.929 . S
H781 C795 0.930 . S
H782 C759 0.931 . S
H783 C789 0.930 . S
H784 C822 0.930 . S
H785 C766 0.930 . S
H786 C821 0.931 . S
N787 Eu756 2.657 . S
N787 C788 1.334 . S
N787 C792 1.362 . S
C788 H780 0.929 . S
C788 N787 1.334 . S
C788 C791 1.413 . S
C789 H783 0.930 . S
C789 C790 1.392 . S
C789 C791 1.367 . S
C790 C789 1.392 . S
C790 C792 1.420 . S
C790 C822 1.423 . S
C791 H777 0.930 . S
C791 C788 1.413 . S
C791 C789 1.367 . S
C792 N787 1.362 . S
C792 C790 1.420 . S
C792 C796 1.429 . S
H793 C798 0.930 . S
N794 Eu756 2.609 . S
N794 C796 1.377 . S
N794 C797 1.321 . S
C795 H781 0.930 . S
C795 C797 1.400 . S
C795 C798 1.386 . S
C796 C792 1.429 . S
C796 N794 1.377 . S
C796 C799 1.411 . S
C797 H779 0.930 . S
C797 N794 1.321 . S
C797 C795 1.400 . S
C798 H793 0.930 . S
C798 C795 1.386 . S
C798 C799 1.395 . S
C799 C796 1.411 . S
C799 C798 1.395 . S
C799 C821 1.420 . S
O800 Eu756 2.558 . S
O800 C820 1.257 . S
O801 Eu756 2.612 . S
O801 Eu767 2.380 . S
O801 C812 1.276 . S
O802 Eu767 2.432 . S
O802 C819 1.264 . S
O803 Eu756 2.339 . S
O803 C819 1.254 . S
O804 Eu756 2.563 . S
O804 C812 1.235 . S
O805 Eu756 2.419 . S
O805 C820 1.249 . S
O806 Eu767 2.558 . S
O806 C831 1.257 . S
O807 Eu756 2.380 . S
O807 Eu767 2.612 . S
O807 C823 1.276 . S
O808 Eu756 2.432 . S
O808 C830 1.264 . S
O809 Eu767 2.339 . S
O809 C830 1.254 . S
O810 Eu767 2.563 . S
O810 C823 1.235 . S
O811 Eu767 2.419 . S
O811 C831 1.249 . S
C812 O801 1.276 . S
C812 O804 1.235 . S
C813 C815 1.393 . S
C813 C817 1.395 . S
C813 C820 1.492 . S
C814 C815 1.392 . S
C814 C816 1.386 . S
C815 C813 1.393 . S
C815 C814 1.392 . S
C815 H832 0.930 . S
C816 C814 1.386 . S
C816 C818 1.395 . S
C816 H833 0.930 . S
C817 C813 1.395 . S
C817 C818 1.379 . S
C817 H834 0.930 . S
C818 C816 1.395 . S
C818 C817 1.379 . S
C818 H835 0.930 . S
C819 O802 1.264 . S
C819 O803 1.254 . S
C820 Eu756 2.848 . S
C820 O800 1.257 . S
C820 O805 1.249 . S
C820 C813 1.492 . S
C821 H786 0.931 . S
C821 C799 1.420 . S
C821 C822 1.351 . S
C822 H784 0.930 . S
C822 C790 1.423 . S
C822 C821 1.351 . S
C823 O807 1.276 . S
C823 O810 1.235 . S
C824 C825 1.393 . S
C824 C828 1.395 . S
C824 C831 1.492 . S
C825 C824 1.393 . S
C825 C826 1.392 1_455 S
C825 H836 0.930 . S
C826 C825 1.392 1_655 S
C826 C827 1.386 . S
C827 C826 1.386 . S
C827 C829 1.395 . S
C827 H837 0.930 . S
C828 C824 1.395 . S
C828 C829 1.379 1_455 S
C828 H838 0.930 . S
C829 C827 1.395 . S
C829 C828 1.379 1_655 S
C829 H839 0.930 . S
C830 O808 1.264 . S
C830 O809 1.254 . S
C831 Eu767 2.848 . S
C831 O806 1.257 . S
C831 O811 1.249 . S
C831 C824 1.492 . S
H832 C815 0.930 . S
H833 C816 0.930 . S
H834 C817 0.930 . S
H835 C818 0.930 . S
H836 C825 0.930 . S
H837 C827 0.930 . S
H838 C828 0.930 . S
H839 C829 0.930 . S
Eu840 N871 2.657 . S
Eu840 N878 2.609 . S
Eu840 O884 2.558 . S
Eu840 O885 2.612 . S
Eu840 O887 2.339 . S
Eu840 O888 2.563 . S
Eu840 O889 2.419 . S
Eu840 O891 2.380 . S
Eu840 O892 2.432 . S
Eu840 C904 2.848 . S
C841 C844 1.429 . S
C841 C845 1.411 . S
C841 N848 1.377 . S
C842 C844 1.420 . S
C842 C846 1.423 . S
C842 C854 1.392 . S
C843 C845 1.420 . S
C843 C846 1.351 . S
C843 H866 0.931 . S
C844 C841 1.429 . S
C844 C842 1.420 . S
C844 N852 1.362 . S
C845 C841 1.411 . S
C845 C843 1.420 . S
C845 C850 1.395 . S
C846 C842 1.423 . S
C846 C843 1.351 . S
C846 H858 0.930 1_455 S
C847 C849 1.400 . S
C847 C850 1.386 . S
C847 H859 0.930 . S
N848 C841 1.377 . S
N848 C849 1.321 . S
N848 Eu851 2.609 . S
C849 C847 1.400 . S
C849 N848 1.321 . S
C849 H856 0.930 . S
C850 C845 1.395 . S
C850 C847 1.386 . S
C850 H869 0.930 . S
Eu851 N848 2.609 . S
Eu851 N852 2.657 . S
Eu851 O885 2.380 . S
Eu851 O886 2.432 . S
Eu851 O890 2.558 . S
Eu851 O891 2.612 . S
Eu851 O893 2.339 . S
Eu851 O894 2.563 . S
Eu851 O895 2.419 . S
Eu851 C915 2.848 . S
N852 C844 1.362 . S
N852 Eu851 2.657 . S
N852 C853 1.334 . S
C853 N852 1.334 . S
C853 C855 1.413 . S
C853 H860 0.929 . S
C854 C842 1.392 . S
C854 C855 1.367 . S
C854 H862 0.930 . S
C855 C853 1.413 . S
C855 C854 1.367 . S
C855 H857 0.930 . S
H856 C849 0.930 . S
H857 C855 0.930 . S
H858 C846 0.930 1_655 S
H859 C847 0.930 . S
H860 C853 0.929 . S
H861 C875 0.930 . S
H862 C854 0.930 . S
H863 C881 0.930 . S
H864 C872 0.929 . S
H865 C879 0.930 . S
H866 C843 0.931 . S
H867 C873 0.930 . S
H868 C906 0.930 . S
H869 C850 0.930 . S
H870 C905 0.931 . S
N871 Eu840 2.657 . S
N871 C872 1.334 . S
N871 C876 1.362 . S
C872 H864 0.929 . S
C872 N871 1.334 . S
C872 C875 1.413 . S
C873 H867 0.930 . S
C873 C874 1.392 . S
C873 C875 1.367 . S
C874 C873 1.392 . S
C874 C876 1.420 . S
C874 C906 1.423 . S
C875 H861 0.930 . S
C875 C872 1.413 . S
C875 C873 1.367 . S
C876 N871 1.362 . S
C876 C874 1.420 . S
C876 C880 1.429 . S
H877 C882 0.930 . S
N878 Eu840 2.609 . S
N878 C880 1.377 . S
N878 C881 1.321 . S
C879 H865 0.930 . S
C879 C881 1.400 . S
C879 C882 1.386 . S
C880 C876 1.429 . S
C880 N878 1.377 . S
C880 C883 1.411 . S
C881 H863 0.930 . S
C881 N878 1.321 . S
C881 C879 1.400 . S
C882 H877 0.930 . S
C882 C879 1.386 . S
C882 C883 1.395 . S
C883 C880 1.411 . S
C883 C882 1.395 . S
C883 C905 1.420 . S
O884 Eu840 2.558 . S
O884 C904 1.257 . S
O885 Eu840 2.612 . S
O885 Eu851 2.380 . S
O885 C896 1.276 . S
O886 Eu851 2.432 . S
O886 C903 1.264 . S
O887 Eu840 2.339 . S
O887 C903 1.254 . S
O888 Eu840 2.563 . S
O888 C896 1.235 . S
O889 Eu840 2.419 . S
O889 C904 1.249 . S
O890 Eu851 2.558 . S
O890 C915 1.257 . S
O891 Eu840 2.380 . S
O891 Eu851 2.612 . S
O891 C907 1.276 . S
O892 Eu840 2.432 . S
O892 C914 1.264 . S
O893 Eu851 2.339 . S
O893 C914 1.254 . S
O894 Eu851 2.563 . S
O894 C907 1.235 . S
O895 Eu851 2.419 . S
O895 C915 1.249 . S
C896 O885 1.276 . S
C896 O888 1.235 . S
C897 C899 1.393 . S
C897 C901 1.395 . S
C897 C904 1.492 . S
C898 C899 1.392 1_545 S
C898 C900 1.386 . S
C899 C897 1.393 . S
C899 C898 1.392 1_565 S
C899 H916 0.930 . S
C900 C898 1.386 . S
C900 C902 1.395 . S
C900 H917 0.930 . S
C901 C897 1.395 . S
C901 C902 1.379 1_565 S
C901 H918 0.930 . S
C902 C900 1.395 . S
C902 C901 1.379 1_545 S
C902 H919 0.930 . S
C903 O886 1.264 . S
C903 O887 1.254 . S
C904 Eu840 2.848 . S
C904 O884 1.257 . S
C904 O889 1.249 . S
C904 C897 1.492 . S
C905 H870 0.931 . S
C905 C883 1.420 . S
C905 C906 1.351 . S
C906 H868 0.930 . S
C906 C874 1.423 . S
C906 C905 1.351 . S
C907 O891 1.276 . S
C907 O894 1.235 . S
C908 C909 1.393 . S
C908 C912 1.395 . S
C908 C915 1.492 . S
C909 C908 1.393 . S
C909 C910 1.392 . S
C909 H920 0.930 . S
C910 C909 1.392 . S
C910 C911 1.386 . S
C911 C910 1.386 . S
C911 C913 1.395 . S
C911 H921 0.930 . S
C912 C908 1.395 . S
C912 C913 1.379 . S
C912 H922 0.930 . S
C913 C911 1.395 . S
C913 C912 1.379 . S
C913 H923 0.930 . S
C914 O892 1.264 . S
C914 O893 1.254 . S
C915 Eu851 2.848 . S
C915 O890 1.257 . S
C915 O895 1.249 . S
C915 C908 1.492 . S
H916 C899 0.930 . S
H917 C900 0.930 . S
H918 C901 0.930 . S
H919 C902 0.930 . S
H920 C909 0.930 . S
H921 C911 0.930 . S
H922 C912 0.930 . S
H923 C913 0.930 . S
Eu924 N955 2.657 . S
Eu924 N962 2.609 . S
Eu924 O968 2.558 . S
Eu924 O969 2.612 . S
Eu924 O971 2.339 . S
Eu924 O972 2.563 . S
Eu924 O973 2.419 . S
Eu924 O975 2.380 . S
Eu924 O976 2.432 . S
Eu924 C988 2.848 . S
C925 C928 1.429 . S
C925 C929 1.411 . S
C925 N932 1.377 . S
C926 C928 1.420 . S
C926 C930 1.423 . S
C926 C938 1.392 . S
C927 C929 1.420 . S
C927 C930 1.351 . S
C927 H950 0.931 . S
C928 C925 1.429 . S
C928 C926 1.420 . S
C928 N936 1.362 . S
C929 C925 1.411 . S
C929 C927 1.420 . S
C929 C934 1.395 . S
C930 C926 1.423 . S
C930 C927 1.351 . S
C930 H942 0.930 . S
C931 C933 1.400 . S
C931 C934 1.386 . S
C931 H943 0.930 . S
N932 C925 1.377 . S
N932 C933 1.321 . S
N932 Eu935 2.609 . S
C933 C931 1.400 . S
C933 N932 1.321 . S
C933 H940 0.930 . S
C934 C929 1.395 . S
C934 C931 1.386 . S
C934 H953 0.930 . S
Eu935 N932 2.609 . S
Eu935 N936 2.657 . S
Eu935 O969 2.380 . S
Eu935 O970 2.432 . S
Eu935 O974 2.558 . S
Eu935 O975 2.612 . S
Eu935 O977 2.339 . S
Eu935 O978 2.563 . S
Eu935 O979 2.419 . S
Eu935 C999 2.848 . S
N936 C928 1.362 . S
N936 Eu935 2.657 . S
N936 C937 1.334 . S
C937 N936 1.334 . S
C937 C939 1.413 . S
C937 H944 0.929 . S
C938 C926 1.392 . S
C938 C939 1.367 . S
C938 H946 0.930 . S
C939 C937 1.413 . S
C939 C938 1.367 . S
C939 H941 0.930 . S
H940 C933 0.930 . S
H941 C939 0.930 . S
H942 C930 0.930 . S
H943 C931 0.930 . S
H944 C937 0.929 . S
H945 C959 0.930 . S
H946 C938 0.930 . S
H947 C965 0.930 . S
H948 C956 0.929 . S
H949 C963 0.930 . S
H950 C927 0.931 . S
H951 C957 0.930 . S
H952 C990 0.930 1_545 S
H953 C934 0.930 . S
H954 C989 0.931 . S
N955 Eu924 2.657 . S
N955 C956 1.334 . S
N955 C960 1.362 . S
C956 H948 0.929 . S
C956 N955 1.334 . S
C956 C959 1.413 . S
C957 H951 0.930 . S
C957 C958 1.392 . S
C957 C959 1.367 . S
C958 C957 1.392 . S
C958 C960 1.420 . S
C958 C990 1.423 . S
C959 H945 0.930 . S
C959 C956 1.413 . S
C959 C957 1.367 . S
C960 N955 1.362 . S
C960 C958 1.420 . S
C960 C964 1.429 . S
H961 C966 0.930 . S
N962 Eu924 2.609 . S
N962 C964 1.377 . S
N962 C965 1.321 . S
C963 H949 0.930 . S
C963 C965 1.400 . S
C963 C966 1.386 . S
C964 C960 1.429 . S
C964 N962 1.377 . S
C964 C967 1.411 . S
C965 H947 0.930 . S
C965 N962 1.321 . S
C965 C963 1.400 . S
C966 H961 0.930 . S
C966 C963 1.386 . S
C966 C967 1.395 . S
C967 C964 1.411 . S
C967 C966 1.395 . S
C967 C989 1.420 . S
O968 Eu924 2.558 . S
O968 C988 1.257 . S
O969 Eu924 2.612 . S
O969 Eu935 2.380 . S
O969 C980 1.276 . S
O970 Eu935 2.432 . S
O970 C987 1.264 . S
O971 Eu924 2.339 . S
O971 C987 1.254 . S
O972 Eu924 2.563 . S
O972 C980 1.235 . S
O973 Eu924 2.419 . S
O973 C988 1.249 . S
O974 Eu935 2.558 . S
O974 C999 1.257 . S
O975 Eu924 2.380 . S
O975 Eu935 2.612 . S
O975 C991 1.276 . S
O976 Eu924 2.432 . S
O976 C998 1.264 . S
O977 Eu935 2.339 . S
O977 C998 1.254 . S
O978 Eu935 2.563 . S
O978 C991 1.235 . S
O979 Eu935 2.419 . S
O979 C999 1.249 . S
C980 O969 1.276 . S
C980 O972 1.235 . S
C981 C983 1.393 . S
C981 C985 1.395 . S
C981 C988 1.492 . S
C982 C983 1.392 . S
C982 C984 1.386 . S
C983 C981 1.393 . S
C983 C982 1.392 . S
C983 H1000 0.930 . S
C984 C982 1.386 . S
C984 C986 1.395 . S
C984 H1001 0.930 . S
C985 C981 1.395 . S
C985 C986 1.379 . S
C985 H1002 0.930 . S
C986 C984 1.395 . S
C986 C985 1.379 . S
C986 H1003 0.930 . S
C987 O970 1.264 . S
C987 O971 1.254 . S
C988 Eu924 2.848 . S
C988 O968 1.257 . S
C988 O973 1.249 . S
C988 C981 1.492 . S
C989 H954 0.931 . S
C989 C967 1.420 . S
C989 C990 1.351 . S
C990 H952 0.930 1_565 S
C990 C958 1.423 . S
C990 C989 1.351 . S
C991 O975 1.276 . S
C991 O978 1.235 . S
C992 C993 1.393 . S
C992 C996 1.395 . S
C992 C999 1.492 . S
C993 C992 1.393 . S
C993 C994 1.392 . S
C993 H1004 0.930 . S
C994 C993 1.392 . S
C994 C995 1.386 . S
C995 C994 1.386 . S
C995 C997 1.395 . S
C995 H1005 0.930 . S
C996 C992 1.395 . S
C996 C997 1.379 . S
C996 H1006 0.930 . S
C997 C995 1.395 . S
C997 C996 1.379 . S
C997 H1007 0.930 . S
C998 O976 1.264 . S
C998 O977 1.254 . S
C999 Eu935 2.848 . S
C999 O974 1.257 . S
C999 O979 1.249 . S
C999 C992 1.492 . S
H1000 C983 0.930 . S
H1001 C984 0.930 . S
H1002 C985 0.930 . S
H1003 C986 0.930 . S
H1004 C993 0.930 . S
H1005 C995 0.930 . S
H1006 C996 0.930 . S
H1007 C997 0.930 . S
C1008 C1009 1.349 . S
C1008 C1010 1.327 . S
C1008 H1033 0.950 . S
C1009 C1008 1.349 . S
C1009 C1025 1.349 . S
C1010 C1008 1.327 . S
C1010 C1029 1.429 . S
C1010 H1034 0.950 . S
C1011 C1028 1.574 . S
C1011 C1030 1.368 . S
C1011 H1035 0.949 . S
H1012 C1016 0.949 . S
C1013 C1014 1.349 . S
C1013 C1015 1.327 . S
C1013 H1036 0.950 . S
C1014 C1013 1.349 . S
C1014 C1026 1.349 . S
C1015 C1013 1.327 . S
C1015 C1031 1.429 . S
C1015 H1037 0.950 . S
C1016 H1012 0.949 . S
C1016 C1024 1.574 . S
C1016 C1032 1.368 . S
H1017 C1025 0.950 . S
H1018 C1023 0.950 . S
H1019 C1024 0.949 . S
H1020 C1026 0.950 . S
H1021 C1027 0.950 . S
H1022 C1028 0.949 . S
C1023 H1018 0.950 . S
C1023 C1025 1.327 . S
C1023 C1029 1.429 . S
C1024 C1016 1.574 . S
C1024 H1019 0.949 . S
C1024 C1030 1.368 . S
C1025 C1009 1.349 . S
C1025 H1017 0.950 . S
C1025 C1023 1.327 . S
C1026 C1014 1.349 . S
C1026 H1020 0.950 . S
C1026 C1027 1.327 . S
C1027 H1021 0.950 . S
C1027 C1026 1.327 . S
C1027 C1031 1.429 . S
C1028 C1011 1.574 . S
C1028 H1022 0.949 . S
C1028 C1032 1.368 . S
C1029 C1010 1.429 . S
C1029 C1023 1.429 . S
C1029 C1030 1.523 . S
C1030 C1011 1.368 . S
C1030 C1024 1.368 . S
C1030 C1029 1.523 . S
C1031 C1015 1.429 . S
C1031 C1027 1.429 . S
C1031 C1032 1.523 . S
C1032 C1016 1.368 . S
C1032 C1028 1.368 . S
C1032 C1031 1.523 . S
H1033 C1008 0.950 . S
H1034 C1010 0.950 . S
H1035 C1011 0.949 . S
H1036 C1013 0.950 . S
H1037 C1015 0.950 . S
C1038 C1039 1.349 . S
C1038 C1040 1.327 . S
C1038 H1063 0.950 . S
C1039 C1038 1.349 . S
C1039 C1055 1.349 . S
C1040 C1038 1.327 . S
C1040 C1059 1.429 . S
C1040 H1064 0.950 . S
C1041 C1058 1.574 . S
C1041 C1060 1.368 . S
C1041 H1065 0.949 . S
H1042 C1046 0.949 . S
C1043 C1044 1.349 . S
C1043 C1045 1.327 . S
C1043 H1066 0.950 . S
C1044 C1043 1.349 . S
C1044 C1056 1.349 . S
C1045 C1043 1.327 . S
C1045 C1061 1.429 . S
C1045 H1067 0.950 . S
C1046 H1042 0.949 . S
C1046 C1054 1.574 1_655 S
C1046 C1062 1.368 . S
H1047 C1055 0.950 . S
H1048 C1053 0.950 . S
H1049 C1054 0.949 . S
H1050 C1056 0.950 . S
H1051 C1057 0.950 . S
H1052 C1058 0.949 . S
C1053 H1048 0.950 . S
C1053 C1055 1.327 . S
C1053 C1059 1.429 . S
C1054 C1046 1.574 1_455 S
C1054 H1049 0.949 . S
C1054 C1060 1.368 . S
C1055 C1039 1.349 . S
C1055 H1047 0.950 . S
C1055 C1053 1.327 . S
C1056 C1044 1.349 . S
C1056 H1050 0.950 . S
C1056 C1057 1.327 . S
C1057 H1051 0.950 . S
C1057 C1056 1.327 . S
C1057 C1061 1.429 . S
C1058 C1041 1.574 . S
C1058 H1052 0.949 . S
C1058 C1062 1.368 1_455 S
C1059 C1040 1.429 . S
C1059 C1053 1.429 . S
C1059 C1060 1.523 . S
C1060 C1041 1.368 . S
C1060 C1054 1.368 . S
C1060 C1059 1.523 . S
C1061 C1045 1.429 . S
C1061 C1057 1.429 . S
C1061 C1062 1.523 . S
C1062 C1046 1.368 . S
C1062 C1058 1.368 1_655 S
C1062 C1061 1.523 . S
H1063 C1038 0.950 . S
H1064 C1040 0.950 . S
H1065 C1041 0.949 . S
H1066 C1043 0.950 . S
H1067 C1045 0.950 . S
C1068 C1069 1.349 . S
C1068 C1070 1.327 . S
C1068 H1093 0.950 . S
C1069 C1068 1.349 . S
C1069 C1085 1.349 . S
C1070 C1068 1.327 . S
C1070 C1089 1.429 . S
C1070 H1094 0.950 . S
C1071 C1088 1.574 . S
C1071 C1090 1.368 1_565 S
C1071 H1095 0.949 . S
H1072 C1076 0.949 . S
C1073 C1074 1.349 . S
C1073 C1075 1.327 . S
C1073 H1096 0.950 . S
C1074 C1073 1.349 . S
C1074 C1086 1.349 . S
C1075 C1073 1.327 . S
C1075 C1091 1.429 . S
C1075 H1097 0.950 . S
C1076 H1072 0.949 . S
C1076 C1084 1.574 1_565 S
C1076 C1092 1.368 . S
H1077 C1085 0.950 . S
H1078 C1083 0.950 . S
H1079 C1084 0.949 . S
H1080 C1086 0.950 . S
H1081 C1087 0.950 . S
H1082 C1088 0.949 . S
C1083 H1078 0.950 . S
C1083 C1085 1.327 . S
C1083 C1089 1.429 . S
C1084 C1076 1.574 1_545 S
C1084 H1079 0.949 . S
C1084 C1090 1.368 . S
C1085 C1069 1.349 . S
C1085 H1077 0.950 . S
C1085 C1083 1.327 . S
C1086 C1074 1.349 . S
C1086 H1080 0.950 . S
C1086 C1087 1.327 . S
C1087 H1081 0.950 . S
C1087 C1086 1.327 . S
C1087 C1091 1.429 . S
C1088 C1071 1.574 . S
C1088 H1082 0.949 . S
C1088 C1092 1.368 . S
C1089 C1070 1.429 . S
C1089 C1083 1.429 . S
C1089 C1090 1.523 . S
C1090 C1071 1.368 1_545 S
C1090 C1084 1.368 . S
C1090 C1089 1.523 . S
C1091 C1075 1.429 . S
C1091 C1087 1.429 . S
C1091 C1092 1.523 . S
C1092 C1076 1.368 . S
C1092 C1088 1.368 . S
C1092 C1091 1.523 . S
H1093 C1068 0.950 . S
H1094 C1070 0.950 . S
H1095 C1071 0.949 . S
H1096 C1073 0.950 . S
H1097 C1075 0.950 . S
C1098 C1099 1.349 . S
C1098 C1100 1.327 . S
C1098 H1123 0.950 . S
C1099 C1098 1.349 . S
C1099 C1115 1.349 . S
C1100 C1098 1.327 . S
C1100 C1119 1.429 . S
C1100 H1124 0.950 . S
C1101 C1118 1.574 . S
C1101 C1120 1.368 . S
C1101 H1125 0.949 . S
H1102 C1106 0.949 . S
C1103 C1104 1.349 . S
C1103 C1105 1.327 . S
C1103 H1126 0.950 . S
C1104 C1103 1.349 . S
C1104 C1116 1.349 . S
C1105 C1103 1.327 . S
C1105 C1121 1.429 . S
C1105 H1127 0.950 . S
C1106 H1102 0.949 . S
C1106 C1114 1.574 . S
C1106 C1122 1.368 . S
H1107 C1115 0.950 . S
H1108 C1113 0.950 . S
H1109 C1114 0.949 . S
H1110 C1116 0.950 . S
H1111 C1117 0.950 . S
H1112 C1118 0.949 . S
C1113 H1108 0.950 . S
C1113 C1115 1.327 . S
C1113 C1119 1.429 . S
C1114 C1106 1.574 . S
C1114 H1109 0.949 . S
C1114 C1120 1.368 . S
C1115 C1099 1.349 . S
C1115 H1107 0.950 . S
C1115 C1113 1.327 . S
C1116 C1104 1.349 . S
C1116 H1110 0.950 . S
C1116 C1117 1.327 . S
C1117 H1111 0.950 . S
C1117 C1116 1.327 . S
C1117 C1121 1.429 . S
C1118 C1101 1.574 . S
C1118 H1112 0.949 . S
C1118 C1122 1.368 . S
C1119 C1100 1.429 . S
C1119 C1113 1.429 . S
C1119 C1120 1.523 . S
C1120 C1101 1.368 . S
C1120 C1114 1.368 . S
C1120 C1119 1.523 . S
C1121 C1105 1.429 . S
C1121 C1117 1.429 . S
C1121 C1122 1.523 . S
C1122 C1106 1.368 . S
C1122 C1118 1.368 . S
C1122 C1121 1.523 . S
H1123 C1098 0.950 . S
H1124 C1100 0.950 . S
H1125 C1101 0.949 . S
H1126 C1103 0.950 . S
H1127 C1105 0.950 . S
C1128 C1129 1.349 . S
C1128 C1130 1.327 . S
C1128 H1153 0.950 . S
C1129 C1128 1.349 . S
C1129 C1145 1.349 . S
C1130 C1128 1.327 . S
C1130 C1149 1.429 . S
C1130 H1154 0.950 . S
C1131 C1148 1.574 1_455 S
C1131 C1150 1.368 . S
C1131 H1155 0.949 . S
H1132 C1136 0.949 . S
C1133 C1134 1.349 . S
C1133 C1135 1.327 . S
C1133 H1156 0.950 . S
C1134 C1133 1.349 . S
C1134 C1146 1.349 . S
C1135 C1133 1.327 . S
C1135 C1151 1.429 . S
C1135 H1157 0.950 . S
C1136 H1132 0.949 . S
C1136 C1144 1.574 . S
C1136 C1152 1.368 1_455 S
H1137 C1145 0.950 . S
H1138 C1143 0.950 . S
H1139 C1144 0.949 . S
H1140 C1146 0.950 . S
H1141 C1147 0.950 . S
H1142 C1148 0.949 . S
C1143 H1138 0.950 . S
C1143 C1145 1.327 . S
C1143 C1149 1.429 . S
C1144 C1136 1.574 . S
C1144 H1139 0.949 . S
C1144 C1150 1.368 . S
C1145 C1129 1.349 . S
C1145 H1137 0.950 . S
C1145 C1143 1.327 . S
C1146 C1134 1.349 . S
C1146 H1140 0.950 . S
C1146 C1147 1.327 . S
C1147 H1141 0.950 . S
C1147 C1146 1.327 . S
C1147 C1151 1.429 . S
C1148 C1131 1.574 1_655 S
C1148 H1142 0.949 . S
C1148 C1152 1.368 . S
C1149 C1130 1.429 . S
C1149 C1143 1.429 . S
C1149 C1150 1.523 . S
C1150 C1131 1.368 . S
C1150 C1144 1.368 . S
C1150 C1149 1.523 . S
C1151 C1135 1.429 . S
C1151 C1147 1.429 . S
C1151 C1152 1.523 . S
C1152 C1136 1.368 1_655 S
C1152 C1148 1.368 . S
C1152 C1151 1.523 . S
H1153 C1128 0.950 . S
H1154 C1130 0.950 . S
H1155 C1131 0.949 . S
H1156 C1133 0.950 . S
H1157 C1135 0.950 . S
C1158 C1159 1.349 . S
C1158 C1160 1.327 . S
C1158 H1183 0.950 . S
C1159 C1158 1.349 . S
C1159 C1175 1.349 . S
C1160 C1158 1.327 . S
C1160 C1179 1.429 . S
C1160 H1184 0.950 . S
C1161 C1178 1.574 1_565 S
C1161 C1180 1.368 . S
C1161 H1185 0.949 . S
H1162 C1166 0.949 . S
C1163 C1164 1.349 . S
C1163 C1165 1.327 . S
C1163 H1186 0.950 . S
C1164 C1163 1.349 . S
C1164 C1176 1.349 . S
C1165 C1163 1.327 . S
C1165 C1181 1.429 . S
C1165 H1187 0.950 . S
C1166 H1162 0.949 . S
C1166 C1174 1.574 . S
C1166 C1182 1.368 1_565 S
H1167 C1175 0.950 . S
H1168 C1173 0.950 . S
H1169 C1174 0.949 . S
H1170 C1176 0.950 . S
H1171 C1177 0.950 . S
H1172 C1178 0.949 . S
C1173 H1168 0.950 . S
C1173 C1175 1.327 . S
C1173 C1179 1.429 . S
C1174 C1166 1.574 . S
C1174 H1169 0.949 . S
C1174 C1180 1.368 . S
C1175 C1159 1.349 . S
C1175 H1167 0.950 . S
C1175 C1173 1.327 . S
C1176 C1164 1.349 . S
C1176 H1170 0.950 . S
C1176 C1177 1.327 . S
C1177 H1171 0.950 . S
C1177 C1176 1.327 . S
C1177 C1181 1.429 . S
C1178 C1161 1.574 1_545 S
C1178 H1172 0.949 . S
C1178 C1182 1.368 . S
C1179 C1160 1.429 . S
C1179 C1173 1.429 . S
C1179 C1180 1.523 . S
C1180 C1161 1.368 . S
C1180 C1174 1.368 . S
C1180 C1179 1.523 . S
C1181 C1165 1.429 . S
C1181 C1177 1.429 . S
C1181 C1182 1.523 . S
C1182 C1166 1.368 1_545 S
C1182 C1178 1.368 . S
C1182 C1181 1.523 . S
H1183 C1158 0.950 . S
H1184 C1160 0.950 . S
H1185 C1161 0.949 . S
H1186 C1163 0.950 . S
H1187 C1165 0.950 . S
C1188 C1189 1.349 . S
C1188 C1190 1.327 . S
C1188 H1213 0.950 . S
C1189 C1188 1.349 . S
C1189 C1205 1.349 . S
C1190 C1188 1.327 . S
C1190 C1209 1.429 . S
C1190 H1214 0.950 . S
C1191 C1208 1.574 . S
C1191 C1210 1.368 . S
C1191 H1215 0.949 . S
H1192 C1196 0.949 . S
C1193 C1194 1.349 . S
C1193 C1195 1.327 . S
C1193 H1216 0.950 . S
C1194 C1193 1.349 . S
C1194 C1206 1.349 . S
C1195 C1193 1.327 . S
C1195 C1211 1.429 . S
C1195 H1217 0.950 . S
C1196 H1192 0.949 . S
C1196 C1204 1.574 . S
C1196 C1212 1.368 . S
H1197 C1205 0.950 . S
H1198 C1203 0.950 . S
H1199 C1204 0.949 . S
H1200 C1206 0.950 . S
H1201 C1207 0.950 . S
H1202 C1208 0.949 . S
C1203 H1198 0.950 . S
C1203 C1205 1.327 . S
C1203 C1209 1.429 . S
C1204 C1196 1.574 . S
C1204 H1199 0.949 . S
C1204 C1210 1.368 . S
C1205 C1189 1.349 . S
C1205 H1197 0.950 . S
C1205 C1203 1.327 . S
C1206 C1194 1.349 . S
C1206 H1200 0.950 . S
C1206 C1207 1.327 . S
C1207 H1201 0.950 . S
C1207 C1206 1.327 . S
C1207 C1211 1.429 . S
C1208 C1191 1.574 . S
C1208 H1202 0.949 . S
C1208 C1212 1.368 . S
C1209 C1190 1.429 . S
C1209 C1203 1.429 . S
C1209 C1210 1.523 . S
C1210 C1191 1.368 . S
C1210 C1204 1.368 . S
C1210 C1209 1.523 . S
C1211 C1195 1.429 . S
C1211 C1207 1.429 . S
C1211 C1212 1.523 . S
C1212 C1196 1.368 . S
C1212 C1208 1.368 . S
C1212 C1211 1.523 . S
H1213 C1188 0.950 . S
H1214 C1190 0.950 . S
H1215 C1191 0.949 . S
H1216 C1193 0.950 . S
H1217 C1195 0.950 . S
C1218 C1219 1.349 . S
C1218 C1220 1.327 . S
C1218 H1243 0.950 . S
C1219 C1218 1.349 . S
C1219 C1235 1.349 . S
C1220 C1218 1.327 . S
C1220 C1239 1.429 . S
C1220 H1244 0.950 . S
C1221 C1238 1.574 . S
C1221 C1240 1.368 1_655 S
C1221 H1245 0.949 . S
H1222 C1226 0.949 . S
C1223 C1224 1.349 . S
C1223 C1225 1.327 . S
C1223 H1246 0.950 . S
C1224 C1223 1.349 . S
C1224 C1236 1.349 . S
C1225 C1223 1.327 . S
C1225 C1241 1.429 . S
C1225 H1247 0.950 . S
C1226 H1222 0.949 . S
C1226 C1234 1.574 1_655 S
C1226 C1242 1.368 . S
H1227 C1235 0.950 . S
H1228 C1233 0.950 . S
H1229 C1234 0.949 . S
H1230 C1236 0.950 . S
H1231 C1237 0.950 . S
H1232 C1238 0.949 . S
C1233 H1228 0.950 . S
C1233 C1235 1.327 . S
C1233 C1239 1.429 . S
C1234 C1226 1.574 1_455 S
C1234 H1229 0.949 . S
C1234 C1240 1.368 . S
C1235 C1219 1.349 . S
C1235 H1227 0.950 . S
C1235 C1233 1.327 . S
C1236 C1224 1.349 . S
C1236 H1230 0.950 . S
C1236 C1237 1.327 . S
C1237 H1231 0.950 . S
C1237 C1236 1.327 . S
C1237 C1241 1.429 . S
C1238 C1221 1.574 . S
C1238 H1232 0.949 . S
C1238 C1242 1.368 . S
C1239 C1220 1.429 . S
C1239 C1233 1.429 . S
C1239 C1240 1.523 . S
C1240 C1221 1.368 1_455 S
C1240 C1234 1.368 . S
C1240 C1239 1.523 . S
C1241 C1225 1.429 . S
C1241 C1237 1.429 . S
C1241 C1242 1.523 . S
C1242 C1226 1.368 . S
C1242 C1238 1.368 . S
C1242 C1241 1.523 . S
H1243 C1218 0.950 . S
H1244 C1220 0.950 . S
H1245 C1221 0.949 . S
H1246 C1223 0.950 . S
H1247 C1225 0.950 . S
C1248 C1249 1.349 . S
C1248 C1250 1.327 . S
C1248 H1273 0.950 . S
C1249 C1248 1.349 . S
C1249 C1265 1.349 . S
C1250 C1248 1.327 . S
C1250 C1269 1.429 . S
C1250 H1274 0.950 . S
C1251 C1268 1.574 1_565 S
C1251 C1270 1.368 . S
C1251 H1275 0.949 . S
H1252 C1256 0.949 . S
C1253 C1254 1.349 . S
C1253 C1255 1.327 . S
C1253 H1276 0.950 . S
C1254 C1253 1.349 . S
C1254 C1266 1.349 . S
C1255 C1253 1.327 . S
C1255 C1271 1.429 . S
C1255 H1277 0.950 . S
C1256 H1252 0.949 . S
C1256 C1264 1.574 . S
C1256 C1272 1.368 . S
H1257 C1265 0.950 . S
H1258 C1263 0.950 . S
H1259 C1264 0.949 . S
H1260 C1266 0.950 . S
H1261 C1267 0.950 . S
H1262 C1268 0.949 . S
C1263 H1258 0.950 . S
C1263 C1265 1.327 . S
C1263 C1269 1.429 . S
C1264 C1256 1.574 . S
C1264 H1259 0.949 . S
C1264 C1270 1.368 1_545 S
C1265 C1249 1.349 . S
C1265 H1257 0.950 . S
C1265 C1263 1.327 . S
C1266 C1254 1.349 . S
C1266 H1260 0.950 . S
C1266 C1267 1.327 . S
C1267 H1261 0.950 . S
C1267 C1266 1.327 . S
C1267 C1271 1.429 . S
C1268 C1251 1.574 1_545 S
C1268 H1262 0.949 . S
C1268 C1272 1.368 . S
C1269 C1250 1.429 . S
C1269 C1263 1.429 . S
C1269 C1270 1.523 . S
C1270 C1251 1.368 . S
C1270 C1264 1.368 1_565 S
C1270 C1269 1.523 . S
C1271 C1255 1.429 . S
C1271 C1267 1.429 . S
C1271 C1272 1.523 . S
C1272 C1256 1.368 . S
C1272 C1268 1.368 . S
C1272 C1271 1.523 . S
H1273 C1248 0.950 . S
H1274 C1250 0.950 . S
H1275 C1251 0.949 . S
H1276 C1253 0.950 . S
H1277 C1255 0.950 . S
C1278 C1279 1.349 . S
C1278 C1280 1.327 . S
C1278 H1303 0.950 . S
C1279 C1278 1.349 . S
C1279 C1295 1.349 . S
C1280 C1278 1.327 . S
C1280 C1299 1.429 . S
C1280 H1304 0.950 . S
C1281 C1298 1.574 . S
C1281 C1300 1.368 . S
C1281 H1305 0.949 . S
H1282 C1286 0.949 . S
C1283 C1284 1.349 . S
C1283 C1285 1.327 . S
C1283 H1306 0.950 . S
C1284 C1283 1.349 . S
C1284 C1296 1.349 . S
C1285 C1283 1.327 . S
C1285 C1301 1.429 . S
C1285 H1307 0.950 . S
C1286 H1282 0.949 . S
C1286 C1294 1.574 . S
C1286 C1302 1.368 . S
H1287 C1295 0.950 . S
H1288 C1293 0.950 . S
H1289 C1294 0.949 . S
H1290 C1296 0.950 . S
H1291 C1297 0.950 . S
H1292 C1298 0.949 . S
C1293 H1288 0.950 . S
C1293 C1295 1.327 . S
C1293 C1299 1.429 . S
C1294 C1286 1.574 . S
C1294 H1289 0.949 . S
C1294 C1300 1.368 . S
C1295 C1279 1.349 . S
C1295 H1287 0.950 . S
C1295 C1293 1.327 . S
C1296 C1284 1.349 . S
C1296 H1290 0.950 . S
C1296 C1297 1.327 . S
C1297 H1291 0.950 . S
C1297 C1296 1.327 . S
C1297 C1301 1.429 . S
C1298 C1281 1.574 . S
C1298 H1292 0.949 . S
C1298 C1302 1.368 . S
C1299 C1280 1.429 . S
C1299 C1293 1.429 . S
C1299 C1300 1.523 . S
C1300 C1281 1.368 . S
C1300 C1294 1.368 . S
C1300 C1299 1.523 . S
C1301 C1285 1.429 . S
C1301 C1297 1.429 . S
C1301 C1302 1.523 . S
C1302 C1286 1.368 . S
C1302 C1298 1.368 . S
C1302 C1301 1.523 . S
H1303 C1278 0.950 . S
H1304 C1280 0.950 . S
H1305 C1281 0.949 . S
H1306 C1283 0.950 . S
H1307 C1285 0.950 . S
C1308 C1309 1.349 . S
C1308 C1310 1.327 . S
C1308 H1333 0.950 . S
C1309 C1308 1.349 . S
C1309 C1325 1.349 . S
C1310 C1308 1.327 . S
C1310 C1329 1.429 . S
C1310 H1334 0.950 . S
C1311 C1328 1.574 1_455 S
C1311 C1330 1.368 . S
C1311 H1335 0.949 . S
H1312 C1316 0.949 . S
C1313 C1314 1.349 . S
C1313 C1315 1.327 . S
C1313 H1336 0.950 . S
C1314 C1313 1.349 . S
C1314 C1326 1.349 . S
C1315 C1313 1.327 . S
C1315 C1331 1.429 . S
C1315 H1337 0.950 . S
C1316 H1312 0.949 . S
C1316 C1324 1.574 . S
C1316 C1332 1.368 . S
H1317 C1325 0.950 . S
H1318 C1323 0.950 . S
H1319 C1324 0.949 . S
H1320 C1326 0.950 . S
H1321 C1327 0.950 . S
H1322 C1328 0.949 . S
C1323 H1318 0.950 . S
C1323 C1325 1.327 . S
C1323 C1329 1.429 . S
C1324 C1316 1.574 . S
C1324 H1319 0.949 . S
C1324 C1330 1.368 1_655 S
C1325 C1309 1.349 . S
C1325 H1317 0.950 . S
C1325 C1323 1.327 . S
C1326 C1314 1.349 . S
C1326 H1320 0.950 . S
C1326 C1327 1.327 . S
C1327 H1321 0.950 . S
C1327 C1326 1.327 . S
C1327 C1331 1.429 . S
C1328 C1311 1.574 1_655 S
C1328 H1322 0.949 . S
C1328 C1332 1.368 . S
C1329 C1310 1.429 . S
C1329 C1323 1.429 . S
C1329 C1330 1.523 . S
C1330 C1311 1.368 . S
C1330 C1324 1.368 1_455 S
C1330 C1329 1.523 . S
C1331 C1315 1.429 . S
C1331 C1327 1.429 . S
C1331 C1332 1.523 . S
C1332 C1316 1.368 . S
C1332 C1328 1.368 . S
C1332 C1331 1.523 . S
H1333 C1308 0.950 . S
H1334 C1310 0.950 . S
H1335 C1311 0.949 . S
H1336 C1313 0.950 . S
H1337 C1315 0.950 . S
C1338 C1339 1.349 . S
C1338 C1340 1.327 . S
C1338 H1363 0.950 . S
C1339 C1338 1.349 . S
C1339 C1355 1.349 . S
C1340 C1338 1.327 . S
C1340 C1359 1.429 . S
C1340 H1364 0.950 . S
C1341 C1358 1.574 . S
C1341 C1360 1.368 . S
C1341 H1365 0.949 . S
H1342 C1346 0.949 . S
C1343 C1344 1.349 . S
C1343 C1345 1.327 . S
C1343 H1366 0.950 . S
C1344 C1343 1.349 . S
C1344 C1356 1.349 . S
C1345 C1343 1.327 . S
C1345 C1361 1.429 . S
C1345 H1367 0.950 . S
C1346 H1342 0.949 . S
C1346 C1354 1.574 1_565 S
C1346 C1362 1.368 . S
H1347 C1355 0.950 . S
H1348 C1353 0.950 . S
H1349 C1354 0.949 . S
H1350 C1356 0.950 . S
H1351 C1357 0.950 . S
H1352 C1358 0.949 . S
C1353 H1348 0.950 . S
C1353 C1355 1.327 . S
C1353 C1359 1.429 . S
C1354 C1346 1.574 1_545 S
C1354 H1349 0.949 . S
C1354 C1360 1.368 . S
C1355 C1339 1.349 . S
C1355 H1347 0.950 . S
C1355 C1353 1.327 . S
C1356 C1344 1.349 . S
C1356 H1350 0.950 . S
C1356 C1357 1.327 . S
C1357 H1351 0.950 . S
C1357 C1356 1.327 . S
C1357 C1361 1.429 . S
C1358 C1341 1.574 . S
C1358 H1352 0.949 . S
C1358 C1362 1.368 1_545 S
C1359 C1340 1.429 . S
C1359 C1353 1.429 . S
C1359 C1360 1.523 . S
C1360 C1341 1.368 . S
C1360 C1354 1.368 . S
C1360 C1359 1.523 . S
C1361 C1345 1.429 . S
C1361 C1357 1.429 . S
C1361 C1362 1.523 . S
C1362 C1346 1.368 . S
C1362 C1358 1.368 1_565 S
C1362 C1361 1.523 . S
H1363 C1338 0.950 . S
H1364 C1340 0.950 . S
H1365 C1341 0.949 . S
H1366 C1343 0.950 . S
H1367 C1345 0.950 . S
C1368 C1369 1.349 . S
C1368 C1370 1.327 . S
C1368 H1393 0.950 . S
C1369 C1368 1.349 . S
C1369 C1385 1.349 . S
C1370 C1368 1.327 . S
C1370 C1389 1.429 . S
C1370 H1394 0.950 . S
C1371 C1388 1.574 . S
C1371 C1390 1.368 . S
C1371 H1395 0.949 . S
H1372 C1376 0.949 . S
C1373 C1374 1.349 . S
C1373 C1375 1.327 . S
C1373 H1396 0.950 . S
C1374 C1373 1.349 . S
C1374 C1386 1.349 . S
C1375 C1373 1.327 . S
C1375 C1391 1.429 . S
C1375 H1397 0.950 . S
C1376 H1372 0.949 . S
C1376 C1384 1.574 . S
C1376 C1392 1.368 . S
H1377 C1385 0.950 . S
H1378 C1383 0.950 . S
H1379 C1384 0.949 . S
H1380 C1386 0.950 . S
H1381 C1387 0.950 . S
H1382 C1388 0.949 . S
C1383 H1378 0.950 . S
C1383 C1385 1.327 . S
C1383 C1389 1.429 . S
C1384 C1376 1.574 . S
C1384 H1379 0.949 . S
C1384 C1390 1.368 . S
C1385 C1369 1.349 . S
C1385 H1377 0.950 . S
C1385 C1383 1.327 . S
C1386 C1374 1.349 . S
C1386 H1380 0.950 . S
C1386 C1387 1.327 . S
C1387 H1381 0.950 . S
C1387 C1386 1.327 . S
C1387 C1391 1.429 . S
C1388 C1371 1.574 . S
C1388 H1382 0.949 . S
C1388 C1392 1.368 . S
C1389 C1370 1.429 . S
C1389 C1383 1.429 . S
C1389 C1390 1.523 . S
C1390 C1371 1.368 . S
C1390 C1384 1.368 . S
C1390 C1389 1.523 . S
C1391 C1375 1.429 . S
C1391 C1387 1.429 . S
C1391 C1392 1.523 . S
C1392 C1376 1.368 . S
C1392 C1388 1.368 . S
C1392 C1391 1.523 . S
H1393 C1368 0.950 . S
H1394 C1370 0.950 . S
H1395 C1371 0.949 . S
H1396 C1373 0.950 . S
H1397 C1375 0.950 . S
C1398 C1399 1.349 . S
C1398 C1400 1.327 . S
C1398 H1423 0.950 . S
C1399 C1398 1.349 . S
C1399 C1415 1.349 . S
C1400 C1398 1.327 . S
C1400 C1419 1.429 . S
C1400 H1424 0.950 . S
C1401 C1418 1.574 . S
C1401 C1420 1.368 . S
C1401 H1425 0.949 . S
H1402 C1406 0.949 . S
C1403 C1404 1.349 . S
C1403 C1405 1.327 . S
C1403 H1426 0.950 . S
C1404 C1403 1.349 . S
C1404 C1416 1.349 . S
C1405 C1403 1.327 . S
C1405 C1421 1.429 . S
C1405 H1427 0.950 . S
C1406 H1402 0.949 . S
C1406 C1414 1.574 . S
C1406 C1422 1.368 . S
H1407 C1415 0.950 . S
H1408 C1413 0.950 . S
H1409 C1414 0.949 . S
H1410 C1416 0.950 . S
H1411 C1417 0.950 . S
H1412 C1418 0.949 . S
C1413 H1408 0.950 . S
C1413 C1415 1.327 . S
C1413 C1419 1.429 . S
C1414 C1406 1.574 . S
C1414 H1409 0.949 . S
C1414 C1420 1.368 . S
C1415 C1399 1.349 . S
C1415 H1407 0.950 . S
C1415 C1413 1.327 . S
C1416 C1404 1.349 . S
C1416 H1410 0.950 . S
C1416 C1417 1.327 . S
C1417 H1411 0.950 . S
C1417 C1416 1.327 . S
C1417 C1421 1.429 . S
C1418 C1401 1.574 . S
C1418 H1412 0.949 . S
C1418 C1422 1.368 . S
C1419 C1400 1.429 . S
C1419 C1413 1.429 . S
C1419 C1420 1.523 . S
C1420 C1401 1.368 . S
C1420 C1414 1.368 . S
C1420 C1419 1.523 . S
C1421 C1405 1.429 . S
C1421 C1417 1.429 . S
C1421 C1422 1.523 . S
C1422 C1406 1.368 . S
C1422 C1418 1.368 . S
C1422 C1421 1.523 . S
H1423 C1398 0.950 . S
H1424 C1400 0.950 . S
H1425 C1401 0.949 . S
H1426 C1403 0.950 . S
H1427 C1405 0.950 . S
C1428 C1429 1.349 . S
C1428 C1430 1.327 . S
C1428 H1453 0.950 . S
C1429 C1428 1.349 . S
C1429 C1445 1.349 . S
C1430 C1428 1.327 . S
C1430 C1449 1.429 . S
C1430 H1454 0.950 . S
C1431 C1448 1.574 . S
C1431 C1450 1.368 . S
C1431 H1455 0.949 . S
H1432 C1436 0.949 . S
C1433 C1434 1.349 . S
C1433 C1435 1.327 . S
C1433 H1456 0.950 . S
C1434 C1433 1.349 . S
C1434 C1446 1.349 . S
C1435 C1433 1.327 . S
C1435 C1451 1.429 . S
C1435 H1457 0.950 . S
C1436 H1432 0.949 . S
C1436 C1444 1.574 . S
C1436 C1452 1.368 . S
H1437 C1445 0.950 . S
H1438 C1443 0.950 . S
H1439 C1444 0.949 . S
H1440 C1446 0.950 . S
H1441 C1447 0.950 . S
H1442 C1448 0.949 . S
C1443 H1438 0.950 . S
C1443 C1445 1.327 . S
C1443 C1449 1.429 . S
C1444 C1436 1.574 . S
C1444 H1439 0.949 . S
C1444 C1450 1.368 . S
C1445 C1429 1.349 . S
C1445 H1437 0.950 . S
C1445 C1443 1.327 . S
C1446 C1434 1.349 . S
C1446 H1440 0.950 . S
C1446 C1447 1.327 . S
C1447 H1441 0.950 . S
C1447 C1446 1.327 . S
C1447 C1451 1.429 . S
C1448 C1431 1.574 . S
C1448 H1442 0.949 . S
C1448 C1452 1.368 . S
C1449 C1430 1.429 . S
C1449 C1443 1.429 . S
C1449 C1450 1.523 . S
C1450 C1431 1.368 . S
C1450 C1444 1.368 . S
C1450 C1449 1.523 . S
C1451 C1435 1.429 . S
C1451 C1447 1.429 . S
C1451 C1452 1.523 . S
C1452 C1436 1.368 . S
C1452 C1448 1.368 . S
C1452 C1451 1.523 . S
H1453 C1428 0.950 . S
H1454 C1430 0.950 . S
H1455 C1431 0.949 . S
H1456 C1433 0.950 . S
H1457 C1435 0.950 . S
C1458 C1459 1.349 . S
C1458 C1460 1.327 . S
C1458 H1483 0.950 . S
C1459 C1458 1.349 . S
C1459 C1475 1.349 . S
C1460 C1458 1.327 . S
C1460 C1479 1.429 . S
C1460 H1484 0.950 . S
C1461 C1478 1.574 . S
C1461 C1480 1.368 . S
C1461 H1485 0.949 . S
H1462 C1466 0.949 . S
C1463 C1464 1.349 . S
C1463 C1465 1.327 . S
C1463 H1486 0.950 . S
C1464 C1463 1.349 . S
C1464 C1476 1.349 . S
C1465 C1463 1.327 . S
C1465 C1481 1.429 . S
C1465 H1487 0.950 . S
C1466 H1462 0.949 . S
C1466 C1474 1.574 . S
C1466 C1482 1.368 . S
H1467 C1475 0.950 . S
H1468 C1473 0.950 . S
H1469 C1474 0.949 . S
H1470 C1476 0.950 . S
H1471 C1477 0.950 . S
H1472 C1478 0.949 . S
C1473 H1468 0.950 . S
C1473 C1475 1.327 . S
C1473 C1479 1.429 . S
C1474 C1466 1.574 . S
C1474 H1469 0.949 . S
C1474 C1480 1.368 . S
C1475 C1459 1.349 . S
C1475 H1467 0.950 . S
C1475 C1473 1.327 . S
C1476 C1464 1.349 . S
C1476 H1470 0.950 . S
C1476 C1477 1.327 . S
C1477 H1471 0.950 . S
C1477 C1476 1.327 . S
C1477 C1481 1.429 . S
C1478 C1461 1.574 . S
C1478 H1472 0.949 . S
C1478 C1482 1.368 . S
C1479 C1460 1.429 . S
C1479 C1473 1.429 . S
C1479 C1480 1.523 . S
C1480 C1461 1.368 . S
C1480 C1474 1.368 . S
C1480 C1479 1.523 . S
C1481 C1465 1.429 . S
C1481 C1477 1.429 . S
C1481 C1482 1.523 . S
C1482 C1466 1.368 . S
C1482 C1478 1.368 . S
C1482 C1481 1.523 . S
H1483 C1458 0.950 . S
H1484 C1460 0.950 . S
H1485 C1461 0.949 . S
H1486 C1463 0.950 . S
H1487 C1465 0.950 . S
C1488 C1489 1.349 . S
C1488 C1490 1.327 . S
C1488 H1513 0.950 . S
C1489 C1488 1.349 . S
C1489 C1505 1.349 . S
C1490 C1488 1.327 . S
C1490 C1509 1.429 . S
C1490 H1514 0.950 . S
C1491 C1508 1.574 . S
C1491 C1510 1.368 . S
C1491 H1515 0.949 . S
H1492 C1496 0.949 . S
C1493 C1494 1.349 . S
C1493 C1495 1.327 . S
C1493 H1516 0.950 . S
C1494 C1493 1.349 . S
C1494 C1506 1.349 . S
C1495 C1493 1.327 . S
C1495 C1511 1.429 . S
C1495 H1517 0.950 . S
C1496 H1492 0.949 . S
C1496 C1504 1.574 . S
C1496 C1512 1.368 . S
H1497 C1505 0.950 . S
H1498 C1503 0.950 . S
H1499 C1504 0.949 . S
H1500 C1506 0.950 . S
H1501 C1507 0.950 . S
H1502 C1508 0.949 . S
C1503 H1498 0.950 . S
C1503 C1505 1.327 . S
C1503 C1509 1.429 . S
C1504 C1496 1.574 . S
C1504 H1499 0.949 . S
C1504 C1510 1.368 . S
C1505 C1489 1.349 . S
C1505 H1497 0.950 . S
C1505 C1503 1.327 . S
C1506 C1494 1.349 . S
C1506 H1500 0.950 . S
C1506 C1507 1.327 . S
C1507 H1501 0.950 . S
C1507 C1506 1.327 . S
C1507 C1511 1.429 . S
C1508 C1491 1.574 . S
C1508 H1502 0.949 . S
C1508 C1512 1.368 . S
C1509 C1490 1.429 . S
C1509 C1503 1.429 . S
C1509 C1510 1.523 . S
C1510 C1491 1.368 . S
C1510 C1504 1.368 . S
C1510 C1509 1.523 . S
C1511 C1495 1.429 . S
C1511 C1507 1.429 . S
C1511 C1512 1.523 . S
C1512 C1496 1.368 . S
C1512 C1508 1.368 . S
C1512 C1511 1.523 . S
H1513 C1488 0.950 . S
H1514 C1490 0.950 . S
H1515 C1491 0.949 . S
H1516 C1493 0.950 . S
H1517 C1495 0.950 . S
C1518 C1519 1.349 . S
C1518 C1520 1.327 . S
C1518 H1543 0.950 . S
C1519 C1518 1.349 . S
C1519 C1535 1.349 . S
C1520 C1518 1.327 . S
C1520 C1539 1.429 . S
C1520 H1544 0.950 . S
C1521 C1538 1.574 . S
C1521 C1540 1.368 . S
C1521 H1545 0.949 . S
H1522 C1526 0.949 . S
C1523 C1524 1.349 . S
C1523 C1525 1.327 . S
C1523 H1546 0.950 . S
C1524 C1523 1.349 . S
C1524 C1536 1.349 . S
C1525 C1523 1.327 . S
C1525 C1541 1.429 . S
C1525 H1547 0.950 . S
C1526 H1522 0.949 . S
C1526 C1534 1.574 . S
C1526 C1542 1.368 . S
H1527 C1535 0.950 . S
H1528 C1533 0.950 . S
H1529 C1534 0.949 . S
H1530 C1536 0.950 . S
H1531 C1537 0.950 . S
H1532 C1538 0.949 . S
C1533 H1528 0.950 . S
C1533 C1535 1.327 . S
C1533 C1539 1.429 . S
C1534 C1526 1.574 . S
C1534 H1529 0.949 . S
C1534 C1540 1.368 . S
C1535 C1519 1.349 . S
C1535 H1527 0.950 . S
C1535 C1533 1.327 . S
C1536 C1524 1.349 . S
C1536 H1530 0.950 . S
C1536 C1537 1.327 . S
C1537 H1531 0.950 . S
C1537 C1536 1.327 . S
C1537 C1541 1.429 . S
C1538 C1521 1.574 . S
C1538 H1532 0.949 . S
C1538 C1542 1.368 . S
C1539 C1520 1.429 . S
C1539 C1533 1.429 . S
C1539 C1540 1.523 . S
C1540 C1521 1.368 . S
C1540 C1534 1.368 . S
C1540 C1539 1.523 . S
C1541 C1525 1.429 . S
C1541 C1537 1.429 . S
C1541 C1542 1.523 . S
C1542 C1526 1.368 . S
C1542 C1538 1.368 . S
C1542 C1541 1.523 . S
H1543 C1518 0.950 . S
H1544 C1520 0.950 . S
H1545 C1521 0.949 . S
H1546 C1523 0.950 . S
H1547 C1525 0.950 . S
C1548 C1549 1.349 . S
C1548 C1550 1.327 . S
C1548 H1573 0.950 . S
C1549 C1548 1.349 . S
C1549 C1565 1.349 . S
C1550 C1548 1.327 . S
C1550 C1569 1.429 . S
C1550 H1574 0.950 . S
C1551 C1568 1.574 . S
C1551 C1570 1.368 1_545 S
C1551 H1575 0.949 . S
H1552 C1556 0.949 . S
C1553 C1554 1.349 . S
C1553 C1555 1.327 . S
C1553 H1576 0.950 . S
C1554 C1553 1.349 . S
C1554 C1566 1.349 . S
C1555 C1553 1.327 . S
C1555 C1571 1.429 . S
C1555 H1577 0.950 . S
C1556 H1552 0.949 . S
C1556 C1564 1.574 . S
C1556 C1572 1.368 1_565 S
H1557 C1565 0.950 . S
H1558 C1563 0.950 . S
H1559 C1564 0.949 . S
H1560 C1566 0.950 . S
H1561 C1567 0.950 . S
H1562 C1568 0.949 . S
C1563 H1558 0.950 . S
C1563 C1565 1.327 . S
C1563 C1569 1.429 . S
C1564 C1556 1.574 . S
C1564 H1559 0.949 . S
C1564 C1570 1.368 1_554 S
C1565 C1549 1.349 . S
C1565 H1557 0.950 . S
C1565 C1563 1.327 . S
C1566 C1554 1.349 . S
C1566 H1560 0.950 . S
C1566 C1567 1.327 . S
C1567 H1561 0.950 . S
C1567 C1566 1.327 . S
C1567 C1571 1.429 . S
C1568 C1551 1.574 . S
C1568 H1562 0.949 . S
C1568 C1572 1.368 1_556 S
C1569 C1550 1.429 . S
C1569 C1563 1.429 . S
C1569 C1570 1.523 . S
C1570 C1551 1.368 1_565 S
C1570 C1564 1.368 1_556 S
C1570 C1569 1.523 . S
C1571 C1555 1.429 . S
C1571 C1567 1.429 . S
C1571 C1572 1.523 . S
C1572 C1556 1.368 1_545 S
C1572 C1568 1.368 1_554 S
C1572 C1571 1.523 . S
H1573 C1548 0.950 . S
H1574 C1550 0.950 . S
H1575 C1551 0.949 . S
H1576 C1553 0.950 . S
H1577 C1555 0.950 . S
C1578 C1579 1.349 . S
C1578 C1580 1.327 . S
C1578 H1603 0.950 . S
C1579 C1578 1.349 . S
C1579 C1595 1.349 . S
C1580 C1578 1.327 . S
C1580 C1599 1.429 . S
C1580 H1604 0.950 . S
C1581 C1598 1.574 . S
C1581 C1600 1.368 . S
C1581 H1605 0.949 . S
H1582 C1586 0.949 . S
C1583 C1584 1.349 . S
C1583 C1585 1.327 . S
C1583 H1606 0.950 . S
C1584 C1583 1.349 . S
C1584 C1596 1.349 . S
C1585 C1583 1.327 . S
C1585 C1601 1.429 . S
C1585 H1607 0.950 . S
C1586 H1582 0.949 . S
C1586 C1594 1.574 . S
C1586 C1602 1.368 . S
H1587 C1595 0.950 . S
H1588 C1593 0.950 . S
H1589 C1594 0.949 . S
H1590 C1596 0.950 . S
H1591 C1597 0.950 . S
H1592 C1598 0.949 . S
C1593 H1588 0.950 . S
C1593 C1595 1.327 . S
C1593 C1599 1.429 . S
C1594 C1586 1.574 . S
C1594 H1589 0.949 . S
C1594 C1600 1.368 . S
C1595 C1579 1.349 . S
C1595 H1587 0.950 . S
C1595 C1593 1.327 . S
C1596 C1584 1.349 . S
C1596 H1590 0.950 . S
C1596 C1597 1.327 . S
C1597 H1591 0.950 . S
C1597 C1596 1.327 . S
C1597 C1601 1.429 . S
C1598 C1581 1.574 . S
C1598 H1592 0.949 . S
C1598 C1602 1.368 . S
C1599 C1580 1.429 . S
C1599 C1593 1.429 . S
C1599 C1600 1.523 . S
C1600 C1581 1.368 . S
C1600 C1594 1.368 . S
C1600 C1599 1.523 . S
C1601 C1585 1.429 . S
C1601 C1597 1.429 . S
C1601 C1602 1.523 . S
C1602 C1586 1.368 . S
C1602 C1598 1.368 . S
C1602 C1601 1.523 . S
H1603 C1578 0.950 . S
H1604 C1580 0.950 . S
H1605 C1581 0.949 . S
H1606 C1583 0.950 . S
H1607 C1585 0.950 . S
C1608 C1609 1.349 . S
C1608 C1610 1.327 . S
C1608 H1633 0.950 . S
C1609 C1608 1.349 . S
C1609 C1625 1.349 . S
C1610 C1608 1.327 . S
C1610 C1629 1.429 . S
C1610 H1634 0.950 . S
C1611 C1628 1.592 1_455 S
C1611 C1630 1.350 1_554 S
C1611 H1635 0.949 . S
H1612 C1616 0.949 . S
C1613 C1614 1.349 . S
C1613 C1615 1.327 . S
C1613 H1636 0.950 . S
C1614 C1613 1.349 . S
C1614 C1626 1.349 . S
C1615 C1613 1.327 . S
C1615 C1631 1.429 . S
C1615 H1637 0.950 . S
C1616 H1612 0.949 . S
C1616 C1624 1.592 1_655 S
C1616 C1632 1.350 1_556 S
H1617 C1625 0.950 . S
H1618 C1623 0.950 . S
H1619 C1624 0.949 . S
H1620 C1626 0.950 . S
H1621 C1627 0.950 . S
H1622 C1628 0.949 . S
C1623 H1618 0.950 . S
C1623 C1625 1.327 . S
C1623 C1629 1.429 . S
C1624 C1616 1.592 1_455 S
C1624 H1619 0.949 . S
C1624 C1630 1.368 . S
C1625 C1609 1.349 . S
C1625 H1617 0.950 . S
C1625 C1623 1.327 . S
C1626 C1614 1.349 . S
C1626 H1620 0.950 . S
C1626 C1627 1.327 . S
C1627 H1621 0.950 . S
C1627 C1626 1.327 . S
C1627 C1631 1.429 . S
C1628 C1611 1.592 1_655 S
C1628 H1622 0.949 . S
C1628 C1632 1.368 . S
C1629 C1610 1.429 . S
C1629 C1623 1.429 . S
C1629 C1630 1.523 . S
C1630 C1611 1.350 1_556 S
C1630 C1624 1.368 . S
C1630 C1629 1.523 . S
C1631 C1615 1.429 . S
C1631 C1627 1.429 . S
C1631 C1632 1.523 . S
C1632 C1616 1.350 1_554 S
C1632 C1628 1.368 . S
C1632 C1631 1.523 . S
H1633 C1608 0.950 . S
H1634 C1610 0.950 . S
H1635 C1611 0.949 . S
H1636 C1613 0.950 . S
H1637 C1615 0.950 . S
C1638 C1639 1.349 . S
C1638 C1640 1.327 . S
C1638 H1663 0.950 . S
C1639 C1638 1.349 . S
C1639 C1655 1.349 . S
C1640 C1638 1.327 . S
C1640 C1659 1.429 . S
C1640 H1664 0.950 . S
C1641 C1658 1.574 . S
C1641 C1660 1.368 1_565 S
C1641 H1665 0.949 . S
H1642 C1646 0.949 . S
C1643 C1644 1.349 . S
C1643 C1645 1.327 . S
C1643 H1666 0.950 . S
C1644 C1643 1.349 . S
C1644 C1656 1.349 . S
C1645 C1643 1.327 . S
C1645 C1661 1.429 . S
C1645 H1667 0.950 . S
C1646 H1642 0.949 . S
C1646 C1654 1.574 . S
C1646 C1662 1.368 1_545 S
H1647 C1655 0.950 . S
H1648 C1653 0.950 . S
H1649 C1654 0.949 . S
H1650 C1656 0.950 . S
H1651 C1657 0.950 . S
H1652 C1658 0.949 . S
C1653 H1648 0.950 . S
C1653 C1655 1.327 . S
C1653 C1659 1.429 . S
C1654 C1646 1.574 . S
C1654 H1649 0.949 . S
C1654 C1660 1.368 . S
C1655 C1639 1.349 . S
C1655 H1647 0.950 . S
C1655 C1653 1.327 . S
C1656 C1644 1.349 . S
C1656 H1650 0.950 . S
C1656 C1657 1.327 . S
C1657 H1651 0.950 . S
C1657 C1656 1.327 . S
C1657 C1661 1.429 . S
C1658 C1641 1.574 . S
C1658 H1652 0.949 . S
C1658 C1662 1.368 . S
C1659 C1640 1.429 . S
C1659 C1653 1.429 . S
C1659 C1660 1.523 . S
C1660 C1641 1.368 1_545 S
C1660 C1654 1.368 . S
C1660 C1659 1.523 . S
C1661 C1645 1.429 . S
C1661 C1657 1.429 . S
C1661 C1662 1.523 . S
C1662 C1646 1.368 1_565 S
C1662 C1658 1.368 . S
C1662 C1661 1.523 . S
H1663 C1638 0.950 . S
H1664 C1640 0.950 . S
H1665 C1641 0.949 . S
H1666 C1643 0.950 . S
H1667 C1645 0.950 . S
C1668 C1669 1.349 . S
C1668 C1670 1.327 . S
C1668 H1693 0.950 . S
C1669 C1668 1.349 . S
C1669 C1685 1.349 . S
C1670 C1668 1.327 . S
C1670 C1689 1.429 . S
C1670 H1694 0.950 . S
C1671 C1688 1.574 1_554 S
C1671 C1690 1.368 . S
C1671 H1695 0.949 . S
H1672 C1676 0.949 . S
C1673 C1674 1.349 . S
C1673 C1675 1.327 . S
C1673 H1696 0.950 . S
C1674 C1673 1.349 . S
C1674 C1686 1.349 . S
C1675 C1673 1.327 . S
C1675 C1691 1.429 . S
C1675 H1697 0.950 . S
C1676 H1672 0.949 . S
C1676 C1684 1.574 1_556 S
C1676 C1692 1.368 . S
H1677 C1685 0.950 . S
H1678 C1683 0.950 . S
H1679 C1684 0.949 . S
H1680 C1686 0.950 . S
H1681 C1687 0.950 . S
H1682 C1688 0.949 . S
C1683 H1678 0.950 . S
C1683 C1685 1.327 . S
C1683 C1689 1.429 . S
C1684 C1676 1.574 1_554 S
C1684 H1679 0.949 . S
C1684 C1690 1.368 . S
C1685 C1669 1.349 . S
C1685 H1677 0.950 . S
C1685 C1683 1.327 . S
C1686 C1674 1.349 . S
C1686 H1680 0.950 . S
C1686 C1687 1.327 . S
C1687 H1681 0.950 . S
C1687 C1686 1.327 . S
C1687 C1691 1.429 . S
C1688 C1671 1.574 1_556 S
C1688 H1682 0.949 . S
C1688 C1692 1.368 . S
C1689 C1670 1.429 . S
C1689 C1683 1.429 . S
C1689 C1690 1.523 . S
C1690 C1671 1.368 . S
C1690 C1684 1.368 . S
C1690 C1689 1.523 . S
C1691 C1675 1.429 . S
C1691 C1687 1.429 . S
C1691 C1692 1.523 . S
C1692 C1676 1.368 . S
C1692 C1688 1.368 . S
C1692 C1691 1.523 . S
H1693 C1668 0.950 . S
H1694 C1670 0.950 . S
H1695 C1671 0.949 . S
H1696 C1673 0.950 . S
H1697 C1675 0.950 . S
C1698 C1699 1.349 . S
C1698 C1700 1.327 . S
C1698 H1723 0.950 . S
C1699 C1698 1.349 . S
C1699 C1715 1.349 . S
C1700 C1698 1.327 . S
C1700 C1719 1.429 . S
C1700 H1724 0.950 . S
C1701 C1718 1.574 . S
C1701 C1720 1.368 . S
C1701 H1725 0.949 . S
H1702 C1706 0.949 . S
C1703 C1704 1.349 . S
C1703 C1705 1.327 . S
C1703 H1726 0.950 . S
C1704 C1703 1.349 . S
C1704 C1716 1.349 . S
C1705 C1703 1.327 . S
C1705 C1721 1.429 . S
C1705 H1727 0.950 . S
C1706 H1702 0.949 . S
C1706 C1714 1.574 . S
C1706 C1722 1.368 . S
H1707 C1715 0.950 . S
H1708 C1713 0.950 . S
H1709 C1714 0.949 . S
H1710 C1716 0.950 . S
H1711 C1717 0.950 . S
H1712 C1718 0.949 . S
C1713 H1708 0.950 . S
C1713 C1715 1.327 . S
C1713 C1719 1.429 . S
C1714 C1706 1.574 . S
C1714 H1709 0.949 . S
C1714 C1720 1.368 1_655 S
C1715 C1699 1.349 . S
C1715 H1707 0.950 . S
C1715 C1713 1.327 . S
C1716 C1704 1.349 . S
C1716 H1710 0.950 . S
C1716 C1717 1.327 . S
C1717 H1711 0.950 . S
C1717 C1716 1.327 . S
C1717 C1721 1.429 . S
C1718 C1701 1.574 . S
C1718 H1712 0.949 . S
C1718 C1722 1.368 1_455 S
C1719 C1700 1.429 . S
C1719 C1713 1.429 . S
C1719 C1720 1.523 . S
C1720 C1701 1.368 . S
C1720 C1714 1.368 1_455 S
C1720 C1719 1.523 . S
C1721 C1705 1.429 . S
C1721 C1717 1.429 . S
C1721 C1722 1.523 . S
C1722 C1706 1.368 . S
C1722 C1718 1.368 1_655 S
C1722 C1721 1.523 . S
H1723 C1698 0.950 . S
H1724 C1700 0.950 . S
H1725 C1701 0.949 . S
H1726 C1703 0.950 . S
H1727 C1705 0.950 . S
C1728 C1729 1.349 . S
C1728 C1730 1.327 . S
C1728 H1753 0.950 . S
C1729 C1728 1.349 . S
C1729 C1745 1.349 . S
C1730 C1728 1.327 . S
C1730 C1749 1.429 . S
C1730 H1754 0.950 . S
C1731 C1748 1.574 . S
C1731 C1750 1.368 . S
C1731 H1755 0.949 . S
H1732 C1736 0.949 . S
C1733 C1734 1.349 . S
C1733 C1735 1.327 . S
C1733 H1756 0.950 . S
C1734 C1733 1.349 . S
C1734 C1746 1.349 . S
C1735 C1733 1.327 . S
C1735 C1751 1.429 . S
C1735 H1757 0.950 . S
C1736 H1732 0.949 . S
C1736 C1744 1.574 . S
C1736 C1752 1.368 . S
H1737 C1745 0.950 . S
H1738 C1743 0.950 . S
H1739 C1744 0.949 . S
H1740 C1746 0.950 . S
H1741 C1747 0.950 . S
H1742 C1748 0.949 . S
C1743 H1738 0.950 . S
C1743 C1745 1.327 . S
C1743 C1749 1.429 . S
C1744 C1736 1.574 . S
C1744 H1739 0.949 . S
C1744 C1750 1.368 . S
C1745 C1729 1.349 . S
C1745 H1737 0.950 . S
C1745 C1743 1.327 . S
C1746 C1734 1.349 . S
C1746 H1740 0.950 . S
C1746 C1747 1.327 . S
C1747 H1741 0.950 . S
C1747 C1746 1.327 . S
C1747 C1751 1.429 . S
C1748 C1731 1.574 . S
C1748 H1742 0.949 . S
C1748 C1752 1.368 . S
C1749 C1730 1.429 . S
C1749 C1743 1.429 . S
C1749 C1750 1.523 . S
C1750 C1731 1.368 . S
C1750 C1744 1.368 . S
C1750 C1749 1.523 . S
C1751 C1735 1.429 . S
C1751 C1747 1.429 . S
C1751 C1752 1.523 . S
C1752 C1736 1.368 . S
C1752 C1748 1.368 . S
C1752 C1751 1.523 . S
H1753 C1728 0.950 . S
H1754 C1730 0.950 . S
H1755 C1731 0.949 . S
H1756 C1733 0.950 . S
H1757 C1735 0.950 . S
C1758 C1759 1.349 . S
C1758 C1760 1.327 . S
C1758 H1783 0.950 . S
C1759 C1758 1.349 . S
C1759 C1775 1.349 . S
C1760 C1758 1.327 . S
C1760 C1779 1.429 . S
C1760 H1784 0.950 . S
C1761 C1778 1.574 . S
C1761 C1780 1.368 . S
C1761 H1785 0.949 . S
H1762 C1766 0.949 . S
C1763 C1764 1.349 . S
C1763 C1765 1.327 . S
C1763 H1786 0.950 . S
C1764 C1763 1.349 . S
C1764 C1776 1.349 . S
C1765 C1763 1.327 . S
C1765 C1781 1.429 . S
C1765 H1787 0.950 . S
C1766 H1762 0.949 . S
C1766 C1774 1.574 . S
C1766 C1782 1.368 . S
H1767 C1775 0.950 . S
H1768 C1773 0.950 . S
H1769 C1774 0.949 . S
H1770 C1776 0.950 . S
H1771 C1777 0.950 . S
H1772 C1778 0.949 . S
C1773 H1768 0.950 . S
C1773 C1775 1.327 . S
C1773 C1779 1.429 . S
C1774 C1766 1.574 . S
C1774 H1769 0.949 . S
C1774 C1780 1.368 . S
C1775 C1759 1.349 . S
C1775 H1767 0.950 . S
C1775 C1773 1.327 . S
C1776 C1764 1.349 . S
C1776 H1770 0.950 . S
C1776 C1777 1.327 . S
C1777 H1771 0.950 . S
C1777 C1776 1.327 . S
C1777 C1781 1.429 . S
C1778 C1761 1.574 . S
C1778 H1772 0.949 . S
C1778 C1782 1.368 . S
C1779 C1760 1.429 . S
C1779 C1773 1.429 . S
C1779 C1780 1.523 . S
C1780 C1761 1.368 . S
C1780 C1774 1.368 . S
C1780 C1779 1.523 . S
C1781 C1765 1.429 . S
C1781 C1777 1.429 . S
C1781 C1782 1.523 . S
C1782 C1766 1.368 . S
C1782 C1778 1.368 . S
C1782 C1781 1.523 . S
H1783 C1758 0.950 . S
H1784 C1760 0.950 . S
H1785 C1761 0.949 . S
H1786 C1763 0.950 . S
H1787 C1765 0.950 . S
C1788 C1789 1.349 . S
C1788 C1790 1.327 . S
C1788 H1813 0.950 . S
C1789 C1788 1.349 . S
C1789 C1805 1.349 . S
C1790 C1788 1.327 . S
C1790 C1809 1.429 . S
C1790 H1814 0.950 . S
C1791 C1808 1.574 . S
C1791 C1810 1.368 . S
C1791 H1815 0.949 . S
H1792 C1796 0.949 . S
C1793 C1794 1.349 . S
C1793 C1795 1.327 . S
C1793 H1816 0.950 . S
C1794 C1793 1.349 . S
C1794 C1806 1.349 . S
C1795 C1793 1.327 . S
C1795 C1811 1.429 . S
C1795 H1817 0.950 . S
C1796 H1792 0.949 . S
C1796 C1804 1.574 . S
C1796 C1812 1.368 . S
H1797 C1805 0.950 . S
H1798 C1803 0.950 . S
H1799 C1804 0.949 . S
H1800 C1806 0.950 . S
H1801 C1807 0.950 . S
H1802 C1808 0.949 . S
C1803 H1798 0.950 . S
C1803 C1805 1.327 . S
C1803 C1809 1.429 . S
C1804 C1796 1.574 . S
C1804 H1799 0.949 . S
C1804 C1810 1.368 . S
C1805 C1789 1.349 . S
C1805 H1797 0.950 . S
C1805 C1803 1.327 . S
C1806 C1794 1.349 . S
C1806 H1800 0.950 . S
C1806 C1807 1.327 . S
C1807 H1801 0.950 . S
C1807 C1806 1.327 . S
C1807 C1811 1.429 . S
C1808 C1791 1.574 . S
C1808 H1802 0.949 . S
C1808 C1812 1.368 . S
C1809 C1790 1.429 . S
C1809 C1803 1.429 . S
C1809 C1810 1.523 . S
C1810 C1791 1.368 . S
C1810 C1804 1.368 . S
C1810 C1809 1.523 . S
C1811 C1795 1.429 . S
C1811 C1807 1.429 . S
C1811 C1812 1.523 . S
C1812 C1796 1.368 . S
C1812 C1808 1.368 . S
C1812 C1811 1.523 . S
H1813 C1788 0.950 . S
H1814 C1790 0.950 . S
H1815 C1791 0.949 . S
H1816 C1793 0.950 . S
H1817 C1795 0.950 . S
C1818 C1819 1.349 . S
C1818 C1820 1.327 . S
C1818 H1843 0.950 . S
C1819 C1818 1.349 . S
C1819 C1835 1.349 . S
C1820 C1818 1.327 . S
C1820 C1839 1.429 . S
C1820 H1844 0.950 . S
C1821 C1838 1.574 . S
C1821 C1840 1.368 . S
C1821 H1845 0.949 . S
H1822 C1826 0.949 . S
C1823 C1824 1.349 . S
C1823 C1825 1.327 . S
C1823 H1846 0.950 . S
C1824 C1823 1.349 . S
C1824 C1836 1.349 . S
C1825 C1823 1.327 . S
C1825 C1841 1.429 . S
C1825 H1847 0.950 . S
C1826 H1822 0.949 . S
C1826 C1834 1.574 . S
C1826 C1842 1.368 . S
H1827 C1835 0.950 . S
H1828 C1833 0.950 . S
H1829 C1834 0.949 . S
H1830 C1836 0.950 . S
H1831 C1837 0.950 . S
H1832 C1838 0.949 . S
C1833 H1828 0.950 . S
C1833 C1835 1.327 . S
C1833 C1839 1.429 . S
C1834 C1826 1.574 . S
C1834 H1829 0.949 . S
C1834 C1840 1.368 . S
C1835 C1819 1.349 . S
C1835 H1827 0.950 . S
C1835 C1833 1.327 . S
C1836 C1824 1.349 . S
C1836 H1830 0.950 . S
C1836 C1837 1.327 . S
C1837 H1831 0.950 . S
C1837 C1836 1.327 . S
C1837 C1841 1.429 . S
C1838 C1821 1.574 . S
C1838 H1832 0.949 . S
C1838 C1842 1.368 . S
C1839 C1820 1.429 . S
C1839 C1833 1.429 . S
C1839 C1840 1.523 . S
C1840 C1821 1.368 . S
C1840 C1834 1.368 . S
C1840 C1839 1.523 . S
C1841 C1825 1.429 . S
C1841 C1837 1.429 . S
C1841 C1842 1.523 . S
C1842 C1826 1.368 . S
C1842 C1838 1.368 . S
C1842 C1841 1.523 . S
H1843 C1818 0.950 . S
H1844 C1820 0.950 . S
H1845 C1821 0.949 . S
H1846 C1823 0.950 . S
H1847 C1825 0.950 . S
C1848 C1849 1.349 . S
C1848 C1850 1.327 . S
C1848 H1873 0.950 . S
C1849 C1848 1.349 . S
C1849 C1865 1.349 . S
C1850 C1848 1.327 . S
C1850 C1869 1.429 . S
C1850 H1874 0.950 . S
C1851 C1868 1.574 . S
C1851 C1870 1.368 . S
C1851 H1875 0.949 . S
H1852 C1856 0.949 . S
C1853 C1854 1.349 . S
C1853 C1855 1.327 . S
C1853 H1876 0.950 . S
C1854 C1853 1.349 . S
C1854 C1866 1.349 . S
C1855 C1853 1.327 . S
C1855 C1871 1.429 . S
C1855 H1877 0.950 . S
C1856 H1852 0.949 . S
C1856 C1864 1.574 . S
C1856 C1872 1.368 . S
H1857 C1865 0.950 . S
H1858 C1863 0.950 . S
H1859 C1864 0.949 . S
H1860 C1866 0.950 . S
H1861 C1867 0.950 . S
H1862 C1868 0.949 . S
C1863 H1858 0.950 . S
C1863 C1865 1.327 . S
C1863 C1869 1.429 . S
C1864 C1856 1.574 . S
C1864 H1859 0.949 . S
C1864 C1870 1.368 . S
C1865 C1849 1.349 . S
C1865 H1857 0.950 . S
C1865 C1863 1.327 . S
C1866 C1854 1.349 . S
C1866 H1860 0.950 . S
C1866 C1867 1.327 . S
C1867 H1861 0.950 . S
C1867 C1866 1.327 . S
C1867 C1871 1.429 . S
C1868 C1851 1.574 . S
C1868 H1862 0.949 . S
C1868 C1872 1.368 . S
C1869 C1850 1.429 . S
C1869 C1863 1.429 . S
C1869 C1870 1.523 . S
C1870 C1851 1.368 . S
C1870 C1864 1.368 . S
C1870 C1869 1.523 . S
C1871 C1855 1.429 . S
C1871 C1867 1.429 . S
C1871 C1872 1.523 . S
C1872 C1856 1.368 . S
C1872 C1868 1.368 . S
C1872 C1871 1.523 . S
H1873 C1848 0.950 . S
H1874 C1850 0.950 . S
H1875 C1851 0.949 . S
H1876 C1853 0.950 . S
H1877 C1855 0.950 . S
C1878 C1879 1.349 . S
C1878 C1880 1.327 . S
C1878 H1903 0.950 . S
C1879 C1878 1.349 . S
C1879 C1895 1.349 . S
C1880 C1878 1.327 . S
C1880 C1899 1.429 . S
C1880 H1904 0.950 . S
C1881 C1898 1.574 . S
C1881 C1900 1.368 . S
C1881 H1905 0.949 . S
H1882 C1886 0.949 . S
C1883 C1884 1.349 . S
C1883 C1885 1.327 . S
C1883 H1906 0.950 . S
C1884 C1883 1.349 . S
C1884 C1896 1.349 . S
C1885 C1883 1.327 . S
C1885 C1901 1.429 . S
C1885 H1907 0.950 . S
C1886 H1882 0.949 . S
C1886 C1894 1.574 . S
C1886 C1902 1.368 . S
H1887 C1895 0.950 . S
H1888 C1893 0.950 . S
H1889 C1894 0.949 . S
H1890 C1896 0.950 . S
H1891 C1897 0.950 . S
H1892 C1898 0.949 . S
C1893 H1888 0.950 . S
C1893 C1895 1.327 . S
C1893 C1899 1.429 . S
C1894 C1886 1.574 . S
C1894 H1889 0.949 . S
C1894 C1900 1.368 . S
C1895 C1879 1.349 . S
C1895 H1887 0.950 . S
C1895 C1893 1.327 . S
C1896 C1884 1.349 . S
C1896 H1890 0.950 . S
C1896 C1897 1.327 . S
C1897 H1891 0.950 . S
C1897 C1896 1.327 . S
C1897 C1901 1.429 . S
C1898 C1881 1.574 . S
C1898 H1892 0.949 . S
C1898 C1902 1.368 . S
C1899 C1880 1.429 . S
C1899 C1893 1.429 . S
C1899 C1900 1.523 . S
C1900 C1881 1.368 . S
C1900 C1894 1.368 . S
C1900 C1899 1.523 . S
C1901 C1885 1.429 . S
C1901 C1897 1.429 . S
C1901 C1902 1.523 . S
C1902 C1886 1.368 . S
C1902 C1898 1.368 . S
C1902 C1901 1.523 . S
H1903 C1878 0.950 . S
H1904 C1880 0.950 . S
H1905 C1881 0.949 . S
H1906 C1883 0.950 . S
H1907 C1885 0.950 . S
C1908 C1909 1.349 . S
C1908 C1910 1.327 . S
C1908 H1933 0.950 . S
C1909 C1908 1.349 . S
C1909 C1925 1.349 . S
C1910 C1908 1.327 . S
C1910 C1929 1.429 . S
C1910 H1934 0.950 . S
C1911 C1928 1.574 . S
C1911 C1930 1.368 . S
C1911 H1935 0.949 . S
H1912 C1916 0.949 . S
C1913 C1914 1.349 . S
C1913 C1915 1.327 . S
C1913 H1936 0.950 . S
C1914 C1913 1.349 . S
C1914 C1926 1.349 . S
C1915 C1913 1.327 . S
C1915 C1931 1.429 . S
C1915 H1937 0.950 . S
C1916 H1912 0.949 . S
C1916 C1924 1.574 . S
C1916 C1932 1.368 . S
H1917 C1925 0.950 . S
H1918 C1923 0.950 . S
H1919 C1924 0.949 . S
H1920 C1926 0.950 . S
H1921 C1927 0.950 . S
H1922 C1928 0.949 . S
C1923 H1918 0.950 . S
C1923 C1925 1.327 . S
C1923 C1929 1.429 . S
C1924 C1916 1.574 . S
C1924 H1919 0.949 . S
C1924 C1930 1.368 . S
C1925 C1909 1.349 . S
C1925 H1917 0.950 . S
C1925 C1923 1.327 . S
C1926 C1914 1.349 . S
C1926 H1920 0.950 . S
C1926 C1927 1.327 . S
C1927 H1921 0.950 . S
C1927 C1926 1.327 . S
C1927 C1931 1.429 . S
C1928 C1911 1.574 . S
C1928 H1922 0.949 . S
C1928 C1932 1.368 . S
C1929 C1910 1.429 . S
C1929 C1923 1.429 . S
C1929 C1930 1.523 . S
C1930 C1911 1.368 . S
C1930 C1924 1.368 . S
C1930 C1929 1.523 . S
C1931 C1915 1.429 . S
C1931 C1927 1.429 . S
C1931 C1932 1.523 . S
C1932 C1916 1.368 . S
C1932 C1928 1.368 . S
C1932 C1931 1.523 . S
H1933 C1908 0.950 . S
H1934 C1910 0.950 . S
H1935 C1911 0.949 . S
H1936 C1913 0.950 . S
H1937 C1915 0.950 . S
C1938 C1939 1.349 . S
C1938 C1940 1.327 . S
C1938 H1963 0.950 . S
C1939 C1938 1.349 . S
C1939 C1955 1.349 . S
C1940 C1938 1.327 . S
C1940 C1959 1.429 . S
C1940 H1964 0.950 . S
C1941 C1958 1.574 . S
C1941 C1960 1.368 . S
C1941 H1965 0.949 . S
H1942 C1946 0.949 . S
C1943 C1944 1.349 . S
C1943 C1945 1.327 . S
C1943 H1966 0.950 . S
C1944 C1943 1.349 . S
C1944 C1956 1.349 . S
C1945 C1943 1.327 . S
C1945 C1961 1.429 . S
C1945 H1967 0.950 . S
C1946 H1942 0.949 . S
C1946 C1954 1.574 . S
C1946 C1962 1.368 . S
H1947 C1955 0.950 . S
H1948 C1953 0.950 . S
H1949 C1954 0.949 . S
H1950 C1956 0.950 . S
H1951 C1957 0.950 . S
H1952 C1958 0.949 . S
C1953 H1948 0.950 . S
C1953 C1955 1.327 . S
C1953 C1959 1.429 . S
C1954 C1946 1.574 . S
C1954 H1949 0.949 . S
C1954 C1960 1.368 . S
C1955 C1939 1.349 . S
C1955 H1947 0.950 . S
C1955 C1953 1.327 . S
C1956 C1944 1.349 . S
C1956 H1950 0.950 . S
C1956 C1957 1.327 . S
C1957 H1951 0.950 . S
C1957 C1956 1.327 . S
C1957 C1961 1.429 . S
C1958 C1941 1.574 . S
C1958 H1952 0.949 . S
C1958 C1962 1.368 . S
C1959 C1940 1.429 . S
C1959 C1953 1.429 . S
C1959 C1960 1.523 . S
C1960 C1941 1.368 . S
C1960 C1954 1.368 . S
C1960 C1959 1.523 . S
C1961 C1945 1.429 . S
C1961 C1957 1.429 . S
C1961 C1962 1.523 . S
C1962 C1946 1.368 . S
C1962 C1958 1.368 . S
C1962 C1961 1.523 . S
H1963 C1938 0.950 . S
H1964 C1940 0.950 . S
H1965 C1941 0.949 . S
H1966 C1943 0.950 . S
H1967 C1945 0.950 . S
C1968 C1969 1.349 . S
C1968 C1970 1.327 . S
C1968 H1993 0.950 . S
C1969 C1968 1.349 . S
C1969 C1985 1.349 . S
C1970 C1968 1.327 . S
C1970 C1989 1.429 . S
C1970 H1994 0.950 . S
C1971 C1988 1.574 . S
C1971 C1990 1.368 . S
C1971 H1995 0.949 . S
H1972 C1976 0.949 . S
C1973 C1974 1.349 . S
C1973 C1975 1.327 . S
C1973 H1996 0.950 . S
C1974 C1973 1.349 . S
C1974 C1986 1.349 . S
C1975 C1973 1.327 . S
C1975 C1991 1.429 . S
C1975 H1997 0.950 . S
C1976 H1972 0.949 . S
C1976 C1984 1.574 . S
C1976 C1992 1.368 . S
H1977 C1985 0.950 . S
H1978 C1983 0.950 . S
H1979 C1984 0.949 . S
H1980 C1986 0.950 . S
H1981 C1987 0.950 . S
H1982 C1988 0.949 . S
C1983 H1978 0.950 . S
C1983 C1985 1.327 . S
C1983 C1989 1.429 . S
C1984 C1976 1.574 . S
C1984 H1979 0.949 . S
C1984 C1990 1.368 . S
C1985 C1969 1.349 . S
C1985 H1977 0.950 . S
C1985 C1983 1.327 . S
C1986 C1974 1.349 . S
C1986 H1980 0.950 . S
C1986 C1987 1.327 . S
C1987 H1981 0.950 . S
C1987 C1986 1.327 . S
C1987 C1991 1.429 . S
C1988 C1971 1.574 . S
C1988 H1982 0.949 . S
C1988 C1992 1.368 . S
C1989 C1970 1.429 . S
C1989 C1983 1.429 . S
C1989 C1990 1.523 . S
C1990 C1971 1.368 . S
C1990 C1984 1.368 . S
C1990 C1989 1.523 . S
C1991 C1975 1.429 . S
C1991 C1987 1.429 . S
C1991 C1992 1.523 . S
C1992 C1976 1.368 . S
C1992 C1988 1.368 . S
C1992 C1991 1.523 . S
H1993 C1968 0.950 . S
H1994 C1970 0.950 . S
H1995 C1971 0.949 . S
H1996 C1973 0.950 . S
H1997 C1975 0.950 . S
C1998 C1999 1.349 . S
C1998 C2000 1.327 . S
C1998 H2023 0.950 . S
C1999 C1998 1.349 . S
C1999 C2015 1.349 . S
C2000 C1998 1.327 . S
C2000 C2019 1.429 . S
C2000 H2024 0.950 . S
C2001 C2018 1.574 . S
C2001 C2020 1.368 . S
C2001 H2025 0.949 . S
H2002 C2006 0.949 . S
C2003 C2004 1.349 . S
C2003 C2005 1.327 . S
C2003 H2026 0.950 . S
C2004 C2003 1.349 . S
C2004 C2016 1.349 . S
C2005 C2003 1.327 . S
C2005 C2021 1.429 . S
C2005 H2027 0.950 . S
C2006 H2002 0.949 . S
C2006 C2014 1.574 . S
C2006 C2022 1.368 . S
H2007 C2015 0.950 . S
H2008 C2013 0.950 . S
H2009 C2014 0.949 . S
H2010 C2016 0.950 . S
H2011 C2017 0.950 . S
H2012 C2018 0.949 . S
C2013 H2008 0.950 . S
C2013 C2015 1.327 . S
C2013 C2019 1.429 . S
C2014 C2006 1.574 . S
C2014 H2009 0.949 . S
C2014 C2020 1.368 . S
C2015 C1999 1.349 . S
C2015 H2007 0.950 . S
C2015 C2013 1.327 . S
C2016 C2004 1.349 . S
C2016 H2010 0.950 . S
C2016 C2017 1.327 . S
C2017 H2011 0.950 . S
C2017 C2016 1.327 . S
C2017 C2021 1.429 . S
C2018 C2001 1.574 . S
C2018 H2012 0.949 . S
C2018 C2022 1.368 . S
C2019 C2000 1.429 . S
C2019 C2013 1.429 . S
C2019 C2020 1.523 . S
C2020 C2001 1.368 . S
C2020 C2014 1.368 . S
C2020 C2019 1.523 . S
C2021 C2005 1.429 . S
C2021 C2017 1.429 . S
C2021 C2022 1.523 . S
C2022 C2006 1.368 . S
C2022 C2018 1.368 . S
C2022 C2021 1.523 . S
H2023 C1998 0.950 . S
H2024 C2000 0.950 . S
H2025 C2001 0.949 . S
H2026 C2003 0.950 . S
H2027 C2005 0.950 . S
C2028 C2029 1.349 . S
C2028 C2030 1.327 . S
C2028 H2053 0.950 . S
C2029 C2028 1.349 . S
C2029 C2045 1.349 . S
C2030 C2028 1.327 . S
C2030 C2049 1.429 . S
C2030 H2054 0.950 . S
C2031 C2048 1.574 . S
C2031 C2050 1.368 . S
C2031 H2055 0.949 . S
H2032 C2036 0.949 . S
C2033 C2034 1.349 . S
C2033 C2035 1.327 . S
C2033 H2056 0.950 . S
C2034 C2033 1.349 . S
C2034 C2046 1.349 . S
C2035 C2033 1.327 . S
C2035 C2051 1.429 . S
C2035 H2057 0.950 . S
C2036 H2032 0.949 . S
C2036 C2044 1.574 . S
C2036 C2052 1.368 . S
H2037 C2045 0.950 . S
H2038 C2043 0.950 . S
H2039 C2044 0.949 . S
H2040 C2046 0.950 . S
H2041 C2047 0.950 . S
H2042 C2048 0.949 . S
C2043 H2038 0.950 . S
C2043 C2045 1.327 . S
C2043 C2049 1.429 . S
C2044 C2036 1.574 . S
C2044 H2039 0.949 . S
C2044 C2050 1.368 . S
C2045 C2029 1.349 . S
C2045 H2037 0.950 . S
C2045 C2043 1.327 . S
C2046 C2034 1.349 . S
C2046 H2040 0.950 . S
C2046 C2047 1.327 . S
C2047 H2041 0.950 . S
C2047 C2046 1.327 . S
C2047 C2051 1.429 . S
C2048 C2031 1.574 . S
C2048 H2042 0.949 . S
C2048 C2052 1.368 . S
C2049 C2030 1.429 . S
C2049 C2043 1.429 . S
C2049 C2050 1.523 . S
C2050 C2031 1.368 . S
C2050 C2044 1.368 . S
C2050 C2049 1.523 . S
C2051 C2035 1.429 . S
C2051 C2047 1.429 . S
C2051 C2052 1.523 . S
C2052 C2036 1.368 . S
C2052 C2048 1.368 . S
C2052 C2051 1.523 . S
H2053 C2028 0.950 . S
H2054 C2030 0.950 . S
H2055 C2031 0.949 . S
H2056 C2033 0.950 . S
H2057 C2035 0.950 . S
C2058 C2059 1.349 . S
C2058 C2060 1.327 . S
C2058 H2083 0.950 . S
C2059 C2058 1.349 . S
C2059 C2075 1.349 . S
C2060 C2058 1.327 . S
C2060 C2079 1.429 . S
C2060 H2084 0.950 . S
C2061 C2078 1.574 . S
C2061 C2080 1.368 . S
C2061 H2085 0.949 . S
H2062 C2066 0.949 . S
C2063 C2064 1.349 . S
C2063 C2065 1.327 . S
C2063 H2086 0.950 . S
C2064 C2063 1.349 . S
C2064 C2076 1.349 . S
C2065 C2063 1.327 . S
C2065 C2081 1.429 . S
C2065 H2087 0.950 . S
C2066 H2062 0.949 . S
C2066 C2074 1.574 . S
C2066 C2082 1.368 . S
H2067 C2075 0.950 . S
H2068 C2073 0.950 . S
H2069 C2074 0.949 . S
H2070 C2076 0.950 . S
H2071 C2077 0.950 . S
H2072 C2078 0.949 . S
C2073 H2068 0.950 . S
C2073 C2075 1.327 . S
C2073 C2079 1.429 . S
C2074 C2066 1.574 . S
C2074 H2069 0.949 . S
C2074 C2080 1.368 . S
C2075 C2059 1.349 . S
C2075 H2067 0.950 . S
C2075 C2073 1.327 . S
C2076 C2064 1.349 . S
C2076 H2070 0.950 . S
C2076 C2077 1.327 . S
C2077 H2071 0.950 . S
C2077 C2076 1.327 . S
C2077 C2081 1.429 . S
C2078 C2061 1.574 . S
C2078 H2072 0.949 . S
C2078 C2082 1.368 . S
C2079 C2060 1.429 . S
C2079 C2073 1.429 . S
C2079 C2080 1.523 . S
C2080 C2061 1.368 . S
C2080 C2074 1.368 . S
C2080 C2079 1.523 . S
C2081 C2065 1.429 . S
C2081 C2077 1.429 . S
C2081 C2082 1.523 . S
C2082 C2066 1.368 . S
C2082 C2078 1.368 . S
C2082 C2081 1.523 . S
H2083 C2058 0.950 . S
H2084 C2060 0.950 . S
H2085 C2061 0.949 . S
H2086 C2063 0.950 . S
H2087 C2065 0.950 . S
C1009 C238 1.183 . S
C1014 C67 1.279 . S
C1039 C310 1.183 . S
C1044 C140 1.279 . S
C1069 C235 1.279 . S
C1074 C406 1.183 . S
C1099 C308 1.279 . S
C1104 C478 1.183 . S
C1129 C70 1.183 . S
C1134 C403 1.279 . S
C1159 C142 1.183 . S
C1164 C476 1.279 . S
C1189 C898 1.183 . S
C1194 C560 1.279 . S
C1219 C655 1.279 . S
C1224 C994 1.183 . S
C1249 C728 1.279 . S
C1254 C562 1.183 . S
C1279 C823 1.279 . S
C1284 C658 1.183 . S
C1309 C896 1.279 . S
C1314 C730 1.183 . S
C1339 C826 1.183 . S
C1344 C991 1.279 . S
C1369 C326 1.973 . S
C1374 C63 1.973 . S
C1399 C158 1.973 . S
C1404 C399 1.973 . S
C1429 C231 1.973 . S
C1434 C494 1.973 . S
C1459 C578 1.973 . S
C1464 C819 1.973 . S
C1489 C651 1.973 . S
C1494 C914 1.973 . S
C1519 C746 1.973 . S
C1524 C987 1.973 . S
C1549 C662 2.152 . S
C1554 C74 2.152 . S
C1579 C147 2.152 . S
C1584 C735 2.152 . S
C1609 C830 2.152 . S
C1614 C242 2.152 . S
C1639 C315 2.152 . S
C1644 C903 2.152 . S
C1669 C410 2.152 . S
C1674 C998 2.152 . S
C1699 C567 2.152 . S
C1704 C483 2.152 . S
C1729 C226 1.309 . S
C1734 C56 1.413 . S
C1759 C151 1.413 . S
C1764 C322 1.309 . S
C1789 C224 1.413 . S
C1794 C394 1.309 . S
C1819 C319 1.413 . S
C1824 C490 1.309 . S
C1849 C58 1.309 . S
C1854 C392 1.413 . S
C1879 C154 1.309 . S
C1884 C487 1.413 . S
C1909 C910 1.309 . S
C1914 C571 1.413 . S
C1939 C644 1.413 . S
C1944 C982 1.309 . S
C1969 C739 1.413 . S
C1974 C574 1.309 . S
C1999 C646 1.309 . S
C2004 C812 1.413 . S
C2029 C907 1.413 . S
C2034 C742 1.309 . S
C2059 C980 1.413 . S
C2064 C814 1.309 . S
