# Generated by pormake.
# Topology umk, (4)-cn, num edge types: 1
# Building blocks:
#     Node 0, Type 0, BuildingBlock: QUQFOY_clean_sbu_3, # of connection points: 4
#     Node 1, Type 0, BuildingBlock: QUQFOY_clean_sbu_3, # of connection points: 4
#     Node 2, Type 0, BuildingBlock: QUQFOY_clean_sbu_3, # of connection points: 4
#     Node 3, Type 0, BuildingBlock: QUQFOY_clean_sbu_3, # of connection points: 4
#     Node 4, Type 0, BuildingBlock: QUQFOY_clean_sbu_3, # of connection points: 4
#     Node 5, Type 0, BuildingBlock: QUQFOY_clean_sbu_3, # of connection points: 4
#     Node 6, Type 0, BuildingBlock: QUQFOY_clean_sbu_3, # of connection points: 4
#     Node 7, Type 0, BuildingBlock: QUQFOY_clean_sbu_3, # of connection points: 4
#     Node 8, Type 0, BuildingBlock: QUQFOY_clean_sbu_3, # of connection points: 4
#     Node 9, Type 0, BuildingBlock: QUQFOY_clean_sbu_3, # of connection points: 4
#     Node 10, Type 0, BuildingBlock: QUQFOY_clean_sbu_3, # of connection points: 4
#     Node 11, Type 0, BuildingBlock: QUQFOY_clean_sbu_3, # of connection points: 4
#     Node 12, Type 0, BuildingBlock: QUQFOY_clean_sbu_3, # of connection points: 4
#     Node 13, Type 0, BuildingBlock: QUQFOY_clean_sbu_3, # of connection points: 4
#     Node 14, Type 0, BuildingBlock: QUQFOY_clean_sbu_3, # of connection points: 4
#     Node 15, Type 0, BuildingBlock: QUQFOY_clean_sbu_3, # of connection points: 4
#     Node 16, Type 0, BuildingBlock: QUQFOY_clean_sbu_3, # of connection points: 4
#     Node 17, Type 0, BuildingBlock: QUQFOY_clean_sbu_3, # of connection points: 4
#     Node 18, Type 0, BuildingBlock: QUQFOY_clean_sbu_3, # of connection points: 4
#     Node 19, Type 0, BuildingBlock: QUQFOY_clean_sbu_3, # of connection points: 4
#     Node 20, Type 0, BuildingBlock: QUQFOY_clean_sbu_3, # of connection points: 4
#     Node 21, Type 0, BuildingBlock: QUQFOY_clean_sbu_3, # of connection points: 4
#     Node 22, Type 0, BuildingBlock: QUQFOY_clean_sbu_3, # of connection points: 4
#     Node 23, Type 0, BuildingBlock: QUQFOY_clean_sbu_3, # of connection points: 4
#     Edge 24, Type (0, 0), BuildingBlock: EZIPEK_clean_linker_0, # of connection points: 2
#     Edge 25, Type (0, 0), BuildingBlock: EZIPEK_clean_linker_0, # of connection points: 2
#     Edge 26, Type (0, 0), BuildingBlock: EZIPEK_clean_linker_0, # of connection points: 2
#     Edge 27, Type (0, 0), BuildingBlock: EZIPEK_clean_linker_0, # of connection points: 2
#     Edge 28, Type (0, 0), BuildingBlock: EZIPEK_clean_linker_0, # of connection points: 2
#     Edge 29, Type (0, 0), BuildingBlock: EZIPEK_clean_linker_0, # of connection points: 2
#     Edge 30, Type (0, 0), BuildingBlock: EZIPEK_clean_linker_0, # of connection points: 2
#     Edge 31, Type (0, 0), BuildingBlock: EZIPEK_clean_linker_0, # of connection points: 2
#     Edge 32, Type (0, 0), BuildingBlock: EZIPEK_clean_linker_0, # of connection points: 2
#     Edge 33, Type (0, 0), BuildingBlock: EZIPEK_clean_linker_0, # of connection points: 2
#     Edge 34, Type (0, 0), BuildingBlock: EZIPEK_clean_linker_0, # of connection points: 2
#     Edge 35, Type (0, 0), BuildingBlock: EZIPEK_clean_linker_0, # of connection points: 2
#     Edge 36, Type (0, 0), BuildingBlock: EZIPEK_clean_linker_0, # of connection points: 2
#     Edge 37, Type (0, 0), BuildingBlock: EZIPEK_clean_linker_0, # of connection points: 2
#     Edge 38, Type (0, 0), BuildingBlock: EZIPEK_clean_linker_0, # of connection points: 2
#     Edge 39, Type (0, 0), BuildingBlock: EZIPEK_clean_linker_0, # of connection points: 2
#     Edge 40, Type (0, 0), BuildingBlock: EZIPEK_clean_linker_0, # of connection points: 2
#     Edge 41, Type (0, 0), BuildingBlock: EZIPEK_clean_linker_0, # of connection points: 2
#     Edge 42, Type (0, 0), BuildingBlock: EZIPEK_clean_linker_0, # of connection points: 2
#     Edge 43, Type (0, 0), BuildingBlock: EZIPEK_clean_linker_0, # of connection points: 2
#     Edge 44, Type (0, 0), BuildingBlock: EZIPEK_clean_linker_0, # of connection points: 2
#     Edge 45, Type (0, 0), BuildingBlock: EZIPEK_clean_linker_0, # of connection points: 2
#     Edge 46, Type (0, 0), BuildingBlock: EZIPEK_clean_linker_0, # of connection points: 2
#     Edge 47, Type (0, 0), BuildingBlock: EZIPEK_clean_linker_0, # of connection points: 2
#     Edge 48, Type (0, 0), BuildingBlock: EZIPEK_clean_linker_0, # of connection points: 2
#     Edge 49, Type (0, 0), BuildingBlock: EZIPEK_clean_linker_0, # of connection points: 2
#     Edge 50, Type (0, 0), BuildingBlock: EZIPEK_clean_linker_0, # of connection points: 2
#     Edge 51, Type (0, 0), BuildingBlock: EZIPEK_clean_linker_0, # of connection points: 2
#     Edge 52, Type (0, 0), BuildingBlock: EZIPEK_clean_linker_0, # of connection points: 2
#     Edge 53, Type (0, 0), BuildingBlock: EZIPEK_clean_linker_0, # of connection points: 2
#     Edge 54, Type (0, 0), BuildingBlock: EZIPEK_clean_linker_0, # of connection points: 2
#     Edge 55, Type (0, 0), BuildingBlock: EZIPEK_clean_linker_0, # of connection points: 2
#     Edge 56, Type (0, 0), BuildingBlock: EZIPEK_clean_linker_0, # of connection points: 2
#     Edge 57, Type (0, 0), BuildingBlock: EZIPEK_clean_linker_0, # of connection points: 2
#     Edge 58, Type (0, 0), BuildingBlock: EZIPEK_clean_linker_0, # of connection points: 2
#     Edge 59, Type (0, 0), BuildingBlock: EZIPEK_clean_linker_0, # of connection points: 2
#     Edge 60, Type (0, 0), BuildingBlock: EZIPEK_clean_linker_0, # of connection points: 2
#     Edge 61, Type (0, 0), BuildingBlock: EZIPEK_clean_linker_0, # of connection points: 2
#     Edge 62, Type (0, 0), BuildingBlock: EZIPEK_clean_linker_0, # of connection points: 2
#     Edge 63, Type (0, 0), BuildingBlock: EZIPEK_clean_linker_0, # of connection points: 2
#     Edge 64, Type (0, 0), BuildingBlock: EZIPEK_clean_linker_0, # of connection points: 2
#     Edge 65, Type (0, 0), BuildingBlock: EZIPEK_clean_linker_0, # of connection points: 2
#     Edge 66, Type (0, 0), BuildingBlock: EZIPEK_clean_linker_0, # of connection points: 2
#     Edge 67, Type (0, 0), BuildingBlock: EZIPEK_clean_linker_0, # of connection points: 2
#     Edge 68, Type (0, 0), BuildingBlock: EZIPEK_clean_linker_0, # of connection points: 2
#     Edge 69, Type (0, 0), BuildingBlock: EZIPEK_clean_linker_0, # of connection points: 2
#     Edge 70, Type (0, 0), BuildingBlock: EZIPEK_clean_linker_0, # of connection points: 2
#     Edge 71, Type (0, 0), BuildingBlock: EZIPEK_clean_linker_0, # of connection points: 2
# Relax obj value: 0.057
# Max RMSD: 0.043
# Mean RMSD: 0.043
data_MOF--net-umk--node1-QUQFOY_clean_sbu_3--edge1-EZIPEK_clean_linker_0
_symmetry_space_group_name_H-M    P1
_symmetry_Int_Tables_number       1
_symmetry_cell_setting            triclinic
loop_
_symmetry_equiv_pos_as_xyz
'x, y, z'
_cell_length_a     50.506173
_cell_length_b     50.393681
_cell_length_c     32.928943
_cell_angle_alpha  90.019052
_cell_angle_beta   89.971658
_cell_angle_gamma 120.10912
loop_
_atom_site_label
_atom_site_type_symbol
_atom_site_fract_x
_atom_site_fract_y
_atom_site_fract_z
_atom_type_partial_charge
C0 C 0.31842 0.45511 0.1517 0.0
O1 O 0.34247 0.46034 0.13332 0.0
Cd2 Cd 0.32575 0.46019 0.06276 0.0
O3 O 0.29597 0.45103 0.13023 0.0
Cd4 Cd 0.32082 0.45822 0.06279 0.0
C5 C 0.35528 0.42512 0.04745 0.0
O6 O 0.34246 0.51405 0.05676 0.0
O7 O 0.37681 0.50132 0.05178 0.0
O8 O 0.27256 0.44636 0.03291 0.0
C9 C 0.37036 0.52259 0.05152 0.0
O10 O 0.35854 0.44567 0.0226 0.0
C11 C 0.277 0.43768 -0.00127 0.0
O12 O 0.3368 0.41929 0.07651 0.0
O13 O 0.30168 0.43719 -0.00623 0.0
C14 C 0.84701 0.31482 0.65286 0.0
O15 O 0.84995 0.34129 0.64981 0.0
Cd16 Cd 0.86122 0.37175 0.59023 0.0
O17 O 0.84785 0.30009 0.62189 0.0
Cd18 Cd 0.85344 0.30662 0.54727 0.0
C19 C 0.92477 0.36645 0.56202 0.0
O20 O 0.82897 0.33642 0.54136 0.0
O21 O 0.84909 0.33255 0.48574 0.0
O22 O 0.81189 0.25527 0.53972 0.0
C23 C 0.83554 0.34427 0.50466 0.0
O24 O 0.91261 0.38162 0.57533 0.0
C25 C 0.82642 0.24575 0.51846 0.0
O26 O 0.90887 0.33848 0.5512 0.0
O27 O 0.85446 0.26457 0.51116 0.0
C28 C 0.51359 0.8453 0.16214 0.0
O29 O 0.49034 0.84872 0.16311 0.0
Cd30 Cd 0.46925 0.86316 0.10868 0.0
O31 O 0.5282 0.84819 0.12942 0.0
Cd32 Cd 0.52378 0.85843 0.05717 0.0
C33 C 0.53604 0.92893 0.08195 0.0
O34 O 0.46889 0.83163 0.05532 0.0
O35 O 0.49063 0.85563 0.00026 0.0
O36 O 0.53552 0.81903 0.04387 0.0
C37 C 0.46603 0.8391 0.01969 0.0
O38 O 0.50904 0.91624 0.09646 0.0
C39 C 0.55753 0.83458 0.01969 0.0
O40 O 0.54743 0.91337 0.06761 0.0
O41 O 0.56462 0.86219 0.01284 0.0
C42 C 0.66069 0.53656 0.66762 0.0
O43 O 0.63326 0.51509 0.67175 0.0
Cd44 Cd 0.59871 0.49342 0.61723 0.0
O45 O 0.67235 0.54603 0.63275 0.0
Cd46 Cd 0.6544 0.52912 0.56272 0.0
C47 C 0.61088 0.56028 0.57257 0.0
O48 O 0.62089 0.4738 0.57096 0.0
O49 O 0.61482 0.49339 0.51604 0.0
O50 O 0.69999 0.52655 0.56159 0.0
C51 C 0.60871 0.46955 0.53623 0.0
O52 O 0.59362 0.53585 0.5922 0.0
C53 C 0.7091 0.53899 0.52713 0.0
O54 O 0.63665 0.56577 0.55875 0.0
O55 O 0.69341 0.54884 0.50916 0.0
C56 C 0.14086 0.6764 0.15668 0.0
O57 O 0.13576 0.64928 0.16171 0.0
Cd58 Cd 0.12103 0.61117 0.11052 0.0
O59 O 0.14028 0.68665 0.12159 0.0
Cd60 Cd 0.13233 0.66699 0.05119 0.0
C61 C 0.05944 0.61515 0.07304 0.0
O62 O 0.15624 0.63554 0.05641 0.0
O63 O 0.13017 0.62958 0.00195 0.0
O64 O 0.17476 0.71546 0.03065 0.0
C65 C 0.14722 0.62271 0.02218 0.0
O66 O 0.06968 0.60024 0.09219 0.0
C67 C 0.15988 0.72096 0.00419 0.0
O68 O 0.07718 0.64095 0.05667 0.0
O69 O 0.13172 0.70139 -0.0004 0.0
C70 C 0.46286 0.13799 0.6674 0.0
O71 O 0.48229 0.12922 0.67124 0.0
Cd72 Cd 0.50515 0.1144 0.6197 0.0
O73 O 0.45329 0.14063 0.63272 0.0
Cd74 Cd 0.46445 0.13298 0.56176 0.0
C75 C 0.43895 0.05786 0.57661 0.0
O76 O 0.51899 0.15243 0.56892 0.0
O77 O 0.49926 0.13039 0.51197 0.0
O78 O 0.4642 0.1782 0.53993 0.0
C79 C 0.52289 0.14455 0.53399 0.0
O80 O 0.46343 0.0654 0.59618 0.0
C81 C 0.4433 0.16475 0.51356 0.0
O82 O 0.43277 0.07771 0.56289 0.0
O83 O 0.43139 0.13593 0.50979 0.0
C84 C 0.49961 0.64833 0.84851 0.0
O85 O 0.47961 0.62094 0.85763 0.0
Cd86 Cd 0.46843 0.5978 0.92348 0.0
O87 O 0.51628 0.66782 0.87536 0.0
Cd88 Cd 0.52385 0.67135 0.94996 0.0
C89 C 0.54222 0.61493 0.94749 0.0
O90 O 0.4713 0.63821 0.9621 0.0
O91 O 0.49696 0.65522 0.01718 0.0
O92 O 0.53293 0.72286 0.94706 0.0
C93 C 0.47165 0.63704 0.00033 0.0
O94 O 0.5145 0.59547 0.93889 0.0
C95 C 0.55891 0.73516 0.96436 0.0
O96 O 0.55133 0.6433 0.9523 0.0
O97 O 0.56903 0.71756 0.97431 0.0
C98 C 0.8449 0.50698 0.31654 0.0
O99 O 0.85508 0.48852 0.31584 0.0
Cd100 Cd 0.87271 0.47321 0.37268 0.0
O101 O 0.84144 0.51792 0.34957 0.0
Cd102 Cd 0.84792 0.51175 0.42227 0.0
C103 C 0.92349 0.54638 0.40613 0.0
O104 O 0.8318 0.45803 0.41934 0.0
O105 O 0.85162 0.47985 0.47641 0.0
O106 O 0.79932 0.50854 0.42668 0.0
C107 C 0.83833 0.45543 0.45555 0.0
O108 O 0.91861 0.52126 0.39037 0.0
C109 C 0.80649 0.52749 0.45567 0.0
O110 O 0.90177 0.54989 0.41926 0.0
O111 O 0.83363 0.53986 0.46943 0.0
C112 C 0.34168 0.85683 0.81713 0.0
O113 O 0.36909 0.8639 0.82482 0.0
Cd114 Cd 0.39169 0.87277 0.89025 0.0
O115 O 0.32263 0.85286 0.84512 0.0
Cd116 Cd 0.3196 0.85244 0.91991 0.0
C117 C 0.37326 0.92805 0.91763 0.0
O118 O 0.35226 0.83144 0.92672 0.0
O119 O 0.33891 0.84157 0.98383 0.0
O120 O 0.26833 0.81072 0.90865 0.0
C121 C 0.35451 0.83218 0.96487 0.0
O122 O 0.39304 0.92068 0.90739 0.0
C123 C 0.25541 0.82042 0.93275 0.0
O124 O 0.34528 0.90806 0.92347 0.0
O125 O 0.27298 0.84486 0.95211 0.0
C126 C 0.472 0.34922 0.31862 0.0
O127 O 0.48549 0.37764 0.32744 0.0
Cd128 Cd 0.49652 0.40331 0.39205 0.0
O129 O 0.46119 0.32829 0.34566 0.0
Cd130 Cd 0.45725 0.32307 0.42016 0.0
C131 C 0.42253 0.36641 0.43206 0.0
O132 O 0.50283 0.36865 0.43013 0.0
O133 O 0.50055 0.33406 0.46921 0.0
O134 O 0.44743 0.27304 0.3996 0.0
C135 C 0.51508 0.36179 0.45814 0.0
O136 O 0.44632 0.38972 0.41783 0.0
C137 C 0.43755 0.26115 0.43435 0.0
O138 O 0.42057 0.34028 0.4362 0.0
O139 O 0.43352 0.27723 0.46079 0.0
C140 C 0.12955 0.48211 0.81919 0.0
O141 O 0.11815 0.49872 0.82861 0.0
Cd142 Cd 0.10758 0.50707 0.89598 0.0
O143 O 0.13736 0.46912 0.84592 0.0
Cd144 Cd 0.13911 0.46463 0.92014 0.0
C145 C 0.06251 0.43012 0.92281 0.0
O146 O 0.15386 0.51736 0.92743 0.0
O147 O 0.14758 0.49407 0.98423 0.0
O148 O 0.18212 0.46065 0.89559 0.0
C149 C 0.15445 0.51872 0.96565 0.0
O150 O 0.06571 0.45619 0.91408 0.0
C151 C 0.18368 0.44666 0.92661 0.0
O152 O 0.08536 0.42614 0.92647 0.0
O153 O 0.16334 0.43954 0.95378 0.0
C154 C 0.65539 0.13883 0.33141 0.0
O155 O 0.62928 0.13612 0.33721 0.0
Cd156 Cd 0.60008 0.12127 0.39816 0.0
O157 O 0.67026 0.13519 0.36 0.0
Cd158 Cd 0.66471 0.12384 0.43354 0.0
C159 C 0.60264 0.05439 0.41245 0.0
O160 O 0.63766 0.15019 0.44687 0.0
O161 O 0.6415 0.12655 0.4988 0.0
O162 O 0.71688 0.16334 0.4399 0.0
C163 C 0.63085 0.14237 0.48348 0.0
O164 O 0.58774 0.06797 0.40425 0.0
C165 C 0.72582 0.14737 0.45897 0.0
O166 O 0.63084 0.06903 0.42234 0.0
O167 O 0.70625 0.11935 0.46541 0.0
C168 C 0.65487 0.53423 0.82421 0.0
O169 O 0.62655 0.5157 0.81877 0.0
Cd170 Cd 0.59027 0.4884 0.8705 0.0
O171 O 0.66695 0.53895 0.85919 0.0
Cd172 Cd 0.65026 0.51865 0.92788 0.0
C173 C 0.60621 0.55053 0.93143 0.0
O174 O 0.61356 0.46604 0.90943 0.0
O175 O 0.61372 0.478 0.97249 0.0
O176 O 0.69553 0.51539 0.92315 0.0
C177 C 0.6035 0.45759 0.94509 0.0
O178 O 0.58825 0.5288 0.90806 0.0
C179 C 0.70647 0.5278 0.95717 0.0
O180 O 0.63179 0.55385 0.94274 0.0
O181 O 0.69141 0.53692 0.97819 0.0
C182 C 0.13633 0.68839 0.31729 0.0
O183 O 0.13115 0.66106 0.32015 0.0
Cd184 Cd 0.11576 0.62772 0.377 0.0
O185 O 0.13436 0.70287 0.34781 0.0
Cd186 Cd 0.12216 0.69152 0.4211 0.0
C187 C 0.05131 0.63202 0.40128 0.0
O188 O 0.14617 0.66133 0.4283 0.0
O189 O 0.12235 0.66255 0.4817 0.0
O190 O 0.1629 0.74172 0.43797 0.0
C191 C 0.1375 0.65208 0.46407 0.0
O192 O 0.06382 0.61684 0.38941 0.0
C193 C 0.1468 0.74878 0.46015 0.0
O194 O 0.06694 0.66006 0.41195 0.0
O195 O 0.11827 0.72979 0.46237 0.0
C196 C 0.45788 0.13989 0.82901 0.0
O197 O 0.47971 0.13424 0.82973 0.0
Cd198 Cd 0.50023 0.12096 0.88596 0.0
O199 O 0.44389 0.1399 0.86121 0.0
Cd200 Cd 0.44778 0.13124 0.93458 0.0
C201 C 0.43224 0.05855 0.91664 0.0
O202 O 0.50262 0.15565 0.93598 0.0
O203 O 0.48076 0.13461 -0.00769 0.0
O204 O 0.43696 0.17137 0.95035 0.0
C205 C 0.50536 0.14923 0.97221 0.0
O206 O 0.45903 0.06931 0.902 0.0
C207 C 0.41462 0.15511 0.9738 0.0
O208 O 0.42214 0.07579 0.92873 0.0
O209 O 0.40686 0.1271 0.97825 0.0
C210 C 0.34227 0.47074 0.32074 0.0
O211 O 0.37113 0.48672 0.32421 0.0
Cd212 Cd 0.39642 0.503 0.38756 0.0
O213 O 0.32469 0.46311 0.35149 0.0
Cd214 Cd 0.3292 0.47246 0.42525 0.0
C215 C 0.36415 0.43185 0.4341 0.0
O216 O 0.3702 0.52531 0.42013 0.0
O217 O 0.36084 0.50616 0.48057 0.0
O218 O 0.28529 0.47816 0.41389 0.0
C219 C 0.37493 0.52945 0.45788 0.0
O220 O 0.38718 0.45533 0.419 0.0
C221 C 0.27165 0.46466 0.44632 0.0
O222 O 0.33855 0.43057 0.43859 0.0
O223 O 0.28408 0.45323 0.4683 0.0
C224 C 0.85627 0.31564 0.81956 0.0
O225 O 0.86568 0.34405 0.82353 0.0
Cd226 Cd 0.88017 0.37309 0.88448 0.0
O227 O 0.85288 0.29857 0.84993 0.0
Cd228 Cd 0.85933 0.3049 0.92449 0.0
C229 C 0.93475 0.35564 0.91734 0.0
O230 O 0.841 0.34031 0.92934 0.0
O231 O 0.85964 0.33425 0.98501 0.0
O232 O 0.81166 0.25836 0.933 0.0
C233 C 0.84706 0.34704 0.96636 0.0
O234 O 0.92737 0.37487 0.90451 0.0
C235 C 0.82195 0.24508 0.95532 0.0
O236 O 0.91483 0.32788 0.92501 0.0
O237 O 0.85059 0.25908 0.96192 0.0
C238 C 0.50899 0.8409 0.32182 0.0
O239 O 0.48763 0.84695 0.31697 0.0
Cd240 Cd 0.4627 0.86126 0.36585 0.0
O241 O 0.51978 0.84088 0.35677 0.0
Cd242 Cd 0.50875 0.84997 0.42714 0.0
C243 C 0.52844 0.92321 0.40224 0.0
O244 O 0.45414 0.82577 0.41844 0.0
O245 O 0.47049 0.84731 0.4764 0.0
O246 O 0.51873 0.81052 0.45097 0.0
C247 C 0.44794 0.83221 0.45289 0.0
O248 O 0.50341 0.9131 0.38282 0.0
C249 C 0.53845 0.82746 0.4772 0.0
O250 O 0.5359 0.9053 0.41942 0.0
O251 O 0.54488 0.8552 0.47975 0.0
C252 C 0.47455 0.34256 0.14682 0.0
O253 O 0.49629 0.36853 0.13557 0.0
Cd254 Cd 0.5079 0.38736 0.06781 0.0
O255 O 0.45675 0.32234 0.12142 0.0
Cd256 Cd 0.44846 0.31472 0.04718 0.0
C257 C 0.43481 0.37414 0.04778 0.0
O258 O 0.50132 0.34377 0.03286 0.0
O259 O 0.47378 0.328 0.97912 0.0
O260 O 0.43446 0.26241 0.06105 0.0
C261 C 0.50005 0.34435 -0.00533 0.0
O262 O 0.4632 0.39254 0.05415 0.0
C263 C 0.41065 0.25037 0.03885 0.0
O264 O 0.42368 0.34526 0.04523 0.0
O265 O 0.40467 0.26875 0.02007 0.0
C266 C 0.12878 0.49192 0.65217 0.0
O267 O 0.11797 0.50984 0.65152 0.0
Cd268 Cd 0.10185 0.52507 0.59304 0.0
O269 O 0.13356 0.4812 0.61978 0.0
Cd270 Cd 0.12828 0.4865 0.54627 0.0
C271 C 0.05246 0.45164 0.55924 0.0
O272 O 0.14359 0.53984 0.54826 0.0
O273 O 0.12371 0.51738 0.49155 0.0
O274 O 0.1773 0.49062 0.54019 0.0
C275 C 0.1369 0.54201 0.51199 0.0
O276 O 0.05674 0.47705 0.57326 0.0
C277 C 0.16993 0.47165 0.51116 0.0
O278 O 0.07465 0.44794 0.54894 0.0
O279 O 0.14243 0.45853 0.49866 0.0
C280 C 0.65153 0.14243 0.16499 0.0
O281 O 0.62426 0.13744 0.16394 0.0
Cd282 Cd 0.59133 0.12355 0.10668 0.0
O283 O 0.66543 0.14186 0.13302 0.0
Cd284 Cd 0.6548 0.13282 0.05954 0.0
C285 C 0.59753 0.0605 0.0809 0.0
O286 O 0.62453 0.15699 0.05607 0.0
O287 O 0.62638 0.13596 0.00019 0.0
O288 O 0.70616 0.17306 0.04636 0.0
C289 C 0.61591 0.15043 0.01965 0.0
O290 O 0.58152 0.07152 0.09481 0.0
C291 C 0.71352 0.15681 0.02491 0.0
O292 O 0.62457 0.07752 0.06752 0.0
O293 O 0.69354 0.12875 0.01994 0.0
C294 C 0.50085 0.65241 0.67667 0.0
O295 O 0.48193 0.62495 0.6665 0.0
Cd296 Cd 0.47202 0.60399 0.59975 0.0
O297 O 0.51655 0.67297 0.6504 0.0
Cd298 Cd 0.52351 0.67772 0.57558 0.0
C299 C 0.54723 0.62577 0.57678 0.0
O300 O 0.4709 0.64296 0.56168 0.0
O301 O 0.49898 0.65863 0.50825 0.0
O302 O 0.529 0.72785 0.5832 0.0
C303 C 0.47281 0.64147 0.52364 0.0
O304 O 0.51977 0.60512 0.58443 0.0
C305 C 0.55261 0.74181 0.56088 0.0
O306 O 0.55525 0.65402 0.57401 0.0
O307 O 0.56264 0.72549 0.54536 0.0
C308 C 0.84891 0.50663 0.15575 0.0
O309 O 0.85766 0.48705 0.15773 0.0
Cd310 Cd 0.87613 0.47056 0.10275 0.0
O311 O 0.84734 0.51819 0.12222 0.0
Cd312 Cd 0.85468 0.51155 0.05011 0.0
C313 C 0.92961 0.54285 0.06799 0.0
O314 O 0.83818 0.45787 0.05279 0.0
O315 O 0.85969 0.48028 -0.00344 0.0
O316 O 0.80545 0.50627 0.04574 0.0
C317 C 0.84617 0.45574 0.01716 0.0
O318 O 0.92288 0.51733 0.08431 0.0
C319 C 0.81169 0.52511 0.01688 0.0
O320 O 0.90917 0.54821 0.05435 0.0
O321 O 0.83888 0.53874 0.00301 0.0
C322 C 0.3336 0.85325 0.64614 0.0
O323 O 0.3588 0.85551 0.63534 0.0
Cd324 Cd 0.37913 0.86482 0.56901 0.0
O325 O 0.31497 0.85397 0.62061 0.0
Cd326 Cd 0.30909 0.85622 0.54585 0.0
C327 C 0.37006 0.92812 0.55364 0.0
O328 O 0.33514 0.82901 0.53364 0.0
O329 O 0.32388 0.84371 0.4787 0.0
O330 O 0.2549 0.82173 0.55614 0.0
C331 C 0.33734 0.83111 0.49558 0.0
O332 O 0.38717 0.91674 0.5605 0.0
C333 C 0.24625 0.8364 0.53347 0.0
O334 O 0.34151 0.91136 0.54713 0.0
O335 O 0.26725 0.85994 0.5157 0.0
C336 C 0.31387 0.47696 0.21782 0.0
C337 C 0.31736 0.45448 0.19632 0.0
C338 C 0.33195 0.4388 0.2587 0.0
C339 C 0.32914 0.46171 0.2799 0.0
N340 N 0.31013 0.49703 0.28313 0.0
N341 N 0.32168 0.409 0.19686 0.0
C342 C 0.31737 0.47875 0.26062 0.0
C343 C 0.32382 0.43373 0.21705 0.0
N344 N 0.30958 0.49807 0.19719 0.0
N345 N 0.34317 0.42255 0.27821 0.0
H346 H 0.31518 0.40448 0.16642 0.0
H347 H 0.32356 0.39153 0.21092 0.0
H348 H 0.34767 0.42453 0.30933 0.0
H349 H 0.3493 0.40816 0.26343 0.0
H350 H 0.31075 0.51728 0.21079 0.0
H351 H 0.30705 0.49782 0.16577 0.0
H352 H 0.29846 0.50748 0.27141 0.0
H353 H 0.31339 0.49971 0.31445 0.0
C354 C 0.81849 0.29619 0.71744 0.0
C355 C 0.84435 0.3022 0.69394 0.0
C356 C 0.87149 0.3016 0.75508 0.0
C357 C 0.84855 0.30261 0.77847 0.0
N358 N 0.79852 0.29693 0.78431 0.0
N359 N 0.89443 0.30755 0.68851 0.0
C360 C 0.82114 0.29798 0.76037 0.0
C361 C 0.87024 0.30306 0.7121 0.0
N362 N 0.79177 0.28926 0.69832 0.0
N363 N 0.89471 0.3001 0.77421 0.0
H364 H 0.89373 0.3075 0.65688 0.0
H365 H 0.91554 0.31228 0.70001 0.0
H366 H 0.89599 0.2993 0.80579 0.0
H367 H 0.91113 0.29707 0.75918 0.0
H368 H 0.77128 0.28273 0.71336 0.0
H369 H 0.78964 0.28762 0.66675 0.0
H370 H 0.77929 0.29701 0.77315 0.0
H371 H 0.79949 0.29671 0.81597 0.0
C372 C 0.50429 0.8091 0.26242 0.0
C373 C 0.5224 0.83614 0.28495 0.0
C374 C 0.54656 0.86478 0.22329 0.0
C375 C 0.52427 0.83945 0.20078 0.0
N376 N 0.48961 0.78531 0.19562 0.0
N377 N 0.56762 0.88559 0.28996 0.0
C378 C 0.50602 0.81059 0.21941 0.0
C379 C 0.54638 0.86247 0.26625 0.0
N380 N 0.48408 0.78296 0.28246 0.0
N381 N 0.56593 0.89153 0.20369 0.0
H382 H 0.56725 0.88383 0.32156 0.0
H383 H 0.58663 0.90516 0.27867 0.0
H384 H 0.56683 0.89322 0.17209 0.0
H385 H 0.58067 0.91201 0.21835 0.0
H386 H 0.46806 0.76279 0.26826 0.0
H387 H 0.48357 0.78184 0.31416 0.0
H388 H 0.47639 0.76314 0.20679 0.0
H389 H 0.49111 0.7866 0.16396 0.0
C390 C 0.68728 0.53267 0.76939 0.0
C391 C 0.67395 0.54836 0.78828 0.0
C392 C 0.67456 0.57265 0.72425 0.0
C393 C 0.6786 0.55011 0.70456 0.0
N394 N 0.69635 0.51412 0.70555 0.0
N395 N 0.66106 0.58817 0.78724 0.0
C396 C 0.68846 0.53255 0.72638 0.0
C397 C 0.67041 0.57069 0.76691 0.0
N398 N 0.69698 0.51674 0.7926 0.0
N399 N 0.67329 0.5946 0.70157 0.0
H400 H 0.65892 0.58731 0.81883 0.0
H401 H 0.65517 0.60296 0.77313 0.0
H402 H 0.67699 0.59594 0.67023 0.0
H403 H 0.67126 0.61255 0.71376 0.0
H404 H 0.70789 0.50551 0.78102 0.0
H405 H 0.69601 0.51678 0.82426 0.0
H406 H 0.70114 0.49836 0.71911 0.0
H407 H 0.69783 0.51477 0.67389 0.0
C408 C 0.17149 0.70762 0.25862 0.0
C409 C 0.1439 0.70245 0.27671 0.0
C410 C 0.11999 0.69557 0.21032 0.0
C411 C 0.1455 0.69511 0.19316 0.0
N412 N 0.19863 0.71018 0.19625 0.0
N413 N 0.09645 0.70228 0.27108 0.0
C414 C 0.17257 0.70483 0.21585 0.0
C415 C 0.11983 0.70061 0.25274 0.0
N416 N 0.19563 0.71318 0.28295 0.0
N417 N 0.09522 0.68882 0.18654 0.0
H418 H 0.09626 0.70587 0.30227 0.0
H419 H 0.07869 0.70255 0.2555 0.0
H420 H 0.09542 0.68617 0.15514 0.0
H421 H 0.07444 0.68538 0.19759 0.0
H422 H 0.21577 0.71458 0.27265 0.0
H423 H 0.19515 0.71631 0.31424 0.0
H424 H 0.21974 0.71834 0.21033 0.0
H425 H 0.19934 0.70831 0.16472 0.0
C426 C 0.42496 0.11958 0.76821 0.0
C427 C 0.44834 0.14515 0.78907 0.0
C428 C 0.46904 0.17197 0.72502 0.0
C429 C 0.45073 0.14384 0.70479 0.0
N430 N 0.40734 0.09284 0.7036 0.0
N431 N 0.48818 0.19789 0.78984 0.0
C432 C 0.42674 0.11848 0.72525 0.0
C433 C 0.4685 0.17244 0.76811 0.0
N434 N 0.40222 0.09607 0.78987 0.0
N435 N 0.48765 0.19751 0.70273 0.0
H436 H 0.48703 0.1985 0.82147 0.0
H437 H 0.50538 0.21811 0.77708 0.0
H438 H 0.4878 0.197 0.67102 0.0
H439 H 0.50125 0.21927 0.71498 0.0
H440 H 0.38374 0.07692 0.7769 0.0
H441 H 0.40088 0.09686 0.82143 0.0
H442 H 0.39093 0.07224 0.71648 0.0
H443 H 0.40798 0.09236 0.67192 0.0
C444 C 0.53064 0.66356 0.74102 0.0
C445 C 0.50447 0.66003 0.72027 0.0
C446 C 0.48021 0.65924 0.78496 0.0
C447 C 0.5038 0.65722 0.80536 0.0
N448 N 0.55161 0.65734 0.8042 0.0
N449 N 0.45505 0.65634 0.72097 0.0
C450 C 0.52944 0.66003 0.78389 0.0
C451 C 0.47959 0.65881 0.74186 0.0
N452 N 0.55634 0.66974 0.71967 0.0
N453 N 0.45869 0.66188 0.80702 0.0
H454 H 0.45488 0.65804 0.68939 0.0
H455 H 0.43452 0.65158 0.73455 0.0
H456 H 0.4589 0.6625 0.8387 0.0
H457 H 0.44226 0.66603 0.79427 0.0
H458 H 0.57713 0.6754 0.73318 0.0
H459 H 0.55773 0.67179 0.68814 0.0
H460 H 0.56888 0.6553 0.78991 0.0
H461 H 0.55181 0.65538 0.83569 0.0
C462 C 0.86092 0.54202 0.25788 0.0
C463 C 0.83758 0.5158 0.2776 0.0
C464 C 0.81312 0.49389 0.21292 0.0
C465 C 0.84046 0.51569 0.19367 0.0
N466 N 0.88757 0.56396 0.19437 0.0
N467 N 0.78801 0.47049 0.27678 0.0
C468 C 0.86314 0.54147 0.215 0.0
C469 C 0.81203 0.49328 0.25591 0.0
N470 N 0.88136 0.56645 0.28054 0.0
N471 N 0.7891 0.47334 0.18978 0.0
H472 H 0.78685 0.47072 0.30845 0.0
H473 H 0.76957 0.45163 0.26327 0.0
H474 H 0.79002 0.47405 0.15808 0.0
H475 H 0.76788 0.45723 0.20142 0.0
H476 H 0.89854 0.58696 0.26835 0.0
H477 H 0.87946 0.56683 0.31206 0.0
H478 H 0.90664 0.58199 0.20817 0.0
H479 H 0.8887 0.56426 0.16272 0.0
C480 C 0.34619 0.88336 0.70982 0.0
C481 C 0.32871 0.85481 0.68978 0.0
C482 C 0.31409 0.82775 0.75471 0.0
C483 C 0.33292 0.85614 0.77448 0.0
N484 N 0.3596 0.91136 0.77339 0.0
N485 N 0.29038 0.80132 0.69166 0.0
C486 C 0.34651 0.88414 0.75275 0.0
C487 C 0.31054 0.82745 0.71186 0.0
N488 N 0.36364 0.90944 0.68769 0.0
N489 N 0.30112 0.80111 0.77661 0.0
H490 H 0.28778 0.80065 0.66018 0.0
H491 H 0.27462 0.78109 0.70604 0.0
H492 H 0.30277 0.80072 0.80816 0.0
H493 H 0.28991 0.77935 0.76364 0.0
H494 H 0.37976 0.93029 0.70037 0.0
H495 H 0.36316 0.90988 0.65606 0.0
H496 H 0.36728 0.93256 0.75957 0.0
H497 H 0.36035 0.91253 0.80503 0.0
C498 C 0.48881 0.33282 0.25708 0.0
C499 C 0.46818 0.34052 0.27549 0.0
C500 C 0.44551 0.33952 0.20945 0.0
C501 C 0.46923 0.33665 0.19066 0.0
N502 N 0.51259 0.32912 0.19483 0.0
N503 N 0.42606 0.35005 0.2712 0.0
C504 C 0.4904 0.33244 0.21403 0.0
C505 C 0.44595 0.3431 0.25226 0.0
N506 N 0.50688 0.32612 0.28086 0.0
N507 N 0.42284 0.33912 0.18625 0.0
H508 H 0.42468 0.35108 0.30274 0.0
H509 H 0.41171 0.35597 0.25601 0.0
H510 H 0.4222 0.33722 0.1547 0.0
H511 H 0.40341 0.33844 0.1981 0.0
H512 H 0.52053 0.31772 0.26968 0.0
H513 H 0.50664 0.32687 0.3125 0.0
H514 H 0.53101 0.32956 0.20959 0.0
H515 H 0.51317 0.32694 0.16336 0.0
C516 C 0.16084 0.50559 0.71368 0.0
C517 C 0.13522 0.48329 0.69188 0.0
C518 C 0.11291 0.45381 0.75382 0.0
C519 C 0.13515 0.47927 0.77617 0.0
N520 N 0.1826 0.5273 0.77953 0.0
N521 N 0.08922 0.43411 0.68809 0.0
C522 C 0.16025 0.5043 0.75668 0.0
C523 C 0.1123 0.4563 0.71094 0.0
N524 N 0.18526 0.52801 0.69289 0.0
N525 N 0.0922 0.42784 0.77386 0.0
H526 H 0.08938 0.43485 0.65643 0.0
H527 H 0.06982 0.4153 0.70005 0.0
H528 H 0.09227 0.4258 0.80538 0.0
H529 H 0.07636 0.40764 0.75955 0.0
H530 H 0.20564 0.54423 0.70639 0.0
H531 H 0.18586 0.52881 0.66119 0.0
H532 H 0.19999 0.5478 0.76766 0.0
H533 H 0.18334 0.52602 0.81112 0.0
C534 C 0.66498 0.11946 0.2666 0.0
C535 C 0.66729 0.14432 0.28964 0.0
C536 C 0.67211 0.17317 0.22792 0.0
C537 C 0.66604 0.14693 0.20505 0.0
N538 N 0.66675 0.09961 0.20007 0.0
N539 N 0.68253 0.19764 0.29426 0.0
C540 C 0.66629 0.12172 0.22361 0.0
C541 C 0.67432 0.17231 0.2708 0.0
N542 N 0.65907 0.09293 0.28564 0.0
N543 N 0.67422 0.19812 0.20851 0.0
H544 H 0.68444 0.19715 0.3258 0.0
H545 H 0.68976 0.21942 0.28266 0.0
H546 H 0.67423 0.19962 0.17688 0.0
H547 H 0.67533 0.21688 0.22335 0.0
H548 H 0.65304 0.07254 0.27049 0.0
H549 H 0.65897 0.09084 0.31713 0.0
H550 H 0.66934 0.08183 0.21162 0.0
H551 H 0.66726 0.10055 0.16845 0.0
C552 C 0.20195 0.41118 0.94823 0.0
C553 C 0.20891 0.44017 0.93237 0.0
C554 C 0.26345 0.45792 0.93959 0.0
C555 C 0.25583 0.43275 0.96531 0.0
N556 N 0.21872 0.38358 -0.00824 0.0
N557 N 0.24739 0.49255 0.91485 0.0
C558 C 0.22531 0.40845 0.96824 0.0
C559 C 0.23999 0.46373 0.92728 0.0
N560 N 0.17314 0.38653 0.9441 0.0
N561 N 0.29325 0.47708 0.92887 0.0
H562 H 0.23146 0.49907 0.90746 0.0
H563 H 0.26965 0.51112 0.91547 0.0
H564 H 0.31083 0.47326 0.93807 0.0
H565 H 0.29991 0.49451 0.90745 0.0
H566 H 0.16726 0.36433 0.95257 0.0
H567 H 0.15592 0.38787 0.92834 0.0
H568 H 0.19652 0.36665 -0.00079 0.0
H569 H 0.2359 0.38069 0.00497 0.0
C570 C 0.7637 0.16522 0.51616 0.0
C571 C 0.75766 0.16225 0.47387 0.0
C572 C 0.80648 0.20859 0.46013 0.0
C573 C 0.81011 0.21406 0.50257 0.0
N574 N 0.8004 0.19295 0.56981 0.0
N575 N 0.77776 0.17259 0.40616 0.0
C576 C 0.79153 0.19047 0.53017 0.0
C577 C 0.78093 0.181 0.44607 0.0
N578 N 0.74204 0.14563 0.54293 0.0
N579 N 0.82568 0.23056 0.43338 0.0
H580 H 0.75891 0.15226 0.39589 0.0
H581 H 0.79479 0.18392 0.38445 0.0
H582 H 0.8454 0.25047 0.44233 0.0
H583 H 0.82164 0.2295 0.40227 0.0
H584 H 0.74346 0.1492 0.57419 0.0
H585 H 0.7221 0.12601 0.53383 0.0
H586 H 0.78916 0.17561 0.5912 0.0
H587 H 0.82095 0.21147 0.58008 0.0
C588 C 0.5696 0.81284 0.95887 0.0
C589 C 0.57348 0.82004 0.00077 0.0
C590 C 0.58445 0.77889 0.01429 0.0
C591 C 0.57502 0.76838 0.97395 0.0
N592 N 0.57279 0.78181 0.90467 0.0
N593 N 0.59634 0.81908 0.06406 0.0
C594 C 0.57276 0.78792 0.94506 0.0
C595 C 0.5852 0.80619 0.02694 0.0
N596 N 0.56051 0.82802 0.93318 0.0
N597 N 0.59056 0.76198 0.04107 0.0
H598 H 0.59698 0.83925 0.0732 0.0
H599 H 0.60732 0.81166 0.08392 0.0
H600 H 0.5935 0.74382 0.03227 0.0
H601 H 0.59291 0.76602 0.07222 0.0
H602 H 0.55357 0.82122 0.90337 0.0
H603 H 0.55904 0.84706 0.94218 0.0
H604 H 0.57324 0.7962 0.88166 0.0
H605 H 0.57539 0.76359 0.89458 0.0
C606 C 0.7309 0.50771 0.50211 0.0
C607 C 0.734 0.53712 0.50674 0.0
C608 C 0.78487 0.56092 0.47576 0.0
C609 C 0.78278 0.53177 0.47529 0.0
N610 N 0.75698 0.47879 0.49677 0.0
N611 N 0.76501 0.59222 0.50315 0.0
C612 C 0.7567 0.50554 0.49099 0.0
C613 C 0.76127 0.56396 0.4949 0.0
N614 N 0.703 0.48176 0.50691 0.0
N615 N 0.80874 0.58532 0.4568 0.0
H616 H 0.74805 0.59519 0.51687 0.0
H617 H 0.78564 0.6126 0.49918 0.0
H618 H 0.82647 0.58389 0.44269 0.0
H619 H 0.80979 0.60629 0.4524 0.0
H620 H 0.69893 0.45991 0.49959 0.0
H621 H 0.68312 0.4822 0.5141 0.0
H622 H 0.73968 0.45996 0.51206 0.0
H623 H 0.77593 0.47644 0.49024 0.0
C624 C 0.20425 0.77459 0.91874 0.0
C625 C 0.22225 0.80107 0.94239 0.0
C626 C 0.18804 0.77792 3e-05 0.0
C627 C 0.17536 0.74921 0.9799 0.0
N628 N 0.16809 0.71999 0.91857 0.0
N629 N 0.2201 0.83328 -0.0054 0.0
C630 C 0.18168 0.74758 0.93827 0.0
C631 C 0.21059 0.80459 0.97977 0.0
N632 N 0.20865 0.77581 0.87773 0.0
N633 N 0.1794 0.77927 0.03896 0.0
H634 H 0.2339 0.85292 0.97758 0.0
H635 H 0.21132 0.83758 0.0208 0.0
H636 H 0.16158 0.7603 0.05351 0.0
H637 H 0.19035 0.79874 0.05716 0.0
H638 H 0.19496 0.758 0.858 0.0
H639 H 0.22404 0.79626 0.86319 0.0
H640 H 0.17462 0.7168 0.88981 0.0
H641 H 0.15104 0.69978 0.93172 0.0
C642 C 0.45968 0.20095 0.45635 0.0
C643 C 0.43676 0.183 0.48485 0.0
C644 C 0.40913 0.2097 0.46765 0.0
C645 C 0.43529 0.2318 0.44605 0.0
N646 N 0.4879 0.25048 0.42477 0.0
N647 N 0.38906 0.16899 0.51801 0.0
C648 C 0.46103 0.22772 0.4408 0.0
C649 C 0.41096 0.18662 0.4902 0.0
N650 N 0.48058 0.1927 0.4449 0.0
N651 N 0.38265 0.21077 0.46629 0.0
H652 H 0.38942 0.15124 0.53384 0.0
H653 H 0.37149 0.17289 0.52677 0.0
H654 H 0.38062 0.22711 0.44922 0.0
H655 H 0.36207 0.19391 0.47875 0.0
H656 H 0.49609 0.20334 0.42126 0.0
H657 H 0.48013 0.1731 0.45616 0.0
H658 H 0.50809 0.24963 0.42483 0.0
H659 H 0.4914 0.27168 0.41526 0.0
C660 C 0.76145 0.50051 0.98272 0.0
C661 C 0.78682 0.5277 -0.00226 0.0
C662 C 0.76059 0.55631 0.98298 0.0
C663 C 0.73392 0.52823 0.97291 0.0
N664 N 0.70689 0.47277 0.97183 0.0
N665 N 0.80993 0.58098 0.01675 0.0
C666 C 0.73376 0.50007 0.9751 0.0
C667 C 0.78638 0.5556 -0.00103 0.0
N668 N 0.76407 0.47526 0.97485 0.0
N669 N 0.76162 0.58355 0.97604 0.0
H670 H 0.82934 0.58135 0.02825 0.0
H671 H 0.80928 0.60096 0.02262 0.0
H672 H 0.74314 0.58488 0.96434 0.0
H673 H 0.78151 0.60479 0.97882 0.0
H674 H 0.74714 0.45582 0.96013 0.0
H675 H 0.78441 0.47497 0.97905 0.0
H676 H 0.7052 0.45162 0.97732 0.0
H677 H 0.68568 0.47128 0.96802 0.0
C678 C 0.16576 0.77433 0.52715 0.0
C679 C 0.16199 0.77689 0.48486 0.0
C680 C 0.20455 0.82967 0.48546 0.0
C681 C 0.21328 0.82338 0.52343 0.0
N682 N 0.19512 0.79924 0.58806 0.0
N683 N 0.17323 0.80819 0.42517 0.0
C684 C 0.19127 0.79878 0.54699 0.0
C685 C 0.17955 0.80533 0.4647 0.0
N686 N 0.14675 0.74769 0.54719 0.0
N687 N 0.21952 0.85876 0.47023 0.0
H688 H 0.154 0.79095 0.41032 0.0
H689 H 0.18725 0.827 0.40702 0.0
H690 H 0.23566 0.87726 0.48733 0.0
H691 H 0.21333 0.86518 0.44343 0.0
H692 H 0.1506 0.74294 0.57665 0.0
H693 H 0.12721 0.72982 0.53393 0.0
H694 H 0.17913 0.78302 0.60785 0.0
H695 H 0.2133 0.81799 0.6025 0.0
C696 C 0.38546 0.18279 0.97318 0.0
C697 C 0.39943 0.1692 -0.00413 0.0
C698 C 0.40037 0.19801 0.05592 0.0
C699 C 0.39447 0.21689 0.03031 0.0
N700 N 0.36431 0.21679 0.97384 0.0
N701 N 0.4157 0.1596 0.06051 0.0
C702 C 0.38127 0.20584 -0.00825 0.0
C703 C 0.40447 0.17465 0.03824 0.0
N704 N 0.37775 0.17464 0.93351 0.0
N705 N 0.40219 0.20293 0.09684 0.0
H706 H 0.41832 0.14186 0.04872 0.0
H707 H 0.42331 0.16521 0.09032 0.0
H708 H 0.39819 0.21961 0.10953 0.0
H709 H 0.40456 0.18895 0.11803 0.0
H710 H 0.3708 0.18608 0.91375 0.0
H711 H 0.37914 0.15658 0.92015 0.0
H712 H 0.35283 0.20868 0.94639 0.0
H713 H 0.35862 0.23134 0.98924 0.0
C714 C 0.21899 0.4949 0.47387 0.0
C715 C 0.19368 0.46822 0.49006 0.0
C716 C 0.21716 0.43787 0.47046 0.0
C717 C 0.24431 0.46543 0.4601 0.0
N718 N 0.27306 0.521 0.45987 0.0
N719 N 0.16919 0.41455 0.50752 0.0
C720 C 0.24577 0.4942 0.46367 0.0
C721 C 0.1927 0.43962 0.48913 0.0
N722 N 0.21724 0.5208 0.46753 0.0
N723 N 0.21448 0.41014 0.46147 0.0
H724 H 0.1508 0.41497 0.52123 0.0
H725 H 0.16903 0.39399 0.51176 0.0
H726 H 0.23183 0.40809 0.44725 0.0
H727 H 0.19415 0.38934 0.4647 0.0
H728 H 0.23402 0.53991 0.45207 0.0
H729 H 0.19758 0.52198 0.47375 0.0
H730 H 0.27571 0.54241 0.46656 0.0
H731 H 0.29379 0.52184 0.45437 0.0
C732 C 0.77781 0.19269 0.94811 0.0
C733 C 0.80036 0.21518 0.97377 0.0
C734 C 0.76978 0.1876 0.03297 0.0
C735 C 0.74442 0.17076 0.007 0.0
N736 N 0.72407 0.15591 0.93904 0.0
N737 N 0.819 0.23342 0.04168 0.0
C738 C 0.74848 0.17214 0.96426 0.0
C739 C 0.7972 0.212 0.01662 0.0
N740 N 0.78449 0.19165 0.90815 0.0
N741 N 0.76732 0.18033 0.07329 0.0
H742 H 0.83992 0.25115 0.03142 0.0
H743 H 0.81576 0.23444 0.07275 0.0
H744 H 0.74739 0.16222 0.08565 0.0
H745 H 0.78577 0.19 0.0933 0.0
H746 H 0.76993 0.1743 0.88837 0.0
H747 H 0.80611 0.20658 0.8961 0.0
H748 H 0.72515 0.15911 0.90771 0.0
H749 H 0.70217 0.14041 0.94942 0.0
C750 C 0.57112 0.80377 0.48644 0.0
C751 C 0.5528 0.81483 0.50393 0.0
C752 C 0.55242 0.79091 0.56857 0.0
C753 C 0.56371 0.77403 0.54801 0.0
N754 N 0.59957 0.77726 0.49749 0.0
N755 N 0.52862 0.82218 0.56286 0.0
C756 C 0.57824 0.78456 0.50996 0.0
C757 C 0.54508 0.81025 0.54582 0.0
N758 N 0.58057 0.81071 0.44701 0.0
N759 N 0.54918 0.78842 0.60977 0.0
H760 H 0.52305 0.83672 0.5473 0.0
H761 H 0.51918 0.81656 0.59186 0.0
H762 H 0.55599 0.77525 0.6265 0.0
H763 H 0.54309 0.80164 0.62745 0.0
H764 H 0.59079 0.80045 0.43086 0.0
H765 H 0.57722 0.82623 0.42996 0.0
H766 H 0.61226 0.7855 0.47089 0.0
H767 H 0.6074 0.76618 0.51663 0.0
C768 C 0.39527 0.4174 0.08005 0.0
C769 C 0.37555 0.412 0.04655 0.0
C770 C 0.3967 0.38382 0.01178 0.0
C771 C 0.41395 0.38657 0.04714 0.0
N772 N 0.42468 0.40014 0.11804 0.0
N773 N 0.35415 0.38687 0.98276 0.0
C774 C 0.41181 0.40167 0.08221 0.0
C775 C 0.37534 0.39435 0.0129 0.0
N776 N 0.39942 0.43871 0.10887 0.0
N777 N 0.40151 0.37219 0.97684 0.0
H778 H 0.3382 0.39426 0.98268 0.0
H779 H 0.35076 0.3714 0.9596 0.0
H780 H 0.41703 0.36431 0.97494 0.0
H781 H 0.39202 0.37261 0.94897 0.0
H782 H 0.41594 0.44575 0.1316 0.0
H783 H 0.38878 0.45186 0.10764 0.0
H784 H 0.4208 0.40785 0.14556 0.0
H785 H 0.43676 0.38849 0.12121 0.0
C786 C 0.00629 0.41288 0.59661 0.0
C787 C 0.02109 0.42525 0.55897 0.0
C788 C 0.97332 0.39343 0.52212 0.0
C789 C 0.95834 0.38219 0.55991 0.0
N790 N 0.9607 0.37453 0.63157 0.0
N791 N 0.02124 0.42341 0.4858 0.0
C792 C 0.97498 0.38979 0.59672 0.0
C793 C 0.00544 0.41403 0.5216 0.0
N794 N 0.02204 0.42387 0.63222 0.0
N795 N 0.95652 0.38568 0.4871 0.0
H796 H 0.04455 0.43947 0.48433 0.0
H797 H 0.0119 0.41389 0.45769 0.0
H798 H 0.93322 0.36952 0.48624 0.0
H799 H 0.96519 0.39599 0.45912 0.0
H800 H 0.01185 0.41861 0.66078 0.0
H801 H 0.04546 0.43956 0.63329 0.0
H802 H 0.97193 0.37682 0.65894 0.0
H803 H 0.93771 0.35738 0.63223 0.0
C804 C 0.56593 0.97901 0.11793 0.0
C805 C 0.55423 0.96264 0.08107 0.0
C806 C 0.57216 0.01067 0.04365 0.0
C807 C 0.58423 0.02701 0.08039 0.0
N808 N 0.59766 0.0282 0.15082 0.0
N809 N 0.54928 0.96193 0.00812 0.0
C810 C 0.58258 0.01158 0.11712 0.0
C811 C 0.55845 0.97822 0.04362 0.0
N812 N 0.5607 0.96332 0.1537 0.0
N813 N 0.57268 0.02614 0.00923 0.0
H814 H 0.53763 0.93804 0.007 0.0
H815 H 0.55474 0.97195 0.97945 0.0
H816 H 0.58345 0.05 0.00778 0.0
H817 H 0.56104 0.01552 0.98267 0.0
H818 H 0.56535 0.97363 0.18219 0.0
H819 H 0.55024 0.93947 0.15517 0.0
H820 H 0.60006 0.01856 0.1775 0.0
H821 H 0.60991 0.05213 0.15124 0.0
C822 C 0.58994 0.58866 0.53429 0.0
C823 C 0.60184 0.58384 0.57072 0.0
C824 C 0.58356 0.61282 0.6096 0.0
C825 C 0.57037 0.61638 0.57358 0.0
N826 N 0.56673 0.61494 0.50069 0.0
N827 N 0.61732 0.59733 0.64034 0.0
C828 C 0.57564 0.6068 0.53547 0.0
C829 C 0.60112 0.59806 0.60752 0.0
N830 N 0.59083 0.57451 0.49931 0.0
N831 N 0.57804 0.62229 0.64595 0.0
H832 H 0.63024 0.58644 0.63952 0.0
H833 H 0.62012 0.60951 0.66704 0.0
H834 H 0.56635 0.6344 0.64821 0.0
H835 H 0.58373 0.61703 0.67401 0.0
H836 H 0.57951 0.57414 0.47274 0.0
H837 H 0.60188 0.56176 0.49739 0.0
H838 H 0.57195 0.61084 0.47163 0.0
H839 H 0.55618 0.62822 0.50099 0.0
C840 C 0.97892 0.57147 0.03052 0.0
C841 C 0.96205 0.56687 0.06677 0.0
C842 C 0.00907 0.60091 0.10386 0.0
C843 C 0.02613 0.60167 0.06929 0.0
N844 N 0.02843 0.58753 -5e-05 0.0
N845 N 0.95984 0.57681 0.13793 0.0
C846 C 0.0114 0.58737 0.03238 0.0
C847 C 0.97677 0.5818 0.10339 0.0
N848 N 0.96382 0.56028 -0.00543 0.0
N849 N 0.02388 0.61879 0.1368 0.0
H850 H 0.93598 0.56424 0.13808 0.0
H851 H 0.96929 0.58391 0.16672 0.0
H852 H 0.0476 0.63297 0.1379 0.0
H853 H 0.01274 0.62155 0.16162 0.0
H854 H 0.97464 0.56529 0.96641 0.0
H855 H 0.94001 0.54785 -0.00751 0.0
H856 H 0.01908 0.57452 0.97382 0.0
H857 H 0.0523 0.59938 -2e-05 0.0
C858 C 0.42042 0.0128 0.53068 0.0
C859 C 0.41797 0.02525 0.56817 0.0
C860 C 0.37824 0.97463 0.5912 0.0
C861 C 0.38357 0.96164 0.55605 0.0
N862 N 0.40802 0.96725 0.49135 0.0
N863 N 0.39598 0.01921 0.63482 0.0
C864 C 0.40405 0.98047 0.52532 0.0
C865 C 0.39705 0.00654 0.59852 0.0
N866 N 0.43828 0.03198 0.5003 0.0
N867 N 0.35511 0.95649 0.61738 0.0
H868 H 0.40849 0.04274 0.64049 0.0
H869 H 0.3841 0.00644 0.66016 0.0
H870 H 0.34109 0.93293 0.61343 0.0
H871 H 0.34808 0.96496 0.64135 0.0
H872 H 0.43906 0.02481 0.47093 0.0
H873 H 0.45112 0.05575 0.5036 0.0
H874 H 0.42524 0.97891 0.47001 0.0
H875 H 0.39424 0.94398 0.48491 0.0
C876 C 0.55933 0.58132 0.97946 0.0
C877 C 0.56435 0.60404 0.95027 0.0
C878 C 0.60594 0.59901 0.92014 0.0
C879 C 0.59683 0.57256 0.94416 0.0
N880 N 0.56603 0.53837 -0.00245 0.0
N881 N 0.59178 0.63444 0.89174 0.0
C882 C 0.57416 0.56393 0.97458 0.0
C883 C 0.58799 0.61346 0.92084 0.0
N884 N 0.54058 0.5767 0.01188 0.0
N885 N 0.63135 0.60982 0.8961 0.0
H886 H 0.57925 0.64572 0.89109 0.0
H887 H 0.60594 0.63931 0.86655 0.0
H888 H 0.6446 0.59929 0.89464 0.0
H889 H 0.6409 0.63061 0.88059 0.0
H890 H 0.53786 0.56228 0.0361 0.0
H891 H 0.52978 0.58952 0.01634 0.0
H892 H 0.54713 0.52856 0.0168 0.0
H893 H 0.57765 0.52614 -0.00401 0.0
C894 C 0.9719 0.58176 0.44292 0.0
C895 C 0.95497 0.57257 0.40624 0.0
C896 C 0.00056 0.60728 0.36703 0.0
C897 C 0.01769 0.61585 0.40355 0.0
N898 N 0.01953 0.61696 0.47675 0.0
N899 N 0.95052 0.58091 0.33512 0.0
C900 C 0.00321 0.6051 0.44175 0.0
C901 C 0.96851 0.58678 0.36877 0.0
N902 N 0.95847 0.56695 0.47837 0.0
N903 N 0.0152 0.61812 0.33069 0.0
H904 H 0.92693 0.56585 0.33549 0.0
H905 H 0.95832 0.5926 0.30774 0.0
H906 H 0.03834 0.63471 0.32862 0.0
H907 H 0.00489 0.60993 0.30258 0.0
H908 H 0.97038 0.56991 0.50534 0.0
H909 H 0.93542 0.55013 0.4804 0.0
H910 H 0.00974 0.61229 0.50555 0.0
H911 H 0.0427 0.63352 0.47696 0.0
C912 C 0.41413 0.0101 0.95544 0.0
C913 C 0.41264 0.02511 0.91988 0.0
C914 C 0.37789 0.97574 0.88816 0.0
C915 C 0.38317 0.96087 0.92111 0.0
N916 N 0.4052 0.96268 0.98662 0.0
N917 N 0.39392 0.02346 0.8521 0.0
C918 C 0.40078 0.97771 0.95512 0.0
C919 C 0.39443 0.00828 0.88628 0.0
N920 N 0.428 0.02689 0.98952 0.0
N921 N 0.35707 0.95872 0.85882 0.0
H922 H 0.40482 0.04733 0.85037 0.0
H923 H 0.38413 0.01265 0.82474 0.0
H924 H 0.3447 0.93482 0.85923 0.0
H925 H 0.3501 0.96808 0.83592 0.0
H926 H 0.42766 0.01728 0.01761 0.0
H927 H 0.43786 0.05068 0.99061 0.0
H928 H 0.42086 0.97365 0.00995 0.0
H929 H 0.39378 0.93883 0.98867 0.0
C930 C 0.3597 0.38234 0.41322 0.0
C931 C 0.3674 0.40509 0.44346 0.0
C932 C 0.40087 0.39006 0.4771 0.0
C933 C 0.39686 0.37085 0.44353 0.0
N934 N 0.36626 0.34073 0.38738 0.0
N935 N 0.38693 0.42467 0.50986 0.0
C936 C 0.37371 0.36396 0.41447 0.0
C937 C 0.38497 0.40663 0.47771 0.0
N938 N 0.34088 0.38007 0.38196 0.0
N939 N 0.42127 0.39359 0.5068 0.0
H940 H 0.37508 0.43671 0.51037 0.0
H941 H 0.39825 0.4261 0.53685 0.0
H942 H 0.43203 0.38049 0.50731 0.0
H943 H 0.42779 0.40935 0.53041 0.0
H944 H 0.3369 0.36646 0.35637 0.0
H945 H 0.32959 0.39263 0.38125 0.0
H946 H 0.34841 0.33314 0.3666 0.0
H947 H 0.37663 0.32729 0.38803 0.0
C948 C 0.01332 0.40339 0.96088 0.0
C949 C 0.03115 0.40403 0.92724 0.0
C950 C 0.98531 0.36545 0.8918 0.0
C951 C 0.96741 0.36664 0.92408 0.0
N952 N 0.9633 0.37948 -0.00679 0.0
N953 N 0.036 0.38094 0.86563 0.0
C954 C 0.98118 0.38316 0.9601 0.0
C955 C 0.01773 0.38318 0.89447 0.0
N956 N 0.02715 0.42303 -0.00732 0.0
N957 N 0.97115 0.34872 0.8578 0.0
H958 H 0.05981 0.39409 0.86638 0.0
H959 H 0.02793 0.36454 0.84269 0.0
H960 H 0.94745 0.33455 0.85585 0.0
H961 H 0.98251 0.3496 0.83104 0.0
H962 H 0.01533 0.4265 0.01604 0.0
H963 H 0.05088 0.43677 -0.00496 0.0
H964 H 0.97188 0.3891 0.02154 0.0
H965 H 0.93968 0.36452 -0.00682 0.0
C966 C 0.55417 0.97129 0.44348 0.0
C967 C 0.54921 0.95659 0.40522 0.0
C968 C 0.58042 0.00615 0.37171 0.0
C969 C 0.58643 0.02069 0.41021 0.0
N970 N 0.58414 0.01738 0.4833 0.0
N971 N 0.56205 0.95863 0.3343 0.0
C972 C 0.57501 0.0033 0.44633 0.0
C973 C 0.56361 0.97363 0.36965 0.0
N974 N 0.53776 0.95496 0.47665 0.0
N975 N 0.59036 0.0235 0.33715 0.0
H976 H 0.55011 0.93476 0.3318 0.0
H977 H 0.57463 0.96957 0.3084 0.0
H978 H 0.604 0.04735 0.33758 0.0
H979 H 0.58367 0.01451 0.30805 0.0
H980 H 0.53774 0.96501 0.50427 0.0
H981 H 0.52207 0.93149 0.47578 0.0
H982 H 0.57917 0.00551 0.51069 0.0
H983 H 0.59893 0.04092 0.48653 0.0
C984 C 0.44936 0.5919 0.04901 0.0
C985 C 0.44538 0.61168 0.02203 0.0
C986 C 0.39063 0.57419 0.01718 0.0
C987 C 0.39447 0.55504 0.04535 0.0
N988 N 0.42516 0.55142 0.09883 0.0
N989 N 0.41075 0.62592 -0.00801 0.0
C990 C 0.42308 0.56587 0.0649 0.0
C991 C 0.41544 0.60425 0.01016 0.0
N992 N 0.47776 0.59615 0.05721 0.0
N993 N 0.36444 0.5633 -0.00524 0.0
H994 H 0.42843 0.64841 0.98736 0.0
H995 H 0.389 0.62248 0.98583 0.0
H996 H 0.34603 0.54103 -0.00294 0.0
H997 H 0.3622 0.57556 0.97084 0.0
H998 H 0.48101 0.5801 0.07305 0.0
H999 H 0.49797 0.61382 0.04516 0.0
H1000 H 0.44507 0.56003 0.11613 0.0
H1001 H 0.40607 0.53297 0.11226 0.0
C1002 C 0.86481 0.39946 0.48316 0.0
C1003 C 0.83623 0.37226 0.48967 0.0
C1004 C 0.80929 0.40072 0.47798 0.0
C1005 C 0.83768 0.42718 0.46868 0.0
N1006 N 0.89181 0.45073 0.45513 0.0
N1007 N 0.78112 0.34554 0.48802 0.0
C1008 C 0.86526 0.42628 0.46919 0.0
C1009 C 0.80838 0.37249 0.48565 0.0
N1010 N 0.89159 0.40023 0.49224 0.0
N1011 N 0.78339 0.40285 0.48053 0.0
H1012 H 0.7797 0.32448 0.4935 0.0
H1013 H 0.76006 0.34356 0.48133 0.0
H1014 H 0.78328 0.42316 0.47474 0.0
H1015 H 0.76253 0.3853 0.49132 0.0
H1016 H 0.91277 0.42036 0.49312 0.0
H1017 H 0.89259 0.3812 0.50224 0.0
H1018 H 0.91172 0.4499 0.44988 0.0
H1019 H 0.89342 0.47121 0.44555 0.0
C1020 C 0.38274 0.80619 0.98882 0.0
C1021 C 0.38175 0.83358 0.98351 0.0
C1022 C 0.43503 0.86415 0.00579 0.0
C1023 C 0.43703 0.83706 0.00702 0.0
N1024 N 0.41412 0.78253 -0.0028 0.0
N1025 N 0.40755 0.88893 0.98219 0.0
C1026 C 0.41116 0.80805 -0.00187 0.0
C1027 C 0.40799 0.86264 0.99097 0.0
N1028 N 0.35636 0.77849 0.98558 0.0
N1029 N 0.4586 0.89121 0.02011 0.0
H1030 H 0.38794 0.88903 0.97281 0.0
H1031 H 0.4271 0.91058 0.98144 0.0
H1032 H 0.47913 0.8936 0.03049 0.0
H1033 H 0.45696 0.91077 0.02485 0.0
H1034 H 0.35473 0.75762 -0.00721 0.0
H1035 H 0.33529 0.77655 0.97869 0.0
H1036 H 0.39712 0.76119 0.9869 0.0
H1037 H 0.43456 0.78312 0.00417 0.0
C1038 C 0.53569 0.39358 0.52068 0.0
C1039 C 0.54092 0.38574 0.48136 0.0
C1040 C 0.59255 0.43047 0.48067 0.0
C1041 C 0.58729 0.43851 0.52007 0.0
N1042 N 0.5572 0.42257 0.58207 0.0
N1043 N 0.57557 0.39204 0.42725 0.0
C1044 C 0.56009 0.41832 0.54168 0.0
C1045 C 0.56982 0.40277 0.46238 0.0
N1046 N 0.50685 0.37884 0.53695 0.0
N1047 N 0.6192 0.44949 0.46063 0.0
H1048 H 0.55926 0.37171 0.41338 0.0
H1049 H 0.597 0.40167 0.41361 0.0
H1050 H 0.63755 0.46844 0.4743 0.0
H1051 H 0.62287 0.4472 0.43004 0.0
H1052 H 0.5008 0.38639 0.5629 0.0
H1053 H 0.48812 0.36053 0.52284 0.0
H1054 H 0.53934 0.40642 0.59993 0.0
H1055 H 0.57384 0.44047 0.5991 0.0
C1056 C 0.18049 0.57278 0.99041 0.0
C1057 C 0.15322 0.54413 0.98596 0.0
C1058 C 0.12299 0.56618 0.01177 0.0
C1059 C 0.14972 0.59561 0.01137 0.0
N1060 N 0.2037 0.62792 -0.00146 0.0
N1061 N 0.09808 0.51353 0.98864 0.0
C1062 C 0.17853 0.59919 0.00062 0.0
C1063 C 0.12435 0.54072 -0.00404 0.0
N1064 N 0.20818 0.5745 0.98532 0.0
N1065 N 0.0965 0.5624 0.02841 0.0
H1066 H 0.09797 0.49392 0.97837 0.0
H1067 H 0.07628 0.51087 0.99012 0.0
H1068 H 0.09453 0.58049 0.04021 0.0
H1069 H 0.07725 0.54104 0.03381 0.0
H1070 H 0.22907 0.59398 -0.00822 0.0
H1071 H 0.21017 0.55547 0.97772 0.0
H1072 H 0.22468 0.63249 0.98668 0.0
H1073 H 0.20312 0.6477 0.00629 0.0
C1074 C 0.5792 0.17206 0.51914 0.0
C1075 C 0.5512 0.14413 0.52412 0.0
C1076 C 0.57588 0.11483 0.50479 0.0
C1077 C 0.60426 0.14266 0.50154 0.0
N1078 N 0.63447 0.19721 0.51204 0.0
N1079 N 0.52439 0.08901 0.5314 0.0
C1080 C 0.60638 0.17116 0.51074 0.0
C1081 C 0.54999 0.11553 0.51986 0.0
N1082 N 0.57955 0.19935 0.52077 0.0
N1083 N 0.5731 0.08784 0.49147 0.0
H1084 H 0.50487 0.08845 0.54263 0.0
H1085 H 0.5235 0.06795 0.53348 0.0
H1086 H 0.59139 0.08591 0.4806 0.0
H1087 H 0.55214 0.06771 0.48807 0.0
H1088 H 0.59849 0.22033 0.51301 0.0
H1089 H 0.5601 0.20084 0.52712 0.0
H1090 H 0.638 0.21827 0.52236 0.0
H1091 H 0.65474 0.19718 0.50602 0.0
C1092 C 0.52119 0.39699 0.96569 0.0
C1093 C 0.5245 0.37098 0.97287 0.0
C1094 C 0.57948 0.40133 0.9587 0.0
C1095 C 0.57622 0.42739 0.95244 0.0
N1096 N 0.5441 0.44958 0.94245 0.0
N1097 N 0.5544 0.34611 0.9686 0.0
C1098 C 0.54705 0.42501 0.95344 0.0
C1099 C 0.55298 0.37248 0.96685 0.0
N1100 N 0.49377 0.39543 0.9729 0.0
N1101 N 0.60802 0.40454 0.95841 0.0
H1102 H 0.53514 0.32473 0.97421 0.0
H1103 H 0.57378 0.34484 0.96131 0.0
H1104 H 0.62778 0.42524 0.95161 0.0
H1105 H 0.61253 0.38733 0.96696 0.0
H1106 H 0.4909 0.41448 0.97395 0.0
H1107 H 0.47378 0.37517 0.97992 0.0
H1108 H 0.52319 0.44838 0.93741 0.0
H1109 H 0.56275 0.47106 0.93572 0.0
C1110 C 0.10881 0.59646 0.48337 0.0
C1111 C 0.13714 0.62426 0.47877 0.0
C1112 C 0.16509 0.59696 0.49114 0.0
C1113 C 0.13687 0.56983 0.4987 0.0
N1114 N 0.08227 0.54469 0.50961 0.0
N1115 N 0.19216 0.65234 0.48398 0.0
C1116 C 0.10883 0.56981 0.49695 0.0
C1117 C 0.16531 0.62489 0.48422 0.0
N1118 N 0.08191 0.59498 0.47289 0.0
N1119 N 0.19154 0.59576 0.4895 0.0
H1120 H 0.19308 0.67326 0.47927 0.0
H1121 H 0.21323 0.65476 0.49184 0.0
H1122 H 0.19214 0.57563 0.49461 0.0
H1123 H 0.21243 0.61397 0.47993 0.0
H1124 H 0.06116 0.57448 0.47058 0.0
H1125 H 0.08046 0.61383 0.46318 0.0
H1126 H 0.06191 0.54481 0.51399 0.0
H1127 H 0.081 0.52434 0.51898 0.0
C1128 C 0.58882 0.17835 -0.00156 0.0
C1129 C 0.58798 0.15024 0.00599 0.0
C1130 C 0.53344 0.12158 0.98932 0.0
C1131 C 0.53359 0.14969 0.98513 0.0
N1132 N 0.5601 0.20482 0.9899 0.0
N1133 N 0.5586 0.09537 0.01609 0.0
C1134 C 0.56097 0.17814 0.99075 0.0
C1135 C 0.56006 0.12192 0.00343 0.0
N1136 N 0.61634 0.2051 -0.00238 0.0
N1137 N 0.50826 0.09455 0.97818 0.0
H1138 H 0.57758 0.09437 0.02622 0.0
H1139 H 0.53813 0.07477 0.01984 0.0
H1140 H 0.48811 0.09308 0.96792 0.0
H1141 H 0.5082 0.07391 0.97571 0.0
H1142 H 0.61898 0.22601 0.98825 0.0
H1143 H 0.63708 0.20597 0.00339 0.0
H1144 H 0.57852 0.2261 -0.00214 0.0
H1145 H 0.54009 0.20541 0.98415 0.0
C1146 C 0.45384 0.58914 0.4945 0.0
C1147 C 0.44919 0.61432 0.50177 0.0
C1148 C 0.39547 0.5834 0.48138 0.0
C1149 C 0.40031 0.5585 0.47342 0.0
N1150 N 0.43419 0.538 0.46705 0.0
N1151 N 0.41793 0.63772 0.49638 0.0
C1152 C 0.42956 0.5615 0.47836 0.0
C1153 C 0.42063 0.61211 0.49348 0.0
N1154 N 0.48104 0.59118 0.50477 0.0
N1155 N 0.3666 0.57921 0.47854 0.0
H1156 H 0.4361 0.65906 0.50503 0.0
H1157 H 0.39868 0.63862 0.48723 0.0
H1158 H 0.34781 0.55859 0.46911 0.0
H1159 H 0.36071 0.59529 0.48793 0.0
H1160 H 0.48456 0.57254 0.50569 0.0
H1161 H 0.50001 0.61142 0.51451 0.0
H1162 H 0.45568 0.54004 0.46468 0.0
H1163 H 0.41655 0.51661 0.45771 0.0
C1164 C 0.87506 0.40176 0.98923 0.0
C1165 C 0.84693 0.37412 0.98293 0.0
C1166 C 0.81844 0.40078 -0.00398 0.0
C1167 C 0.84646 0.42788 0.00458 0.0
N1168 N 0.90083 0.45302 0.01735 0.0
N1169 N 0.79186 0.34561 0.98632 0.0
C1170 C 0.87462 0.42807 0.00349 0.0
C1171 C 0.81857 0.37314 0.98808 0.0
N1172 N 0.90219 0.40336 0.97979 0.0
N1173 N 0.79189 0.40178 -0.0058 0.0
H1174 H 0.79125 0.32493 0.98066 0.0
H1175 H 0.77057 0.34279 -0.0062 0.0
H1176 H 0.79099 0.42166 9e-05 0.0
H1177 H 0.77121 0.38368 0.98388 0.0
H1178 H 0.92305 0.42383 0.97879 0.0
H1179 H 0.90376 0.3846 0.96985 0.0
H1180 H 0.92123 0.45304 0.02194 0.0
H1181 H 0.90166 0.47301 0.02753 0.0
C1182 C 0.39118 0.80315 0.46485 0.0
C1183 C 0.41869 0.83153 0.45955 0.0
C1184 C 0.3915 0.8596 0.47125 0.0
C1185 C 0.36383 0.83127 0.47631 0.0
N1186 N 0.33567 0.77631 0.47075 0.0
N1187 N 0.44383 0.8861 0.44753 0.0
C1188 C 0.36318 0.80306 0.47071 0.0
C1189 C 0.41845 0.85954 0.45959 0.0
N1190 N 0.3921 0.7765 0.46594 0.0
N1191 N 0.3926 0.88665 0.47996 0.0
H1192 H 0.46432 0.88725 0.43957 0.0
H1193 H 0.44384 0.90645 0.442 0.0
H1194 H 0.37337 0.88822 0.48715 0.0
H1195 H 0.41299 0.90743 0.48291 0.0
H1196 H 0.37353 0.75533 0.4739 0.0
H1197 H 0.41218 0.77581 0.46129 0.0
H1198 H 0.33304 0.75503 0.46344 0.0
H1199 H 0.31493 0.77583 0.47482 0.0
loop_
_geom_bond_atom_site_label_1
_geom_bond_atom_site_label_2
_geom_bond_distance
_geom_bond_site_symmetry_2
_ccdc_geom_bond_type
C0 O1 1.306 . S
C0 O3 1.160 . S
O1 C0 1.306 . S
O1 Cd2 2.228 . S
Cd2 O1 2.228 . S
Cd2 O6 2.273 . S
Cd2 O10 2.277 . S
O3 C0 1.160 . S
O3 Cd4 2.203 . S
Cd4 O3 2.203 . S
Cd4 O6 2.411 . S
Cd4 O7 2.333 . S
Cd4 O8 2.352 . S
Cd4 O12 2.277 . S
Cd4 O13 2.356 . S
C5 O10 1.209 . S
C5 O12 1.226 . S
O6 Cd2 2.273 . S
O6 Cd4 2.411 . S
O6 C9 1.320 . S
O7 Cd4 2.333 . S
O7 C9 1.214 . S
O8 Cd4 2.352 . S
O8 C11 1.258 . S
C9 O6 1.320 . S
C9 O7 1.214 . S
O10 Cd2 2.277 . S
O10 C5 1.209 . S
C11 O8 1.258 . S
C11 O13 1.282 . S
O12 Cd4 2.277 . S
O12 C5 1.226 . S
O13 Cd4 2.356 . S
O13 C11 1.282 . S
C14 O15 1.306 . S
C14 O17 1.160 . S
O15 C14 1.306 . S
O15 Cd16 2.228 . S
Cd16 O15 2.228 . S
Cd16 O20 2.273 . S
Cd16 O24 2.277 . S
O17 C14 1.160 . S
O17 Cd18 2.203 . S
Cd18 O17 2.203 . S
Cd18 O20 2.411 . S
Cd18 O21 2.333 . S
Cd18 O22 2.352 . S
Cd18 O26 2.277 . S
Cd18 O27 2.356 . S
C19 O24 1.209 . S
C19 O26 1.226 . S
O20 Cd16 2.273 . S
O20 Cd18 2.411 . S
O20 C23 1.320 . S
O21 Cd18 2.333 . S
O21 C23 1.214 . S
O22 Cd18 2.352 . S
O22 C25 1.258 . S
C23 O20 1.320 . S
C23 O21 1.214 . S
O24 Cd16 2.277 . S
O24 C19 1.209 . S
C25 O22 1.258 . S
C25 O27 1.282 . S
O26 Cd18 2.277 . S
O26 C19 1.226 . S
O27 Cd18 2.356 . S
O27 C25 1.282 . S
C28 O29 1.306 . S
C28 O31 1.160 . S
O29 C28 1.306 . S
O29 Cd30 2.228 . S
Cd30 O29 2.228 . S
Cd30 O34 2.273 . S
Cd30 O38 2.277 . S
O31 C28 1.160 . S
O31 Cd32 2.203 . S
Cd32 O31 2.203 . S
Cd32 O34 2.411 . S
Cd32 O35 2.333 . S
Cd32 O36 2.352 . S
Cd32 O40 2.277 . S
Cd32 O41 2.356 . S
C33 O38 1.209 . S
C33 O40 1.226 . S
O34 Cd30 2.273 . S
O34 Cd32 2.411 . S
O34 C37 1.320 . S
O35 Cd32 2.333 . S
O35 C37 1.214 . S
O36 Cd32 2.352 . S
O36 C39 1.258 . S
C37 O34 1.320 . S
C37 O35 1.214 . S
O38 Cd30 2.277 . S
O38 C33 1.209 . S
C39 O36 1.258 . S
C39 O41 1.282 . S
O40 Cd32 2.277 . S
O40 C33 1.226 . S
O41 Cd32 2.356 . S
O41 C39 1.282 . S
C42 O43 1.306 . S
C42 O45 1.160 . S
O43 C42 1.306 . S
O43 Cd44 2.228 . S
Cd44 O43 2.228 . S
Cd44 O48 2.273 . S
Cd44 O52 2.277 . S
O45 C42 1.160 . S
O45 Cd46 2.203 . S
Cd46 O45 2.203 . S
Cd46 O48 2.411 . S
Cd46 O49 2.333 . S
Cd46 O50 2.352 . S
Cd46 O54 2.277 . S
Cd46 O55 2.356 . S
C47 O52 1.209 . S
C47 O54 1.226 . S
O48 Cd44 2.273 . S
O48 Cd46 2.411 . S
O48 C51 1.320 . S
O49 Cd46 2.333 . S
O49 C51 1.214 . S
O50 Cd46 2.352 . S
O50 C53 1.258 . S
C51 O48 1.320 . S
C51 O49 1.214 . S
O52 Cd44 2.277 . S
O52 C47 1.209 . S
C53 O50 1.258 . S
C53 O55 1.282 . S
O54 Cd46 2.277 . S
O54 C47 1.226 . S
O55 Cd46 2.356 . S
O55 C53 1.282 . S
C56 O57 1.306 . S
C56 O59 1.160 . S
O57 C56 1.306 . S
O57 Cd58 2.228 . S
Cd58 O57 2.228 . S
Cd58 O62 2.273 . S
Cd58 O66 2.277 . S
O59 C56 1.160 . S
O59 Cd60 2.203 . S
Cd60 O59 2.203 . S
Cd60 O62 2.411 . S
Cd60 O63 2.333 . S
Cd60 O64 2.352 . S
Cd60 O68 2.277 . S
Cd60 O69 2.356 . S
C61 O66 1.209 . S
C61 O68 1.226 . S
O62 Cd58 2.273 . S
O62 Cd60 2.411 . S
O62 C65 1.320 . S
O63 Cd60 2.333 . S
O63 C65 1.214 . S
O64 Cd60 2.352 . S
O64 C67 1.258 . S
C65 O62 1.320 . S
C65 O63 1.214 . S
O66 Cd58 2.277 . S
O66 C61 1.209 . S
C67 O64 1.258 . S
C67 O69 1.282 . S
O68 Cd60 2.277 . S
O68 C61 1.226 . S
O69 Cd60 2.356 . S
O69 C67 1.282 . S
C70 O71 1.306 . S
C70 O73 1.160 . S
O71 C70 1.306 . S
O71 Cd72 2.228 . S
Cd72 O71 2.228 . S
Cd72 O76 2.273 . S
Cd72 O80 2.277 . S
O73 C70 1.160 . S
O73 Cd74 2.203 . S
Cd74 O73 2.203 . S
Cd74 O76 2.411 . S
Cd74 O77 2.333 . S
Cd74 O78 2.352 . S
Cd74 O82 2.277 . S
Cd74 O83 2.356 . S
C75 O80 1.209 . S
C75 O82 1.226 . S
O76 Cd72 2.273 . S
O76 Cd74 2.411 . S
O76 C79 1.320 . S
O77 Cd74 2.333 . S
O77 C79 1.214 . S
O78 Cd74 2.352 . S
O78 C81 1.258 . S
C79 O76 1.320 . S
C79 O77 1.214 . S
O80 Cd72 2.277 . S
O80 C75 1.209 . S
C81 O78 1.258 . S
C81 O83 1.282 . S
O82 Cd74 2.277 . S
O82 C75 1.226 . S
O83 Cd74 2.356 . S
O83 C81 1.282 . S
C84 O85 1.306 . S
C84 O87 1.160 . S
O85 C84 1.306 . S
O85 Cd86 2.228 . S
Cd86 O85 2.228 . S
Cd86 O90 2.273 . S
Cd86 O94 2.277 . S
O87 C84 1.160 . S
O87 Cd88 2.203 . S
Cd88 O87 2.203 . S
Cd88 O90 2.411 . S
Cd88 O91 2.333 . S
Cd88 O92 2.352 . S
Cd88 O96 2.277 . S
Cd88 O97 2.356 . S
C89 O94 1.209 . S
C89 O96 1.226 . S
O90 Cd86 2.273 . S
O90 Cd88 2.411 . S
O90 C93 1.320 . S
O91 Cd88 2.333 . S
O91 C93 1.214 . S
O92 Cd88 2.352 . S
O92 C95 1.258 . S
C93 O90 1.320 . S
C93 O91 1.214 . S
O94 Cd86 2.277 . S
O94 C89 1.209 . S
C95 O92 1.258 . S
C95 O97 1.282 . S
O96 Cd88 2.277 . S
O96 C89 1.226 . S
O97 Cd88 2.356 . S
O97 C95 1.282 . S
C98 O99 1.306 . S
C98 O101 1.160 . S
O99 C98 1.306 . S
O99 Cd100 2.228 . S
Cd100 O99 2.228 . S
Cd100 O104 2.273 . S
Cd100 O108 2.277 . S
O101 C98 1.160 . S
O101 Cd102 2.203 . S
Cd102 O101 2.203 . S
Cd102 O104 2.411 . S
Cd102 O105 2.333 . S
Cd102 O106 2.352 . S
Cd102 O110 2.277 . S
Cd102 O111 2.356 . S
C103 O108 1.209 . S
C103 O110 1.226 . S
O104 Cd100 2.273 . S
O104 Cd102 2.411 . S
O104 C107 1.320 . S
O105 Cd102 2.333 . S
O105 C107 1.214 . S
O106 Cd102 2.352 . S
O106 C109 1.258 . S
C107 O104 1.320 . S
C107 O105 1.214 . S
O108 Cd100 2.277 . S
O108 C103 1.209 . S
C109 O106 1.258 . S
C109 O111 1.282 . S
O110 Cd102 2.277 . S
O110 C103 1.226 . S
O111 Cd102 2.356 . S
O111 C109 1.282 . S
C112 O113 1.306 . S
C112 O115 1.160 . S
O113 C112 1.306 . S
O113 Cd114 2.228 . S
Cd114 O113 2.228 . S
Cd114 O118 2.273 . S
Cd114 O122 2.277 . S
O115 C112 1.160 . S
O115 Cd116 2.203 . S
Cd116 O115 2.203 . S
Cd116 O118 2.411 . S
Cd116 O119 2.333 . S
Cd116 O120 2.352 . S
Cd116 O124 2.277 . S
Cd116 O125 2.356 . S
C117 O122 1.209 . S
C117 O124 1.226 . S
O118 Cd114 2.273 . S
O118 Cd116 2.411 . S
O118 C121 1.320 . S
O119 Cd116 2.333 . S
O119 C121 1.214 . S
O120 Cd116 2.352 . S
O120 C123 1.258 . S
C121 O118 1.320 . S
C121 O119 1.214 . S
O122 Cd114 2.277 . S
O122 C117 1.209 . S
C123 O120 1.258 . S
C123 O125 1.282 . S
O124 Cd116 2.277 . S
O124 C117 1.226 . S
O125 Cd116 2.356 . S
O125 C123 1.282 . S
C126 O127 1.306 . S
C126 O129 1.160 . S
O127 C126 1.306 . S
O127 Cd128 2.228 . S
Cd128 O127 2.228 . S
Cd128 O132 2.273 . S
Cd128 O136 2.277 . S
O129 C126 1.160 . S
O129 Cd130 2.203 . S
Cd130 O129 2.203 . S
Cd130 O132 2.411 . S
Cd130 O133 2.333 . S
Cd130 O134 2.352 . S
Cd130 O138 2.277 . S
Cd130 O139 2.356 . S
C131 O136 1.209 . S
C131 O138 1.226 . S
O132 Cd128 2.273 . S
O132 Cd130 2.411 . S
O132 C135 1.320 . S
O133 Cd130 2.333 . S
O133 C135 1.214 . S
O134 Cd130 2.352 . S
O134 C137 1.258 . S
C135 O132 1.320 . S
C135 O133 1.214 . S
O136 Cd128 2.277 . S
O136 C131 1.209 . S
C137 O134 1.258 . S
C137 O139 1.282 . S
O138 Cd130 2.277 . S
O138 C131 1.226 . S
O139 Cd130 2.356 . S
O139 C137 1.282 . S
C140 O141 1.306 . S
C140 O143 1.160 . S
O141 C140 1.306 . S
O141 Cd142 2.228 . S
Cd142 O141 2.228 . S
Cd142 O146 2.273 . S
Cd142 O150 2.277 . S
O143 C140 1.160 . S
O143 Cd144 2.203 . S
Cd144 O143 2.203 . S
Cd144 O146 2.411 . S
Cd144 O147 2.333 . S
Cd144 O148 2.352 . S
Cd144 O152 2.277 . S
Cd144 O153 2.356 . S
C145 O150 1.209 . S
C145 O152 1.226 . S
O146 Cd142 2.273 . S
O146 Cd144 2.411 . S
O146 C149 1.320 . S
O147 Cd144 2.333 . S
O147 C149 1.214 . S
O148 Cd144 2.352 . S
O148 C151 1.258 . S
C149 O146 1.320 . S
C149 O147 1.214 . S
O150 Cd142 2.277 . S
O150 C145 1.209 . S
C151 O148 1.258 . S
C151 O153 1.282 . S
O152 Cd144 2.277 . S
O152 C145 1.226 . S
O153 Cd144 2.356 . S
O153 C151 1.282 . S
C154 O155 1.306 . S
C154 O157 1.160 . S
O155 C154 1.306 . S
O155 Cd156 2.228 . S
Cd156 O155 2.228 . S
Cd156 O160 2.273 . S
Cd156 O164 2.277 . S
O157 C154 1.160 . S
O157 Cd158 2.203 . S
Cd158 O157 2.203 . S
Cd158 O160 2.411 . S
Cd158 O161 2.333 . S
Cd158 O162 2.352 . S
Cd158 O166 2.277 . S
Cd158 O167 2.356 . S
C159 O164 1.209 . S
C159 O166 1.226 . S
O160 Cd156 2.273 . S
O160 Cd158 2.411 . S
O160 C163 1.320 . S
O161 Cd158 2.333 . S
O161 C163 1.214 . S
O162 Cd158 2.352 . S
O162 C165 1.258 . S
C163 O160 1.320 . S
C163 O161 1.214 . S
O164 Cd156 2.277 . S
O164 C159 1.209 . S
C165 O162 1.258 . S
C165 O167 1.282 . S
O166 Cd158 2.277 . S
O166 C159 1.226 . S
O167 Cd158 2.356 . S
O167 C165 1.282 . S
C168 O169 1.306 . S
C168 O171 1.160 . S
O169 C168 1.306 . S
O169 Cd170 2.228 . S
Cd170 O169 2.228 . S
Cd170 O174 2.273 . S
Cd170 O178 2.277 . S
O171 C168 1.160 . S
O171 Cd172 2.203 . S
Cd172 O171 2.203 . S
Cd172 O174 2.411 . S
Cd172 O175 2.333 . S
Cd172 O176 2.352 . S
Cd172 O180 2.277 . S
Cd172 O181 2.356 . S
C173 O178 1.209 . S
C173 O180 1.226 . S
O174 Cd170 2.273 . S
O174 Cd172 2.411 . S
O174 C177 1.320 . S
O175 Cd172 2.333 . S
O175 C177 1.214 . S
O176 Cd172 2.352 . S
O176 C179 1.258 . S
C177 O174 1.320 . S
C177 O175 1.214 . S
O178 Cd170 2.277 . S
O178 C173 1.209 . S
C179 O176 1.258 . S
C179 O181 1.282 . S
O180 Cd172 2.277 . S
O180 C173 1.226 . S
O181 Cd172 2.356 . S
O181 C179 1.282 . S
C182 O183 1.306 . S
C182 O185 1.160 . S
O183 C182 1.306 . S
O183 Cd184 2.228 . S
Cd184 O183 2.228 . S
Cd184 O188 2.273 . S
Cd184 O192 2.277 . S
O185 C182 1.160 . S
O185 Cd186 2.203 . S
Cd186 O185 2.203 . S
Cd186 O188 2.411 . S
Cd186 O189 2.333 . S
Cd186 O190 2.352 . S
Cd186 O194 2.277 . S
Cd186 O195 2.356 . S
C187 O192 1.209 . S
C187 O194 1.226 . S
O188 Cd184 2.273 . S
O188 Cd186 2.411 . S
O188 C191 1.320 . S
O189 Cd186 2.333 . S
O189 C191 1.214 . S
O190 Cd186 2.352 . S
O190 C193 1.258 . S
C191 O188 1.320 . S
C191 O189 1.214 . S
O192 Cd184 2.277 . S
O192 C187 1.209 . S
C193 O190 1.258 . S
C193 O195 1.282 . S
O194 Cd186 2.277 . S
O194 C187 1.226 . S
O195 Cd186 2.356 . S
O195 C193 1.282 . S
C196 O197 1.306 . S
C196 O199 1.160 . S
O197 C196 1.306 . S
O197 Cd198 2.228 . S
Cd198 O197 2.228 . S
Cd198 O202 2.273 . S
Cd198 O206 2.277 . S
O199 C196 1.160 . S
O199 Cd200 2.203 . S
Cd200 O199 2.203 . S
Cd200 O202 2.411 . S
Cd200 O203 2.333 . S
Cd200 O204 2.352 . S
Cd200 O208 2.277 . S
Cd200 O209 2.356 . S
C201 O206 1.209 . S
C201 O208 1.226 . S
O202 Cd198 2.273 . S
O202 Cd200 2.411 . S
O202 C205 1.320 . S
O203 Cd200 2.333 . S
O203 C205 1.214 . S
O204 Cd200 2.352 . S
O204 C207 1.258 . S
C205 O202 1.320 . S
C205 O203 1.214 . S
O206 Cd198 2.277 . S
O206 C201 1.209 . S
C207 O204 1.258 . S
C207 O209 1.282 . S
O208 Cd200 2.277 . S
O208 C201 1.226 . S
O209 Cd200 2.356 . S
O209 C207 1.282 . S
C210 O211 1.306 . S
C210 O213 1.160 . S
O211 C210 1.306 . S
O211 Cd212 2.228 . S
Cd212 O211 2.228 . S
Cd212 O216 2.273 . S
Cd212 O220 2.277 . S
O213 C210 1.160 . S
O213 Cd214 2.203 . S
Cd214 O213 2.203 . S
Cd214 O216 2.411 . S
Cd214 O217 2.333 . S
Cd214 O218 2.352 . S
Cd214 O222 2.277 . S
Cd214 O223 2.356 . S
C215 O220 1.209 . S
C215 O222 1.226 . S
O216 Cd212 2.273 . S
O216 Cd214 2.411 . S
O216 C219 1.320 . S
O217 Cd214 2.333 . S
O217 C219 1.214 . S
O218 Cd214 2.352 . S
O218 C221 1.258 . S
C219 O216 1.320 . S
C219 O217 1.214 . S
O220 Cd212 2.277 . S
O220 C215 1.209 . S
C221 O218 1.258 . S
C221 O223 1.282 . S
O222 Cd214 2.277 . S
O222 C215 1.226 . S
O223 Cd214 2.356 . S
O223 C221 1.282 . S
C224 O225 1.306 . S
C224 O227 1.160 . S
O225 C224 1.306 . S
O225 Cd226 2.228 . S
Cd226 O225 2.228 . S
Cd226 O230 2.273 . S
Cd226 O234 2.277 . S
O227 C224 1.160 . S
O227 Cd228 2.203 . S
Cd228 O227 2.203 . S
Cd228 O230 2.411 . S
Cd228 O231 2.333 . S
Cd228 O232 2.352 . S
Cd228 O236 2.277 . S
Cd228 O237 2.356 . S
C229 O234 1.209 . S
C229 O236 1.226 . S
O230 Cd226 2.273 . S
O230 Cd228 2.411 . S
O230 C233 1.320 . S
O231 Cd228 2.333 . S
O231 C233 1.214 . S
O232 Cd228 2.352 . S
O232 C235 1.258 . S
C233 O230 1.320 . S
C233 O231 1.214 . S
O234 Cd226 2.277 . S
O234 C229 1.209 . S
C235 O232 1.258 . S
C235 O237 1.282 . S
O236 Cd228 2.277 . S
O236 C229 1.226 . S
O237 Cd228 2.356 . S
O237 C235 1.282 . S
C238 O239 1.306 . S
C238 O241 1.160 . S
O239 C238 1.306 . S
O239 Cd240 2.228 . S
Cd240 O239 2.228 . S
Cd240 O244 2.273 . S
Cd240 O248 2.277 . S
O241 C238 1.160 . S
O241 Cd242 2.203 . S
Cd242 O241 2.203 . S
Cd242 O244 2.411 . S
Cd242 O245 2.333 . S
Cd242 O246 2.352 . S
Cd242 O250 2.277 . S
Cd242 O251 2.356 . S
C243 O248 1.209 . S
C243 O250 1.226 . S
O244 Cd240 2.273 . S
O244 Cd242 2.411 . S
O244 C247 1.320 . S
O245 Cd242 2.333 . S
O245 C247 1.214 . S
O246 Cd242 2.352 . S
O246 C249 1.258 . S
C247 O244 1.320 . S
C247 O245 1.214 . S
O248 Cd240 2.277 . S
O248 C243 1.209 . S
C249 O246 1.258 . S
C249 O251 1.282 . S
O250 Cd242 2.277 . S
O250 C243 1.226 . S
O251 Cd242 2.356 . S
O251 C249 1.282 . S
C252 O253 1.306 . S
C252 O255 1.160 . S
O253 C252 1.306 . S
O253 Cd254 2.228 . S
Cd254 O253 2.228 . S
Cd254 O258 2.273 . S
Cd254 O262 2.277 . S
O255 C252 1.160 . S
O255 Cd256 2.203 . S
Cd256 O255 2.203 . S
Cd256 O258 2.411 . S
Cd256 O259 2.333 . S
Cd256 O260 2.352 . S
Cd256 O264 2.277 . S
Cd256 O265 2.356 . S
C257 O262 1.209 . S
C257 O264 1.226 . S
O258 Cd254 2.273 . S
O258 Cd256 2.411 . S
O258 C261 1.320 . S
O259 Cd256 2.333 . S
O259 C261 1.214 . S
O260 Cd256 2.352 . S
O260 C263 1.258 . S
C261 O258 1.320 . S
C261 O259 1.214 . S
O262 Cd254 2.277 . S
O262 C257 1.209 . S
C263 O260 1.258 . S
C263 O265 1.282 . S
O264 Cd256 2.277 . S
O264 C257 1.226 . S
O265 Cd256 2.356 . S
O265 C263 1.282 . S
C266 O267 1.306 . S
C266 O269 1.160 . S
O267 C266 1.306 . S
O267 Cd268 2.228 . S
Cd268 O267 2.228 . S
Cd268 O272 2.273 . S
Cd268 O276 2.277 . S
O269 C266 1.160 . S
O269 Cd270 2.203 . S
Cd270 O269 2.203 . S
Cd270 O272 2.411 . S
Cd270 O273 2.333 . S
Cd270 O274 2.352 . S
Cd270 O278 2.277 . S
Cd270 O279 2.356 . S
C271 O276 1.209 . S
C271 O278 1.226 . S
O272 Cd268 2.273 . S
O272 Cd270 2.411 . S
O272 C275 1.320 . S
O273 Cd270 2.333 . S
O273 C275 1.214 . S
O274 Cd270 2.352 . S
O274 C277 1.258 . S
C275 O272 1.320 . S
C275 O273 1.214 . S
O276 Cd268 2.277 . S
O276 C271 1.209 . S
C277 O274 1.258 . S
C277 O279 1.282 . S
O278 Cd270 2.277 . S
O278 C271 1.226 . S
O279 Cd270 2.356 . S
O279 C277 1.282 . S
C280 O281 1.306 . S
C280 O283 1.160 . S
O281 C280 1.306 . S
O281 Cd282 2.228 . S
Cd282 O281 2.228 . S
Cd282 O286 2.273 . S
Cd282 O290 2.277 . S
O283 C280 1.160 . S
O283 Cd284 2.203 . S
Cd284 O283 2.203 . S
Cd284 O286 2.411 . S
Cd284 O287 2.333 . S
Cd284 O288 2.352 . S
Cd284 O292 2.277 . S
Cd284 O293 2.356 . S
C285 O290 1.209 . S
C285 O292 1.226 . S
O286 Cd282 2.273 . S
O286 Cd284 2.411 . S
O286 C289 1.320 . S
O287 Cd284 2.333 . S
O287 C289 1.214 . S
O288 Cd284 2.352 . S
O288 C291 1.258 . S
C289 O286 1.320 . S
C289 O287 1.214 . S
O290 Cd282 2.277 . S
O290 C285 1.209 . S
C291 O288 1.258 . S
C291 O293 1.282 . S
O292 Cd284 2.277 . S
O292 C285 1.226 . S
O293 Cd284 2.356 . S
O293 C291 1.282 . S
C294 O295 1.306 . S
C294 O297 1.160 . S
O295 C294 1.306 . S
O295 Cd296 2.228 . S
Cd296 O295 2.228 . S
Cd296 O300 2.273 . S
Cd296 O304 2.277 . S
O297 C294 1.160 . S
O297 Cd298 2.203 . S
Cd298 O297 2.203 . S
Cd298 O300 2.411 . S
Cd298 O301 2.333 . S
Cd298 O302 2.352 . S
Cd298 O306 2.277 . S
Cd298 O307 2.356 . S
C299 O304 1.209 . S
C299 O306 1.226 . S
O300 Cd296 2.273 . S
O300 Cd298 2.411 . S
O300 C303 1.320 . S
O301 Cd298 2.333 . S
O301 C303 1.214 . S
O302 Cd298 2.352 . S
O302 C305 1.258 . S
C303 O300 1.320 . S
C303 O301 1.214 . S
O304 Cd296 2.277 . S
O304 C299 1.209 . S
C305 O302 1.258 . S
C305 O307 1.282 . S
O306 Cd298 2.277 . S
O306 C299 1.226 . S
O307 Cd298 2.356 . S
O307 C305 1.282 . S
C308 O309 1.306 . S
C308 O311 1.160 . S
O309 C308 1.306 . S
O309 Cd310 2.228 . S
Cd310 O309 2.228 . S
Cd310 O314 2.273 . S
Cd310 O318 2.277 . S
O311 C308 1.160 . S
O311 Cd312 2.203 . S
Cd312 O311 2.203 . S
Cd312 O314 2.411 . S
Cd312 O315 2.333 . S
Cd312 O316 2.352 . S
Cd312 O320 2.277 . S
Cd312 O321 2.356 . S
C313 O318 1.209 . S
C313 O320 1.226 . S
O314 Cd310 2.273 . S
O314 Cd312 2.411 . S
O314 C317 1.320 . S
O315 Cd312 2.333 . S
O315 C317 1.214 . S
O316 Cd312 2.352 . S
O316 C319 1.258 . S
C317 O314 1.320 . S
C317 O315 1.214 . S
O318 Cd310 2.277 . S
O318 C313 1.209 . S
C319 O316 1.258 . S
C319 O321 1.282 . S
O320 Cd312 2.277 . S
O320 C313 1.226 . S
O321 Cd312 2.356 . S
O321 C319 1.282 . S
C322 O323 1.306 . S
C322 O325 1.160 . S
O323 C322 1.306 . S
O323 Cd324 2.228 . S
Cd324 O323 2.228 . S
Cd324 O328 2.273 . S
Cd324 O332 2.277 . S
O325 C322 1.160 . S
O325 Cd326 2.203 . S
Cd326 O325 2.203 . S
Cd326 O328 2.411 . S
Cd326 O329 2.333 . S
Cd326 O330 2.352 . S
Cd326 O334 2.277 . S
Cd326 O335 2.356 . S
C327 O332 1.209 . S
C327 O334 1.226 . S
O328 Cd324 2.273 . S
O328 Cd326 2.411 . S
O328 C331 1.320 . S
O329 Cd326 2.333 . S
O329 C331 1.214 . S
O330 Cd326 2.352 . S
O330 C333 1.258 . S
C331 O328 1.320 . S
C331 O329 1.214 . S
O332 Cd324 2.277 . S
O332 C327 1.209 . S
C333 O330 1.258 . S
C333 O335 1.282 . S
O334 Cd326 2.277 . S
O334 C327 1.226 . S
O335 Cd326 2.356 . S
O335 C333 1.282 . S
C336 C337 1.363 . S
C336 C342 1.379 . S
C336 N344 1.356 . S
C337 C336 1.363 . S
C337 C343 1.363 . S
C338 C339 1.363 . S
C338 C343 1.379 . S
C338 N345 1.356 . S
C339 C338 1.363 . S
C339 C342 1.363 . S
N340 C342 1.356 . S
N340 H352 0.984 . S
N340 H353 0.985 . S
N341 C343 1.356 . S
N341 H346 0.984 . S
N341 H347 0.985 . S
C342 C336 1.379 . S
C342 C339 1.363 . S
C342 N340 1.356 . S
C343 C337 1.363 . S
C343 C338 1.379 . S
C343 N341 1.356 . S
N344 C336 1.356 . S
N344 H350 0.984 . S
N344 H351 0.984 . S
N345 C338 1.356 . S
N345 H348 0.984 . S
N345 H349 0.985 . S
H346 N341 0.984 . S
H347 N341 0.985 . S
H348 N345 0.984 . S
H349 N345 0.985 . S
H350 N344 0.984 . S
H351 N344 0.984 . S
H352 N340 0.984 . S
H353 N340 0.985 . S
C354 C355 1.363 . S
C354 C360 1.379 . S
C354 N362 1.356 . S
C355 C354 1.363 . S
C355 C361 1.363 . S
C356 C357 1.363 . S
C356 C361 1.379 . S
C356 N363 1.356 . S
C357 C356 1.363 . S
C357 C360 1.363 . S
N358 C360 1.356 . S
N358 H370 0.984 . S
N358 H371 0.985 . S
N359 C361 1.356 . S
N359 H364 0.984 . S
N359 H365 0.985 . S
C360 C354 1.379 . S
C360 C357 1.363 . S
C360 N358 1.356 . S
C361 C355 1.363 . S
C361 C356 1.379 . S
C361 N359 1.356 . S
N362 C354 1.356 . S
N362 H368 0.984 . S
N362 H369 0.984 . S
N363 C356 1.356 . S
N363 H366 0.984 . S
N363 H367 0.985 . S
H364 N359 0.984 . S
H365 N359 0.985 . S
H366 N363 0.984 . S
H367 N363 0.985 . S
H368 N362 0.984 . S
H369 N362 0.984 . S
H370 N358 0.984 . S
H371 N358 0.985 . S
C372 C373 1.363 . S
C372 C378 1.379 . S
C372 N380 1.356 . S
C373 C372 1.363 . S
C373 C379 1.363 . S
C374 C375 1.363 . S
C374 C379 1.379 . S
C374 N381 1.356 . S
C375 C374 1.363 . S
C375 C378 1.363 . S
N376 C378 1.356 . S
N376 H388 0.984 . S
N376 H389 0.985 . S
N377 C379 1.356 . S
N377 H382 0.984 . S
N377 H383 0.985 . S
C378 C372 1.379 . S
C378 C375 1.363 . S
C378 N376 1.356 . S
C379 C373 1.363 . S
C379 C374 1.379 . S
C379 N377 1.356 . S
N380 C372 1.356 . S
N380 H386 0.984 . S
N380 H387 0.984 . S
N381 C374 1.356 . S
N381 H384 0.984 . S
N381 H385 0.985 . S
H382 N377 0.984 . S
H383 N377 0.985 . S
H384 N381 0.984 . S
H385 N381 0.985 . S
H386 N380 0.984 . S
H387 N380 0.984 . S
H388 N376 0.984 . S
H389 N376 0.985 . S
C390 C391 1.363 . S
C390 C396 1.379 . S
C390 N398 1.356 . S
C391 C390 1.363 . S
C391 C397 1.363 . S
C392 C393 1.363 . S
C392 C397 1.379 . S
C392 N399 1.356 . S
C393 C392 1.363 . S
C393 C396 1.363 . S
N394 C396 1.356 . S
N394 H406 0.984 . S
N394 H407 0.985 . S
N395 C397 1.356 . S
N395 H400 0.984 . S
N395 H401 0.985 . S
C396 C390 1.379 . S
C396 C393 1.363 . S
C396 N394 1.356 . S
C397 C391 1.363 . S
C397 C392 1.379 . S
C397 N395 1.356 . S
N398 C390 1.356 . S
N398 H404 0.984 . S
N398 H405 0.984 . S
N399 C392 1.356 . S
N399 H402 0.984 . S
N399 H403 0.985 . S
H400 N395 0.984 . S
H401 N395 0.985 . S
H402 N399 0.984 . S
H403 N399 0.985 . S
H404 N398 0.984 . S
H405 N398 0.984 . S
H406 N394 0.984 . S
H407 N394 0.985 . S
C408 C409 1.363 . S
C408 C414 1.379 . S
C408 N416 1.356 . S
C409 C408 1.363 . S
C409 C415 1.363 . S
C410 C411 1.363 . S
C410 C415 1.379 . S
C410 N417 1.356 . S
C411 C410 1.363 . S
C411 C414 1.363 . S
N412 C414 1.356 . S
N412 H424 0.984 . S
N412 H425 0.985 . S
N413 C415 1.356 . S
N413 H418 0.984 . S
N413 H419 0.985 . S
C414 C408 1.379 . S
C414 C411 1.363 . S
C414 N412 1.356 . S
C415 C409 1.363 . S
C415 C410 1.379 . S
C415 N413 1.356 . S
N416 C408 1.356 . S
N416 H422 0.984 . S
N416 H423 0.984 . S
N417 C410 1.356 . S
N417 H420 0.984 . S
N417 H421 0.985 . S
H418 N413 0.984 . S
H419 N413 0.985 . S
H420 N417 0.984 . S
H421 N417 0.985 . S
H422 N416 0.984 . S
H423 N416 0.984 . S
H424 N412 0.984 . S
H425 N412 0.985 . S
C426 C427 1.363 . S
C426 C432 1.379 . S
C426 N434 1.356 . S
C427 C426 1.363 . S
C427 C433 1.363 . S
C428 C429 1.363 . S
C428 C433 1.379 . S
C428 N435 1.356 . S
C429 C428 1.363 . S
C429 C432 1.363 . S
N430 C432 1.356 . S
N430 H442 0.984 . S
N430 H443 0.985 . S
N431 C433 1.356 . S
N431 H436 0.984 . S
N431 H437 0.985 . S
C432 C426 1.379 . S
C432 C429 1.363 . S
C432 N430 1.356 . S
C433 C427 1.363 . S
C433 C428 1.379 . S
C433 N431 1.356 . S
N434 C426 1.356 . S
N434 H440 0.984 . S
N434 H441 0.984 . S
N435 C428 1.356 . S
N435 H438 0.984 . S
N435 H439 0.985 . S
H436 N431 0.984 . S
H437 N431 0.985 . S
H438 N435 0.984 . S
H439 N435 0.985 . S
H440 N434 0.984 . S
H441 N434 0.984 . S
H442 N430 0.984 . S
H443 N430 0.985 . S
C444 C445 1.363 . S
C444 C450 1.379 . S
C444 N452 1.356 . S
C445 C444 1.363 . S
C445 C451 1.363 . S
C446 C447 1.363 . S
C446 C451 1.379 . S
C446 N453 1.356 . S
C447 C446 1.363 . S
C447 C450 1.363 . S
N448 C450 1.356 . S
N448 H460 0.984 . S
N448 H461 0.985 . S
N449 C451 1.356 . S
N449 H454 0.984 . S
N449 H455 0.985 . S
C450 C444 1.379 . S
C450 C447 1.363 . S
C450 N448 1.356 . S
C451 C445 1.363 . S
C451 C446 1.379 . S
C451 N449 1.356 . S
N452 C444 1.356 . S
N452 H458 0.984 . S
N452 H459 0.984 . S
N453 C446 1.356 . S
N453 H456 0.984 . S
N453 H457 0.985 . S
H454 N449 0.984 . S
H455 N449 0.985 . S
H456 N453 0.984 . S
H457 N453 0.985 . S
H458 N452 0.984 . S
H459 N452 0.984 . S
H460 N448 0.984 . S
H461 N448 0.985 . S
C462 C463 1.363 . S
C462 C468 1.379 . S
C462 N470 1.356 . S
C463 C462 1.363 . S
C463 C469 1.363 . S
C464 C465 1.363 . S
C464 C469 1.379 . S
C464 N471 1.356 . S
C465 C464 1.363 . S
C465 C468 1.363 . S
N466 C468 1.356 . S
N466 H478 0.984 . S
N466 H479 0.985 . S
N467 C469 1.356 . S
N467 H472 0.984 . S
N467 H473 0.985 . S
C468 C462 1.379 . S
C468 C465 1.363 . S
C468 N466 1.356 . S
C469 C463 1.363 . S
C469 C464 1.379 . S
C469 N467 1.356 . S
N470 C462 1.356 . S
N470 H476 0.984 . S
N470 H477 0.984 . S
N471 C464 1.356 . S
N471 H474 0.984 . S
N471 H475 0.985 . S
H472 N467 0.984 . S
H473 N467 0.985 . S
H474 N471 0.984 . S
H475 N471 0.985 . S
H476 N470 0.984 . S
H477 N470 0.984 . S
H478 N466 0.984 . S
H479 N466 0.985 . S
C480 C481 1.363 . S
C480 C486 1.379 . S
C480 N488 1.356 . S
C481 C480 1.363 . S
C481 C487 1.363 . S
C482 C483 1.363 . S
C482 C487 1.379 . S
C482 N489 1.356 . S
C483 C482 1.363 . S
C483 C486 1.363 . S
N484 C486 1.356 . S
N484 H496 0.984 . S
N484 H497 0.985 . S
N485 C487 1.356 . S
N485 H490 0.984 . S
N485 H491 0.985 . S
C486 C480 1.379 . S
C486 C483 1.363 . S
C486 N484 1.356 . S
C487 C481 1.363 . S
C487 C482 1.379 . S
C487 N485 1.356 . S
N488 C480 1.356 . S
N488 H494 0.984 . S
N488 H495 0.984 . S
N489 C482 1.356 . S
N489 H492 0.984 . S
N489 H493 0.985 . S
H490 N485 0.984 . S
H491 N485 0.985 . S
H492 N489 0.984 . S
H493 N489 0.985 . S
H494 N488 0.984 . S
H495 N488 0.984 . S
H496 N484 0.984 . S
H497 N484 0.985 . S
C498 C499 1.363 . S
C498 C504 1.379 . S
C498 N506 1.356 . S
C499 C498 1.363 . S
C499 C505 1.363 . S
C500 C501 1.363 . S
C500 C505 1.379 . S
C500 N507 1.356 . S
C501 C500 1.363 . S
C501 C504 1.363 . S
N502 C504 1.356 . S
N502 H514 0.984 . S
N502 H515 0.985 . S
N503 C505 1.356 . S
N503 H508 0.984 . S
N503 H509 0.985 . S
C504 C498 1.379 . S
C504 C501 1.363 . S
C504 N502 1.356 . S
C505 C499 1.363 . S
C505 C500 1.379 . S
C505 N503 1.356 . S
N506 C498 1.356 . S
N506 H512 0.984 . S
N506 H513 0.984 . S
N507 C500 1.356 . S
N507 H510 0.984 . S
N507 H511 0.985 . S
H508 N503 0.984 . S
H509 N503 0.985 . S
H510 N507 0.984 . S
H511 N507 0.985 . S
H512 N506 0.984 . S
H513 N506 0.984 . S
H514 N502 0.984 . S
H515 N502 0.985 . S
C516 C517 1.363 . S
C516 C522 1.379 . S
C516 N524 1.356 . S
C517 C516 1.363 . S
C517 C523 1.363 . S
C518 C519 1.363 . S
C518 C523 1.379 . S
C518 N525 1.356 . S
C519 C518 1.363 . S
C519 C522 1.363 . S
N520 C522 1.356 . S
N520 H532 0.984 . S
N520 H533 0.985 . S
N521 C523 1.356 . S
N521 H526 0.984 . S
N521 H527 0.985 . S
C522 C516 1.379 . S
C522 C519 1.363 . S
C522 N520 1.356 . S
C523 C517 1.363 . S
C523 C518 1.379 . S
C523 N521 1.356 . S
N524 C516 1.356 . S
N524 H530 0.984 . S
N524 H531 0.984 . S
N525 C518 1.356 . S
N525 H528 0.984 . S
N525 H529 0.985 . S
H526 N521 0.984 . S
H527 N521 0.985 . S
H528 N525 0.984 . S
H529 N525 0.985 . S
H530 N524 0.984 . S
H531 N524 0.984 . S
H532 N520 0.984 . S
H533 N520 0.985 . S
C534 C535 1.363 . S
C534 C540 1.379 . S
C534 N542 1.356 . S
C535 C534 1.363 . S
C535 C541 1.363 . S
C536 C537 1.363 . S
C536 C541 1.379 . S
C536 N543 1.356 . S
C537 C536 1.363 . S
C537 C540 1.363 . S
N538 C540 1.356 . S
N538 H550 0.984 . S
N538 H551 0.985 . S
N539 C541 1.356 . S
N539 H544 0.984 . S
N539 H545 0.985 . S
C540 C534 1.379 . S
C540 C537 1.363 . S
C540 N538 1.356 . S
C541 C535 1.363 . S
C541 C536 1.379 . S
C541 N539 1.356 . S
N542 C534 1.356 . S
N542 H548 0.984 . S
N542 H549 0.984 . S
N543 C536 1.356 . S
N543 H546 0.984 . S
N543 H547 0.985 . S
H544 N539 0.984 . S
H545 N539 0.985 . S
H546 N543 0.984 . S
H547 N543 0.985 . S
H548 N542 0.984 . S
H549 N542 0.984 . S
H550 N538 0.984 . S
H551 N538 0.985 . S
C552 C553 1.363 1_554 S
C552 C558 1.379 . S
C552 N560 1.356 . S
C553 C552 1.363 1_556 S
C553 C559 1.363 . S
C554 C555 1.363 1_556 S
C554 C559 1.379 . S
C554 N561 1.356 . S
C555 C554 1.363 1_554 S
C555 C558 1.363 . S
N556 C558 1.356 . S
N556 H568 0.984 . S
N556 H569 0.985 . S
N557 C559 1.356 . S
N557 H562 0.984 . S
N557 H563 0.985 . S
C558 C552 1.379 . S
C558 C555 1.363 . S
C558 N556 1.356 . S
C559 C553 1.363 . S
C559 C554 1.379 . S
C559 N557 1.356 . S
N560 C552 1.356 . S
N560 H566 0.984 . S
N560 H567 0.984 1_554 S
N561 C554 1.356 . S
N561 H564 0.984 1_556 S
N561 H565 0.985 . S
H562 N557 0.984 . S
H563 N557 0.985 . S
H564 N561 0.984 1_554 S
H565 N561 0.985 . S
H566 N560 0.984 . S
H567 N560 0.984 1_556 S
H568 N556 0.984 . S
H569 N556 0.985 . S
C570 C571 1.363 . S
C570 C576 1.379 . S
C570 N578 1.356 . S
C571 C570 1.363 . S
C571 C577 1.363 . S
C572 C573 1.363 . S
C572 C577 1.379 . S
C572 N579 1.356 . S
C573 C572 1.363 . S
C573 C576 1.363 . S
N574 C576 1.356 . S
N574 H586 0.984 . S
N574 H587 0.985 . S
N575 C577 1.356 . S
N575 H580 0.984 . S
N575 H581 0.985 . S
C576 C570 1.379 . S
C576 C573 1.363 . S
C576 N574 1.356 . S
C577 C571 1.363 . S
C577 C572 1.379 . S
C577 N575 1.356 . S
N578 C570 1.356 . S
N578 H584 0.984 . S
N578 H585 0.984 . S
N579 C572 1.356 . S
N579 H582 0.984 . S
N579 H583 0.985 . S
H580 N575 0.984 . S
H581 N575 0.985 . S
H582 N579 0.984 . S
H583 N579 0.985 . S
H584 N578 0.984 . S
H585 N578 0.984 . S
H586 N574 0.984 . S
H587 N574 0.985 . S
C588 C589 1.363 1_556 S
C588 C594 1.379 . S
C588 N596 1.356 . S
C589 C588 1.363 1_554 S
C589 C595 1.363 . S
C590 C591 1.363 1_554 S
C590 C595 1.379 . S
C590 N597 1.356 . S
C591 C590 1.363 1_556 S
C591 C594 1.363 . S
N592 C594 1.356 . S
N592 H604 0.984 . S
N592 H605 0.985 . S
N593 C595 1.356 . S
N593 H598 0.984 . S
N593 H599 0.985 . S
C594 C588 1.379 . S
C594 C591 1.363 . S
C594 N592 1.356 . S
C595 C589 1.363 . S
C595 C590 1.379 . S
C595 N593 1.356 . S
N596 C588 1.356 . S
N596 H602 0.984 . S
N596 H603 0.984 1_556 S
N597 C590 1.356 . S
N597 H600 0.984 1_554 S
N597 H601 0.985 . S
H598 N593 0.984 . S
H599 N593 0.985 . S
H600 N597 0.984 1_556 S
H601 N597 0.985 . S
H602 N596 0.984 . S
H603 N596 0.984 1_554 S
H604 N592 0.984 . S
H605 N592 0.985 . S
C606 C607 1.363 . S
C606 C612 1.379 . S
C606 N614 1.356 . S
C607 C606 1.363 . S
C607 C613 1.363 . S
C608 C609 1.363 . S
C608 C613 1.379 . S
C608 N615 1.356 . S
C609 C608 1.363 . S
C609 C612 1.363 . S
N610 C612 1.356 . S
N610 H622 0.984 . S
N610 H623 0.985 . S
N611 C613 1.356 . S
N611 H616 0.984 . S
N611 H617 0.985 . S
C612 C606 1.379 . S
C612 C609 1.363 . S
C612 N610 1.356 . S
C613 C607 1.363 . S
C613 C608 1.379 . S
C613 N611 1.356 . S
N614 C606 1.356 . S
N614 H620 0.984 . S
N614 H621 0.984 . S
N615 C608 1.356 . S
N615 H618 0.984 . S
N615 H619 0.985 . S
H616 N611 0.984 . S
H617 N611 0.985 . S
H618 N615 0.984 . S
H619 N615 0.985 . S
H620 N614 0.984 . S
H621 N614 0.984 . S
H622 N610 0.984 . S
H623 N610 0.985 . S
C624 C625 1.363 . S
C624 C630 1.379 . S
C624 N632 1.356 . S
C625 C624 1.363 . S
C625 C631 1.363 1_556 S
C626 C627 1.363 . S
C626 C631 1.379 . S
C626 N633 1.356 . S
C627 C626 1.363 . S
C627 C630 1.363 1_554 S
N628 C630 1.356 . S
N628 H640 0.984 . S
N628 H641 0.972 1_556 S
N629 C631 1.356 . S
N629 H634 0.972 1_554 S
N629 H635 0.985 . S
C630 C624 1.379 . S
C630 C627 1.363 1_556 S
C630 N628 1.356 . S
C631 C625 1.363 1_554 S
C631 C626 1.379 . S
C631 N629 1.356 . S
N632 C624 1.356 . S
N632 H638 0.984 . S
N632 H639 0.984 . S
N633 C626 1.356 . S
N633 H636 0.984 . S
N633 H637 0.985 . S
H634 N629 0.972 1_556 S
H635 N629 0.985 . S
H636 N633 0.984 . S
H637 N633 0.985 . S
H638 N632 0.984 . S
H639 N632 0.984 . S
H640 N628 0.984 . S
H641 N628 0.972 1_554 S
C642 C643 1.363 . S
C642 C648 1.379 . S
C642 N650 1.356 . S
C643 C642 1.363 . S
C643 C649 1.363 . S
C644 C645 1.363 . S
C644 C649 1.379 . S
C644 N651 1.356 . S
C645 C644 1.363 . S
C645 C648 1.363 . S
N646 C648 1.356 . S
N646 H658 0.984 . S
N646 H659 0.985 . S
N647 C649 1.356 . S
N647 H652 0.984 . S
N647 H653 0.985 . S
C648 C642 1.379 . S
C648 C645 1.363 . S
C648 N646 1.356 . S
C649 C643 1.363 . S
C649 C644 1.379 . S
C649 N647 1.356 . S
N650 C642 1.356 . S
N650 H656 0.984 . S
N650 H657 0.984 . S
N651 C644 1.356 . S
N651 H654 0.984 . S
N651 H655 0.985 . S
H652 N647 0.984 . S
H653 N647 0.985 . S
H654 N651 0.984 . S
H655 N651 0.985 . S
H656 N650 0.984 . S
H657 N650 0.984 . S
H658 N646 0.984 . S
H659 N646 0.985 . S
C660 C661 1.363 1_556 S
C660 C666 1.379 . S
C660 N668 1.356 . S
C661 C660 1.363 1_554 S
C661 C667 1.363 . S
C662 C663 1.363 1_554 S
C662 C667 1.379 . S
C662 N669 1.356 . S
C663 C662 1.363 1_556 S
C663 C666 1.363 . S
N664 C666 1.356 . S
N664 H676 0.984 . S
N664 H677 0.985 . S
N665 C667 1.356 . S
N665 H670 0.984 . S
N665 H671 0.985 . S
C666 C660 1.379 . S
C666 C663 1.363 . S
C666 N664 1.356 . S
C667 C661 1.363 . S
C667 C662 1.379 . S
C667 N665 1.356 . S
N668 C660 1.356 . S
N668 H674 0.984 . S
N668 H675 0.984 1_556 S
N669 C662 1.356 . S
N669 H672 0.984 1_554 S
N669 H673 0.985 . S
H670 N665 0.984 . S
H671 N665 0.985 . S
H672 N669 0.984 1_556 S
H673 N669 0.985 . S
H674 N668 0.984 . S
H675 N668 0.984 1_554 S
H676 N664 0.984 . S
H677 N664 0.985 . S
C678 C679 1.363 . S
C678 C684 1.379 . S
C678 N686 1.356 . S
C679 C678 1.363 . S
C679 C685 1.363 . S
C680 C681 1.363 . S
C680 C685 1.379 . S
C680 N687 1.356 . S
C681 C680 1.363 . S
C681 C684 1.363 . S
N682 C684 1.356 . S
N682 H694 0.984 . S
N682 H695 0.985 . S
N683 C685 1.356 . S
N683 H688 0.984 . S
N683 H689 0.985 . S
C684 C678 1.379 . S
C684 C681 1.363 . S
C684 N682 1.356 . S
C685 C679 1.363 . S
C685 C680 1.379 . S
C685 N683 1.356 . S
N686 C678 1.356 . S
N686 H692 0.984 . S
N686 H693 0.984 . S
N687 C680 1.356 . S
N687 H690 0.984 . S
N687 H691 0.985 . S
H688 N683 0.984 . S
H689 N683 0.985 . S
H690 N687 0.984 . S
H691 N687 0.985 . S
H692 N686 0.984 . S
H693 N686 0.984 . S
H694 N682 0.984 . S
H695 N682 0.985 . S
C696 C697 1.363 . S
C696 C702 1.379 . S
C696 N704 1.356 . S
C697 C696 1.363 . S
C697 C703 1.363 1_556 S
C698 C699 1.363 . S
C698 C703 1.379 . S
C698 N705 1.356 . S
C699 C698 1.363 . S
C699 C702 1.363 1_554 S
N700 C702 1.356 . S
N700 H712 0.984 . S
N700 H713 0.985 1_556 S
N701 C703 1.356 . S
N701 H706 0.984 1_554 S
N701 H707 0.985 . S
C702 C696 1.379 . S
C702 C699 1.363 1_556 S
C702 N700 1.356 . S
C703 C697 1.363 1_554 S
C703 C698 1.379 . S
C703 N701 1.356 . S
N704 C696 1.356 . S
N704 H710 0.984 . S
N704 H711 0.984 . S
N705 C698 1.356 . S
N705 H708 0.984 . S
N705 H709 0.985 . S
H706 N701 0.984 1_556 S
H707 N701 0.985 . S
H708 N705 0.984 . S
H709 N705 0.985 . S
H710 N704 0.984 . S
H711 N704 0.984 . S
H712 N700 0.984 . S
H713 N700 0.985 1_554 S
C714 C715 1.363 . S
C714 C720 1.379 . S
C714 N722 1.356 . S
C715 C714 1.363 . S
C715 C721 1.363 . S
C716 C717 1.363 . S
C716 C721 1.379 . S
C716 N723 1.356 . S
C717 C716 1.363 . S
C717 C720 1.363 . S
N718 C720 1.356 . S
N718 H730 0.984 . S
N718 H731 0.985 . S
N719 C721 1.356 . S
N719 H724 0.984 . S
N719 H725 0.985 . S
C720 C714 1.379 . S
C720 C717 1.363 . S
C720 N718 1.356 . S
C721 C715 1.363 . S
C721 C716 1.379 . S
C721 N719 1.356 . S
N722 C714 1.356 . S
N722 H728 0.984 . S
N722 H729 0.984 . S
N723 C716 1.356 . S
N723 H726 0.984 . S
N723 H727 0.985 . S
H724 N719 0.984 . S
H725 N719 0.985 . S
H726 N723 0.984 . S
H727 N723 0.985 . S
H728 N722 0.984 . S
H729 N722 0.984 . S
H730 N718 0.984 . S
H731 N718 0.985 . S
C732 C733 1.363 . S
C732 C738 1.379 . S
C732 N740 1.356 . S
C733 C732 1.363 . S
C733 C739 1.363 1_556 S
C734 C735 1.363 . S
C734 C739 1.379 . S
C734 N741 1.356 . S
C735 C734 1.363 . S
C735 C738 1.363 1_554 S
N736 C738 1.356 . S
N736 H748 0.984 . S
N736 H749 0.984 . S
N737 C739 1.356 . S
N737 H742 0.984 . S
N737 H743 0.985 . S
C738 C732 1.379 . S
C738 C735 1.363 1_556 S
C738 N736 1.356 . S
C739 C733 1.363 1_554 S
C739 C734 1.379 . S
C739 N737 1.356 . S
N740 C732 1.356 . S
N740 H746 0.984 . S
N740 H747 0.984 . S
N741 C734 1.356 . S
N741 H744 0.984 . S
N741 H745 0.985 . S
H742 N737 0.984 . S
H743 N737 0.985 . S
H744 N741 0.984 . S
H745 N741 0.985 . S
H746 N740 0.984 . S
H747 N740 0.984 . S
H748 N736 0.984 . S
H749 N736 0.984 . S
C750 C751 1.363 . S
C750 C756 1.379 . S
C750 N758 1.356 . S
C751 C750 1.363 . S
C751 C757 1.363 . S
C752 C753 1.363 . S
C752 C757 1.379 . S
C752 N759 1.356 . S
C753 C752 1.363 . S
C753 C756 1.363 . S
N754 C756 1.356 . S
N754 H766 0.984 . S
N754 H767 0.985 . S
N755 C757 1.356 . S
N755 H760 0.984 . S
N755 H761 0.985 . S
C756 C750 1.379 . S
C756 C753 1.363 . S
C756 N754 1.356 . S
C757 C751 1.363 . S
C757 C752 1.379 . S
C757 N755 1.356 . S
N758 C750 1.356 . S
N758 H764 0.984 . S
N758 H765 0.984 . S
N759 C752 1.356 . S
N759 H762 0.984 . S
N759 H763 0.985 . S
H760 N755 0.984 . S
H761 N755 0.985 . S
H762 N759 0.984 . S
H763 N759 0.985 . S
H764 N758 0.984 . S
H765 N758 0.984 . S
H766 N754 0.984 . S
H767 N754 0.985 . S
C768 C769 1.363 . S
C768 C774 1.379 . S
C768 N776 1.356 . S
C769 C768 1.363 . S
C769 C775 1.363 . S
C770 C771 1.363 . S
C770 C775 1.379 . S
C770 N777 1.356 . S
C771 C770 1.363 . S
C771 C774 1.363 . S
N772 C774 1.356 . S
N772 H784 0.984 . S
N772 H785 0.985 . S
N773 C775 1.356 . S
N773 H778 0.984 . S
N773 H779 0.985 1_554 S
C774 C768 1.379 . S
C774 C771 1.363 . S
C774 N772 1.356 . S
C775 C769 1.363 . S
C775 C770 1.379 . S
C775 N773 1.356 . S
N776 C768 1.356 . S
N776 H782 0.984 . S
N776 H783 0.984 . S
N777 C770 1.356 . S
N777 H780 0.984 . S
N777 H781 0.985 1_554 S
H778 N773 0.984 . S
H779 N773 0.985 1_556 S
H780 N777 0.984 . S
H781 N777 0.985 1_556 S
H782 N776 0.984 . S
H783 N776 0.984 . S
H784 N772 0.984 . S
H785 N772 0.985 . S
C786 C787 1.363 . S
C786 C792 1.379 1_455 S
C786 N794 1.356 . S
C787 C786 1.363 . S
C787 C793 1.363 . S
C788 C789 1.363 . S
C788 C793 1.379 1_655 S
C788 N795 1.356 . S
C789 C788 1.363 . S
C789 C792 1.363 . S
N790 C792 1.356 . S
N790 H802 0.984 . S
N790 H803 0.985 . S
N791 C793 1.356 . S
N791 H796 0.984 . S
N791 H797 0.985 . S
C792 C786 1.379 1_655 S
C792 C789 1.363 . S
C792 N790 1.356 . S
C793 C787 1.363 . S
C793 C788 1.379 1_455 S
C793 N791 1.356 . S
N794 C786 1.356 . S
N794 H800 0.984 . S
N794 H801 0.984 . S
N795 C788 1.356 . S
N795 H798 0.984 . S
N795 H799 0.985 . S
H796 N791 0.984 . S
H797 N791 0.985 . S
H798 N795 0.984 . S
H799 N795 0.985 . S
H800 N794 0.984 . S
H801 N794 0.984 . S
H802 N790 0.984 . S
H803 N790 0.985 . S
C804 C805 1.363 . S
C804 C810 1.379 1_565 S
C804 N812 1.356 . S
C805 C804 1.363 . S
C805 C811 1.363 . S
C806 C807 1.363 . S
C806 C811 1.379 1_545 S
C806 N813 1.356 . S
C807 C806 1.363 . S
C807 C810 1.363 . S
N808 C810 1.356 . S
N808 H820 0.984 . S
N808 H821 0.985 . S
N809 C811 1.356 . S
N809 H814 0.984 . S
N809 H815 0.985 1_554 S
C810 C804 1.379 1_545 S
C810 C807 1.363 . S
C810 N808 1.356 . S
C811 C805 1.363 . S
C811 C806 1.379 1_565 S
C811 N809 1.356 . S
N812 C804 1.356 . S
N812 H818 0.984 . S
N812 H819 0.984 . S
N813 C806 1.356 . S
N813 H816 0.984 . S
N813 H817 0.985 1_554 S
H814 N809 0.984 . S
H815 N809 0.985 1_556 S
H816 N813 0.984 . S
H817 N813 0.985 1_556 S
H818 N812 0.984 . S
H819 N812 0.984 . S
H820 N808 0.984 . S
H821 N808 0.985 . S
C822 C823 1.363 . S
C822 C828 1.379 . S
C822 N830 1.356 . S
C823 C822 1.363 . S
C823 C829 1.363 . S
C824 C825 1.363 . S
C824 C829 1.379 . S
C824 N831 1.356 . S
C825 C824 1.363 . S
C825 C828 1.363 . S
N826 C828 1.356 . S
N826 H838 0.984 . S
N826 H839 0.985 . S
N827 C829 1.356 . S
N827 H832 0.984 . S
N827 H833 0.985 . S
C828 C822 1.379 . S
C828 C825 1.363 . S
C828 N826 1.356 . S
C829 C823 1.363 . S
C829 C824 1.379 . S
C829 N827 1.356 . S
N830 C822 1.356 . S
N830 H836 0.984 . S
N830 H837 0.984 . S
N831 C824 1.356 . S
N831 H834 0.984 . S
N831 H835 0.985 . S
H832 N827 0.984 . S
H833 N827 0.985 . S
H834 N831 0.984 . S
H835 N831 0.985 . S
H836 N830 0.984 . S
H837 N830 0.984 . S
H838 N826 0.984 . S
H839 N826 0.985 . S
C840 C841 1.363 . S
C840 C846 1.379 1_655 S
C840 N848 1.356 . S
C841 C840 1.363 . S
C841 C847 1.363 . S
C842 C843 1.363 . S
C842 C847 1.379 1_455 S
C842 N849 1.356 . S
C843 C842 1.363 . S
C843 C846 1.363 . S
N844 C846 1.356 . S
N844 H856 0.984 1_554 S
N844 H857 0.985 . S
N845 C847 1.356 . S
N845 H850 0.984 . S
N845 H851 0.985 . S
C846 C840 1.379 1_455 S
C846 C843 1.363 . S
C846 N844 1.356 . S
C847 C841 1.363 . S
C847 C842 1.379 1_655 S
C847 N845 1.356 . S
N848 C840 1.356 . S
N848 H854 0.984 1_554 S
N848 H855 0.984 . S
N849 C842 1.356 . S
N849 H852 0.984 . S
N849 H853 0.985 . S
H850 N845 0.984 . S
H851 N845 0.985 . S
H852 N849 0.984 . S
H853 N849 0.985 . S
H854 N848 0.984 1_556 S
H855 N848 0.984 . S
H856 N844 0.984 1_556 S
H857 N844 0.985 . S
C858 C859 1.363 . S
C858 C864 1.379 1_545 S
C858 N866 1.356 . S
C859 C858 1.363 . S
C859 C865 1.363 . S
C860 C861 1.363 . S
C860 C865 1.379 1_565 S
C860 N867 1.356 . S
C861 C860 1.363 . S
C861 C864 1.363 . S
N862 C864 1.356 . S
N862 H874 0.984 . S
N862 H875 0.985 . S
N863 C865 1.356 . S
N863 H868 0.984 . S
N863 H869 0.985 . S
C864 C858 1.379 1_565 S
C864 C861 1.363 . S
C864 N862 1.356 . S
C865 C859 1.363 . S
C865 C860 1.379 1_545 S
C865 N863 1.356 . S
N866 C858 1.356 . S
N866 H872 0.984 . S
N866 H873 0.984 . S
N867 C860 1.356 . S
N867 H870 0.984 . S
N867 H871 0.985 . S
H868 N863 0.984 . S
H869 N863 0.985 . S
H870 N867 0.984 . S
H871 N867 0.985 . S
H872 N866 0.984 . S
H873 N866 0.984 . S
H874 N862 0.984 . S
H875 N862 0.985 . S
C876 C877 1.363 . S
C876 C882 1.379 . S
C876 N884 1.356 . S
C877 C876 1.363 . S
C877 C883 1.363 . S
C878 C879 1.363 . S
C878 C883 1.379 . S
C878 N885 1.356 . S
C879 C878 1.363 . S
C879 C882 1.363 . S
N880 C882 1.356 . S
N880 H892 0.984 1_556 S
N880 H893 0.985 . S
N881 C883 1.356 . S
N881 H886 0.984 . S
N881 H887 0.985 . S
C882 C876 1.379 . S
C882 C879 1.363 . S
C882 N880 1.356 . S
C883 C877 1.363 . S
C883 C878 1.379 . S
C883 N881 1.356 . S
N884 C876 1.356 . S
N884 H890 0.984 1_556 S
N884 H891 0.984 . S
N885 C878 1.356 . S
N885 H888 0.984 . S
N885 H889 0.985 . S
H886 N881 0.984 . S
H887 N881 0.985 . S
H888 N885 0.984 . S
H889 N885 0.985 . S
H890 N884 0.984 1_554 S
H891 N884 0.984 . S
H892 N880 0.984 1_554 S
H893 N880 0.985 . S
C894 C895 1.363 . S
C894 C900 1.379 1_655 S
C894 N902 1.356 . S
C895 C894 1.363 . S
C895 C901 1.363 . S
C896 C897 1.363 . S
C896 C901 1.379 1_455 S
C896 N903 1.356 . S
C897 C896 1.363 . S
C897 C900 1.363 . S
N898 C900 1.356 . S
N898 H910 0.984 . S
N898 H911 0.985 . S
N899 C901 1.356 . S
N899 H904 0.984 . S
N899 H905 0.985 . S
C900 C894 1.379 1_455 S
C900 C897 1.363 . S
C900 N898 1.356 . S
C901 C895 1.363 . S
C901 C896 1.379 1_655 S
C901 N899 1.356 . S
N902 C894 1.356 . S
N902 H908 0.984 . S
N902 H909 0.984 . S
N903 C896 1.356 . S
N903 H906 0.984 . S
N903 H907 0.985 . S
H904 N899 0.984 . S
H905 N899 0.985 . S
H906 N903 0.984 . S
H907 N903 0.985 . S
H908 N902 0.984 . S
H909 N902 0.984 . S
H910 N898 0.984 . S
H911 N898 0.985 . S
C912 C913 1.363 . S
C912 C918 1.379 1_545 S
C912 N920 1.356 . S
C913 C912 1.363 . S
C913 C919 1.363 . S
C914 C915 1.363 . S
C914 C919 1.379 1_565 S
C914 N921 1.356 . S
C915 C914 1.363 . S
C915 C918 1.363 . S
N916 C918 1.356 . S
N916 H928 0.984 1_556 S
N916 H929 0.985 . S
N917 C919 1.356 . S
N917 H922 0.984 . S
N917 H923 0.985 . S
C918 C912 1.379 1_565 S
C918 C915 1.363 . S
C918 N916 1.356 . S
C919 C913 1.363 . S
C919 C914 1.379 1_545 S
C919 N917 1.356 . S
N920 C912 1.356 . S
N920 H926 0.984 1_556 S
N920 H927 0.984 . S
N921 C914 1.356 . S
N921 H924 0.984 . S
N921 H925 0.985 . S
H922 N917 0.984 . S
H923 N917 0.985 . S
H924 N921 0.984 . S
H925 N921 0.985 . S
H926 N920 0.984 1_554 S
H927 N920 0.984 . S
H928 N916 0.984 1_554 S
H929 N916 0.985 . S
C930 C931 1.363 . S
C930 C936 1.379 . S
C930 N938 1.356 . S
C931 C930 1.363 . S
C931 C937 1.363 . S
C932 C933 1.363 . S
C932 C937 1.379 . S
C932 N939 1.356 . S
C933 C932 1.363 . S
C933 C936 1.363 . S
N934 C936 1.356 . S
N934 H946 0.984 . S
N934 H947 0.985 . S
N935 C937 1.356 . S
N935 H940 0.984 . S
N935 H941 0.985 . S
C936 C930 1.379 . S
C936 C933 1.363 . S
C936 N934 1.356 . S
C937 C931 1.363 . S
C937 C932 1.379 . S
C937 N935 1.356 . S
N938 C930 1.356 . S
N938 H944 0.984 . S
N938 H945 0.984 . S
N939 C932 1.356 . S
N939 H942 0.984 . S
N939 H943 0.985 . S
H940 N935 0.984 . S
H941 N935 0.985 . S
H942 N939 0.984 . S
H943 N939 0.985 . S
H944 N938 0.984 . S
H945 N938 0.984 . S
H946 N934 0.984 . S
H947 N934 0.985 . S
C948 C949 1.363 . S
C948 C954 1.379 1_455 S
C948 N956 1.356 . S
C949 C948 1.363 . S
C949 C955 1.363 . S
C950 C951 1.363 . S
C950 C955 1.379 1_655 S
C950 N957 1.356 . S
C951 C950 1.363 . S
C951 C954 1.363 . S
N952 C954 1.356 . S
N952 H964 0.984 1_556 S
N952 H965 0.985 . S
N953 C955 1.356 . S
N953 H958 0.984 . S
N953 H959 0.985 . S
C954 C948 1.379 1_655 S
C954 C951 1.363 . S
C954 N952 1.356 . S
C955 C949 1.363 . S
C955 C950 1.379 1_455 S
C955 N953 1.356 . S
N956 C948 1.356 . S
N956 H962 0.984 1_556 S
N956 H963 0.984 . S
N957 C950 1.356 . S
N957 H960 0.984 . S
N957 H961 0.985 . S
H958 N953 0.984 . S
H959 N953 0.985 . S
H960 N957 0.984 . S
H961 N957 0.985 . S
H962 N956 0.984 1_554 S
H963 N956 0.984 . S
H964 N952 0.984 1_554 S
H965 N952 0.985 . S
C966 C967 1.363 . S
C966 C972 1.379 1_565 S
C966 N974 1.356 . S
C967 C966 1.363 . S
C967 C973 1.363 . S
C968 C969 1.363 . S
C968 C973 1.379 1_545 S
C968 N975 1.356 . S
C969 C968 1.363 . S
C969 C972 1.363 . S
N970 C972 1.356 . S
N970 H982 0.984 . S
N970 H983 0.985 . S
N971 C973 1.356 . S
N971 H976 0.984 . S
N971 H977 0.985 . S
C972 C966 1.379 1_545 S
C972 C969 1.363 . S
C972 N970 1.356 . S
C973 C967 1.363 . S
C973 C968 1.379 1_565 S
C973 N971 1.356 . S
N974 C966 1.356 . S
N974 H980 0.984 . S
N974 H981 0.984 . S
N975 C968 1.356 . S
N975 H978 0.984 . S
N975 H979 0.985 . S
H976 N971 0.984 . S
H977 N971 0.985 . S
H978 N975 0.984 . S
H979 N975 0.985 . S
H980 N974 0.984 . S
H981 N974 0.984 . S
H982 N970 0.984 . S
H983 N970 0.985 . S
C984 C985 1.363 1_554 S
C984 C990 1.379 . S
C984 N992 1.356 . S
C985 C984 1.363 1_556 S
C985 C991 1.363 . S
C986 C987 1.363 1_556 S
C986 C991 1.379 . S
C986 N993 1.356 . S
C987 C986 1.363 1_554 S
C987 C990 1.363 . S
N988 C990 1.356 . S
N988 H1000 0.984 . S
N988 H1001 0.985 . S
N989 C991 1.356 . S
N989 H994 0.984 . S
N989 H995 0.985 . S
C990 C984 1.379 . S
C990 C987 1.363 . S
C990 N988 1.356 . S
C991 C985 1.363 . S
C991 C986 1.379 . S
C991 N989 1.356 . S
N992 C984 1.356 . S
N992 H998 0.984 . S
N992 H999 0.984 . S
N993 C986 1.356 . S
N993 H996 0.984 . S
N993 H997 0.985 . S
H994 N989 0.984 . S
H995 N989 0.985 . S
H996 N993 0.984 . S
H997 N993 0.985 . S
H998 N992 0.984 . S
H999 N992 0.984 . S
H1000 N988 0.984 . S
H1001 N988 0.985 . S
C1002 C1003 1.363 . S
C1002 C1008 1.379 . S
C1002 N1010 1.356 . S
C1003 C1002 1.363 . S
C1003 C1009 1.363 . S
C1004 C1005 1.363 . S
C1004 C1009 1.379 . S
C1004 N1011 1.356 . S
C1005 C1004 1.363 . S
C1005 C1008 1.363 . S
N1006 C1008 1.356 . S
N1006 H1018 0.984 . S
N1006 H1019 0.985 . S
N1007 C1009 1.356 . S
N1007 H1012 0.984 . S
N1007 H1013 0.985 . S
C1008 C1002 1.379 . S
C1008 C1005 1.363 . S
C1008 N1006 1.356 . S
C1009 C1003 1.363 . S
C1009 C1004 1.379 . S
C1009 N1007 1.356 . S
N1010 C1002 1.356 . S
N1010 H1016 0.984 . S
N1010 H1017 0.984 . S
N1011 C1004 1.356 . S
N1011 H1014 0.984 . S
N1011 H1015 0.985 . S
H1012 N1007 0.984 . S
H1013 N1007 0.985 . S
H1014 N1011 0.984 . S
H1015 N1011 0.985 . S
H1016 N1010 0.984 . S
H1017 N1010 0.984 . S
H1018 N1006 0.984 . S
H1019 N1006 0.985 . S
C1020 C1021 1.363 1_554 S
C1020 C1026 1.379 . S
C1020 N1028 1.356 . S
C1021 C1020 1.363 1_556 S
C1021 C1027 1.363 . S
C1022 C1023 1.363 1_556 S
C1022 C1027 1.379 . S
C1022 N1029 1.356 . S
C1023 C1022 1.363 1_554 S
C1023 C1026 1.363 . S
N1024 C1026 1.356 . S
N1024 H1036 0.984 . S
N1024 H1037 0.985 . S
N1025 C1027 1.356 . S
N1025 H1030 0.984 . S
N1025 H1031 0.985 . S
C1026 C1020 1.379 . S
C1026 C1023 1.363 . S
C1026 N1024 1.356 . S
C1027 C1021 1.363 . S
C1027 C1022 1.379 . S
C1027 N1025 1.356 . S
N1028 C1020 1.356 . S
N1028 H1034 0.984 . S
N1028 H1035 0.989 . S
N1029 C1022 1.356 . S
N1029 H1032 0.989 . S
N1029 H1033 0.985 . S
H1030 N1025 0.984 . S
H1031 N1025 0.985 . S
H1032 N1029 0.989 . S
H1033 N1029 0.985 . S
H1034 N1028 0.984 . S
H1035 N1028 0.989 . S
H1036 N1024 0.984 . S
H1037 N1024 0.985 . S
C1038 C1039 1.363 . S
C1038 C1044 1.379 . S
C1038 N1046 1.356 . S
C1039 C1038 1.363 . S
C1039 C1045 1.363 . S
C1040 C1041 1.363 . S
C1040 C1045 1.379 . S
C1040 N1047 1.356 . S
C1041 C1040 1.363 . S
C1041 C1044 1.363 . S
N1042 C1044 1.356 . S
N1042 H1054 0.984 . S
N1042 H1055 0.985 . S
N1043 C1045 1.356 . S
N1043 H1048 0.984 . S
N1043 H1049 0.985 . S
C1044 C1038 1.379 . S
C1044 C1041 1.363 . S
C1044 N1042 1.356 . S
C1045 C1039 1.363 . S
C1045 C1040 1.379 . S
C1045 N1043 1.356 . S
N1046 C1038 1.356 . S
N1046 H1052 0.984 . S
N1046 H1053 0.984 . S
N1047 C1040 1.356 . S
N1047 H1050 0.984 . S
N1047 H1051 0.985 . S
H1048 N1043 0.984 . S
H1049 N1043 0.985 . S
H1050 N1047 0.984 . S
H1051 N1047 0.985 . S
H1052 N1046 0.984 . S
H1053 N1046 0.984 . S
H1054 N1042 0.984 . S
H1055 N1042 0.985 . S
C1056 C1057 1.363 . S
C1056 C1062 1.379 . S
C1056 N1064 1.356 . S
C1057 C1056 1.363 . S
C1057 C1063 1.363 1_556 S
C1058 C1059 1.363 . S
C1058 C1063 1.379 . S
C1058 N1065 1.356 . S
C1059 C1058 1.363 . S
C1059 C1062 1.363 1_554 S
N1060 C1062 1.356 . S
N1060 H1072 0.984 . S
N1060 H1073 0.985 . S
N1061 C1063 1.356 . S
N1061 H1066 0.984 . S
N1061 H1067 0.985 . S
C1062 C1056 1.379 . S
C1062 C1059 1.363 1_556 S
C1062 N1060 1.356 . S
C1063 C1057 1.363 1_554 S
C1063 C1058 1.379 . S
C1063 N1061 1.356 . S
N1064 C1056 1.356 . S
N1064 H1070 0.984 . S
N1064 H1071 0.984 . S
N1065 C1058 1.356 . S
N1065 H1068 0.984 . S
N1065 H1069 0.985 . S
H1066 N1061 0.984 . S
H1067 N1061 0.985 . S
H1068 N1065 0.984 . S
H1069 N1065 0.985 . S
H1070 N1064 0.984 . S
H1071 N1064 0.984 . S
H1072 N1060 0.984 . S
H1073 N1060 0.985 . S
C1074 C1075 1.363 . S
C1074 C1080 1.379 . S
C1074 N1082 1.356 . S
C1075 C1074 1.363 . S
C1075 C1081 1.363 . S
C1076 C1077 1.363 . S
C1076 C1081 1.379 . S
C1076 N1083 1.356 . S
C1077 C1076 1.363 . S
C1077 C1080 1.363 . S
N1078 C1080 1.356 . S
N1078 H1090 0.984 . S
N1078 H1091 0.985 . S
N1079 C1081 1.356 . S
N1079 H1084 0.984 . S
N1079 H1085 0.985 . S
C1080 C1074 1.379 . S
C1080 C1077 1.363 . S
C1080 N1078 1.356 . S
C1081 C1075 1.363 . S
C1081 C1076 1.379 . S
C1081 N1079 1.356 . S
N1082 C1074 1.356 . S
N1082 H1088 0.984 . S
N1082 H1089 0.984 . S
N1083 C1076 1.356 . S
N1083 H1086 0.984 . S
N1083 H1087 0.985 . S
H1084 N1079 0.984 . S
H1085 N1079 0.985 . S
H1086 N1083 0.984 . S
H1087 N1083 0.985 . S
H1088 N1082 0.984 . S
H1089 N1082 0.984 . S
H1090 N1078 0.984 . S
H1091 N1078 0.985 . S
C1092 C1093 1.363 . S
C1092 C1098 1.379 . S
C1092 N1100 1.356 . S
C1093 C1092 1.363 . S
C1093 C1099 1.363 1_554 S
C1094 C1095 1.363 . S
C1094 C1099 1.379 . S
C1094 N1101 1.356 . S
C1095 C1094 1.363 . S
C1095 C1098 1.363 1_556 S
N1096 C1098 1.356 . S
N1096 H1108 0.984 . S
N1096 H1109 0.985 . S
N1097 C1099 1.356 . S
N1097 H1102 0.984 . S
N1097 H1103 0.985 . S
C1098 C1092 1.379 . S
C1098 C1095 1.363 1_554 S
C1098 N1096 1.356 . S
C1099 C1093 1.363 1_556 S
C1099 C1094 1.379 . S
C1099 N1097 1.356 . S
N1100 C1092 1.356 . S
N1100 H1106 0.984 . S
N1100 H1107 0.984 . S
N1101 C1094 1.356 . S
N1101 H1104 0.984 . S
N1101 H1105 0.985 . S
H1102 N1097 0.984 . S
H1103 N1097 0.985 . S
H1104 N1101 0.984 . S
H1105 N1101 0.985 . S
H1106 N1100 0.984 . S
H1107 N1100 0.984 . S
H1108 N1096 0.984 . S
H1109 N1096 0.985 . S
C1110 C1111 1.363 . S
C1110 C1116 1.379 . S
C1110 N1118 1.356 . S
C1111 C1110 1.363 . S
C1111 C1117 1.363 . S
C1112 C1113 1.363 . S
C1112 C1117 1.379 . S
C1112 N1119 1.356 . S
C1113 C1112 1.363 . S
C1113 C1116 1.363 . S
N1114 C1116 1.356 . S
N1114 H1126 0.984 . S
N1114 H1127 0.985 . S
N1115 C1117 1.356 . S
N1115 H1120 0.984 . S
N1115 H1121 0.985 . S
C1116 C1110 1.379 . S
C1116 C1113 1.363 . S
C1116 N1114 1.356 . S
C1117 C1111 1.363 . S
C1117 C1112 1.379 . S
C1117 N1115 1.356 . S
N1118 C1110 1.356 . S
N1118 H1124 0.984 . S
N1118 H1125 0.984 . S
N1119 C1112 1.356 . S
N1119 H1122 0.984 . S
N1119 H1123 0.985 . S
H1120 N1115 0.984 . S
H1121 N1115 0.985 . S
H1122 N1119 0.984 . S
H1123 N1119 0.985 . S
H1124 N1118 0.984 . S
H1125 N1118 0.984 . S
H1126 N1114 0.984 . S
H1127 N1114 0.985 . S
C1128 C1129 1.363 . S
C1128 C1134 1.379 . S
C1128 N1136 1.356 . S
C1129 C1128 1.363 . S
C1129 C1135 1.363 1_554 S
C1130 C1131 1.363 . S
C1130 C1135 1.379 . S
C1130 N1137 1.356 . S
C1131 C1130 1.363 . S
C1131 C1134 1.363 1_556 S
N1132 C1134 1.356 . S
N1132 H1144 0.984 . S
N1132 H1145 0.991 . S
N1133 C1135 1.356 . S
N1133 H1138 0.991 . S
N1133 H1139 0.985 . S
C1134 C1128 1.379 . S
C1134 C1131 1.363 1_554 S
C1134 N1132 1.356 . S
C1135 C1129 1.363 1_556 S
C1135 C1130 1.379 . S
C1135 N1133 1.356 . S
N1136 C1128 1.356 . S
N1136 H1142 0.984 . S
N1136 H1143 0.984 . S
N1137 C1130 1.356 . S
N1137 H1140 0.984 . S
N1137 H1141 0.985 . S
H1138 N1133 0.991 . S
H1139 N1133 0.985 . S
H1140 N1137 0.984 . S
H1141 N1137 0.985 . S
H1142 N1136 0.984 . S
H1143 N1136 0.984 . S
H1144 N1132 0.984 . S
H1145 N1132 0.991 . S
C1146 C1147 1.363 . S
C1146 C1152 1.379 . S
C1146 N1154 1.356 . S
C1147 C1146 1.363 . S
C1147 C1153 1.363 . S
C1148 C1149 1.363 . S
C1148 C1153 1.379 . S
C1148 N1155 1.356 . S
C1149 C1148 1.363 . S
C1149 C1152 1.363 . S
N1150 C1152 1.356 . S
N1150 H1162 0.984 . S
N1150 H1163 0.985 . S
N1151 C1153 1.356 . S
N1151 H1156 0.984 . S
N1151 H1157 0.985 . S
C1152 C1146 1.379 . S
C1152 C1149 1.363 . S
C1152 N1150 1.356 . S
C1153 C1147 1.363 . S
C1153 C1148 1.379 . S
C1153 N1151 1.356 . S
N1154 C1146 1.356 . S
N1154 H1160 0.984 . S
N1154 H1161 0.984 . S
N1155 C1148 1.356 . S
N1155 H1158 0.984 . S
N1155 H1159 0.985 . S
H1156 N1151 0.984 . S
H1157 N1151 0.985 . S
H1158 N1155 0.984 . S
H1159 N1155 0.985 . S
H1160 N1154 0.984 . S
H1161 N1154 0.984 . S
H1162 N1150 0.984 . S
H1163 N1150 0.985 . S
C1164 C1165 1.363 . S
C1164 C1170 1.379 . S
C1164 N1172 1.356 . S
C1165 C1164 1.363 . S
C1165 C1171 1.363 1_556 S
C1166 C1167 1.363 . S
C1166 C1171 1.379 . S
C1166 N1173 1.356 . S
C1167 C1166 1.363 . S
C1167 C1170 1.363 1_554 S
N1168 C1170 1.356 . S
N1168 H1180 0.984 . S
N1168 H1181 0.985 . S
N1169 C1171 1.356 . S
N1169 H1174 0.984 . S
N1169 H1175 0.985 . S
C1170 C1164 1.379 . S
C1170 C1167 1.363 1_556 S
C1170 N1168 1.356 . S
C1171 C1165 1.363 1_554 S
C1171 C1166 1.379 . S
C1171 N1169 1.356 . S
N1172 C1164 1.356 . S
N1172 H1178 0.984 . S
N1172 H1179 0.984 . S
N1173 C1166 1.356 . S
N1173 H1176 0.984 . S
N1173 H1177 0.985 . S
H1174 N1169 0.984 . S
H1175 N1169 0.985 . S
H1176 N1173 0.984 . S
H1177 N1173 0.985 . S
H1178 N1172 0.984 . S
H1179 N1172 0.984 . S
H1180 N1168 0.984 . S
H1181 N1168 0.985 . S
C1182 C1183 1.363 . S
C1182 C1188 1.379 . S
C1182 N1190 1.356 . S
C1183 C1182 1.363 . S
C1183 C1189 1.363 . S
C1184 C1185 1.363 . S
C1184 C1189 1.379 . S
C1184 N1191 1.356 . S
C1185 C1184 1.363 . S
C1185 C1188 1.363 . S
N1186 C1188 1.356 . S
N1186 H1198 0.984 . S
N1186 H1199 0.985 . S
N1187 C1189 1.356 . S
N1187 H1192 0.984 . S
N1187 H1193 0.985 . S
C1188 C1182 1.379 . S
C1188 C1185 1.363 . S
C1188 N1186 1.356 . S
C1189 C1183 1.363 . S
C1189 C1184 1.379 . S
C1189 N1187 1.356 . S
N1190 C1182 1.356 . S
N1190 H1196 0.984 . S
N1190 H1197 0.984 . S
N1191 C1184 1.356 . S
N1191 H1194 0.984 . S
N1191 H1195 0.985 . S
H1192 N1187 0.984 . S
H1193 N1187 0.985 . S
H1194 N1191 0.984 . S
H1195 N1191 0.985 . S
H1196 N1190 0.984 . S
H1197 N1190 0.984 . S
H1198 N1186 0.984 . S
H1199 N1186 0.985 . S
C337 C0 1.494 . S
C339 C210 1.494 . S
C355 C14 1.494 . S
C357 C224 1.494 . S
C373 C238 1.494 . S
C375 C28 1.494 . S
C391 C168 1.494 . S
C393 C42 1.494 . S
C409 C182 1.494 . S
C411 C56 1.494 . S
C427 C196 1.494 . S
C429 C70 1.494 . S
C445 C294 1.494 . S
C447 C84 1.494 . S
C463 C98 1.494 . S
C465 C308 1.494 . S
C481 C322 1.494 . S
C483 C112 1.494 . S
C499 C126 1.494 . S
C501 C252 1.494 . S
C517 C266 1.494 . S
C519 C140 1.494 . S
C535 C154 1.494 . S
C537 C280 1.494 . S
C553 C151 1.403 . S
C555 C11 1.403 . S
C571 C165 1.402 . S
C573 C25 1.402 . S
C589 C39 1.403 . S
C591 C95 1.403 . S
C607 C53 1.403 . S
C609 C109 1.403 . S
C625 C123 1.402 . S
C627 C67 1.402 . S
C643 C81 1.403 . S
C645 C137 1.403 . S
C661 C319 1.403 . S
C663 C179 1.403 . S
C679 C193 1.402 . S
C681 C333 1.402 . S
C697 C207 1.403 . S
C699 C263 1.403 . S
C715 C277 1.403 . S
C717 C221 1.403 . S
C733 C235 1.402 . S
C735 C291 1.402 . S
C751 C249 1.403 . S
C753 C305 1.403 . S
C769 C5 1.429 . S
C771 C257 1.429 . S
C787 C271 1.429 . S
C789 C19 1.429 . S
C805 C33 1.429 . S
C807 C285 1.429 . S
C823 C47 1.429 . S
C825 C299 1.429 . S
C841 C313 1.429 . S
C843 C61 1.429 . S
C859 C75 1.429 . S
C861 C327 1.429 . S
C877 C89 1.429 . S
C879 C173 1.429 . S
C895 C103 1.429 . S
C897 C187 1.429 . S
C913 C201 1.429 . S
C915 C117 1.429 . S
C931 C215 1.430 . S
C933 C131 1.430 . S
C949 C145 1.429 . S
C951 C229 1.429 . S
C967 C243 1.429 . S
C969 C159 1.429 . S
C985 C93 1.525 . S
C987 C9 1.525 . S
C1003 C23 1.525 . S
C1005 C107 1.525 . S
C1021 C121 1.525 . S
C1023 C37 1.525 . S
C1039 C135 1.525 . S
C1041 C51 1.525 . S
C1057 C149 1.525 . S
C1059 C65 1.525 . S
C1075 C79 1.525 . S
C1077 C163 1.525 . S
C1093 C261 1.525 . S
C1095 C177 1.525 . S
C1111 C191 1.525 . S
C1113 C275 1.525 . S
C1129 C289 1.525 . S
C1131 C205 1.525 . S
C1147 C303 1.525 . S
C1149 C219 1.525 . S
C1165 C233 1.525 . S
C1167 C317 1.525 . S
C1183 C247 1.525 . S
C1185 C331 1.525 . S
