# Generated by pormake.
# Topology neb, (4)-cn, num edge types: 1
# Building blocks:
#     Node 0, Type 0, BuildingBlock: NAHDIM_clean_sbu_0, # of connection points: 4
#     Node 1, Type 0, BuildingBlock: NAHDIM_clean_sbu_0, # of connection points: 4
#     Node 2, Type 0, BuildingBlock: NAHDIM_clean_sbu_0, # of connection points: 4
#     Node 3, Type 0, BuildingBlock: NAHDIM_clean_sbu_0, # of connection points: 4
#     Node 4, Type 0, BuildingBlock: NAHDIM_clean_sbu_0, # of connection points: 4
#     Node 5, Type 0, BuildingBlock: NAHDIM_clean_sbu_0, # of connection points: 4
#     Node 6, Type 0, BuildingBlock: NAHDIM_clean_sbu_0, # of connection points: 4
#     Node 7, Type 0, BuildingBlock: NAHDIM_clean_sbu_0, # of connection points: 4
#     Node 8, Type 0, BuildingBlock: NAHDIM_clean_sbu_0, # of connection points: 4
#     Node 9, Type 0, BuildingBlock: NAHDIM_clean_sbu_0, # of connection points: 4
#     Node 10, Type 0, BuildingBlock: NAHDIM_clean_sbu_0, # of connection points: 4
#     Node 11, Type 0, BuildingBlock: NAHDIM_clean_sbu_0, # of connection points: 4
#     Node 12, Type 0, BuildingBlock: NAHDIM_clean_sbu_0, # of connection points: 4
#     Node 13, Type 0, BuildingBlock: NAHDIM_clean_sbu_0, # of connection points: 4
#     Node 14, Type 0, BuildingBlock: NAHDIM_clean_sbu_0, # of connection points: 4
#     Node 15, Type 0, BuildingBlock: NAHDIM_clean_sbu_0, # of connection points: 4
#     Edge 16, Type (0, 0), BuildingBlock: CIFDUS_clean_linker_0, # of connection points: 2
#     Edge 17, Type (0, 0), BuildingBlock: CIFDUS_clean_linker_0, # of connection points: 2
#     Edge 18, Type (0, 0), BuildingBlock: CIFDUS_clean_linker_0, # of connection points: 2
#     Edge 19, Type (0, 0), BuildingBlock: CIFDUS_clean_linker_0, # of connection points: 2
#     Edge 20, Type (0, 0), BuildingBlock: CIFDUS_clean_linker_0, # of connection points: 2
#     Edge 21, Type (0, 0), BuildingBlock: CIFDUS_clean_linker_0, # of connection points: 2
#     Edge 22, Type (0, 0), BuildingBlock: CIFDUS_clean_linker_0, # of connection points: 2
#     Edge 23, Type (0, 0), BuildingBlock: CIFDUS_clean_linker_0, # of connection points: 2
#     Edge 24, Type (0, 0), BuildingBlock: CIFDUS_clean_linker_0, # of connection points: 2
#     Edge 25, Type (0, 0), BuildingBlock: CIFDUS_clean_linker_0, # of connection points: 2
#     Edge 26, Type (0, 0), BuildingBlock: CIFDUS_clean_linker_0, # of connection points: 2
#     Edge 27, Type (0, 0), BuildingBlock: CIFDUS_clean_linker_0, # of connection points: 2
#     Edge 28, Type (0, 0), BuildingBlock: CIFDUS_clean_linker_0, # of connection points: 2
#     Edge 29, Type (0, 0), BuildingBlock: CIFDUS_clean_linker_0, # of connection points: 2
#     Edge 30, Type (0, 0), BuildingBlock: CIFDUS_clean_linker_0, # of connection points: 2
#     Edge 31, Type (0, 0), BuildingBlock: CIFDUS_clean_linker_0, # of connection points: 2
#     Edge 32, Type (0, 0), BuildingBlock: CIFDUS_clean_linker_0, # of connection points: 2
#     Edge 33, Type (0, 0), BuildingBlock: CIFDUS_clean_linker_0, # of connection points: 2
#     Edge 34, Type (0, 0), BuildingBlock: CIFDUS_clean_linker_0, # of connection points: 2
#     Edge 35, Type (0, 0), BuildingBlock: CIFDUS_clean_linker_0, # of connection points: 2
#     Edge 36, Type (0, 0), BuildingBlock: CIFDUS_clean_linker_0, # of connection points: 2
#     Edge 37, Type (0, 0), BuildingBlock: CIFDUS_clean_linker_0, # of connection points: 2
#     Edge 38, Type (0, 0), BuildingBlock: CIFDUS_clean_linker_0, # of connection points: 2
#     Edge 39, Type (0, 0), BuildingBlock: CIFDUS_clean_linker_0, # of connection points: 2
#     Edge 40, Type (0, 0), BuildingBlock: CIFDUS_clean_linker_0, # of connection points: 2
#     Edge 41, Type (0, 0), BuildingBlock: CIFDUS_clean_linker_0, # of connection points: 2
#     Edge 42, Type (0, 0), BuildingBlock: CIFDUS_clean_linker_0, # of connection points: 2
#     Edge 43, Type (0, 0), BuildingBlock: CIFDUS_clean_linker_0, # of connection points: 2
#     Edge 44, Type (0, 0), BuildingBlock: CIFDUS_clean_linker_0, # of connection points: 2
#     Edge 45, Type (0, 0), BuildingBlock: CIFDUS_clean_linker_0, # of connection points: 2
#     Edge 46, Type (0, 0), BuildingBlock: CIFDUS_clean_linker_0, # of connection points: 2
#     Edge 47, Type (0, 0), BuildingBlock: CIFDUS_clean_linker_0, # of connection points: 2
# Relax obj value: 0.078
# Max RMSD: 0.133
# Mean RMSD: 0.133
data_MOF--net-neb--node1-NAHDIM_clean_sbu_0--edge1-CIFDUS_clean_linker_0
_symmetry_space_group_name_H-M    P1
_symmetry_Int_Tables_number       1
_symmetry_cell_setting            triclinic
loop_
_symmetry_equiv_pos_as_xyz
'x, y, z'
_cell_length_a     40.703911
_cell_length_b     19.385306
_cell_length_c     63.824984
_cell_angle_alpha  90.097384
_cell_angle_beta   94.051637
_cell_angle_gamma 90.268996
loop_
_atom_site_label
_atom_site_type_symbol
_atom_site_fract_x
_atom_site_fract_y
_atom_site_fract_z
_atom_type_partial_charge
C0 C 0.06795 0.08522 0.46423 0.0
O1 O 0.0865 0.13342 0.47357 0.0
O2 O 0.15407 0.1022 0.45759 0.0
Zn3 Zn 0.11868 0.08411 0.4346 0.0
O4 O 0.13052 0.00342 0.4171 0.0
C5 C 0.09236 0.17308 0.40076 0.0
O6 O 0.06978 0.12486 0.3975 0.0
O7 O 0.0764 0.05927 0.44715 0.0
C8 C 0.14655 0.00807 0.40077 0.0
O9 O 0.15796 0.06844 0.39531 0.0
C10 C 0.1779 0.14257 0.45443 0.0
O11 O 0.17955 0.1707 0.43582 0.0
O12 O 0.11398 0.16704 0.41598 0.0
C13 C 0.1826 0.15901 0.7681 0.0
O14 O 0.15321 0.13052 0.76784 0.0
O15 O 0.11232 0.2713 0.77443 0.0
Zn16 Zn 0.1498 0.24302 0.79498 0.0
O17 O 0.1381 0.15952 0.8117 0.0
C18 C 0.13611 0.35654 0.82049 0.0
O19 O 0.10672 0.34169 0.81179 0.0
O20 O 0.18816 0.21371 0.77884 0.0
C21 C 0.11834 0.15591 0.82622 0.0
O22 O 0.10221 0.21109 0.83147 0.0
C23 C 0.08474 0.24012 0.77274 0.0
O24 O 0.08042 0.18475 0.78406 0.0
O25 O 0.16064 0.32173 0.81522 0.0
C26 C 0.92172 0.86941 0.50992 0.0
O27 O 0.90534 0.81558 0.50211 0.0
O28 O 0.83981 0.82643 0.52996 0.0
Zn29 Zn 0.88127 0.8569 0.54625 0.0
O30 O 0.87277 0.93271 0.56658 0.0
C31 C 0.88034 0.76162 0.5786 0.0
O32 O 0.85536 0.80181 0.58201 0.0
O33 O 0.91543 0.89265 0.52781 0.0
C34 C 0.84582 0.96338 0.56912 0.0
O35 O 0.81928 0.94682 0.55724 0.0
C36 C 0.82663 0.85407 0.51345 0.0
O37 O 0.84025 0.90917 0.50572 0.0
O38 O 0.89743 0.77483 0.56317 0.0
C39 C 0.81802 0.90973 0.22401 0.0
O40 O 0.84734 0.93868 0.22591 0.0
O41 O 0.89006 0.82695 0.21213 0.0
Zn42 Zn 0.85049 0.8473 0.19253 0.0
O43 O 0.85738 0.93467 0.17681 0.0
C44 C 0.84927 0.70835 0.17628 0.0
O45 O 0.85916 0.69296 0.19575 0.0
O46 O 0.81227 0.86381 0.20996 0.0
C47 C 0.87473 0.93927 0.1611 0.0
O48 O 0.89037 0.88465 0.15486 0.0
C49 C 0.91615 0.79894 0.20646 0.0
O50 O 0.91843 0.78325 0.18658 0.0
O51 O 0.84239 0.7705 0.1716 0.0
C52 C 0.05323 0.65972 0.96177 0.0
O53 O 0.07824 0.62059 0.95764 0.0
O54 O 0.12725 0.77882 0.95255 0.0
Zn55 Zn 0.08683 0.74724 0.93515 0.0
O56 O 0.09441 0.66654 0.91594 0.0
C57 C 0.09446 0.84142 0.90359 0.0
O58 O 0.12064 0.80222 0.90328 0.0
O59 O 0.05123 0.71989 0.9539 0.0
C60 C 0.12088 0.64318 0.90923 0.0
O61 O 0.14925 0.67186 0.91536 0.0
C62 C 0.14982 0.74251 0.96168 0.0
O63 O 0.1481 0.67493 0.96045 0.0
O64 O 0.0734 0.82818 0.91682 0.0
C65 C 0.16096 0.51562 0.26633 0.0
O66 O 0.13264 0.48257 0.2643 0.0
O67 O 0.08768 0.60835 0.27597 0.0
Zn68 Zn 0.1259 0.58448 0.29632 0.0
O69 O 0.11673 0.49941 0.31296 0.0
C70 C 0.12235 0.6621 0.33401 0.0
O71 O 0.10224 0.6111 0.33775 0.0
O72 O 0.16456 0.56445 0.27961 0.0
C73 C 0.14039 0.48084 0.32573 0.0
O74 O 0.16817 0.51582 0.32625 0.0
C75 C 0.0655 0.65077 0.28039 0.0
O76 O 0.06655 0.67842 0.29922 0.0
O77 O 0.13593 0.66321 0.31666 0.0
C78 C 0.92804 0.45605 0.03042 0.0
O79 O 0.90232 0.49365 0.03417 0.0
O80 O 0.85308 0.33887 0.03517 0.0
Zn81 Zn 0.89322 0.36026 0.05416 0.0
O82 O 0.88338 0.43029 0.07621 0.0
C83 C 0.88335 0.25383 0.08156 0.0
O84 O 0.85708 0.29244 0.08274 0.0
O85 O 0.92989 0.39485 0.03751 0.0
C86 C 0.9017 0.43031 0.09319 0.0
O87 O 0.92681 0.38787 0.09504 0.0
C88 C 0.82555 0.36931 0.03553 0.0
O89 O 0.8227 0.42208 0.0482 0.0
O90 O 0.90495 0.27175 0.06917 0.0
C91 C 0.81149 0.41365 0.71424 0.0
O92 O 0.83775 0.45355 0.71572 0.0
O93 O 0.88999 0.32517 0.70892 0.0
Zn94 Zn 0.85266 0.34672 0.68755 0.0
O95 O 0.86046 0.43524 0.67226 0.0
C96 C 0.87325 0.23471 0.66295 0.0
O97 O 0.90132 0.25097 0.6732 0.0
O98 O 0.81159 0.36019 0.70268 0.0
C99 C 0.877 0.44127 0.6562 0.0
O100 O 0.89162 0.38693 0.64889 0.0
C101 C 0.91794 0.35482 0.70948 0.0
O102 O 0.92286 0.40485 0.6962 0.0
O103 O 0.84759 0.26869 0.66653 0.0
C104 C 0.58577 0.08115 0.97117 0.0
O105 O 0.6144 0.04983 0.97242 0.0
O106 O 0.65925 0.19507 0.96482 0.0
Zn107 Zn 0.62173 0.16351 0.94476 0.0
O108 O 0.63505 0.08038 0.92846 0.0
C109 C 0.63386 0.25187 0.9117 0.0
O110 O 0.66043 0.21345 0.91305 0.0
O111 O 0.58243 0.13567 0.9602 0.0
C112 C 0.62001 0.06636 0.91085 0.0
O113 O 0.59588 0.10649 0.90363 0.0
C114 C 0.68639 0.16273 0.96653 0.0
O115 O 0.68941 0.1055 0.95581 0.0
O116 O 0.61168 0.24092 0.92437 0.0
C117 C 0.65759 0.02168 0.28005 0.0
O118 O 0.62711 -0.00069 0.27692 0.0
O119 O 0.59407 0.15019 0.2842 0.0
Zn120 Zn 0.62599 0.11287 0.30657 0.0
O121 O 0.60515 0.03846 0.32305 0.0
C122 C 0.64067 0.25209 0.32022 0.0
O123 O 0.63175 0.26632 0.30052 0.0
O124 O 0.66375 0.07173 0.29263 0.0
C125 C 0.59484 0.05002 0.34105 0.0
O126 O 0.59622 0.11307 0.34865 0.0
C127 C 0.56509 0.16814 0.28788 0.0
O128 O 0.55508 0.15997 0.30685 0.0
O129 O 0.64138 0.18958 0.32615 0.0
C130 C 0.41747 0.9573 0.01675 0.0
O131 O 0.38921 0.98987 0.01656 0.0
O132 O 0.34421 0.84309 0.02441 0.0
Zn133 Zn 0.38345 0.87003 0.04352 0.0
O134 O 0.37384 0.94708 0.06323 0.0
C135 C 0.4036 0.7801 0.07917 0.0
O136 O 0.40889 0.83707 0.09009 0.0
O137 O 0.42094 0.90133 0.027 0.0
C138 C 0.35187 0.94821 0.07641 0.0
O139 O 0.33175 0.89538 0.07758 0.0
C140 C 0.31763 0.87633 0.0208 0.0
O141 O 0.31468 0.93791 0.02906 0.0
O142 O 0.39477 0.78391 0.05972 0.0
C143 C 0.30603 0.91954 0.70911 0.0
O144 O 0.33566 0.94695 0.70949 0.0
O145 O 0.37426 0.79482 0.71093 0.0
Zn146 Zn 0.34023 0.81936 0.6877 0.0
O147 O 0.35854 0.89058 0.66861 0.0
C148 C 0.35318 0.70921 0.66136 0.0
O149 O 0.38155 0.74184 0.6635 0.0
O150 O 0.30102 0.86113 0.70032 0.0
C151 C 0.34967 0.89155 0.64912 0.0
O152 O 0.32808 0.84592 0.64143 0.0
C153 C 0.40483 0.80397 0.70897 0.0
O154 O 0.41446 0.83309 0.69187 0.0
O155 O 0.32915 0.73265 0.67086 0.0
C156 C 0.57892 0.53048 0.46054 0.0
O157 O 0.59921 0.48282 0.4547 0.0
O158 O 0.65783 0.65924 0.45229 0.0
Zn159 Zn 0.61761 0.62306 0.43579 0.0
O160 O 0.62964 0.54757 0.41619 0.0
C161 C 0.58685 0.69227 0.39955 0.0
O162 O 0.58316 0.62922 0.39215 0.0
O163 O 0.58263 0.59238 0.45456 0.0
C164 C 0.65019 0.49925 0.4199 0.0
O165 O 0.66583 0.49421 0.43854 0.0
C166 C 0.66886 0.63716 0.47013 0.0
O167 O 0.6537 0.58585 0.47887 0.0
O168 O 0.59996 0.70148 0.41801 0.0
C169 C 0.66672 0.57263 0.77701 0.0
O170 O 0.64102 0.53122 0.77655 0.0
O171 O 0.58671 0.65686 0.77793 0.0
Zn172 Zn 0.62366 0.64941 0.80034 0.0
O173 O 0.61654 0.57221 0.82058 0.0
C174 C 0.64185 0.75047 0.83308 0.0
O175 O 0.65936 0.70027 0.84195 0.0
O176 O 0.66548 0.62996 0.78661 0.0
C177 C 0.60017 0.57643 0.83678 0.0
O178 O 0.58515 0.63426 0.84082 0.0
C179 C 0.55807 0.67368 0.78274 0.0
O180 O 0.55245 0.68111 0.80262 0.0
O181 O 0.62601 0.73999 0.8155 0.0
C182 C 0.43688 0.37449 0.5267 0.0
O183 O 0.41384 0.42059 0.52904 0.0
O184 O 0.35397 0.29441 0.52958 0.0
Zn185 Zn 0.39325 0.3018 0.55053 0.0
O186 O 0.38964 0.3838 0.56948 0.0
C187 C 0.39301 0.15667 0.56015 0.0
O188 O 0.38959 0.15047 0.5396 0.0
O189 O 0.43381 0.31511 0.53476 0.0
C190 C 0.36582 0.39697 0.58067 0.0
O191 O 0.34028 0.35519 0.58009 0.0
C192 C 0.32808 0.2616 0.53366 0.0
O193 O 0.32621 0.23436 0.55238 0.0
O194 O 0.39629 0.21644 0.56823 0.0
C195 C 0.32651 0.44055 0.21057 0.0
O196 O 0.35549 0.47029 0.21398 0.0
O197 O 0.39645 0.32902 0.209 0.0
Zn198 Zn 0.36533 0.36204 0.18544 0.0
O199 O 0.38366 0.44614 0.17171 0.0
C200 C 0.38128 0.27351 0.15237 0.0
O201 O 0.40789 0.31217 0.15447 0.0
O202 O 0.32363 0.3897 0.19797 0.0
C203 C 0.37339 0.45999 0.15295 0.0
O204 O 0.35147 0.41916 0.14315 0.0
C205 C 0.42749 0.3347 0.2087 0.0
O206 O 0.44006 0.3645 0.1926 0.0
O207 O 0.35807 0.28477 0.16424 0.0
H208 H 0.27384 0.18032 0.53576 0.0
H209 H 0.32288 0.3152 0.49401 0.0
H210 H 0.28063 0.29052 0.46591 0.0
H211 H 0.23053 0.22879 0.45295 0.0
H212 H 0.18177 0.09306 0.49459 0.0
H213 H 0.22327 0.11991 0.52295 0.0
C214 C 0.27521 0.20469 0.52056 0.0
C215 C 0.30151 0.24952 0.51701 0.0
C216 C 0.251 0.18984 0.5044 0.0
C217 C 0.30293 0.28042 0.49718 0.0
C218 C 0.27881 0.26627 0.48107 0.0
C219 C 0.22894 0.20502 0.46822 0.0
C220 C 0.20312 0.1588 0.4716 0.0
C221 C 0.25288 0.22067 0.48446 0.0
C222 C 0.20142 0.12868 0.49152 0.0
C223 C 0.22513 0.14407 0.50777 0.0
H224 H 0.95726 0.98395 0.52133 0.0
H225 H 0.94347 0.83197 0.47191 0.0
H226 H 0.9864 0.88766 0.45291 0.0
H227 H 0.02892 0.97717 0.45092 0.0
H228 H 0.043 0.12803 0.50066 0.0
H229 H -0.00146 0.07517 0.51887 0.0
C230 C 0.96356 0.96291 0.50639 0.0
C231 C 0.94726 0.90357 0.49812 0.0
C232 C 0.98825 0.99504 0.49559 0.0
C233 C 0.95568 0.87741 0.47868 0.0
C234 C 0.98021 0.90924 0.46779 0.0
C235 C 0.02215 -0.00114 0.46567 0.0
C236 C 0.03938 0.05641 0.47444 0.0
C237 C -0.00321 0.96781 0.47618 0.0
C238 C 0.03022 0.08373 0.49356 0.0
C239 C 0.00484 0.05346 0.50402 0.0
H240 H 0.30952 0.04409 0.7288 0.0
H241 H 0.242 0.87814 0.71106 0.0
H242 H 0.1978 0.93887 0.7272 0.0
H243 H 0.17859 0.0378 0.74677 0.0
H244 H 0.24608 0.20334 0.76493 0.0
H245 H 0.29006 0.14399 0.74805 0.0
C246 C 0.28514 0.02114 0.72843 0.0
C247 C 0.27913 0.95652 0.71876 0.0
C248 C 0.25984 0.05627 0.73777 0.0
C249 C 0.24735 0.92771 0.71842 0.0
C250 C 0.22204 0.96243 0.72763 0.0
C251 C 0.20287 0.06119 0.74698 0.0
C252 C 0.20901 0.12498 0.75712 0.0
C253 C 0.22805 0.02659 0.7374 0.0
C254 C 0.24066 0.15433 0.75725 0.0
C255 C 0.26583 0.12036 0.74762 0.0
H256 H 0.0207 0.19955 0.77083 0.0
H257 H 0.08667 0.34599 0.74465 0.0
H258 H 0.0407 0.39582 0.72325 0.0
H259 H 0.98185 0.39747 0.71188 0.0
H260 H 0.91595 0.2513 0.73831 0.0
H261 H 0.96185 0.20221 0.75984 0.0
C262 C 0.02508 0.24217 0.76038 0.0
C263 C 0.05709 0.26878 0.75928 0.0
C264 C -0.00147 0.27096 0.74826 0.0
C265 C 0.06227 0.32441 0.74578 0.0
C266 C 0.03599 0.35305 0.73356 0.0
C267 C 0.97747 0.35514 0.72243 0.0
C268 C 0.9455 0.32816 0.72345 0.0
C269 C 0.00401 0.32681 0.7347 0.0
C270 C 0.9403 0.27316 0.73719 0.0
C271 C 0.96656 0.24486 0.74949 0.0
H272 H 0.79264 0.74291 0.52631 0.0
H273 H 0.79333 0.89432 0.47678 0.0
H274 H 0.74462 0.84026 0.45903 0.0
H275 H 0.70226 0.74964 0.45746 0.0
H276 H 0.70154 0.59867 0.50712 0.0
H277 H 0.75005 0.65312 0.52493 0.0
C278 C 0.78216 0.76428 0.51163 0.0
C279 C 0.79668 0.82261 0.50287 0.0
C280 C 0.75423 0.73294 0.50152 0.0
C281 C 0.78268 0.84955 0.48387 0.0
C282 C 0.75484 0.81858 0.47371 0.0
C283 C 0.7127 0.72849 0.47218 0.0
C284 C 0.69829 0.67 0.48092 0.0
C285 C 0.7405 0.76018 0.48236 0.0
C286 C 0.7121 0.64356 0.50003 0.0
C287 C 0.73985 0.67469 0.51023 0.0
H288 H 0.72269 0.05371 0.28392 0.0
H289 H 0.65211 0.91919 0.25053 0.0
H290 H 0.69575 0.87054 0.23076 0.0
H291 H 0.75367 0.86903 0.22214 0.0
H292 H 0.82382 0.00458 0.25555 0.0
H293 H 0.78058 0.04962 0.27617 0.0
C294 C 0.71682 0.01361 0.27237 0.0
C295 C 0.68417 0.99042 0.26864 0.0
C296 C 0.74195 0.98601 0.26103 0.0
C297 C 0.67705 0.93816 0.25368 0.0
C298 C 0.70198 0.91029 0.24235 0.0
C299 C 0.75953 0.90812 0.23401 0.0
C300 C 0.79191 0.93357 0.23721 0.0
C301 C 0.73448 0.93423 0.24578 0.0
C302 C 0.79909 0.9842 0.25268 0.0
C303 C 0.77437 0.0101 0.2645 0.0
H304 H 0.96815 0.71446 0.2015 0.0
H305 H 0.92295 0.83958 0.24744 0.0
H306 H 0.96504 0.80438 0.27435 0.0
H307 H 0.01425 0.73736 0.28495 0.0
H308 H 0.05901 0.61053 0.23923 0.0
H309 H 0.01737 0.64695 0.21217 0.0
C310 C 0.96763 0.73438 0.21737 0.0
C311 C 0.94251 0.77969 0.22244 0.0
C312 C 0.99169 0.71333 0.23285 0.0
C313 C 0.94202 0.80456 0.24312 0.0
C314 C 0.96605 0.78444 0.25854 0.0
C315 C 0.0149 0.71756 0.26908 0.0
C316 C 0.03971 0.6713 0.26415 0.0
C317 C 0.9909 0.73861 0.2536 0.0
C318 C 0.04014 0.64611 0.24349 0.0
C319 C 0.01639 0.66702 0.22798 0.0
H320 H 0.25807 0.93238 0.00852 0.0
H321 H 0.31377 0.74374 0.00643 0.0
H322 H 0.26668 0.68537 0.9885 0.0
H323 H 0.2094 0.68706 0.97369 0.0
H324 H 0.15411 0.87629 0.9748 0.0
H325 H 0.20118 0.93486 0.99287 0.0
C326 C 0.25995 0.8786 0.00407 0.0
C327 C 0.28942 0.84264 0.00887 0.0
C328 C 0.23276 0.84516 -0.00633 0.0
C329 C 0.29143 0.77291 0.00292 0.0
C330 C 0.26446 0.73926 0.99271 0.0
C331 C 0.20762 0.74101 0.97797 0.0
C332 C 0.17826 0.77708 0.973 0.0
C333 C 0.23494 0.77473 0.9881 0.0
C334 C 0.17646 0.84725 0.97844 0.0
C335 C 0.20336 0.88087 0.98878 0.0
H336 H 0.0502 0.53287 0.97942 0.0
H337 H -0.00197 0.72602 0.9733 0.0
H338 H 0.95482 0.68005 -0.00589 0.0
H339 H 0.9316 0.5846 0.01367 0.0
H340 H 0.98389 0.39149 0.01956 0.0
H341 H 0.02732 0.43808 -0.00085 0.0
C342 C 0.02943 0.56509 0.98266 0.0
C343 C 0.02737 0.6328 0.97479 0.0
C344 C 0.00466 0.53831 -0.00545 0.0
C345 C 0.00025 0.67372 0.97915 0.0
C346 C 0.97551 0.64745 0.99104 0.0
C347 C 0.95249 0.55266 0.01051 0.0
C348 C 0.95443 0.4846 0.01813 0.0
C349 C 0.97741 0.57974 -0.00125 0.0
C350 C 0.98172 0.44402 0.01389 0.0
C351 C 0.0066 0.47061 0.00222 0.0
H352 H 0.2642 0.38816 0.20821 0.0
H353 H 0.32534 0.54738 0.23834 0.0
H354 H 0.27939 0.58544 0.25791 0.0
H355 H 0.22228 0.57208 0.26708 0.0
H356 H 0.16113 0.41257 0.23715 0.0
H357 H 0.20667 0.37628 0.21689 0.0
C358 C 0.26745 0.43132 0.219 0.0
C359 C 0.29819 0.46468 0.22183 0.0
C360 C 0.24096 0.45288 0.23029 0.0
C361 C 0.30196 0.52061 0.23587 0.0
C362 C 0.2757 0.54246 0.2471 0.0
C363 C 0.21886 0.52949 0.25609 0.0
C364 C 0.18837 0.49502 0.25369 0.0
C365 C 0.24516 0.50872 0.24452 0.0
C366 C 0.18436 0.43998 0.23935 0.0
C367 C 0.2104 0.41913 0.22774 0.0
H368 H 0.68989 0.28423 0.98817 0.0
H369 H 0.74737 0.1062 0.97333 0.0
H370 H 0.79547 0.15542 0.99291 0.0
H371 H 0.82136 0.24876 0.01394 0.0
H372 H 0.76427 0.4266 0.02934 0.0
H373 H 0.71587 0.37772 0.00967 0.0
C374 C 0.71289 0.25604 0.98929 0.0
C375 C 0.71498 0.19159 0.97927 0.0
C376 C 0.74057 0.28474 0.00053 0.0
C377 C 0.74502 0.15586 0.98087 0.0
C378 C 0.7726 0.18402 0.99203 0.0
C379 C 0.7984 0.27715 0.01293 0.0
C380 C 0.79649 0.34141 0.02303 0.0
C381 C 0.77069 0.2485 0.00182 0.0
C382 C 0.76644 0.37708 0.02169 0.0
C383 C 0.73874 0.34911 0.01048 0.0
H384 H 0.67588 0.45586 0.7546 0.0
H385 H 0.72468 0.64398 0.77605 0.0
H386 H 0.77388 0.61052 0.75883 0.0
H387 H 0.80281 0.52859 0.73749 0.0
H388 H 0.75392 0.34096 0.71572 0.0
H389 H 0.70495 0.37359 0.73336 0.0
C390 C 0.69727 0.48959 0.75554 0.0
C391 C 0.69656 0.55238 0.76659 0.0
C392 C 0.72545 0.47014 0.74557 0.0
C393 C 0.72452 0.59542 0.76762 0.0
C394 C 0.75269 0.57631 0.75779 0.0
C395 C 0.7815 0.49465 0.73663 0.0
C396 C 0.78205 0.4324 0.7253 0.0
C397 C 0.75339 0.51387 0.7467 0.0
C398 C 0.75416 0.38919 0.72433 0.0
C399 C 0.72613 0.40782 0.7344 0.0
H400 H 0.52223 0.12603 0.96903 0.0
H401 H 0.58596 0.96749 -0.00375 0.0
H402 H 0.5395 0.91442 0.01227 0.0
H403 H 0.48082 0.91258 0.01856 0.0
H404 H 0.41695 0.07121 0.9916 0.0
H405 H 0.46338 0.12426 0.9754 0.0
C406 C 0.52599 0.08002 0.97853 0.0
C407 C 0.55757 0.0509 0.98143 0.0
C408 C 0.4991 0.04947 0.98767 0.0
C409 C 0.56195 0.99111 -0.00626 0.0
C410 C 0.53536 0.96056 0.0029 0.0
C411 C 0.47699 0.95857 0.00906 0.0
C412 C 0.44542 0.98773 0.00628 0.0
C413 C 0.50383 0.98915 -8e-05 0.0
C414 C 0.44098 0.0476 -0.00599 0.0
C415 C 0.46753 0.07809 0.98476 0.0
H416 H 0.4929 0.3091 0.2086 0.0
H417 H 0.41042 0.2931 0.2473 0.0
H418 H 0.44579 0.24076 0.27534 0.0
H419 H 0.49999 0.19808 0.28868 0.0
H420 H 0.58194 0.21093 0.2494 0.0
H421 H 0.54686 0.26574 0.22178 0.0
C422 C 0.4827 0.29453 0.22321 0.0
C423 C 0.44914 0.30511 0.22588 0.0
C424 C 0.50303 0.26357 0.23914 0.0
C425 C 0.43621 0.28537 0.24483 0.0
C426 C 0.4564 0.25543 0.26089 0.0
C427 C 0.51017 0.21291 0.27409 0.0
C428 C 0.54351 0.2004 0.27113 0.0
C429 C 0.48981 0.24399 0.25817 0.0
C430 C 0.55631 0.2197 0.25208 0.0
C431 C 0.5363 0.25123 0.23627 0.0
H432 H 0.46905 0.77652 0.70436 0.0
H433 H 0.39541 0.77218 0.74978 0.0
H434 H 0.43616 0.72899 0.7765 0.0
H435 H 0.493 0.69498 0.78709 0.0
H436 H 0.56599 0.69563 0.74118 0.0
H437 H 0.52504 0.73708 0.71445 0.0
C438 C 0.46195 0.76641 0.72014 0.0
C439 C 0.4294 0.77822 0.72517 0.0
C440 C 0.48531 0.74056 0.73528 0.0
C441 C 0.42039 0.76371 0.74556 0.0
C442 C 0.44365 0.73899 0.76083 0.0
C443 C 0.4999 0.70382 0.77121 0.0
C444 C 0.53253 0.69259 0.76618 0.0
C445 C 0.47621 0.72747 0.75588 0.0
C446 C 0.54102 0.70373 0.74548 0.0
C447 C 0.51767 0.72778 0.73019 0.0
H448 H 0.45265 0.49976 0.51152 0.0
H449 H 0.48616 0.28894 0.51555 0.0
H450 H 0.53342 0.31881 0.49567 0.0
H451 H 0.56471 0.40469 0.47673 0.0
H452 H 0.5309 0.6155 0.47318 0.0
H453 H 0.48429 0.58555 0.49337 0.0
C454 C 0.47025 0.46021 0.50806 0.0
C455 C 0.46579 0.39217 0.51493 0.0
C456 C 0.49733 0.47774 0.49673 0.0
C457 C 0.48899 0.34174 0.51042 0.0
C458 C 0.51601 0.35877 0.49905 0.0
C459 C 0.54719 0.44412 0.48041 0.0
C460 C 0.55129 0.5122 0.47338 0.0
C461 C 0.52036 0.42659 0.49206 0.0
C462 C 0.52838 0.56268 0.47836 0.0
C463 C 0.50166 0.54562 0.48989 0.0
H464 H 0.15448 0.78456 0.3293 0.0
H465 H 0.10172 0.66645 0.37354 0.0
H466 H 0.10679 0.76132 0.39858 0.0
H467 H 0.12327 0.87941 0.40723 0.0
H468 H 0.17471 0.00032 0.36306 0.0
H469 H 0.17342 0.90236 0.3388 0.0
C470 C 0.14432 0.77945 0.34448 0.0
C471 C 0.12753 0.71867 0.34945 0.0
C472 C 0.14703 0.83464 0.35882 0.0
C473 C 0.11453 0.71282 0.36921 0.0
C474 C 0.11744 0.76703 0.38358 0.0
C475 C 0.13447 0.88437 0.39238 0.0
C476 C 0.14887 0.94728 0.38693 0.0
C477 C 0.1332 0.82844 0.37843 0.0
C478 C 0.16337 0.95252 0.36764 0.0
C479 C 0.16256 0.89659 0.35373 0.0
H480 H 0.14393 0.26025 0.39806 0.0
H481 H 0.04728 0.21314 0.36924 0.0
H482 H 0.05354 0.30437 0.34332 0.0
H483 H 0.08699 0.39652 0.32864 0.0
H484 H 0.18424 0.43978 0.35731 0.0
H485 H 0.1772 0.35057 0.38343 0.0
C486 C 0.12407 0.27013 0.38621 0.0
C487 C 0.09511 0.23017 0.38565 0.0
C488 C 0.12805 0.32163 0.37123 0.0
C489 C 0.06982 0.24326 0.37004 0.0
C490 C 0.07341 0.2953 0.3552 0.0
C491 C 0.10665 0.38629 0.34057 0.0
C492 C 0.1361 0.42479 0.34099 0.0
C493 C 0.10252 0.33456 0.35558 0.0
C494 C 0.16135 0.41086 0.35656 0.0
C495 C 0.15734 0.35995 0.37156 0.0
H496 H 0.0872 0.41736 0.84 0.0
H497 H 0.19301 0.41467 0.83855 0.0
H498 H 0.19787 0.50255 0.86627 0.0
H499 H 0.17165 0.58103 0.89065 0.0
H500 H 0.06564 0.57982 0.89194 0.0
H501 H 0.0614 0.49218 0.8646 0.0
C502 C 0.11138 0.43605 0.84565 0.0
C503 C 0.13968 0.40988 0.83711 0.0
C504 C 0.11397 0.48573 0.86163 0.0
C505 C 0.17082 0.43415 0.84483 0.0
C506 C 0.1736 0.48434 0.86068 0.0
C507 C 0.14765 0.56139 0.885 0.0
C508 C 0.11903 0.58732 0.89333 0.0
C509 C 0.14529 0.51059 0.86919 0.0
C510 C 0.08811 0.56106 0.88585 0.0
C511 C 0.08561 0.51093 0.87015 0.0
H512 H 0.12828 0.86538 0.8696 0.0
H513 H 0.05372 0.95315 0.90624 0.0
H514 H 0.05338 0.05798 0.88481 0.0
H515 H 0.07708 0.12705 0.85704 0.0
H516 H 0.1517 0.03672 0.82078 0.0
H517 H 0.14911 0.93039 0.84075 0.0
C518 C 0.1118 0.90726 0.87287 0.0
C519 C 0.09133 0.90192 0.88961 0.0
C520 C 0.11189 0.96704 0.86063 0.0
C521 C 0.06977 0.95616 0.89344 0.0
C522 C 0.06968 0.01615 0.88126 0.0
C523 C 0.09263 0.08396 0.85344 0.0
C524 C 0.11479 0.09022 0.83758 0.0
C525 C 0.09108 0.0226 0.86503 0.0
C526 C 0.13456 0.03363 0.83298 0.0
C527 C 0.13314 0.97268 0.8444 0.0
H528 H 0.82147 0.1963 0.63572 0.0
H529 H 0.92323 0.1499 0.65388 0.0
H530 H 0.92337 0.06222 0.6266 0.0
H531 H 0.89538 0.00014 0.59739 0.0
H532 H 0.79376 0.04468 0.57855 0.0
H533 H 0.79285 0.13177 0.60634 0.0
C534 C 0.8436 0.16677 0.63375 0.0
C535 C 0.8723 0.17983 0.64681 0.0
C536 C 0.84363 0.11633 0.61789 0.0
C537 C 0.9008 0.14116 0.64404 0.0
C538 C 0.90096 0.09094 0.62842 0.0
C539 C 0.87296 0.02882 0.59929 0.0
C540 C 0.84472 0.01606 0.58584 0.0
C541 C 0.87262 0.07844 0.61521 0.0
C542 C 0.81588 0.05357 0.58866 0.0
C543 C 0.81534 0.10334 0.60455 0.0
H544 H 0.90976 0.47356 0.62162 0.0
H545 H 0.84565 0.55957 0.66597 0.0
H546 H 0.84271 0.66722 0.64641 0.0
H547 H 0.85548 0.73454 0.61579 0.0
H548 H 0.91949 0.65067 0.57116 0.0
H549 H 0.92557 0.54475 0.5919 0.0
C550 C 0.89534 0.51602 0.62708 0.0
C551 C 0.8777 0.50814 0.64512 0.0
C552 C 0.89364 0.57806 0.6157 0.0
C553 C 0.85934 0.56392 0.65208 0.0
C554 C 0.85758 0.6256 0.64089 0.0
C555 C 0.87091 0.69327 0.61062 0.0
C556 C 0.88672 0.70011 0.59187 0.0
C557 C 0.87418 0.63279 0.62253 0.0
C558 C 0.90699 0.64656 0.58554 0.0
C559 C 0.91038 0.58593 0.59735 0.0
H560 H 0.85753 0.53539 0.09318 0.0
H561 H 0.92858 0.42401 0.13341 0.0
H562 H 0.91627 0.49631 0.16311 0.0
H563 H 0.88711 0.59393 0.17739 0.0
H564 H 0.81835 0.70994 0.13694 0.0
H565 H 0.82763 0.63245 0.10767 0.0
C566 C 0.87025 0.52686 0.10846 0.0
C567 C 0.89403 0.4746 0.11104 0.0
C568 C 0.86334 0.56918 0.12547 0.0
C569 C 0.91034 0.46424 0.13094 0.0
C570 C 0.90324 0.50537 0.14797 0.0
C571 C 0.87376 0.6016 0.16226 0.0
C572 C 0.85195 0.65724 0.15934 0.0
C573 C 0.87996 0.55825 0.14539 0.0
C574 C 0.83524 0.66729 0.13956 0.0
C575 C 0.84063 0.6232 0.12281 0.0
H576 H 0.91108 0.97057 0.12801 0.0
H577 H 0.83853 0.05429 0.16716 0.0
H578 H 0.83548 0.15891 0.14616 0.0
H579 H 0.8516 0.22495 0.11611 0.0
H580 H 0.92484 0.14463 0.07704 0.0
H581 H 0.92951 0.04031 0.09867 0.0
C582 C 0.89474 0.01185 0.132 0.0
C583 C 0.87491 0.00428 0.14905 0.0
C584 C 0.89311 0.0723 0.11985 0.0
C585 C 0.85403 0.05853 0.1541 0.0
C586 C 0.85218 0.11843 0.14208 0.0
C587 C 0.8686 0.18464 0.11229 0.0
C588 C 0.88759 0.19203 0.0949 0.0
C589 C 0.8713 0.12549 0.12481 0.0
C590 C 0.9099 0.13993 0.09035 0.0
C591 C 0.91252 0.08031 0.10268 0.0
H592 H 0.66698 0.78665 0.87232 0.0
H593 H 0.60678 0.86248 0.8189 0.0
H594 H 0.59549 0.96737 0.8381 0.0
H595 H 0.60045 0.0353 0.87048 0.0
H596 H 0.66066 0.96077 0.924 0.0
H597 H 0.6742 0.85777 0.9043 0.0
C598 C 0.65162 0.82636 0.86482 0.0
C599 C 0.6376 0.81639 0.84425 0.0
C600 C 0.64501 0.88663 0.87599 0.0
C601 C 0.6178 0.86853 0.83475 0.0
C602 C 0.61125 0.92859 0.84572 0.0
C603 C 0.61658 0.99659 0.87784 0.0
C604 C 0.62928 0.00539 0.89872 0.0
C605 C 0.62432 0.93771 0.86644 0.0
C606 C 0.65046 0.95514 0.90795 0.0
C607 C 0.6582 0.89619 0.8967 0.0
H608 H 0.58986 0.35783 0.90938 0.0
H609 H 0.66962 0.26782 0.87768 0.0
H610 H 0.66502 0.3583 0.85123 0.0
H611 H 0.6397 0.46443 0.83762 0.0
H612 H 0.56155 0.55859 0.86979 0.0
H613 H 0.56408 0.46484 0.89546 0.0
C614 C 0.6061 0.35791 0.89661 0.0
C615 C 0.63007 0.30623 0.89553 0.0
C616 C 0.60365 0.4108 0.88155 0.0
C617 C 0.65107 0.30719 0.87897 0.0
C618 C 0.64844 0.35885 0.86379 0.0
C619 C 0.62301 0.46431 0.85015 0.0
C620 C 0.60043 0.51835 0.85177 0.0
C621 C 0.625 0.41111 0.86501 0.0
C622 C 0.57921 0.51761 0.86821 0.0
C623 C 0.58065 0.46405 0.8829 0.0
H624 H 0.66417 0.24133 0.36108 0.0
H625 H 0.62766 0.38883 0.31454 0.0
H626 H 0.62907 0.4791 0.34123 0.0
H627 H 0.63669 0.51408 0.37811 0.0
H628 H 0.67401 0.36812 0.42478 0.0
H629 H 0.67647 0.27926 0.39764 0.0
C630 C 0.65684 0.29339 0.35674 0.0
C631 C 0.6455 0.30812 0.33589 0.0
C632 C 0.65765 0.34514 0.37219 0.0
C633 C 0.63641 0.37598 0.33047 0.0
C634 C 0.63707 0.42763 0.34574 0.0
C635 C 0.64554 0.4629 0.38233 0.0
C636 C 0.65476 0.44733 0.40343 0.0
C637 C 0.64699 0.41242 0.3667 0.0
C638 C 0.6667 0.38125 0.40863 0.0
C639 C 0.66801 0.33042 0.39314 0.0
H640 H 0.5826 0.8265 0.41103 0.0
H641 H 0.57718 0.69252 0.35679 0.0
H642 H 0.57575 0.79269 0.33362 0.0
H643 H 0.58245 0.91751 0.32897 0.0
H644 H 0.58796 0.05135 0.38326 0.0
H645 H 0.58251 0.95196 0.40618 0.0
C646 C 0.58068 0.81924 0.39413 0.0
C647 C 0.58054 0.75226 0.38565 0.0
C648 C 0.58011 0.87696 0.38091 0.0
C649 C 0.5775 0.74358 0.36373 0.0
C650 C 0.57684 0.80082 0.35046 0.0
C651 C 0.58203 0.92502 0.3458 0.0
C652 C 0.58616 0.99155 0.35443 0.0
C653 C 0.57913 0.86764 0.35891 0.0
C654 C 0.58504 0.00062 0.37622 0.0
C655 C 0.58206 0.94378 0.38936 0.0
H656 H 0.33473 0.17149 0.14719 0.0
H657 H 0.42221 0.25213 0.12123 0.0
H658 H 0.41978 0.16058 0.09505 0.0
H659 H 0.39417 0.05629 0.08013 0.0
H660 H 0.30763 0.97175 0.10615 0.0
H661 H 0.30827 0.06646 0.13162 0.0
C662 C 0.35315 0.16913 0.13574 0.0
C663 C 0.37867 0.21852 0.13624 0.0
C664 C 0.35183 0.11569 0.12075 0.0
C665 C 0.4024 0.21465 0.12132 0.0
C666 C 0.40103 0.16233 0.10629 0.0
C667 C 0.37528 0.05854 0.09128 0.0
C668 C 0.35092 0.00687 0.09124 0.0
C669 C 0.37604 0.11237 0.10597 0.0
C670 C 0.32671 0.01079 0.10585 0.0
C671 C 0.32708 0.06489 0.12043 0.0
H672 H 0.37223 0.48243 0.11119 0.0
H673 H 0.40084 0.5766 0.17103 0.0
H674 H 0.41548 0.68322 0.15333 0.0
H675 H 0.41596 0.75218 0.12091 0.0
H676 H 0.388 0.65556 0.06121 0.0
H677 H 0.37776 0.54723 0.07882 0.0
C678 C 0.38183 0.5262 0.12035 0.0
C679 C 0.38502 0.52215 0.14235 0.0
C680 C 0.39032 0.5869 0.1101 0.0
C681 C 0.39805 0.57869 0.15404 0.0
C682 C 0.40635 0.63966 0.14393 0.0
C683 C 0.40806 0.7072 0.11174 0.0
C684 C 0.40236 0.71243 0.08979 0.0
C685 C 0.40201 0.64476 0.12198 0.0
C686 C 0.39237 0.65337 0.07813 0.0
C687 C 0.38637 0.59128 0.08818 0.0
H688 H 0.39821 0.66022 0.6362 0.0
H689 H 0.29989 0.62212 0.65484 0.0
H690 H 0.2949 0.52184 0.63137 0.0
H691 H 0.31893 0.44484 0.60562 0.0
H692 H 0.41718 0.48649 0.58716 0.0
H693 H 0.4216 0.58575 0.61053 0.0
C694 C 0.37564 0.63005 0.63521 0.0
C695 C 0.34951 0.64848 0.64732 0.0
C696 C 0.37292 0.57312 0.62168 0.0
C697 C 0.3204 0.60896 0.6457 0.0
C698 C 0.31755 0.55166 0.63228 0.0
C699 C 0.34127 0.47569 0.60671 0.0
C700 C 0.36769 0.45801 0.59466 0.0
C701 C 0.3437 0.53322 0.6202 0.0
C702 C 0.39644 0.49873 0.59622 0.0
C703 C 0.39906 0.55558 0.6096 0.0
H704 H 0.40363 0.15011 0.60257 0.0
H705 H 0.37033 0.02858 0.54835 0.0
H706 H 0.35506 0.93457 0.57119 0.0
H707 H 0.34762 0.89027 0.60656 0.0
H708 H 0.3815 0.01125 0.66075 0.0
H709 H 0.40014 0.10214 0.63787 0.0
C710 C 0.39333 0.1028 0.59573 0.0
C711 C 0.38784 0.09664 0.57379 0.0
C712 C 0.38444 0.04913 0.60894 0.0
C713 C 0.37478 0.03474 0.56518 0.0
C714 C 0.36588 0.98106 0.57823 0.0
C715 C 0.35917 0.93645 0.61336 0.0
C716 C 0.3628 0.94444 0.6353 0.0
C717 C 0.36998 0.98829 0.60013 0.0
C718 C 0.3783 0.00401 0.6439 0.0
C719 C 0.38893 0.05603 0.63083 0.0
loop_
_geom_bond_atom_site_label_1
_geom_bond_atom_site_label_2
_geom_bond_distance
_geom_bond_site_symmetry_2
_ccdc_geom_bond_type
C0 O1 1.160 . S
C0 O7 1.185 . S
O1 C0 1.160 . S
O2 Zn3 1.899 . S
O2 C10 1.284 . S
Zn3 O2 1.899 . S
Zn3 O4 2.032 . S
Zn3 O7 2.086 . S
Zn3 O12 1.977 . S
O4 Zn3 2.032 . S
O4 C8 1.278 . S
C5 O6 1.203 . S
C5 O12 1.267 . S
O6 C5 1.203 . S
O7 C0 1.185 . S
O7 Zn3 2.086 . S
C8 O4 1.278 . S
C8 O9 1.211 . S
O9 C8 1.211 . S
C10 O2 1.284 . S
C10 O11 1.273 . S
O11 C10 1.273 . S
O12 Zn3 1.977 . S
O12 C5 1.267 . S
C13 O14 1.160 . S
C13 O20 1.185 . S
O14 C13 1.160 . S
O15 Zn16 1.899 . S
O15 C23 1.284 . S
Zn16 O15 1.899 . S
Zn16 O17 2.032 . S
Zn16 O20 2.086 . S
Zn16 O25 1.977 . S
O17 Zn16 2.032 . S
O17 C21 1.278 . S
C18 O19 1.203 . S
C18 O25 1.267 . S
O19 C18 1.203 . S
O20 C13 1.185 . S
O20 Zn16 2.086 . S
C21 O17 1.278 . S
C21 O22 1.211 . S
O22 C21 1.211 . S
C23 O15 1.284 . S
C23 O24 1.273 . S
O24 C23 1.273 . S
O25 Zn16 1.977 . S
O25 C18 1.267 . S
C26 O27 1.160 . S
C26 O33 1.185 . S
O27 C26 1.160 . S
O28 Zn29 1.899 . S
O28 C36 1.284 . S
Zn29 O28 1.899 . S
Zn29 O30 2.032 . S
Zn29 O33 2.086 . S
Zn29 O38 1.977 . S
O30 Zn29 2.032 . S
O30 C34 1.278 . S
C31 O32 1.203 . S
C31 O38 1.267 . S
O32 C31 1.203 . S
O33 C26 1.185 . S
O33 Zn29 2.086 . S
C34 O30 1.278 . S
C34 O35 1.211 . S
O35 C34 1.211 . S
C36 O28 1.284 . S
C36 O37 1.273 . S
O37 C36 1.273 . S
O38 Zn29 1.977 . S
O38 C31 1.267 . S
C39 O40 1.160 . S
C39 O46 1.185 . S
O40 C39 1.160 . S
O41 Zn42 1.899 . S
O41 C49 1.284 . S
Zn42 O41 1.899 . S
Zn42 O43 2.032 . S
Zn42 O46 2.086 . S
Zn42 O51 1.977 . S
O43 Zn42 2.032 . S
O43 C47 1.278 . S
C44 O45 1.203 . S
C44 O51 1.267 . S
O45 C44 1.203 . S
O46 C39 1.185 . S
O46 Zn42 2.086 . S
C47 O43 1.278 . S
C47 O48 1.211 . S
O48 C47 1.211 . S
C49 O41 1.284 . S
C49 O50 1.273 . S
O50 C49 1.273 . S
O51 Zn42 1.977 . S
O51 C44 1.267 . S
C52 O53 1.160 . S
C52 O59 1.185 . S
O53 C52 1.160 . S
O54 Zn55 1.899 . S
O54 C62 1.284 . S
Zn55 O54 1.899 . S
Zn55 O56 2.032 . S
Zn55 O59 2.086 . S
Zn55 O64 1.977 . S
O56 Zn55 2.032 . S
O56 C60 1.278 . S
C57 O58 1.203 . S
C57 O64 1.267 . S
O58 C57 1.203 . S
O59 C52 1.185 . S
O59 Zn55 2.086 . S
C60 O56 1.278 . S
C60 O61 1.211 . S
O61 C60 1.211 . S
C62 O54 1.284 . S
C62 O63 1.273 . S
O63 C62 1.273 . S
O64 Zn55 1.977 . S
O64 C57 1.267 . S
C65 O66 1.160 . S
C65 O72 1.185 . S
O66 C65 1.160 . S
O67 Zn68 1.899 . S
O67 C75 1.284 . S
Zn68 O67 1.899 . S
Zn68 O69 2.032 . S
Zn68 O72 2.086 . S
Zn68 O77 1.977 . S
O69 Zn68 2.032 . S
O69 C73 1.278 . S
C70 O71 1.203 . S
C70 O77 1.267 . S
O71 C70 1.203 . S
O72 C65 1.185 . S
O72 Zn68 2.086 . S
C73 O69 1.278 . S
C73 O74 1.211 . S
O74 C73 1.211 . S
C75 O67 1.284 . S
C75 O76 1.273 . S
O76 C75 1.273 . S
O77 Zn68 1.977 . S
O77 C70 1.267 . S
C78 O79 1.160 . S
C78 O85 1.185 . S
O79 C78 1.160 . S
O80 Zn81 1.899 . S
O80 C88 1.284 . S
Zn81 O80 1.899 . S
Zn81 O82 2.032 . S
Zn81 O85 2.086 . S
Zn81 O90 1.977 . S
O82 Zn81 2.032 . S
O82 C86 1.278 . S
C83 O84 1.203 . S
C83 O90 1.267 . S
O84 C83 1.203 . S
O85 C78 1.185 . S
O85 Zn81 2.086 . S
C86 O82 1.278 . S
C86 O87 1.211 . S
O87 C86 1.211 . S
C88 O80 1.284 . S
C88 O89 1.273 . S
O89 C88 1.273 . S
O90 Zn81 1.977 . S
O90 C83 1.267 . S
C91 O92 1.160 . S
C91 O98 1.185 . S
O92 C91 1.160 . S
O93 Zn94 1.899 . S
O93 C101 1.284 . S
Zn94 O93 1.899 . S
Zn94 O95 2.032 . S
Zn94 O98 2.086 . S
Zn94 O103 1.977 . S
O95 Zn94 2.032 . S
O95 C99 1.278 . S
C96 O97 1.203 . S
C96 O103 1.267 . S
O97 C96 1.203 . S
O98 C91 1.185 . S
O98 Zn94 2.086 . S
C99 O95 1.278 . S
C99 O100 1.211 . S
O100 C99 1.211 . S
C101 O93 1.284 . S
C101 O102 1.273 . S
O102 C101 1.273 . S
O103 Zn94 1.977 . S
O103 C96 1.267 . S
C104 O105 1.160 . S
C104 O111 1.185 . S
O105 C104 1.160 . S
O106 Zn107 1.899 . S
O106 C114 1.284 . S
Zn107 O106 1.899 . S
Zn107 O108 2.032 . S
Zn107 O111 2.086 . S
Zn107 O116 1.977 . S
O108 Zn107 2.032 . S
O108 C112 1.278 . S
C109 O110 1.203 . S
C109 O116 1.267 . S
O110 C109 1.203 . S
O111 C104 1.185 . S
O111 Zn107 2.086 . S
C112 O108 1.278 . S
C112 O113 1.211 . S
O113 C112 1.211 . S
C114 O106 1.284 . S
C114 O115 1.273 . S
O115 C114 1.273 . S
O116 Zn107 1.977 . S
O116 C109 1.267 . S
C117 O118 1.160 . S
C117 O124 1.185 . S
O118 C117 1.160 . S
O119 Zn120 1.899 . S
O119 C127 1.284 . S
Zn120 O119 1.899 . S
Zn120 O121 2.032 . S
Zn120 O124 2.086 . S
Zn120 O129 1.977 . S
O121 Zn120 2.032 . S
O121 C125 1.278 . S
C122 O123 1.203 . S
C122 O129 1.267 . S
O123 C122 1.203 . S
O124 C117 1.185 . S
O124 Zn120 2.086 . S
C125 O121 1.278 . S
C125 O126 1.211 . S
O126 C125 1.211 . S
C127 O119 1.284 . S
C127 O128 1.273 . S
O128 C127 1.273 . S
O129 Zn120 1.977 . S
O129 C122 1.267 . S
C130 O131 1.160 . S
C130 O137 1.185 . S
O131 C130 1.160 . S
O132 Zn133 1.899 . S
O132 C140 1.284 . S
Zn133 O132 1.899 . S
Zn133 O134 2.032 . S
Zn133 O137 2.086 . S
Zn133 O142 1.977 . S
O134 Zn133 2.032 . S
O134 C138 1.278 . S
C135 O136 1.203 . S
C135 O142 1.267 . S
O136 C135 1.203 . S
O137 C130 1.185 . S
O137 Zn133 2.086 . S
C138 O134 1.278 . S
C138 O139 1.211 . S
O139 C138 1.211 . S
C140 O132 1.284 . S
C140 O141 1.273 . S
O141 C140 1.273 . S
O142 Zn133 1.977 . S
O142 C135 1.267 . S
C143 O144 1.160 . S
C143 O150 1.185 . S
O144 C143 1.160 . S
O145 Zn146 1.899 . S
O145 C153 1.284 . S
Zn146 O145 1.899 . S
Zn146 O147 2.032 . S
Zn146 O150 2.086 . S
Zn146 O155 1.977 . S
O147 Zn146 2.032 . S
O147 C151 1.278 . S
C148 O149 1.203 . S
C148 O155 1.267 . S
O149 C148 1.203 . S
O150 C143 1.185 . S
O150 Zn146 2.086 . S
C151 O147 1.278 . S
C151 O152 1.211 . S
O152 C151 1.211 . S
C153 O145 1.284 . S
C153 O154 1.273 . S
O154 C153 1.273 . S
O155 Zn146 1.977 . S
O155 C148 1.267 . S
C156 O157 1.160 . S
C156 O163 1.185 . S
O157 C156 1.160 . S
O158 Zn159 1.899 . S
O158 C166 1.284 . S
Zn159 O158 1.899 . S
Zn159 O160 2.032 . S
Zn159 O163 2.086 . S
Zn159 O168 1.977 . S
O160 Zn159 2.032 . S
O160 C164 1.278 . S
C161 O162 1.203 . S
C161 O168 1.267 . S
O162 C161 1.203 . S
O163 C156 1.185 . S
O163 Zn159 2.086 . S
C164 O160 1.278 . S
C164 O165 1.211 . S
O165 C164 1.211 . S
C166 O158 1.284 . S
C166 O167 1.273 . S
O167 C166 1.273 . S
O168 Zn159 1.977 . S
O168 C161 1.267 . S
C169 O170 1.160 . S
C169 O176 1.185 . S
O170 C169 1.160 . S
O171 Zn172 1.899 . S
O171 C179 1.284 . S
Zn172 O171 1.899 . S
Zn172 O173 2.032 . S
Zn172 O176 2.086 . S
Zn172 O181 1.977 . S
O173 Zn172 2.032 . S
O173 C177 1.278 . S
C174 O175 1.203 . S
C174 O181 1.267 . S
O175 C174 1.203 . S
O176 C169 1.185 . S
O176 Zn172 2.086 . S
C177 O173 1.278 . S
C177 O178 1.211 . S
O178 C177 1.211 . S
C179 O171 1.284 . S
C179 O180 1.273 . S
O180 C179 1.273 . S
O181 Zn172 1.977 . S
O181 C174 1.267 . S
C182 O183 1.160 . S
C182 O189 1.185 . S
O183 C182 1.160 . S
O184 Zn185 1.899 . S
O184 C192 1.284 . S
Zn185 O184 1.899 . S
Zn185 O186 2.032 . S
Zn185 O189 2.086 . S
Zn185 O194 1.977 . S
O186 Zn185 2.032 . S
O186 C190 1.278 . S
C187 O188 1.203 . S
C187 O194 1.267 . S
O188 C187 1.203 . S
O189 C182 1.185 . S
O189 Zn185 2.086 . S
C190 O186 1.278 . S
C190 O191 1.211 . S
O191 C190 1.211 . S
C192 O184 1.284 . S
C192 O193 1.273 . S
O193 C192 1.273 . S
O194 Zn185 1.977 . S
O194 C187 1.267 . S
C195 O196 1.160 . S
C195 O202 1.185 . S
O196 C195 1.160 . S
O197 Zn198 1.899 . S
O197 C205 1.284 . S
Zn198 O197 1.899 . S
Zn198 O199 2.032 . S
Zn198 O202 2.086 . S
Zn198 O207 1.977 . S
O199 Zn198 2.032 . S
O199 C203 1.278 . S
C200 O201 1.203 . S
C200 O207 1.267 . S
O201 C200 1.203 . S
O202 C195 1.185 . S
O202 Zn198 2.086 . S
C203 O199 1.278 . S
C203 O204 1.211 . S
O204 C203 1.211 . S
C205 O197 1.284 . S
C205 O206 1.273 . S
O206 C205 1.273 . S
O207 Zn198 1.977 . S
O207 C200 1.267 . S
H208 C214 0.930 . S
H209 C217 0.930 . S
H210 C218 0.930 . S
H211 C219 0.930 . S
H212 C222 0.930 . S
H213 C223 0.930 . S
C214 H208 0.930 . S
C214 C215 1.355 . S
C214 C216 1.415 . S
C215 C214 1.355 . S
C215 C217 1.419 . S
C216 C214 1.415 . S
C216 C221 1.425 . S
C216 C223 1.409 . S
C217 H209 0.930 . S
C217 C215 1.419 . S
C217 C218 1.362 . S
C218 H210 0.930 . S
C218 C217 1.362 . S
C218 C221 1.409 . S
C219 H211 0.930 . S
C219 C220 1.355 . S
C219 C221 1.415 . S
C220 C219 1.355 . S
C220 C222 1.419 . S
C221 C216 1.425 . S
C221 C218 1.409 . S
C221 C219 1.415 . S
C222 H212 0.930 . S
C222 C220 1.419 . S
C222 C223 1.362 . S
C223 H213 0.930 . S
C223 C216 1.409 . S
C223 C222 1.362 . S
H224 C230 0.930 . S
H225 C233 0.930 . S
H226 C234 0.930 . S
H227 C235 0.930 . S
H228 C238 0.930 . S
H229 C239 0.930 . S
C230 H224 0.930 . S
C230 C231 1.355 . S
C230 C232 1.415 1_665 S
C231 C230 1.355 . S
C231 C233 1.419 . S
C232 C230 1.415 1_445 S
C232 C237 1.425 1_445 S
C232 C239 1.409 . S
C233 H225 0.930 . S
C233 C231 1.419 . S
C233 C234 1.362 . S
C234 H226 0.930 . S
C234 C233 1.362 . S
C234 C237 1.409 . S
C235 H227 0.930 . S
C235 C236 1.355 . S
C235 C237 1.415 1_445 S
C236 C235 1.355 . S
C236 C238 1.419 . S
C237 C232 1.425 1_665 S
C237 C234 1.409 . S
C237 C235 1.415 1_665 S
C238 H228 0.930 . S
C238 C236 1.419 . S
C238 C239 1.362 . S
C239 H229 0.930 . S
C239 C232 1.409 . S
C239 C238 1.362 . S
H240 C246 0.930 1_545 S
H241 C249 0.930 . S
H242 C250 0.930 . S
H243 C251 0.930 1_565 S
H244 C254 0.930 . S
H245 C255 0.930 . S
C246 H240 0.930 1_565 S
C246 C247 1.355 . S
C246 C248 1.415 1_565 S
C247 C246 1.355 . S
C247 C249 1.419 . S
C248 C246 1.415 1_545 S
C248 C253 1.425 1_545 S
C248 C255 1.409 . S
C249 H241 0.930 . S
C249 C247 1.419 . S
C249 C250 1.362 . S
C250 H242 0.930 . S
C250 C249 1.362 . S
C250 C253 1.409 . S
C251 H243 0.930 1_545 S
C251 C252 1.355 . S
C251 C253 1.415 1_545 S
C252 C251 1.355 . S
C252 C254 1.419 . S
C253 C248 1.425 1_565 S
C253 C250 1.409 . S
C253 C251 1.415 1_565 S
C254 H244 0.930 . S
C254 C252 1.419 . S
C254 C255 1.362 . S
C255 H245 0.930 . S
C255 C248 1.409 . S
C255 C254 1.362 . S
H256 C262 0.930 . S
H257 C265 0.930 . S
H258 C266 0.930 . S
H259 C267 0.930 . S
H260 C270 0.930 . S
H261 C271 0.930 . S
C262 H256 0.930 . S
C262 C263 1.355 . S
C262 C264 1.415 1_455 S
C263 C262 1.355 . S
C263 C265 1.419 . S
C264 C262 1.415 1_655 S
C264 C269 1.425 1_655 S
C264 C271 1.409 . S
C265 H257 0.930 . S
C265 C263 1.419 . S
C265 C266 1.362 . S
C266 H258 0.930 . S
C266 C265 1.362 . S
C266 C269 1.409 . S
C267 H259 0.930 . S
C267 C268 1.355 . S
C267 C269 1.415 1_655 S
C268 C267 1.355 . S
C268 C270 1.419 . S
C269 C264 1.425 1_455 S
C269 C266 1.409 . S
C269 C267 1.415 1_455 S
C270 H260 0.930 . S
C270 C268 1.419 . S
C270 C271 1.362 . S
C271 H261 0.930 . S
C271 C264 1.409 . S
C271 C270 1.362 . S
H272 C278 0.930 . S
H273 C281 0.930 . S
H274 C282 0.930 . S
H275 C283 0.930 . S
H276 C286 0.930 . S
H277 C287 0.930 . S
C278 H272 0.930 . S
C278 C279 1.355 . S
C278 C280 1.415 . S
C279 C278 1.355 . S
C279 C281 1.419 . S
C280 C278 1.415 . S
C280 C285 1.425 . S
C280 C287 1.409 . S
C281 H273 0.930 . S
C281 C279 1.419 . S
C281 C282 1.362 . S
C282 H274 0.930 . S
C282 C281 1.362 . S
C282 C285 1.409 . S
C283 H275 0.930 . S
C283 C284 1.355 . S
C283 C285 1.415 . S
C284 C283 1.355 . S
C284 C286 1.419 . S
C285 C280 1.425 . S
C285 C282 1.409 . S
C285 C283 1.415 . S
C286 H276 0.930 . S
C286 C284 1.419 . S
C286 C287 1.362 . S
C287 H277 0.930 . S
C287 C280 1.409 . S
C287 C286 1.362 . S
H288 C294 0.930 . S
H289 C297 0.930 . S
H290 C298 0.930 . S
H291 C299 0.930 . S
H292 C302 0.930 . S
H293 C303 0.930 . S
C294 H288 0.930 . S
C294 C295 1.355 . S
C294 C296 1.415 . S
C295 C294 1.355 . S
C295 C297 1.419 . S
C296 C294 1.415 . S
C296 C301 1.425 1_545 S
C296 C303 1.409 1_545 S
C297 H289 0.930 . S
C297 C295 1.419 . S
C297 C298 1.362 . S
C298 H290 0.930 . S
C298 C297 1.362 . S
C298 C301 1.409 1_545 S
C299 H291 0.930 . S
C299 C300 1.355 . S
C299 C301 1.415 . S
C300 C299 1.355 . S
C300 C302 1.419 . S
C301 C296 1.425 1_565 S
C301 C298 1.409 1_565 S
C301 C299 1.415 . S
C302 H292 0.930 . S
C302 C300 1.419 . S
C302 C303 1.362 . S
C303 H293 0.930 . S
C303 C296 1.409 1_565 S
C303 C302 1.362 . S
H304 C310 0.930 . S
H305 C313 0.930 . S
H306 C314 0.930 . S
H307 C315 0.930 . S
H308 C318 0.930 . S
H309 C319 0.930 . S
C310 H304 0.930 . S
C310 C311 1.355 . S
C310 C312 1.415 1_655 S
C311 C310 1.355 . S
C311 C313 1.419 . S
C312 C310 1.415 1_455 S
C312 C317 1.425 1_455 S
C312 C319 1.409 . S
C313 H305 0.930 . S
C313 C311 1.419 . S
C313 C314 1.362 . S
C314 H306 0.930 . S
C314 C313 1.362 . S
C314 C317 1.409 . S
C315 H307 0.930 . S
C315 C316 1.355 . S
C315 C317 1.415 1_455 S
C316 C315 1.355 . S
C316 C318 1.419 . S
C317 C312 1.425 1_655 S
C317 C314 1.409 . S
C317 C315 1.415 1_655 S
C318 H308 0.930 . S
C318 C316 1.419 . S
C318 C319 1.362 . S
C319 H309 0.930 . S
C319 C312 1.409 . S
C319 C318 1.362 . S
H320 C326 0.930 . S
H321 C329 0.930 . S
H322 C330 0.930 . S
H323 C331 0.930 . S
H324 C334 0.930 . S
H325 C335 0.930 . S
C326 H320 0.930 . S
C326 C327 1.355 . S
C326 C328 1.409 1_554 S
C327 C326 1.355 . S
C327 C329 1.419 . S
C328 C326 1.409 1_556 S
C328 C333 1.425 1_556 S
C328 C335 1.415 . S
C329 H321 0.930 . S
C329 C327 1.419 . S
C329 C330 1.362 . S
C330 H322 0.930 . S
C330 C329 1.362 . S
C330 C333 1.415 . S
C331 H323 0.930 . S
C331 C332 1.355 . S
C331 C333 1.409 1_556 S
C332 C331 1.355 . S
C332 C334 1.419 . S
C333 C328 1.425 1_554 S
C333 C330 1.415 . S
C333 C331 1.409 1_554 S
C334 H324 0.930 . S
C334 C332 1.419 . S
C334 C335 1.362 . S
C335 H325 0.930 . S
C335 C328 1.415 . S
C335 C334 1.362 . S
H336 C342 0.930 . S
H337 C345 0.934 . S
H338 C346 0.930 . S
H339 C347 0.930 . S
H340 C350 0.934 . S
H341 C351 0.930 . S
C342 H336 0.930 . S
C342 C343 1.355 . S
C342 C344 1.415 1_556 S
C343 C342 1.355 . S
C343 C345 1.419 . S
C344 C342 1.415 1_554 S
C344 C349 1.425 1_454 S
C344 C351 1.409 . S
C345 H337 0.934 . S
C345 C343 1.419 . S
C345 C346 1.362 1_455 S
C346 H338 0.930 . S
C346 C345 1.362 1_655 S
C346 C349 1.409 . S
C347 H339 0.930 . S
C347 C348 1.355 . S
C347 C349 1.415 1_554 S
C348 C347 1.355 . S
C348 C350 1.419 . S
C349 C344 1.425 1_656 S
C349 C346 1.409 . S
C349 C347 1.415 1_556 S
C350 H340 0.934 . S
C350 C348 1.419 . S
C350 C351 1.362 1_655 S
C351 H341 0.930 . S
C351 C344 1.409 . S
C351 C350 1.362 1_455 S
H352 C358 0.930 . S
H353 C361 0.930 . S
H354 C362 0.930 . S
H355 C363 0.930 . S
H356 C366 0.930 . S
H357 C367 0.930 . S
C358 H352 0.930 . S
C358 C359 1.355 . S
C358 C360 1.415 . S
C359 C358 1.355 . S
C359 C361 1.419 . S
C360 C358 1.415 . S
C360 C365 1.425 . S
C360 C367 1.409 . S
C361 H353 0.930 . S
C361 C359 1.419 . S
C361 C362 1.362 . S
C362 H354 0.930 . S
C362 C361 1.362 . S
C362 C365 1.409 . S
C363 H355 0.930 . S
C363 C364 1.355 . S
C363 C365 1.415 . S
C364 C363 1.355 . S
C364 C366 1.419 . S
C365 C360 1.425 . S
C365 C362 1.409 . S
C365 C363 1.415 . S
C366 H356 0.930 . S
C366 C364 1.419 . S
C366 C367 1.362 . S
C367 H357 0.930 . S
C367 C360 1.409 . S
C367 C366 1.362 . S
H368 C374 0.930 1_554 S
H369 C377 0.930 . S
H370 C378 0.930 . S
H371 C379 0.930 1_556 S
H372 C382 0.930 . S
H373 C383 0.930 . S
C374 H368 0.930 1_556 S
C374 C375 1.355 . S
C374 C376 1.415 1_556 S
C375 C374 1.355 . S
C375 C377 1.419 . S
C376 C374 1.415 1_554 S
C376 C381 1.425 1_554 S
C376 C383 1.409 . S
C377 H369 0.930 . S
C377 C375 1.419 . S
C377 C378 1.362 . S
C378 H370 0.930 . S
C378 C377 1.362 . S
C378 C381 1.409 . S
C379 H371 0.930 1_554 S
C379 C380 1.355 . S
C379 C381 1.415 1_554 S
C380 C379 1.355 . S
C380 C382 1.419 . S
C381 C376 1.425 1_556 S
C381 C378 1.409 . S
C381 C379 1.415 1_556 S
C382 H372 0.930 . S
C382 C380 1.419 . S
C382 C383 1.362 . S
C383 H373 0.930 . S
C383 C376 1.409 . S
C383 C382 1.362 . S
H384 C390 0.930 . S
H385 C393 0.930 . S
H386 C394 0.930 . S
H387 C395 0.930 . S
H388 C398 0.930 . S
H389 C399 0.930 . S
C390 H384 0.930 . S
C390 C391 1.355 . S
C390 C392 1.415 . S
C391 C390 1.355 . S
C391 C393 1.419 . S
C392 C390 1.415 . S
C392 C397 1.425 . S
C392 C399 1.409 . S
C393 H385 0.930 . S
C393 C391 1.419 . S
C393 C394 1.362 . S
C394 H386 0.930 . S
C394 C393 1.362 . S
C394 C397 1.409 . S
C395 H387 0.930 . S
C395 C396 1.355 . S
C395 C397 1.415 . S
C396 C395 1.355 . S
C396 C398 1.419 . S
C397 C392 1.425 . S
C397 C394 1.409 . S
C397 C395 1.415 . S
C398 H388 0.930 . S
C398 C396 1.419 . S
C398 C399 1.362 . S
C399 H389 0.930 . S
C399 C392 1.409 . S
C399 C398 1.362 . S
H400 C406 0.930 . S
H401 C409 0.930 . S
H402 C410 0.930 . S
H403 C411 0.930 . S
H404 C414 0.930 . S
H405 C415 0.930 . S
C406 H400 0.930 . S
C406 C407 1.355 . S
C406 C408 1.415 . S
C407 C406 1.355 . S
C407 C409 1.419 . S
C408 C406 1.415 . S
C408 C413 1.425 1_546 S
C408 C415 1.409 . S
C409 H401 0.930 . S
C409 C407 1.419 . S
C409 C410 1.362 1_546 S
C410 H402 0.930 . S
C410 C409 1.362 1_564 S
C410 C413 1.409 . S
C411 H403 0.930 . S
C411 C412 1.355 . S
C411 C413 1.415 . S
C412 C411 1.355 . S
C412 C414 1.419 . S
C413 C408 1.425 1_564 S
C413 C410 1.409 . S
C413 C411 1.415 . S
C414 H404 0.930 . S
C414 C412 1.419 . S
C414 C415 1.362 1_564 S
C415 H405 0.930 . S
C415 C408 1.409 . S
C415 C414 1.362 1_546 S
H416 C422 0.930 . S
H417 C425 0.930 . S
H418 C426 0.930 . S
H419 C427 0.930 . S
H420 C430 0.930 . S
H421 C431 0.930 . S
C422 H416 0.930 . S
C422 C423 1.355 . S
C422 C424 1.415 . S
C423 C422 1.355 . S
C423 C425 1.419 . S
C424 C422 1.415 . S
C424 C429 1.425 . S
C424 C431 1.409 . S
C425 H417 0.930 . S
C425 C423 1.419 . S
C425 C426 1.362 . S
C426 H418 0.930 . S
C426 C425 1.362 . S
C426 C429 1.409 . S
C427 H419 0.930 . S
C427 C428 1.355 . S
C427 C429 1.415 . S
C428 C427 1.355 . S
C428 C430 1.419 . S
C429 C424 1.425 . S
C429 C426 1.409 . S
C429 C427 1.415 . S
C430 H420 0.930 . S
C430 C428 1.419 . S
C430 C431 1.362 . S
C431 H421 0.930 . S
C431 C424 1.409 . S
C431 C430 1.362 . S
H432 C438 0.930 . S
H433 C441 0.930 . S
H434 C442 0.930 . S
H435 C443 0.930 . S
H436 C446 0.930 . S
H437 C447 0.930 . S
C438 H432 0.930 . S
C438 C439 1.355 . S
C438 C440 1.415 . S
C439 C438 1.355 . S
C439 C441 1.419 . S
C440 C438 1.415 . S
C440 C445 1.425 . S
C440 C447 1.409 . S
C441 H433 0.930 . S
C441 C439 1.419 . S
C441 C442 1.362 . S
C442 H434 0.930 . S
C442 C441 1.362 . S
C442 C445 1.409 . S
C443 H435 0.930 . S
C443 C444 1.355 . S
C443 C445 1.415 . S
C444 C443 1.355 . S
C444 C446 1.419 . S
C445 C440 1.425 . S
C445 C442 1.409 . S
C445 C443 1.415 . S
C446 H436 0.930 . S
C446 C444 1.419 . S
C446 C447 1.362 . S
C447 H437 0.930 . S
C447 C440 1.409 . S
C447 C446 1.362 . S
H448 C454 0.930 . S
H449 C457 0.930 . S
H450 C458 0.930 . S
H451 C459 0.930 . S
H452 C462 0.930 . S
H453 C463 0.930 . S
C454 H448 0.930 . S
C454 C455 1.355 . S
C454 C456 1.415 . S
C455 C454 1.355 . S
C455 C457 1.419 . S
C456 C454 1.415 . S
C456 C461 1.425 . S
C456 C463 1.409 . S
C457 H449 0.930 . S
C457 C455 1.419 . S
C457 C458 1.362 . S
C458 H450 0.930 . S
C458 C457 1.362 . S
C458 C461 1.409 . S
C459 H451 0.930 . S
C459 C460 1.355 . S
C459 C461 1.415 . S
C460 C459 1.355 . S
C460 C462 1.419 . S
C461 C456 1.425 . S
C461 C458 1.409 . S
C461 C459 1.415 . S
C462 H452 0.930 . S
C462 C460 1.419 . S
C462 C463 1.362 . S
C463 H453 0.930 . S
C463 C456 1.409 . S
C463 C462 1.362 . S
H464 C470 0.930 . S
H465 C473 0.930 . S
H466 C474 0.930 . S
H467 C475 0.930 . S
H468 C478 0.930 . S
H469 C479 0.930 . S
C470 H464 0.930 . S
C470 C471 1.355 . S
C470 C472 1.415 . S
C471 C470 1.355 . S
C471 C473 1.419 . S
C472 C470 1.415 . S
C472 C477 1.425 . S
C472 C479 1.409 . S
C473 H465 0.930 . S
C473 C471 1.419 . S
C473 C474 1.362 . S
C474 H466 0.930 . S
C474 C473 1.362 . S
C474 C477 1.409 . S
C475 H467 0.930 . S
C475 C476 1.355 . S
C475 C477 1.415 . S
C476 C475 1.355 . S
C476 C478 1.419 . S
C477 C472 1.425 . S
C477 C474 1.409 . S
C477 C475 1.415 . S
C478 H468 0.930 . S
C478 C476 1.419 . S
C478 C479 1.362 . S
C479 H469 0.930 . S
C479 C472 1.409 . S
C479 C478 1.362 . S
H480 C486 0.930 . S
H481 C489 0.930 . S
H482 C490 0.930 . S
H483 C491 0.930 . S
H484 C494 0.930 . S
H485 C495 0.930 . S
C486 H480 0.930 . S
C486 C487 1.355 . S
C486 C488 1.415 . S
C487 C486 1.355 . S
C487 C489 1.419 . S
C488 C486 1.415 . S
C488 C493 1.425 . S
C488 C495 1.409 . S
C489 H481 0.930 . S
C489 C487 1.419 . S
C489 C490 1.362 . S
C490 H482 0.930 . S
C490 C489 1.362 . S
C490 C493 1.409 . S
C491 H483 0.930 . S
C491 C492 1.355 . S
C491 C493 1.415 . S
C492 C491 1.355 . S
C492 C494 1.419 . S
C493 C488 1.425 . S
C493 C490 1.409 . S
C493 C491 1.415 . S
C494 H484 0.930 . S
C494 C492 1.419 . S
C494 C495 1.362 . S
C495 H485 0.930 . S
C495 C488 1.409 . S
C495 C494 1.362 . S
H496 C502 0.930 . S
H497 C505 0.930 . S
H498 C506 0.930 . S
H499 C507 0.930 . S
H500 C510 0.930 . S
H501 C511 0.930 . S
C502 H496 0.930 . S
C502 C503 1.355 . S
C502 C504 1.415 . S
C503 C502 1.355 . S
C503 C505 1.419 . S
C504 C502 1.415 . S
C504 C509 1.425 . S
C504 C511 1.409 . S
C505 H497 0.930 . S
C505 C503 1.419 . S
C505 C506 1.362 . S
C506 H498 0.930 . S
C506 C505 1.362 . S
C506 C509 1.409 . S
C507 H499 0.930 . S
C507 C508 1.355 . S
C507 C509 1.415 . S
C508 C507 1.355 . S
C508 C510 1.419 . S
C509 C504 1.425 . S
C509 C506 1.409 . S
C509 C507 1.415 . S
C510 H500 0.930 . S
C510 C508 1.419 . S
C510 C511 1.362 . S
C511 H501 0.930 . S
C511 C504 1.409 . S
C511 C510 1.362 . S
H512 C518 0.930 . S
H513 C521 0.930 . S
H514 C522 0.930 . S
H515 C523 0.930 . S
H516 C526 0.930 . S
H517 C527 0.930 . S
C518 H512 0.930 . S
C518 C519 1.355 . S
C518 C520 1.415 . S
C519 C518 1.355 . S
C519 C521 1.419 . S
C520 C518 1.415 . S
C520 C525 1.425 . S
C520 C527 1.409 . S
C521 H513 0.930 . S
C521 C519 1.419 . S
C521 C522 1.362 . S
C522 H514 0.930 . S
C522 C521 1.362 . S
C522 C525 1.409 . S
C523 H515 0.930 . S
C523 C524 1.355 . S
C523 C525 1.415 . S
C524 C523 1.355 . S
C524 C526 1.419 . S
C525 C520 1.425 . S
C525 C522 1.409 . S
C525 C523 1.415 . S
C526 H516 0.930 . S
C526 C524 1.419 . S
C526 C527 1.362 . S
C527 H517 0.930 . S
C527 C520 1.409 . S
C527 C526 1.362 . S
H528 C534 0.930 . S
H529 C537 0.930 . S
H530 C538 0.930 . S
H531 C539 0.930 . S
H532 C542 0.930 1_565 S
H533 C543 0.930 . S
C534 H528 0.930 . S
C534 C535 1.355 . S
C534 C536 1.415 . S
C535 C534 1.355 . S
C535 C537 1.419 . S
C536 C534 1.415 . S
C536 C541 1.425 . S
C536 C543 1.409 . S
C537 H529 0.930 . S
C537 C535 1.419 . S
C537 C538 1.362 . S
C538 H530 0.930 . S
C538 C537 1.362 . S
C538 C541 1.409 . S
C539 H531 0.930 . S
C539 C540 1.355 . S
C539 C541 1.415 . S
C540 C539 1.355 . S
C540 C542 1.419 . S
C541 C536 1.425 . S
C541 C538 1.409 . S
C541 C539 1.415 . S
C542 H532 0.930 1_545 S
C542 C540 1.419 . S
C542 C543 1.362 . S
C543 H533 0.930 . S
C543 C536 1.409 . S
C543 C542 1.362 . S
H544 C550 0.930 . S
H545 C553 0.930 . S
H546 C554 0.930 . S
H547 C555 0.930 . S
H548 C558 0.930 . S
H549 C559 0.930 . S
C550 H544 0.930 . S
C550 C551 1.355 . S
C550 C552 1.415 . S
C551 C550 1.355 . S
C551 C553 1.419 . S
C552 C550 1.415 . S
C552 C557 1.425 . S
C552 C559 1.409 . S
C553 H545 0.930 . S
C553 C551 1.419 . S
C553 C554 1.362 . S
C554 H546 0.930 . S
C554 C553 1.362 . S
C554 C557 1.409 . S
C555 H547 0.930 . S
C555 C556 1.355 . S
C555 C557 1.415 . S
C556 C555 1.355 . S
C556 C558 1.419 . S
C557 C552 1.425 . S
C557 C554 1.409 . S
C557 C555 1.415 . S
C558 H548 0.930 . S
C558 C556 1.419 . S
C558 C559 1.362 . S
C559 H549 0.930 . S
C559 C552 1.409 . S
C559 C558 1.362 . S
H560 C566 0.930 . S
H561 C569 0.930 . S
H562 C570 0.930 . S
H563 C571 0.930 . S
H564 C574 0.930 . S
H565 C575 0.930 . S
C566 H560 0.930 . S
C566 C567 1.355 . S
C566 C568 1.415 . S
C567 C566 1.355 . S
C567 C569 1.419 . S
C568 C566 1.415 . S
C568 C573 1.425 . S
C568 C575 1.409 . S
C569 H561 0.930 . S
C569 C567 1.419 . S
C569 C570 1.362 . S
C570 H562 0.930 . S
C570 C569 1.362 . S
C570 C573 1.409 . S
C571 H563 0.930 . S
C571 C572 1.355 . S
C571 C573 1.415 . S
C572 C571 1.355 . S
C572 C574 1.419 . S
C573 C568 1.425 . S
C573 C570 1.409 . S
C573 C571 1.415 . S
C574 H564 0.930 . S
C574 C572 1.419 . S
C574 C575 1.362 . S
C575 H565 0.930 . S
C575 C568 1.409 . S
C575 C574 1.362 . S
H576 C582 0.930 1_565 S
H577 C585 0.930 . S
H578 C586 0.930 . S
H579 C587 0.930 . S
H580 C590 0.930 . S
H581 C591 0.930 . S
C582 H576 0.930 1_545 S
C582 C583 1.355 . S
C582 C584 1.415 . S
C583 C582 1.355 . S
C583 C585 1.419 . S
C584 C582 1.415 . S
C584 C589 1.425 . S
C584 C591 1.409 . S
C585 H577 0.930 . S
C585 C583 1.419 . S
C585 C586 1.362 . S
C586 H578 0.930 . S
C586 C585 1.362 . S
C586 C589 1.409 . S
C587 H579 0.930 . S
C587 C588 1.355 . S
C587 C589 1.415 . S
C588 C587 1.355 . S
C588 C590 1.419 . S
C589 C584 1.425 . S
C589 C586 1.409 . S
C589 C587 1.415 . S
C590 H580 0.930 . S
C590 C588 1.419 . S
C590 C591 1.362 . S
C591 H581 0.930 . S
C591 C584 1.409 . S
C591 C590 1.362 . S
H592 C598 0.930 . S
H593 C601 0.930 . S
H594 C602 0.930 . S
H595 C603 0.930 . S
H596 C606 0.930 . S
H597 C607 0.930 . S
C598 H592 0.930 . S
C598 C599 1.355 . S
C598 C600 1.415 . S
C599 C598 1.355 . S
C599 C601 1.419 . S
C600 C598 1.415 . S
C600 C605 1.425 . S
C600 C607 1.409 . S
C601 H593 0.930 . S
C601 C599 1.419 . S
C601 C602 1.362 . S
C602 H594 0.930 . S
C602 C601 1.362 . S
C602 C605 1.409 . S
C603 H595 0.930 . S
C603 C604 1.355 . S
C603 C605 1.415 . S
C604 C603 1.355 . S
C604 C606 1.419 . S
C605 C600 1.425 . S
C605 C602 1.409 . S
C605 C603 1.415 . S
C606 H596 0.930 . S
C606 C604 1.419 . S
C606 C607 1.362 . S
C607 H597 0.930 . S
C607 C600 1.409 . S
C607 C606 1.362 . S
H608 C614 0.930 . S
H609 C617 0.930 . S
H610 C618 0.930 . S
H611 C619 0.930 . S
H612 C622 0.930 . S
H613 C623 0.930 . S
C614 H608 0.930 . S
C614 C615 1.355 . S
C614 C616 1.415 . S
C615 C614 1.355 . S
C615 C617 1.419 . S
C616 C614 1.415 . S
C616 C621 1.425 . S
C616 C623 1.409 . S
C617 H609 0.930 . S
C617 C615 1.419 . S
C617 C618 1.362 . S
C618 H610 0.930 . S
C618 C617 1.362 . S
C618 C621 1.409 . S
C619 H611 0.930 . S
C619 C620 1.355 . S
C619 C621 1.415 . S
C620 C619 1.355 . S
C620 C622 1.419 . S
C621 C616 1.425 . S
C621 C618 1.409 . S
C621 C619 1.415 . S
C622 H612 0.930 . S
C622 C620 1.419 . S
C622 C623 1.362 . S
C623 H613 0.930 . S
C623 C616 1.409 . S
C623 C622 1.362 . S
H624 C630 0.930 . S
H625 C633 0.930 . S
H626 C634 0.930 . S
H627 C635 0.930 . S
H628 C638 0.930 . S
H629 C639 0.930 . S
C630 H624 0.930 . S
C630 C631 1.355 . S
C630 C632 1.415 . S
C631 C630 1.355 . S
C631 C633 1.419 . S
C632 C630 1.415 . S
C632 C637 1.425 . S
C632 C639 1.409 . S
C633 H625 0.930 . S
C633 C631 1.419 . S
C633 C634 1.362 . S
C634 H626 0.930 . S
C634 C633 1.362 . S
C634 C637 1.409 . S
C635 H627 0.930 . S
C635 C636 1.355 . S
C635 C637 1.415 . S
C636 C635 1.355 . S
C636 C638 1.419 . S
C637 C632 1.425 . S
C637 C634 1.409 . S
C637 C635 1.415 . S
C638 H628 0.930 . S
C638 C636 1.419 . S
C638 C639 1.362 . S
C639 H629 0.930 . S
C639 C632 1.409 . S
C639 C638 1.362 . S
H640 C646 0.930 . S
H641 C649 0.930 . S
H642 C650 0.930 . S
H643 C651 0.930 . S
H644 C654 0.930 . S
H645 C655 0.930 . S
C646 H640 0.930 . S
C646 C647 1.355 . S
C646 C648 1.415 . S
C647 C646 1.355 . S
C647 C649 1.419 . S
C648 C646 1.415 . S
C648 C653 1.425 . S
C648 C655 1.409 . S
C649 H641 0.930 . S
C649 C647 1.419 . S
C649 C650 1.362 . S
C650 H642 0.930 . S
C650 C649 1.362 . S
C650 C653 1.409 . S
C651 H643 0.930 . S
C651 C652 1.355 . S
C651 C653 1.415 . S
C652 C651 1.355 . S
C652 C654 1.419 . S
C653 C648 1.425 . S
C653 C650 1.409 . S
C653 C651 1.415 . S
C654 H644 0.930 . S
C654 C652 1.419 . S
C654 C655 1.362 . S
C655 H645 0.930 . S
C655 C648 1.409 . S
C655 C654 1.362 . S
H656 C662 0.930 . S
H657 C665 0.930 . S
H658 C666 0.930 . S
H659 C667 0.930 . S
H660 C670 0.930 . S
H661 C671 0.930 . S
C662 H656 0.930 . S
C662 C663 1.355 . S
C662 C664 1.415 . S
C663 C662 1.355 . S
C663 C665 1.419 . S
C664 C662 1.415 . S
C664 C669 1.425 . S
C664 C671 1.409 . S
C665 H657 0.930 . S
C665 C663 1.419 . S
C665 C666 1.362 . S
C666 H658 0.930 . S
C666 C665 1.362 . S
C666 C669 1.409 . S
C667 H659 0.930 . S
C667 C668 1.355 . S
C667 C669 1.415 . S
C668 C667 1.355 . S
C668 C670 1.419 1_545 S
C669 C664 1.425 . S
C669 C666 1.409 . S
C669 C667 1.415 . S
C670 H660 0.930 . S
C670 C668 1.419 1_565 S
C670 C671 1.362 1_565 S
C671 H661 0.930 . S
C671 C664 1.409 . S
C671 C670 1.362 1_545 S
H672 C678 0.930 . S
H673 C681 0.930 . S
H674 C682 0.930 . S
H675 C683 0.930 . S
H676 C686 0.930 . S
H677 C687 0.930 . S
C678 H672 0.930 . S
C678 C679 1.355 . S
C678 C680 1.415 . S
C679 C678 1.355 . S
C679 C681 1.419 . S
C680 C678 1.415 . S
C680 C685 1.425 . S
C680 C687 1.409 . S
C681 H673 0.930 . S
C681 C679 1.419 . S
C681 C682 1.362 . S
C682 H674 0.930 . S
C682 C681 1.362 . S
C682 C685 1.409 . S
C683 H675 0.930 . S
C683 C684 1.355 . S
C683 C685 1.415 . S
C684 C683 1.355 . S
C684 C686 1.419 . S
C685 C680 1.425 . S
C685 C682 1.409 . S
C685 C683 1.415 . S
C686 H676 0.930 . S
C686 C684 1.419 . S
C686 C687 1.362 . S
C687 H677 0.930 . S
C687 C680 1.409 . S
C687 C686 1.362 . S
H688 C694 0.930 . S
H689 C697 0.930 . S
H690 C698 0.930 . S
H691 C699 0.930 . S
H692 C702 0.930 . S
H693 C703 0.930 . S
C694 H688 0.930 . S
C694 C695 1.355 . S
C694 C696 1.415 . S
C695 C694 1.355 . S
C695 C697 1.419 . S
C696 C694 1.415 . S
C696 C701 1.425 . S
C696 C703 1.409 . S
C697 H689 0.930 . S
C697 C695 1.419 . S
C697 C698 1.362 . S
C698 H690 0.930 . S
C698 C697 1.362 . S
C698 C701 1.409 . S
C699 H691 0.930 . S
C699 C700 1.355 . S
C699 C701 1.415 . S
C700 C699 1.355 . S
C700 C702 1.419 . S
C701 C696 1.425 . S
C701 C698 1.409 . S
C701 C699 1.415 . S
C702 H692 0.930 . S
C702 C700 1.419 . S
C702 C703 1.362 . S
C703 H693 0.930 . S
C703 C696 1.409 . S
C703 C702 1.362 . S
H704 C710 0.930 . S
H705 C713 0.930 . S
H706 C714 0.930 . S
H707 C715 0.930 1_565 S
H708 C718 0.930 . S
H709 C719 0.930 . S
C710 H704 0.930 . S
C710 C711 1.355 . S
C710 C712 1.415 . S
C711 C710 1.355 . S
C711 C713 1.419 . S
C712 C710 1.415 . S
C712 C717 1.425 . S
C712 C719 1.409 . S
C713 H705 0.930 . S
C713 C711 1.419 . S
C713 C714 1.362 . S
C714 H706 0.930 . S
C714 C713 1.362 . S
C714 C717 1.409 . S
C715 H707 0.930 1_545 S
C715 C716 1.355 . S
C715 C717 1.415 . S
C716 C715 1.355 . S
C716 C718 1.419 . S
C717 C712 1.425 . S
C717 C714 1.409 . S
C717 C715 1.415 . S
C718 H708 0.930 . S
C718 C716 1.419 . S
C718 C719 1.362 . S
C719 H709 0.930 . S
C719 C712 1.409 . S
C719 C718 1.362 . S
C215 C192 1.511 . S
C220 C10 1.511 . S
C231 C26 1.469 . S
C236 C0 1.469 . S
C247 C143 1.511 . S
C252 C13 1.511 . S
C263 C23 1.530 . S
C268 C101 1.530 . S
C279 C36 1.524 . S
C284 C166 1.524 . S
C295 C117 1.472 . S
C300 C39 1.472 . S
C311 C49 1.530 . S
C316 C75 1.530 . S
C327 C140 1.514 . S
C332 C62 1.514 . S
C343 C52 1.523 . S
C348 C78 1.523 . S
C359 C195 1.467 . S
C364 C65 1.467 . S
C375 C114 1.511 . S
C380 C88 1.511 . S
C391 C169 1.492 . S
C396 C91 1.492 . S
C407 C104 1.462 . S
C412 C130 1.462 . S
C423 C205 1.521 . S
C428 C127 1.521 . S
C439 C153 1.513 . S
C444 C179 1.513 . S
C455 C182 1.523 . S
C460 C156 1.523 . S
C471 C70 1.147 . S
C476 C8 1.193 1_565 S
C487 C5 1.203 . S
C492 C73 1.150 . S
C503 C18 1.210 . S
C508 C60 1.231 . S
C519 C57 1.232 . S
C524 C21 1.206 1_565 S
C535 C96 1.147 . S
C540 C34 1.189 1_545 S
C551 C99 1.185 . S
C556 C31 1.233 . S
C567 C86 1.165 . S
C572 C44 1.223 . S
C583 C47 1.234 1_545 S
C588 C83 1.198 . S
C599 C174 1.230 . S
C604 C112 1.211 1_565 S
C615 C109 1.148 . S
C620 C177 1.178 . S
C631 C122 1.149 . S
C636 C164 1.201 . S
C647 C161 1.147 . S
C652 C125 1.194 1_565 S
C663 C200 1.148 . S
C668 C138 1.183 1_545 S
C679 C203 1.227 . S
C684 C135 1.217 . S
C695 C148 1.219 . S
C700 C190 1.225 . S
C711 C187 1.203 . S
C716 C151 1.233 1_545 S
