# Generated by pormake.
# Topology why, (6)-cn, num edge types: 1
# Building blocks:
#     Node 0, Type 0, BuildingBlock: FUNLAD_clean_sbu_0, # of connection points: 6
#     Node 1, Type 0, BuildingBlock: FUNLAD_clean_sbu_0, # of connection points: 6
#     Node 2, Type 0, BuildingBlock: FUNLAD_clean_sbu_0, # of connection points: 6
#     Node 3, Type 0, BuildingBlock: FUNLAD_clean_sbu_0, # of connection points: 6
#     Node 4, Type 0, BuildingBlock: FUNLAD_clean_sbu_0, # of connection points: 6
#     Node 5, Type 0, BuildingBlock: FUNLAD_clean_sbu_0, # of connection points: 6
#     Node 6, Type 0, BuildingBlock: FUNLAD_clean_sbu_0, # of connection points: 6
#     Node 7, Type 0, BuildingBlock: FUNLAD_clean_sbu_0, # of connection points: 6
#     Node 8, Type 0, BuildingBlock: FUNLAD_clean_sbu_0, # of connection points: 6
#     Node 9, Type 0, BuildingBlock: FUNLAD_clean_sbu_0, # of connection points: 6
#     Node 10, Type 0, BuildingBlock: FUNLAD_clean_sbu_0, # of connection points: 6
#     Node 11, Type 0, BuildingBlock: FUNLAD_clean_sbu_0, # of connection points: 6
#     Node 12, Type 0, BuildingBlock: FUNLAD_clean_sbu_0, # of connection points: 6
#     Node 13, Type 0, BuildingBlock: FUNLAD_clean_sbu_0, # of connection points: 6
#     Node 14, Type 0, BuildingBlock: FUNLAD_clean_sbu_0, # of connection points: 6
#     Node 15, Type 0, BuildingBlock: FUNLAD_clean_sbu_0, # of connection points: 6
#     Edge 16, Type (0, 0), BuildingBlock: UVAHIK_clean_linker_0, # of connection points: 2
#     Edge 17, Type (0, 0), BuildingBlock: UVAHIK_clean_linker_0, # of connection points: 2
#     Edge 18, Type (0, 0), BuildingBlock: UVAHIK_clean_linker_0, # of connection points: 2
#     Edge 19, Type (0, 0), BuildingBlock: UVAHIK_clean_linker_0, # of connection points: 2
#     Edge 20, Type (0, 0), BuildingBlock: UVAHIK_clean_linker_0, # of connection points: 2
#     Edge 21, Type (0, 0), BuildingBlock: UVAHIK_clean_linker_0, # of connection points: 2
#     Edge 22, Type (0, 0), BuildingBlock: UVAHIK_clean_linker_0, # of connection points: 2
#     Edge 23, Type (0, 0), BuildingBlock: UVAHIK_clean_linker_0, # of connection points: 2
#     Edge 24, Type (0, 0), BuildingBlock: UVAHIK_clean_linker_0, # of connection points: 2
#     Edge 25, Type (0, 0), BuildingBlock: UVAHIK_clean_linker_0, # of connection points: 2
#     Edge 26, Type (0, 0), BuildingBlock: UVAHIK_clean_linker_0, # of connection points: 2
#     Edge 27, Type (0, 0), BuildingBlock: UVAHIK_clean_linker_0, # of connection points: 2
#     Edge 28, Type (0, 0), BuildingBlock: UVAHIK_clean_linker_0, # of connection points: 2
#     Edge 29, Type (0, 0), BuildingBlock: UVAHIK_clean_linker_0, # of connection points: 2
#     Edge 30, Type (0, 0), BuildingBlock: UVAHIK_clean_linker_0, # of connection points: 2
#     Edge 31, Type (0, 0), BuildingBlock: UVAHIK_clean_linker_0, # of connection points: 2
#     Edge 32, Type (0, 0), BuildingBlock: UVAHIK_clean_linker_0, # of connection points: 2
#     Edge 33, Type (0, 0), BuildingBlock: UVAHIK_clean_linker_0, # of connection points: 2
#     Edge 34, Type (0, 0), BuildingBlock: UVAHIK_clean_linker_0, # of connection points: 2
#     Edge 35, Type (0, 0), BuildingBlock: UVAHIK_clean_linker_0, # of connection points: 2
#     Edge 36, Type (0, 0), BuildingBlock: UVAHIK_clean_linker_0, # of connection points: 2
#     Edge 37, Type (0, 0), BuildingBlock: UVAHIK_clean_linker_0, # of connection points: 2
#     Edge 38, Type (0, 0), BuildingBlock: UVAHIK_clean_linker_0, # of connection points: 2
#     Edge 39, Type (0, 0), BuildingBlock: UVAHIK_clean_linker_0, # of connection points: 2
#     Edge 40, Type (0, 0), BuildingBlock: UVAHIK_clean_linker_0, # of connection points: 2
#     Edge 41, Type (0, 0), BuildingBlock: UVAHIK_clean_linker_0, # of connection points: 2
#     Edge 42, Type (0, 0), BuildingBlock: UVAHIK_clean_linker_0, # of connection points: 2
#     Edge 43, Type (0, 0), BuildingBlock: UVAHIK_clean_linker_0, # of connection points: 2
#     Edge 44, Type (0, 0), BuildingBlock: UVAHIK_clean_linker_0, # of connection points: 2
#     Edge 45, Type (0, 0), BuildingBlock: UVAHIK_clean_linker_0, # of connection points: 2
#     Edge 46, Type (0, 0), BuildingBlock: UVAHIK_clean_linker_0, # of connection points: 2
#     Edge 47, Type (0, 0), BuildingBlock: UVAHIK_clean_linker_0, # of connection points: 2
#     Edge 48, Type (0, 0), BuildingBlock: UVAHIK_clean_linker_0, # of connection points: 2
#     Edge 49, Type (0, 0), BuildingBlock: UVAHIK_clean_linker_0, # of connection points: 2
#     Edge 50, Type (0, 0), BuildingBlock: UVAHIK_clean_linker_0, # of connection points: 2
#     Edge 51, Type (0, 0), BuildingBlock: UVAHIK_clean_linker_0, # of connection points: 2
#     Edge 52, Type (0, 0), BuildingBlock: UVAHIK_clean_linker_0, # of connection points: 2
#     Edge 53, Type (0, 0), BuildingBlock: UVAHIK_clean_linker_0, # of connection points: 2
#     Edge 54, Type (0, 0), BuildingBlock: UVAHIK_clean_linker_0, # of connection points: 2
#     Edge 55, Type (0, 0), BuildingBlock: UVAHIK_clean_linker_0, # of connection points: 2
#     Edge 56, Type (0, 0), BuildingBlock: UVAHIK_clean_linker_0, # of connection points: 2
#     Edge 57, Type (0, 0), BuildingBlock: UVAHIK_clean_linker_0, # of connection points: 2
#     Edge 58, Type (0, 0), BuildingBlock: UVAHIK_clean_linker_0, # of connection points: 2
#     Edge 59, Type (0, 0), BuildingBlock: UVAHIK_clean_linker_0, # of connection points: 2
#     Edge 60, Type (0, 0), BuildingBlock: UVAHIK_clean_linker_0, # of connection points: 2
#     Edge 61, Type (0, 0), BuildingBlock: UVAHIK_clean_linker_0, # of connection points: 2
#     Edge 62, Type (0, 0), BuildingBlock: UVAHIK_clean_linker_0, # of connection points: 2
#     Edge 63, Type (0, 0), BuildingBlock: UVAHIK_clean_linker_0, # of connection points: 2
# Relax obj value: 0.422
# Max RMSD: 0.182
# Mean RMSD: 0.182
data_MOF--net-why--node1-FUNLAD_clean_sbu_0--edge1-UVAHIK_clean_linker_0
_symmetry_space_group_name_H-M    P1
_symmetry_Int_Tables_number       1
_symmetry_cell_setting            triclinic
loop_
_symmetry_equiv_pos_as_xyz
'x, y, z'
_cell_length_a     63.723059
_cell_length_b     63.717857
_cell_length_c     39.780971
_cell_angle_alpha  89.933637
_cell_angle_beta   89.916701
_cell_angle_gamma 89.994738
loop_
_atom_site_label
_atom_site_type_symbol
_atom_site_fract_x
_atom_site_fract_y
_atom_site_fract_z
_atom_type_partial_charge
C0 C 0.32557 0.21277 0.14004 0.0
N1 N 0.35577 0.15456 0.12968 0.0
C2 C 0.3615 0.15548 0.16259 0.0
C3 C 0.36562 0.13704 0.18048 0.0
C4 C 0.36406 0.11761 0.16409 0.0
C5 C 0.35778 0.11713 0.13034 0.0
C6 C 0.3536 0.13586 0.11358 0.0
Zn7 Zn 0.35088 0.18122 0.10257 0.0
C8 C 0.31116 0.17906 0.06376 0.0
N9 N 0.34063 0.23641 0.04428 0.0
C10 C 0.34559 0.25581 0.0561 0.0
C11 C 0.3349 0.23348 0.0117 0.0
C12 C 0.33531 0.25015 0.98906 0.0
C13 C 0.3417 0.27011 -5e-05 0.0
C14 C 0.3462 0.27299 0.03424 0.0
Zn15 Zn 0.34516 0.21025 0.07298 0.0
O16 O 0.33399 0.19475 0.14277 0.0
C17 C 0.3851 0.21243 0.11156 0.0
O18 O 0.32822 0.22332 0.11322 0.0
H19 H 0.33116 0.21792 0.00271 0.0
H20 H 0.36314 0.17054 0.17484 0.0
H21 H 0.35007 0.25777 0.08212 0.0
O22 O 0.3794 0.19419 0.1208 0.0
O23 O 0.37348 0.22284 0.09167 0.0
H24 H 0.34883 0.13546 0.08752 0.0
O25 O 0.36173 0.1967 0.03276 0.0
O26 O 0.36731 0.16786 0.06128 0.0
O27 O 0.31711 0.19719 0.05454 0.0
O28 O 0.32236 0.16863 0.08419 0.0
C29 C 0.36921 0.17829 0.03424 0.0
H30 H 0.37053 0.13799 0.20649 0.0
H31 H 0.35615 0.10241 0.11701 0.0
H32 H 0.33203 0.24704 0.96284 0.0
H33 H 0.35098 0.28817 0.04378 0.0
C34 C 0.51795 0.5762 0.38678 0.0
N35 N 0.57664 0.60564 0.38658 0.0
C36 C 0.57313 0.61399 0.41756 0.0
C37 C 0.58996 0.6186 0.43872 0.0
C38 C 0.61047 0.61422 0.42802 0.0
C39 C 0.6136 0.60504 0.39639 0.0
C40 C 0.59638 0.60101 0.37585 0.0
Zn41 Zn 0.55219 0.60094 0.35467 0.0
C42 C 0.55637 0.56159 0.31616 0.0
N43 N 0.5009 0.5916 0.2879 0.0
C44 C 0.48072 0.59584 0.2968 0.0
C45 C 0.50592 0.58573 0.25602 0.0
C46 C 0.49053 0.58478 0.23127 0.0
C47 C 0.46971 0.58997 0.23928 0.0
C48 C 0.46478 0.59513 0.27272 0.0
Zn49 Zn 0.52494 0.59607 0.32088 0.0
O50 O 0.53576 0.58449 0.3923 0.0
C51 C 0.52077 0.63564 0.35913 0.0
O52 O 0.50915 0.57891 0.35844 0.0
H53 H 0.52207 0.58256 0.24938 0.0
H54 H 0.55729 0.61744 0.42564 0.0
H55 H 0.47709 0.60044 0.32232 0.0
O56 O 0.53843 0.6296 0.37032 0.0
O57 O 0.51117 0.62434 0.33783 0.0
H58 H 0.59884 0.59456 0.35102 0.0
O59 O 0.54129 0.61278 0.2835 0.0
O60 O 0.5687 0.61691 0.316 0.0
O61 O 0.53909 0.56806 0.30419 0.0
O62 O 0.56555 0.57225 0.33871 0.0
C63 C 0.55987 0.61943 0.28768 0.0
H64 H 0.58701 0.62563 0.46305 0.0
H65 H 0.62925 0.60172 0.38715 0.0
H66 H 0.49514 0.58107 0.20574 0.0
H67 H 0.44888 0.59908 0.28 0.0
C68 C 0.1562 0.76976 0.64165 0.0
N69 N 0.12711 0.82859 0.63754 0.0
C70 C 0.12178 0.8264 0.67049 0.0
C71 C 0.11906 0.8441 0.69072 0.0
C72 C 0.1218 0.86421 0.67682 0.0
C73 C 0.12734 0.86591 0.64274 0.0
C74 C 0.13 0.84785 0.62355 0.0
Zn75 Zn 0.13107 0.803 0.60771 0.0
C76 C 0.17052 0.80602 0.56789 0.0
N77 N 0.14012 0.7498 0.54458 0.0
C78 C 0.1351 0.73009 0.55504 0.0
C79 C 0.14616 0.75361 0.51233 0.0
C80 C 0.14651 0.73744 0.48882 0.0
C81 C 0.14047 0.71712 0.49845 0.0
C82 C 0.13512 0.71342 0.53222 0.0
Zn83 Zn 0.13623 0.775 0.57556 0.0
O84 O 0.14807 0.78777 0.64597 0.0
C85 C 0.0966 0.77208 0.61512 0.0
O86 O 0.15332 0.76017 0.61404 0.0
H87 H 0.14989 0.76942 0.50441 0.0
H88 H 0.11962 0.81091 0.68107 0.0
H89 H 0.13036 0.72742 0.58081 0.0
O90 O 0.10264 0.78989 0.62571 0.0
O91 O 0.10788 0.76221 0.59403 0.0
H92 H 0.13425 0.84925 0.59732 0.0
O93 O 0.11949 0.7903 0.5372 0.0
O94 O 0.11441 0.81811 0.56847 0.0
O95 O 0.16436 0.78826 0.55741 0.0
O96 O 0.15956 0.81582 0.58945 0.0
C97 C 0.11215 0.80868 0.54062 0.0
H98 H 0.11496 0.84206 0.71694 0.0
H99 H 0.12922 0.88106 0.63075 0.0
H100 H 0.15039 0.7411 0.46295 0.0
H101 H 0.13049 0.69794 0.54069 0.0
C102 C 0.96375 0.41043 0.88601 0.0
N103 N 0.90553 0.3799 0.87866 0.0
C104 C 0.90697 0.37419 0.91156 0.0
C105 C 0.88884 0.36961 0.92999 0.0
C106 C 0.86921 0.37069 0.91416 0.0
C107 C 0.86819 0.37709 0.88047 0.0
C108 C 0.8866 0.38174 0.86316 0.0
Zn109 Zn 0.93172 0.38482 0.8504 0.0
C110 C 0.92872 0.42399 0.81047 0.0
N111 N 0.986 0.39476 0.78976 0.0
C112 C 0.00567 0.3901 0.80076 0.0
C113 C 0.98251 0.40097 0.75752 0.0
C114 C -0.00102 0.40183 0.73453 0.0
C115 C 0.01928 0.39614 0.74465 0.0
C116 C 0.02264 0.39064 0.77845 0.0
Zn117 Zn 0.96034 0.39012 0.81959 0.0
O118 O 0.94572 0.40217 0.88957 0.0
C119 C 0.96313 0.35055 0.85894 0.0
O120 O 0.97397 0.40741 0.85897 0.0
H121 H 0.96675 0.40439 0.74912 0.0
H122 H 0.9222 0.37281 0.92332 0.0
H123 H 0.00807 0.38522 0.82652 0.0
O124 O 0.94512 0.35656 0.86882 0.0
O125 O 0.97335 0.36191 0.83835 0.0
H126 H 0.88579 0.38647 0.83709 0.0
O127 O 0.94628 0.37321 0.7803 0.0
O128 O 0.91792 0.36788 0.81021 0.0
O129 O 0.94679 0.41801 0.80104 0.0
O130 O 0.91859 0.41303 0.83165 0.0
C131 C 0.92793 0.36567 0.78284 0.0
H132 H 0.89019 0.36463 0.95595 0.0
H133 H 0.85328 0.37836 0.86757 0.0
H134 H -0.00444 0.40578 0.70862 0.0
H135 H 0.0381 0.38626 0.7873 0.0
C136 C 0.62023 0.80906 0.9642 0.0
N137 N 0.64471 0.74886 0.95358 0.0
C138 C 0.65249 0.75176 0.98505 0.0
C139 C 0.65283 0.73525 0.00798 0.0
C140 C 0.64504 0.71552 -0.00147 0.0
C141 C 0.63813 0.71266 0.9653 0.0
C142 C 0.6381 0.72966 0.94308 0.0
Zn143 Zn 0.64071 0.77483 0.92442 0.0
C144 C 0.59953 0.77498 0.88969 0.0
N145 N 0.63187 0.83039 0.86705 0.0
C146 C 0.63532 0.84927 0.88195 0.0
C147 C 0.62524 0.82904 0.83463 0.0
C148 C 0.62138 0.84724 0.81607 0.0
C149 C 0.62415 0.8669 0.83128 0.0
C150 C 0.63143 0.86781 0.86449 0.0
Zn151 Zn 0.63594 0.80399 0.89497 0.0
O152 O 0.6271 0.7904 0.96615 0.0
C153 C 0.6771 0.80363 0.92934 0.0
O154 O 0.62136 0.81873 0.93636 0.0
H155 H 0.62257 0.81384 0.82335 0.0
H156 H 0.65753 0.76718 0.99299 0.0
H157 H 0.64077 0.84998 0.90765 0.0
O158 O 0.67058 0.78567 0.93838 0.0
O159 O 0.66547 0.81523 0.91129 0.0
H160 H 0.63203 0.72773 0.9179 0.0
O161 O 0.65096 0.78902 0.85425 0.0
O162 O 0.65458 0.75979 0.88296 0.0
O163 O 0.60639 0.79247 0.87891 0.0
O164 O 0.61075 0.76422 0.90968 0.0
C165 C 0.65753 0.77022 0.85611 0.0
H166 H 0.65797 0.73831 0.03344 0.0
H167 H 0.63216 0.69764 0.95693 0.0
H168 H 0.61563 0.84598 0.79054 0.0
H169 H 0.63395 0.88273 0.87689 0.0
C170 C 0.4248 0.36923 0.70791 0.0
N171 N 0.48448 0.39506 0.69674 0.0
C172 C 0.48125 0.40288 0.72811 0.0
C173 C 0.4976 0.40345 0.7513 0.0
C174 C 0.5175 0.39587 0.74214 0.0
C175 C 0.52072 0.38914 0.7089 0.0
C176 C 0.50388 0.38883 0.68648 0.0
Zn177 Zn 0.45896 0.38966 0.66725 0.0
C178 C 0.46046 0.34737 0.63585 0.0
N179 N 0.4046 0.37725 0.60882 0.0
C180 C 0.38528 0.38323 0.61985 0.0
C181 C 0.40722 0.36783 0.57841 0.0
C182 C 0.38994 0.36385 0.55794 0.0
C183 C 0.36989 0.36995 0.56866 0.0
C184 C 0.36762 0.37985 0.59992 0.0
Zn185 Zn 0.43022 0.38279 0.63787 0.0
O186 O 0.44326 0.37669 0.70913 0.0
C187 C 0.42884 0.42508 0.66884 0.0
O188 O 0.41505 0.36918 0.68007 0.0
H189 H 0.42274 0.36341 0.56999 0.0
H190 H 0.46569 0.40767 0.73579 0.0
H191 H 0.38356 0.3906 0.64418 0.0
O192 O 0.44691 0.41962 0.67906 0.0
O193 O 0.41808 0.41243 0.65129 0.0
H194 H 0.50609 0.38272 0.66137 0.0
O195 O 0.44547 0.3969 0.59634 0.0
O196 O 0.47408 0.40289 0.62546 0.0
O197 O 0.44273 0.3532 0.62474 0.0
O198 O 0.4708 0.35959 0.65483 0.0
C199 C 0.46393 0.40438 0.59809 0.0
H200 H 0.4943 0.40851 0.77674 0.0
H201 H 0.53588 0.3834 0.7007 0.0
H202 H 0.39223 0.35627 0.53384 0.0
H203 H 0.35231 0.38456 0.60909 0.0
C204 C 0.86589 0.17422 0.4523 0.0
N205 N 0.83936 0.23371 0.44674 0.0
C206 C 0.83345 0.22979 0.479 0.0
C207 C 0.83417 0.24567 0.50298 0.0
C208 C 0.84105 0.2658 0.49369 0.0
C209 C 0.84558 0.26978 0.45969 0.0
C210 C 0.84467 0.25338 0.43648 0.0
Zn211 Zn 0.84361 0.20878 0.41559 0.0
C212 C 0.88455 0.21108 0.38017 0.0
N213 N 0.8537 0.15559 0.35345 0.0
C214 C 0.84799 0.13607 0.36389 0.0
C215 C 0.86229 0.15883 0.32253 0.0
C216 C 0.86577 0.14197 0.30094 0.0
C217 C 0.86003 0.1217 0.31111 0.0
C218 C 0.85088 0.11881 0.34287 0.0
Zn219 Zn 0.84918 0.18058 0.38428 0.0
O220 O 0.85908 0.19288 0.45459 0.0
C221 C 0.80859 0.17829 0.42063 0.0
O222 O 0.86407 0.16448 0.42461 0.0
H223 H 0.86651 0.17451 0.31462 0.0
H224 H 0.82935 0.21403 0.48665 0.0
H225 H 0.84128 0.13386 0.38863 0.0
O226 O 0.81495 0.19587 0.4316 0.0
O227 O 0.81975 0.16827 0.3996 0.0
H228 H 0.84924 0.25613 0.41066 0.0
O229 O 0.8339 0.1967 0.34481 0.0
O230 O 0.82789 0.22423 0.37651 0.0
O231 O 0.87866 0.19323 0.36956 0.0
O232 O 0.87257 0.22138 0.39962 0.0
C233 C 0.82588 0.21482 0.34857 0.0
H234 H 0.83081 0.24178 0.52894 0.0
H235 H 0.85071 0.28514 0.4514 0.0
H236 H 0.87279 0.14473 0.2765 0.0
H237 H 0.84649 0.10331 0.35163 0.0
C238 C 0.06347 0.61446 0.20834 0.0
N239 N 0.00274 0.59115 0.19779 0.0
C240 C 0.00516 0.58432 0.22995 0.0
C241 C 0.98848 0.58541 0.25257 0.0
C242 C 0.96908 0.59351 0.24195 0.0
C243 C 0.96661 0.59893 0.20792 0.0
C244 C 0.98377 0.59771 0.18619 0.0
Zn245 Zn 0.02876 0.59489 0.16875 0.0
C246 C 0.02906 0.63727 0.13613 0.0
N247 N 0.08358 0.6045 0.10991 0.0
C248 C 0.10237 0.59958 0.12402 0.0
C249 C 0.08227 0.61179 0.07782 0.0
C250 C 0.10045 0.61463 0.0587 0.0
C251 C 0.12006 0.61006 0.07296 0.0
C252 C 0.12089 0.6023 0.10594 0.0
Zn253 Zn 0.0573 0.6006 0.13818 0.0
O254 O 0.04485 0.60753 0.21058 0.0
C255 C 0.05703 0.55844 0.17108 0.0
O256 O 0.07274 0.614 0.18009 0.0
H257 H 0.06713 0.61558 0.06715 0.0
H258 H 0.02038 0.57915 0.23863 0.0
H259 H 0.10304 0.59362 0.14946 0.0
O260 O 0.03924 0.56458 0.18162 0.0
O261 O 0.06801 0.57055 0.15277 0.0
H262 H 0.98221 0.60302 0.16048 0.0
O263 O 0.04168 0.58672 0.09689 0.0
O264 O 0.01323 0.58199 0.12708 0.0
O265 O 0.04636 0.63076 0.12407 0.0
O266 O 0.01857 0.62535 0.15548 0.0
C267 C 0.023 0.57991 0.09943 0.0
H268 H 0.99124 0.58127 0.2786 0.0
H269 H 0.95184 0.60494 0.19853 0.0
H270 H 0.09923 0.62079 0.03339 0.0
H271 H 0.13571 0.59835 0.11764 0.0
C272 C 0.82585 0.7129 0.63883 0.0
N273 N 0.85139 0.65278 0.62494 0.0
C274 C 0.85755 0.65316 0.65768 0.0
C275 C 0.86091 0.63441 0.6751 0.0
C276 C 0.85811 0.61521 0.65847 0.0
C277 C 0.85134 0.6153 0.62494 0.0
C278 C 0.84797 0.63434 0.60862 0.0
Zn279 Zn 0.84794 0.67997 0.59866 0.0
C280 C 0.80713 0.68138 0.56284 0.0
N281 N 0.84026 0.73664 0.54312 0.0
C282 C 0.84741 0.75544 0.55458 0.0
C283 C 0.83272 0.73454 0.51134 0.0
C284 C 0.8331 0.75145 0.48915 0.0
C285 C 0.84142 0.77076 0.49962 0.0
C286 C 0.84816 0.77281 0.53309 0.0
Zn287 Zn 0.8435 0.7099 0.57094 0.0
O288 O 0.83234 0.69403 0.63973 0.0
C289 C 0.88432 0.70856 0.60717 0.0
O290 O 0.82919 0.72398 0.61277 0.0
H291 H 0.82732 0.71943 0.50256 0.0
H292 H 0.86021 0.66801 0.6701 0.0
H293 H 0.85333 0.75675 0.57996 0.0
O294 O 0.87726 0.69086 0.61664 0.0
O295 O 0.87339 0.71984 0.58748 0.0
H296 H 0.8429 0.6344 0.5827 0.0
O297 O 0.85756 0.69529 0.52891 0.0
O298 O 0.86313 0.66622 0.55689 0.0
O299 O 0.81367 0.69959 0.5552 0.0
O300 O 0.81863 0.66937 0.58044 0.0
C301 C 0.86453 0.67665 0.52979 0.0
H302 H 0.86627 0.63493 0.70092 0.0
H303 H 0.84879 0.60077 0.61143 0.0
H304 H 0.82808 0.749 0.46345 0.0
H305 H 0.85454 0.78748 0.54225 0.0
C306 C 0.02054 0.07795 0.8886 0.0
N307 N 0.08087 0.1039 0.88243 0.0
C308 C 0.07949 0.11083 0.91471 0.0
C309 C 0.09771 0.11457 0.93331 0.0
C310 C 0.11736 0.11135 0.91822 0.0
C311 C 0.11827 0.10361 0.8853 0.0
C312 C 0.09976 0.09989 0.86783 0.0
Zn313 Zn 0.05491 0.1004 0.85332 0.0
C314 C 0.05587 0.05995 0.816 0.0
N315 N 0.00158 0.09279 0.79019 0.0
C316 C 0.98207 0.09864 0.80047 0.0
C317 C 0.0052 0.08641 0.75808 0.0
C318 C 0.98917 0.0869 0.73436 0.0
C319 C 0.96914 0.09404 0.74368 0.0
C320 C 0.96551 0.09935 0.77749 0.0
Zn321 Zn 0.02691 0.09614 0.82094 0.0
O322 O 0.03891 0.08529 0.89272 0.0
C323 C 0.02599 0.1368 0.85807 0.0
O324 O 0.01124 0.08068 0.86067 0.0
H325 H 0.02084 0.0819 0.75036 0.0
H326 H 0.06428 0.11391 0.92576 0.0
H327 H 0.97955 0.1036 0.82615 0.0
O328 O 0.04337 0.12997 0.86928 0.0
O329 O 0.01558 0.12562 0.83755 0.0
H330 H 0.10051 0.09422 0.84226 0.0
O331 O 0.04309 0.11119 0.78134 0.0
O332 O 0.07082 0.11521 0.81306 0.0
O333 O 0.03863 0.06695 0.80466 0.0
O334 O 0.06612 0.07078 0.83712 0.0
C335 C 0.06184 0.11748 0.78486 0.0
H336 H 0.09647 0.12063 0.95866 0.0
H337 H 0.13318 0.1007 0.87303 0.0
H338 H -0.00717 0.08297 0.70853 0.0
H339 H 0.95025 0.10472 0.78583 0.0
C340 C 0.65558 0.27362 0.13721 0.0
N341 N 0.63083 0.3341 0.12838 0.0
C342 C 0.62419 0.33315 0.16088 0.0
C343 C 0.62149 0.35156 0.17941 0.0
C344 C 0.62552 0.37102 0.16414 0.0
C345 C 0.63281 0.37147 0.13086 0.0
C346 C 0.6354 0.35274 0.11339 0.0
Zn347 Zn 0.63359 0.30761 0.1004 0.0
C348 C 0.67382 0.30698 0.06212 0.0
N349 N 0.63995 0.25274 0.04065 0.0
C350 C 0.63432 0.23361 0.05289 0.0
C351 C 0.64598 0.25525 0.00809 0.0
C352 C 0.6454 0.23837 0.98594 0.0
C353 C 0.63857 0.21865 -0.00264 0.0
C354 C 0.63355 0.21623 0.03156 0.0
Zn355 Zn 0.6372 0.27887 0.06962 0.0
O356 O 0.64861 0.29219 0.14044 0.0
C357 C 0.59682 0.27932 0.10752 0.0
O358 O 0.6526 0.26383 0.10981 0.0
H359 H 0.65036 0.2706 -0.00115 0.0
H360 H 0.62066 0.31813 0.17224 0.0
H361 H 0.62966 0.23198 0.07892 0.0
O362 O 0.60382 0.29691 0.1176 0.0
O363 O 0.60781 0.2684 0.0874 0.0
H364 H 0.64081 0.35312 0.08762 0.0
O365 O 0.62217 0.29445 0.02939 0.0
O366 O 0.6189 0.32299 0.05954 0.0
O367 O 0.66636 0.28963 0.05204 0.0
O368 O 0.66342 0.31794 0.08294 0.0
C369 C 0.61632 0.31342 0.03189 0.0
H370 H 0.6157 0.35063 0.20498 0.0
H371 H 0.63633 0.38617 0.11839 0.0
H372 H 0.64908 0.24109 0.95971 0.0
H373 H 0.62841 0.20125 0.04147 0.0
C374 C 0.45944 0.90672 0.39044 0.0
N375 N 0.39945 0.8802 0.38364 0.0
C376 C 0.40114 0.87516 0.41676 0.0
C377 C 0.38317 0.87282 0.43652 0.0
C378 C 0.36327 0.87553 0.42198 0.0
C379 C 0.36206 0.88091 0.38776 0.0
C380 C 0.38041 0.88326 0.36905 0.0
Zn381 Zn 0.42569 0.88301 0.35487 0.0
C382 C 0.42545 0.92235 0.31473 0.0
N383 N 0.48074 0.88934 0.295 0.0
C384 C 0.49995 0.88346 0.30659 0.0
C385 C 0.47797 0.89551 0.26257 0.0
C386 C 0.49469 0.89514 0.24002 0.0
C387 C 0.51447 0.88823 0.25082 0.0
C388 C 0.51713 0.88273 0.28476 0.0
Zn389 Zn 0.45475 0.88669 0.32461 0.0
O390 O 0.4409 0.89964 0.39376 0.0
C391 C 0.45498 0.84715 0.3643 0.0
O392 O 0.46954 0.9031 0.36351 0.0
H393 H 0.46254 0.89993 0.25375 0.0
H394 H 0.41646 0.87284 0.42784 0.0
H395 H 0.50179 0.87865 0.3325 0.0
O396 O 0.43721 0.85402 0.37381 0.0
O397 O 0.46584 0.85794 0.3438 0.0
H398 H 0.37943 0.88731 0.34269 0.0
O399 O 0.43961 0.87056 0.28566 0.0
O400 O 0.41074 0.86673 0.31499 0.0
O401 O 0.4432 0.91529 0.30568 0.0
O402 O 0.41446 0.91198 0.3356 0.0
C403 C 0.42088 0.86397 0.28785 0.0
H404 H 0.38488 0.86892 0.46288 0.0
H405 H 0.34709 0.8828 0.37528 0.0
H406 H 0.49184 0.89917 0.21396 0.0
H407 H 0.53218 0.87742 0.29409 0.0
C408 C 0.12023 0.31493 0.4574 0.0
N409 N 0.14403 0.25395 0.45296 0.0
C410 C 0.15117 0.25782 0.48455 0.0
C411 C 0.15149 0.24186 0.50852 0.0
C412 C 0.14444 0.22169 0.49988 0.0
C413 C 0.13828 0.21787 0.46654 0.0
C414 C 0.13814 0.23434 0.44338 0.0
Zn415 Zn 0.13982 0.27858 0.42114 0.0
C416 C 0.09796 0.27734 0.38845 0.0
N417 N 0.13021 0.33097 0.35686 0.0
C418 C 0.13651 0.35049 0.36635 0.0
C419 C 0.12078 0.32762 0.32667 0.0
C420 C 0.11689 0.34437 0.30498 0.0
C421 C 0.12312 0.36464 0.31428 0.0
C422 C 0.13324 0.36763 0.34518 0.0
Zn423 Zn 0.13461 0.30631 0.38849 0.0
O424 O 0.12679 0.29624 0.461 0.0
C425 C 0.17635 0.30742 0.42124 0.0
O426 O 0.1211 0.32348 0.42857 0.0
H427 H 0.11608 0.31194 0.31951 0.0
H428 H 0.15578 0.27354 0.49162 0.0
H429 H 0.14387 0.35281 0.39054 0.0
O430 O 0.16993 0.29004 0.43303 0.0
O431 O 0.16454 0.31793 0.40181 0.0
H432 H 0.13257 0.23162 0.41808 0.0
O433 O 0.14864 0.28907 0.34901 0.0
O434 O 0.15315 0.26153 0.38134 0.0
O435 O 0.10464 0.29437 0.37574 0.0
O436 O 0.10958 0.26728 0.40878 0.0
C437 C 0.15541 0.27048 0.35302 0.0
H438 H 0.15611 0.24562 0.534 0.0
H439 H 0.133 0.20249 0.45871 0.0
H440 H 0.10912 0.34153 0.28121 0.0
H441 H 0.13803 0.38313 0.35326 0.0
C442 C 0.92336 0.87217 0.21089 0.0
N443 N 0.98292 0.89889 0.20387 0.0
C444 C 0.97882 0.90576 0.23556 0.0
C445 C -0.00545 0.90562 0.25985 0.0
C446 C 0.01471 0.89842 0.25139 0.0
C447 C 0.01892 0.89318 0.21773 0.0
C448 C 0.00266 0.89342 0.19427 0.0
Zn449 Zn 0.95826 0.89318 0.17284 0.0
C450 C 0.96126 0.85097 0.14142 0.0
N451 N 0.9058 0.88011 0.11071 0.0
C452 C 0.88611 0.88529 0.121 0.0
C453 C 0.90926 0.87075 0.08048 0.0
C454 C 0.89246 0.86578 0.05956 0.0
C455 C 0.87199 0.8708 0.06972 0.0
C456 C 0.86888 0.88087 0.10066 0.0
Zn457 Zn 0.93054 0.88611 0.1413 0.0
O458 O 0.94173 0.87968 0.21365 0.0
C459 C 0.92763 0.92819 0.17257 0.0
O460 O 0.91445 0.87231 0.18235 0.0
H461 H 0.92508 0.86693 0.07272 0.0
H462 H 0.96301 0.91007 0.24262 0.0
H463 H 0.88372 0.89263 0.1452 0.0
O464 O 0.9454 0.92286 0.18419 0.0
O465 O 0.91759 0.91555 0.15392 0.0
H466 H 0.00556 0.8881 0.16888 0.0
O467 O 0.94659 0.90049 0.10085 0.0
O468 O 0.97418 0.90692 0.13214 0.0
O469 O 0.94378 0.85663 0.12909 0.0
O470 O 0.97096 0.86334 0.16099 0.0
C471 C 0.9648 0.90836 0.10407 0.0
H472 H 0.99047 0.90959 0.28549 0.0
H473 H 0.03433 0.88786 0.21001 0.0
H474 H 0.8954 0.85809 0.03575 0.0
H475 H 0.85325 0.88473 0.10945 0.0
C476 C 0.36873 0.66872 0.9496 0.0
N477 N 0.34245 0.72852 0.94836 0.0
C478 C 0.33642 0.72388 0.98033 0.0
C479 C 0.33626 0.73941 0.00492 0.0
C480 C 0.34236 0.75994 -0.00343 0.0
C481 C 0.34725 0.76456 0.9629 0.0
C482 C 0.34723 0.7485 0.93907 0.0
Zn483 Zn 0.34677 0.70439 0.91569 0.0
C484 C 0.38744 0.70766 0.87983 0.0
N485 N 0.35634 0.65296 0.84966 0.0
C486 C 0.35049 0.63331 0.85924 0.0
C487 C 0.36511 0.65663 0.81899 0.0
C488 C 0.36865 0.64008 0.79679 0.0
C489 C 0.36275 0.61969 0.80611 0.0
C490 C 0.35341 0.61638 0.83761 0.0
Zn491 Zn 0.35194 0.67725 0.88192 0.0
O492 O 0.36222 0.68737 0.95369 0.0
C493 C 0.31151 0.6741 0.91854 0.0
O494 O 0.36671 0.66005 0.92105 0.0
H495 H 0.36948 0.67241 0.81179 0.0
H496 H 0.33271 0.70788 0.9872 0.0
H497 H 0.34369 0.63073 0.88382 0.0
O498 O 0.31815 0.6912 0.93091 0.0
O499 O 0.32241 0.66469 0.89648 0.0
H500 H 0.35189 0.75183 0.91345 0.0
O501 O 0.33679 0.69439 0.84364 0.0
O502 O 0.33101 0.7209 0.87758 0.0
O503 O 0.38141 0.69018 0.86789 0.0
O504 O 0.37568 0.71733 0.90043 0.0
C505 C 0.32891 0.71241 0.84891 0.0
H506 H 0.33267 0.73504 0.03061 0.0
H507 H 0.35182 0.78025 0.95535 0.0
H508 H 0.37585 0.64315 0.77259 0.0
H509 H 0.34893 0.60077 0.84574 0.0
C510 C 0.55958 0.11433 0.70828 0.0
N511 N 0.49963 0.09007 0.6969 0.0
C512 C 0.50212 0.08335 0.72911 0.0
C513 C 0.48556 0.08461 0.75187 0.0
C514 C 0.46621 0.0929 0.74146 0.0
C515 C 0.46364 0.09834 0.70745 0.0
C516 C 0.48068 0.0968 0.68545 0.0
Zn517 Zn 0.52595 0.09343 0.66828 0.0
C518 C 0.52646 0.13448 0.63257 0.0
N519 N 0.58194 0.10182 0.61168 0.0
C520 C 0.60068 0.09784 0.62672 0.0
C521 C 0.58088 0.10844 0.57919 0.0
C522 C 0.59923 0.11163 0.56066 0.0
C523 C 0.61877 0.10816 0.57592 0.0
C524 C 0.61937 0.10099 0.60926 0.0
Zn525 Zn 0.55529 0.09817 0.63917 0.0
O526 O 0.54078 0.10783 0.70926 0.0
C527 C 0.55482 0.05737 0.67547 0.0
O528 O 0.56995 0.11266 0.68113 0.0
H529 H 0.56579 0.11153 0.56779 0.0
H530 H 0.51734 0.07819 0.73778 0.0
H531 H 0.60115 0.09242 0.65248 0.0
O532 O 0.53699 0.06411 0.68475 0.0
O533 O 0.56601 0.06845 0.65584 0.0
H534 H 0.47906 0.10202 0.65971 0.0
O535 O 0.54042 0.08333 0.59817 0.0
O536 O 0.51148 0.07878 0.62733 0.0
O537 O 0.5443 0.12792 0.62283 0.0
O538 O 0.51536 0.12298 0.65167 0.0
C539 C 0.52179 0.0763 0.60026 0.0
H540 H 0.48841 0.08053 0.7779 0.0
H541 H 0.44891 0.10459 0.69831 0.0
H542 H 0.59818 0.11734 0.53506 0.0
H543 H 0.63416 0.09792 0.62173 0.0
C544 C 0.41334 0.23953 0.10725 0.0
C545 C 0.40572 0.22094 0.12186 0.0
C546 C 0.43365 0.24651 0.11409 0.0
C547 C 0.48501 0.22603 0.14089 0.0
H548 H 0.50011 0.28494 0.13777 0.0
C549 C 0.56331 0.28359 0.14016 0.0
C550 C 0.57572 0.27195 0.11766 0.0
C551 C 0.54283 0.27718 0.14778 0.0
C552 C 0.49622 0.26842 0.13931 0.0
H553 H 0.41302 0.19571 0.15657 0.0
H554 H 0.44836 0.20817 0.16912 0.0
H555 H 0.46329 0.27493 0.14009 0.0
H556 H 0.57653 0.24416 0.08617 0.0
H557 H 0.5409 0.23331 0.09877 0.0
H558 H 0.51792 0.21951 0.14036 0.0
C559 C 0.43881 0.21708 0.15172 0.0
C560 C 0.47506 0.26267 0.14017 0.0
C561 C 0.41851 0.21 0.14468 0.0
C562 C 0.56743 0.25349 0.10366 0.0
C563 C 0.547 0.24716 0.11113 0.0
C564 C 0.50616 0.23178 0.1403 0.0
C565 C 0.4468 0.23518 0.13593 0.0
C566 C 0.46918 0.24139 0.13998 0.0
C567 C 0.53434 0.25902 0.13298 0.0
C568 C 0.51202 0.25302 0.13848 0.0
H569 H 0.40391 0.24834 0.08953 0.0
H570 H 0.43931 0.26032 0.10105 0.0
H571 H 0.48114 0.20948 0.14051 0.0
H572 H 0.56928 0.29783 0.15152 0.0
H573 H 0.53361 0.28654 0.16505 0.0
C574 C 0.49456 0.66461 0.3529 0.0
C575 C 0.51203 0.65612 0.36955 0.0
C576 C 0.48745 0.68476 0.36067 0.0
C577 C 0.50676 0.73456 0.39565 0.0
H578 H 0.44834 0.75063 0.38693 0.0
C579 C 0.44993 0.81332 0.39565 0.0
C580 C 0.46238 0.82618 0.37493 0.0
C581 C 0.45605 0.79268 0.40263 0.0
C582 C 0.46468 0.74642 0.39009 0.0
H583 H 0.53507 0.66164 0.40868 0.0
H584 H 0.52237 0.69664 0.4227 0.0
H585 H 0.45787 0.71363 0.38619 0.0
H586 H 0.49143 0.82775 0.34648 0.0
H587 H 0.50185 0.79187 0.3581 0.0
H588 H 0.51357 0.76733 0.39958 0.0
C589 C 0.51447 0.68794 0.40308 0.0
C590 C 0.47018 0.7252 0.38919 0.0
C591 C 0.52169 0.66784 0.39514 0.0
C592 C 0.48145 0.81827 0.36251 0.0
C593 C 0.48752 0.79769 0.36941 0.0
C594 C 0.50125 0.75576 0.39675 0.0
C595 C 0.49753 0.69682 0.38546 0.0
C596 C 0.49134 0.71905 0.39102 0.0
C597 C 0.47473 0.78451 0.38904 0.0
C598 C 0.48022 0.76198 0.393 0.0
H599 H 0.48678 0.65599 0.33304 0.0
H600 H 0.47455 0.69118 0.34623 0.0
H601 H 0.52323 0.73046 0.39692 0.0
H602 H 0.4352 0.81899 0.40577 0.0
H603 H 0.44598 0.78302 0.41822 0.0
C604 C 0.06338 0.77418 0.6488 0.0
C605 C 0.07595 0.76357 0.62525 0.0
C606 C 0.04296 0.76731 0.65555 0.0
C607 C 0.00589 0.72281 0.64178 0.0
H608 H 0.96389 0.76683 0.64281 0.0
C609 C 0.91406 0.73406 0.6042 0.0
C610 C 0.9054 0.71561 0.61771 0.0
C611 C 0.93452 0.74002 0.61217 0.0
C612 C 0.97541 0.75434 0.64254 0.0
H613 H 0.07728 0.73692 0.5914 0.0
H614 H 0.04168 0.72528 0.60251 0.0
H615 H 0.00088 0.7761 0.64388 0.0
H616 H 0.91114 0.68937 0.65128 0.0
H617 H 0.94682 0.69999 0.66563 0.0
H618 H 0.98041 0.70111 0.63828 0.0
C619 C 0.0476 0.73868 0.61627 0.0
C620 C -0.00334 0.75964 0.64364 0.0
C621 C 0.06801 0.74546 0.60969 0.0
C622 C 0.91742 0.70361 0.64025 0.0
C623 C 0.93789 0.70964 0.64836 0.0
C624 C 0.98463 0.71751 0.64044 0.0
C625 C 0.03466 0.74976 0.63877 0.0
C626 C 0.01217 0.74396 0.64241 0.0
C627 C 0.94679 0.72776 0.63402 0.0
C628 C 0.96916 0.73324 0.63993 0.0
H629 H 0.0691 0.78809 0.66143 0.0
H630 H 0.03354 0.776 0.67344 0.0
H631 H 0.01741 0.71032 0.64138 0.0
H632 H 0.90524 0.74366 0.58672 0.0
H633 H 0.94095 0.75388 0.6002 0.0
C634 C 0.98972 0.3218 0.85418 0.0
C635 C 0.97134 0.32975 0.86902 0.0
C636 C -0.00385 0.30122 0.86047 0.0
C637 C 0.97425 0.2501 0.88563 0.0
H638 H 0.03277 0.23349 0.88484 0.0
C639 C 0.02981 0.17051 0.89003 0.0
C640 C 0.01853 0.15804 0.86719 0.0
C641 C 0.02366 0.19119 0.89646 0.0
C642 C 0.01635 0.23782 0.88566 0.0
H643 H 0.94595 0.32268 0.90361 0.0
H644 H 0.95743 0.28687 0.91511 0.0
H645 H 0.02369 0.27058 0.88659 0.0
H646 H 0.99158 0.15735 0.83393 0.0
H647 H 0.98112 0.1934 0.8446 0.0
H648 H 0.96691 0.21735 0.88487 0.0
C649 C 0.9666 0.2964 0.89799 0.0
C650 C 0.01114 0.25912 0.88622 0.0
C651 C 0.9601 0.31698 0.89157 0.0
C652 C 0.00061 0.1665 0.85171 0.0
C653 C -0.00548 0.18717 0.85803 0.0
C654 C 0.97946 0.22881 0.88524 0.0
C655 C 0.98444 0.28812 0.88192 0.0
C656 C 0.99003 0.26554 0.88544 0.0
C657 C 0.00612 0.19988 0.88012 0.0
C658 C 0.00057 0.2224 0.88446 0.0
H659 H -0.00126 0.33121 0.83665 0.0
H660 H 0.00982 0.29533 0.8473 0.0
H661 H 0.95783 0.25443 0.88473 0.0
H662 H 0.04363 0.16442 0.90253 0.0
H663 H 0.03276 0.20044 0.91399 0.0
C664 C 0.57016 0.74916 0.8945 0.0
C665 C 0.5784 0.76754 0.88011 0.0
C666 C 0.54975 0.74274 0.88717 0.0
C667 C 0.50912 0.72717 0.85734 0.0
H668 H 0.46609 0.77019 0.85769 0.0
C669 C 0.42151 0.70574 0.84838 0.0
C670 C 0.4084 0.71612 0.87142 0.0
C671 C 0.44198 0.71282 0.84271 0.0
C672 C 0.47792 0.75798 0.85754 0.0
H673 H 0.57193 0.79323 0.84579 0.0
H674 H 0.53633 0.78182 0.83261 0.0
H675 H 0.50287 0.78029 0.86083 0.0
H676 H 0.40622 0.74251 0.9057 0.0
H677 H 0.44191 0.75455 0.8964 0.0
H678 H 0.48416 0.70481 0.856 0.0
C679 C 0.54555 0.77257 0.85003 0.0
C680 C 0.49903 0.76378 0.85891 0.0
C681 C 0.56598 0.77905 0.85747 0.0
C682 C 0.41591 0.73414 0.88777 0.0
C683 C 0.43637 0.74116 0.88223 0.0
C684 C 0.48801 0.72136 0.85615 0.0
C685 C 0.53711 0.75448 0.86513 0.0
C686 C 0.51487 0.74842 0.85961 0.0
C687 C 0.44977 0.73039 0.86005 0.0
C688 C 0.47214 0.73668 0.85701 0.0
H689 H 0.5793 0.73994 0.91209 0.0
H690 H 0.54366 0.72892 0.8997 0.0
H691 H 0.52095 0.71496 0.85726 0.0
H692 H 0.41612 0.69189 0.83518 0.0
H693 H 0.45179 0.70437 0.82509 0.0
C694 C 0.45873 0.3139 0.60314 0.0
C695 C 0.46868 0.32633 0.62753 0.0
C696 C 0.46581 0.29357 0.59655 0.0
C697 C 0.47393 0.24719 0.60585 0.0
H698 H 0.5326 0.23179 0.61339 0.0
C699 C 0.50022 0.16344 0.63694 0.0
C700 C 0.51913 0.15576 0.62357 0.0
C701 C 0.49405 0.18411 0.63111 0.0
C702 C 0.51618 0.23582 0.61061 0.0
H703 H 0.49417 0.3274 0.66357 0.0
H704 H 0.50614 0.29178 0.65281 0.0
H705 H 0.52269 0.26869 0.61379 0.0
H706 H 0.546 0.16351 0.59238 0.0
H707 H 0.53502 0.19964 0.58171 0.0
H708 H 0.46743 0.21436 0.6024 0.0
C709 C 0.49315 0.29783 0.63821 0.0
C710 C 0.51047 0.25698 0.61133 0.0
C711 C 0.48618 0.31822 0.64459 0.0
C712 C 0.53139 0.16901 0.6032 0.0
C713 C 0.52516 0.18973 0.59724 0.0
C714 C 0.47965 0.22606 0.60489 0.0
C715 C 0.48289 0.28516 0.6144 0.0
C716 C 0.48923 0.2629 0.60978 0.0
C717 C 0.50658 0.19761 0.61158 0.0
C718 C 0.50079 0.22009 0.60813 0.0
H719 H 0.44533 0.31979 0.58931 0.0
H720 H 0.45778 0.28438 0.57764 0.0
H721 H 0.45741 0.25112 0.60484 0.0
H722 H 0.49041 0.15367 0.65279 0.0
H723 H 0.47982 0.18972 0.643 0.0
C724 C 0.91295 0.2378 0.38687 0.0
C725 C 0.90572 0.21915 0.37207 0.0
C726 C 0.93363 0.24439 0.38214 0.0
C727 C 0.976 0.25975 0.35837 0.0
H728 H 0.01866 0.2166 0.36568 0.0
C729 C 0.06421 0.28004 0.35653 0.0
C730 C 0.07665 0.26967 0.38052 0.0
C731 C 0.04368 0.2734 0.35029 0.0
C732 C 0.00694 0.22885 0.36368 0.0
H733 H 0.91426 0.19329 0.33935 0.0
H734 H 0.95032 0.205 0.33063 0.0
H735 H 0.9818 0.20665 0.36405 0.0
H736 H 0.07744 0.24396 0.4163 0.0
H737 H 0.04157 0.23267 0.40594 0.0
H738 H 0.00108 0.28201 0.35975 0.0
C739 C 0.94008 0.21431 0.34645 0.0
C740 C 0.9858 0.22313 0.36227 0.0
C741 C 0.91939 0.20767 0.35129 0.0
C742 C 0.06828 0.25226 0.39761 0.0
C743 C 0.04774 0.2457 0.39148 0.0
C744 C -0.00287 0.26548 0.35992 0.0
C745 C 0.94756 0.23254 0.36235 0.0
C746 C 0.97006 0.23853 0.36021 0.0
C747 C 0.03512 0.2563 0.36798 0.0
C748 C 0.01284 0.25011 0.36321 0.0
H749 H 0.90284 0.24701 0.40306 0.0
H750 H 0.9389 0.25835 0.39513 0.0
H751 H 0.96428 0.272 0.35631 0.0
H752 H 0.07025 0.29342 0.34276 0.0
H753 H 0.03449 0.28173 0.33167 0.0
C754 C 0.03345 0.67265 0.10919 0.0
C755 C 0.02168 0.65888 0.12941 0.0
C756 C 0.02711 0.69351 0.105 0.0
C757 C 0.01798 0.73938 0.12056 0.0
H758 H 0.95899 0.75402 0.1162 0.0
C759 C 0.98723 0.8222 0.15178 0.0
C760 C 0.96974 0.82985 0.13414 0.0
C761 C -0.00566 0.80171 0.14659 0.0
C762 C 0.97556 0.75026 0.1169 0.0
H763 H -0.00622 0.65609 0.16047 0.0
H764 H 0.98296 0.69237 0.1536 0.0
H765 H 0.96939 0.71733 0.11405 0.0
H766 H 0.94652 0.82232 0.09619 0.0
H767 H 0.95916 0.78674 0.08667 0.0
H768 H 0.02414 0.77236 0.12312 0.0
C769 C -0.0031 0.68706 0.14053 0.0
C770 C 0.9815 0.72918 0.1161 0.0
C771 C 0.00319 0.66625 0.14465 0.0
C772 C 0.95993 0.81683 0.11041 0.0
C773 C 0.96711 0.79639 0.10507 0.0
C774 C 0.01204 0.76049 0.12122 0.0
C775 C 0.00888 0.70101 0.12095 0.0
C776 C 0.00275 0.72346 0.11853 0.0
C777 C 0.98419 0.78846 0.12348 0.0
C778 C 0.99073 0.76617 0.11995 0.0
H779 H 0.04773 0.66742 0.09702 0.0
H780 H 0.03654 0.70378 0.0894 0.0
H781 H 0.03447 0.73553 0.12275 0.0
H782 H -0.00488 0.83183 0.17029 0.0
H783 H 0.00736 0.79606 0.16154 0.0
C784 C 0.14104 0.11004 0.96853 0.0
C785 C 0.13696 0.11706 0.93573 0.0
C786 C 0.16011 0.1149 0.9841 0.0
C787 C 0.21409 0.13283 0.96342 0.0
H788 H 0.2166 0.14779 0.0578 0.0
C789 C 0.28243 0.17863 0.02136 0.0
C790 C 0.29145 0.17023 0.05061 0.0
C791 C 0.26387 0.17028 0.00859 0.0
C792 C 0.2161 0.14341 0.03151 0.0
H793 H 0.14896 0.13538 0.89402 0.0
H794 H 0.18181 0.14438 0.92132 0.0
H795 H 0.18316 0.13688 0.03324 0.0
H796 H 0.28805 0.14672 0.08974 0.0
H797 H 0.25513 0.1324 0.06763 0.0
H798 H 0.24683 0.14022 0.96146 0.0
C799 C 0.17079 0.13449 0.93472 0.0
C800 C 0.19701 0.13711 0.01745 0.0
C801 C 0.15193 0.12945 0.91911 0.0
C802 C 0.28145 0.15343 0.06706 0.0
C803 C 0.26264 0.14531 0.05457 0.0
C804 C 0.23303 0.13939 0.97735 0.0
C805 C 0.17528 0.12704 0.9672 0.0
C806 C 0.19573 0.13211 0.98307 0.0
C807 C 0.25381 0.1536 0.02511 0.0
C808 C 0.23412 0.14502 0.01135 0.0
H809 H 0.12971 0.1004 0.98177 0.0
H810 H 0.16311 0.1088 0.00905 0.0
H811 H 0.21382 0.12854 0.93709 0.0
H812 H 0.28981 0.19154 0.00811 0.0
H813 H 0.25722 0.17702 0.98597 0.0
C814 C 0.62781 0.39385 0.21539 0.0
C815 C 0.62122 0.39087 0.18205 0.0
C816 C 0.62368 0.41278 0.23189 0.0
C817 C 0.60836 0.46801 0.21475 0.0
H818 H 0.58883 0.46741 0.30715 0.0
C819 C 0.55932 0.53403 0.27213 0.0
C820 C 0.56592 0.54218 0.30313 0.0
C821 C 0.56861 0.516 0.25908 0.0
C822 C 0.59454 0.46779 0.28149 0.0
H823 H 0.60464 0.40494 0.14018 0.0
H824 H 0.59706 0.43765 0.16898 0.0
H825 H 0.60053 0.43474 0.28091 0.0
H826 H 0.58717 0.53774 0.34511 0.0
H827 H 0.60313 0.50569 0.32244 0.0
H828 H 0.6014 0.50087 0.21493 0.0
C829 C 0.606 0.42577 0.18216 0.0
C830 C 0.60129 0.44914 0.26648 0.0
C831 C 0.61026 0.40699 0.16566 0.0
C832 C 0.58183 0.5318 0.3211 0.0
C833 C 0.5909 0.5135 0.30825 0.0
C834 C 0.60138 0.48653 0.2296 0.0
C835 C 0.61276 0.42896 0.21538 0.0
C836 C 0.60782 0.44898 0.23268 0.0
C837 C 0.58447 0.50561 0.277 0.0
C838 C 0.59401 0.48648 0.26283 0.0
H839 H 0.6364 0.38167 0.22849 0.0
H840 H 0.62923 0.41481 0.2574 0.0
H841 H 0.61381 0.46854 0.18897 0.0
H842 H 0.54714 0.54172 0.25767 0.0
H843 H 0.56327 0.51005 0.23507 0.0
C844 C 0.32587 0.88433 0.4362 0.0
C845 C 0.34383 0.87198 0.44183 0.0
C846 C 0.30703 0.87973 0.45254 0.0
C847 C 0.2678 0.85434 0.46905 0.0
H848 H 0.26376 0.84077 0.56395 0.0
C849 C 0.19952 0.8071 0.52572 0.0
C850 C 0.19015 0.81523 0.55491 0.0
C851 C 0.21798 0.81588 0.51314 0.0
C852 C 0.26467 0.84468 0.53748 0.0
H853 H 0.35614 0.84548 0.46997 0.0
H854 H 0.32333 0.8378 0.499 0.0
H855 H 0.29705 0.85361 0.54081 0.0
H856 H 0.19283 0.83878 0.59404 0.0
H857 H 0.22544 0.85389 0.57223 0.0
H858 H 0.23563 0.84492 0.46549 0.0
C859 C 0.32393 0.85105 0.48193 0.0
C860 C 0.28368 0.85189 0.52425 0.0
C861 C 0.34272 0.8555 0.46533 0.0
C862 C 0.19969 0.83222 0.57144 0.0
C863 C 0.21835 0.84081 0.5591 0.0
C864 C 0.24891 0.84688 0.48216 0.0
C865 C 0.30582 0.86285 0.47515 0.0
C866 C 0.28543 0.85663 0.48986 0.0
C867 C 0.22757 0.83277 0.52975 0.0
C868 C 0.24724 0.8418 0.51641 0.0
H869 H 0.32628 0.89743 0.41884 0.0
H870 H 0.29332 0.88922 0.44722 0.0
H871 H 0.2688 0.8577 0.44239 0.0
H872 H 0.19251 0.79405 0.5124 0.0
H873 H 0.22492 0.80928 0.49063 0.0
C874 C 0.85578 0.59087 0.70795 0.0
C875 C 0.86311 0.59515 0.67536 0.0
C876 C 0.86064 0.57182 0.7236 0.0
C877 C 0.8804 0.51813 0.7047 0.0
H878 H 0.89458 0.51735 0.79948 0.0
C879 C 0.92769 0.45192 0.76657 0.0
C880 C 0.9195 0.4433 0.79633 0.0
C881 C 0.91885 0.46996 0.75267 0.0
C882 C 0.89042 0.51734 0.77308 0.0
H883 H 0.88168 0.58325 0.63389 0.0
H884 H 0.89066 0.55037 0.66134 0.0
H885 H 0.88278 0.55003 0.77347 0.0
H886 H 0.89583 0.44689 0.83514 0.0
H887 H 0.88065 0.47889 0.81106 0.0
H888 H 0.88894 0.48563 0.70415 0.0
C889 C 0.88057 0.56129 0.67454 0.0
C890 C 0.88359 0.536 0.75817 0.0
C891 C 0.87552 0.58018 0.65882 0.0
C892 C 0.90242 0.45319 0.81213 0.0
C893 C 0.89379 0.47148 0.79848 0.0
C894 C 0.88749 0.4996 0.71949 0.0
C895 C 0.87312 0.55681 0.70706 0.0
C896 C 0.87881 0.53669 0.72366 0.0
C897 C 0.90187 0.4799 0.76851 0.0
C898 C 0.89283 0.49912 0.75367 0.0
H899 H 0.84605 0.60214 0.72112 0.0
H900 H 0.85444 0.56879 0.74849 0.0
H901 H 0.87635 0.51793 0.67827 0.0
H902 H 0.94081 0.4446 0.75377 0.0
H903 H 0.92546 0.47629 0.72969 0.0
C904 C 0.71323 0.79598 0.94963 0.0
C905 C 0.69813 0.81071 0.93953 0.0
C906 C 0.73308 0.80252 0.95984 0.0
C907 C 0.76921 0.84841 0.95989 0.0
H908 H 0.7943 0.81838 0.03459 0.0
C909 C 0.83763 0.879 0.0424 0.0
C910 C 0.85382 0.86463 0.04903 0.0
C911 C 0.8197 0.87261 0.02509 0.0
C912 C 0.78756 0.82676 0.01347 0.0
H913 H 0.69188 0.84381 0.9319 0.0
H914 H 0.72631 0.85539 0.95116 0.0
H915 H 0.76059 0.807 0.01271 0.0
H916 H 0.86427 0.83252 0.04238 0.0
H917 H 0.8327 0.82126 0.01253 0.0
H918 H 0.79603 0.86872 0.96199 0.0
C919 C 0.72306 0.83872 0.9503 0.0
C920 C 0.76829 0.82021 0.0008 0.0
C921 C 0.70329 0.83212 0.9395 0.0
C922 C 0.85204 0.84392 0.03737 0.0
C923 C 0.83399 0.83746 0.02051 0.0
C924 C 0.78839 0.85516 0.97298 0.0
C925 C 0.73815 0.82399 0.96082 0.0
C926 C 0.75886 0.83092 0.97381 0.0
C927 C 0.81758 0.85168 0.01465 0.0
C928 C 0.7977 0.84434 -0.00017 0.0
H929 H 0.70976 0.77933 0.94943 0.0
H930 H 0.74444 0.79069 0.96695 0.0
H931 H 0.76258 0.85684 0.93877 0.0
H932 H 0.83875 0.89509 0.05101 0.0
H933 H 0.80716 0.8838 0.021 0.0
C934 C 0.38751 0.59855 0.77142 0.0
C935 C 0.36717 0.60173 0.78388 0.0
C936 C 0.3923 0.58045 0.75326 0.0
C937 C 0.37314 0.52624 0.7416 0.0
H938 H 0.41723 0.52466 0.67433 0.0
C939 C 0.39887 0.45014 0.67427 0.0
C940 C 0.42046 0.44599 0.67715 0.0
C941 C 0.39089 0.46981 0.68292 0.0
C942 C 0.40485 0.52495 0.69301 0.0
H943 H 0.33557 0.58932 0.78572 0.0
H944 H 0.34365 0.55801 0.75284 0.0
H945 H 0.40514 0.55844 0.69589 0.0
H946 H 0.45069 0.45925 0.69041 0.0
H947 H 0.43672 0.49376 0.70502 0.0
H948 H 0.37286 0.4927 0.73844 0.0
C949 C 0.35613 0.56908 0.75799 0.0
C950 C 0.39798 0.54423 0.70551 0.0
C951 C 0.35144 0.58702 0.77664 0.0
C952 C 0.43397 0.46198 0.68811 0.0
C953 C 0.42603 0.48174 0.69621 0.0
C954 C 0.37978 0.507 0.7287 0.0
C955 C 0.37674 0.56532 0.74677 0.0
C956 C 0.38238 0.54509 0.73054 0.0
C957 C 0.40442 0.48574 0.69398 0.0
C958 C 0.39598 0.50619 0.70485 0.0
H959 H 0.39994 0.60962 0.77699 0.0
H960 H 0.40842 0.57797 0.74557 0.0
H961 H 0.36137 0.52619 0.76125 0.0
H962 H 0.3881 0.43808 0.66589 0.0
H963 H 0.37416 0.47259 0.68098 0.0
C964 C 0.65428 0.12448 0.5738 0.0
C965 C 0.63849 0.11286 0.55782 0.0
C966 C 0.67287 0.12921 0.557 0.0
C967 C 0.69605 0.13343 0.47212 0.0
H968 H 0.74777 0.13586 0.52328 0.0
C969 C 0.77886 0.15265 0.4167 0.0
C970 C 0.78886 0.16928 0.4335 0.0
C971 C 0.76047 0.14386 0.42981 0.0
C972 C 0.73343 0.13518 0.50872 0.0
H973 H 0.62971 0.09695 0.51185 0.0
H974 H 0.66255 0.10485 0.48248 0.0
H975 H 0.71584 0.12311 0.55012 0.0
H976 H 0.78751 0.18972 0.47706 0.0
H977 H 0.75572 0.17406 0.50016 0.0
H978 H 0.71399 0.14543 0.43062 0.0
C979 C 0.66039 0.11061 0.50785 0.0
C980 C 0.71512 0.12801 0.52408 0.0
C981 C 0.64163 0.10605 0.52463 0.0
C982 C 0.78013 0.17697 0.46349 0.0
C983 C 0.76203 0.16796 0.47683 0.0
C984 C 0.7145 0.14034 0.4566 0.0
C985 C 0.67623 0.12225 0.5239 0.0
C986 C 0.69608 0.1276 0.50626 0.0
C987 C 0.75212 0.15129 0.4602 0.0
C988 C 0.73318 0.14175 0.47508 0.0
H989 H 0.65209 0.13026 0.59917 0.0
H990 H 0.68446 0.13867 0.56985 0.0
H991 H 0.68163 0.13347 0.45774 0.0
H992 H 0.78524 0.14646 0.39348 0.0
H993 H 0.75303 0.13099 0.41662 0.0
C994 C 0.09764 0.38599 0.28131 0.0
C995 C 0.11822 0.38278 0.29261 0.0
C996 C 0.09253 0.40401 0.26315 0.0
C997 C 0.11167 0.45803 0.24836 0.0
H998 H 0.06673 0.45869 0.18268 0.0
C999 C 0.08645 0.53281 0.17695 0.0
C1000 C 0.06499 0.53749 0.1802 0.0
C1001 C 0.09412 0.51321 0.18668 0.0
C1002 C 0.07933 0.45866 0.20094 0.0
H1003 H 0.14985 0.39515 0.29261 0.0
H1004 H 0.14119 0.42634 0.25973 0.0
H1005 H 0.07877 0.42526 0.20569 0.0
H1006 H 0.03463 0.5252 0.19517 0.0
H1007 H 0.04806 0.49076 0.21166 0.0
H1008 H 0.11227 0.49147 0.24322 0.0
C1009 C 0.12879 0.41534 0.26577 0.0
C1010 C 0.08617 0.43957 0.21427 0.0
C1011 C 0.13381 0.39747 0.28443 0.0
C1012 C 0.05126 0.52205 0.19256 0.0
C1013 C 0.05889 0.50233 0.20174 0.0
C1014 C 0.10506 0.47705 0.23461 0.0
C1015 C 0.10799 0.41906 0.25549 0.0
C1016 C 0.10214 0.43905 0.23867 0.0
C1017 C 0.0804 0.49785 0.19923 0.0
C1018 C 0.08858 0.47755 0.21129 0.0
H1019 H 0.08532 0.37495 0.28764 0.0
H1020 H 0.07628 0.40647 0.25625 0.0
H1021 H 0.12372 0.45834 0.2675 0.0
H1022 H 0.09739 0.54443 0.16751 0.0
H1023 H 0.11077 0.51004 0.18446 0.0
C1024 C 0.63035 0.64097 0.46082 0.0
C1025 C 0.6287 0.62036 0.44865 0.0
C1026 C 0.64863 0.64756 0.47695 0.0
C1027 C 0.69547 0.63012 0.52161 0.0
H1028 H 0.72207 0.67874 0.48119 0.0
C1029 C 0.78099 0.65304 0.55148 0.0
C1030 C 0.78617 0.67445 0.55195 0.0
C1031 C 0.76112 0.64655 0.54098 0.0
C1032 C 0.71473 0.6654 0.49329 0.0
H1033 H 0.64422 0.59019 0.44511 0.0
H1034 H 0.67615 0.60166 0.47398 0.0
H1035 H 0.68789 0.66732 0.46117 0.0
H1036 H 0.77453 0.70591 0.54278 0.0
H1037 H 0.73967 0.69472 0.52575 0.0
H1038 H 0.72206 0.62833 0.5542 0.0
C1039 C 0.66336 0.61269 0.47081 0.0
C1040 C 0.69517 0.65883 0.48169 0.0
C1041 C 0.64521 0.60618 0.45418 0.0
C1042 C 0.77104 0.68927 0.54226 0.0
C1043 C 0.75108 0.68282 0.53233 0.0
C1044 C 0.71491 0.63688 0.53365 0.0
C1045 C 0.66538 0.63355 0.48163 0.0
C1046 C 0.68547 0.64106 0.49555 0.0
C1047 C 0.7459 0.66137 0.53127 0.0
C1048 C 0.72488 0.65451 0.51942 0.0
H1049 H 0.61788 0.65221 0.45661 0.0
H1050 H 0.64984 0.6637 0.48524 0.0
H1051 H 0.68819 0.61641 0.53277 0.0
H1052 H 0.7924 0.64127 0.5587 0.0
H1053 H 0.75786 0.62989 0.53993 0.0
C1054 C 0.05552 0.03 0.77566 0.0
C1055 C 0.06396 0.0395 0.80447 0.0
C1056 C 0.06336 0.01085 0.76428 0.0
C1057 C 0.09006 0.96323 0.79074 0.0
H1058 H 0.10461 0.95813 0.69636 0.0
C1059 C 0.13092 0.90123 0.69233 0.0
C1060 C 0.11824 0.88341 0.69714 0.0
C1061 C 0.1262 0.92004 0.70854 0.0
C1062 C 0.10079 0.95938 0.72283 0.0
H1063 H 0.08695 0.03627 0.84432 0.0
H1064 H 0.10044 0.00248 0.82458 0.0
H1065 H 0.09222 0.99173 0.71815 0.0
H1066 H 0.0912 0.87117 0.724 0.0
H1067 H 0.08322 0.90402 0.75282 0.0
H1068 H 0.09824 0.93067 0.79517 0.0
C1069 C 0.08784 0.01 0.81082 0.0
C1070 C 0.09354 0.97852 0.73519 0.0
C1071 C 0.0802 0.02934 0.82197 0.0
C1072 C 0.1014 0.88453 0.71995 0.0
C1073 C 0.09679 0.90334 0.73642 0.0
C1074 C 0.09705 0.94395 0.77825 0.0
C1075 C 0.07959 0.0007 0.78173 0.0
C1076 C 0.088 0.98058 0.76918 0.0
C1077 C 0.10885 0.92137 0.73018 0.0
C1078 C 0.10242 0.94188 0.74415 0.0
H1079 H 0.043 0.03746 0.76165 0.0
H1080 H 0.05663 0.00387 0.74193 0.0
H1081 H 0.08578 0.96445 0.81703 0.0
H1082 H 0.14431 0.90075 0.67556 0.0
H1083 H 0.13591 0.93367 0.70372 0.0
C1084 C 0.70486 0.33109 0.06465 0.0
C1085 C 0.69423 0.31437 0.04917 0.0
C1086 C 0.72411 0.33807 0.05192 0.0
C1087 C 0.75421 0.34036 0.97418 0.0
H1088 H 0.80342 0.34606 0.03069 0.0
C1089 C 0.83567 0.35067 0.91646 0.0
C1090 C 0.84983 0.36444 0.93199 0.0
C1091 C 0.81695 0.34524 0.93232 0.0
C1092 C 0.78975 0.34488 0.01466 0.0
H1093 H 0.69538 0.29184 0.00831 0.0
H1094 H 0.72874 0.30426 0.98589 0.0
H1095 H 0.76986 0.33582 0.05577 0.0
H1096 H 0.85578 0.38311 0.97641 0.0
H1097 H 0.82265 0.374 0.00404 0.0
H1098 H 0.77372 0.34964 0.93316 0.0
C1099 C 0.72222 0.31191 0.00787 0.0
C1100 C 0.77059 0.33897 0.02903 0.0
C1101 C 0.70319 0.30476 0.02081 0.0
C1102 C 0.84511 0.37239 0.96402 0.0
C1103 C 0.82619 0.36712 0.97981 0.0
C1104 C 0.77322 0.34648 0.95991 0.0
C1105 C 0.73282 0.32866 0.02321 0.0
C1106 C 0.75277 0.33632 0.00877 0.0
C1107 C 0.81179 0.35365 0.96394 0.0
C1108 C 0.79133 0.34843 0.97983 0.0
H1109 H 0.69835 0.33875 0.08661 0.0
H1110 H 0.73198 0.35107 0.06408 0.0
H1111 H 0.74057 0.33876 0.95813 0.0
H1112 H 0.83914 0.34402 0.89203 0.0
H1113 H 0.80653 0.33436 0.91977 0.0
C1114 C 0.40084 0.95302 0.3158 0.0
C1115 C 0.4177 0.94234 0.30072 0.0
C1116 C 0.39372 0.97203 0.30239 0.0
C1117 C 0.39156 0.00165 0.22408 0.0
H1118 H 0.3865 0.05121 0.28002 0.0
C1119 C 0.38277 0.08328 0.16582 0.0
C1120 C 0.36953 0.09787 0.18155 0.0
C1121 C 0.38761 0.06434 0.18155 0.0
C1122 C 0.38749 0.03745 0.26414 0.0
H1123 H 0.44019 0.94303 0.25971 0.0
H1124 H 0.42751 0.97597 0.23609 0.0
H1125 H 0.39628 0.01766 0.30545 0.0
H1126 H 0.35103 0.10428 0.22609 0.0
H1127 H 0.35909 0.07084 0.25346 0.0
H1128 H 0.38256 0.0211 0.18285 0.0
C1129 C 0.41988 0.96969 0.25829 0.0
C1130 C 0.39313 0.01829 0.27872 0.0
C1131 C 0.4272 0.95091 0.27193 0.0
C1132 C 0.36139 0.0933 0.21355 0.0
C1133 C 0.36606 0.07419 0.2292 0.0
C1134 C 0.38568 0.02069 0.20959 0.0
C1135 C 0.40311 0.98042 0.27339 0.0
C1136 C 0.39557 0.00034 0.25867 0.0
C1137 C 0.37912 0.05942 0.21324 0.0
C1138 C 0.38396 0.03893 0.2293 0.0
H1139 H 0.39326 0.94679 0.33807 0.0
H1140 H 0.3807 0.98001 0.31437 0.0
H1141 H 0.39303 0.98793 0.2082 0.0
H1142 H 0.38954 0.0866 0.14139 0.0
H1143 H 0.39818 0.05362 0.1689 0.0
C1144 C 0.21258 0.30162 0.44293 0.0
C1145 C 0.19725 0.3154 0.4304 0.0
C1146 C 0.23219 0.30919 0.45256 0.0
C1147 C 0.25719 0.35469 0.48735 0.0
H1148 H 0.30915 0.32863 0.45839 0.0
C1149 C 0.33673 0.38141 0.54065 0.0
C1150 C 0.35132 0.36553 0.54773 0.0
C1151 C 0.3188 0.37698 0.52182 0.0
C1152 C 0.29478 0.33595 0.46701 0.0
H1153 H 0.19041 0.34783 0.41787 0.0
H1154 H 0.22468 0.36116 0.43575 0.0
H1155 H 0.27594 0.3174 0.43376 0.0
H1156 H 0.35882 0.33267 0.5409 0.0
H1157 H 0.32718 0.32464 0.50924 0.0
H1158 H 0.27561 0.37239 0.52193 0.0
C1159 C 0.22148 0.3445 0.43766 0.0
C1160 C 0.27583 0.32961 0.45271 0.0
C1161 C 0.20196 0.33687 0.4274 0.0
C1162 C 0.34785 0.34521 0.53543 0.0
C1163 C 0.32977 0.34069 0.5171 0.0
C1164 C 0.27608 0.36079 0.50208 0.0
C1165 C 0.2367 0.33071 0.45039 0.0
C1166 C 0.25689 0.33874 0.46309 0.0
C1167 C 0.31494 0.35648 0.51021 0.0
C1168 C 0.2951 0.35128 0.49245 0.0
H1169 H 0.20939 0.28499 0.44537 0.0
H1170 H 0.24366 0.29831 0.46261 0.0
H1171 H 0.2427 0.36179 0.49596 0.0
H1172 H 0.33924 0.39726 0.5496 0.0
H1173 H 0.30794 0.38962 0.51648 0.0
C1174 C 0.88452 0.10043 0.27614 0.0
C1175 C 0.86434 0.10349 0.28932 0.0
C1176 C 0.88916 0.08239 0.25776 0.0
C1177 C 0.87023 0.02809 0.24583 0.0
H1178 H 0.91357 0.02748 0.17728 0.0
C1179 C 0.89712 0.95266 0.17726 0.0
C1180 C 0.91876 0.94893 0.18059 0.0
C1181 C 0.88869 0.97216 0.18586 0.0
C1182 C 0.90137 0.0275 0.19628 0.0
H1183 H 0.83287 0.09083 0.29241 0.0
H1184 H 0.84069 0.05958 0.25918 0.0
H1185 H 0.90123 0.06096 0.19958 0.0
H1186 H 0.94862 0.96275 0.19447 0.0
H1187 H 0.93387 -0.00303 0.20889 0.0
H1188 H 0.8704 -0.00544 0.24221 0.0
C1189 C 0.85316 0.07073 0.2639 0.0
C1190 C 0.89438 0.04662 0.20922 0.0
C1191 C 0.84863 0.08863 0.28278 0.0
C1192 C 0.93187 0.96517 0.19185 0.0
C1193 C 0.92349 0.98476 0.19984 0.0
C1194 C 0.87697 0.00902 0.23245 0.0
C1195 C 0.8736 0.06717 0.25173 0.0
C1196 C 0.87912 0.04712 0.23483 0.0
C1197 C 0.90182 0.98833 0.19724 0.0
C1198 C 0.89295 0.00857 0.20819 0.0
H1199 H 0.89694 0.1116 0.28117 0.0
H1200 H 0.90517 0.08005 0.24942 0.0
H1201 H 0.85871 0.02778 0.26585 0.0
H1202 H 0.88666 0.94039 0.16865 0.0
H1203 H 0.87192 0.97462 0.18369 0.0
C1204 C 0.15648 0.62416 0.07006 0.0
C1205 C 0.1397 0.61398 0.05415 0.0
C1206 C 0.17517 0.62779 0.05285 0.0
C1207 C 0.19771 0.63218 0.96784 0.0
H1208 H 0.24991 0.62913 0.01769 0.0
C1209 C 0.28115 0.64935 0.91267 0.0
C1210 C 0.29173 0.66496 0.93095 0.0
C1211 C 0.26256 0.64061 0.92519 0.0
C1212 C 0.23544 0.62992 0.00346 0.0
H1213 H 0.1292 0.59961 0.00779 0.0
H1214 H 0.16216 0.60572 0.9776 0.0
H1215 H 0.21735 0.61778 0.04427 0.0
H1216 H 0.29131 0.68359 0.97661 0.0
H1217 H 0.25922 0.66802 -0.00137 0.0
H1218 H 0.2161 0.64443 0.92703 0.0
C1219 C 0.16073 0.61112 0.0033 0.0
C1220 C 0.2168 0.62357 0.01868 0.0
C1221 C 0.1419 0.60761 0.02053 0.0
C1222 C 0.28348 0.67164 0.96189 0.0
C1223 C 0.2652 0.66266 0.97461 0.0
C1224 C 0.21648 0.63831 0.95244 0.0
C1225 C 0.1776 0.62117 0.01937 0.0
C1226 C 0.19762 0.62527 0.00145 0.0
C1227 C 0.25464 0.64707 0.95644 0.0
C1228 C 0.23535 0.63779 0.97054 0.0
H1229 H 0.15506 0.6296 0.09576 0.0
H1230 H 0.18762 0.63609 0.06572 0.0
H1231 H 0.1832 0.63379 0.95394 0.0
H1232 H 0.28717 0.64397 0.8887 0.0
H1233 H 0.25459 0.62859 0.91081 0.0
C1234 C 0.55363 0.02835 0.71742 0.0
C1235 C 0.56277 0.03727 0.6886 0.0
C1236 C 0.56173 0.00993 0.73112 0.0
C1237 C 0.59015 0.96236 0.71256 0.0
H1238 H 0.60416 0.96301 0.8074 0.0
C1239 C 0.62563 0.89014 0.78046 0.0
C1240 C 0.61853 0.88639 0.81334 0.0
C1241 C 0.62033 0.90878 0.76393 0.0
C1242 C 0.6001 0.96245 0.781 0.0
H1243 H 0.58717 0.03364 0.65096 0.0
H1244 H 0.60106 0.00094 0.67471 0.0
H1245 H 0.59151 -0.00508 0.78048 0.0
H1246 H 0.59983 0.89865 0.85437 0.0
H1247 H 0.59004 0.93077 0.82539 0.0
H1248 H 0.59788 0.92969 0.71325 0.0
C1249 C 0.58776 0.00845 0.6867 0.0
C1250 C 0.59298 0.98076 0.76561 0.0
C1251 C 0.57987 0.02712 0.67326 0.0
C1252 C 0.60581 0.90136 0.82923 0.0
C1253 C 0.6003 0.91981 0.81264 0.0
C1254 C 0.59698 0.94389 0.72809 0.0
C1255 C 0.57891 -9e-05 0.716 0.0
C1256 C 0.58771 0.98079 0.73141 0.0
C1257 C 0.60763 0.92385 0.77989 0.0
C1258 C 0.60175 0.94367 0.76263 0.0
H1259 H 0.54047 0.03584 0.72984 0.0
H1260 H 0.55457 0.00349 0.75359 0.0
H1261 H 0.58607 0.96207 0.68614 0.0
H1262 H 0.63555 0.87883 0.76779 0.0
H1263 H 0.62642 0.91148 0.73887 0.0
C1264 C 0.38573 0.14788 0.00419 0.0
C1265 C 0.37876 0.16881 0.00401 0.0
C1266 C 0.39349 0.13868 0.97478 0.0
C1267 C 0.41582 0.15222 0.89202 0.0
H1268 H 0.39999 0.09542 0.86791 0.0
C1269 C 0.44033 0.11828 0.76551 0.0
C1270 C 0.45017 0.09856 0.76697 0.0
C1271 C 0.42872 0.12567 0.79277 0.0
C1272 C 0.40459 0.11126 0.87442 0.0
H1273 H 0.37456 0.19652 0.97291 0.0
H1274 H 0.38794 0.18049 0.92185 0.0
H1275 H 0.38664 0.11086 0.92001 0.0
H1276 H 0.45393 0.07036 0.79695 0.0
H1277 H 0.43393 0.08346 0.84489 0.0
H1278 H 0.43389 0.15267 0.84681 0.0
C1279 C 0.38766 0.17123 0.9447 0.0
C1280 C 0.39703 0.12007 0.90427 0.0
C1281 C 0.37993 0.1804 0.97399 0.0
C1282 C 0.44679 0.08575 0.79529 0.0
C1283 C 0.4352 0.09318 0.82264 0.0
C1284 C 0.42332 0.14347 0.86226 0.0
C1285 C 0.39446 0.15026 0.94471 0.0
C1286 C 0.40258 0.14066 0.91335 0.0
C1287 C 0.42675 0.11355 0.82213 0.0
C1288 C 0.41778 0.12291 0.85308 0.0
H1289 H 0.38497 0.13852 0.02691 0.0
H1290 H 0.39886 0.12257 0.97565 0.0
H1291 H 0.4207 0.16798 0.89859 0.0
H1292 H 0.4427 0.12863 0.74423 0.0
H1293 H 0.42202 0.14128 0.79142 0.0
C1294 C 0.56179 0.62973 0.22726 0.0
C1295 C 0.57152 0.62833 0.25886 0.0
C1296 C 0.57312 0.63628 0.19916 0.0
C1297 C 0.61935 0.66603 0.1728 0.0
H1298 H 0.60995 0.63727 0.08822 0.0
C1299 C 0.65644 0.69623 0.0505 0.0
C1300 C 0.6418 0.69908 0.02447 0.0
C1301 C 0.65148 0.68381 0.07835 0.0
C1302 C 0.61276 0.64543 0.11166 0.0
H1303 H 0.60067 0.63312 0.2859 0.0
H1304 H 0.62048 0.64476 0.23656 0.0
H1305 H 0.59389 0.6238 0.13961 0.0
H1306 H 0.61097 0.69013 0.0064 0.0
H1307 H 0.6024 0.66843 0.05467 0.0
H1308 H 0.63762 0.68808 0.14471 0.0
C1309 C 0.60406 0.64075 0.23369 0.0
C1310 C 0.60354 0.63776 0.14104 0.0
C1311 C 0.59272 0.63411 0.2619 0.0
C1312 C 0.62272 0.68807 0.02576 0.0
C1313 C 0.61778 0.67563 0.05353 0.0
C1314 C 0.62856 0.67373 0.14339 0.0
C1315 C 0.59442 0.64161 0.20196 0.0
C1316 C 0.60627 0.64832 0.17173 0.0
C1317 C 0.63181 0.67393 0.08064 0.0
C1318 C 0.6249 0.66382 0.11236 0.0
H1319 H 0.54547 0.62544 0.22402 0.0
H1320 H 0.56514 0.63722 0.17518 0.0
H1321 H 0.62163 0.67456 0.19605 0.0
H1322 H 0.67143 0.70425 0.04993 0.0
H1323 H 0.66274 0.68249 0.09861 0.0
C1324 C 0.03143 0.90572 0.30748 0.0
C1325 C 0.02992 0.89326 0.27838 0.0
C1326 C 0.04235 0.89844 0.33564 0.0
C1327 C 0.05511 0.84824 0.37433 0.0
H1328 H 0.09092 0.88024 0.43402 0.0
C1329 C 0.1008 0.80888 0.4807 0.0
C1330 C 0.10211 0.81923 0.51177 0.0
C1331 C 0.09232 0.81899 0.4528 0.0
C1332 C 0.08073 0.87122 0.41777 0.0
H1333 H 0.03996 0.86401 0.25542 0.0
H1334 H 0.05938 0.85172 0.30398 0.0
H1335 H 0.07712 0.89672 0.38293 0.0
H1336 H 0.09544 0.84832 0.53803 0.0
H1337 H 0.08023 0.86593 0.48913 0.0
H1338 H 0.05838 0.82286 0.40898 0.0
C1339 C 0.05179 0.86691 0.30523 0.0
C1340 C 0.07293 0.88061 0.38852 0.0
C1341 C 0.04089 0.87413 0.2772 0.0
C1342 C 0.09459 0.83991 0.51441 0.0
C1343 C 0.08605 0.85005 0.48639 0.0
C1344 C 0.06279 0.83892 0.40348 0.0
C1345 C 0.05193 0.87859 0.33514 0.0
C1346 C 0.06028 0.86908 0.36633 0.0
C1347 C 0.08486 0.83968 0.45529 0.0
C1348 C 0.07588 0.85019 0.42533 0.0
H1349 H 0.02339 0.92066 0.309 0.0
H1350 H 0.04227 0.90779 0.35835 0.0
H1351 H 0.04492 0.83914 0.35816 0.0
H1352 H 0.10659 0.793 0.47771 0.0
H1353 H 0.09195 0.81068 0.42907 0.0
C1354 C 0.83396 0.28321 0.54923 0.0
C1355 C 0.84633 0.28135 0.52007 0.0
C1356 C 0.84123 0.29461 0.57685 0.0
C1357 C 0.89135 0.30868 0.61467 0.0
H1358 H 0.85833 0.34394 0.67395 0.0
C1359 C 0.9289 0.35451 0.72281 0.0
C1360 C 0.91804 0.35554 0.75352 0.0
C1361 C 0.91933 0.34605 0.69443 0.0
C1362 C 0.86765 0.33392 0.6578 0.0
H1363 H 0.87542 0.29118 0.49631 0.0
H1364 H 0.88777 0.31144 0.54404 0.0
H1365 H 0.8424 0.32975 0.62283 0.0
H1366 H 0.88867 0.34833 0.77865 0.0
H1367 H 0.87203 0.33313 0.729 0.0
H1368 H 0.91647 0.31247 0.64957 0.0
C1369 C 0.87263 0.30377 0.54576 0.0
C1370 C 0.85857 0.32589 0.62852 0.0
C1371 C 0.86539 0.29238 0.51823 0.0
C1372 C 0.89745 0.34772 0.75533 0.0
C1373 C 0.88786 0.33919 0.72686 0.0
C1374 C 0.90037 0.31659 0.64388 0.0
C1375 C 0.86101 0.30433 0.57577 0.0
C1376 C 0.87041 0.31332 0.60656 0.0
C1377 C 0.8987 0.33832 0.69609 0.0
C1378 C 0.8887 0.32942 0.66567 0.0
H1379 H 0.81907 0.2751 0.55123 0.0
H1380 H 0.83192 0.29481 0.59965 0.0
H1381 H 0.9007 0.29858 0.59868 0.0
H1382 H 0.94473 0.36054 0.72047 0.0
H1383 H 0.928 0.3459 0.67099 0.0
C1384 C 0.60498 0.8406 0.99272 0.0
C1385 C 0.61175 0.81963 0.99433 0.0
C1386 C 0.59747 0.85071 0.02145 0.0
C1387 C 0.59723 0.84747 0.11437 0.0
H1388 H 0.54597 0.87988 0.10671 0.0
C1389 C 0.54278 0.86586 0.22601 0.0
C1390 C 0.5314 0.88475 0.22585 0.0
C1391 C 0.55603 0.86081 0.19925 0.0
C1392 C 0.56054 0.87126 0.10923 0.0
H1393 H 0.61599 0.79283 0.02738 0.0
H1394 H 0.60256 0.81037 0.07732 0.0
H1395 H 0.56198 0.86519 0.05645 0.0
H1396 H 0.52631 0.91392 0.19897 0.0
H1397 H 0.54959 0.90515 0.15225 0.0
H1398 H 0.59544 0.85313 0.16736 0.0
C1399 C 0.60337 0.81911 0.05398 0.0
C1400 C 0.56969 0.86279 0.0804 0.0
C1401 C 0.61088 0.809 0.02527 0.0
C1402 C 0.53462 0.89909 0.19948 0.0
C1403 C 0.5479 0.89405 0.17273 0.0
C1404 C 0.58808 0.85596 0.14325 0.0
C1405 C 0.59657 0.84007 0.05239 0.0
C1406 C 0.58792 0.85049 0.08271 0.0
C1407 C 0.55821 0.87456 0.17181 0.0
C1408 C 0.56943 0.86765 0.14105 0.0
H1409 H 0.60559 0.84927 0.9693 0.0
H1410 H 0.59251 0.86693 0.0195 0.0
H1411 H 0.6115 0.83837 0.11686 0.0
H1412 H 0.54045 0.85438 0.24577 0.0
H1413 H 0.56357 0.84557 0.19917 0.0
C1414 C 0.42547 0.36272 0.76977 0.0
C1415 C 0.41478 0.36133 0.73898 0.0
C1416 C 0.41616 0.35555 0.79936 0.0
C1417 C 0.36529 0.34161 0.83808 0.0
H1418 H 0.4004 0.30932 0.89858 0.0
C1419 C 0.33388 0.28892 0.94579 0.0
C1420 C 0.34631 0.28674 0.97478 0.0
C1421 C 0.34069 0.30133 0.91891 0.0
C1422 C 0.39044 0.31865 0.88233 0.0
H1423 H 0.38579 0.35153 0.71516 0.0
H1424 H 0.36961 0.33863 0.767 0.0
H1425 H 0.41539 0.32364 0.84735 0.0
H1426 H 0.3749 0.29722 -0.00081 0.0
H1427 H 0.38636 0.31933 0.95287 0.0
H1428 H 0.34022 0.3362 0.87305 0.0
C1429 C 0.38513 0.34553 0.7682 0.0
C1430 C 0.39904 0.3268 0.85286 0.0
C1431 C 0.39445 0.35275 0.73849 0.0
C1432 C 0.36485 0.29858 0.97737 0.0
C1433 C 0.37159 0.31104 0.95059 0.0
C1434 C 0.35665 0.33341 0.86768 0.0
C1435 C 0.39595 0.34675 0.79892 0.0
C1436 C 0.38659 0.33835 0.83035 0.0
C1437 C 0.36003 0.31186 0.92056 0.0
C1438 C 0.36915 0.32181 0.8901 0.0
H1439 H 0.44107 0.36942 0.77113 0.0
H1440 H 0.42478 0.35703 0.82268 0.0
H1441 H 0.35536 0.35065 0.82139 0.0
H1442 H 0.31934 0.28028 0.94324 0.0
H1443 H 0.33139 0.30164 0.89615 0.0
C1444 C 0.94175 0.11722 0.71822 0.0
C1445 C 0.95322 0.09839 0.71735 0.0
C1446 C 0.92983 0.12346 0.69059 0.0
C1447 C 0.90723 0.10677 0.60922 0.0
H1448 H 0.91831 0.16468 0.58484 0.0
C1449 C 0.88341 0.14361 0.48077 0.0
C1450 C 0.87521 0.16408 0.48219 0.0
C1451 C 0.89199 0.1343 0.50956 0.0
C1452 C 0.91484 0.14855 0.59145 0.0
H1453 H 0.95965 0.07047 0.68791 0.0
H1454 H 0.93909 0.08161 0.63931 0.0
H1455 H 0.9333 0.15041 0.63604 0.0
H1456 H 0.86919 0.19063 0.51505 0.0
H1457 H 0.88385 0.1744 0.56485 0.0
H1458 H 0.88877 0.10504 0.56424 0.0
C1459 C 0.93934 0.09152 0.66141 0.0
C1460 C 0.92338 0.14038 0.62087 0.0
C1461 C 0.95126 0.08524 0.68913 0.0
C1462 C 0.87557 0.17492 0.51292 0.0
C1463 C 0.88405 0.16564 0.54152 0.0
C1464 C 0.89859 0.115 0.57966 0.0
C1465 C 0.92915 0.11107 0.66142 0.0
C1466 C 0.91955 0.11948 0.63027 0.0
C1467 C 0.89252 0.14532 0.54017 0.0
C1468 C 0.90219 0.13605 0.57065 0.0
H1469 H 0.94297 0.12783 0.73938 0.0
H1470 H 0.92179 0.13843 0.69156 0.0
H1471 H 0.90402 0.0906 0.61585 0.0
H1472 H 0.88328 0.13484 0.45747 0.0
H1473 H 0.89853 0.11865 0.50771 0.0
C1474 C 0.15209 0.69878 0.44582 0.0
C1475 C 0.13773 0.70065 0.4725 0.0
C1476 C 0.14764 0.68582 0.41844 0.0
C1477 C 0.1116 0.6442 0.38752 0.0
H1478 H 0.11901 0.67227 0.30175 0.0
C1479 C 0.06419 0.62216 0.26994 0.0
C1480 C 0.07436 0.62236 0.23857 0.0
C1481 C 0.07449 0.6293 0.29867 0.0
C1482 C 0.11716 0.66402 0.32539 0.0
H1483 H 0.10795 0.68959 0.49217 0.0
H1484 H 0.10019 0.66704 0.44451 0.0
H1485 H 0.13326 0.68804 0.35247 0.0
H1486 H 0.10343 0.62998 0.21281 0.0
H1487 H 0.12142 0.64247 0.2631 0.0
H1488 H 0.09492 0.62048 0.36041 0.0
C1489 C 0.115 0.67538 0.44483 0.0
C1490 C 0.12537 0.67304 0.3545 0.0
C1491 C 0.11946 0.68831 0.47221 0.0
C1492 C 0.09511 0.62976 0.23658 0.0
C1493 C 0.10541 0.63694 0.26536 0.0
C1494 C 0.10336 0.63519 0.35839 0.0
C1495 C 0.12874 0.67449 0.41717 0.0
C1496 C 0.12233 0.66345 0.38599 0.0
C1497 C 0.09519 0.6368 0.29671 0.0
C1498 C 0.10569 0.64522 0.32711 0.0
H1499 H 0.16646 0.70785 0.44561 0.0
H1500 H 0.15872 0.68515 0.3978 0.0
H1501 H 0.10926 0.63628 0.41134 0.0
H1502 H 0.04822 0.61654 0.27236 0.0
H1503 H 0.06607 0.62931 0.32234 0.0
C1504 C 0.8812 0.64639 0.49967 0.0
C1505 C 0.87355 0.66708 0.49922 0.0
C1506 C 0.88934 0.63733 0.47045 0.0
C1507 C 0.91235 0.65169 0.38879 0.0
H1508 H 0.90048 0.59388 0.36491 0.0
C1509 C 0.94211 0.61818 0.26486 0.0
C1510 C 0.95271 0.59888 0.26711 0.0
C1511 C 0.92959 0.6252 0.29132 0.0
C1512 C 0.90398 0.61002 0.37137 0.0
H1513 H 0.86818 0.6944 0.46771 0.0
H1514 H 0.88223 0.67856 0.41685 0.0
H1515 H 0.8848 0.60893 0.41564 0.0
H1516 H 0.95707 0.57107 0.29782 0.0
H1517 H 0.93555 0.5836 0.34446 0.0
H1518 H 0.9317 0.65281 0.34501 0.0
C1519 C 0.88222 0.66943 0.43983 0.0
C1520 C 0.89507 0.61861 0.40041 0.0
C1521 C 0.87411 0.67848 0.46898 0.0
C1522 C 0.94938 0.58615 0.29554 0.0
C1523 C 0.93689 0.59324 0.32212 0.0
C1524 C 0.92121 0.64314 0.35986 0.0
C1525 C 0.88999 0.6488 0.44026 0.0
C1526 C 0.8992 0.63954 0.40941 0.0
C1527 C 0.92747 0.61317 0.32072 0.0
C1528 C 0.91714 0.62222 0.35079 0.0
H1529 H 0.88093 0.63719 0.52258 0.0
H1530 H 0.89544 0.62148 0.47163 0.0
H1531 H 0.91617 0.66773 0.39538 0.0
H1532 H 0.94442 0.62851 0.24354 0.0
H1533 H 0.9222 0.64046 0.28926 0.0
C1534 C 0.09417 0.13338 0.75953 0.0
C1535 C 0.07338 0.12636 0.75595 0.0
C1536 C 0.10529 0.14097 0.73176 0.0
C1537 C 0.10578 0.13989 0.639 0.0
H1538 H 0.13574 0.19262 0.64668 0.0
C1539 C 0.12291 0.19348 0.52677 0.0
C1540 C 0.14135 0.20557 0.52637 0.0
C1541 C 0.11828 0.18056 0.55409 0.0
C1542 C 0.12786 0.17764 0.64423 0.0
H1543 H 0.04792 0.12185 0.72047 0.0
H1544 H 0.06723 0.13527 0.67223 0.0
H1545 H 0.12029 0.17671 0.69665 0.0
H1546 H 0.17008 0.21248 0.55336 0.0
H1547 H 0.1619 0.18991 0.60133 0.0
H1548 H 0.11284 0.14112 0.58643 0.0
C1549 C 0.07504 0.13465 0.69637 0.0
C1550 C 0.11895 0.16857 0.67286 0.0
C1551 C 0.06391 0.12715 0.7241 0.0
C1552 C 0.15559 0.20361 0.55317 0.0
C1553 C 0.15092 0.1907 0.58061 0.0
C1554 C 0.11472 0.14894 0.6104 0.0
C1555 C 0.09586 0.14156 0.69987 0.0
C1556 C 0.10735 0.1499 0.67035 0.0
C1557 C 0.13196 0.17945 0.5817 0.0
C1558 C 0.12537 0.16819 0.61257 0.0
H1559 H 0.10193 0.13288 0.78374 0.0
H1560 H 0.12134 0.14612 0.73515 0.0
H1561 H 0.09729 0.12525 0.63646 0.0
H1562 H 0.11142 0.19486 0.50686 0.0
H1563 H 0.1034 0.17236 0.55435 0.0
C1564 C 0.54501 0.37361 0.76922 0.0
C1565 C 0.53376 0.39257 0.76827 0.0
C1566 C 0.55757 0.36866 0.7968 0.0
C1567 C 0.5601 0.37925 0.88681 0.0
H1568 H 0.61059 0.34544 0.88153 0.0
C1569 C 0.60168 0.34571 0.00459 0.0
C1570 C 0.6078 0.32456 0.00232 0.0
C1571 C 0.59471 0.35649 0.9761 0.0
C1572 C 0.59646 0.35483 0.88337 0.0
H1573 H 0.52817 0.42192 0.79434 0.0
H1574 H 0.55018 0.41324 0.84265 0.0
H1575 H 0.59616 0.36103 0.83049 0.0
H1576 H 0.61127 0.2981 0.96844 0.0
H1577 H 0.59891 0.31683 0.91894 0.0
H1578 H 0.56011 0.3726 0.93955 0.0
C1579 C 0.54895 0.40207 0.82225 0.0
C1580 C 0.58824 0.36379 0.85419 0.0
C1581 C 0.53639 0.40704 0.7946 0.0
C1582 C 0.60666 0.31438 0.97107 0.0
C1583 C 0.59978 0.32517 0.94262 0.0
C1584 C 0.56835 0.37032 0.91601 0.0
C1585 C 0.55916 0.38255 0.82408 0.0
C1586 C 0.56968 0.37568 0.85547 0.0
C1587 C 0.59384 0.34636 0.94477 0.0
C1588 C 0.58633 0.3576 0.91445 0.0
H1589 H 0.54311 0.36195 0.74966 0.0
H1590 H 0.565 0.35338 0.79758 0.0
H1591 H 0.54562 0.38808 0.88861 0.0
H1592 H 0.60247 0.35402 0.02829 0.0
H1593 H 0.59032 0.37284 0.97848 0.0
C1594 C 0.33316 0.77648 0.05202 0.0
C1595 C 0.34629 0.77544 0.0236 0.0
C1596 C 0.33916 0.78812 0.08017 0.0
C1597 C 0.38746 0.80413 0.12124 0.0
H1598 H 0.3522 0.83928 0.17732 0.0
C1599 C 0.42205 0.85277 0.22795 0.0
C1600 C 0.411 0.8539 0.25847 0.0
C1601 C 0.41286 0.84377 0.19972 0.0
C1602 C 0.36213 0.82928 0.16209 0.0
H1603 H 0.37536 0.78687 0.00172 0.0
H1604 H 0.38552 0.80745 0.05043 0.0
H1605 H 0.33779 0.82386 0.12585 0.0
H1606 H 0.38157 0.84656 0.28331 0.0
H1607 H 0.36556 0.83037 0.2338 0.0
H1608 H 0.41167 0.80913 0.15731 0.0
C1609 C 0.37076 0.79902 0.05111 0.0
C1610 C 0.35392 0.82057 0.13263 0.0
C1611 C 0.36479 0.78743 0.02304 0.0
C1612 C 0.39048 0.84586 0.26013 0.0
C1613 C 0.38127 0.83674 0.23177 0.0
C1614 C 0.39559 0.81269 0.15062 0.0
C1615 C 0.35841 0.79885 0.08036 0.0
C1616 C 0.36664 0.80815 0.11173 0.0
C1617 C 0.39244 0.83554 0.20131 0.0
C1618 C 0.38314 0.82559 0.17116 0.0
H1619 H 0.31867 0.76761 0.053 0.0
H1620 H 0.32932 0.78776 0.1024 0.0
H1621 H 0.39746 0.79414 0.10608 0.0
H1622 H 0.4378 0.85901 0.22567 0.0
H1623 H 0.42173 0.84347 0.17648 0.0
C1624 C 0.11278 0.31743 0.51893 0.0
C1625 C 0.11249 0.32674 0.48689 0.0
C1626 C 0.10605 0.3286 0.54707 0.0
C1627 C 0.0722 0.37227 0.57214 0.0
H1628 H 0.10077 0.3658 0.65758 0.0
C1629 C 0.03785 0.40808 0.69232 0.0
C1630 C 0.03607 0.39374 0.71906 0.0
C1631 C 0.05089 0.40371 0.66494 0.0
C1632 C 0.09264 0.36777 0.6339 0.0
H1633 H 0.10503 0.35517 0.4593 0.0
H1634 H 0.09317 0.3747 0.50865 0.0
H1635 H 0.11606 0.35059 0.60684 0.0
H1636 H 0.0475 0.36416 0.73892 0.0
H1637 H 0.07021 0.35657 0.69134 0.0
H1638 H 0.04843 0.38881 0.59925 0.0
C1639 C 0.09853 0.35869 0.51185 0.0
C1640 C 0.10136 0.35904 0.60488 0.0
C1641 C 0.10533 0.34751 0.48363 0.0
C1642 C 0.04869 0.37565 0.71893 0.0
C1643 C 0.06172 0.37129 0.69158 0.0
C1644 C 0.06347 0.38098 0.60116 0.0
C1645 C 0.09886 0.34935 0.54389 0.0
C1646 C 0.09096 0.36074 0.57384 0.0
C1647 C 0.06242 0.38492 0.66378 0.0
C1648 C 0.07334 0.3784 0.6325 0.0
H1649 H 0.11822 0.30146 0.52235 0.0
H1650 H 0.10614 0.32082 0.5713 0.0
H1651 H 0.06371 0.37368 0.54868 0.0
H1652 H 0.02857 0.42232 0.69199 0.0
H1653 H 0.05141 0.41471 0.64418 0.0
C1654 C 0.92257 0.86361 0.27221 0.0
C1655 C 0.91231 0.86413 0.24097 0.0
C1656 C 0.91209 0.85664 0.30093 0.0
C1657 C 0.86741 0.82421 0.32798 0.0
H1658 H 0.87796 0.8505 0.41424 0.0
C1659 C 0.83061 0.7914 0.44868 0.0
C1660 C 0.84516 0.78762 0.47452 0.0
C1661 C 0.83584 0.80435 0.42158 0.0
C1662 C 0.87486 0.84301 0.39032 0.0
H1663 H 0.8829 0.85789 0.21545 0.0
H1664 H 0.86453 0.84581 0.26577 0.0
H1665 H 0.89296 0.86573 0.36324 0.0
H1666 H 0.87617 0.79549 0.4931 0.0
H1667 H 0.88522 0.81816 0.44605 0.0
H1668 H 0.8497 0.80125 0.35508 0.0
C1669 C 0.88078 0.85059 0.26792 0.0
C1670 C 0.88349 0.85168 0.36114 0.0
C1671 C 0.8913 0.85753 0.2391 0.0
C1672 C 0.8645 0.79824 0.47383 0.0
C1673 C 0.86971 0.81122 0.44678 0.0
C1674 C 0.85873 0.81559 0.35713 0.0
C1675 C 0.89106 0.85008 0.29917 0.0
C1676 C 0.88024 0.84211 0.32972 0.0
C1677 C 0.85571 0.81385 0.41982 0.0
C1678 C 0.8627 0.82465 0.3887 0.0
H1679 H 0.93877 0.86856 0.27453 0.0
H1680 H 0.92061 0.85607 0.32446 0.0
H1681 H 0.86478 0.81631 0.30427 0.0
H1682 H 0.81543 0.78374 0.4488 0.0
H1683 H 0.82459 0.8064 0.40146 0.0
C1684 C 0.37728 0.6662 0.01063 0.0
C1685 C 0.37746 0.65704 0.97851 0.0
C1686 C 0.38451 0.65506 0.03845 0.0
C1687 C 0.41949 0.61252 0.06332 0.0
H1688 H 0.38949 0.61695 0.14797 0.0
C1689 C 0.45363 0.57789 0.18501 0.0
C1690 C 0.45393 0.59206 0.21209 0.0
C1691 C 0.44116 0.58184 0.15683 0.0
C1692 C 0.39804 0.61556 0.12452 0.0
H1693 H 0.38551 0.62903 0.95036 0.0
H1694 H 0.39843 0.60956 -0.00075 0.0
H1695 H 0.37417 0.63175 0.09701 0.0
H1696 H 0.44064 0.62098 0.23141 0.0
H1697 H 0.41893 0.62782 0.1825 0.0
H1698 H 0.44374 0.59706 0.09099 0.0
C1699 C 0.39263 0.62539 0.00271 0.0
C1700 C 0.38928 0.62403 0.09537 0.0
C1701 C 0.38524 0.63653 0.97477 0.0
C1702 C 0.44058 0.60959 0.21122 0.0
C1703 C 0.42812 0.61353 0.1831 0.0
C1704 C 0.42829 0.60409 0.09251 0.0
C1705 C 0.39217 0.63452 0.03486 0.0
C1706 C 0.40018 0.62311 0.06467 0.0
C1707 C 0.42871 0.60001 0.1552 0.0
C1708 C 0.41791 0.60602 0.12359 0.0
H1709 H 0.37139 0.68197 0.01444 0.0
H1710 H 0.38434 0.66266 0.0628 0.0
H1711 H 0.42831 0.6117 0.04005 0.0
H1712 H 0.46351 0.56405 0.18518 0.0
H1713 H 0.44168 0.57095 0.13596 0.0
C1714 C 0.61558 0.19008 0.97509 0.0
C1715 C 0.63428 0.20169 0.97277 0.0
C1716 C 0.60929 0.17716 0.94869 0.0
C1717 C 0.62555 0.15286 0.86811 0.0
H1718 H 0.56766 0.1639 0.84382 0.0
C1719 C 0.58984 0.13089 0.73868 0.0
C1720 C 0.56926 0.12297 0.73898 0.0
C1721 C 0.59883 0.13875 0.76817 0.0
C1722 C 0.58376 0.16038 0.85046 0.0
H1723 H 0.66198 0.20731 0.94232 0.0
H1724 H 0.65073 0.1851 0.89581 0.0
H1725 H 0.58188 0.17899 0.89489 0.0
H1726 H 0.54214 0.11665 0.77055 0.0
H1727 H 0.55783 0.13009 0.82169 0.0
H1728 H 0.62736 0.13441 0.82315 0.0
C1729 C 0.64097 0.18596 0.91808 0.0
C1730 C 0.59191 0.16899 0.87982 0.0
C1731 C 0.64731 0.19884 0.94458 0.0
C1732 C 0.55795 0.12285 0.76933 0.0
C1733 C 0.56692 0.13061 0.79868 0.0
C1734 C 0.61735 0.14417 0.83863 0.0
C1735 C 0.62149 0.17566 0.91935 0.0
C1736 C 0.61287 0.16534 0.88901 0.0
C1737 C 0.58738 0.1388 0.79842 0.0
C1738 C 0.59635 0.14786 0.82954 0.0
H1739 H 0.60509 0.19196 -0.00368 0.0
H1740 H 0.59439 0.16908 0.95063 0.0
H1741 H 0.64175 0.14974 0.87463 0.0
H1742 H 0.59897 0.13111 0.71569 0.0
H1743 H 0.61456 0.14514 0.76714 0.0
C1744 C 0.30544 0.2071 0.19325 0.0
C1745 C 0.31036 0.21994 0.16558 0.0
C1746 C 0.28839 0.21191 0.21393 0.0
C1747 C 0.23798 0.23945 0.2103 0.0
H1748 H 0.2384 0.23315 0.30722 0.0
C1749 C 0.17337 0.27182 0.29725 0.0
C1750 C 0.16861 0.26071 0.32683 0.0
C1751 C 0.18919 0.26478 0.27578 0.0
C1752 C 0.23792 0.23461 0.2801 0.0
H1753 H 0.30215 0.24865 0.13926 0.0
H1754 H 0.27259 0.25716 0.17567 0.0
H1755 H 0.27038 0.22647 0.27527 0.0
H1756 H 0.17545 0.23257 0.35562 0.0
H1757 H 0.20287 0.22014 0.31778 0.0
H1758 H 0.20556 0.24771 0.21512 0.0
C1759 C 0.28164 0.24314 0.18089 0.0
C1760 C 0.25627 0.23091 0.26186 0.0
C1761 C 0.2987 0.23836 0.16025 0.0
C1762 C 0.17886 0.24159 0.33316 0.0
C1763 C 0.19469 0.23454 0.31166 0.0
C1764 C 0.21962 0.24312 0.22852 0.0
C1765 C 0.27596 0.22964 0.20732 0.0
C1766 C 0.25653 0.23349 0.22682 0.0
C1767 C 0.20052 0.24647 0.28342 0.0
C1768 C 0.21944 0.2409 0.26365 0.0
H1769 H 0.31412 0.19279 0.19805 0.0
H1770 H 0.28436 0.2012 0.23409 0.0
H1771 H 0.2376 0.24113 0.18321 0.0
H1772 H 0.16571 0.28658 0.29159 0.0
H1773 H 0.19336 0.27436 0.25428 0.0
C1774 C 0.49167 0.54877 0.40262 0.0
C1775 C 0.5093 0.56092 0.41102 0.0
C1776 C 0.48612 0.53143 0.42222 0.0
C1777 C 0.51086 0.49296 0.47764 0.0
H1778 H 0.45389 0.47741 0.50108 0.0
C1779 C 0.49051 0.4293 0.57498 0.0
C1780 C 0.47207 0.41755 0.57049 0.0
C1781 C 0.49583 0.44513 0.55228 0.0
C1782 C 0.46986 0.48133 0.49417 0.0
H1783 H 0.53394 0.56544 0.44797 0.0
H1784 H 0.52407 0.53535 0.48227 0.0
H1785 H 0.4603 0.50992 0.47032 0.0
H1786 H 0.44576 0.4119 0.5371 0.0
H1787 H 0.45532 0.4393 0.49712 0.0
H1788 H 0.52048 0.46444 0.50149 0.0
C1789 C 0.51485 0.53896 0.46015 0.0
C1790 C 0.47351 0.50002 0.47677 0.0
C1791 C 0.52037 0.55629 0.44065 0.0
C1792 C 0.45997 0.42082 0.54144 0.0
C1793 C 0.46533 0.43663 0.51868 0.0
C1794 C 0.50722 0.47425 0.49492 0.0
C1795 C 0.49812 0.52596 0.45049 0.0
C1796 C 0.49407 0.50612 0.46869 0.0
C1797 C 0.48288 0.44945 0.52455 0.0
C1798 C 0.4867 0.46833 0.50366 0.0
H1799 H 0.48281 0.55194 0.37996 0.0
H1800 H 0.47313 0.52169 0.41422 0.0
H1801 H 0.52685 0.49706 0.47106 0.0
H1802 H 0.50019 0.42715 0.59708 0.0
H1803 H 0.50942 0.45478 0.55761 0.0
C1804 C 0.18343 0.74374 0.65904 0.0
C1805 C 0.17129 0.76156 0.66647 0.0
C1806 C 0.20043 0.73834 0.67934 0.0
C1807 C 0.22512 0.74755 0.76183 0.0
H1808 H 0.2767 0.73564 0.71351 0.0
C1809 C 0.30328 0.74 0.83147 0.0
C1810 C 0.31482 0.72185 0.82369 0.0
C1811 C 0.28688 0.74647 0.8107 0.0
C1812 C 0.2624 0.73884 0.72733 0.0
H1813 H 0.16652 0.7868 0.7023 0.0
H1814 H 0.19617 0.77733 0.73767 0.0
H1815 H 0.24434 0.74168 0.6823 0.0
H1816 H 0.31935 0.69723 0.78669 0.0
H1817 H 0.2907 0.70847 0.75062 0.0
H1818 H 0.24313 0.74459 0.80686 0.0
C1819 C 0.19258 0.76757 0.71615 0.0
C1820 C 0.24386 0.74217 0.7095 0.0
C1821 C 0.17561 0.77301 0.69583 0.0
C1822 C 0.31069 0.71123 0.79347 0.0
C1823 C 0.2943 0.71771 0.77272 0.0
C1824 C 0.24365 0.7442 0.77965 0.0
C1825 C 0.20554 0.75058 0.7075 0.0
C1826 C 0.22502 0.74648 0.72659 0.0
C1827 C 0.28177 0.73494 0.78176 0.0
C1828 C 0.26247 0.73977 0.76259 0.0
H1829 H 0.18044 0.73453 0.63668 0.0
H1830 H 0.20993 0.7249 0.67249 0.0
H1831 H 0.2108 0.75068 0.77565 0.0
H1832 H 0.30619 0.74862 0.85445 0.0
H1833 H 0.27774 0.76008 0.81789 0.0
C1834 C -0.00562 0.55711 0.07706 0.0
C1835 C 0.01398 0.56682 0.07247 0.0
C1836 C 0.98778 0.54132 0.05522 0.0
C1837 C -0.00171 0.51569 0.97353 0.0
H1838 H 0.97885 0.46575 0.01999 0.0
C1839 C 0.99022 0.43673 0.90531 0.0
C1840 C 0.97143 0.42572 0.91098 0.0
C1841 C -0.00431 0.45368 0.92569 0.0
C1842 C 0.98406 0.47962 0.00662 0.0
H1843 H 0.04123 0.56883 0.03983 0.0
H1844 H 0.02971 0.54125 0.00179 0.0
H1845 H 0.98602 0.49756 0.05186 0.0
H1846 H 0.94423 0.42313 0.94364 0.0
H1847 H 0.95374 0.45272 0.97907 0.0
H1848 H -0.00361 0.4977 0.92828 0.0
C1849 C 0.01946 0.54581 0.02227 0.0
C1850 C 0.98808 0.49787 0.02483 0.0
C1851 C 0.02608 0.56159 0.04413 0.0
C1852 C 0.95882 0.43127 0.93859 0.0
C1853 C 0.96429 0.44822 0.95895 0.0
C1854 C -0.00576 0.49743 0.95529 0.0
C1855 C 0.00062 0.53499 0.02834 0.0
C1856 C -0.00473 0.51609 0.00849 0.0
C1857 C 0.98249 0.45994 0.95217 0.0
C1858 C 0.98716 0.47918 0.97167 0.0
H1859 H 0.98459 0.5609 0.0985 0.0
H1860 H 0.97296 0.53355 0.06006 0.0
H1861 H 0.00366 0.52954 0.96025 0.0
H1862 H 0.00034 0.43278 0.88433 0.0
H1863 H 0.01004 0.46215 0.9203 0.0
C1864 C 0.67624 0.77429 0.80135 0.0
C1865 C 0.67125 0.76183 0.82942 0.0
C1866 C 0.69244 0.76842 0.7797 0.0
C1867 C 0.72726 0.72481 0.75488 0.0
H1868 H 0.76679 0.76964 0.73592 0.0
C1869 C 0.8067 0.70779 0.69303 0.0
C1870 C 0.81188 0.72074 0.66563 0.0
C1871 C 0.79045 0.71335 0.7148 0.0
C1872 C 0.75583 0.757 0.7408 0.0
H1873 H 0.67821 0.73265 0.85533 0.0
H1874 H 0.7065 0.72244 0.8175 0.0
H1875 H 0.73479 0.77724 0.76726 0.0
H1876 H 0.80508 0.75036 0.64094 0.0
H1877 H 0.77669 0.75999 0.67884 0.0
H1878 H 0.74826 0.70457 0.72831 0.0
C1879 C 0.69791 0.73675 0.81227 0.0
C1880 C 0.73746 0.76136 0.75858 0.0
C1881 C 0.68172 0.74262 0.83396 0.0
C1882 C 0.80146 0.74003 0.66179 0.0
C1883 C 0.78519 0.74557 0.68356 0.0
C1884 C 0.74561 0.72045 0.73703 0.0
C1885 C 0.70391 0.74997 0.78565 0.0
C1886 C 0.72298 0.74532 0.76574 0.0
C1887 C 0.77909 0.73196 0.70962 0.0
C1888 C 0.76009 0.73651 0.72981 0.0
H1889 H 0.66835 0.7891 0.79697 0.0
H1890 H 0.69644 0.77867 0.75891 0.0
H1891 H 0.71629 0.71218 0.75982 0.0
H1892 H 0.81454 0.69289 0.69682 0.0
H1893 H 0.78638 0.70278 0.73514 0.0
C1894 C 0.68098 0.24634 0.15663 0.0
C1895 C 0.66969 0.26486 0.16301 0.0
C1896 C 0.69744 0.24037 0.17767 0.0
C1897 C 0.73578 0.2646 0.23392 0.0
H1898 H 0.74941 0.20718 0.25768 0.0
C1899 C 0.80027 0.24179 0.3288 0.0
C1900 C 0.81175 0.22336 0.3226 0.0
C1901 C 0.78389 0.24762 0.30752 0.0
C1902 C 0.74596 0.22327 0.25079 0.0
H1903 H 0.66561 0.29068 0.19798 0.0
H1904 H 0.69412 0.28004 0.23496 0.0
H1905 H 0.71711 0.2146 0.22707 0.0
H1906 H 0.81619 0.19751 0.28779 0.0
H1907 H 0.78777 0.2079 0.2504 0.0
H1908 H 0.76461 0.27327 0.25766 0.0
C1909 C 0.69059 0.27045 0.21322 0.0
C1910 C 0.72742 0.2275 0.23344 0.0
C1911 C 0.67415 0.27643 0.19219 0.0
C1912 C 0.80752 0.21171 0.29342 0.0
C1913 C 0.79113 0.21754 0.27215 0.0
C1914 C 0.75431 0.26036 0.25127 0.0
C1915 C 0.70286 0.25279 0.2055 0.0
C1916 C 0.72212 0.24822 0.22491 0.0
C1917 C 0.77872 0.23515 0.27962 0.0
C1918 C 0.75958 0.23966 0.25988 0.0
H1919 H 0.6779 0.23707 0.13437 0.0
H1920 H 0.70665 0.22669 0.17105 0.0
H1921 H 0.73233 0.28069 0.22705 0.0
H1922 H 0.80317 0.25113 0.35105 0.0
H1923 H 0.77457 0.26125 0.31396 0.0
C1924 C -0.00655 0.05198 0.90701 0.0
C1925 C 0.01158 0.06371 0.91413 0.0
C1926 C 0.98742 0.03549 0.92805 0.0
C1927 C -0.00373 0.01154 0.01165 0.0
H1928 H 0.98337 0.95958 0.96527 0.0
C1929 C 0.99162 0.93383 0.08324 0.0
C1930 C 0.97335 0.92204 0.07741 0.0
C1931 C -0.00286 0.95016 0.06158 0.0
C1932 C 0.98682 0.974 0.97854 0.0
H1933 H 0.03668 0.06839 0.95019 0.0
H1934 H 0.0262 0.03965 0.98673 0.0
H1935 H 0.98911 0.99163 0.93291 0.0
H1936 H 0.94754 0.91696 0.04278 0.0
H1937 H 0.95722 0.94545 0.00502 0.0
H1938 H -0.00592 -0.0061 0.05725 0.0
C1939 C 0.01663 0.04315 0.96495 0.0
C1940 C 0.98997 0.99238 0.96007 0.0
C1941 C 0.02267 0.0596 0.94392 0.0
C1942 C 0.96167 0.92581 0.04806 0.0
C1943 C 0.96722 0.94213 0.02637 0.0
C1944 C -0.00684 -0.00683 0.03009 0.0
C1945 C -0.00065 0.03049 0.95664 0.0
C1946 C -0.00522 0.01132 0.97644 0.0
C1947 C 0.98455 0.95495 0.03363 0.0
C1948 C 0.9885 0.9742 0.01373 0.0
H1949 H 0.9845 0.05482 0.88432 0.0
H1950 H 0.97378 0.02625 0.92141 0.0
H1951 H -0.00028 0.02594 0.02497 0.0
H1952 H 0.00104 0.93123 0.1055 0.0
H1953 H 0.01085 0.95953 0.06735 0.0
C1954 C 0.49383 0.0529 0.5775 0.0
C1955 C 0.51334 0.06284 0.57337 0.0
C1956 C 0.48764 0.03705 0.55552 0.0
C1957 C 0.51141 -0.00289 0.50191 0.0
H1958 H 0.45415 0.98728 0.47314 0.0
C1959 C 0.48724 0.93155 0.40963 0.0
C1960 C 0.46795 0.92147 0.41545 0.0
C1961 C 0.49346 0.94834 0.42975 0.0
C1962 C 0.47016 0.9897 0.48138 0.0
H1963 H 0.54088 0.06522 0.54139 0.0
H1964 H 0.52988 0.0377 0.50275 0.0
H1965 H 0.46276 0.01949 0.50319 0.0
H1966 H 0.4408 0.92006 0.44842 0.0
H1967 H 0.45186 0.9492 0.48381 0.0
H1968 H 0.5188 0.96729 0.48024 0.0
C1969 C 0.51963 0.04185 0.52344 0.0
C1970 C 0.47509 0.00818 0.49839 0.0
C1971 C 0.52583 0.05772 0.54542 0.0
C1972 C 0.45568 0.9276 0.44313 0.0
C1973 C 0.4619 0.9444 0.46321 0.0
C1974 C 0.50648 0.97864 0.48488 0.0
C1975 C 0.50082 0.03089 0.52897 0.0
C1976 C 0.49575 0.01202 0.50895 0.0
C1977 C 0.48052 0.95533 0.45606 0.0
C1978 C 0.48579 0.97471 0.47464 0.0
H1979 H 0.48381 0.05655 0.59873 0.0
H1980 H 0.47308 0.02883 0.56048 0.0
H1981 H 0.5274 -0.00054 0.51032 0.0
H1982 H 0.49706 0.92717 0.38853 0.0
H1983 H 0.50788 0.9565 0.42361 0.0
loop_
_geom_bond_atom_site_label_1
_geom_bond_atom_site_label_2
_geom_bond_distance
_geom_bond_site_symmetry_2
_ccdc_geom_bond_type
C0 O16 1.251 . S
C0 O18 1.254 . S
N1 C2 1.333 . S
N1 C6 1.307 . S
N1 Zn7 2.020 . S
C2 N1 1.333 . S
C2 C3 1.379 . S
C2 H20 0.952 . S
C3 C2 1.379 . S
C3 C4 1.390 . S
C3 H30 0.949 . S
C4 C3 1.390 . S
C4 C5 1.357 . S
C5 C4 1.357 . S
C5 C6 1.370 . S
C5 H31 0.950 . S
C6 N1 1.307 . S
C6 C5 1.370 . S
C6 H24 0.948 . S
Zn7 N1 2.020 . S
Zn7 O16 2.039 . S
Zn7 O22 2.034 . S
Zn7 O26 2.025 . S
Zn7 O28 2.024 . S
C8 O27 1.246 . S
C8 O28 1.249 . S
N9 C10 1.307 . S
N9 C11 1.333 1_554 S
N9 Zn15 2.020 . S
C10 N9 1.307 . S
C10 C14 1.370 . S
C10 H21 0.948 . S
C11 N9 1.333 1_556 S
C11 C12 1.379 . S
C11 H19 0.952 . S
C12 C11 1.379 . S
C12 C13 1.390 . S
C12 H32 0.949 . S
C13 C12 1.390 . S
C13 C14 1.357 1_556 S
C14 C10 1.370 . S
C14 C13 1.357 1_554 S
C14 H33 0.950 . S
Zn15 N9 2.020 . S
Zn15 O18 2.025 . S
Zn15 O23 2.024 . S
Zn15 O25 2.039 . S
Zn15 O27 2.034 . S
O16 C0 1.251 . S
O16 Zn7 2.039 . S
C17 O22 1.246 . S
C17 O23 1.249 . S
O18 C0 1.254 . S
O18 Zn15 2.025 . S
H19 C11 0.952 . S
H20 C2 0.952 . S
H21 C10 0.948 . S
O22 Zn7 2.034 . S
O22 C17 1.246 . S
O23 Zn15 2.024 . S
O23 C17 1.249 . S
H24 C6 0.948 . S
O25 Zn15 2.039 . S
O25 C29 1.251 . S
O26 Zn7 2.025 . S
O26 C29 1.254 . S
O27 C8 1.246 . S
O27 Zn15 2.034 . S
O28 Zn7 2.024 . S
O28 C8 1.249 . S
C29 O25 1.251 . S
C29 O26 1.254 . S
H30 C3 0.949 . S
H31 C5 0.950 . S
H32 C12 0.949 . S
H33 C14 0.950 . S
C34 O50 1.251 . S
C34 O52 1.254 . S
N35 C36 1.333 . S
N35 C40 1.307 . S
N35 Zn41 2.020 . S
C36 N35 1.333 . S
C36 C37 1.379 . S
C36 H54 0.952 . S
C37 C36 1.379 . S
C37 C38 1.390 . S
C37 H64 0.949 . S
C38 C37 1.390 . S
C38 C39 1.357 . S
C39 C38 1.357 . S
C39 C40 1.370 . S
C39 H65 0.950 . S
C40 N35 1.307 . S
C40 C39 1.370 . S
C40 H58 0.948 . S
Zn41 N35 2.020 . S
Zn41 O50 2.039 . S
Zn41 O56 2.034 . S
Zn41 O60 2.025 . S
Zn41 O62 2.024 . S
C42 O61 1.246 . S
C42 O62 1.249 . S
N43 C44 1.307 . S
N43 C45 1.333 . S
N43 Zn49 2.020 . S
C44 N43 1.307 . S
C44 C48 1.370 . S
C44 H55 0.948 . S
C45 N43 1.333 . S
C45 C46 1.379 . S
C45 H53 0.952 . S
C46 C45 1.379 . S
C46 C47 1.390 . S
C46 H66 0.949 . S
C47 C46 1.390 . S
C47 C48 1.357 . S
C48 C44 1.370 . S
C48 C47 1.357 . S
C48 H67 0.950 . S
Zn49 N43 2.020 . S
Zn49 O52 2.025 . S
Zn49 O57 2.024 . S
Zn49 O59 2.039 . S
Zn49 O61 2.034 . S
O50 C34 1.251 . S
O50 Zn41 2.039 . S
C51 O56 1.246 . S
C51 O57 1.249 . S
O52 C34 1.254 . S
O52 Zn49 2.025 . S
H53 C45 0.952 . S
H54 C36 0.952 . S
H55 C44 0.948 . S
O56 Zn41 2.034 . S
O56 C51 1.246 . S
O57 Zn49 2.024 . S
O57 C51 1.249 . S
H58 C40 0.948 . S
O59 Zn49 2.039 . S
O59 C63 1.251 . S
O60 Zn41 2.025 . S
O60 C63 1.254 . S
O61 C42 1.246 . S
O61 Zn49 2.034 . S
O62 Zn41 2.024 . S
O62 C42 1.249 . S
C63 O59 1.251 . S
C63 O60 1.254 . S
H64 C37 0.949 . S
H65 C39 0.950 . S
H66 C46 0.949 . S
H67 C48 0.950 . S
C68 O84 1.251 . S
C68 O86 1.254 . S
N69 C70 1.333 . S
N69 C74 1.307 . S
N69 Zn75 2.020 . S
C70 N69 1.333 . S
C70 C71 1.379 . S
C70 H88 0.952 . S
C71 C70 1.379 . S
C71 C72 1.390 . S
C71 H98 0.949 . S
C72 C71 1.390 . S
C72 C73 1.357 . S
C73 C72 1.357 . S
C73 C74 1.370 . S
C73 H99 0.950 . S
C74 N69 1.307 . S
C74 C73 1.370 . S
C74 H92 0.948 . S
Zn75 N69 2.020 . S
Zn75 O84 2.039 . S
Zn75 O90 2.034 . S
Zn75 O94 2.025 . S
Zn75 O96 2.024 . S
C76 O95 1.246 . S
C76 O96 1.249 . S
N77 C78 1.307 . S
N77 C79 1.333 . S
N77 Zn83 2.020 . S
C78 N77 1.307 . S
C78 C82 1.370 . S
C78 H89 0.948 . S
C79 N77 1.333 . S
C79 C80 1.379 . S
C79 H87 0.952 . S
C80 C79 1.379 . S
C80 C81 1.390 . S
C80 H100 0.949 . S
C81 C80 1.390 . S
C81 C82 1.357 . S
C82 C78 1.370 . S
C82 C81 1.357 . S
C82 H101 0.950 . S
Zn83 N77 2.020 . S
Zn83 O86 2.025 . S
Zn83 O91 2.024 . S
Zn83 O93 2.039 . S
Zn83 O95 2.034 . S
O84 C68 1.251 . S
O84 Zn75 2.039 . S
C85 O90 1.246 . S
C85 O91 1.249 . S
O86 C68 1.254 . S
O86 Zn83 2.025 . S
H87 C79 0.952 . S
H88 C70 0.952 . S
H89 C78 0.948 . S
O90 Zn75 2.034 . S
O90 C85 1.246 . S
O91 Zn83 2.024 . S
O91 C85 1.249 . S
H92 C74 0.948 . S
O93 Zn83 2.039 . S
O93 C97 1.251 . S
O94 Zn75 2.025 . S
O94 C97 1.254 . S
O95 C76 1.246 . S
O95 Zn83 2.034 . S
O96 Zn75 2.024 . S
O96 C76 1.249 . S
C97 O93 1.251 . S
C97 O94 1.254 . S
H98 C71 0.949 . S
H99 C73 0.950 . S
H100 C80 0.949 . S
H101 C82 0.950 . S
C102 O118 1.251 . S
C102 O120 1.254 . S
N103 C104 1.333 . S
N103 C108 1.307 . S
N103 Zn109 2.020 . S
C104 N103 1.333 . S
C104 C105 1.379 . S
C104 H122 0.952 . S
C105 C104 1.379 . S
C105 C106 1.390 . S
C105 H132 0.949 . S
C106 C105 1.390 . S
C106 C107 1.357 . S
C107 C106 1.357 . S
C107 C108 1.370 . S
C107 H133 0.950 . S
C108 N103 1.307 . S
C108 C107 1.370 . S
C108 H126 0.948 . S
Zn109 N103 2.020 . S
Zn109 O118 2.039 . S
Zn109 O124 2.034 . S
Zn109 O128 2.025 . S
Zn109 O130 2.024 . S
C110 O129 1.246 . S
C110 O130 1.249 . S
N111 C112 1.307 1_655 S
N111 C113 1.333 . S
N111 Zn117 2.020 . S
C112 N111 1.307 1_455 S
C112 C116 1.370 . S
C112 H123 0.948 . S
C113 N111 1.333 . S
C113 C114 1.379 . S
C113 H121 0.952 . S
C114 C113 1.379 . S
C114 C115 1.390 1_655 S
C114 H134 0.949 . S
C115 C114 1.390 1_455 S
C115 C116 1.357 . S
C116 C112 1.370 . S
C116 C115 1.357 . S
C116 H135 0.950 . S
Zn117 N111 2.020 . S
Zn117 O120 2.025 . S
Zn117 O125 2.024 . S
Zn117 O127 2.039 . S
Zn117 O129 2.034 . S
O118 C102 1.251 . S
O118 Zn109 2.039 . S
C119 O124 1.246 . S
C119 O125 1.249 . S
O120 C102 1.254 . S
O120 Zn117 2.025 . S
H121 C113 0.952 . S
H122 C104 0.952 . S
H123 C112 0.948 . S
O124 Zn109 2.034 . S
O124 C119 1.246 . S
O125 Zn117 2.024 . S
O125 C119 1.249 . S
H126 C108 0.948 . S
O127 Zn117 2.039 . S
O127 C131 1.251 . S
O128 Zn109 2.025 . S
O128 C131 1.254 . S
O129 C110 1.246 . S
O129 Zn117 2.034 . S
O130 Zn109 2.024 . S
O130 C110 1.249 . S
C131 O127 1.251 . S
C131 O128 1.254 . S
H132 C105 0.949 . S
H133 C107 0.950 . S
H134 C114 0.949 . S
H135 C116 0.950 . S
C136 O152 1.251 . S
C136 O154 1.254 . S
N137 C138 1.333 1_556 S
N137 C142 1.307 . S
N137 Zn143 2.020 . S
C138 N137 1.333 1_554 S
C138 C139 1.379 . S
C138 H156 0.952 . S
C139 C138 1.379 . S
C139 C140 1.390 . S
C139 H166 0.949 . S
C140 C139 1.390 . S
C140 C141 1.357 1_554 S
C141 C140 1.357 1_556 S
C141 C142 1.370 . S
C141 H167 0.950 . S
C142 N137 1.307 . S
C142 C141 1.370 . S
C142 H160 0.948 . S
Zn143 N137 2.020 . S
Zn143 O152 2.039 . S
Zn143 O158 2.034 . S
Zn143 O162 2.025 . S
Zn143 O164 2.024 . S
C144 O163 1.246 . S
C144 O164 1.249 . S
N145 C146 1.307 . S
N145 C147 1.333 . S
N145 Zn151 2.020 . S
C146 N145 1.307 . S
C146 C150 1.370 . S
C146 H157 0.948 . S
C147 N145 1.333 . S
C147 C148 1.379 . S
C147 H155 0.952 . S
C148 C147 1.379 . S
C148 C149 1.390 . S
C148 H168 0.949 . S
C149 C148 1.390 . S
C149 C150 1.357 . S
C150 C146 1.370 . S
C150 C149 1.357 . S
C150 H169 0.950 . S
Zn151 N145 2.020 . S
Zn151 O154 2.025 . S
Zn151 O159 2.024 . S
Zn151 O161 2.039 . S
Zn151 O163 2.034 . S
O152 C136 1.251 . S
O152 Zn143 2.039 . S
C153 O158 1.246 . S
C153 O159 1.249 . S
O154 C136 1.254 . S
O154 Zn151 2.025 . S
H155 C147 0.952 . S
H156 C138 0.952 . S
H157 C146 0.948 . S
O158 Zn143 2.034 . S
O158 C153 1.246 . S
O159 Zn151 2.024 . S
O159 C153 1.249 . S
H160 C142 0.948 . S
O161 Zn151 2.039 . S
O161 C165 1.251 . S
O162 Zn143 2.025 . S
O162 C165 1.254 . S
O163 C144 1.246 . S
O163 Zn151 2.034 . S
O164 Zn143 2.024 . S
O164 C144 1.249 . S
C165 O161 1.251 . S
C165 O162 1.254 . S
H166 C139 0.949 . S
H167 C141 0.950 . S
H168 C148 0.949 . S
H169 C150 0.950 . S
C170 O186 1.251 . S
C170 O188 1.254 . S
N171 C172 1.333 . S
N171 C176 1.307 . S
N171 Zn177 2.020 . S
C172 N171 1.333 . S
C172 C173 1.379 . S
C172 H190 0.952 . S
C173 C172 1.379 . S
C173 C174 1.390 . S
C173 H200 0.949 . S
C174 C173 1.390 . S
C174 C175 1.357 . S
C175 C174 1.357 . S
C175 C176 1.370 . S
C175 H201 0.950 . S
C176 N171 1.307 . S
C176 C175 1.370 . S
C176 H194 0.948 . S
Zn177 N171 2.020 . S
Zn177 O186 2.039 . S
Zn177 O192 2.034 . S
Zn177 O196 2.025 . S
Zn177 O198 2.024 . S
C178 O197 1.246 . S
C178 O198 1.249 . S
N179 C180 1.307 . S
N179 C181 1.333 . S
N179 Zn185 2.020 . S
C180 N179 1.307 . S
C180 C184 1.370 . S
C180 H191 0.948 . S
C181 N179 1.333 . S
C181 C182 1.379 . S
C181 H189 0.952 . S
C182 C181 1.379 . S
C182 C183 1.390 . S
C182 H202 0.949 . S
C183 C182 1.390 . S
C183 C184 1.357 . S
C184 C180 1.370 . S
C184 C183 1.357 . S
C184 H203 0.950 . S
Zn185 N179 2.020 . S
Zn185 O188 2.025 . S
Zn185 O193 2.024 . S
Zn185 O195 2.039 . S
Zn185 O197 2.034 . S
O186 C170 1.251 . S
O186 Zn177 2.039 . S
C187 O192 1.246 . S
C187 O193 1.249 . S
O188 C170 1.254 . S
O188 Zn185 2.025 . S
H189 C181 0.952 . S
H190 C172 0.952 . S
H191 C180 0.948 . S
O192 Zn177 2.034 . S
O192 C187 1.246 . S
O193 Zn185 2.024 . S
O193 C187 1.249 . S
H194 C176 0.948 . S
O195 Zn185 2.039 . S
O195 C199 1.251 . S
O196 Zn177 2.025 . S
O196 C199 1.254 . S
O197 C178 1.246 . S
O197 Zn185 2.034 . S
O198 Zn177 2.024 . S
O198 C178 1.249 . S
C199 O195 1.251 . S
C199 O196 1.254 . S
H200 C173 0.949 . S
H201 C175 0.950 . S
H202 C182 0.949 . S
H203 C184 0.950 . S
C204 O220 1.251 . S
C204 O222 1.254 . S
N205 C206 1.333 . S
N205 C210 1.307 . S
N205 Zn211 2.020 . S
C206 N205 1.333 . S
C206 C207 1.379 . S
C206 H224 0.952 . S
C207 C206 1.379 . S
C207 C208 1.390 . S
C207 H234 0.949 . S
C208 C207 1.390 . S
C208 C209 1.357 . S
C209 C208 1.357 . S
C209 C210 1.370 . S
C209 H235 0.950 . S
C210 N205 1.307 . S
C210 C209 1.370 . S
C210 H228 0.948 . S
Zn211 N205 2.020 . S
Zn211 O220 2.039 . S
Zn211 O226 2.034 . S
Zn211 O230 2.025 . S
Zn211 O232 2.024 . S
C212 O231 1.246 . S
C212 O232 1.249 . S
N213 C214 1.307 . S
N213 C215 1.333 . S
N213 Zn219 2.020 . S
C214 N213 1.307 . S
C214 C218 1.370 . S
C214 H225 0.948 . S
C215 N213 1.333 . S
C215 C216 1.379 . S
C215 H223 0.952 . S
C216 C215 1.379 . S
C216 C217 1.390 . S
C216 H236 0.949 . S
C217 C216 1.390 . S
C217 C218 1.357 . S
C218 C214 1.370 . S
C218 C217 1.357 . S
C218 H237 0.950 . S
Zn219 N213 2.020 . S
Zn219 O222 2.025 . S
Zn219 O227 2.024 . S
Zn219 O229 2.039 . S
Zn219 O231 2.034 . S
O220 C204 1.251 . S
O220 Zn211 2.039 . S
C221 O226 1.246 . S
C221 O227 1.249 . S
O222 C204 1.254 . S
O222 Zn219 2.025 . S
H223 C215 0.952 . S
H224 C206 0.952 . S
H225 C214 0.948 . S
O226 Zn211 2.034 . S
O226 C221 1.246 . S
O227 Zn219 2.024 . S
O227 C221 1.249 . S
H228 C210 0.948 . S
O229 Zn219 2.039 . S
O229 C233 1.251 . S
O230 Zn211 2.025 . S
O230 C233 1.254 . S
O231 C212 1.246 . S
O231 Zn219 2.034 . S
O232 Zn211 2.024 . S
O232 C212 1.249 . S
C233 O229 1.251 . S
C233 O230 1.254 . S
H234 C207 0.949 . S
H235 C209 0.950 . S
H236 C216 0.949 . S
H237 C218 0.950 . S
C238 O254 1.251 . S
C238 O256 1.254 . S
N239 C240 1.333 . S
N239 C244 1.307 1_455 S
N239 Zn245 2.020 . S
C240 N239 1.333 . S
C240 C241 1.379 . S
C240 H258 0.952 . S
C241 C240 1.379 . S
C241 C242 1.390 1_455 S
C241 H268 0.949 . S
C242 C241 1.390 1_655 S
C242 C243 1.357 . S
C243 C242 1.357 . S
C243 C244 1.370 . S
C243 H269 0.950 . S
C244 N239 1.307 1_655 S
C244 C243 1.370 . S
C244 H262 0.948 . S
Zn245 N239 2.020 . S
Zn245 O254 2.039 . S
Zn245 O260 2.034 . S
Zn245 O264 2.025 . S
Zn245 O266 2.024 . S
C246 O265 1.246 . S
C246 O266 1.249 . S
N247 C248 1.307 . S
N247 C249 1.333 . S
N247 Zn253 2.020 . S
C248 N247 1.307 . S
C248 C252 1.370 . S
C248 H259 0.948 . S
C249 N247 1.333 . S
C249 C250 1.379 . S
C249 H257 0.952 . S
C250 C249 1.379 . S
C250 C251 1.390 . S
C250 H270 0.949 . S
C251 C250 1.390 . S
C251 C252 1.357 . S
C252 C248 1.370 . S
C252 C251 1.357 . S
C252 H271 0.950 . S
Zn253 N247 2.020 . S
Zn253 O256 2.025 . S
Zn253 O261 2.024 . S
Zn253 O263 2.039 . S
Zn253 O265 2.034 . S
O254 C238 1.251 . S
O254 Zn245 2.039 . S
C255 O260 1.246 . S
C255 O261 1.249 . S
O256 C238 1.254 . S
O256 Zn253 2.025 . S
H257 C249 0.952 . S
H258 C240 0.952 . S
H259 C248 0.948 . S
O260 Zn245 2.034 . S
O260 C255 1.246 . S
O261 Zn253 2.024 . S
O261 C255 1.249 . S
H262 C244 0.948 . S
O263 Zn253 2.039 . S
O263 C267 1.251 . S
O264 Zn245 2.025 . S
O264 C267 1.254 . S
O265 C246 1.246 . S
O265 Zn253 2.034 . S
O266 Zn245 2.024 . S
O266 C246 1.249 . S
C267 O263 1.251 . S
C267 O264 1.254 . S
H268 C241 0.949 . S
H269 C243 0.950 . S
H270 C250 0.949 . S
H271 C252 0.950 . S
C272 O288 1.251 . S
C272 O290 1.254 . S
N273 C274 1.333 . S
N273 C278 1.307 . S
N273 Zn279 2.020 . S
C274 N273 1.333 . S
C274 C275 1.379 . S
C274 H292 0.952 . S
C275 C274 1.379 . S
C275 C276 1.390 . S
C275 H302 0.949 . S
C276 C275 1.390 . S
C276 C277 1.357 . S
C277 C276 1.357 . S
C277 C278 1.370 . S
C277 H303 0.950 . S
C278 N273 1.307 . S
C278 C277 1.370 . S
C278 H296 0.948 . S
Zn279 N273 2.020 . S
Zn279 O288 2.039 . S
Zn279 O294 2.034 . S
Zn279 O298 2.025 . S
Zn279 O300 2.024 . S
C280 O299 1.246 . S
C280 O300 1.249 . S
N281 C282 1.307 . S
N281 C283 1.333 . S
N281 Zn287 2.020 . S
C282 N281 1.307 . S
C282 C286 1.370 . S
C282 H293 0.948 . S
C283 N281 1.333 . S
C283 C284 1.379 . S
C283 H291 0.952 . S
C284 C283 1.379 . S
C284 C285 1.390 . S
C284 H304 0.949 . S
C285 C284 1.390 . S
C285 C286 1.357 . S
C286 C282 1.370 . S
C286 C285 1.357 . S
C286 H305 0.950 . S
Zn287 N281 2.020 . S
Zn287 O290 2.025 . S
Zn287 O295 2.024 . S
Zn287 O297 2.039 . S
Zn287 O299 2.034 . S
O288 C272 1.251 . S
O288 Zn279 2.039 . S
C289 O294 1.246 . S
C289 O295 1.249 . S
O290 C272 1.254 . S
O290 Zn287 2.025 . S
H291 C283 0.952 . S
H292 C274 0.952 . S
H293 C282 0.948 . S
O294 Zn279 2.034 . S
O294 C289 1.246 . S
O295 Zn287 2.024 . S
O295 C289 1.249 . S
H296 C278 0.948 . S
O297 Zn287 2.039 . S
O297 C301 1.251 . S
O298 Zn279 2.025 . S
O298 C301 1.254 . S
O299 C280 1.246 . S
O299 Zn287 2.034 . S
O300 Zn279 2.024 . S
O300 C280 1.249 . S
C301 O297 1.251 . S
C301 O298 1.254 . S
H302 C275 0.949 . S
H303 C277 0.950 . S
H304 C284 0.949 . S
H305 C286 0.950 . S
C306 O322 1.251 . S
C306 O324 1.254 . S
N307 C308 1.333 . S
N307 C312 1.307 . S
N307 Zn313 2.020 . S
C308 N307 1.333 . S
C308 C309 1.379 . S
C308 H326 0.952 . S
C309 C308 1.379 . S
C309 C310 1.390 . S
C309 H336 0.949 . S
C310 C309 1.390 . S
C310 C311 1.357 . S
C311 C310 1.357 . S
C311 C312 1.370 . S
C311 H337 0.950 . S
C312 N307 1.307 . S
C312 C311 1.370 . S
C312 H330 0.948 . S
Zn313 N307 2.020 . S
Zn313 O322 2.039 . S
Zn313 O328 2.034 . S
Zn313 O332 2.025 . S
Zn313 O334 2.024 . S
C314 O333 1.246 . S
C314 O334 1.249 . S
N315 C316 1.307 1_455 S
N315 C317 1.333 . S
N315 Zn321 2.020 . S
C316 N315 1.307 1_655 S
C316 C320 1.370 . S
C316 H327 0.948 . S
C317 N315 1.333 . S
C317 C318 1.379 . S
C317 H325 0.952 . S
C318 C317 1.379 . S
C318 C319 1.390 1_455 S
C318 H338 0.949 . S
C319 C318 1.390 1_655 S
C319 C320 1.357 . S
C320 C316 1.370 . S
C320 C319 1.357 . S
C320 H339 0.950 . S
Zn321 N315 2.020 . S
Zn321 O324 2.025 . S
Zn321 O329 2.024 . S
Zn321 O331 2.039 . S
Zn321 O333 2.034 . S
O322 C306 1.251 . S
O322 Zn313 2.039 . S
C323 O328 1.246 . S
C323 O329 1.249 . S
O324 C306 1.254 . S
O324 Zn321 2.025 . S
H325 C317 0.952 . S
H326 C308 0.952 . S
H327 C316 0.948 . S
O328 Zn313 2.034 . S
O328 C323 1.246 . S
O329 Zn321 2.024 . S
O329 C323 1.249 . S
H330 C312 0.948 . S
O331 Zn321 2.039 . S
O331 C335 1.251 . S
O332 Zn313 2.025 . S
O332 C335 1.254 . S
O333 C314 1.246 . S
O333 Zn321 2.034 . S
O334 Zn313 2.024 . S
O334 C314 1.249 . S
C335 O331 1.251 . S
C335 O332 1.254 . S
H336 C309 0.949 . S
H337 C311 0.950 . S
H338 C318 0.949 . S
H339 C320 0.950 . S
C340 O356 1.251 . S
C340 O358 1.254 . S
N341 C342 1.333 . S
N341 C346 1.307 . S
N341 Zn347 2.020 . S
C342 N341 1.333 . S
C342 C343 1.379 . S
C342 H360 0.952 . S
C343 C342 1.379 . S
C343 C344 1.390 . S
C343 H370 0.949 . S
C344 C343 1.390 . S
C344 C345 1.357 . S
C345 C344 1.357 . S
C345 C346 1.370 . S
C345 H371 0.950 . S
C346 N341 1.307 . S
C346 C345 1.370 . S
C346 H364 0.948 . S
Zn347 N341 2.020 . S
Zn347 O356 2.039 . S
Zn347 O362 2.034 . S
Zn347 O366 2.025 . S
Zn347 O368 2.024 . S
C348 O367 1.246 . S
C348 O368 1.249 . S
N349 C350 1.307 . S
N349 C351 1.333 1_554 S
N349 Zn355 2.020 . S
C350 N349 1.307 . S
C350 C354 1.370 . S
C350 H361 0.948 . S
C351 N349 1.333 1_556 S
C351 C352 1.379 . S
C351 H359 0.952 . S
C352 C351 1.379 . S
C352 C353 1.390 . S
C352 H372 0.949 . S
C353 C352 1.390 . S
C353 C354 1.357 1_556 S
C354 C350 1.370 . S
C354 C353 1.357 1_554 S
C354 H373 0.950 . S
Zn355 N349 2.020 . S
Zn355 O358 2.025 . S
Zn355 O363 2.024 . S
Zn355 O365 2.039 . S
Zn355 O367 2.034 . S
O356 C340 1.251 . S
O356 Zn347 2.039 . S
C357 O362 1.246 . S
C357 O363 1.249 . S
O358 C340 1.254 . S
O358 Zn355 2.025 . S
H359 C351 0.952 . S
H360 C342 0.952 . S
H361 C350 0.948 . S
O362 Zn347 2.034 . S
O362 C357 1.246 . S
O363 Zn355 2.024 . S
O363 C357 1.249 . S
H364 C346 0.948 . S
O365 Zn355 2.039 . S
O365 C369 1.251 . S
O366 Zn347 2.025 . S
O366 C369 1.254 . S
O367 C348 1.246 . S
O367 Zn355 2.034 . S
O368 Zn347 2.024 . S
O368 C348 1.249 . S
C369 O365 1.251 . S
C369 O366 1.254 . S
H370 C343 0.949 . S
H371 C345 0.950 . S
H372 C352 0.949 . S
H373 C354 0.950 . S
C374 O390 1.251 . S
C374 O392 1.254 . S
N375 C376 1.333 . S
N375 C380 1.307 . S
N375 Zn381 2.020 . S
C376 N375 1.333 . S
C376 C377 1.379 . S
C376 H394 0.952 . S
C377 C376 1.379 . S
C377 C378 1.390 . S
C377 H404 0.949 . S
C378 C377 1.390 . S
C378 C379 1.357 . S
C379 C378 1.357 . S
C379 C380 1.370 . S
C379 H405 0.950 . S
C380 N375 1.307 . S
C380 C379 1.370 . S
C380 H398 0.948 . S
Zn381 N375 2.020 . S
Zn381 O390 2.039 . S
Zn381 O396 2.034 . S
Zn381 O400 2.025 . S
Zn381 O402 2.024 . S
C382 O401 1.246 . S
C382 O402 1.249 . S
N383 C384 1.307 . S
N383 C385 1.333 . S
N383 Zn389 2.020 . S
C384 N383 1.307 . S
C384 C388 1.370 . S
C384 H395 0.948 . S
C385 N383 1.333 . S
C385 C386 1.379 . S
C385 H393 0.952 . S
C386 C385 1.379 . S
C386 C387 1.390 . S
C386 H406 0.949 . S
C387 C386 1.390 . S
C387 C388 1.357 . S
C388 C384 1.370 . S
C388 C387 1.357 . S
C388 H407 0.950 . S
Zn389 N383 2.020 . S
Zn389 O392 2.025 . S
Zn389 O397 2.024 . S
Zn389 O399 2.039 . S
Zn389 O401 2.034 . S
O390 C374 1.251 . S
O390 Zn381 2.039 . S
C391 O396 1.246 . S
C391 O397 1.249 . S
O392 C374 1.254 . S
O392 Zn389 2.025 . S
H393 C385 0.952 . S
H394 C376 0.952 . S
H395 C384 0.948 . S
O396 Zn381 2.034 . S
O396 C391 1.246 . S
O397 Zn389 2.024 . S
O397 C391 1.249 . S
H398 C380 0.948 . S
O399 Zn389 2.039 . S
O399 C403 1.251 . S
O400 Zn381 2.025 . S
O400 C403 1.254 . S
O401 C382 1.246 . S
O401 Zn389 2.034 . S
O402 Zn381 2.024 . S
O402 C382 1.249 . S
C403 O399 1.251 . S
C403 O400 1.254 . S
H404 C377 0.949 . S
H405 C379 0.950 . S
H406 C386 0.949 . S
H407 C388 0.950 . S
C408 O424 1.251 . S
C408 O426 1.254 . S
N409 C410 1.333 . S
N409 C414 1.307 . S
N409 Zn415 2.020 . S
C410 N409 1.333 . S
C410 C411 1.379 . S
C410 H428 0.952 . S
C411 C410 1.379 . S
C411 C412 1.390 . S
C411 H438 0.949 . S
C412 C411 1.390 . S
C412 C413 1.357 . S
C413 C412 1.357 . S
C413 C414 1.370 . S
C413 H439 0.950 . S
C414 N409 1.307 . S
C414 C413 1.370 . S
C414 H432 0.948 . S
Zn415 N409 2.020 . S
Zn415 O424 2.039 . S
Zn415 O430 2.034 . S
Zn415 O434 2.025 . S
Zn415 O436 2.024 . S
C416 O435 1.246 . S
C416 O436 1.249 . S
N417 C418 1.307 . S
N417 C419 1.333 . S
N417 Zn423 2.020 . S
C418 N417 1.307 . S
C418 C422 1.370 . S
C418 H429 0.948 . S
C419 N417 1.333 . S
C419 C420 1.379 . S
C419 H427 0.952 . S
C420 C419 1.379 . S
C420 C421 1.390 . S
C420 H440 0.949 . S
C421 C420 1.390 . S
C421 C422 1.357 . S
C422 C418 1.370 . S
C422 C421 1.357 . S
C422 H441 0.950 . S
Zn423 N417 2.020 . S
Zn423 O426 2.025 . S
Zn423 O431 2.024 . S
Zn423 O433 2.039 . S
Zn423 O435 2.034 . S
O424 C408 1.251 . S
O424 Zn415 2.039 . S
C425 O430 1.246 . S
C425 O431 1.249 . S
O426 C408 1.254 . S
O426 Zn423 2.025 . S
H427 C419 0.952 . S
H428 C410 0.952 . S
H429 C418 0.948 . S
O430 Zn415 2.034 . S
O430 C425 1.246 . S
O431 Zn423 2.024 . S
O431 C425 1.249 . S
H432 C414 0.948 . S
O433 Zn423 2.039 . S
O433 C437 1.251 . S
O434 Zn415 2.025 . S
O434 C437 1.254 . S
O435 C416 1.246 . S
O435 Zn423 2.034 . S
O436 Zn415 2.024 . S
O436 C416 1.249 . S
C437 O433 1.251 . S
C437 O434 1.254 . S
H438 C411 0.949 . S
H439 C413 0.950 . S
H440 C420 0.949 . S
H441 C422 0.950 . S
C442 O458 1.251 . S
C442 O460 1.254 . S
N443 C444 1.333 . S
N443 C448 1.307 1_655 S
N443 Zn449 2.020 . S
C444 N443 1.333 . S
C444 C445 1.379 . S
C444 H462 0.952 . S
C445 C444 1.379 . S
C445 C446 1.390 1_655 S
C445 H472 0.949 . S
C446 C445 1.390 1_455 S
C446 C447 1.357 . S
C447 C446 1.357 . S
C447 C448 1.370 . S
C447 H473 0.950 . S
C448 N443 1.307 1_455 S
C448 C447 1.370 . S
C448 H466 0.948 . S
Zn449 N443 2.020 . S
Zn449 O458 2.039 . S
Zn449 O464 2.034 . S
Zn449 O468 2.025 . S
Zn449 O470 2.024 . S
C450 O469 1.246 . S
C450 O470 1.249 . S
N451 C452 1.307 . S
N451 C453 1.333 . S
N451 Zn457 2.020 . S
C452 N451 1.307 . S
C452 C456 1.370 . S
C452 H463 0.948 . S
C453 N451 1.333 . S
C453 C454 1.379 . S
C453 H461 0.952 . S
C454 C453 1.379 . S
C454 C455 1.390 . S
C454 H474 0.949 . S
C455 C454 1.390 . S
C455 C456 1.357 . S
C456 C452 1.370 . S
C456 C455 1.357 . S
C456 H475 0.950 . S
Zn457 N451 2.020 . S
Zn457 O460 2.025 . S
Zn457 O465 2.024 . S
Zn457 O467 2.039 . S
Zn457 O469 2.034 . S
O458 C442 1.251 . S
O458 Zn449 2.039 . S
C459 O464 1.246 . S
C459 O465 1.249 . S
O460 C442 1.254 . S
O460 Zn457 2.025 . S
H461 C453 0.952 . S
H462 C444 0.952 . S
H463 C452 0.948 . S
O464 Zn449 2.034 . S
O464 C459 1.246 . S
O465 Zn457 2.024 . S
O465 C459 1.249 . S
H466 C448 0.948 . S
O467 Zn457 2.039 . S
O467 C471 1.251 . S
O468 Zn449 2.025 . S
O468 C471 1.254 . S
O469 C450 1.246 . S
O469 Zn457 2.034 . S
O470 Zn449 2.024 . S
O470 C450 1.249 . S
C471 O467 1.251 . S
C471 O468 1.254 . S
H472 C445 0.949 . S
H473 C447 0.950 . S
H474 C454 0.949 . S
H475 C456 0.950 . S
C476 O492 1.251 . S
C476 O494 1.254 . S
N477 C478 1.333 1_556 S
N477 C482 1.307 . S
N477 Zn483 2.020 . S
C478 N477 1.333 1_554 S
C478 C479 1.379 . S
C478 H496 0.952 . S
C479 C478 1.379 . S
C479 C480 1.390 . S
C479 H506 0.949 . S
C480 C479 1.390 . S
C480 C481 1.357 1_554 S
C481 C480 1.357 1_556 S
C481 C482 1.370 . S
C481 H507 0.950 . S
C482 N477 1.307 . S
C482 C481 1.370 . S
C482 H500 0.948 . S
Zn483 N477 2.020 . S
Zn483 O492 2.039 . S
Zn483 O498 2.034 . S
Zn483 O502 2.025 . S
Zn483 O504 2.024 . S
C484 O503 1.246 . S
C484 O504 1.249 . S
N485 C486 1.307 . S
N485 C487 1.333 . S
N485 Zn491 2.020 . S
C486 N485 1.307 . S
C486 C490 1.370 . S
C486 H497 0.948 . S
C487 N485 1.333 . S
C487 C488 1.379 . S
C487 H495 0.952 . S
C488 C487 1.379 . S
C488 C489 1.390 . S
C488 H508 0.949 . S
C489 C488 1.390 . S
C489 C490 1.357 . S
C490 C486 1.370 . S
C490 C489 1.357 . S
C490 H509 0.950 . S
Zn491 N485 2.020 . S
Zn491 O494 2.025 . S
Zn491 O499 2.024 . S
Zn491 O501 2.039 . S
Zn491 O503 2.034 . S
O492 C476 1.251 . S
O492 Zn483 2.039 . S
C493 O498 1.246 . S
C493 O499 1.249 . S
O494 C476 1.254 . S
O494 Zn491 2.025 . S
H495 C487 0.952 . S
H496 C478 0.952 . S
H497 C486 0.948 . S
O498 Zn483 2.034 . S
O498 C493 1.246 . S
O499 Zn491 2.024 . S
O499 C493 1.249 . S
H500 C482 0.948 . S
O501 Zn491 2.039 . S
O501 C505 1.251 . S
O502 Zn483 2.025 . S
O502 C505 1.254 . S
O503 C484 1.246 . S
O503 Zn491 2.034 . S
O504 Zn483 2.024 . S
O504 C484 1.249 . S
C505 O501 1.251 . S
C505 O502 1.254 . S
H506 C479 0.949 . S
H507 C481 0.950 . S
H508 C488 0.949 . S
H509 C490 0.950 . S
C510 O526 1.251 . S
C510 O528 1.254 . S
N511 C512 1.333 . S
N511 C516 1.307 . S
N511 Zn517 2.020 . S
C512 N511 1.333 . S
C512 C513 1.379 . S
C512 H530 0.952 . S
C513 C512 1.379 . S
C513 C514 1.390 . S
C513 H540 0.949 . S
C514 C513 1.390 . S
C514 C515 1.357 . S
C515 C514 1.357 . S
C515 C516 1.370 . S
C515 H541 0.950 . S
C516 N511 1.307 . S
C516 C515 1.370 . S
C516 H534 0.948 . S
Zn517 N511 2.020 . S
Zn517 O526 2.039 . S
Zn517 O532 2.034 . S
Zn517 O536 2.025 . S
Zn517 O538 2.024 . S
C518 O537 1.246 . S
C518 O538 1.249 . S
N519 C520 1.307 . S
N519 C521 1.333 . S
N519 Zn525 2.020 . S
C520 N519 1.307 . S
C520 C524 1.370 . S
C520 H531 0.948 . S
C521 N519 1.333 . S
C521 C522 1.379 . S
C521 H529 0.952 . S
C522 C521 1.379 . S
C522 C523 1.390 . S
C522 H542 0.949 . S
C523 C522 1.390 . S
C523 C524 1.357 . S
C524 C520 1.370 . S
C524 C523 1.357 . S
C524 H543 0.950 . S
Zn525 N519 2.020 . S
Zn525 O528 2.025 . S
Zn525 O533 2.024 . S
Zn525 O535 2.039 . S
Zn525 O537 2.034 . S
O526 C510 1.251 . S
O526 Zn517 2.039 . S
C527 O532 1.246 . S
C527 O533 1.249 . S
O528 C510 1.254 . S
O528 Zn525 2.025 . S
H529 C521 0.952 . S
H530 C512 0.952 . S
H531 C520 0.948 . S
O532 Zn517 2.034 . S
O532 C527 1.246 . S
O533 Zn525 2.024 . S
O533 C527 1.249 . S
H534 C516 0.948 . S
O535 Zn525 2.039 . S
O535 C539 1.251 . S
O536 Zn517 2.025 . S
O536 C539 1.254 . S
O537 C518 1.246 . S
O537 Zn525 2.034 . S
O538 Zn517 2.024 . S
O538 C518 1.249 . S
C539 O535 1.251 . S
C539 O536 1.254 . S
H540 C513 0.949 . S
H541 C515 0.950 . S
H542 C522 0.949 . S
H543 C524 0.950 . S
C544 C545 1.349 . S
C544 C546 1.327 . S
C544 H569 0.950 . S
C545 C544 1.349 . S
C545 C561 1.349 . S
C546 C544 1.327 . S
C546 C565 1.429 . S
C546 H570 0.950 . S
C547 C564 1.574 . S
C547 C566 1.368 . S
C547 H571 0.949 . S
H548 C552 0.949 . S
C549 C550 1.349 . S
C549 C551 1.327 . S
C549 H572 0.950 . S
C550 C549 1.349 . S
C550 C562 1.349 . S
C551 C549 1.327 . S
C551 C567 1.429 . S
C551 H573 0.950 . S
C552 H548 0.949 . S
C552 C560 1.574 . S
C552 C568 1.368 . S
H553 C561 0.950 . S
H554 C559 0.950 . S
H555 C560 0.949 . S
H556 C562 0.950 . S
H557 C563 0.950 . S
H558 C564 0.949 . S
C559 H554 0.950 . S
C559 C561 1.327 . S
C559 C565 1.429 . S
C560 C552 1.574 . S
C560 H555 0.949 . S
C560 C566 1.368 . S
C561 C545 1.349 . S
C561 H553 0.950 . S
C561 C559 1.327 . S
C562 C550 1.349 . S
C562 H556 0.950 . S
C562 C563 1.327 . S
C563 H557 0.950 . S
C563 C562 1.327 . S
C563 C567 1.429 . S
C564 C547 1.574 . S
C564 H558 0.949 . S
C564 C568 1.368 . S
C565 C546 1.429 . S
C565 C559 1.429 . S
C565 C566 1.523 . S
C566 C547 1.368 . S
C566 C560 1.368 . S
C566 C565 1.523 . S
C567 C551 1.429 . S
C567 C563 1.429 . S
C567 C568 1.523 . S
C568 C552 1.368 . S
C568 C564 1.368 . S
C568 C567 1.523 . S
H569 C544 0.950 . S
H570 C546 0.950 . S
H571 C547 0.949 . S
H572 C549 0.950 . S
H573 C551 0.950 . S
C574 C575 1.349 . S
C574 C576 1.327 . S
C574 H599 0.950 . S
C575 C574 1.349 . S
C575 C591 1.349 . S
C576 C574 1.327 . S
C576 C595 1.429 . S
C576 H600 0.950 . S
C577 C594 1.574 . S
C577 C596 1.368 . S
C577 H601 0.949 . S
H578 C582 0.949 . S
C579 C580 1.349 . S
C579 C581 1.327 . S
C579 H602 0.950 . S
C580 C579 1.349 . S
C580 C592 1.349 . S
C581 C579 1.327 . S
C581 C597 1.429 . S
C581 H603 0.950 . S
C582 H578 0.949 . S
C582 C590 1.574 . S
C582 C598 1.368 . S
H583 C591 0.950 . S
H584 C589 0.950 . S
H585 C590 0.949 . S
H586 C592 0.950 . S
H587 C593 0.950 . S
H588 C594 0.949 . S
C589 H584 0.950 . S
C589 C591 1.327 . S
C589 C595 1.429 . S
C590 C582 1.574 . S
C590 H585 0.949 . S
C590 C596 1.368 . S
C591 C575 1.349 . S
C591 H583 0.950 . S
C591 C589 1.327 . S
C592 C580 1.349 . S
C592 H586 0.950 . S
C592 C593 1.327 . S
C593 H587 0.950 . S
C593 C592 1.327 . S
C593 C597 1.429 . S
C594 C577 1.574 . S
C594 H588 0.949 . S
C594 C598 1.368 . S
C595 C576 1.429 . S
C595 C589 1.429 . S
C595 C596 1.523 . S
C596 C577 1.368 . S
C596 C590 1.368 . S
C596 C595 1.523 . S
C597 C581 1.429 . S
C597 C593 1.429 . S
C597 C598 1.523 . S
C598 C582 1.368 . S
C598 C594 1.368 . S
C598 C597 1.523 . S
H599 C574 0.950 . S
H600 C576 0.950 . S
H601 C577 0.949 . S
H602 C579 0.950 . S
H603 C581 0.950 . S
C604 C605 1.349 . S
C604 C606 1.327 . S
C604 H629 0.950 . S
C605 C604 1.349 . S
C605 C621 1.349 . S
C606 C604 1.327 . S
C606 C625 1.429 . S
C606 H630 0.950 . S
C607 C624 1.574 1_455 S
C607 C626 1.368 . S
C607 H631 0.949 . S
H608 C612 0.949 . S
C609 C610 1.349 . S
C609 C611 1.327 . S
C609 H632 0.950 . S
C610 C609 1.349 . S
C610 C622 1.349 . S
C611 C609 1.327 . S
C611 C627 1.429 . S
C611 H633 0.950 . S
C612 H608 0.949 . S
C612 C620 1.574 1_655 S
C612 C628 1.368 . S
H613 C621 0.950 . S
H614 C619 0.950 . S
H615 C620 0.949 . S
H616 C622 0.950 . S
H617 C623 0.950 . S
H618 C624 0.949 . S
C619 H614 0.950 . S
C619 C621 1.327 . S
C619 C625 1.429 . S
C620 C612 1.574 1_455 S
C620 H615 0.949 . S
C620 C626 1.368 . S
C621 C605 1.349 . S
C621 H613 0.950 . S
C621 C619 1.327 . S
C622 C610 1.349 . S
C622 H616 0.950 . S
C622 C623 1.327 . S
C623 H617 0.950 . S
C623 C622 1.327 . S
C623 C627 1.429 . S
C624 C607 1.574 1_655 S
C624 H618 0.949 . S
C624 C628 1.368 . S
C625 C606 1.429 . S
C625 C619 1.429 . S
C625 C626 1.523 . S
C626 C607 1.368 . S
C626 C620 1.368 . S
C626 C625 1.523 . S
C627 C611 1.429 . S
C627 C623 1.429 . S
C627 C628 1.523 . S
C628 C612 1.368 . S
C628 C624 1.368 . S
C628 C627 1.523 . S
H629 C604 0.950 . S
H630 C606 0.950 . S
H631 C607 0.949 . S
H632 C609 0.950 . S
H633 C611 0.950 . S
C634 C635 1.349 . S
C634 C636 1.327 . S
C634 H659 0.950 . S
C635 C634 1.349 . S
C635 C651 1.349 . S
C636 C634 1.327 . S
C636 C655 1.429 . S
C636 H660 0.950 . S
C637 C654 1.574 . S
C637 C656 1.368 . S
C637 H661 0.949 . S
H638 C642 0.949 . S
C639 C640 1.349 . S
C639 C641 1.327 . S
C639 H662 0.950 . S
C640 C639 1.349 . S
C640 C652 1.349 . S
C641 C639 1.327 . S
C641 C657 1.429 . S
C641 H663 0.950 . S
C642 H638 0.949 . S
C642 C650 1.574 . S
C642 C658 1.368 . S
H643 C651 0.950 . S
H644 C649 0.950 . S
H645 C650 0.949 . S
H646 C652 0.950 . S
H647 C653 0.950 . S
H648 C654 0.949 . S
C649 H644 0.950 . S
C649 C651 1.327 . S
C649 C655 1.429 . S
C650 C642 1.574 . S
C650 H645 0.949 . S
C650 C656 1.368 1_455 S
C651 C635 1.349 . S
C651 H643 0.950 . S
C651 C649 1.327 . S
C652 C640 1.349 . S
C652 H646 0.950 . S
C652 C653 1.327 . S
C653 H647 0.950 . S
C653 C652 1.327 . S
C653 C657 1.429 . S
C654 C637 1.574 . S
C654 H648 0.949 . S
C654 C658 1.368 1_655 S
C655 C636 1.429 . S
C655 C649 1.429 . S
C655 C656 1.523 . S
C656 C637 1.368 . S
C656 C650 1.368 1_655 S
C656 C655 1.523 . S
C657 C641 1.429 . S
C657 C653 1.429 . S
C657 C658 1.523 . S
C658 C642 1.368 . S
C658 C654 1.368 1_455 S
C658 C657 1.523 . S
H659 C634 0.950 . S
H660 C636 0.950 . S
H661 C637 0.949 . S
H662 C639 0.950 . S
H663 C641 0.950 . S
C664 C665 1.349 . S
C664 C666 1.327 . S
C664 H689 0.950 . S
C665 C664 1.349 . S
C665 C681 1.349 . S
C666 C664 1.327 . S
C666 C685 1.429 . S
C666 H690 0.950 . S
C667 C684 1.574 . S
C667 C686 1.368 . S
C667 H691 0.949 . S
H668 C672 0.949 . S
C669 C670 1.349 . S
C669 C671 1.327 . S
C669 H692 0.950 . S
C670 C669 1.349 . S
C670 C682 1.349 . S
C671 C669 1.327 . S
C671 C687 1.429 . S
C671 H693 0.950 . S
C672 H668 0.949 . S
C672 C680 1.574 . S
C672 C688 1.368 . S
H673 C681 0.950 . S
H674 C679 0.950 . S
H675 C680 0.949 . S
H676 C682 0.950 . S
H677 C683 0.950 . S
H678 C684 0.949 . S
C679 H674 0.950 . S
C679 C681 1.327 . S
C679 C685 1.429 . S
C680 C672 1.574 . S
C680 H675 0.949 . S
C680 C686 1.368 . S
C681 C665 1.349 . S
C681 H673 0.950 . S
C681 C679 1.327 . S
C682 C670 1.349 . S
C682 H676 0.950 . S
C682 C683 1.327 . S
C683 H677 0.950 . S
C683 C682 1.327 . S
C683 C687 1.429 . S
C684 C667 1.574 . S
C684 H678 0.949 . S
C684 C688 1.368 . S
C685 C666 1.429 . S
C685 C679 1.429 . S
C685 C686 1.523 . S
C686 C667 1.368 . S
C686 C680 1.368 . S
C686 C685 1.523 . S
C687 C671 1.429 . S
C687 C683 1.429 . S
C687 C688 1.523 . S
C688 C672 1.368 . S
C688 C684 1.368 . S
C688 C687 1.523 . S
H689 C664 0.950 . S
H690 C666 0.950 . S
H691 C667 0.949 . S
H692 C669 0.950 . S
H693 C671 0.950 . S
C694 C695 1.349 . S
C694 C696 1.327 . S
C694 H719 0.950 . S
C695 C694 1.349 . S
C695 C711 1.349 . S
C696 C694 1.327 . S
C696 C715 1.429 . S
C696 H720 0.950 . S
C697 C714 1.574 . S
C697 C716 1.368 . S
C697 H721 0.949 . S
H698 C702 0.949 . S
C699 C700 1.349 . S
C699 C701 1.327 . S
C699 H722 0.950 . S
C700 C699 1.349 . S
C700 C712 1.349 . S
C701 C699 1.327 . S
C701 C717 1.429 . S
C701 H723 0.950 . S
C702 H698 0.949 . S
C702 C710 1.574 . S
C702 C718 1.368 . S
H703 C711 0.950 . S
H704 C709 0.950 . S
H705 C710 0.949 . S
H706 C712 0.950 . S
H707 C713 0.950 . S
H708 C714 0.949 . S
C709 H704 0.950 . S
C709 C711 1.327 . S
C709 C715 1.429 . S
C710 C702 1.574 . S
C710 H705 0.949 . S
C710 C716 1.368 . S
C711 C695 1.349 . S
C711 H703 0.950 . S
C711 C709 1.327 . S
C712 C700 1.349 . S
C712 H706 0.950 . S
C712 C713 1.327 . S
C713 H707 0.950 . S
C713 C712 1.327 . S
C713 C717 1.429 . S
C714 C697 1.574 . S
C714 H708 0.949 . S
C714 C718 1.368 . S
C715 C696 1.429 . S
C715 C709 1.429 . S
C715 C716 1.523 . S
C716 C697 1.368 . S
C716 C710 1.368 . S
C716 C715 1.523 . S
C717 C701 1.429 . S
C717 C713 1.429 . S
C717 C718 1.523 . S
C718 C702 1.368 . S
C718 C714 1.368 . S
C718 C717 1.523 . S
H719 C694 0.950 . S
H720 C696 0.950 . S
H721 C697 0.949 . S
H722 C699 0.950 . S
H723 C701 0.950 . S
C724 C725 1.349 . S
C724 C726 1.327 . S
C724 H749 0.950 . S
C725 C724 1.349 . S
C725 C741 1.349 . S
C726 C724 1.327 . S
C726 C745 1.429 . S
C726 H750 0.950 . S
C727 C744 1.574 1_655 S
C727 C746 1.368 . S
C727 H751 0.949 . S
H728 C732 0.949 . S
C729 C730 1.349 . S
C729 C731 1.327 . S
C729 H752 0.950 . S
C730 C729 1.349 . S
C730 C742 1.349 . S
C731 C729 1.327 . S
C731 C747 1.429 . S
C731 H753 0.950 . S
C732 H728 0.949 . S
C732 C740 1.574 1_455 S
C732 C748 1.368 . S
H733 C741 0.950 . S
H734 C739 0.950 . S
H735 C740 0.949 . S
H736 C742 0.950 . S
H737 C743 0.950 . S
H738 C744 0.949 . S
C739 H734 0.950 . S
C739 C741 1.327 . S
C739 C745 1.429 . S
C740 C732 1.574 1_655 S
C740 H735 0.949 . S
C740 C746 1.368 . S
C741 C725 1.349 . S
C741 H733 0.950 . S
C741 C739 1.327 . S
C742 C730 1.349 . S
C742 H736 0.950 . S
C742 C743 1.327 . S
C743 H737 0.950 . S
C743 C742 1.327 . S
C743 C747 1.429 . S
C744 C727 1.574 1_455 S
C744 H738 0.949 . S
C744 C748 1.368 . S
C745 C726 1.429 . S
C745 C739 1.429 . S
C745 C746 1.523 . S
C746 C727 1.368 . S
C746 C740 1.368 . S
C746 C745 1.523 . S
C747 C731 1.429 . S
C747 C743 1.429 . S
C747 C748 1.523 . S
C748 C732 1.368 . S
C748 C744 1.368 . S
C748 C747 1.523 . S
H749 C724 0.950 . S
H750 C726 0.950 . S
H751 C727 0.949 . S
H752 C729 0.950 . S
H753 C731 0.950 . S
C754 C755 1.349 . S
C754 C756 1.327 . S
C754 H779 0.950 . S
C755 C754 1.349 . S
C755 C771 1.349 . S
C756 C754 1.327 . S
C756 C775 1.429 . S
C756 H780 0.950 . S
C757 C774 1.574 . S
C757 C776 1.368 . S
C757 H781 0.949 . S
H758 C762 0.949 . S
C759 C760 1.349 . S
C759 C761 1.327 . S
C759 H782 0.950 . S
C760 C759 1.349 . S
C760 C772 1.349 . S
C761 C759 1.327 . S
C761 C777 1.429 . S
C761 H783 0.950 . S
C762 H758 0.949 . S
C762 C770 1.574 . S
C762 C778 1.368 . S
H763 C771 0.950 . S
H764 C769 0.950 . S
H765 C770 0.949 . S
H766 C772 0.950 . S
H767 C773 0.950 . S
H768 C774 0.949 . S
C769 H764 0.950 . S
C769 C771 1.327 . S
C769 C775 1.429 . S
C770 C762 1.574 . S
C770 H765 0.949 . S
C770 C776 1.368 1_655 S
C771 C755 1.349 . S
C771 H763 0.950 . S
C771 C769 1.327 . S
C772 C760 1.349 . S
C772 H766 0.950 . S
C772 C773 1.327 . S
C773 H767 0.950 . S
C773 C772 1.327 . S
C773 C777 1.429 . S
C774 C757 1.574 . S
C774 H768 0.949 . S
C774 C778 1.368 1_455 S
C775 C756 1.429 . S
C775 C769 1.429 . S
C775 C776 1.523 . S
C776 C757 1.368 . S
C776 C770 1.368 1_455 S
C776 C775 1.523 . S
C777 C761 1.429 . S
C777 C773 1.429 . S
C777 C778 1.523 . S
C778 C762 1.368 . S
C778 C774 1.368 1_655 S
C778 C777 1.523 . S
H779 C754 0.950 . S
H780 C756 0.950 . S
H781 C757 0.949 . S
H782 C759 0.950 . S
H783 C761 0.950 . S
C784 C785 1.349 . S
C784 C786 1.327 . S
C784 H809 0.950 . S
C785 C784 1.349 . S
C785 C801 1.349 . S
C786 C784 1.327 . S
C786 C805 1.429 . S
C786 H810 0.950 1_556 S
C787 C804 1.574 . S
C787 C806 1.368 . S
C787 H811 0.949 . S
H788 C792 0.949 . S
C789 C790 1.349 . S
C789 C791 1.327 . S
C789 H812 0.950 . S
C790 C789 1.349 . S
C790 C802 1.349 . S
C791 C789 1.327 . S
C791 C807 1.429 . S
C791 H813 0.950 1_554 S
C792 H788 0.949 . S
C792 C800 1.574 . S
C792 C808 1.368 . S
H793 C801 0.950 . S
H794 C799 0.950 . S
H795 C800 0.949 . S
H796 C802 0.950 . S
H797 C803 0.950 . S
H798 C804 0.949 . S
C799 H794 0.950 . S
C799 C801 1.327 . S
C799 C805 1.429 . S
C800 C792 1.574 . S
C800 H795 0.949 . S
C800 C806 1.368 1_554 S
C801 C785 1.349 . S
C801 H793 0.950 . S
C801 C799 1.327 . S
C802 C790 1.349 . S
C802 H796 0.950 . S
C802 C803 1.327 . S
C803 H797 0.950 . S
C803 C802 1.327 . S
C803 C807 1.429 . S
C804 C787 1.574 . S
C804 H798 0.949 . S
C804 C808 1.368 1_556 S
C805 C786 1.429 . S
C805 C799 1.429 . S
C805 C806 1.523 . S
C806 C787 1.368 . S
C806 C800 1.368 1_556 S
C806 C805 1.523 . S
C807 C791 1.429 . S
C807 C803 1.429 . S
C807 C808 1.523 . S
C808 C792 1.368 . S
C808 C804 1.368 1_554 S
C808 C807 1.523 . S
H809 C784 0.950 . S
H810 C786 0.950 1_554 S
H811 C787 0.949 . S
H812 C789 0.950 . S
H813 C791 0.950 1_556 S
C814 C815 1.349 . S
C814 C816 1.327 . S
C814 H839 0.950 . S
C815 C814 1.349 . S
C815 C831 1.349 . S
C816 C814 1.327 . S
C816 C835 1.429 . S
C816 H840 0.950 . S
C817 C834 1.574 . S
C817 C836 1.368 . S
C817 H841 0.949 . S
H818 C822 0.949 . S
C819 C820 1.349 . S
C819 C821 1.327 . S
C819 H842 0.950 . S
C820 C819 1.349 . S
C820 C832 1.349 . S
C821 C819 1.327 . S
C821 C837 1.429 . S
C821 H843 0.950 . S
C822 H818 0.949 . S
C822 C830 1.574 . S
C822 C838 1.368 . S
H823 C831 0.950 . S
H824 C829 0.950 . S
H825 C830 0.949 . S
H826 C832 0.950 . S
H827 C833 0.950 . S
H828 C834 0.949 . S
C829 H824 0.950 . S
C829 C831 1.327 . S
C829 C835 1.429 . S
C830 C822 1.574 . S
C830 H825 0.949 . S
C830 C836 1.368 . S
C831 C815 1.349 . S
C831 H823 0.950 . S
C831 C829 1.327 . S
C832 C820 1.349 . S
C832 H826 0.950 . S
C832 C833 1.327 . S
C833 H827 0.950 . S
C833 C832 1.327 . S
C833 C837 1.429 . S
C834 C817 1.574 . S
C834 H828 0.949 . S
C834 C838 1.368 . S
C835 C816 1.429 . S
C835 C829 1.429 . S
C835 C836 1.523 . S
C836 C817 1.368 . S
C836 C830 1.368 . S
C836 C835 1.523 . S
C837 C821 1.429 . S
C837 C833 1.429 . S
C837 C838 1.523 . S
C838 C822 1.368 . S
C838 C834 1.368 . S
C838 C837 1.523 . S
H839 C814 0.950 . S
H840 C816 0.950 . S
H841 C817 0.949 . S
H842 C819 0.950 . S
H843 C821 0.950 . S
C844 C845 1.349 . S
C844 C846 1.327 . S
C844 H869 0.950 . S
C845 C844 1.349 . S
C845 C861 1.349 . S
C846 C844 1.327 . S
C846 C865 1.429 . S
C846 H870 0.950 . S
C847 C864 1.574 . S
C847 C866 1.368 . S
C847 H871 0.949 . S
H848 C852 0.949 . S
C849 C850 1.349 . S
C849 C851 1.327 . S
C849 H872 0.950 . S
C850 C849 1.349 . S
C850 C862 1.349 . S
C851 C849 1.327 . S
C851 C867 1.429 . S
C851 H873 0.950 . S
C852 H848 0.949 . S
C852 C860 1.574 . S
C852 C868 1.368 . S
H853 C861 0.950 . S
H854 C859 0.950 . S
H855 C860 0.949 . S
H856 C862 0.950 . S
H857 C863 0.950 . S
H858 C864 0.949 . S
C859 H854 0.950 . S
C859 C861 1.327 . S
C859 C865 1.429 . S
C860 C852 1.574 . S
C860 H855 0.949 . S
C860 C866 1.368 . S
C861 C845 1.349 . S
C861 H853 0.950 . S
C861 C859 1.327 . S
C862 C850 1.349 . S
C862 H856 0.950 . S
C862 C863 1.327 . S
C863 H857 0.950 . S
C863 C862 1.327 . S
C863 C867 1.429 . S
C864 C847 1.574 . S
C864 H858 0.949 . S
C864 C868 1.368 . S
C865 C846 1.429 . S
C865 C859 1.429 . S
C865 C866 1.523 . S
C866 C847 1.368 . S
C866 C860 1.368 . S
C866 C865 1.523 . S
C867 C851 1.429 . S
C867 C863 1.429 . S
C867 C868 1.523 . S
C868 C852 1.368 . S
C868 C864 1.368 . S
C868 C867 1.523 . S
H869 C844 0.950 . S
H870 C846 0.950 . S
H871 C847 0.949 . S
H872 C849 0.950 . S
H873 C851 0.950 . S
C874 C875 1.349 . S
C874 C876 1.327 . S
C874 H899 0.950 . S
C875 C874 1.349 . S
C875 C891 1.349 . S
C876 C874 1.327 . S
C876 C895 1.429 . S
C876 H900 0.950 . S
C877 C894 1.574 . S
C877 C896 1.368 . S
C877 H901 0.949 . S
H878 C882 0.949 . S
C879 C880 1.349 . S
C879 C881 1.327 . S
C879 H902 0.950 . S
C880 C879 1.349 . S
C880 C892 1.349 . S
C881 C879 1.327 . S
C881 C897 1.429 . S
C881 H903 0.950 . S
C882 H878 0.949 . S
C882 C890 1.574 . S
C882 C898 1.368 . S
H883 C891 0.950 . S
H884 C889 0.950 . S
H885 C890 0.949 . S
H886 C892 0.950 . S
H887 C893 0.950 . S
H888 C894 0.949 . S
C889 H884 0.950 . S
C889 C891 1.327 . S
C889 C895 1.429 . S
C890 C882 1.574 . S
C890 H885 0.949 . S
C890 C896 1.368 . S
C891 C875 1.349 . S
C891 H883 0.950 . S
C891 C889 1.327 . S
C892 C880 1.349 . S
C892 H886 0.950 . S
C892 C893 1.327 . S
C893 H887 0.950 . S
C893 C892 1.327 . S
C893 C897 1.429 . S
C894 C877 1.574 . S
C894 H888 0.949 . S
C894 C898 1.368 . S
C895 C876 1.429 . S
C895 C889 1.429 . S
C895 C896 1.523 . S
C896 C877 1.368 . S
C896 C890 1.368 . S
C896 C895 1.523 . S
C897 C881 1.429 . S
C897 C893 1.429 . S
C897 C898 1.523 . S
C898 C882 1.368 . S
C898 C894 1.368 . S
C898 C897 1.523 . S
H899 C874 0.950 . S
H900 C876 0.950 . S
H901 C877 0.949 . S
H902 C879 0.950 . S
H903 C881 0.950 . S
C904 C905 1.349 . S
C904 C906 1.327 . S
C904 H929 0.950 . S
C905 C904 1.349 . S
C905 C921 1.349 . S
C906 C904 1.327 . S
C906 C925 1.429 . S
C906 H930 0.950 . S
C907 C924 1.574 1_556 S
C907 C926 1.368 . S
C907 H931 0.949 . S
H908 C912 0.949 . S
C909 C910 1.349 . S
C909 C911 1.327 . S
C909 H932 0.950 . S
C910 C909 1.349 . S
C910 C922 1.349 . S
C911 C909 1.327 . S
C911 C927 1.429 . S
C911 H933 0.950 . S
C912 H908 0.949 . S
C912 C920 1.574 1_554 S
C912 C928 1.368 . S
H913 C921 0.950 . S
H914 C919 0.950 . S
H915 C920 0.949 . S
H916 C922 0.950 . S
H917 C923 0.950 . S
H918 C924 0.949 . S
C919 H914 0.950 . S
C919 C921 1.327 . S
C919 C925 1.429 . S
C920 C912 1.574 1_556 S
C920 H915 0.949 . S
C920 C926 1.368 . S
C921 C905 1.349 . S
C921 H913 0.950 . S
C921 C919 1.327 . S
C922 C910 1.349 . S
C922 H916 0.950 . S
C922 C923 1.327 . S
C923 H917 0.950 . S
C923 C922 1.327 . S
C923 C927 1.429 . S
C924 C907 1.574 1_554 S
C924 H918 0.949 . S
C924 C928 1.368 . S
C925 C906 1.429 . S
C925 C919 1.429 . S
C925 C926 1.523 . S
C926 C907 1.368 . S
C926 C920 1.368 . S
C926 C925 1.523 . S
C927 C911 1.429 . S
C927 C923 1.429 . S
C927 C928 1.523 . S
C928 C912 1.368 . S
C928 C924 1.368 . S
C928 C927 1.523 . S
H929 C904 0.950 . S
H930 C906 0.950 . S
H931 C907 0.949 . S
H932 C909 0.950 . S
H933 C911 0.950 . S
C934 C935 1.349 . S
C934 C936 1.327 . S
C934 H959 0.950 . S
C935 C934 1.349 . S
C935 C951 1.349 . S
C936 C934 1.327 . S
C936 C955 1.429 . S
C936 H960 0.950 . S
C937 C954 1.574 . S
C937 C956 1.368 . S
C937 H961 0.949 . S
H938 C942 0.949 . S
C939 C940 1.349 . S
C939 C941 1.327 . S
C939 H962 0.950 . S
C940 C939 1.349 . S
C940 C952 1.349 . S
C941 C939 1.327 . S
C941 C957 1.429 . S
C941 H963 0.950 . S
C942 H938 0.949 . S
C942 C950 1.574 . S
C942 C958 1.368 . S
H943 C951 0.950 . S
H944 C949 0.950 . S
H945 C950 0.949 . S
H946 C952 0.950 . S
H947 C953 0.950 . S
H948 C954 0.949 . S
C949 H944 0.950 . S
C949 C951 1.327 . S
C949 C955 1.429 . S
C950 C942 1.574 . S
C950 H945 0.949 . S
C950 C956 1.368 . S
C951 C935 1.349 . S
C951 H943 0.950 . S
C951 C949 1.327 . S
C952 C940 1.349 . S
C952 H946 0.950 . S
C952 C953 1.327 . S
C953 H947 0.950 . S
C953 C952 1.327 . S
C953 C957 1.429 . S
C954 C937 1.574 . S
C954 H948 0.949 . S
C954 C958 1.368 . S
C955 C936 1.429 . S
C955 C949 1.429 . S
C955 C956 1.523 . S
C956 C937 1.368 . S
C956 C950 1.368 . S
C956 C955 1.523 . S
C957 C941 1.429 . S
C957 C953 1.429 . S
C957 C958 1.523 . S
C958 C942 1.368 . S
C958 C954 1.368 . S
C958 C957 1.523 . S
H959 C934 0.950 . S
H960 C936 0.950 . S
H961 C937 0.949 . S
H962 C939 0.950 . S
H963 C941 0.950 . S
C964 C965 1.349 . S
C964 C966 1.327 . S
C964 H989 0.950 . S
C965 C964 1.349 . S
C965 C981 1.349 . S
C966 C964 1.327 . S
C966 C985 1.429 . S
C966 H990 0.950 . S
C967 C984 1.574 . S
C967 C986 1.368 . S
C967 H991 0.949 . S
H968 C972 0.949 . S
C969 C970 1.349 . S
C969 C971 1.327 . S
C969 H992 0.950 . S
C970 C969 1.349 . S
C970 C982 1.349 . S
C971 C969 1.327 . S
C971 C987 1.429 . S
C971 H993 0.950 . S
C972 H968 0.949 . S
C972 C980 1.574 . S
C972 C988 1.368 . S
H973 C981 0.950 . S
H974 C979 0.950 . S
H975 C980 0.949 . S
H976 C982 0.950 . S
H977 C983 0.950 . S
H978 C984 0.949 . S
C979 H974 0.950 . S
C979 C981 1.327 . S
C979 C985 1.429 . S
C980 C972 1.574 . S
C980 H975 0.949 . S
C980 C986 1.368 . S
C981 C965 1.349 . S
C981 H973 0.950 . S
C981 C979 1.327 . S
C982 C970 1.349 . S
C982 H976 0.950 . S
C982 C983 1.327 . S
C983 H977 0.950 . S
C983 C982 1.327 . S
C983 C987 1.429 . S
C984 C967 1.574 . S
C984 H978 0.949 . S
C984 C988 1.368 . S
C985 C966 1.429 . S
C985 C979 1.429 . S
C985 C986 1.523 . S
C986 C967 1.368 . S
C986 C980 1.368 . S
C986 C985 1.523 . S
C987 C971 1.429 . S
C987 C983 1.429 . S
C987 C988 1.523 . S
C988 C972 1.368 . S
C988 C984 1.368 . S
C988 C987 1.523 . S
H989 C964 0.950 . S
H990 C966 0.950 . S
H991 C967 0.949 . S
H992 C969 0.950 . S
H993 C971 0.950 . S
C994 C995 1.349 . S
C994 C996 1.327 . S
C994 H1019 0.950 . S
C995 C994 1.349 . S
C995 C1011 1.349 . S
C996 C994 1.327 . S
C996 C1015 1.429 . S
C996 H1020 0.950 . S
C997 C1014 1.574 . S
C997 C1016 1.368 . S
C997 H1021 0.949 . S
H998 C1002 0.949 . S
C999 C1000 1.349 . S
C999 C1001 1.327 . S
C999 H1022 0.950 . S
C1000 C999 1.349 . S
C1000 C1012 1.349 . S
C1001 C999 1.327 . S
C1001 C1017 1.429 . S
C1001 H1023 0.950 . S
C1002 H998 0.949 . S
C1002 C1010 1.574 . S
C1002 C1018 1.368 . S
H1003 C1011 0.950 . S
H1004 C1009 0.950 . S
H1005 C1010 0.949 . S
H1006 C1012 0.950 . S
H1007 C1013 0.950 . S
H1008 C1014 0.949 . S
C1009 H1004 0.950 . S
C1009 C1011 1.327 . S
C1009 C1015 1.429 . S
C1010 C1002 1.574 . S
C1010 H1005 0.949 . S
C1010 C1016 1.368 . S
C1011 C995 1.349 . S
C1011 H1003 0.950 . S
C1011 C1009 1.327 . S
C1012 C1000 1.349 . S
C1012 H1006 0.950 . S
C1012 C1013 1.327 . S
C1013 H1007 0.950 . S
C1013 C1012 1.327 . S
C1013 C1017 1.429 . S
C1014 C997 1.574 . S
C1014 H1008 0.949 . S
C1014 C1018 1.368 . S
C1015 C996 1.429 . S
C1015 C1009 1.429 . S
C1015 C1016 1.523 . S
C1016 C997 1.368 . S
C1016 C1010 1.368 . S
C1016 C1015 1.523 . S
C1017 C1001 1.429 . S
C1017 C1013 1.429 . S
C1017 C1018 1.523 . S
C1018 C1002 1.368 . S
C1018 C1014 1.368 . S
C1018 C1017 1.523 . S
H1019 C994 0.950 . S
H1020 C996 0.950 . S
H1021 C997 0.949 . S
H1022 C999 0.950 . S
H1023 C1001 0.950 . S
C1024 C1025 1.349 . S
C1024 C1026 1.327 . S
C1024 H1049 0.950 . S
C1025 C1024 1.349 . S
C1025 C1041 1.349 . S
C1026 C1024 1.327 . S
C1026 C1045 1.429 . S
C1026 H1050 0.950 . S
C1027 C1044 1.574 . S
C1027 C1046 1.368 . S
C1027 H1051 0.949 . S
H1028 C1032 0.949 . S
C1029 C1030 1.349 . S
C1029 C1031 1.327 . S
C1029 H1052 0.950 . S
C1030 C1029 1.349 . S
C1030 C1042 1.349 . S
C1031 C1029 1.327 . S
C1031 C1047 1.429 . S
C1031 H1053 0.950 . S
C1032 H1028 0.949 . S
C1032 C1040 1.574 . S
C1032 C1048 1.368 . S
H1033 C1041 0.950 . S
H1034 C1039 0.950 . S
H1035 C1040 0.949 . S
H1036 C1042 0.950 . S
H1037 C1043 0.950 . S
H1038 C1044 0.949 . S
C1039 H1034 0.950 . S
C1039 C1041 1.327 . S
C1039 C1045 1.429 . S
C1040 C1032 1.574 . S
C1040 H1035 0.949 . S
C1040 C1046 1.368 . S
C1041 C1025 1.349 . S
C1041 H1033 0.950 . S
C1041 C1039 1.327 . S
C1042 C1030 1.349 . S
C1042 H1036 0.950 . S
C1042 C1043 1.327 . S
C1043 H1037 0.950 . S
C1043 C1042 1.327 . S
C1043 C1047 1.429 . S
C1044 C1027 1.574 . S
C1044 H1038 0.949 . S
C1044 C1048 1.368 . S
C1045 C1026 1.429 . S
C1045 C1039 1.429 . S
C1045 C1046 1.523 . S
C1046 C1027 1.368 . S
C1046 C1040 1.368 . S
C1046 C1045 1.523 . S
C1047 C1031 1.429 . S
C1047 C1043 1.429 . S
C1047 C1048 1.523 . S
C1048 C1032 1.368 . S
C1048 C1044 1.368 . S
C1048 C1047 1.523 . S
H1049 C1024 0.950 . S
H1050 C1026 0.950 . S
H1051 C1027 0.949 . S
H1052 C1029 0.950 . S
H1053 C1031 0.950 . S
C1054 C1055 1.349 . S
C1054 C1056 1.327 . S
C1054 H1079 0.950 . S
C1055 C1054 1.349 . S
C1055 C1071 1.349 . S
C1056 C1054 1.327 . S
C1056 C1075 1.429 . S
C1056 H1080 0.950 . S
C1057 C1074 1.574 . S
C1057 C1076 1.368 . S
C1057 H1081 0.949 1_565 S
H1058 C1062 0.949 . S
C1059 C1060 1.349 . S
C1059 C1061 1.327 . S
C1059 H1082 0.950 . S
C1060 C1059 1.349 . S
C1060 C1072 1.349 . S
C1061 C1059 1.327 . S
C1061 C1077 1.429 . S
C1061 H1083 0.950 . S
C1062 H1058 0.949 . S
C1062 C1070 1.574 . S
C1062 C1078 1.368 . S
H1063 C1071 0.950 . S
H1064 C1069 0.950 . S
H1065 C1070 0.949 . S
H1066 C1072 0.950 . S
H1067 C1073 0.950 . S
H1068 C1074 0.949 . S
C1069 H1064 0.950 . S
C1069 C1071 1.327 . S
C1069 C1075 1.429 . S
C1070 C1062 1.574 . S
C1070 H1065 0.949 . S
C1070 C1076 1.368 . S
C1071 C1055 1.349 . S
C1071 H1063 0.950 . S
C1071 C1069 1.327 . S
C1072 C1060 1.349 . S
C1072 H1066 0.950 . S
C1072 C1073 1.327 . S
C1073 H1067 0.950 . S
C1073 C1072 1.327 . S
C1073 C1077 1.429 . S
C1074 C1057 1.574 . S
C1074 H1068 0.949 . S
C1074 C1078 1.368 . S
C1075 C1056 1.429 . S
C1075 C1069 1.429 . S
C1075 C1076 1.524 1_545 S
C1076 C1057 1.368 . S
C1076 C1070 1.368 . S
C1076 C1075 1.524 1_565 S
C1077 C1061 1.429 . S
C1077 C1073 1.429 . S
C1077 C1078 1.523 . S
C1078 C1062 1.368 . S
C1078 C1074 1.368 . S
C1078 C1077 1.523 . S
H1079 C1054 0.950 . S
H1080 C1056 0.950 . S
H1081 C1057 0.949 1_545 S
H1082 C1059 0.950 . S
H1083 C1061 0.950 . S
C1084 C1085 1.349 . S
C1084 C1086 1.327 . S
C1084 H1109 0.950 . S
C1085 C1084 1.349 . S
C1085 C1101 1.349 . S
C1086 C1084 1.327 . S
C1086 C1105 1.429 . S
C1086 H1110 0.950 . S
C1087 C1104 1.574 . S
C1087 C1106 1.368 1_556 S
C1087 H1111 0.949 . S
H1088 C1092 0.949 . S
C1089 C1090 1.349 . S
C1089 C1091 1.327 . S
C1089 H1112 0.950 . S
C1090 C1089 1.349 . S
C1090 C1102 1.349 . S
C1091 C1089 1.327 . S
C1091 C1107 1.429 . S
C1091 H1113 0.950 . S
C1092 H1088 0.949 . S
C1092 C1100 1.574 . S
C1092 C1108 1.368 1_554 S
H1093 C1101 0.950 . S
H1094 C1099 0.950 1_556 S
H1095 C1100 0.949 . S
H1096 C1102 0.950 . S
H1097 C1103 0.950 1_554 S
H1098 C1104 0.949 . S
C1099 H1094 0.950 1_554 S
C1099 C1101 1.327 . S
C1099 C1105 1.429 . S
C1100 C1092 1.574 . S
C1100 H1095 0.949 . S
C1100 C1106 1.368 . S
C1101 C1085 1.349 . S
C1101 H1093 0.950 . S
C1101 C1099 1.327 . S
C1102 C1090 1.349 . S
C1102 H1096 0.950 . S
C1102 C1103 1.327 . S
C1103 H1097 0.950 1_556 S
C1103 C1102 1.327 . S
C1103 C1107 1.429 . S
C1104 C1087 1.574 . S
C1104 H1098 0.949 . S
C1104 C1108 1.368 . S
C1105 C1086 1.429 . S
C1105 C1099 1.429 . S
C1105 C1106 1.523 . S
C1106 C1087 1.368 1_554 S
C1106 C1100 1.368 . S
C1106 C1105 1.523 . S
C1107 C1091 1.429 . S
C1107 C1103 1.429 . S
C1107 C1108 1.523 . S
C1108 C1092 1.368 1_556 S
C1108 C1104 1.368 . S
C1108 C1107 1.523 . S
H1109 C1084 0.950 . S
H1110 C1086 0.950 . S
H1111 C1087 0.949 . S
H1112 C1089 0.950 . S
H1113 C1091 0.950 . S
C1114 C1115 1.349 . S
C1114 C1116 1.327 . S
C1114 H1139 0.950 . S
C1115 C1114 1.349 . S
C1115 C1131 1.349 . S
C1116 C1114 1.327 . S
C1116 C1135 1.429 . S
C1116 H1140 0.950 . S
C1117 C1134 1.574 . S
C1117 C1136 1.368 . S
C1117 H1141 0.949 1_545 S
H1118 C1122 0.949 . S
C1119 C1120 1.349 . S
C1119 C1121 1.327 . S
C1119 H1142 0.950 . S
C1120 C1119 1.349 . S
C1120 C1132 1.349 . S
C1121 C1119 1.327 . S
C1121 C1137 1.429 . S
C1121 H1143 0.950 . S
C1122 H1118 0.949 . S
C1122 C1130 1.574 . S
C1122 C1138 1.368 . S
H1123 C1131 0.950 . S
H1124 C1129 0.950 . S
H1125 C1130 0.949 . S
H1126 C1132 0.950 . S
H1127 C1133 0.950 . S
H1128 C1134 0.949 . S
C1129 H1124 0.950 . S
C1129 C1131 1.327 . S
C1129 C1135 1.429 . S
C1130 C1122 1.574 . S
C1130 H1125 0.949 . S
C1130 C1136 1.368 . S
C1131 C1115 1.349 . S
C1131 H1123 0.950 . S
C1131 C1129 1.327 . S
C1132 C1120 1.349 . S
C1132 H1126 0.950 . S
C1132 C1133 1.327 . S
C1133 H1127 0.950 . S
C1133 C1132 1.327 . S
C1133 C1137 1.429 . S
C1134 C1117 1.574 . S
C1134 H1128 0.949 . S
C1134 C1138 1.368 . S
C1135 C1116 1.429 . S
C1135 C1129 1.429 . S
C1135 C1136 1.524 1_565 S
C1136 C1117 1.368 . S
C1136 C1130 1.368 . S
C1136 C1135 1.524 1_545 S
C1137 C1121 1.429 . S
C1137 C1133 1.429 . S
C1137 C1138 1.523 . S
C1138 C1122 1.368 . S
C1138 C1134 1.368 . S
C1138 C1137 1.523 . S
H1139 C1114 0.950 . S
H1140 C1116 0.950 . S
H1141 C1117 0.949 1_565 S
H1142 C1119 0.950 . S
H1143 C1121 0.950 . S
C1144 C1145 1.349 . S
C1144 C1146 1.327 . S
C1144 H1169 0.950 . S
C1145 C1144 1.349 . S
C1145 C1161 1.349 . S
C1146 C1144 1.327 . S
C1146 C1165 1.429 . S
C1146 H1170 0.950 . S
C1147 C1164 1.574 . S
C1147 C1166 1.368 . S
C1147 H1171 0.949 . S
H1148 C1152 0.949 . S
C1149 C1150 1.349 . S
C1149 C1151 1.327 . S
C1149 H1172 0.950 . S
C1150 C1149 1.349 . S
C1150 C1162 1.349 . S
C1151 C1149 1.327 . S
C1151 C1167 1.429 . S
C1151 H1173 0.950 . S
C1152 H1148 0.949 . S
C1152 C1160 1.574 . S
C1152 C1168 1.368 . S
H1153 C1161 0.950 . S
H1154 C1159 0.950 . S
H1155 C1160 0.949 . S
H1156 C1162 0.950 . S
H1157 C1163 0.950 . S
H1158 C1164 0.949 . S
C1159 H1154 0.950 . S
C1159 C1161 1.327 . S
C1159 C1165 1.429 . S
C1160 C1152 1.574 . S
C1160 H1155 0.949 . S
C1160 C1166 1.368 . S
C1161 C1145 1.349 . S
C1161 H1153 0.950 . S
C1161 C1159 1.327 . S
C1162 C1150 1.349 . S
C1162 H1156 0.950 . S
C1162 C1163 1.327 . S
C1163 H1157 0.950 . S
C1163 C1162 1.327 . S
C1163 C1167 1.429 . S
C1164 C1147 1.574 . S
C1164 H1158 0.949 . S
C1164 C1168 1.368 . S
C1165 C1146 1.429 . S
C1165 C1159 1.429 . S
C1165 C1166 1.523 . S
C1166 C1147 1.368 . S
C1166 C1160 1.368 . S
C1166 C1165 1.523 . S
C1167 C1151 1.429 . S
C1167 C1163 1.429 . S
C1167 C1168 1.523 . S
C1168 C1152 1.368 . S
C1168 C1164 1.368 . S
C1168 C1167 1.523 . S
H1169 C1144 0.950 . S
H1170 C1146 0.950 . S
H1171 C1147 0.949 . S
H1172 C1149 0.950 . S
H1173 C1151 0.950 . S
C1174 C1175 1.349 . S
C1174 C1176 1.327 . S
C1174 H1199 0.950 . S
C1175 C1174 1.349 . S
C1175 C1191 1.349 . S
C1176 C1174 1.327 . S
C1176 C1195 1.429 . S
C1176 H1200 0.950 . S
C1177 C1194 1.574 1_545 S
C1177 C1196 1.368 . S
C1177 H1201 0.949 . S
H1178 C1182 0.949 . S
C1179 C1180 1.349 . S
C1179 C1181 1.327 . S
C1179 H1202 0.950 . S
C1180 C1179 1.349 . S
C1180 C1192 1.349 . S
C1181 C1179 1.327 . S
C1181 C1197 1.429 . S
C1181 H1203 0.950 . S
C1182 H1178 0.949 . S
C1182 C1190 1.574 . S
C1182 C1198 1.368 . S
H1183 C1191 0.950 . S
H1184 C1189 0.950 . S
H1185 C1190 0.949 . S
H1186 C1192 0.950 . S
H1187 C1193 0.950 . S
H1188 C1194 0.949 . S
C1189 H1184 0.950 . S
C1189 C1191 1.327 . S
C1189 C1195 1.429 . S
C1190 C1182 1.574 . S
C1190 H1185 0.949 . S
C1190 C1196 1.368 . S
C1191 C1175 1.349 . S
C1191 H1183 0.950 . S
C1191 C1189 1.327 . S
C1192 C1180 1.349 . S
C1192 H1186 0.950 . S
C1192 C1193 1.327 . S
C1193 H1187 0.950 . S
C1193 C1192 1.327 . S
C1193 C1197 1.429 . S
C1194 C1177 1.574 1_565 S
C1194 H1188 0.949 . S
C1194 C1198 1.368 1_565 S
C1195 C1176 1.429 . S
C1195 C1189 1.429 . S
C1195 C1196 1.523 . S
C1196 C1177 1.368 . S
C1196 C1190 1.368 . S
C1196 C1195 1.523 . S
C1197 C1181 1.429 . S
C1197 C1193 1.429 . S
C1197 C1198 1.524 1_565 S
C1198 C1182 1.368 . S
C1198 C1194 1.368 1_545 S
C1198 C1197 1.524 1_545 S
H1199 C1174 0.950 . S
H1200 C1176 0.950 . S
H1201 C1177 0.949 . S
H1202 C1179 0.950 . S
H1203 C1181 0.950 . S
C1204 C1205 1.349 . S
C1204 C1206 1.327 . S
C1204 H1229 0.950 . S
C1205 C1204 1.349 . S
C1205 C1221 1.349 . S
C1206 C1204 1.327 . S
C1206 C1225 1.429 . S
C1206 H1230 0.950 . S
C1207 C1224 1.574 . S
C1207 C1226 1.368 1_556 S
C1207 H1231 0.949 . S
H1208 C1212 0.949 . S
C1209 C1210 1.349 . S
C1209 C1211 1.327 . S
C1209 H1232 0.950 . S
C1210 C1209 1.349 . S
C1210 C1222 1.349 . S
C1211 C1209 1.327 . S
C1211 C1227 1.429 . S
C1211 H1233 0.950 . S
C1212 H1208 0.949 . S
C1212 C1220 1.574 . S
C1212 C1228 1.368 1_554 S
H1213 C1221 0.950 . S
H1214 C1219 0.950 1_556 S
H1215 C1220 0.949 . S
H1216 C1222 0.950 . S
H1217 C1223 0.950 1_554 S
H1218 C1224 0.949 . S
C1219 H1214 0.950 1_554 S
C1219 C1221 1.327 . S
C1219 C1225 1.429 . S
C1220 C1212 1.574 . S
C1220 H1215 0.949 . S
C1220 C1226 1.368 . S
C1221 C1205 1.349 . S
C1221 H1213 0.950 . S
C1221 C1219 1.327 . S
C1222 C1210 1.349 . S
C1222 H1216 0.950 . S
C1222 C1223 1.327 . S
C1223 H1217 0.950 1_556 S
C1223 C1222 1.327 . S
C1223 C1227 1.429 . S
C1224 C1207 1.574 . S
C1224 H1218 0.949 . S
C1224 C1228 1.368 . S
C1225 C1206 1.429 . S
C1225 C1219 1.429 . S
C1225 C1226 1.523 . S
C1226 C1207 1.368 1_554 S
C1226 C1220 1.368 . S
C1226 C1225 1.523 . S
C1227 C1211 1.429 . S
C1227 C1223 1.429 . S
C1227 C1228 1.523 . S
C1228 C1212 1.368 1_556 S
C1228 C1224 1.368 . S
C1228 C1227 1.523 . S
H1229 C1204 0.950 . S
H1230 C1206 0.950 . S
H1231 C1207 0.949 . S
H1232 C1209 0.950 . S
H1233 C1211 0.950 . S
C1234 C1235 1.349 . S
C1234 C1236 1.327 . S
C1234 H1259 0.950 . S
C1235 C1234 1.349 . S
C1235 C1251 1.349 . S
C1236 C1234 1.327 . S
C1236 C1255 1.429 . S
C1236 H1260 0.950 . S
C1237 C1254 1.574 . S
C1237 C1256 1.368 . S
C1237 H1261 0.949 . S
H1238 C1242 0.949 . S
C1239 C1240 1.349 . S
C1239 C1241 1.327 . S
C1239 H1262 0.950 . S
C1240 C1239 1.349 . S
C1240 C1252 1.349 . S
C1241 C1239 1.327 . S
C1241 C1257 1.429 . S
C1241 H1263 0.950 . S
C1242 H1238 0.949 . S
C1242 C1250 1.574 . S
C1242 C1258 1.368 . S
H1243 C1251 0.950 . S
H1244 C1249 0.950 . S
H1245 C1250 0.949 1_545 S
H1246 C1252 0.950 . S
H1247 C1253 0.950 . S
H1248 C1254 0.949 . S
C1249 H1244 0.950 . S
C1249 C1251 1.327 . S
C1249 C1255 1.429 . S
C1250 C1242 1.574 . S
C1250 H1245 0.949 1_565 S
C1250 C1256 1.368 . S
C1251 C1235 1.349 . S
C1251 H1243 0.950 . S
C1251 C1249 1.327 . S
C1252 C1240 1.349 . S
C1252 H1246 0.950 . S
C1252 C1253 1.327 . S
C1253 H1247 0.950 . S
C1253 C1252 1.327 . S
C1253 C1257 1.429 . S
C1254 C1237 1.574 . S
C1254 H1248 0.949 . S
C1254 C1258 1.368 . S
C1255 C1236 1.429 . S
C1255 C1249 1.429 . S
C1255 C1256 1.524 1_545 S
C1256 C1237 1.368 . S
C1256 C1250 1.368 . S
C1256 C1255 1.524 1_565 S
C1257 C1241 1.429 . S
C1257 C1253 1.429 . S
C1257 C1258 1.523 . S
C1258 C1242 1.368 . S
C1258 C1254 1.368 . S
C1258 C1257 1.523 . S
H1259 C1234 0.950 . S
H1260 C1236 0.950 . S
H1261 C1237 0.949 . S
H1262 C1239 0.950 . S
H1263 C1241 0.950 . S
C1264 C1265 1.349 . S
C1264 C1266 1.327 1_554 S
C1264 H1289 0.950 . S
C1265 C1264 1.349 . S
C1265 C1281 1.349 1_554 S
C1266 C1264 1.327 1_556 S
C1266 C1285 1.429 . S
C1266 H1290 0.950 . S
C1267 C1284 1.574 . S
C1267 C1286 1.368 . S
C1267 H1291 0.949 . S
H1268 C1272 0.949 . S
C1269 C1270 1.349 . S
C1269 C1271 1.327 . S
C1269 H1292 0.950 . S
C1270 C1269 1.349 . S
C1270 C1282 1.349 . S
C1271 C1269 1.327 . S
C1271 C1287 1.429 . S
C1271 H1293 0.950 . S
C1272 H1268 0.949 . S
C1272 C1280 1.574 . S
C1272 C1288 1.368 . S
H1273 C1281 0.950 . S
H1274 C1279 0.950 . S
H1275 C1280 0.949 . S
H1276 C1282 0.950 . S
H1277 C1283 0.950 . S
H1278 C1284 0.949 . S
C1279 H1274 0.950 . S
C1279 C1281 1.327 . S
C1279 C1285 1.429 . S
C1280 C1272 1.574 . S
C1280 H1275 0.949 . S
C1280 C1286 1.368 . S
C1281 C1265 1.349 1_556 S
C1281 H1273 0.950 . S
C1281 C1279 1.327 . S
C1282 C1270 1.349 . S
C1282 H1276 0.950 . S
C1282 C1283 1.327 . S
C1283 H1277 0.950 . S
C1283 C1282 1.327 . S
C1283 C1287 1.429 . S
C1284 C1267 1.574 . S
C1284 H1278 0.949 . S
C1284 C1288 1.368 . S
C1285 C1266 1.429 . S
C1285 C1279 1.429 . S
C1285 C1286 1.523 . S
C1286 C1267 1.368 . S
C1286 C1280 1.368 . S
C1286 C1285 1.523 . S
C1287 C1271 1.429 . S
C1287 C1283 1.429 . S
C1287 C1288 1.523 . S
C1288 C1272 1.368 . S
C1288 C1284 1.368 . S
C1288 C1287 1.523 . S
H1289 C1264 0.950 . S
H1290 C1266 0.950 . S
H1291 C1267 0.949 . S
H1292 C1269 0.950 . S
H1293 C1271 0.950 . S
C1294 C1295 1.349 . S
C1294 C1296 1.327 . S
C1294 H1319 0.950 . S
C1295 C1294 1.349 . S
C1295 C1311 1.349 . S
C1296 C1294 1.327 . S
C1296 C1315 1.429 . S
C1296 H1320 0.950 . S
C1297 C1314 1.574 . S
C1297 C1316 1.368 . S
C1297 H1321 0.949 . S
H1298 C1302 0.949 . S
C1299 C1300 1.349 . S
C1299 C1301 1.327 . S
C1299 H1322 0.950 . S
C1300 C1299 1.349 . S
C1300 C1312 1.349 . S
C1301 C1299 1.327 . S
C1301 C1317 1.429 . S
C1301 H1323 0.950 . S
C1302 H1298 0.949 . S
C1302 C1310 1.574 . S
C1302 C1318 1.368 . S
H1303 C1311 0.950 . S
H1304 C1309 0.950 . S
H1305 C1310 0.949 . S
H1306 C1312 0.950 . S
H1307 C1313 0.950 . S
H1308 C1314 0.949 . S
C1309 H1304 0.950 . S
C1309 C1311 1.327 . S
C1309 C1315 1.429 . S
C1310 C1302 1.574 . S
C1310 H1305 0.949 . S
C1310 C1316 1.368 . S
C1311 C1295 1.349 . S
C1311 H1303 0.950 . S
C1311 C1309 1.327 . S
C1312 C1300 1.349 . S
C1312 H1306 0.950 . S
C1312 C1313 1.327 . S
C1313 H1307 0.950 . S
C1313 C1312 1.327 . S
C1313 C1317 1.429 . S
C1314 C1297 1.574 . S
C1314 H1308 0.949 . S
C1314 C1318 1.368 . S
C1315 C1296 1.429 . S
C1315 C1309 1.429 . S
C1315 C1316 1.523 . S
C1316 C1297 1.368 . S
C1316 C1310 1.368 . S
C1316 C1315 1.523 . S
C1317 C1301 1.429 . S
C1317 C1313 1.429 . S
C1317 C1318 1.523 . S
C1318 C1302 1.368 . S
C1318 C1314 1.368 . S
C1318 C1317 1.523 . S
H1319 C1294 0.950 . S
H1320 C1296 0.950 . S
H1321 C1297 0.949 . S
H1322 C1299 0.950 . S
H1323 C1301 0.950 . S
C1324 C1325 1.349 . S
C1324 C1326 1.327 . S
C1324 H1349 0.950 . S
C1325 C1324 1.349 . S
C1325 C1341 1.349 . S
C1326 C1324 1.327 . S
C1326 C1345 1.429 . S
C1326 H1350 0.950 . S
C1327 C1344 1.574 . S
C1327 C1346 1.368 . S
C1327 H1351 0.949 . S
H1328 C1332 0.949 . S
C1329 C1330 1.349 . S
C1329 C1331 1.327 . S
C1329 H1352 0.950 . S
C1330 C1329 1.349 . S
C1330 C1342 1.349 . S
C1331 C1329 1.327 . S
C1331 C1347 1.429 . S
C1331 H1353 0.950 . S
C1332 H1328 0.949 . S
C1332 C1340 1.574 . S
C1332 C1348 1.368 . S
H1333 C1341 0.950 . S
H1334 C1339 0.950 . S
H1335 C1340 0.949 . S
H1336 C1342 0.950 . S
H1337 C1343 0.950 . S
H1338 C1344 0.949 . S
C1339 H1334 0.950 . S
C1339 C1341 1.327 . S
C1339 C1345 1.429 . S
C1340 C1332 1.574 . S
C1340 H1335 0.949 . S
C1340 C1346 1.368 . S
C1341 C1325 1.349 . S
C1341 H1333 0.950 . S
C1341 C1339 1.327 . S
C1342 C1330 1.349 . S
C1342 H1336 0.950 . S
C1342 C1343 1.327 . S
C1343 H1337 0.950 . S
C1343 C1342 1.327 . S
C1343 C1347 1.429 . S
C1344 C1327 1.574 . S
C1344 H1338 0.949 . S
C1344 C1348 1.368 . S
C1345 C1326 1.429 . S
C1345 C1339 1.429 . S
C1345 C1346 1.523 . S
C1346 C1327 1.368 . S
C1346 C1340 1.368 . S
C1346 C1345 1.523 . S
C1347 C1331 1.429 . S
C1347 C1343 1.429 . S
C1347 C1348 1.523 . S
C1348 C1332 1.368 . S
C1348 C1344 1.368 . S
C1348 C1347 1.523 . S
H1349 C1324 0.950 . S
H1350 C1326 0.950 . S
H1351 C1327 0.949 . S
H1352 C1329 0.950 . S
H1353 C1331 0.950 . S
C1354 C1355 1.349 . S
C1354 C1356 1.327 . S
C1354 H1379 0.950 . S
C1355 C1354 1.349 . S
C1355 C1371 1.349 . S
C1356 C1354 1.327 . S
C1356 C1375 1.429 . S
C1356 H1380 0.950 . S
C1357 C1374 1.574 . S
C1357 C1376 1.368 . S
C1357 H1381 0.949 . S
H1358 C1362 0.949 . S
C1359 C1360 1.349 . S
C1359 C1361 1.327 . S
C1359 H1382 0.950 . S
C1360 C1359 1.349 . S
C1360 C1372 1.349 . S
C1361 C1359 1.327 . S
C1361 C1377 1.429 . S
C1361 H1383 0.950 . S
C1362 H1358 0.949 . S
C1362 C1370 1.574 . S
C1362 C1378 1.368 . S
H1363 C1371 0.950 . S
H1364 C1369 0.950 . S
H1365 C1370 0.949 . S
H1366 C1372 0.950 . S
H1367 C1373 0.950 . S
H1368 C1374 0.949 . S
C1369 H1364 0.950 . S
C1369 C1371 1.327 . S
C1369 C1375 1.429 . S
C1370 C1362 1.574 . S
C1370 H1365 0.949 . S
C1370 C1376 1.368 . S
C1371 C1355 1.349 . S
C1371 H1363 0.950 . S
C1371 C1369 1.327 . S
C1372 C1360 1.349 . S
C1372 H1366 0.950 . S
C1372 C1373 1.327 . S
C1373 H1367 0.950 . S
C1373 C1372 1.327 . S
C1373 C1377 1.429 . S
C1374 C1357 1.574 . S
C1374 H1368 0.949 . S
C1374 C1378 1.368 . S
C1375 C1356 1.429 . S
C1375 C1369 1.429 . S
C1375 C1376 1.523 . S
C1376 C1357 1.368 . S
C1376 C1370 1.368 . S
C1376 C1375 1.523 . S
C1377 C1361 1.429 . S
C1377 C1373 1.429 . S
C1377 C1378 1.523 . S
C1378 C1362 1.368 . S
C1378 C1374 1.368 . S
C1378 C1377 1.523 . S
H1379 C1354 0.950 . S
H1380 C1356 0.950 . S
H1381 C1357 0.949 . S
H1382 C1359 0.950 . S
H1383 C1361 0.950 . S
C1384 C1385 1.349 . S
C1384 C1386 1.327 1_556 S
C1384 H1409 0.950 . S
C1385 C1384 1.349 . S
C1385 C1401 1.349 1_556 S
C1386 C1384 1.327 1_554 S
C1386 C1405 1.429 . S
C1386 H1410 0.950 . S
C1387 C1404 1.574 . S
C1387 C1406 1.368 . S
C1387 H1411 0.949 . S
H1388 C1392 0.949 . S
C1389 C1390 1.349 . S
C1389 C1391 1.327 . S
C1389 H1412 0.950 . S
C1390 C1389 1.349 . S
C1390 C1402 1.349 . S
C1391 C1389 1.327 . S
C1391 C1407 1.429 . S
C1391 H1413 0.950 . S
C1392 H1388 0.949 . S
C1392 C1400 1.574 . S
C1392 C1408 1.368 . S
H1393 C1401 0.950 . S
H1394 C1399 0.950 . S
H1395 C1400 0.949 . S
H1396 C1402 0.950 . S
H1397 C1403 0.950 . S
H1398 C1404 0.949 . S
C1399 H1394 0.950 . S
C1399 C1401 1.327 . S
C1399 C1405 1.429 . S
C1400 C1392 1.574 . S
C1400 H1395 0.949 . S
C1400 C1406 1.368 . S
C1401 C1385 1.349 1_554 S
C1401 H1393 0.950 . S
C1401 C1399 1.327 . S
C1402 C1390 1.349 . S
C1402 H1396 0.950 . S
C1402 C1403 1.327 . S
C1403 H1397 0.950 . S
C1403 C1402 1.327 . S
C1403 C1407 1.429 . S
C1404 C1387 1.574 . S
C1404 H1398 0.949 . S
C1404 C1408 1.368 . S
C1405 C1386 1.429 . S
C1405 C1399 1.429 . S
C1405 C1406 1.523 . S
C1406 C1387 1.368 . S
C1406 C1400 1.368 . S
C1406 C1405 1.523 . S
C1407 C1391 1.429 . S
C1407 C1403 1.429 . S
C1407 C1408 1.523 . S
C1408 C1392 1.368 . S
C1408 C1404 1.368 . S
C1408 C1407 1.523 . S
H1409 C1384 0.950 . S
H1410 C1386 0.950 . S
H1411 C1387 0.949 . S
H1412 C1389 0.950 . S
H1413 C1391 0.950 . S
C1414 C1415 1.349 . S
C1414 C1416 1.327 . S
C1414 H1439 0.950 . S
C1415 C1414 1.349 . S
C1415 C1431 1.349 . S
C1416 C1414 1.327 . S
C1416 C1435 1.429 . S
C1416 H1440 0.950 . S
C1417 C1434 1.574 . S
C1417 C1436 1.368 . S
C1417 H1441 0.949 . S
H1418 C1422 0.949 . S
C1419 C1420 1.349 . S
C1419 C1421 1.327 . S
C1419 H1442 0.950 . S
C1420 C1419 1.349 . S
C1420 C1432 1.349 . S
C1421 C1419 1.327 . S
C1421 C1437 1.429 . S
C1421 H1443 0.950 . S
C1422 H1418 0.949 . S
C1422 C1430 1.574 . S
C1422 C1438 1.368 . S
H1423 C1431 0.950 . S
H1424 C1429 0.950 . S
H1425 C1430 0.949 . S
H1426 C1432 0.950 . S
H1427 C1433 0.950 . S
H1428 C1434 0.949 . S
C1429 H1424 0.950 . S
C1429 C1431 1.327 . S
C1429 C1435 1.429 . S
C1430 C1422 1.574 . S
C1430 H1425 0.949 . S
C1430 C1436 1.368 . S
C1431 C1415 1.349 . S
C1431 H1423 0.950 . S
C1431 C1429 1.327 . S
C1432 C1420 1.349 . S
C1432 H1426 0.950 . S
C1432 C1433 1.327 . S
C1433 H1427 0.950 . S
C1433 C1432 1.327 . S
C1433 C1437 1.429 . S
C1434 C1417 1.574 . S
C1434 H1428 0.949 . S
C1434 C1438 1.368 . S
C1435 C1416 1.429 . S
C1435 C1429 1.429 . S
C1435 C1436 1.523 . S
C1436 C1417 1.368 . S
C1436 C1430 1.368 . S
C1436 C1435 1.523 . S
C1437 C1421 1.429 . S
C1437 C1433 1.429 . S
C1437 C1438 1.523 . S
C1438 C1422 1.368 . S
C1438 C1434 1.368 . S
C1438 C1437 1.523 . S
H1439 C1414 0.950 . S
H1440 C1416 0.950 . S
H1441 C1417 0.949 . S
H1442 C1419 0.950 . S
H1443 C1421 0.950 . S
C1444 C1445 1.349 . S
C1444 C1446 1.327 . S
C1444 H1469 0.950 . S
C1445 C1444 1.349 . S
C1445 C1461 1.349 . S
C1446 C1444 1.327 . S
C1446 C1465 1.429 . S
C1446 H1470 0.950 . S
C1447 C1464 1.574 . S
C1447 C1466 1.368 . S
C1447 H1471 0.949 . S
H1448 C1452 0.949 . S
C1449 C1450 1.349 . S
C1449 C1451 1.327 . S
C1449 H1472 0.950 . S
C1450 C1449 1.349 . S
C1450 C1462 1.349 . S
C1451 C1449 1.327 . S
C1451 C1467 1.429 . S
C1451 H1473 0.950 . S
C1452 H1448 0.949 . S
C1452 C1460 1.574 . S
C1452 C1468 1.368 . S
H1453 C1461 0.950 . S
H1454 C1459 0.950 . S
H1455 C1460 0.949 . S
H1456 C1462 0.950 . S
H1457 C1463 0.950 . S
H1458 C1464 0.949 . S
C1459 H1454 0.950 . S
C1459 C1461 1.327 . S
C1459 C1465 1.429 . S
C1460 C1452 1.574 . S
C1460 H1455 0.949 . S
C1460 C1466 1.368 . S
C1461 C1445 1.349 . S
C1461 H1453 0.950 . S
C1461 C1459 1.327 . S
C1462 C1450 1.349 . S
C1462 H1456 0.950 . S
C1462 C1463 1.327 . S
C1463 H1457 0.950 . S
C1463 C1462 1.327 . S
C1463 C1467 1.429 . S
C1464 C1447 1.574 . S
C1464 H1458 0.949 . S
C1464 C1468 1.368 . S
C1465 C1446 1.429 . S
C1465 C1459 1.429 . S
C1465 C1466 1.523 . S
C1466 C1447 1.368 . S
C1466 C1460 1.368 . S
C1466 C1465 1.523 . S
C1467 C1451 1.429 . S
C1467 C1463 1.429 . S
C1467 C1468 1.523 . S
C1468 C1452 1.368 . S
C1468 C1464 1.368 . S
C1468 C1467 1.523 . S
H1469 C1444 0.950 . S
H1470 C1446 0.950 . S
H1471 C1447 0.949 . S
H1472 C1449 0.950 . S
H1473 C1451 0.950 . S
C1474 C1475 1.349 . S
C1474 C1476 1.327 . S
C1474 H1499 0.950 . S
C1475 C1474 1.349 . S
C1475 C1491 1.349 . S
C1476 C1474 1.327 . S
C1476 C1495 1.429 . S
C1476 H1500 0.950 . S
C1477 C1494 1.574 . S
C1477 C1496 1.368 . S
C1477 H1501 0.949 . S
H1478 C1482 0.949 . S
C1479 C1480 1.349 . S
C1479 C1481 1.327 . S
C1479 H1502 0.950 . S
C1480 C1479 1.349 . S
C1480 C1492 1.349 . S
C1481 C1479 1.327 . S
C1481 C1497 1.429 . S
C1481 H1503 0.950 . S
C1482 H1478 0.949 . S
C1482 C1490 1.574 . S
C1482 C1498 1.368 . S
H1483 C1491 0.950 . S
H1484 C1489 0.950 . S
H1485 C1490 0.949 . S
H1486 C1492 0.950 . S
H1487 C1493 0.950 . S
H1488 C1494 0.949 . S
C1489 H1484 0.950 . S
C1489 C1491 1.327 . S
C1489 C1495 1.429 . S
C1490 C1482 1.574 . S
C1490 H1485 0.949 . S
C1490 C1496 1.368 . S
C1491 C1475 1.349 . S
C1491 H1483 0.950 . S
C1491 C1489 1.327 . S
C1492 C1480 1.349 . S
C1492 H1486 0.950 . S
C1492 C1493 1.327 . S
C1493 H1487 0.950 . S
C1493 C1492 1.327 . S
C1493 C1497 1.429 . S
C1494 C1477 1.574 . S
C1494 H1488 0.949 . S
C1494 C1498 1.368 . S
C1495 C1476 1.429 . S
C1495 C1489 1.429 . S
C1495 C1496 1.523 . S
C1496 C1477 1.368 . S
C1496 C1490 1.368 . S
C1496 C1495 1.523 . S
C1497 C1481 1.429 . S
C1497 C1493 1.429 . S
C1497 C1498 1.523 . S
C1498 C1482 1.368 . S
C1498 C1494 1.368 . S
C1498 C1497 1.523 . S
H1499 C1474 0.950 . S
H1500 C1476 0.950 . S
H1501 C1477 0.949 . S
H1502 C1479 0.950 . S
H1503 C1481 0.950 . S
C1504 C1505 1.349 . S
C1504 C1506 1.327 . S
C1504 H1529 0.950 . S
C1505 C1504 1.349 . S
C1505 C1521 1.349 . S
C1506 C1504 1.327 . S
C1506 C1525 1.429 . S
C1506 H1530 0.950 . S
C1507 C1524 1.574 . S
C1507 C1526 1.368 . S
C1507 H1531 0.949 . S
H1508 C1512 0.949 . S
C1509 C1510 1.349 . S
C1509 C1511 1.327 . S
C1509 H1532 0.950 . S
C1510 C1509 1.349 . S
C1510 C1522 1.349 . S
C1511 C1509 1.327 . S
C1511 C1527 1.429 . S
C1511 H1533 0.950 . S
C1512 H1508 0.949 . S
C1512 C1520 1.574 . S
C1512 C1528 1.368 . S
H1513 C1521 0.950 . S
H1514 C1519 0.950 . S
H1515 C1520 0.949 . S
H1516 C1522 0.950 . S
H1517 C1523 0.950 . S
H1518 C1524 0.949 . S
C1519 H1514 0.950 . S
C1519 C1521 1.327 . S
C1519 C1525 1.429 . S
C1520 C1512 1.574 . S
C1520 H1515 0.949 . S
C1520 C1526 1.368 . S
C1521 C1505 1.349 . S
C1521 H1513 0.950 . S
C1521 C1519 1.327 . S
C1522 C1510 1.349 . S
C1522 H1516 0.950 . S
C1522 C1523 1.327 . S
C1523 H1517 0.950 . S
C1523 C1522 1.327 . S
C1523 C1527 1.429 . S
C1524 C1507 1.574 . S
C1524 H1518 0.949 . S
C1524 C1528 1.368 . S
C1525 C1506 1.429 . S
C1525 C1519 1.429 . S
C1525 C1526 1.523 . S
C1526 C1507 1.368 . S
C1526 C1520 1.368 . S
C1526 C1525 1.523 . S
C1527 C1511 1.429 . S
C1527 C1523 1.429 . S
C1527 C1528 1.523 . S
C1528 C1512 1.368 . S
C1528 C1524 1.368 . S
C1528 C1527 1.523 . S
H1529 C1504 0.950 . S
H1530 C1506 0.950 . S
H1531 C1507 0.949 . S
H1532 C1509 0.950 . S
H1533 C1511 0.950 . S
C1534 C1535 1.349 . S
C1534 C1536 1.327 . S
C1534 H1559 0.950 . S
C1535 C1534 1.349 . S
C1535 C1551 1.349 . S
C1536 C1534 1.327 . S
C1536 C1555 1.429 . S
C1536 H1560 0.950 . S
C1537 C1554 1.574 . S
C1537 C1556 1.368 . S
C1537 H1561 0.949 . S
H1538 C1542 0.949 . S
C1539 C1540 1.349 . S
C1539 C1541 1.327 . S
C1539 H1562 0.950 . S
C1540 C1539 1.349 . S
C1540 C1552 1.349 . S
C1541 C1539 1.327 . S
C1541 C1557 1.429 . S
C1541 H1563 0.950 . S
C1542 H1538 0.949 . S
C1542 C1550 1.574 . S
C1542 C1558 1.368 . S
H1543 C1551 0.950 . S
H1544 C1549 0.950 . S
H1545 C1550 0.949 . S
H1546 C1552 0.950 . S
H1547 C1553 0.950 . S
H1548 C1554 0.949 . S
C1549 H1544 0.950 . S
C1549 C1551 1.327 . S
C1549 C1555 1.429 . S
C1550 C1542 1.574 . S
C1550 H1545 0.949 . S
C1550 C1556 1.368 . S
C1551 C1535 1.349 . S
C1551 H1543 0.950 . S
C1551 C1549 1.327 . S
C1552 C1540 1.349 . S
C1552 H1546 0.950 . S
C1552 C1553 1.327 . S
C1553 H1547 0.950 . S
C1553 C1552 1.327 . S
C1553 C1557 1.429 . S
C1554 C1537 1.574 . S
C1554 H1548 0.949 . S
C1554 C1558 1.368 . S
C1555 C1536 1.429 . S
C1555 C1549 1.429 . S
C1555 C1556 1.523 . S
C1556 C1537 1.368 . S
C1556 C1550 1.368 . S
C1556 C1555 1.523 . S
C1557 C1541 1.429 . S
C1557 C1553 1.429 . S
C1557 C1558 1.523 . S
C1558 C1542 1.368 . S
C1558 C1554 1.368 . S
C1558 C1557 1.523 . S
H1559 C1534 0.950 . S
H1560 C1536 0.950 . S
H1561 C1537 0.949 . S
H1562 C1539 0.950 . S
H1563 C1541 0.950 . S
C1564 C1565 1.349 . S
C1564 C1566 1.327 . S
C1564 H1589 0.950 . S
C1565 C1564 1.349 . S
C1565 C1581 1.349 . S
C1566 C1564 1.327 . S
C1566 C1585 1.429 . S
C1566 H1590 0.950 . S
C1567 C1584 1.574 . S
C1567 C1586 1.368 . S
C1567 H1591 0.949 . S
H1568 C1572 0.949 . S
C1569 C1570 1.349 . S
C1569 C1571 1.327 1_554 S
C1569 H1592 0.950 . S
C1570 C1569 1.349 . S
C1570 C1582 1.349 1_554 S
C1571 C1569 1.327 1_556 S
C1571 C1587 1.429 . S
C1571 H1593 0.950 . S
C1572 H1568 0.949 . S
C1572 C1580 1.574 . S
C1572 C1588 1.368 . S
H1573 C1581 0.950 . S
H1574 C1579 0.950 . S
H1575 C1580 0.949 . S
H1576 C1582 0.950 . S
H1577 C1583 0.950 . S
H1578 C1584 0.949 . S
C1579 H1574 0.950 . S
C1579 C1581 1.327 . S
C1579 C1585 1.429 . S
C1580 C1572 1.574 . S
C1580 H1575 0.949 . S
C1580 C1586 1.368 . S
C1581 C1565 1.349 . S
C1581 H1573 0.950 . S
C1581 C1579 1.327 . S
C1582 C1570 1.349 1_556 S
C1582 H1576 0.950 . S
C1582 C1583 1.327 . S
C1583 H1577 0.950 . S
C1583 C1582 1.327 . S
C1583 C1587 1.429 . S
C1584 C1567 1.574 . S
C1584 H1578 0.949 . S
C1584 C1588 1.368 . S
C1585 C1566 1.429 . S
C1585 C1579 1.429 . S
C1585 C1586 1.523 . S
C1586 C1567 1.368 . S
C1586 C1580 1.368 . S
C1586 C1585 1.523 . S
C1587 C1571 1.429 . S
C1587 C1583 1.429 . S
C1587 C1588 1.523 . S
C1588 C1572 1.368 . S
C1588 C1584 1.368 . S
C1588 C1587 1.523 . S
H1589 C1564 0.950 . S
H1590 C1566 0.950 . S
H1591 C1567 0.949 . S
H1592 C1569 0.950 . S
H1593 C1571 0.950 . S
C1594 C1595 1.349 . S
C1594 C1596 1.327 . S
C1594 H1619 0.950 . S
C1595 C1594 1.349 . S
C1595 C1611 1.349 . S
C1596 C1594 1.327 . S
C1596 C1615 1.429 . S
C1596 H1620 0.950 . S
C1597 C1614 1.574 . S
C1597 C1616 1.368 . S
C1597 H1621 0.949 . S
H1598 C1602 0.949 . S
C1599 C1600 1.349 . S
C1599 C1601 1.327 . S
C1599 H1622 0.950 . S
C1600 C1599 1.349 . S
C1600 C1612 1.349 . S
C1601 C1599 1.327 . S
C1601 C1617 1.429 . S
C1601 H1623 0.950 . S
C1602 H1598 0.949 . S
C1602 C1610 1.574 . S
C1602 C1618 1.368 . S
H1603 C1611 0.950 . S
H1604 C1609 0.950 . S
H1605 C1610 0.949 . S
H1606 C1612 0.950 . S
H1607 C1613 0.950 . S
H1608 C1614 0.949 . S
C1609 H1604 0.950 . S
C1609 C1611 1.327 . S
C1609 C1615 1.429 . S
C1610 C1602 1.574 . S
C1610 H1605 0.949 . S
C1610 C1616 1.368 . S
C1611 C1595 1.349 . S
C1611 H1603 0.950 . S
C1611 C1609 1.327 . S
C1612 C1600 1.349 . S
C1612 H1606 0.950 . S
C1612 C1613 1.327 . S
C1613 H1607 0.950 . S
C1613 C1612 1.327 . S
C1613 C1617 1.429 . S
C1614 C1597 1.574 . S
C1614 H1608 0.949 . S
C1614 C1618 1.368 . S
C1615 C1596 1.429 . S
C1615 C1609 1.429 . S
C1615 C1616 1.523 . S
C1616 C1597 1.368 . S
C1616 C1610 1.368 . S
C1616 C1615 1.523 . S
C1617 C1601 1.429 . S
C1617 C1613 1.429 . S
C1617 C1618 1.523 . S
C1618 C1602 1.368 . S
C1618 C1614 1.368 . S
C1618 C1617 1.523 . S
H1619 C1594 0.950 . S
H1620 C1596 0.950 . S
H1621 C1597 0.949 . S
H1622 C1599 0.950 . S
H1623 C1601 0.950 . S
C1624 C1625 1.349 . S
C1624 C1626 1.327 . S
C1624 H1649 0.950 . S
C1625 C1624 1.349 . S
C1625 C1641 1.349 . S
C1626 C1624 1.327 . S
C1626 C1645 1.429 . S
C1626 H1650 0.950 . S
C1627 C1644 1.574 . S
C1627 C1646 1.368 . S
C1627 H1651 0.949 . S
H1628 C1632 0.949 . S
C1629 C1630 1.349 . S
C1629 C1631 1.327 . S
C1629 H1652 0.950 . S
C1630 C1629 1.349 . S
C1630 C1642 1.349 . S
C1631 C1629 1.327 . S
C1631 C1647 1.429 . S
C1631 H1653 0.950 . S
C1632 H1628 0.949 . S
C1632 C1640 1.574 . S
C1632 C1648 1.368 . S
H1633 C1641 0.950 . S
H1634 C1639 0.950 . S
H1635 C1640 0.949 . S
H1636 C1642 0.950 . S
H1637 C1643 0.950 . S
H1638 C1644 0.949 . S
C1639 H1634 0.950 . S
C1639 C1641 1.327 . S
C1639 C1645 1.429 . S
C1640 C1632 1.574 . S
C1640 H1635 0.949 . S
C1640 C1646 1.368 . S
C1641 C1625 1.349 . S
C1641 H1633 0.950 . S
C1641 C1639 1.327 . S
C1642 C1630 1.349 . S
C1642 H1636 0.950 . S
C1642 C1643 1.327 . S
C1643 H1637 0.950 . S
C1643 C1642 1.327 . S
C1643 C1647 1.429 . S
C1644 C1627 1.574 . S
C1644 H1638 0.949 . S
C1644 C1648 1.368 . S
C1645 C1626 1.429 . S
C1645 C1639 1.429 . S
C1645 C1646 1.523 . S
C1646 C1627 1.368 . S
C1646 C1640 1.368 . S
C1646 C1645 1.523 . S
C1647 C1631 1.429 . S
C1647 C1643 1.429 . S
C1647 C1648 1.523 . S
C1648 C1632 1.368 . S
C1648 C1644 1.368 . S
C1648 C1647 1.523 . S
H1649 C1624 0.950 . S
H1650 C1626 0.950 . S
H1651 C1627 0.949 . S
H1652 C1629 0.950 . S
H1653 C1631 0.950 . S
C1654 C1655 1.349 . S
C1654 C1656 1.327 . S
C1654 H1679 0.950 . S
C1655 C1654 1.349 . S
C1655 C1671 1.349 . S
C1656 C1654 1.327 . S
C1656 C1675 1.429 . S
C1656 H1680 0.950 . S
C1657 C1674 1.574 . S
C1657 C1676 1.368 . S
C1657 H1681 0.949 . S
H1658 C1662 0.949 . S
C1659 C1660 1.349 . S
C1659 C1661 1.327 . S
C1659 H1682 0.950 . S
C1660 C1659 1.349 . S
C1660 C1672 1.349 . S
C1661 C1659 1.327 . S
C1661 C1677 1.429 . S
C1661 H1683 0.950 . S
C1662 H1658 0.949 . S
C1662 C1670 1.574 . S
C1662 C1678 1.368 . S
H1663 C1671 0.950 . S
H1664 C1669 0.950 . S
H1665 C1670 0.949 . S
H1666 C1672 0.950 . S
H1667 C1673 0.950 . S
H1668 C1674 0.949 . S
C1669 H1664 0.950 . S
C1669 C1671 1.327 . S
C1669 C1675 1.429 . S
C1670 C1662 1.574 . S
C1670 H1665 0.949 . S
C1670 C1676 1.368 . S
C1671 C1655 1.349 . S
C1671 H1663 0.950 . S
C1671 C1669 1.327 . S
C1672 C1660 1.349 . S
C1672 H1666 0.950 . S
C1672 C1673 1.327 . S
C1673 H1667 0.950 . S
C1673 C1672 1.327 . S
C1673 C1677 1.429 . S
C1674 C1657 1.574 . S
C1674 H1668 0.949 . S
C1674 C1678 1.368 . S
C1675 C1656 1.429 . S
C1675 C1669 1.429 . S
C1675 C1676 1.523 . S
C1676 C1657 1.368 . S
C1676 C1670 1.368 . S
C1676 C1675 1.523 . S
C1677 C1661 1.429 . S
C1677 C1673 1.429 . S
C1677 C1678 1.523 . S
C1678 C1662 1.368 . S
C1678 C1674 1.368 . S
C1678 C1677 1.523 . S
H1679 C1654 0.950 . S
H1680 C1656 0.950 . S
H1681 C1657 0.949 . S
H1682 C1659 0.950 . S
H1683 C1661 0.950 . S
C1684 C1685 1.349 1_554 S
C1684 C1686 1.327 . S
C1684 H1709 0.950 . S
C1685 C1684 1.349 1_556 S
C1685 C1701 1.349 . S
C1686 C1684 1.327 . S
C1686 C1705 1.429 . S
C1686 H1710 0.950 . S
C1687 C1704 1.574 . S
C1687 C1706 1.368 . S
C1687 H1711 0.949 . S
H1688 C1692 0.949 . S
C1689 C1690 1.349 . S
C1689 C1691 1.327 . S
C1689 H1712 0.950 . S
C1690 C1689 1.349 . S
C1690 C1702 1.349 . S
C1691 C1689 1.327 . S
C1691 C1707 1.429 . S
C1691 H1713 0.950 . S
C1692 H1688 0.949 . S
C1692 C1700 1.574 . S
C1692 C1708 1.368 . S
H1693 C1701 0.950 . S
H1694 C1699 0.950 . S
H1695 C1700 0.949 . S
H1696 C1702 0.950 . S
H1697 C1703 0.950 . S
H1698 C1704 0.949 . S
C1699 H1694 0.950 . S
C1699 C1701 1.327 1_554 S
C1699 C1705 1.429 . S
C1700 C1692 1.574 . S
C1700 H1695 0.949 . S
C1700 C1706 1.368 . S
C1701 C1685 1.349 . S
C1701 H1693 0.950 . S
C1701 C1699 1.327 1_556 S
C1702 C1690 1.349 . S
C1702 H1696 0.950 . S
C1702 C1703 1.327 . S
C1703 H1697 0.950 . S
C1703 C1702 1.327 . S
C1703 C1707 1.429 . S
C1704 C1687 1.574 . S
C1704 H1698 0.949 . S
C1704 C1708 1.368 . S
C1705 C1686 1.429 . S
C1705 C1699 1.429 . S
C1705 C1706 1.523 . S
C1706 C1687 1.368 . S
C1706 C1700 1.368 . S
C1706 C1705 1.523 . S
C1707 C1691 1.429 . S
C1707 C1703 1.429 . S
C1707 C1708 1.523 . S
C1708 C1692 1.368 . S
C1708 C1704 1.368 . S
C1708 C1707 1.523 . S
H1709 C1684 0.950 . S
H1710 C1686 0.950 . S
H1711 C1687 0.949 . S
H1712 C1689 0.950 . S
H1713 C1691 0.950 . S
C1714 C1715 1.349 . S
C1714 C1716 1.327 . S
C1714 H1739 0.950 . S
C1715 C1714 1.349 . S
C1715 C1731 1.349 . S
C1716 C1714 1.327 . S
C1716 C1735 1.429 . S
C1716 H1740 0.950 . S
C1717 C1734 1.574 . S
C1717 C1736 1.368 . S
C1717 H1741 0.949 . S
H1718 C1722 0.949 . S
C1719 C1720 1.349 . S
C1719 C1721 1.327 . S
C1719 H1742 0.950 . S
C1720 C1719 1.349 . S
C1720 C1732 1.349 . S
C1721 C1719 1.327 . S
C1721 C1737 1.429 . S
C1721 H1743 0.950 . S
C1722 H1718 0.949 . S
C1722 C1730 1.574 . S
C1722 C1738 1.368 . S
H1723 C1731 0.950 . S
H1724 C1729 0.950 . S
H1725 C1730 0.949 . S
H1726 C1732 0.950 . S
H1727 C1733 0.950 . S
H1728 C1734 0.949 . S
C1729 H1724 0.950 . S
C1729 C1731 1.327 . S
C1729 C1735 1.429 . S
C1730 C1722 1.574 . S
C1730 H1725 0.949 . S
C1730 C1736 1.368 . S
C1731 C1715 1.349 . S
C1731 H1723 0.950 . S
C1731 C1729 1.327 . S
C1732 C1720 1.349 . S
C1732 H1726 0.950 . S
C1732 C1733 1.327 . S
C1733 H1727 0.950 . S
C1733 C1732 1.327 . S
C1733 C1737 1.429 . S
C1734 C1717 1.574 . S
C1734 H1728 0.949 . S
C1734 C1738 1.368 . S
C1735 C1716 1.429 . S
C1735 C1729 1.429 . S
C1735 C1736 1.523 . S
C1736 C1717 1.368 . S
C1736 C1730 1.368 . S
C1736 C1735 1.523 . S
C1737 C1721 1.429 . S
C1737 C1733 1.429 . S
C1737 C1738 1.523 . S
C1738 C1722 1.368 . S
C1738 C1734 1.368 . S
C1738 C1737 1.523 . S
H1739 C1714 0.950 . S
H1740 C1716 0.950 . S
H1741 C1717 0.949 . S
H1742 C1719 0.950 . S
H1743 C1721 0.950 . S
C1744 C1745 1.349 . S
C1744 C1746 1.327 . S
C1744 H1769 0.950 . S
C1745 C1744 1.349 . S
C1745 C1761 1.349 . S
C1746 C1744 1.327 . S
C1746 C1765 1.429 . S
C1746 H1770 0.950 . S
C1747 C1764 1.574 . S
C1747 C1766 1.368 . S
C1747 H1771 0.949 . S
H1748 C1752 0.949 . S
C1749 C1750 1.349 . S
C1749 C1751 1.327 . S
C1749 H1772 0.950 . S
C1750 C1749 1.349 . S
C1750 C1762 1.349 . S
C1751 C1749 1.327 . S
C1751 C1767 1.429 . S
C1751 H1773 0.950 . S
C1752 H1748 0.949 . S
C1752 C1760 1.574 . S
C1752 C1768 1.368 . S
H1753 C1761 0.950 . S
H1754 C1759 0.950 . S
H1755 C1760 0.949 . S
H1756 C1762 0.950 . S
H1757 C1763 0.950 . S
H1758 C1764 0.949 . S
C1759 H1754 0.950 . S
C1759 C1761 1.327 . S
C1759 C1765 1.429 . S
C1760 C1752 1.574 . S
C1760 H1755 0.949 . S
C1760 C1766 1.368 . S
C1761 C1745 1.349 . S
C1761 H1753 0.950 . S
C1761 C1759 1.327 . S
C1762 C1750 1.349 . S
C1762 H1756 0.950 . S
C1762 C1763 1.327 . S
C1763 H1757 0.950 . S
C1763 C1762 1.327 . S
C1763 C1767 1.429 . S
C1764 C1747 1.574 . S
C1764 H1758 0.949 . S
C1764 C1768 1.368 . S
C1765 C1746 1.429 . S
C1765 C1759 1.429 . S
C1765 C1766 1.523 . S
C1766 C1747 1.368 . S
C1766 C1760 1.368 . S
C1766 C1765 1.523 . S
C1767 C1751 1.429 . S
C1767 C1763 1.429 . S
C1767 C1768 1.523 . S
C1768 C1752 1.368 . S
C1768 C1764 1.368 . S
C1768 C1767 1.523 . S
H1769 C1744 0.950 . S
H1770 C1746 0.950 . S
H1771 C1747 0.949 . S
H1772 C1749 0.950 . S
H1773 C1751 0.950 . S
C1774 C1775 1.349 . S
C1774 C1776 1.327 . S
C1774 H1799 0.950 . S
C1775 C1774 1.349 . S
C1775 C1791 1.349 . S
C1776 C1774 1.327 . S
C1776 C1795 1.429 . S
C1776 H1800 0.950 . S
C1777 C1794 1.574 . S
C1777 C1796 1.368 . S
C1777 H1801 0.949 . S
H1778 C1782 0.949 . S
C1779 C1780 1.349 . S
C1779 C1781 1.327 . S
C1779 H1802 0.950 . S
C1780 C1779 1.349 . S
C1780 C1792 1.349 . S
C1781 C1779 1.327 . S
C1781 C1797 1.429 . S
C1781 H1803 0.950 . S
C1782 H1778 0.949 . S
C1782 C1790 1.574 . S
C1782 C1798 1.368 . S
H1783 C1791 0.950 . S
H1784 C1789 0.950 . S
H1785 C1790 0.949 . S
H1786 C1792 0.950 . S
H1787 C1793 0.950 . S
H1788 C1794 0.949 . S
C1789 H1784 0.950 . S
C1789 C1791 1.327 . S
C1789 C1795 1.429 . S
C1790 C1782 1.574 . S
C1790 H1785 0.949 . S
C1790 C1796 1.368 . S
C1791 C1775 1.349 . S
C1791 H1783 0.950 . S
C1791 C1789 1.327 . S
C1792 C1780 1.349 . S
C1792 H1786 0.950 . S
C1792 C1793 1.327 . S
C1793 H1787 0.950 . S
C1793 C1792 1.327 . S
C1793 C1797 1.429 . S
C1794 C1777 1.574 . S
C1794 H1788 0.949 . S
C1794 C1798 1.368 . S
C1795 C1776 1.429 . S
C1795 C1789 1.429 . S
C1795 C1796 1.523 . S
C1796 C1777 1.368 . S
C1796 C1790 1.368 . S
C1796 C1795 1.523 . S
C1797 C1781 1.429 . S
C1797 C1793 1.429 . S
C1797 C1798 1.523 . S
C1798 C1782 1.368 . S
C1798 C1794 1.368 . S
C1798 C1797 1.523 . S
H1799 C1774 0.950 . S
H1800 C1776 0.950 . S
H1801 C1777 0.949 . S
H1802 C1779 0.950 . S
H1803 C1781 0.950 . S
C1804 C1805 1.349 . S
C1804 C1806 1.327 . S
C1804 H1829 0.950 . S
C1805 C1804 1.349 . S
C1805 C1821 1.349 . S
C1806 C1804 1.327 . S
C1806 C1825 1.429 . S
C1806 H1830 0.950 . S
C1807 C1824 1.574 . S
C1807 C1826 1.368 . S
C1807 H1831 0.949 . S
H1808 C1812 0.949 . S
C1809 C1810 1.349 . S
C1809 C1811 1.327 . S
C1809 H1832 0.950 . S
C1810 C1809 1.349 . S
C1810 C1822 1.349 . S
C1811 C1809 1.327 . S
C1811 C1827 1.429 . S
C1811 H1833 0.950 . S
C1812 H1808 0.949 . S
C1812 C1820 1.574 . S
C1812 C1828 1.368 . S
H1813 C1821 0.950 . S
H1814 C1819 0.950 . S
H1815 C1820 0.949 . S
H1816 C1822 0.950 . S
H1817 C1823 0.950 . S
H1818 C1824 0.949 . S
C1819 H1814 0.950 . S
C1819 C1821 1.327 . S
C1819 C1825 1.429 . S
C1820 C1812 1.574 . S
C1820 H1815 0.949 . S
C1820 C1826 1.368 . S
C1821 C1805 1.349 . S
C1821 H1813 0.950 . S
C1821 C1819 1.327 . S
C1822 C1810 1.349 . S
C1822 H1816 0.950 . S
C1822 C1823 1.327 . S
C1823 H1817 0.950 . S
C1823 C1822 1.327 . S
C1823 C1827 1.429 . S
C1824 C1807 1.574 . S
C1824 H1818 0.949 . S
C1824 C1828 1.368 . S
C1825 C1806 1.429 . S
C1825 C1819 1.429 . S
C1825 C1826 1.523 . S
C1826 C1807 1.368 . S
C1826 C1820 1.368 . S
C1826 C1825 1.523 . S
C1827 C1811 1.429 . S
C1827 C1823 1.429 . S
C1827 C1828 1.523 . S
C1828 C1812 1.368 . S
C1828 C1824 1.368 . S
C1828 C1827 1.523 . S
H1829 C1804 0.950 . S
H1830 C1806 0.950 . S
H1831 C1807 0.949 . S
H1832 C1809 0.950 . S
H1833 C1811 0.950 . S
C1834 C1835 1.349 . S
C1834 C1836 1.327 . S
C1834 H1859 0.950 . S
C1835 C1834 1.349 . S
C1835 C1851 1.349 . S
C1836 C1834 1.327 . S
C1836 C1855 1.429 . S
C1836 H1860 0.950 . S
C1837 C1854 1.574 1_455 S
C1837 C1856 1.368 1_556 S
C1837 H1861 0.949 . S
H1838 C1842 0.949 . S
C1839 C1840 1.349 . S
C1839 C1841 1.327 . S
C1839 H1862 0.950 . S
C1840 C1839 1.349 . S
C1840 C1852 1.349 . S
C1841 C1839 1.327 . S
C1841 C1857 1.429 . S
C1841 H1863 0.950 . S
C1842 H1838 0.949 . S
C1842 C1850 1.574 1_655 S
C1842 C1858 1.368 1_554 S
H1843 C1851 0.950 . S
H1844 C1849 0.950 . S
H1845 C1850 0.949 . S
H1846 C1852 0.950 . S
H1847 C1853 0.950 . S
H1848 C1854 0.949 . S
C1849 H1844 0.950 . S
C1849 C1851 1.327 . S
C1849 C1855 1.429 . S
C1850 C1842 1.574 1_455 S
C1850 H1845 0.949 . S
C1850 C1856 1.368 . S
C1851 C1835 1.349 . S
C1851 H1843 0.950 . S
C1851 C1849 1.327 . S
C1852 C1840 1.349 . S
C1852 H1846 0.950 . S
C1852 C1853 1.327 . S
C1853 H1847 0.950 . S
C1853 C1852 1.327 . S
C1853 C1857 1.429 . S
C1854 C1837 1.574 1_655 S
C1854 H1848 0.949 . S
C1854 C1858 1.368 . S
C1855 C1836 1.429 . S
C1855 C1849 1.429 . S
C1855 C1856 1.523 . S
C1856 C1837 1.368 1_554 S
C1856 C1850 1.368 . S
C1856 C1855 1.523 . S
C1857 C1841 1.429 . S
C1857 C1853 1.429 . S
C1857 C1858 1.523 . S
C1858 C1842 1.368 1_556 S
C1858 C1854 1.368 . S
C1858 C1857 1.523 . S
H1859 C1834 0.950 . S
H1860 C1836 0.950 . S
H1861 C1837 0.949 . S
H1862 C1839 0.950 . S
H1863 C1841 0.950 . S
C1864 C1865 1.349 . S
C1864 C1866 1.327 . S
C1864 H1889 0.950 . S
C1865 C1864 1.349 . S
C1865 C1881 1.349 . S
C1866 C1864 1.327 . S
C1866 C1885 1.429 . S
C1866 H1890 0.950 . S
C1867 C1884 1.574 . S
C1867 C1886 1.368 . S
C1867 H1891 0.949 . S
H1868 C1872 0.949 . S
C1869 C1870 1.349 . S
C1869 C1871 1.327 . S
C1869 H1892 0.950 . S
C1870 C1869 1.349 . S
C1870 C1882 1.349 . S
C1871 C1869 1.327 . S
C1871 C1887 1.429 . S
C1871 H1893 0.950 . S
C1872 H1868 0.949 . S
C1872 C1880 1.574 . S
C1872 C1888 1.368 . S
H1873 C1881 0.950 . S
H1874 C1879 0.950 . S
H1875 C1880 0.949 . S
H1876 C1882 0.950 . S
H1877 C1883 0.950 . S
H1878 C1884 0.949 . S
C1879 H1874 0.950 . S
C1879 C1881 1.327 . S
C1879 C1885 1.429 . S
C1880 C1872 1.574 . S
C1880 H1875 0.949 . S
C1880 C1886 1.368 . S
C1881 C1865 1.349 . S
C1881 H1873 0.950 . S
C1881 C1879 1.327 . S
C1882 C1870 1.349 . S
C1882 H1876 0.950 . S
C1882 C1883 1.327 . S
C1883 H1877 0.950 . S
C1883 C1882 1.327 . S
C1883 C1887 1.429 . S
C1884 C1867 1.574 . S
C1884 H1878 0.949 . S
C1884 C1888 1.368 . S
C1885 C1866 1.429 . S
C1885 C1879 1.429 . S
C1885 C1886 1.523 . S
C1886 C1867 1.368 . S
C1886 C1880 1.368 . S
C1886 C1885 1.523 . S
C1887 C1871 1.429 . S
C1887 C1883 1.429 . S
C1887 C1888 1.523 . S
C1888 C1872 1.368 . S
C1888 C1884 1.368 . S
C1888 C1887 1.523 . S
H1889 C1864 0.950 . S
H1890 C1866 0.950 . S
H1891 C1867 0.949 . S
H1892 C1869 0.950 . S
H1893 C1871 0.950 . S
C1894 C1895 1.349 . S
C1894 C1896 1.327 . S
C1894 H1919 0.950 . S
C1895 C1894 1.349 . S
C1895 C1911 1.349 . S
C1896 C1894 1.327 . S
C1896 C1915 1.429 . S
C1896 H1920 0.950 . S
C1897 C1914 1.574 . S
C1897 C1916 1.368 . S
C1897 H1921 0.949 . S
H1898 C1902 0.949 . S
C1899 C1900 1.349 . S
C1899 C1901 1.327 . S
C1899 H1922 0.950 . S
C1900 C1899 1.349 . S
C1900 C1912 1.349 . S
C1901 C1899 1.327 . S
C1901 C1917 1.429 . S
C1901 H1923 0.950 . S
C1902 H1898 0.949 . S
C1902 C1910 1.574 . S
C1902 C1918 1.368 . S
H1903 C1911 0.950 . S
H1904 C1909 0.950 . S
H1905 C1910 0.949 . S
H1906 C1912 0.950 . S
H1907 C1913 0.950 . S
H1908 C1914 0.949 . S
C1909 H1904 0.950 . S
C1909 C1911 1.327 . S
C1909 C1915 1.429 . S
C1910 C1902 1.574 . S
C1910 H1905 0.949 . S
C1910 C1916 1.368 . S
C1911 C1895 1.349 . S
C1911 H1903 0.950 . S
C1911 C1909 1.327 . S
C1912 C1900 1.349 . S
C1912 H1906 0.950 . S
C1912 C1913 1.327 . S
C1913 H1907 0.950 . S
C1913 C1912 1.327 . S
C1913 C1917 1.429 . S
C1914 C1897 1.574 . S
C1914 H1908 0.949 . S
C1914 C1918 1.368 . S
C1915 C1896 1.429 . S
C1915 C1909 1.429 . S
C1915 C1916 1.523 . S
C1916 C1897 1.368 . S
C1916 C1910 1.368 . S
C1916 C1915 1.523 . S
C1917 C1901 1.429 . S
C1917 C1913 1.429 . S
C1917 C1918 1.523 . S
C1918 C1902 1.368 . S
C1918 C1914 1.368 . S
C1918 C1917 1.523 . S
H1919 C1894 0.950 . S
H1920 C1896 0.950 . S
H1921 C1897 0.949 . S
H1922 C1899 0.950 . S
H1923 C1901 0.950 . S
C1924 C1925 1.349 . S
C1924 C1926 1.327 . S
C1924 H1949 0.950 . S
C1925 C1924 1.349 . S
C1925 C1941 1.349 . S
C1926 C1924 1.327 . S
C1926 C1945 1.429 . S
C1926 H1950 0.950 . S
C1927 C1944 1.574 1_455 S
C1927 C1946 1.368 1_554 S
C1927 H1951 0.949 . S
H1928 C1932 0.949 . S
C1929 C1930 1.349 . S
C1929 C1931 1.327 . S
C1929 H1952 0.950 . S
C1930 C1929 1.349 . S
C1930 C1942 1.349 . S
C1931 C1929 1.327 . S
C1931 C1947 1.429 . S
C1931 H1953 0.950 . S
C1932 H1928 0.949 . S
C1932 C1940 1.574 1_655 S
C1932 C1948 1.368 1_556 S
H1933 C1941 0.950 . S
H1934 C1939 0.950 . S
H1935 C1940 0.949 . S
H1936 C1942 0.950 . S
H1937 C1943 0.950 . S
H1938 C1944 0.949 . S
C1939 H1934 0.950 . S
C1939 C1941 1.327 . S
C1939 C1945 1.429 . S
C1940 C1932 1.574 1_455 S
C1940 H1935 0.949 . S
C1940 C1946 1.368 1_565 S
C1941 C1925 1.349 . S
C1941 H1933 0.950 . S
C1941 C1939 1.327 . S
C1942 C1930 1.349 . S
C1942 H1936 0.950 . S
C1942 C1943 1.327 . S
C1943 H1937 0.950 . S
C1943 C1942 1.327 . S
C1943 C1947 1.429 . S
C1944 C1927 1.574 1_655 S
C1944 H1938 0.949 . S
C1944 C1948 1.368 1_545 S
C1945 C1926 1.429 . S
C1945 C1939 1.429 . S
C1945 C1946 1.523 . S
C1946 C1927 1.368 1_556 S
C1946 C1940 1.368 1_545 S
C1946 C1945 1.523 . S
C1947 C1931 1.429 . S
C1947 C1943 1.429 . S
C1947 C1948 1.523 . S
C1948 C1932 1.368 1_554 S
C1948 C1944 1.368 1_565 S
C1948 C1947 1.523 . S
H1949 C1924 0.950 . S
H1950 C1926 0.950 . S
H1951 C1927 0.949 . S
H1952 C1929 0.950 . S
H1953 C1931 0.950 . S
C1954 C1955 1.349 . S
C1954 C1956 1.327 . S
C1954 H1979 0.950 . S
C1955 C1954 1.349 . S
C1955 C1971 1.349 . S
C1956 C1954 1.327 . S
C1956 C1975 1.429 . S
C1956 H1980 0.950 . S
C1957 C1974 1.574 1_545 S
C1957 C1976 1.368 . S
C1957 H1981 0.949 . S
H1958 C1962 0.949 . S
C1959 C1960 1.349 . S
C1959 C1961 1.327 . S
C1959 H1982 0.950 . S
C1960 C1959 1.349 . S
C1960 C1972 1.349 . S
C1961 C1959 1.327 . S
C1961 C1977 1.429 . S
C1961 H1983 0.950 . S
C1962 H1958 0.949 . S
C1962 C1970 1.574 1_565 S
C1962 C1978 1.368 . S
H1963 C1971 0.950 . S
H1964 C1969 0.950 . S
H1965 C1970 0.949 . S
H1966 C1972 0.950 . S
H1967 C1973 0.950 . S
H1968 C1974 0.949 . S
C1969 H1964 0.950 . S
C1969 C1971 1.327 . S
C1969 C1975 1.429 . S
C1970 C1962 1.574 1_545 S
C1970 H1965 0.949 . S
C1970 C1976 1.368 . S
C1971 C1955 1.349 . S
C1971 H1963 0.950 . S
C1971 C1969 1.327 . S
C1972 C1960 1.349 . S
C1972 H1966 0.950 . S
C1972 C1973 1.327 . S
C1973 H1967 0.950 . S
C1973 C1972 1.327 . S
C1973 C1977 1.429 . S
C1974 C1957 1.574 1_565 S
C1974 H1968 0.949 . S
C1974 C1978 1.368 . S
C1975 C1956 1.429 . S
C1975 C1969 1.429 . S
C1975 C1976 1.523 . S
C1976 C1957 1.368 . S
C1976 C1970 1.368 . S
C1976 C1975 1.523 . S
C1977 C1961 1.429 . S
C1977 C1973 1.429 . S
C1977 C1978 1.523 . S
C1978 C1962 1.368 . S
C1978 C1974 1.368 . S
C1978 C1977 1.523 . S
H1979 C1954 0.950 . S
H1980 C1956 0.950 . S
H1981 C1957 0.949 . S
H1982 C1959 0.950 . S
H1983 C1961 0.950 . S
C545 C17 1.720 . S
C550 C357 1.720 . S
C575 C51 1.720 . S
C580 C391 1.720 . S
C605 C85 1.720 . S
C610 C289 1.720 . S
C635 C119 1.720 . S
C640 C323 1.720 . S
C665 C144 1.720 . S
C670 C484 1.720 . S
C695 C178 1.720 . S
C700 C518 1.720 . S
C725 C212 1.720 . S
C730 C416 1.720 . S
C755 C246 1.720 . S
C760 C450 1.720 . S
C785 C310 0.922 . S
C790 C8 0.934 . S
C815 C344 0.922 . S
C820 C42 0.934 . S
C845 C378 0.922 . S
C850 C76 0.934 . S
C875 C276 0.922 . S
C880 C110 0.934 . S
C905 C153 0.934 . S
C910 C455 0.922 . S
C935 C489 0.922 . S
C940 C187 0.934 . S
C965 C523 0.922 . S
C970 C221 0.934 . S
C995 C421 0.922 . S
C1000 C255 0.934 . S
C1025 C38 0.922 . S
C1030 C280 0.934 . S
C1055 C314 0.934 . S
C1060 C72 0.922 . S
C1085 C348 0.934 . S
C1090 C106 0.922 . S
C1115 C382 0.934 . S
C1120 C4 0.922 . S
C1145 C425 0.934 . S
C1150 C183 0.922 . S
C1175 C217 0.922 . S
C1180 C459 0.934 . S
C1205 C251 0.922 . S
C1210 C493 0.934 . S
C1235 C527 0.934 . S
C1240 C149 0.922 . S
C1265 C29 0.998 . S
C1270 C514 0.979 . S
C1295 C63 0.998 . S
C1300 C140 0.979 . S
C1325 C446 0.979 . S
C1330 C97 0.998 . S
C1355 C208 0.979 . S
C1360 C131 0.998 . S
C1385 C136 0.998 . S
C1390 C387 0.979 . S
C1415 C170 0.998 . S
C1420 C13 0.979 . S
C1445 C319 0.979 . S
C1450 C204 0.998 . S
C1475 C81 0.979 . S
C1480 C238 0.998 . S
C1505 C301 0.998 . S
C1510 C242 0.979 . S
C1535 C335 0.998 . S
C1540 C412 0.979 . S
C1565 C174 0.979 . S
C1570 C369 0.998 . S
C1595 C480 0.979 . S
C1600 C403 0.998 . S
C1625 C408 0.998 . S
C1630 C115 0.979 . S
C1655 C442 0.998 . S
C1660 C285 0.979 . S
C1685 C476 0.998 . S
C1690 C47 0.979 . S
C1715 C353 0.979 . S
C1720 C510 0.998 . S
C1745 C0 2.147 . S
C1750 C437 2.147 . S
C1775 C34 2.147 . S
C1780 C199 2.147 . S
C1805 C68 2.147 . S
C1810 C505 2.147 . S
C1835 C267 2.147 . S
C1840 C102 2.147 . S
C1865 C165 2.147 . S
C1870 C272 2.147 . S
C1895 C340 2.147 . S
C1900 C233 2.147 . S
C1925 C306 2.147 . S
C1930 C471 2.147 . S
C1955 C539 2.147 . S
C1960 C374 2.147 . S
