# Generated by pormake.
# Topology yfc, (5)-cn, num edge types: 1
# Building blocks:
#     Node 0, Type 0, BuildingBlock: XOMCOT_clean_sbu_0, # of connection points: 5
#     Node 1, Type 0, BuildingBlock: XOMCOT_clean_sbu_0, # of connection points: 5
#     Node 2, Type 0, BuildingBlock: XOMCOT_clean_sbu_0, # of connection points: 5
#     Node 3, Type 0, BuildingBlock: XOMCOT_clean_sbu_0, # of connection points: 5
#     Node 4, Type 0, BuildingBlock: XOMCOT_clean_sbu_0, # of connection points: 5
#     Node 5, Type 0, BuildingBlock: XOMCOT_clean_sbu_0, # of connection points: 5
#     Node 6, Type 0, BuildingBlock: XOMCOT_clean_sbu_0, # of connection points: 5
#     Node 7, Type 0, BuildingBlock: XOMCOT_clean_sbu_0, # of connection points: 5
#     Node 8, Type 0, BuildingBlock: XOMCOT_clean_sbu_0, # of connection points: 5
#     Node 9, Type 0, BuildingBlock: XOMCOT_clean_sbu_0, # of connection points: 5
#     Node 10, Type 0, BuildingBlock: XOMCOT_clean_sbu_0, # of connection points: 5
#     Node 11, Type 0, BuildingBlock: XOMCOT_clean_sbu_0, # of connection points: 5
#     Node 12, Type 0, BuildingBlock: XOMCOT_clean_sbu_0, # of connection points: 5
#     Node 13, Type 0, BuildingBlock: XOMCOT_clean_sbu_0, # of connection points: 5
#     Node 14, Type 0, BuildingBlock: XOMCOT_clean_sbu_0, # of connection points: 5
#     Node 15, Type 0, BuildingBlock: XOMCOT_clean_sbu_0, # of connection points: 5
#     Edge 16, Type (0, 0), BuildingBlock: AJUNOK_clean_linker_0, # of connection points: 2
#     Edge 17, Type (0, 0), BuildingBlock: AJUNOK_clean_linker_0, # of connection points: 2
#     Edge 18, Type (0, 0), BuildingBlock: AJUNOK_clean_linker_0, # of connection points: 2
#     Edge 19, Type (0, 0), BuildingBlock: AJUNOK_clean_linker_0, # of connection points: 2
#     Edge 20, Type (0, 0), BuildingBlock: AJUNOK_clean_linker_0, # of connection points: 2
#     Edge 21, Type (0, 0), BuildingBlock: AJUNOK_clean_linker_0, # of connection points: 2
#     Edge 22, Type (0, 0), BuildingBlock: AJUNOK_clean_linker_0, # of connection points: 2
#     Edge 23, Type (0, 0), BuildingBlock: AJUNOK_clean_linker_0, # of connection points: 2
#     Edge 24, Type (0, 0), BuildingBlock: AJUNOK_clean_linker_0, # of connection points: 2
#     Edge 25, Type (0, 0), BuildingBlock: AJUNOK_clean_linker_0, # of connection points: 2
#     Edge 26, Type (0, 0), BuildingBlock: AJUNOK_clean_linker_0, # of connection points: 2
#     Edge 27, Type (0, 0), BuildingBlock: AJUNOK_clean_linker_0, # of connection points: 2
#     Edge 28, Type (0, 0), BuildingBlock: AJUNOK_clean_linker_0, # of connection points: 2
#     Edge 29, Type (0, 0), BuildingBlock: AJUNOK_clean_linker_0, # of connection points: 2
#     Edge 30, Type (0, 0), BuildingBlock: AJUNOK_clean_linker_0, # of connection points: 2
#     Edge 31, Type (0, 0), BuildingBlock: AJUNOK_clean_linker_0, # of connection points: 2
#     Edge 32, Type (0, 0), BuildingBlock: AJUNOK_clean_linker_0, # of connection points: 2
#     Edge 33, Type (0, 0), BuildingBlock: AJUNOK_clean_linker_0, # of connection points: 2
#     Edge 34, Type (0, 0), BuildingBlock: AJUNOK_clean_linker_0, # of connection points: 2
#     Edge 35, Type (0, 0), BuildingBlock: AJUNOK_clean_linker_0, # of connection points: 2
#     Edge 36, Type (0, 0), BuildingBlock: AJUNOK_clean_linker_0, # of connection points: 2
#     Edge 37, Type (0, 0), BuildingBlock: AJUNOK_clean_linker_0, # of connection points: 2
#     Edge 38, Type (0, 0), BuildingBlock: AJUNOK_clean_linker_0, # of connection points: 2
#     Edge 39, Type (0, 0), BuildingBlock: AJUNOK_clean_linker_0, # of connection points: 2
#     Edge 40, Type (0, 0), BuildingBlock: AJUNOK_clean_linker_0, # of connection points: 2
#     Edge 41, Type (0, 0), BuildingBlock: AJUNOK_clean_linker_0, # of connection points: 2
#     Edge 42, Type (0, 0), BuildingBlock: AJUNOK_clean_linker_0, # of connection points: 2
#     Edge 43, Type (0, 0), BuildingBlock: AJUNOK_clean_linker_0, # of connection points: 2
#     Edge 44, Type (0, 0), BuildingBlock: AJUNOK_clean_linker_0, # of connection points: 2
#     Edge 45, Type (0, 0), BuildingBlock: AJUNOK_clean_linker_0, # of connection points: 2
#     Edge 46, Type (0, 0), BuildingBlock: AJUNOK_clean_linker_0, # of connection points: 2
#     Edge 47, Type (0, 0), BuildingBlock: AJUNOK_clean_linker_0, # of connection points: 2
#     Edge 48, Type (0, 0), BuildingBlock: AJUNOK_clean_linker_0, # of connection points: 2
#     Edge 49, Type (0, 0), BuildingBlock: AJUNOK_clean_linker_0, # of connection points: 2
#     Edge 50, Type (0, 0), BuildingBlock: AJUNOK_clean_linker_0, # of connection points: 2
#     Edge 51, Type (0, 0), BuildingBlock: AJUNOK_clean_linker_0, # of connection points: 2
#     Edge 52, Type (0, 0), BuildingBlock: AJUNOK_clean_linker_0, # of connection points: 2
#     Edge 53, Type (0, 0), BuildingBlock: AJUNOK_clean_linker_0, # of connection points: 2
#     Edge 54, Type (0, 0), BuildingBlock: AJUNOK_clean_linker_0, # of connection points: 2
#     Edge 55, Type (0, 0), BuildingBlock: AJUNOK_clean_linker_0, # of connection points: 2
# Relax obj value: 0.559
# Max RMSD: 0.289
# Mean RMSD: 0.271
data_MOF--net-yfc--node1-XOMCOT_clean_sbu_0--edge1-AJUNOK_clean_linker_0
_symmetry_space_group_name_H-M    P1
_symmetry_Int_Tables_number       1
_symmetry_cell_setting            triclinic
loop_
_symmetry_equiv_pos_as_xyz
'x, y, z'
_cell_length_a     31.532193
_cell_length_b     31.709468
_cell_length_c     35.597109
_cell_angle_alpha  89.792685
_cell_angle_beta   89.77056
_cell_angle_gamma 90.035523
loop_
_atom_site_label
_atom_site_type_symbol
_atom_site_fract_x
_atom_site_fract_y
_atom_site_fract_z
_atom_type_partial_charge
Co0 Co 0.7191 0.0539 0.25143 0.0
C1 C 0.73324 0.14009 0.21895 0.0
C2 C 0.68415 0.13775 0.26088 0.0
C3 C 0.68882 0.17864 0.24945 0.0
N4 N 0.71157 0.11342 0.2416 0.0
N5 N 0.71967 0.18038 0.22314 0.0
H6 H 0.75865 0.13018 0.2005 0.0
H7 H 0.66356 0.12703 0.28332 0.0
C8 C 0.62183 0.0453 0.25047 0.0
O9 O 0.6203 0.03103 0.21596 0.0
N10 N 0.72399 0.9943 0.26385 0.0
C11 C 0.75295 0.97433 0.28531 0.0
C12 C 0.73963 0.93333 0.29131 0.0
C13 C 0.69389 0.96506 0.257 0.0
N14 N 0.70235 0.92772 0.27353 0.0
C15 C 0.73681 0.01045 0.18361 0.0
C16 C 0.69214 0.06224 0.13549 0.0
C17 C 0.71998 0.03219 0.12041 0.0
C18 C 0.74139 0.00532 0.14496 0.0
C19 C 0.68762 0.06574 0.17462 0.0
N20 N 0.71028 0.04031 0.19838 0.0
H21 H 0.75732 0.99216 0.20156 0.0
H22 H 0.66732 0.09022 0.18565 0.0
H23 H 0.78073 0.98874 0.29745 0.0
H24 H 0.66562 0.97118 0.24096 0.0
O25 O 0.77968 0.06054 0.24757 0.0
O26 O 0.74305 0.0696 0.29995 0.0
O27 O 0.65734 0.05171 0.26667 0.0
C28 C 0.77953 0.07207 0.28254 0.0
H29 H 0.67274 0.20553 0.26162 0.0
H30 H 0.75483 0.91044 0.30941 0.0
H31 H 0.67501 0.08362 0.11725 0.0
H32 H 0.76377 0.98226 0.13438 0.0
Co33 Co 0.47636 0.71843 0.75183 0.0
C34 C 0.38973 0.73203 0.72006 0.0
C35 C 0.39099 0.68822 0.76622 0.0
C36 C 0.35017 0.6914 0.75387 0.0
N37 N 0.41596 0.71301 0.74471 0.0
N38 N 0.34935 0.71848 0.7246 0.0
H39 H 0.39982 0.75542 0.69967 0.0
H40 H 0.40147 0.66998 0.79016 0.0
C41 C 0.47875 0.6214 0.75123 0.0
O42 O 0.4962 0.61865 0.71783 0.0
N43 N 0.53727 0.7221 0.76124 0.0
C44 C 0.56176 0.7567 0.76525 0.0
C45 C 0.60336 0.74426 0.77018 0.0
C46 C 0.56436 0.68935 0.76463 0.0
N47 N 0.60502 0.70167 0.77004 0.0
C48 C 0.51422 0.73515 0.68038 0.0
C49 C 0.46158 0.68528 0.6375 0.0
C50 C 0.48894 0.71364 0.6194 0.0
C51 C 0.51594 0.73824 0.64125 0.0
C52 C 0.46038 0.68366 0.67686 0.0
N53 N 0.48663 0.70825 0.69813 0.0
H54 H 0.53298 0.75707 0.69626 0.0
H55 H 0.43661 0.66434 0.69012 0.0
H56 H 0.55062 0.78888 0.76358 0.0
H57 H 0.55455 0.65688 0.76357 0.0
O58 O 0.47105 0.77888 0.74769 0.0
O59 O 0.46412 0.74312 0.80075 0.0
O60 O 0.47568 0.65687 0.76796 0.0
C61 C 0.4612 0.77919 0.78316 0.0
H62 H 0.32276 0.67688 0.76701 0.0
H63 H 0.63009 0.7654 0.77244 0.0
H64 H 0.43961 0.66633 0.62144 0.0
H65 H 0.537 0.76105 0.6282 0.0
Co66 Co 0.78921 0.46701 0.24828 0.0
C67 C 0.77708 0.37986 0.21706 0.0
C68 C 0.82434 0.38379 0.26015 0.0
C69 C 0.82151 0.34281 0.24896 0.0
N70 N 0.79714 0.40731 0.23987 0.0
N71 N 0.7922 0.34017 0.22162 0.0
H72 H 0.75141 0.38846 0.19845 0.0
H73 H 0.84345 0.39513 0.28313 0.0
C74 C 0.8872 0.47245 0.24715 0.0
O75 O 0.89056 0.48421 0.21189 0.0
N76 N 0.78401 0.52698 0.25916 0.0
C77 C 0.75008 0.54961 0.2704 0.0
C78 C 0.76233 0.59121 0.27461 0.0
C79 C 0.81609 0.55508 0.257 0.0
N80 N 0.80398 0.59463 0.26599 0.0
C81 C 0.77035 0.50881 0.17963 0.0
C82 C 0.81607 0.45779 0.1318 0.0
C83 C 0.78752 0.48712 0.11634 0.0
C84 C 0.7655 0.51349 0.14096 0.0
C85 C 0.82048 0.45445 0.17101 0.0
N86 N 0.79743 0.47962 0.19467 0.0
H87 H 0.74954 0.52695 0.19735 0.0
H88 H 0.84082 0.43006 0.18216 0.0
H89 H 0.71863 0.53706 0.27519 0.0
H90 H 0.84812 0.54643 0.25016 0.0
O91 O 0.72845 0.45947 0.24592 0.0
O92 O 0.76654 0.45269 0.2976 0.0
O93 O 0.85094 0.46932 0.26303 0.0
C94 C 0.72972 0.44919 0.28131 0.0
H95 H 0.83744 0.31643 0.26217 0.0
H96 H 0.74207 0.61684 0.28357 0.0
H97 H 0.83312 0.43597 0.11395 0.0
H98 H 0.74304 0.5365 0.13048 0.0
Co99 Co 0.0623 0.79318 0.73571 0.0
C100 C 0.15036 0.77925 0.70761 0.0
C101 C 0.14642 0.82664 0.75044 0.0
C102 C 0.18802 0.82191 0.74053 0.0
N103 N 0.12271 0.80027 0.72966 0.0
N104 N 0.1907 0.79204 0.71377 0.0
H105 H 0.14117 0.75458 0.68838 0.0
H106 H 0.13474 0.84644 0.77283 0.0
C107 C 0.05608 0.89117 0.7421 0.0
O108 O 0.04591 0.89941 0.70713 0.0
N109 N 1.0015 0.78845 0.74353 0.0
C110 C 0.97901 0.7584 0.7617 0.0
C111 C 0.93783 0.7724 0.76614 0.0
C112 C 0.97359 0.81977 0.73682 0.0
N113 N 0.93464 0.81115 0.75062 0.0
C114 C 0.02733 0.77768 0.66421 0.0
C115 C 0.07782 0.83191 0.62273 0.0
C116 C 0.05207 0.80279 0.60395 0.0
C117 C 0.02611 0.77605 0.62511 0.0
C118 C 0.07851 0.8322 0.66219 0.0
N119 N 0.05339 0.8052 0.68251 0.0
H120 H 0.00919 0.75459 0.67984 0.0
H121 H 0.1009 0.85251 0.67622 0.0
H122 H 0.99179 0.72941 0.77296 0.0
H123 H 0.982 0.8492 0.72342 0.0
O124 O 0.06888 0.73267 0.73101 0.0
O125 O 0.07314 0.76786 0.78438 0.0
O126 O 0.0598 0.85325 0.75375 0.0
C127 C 0.07683 0.73201 0.76686 0.0
H128 H 0.21467 0.837 0.75411 0.0
H129 H 0.91316 0.75662 0.78209 0.0
H130 H 0.09876 0.85267 0.60709 0.0
H131 H 1.00617 0.75288 0.6115 0.0
Co132 Co 0.72806 0.45884 0.82626 0.0
C133 C 0.71106 0.366 0.82687 0.0
C134 C 0.66474 0.40159 0.85755 0.0
C135 C 0.65498 0.35964 0.86117 0.0
N136 N 0.69974 0.40572 0.83589 0.0
N137 N 0.6843 0.33742 0.84214 0.0
H138 H 0.73964 0.3577 0.81175 0.0
H139 H 0.64832 0.42735 0.87109 0.0
C140 C 0.63392 0.48284 0.80794 0.0
O141 O 0.607 0.51408 0.81218 0.0
N142 N 0.75353 0.51343 0.81613 0.0
C143 C 0.77263 0.53925 0.84072 0.0
C144 C 0.76247 0.58038 0.83156 0.0
C145 C 0.73525 0.53935 0.79087 0.0
N146 N 0.73773 0.58059 0.8005 0.0
C147 C 0.7518 0.43953 0.90052 0.0
C148 C 0.71802 0.50853 0.93701 0.0
C149 C 0.74427 0.48052 0.95704 0.0
C150 C 0.75999 0.44511 0.93848 0.0
C151 C 0.71057 0.5018 0.89844 0.0
N152 N 0.72886 0.46831 0.88047 0.0
H153 H 0.76474 0.41198 0.88695 0.0
H154 H 0.69195 0.52442 0.88281 0.0
H155 H 0.78733 0.5291 0.86662 0.0
H156 H 0.71511 0.52715 0.76901 0.0
O157 O 0.78269 0.43214 0.82347 0.0
O158 O 0.74198 0.44185 0.77426 0.0
O159 O 0.67128 0.488 0.8211 0.0
C160 C 0.77791 0.42792 0.78771 0.0
H161 H 0.62961 0.34635 0.87803 0.0
H162 H 0.76834 0.60687 0.84977 0.0
H163 H 0.70468 0.53597 0.95066 0.0
H164 H 0.77902 0.42193 0.95319 0.0
Co165 Co 0.0428 0.77748 0.30791 0.0
C166 C 0.13375 0.7839 0.32779 0.0
C167 C 0.12291 0.80673 0.2721 0.0
C168 C 0.16564 0.80657 0.27831 0.0
N169 N 0.10239 0.79343 0.30341 0.0
N170 N 0.17251 0.79183 0.3132 0.0
H171 H 0.12854 0.7693 0.35486 0.0
H172 H 0.10898 0.81223 0.24505 0.0
C173 C 0.05054 0.67976 0.30037 0.0
O174 O 0.011 0.67069 0.30861 0.0
N175 N 0.98364 0.76098 0.31186 0.0
C176 C 0.95725 0.76887 0.34072 0.0
C177 C 0.91957 0.74839 0.3345 0.0
C178 C 0.9607 0.73788 0.28745 0.0
N179 N 0.92152 0.72811 0.30112 0.0
C180 C 0.05802 0.81342 0.37935 0.0
C181 C 0.04231 0.74317 0.42333 0.0
C182 C 0.0522 0.78159 0.44103 0.0
C183 C 0.06052 0.81675 0.41827 0.0
C184 C 0.04082 0.74098 0.38392 0.0
N185 N 0.04828 0.77604 0.36249 0.0
H186 H 0.0645 0.8411 0.3625 0.0
H187 H 0.03215 0.71162 0.37085 0.0
H188 H 0.96515 0.78707 0.36534 0.0
H189 H 0.97369 0.72763 0.26098 0.0
O190 O 0.02575 0.83563 0.30301 0.0
O191 O 0.03479 0.79241 0.25539 0.0
O192 O 0.06417 0.71772 0.30138 0.0
C193 C 0.02837 0.83097 0.26687 0.0
H194 H 0.18996 0.81301 0.25748 0.0
H195 H 0.89364 0.74709 0.35441 0.0
H196 H 0.03459 0.71535 0.43969 0.0
H197 H 0.06892 0.84687 0.43043 0.0
Co198 Co 0.76894 0.04478 0.82977 0.0
C199 C 0.73333 0.13244 0.83724 0.0
C200 C 0.78902 0.12202 0.87034 0.0
C201 C 0.7757 0.16251 0.87618 0.0
N202 N 0.76242 0.10274 0.84618 0.0
N203 N 0.74077 0.16883 0.85548 0.0
H204 H 0.70735 0.1282 0.81803 0.0
H205 H 0.81706 0.10818 0.88244 0.0
C206 C 0.86823 0.04048 0.82582 0.0
O207 O 0.87318 1.00014 0.83292 0.0
N208 N 0.7761 0.98666 0.81421 0.0
C209 C 0.75574 0.95309 0.82896 0.0
C210 C 0.77244 0.91692 0.81378 0.0
C211 C 0.80378 0.97045 0.78907 0.0
N212 N 0.80291 0.92772 0.78882 0.0
C213 C 0.73034 0.02011 0.89887 0.0
C214 C 0.80025 0.02711 0.94472 0.0
C215 C 0.76009 0.02143 0.96106 0.0
C216 C 0.72524 0.01637 0.93758 0.0
C217 C 0.80425 0.02946 0.90542 0.0
N218 N 0.76917 0.02783 0.88292 0.0
H219 H 0.70215 0.01822 0.88205 0.0
H220 H 0.83518 0.03542 0.89377 0.0
H221 H 0.73161 0.95442 0.8505 0.0
H222 H 0.82554 0.98943 0.77258 0.0
O223 O 0.70866 0.04022 0.82035 0.0
O224 O 0.75568 0.06101 0.77834 0.0
O225 O 0.83158 0.05756 0.82618 0.0
C226 C 0.71607 0.05409 0.78665 0.0
H227 H 0.79119 0.18602 0.89334 0.0
H228 H 0.76485 0.88513 0.82269 0.0
H229 H 0.82804 0.03089 0.96219 0.0
H230 H 0.69373 0.01182 0.94918 0.0
Co231 Co 0.46756 0.74309 0.32378 0.0
C232 C 0.37549 0.75165 0.3383 0.0
C233 C 0.3913 0.68745 0.32664 0.0
C234 C 0.34827 0.69009 0.33178 0.0
N235 N 0.40847 0.72633 0.32973 0.0
N236 N 0.3384 0.73052 0.33923 0.0
H237 H 0.37814 0.78505 0.34361 0.0
H238 H 0.40833 0.65879 0.32104 0.0
C239 C 0.45714 0.84223 0.31921 0.0
O240 O 0.49534 0.85423 0.32901 0.0
N241 N 0.52659 0.75897 0.31872 0.0
C242 C 0.55833 0.74233 0.33916 0.0
C243 C 0.5955 0.76253 0.32991 0.0
C244 C 0.54511 0.78817 0.29632 0.0
N245 N 0.58726 0.79146 0.30304 0.0
C246 C 0.46341 0.70611 0.39629 0.0
C247 C 0.48939 0.77478 0.43775 0.0
C248 C 0.47935 0.737 0.45672 0.0
C249 C 0.46621 0.7025 0.43522 0.0
C250 C 0.48546 0.77727 0.39849 0.0
N251 N 0.47239 0.74316 0.37832 0.0
H252 H 0.45393 0.67878 0.3804 0.0
H253 H 0.49392 0.80615 0.3844 0.0
H254 H 0.55439 0.71819 0.36043 0.0
H255 H 0.52803 0.80743 0.2763 0.0
O256 O 0.48298 0.6848 0.3136 0.0
O257 O 0.46429 0.73163 0.27077 0.0
O258 O 0.44667 0.80327 0.31956 0.0
C259 C 0.47357 0.69267 0.2786 0.0
H260 H 0.32595 0.66449 0.32833 0.0
H261 H 0.62573 0.75801 0.34362 0.0
H262 H 0.50096 0.80195 0.45292 0.0
H263 H 0.45789 0.67275 0.44837 0.0
Co264 Co 0.30831 0.95433 0.87743 0.0
C265 C 0.34987 0.02528 0.83682 0.0
C266 C 0.37401 0.01807 0.89259 0.0
C267 C 0.39754 0.04858 0.87423 0.0
N268 N 0.34356 1.00389 0.86931 0.0
N269 N 0.38226 0.05299 0.8391 0.0
H270 H 0.33286 0.01951 0.81123 0.0
H271 H 0.38016 0.00547 0.92031 0.0
C272 C 0.29145 0.00595 0.94789 0.0
O273 O 0.29201 0.04088 0.92795 0.0
N274 N 0.27405 0.90466 0.88515 0.0
C275 C 0.24277 0.89038 0.86284 0.0
C276 C 0.23006 0.85159 0.87559 0.0
C277 C 0.28019 0.87414 0.91098 0.0
N278 N 0.2539 0.84109 0.90554 0.0
C279 C 0.2536 0.98459 0.81962 0.0
C280 C 0.18205 0.99168 0.8639 0.0
C281 C 0.17702 0.98638 0.825 0.0
C282 C 0.21376 0.98624 0.80273 0.0
C283 C 0.22254 0.98883 0.87986 0.0
N284 N 0.25776 0.98299 0.85784 0.0
H285 H 0.28012 0.97793 0.80151 0.0
H286 H 0.22417 0.98609 0.90994 0.0
H287 H 0.23176 0.90538 0.83747 0.0
H288 H 0.30511 0.87507 0.93178 0.0
O289 O 0.32975 0.93032 0.83105 0.0
O290 O 0.35918 0.92093 0.88656 0.0
O291 O 0.2963 0.9704 0.93159 0.0
C292 C 0.35954 0.91274 0.85077 0.0
H293 H 0.4254 0.06423 0.8851 0.0
H294 H 0.2079 0.83086 0.86159 0.0
H295 H 0.15474 0.99376 0.88231 0.0
H296 H 0.21199 0.98199 0.7726 0.0
Co297 Co 0.55018 0.29342 0.36586 0.0
C298 C 0.48319 0.3388 0.32611 0.0
C299 C 0.47966 0.35114 0.38528 0.0
C300 C 0.44888 0.37464 0.36722 0.0
N301 N 0.50093 0.32866 0.35934 0.0
N302 N 0.45122 0.36671 0.32999 0.0
H303 H 0.49406 0.32663 0.29943 0.0
H304 H 0.48688 0.35155 0.41495 0.0
C305 C 0.5401 0.24432 0.43854 0.0
O306 O 0.55973 0.21289 0.42225 0.0
N307 N 0.60044 0.25789 0.37086 0.0
C308 C 0.6073 0.21893 0.35668 0.0
C309 C 0.64778 0.20652 0.36474 0.0
C310 C 0.6376 0.26854 0.38698 0.0
N311 N 0.66706 0.23789 0.38347 0.0
C312 C 0.52774 0.24238 0.30323 0.0
C313 C 0.49347 0.1765 0.34409 0.0
C314 C 0.5105 0.16844 0.30829 0.0
C315 C 0.52328 0.20303 0.2864 0.0
C316 C 0.49766 0.21692 0.3596 0.0
N317 N 0.51995 0.24741 0.34077 0.0
H318 H 0.54268 0.26698 0.28698 0.0
H319 H 0.48614 0.22215 0.3877 0.0
H320 H 0.58497 0.19989 0.34171 0.0
H321 H 0.64372 0.29901 0.39914 0.0
O322 O 0.5764 0.31986 0.32219 0.0
O323 O 0.58342 0.34277 0.38017 0.0
O324 O 0.53028 0.27708 0.41904 0.0
C325 C 0.59334 0.34699 0.34486 0.0
H326 H 0.42779 0.39718 0.38032 0.0
H327 H 0.66225 0.17704 0.35638 0.0
H328 H 0.48091 0.15108 0.36123 0.0
H329 H 0.53564 0.19883 0.25823 0.0
Co330 Co 0.21213 0.55457 0.87351 0.0
C331 C 0.16394 0.48868 0.83312 0.0
C332 C 0.15793 0.48 0.89244 0.0
C333 C 0.13335 0.45017 0.8746 0.0
N334 N 0.1784 0.50344 0.86636 0.0
N335 N 0.13728 0.45552 0.83713 0.0
H336 H 0.1705 0.50381 0.80654 0.0
H337 H 0.15885 0.48515 0.92238 0.0
C338 C 0.23579 0.50859 0.94506 0.0
O339 O 0.24574 0.47538 0.92491 0.0
N340 N 0.24416 0.60582 0.87928 0.0
C341 C 0.27156 0.62168 0.85374 0.0
C342 C 0.28573 0.65993 0.8662 0.0
C343 C 0.24098 0.63509 0.90644 0.0
N344 N 0.26658 0.66832 0.89929 0.0
C345 C 0.26911 0.51002 0.8237 0.0
C346 C 0.3406 0.53691 0.86125 0.0
C347 C 0.34439 0.5266 0.82301 0.0
C348 C 0.30875 0.50828 0.80583 0.0
C349 C 0.30095 0.53544 0.87892 0.0
N350 N 0.26508 0.52645 0.85891 0.0
H351 H 0.24159 0.50226 0.80744 0.0
H352 H 0.29854 0.54876 0.90672 0.0
H353 H 0.27937 0.60712 0.82717 0.0
H354 H 0.21883 0.6332 0.9297 0.0
O355 O 0.1942 0.57532 0.82477 0.0
O356 O 0.1604 0.587 0.87839 0.0
O357 O 0.22144 0.54171 0.92886 0.0
C358 C 0.16304 0.59374 0.84236 0.0
H359 H 0.11344 0.4269 0.88832 0.0
H360 H 0.30582 0.68154 0.8506 0.0
H361 H 0.36672 0.5506 0.87659 0.0
H362 H 0.31033 0.4961 0.77753 0.0
Co363 Co 0.96233 0.21991 0.36977 0.0
C364 C 0.02472 0.17213 0.32506 0.0
C365 C 0.0435 0.17462 0.38283 0.0
C366 C 0.07378 0.15249 0.36289 0.0
N367 N 0.01271 0.18692 0.35904 0.0
N368 N 0.06169 0.15073 0.32664 0.0
H369 H 1.00726 0.17763 0.29944 0.0
H370 H 0.04432 0.18128 0.41252 0.0
C371 C 0.97076 0.25949 0.44704 0.0
O372 O 0.94614 0.29038 0.43586 0.0
N373 N 0.91135 0.2528 0.37899 0.0
C374 C 0.90033 0.29043 0.36389 0.0
C375 C 0.85902 0.29912 0.37324 0.0
C376 C 0.87623 0.23937 0.39719 0.0
N377 N 0.84404 0.26694 0.39404 0.0
C378 C 0.98591 0.27365 0.3091 0.0
C379 C 1.00756 0.34288 0.35155 0.0
C380 C 0.99405 0.34916 0.31434 0.0
C381 C 0.98728 0.31336 0.2922 0.0
C382 C 1.00579 0.30229 0.3674 0.0
N383 N 0.99009 0.26928 0.34713 0.0
H384 H 0.97647 0.24738 0.29196 0.0
H385 H 0.01415 0.29861 0.39644 0.0
H386 H 0.91933 0.30936 0.34521 0.0
H387 H 0.87285 0.20852 0.4099 0.0
O388 O 0.93497 0.19771 0.32524 0.0
O389 O 0.93087 0.16822 0.38129 0.0
O390 O 0.98343 0.23164 0.4233 0.0
C391 C 0.91959 0.1678 0.34618 0.0
H392 H 0.10231 0.13846 0.37423 0.0
H393 H 0.84008 0.32476 0.36215 0.0
H394 H 0.01588 0.36939 0.36913 0.0
H395 H 0.97793 0.31614 0.26305 0.0
Co396 Co 0.30329 0.55728 0.17449 0.0
C397 C 0.33548 0.48202 0.21418 0.0
C398 C 0.34657 0.47769 0.15502 0.0
C399 C 0.36784 0.4452 0.17266 0.0
N400 N 0.32553 0.50049 0.18104 0.0
N401 N 0.36071 0.44805 0.20992 0.0
H402 H 0.32907 0.49581 0.2412 0.0
H403 H 0.34929 0.48603 0.12563 0.0
C404 C 0.26673 0.51176 0.10747 0.0
O405 O 0.25681 0.47992 0.12954 0.0
N406 N 0.28233 0.61394 0.16903 0.0
C407 C 0.26138 0.63533 0.19596 0.0
C408 C 0.25063 0.67412 0.18218 0.0
C409 C 0.28538 0.64056 0.13947 0.0
N410 N 0.26548 0.6773 0.14678 0.0
C411 C 0.246 0.53835 0.23494 0.0
C412 C 0.17405 0.56204 0.19623 0.0
C413 C 0.17348 0.56345 0.23554 0.0
C414 C 0.20917 0.54885 0.25484 0.0
C415 C 0.21167 0.55155 0.1773 0.0
N416 N 0.24806 0.54244 0.19669 0.0
H417 H 0.27421 0.53349 0.25113 0.0
H418 H 0.21263 0.55729 0.14746 0.0
H419 H 0.25527 0.624 0.22411 0.0
H420 H 0.30272 0.63378 0.11389 0.0
O421 O 0.3328 0.57439 0.21956 0.0
O422 O 0.36002 0.57693 0.16211 0.0
O423 O 0.28408 0.54467 0.1213 0.0
C424 C 0.36476 0.5837 0.19787 0.0
H425 H 0.38901 0.42288 0.15935 0.0
H426 H 0.23542 0.69926 0.19773 0.0
H427 H 0.14737 0.5738 0.18023 0.0
H428 H 0.21011 0.54981 0.28525 0.0
Co429 Co 0.95406 0.28327 0.68375 0.0
C430 C 0.01231 0.34549 0.72047 0.0
C431 C 0.04496 0.305 0.68204 0.0
C432 C 0.07433 0.32971 0.69992 0.0
N433 N 1.00586 0.31468 0.69471 0.0
N434 N 0.05393 0.35547 0.724 0.0
H435 H 0.98745 0.35935 0.73736 0.0
H436 H 0.05244 0.27988 0.66296 0.0
C437 C 0.99637 0.25088 0.60996 0.0
O438 O 0.02083 0.22304 0.62651 0.0
N439 N 0.9031 0.25236 0.67312 0.0
C440 C 0.88228 0.22661 0.69702 0.0
C441 C 0.84699 0.2115 0.67925 0.0
C442 C 0.8798 0.25355 0.64156 0.0
N443 N 0.84545 0.22838 0.6444 0.0
C444 C 0.99353 0.23229 0.73903 0.0
C445 C 0.96825 0.15627 0.70864 0.0
C446 C 0.97606 0.15837 0.74735 0.0
C447 C 0.99193 0.19628 0.76183 0.0
C448 C 0.97032 0.19305 0.68676 0.0
N449 N 0.97965 0.23115 0.70275 0.0
H450 H 1.00037 0.26218 0.75215 0.0
H451 H 0.95772 0.19169 0.65861 0.0
H452 H 0.89158 0.22025 0.72571 0.0
H453 H 0.88646 0.27416 0.61794 0.0
O454 O 0.92823 0.30195 0.73035 0.0
O455 O 0.92232 0.33523 0.67589 0.0
O456 O 0.97227 0.27515 0.62928 0.0
C457 C 0.9111 0.33243 0.71105 0.0
H458 H 0.10836 0.32667 0.69712 0.0
H459 H 0.82231 0.19251 0.69215 0.0
H460 H 0.95527 0.12794 0.69625 0.0
H461 H 0.99859 0.19927 0.79154 0.0
Co462 Co 0.2103 0.96136 0.17556 0.0
C463 C 0.18011 0.03929 0.21173 0.0
C464 C 0.16751 0.03939 0.15269 0.0
C465 C 0.14499 0.07182 0.16904 0.0
N466 N 0.18981 0.01897 0.17945 0.0
N467 N 0.15295 0.07145 0.20618 0.0
H468 H 0.18793 0.02786 0.23935 0.0
H469 H 0.16433 0.02882 0.12398 0.0
C470 C 0.25186 0.0053 0.10943 0.0
O471 O 0.25979 0.03773 0.13117 0.0
N472 N 0.22964 0.90394 0.17302 0.0
C473 C 0.24302 0.8817 0.20305 0.0
C474 C 0.25906 0.84408 0.19095 0.0
C475 C 0.23677 0.87913 0.14291 0.0
N476 N 0.2555 0.84269 0.1533 0.0
C477 C 0.26389 0.97725 0.23913 0.0
C478 C 0.33792 0.95398 0.20308 0.0
C479 C 0.33657 0.95282 0.24235 0.0
C480 C 0.29971 0.9667 0.26039 0.0
C481 C 0.30153 0.96494 0.18279 0.0
N482 N 0.26416 0.97433 0.20074 0.0
H483 H 0.23461 0.9815 0.25419 0.0
H484 H 0.30238 0.95967 0.15294 0.0
H485 H 0.24149 0.89226 0.23186 0.0
H486 H 0.22864 0.88742 0.11432 0.0
O487 O 0.17582 0.94656 0.21887 0.0
O488 O 0.15408 0.94358 0.15991 0.0
O489 O 0.2342 0.97239 0.12333 0.0
C490 C 0.14555 0.93803 0.19533 0.0
H491 H 0.12197 0.09187 0.15528 0.0
H492 H 0.2712 0.8189 0.20852 0.0
H493 H 0.36549 0.94228 0.18815 0.0
H494 H 0.29704 0.96493 0.29071 0.0
Co495 Co 0.56296 0.20792 0.6745 0.0
C496 C 0.49394 0.16935 0.71941 0.0
C497 C 0.47911 0.16748 0.66086 0.0
C498 C 0.44813 0.14574 0.68052 0.0
N499 N 0.50767 0.18293 0.68537 0.0
N500 N 0.45751 0.1472 0.7174 0.0
H501 H 0.51187 0.17247 0.74501 0.0
H502 H 0.48167 0.16929 0.63065 0.0
C503 C 0.51939 0.23932 0.60225 0.0
O504 O 0.49044 0.26103 0.62042 0.0
N505 N 0.61785 0.23178 0.66456 0.0
C506 C 0.63984 0.2565 0.68821 0.0
C507 C 0.67766 0.26671 0.67162 0.0
C508 C 0.64295 0.22621 0.6343 0.0
N509 N 0.67968 0.24763 0.63785 0.0
C510 C 0.53671 0.26733 0.72924 0.0
C511 C 0.5643 0.33693 0.68919 0.0
C512 C 0.56154 0.33957 0.72845 0.0
C513 C 0.54535 0.30479 0.74819 0.0
C514 C 0.5555 0.29866 0.67126 0.0
N515 N 0.54469 0.26352 0.69167 0.0
H516 H 0.52937 0.24007 0.74601 0.0
H517 H 0.56384 0.296 0.64193 0.0
H518 H 0.62956 0.26544 0.71609 0.0
H519 H 0.63544 0.20542 0.6112 0.0
O520 O 0.58442 0.18657 0.72164 0.0
O521 O 0.58675 0.15202 0.66763 0.0
O522 O 0.54765 0.21854 0.62012 0.0
C523 C 0.59591 0.15312 0.70322 0.0
H524 H 0.4217 0.1288 0.66846 0.0
H525 H 0.70331 0.28395 0.68468 0.0
H526 H 0.57634 0.36318 0.67277 0.0
H527 H 0.54323 0.30494 0.77856 0.0
C528 C 0.62959 0.89933 0.27998 0.0
C529 C 0.67363 0.8924 0.27706 0.0
C530 C 0.60129 0.86595 0.28654 0.0
C531 C 0.61587 0.82427 0.29057 0.0
H532 H 0.61697 0.93104 0.27875 0.0
H533 H 0.56801 0.87316 0.29021 0.0
S534 S 0.72724 0.7884 0.2796 0.0
N535 N 0.72985 0.84015 0.27465 0.0
N536 N 0.67668 0.77735 0.28703 0.0
C537 C 0.65953 0.81662 0.28577 0.0
C538 C 0.68838 0.85065 0.27908 0.0
C539 C 0.67143 0.60294 0.76816 0.0
C540 C 0.70828 0.61355 0.78855 0.0
C541 C 0.63933 0.63225 0.76105 0.0
C542 C 0.64144 0.6739 0.7744 0.0
H543 H 0.6658 0.57133 0.75833 0.0
H544 H 0.61214 0.62153 0.74532 0.0
S545 S 0.73373 0.72093 0.82384 0.0
N546 N 0.74758 0.6714 0.81686 0.0
N547 N 0.68574 0.72564 0.80603 0.0
C548 C 0.67903 0.68605 0.79293 0.0
C549 C 0.71257 0.65618 0.79943 0.0
C550 C 0.84977 0.69545 0.30432 0.0
C551 C 0.89033 0.69789 0.28731 0.0
C552 C 0.82127 0.66276 0.29626 0.0
C553 C 0.83124 0.63124 0.27004 0.0
H554 H 0.8399 0.71828 0.32502 0.0
H555 H 0.79182 0.66145 0.31191 0.0
S556 S 0.9284 0.6274 0.21066 0.0
N557 N 0.93616 0.66774 0.23889 0.0
N558 N 0.88119 0.60881 0.22187 0.0
C559 C 0.86976 0.63531 0.25006 0.0
C560 C 0.89949 0.66799 0.259 0.0
C561 C 0.90947 0.88364 0.76259 0.0
C562 C 0.90044 0.84093 0.7554 0.0
C563 C 0.87718 0.91232 0.77133 0.0
C564 C 0.8345 0.89958 0.77339 0.0
H565 H 0.94195 0.89469 0.76326 0.0
H566 H 0.88608 0.94418 0.77841 0.0
S567 S 0.79334 0.793 0.75064 0.0
N568 N 0.84533 0.78844 0.74648 0.0
N569 N 0.78447 0.84247 0.76277 0.0
C570 C 0.82476 0.85757 0.76397 0.0
C571 C 0.85774 0.82825 0.7551 0.0
C572 C 0.40121 0.06156 0.77189 0.0
C573 C 0.40007 0.07774 0.8087 0.0
C574 C 0.4192 0.08468 0.7421 0.0
C575 C 0.43683 0.1249 0.7479 0.0
H576 H 0.38901 0.03032 0.76619 0.0
H577 H 0.42035 0.07044 0.71452 0.0
S578 S 0.43804 0.18324 0.8381 0.0
N579 N 0.41563 0.13761 0.84869 0.0
N580 N 0.44928 0.1811 0.79281 0.0
C581 C 0.43497 0.14185 0.78438 0.0
C582 C 0.4167 0.11828 0.81471 0.0
C583 C 0.44739 0.3952 0.26528 0.0
C584 C 0.42753 0.3863 0.29995 0.0
C585 C 0.42522 0.41448 0.23574 0.0
C586 C 0.38228 0.42568 0.23966 0.0
H587 H 0.48064 0.38805 0.26119 0.0
H588 H 0.44218 0.42169 0.21001 0.0
S589 S 0.31452 0.40591 0.32331 0.0
N590 N 0.36163 0.38788 0.33553 0.0
N591 N 0.32005 0.42422 0.28008 0.0
C592 C 0.3618 0.41624 0.27386 0.0
C593 C 0.38438 0.39658 0.30396 0.0
C594 C 0.05579 0.38852 0.78715 0.0
C595 C 0.07351 0.38333 0.7511 0.0
C596 C 0.07648 0.41238 0.81485 0.0
C597 C 0.11587 0.43209 0.80777 0.0
H598 H 0.02624 0.37309 0.79443 0.0
H599 H 0.06142 0.41528 0.84207 0.0
S600 S 0.17481 0.42989 0.7171 0.0
N601 N 0.13144 0.4023 0.70906 0.0
N602 N 0.17146 0.44469 0.76138 0.0
C603 C 0.13355 0.42767 0.77154 0.0
C604 C 0.11216 0.40392 0.74323 0.0
C605 C 0.12871 0.13249 0.29404 0.0
C606 C 0.0841 0.13099 0.2959 0.0
C607 C 0.15103 0.11351 0.26432 0.0
C608 C 0.12952 0.09273 0.23526 0.0
H609 H 0.14645 0.14873 0.31558 0.0
H610 H 0.18533 0.11509 0.26391 0.0
S611 S 0.01368 0.07486 0.22942 0.0
N612 N 0.01971 0.10349 0.26771 0.0
N613 N 0.06173 0.06847 0.21175 0.0
C614 C 0.08512 0.09024 0.23711 0.0
C615 C 0.06239 0.10925 0.26743 0.0
C616 C 0.55205 0.08249 0.24518 0.0
C617 C 0.58356 0.06433 0.26799 0.0
C618 C 0.52394 0.11282 0.25962 0.0
C619 C 0.52618 0.12582 0.29739 0.0
H620 H 0.55172 0.07652 0.21524 0.0
H621 H 0.50299 0.12901 0.24031 0.0
S622 S 0.59672 0.08046 0.37043 0.0
N623 N 0.61014 0.05561 0.33151 0.0
N624 N 0.55796 0.11272 0.35854 0.0
C625 C 0.55387 0.10375 0.32141 0.0
C626 C 0.58247 0.07302 0.3067 0.0
C627 C 0.42227 0.54656 0.81782 0.0
C628 C 0.3822 0.54172 0.80056 0.0
C629 C 0.45508 0.56996 0.80068 0.0
C630 C 0.45009 0.5875 0.76472 0.0
H631 H 0.4278 0.53413 0.84572 0.0
H632 H 0.48389 0.57582 0.8163 0.0
S633 S 0.35423 0.58177 0.70518 0.0
N634 N 0.34089 0.55669 0.74411 0.0
N635 N 0.40414 0.59565 0.71088 0.0
C636 C 0.41205 0.57977 0.74565 0.0
C637 C 0.3778 0.55799 0.76368 0.0
C638 C 0.98273 0.40269 0.26282 0.0
C639 C 0.97766 0.39076 0.3008 0.0
C640 C 0.95628 0.43314 0.24616 0.0
C641 C 0.92375 0.45274 0.26689 0.0
H642 H 1.00504 0.386 0.24508 0.0
H643 H 0.95895 0.43839 0.21616 0.0
S644 S 0.90273 0.43929 0.36891 0.0
N645 N 0.94132 0.40572 0.35974 0.0
N646 N 0.89302 0.46366 0.32884 0.0
C647 C 0.9219 0.44493 0.30584 0.0
C648 C 0.94849 0.41377 0.32271 0.0
C649 C 0.12522 0.98281 0.77109 0.0
C650 C 0.13603 0.97161 0.80829 0.0
C651 C 0.09523 0.95955 0.75054 0.0
C652 C 0.07466 0.92439 0.76653 0.0
H653 H 0.1424 0.00775 0.75676 0.0
H654 H 0.09106 0.96695 0.72106 0.0
S655 S 0.08422 0.88725 0.86513 0.0
N656 N 0.11873 0.92617 0.86158 0.0
N657 N 0.06099 0.88461 0.82379 0.0
C658 C 0.08096 0.91644 0.80506 0.0
C659 C 0.112 0.93944 0.82574 0.0
C660 C 0.62037 0.39189 0.73946 0.0
C661 C 0.57984 0.37614 0.74911 0.0
C662 C 0.63896 0.42534 0.75942 0.0
C663 C 0.61803 0.44377 0.79011 0.0
H664 H 0.63789 0.37829 0.71624 0.0
H665 H 0.6689 0.43789 0.74975 0.0
S666 S 0.51134 0.41504 0.82654 0.0
N667 N 0.51916 0.38265 0.79098 0.0
N668 N 0.5546 0.44421 0.82909 0.0
C669 C 0.57773 0.42816 0.80016 0.0
C670 C 0.55863 0.39459 0.77969 0.0
C671 C 0.15388 0.62474 0.27569 0.0
C672 C 0.14082 0.58892 0.25557 0.0
C673 C 0.12437 0.65294 0.29101 0.0
C674 C 0.0804 0.64629 0.28754 0.0
H675 H 0.18732 0.63209 0.27824 0.0
H676 H 0.1362 0.68082 0.30496 0.0
S677 S 0.02966 0.5558 0.23926 0.0
N678 N 0.08107 0.54744 0.2339 0.0
N679 N 0.02531 0.59986 0.26363 0.0
C680 C 0.06683 0.60963 0.26874 0.0
C681 C 0.09707 0.58122 0.25244 0.0
C682 C 0.9288 0.13945 0.80113 0.0
C683 C 0.95731 0.126 0.7731 0.0
C684 C 0.90267 0.11082 0.82031 0.0
C685 C 0.90405 0.06734 0.81268 0.0
H686 H 0.92424 0.17277 0.80645 0.0
H687 H 0.87945 0.12325 0.83983 0.0
S688 S 0.97796 0.01489 0.7463 0.0
N689 N 0.98891 0.06565 0.74175 0.0
N690 N 0.93998 0.01159 0.7783 0.0
C691 C 0.93494 0.05292 0.78712 0.0
C692 C 0.96136 0.0823 0.7671 0.0
C693 C 0.362 0.88303 0.26432 0.0
C694 C 0.36788 0.92686 0.26324 0.0
C695 C 0.39062 0.8566 0.28297 0.0
C696 C 0.42654 0.87265 0.30175 0.0
H697 H 0.33509 0.86895 0.25023 0.0
H698 H 0.38477 0.823 0.28177 0.0
S699 S 0.45622 0.98597 0.3068 0.0
N700 N 0.41191 0.98577 0.28211 0.0
N701 N 0.46611 0.93616 0.31753 0.0
C702 C 0.4327 0.91677 0.30092 0.0
C703 C 0.40327 0.94382 0.28169 0.0
C704 C 0.43466 0.81922 0.83972 0.0
C705 C 0.44059 0.81678 0.80055 0.0
C706 C 0.41025 0.85165 0.85599 0.0
C707 C 0.38995 0.88232 0.83367 0.0
H708 H 0.44813 0.79532 0.85792 0.0
H709 H 0.40583 0.85162 0.88618 0.0
S710 S 0.39723 0.89178 0.72991 0.0
N711 N 0.42583 0.84973 0.74007 0.0
N712 N 0.37953 0.9096 0.77054 0.0
C713 C 0.3968 0.88109 0.79464 0.0
C714 C 0.42219 0.84863 0.77813 0.0
C715 C 0.65832 0.41482 0.27782 0.0
C716 C 0.69258 0.4286 0.29995 0.0
C717 C 0.62569 0.38979 0.29298 0.0
C718 C 0.62534 0.37803 0.33111 0.0
H719 H 0.65748 0.42182 0.24803 0.0
H720 H 0.60096 0.37876 0.27437 0.0
S721 S 0.70605 0.40779 0.40191 0.0
N722 N 0.72316 0.42979 0.36254 0.0
N723 N 0.66122 0.3838 0.39121 0.0
C724 C 0.65826 0.3932 0.35406 0.0
C725 C 0.69201 0.41816 0.33844 0.0
C726 C 0.10022 0.694 0.82518 0.0
C727 C 0.09335 0.6936 0.78611 0.0
C728 C 0.12075 0.66043 0.84345 0.0
C729 C 0.1358 0.62534 0.82331 0.0
H730 H 0.09081 0.72104 0.84175 0.0
H731 H 0.12666 0.66299 0.87332 0.0
S732 S 0.12206 0.60632 0.72139 0.0
N733 N 0.10025 0.65299 0.72844 0.0
N734 N 0.13954 0.59054 0.76278 0.0
C735 C 0.12768 0.62363 0.78458 0.0
C736 C 0.10623 0.65753 0.766 0.0
C737 C 0.85271 0.12515 0.35365 0.0
C738 C 0.88728 0.13818 0.33126 0.0
C739 C 0.81848 0.10256 0.33814 0.0
C740 C 0.81798 0.09141 0.29984 0.0
H741 H 0.85104 0.13424 0.38291 0.0
H742 H 0.79176 0.09478 0.35608 0.0
S743 S 0.90319 0.11479 0.23024 0.0
N744 N 0.92009 0.13634 0.26956 0.0
N745 N 0.85704 0.09307 0.24063 0.0
C746 C 0.85355 0.10257 0.27772 0.0
C747 C 0.88782 0.12616 0.29335 0.0
C748 C 0.44357 0.67025 0.21698 0.0
C749 C 0.45978 0.65873 0.25247 0.0
C750 C 0.41558 0.64378 0.1975 0.0
C751 C 0.40248 0.60516 0.21306 0.0
H752 H 0.44951 0.70144 0.20561 0.0
H753 H 0.40128 0.6553 0.17181 0.0
S754 S 0.44344 0.55541 0.29988 0.0
N755 N 0.46743 0.60172 0.29805 0.0
N756 N 0.41303 0.55321 0.26226 0.0
C757 C 0.42192 0.59115 0.24619 0.0
C758 C 0.45141 0.6175 0.26552 0.0
C759 C 0.84835 0.39199 0.78478 0.0
C760 C 0.81184 0.40615 0.76558 0.0
C761 C 0.88052 0.36932 0.76662 0.0
C762 C 0.87833 0.36023 0.72816 0.0
H763 H 0.85203 0.39773 0.81456 0.0
H764 H 0.9073 0.35849 0.78303 0.0
S765 S 0.78992 0.38916 0.66447 0.0
N766 N 0.77551 0.40877 0.70554 0.0
N767 N 0.8366 0.36672 0.67112 0.0
C768 C 0.84259 0.37472 0.70818 0.0
C769 C 0.80924 0.39747 0.72692 0.0
C770 C 0.05537 0.8601 0.20575 0.0
C771 C 0.04192 0.86744 0.24302 0.0
C772 C 0.08664 0.88559 0.18876 0.0
C773 C 0.10505 0.91935 0.20839 0.0
H774 H 0.04563 0.83169 0.19133 0.0
H775 H 0.09922 0.87635 0.16165 0.0
S776 S 0.07016 0.96095 0.30049 0.0
N777 N 0.04128 0.91805 0.29445 0.0
N778 N 0.10036 0.96507 0.26266 0.0
C779 C 0.08725 0.93082 0.24301 0.0
C780 C 0.05514 0.90533 0.26011 0.0
C781 C 0.68958 0.08314 0.72538 0.0
C782 C 0.68124 0.07056 0.76268 0.0
C783 C 0.66006 0.10717 0.70497 0.0
C784 C 0.62179 0.12031 0.72153 0.0
H785 H 0.71991 0.0761 0.71245 0.0
H786 H 0.66849 0.11792 0.67702 0.0
S787 S 0.58234 0.09232 0.81648 0.0
N788 N 0.62935 0.0696 0.81369 0.0
N789 N 0.57524 0.11627 0.77575 0.0
C790 C 0.61196 0.10608 0.75783 0.0
C791 C 0.64131 0.08069 0.77827 0.0
C792 C 0.73057 0.29589 0.20673 0.0
C793 C 0.77469 0.30114 0.20832 0.0
C794 C 0.71266 0.2555 0.20705 0.0
C795 C 0.73822 0.21912 0.20959 0.0
H796 H 0.70972 0.32289 0.20896 0.0
H797 H 0.67847 0.25281 0.20865 0.0
S798 S 0.85572 0.21669 0.20411 0.0
N799 N 0.84354 0.26728 0.20346 0.0
N800 N 0.81008 0.19127 0.20646 0.0
C801 C 0.78237 0.22403 0.20616 0.0
C802 C 0.80052 0.26518 0.20499 0.0
C803 C 0.30712 0.7791 0.70367 0.0
C804 C 0.31141 0.73536 0.70829 0.0
C805 C 0.26691 0.79737 0.70062 0.0
C806 C 0.22987 0.77254 0.70251 0.0
H807 H 0.33442 0.79959 0.70626 0.0
H808 H 0.26457 0.83144 0.70038 0.0
S809 S 0.22568 0.65566 0.70427 0.0
N810 N 0.2767 0.66709 0.70591 0.0
N811 N 0.20082 0.70141 0.70211 0.0
C812 C 0.23423 0.72846 0.70198 0.0
C813 C 0.27522 0.70988 0.70448 0.0
C814 C 0.71537 0.22735 0.81617 0.0
C815 C 0.71908 0.20816 0.85163 0.0
C816 C 0.70234 0.2695 0.81298 0.0
C817 C 0.6919 0.29302 0.8451 0.0
H818 H 0.72502 0.21049 0.79115 0.0
H819 H 0.70161 0.28425 0.7855 0.0
S820 S 0.69372 0.25547 0.94383 0.0
N821 N 0.70923 0.21442 0.91891 0.0
N822 N 0.68435 0.29345 0.91311 0.0
C823 C 0.69335 0.27326 0.88043 0.0
C824 C 0.70706 0.23076 0.88363 0.0
C825 C 0.28992 0.78859 0.32353 0.0
C826 C 0.29668 0.74876 0.33993 0.0
C827 C 0.24901 0.80374 0.31745 0.0
C828 C 0.21328 0.77968 0.32743 0.0
H829 H 0.3162 0.80718 0.31312 0.0
H830 H 0.24524 0.83365 0.30304 0.0
S831 S 0.21396 0.67629 0.37677 0.0
N832 N 0.26454 0.68814 0.37086 0.0
N833 N 0.18729 0.71592 0.35821 0.0
C834 C 0.21951 0.74125 0.34652 0.0
C835 C 0.26134 0.72591 0.35295 0.0
C836 C 0.22514 0.72907 0.92056 0.0
C837 C 0.26468 0.70949 0.91562 0.0
C838 C 0.22213 0.77305 0.92217 0.0
C839 C 0.2585 0.79856 0.9189 0.0
H840 H 0.19621 0.71077 0.91892 0.0
H841 H 0.19096 0.78737 0.92209 0.0
S842 S 0.36985 0.76112 0.91471 0.0
N843 N 0.34106 0.71762 0.91492 0.0
N844 N 0.33568 0.80045 0.91729 0.0
C845 C 0.29848 0.77893 0.91917 0.0
C846 C 0.30145 0.7342 0.91763 0.0
C847 C 0.78416 0.22787 0.36896 0.0
C848 C 0.80033 0.25577 0.39572 0.0
C849 C 0.74067 0.22091 0.36617 0.0
C850 C 0.71185 0.24143 0.39032 0.0
H851 H 0.80529 0.21299 0.34893 0.0
H852 H 0.72965 0.20094 0.34365 0.0
S853 S 0.74017 0.31343 0.46838 0.0
N854 N 0.78602 0.30176 0.44833 0.0
N855 N 0.70367 0.28736 0.44468 0.0
C856 C 0.7282 0.26769 0.41867 0.0
C857 C 0.77265 0.27523 0.42096 0.0
C858 C 0.23059 0.7376 0.11836 0.0
C859 C 0.26851 0.71671 0.12744 0.0
C860 C 0.22789 0.78165 0.12028 0.0
C861 C 0.26298 0.80548 0.13176 0.0
H862 H 0.20164 0.71958 0.11522 0.0
H863 H 0.19695 0.79633 0.11848 0.0
S864 S 0.3715 0.76626 0.14926 0.0
N865 N 0.34353 0.72338 0.14038 0.0
N866 N 0.33834 0.80626 0.14461 0.0
C867 C 0.30246 0.78546 0.13462 0.0
C868 C 0.3053 0.7408 0.13222 0.0
C869 C 0.74593 0.27572 0.61325 0.0
C870 C 0.71881 0.24097 0.61831 0.0
C871 C 0.78989 0.27074 0.61534 0.0
C872 C 0.80741 0.23085 0.62269 0.0
H873 H 0.73299 0.30736 0.61345 0.0
H874 H 0.80941 0.29877 0.61697 0.0
S875 S 0.75067 0.12884 0.62399 0.0
N876 N 0.71286 0.16462 0.62008 0.0
N877 N 0.79581 0.1553 0.62398 0.0
C878 C 0.78115 0.19534 0.61996 0.0
C879 C 0.73646 0.20038 0.61769 0.0
C880 C 0.73512 0.98936 1.02161 0.0
C881 C 0.75303 0.02379 1.0022 0.0
C882 C 0.72417 0.9924 0.05979 0.0
C883 C 0.72962 0.03034 0.07959 0.0
H884 H 0.72941 0.95995 1.00708 0.0
H885 H 0.71094 0.96502 0.07387 0.0
S886 S 0.77487 0.12966 0.04142 0.0
N887 N 0.77578 0.09684 1.00548 0.0
N888 N 0.75454 0.10282 0.07707 0.0
C889 C 0.74736 0.065 0.06044 0.0
C890 C 0.75925 0.06164 1.02179 0.0
C891 C 0.49973 0.69532 0.51433 0.0
C892 C 0.48289 0.73262 0.49848 0.0
C893 C 0.5014 0.68919 0.5534 0.0
C894 C 0.48689 0.72034 0.57819 0.0
H895 H 0.51184 0.67056 0.49637 0.0
H896 H 0.51443 0.66003 0.56432 0.0
S897 S 0.43854 0.82277 0.55212 0.0
N898 N 0.44989 0.80043 0.51146 0.0
N899 N 0.45456 0.78932 0.58478 0.0
C900 C 0.4703 0.7578 0.56305 0.0
C901 C 0.46803 0.76389 0.52327 0.0
C902 C 0.73494 0.49011 0.06325 0.0
C903 C 0.77756 0.48818 0.07529 0.0
C904 C 0.72432 0.48971 1.02492 0.0
C905 C 0.75587 0.4871 0.9971 0.0
H906 H 0.70938 0.49073 0.08366 0.0
H907 H 0.69116 0.48979 1.01708 0.0
S908 S 0.87213 0.48582 1.01306 0.0
N909 N 0.85146 0.487 0.05574 0.0
N910 N 0.83153 0.48562 0.98389 0.0
C911 C 0.79858 0.48654 1.0086 0.0
C912 C 0.8094 0.48712 0.04757 0.0
C913 C 0.03467 0.82214 0.49981 0.0
C914 C 0.05276 0.78611 0.48286 0.0
C915 C 0.03547 0.82796 0.5389 0.0
C916 C 0.05399 0.7978 0.5626 0.0
H917 H 0.01926 0.84592 0.48275 0.0
H918 H 0.02078 0.85581 0.55074 0.0
S919 S 0.1075 0.69919 0.53324 0.0
N920 N 0.0916 0.72087 0.49345 0.0
N921 N 0.09169 0.73131 0.56693 0.0
C922 C 0.0723 0.76182 0.54633 0.0
C923 C 0.07195 0.75604 0.50651 0.0
C924 C 0.26276 0.96918 0.04721 0.0
C925 C 0.26321 0.00654 0.06854 0.0
C926 C 0.27226 0.96935 1.00857 0.0
C927 C 0.28227 0.00698 0.98921 0.0
H928 H 0.25503 0.93931 0.06043 0.0
H929 H 0.27125 0.93961 0.99372 0.0
S930 S 0.28811 0.11363 0.03178 0.0
N931 N 0.27491 0.08238 0.06714 0.0
N932 N 0.29245 0.08274 0.99474 0.0
C933 C 0.28298 0.0446 1.01017 0.0
C934 C 0.2736 0.04437 0.04967 0.0
C935 C 0.50668 0.2738 0.53896 0.0
C936 C 0.52069 0.239 0.56032 0.0
C937 C 0.5119 0.2751 0.49952 0.0
C938 C 0.53086 0.2414 0.47984 0.0
H939 H 0.49297 0.30089 0.55291 0.0
H940 H 0.50187 0.30311 0.48451 0.0
S941 S 0.56871 0.14091 0.52267 0.0
N942 N 0.55146 0.16886 0.55857 0.0
N943 N 0.56078 0.17069 0.48529 0.0
C944 C 0.5432 0.20564 0.50098 0.0
C945 C 0.53826 0.20461 0.54091 0.0
C946 C 0.25481 0.54742 0.04507 0.0
C947 C 0.25769 0.50994 0.06631 0.0
C948 C 0.247 0.54667 1.00618 0.0
C949 C 0.24247 0.50838 0.98661 0.0
H950 H 0.25844 0.57775 0.0586 0.0
H951 H 0.24526 0.57644 0.99123 0.0
S952 S 0.24721 0.40124 0.02891 0.0
N953 N 0.25498 0.43332 0.06466 0.0
N954 N 0.24102 0.4319 0.99175 0.0
C955 C 0.24525 0.47065 1.00749 0.0
C956 C 0.2526 0.47143 0.04721 0.0
C957 C 0.96929 0.29042 0.51179 0.0
C958 C 0.98228 0.25747 0.48782 0.0
C959 C 0.97507 0.28834 0.55079 0.0
C960 C 0.99446 0.25334 0.568 0.0
H961 H 0.95347 0.318 0.50054 0.0
H962 H 0.96353 0.31434 0.56764 0.0
S963 S 0.03599 0.15901 0.51831 0.0
N964 N 0.01664 0.18897 0.48445 0.0
N965 N 0.0281 0.18527 0.5577 0.0
C966 C 0.009 0.22067 0.54441 0.0
C967 C 1.00279 0.22267 0.50446 0.0
loop_
_geom_bond_atom_site_label_1
_geom_bond_atom_site_label_2
_geom_bond_distance
_geom_bond_site_symmetry_2
_ccdc_geom_bond_type
Co0 N4 2.148 . S
Co0 N10 2.128 1_545 S
Co0 N20 2.194 . S
Co0 O25 2.351 . S
Co0 O26 2.155 . S
Co0 O27 2.096 . S
C1 N4 1.301 . S
C1 N5 1.328 . S
C1 H6 0.930 . S
C2 C3 1.333 . S
C2 N4 1.317 . S
C2 H7 0.930 . S
C3 C2 1.333 . S
C3 N5 1.350 . S
C3 H29 0.931 . S
N4 Co0 2.148 . S
N4 C1 1.301 . S
N4 C2 1.317 . S
N5 C1 1.328 . S
N5 C3 1.350 . S
H6 C1 0.930 . S
H7 C2 0.930 . S
C8 O9 1.224 . S
C8 O27 1.247 . S
O9 C8 1.224 . S
N10 Co0 2.128 1_565 S
N10 C11 1.355 . S
N10 C13 1.311 . S
C11 N10 1.355 . S
C11 C12 1.363 . S
C11 H23 0.929 . S
C12 C11 1.363 . S
C12 N14 1.375 . S
C12 H30 0.931 . S
C13 N10 1.311 . S
C13 N14 1.347 . S
C13 H24 0.929 . S
N14 C12 1.375 . S
N14 C13 1.347 . S
C15 C18 1.365 . S
C15 N20 1.328 . S
C15 H21 0.929 . S
C16 C17 1.362 . S
C16 C19 1.378 . S
C16 H31 0.929 . S
C17 C16 1.362 . S
C17 C18 1.366 . S
C18 C15 1.365 . S
C18 C17 1.366 . S
C18 H32 0.930 . S
C19 C16 1.378 . S
C19 N20 1.315 . S
C19 H22 0.930 . S
N20 Co0 2.194 . S
N20 C15 1.328 . S
N20 C19 1.315 . S
H21 C15 0.929 . S
H22 C19 0.930 . S
H23 C11 0.929 . S
H24 C13 0.929 . S
O25 Co0 2.351 . S
O25 C28 1.244 . S
O26 Co0 2.155 . S
O26 C28 1.240 . S
O27 Co0 2.096 . S
O27 C8 1.247 . S
C28 O25 1.244 . S
C28 O26 1.240 . S
H29 C3 0.931 . S
H30 C12 0.931 . S
H31 C16 0.929 . S
H32 C18 0.930 . S
Co33 N37 2.148 . S
Co33 N43 2.128 . S
Co33 N53 2.194 . S
Co33 O58 2.351 . S
Co33 O59 2.155 . S
Co33 O60 2.096 . S
C34 N37 1.301 . S
C34 N38 1.328 . S
C34 H39 0.930 . S
C35 C36 1.333 . S
C35 N37 1.317 . S
C35 H40 0.930 . S
C36 C35 1.333 . S
C36 N38 1.350 . S
C36 H62 0.931 . S
N37 Co33 2.148 . S
N37 C34 1.301 . S
N37 C35 1.317 . S
N38 C34 1.328 . S
N38 C36 1.350 . S
H39 C34 0.930 . S
H40 C35 0.930 . S
C41 O42 1.224 . S
C41 O60 1.247 . S
O42 C41 1.224 . S
N43 Co33 2.128 . S
N43 C44 1.355 . S
N43 C46 1.311 . S
C44 N43 1.355 . S
C44 C45 1.363 . S
C44 H56 0.929 . S
C45 C44 1.363 . S
C45 N47 1.375 . S
C45 H63 0.931 . S
C46 N43 1.311 . S
C46 N47 1.347 . S
C46 H57 0.929 . S
N47 C45 1.375 . S
N47 C46 1.347 . S
C48 C51 1.365 . S
C48 N53 1.328 . S
C48 H54 0.929 . S
C49 C50 1.362 . S
C49 C52 1.378 . S
C49 H64 0.929 . S
C50 C49 1.362 . S
C50 C51 1.366 . S
C51 C48 1.365 . S
C51 C50 1.366 . S
C51 H65 0.930 . S
C52 C49 1.378 . S
C52 N53 1.315 . S
C52 H55 0.930 . S
N53 Co33 2.194 . S
N53 C48 1.328 . S
N53 C52 1.315 . S
H54 C48 0.929 . S
H55 C52 0.930 . S
H56 C44 0.929 . S
H57 C46 0.929 . S
O58 Co33 2.351 . S
O58 C61 1.244 . S
O59 Co33 2.155 . S
O59 C61 1.240 . S
O60 Co33 2.096 . S
O60 C41 1.247 . S
C61 O58 1.244 . S
C61 O59 1.240 . S
H62 C36 0.931 . S
H63 C45 0.931 . S
H64 C49 0.929 . S
H65 C51 0.930 . S
Co66 N70 2.148 . S
Co66 N76 2.128 . S
Co66 N86 2.194 . S
Co66 O91 2.351 . S
Co66 O92 2.155 . S
Co66 O93 2.096 . S
C67 N70 1.301 . S
C67 N71 1.328 . S
C67 H72 0.930 . S
C68 C69 1.333 . S
C68 N70 1.317 . S
C68 H73 0.930 . S
C69 C68 1.333 . S
C69 N71 1.350 . S
C69 H95 0.931 . S
N70 Co66 2.148 . S
N70 C67 1.301 . S
N70 C68 1.317 . S
N71 C67 1.328 . S
N71 C69 1.350 . S
H72 C67 0.930 . S
H73 C68 0.930 . S
C74 O75 1.224 . S
C74 O93 1.247 . S
O75 C74 1.224 . S
N76 Co66 2.128 . S
N76 C77 1.355 . S
N76 C79 1.311 . S
C77 N76 1.355 . S
C77 C78 1.363 . S
C77 H89 0.929 . S
C78 C77 1.363 . S
C78 N80 1.375 . S
C78 H96 0.931 . S
C79 N76 1.311 . S
C79 N80 1.347 . S
C79 H90 0.929 . S
N80 C78 1.375 . S
N80 C79 1.347 . S
C81 C84 1.365 . S
C81 N86 1.328 . S
C81 H87 0.929 . S
C82 C83 1.362 . S
C82 C85 1.378 . S
C82 H97 0.929 . S
C83 C82 1.362 . S
C83 C84 1.366 . S
C84 C81 1.365 . S
C84 C83 1.366 . S
C84 H98 0.930 . S
C85 C82 1.378 . S
C85 N86 1.315 . S
C85 H88 0.930 . S
N86 Co66 2.194 . S
N86 C81 1.328 . S
N86 C85 1.315 . S
H87 C81 0.929 . S
H88 C85 0.930 . S
H89 C77 0.929 . S
H90 C79 0.929 . S
O91 Co66 2.351 . S
O91 C94 1.244 . S
O92 Co66 2.155 . S
O92 C94 1.240 . S
O93 Co66 2.096 . S
O93 C74 1.247 . S
C94 O91 1.244 . S
C94 O92 1.240 . S
H95 C69 0.931 . S
H96 C78 0.931 . S
H97 C82 0.929 . S
H98 C84 0.930 . S
Co99 N103 2.148 . S
Co99 N109 2.128 1_455 S
Co99 N119 2.194 . S
Co99 O124 2.351 . S
Co99 O125 2.155 . S
Co99 O126 2.096 . S
C100 N103 1.301 . S
C100 N104 1.328 . S
C100 H105 0.930 . S
C101 C102 1.333 . S
C101 N103 1.317 . S
C101 H106 0.930 . S
C102 C101 1.333 . S
C102 N104 1.350 . S
C102 H128 0.931 . S
N103 Co99 2.148 . S
N103 C100 1.301 . S
N103 C101 1.317 . S
N104 C100 1.328 . S
N104 C102 1.350 . S
H105 C100 0.930 . S
H106 C101 0.930 . S
C107 O108 1.224 . S
C107 O126 1.247 . S
O108 C107 1.224 . S
N109 Co99 2.128 1_655 S
N109 C110 1.355 . S
N109 C112 1.311 . S
C110 N109 1.355 . S
C110 C111 1.363 . S
C110 H122 0.929 . S
C111 C110 1.363 . S
C111 N113 1.375 . S
C111 H129 0.931 . S
C112 N109 1.311 . S
C112 N113 1.347 . S
C112 H123 0.929 . S
N113 C111 1.375 . S
N113 C112 1.347 . S
C114 C117 1.365 . S
C114 N119 1.328 . S
C114 H120 0.929 . S
C115 C116 1.362 . S
C115 C118 1.378 . S
C115 H130 0.929 . S
C116 C115 1.362 . S
C116 C117 1.366 . S
C117 C114 1.365 . S
C117 C116 1.366 . S
C117 H131 0.930 . S
C118 C115 1.378 . S
C118 N119 1.315 . S
C118 H121 0.930 . S
N119 Co99 2.194 . S
N119 C114 1.328 . S
N119 C118 1.315 . S
H120 C114 0.929 . S
H121 C118 0.930 . S
H122 C110 0.929 . S
H123 C112 0.929 . S
O124 Co99 2.351 . S
O124 C127 1.244 . S
O125 Co99 2.155 . S
O125 C127 1.240 . S
O126 Co99 2.096 . S
O126 C107 1.247 . S
C127 O124 1.244 . S
C127 O125 1.240 . S
H128 C102 0.931 . S
H129 C111 0.931 . S
H130 C115 0.929 . S
H131 C117 0.930 . S
Co132 N136 2.148 . S
Co132 N142 2.128 . S
Co132 N152 2.194 . S
Co132 O157 2.351 . S
Co132 O158 2.155 . S
Co132 O159 2.096 . S
C133 N136 1.301 . S
C133 N137 1.328 . S
C133 H138 0.930 . S
C134 C135 1.333 . S
C134 N136 1.317 . S
C134 H139 0.930 . S
C135 C134 1.333 . S
C135 N137 1.350 . S
C135 H161 0.931 . S
N136 Co132 2.148 . S
N136 C133 1.301 . S
N136 C134 1.317 . S
N137 C133 1.328 . S
N137 C135 1.350 . S
H138 C133 0.930 . S
H139 C134 0.930 . S
C140 O141 1.224 . S
C140 O159 1.247 . S
O141 C140 1.224 . S
N142 Co132 2.128 . S
N142 C143 1.355 . S
N142 C145 1.311 . S
C143 N142 1.355 . S
C143 C144 1.363 . S
C143 H155 0.929 . S
C144 C143 1.363 . S
C144 N146 1.375 . S
C144 H162 0.931 . S
C145 N142 1.311 . S
C145 N146 1.347 . S
C145 H156 0.929 . S
N146 C144 1.375 . S
N146 C145 1.347 . S
C147 C150 1.365 . S
C147 N152 1.328 . S
C147 H153 0.929 . S
C148 C149 1.362 . S
C148 C151 1.378 . S
C148 H163 0.929 . S
C149 C148 1.362 . S
C149 C150 1.366 . S
C150 C147 1.365 . S
C150 C149 1.366 . S
C150 H164 0.930 . S
C151 C148 1.378 . S
C151 N152 1.315 . S
C151 H154 0.930 . S
N152 Co132 2.194 . S
N152 C147 1.328 . S
N152 C151 1.315 . S
H153 C147 0.929 . S
H154 C151 0.930 . S
H155 C143 0.929 . S
H156 C145 0.929 . S
O157 Co132 2.351 . S
O157 C160 1.244 . S
O158 Co132 2.155 . S
O158 C160 1.240 . S
O159 Co132 2.096 . S
O159 C140 1.247 . S
C160 O157 1.244 . S
C160 O158 1.240 . S
H161 C135 0.931 . S
H162 C144 0.931 . S
H163 C148 0.929 . S
H164 C150 0.930 . S
Co165 N169 2.148 . S
Co165 N175 2.128 1_455 S
Co165 N185 2.194 . S
Co165 O190 2.351 . S
Co165 O191 2.155 . S
Co165 O192 2.096 . S
C166 N169 1.301 . S
C166 N170 1.328 . S
C166 H171 0.930 . S
C167 C168 1.333 . S
C167 N169 1.317 . S
C167 H172 0.930 . S
C168 C167 1.333 . S
C168 N170 1.350 . S
C168 H194 0.931 . S
N169 Co165 2.148 . S
N169 C166 1.301 . S
N169 C167 1.317 . S
N170 C166 1.328 . S
N170 C168 1.350 . S
H171 C166 0.930 . S
H172 C167 0.930 . S
C173 O174 1.224 . S
C173 O192 1.247 . S
O174 C173 1.224 . S
N175 Co165 2.128 1_655 S
N175 C176 1.355 . S
N175 C178 1.311 . S
C176 N175 1.355 . S
C176 C177 1.363 . S
C176 H188 0.929 . S
C177 C176 1.363 . S
C177 N179 1.375 . S
C177 H195 0.931 . S
C178 N175 1.311 . S
C178 N179 1.347 . S
C178 H189 0.929 . S
N179 C177 1.375 . S
N179 C178 1.347 . S
C180 C183 1.365 . S
C180 N185 1.328 . S
C180 H186 0.929 . S
C181 C182 1.362 . S
C181 C184 1.378 . S
C181 H196 0.929 . S
C182 C181 1.362 . S
C182 C183 1.366 . S
C183 C180 1.365 . S
C183 C182 1.366 . S
C183 H197 0.930 . S
C184 C181 1.378 . S
C184 N185 1.315 . S
C184 H187 0.930 . S
N185 Co165 2.194 . S
N185 C180 1.328 . S
N185 C184 1.315 . S
H186 C180 0.929 . S
H187 C184 0.930 . S
H188 C176 0.929 . S
H189 C178 0.929 . S
O190 Co165 2.351 . S
O190 C193 1.244 . S
O191 Co165 2.155 . S
O191 C193 1.240 . S
O192 Co165 2.096 . S
O192 C173 1.247 . S
C193 O190 1.244 . S
C193 O191 1.240 . S
H194 C168 0.931 . S
H195 C177 0.931 . S
H196 C181 0.929 . S
H197 C183 0.930 . S
Co198 N202 2.148 . S
Co198 N208 2.128 1_545 S
Co198 N218 2.194 . S
Co198 O223 2.351 . S
Co198 O224 2.155 . S
Co198 O225 2.096 . S
C199 N202 1.301 . S
C199 N203 1.328 . S
C199 H204 0.930 . S
C200 C201 1.333 . S
C200 N202 1.317 . S
C200 H205 0.930 . S
C201 C200 1.333 . S
C201 N203 1.350 . S
C201 H227 0.931 . S
N202 Co198 2.148 . S
N202 C199 1.301 . S
N202 C200 1.317 . S
N203 C199 1.328 . S
N203 C201 1.350 . S
H204 C199 0.930 . S
H205 C200 0.930 . S
C206 O207 1.224 . S
C206 O225 1.247 . S
O207 C206 1.224 . S
N208 Co198 2.128 1_565 S
N208 C209 1.355 . S
N208 C211 1.311 . S
C209 N208 1.355 . S
C209 C210 1.363 . S
C209 H221 0.929 . S
C210 C209 1.363 . S
C210 N212 1.375 . S
C210 H228 0.931 . S
C211 N208 1.311 . S
C211 N212 1.347 . S
C211 H222 0.929 . S
N212 C210 1.375 . S
N212 C211 1.347 . S
C213 C216 1.365 . S
C213 N218 1.328 . S
C213 H219 0.929 . S
C214 C215 1.362 . S
C214 C217 1.378 . S
C214 H229 0.929 . S
C215 C214 1.362 . S
C215 C216 1.366 . S
C216 C213 1.365 . S
C216 C215 1.366 . S
C216 H230 0.930 . S
C217 C214 1.378 . S
C217 N218 1.315 . S
C217 H220 0.930 . S
N218 Co198 2.194 . S
N218 C213 1.328 . S
N218 C217 1.315 . S
H219 C213 0.929 . S
H220 C217 0.930 . S
H221 C209 0.929 . S
H222 C211 0.929 . S
O223 Co198 2.351 . S
O223 C226 1.244 . S
O224 Co198 2.155 . S
O224 C226 1.240 . S
O225 Co198 2.096 . S
O225 C206 1.247 . S
C226 O223 1.244 . S
C226 O224 1.240 . S
H227 C201 0.931 . S
H228 C210 0.931 . S
H229 C214 0.929 . S
H230 C216 0.930 . S
Co231 N235 2.148 . S
Co231 N241 2.128 . S
Co231 N251 2.194 . S
Co231 O256 2.351 . S
Co231 O257 2.155 . S
Co231 O258 2.096 . S
C232 N235 1.301 . S
C232 N236 1.328 . S
C232 H237 0.930 . S
C233 C234 1.333 . S
C233 N235 1.317 . S
C233 H238 0.930 . S
C234 C233 1.333 . S
C234 N236 1.350 . S
C234 H260 0.931 . S
N235 Co231 2.148 . S
N235 C232 1.301 . S
N235 C233 1.317 . S
N236 C232 1.328 . S
N236 C234 1.350 . S
H237 C232 0.930 . S
H238 C233 0.930 . S
C239 O240 1.224 . S
C239 O258 1.247 . S
O240 C239 1.224 . S
N241 Co231 2.128 . S
N241 C242 1.355 . S
N241 C244 1.311 . S
C242 N241 1.355 . S
C242 C243 1.363 . S
C242 H254 0.929 . S
C243 C242 1.363 . S
C243 N245 1.375 . S
C243 H261 0.931 . S
C244 N241 1.311 . S
C244 N245 1.347 . S
C244 H255 0.929 . S
N245 C243 1.375 . S
N245 C244 1.347 . S
C246 C249 1.365 . S
C246 N251 1.328 . S
C246 H252 0.929 . S
C247 C248 1.362 . S
C247 C250 1.378 . S
C247 H262 0.929 . S
C248 C247 1.362 . S
C248 C249 1.366 . S
C249 C246 1.365 . S
C249 C248 1.366 . S
C249 H263 0.930 . S
C250 C247 1.378 . S
C250 N251 1.315 . S
C250 H253 0.930 . S
N251 Co231 2.194 . S
N251 C246 1.328 . S
N251 C250 1.315 . S
H252 C246 0.929 . S
H253 C250 0.930 . S
H254 C242 0.929 . S
H255 C244 0.929 . S
O256 Co231 2.351 . S
O256 C259 1.244 . S
O257 Co231 2.155 . S
O257 C259 1.240 . S
O258 Co231 2.096 . S
O258 C239 1.247 . S
C259 O256 1.244 . S
C259 O257 1.240 . S
H260 C234 0.931 . S
H261 C243 0.931 . S
H262 C247 0.929 . S
H263 C249 0.930 . S
Co264 N268 2.148 1_565 S
Co264 N274 2.128 . S
Co264 N284 2.194 . S
Co264 O289 2.351 . S
Co264 O290 2.155 . S
Co264 O291 2.096 . S
C265 N268 1.301 . S
C265 N269 1.328 . S
C265 H270 0.930 . S
C266 C267 1.333 . S
C266 N268 1.317 . S
C266 H271 0.930 . S
C267 C266 1.333 . S
C267 N269 1.350 . S
C267 H293 0.931 . S
N268 Co264 2.148 1_545 S
N268 C265 1.301 . S
N268 C266 1.317 . S
N269 C265 1.328 . S
N269 C267 1.350 . S
H270 C265 0.930 . S
H271 C266 0.930 . S
C272 O273 1.224 . S
C272 O291 1.247 . S
O273 C272 1.224 . S
N274 Co264 2.128 . S
N274 C275 1.355 . S
N274 C277 1.311 . S
C275 N274 1.355 . S
C275 C276 1.363 . S
C275 H287 0.929 . S
C276 C275 1.363 . S
C276 N278 1.375 . S
C276 H294 0.931 . S
C277 N274 1.311 . S
C277 N278 1.347 . S
C277 H288 0.929 . S
N278 C276 1.375 . S
N278 C277 1.347 . S
C279 C282 1.365 . S
C279 N284 1.328 . S
C279 H285 0.929 . S
C280 C281 1.362 . S
C280 C283 1.378 . S
C280 H295 0.929 . S
C281 C280 1.362 . S
C281 C282 1.366 . S
C282 C279 1.365 . S
C282 C281 1.366 . S
C282 H296 0.930 . S
C283 C280 1.378 . S
C283 N284 1.315 . S
C283 H286 0.930 . S
N284 Co264 2.194 . S
N284 C279 1.328 . S
N284 C283 1.315 . S
H285 C279 0.929 . S
H286 C283 0.930 . S
H287 C275 0.929 . S
H288 C277 0.929 . S
O289 Co264 2.351 . S
O289 C292 1.244 . S
O290 Co264 2.155 . S
O290 C292 1.240 . S
O291 Co264 2.096 . S
O291 C272 1.247 . S
C292 O289 1.244 . S
C292 O290 1.240 . S
H293 C267 0.931 . S
H294 C276 0.931 . S
H295 C280 0.929 . S
H296 C282 0.930 . S
Co297 N301 2.148 . S
Co297 N307 2.128 . S
Co297 N317 2.194 . S
Co297 O322 2.351 . S
Co297 O323 2.155 . S
Co297 O324 2.096 . S
C298 N301 1.301 . S
C298 N302 1.328 . S
C298 H303 0.930 . S
C299 C300 1.333 . S
C299 N301 1.317 . S
C299 H304 0.930 . S
C300 C299 1.333 . S
C300 N302 1.350 . S
C300 H326 0.931 . S
N301 Co297 2.148 . S
N301 C298 1.301 . S
N301 C299 1.317 . S
N302 C298 1.328 . S
N302 C300 1.350 . S
H303 C298 0.930 . S
H304 C299 0.930 . S
C305 O306 1.224 . S
C305 O324 1.247 . S
O306 C305 1.224 . S
N307 Co297 2.128 . S
N307 C308 1.355 . S
N307 C310 1.311 . S
C308 N307 1.355 . S
C308 C309 1.363 . S
C308 H320 0.929 . S
C309 C308 1.363 . S
C309 N311 1.375 . S
C309 H327 0.931 . S
C310 N307 1.311 . S
C310 N311 1.347 . S
C310 H321 0.929 . S
N311 C309 1.375 . S
N311 C310 1.347 . S
C312 C315 1.365 . S
C312 N317 1.328 . S
C312 H318 0.929 . S
C313 C314 1.362 . S
C313 C316 1.378 . S
C313 H328 0.929 . S
C314 C313 1.362 . S
C314 C315 1.366 . S
C315 C312 1.365 . S
C315 C314 1.366 . S
C315 H329 0.930 . S
C316 C313 1.378 . S
C316 N317 1.315 . S
C316 H319 0.930 . S
N317 Co297 2.194 . S
N317 C312 1.328 . S
N317 C316 1.315 . S
H318 C312 0.929 . S
H319 C316 0.930 . S
H320 C308 0.929 . S
H321 C310 0.929 . S
O322 Co297 2.351 . S
O322 C325 1.244 . S
O323 Co297 2.155 . S
O323 C325 1.240 . S
O324 Co297 2.096 . S
O324 C305 1.247 . S
C325 O322 1.244 . S
C325 O323 1.240 . S
H326 C300 0.931 . S
H327 C309 0.931 . S
H328 C313 0.929 . S
H329 C315 0.930 . S
Co330 N334 2.148 . S
Co330 N340 2.128 . S
Co330 N350 2.194 . S
Co330 O355 2.351 . S
Co330 O356 2.155 . S
Co330 O357 2.096 . S
C331 N334 1.301 . S
C331 N335 1.328 . S
C331 H336 0.930 . S
C332 C333 1.333 . S
C332 N334 1.317 . S
C332 H337 0.930 . S
C333 C332 1.333 . S
C333 N335 1.350 . S
C333 H359 0.931 . S
N334 Co330 2.148 . S
N334 C331 1.301 . S
N334 C332 1.317 . S
N335 C331 1.328 . S
N335 C333 1.350 . S
H336 C331 0.930 . S
H337 C332 0.930 . S
C338 O339 1.224 . S
C338 O357 1.247 . S
O339 C338 1.224 . S
N340 Co330 2.128 . S
N340 C341 1.355 . S
N340 C343 1.311 . S
C341 N340 1.355 . S
C341 C342 1.363 . S
C341 H353 0.929 . S
C342 C341 1.363 . S
C342 N344 1.375 . S
C342 H360 0.931 . S
C343 N340 1.311 . S
C343 N344 1.347 . S
C343 H354 0.929 . S
N344 C342 1.375 . S
N344 C343 1.347 . S
C345 C348 1.365 . S
C345 N350 1.328 . S
C345 H351 0.929 . S
C346 C347 1.362 . S
C346 C349 1.378 . S
C346 H361 0.929 . S
C347 C346 1.362 . S
C347 C348 1.366 . S
C348 C345 1.365 . S
C348 C347 1.366 . S
C348 H362 0.930 . S
C349 C346 1.378 . S
C349 N350 1.315 . S
C349 H352 0.930 . S
N350 Co330 2.194 . S
N350 C345 1.328 . S
N350 C349 1.315 . S
H351 C345 0.929 . S
H352 C349 0.930 . S
H353 C341 0.929 . S
H354 C343 0.929 . S
O355 Co330 2.351 . S
O355 C358 1.244 . S
O356 Co330 2.155 . S
O356 C358 1.240 . S
O357 Co330 2.096 . S
O357 C338 1.247 . S
C358 O355 1.244 . S
C358 O356 1.240 . S
H359 C333 0.931 . S
H360 C342 0.931 . S
H361 C346 0.929 . S
H362 C348 0.930 . S
Co363 N367 2.148 1_655 S
Co363 N373 2.128 . S
Co363 N383 2.194 . S
Co363 O388 2.351 . S
Co363 O389 2.155 . S
Co363 O390 2.096 . S
C364 N367 1.301 . S
C364 N368 1.328 . S
C364 H369 0.930 . S
C365 C366 1.333 . S
C365 N367 1.317 . S
C365 H370 0.930 . S
C366 C365 1.333 . S
C366 N368 1.350 . S
C366 H392 0.931 . S
N367 Co363 2.148 1_455 S
N367 C364 1.301 . S
N367 C365 1.317 . S
N368 C364 1.328 . S
N368 C366 1.350 . S
H369 C364 0.930 . S
H370 C365 0.930 . S
C371 O372 1.224 . S
C371 O390 1.247 . S
O372 C371 1.224 . S
N373 Co363 2.128 . S
N373 C374 1.355 . S
N373 C376 1.311 . S
C374 N373 1.355 . S
C374 C375 1.363 . S
C374 H386 0.929 . S
C375 C374 1.363 . S
C375 N377 1.375 . S
C375 H393 0.931 . S
C376 N373 1.311 . S
C376 N377 1.347 . S
C376 H387 0.929 . S
N377 C375 1.375 . S
N377 C376 1.347 . S
C378 C381 1.365 . S
C378 N383 1.328 . S
C378 H384 0.929 . S
C379 C380 1.362 . S
C379 C382 1.378 . S
C379 H394 0.929 . S
C380 C379 1.362 . S
C380 C381 1.366 . S
C381 C378 1.365 . S
C381 C380 1.366 . S
C381 H395 0.930 . S
C382 C379 1.378 . S
C382 N383 1.315 . S
C382 H385 0.930 . S
N383 Co363 2.194 . S
N383 C378 1.328 . S
N383 C382 1.315 . S
H384 C378 0.929 . S
H385 C382 0.930 . S
H386 C374 0.929 . S
H387 C376 0.929 . S
O388 Co363 2.351 . S
O388 C391 1.244 . S
O389 Co363 2.155 . S
O389 C391 1.240 . S
O390 Co363 2.096 . S
O390 C371 1.247 . S
C391 O388 1.244 . S
C391 O389 1.240 . S
H392 C366 0.931 . S
H393 C375 0.931 . S
H394 C379 0.929 . S
H395 C381 0.930 . S
Co396 N400 2.148 . S
Co396 N406 2.128 . S
Co396 N416 2.194 . S
Co396 O421 2.351 . S
Co396 O422 2.155 . S
Co396 O423 2.096 . S
C397 N400 1.301 . S
C397 N401 1.328 . S
C397 H402 0.930 . S
C398 C399 1.333 . S
C398 N400 1.317 . S
C398 H403 0.930 . S
C399 C398 1.333 . S
C399 N401 1.350 . S
C399 H425 0.931 . S
N400 Co396 2.148 . S
N400 C397 1.301 . S
N400 C398 1.317 . S
N401 C397 1.328 . S
N401 C399 1.350 . S
H402 C397 0.930 . S
H403 C398 0.930 . S
C404 O405 1.224 . S
C404 O423 1.247 . S
O405 C404 1.224 . S
N406 Co396 2.128 . S
N406 C407 1.355 . S
N406 C409 1.311 . S
C407 N406 1.355 . S
C407 C408 1.363 . S
C407 H419 0.929 . S
C408 C407 1.363 . S
C408 N410 1.375 . S
C408 H426 0.931 . S
C409 N406 1.311 . S
C409 N410 1.347 . S
C409 H420 0.929 . S
N410 C408 1.375 . S
N410 C409 1.347 . S
C411 C414 1.365 . S
C411 N416 1.328 . S
C411 H417 0.929 . S
C412 C413 1.362 . S
C412 C415 1.378 . S
C412 H427 0.929 . S
C413 C412 1.362 . S
C413 C414 1.366 . S
C414 C411 1.365 . S
C414 C413 1.366 . S
C414 H428 0.930 . S
C415 C412 1.378 . S
C415 N416 1.315 . S
C415 H418 0.930 . S
N416 Co396 2.194 . S
N416 C411 1.328 . S
N416 C415 1.315 . S
H417 C411 0.929 . S
H418 C415 0.930 . S
H419 C407 0.929 . S
H420 C409 0.929 . S
O421 Co396 2.351 . S
O421 C424 1.244 . S
O422 Co396 2.155 . S
O422 C424 1.240 . S
O423 Co396 2.096 . S
O423 C404 1.247 . S
C424 O421 1.244 . S
C424 O422 1.240 . S
H425 C399 0.931 . S
H426 C408 0.931 . S
H427 C412 0.929 . S
H428 C414 0.930 . S
Co429 N433 2.148 1_655 S
Co429 N439 2.128 . S
Co429 N449 2.194 . S
Co429 O454 2.351 . S
Co429 O455 2.155 . S
Co429 O456 2.096 . S
C430 N433 1.301 . S
C430 N434 1.328 . S
C430 H435 0.930 . S
C431 C432 1.333 . S
C431 N433 1.317 . S
C431 H436 0.930 . S
C432 C431 1.333 . S
C432 N434 1.350 . S
C432 H458 0.931 . S
N433 Co429 2.148 1_455 S
N433 C430 1.301 . S
N433 C431 1.317 . S
N434 C430 1.328 . S
N434 C432 1.350 . S
H435 C430 0.930 . S
H436 C431 0.930 . S
C437 O438 1.224 . S
C437 O456 1.247 . S
O438 C437 1.224 . S
N439 Co429 2.128 . S
N439 C440 1.355 . S
N439 C442 1.311 . S
C440 N439 1.355 . S
C440 C441 1.363 . S
C440 H452 0.929 . S
C441 C440 1.363 . S
C441 N443 1.375 . S
C441 H459 0.931 . S
C442 N439 1.311 . S
C442 N443 1.347 . S
C442 H453 0.929 . S
N443 C441 1.375 . S
N443 C442 1.347 . S
C444 C447 1.365 . S
C444 N449 1.328 . S
C444 H450 0.929 . S
C445 C446 1.362 . S
C445 C448 1.378 . S
C445 H460 0.929 . S
C446 C445 1.362 . S
C446 C447 1.366 . S
C447 C444 1.365 . S
C447 C446 1.366 . S
C447 H461 0.930 . S
C448 C445 1.378 . S
C448 N449 1.315 . S
C448 H451 0.930 . S
N449 Co429 2.194 . S
N449 C444 1.328 . S
N449 C448 1.315 . S
H450 C444 0.929 . S
H451 C448 0.930 . S
H452 C440 0.929 . S
H453 C442 0.929 . S
O454 Co429 2.351 . S
O454 C457 1.244 . S
O455 Co429 2.155 . S
O455 C457 1.240 . S
O456 Co429 2.096 . S
O456 C437 1.247 . S
C457 O454 1.244 . S
C457 O455 1.240 . S
H458 C432 0.931 . S
H459 C441 0.931 . S
H460 C445 0.929 . S
H461 C447 0.930 . S
Co462 N466 2.148 1_565 S
Co462 N472 2.128 . S
Co462 N482 2.194 . S
Co462 O487 2.351 . S
Co462 O488 2.155 . S
Co462 O489 2.096 . S
C463 N466 1.301 . S
C463 N467 1.328 . S
C463 H468 0.930 . S
C464 C465 1.333 . S
C464 N466 1.317 . S
C464 H469 0.930 . S
C465 C464 1.333 . S
C465 N467 1.350 . S
C465 H491 0.931 . S
N466 Co462 2.148 1_545 S
N466 C463 1.301 . S
N466 C464 1.317 . S
N467 C463 1.328 . S
N467 C465 1.350 . S
H468 C463 0.930 . S
H469 C464 0.930 . S
C470 O471 1.224 . S
C470 O489 1.247 . S
O471 C470 1.224 . S
N472 Co462 2.128 . S
N472 C473 1.355 . S
N472 C475 1.311 . S
C473 N472 1.355 . S
C473 C474 1.363 . S
C473 H485 0.929 . S
C474 C473 1.363 . S
C474 N476 1.375 . S
C474 H492 0.931 . S
C475 N472 1.311 . S
C475 N476 1.347 . S
C475 H486 0.929 . S
N476 C474 1.375 . S
N476 C475 1.347 . S
C477 C480 1.365 . S
C477 N482 1.328 . S
C477 H483 0.929 . S
C478 C479 1.362 . S
C478 C481 1.378 . S
C478 H493 0.929 . S
C479 C478 1.362 . S
C479 C480 1.366 . S
C480 C477 1.365 . S
C480 C479 1.366 . S
C480 H494 0.930 . S
C481 C478 1.378 . S
C481 N482 1.315 . S
C481 H484 0.930 . S
N482 Co462 2.194 . S
N482 C477 1.328 . S
N482 C481 1.315 . S
H483 C477 0.929 . S
H484 C481 0.930 . S
H485 C473 0.929 . S
H486 C475 0.929 . S
O487 Co462 2.351 . S
O487 C490 1.244 . S
O488 Co462 2.155 . S
O488 C490 1.240 . S
O489 Co462 2.096 . S
O489 C470 1.247 . S
C490 O487 1.244 . S
C490 O488 1.240 . S
H491 C465 0.931 . S
H492 C474 0.931 . S
H493 C478 0.929 . S
H494 C480 0.930 . S
Co495 N499 2.148 . S
Co495 N505 2.128 . S
Co495 N515 2.194 . S
Co495 O520 2.351 . S
Co495 O521 2.155 . S
Co495 O522 2.096 . S
C496 N499 1.301 . S
C496 N500 1.328 . S
C496 H501 0.930 . S
C497 C498 1.333 . S
C497 N499 1.317 . S
C497 H502 0.930 . S
C498 C497 1.333 . S
C498 N500 1.350 . S
C498 H524 0.931 . S
N499 Co495 2.148 . S
N499 C496 1.301 . S
N499 C497 1.317 . S
N500 C496 1.328 . S
N500 C498 1.350 . S
H501 C496 0.930 . S
H502 C497 0.930 . S
C503 O504 1.224 . S
C503 O522 1.247 . S
O504 C503 1.224 . S
N505 Co495 2.128 . S
N505 C506 1.355 . S
N505 C508 1.311 . S
C506 N505 1.355 . S
C506 C507 1.363 . S
C506 H518 0.929 . S
C507 C506 1.363 . S
C507 N509 1.375 . S
C507 H525 0.931 . S
C508 N505 1.311 . S
C508 N509 1.347 . S
C508 H519 0.929 . S
N509 C507 1.375 . S
N509 C508 1.347 . S
C510 C513 1.365 . S
C510 N515 1.328 . S
C510 H516 0.929 . S
C511 C512 1.362 . S
C511 C514 1.378 . S
C511 H526 0.929 . S
C512 C511 1.362 . S
C512 C513 1.366 . S
C513 C510 1.365 . S
C513 C512 1.366 . S
C513 H527 0.930 . S
C514 C511 1.378 . S
C514 N515 1.315 . S
C514 H517 0.930 . S
N515 Co495 2.194 . S
N515 C510 1.328 . S
N515 C514 1.315 . S
H516 C510 0.929 . S
H517 C514 0.930 . S
H518 C506 0.929 . S
H519 C508 0.929 . S
O520 Co495 2.351 . S
O520 C523 1.244 . S
O521 Co495 2.155 . S
O521 C523 1.240 . S
O522 Co495 2.096 . S
O522 C503 1.247 . S
C523 O520 1.244 . S
C523 O521 1.240 . S
H524 C498 0.931 . S
H525 C507 0.931 . S
H526 C511 0.929 . S
H527 C513 0.930 . S
C528 C529 1.369 . S
C528 C530 1.419 . S
C528 H532 0.930 . S
C529 C528 1.369 . S
C529 C538 1.429 . S
C530 C528 1.419 . S
C530 C531 1.363 . S
C530 H533 0.929 . S
C531 C530 1.363 . S
C531 C537 1.428 . S
H532 C528 0.930 . S
H533 C530 0.929 . S
S534 N535 1.613 . S
S534 N536 1.610 . S
N535 S534 1.613 . S
N535 C538 1.350 . S
N536 S534 1.610 . S
N536 C537 1.351 . S
C537 C531 1.428 . S
C537 N536 1.351 . S
C537 C538 1.434 . S
C538 C529 1.429 . S
C538 N535 1.350 . S
C538 C537 1.434 . S
C539 C540 1.369 . S
C539 C541 1.419 . S
C539 H543 0.930 . S
C540 C539 1.369 . S
C540 C549 1.429 . S
C541 C539 1.419 . S
C541 C542 1.363 . S
C541 H544 0.929 . S
C542 C541 1.363 . S
C542 C548 1.428 . S
H543 C539 0.930 . S
H544 C541 0.929 . S
S545 N546 1.613 . S
S545 N547 1.610 . S
N546 S545 1.613 . S
N546 C549 1.350 . S
N547 S545 1.610 . S
N547 C548 1.351 . S
C548 C542 1.428 . S
C548 N547 1.351 . S
C548 C549 1.434 . S
C549 C540 1.429 . S
C549 N546 1.350 . S
C549 C548 1.434 . S
C550 C551 1.369 . S
C550 C552 1.419 . S
C550 H554 0.930 . S
C551 C550 1.369 . S
C551 C560 1.429 . S
C552 C550 1.419 . S
C552 C553 1.363 . S
C552 H555 0.929 . S
C553 C552 1.363 . S
C553 C559 1.428 . S
H554 C550 0.930 . S
H555 C552 0.929 . S
S556 N557 1.613 . S
S556 N558 1.610 . S
N557 S556 1.613 . S
N557 C560 1.350 . S
N558 S556 1.610 . S
N558 C559 1.351 . S
C559 C553 1.428 . S
C559 N558 1.351 . S
C559 C560 1.434 . S
C560 C551 1.429 . S
C560 N557 1.350 . S
C560 C559 1.434 . S
C561 C562 1.369 . S
C561 C563 1.419 . S
C561 H565 0.930 . S
C562 C561 1.369 . S
C562 C571 1.429 . S
C563 C561 1.419 . S
C563 C564 1.363 . S
C563 H566 0.929 . S
C564 C563 1.363 . S
C564 C570 1.428 . S
H565 C561 0.930 . S
H566 C563 0.929 . S
S567 N568 1.613 . S
S567 N569 1.610 . S
N568 S567 1.613 . S
N568 C571 1.350 . S
N569 S567 1.610 . S
N569 C570 1.351 . S
C570 C564 1.428 . S
C570 N569 1.351 . S
C570 C571 1.434 . S
C571 C562 1.429 . S
C571 N568 1.350 . S
C571 C570 1.434 . S
C572 C573 1.369 . S
C572 C574 1.419 . S
C572 H576 0.930 . S
C573 C572 1.369 . S
C573 C582 1.429 . S
C574 C572 1.419 . S
C574 C575 1.363 . S
C574 H577 0.929 . S
C575 C574 1.363 . S
C575 C581 1.428 . S
H576 C572 0.930 . S
H577 C574 0.929 . S
S578 N579 1.613 . S
S578 N580 1.610 . S
N579 S578 1.613 . S
N579 C582 1.350 . S
N580 S578 1.610 . S
N580 C581 1.351 . S
C581 C575 1.428 . S
C581 N580 1.351 . S
C581 C582 1.434 . S
C582 C573 1.429 . S
C582 N579 1.350 . S
C582 C581 1.434 . S
C583 C584 1.369 . S
C583 C585 1.419 . S
C583 H587 0.930 . S
C584 C583 1.369 . S
C584 C593 1.429 . S
C585 C583 1.419 . S
C585 C586 1.363 . S
C585 H588 0.929 . S
C586 C585 1.363 . S
C586 C592 1.428 . S
H587 C583 0.930 . S
H588 C585 0.929 . S
S589 N590 1.613 . S
S589 N591 1.610 . S
N590 S589 1.613 . S
N590 C593 1.350 . S
N591 S589 1.610 . S
N591 C592 1.351 . S
C592 C586 1.428 . S
C592 N591 1.351 . S
C592 C593 1.434 . S
C593 C584 1.429 . S
C593 N590 1.350 . S
C593 C592 1.434 . S
C594 C595 1.369 . S
C594 C596 1.419 . S
C594 H598 0.930 . S
C595 C594 1.369 . S
C595 C604 1.429 . S
C596 C594 1.419 . S
C596 C597 1.363 . S
C596 H599 0.929 . S
C597 C596 1.363 . S
C597 C603 1.428 . S
H598 C594 0.930 . S
H599 C596 0.929 . S
S600 N601 1.613 . S
S600 N602 1.610 . S
N601 S600 1.613 . S
N601 C604 1.350 . S
N602 S600 1.610 . S
N602 C603 1.351 . S
C603 C597 1.428 . S
C603 N602 1.351 . S
C603 C604 1.434 . S
C604 C595 1.429 . S
C604 N601 1.350 . S
C604 C603 1.434 . S
C605 C606 1.369 . S
C605 C607 1.419 . S
C605 H609 0.930 . S
C606 C605 1.369 . S
C606 C615 1.429 . S
C607 C605 1.419 . S
C607 C608 1.363 . S
C607 H610 0.929 . S
C608 C607 1.363 . S
C608 C614 1.428 . S
H609 C605 0.930 . S
H610 C607 0.929 . S
S611 N612 1.613 . S
S611 N613 1.610 . S
N612 S611 1.613 . S
N612 C615 1.350 . S
N613 S611 1.610 . S
N613 C614 1.351 . S
C614 C608 1.428 . S
C614 N613 1.351 . S
C614 C615 1.434 . S
C615 C606 1.429 . S
C615 N612 1.350 . S
C615 C614 1.434 . S
C616 C617 1.369 . S
C616 C618 1.419 . S
C616 H620 0.930 . S
C617 C616 1.369 . S
C617 C626 1.429 . S
C618 C616 1.419 . S
C618 C619 1.363 . S
C618 H621 0.929 . S
C619 C618 1.363 . S
C619 C625 1.428 . S
H620 C616 0.930 . S
H621 C618 0.929 . S
S622 N623 1.613 . S
S622 N624 1.610 . S
N623 S622 1.613 . S
N623 C626 1.350 . S
N624 S622 1.610 . S
N624 C625 1.351 . S
C625 C619 1.428 . S
C625 N624 1.351 . S
C625 C626 1.434 . S
C626 C617 1.429 . S
C626 N623 1.350 . S
C626 C625 1.434 . S
C627 C628 1.369 . S
C627 C629 1.419 . S
C627 H631 0.930 . S
C628 C627 1.369 . S
C628 C637 1.429 . S
C629 C627 1.419 . S
C629 C630 1.363 . S
C629 H632 0.929 . S
C630 C629 1.363 . S
C630 C636 1.428 . S
H631 C627 0.930 . S
H632 C629 0.929 . S
S633 N634 1.613 . S
S633 N635 1.610 . S
N634 S633 1.613 . S
N634 C637 1.350 . S
N635 S633 1.610 . S
N635 C636 1.351 . S
C636 C630 1.428 . S
C636 N635 1.351 . S
C636 C637 1.434 . S
C637 C628 1.429 . S
C637 N634 1.350 . S
C637 C636 1.434 . S
C638 C639 1.369 . S
C638 C640 1.419 . S
C638 H642 0.930 . S
C639 C638 1.369 . S
C639 C648 1.429 . S
C640 C638 1.419 . S
C640 C641 1.363 . S
C640 H643 0.929 . S
C641 C640 1.363 . S
C641 C647 1.428 . S
H642 C638 0.930 . S
H643 C640 0.929 . S
S644 N645 1.613 . S
S644 N646 1.610 . S
N645 S644 1.613 . S
N645 C648 1.350 . S
N646 S644 1.610 . S
N646 C647 1.351 . S
C647 C641 1.428 . S
C647 N646 1.351 . S
C647 C648 1.434 . S
C648 C639 1.429 . S
C648 N645 1.350 . S
C648 C647 1.434 . S
C649 C650 1.369 . S
C649 C651 1.419 . S
C649 H653 0.930 . S
C650 C649 1.369 . S
C650 C659 1.429 . S
C651 C649 1.419 . S
C651 C652 1.363 . S
C651 H654 0.929 . S
C652 C651 1.363 . S
C652 C658 1.428 . S
H653 C649 0.930 . S
H654 C651 0.929 . S
S655 N656 1.613 . S
S655 N657 1.610 . S
N656 S655 1.613 . S
N656 C659 1.350 . S
N657 S655 1.610 . S
N657 C658 1.351 . S
C658 C652 1.428 . S
C658 N657 1.351 . S
C658 C659 1.434 . S
C659 C650 1.429 . S
C659 N656 1.350 . S
C659 C658 1.434 . S
C660 C661 1.369 . S
C660 C662 1.419 . S
C660 H664 0.930 . S
C661 C660 1.369 . S
C661 C670 1.429 . S
C662 C660 1.419 . S
C662 C663 1.363 . S
C662 H665 0.929 . S
C663 C662 1.363 . S
C663 C669 1.428 . S
H664 C660 0.930 . S
H665 C662 0.929 . S
S666 N667 1.613 . S
S666 N668 1.610 . S
N667 S666 1.613 . S
N667 C670 1.350 . S
N668 S666 1.610 . S
N668 C669 1.351 . S
C669 C663 1.428 . S
C669 N668 1.351 . S
C669 C670 1.434 . S
C670 C661 1.429 . S
C670 N667 1.350 . S
C670 C669 1.434 . S
C671 C672 1.369 . S
C671 C673 1.419 . S
C671 H675 0.930 . S
C672 C671 1.369 . S
C672 C681 1.429 . S
C673 C671 1.419 . S
C673 C674 1.363 . S
C673 H676 0.929 . S
C674 C673 1.363 . S
C674 C680 1.428 . S
H675 C671 0.930 . S
H676 C673 0.929 . S
S677 N678 1.613 . S
S677 N679 1.610 . S
N678 S677 1.613 . S
N678 C681 1.350 . S
N679 S677 1.610 . S
N679 C680 1.351 . S
C680 C674 1.428 . S
C680 N679 1.351 . S
C680 C681 1.434 . S
C681 C672 1.429 . S
C681 N678 1.350 . S
C681 C680 1.434 . S
C682 C683 1.369 . S
C682 C684 1.419 . S
C682 H686 0.930 . S
C683 C682 1.369 . S
C683 C692 1.429 . S
C684 C682 1.419 . S
C684 C685 1.363 . S
C684 H687 0.929 . S
C685 C684 1.363 . S
C685 C691 1.428 . S
H686 C682 0.930 . S
H687 C684 0.929 . S
S688 N689 1.613 . S
S688 N690 1.610 . S
N689 S688 1.613 . S
N689 C692 1.350 . S
N690 S688 1.610 . S
N690 C691 1.351 . S
C691 C685 1.428 . S
C691 N690 1.351 . S
C691 C692 1.434 . S
C692 C683 1.429 . S
C692 N689 1.350 . S
C692 C691 1.434 . S
C693 C694 1.369 . S
C693 C695 1.419 . S
C693 H697 0.930 . S
C694 C693 1.369 . S
C694 C703 1.429 . S
C695 C693 1.419 . S
C695 C696 1.363 . S
C695 H698 0.929 . S
C696 C695 1.363 . S
C696 C702 1.428 . S
H697 C693 0.930 . S
H698 C695 0.929 . S
S699 N700 1.613 . S
S699 N701 1.610 . S
N700 S699 1.613 . S
N700 C703 1.350 . S
N701 S699 1.610 . S
N701 C702 1.351 . S
C702 C696 1.428 . S
C702 N701 1.351 . S
C702 C703 1.434 . S
C703 C694 1.429 . S
C703 N700 1.350 . S
C703 C702 1.434 . S
C704 C705 1.369 . S
C704 C706 1.419 . S
C704 H708 0.930 . S
C705 C704 1.369 . S
C705 C714 1.429 . S
C706 C704 1.419 . S
C706 C707 1.363 . S
C706 H709 0.929 . S
C707 C706 1.363 . S
C707 C713 1.428 . S
H708 C704 0.930 . S
H709 C706 0.929 . S
S710 N711 1.613 . S
S710 N712 1.610 . S
N711 S710 1.613 . S
N711 C714 1.350 . S
N712 S710 1.610 . S
N712 C713 1.351 . S
C713 C707 1.428 . S
C713 N712 1.351 . S
C713 C714 1.434 . S
C714 C705 1.429 . S
C714 N711 1.350 . S
C714 C713 1.434 . S
C715 C716 1.369 . S
C715 C717 1.419 . S
C715 H719 0.930 . S
C716 C715 1.369 . S
C716 C725 1.429 . S
C717 C715 1.419 . S
C717 C718 1.363 . S
C717 H720 0.929 . S
C718 C717 1.363 . S
C718 C724 1.428 . S
H719 C715 0.930 . S
H720 C717 0.929 . S
S721 N722 1.613 . S
S721 N723 1.610 . S
N722 S721 1.613 . S
N722 C725 1.350 . S
N723 S721 1.610 . S
N723 C724 1.351 . S
C724 C718 1.428 . S
C724 N723 1.351 . S
C724 C725 1.434 . S
C725 C716 1.429 . S
C725 N722 1.350 . S
C725 C724 1.434 . S
C726 C727 1.369 . S
C726 C728 1.419 . S
C726 H730 0.930 . S
C727 C726 1.369 . S
C727 C736 1.429 . S
C728 C726 1.419 . S
C728 C729 1.363 . S
C728 H731 0.929 . S
C729 C728 1.363 . S
C729 C735 1.428 . S
H730 C726 0.930 . S
H731 C728 0.929 . S
S732 N733 1.613 . S
S732 N734 1.610 . S
N733 S732 1.613 . S
N733 C736 1.350 . S
N734 S732 1.610 . S
N734 C735 1.351 . S
C735 C729 1.428 . S
C735 N734 1.351 . S
C735 C736 1.434 . S
C736 C727 1.429 . S
C736 N733 1.350 . S
C736 C735 1.434 . S
C737 C738 1.369 . S
C737 C739 1.419 . S
C737 H741 0.930 . S
C738 C737 1.369 . S
C738 C747 1.429 . S
C739 C737 1.419 . S
C739 C740 1.363 . S
C739 H742 0.929 . S
C740 C739 1.363 . S
C740 C746 1.428 . S
H741 C737 0.930 . S
H742 C739 0.929 . S
S743 N744 1.613 . S
S743 N745 1.610 . S
N744 S743 1.613 . S
N744 C747 1.350 . S
N745 S743 1.610 . S
N745 C746 1.351 . S
C746 C740 1.428 . S
C746 N745 1.351 . S
C746 C747 1.434 . S
C747 C738 1.429 . S
C747 N744 1.350 . S
C747 C746 1.434 . S
C748 C749 1.369 . S
C748 C750 1.419 . S
C748 H752 0.930 . S
C749 C748 1.369 . S
C749 C758 1.429 . S
C750 C748 1.419 . S
C750 C751 1.363 . S
C750 H753 0.929 . S
C751 C750 1.363 . S
C751 C757 1.428 . S
H752 C748 0.930 . S
H753 C750 0.929 . S
S754 N755 1.613 . S
S754 N756 1.610 . S
N755 S754 1.613 . S
N755 C758 1.350 . S
N756 S754 1.610 . S
N756 C757 1.351 . S
C757 C751 1.428 . S
C757 N756 1.351 . S
C757 C758 1.434 . S
C758 C749 1.429 . S
C758 N755 1.350 . S
C758 C757 1.434 . S
C759 C760 1.369 . S
C759 C761 1.419 . S
C759 H763 0.930 . S
C760 C759 1.369 . S
C760 C769 1.429 . S
C761 C759 1.419 . S
C761 C762 1.363 . S
C761 H764 0.929 . S
C762 C761 1.363 . S
C762 C768 1.428 . S
H763 C759 0.930 . S
H764 C761 0.929 . S
S765 N766 1.613 . S
S765 N767 1.610 . S
N766 S765 1.613 . S
N766 C769 1.350 . S
N767 S765 1.610 . S
N767 C768 1.351 . S
C768 C762 1.428 . S
C768 N767 1.351 . S
C768 C769 1.434 . S
C769 C760 1.429 . S
C769 N766 1.350 . S
C769 C768 1.434 . S
C770 C771 1.369 . S
C770 C772 1.419 . S
C770 H774 0.930 . S
C771 C770 1.369 . S
C771 C780 1.429 . S
C772 C770 1.419 . S
C772 C773 1.363 . S
C772 H775 0.929 . S
C773 C772 1.363 . S
C773 C779 1.428 . S
H774 C770 0.930 . S
H775 C772 0.929 . S
S776 N777 1.613 . S
S776 N778 1.610 . S
N777 S776 1.613 . S
N777 C780 1.350 . S
N778 S776 1.610 . S
N778 C779 1.351 . S
C779 C773 1.428 . S
C779 N778 1.351 . S
C779 C780 1.434 . S
C780 C771 1.429 . S
C780 N777 1.350 . S
C780 C779 1.434 . S
C781 C782 1.369 . S
C781 C783 1.419 . S
C781 H785 0.930 . S
C782 C781 1.369 . S
C782 C791 1.429 . S
C783 C781 1.419 . S
C783 C784 1.363 . S
C783 H786 0.929 . S
C784 C783 1.363 . S
C784 C790 1.428 . S
H785 C781 0.930 . S
H786 C783 0.929 . S
S787 N788 1.613 . S
S787 N789 1.610 . S
N788 S787 1.613 . S
N788 C791 1.350 . S
N789 S787 1.610 . S
N789 C790 1.351 . S
C790 C784 1.428 . S
C790 N789 1.351 . S
C790 C791 1.434 . S
C791 C782 1.429 . S
C791 N788 1.350 . S
C791 C790 1.434 . S
C792 C793 1.369 . S
C792 C794 1.419 . S
C792 H796 0.930 . S
C793 C792 1.369 . S
C793 C802 1.429 . S
C794 C792 1.419 . S
C794 C795 1.363 . S
C794 H797 0.929 . S
C795 C794 1.363 . S
C795 C801 1.428 . S
H796 C792 0.930 . S
H797 C794 0.929 . S
S798 N799 1.613 . S
S798 N800 1.610 . S
N799 S798 1.613 . S
N799 C802 1.350 . S
N800 S798 1.610 . S
N800 C801 1.351 . S
C801 C795 1.428 . S
C801 N800 1.351 . S
C801 C802 1.434 . S
C802 C793 1.429 . S
C802 N799 1.350 . S
C802 C801 1.434 . S
C803 C804 1.369 . S
C803 C805 1.419 . S
C803 H807 0.930 . S
C804 C803 1.369 . S
C804 C813 1.429 . S
C805 C803 1.419 . S
C805 C806 1.363 . S
C805 H808 0.929 . S
C806 C805 1.363 . S
C806 C812 1.428 . S
H807 C803 0.930 . S
H808 C805 0.929 . S
S809 N810 1.613 . S
S809 N811 1.610 . S
N810 S809 1.613 . S
N810 C813 1.350 . S
N811 S809 1.610 . S
N811 C812 1.351 . S
C812 C806 1.428 . S
C812 N811 1.351 . S
C812 C813 1.434 . S
C813 C804 1.429 . S
C813 N810 1.350 . S
C813 C812 1.434 . S
C814 C815 1.369 . S
C814 C816 1.419 . S
C814 H818 0.930 . S
C815 C814 1.369 . S
C815 C824 1.429 . S
C816 C814 1.419 . S
C816 C817 1.363 . S
C816 H819 0.929 . S
C817 C816 1.363 . S
C817 C823 1.428 . S
H818 C814 0.930 . S
H819 C816 0.929 . S
S820 N821 1.613 . S
S820 N822 1.610 . S
N821 S820 1.613 . S
N821 C824 1.350 . S
N822 S820 1.610 . S
N822 C823 1.351 . S
C823 C817 1.428 . S
C823 N822 1.351 . S
C823 C824 1.434 . S
C824 C815 1.429 . S
C824 N821 1.350 . S
C824 C823 1.434 . S
C825 C826 1.369 . S
C825 C827 1.419 . S
C825 H829 0.930 . S
C826 C825 1.369 . S
C826 C835 1.429 . S
C827 C825 1.419 . S
C827 C828 1.363 . S
C827 H830 0.929 . S
C828 C827 1.363 . S
C828 C834 1.428 . S
H829 C825 0.930 . S
H830 C827 0.929 . S
S831 N832 1.613 . S
S831 N833 1.610 . S
N832 S831 1.613 . S
N832 C835 1.350 . S
N833 S831 1.610 . S
N833 C834 1.351 . S
C834 C828 1.428 . S
C834 N833 1.351 . S
C834 C835 1.434 . S
C835 C826 1.429 . S
C835 N832 1.350 . S
C835 C834 1.434 . S
C836 C837 1.369 . S
C836 C838 1.419 . S
C836 H840 0.930 . S
C837 C836 1.369 . S
C837 C846 1.429 . S
C838 C836 1.419 . S
C838 C839 1.363 . S
C838 H841 0.929 . S
C839 C838 1.363 . S
C839 C845 1.428 . S
H840 C836 0.930 . S
H841 C838 0.929 . S
S842 N843 1.613 . S
S842 N844 1.610 . S
N843 S842 1.613 . S
N843 C846 1.350 . S
N844 S842 1.610 . S
N844 C845 1.351 . S
C845 C839 1.428 . S
C845 N844 1.351 . S
C845 C846 1.434 . S
C846 C837 1.429 . S
C846 N843 1.350 . S
C846 C845 1.434 . S
C847 C848 1.369 . S
C847 C849 1.419 . S
C847 H851 0.930 . S
C848 C847 1.369 . S
C848 C857 1.429 . S
C849 C847 1.419 . S
C849 C850 1.363 . S
C849 H852 0.929 . S
C850 C849 1.363 . S
C850 C856 1.428 . S
H851 C847 0.930 . S
H852 C849 0.929 . S
S853 N854 1.613 . S
S853 N855 1.610 . S
N854 S853 1.613 . S
N854 C857 1.350 . S
N855 S853 1.610 . S
N855 C856 1.351 . S
C856 C850 1.428 . S
C856 N855 1.351 . S
C856 C857 1.434 . S
C857 C848 1.429 . S
C857 N854 1.350 . S
C857 C856 1.434 . S
C858 C859 1.369 . S
C858 C860 1.419 . S
C858 H862 0.930 . S
C859 C858 1.369 . S
C859 C868 1.429 . S
C860 C858 1.419 . S
C860 C861 1.363 . S
C860 H863 0.929 . S
C861 C860 1.363 . S
C861 C867 1.428 . S
H862 C858 0.930 . S
H863 C860 0.929 . S
S864 N865 1.613 . S
S864 N866 1.610 . S
N865 S864 1.613 . S
N865 C868 1.350 . S
N866 S864 1.610 . S
N866 C867 1.351 . S
C867 C861 1.428 . S
C867 N866 1.351 . S
C867 C868 1.434 . S
C868 C859 1.429 . S
C868 N865 1.350 . S
C868 C867 1.434 . S
C869 C870 1.369 . S
C869 C871 1.419 . S
C869 H873 0.930 . S
C870 C869 1.369 . S
C870 C879 1.429 . S
C871 C869 1.419 . S
C871 C872 1.363 . S
C871 H874 0.929 . S
C872 C871 1.363 . S
C872 C878 1.428 . S
H873 C869 0.930 . S
H874 C871 0.929 . S
S875 N876 1.613 . S
S875 N877 1.610 . S
N876 S875 1.613 . S
N876 C879 1.350 . S
N877 S875 1.610 . S
N877 C878 1.351 . S
C878 C872 1.428 . S
C878 N877 1.351 . S
C878 C879 1.434 . S
C879 C870 1.429 . S
C879 N876 1.350 . S
C879 C878 1.434 . S
C880 C881 1.369 1_565 S
C880 C882 1.419 1_556 S
C880 H884 0.930 . S
C881 C880 1.369 1_545 S
C881 C890 1.429 . S
C882 C880 1.419 1_554 S
C882 C883 1.363 1_565 S
C882 H885 0.929 . S
C883 C882 1.363 1_545 S
C883 C889 1.428 . S
H884 C880 0.930 . S
H885 C882 0.929 . S
S886 N887 1.602 1_554 S
S886 N888 1.622 . S
N887 S886 1.602 1_556 S
N887 C890 1.350 . S
N888 S886 1.622 . S
N888 C889 1.351 . S
C889 C883 1.428 . S
C889 N888 1.351 . S
C889 C890 1.434 1_554 S
C890 C881 1.429 . S
C890 N887 1.350 . S
C890 C889 1.434 1_556 S
C891 C892 1.369 . S
C891 C893 1.419 . S
C891 H895 0.930 . S
C892 C891 1.369 . S
C892 C901 1.429 . S
C893 C891 1.419 . S
C893 C894 1.363 . S
C893 H896 0.929 . S
C894 C893 1.363 . S
C894 C900 1.428 . S
H895 C891 0.930 . S
H896 C893 0.929 . S
S897 N898 1.613 . S
S897 N899 1.610 . S
N898 S897 1.613 . S
N898 C901 1.350 . S
N899 S897 1.610 . S
N899 C900 1.351 . S
C900 C894 1.428 . S
C900 N899 1.351 . S
C900 C901 1.434 . S
C901 C892 1.429 . S
C901 N898 1.350 . S
C901 C900 1.434 . S
C902 C903 1.369 . S
C902 C904 1.419 1_554 S
C902 H906 0.930 . S
C903 C902 1.369 . S
C903 C912 1.429 . S
C904 C902 1.419 1_556 S
C904 C905 1.363 . S
C904 H907 0.929 . S
C905 C904 1.363 . S
C905 C911 1.428 . S
H906 C902 0.930 . S
H907 C904 0.929 . S
S908 N909 1.613 1_556 S
S908 N910 1.610 . S
N909 S908 1.613 1_554 S
N909 C912 1.350 . S
N910 S908 1.610 . S
N910 C911 1.351 . S
C911 C905 1.428 . S
C911 N910 1.351 . S
C911 C912 1.434 1_556 S
C912 C903 1.429 . S
C912 N909 1.350 . S
C912 C911 1.434 1_554 S
C913 C914 1.369 1_655 S
C913 C915 1.419 . S
C913 H917 0.930 . S
C914 C913 1.369 1_455 S
C914 C923 1.429 . S
C915 C913 1.419 . S
C915 C916 1.363 1_655 S
C915 H918 0.929 . S
C916 C915 1.363 1_455 S
C916 C922 1.428 . S
H917 C913 0.930 . S
H918 C915 0.929 . S
S919 N920 1.613 . S
S919 N921 1.610 . S
N920 S919 1.613 . S
N920 C923 1.350 . S
N921 S919 1.610 . S
N921 C922 1.351 . S
C922 C916 1.428 . S
C922 N921 1.351 . S
C922 C923 1.434 . S
C923 C914 1.429 . S
C923 N920 1.350 . S
C923 C922 1.434 . S
C924 C925 1.369 . S
C924 C926 1.419 1_554 S
C924 H928 0.930 . S
C925 C924 1.369 . S
C925 C934 1.429 1_565 S
C926 C924 1.419 1_556 S
C926 C927 1.363 . S
C926 H929 0.929 . S
C927 C926 1.363 . S
C927 C933 1.428 1_565 S
H928 C924 0.930 . S
H929 C926 0.929 . S
S930 N931 1.613 . S
S930 N932 1.610 1_554 S
N931 S930 1.613 . S
N931 C934 1.350 . S
N932 S930 1.610 1_556 S
N932 C933 1.351 . S
C933 C927 1.428 1_545 S
C933 N932 1.351 . S
C933 C934 1.434 1_556 S
C934 C925 1.429 1_545 S
C934 N931 1.350 . S
C934 C933 1.434 1_554 S
C935 C936 1.369 . S
C935 C937 1.419 . S
C935 H939 0.930 . S
C936 C935 1.369 . S
C936 C945 1.429 . S
C937 C935 1.419 . S
C937 C938 1.363 . S
C937 H940 0.929 . S
C938 C937 1.363 . S
C938 C944 1.428 . S
H939 C935 0.930 . S
H940 C937 0.929 . S
S941 N942 1.613 . S
S941 N943 1.610 . S
N942 S941 1.613 . S
N942 C945 1.350 . S
N943 S941 1.610 . S
N943 C944 1.351 . S
C944 C938 1.428 . S
C944 N943 1.351 . S
C944 C945 1.434 . S
C945 C936 1.429 . S
C945 N942 1.350 . S
C945 C944 1.434 . S
C946 C947 1.369 . S
C946 C948 1.419 1_554 S
C946 H950 0.930 . S
C947 C946 1.369 . S
C947 C956 1.429 . S
C948 C946 1.419 1_556 S
C948 C949 1.363 . S
C948 H951 0.929 . S
C949 C948 1.363 . S
C949 C955 1.428 . S
H950 C946 0.930 . S
H951 C948 0.929 . S
S952 N953 1.613 1_556 S
S952 N954 1.610 . S
N953 S952 1.613 1_554 S
N953 C956 1.350 . S
N954 S952 1.610 . S
N954 C955 1.351 . S
C955 C949 1.428 . S
C955 N954 1.351 . S
C955 C956 1.434 1_556 S
C956 C947 1.429 . S
C956 N953 1.350 . S
C956 C955 1.434 1_554 S
C957 C958 1.369 . S
C957 C959 1.419 . S
C957 H961 0.930 . S
C958 C957 1.369 . S
C958 C967 1.429 . S
C959 C957 1.419 . S
C959 C960 1.363 . S
C959 H962 0.929 . S
C960 C959 1.363 . S
C960 C966 1.428 . S
H961 C957 0.930 . S
H962 C959 0.929 . S
S963 N964 1.613 . S
S963 N965 1.610 . S
N964 S963 1.613 . S
N964 C967 1.350 . S
N965 S963 1.610 . S
N965 C966 1.351 . S
C966 C960 1.428 . S
C966 N965 1.351 . S
C966 C967 1.434 . S
C967 C958 1.429 . S
C967 N964 1.350 . S
C967 C966 1.434 . S
C529 N14 1.696 . S
C531 N245 1.698 . S
C540 N146 1.696 . S
C542 N47 1.698 . S
C551 N179 1.699 . S
C553 N80 1.697 . S
C562 N113 1.696 . S
C564 N212 1.699 . S
C573 N269 2.179 . S
C575 N500 2.179 . S
C584 N302 2.179 . S
C586 N401 2.179 . S
C595 N434 2.178 . S
C597 N335 2.179 . S
C606 N368 2.176 . S
C608 N467 2.177 . S
C617 C8 1.301 . S
C619 C314 1.153 . S
C628 C347 1.147 . S
C630 C41 1.299 . S
C639 C380 1.141 . S
C641 C74 1.300 . S
C650 C281 1.140 . S
C652 C107 1.300 . S
C661 C512 1.158 . S
C663 C140 1.300 . S
C672 C413 1.153 . S
C674 C173 1.301 . S
C683 C446 1.156 . S
C685 C206 1.301 . S
C694 C479 1.155 . S
C696 C239 1.299 . S
C705 C61 1.374 . S
C707 C292 1.444 . S
C716 C94 1.363 . S
C718 C325 1.440 . S
C727 C127 1.374 . S
C729 C358 1.444 . S
C738 C391 1.440 . S
C740 C28 1.365 . S
C749 C259 1.368 . S
C751 C424 1.442 . S
C760 C160 1.365 . S
C762 C457 1.441 . S
C771 C193 1.370 . S
C773 C490 1.443 . S
C782 C226 1.370 . S
C784 C523 1.443 . S
C793 N71 1.170 . S
C795 N5 1.185 . S
C804 N38 1.174 . S
C806 N104 1.184 . S
C815 N203 1.184 . S
C817 N137 1.178 . S
C826 N236 1.185 . S
C828 N170 1.168 . S
C837 N344 1.213 . S
C839 N278 1.207 . S
C848 N377 1.211 . S
C850 N311 1.211 . S
C859 N410 1.195 . S
C861 N476 1.202 . S
C870 N509 1.195 . S
C872 N443 1.202 . S
C881 C215 1.399 . S
C883 C17 1.398 . S
C892 C248 1.402 . S
C894 C50 1.399 . S
C903 C83 1.406 . S
C905 C149 1.402 . S
C914 C182 1.403 . S
C916 C116 1.399 . S
C925 C470 1.511 . S
C927 C272 1.510 . S
C936 C503 1.512 . S
C938 C305 1.508 . S
C947 C404 1.512 . S
C949 C338 1.510 . S
C958 C371 1.509 . S
C960 C437 1.507 . S
