# Generated by pormake.
# Topology cbo, (4)-cn, num edge types: 1
# Building blocks:
#     Node 0, Type 0, BuildingBlock: NAHDIM_clean_sbu_0, # of connection points: 4
#     Node 1, Type 0, BuildingBlock: NAHDIM_clean_sbu_0, # of connection points: 4
#     Node 2, Type 0, BuildingBlock: NAHDIM_clean_sbu_0, # of connection points: 4
#     Node 3, Type 0, BuildingBlock: NAHDIM_clean_sbu_0, # of connection points: 4
#     Node 4, Type 0, BuildingBlock: NAHDIM_clean_sbu_0, # of connection points: 4
#     Node 5, Type 0, BuildingBlock: NAHDIM_clean_sbu_0, # of connection points: 4
#     Node 6, Type 0, BuildingBlock: NAHDIM_clean_sbu_0, # of connection points: 4
#     Node 7, Type 0, BuildingBlock: NAHDIM_clean_sbu_0, # of connection points: 4
#     Node 8, Type 0, BuildingBlock: NAHDIM_clean_sbu_0, # of connection points: 4
#     Node 9, Type 0, BuildingBlock: NAHDIM_clean_sbu_0, # of connection points: 4
#     Node 10, Type 0, BuildingBlock: NAHDIM_clean_sbu_0, # of connection points: 4
#     Node 11, Type 0, BuildingBlock: NAHDIM_clean_sbu_0, # of connection points: 4
#     Node 12, Type 0, BuildingBlock: NAHDIM_clean_sbu_0, # of connection points: 4
#     Node 13, Type 0, BuildingBlock: NAHDIM_clean_sbu_0, # of connection points: 4
#     Node 14, Type 0, BuildingBlock: NAHDIM_clean_sbu_0, # of connection points: 4
#     Node 15, Type 0, BuildingBlock: NAHDIM_clean_sbu_0, # of connection points: 4
#     Node 16, Type 0, BuildingBlock: NAHDIM_clean_sbu_0, # of connection points: 4
#     Node 17, Type 0, BuildingBlock: NAHDIM_clean_sbu_0, # of connection points: 4
#     Node 18, Type 0, BuildingBlock: NAHDIM_clean_sbu_0, # of connection points: 4
#     Node 19, Type 0, BuildingBlock: NAHDIM_clean_sbu_0, # of connection points: 4
#     Node 20, Type 0, BuildingBlock: NAHDIM_clean_sbu_0, # of connection points: 4
#     Node 21, Type 0, BuildingBlock: NAHDIM_clean_sbu_0, # of connection points: 4
#     Node 22, Type 0, BuildingBlock: NAHDIM_clean_sbu_0, # of connection points: 4
#     Node 23, Type 0, BuildingBlock: NAHDIM_clean_sbu_0, # of connection points: 4
#     Edge 24, Type (0, 0), BuildingBlock: TEMPAE_clean_linker_10, # of connection points: 2
#     Edge 25, Type (0, 0), BuildingBlock: TEMPAE_clean_linker_10, # of connection points: 2
#     Edge 26, Type (0, 0), BuildingBlock: TEMPAE_clean_linker_10, # of connection points: 2
#     Edge 27, Type (0, 0), BuildingBlock: TEMPAE_clean_linker_10, # of connection points: 2
#     Edge 28, Type (0, 0), BuildingBlock: TEMPAE_clean_linker_10, # of connection points: 2
#     Edge 29, Type (0, 0), BuildingBlock: TEMPAE_clean_linker_10, # of connection points: 2
#     Edge 30, Type (0, 0), BuildingBlock: TEMPAE_clean_linker_10, # of connection points: 2
#     Edge 31, Type (0, 0), BuildingBlock: TEMPAE_clean_linker_10, # of connection points: 2
#     Edge 32, Type (0, 0), BuildingBlock: TEMPAE_clean_linker_10, # of connection points: 2
#     Edge 33, Type (0, 0), BuildingBlock: TEMPAE_clean_linker_10, # of connection points: 2
#     Edge 34, Type (0, 0), BuildingBlock: TEMPAE_clean_linker_10, # of connection points: 2
#     Edge 35, Type (0, 0), BuildingBlock: TEMPAE_clean_linker_10, # of connection points: 2
#     Edge 36, Type (0, 0), BuildingBlock: TEMPAE_clean_linker_10, # of connection points: 2
#     Edge 37, Type (0, 0), BuildingBlock: TEMPAE_clean_linker_10, # of connection points: 2
#     Edge 38, Type (0, 0), BuildingBlock: TEMPAE_clean_linker_10, # of connection points: 2
#     Edge 39, Type (0, 0), BuildingBlock: TEMPAE_clean_linker_10, # of connection points: 2
#     Edge 40, Type (0, 0), BuildingBlock: TEMPAE_clean_linker_10, # of connection points: 2
#     Edge 41, Type (0, 0), BuildingBlock: TEMPAE_clean_linker_10, # of connection points: 2
#     Edge 42, Type (0, 0), BuildingBlock: TEMPAE_clean_linker_10, # of connection points: 2
#     Edge 43, Type (0, 0), BuildingBlock: TEMPAE_clean_linker_10, # of connection points: 2
#     Edge 44, Type (0, 0), BuildingBlock: TEMPAE_clean_linker_10, # of connection points: 2
#     Edge 45, Type (0, 0), BuildingBlock: TEMPAE_clean_linker_10, # of connection points: 2
#     Edge 46, Type (0, 0), BuildingBlock: TEMPAE_clean_linker_10, # of connection points: 2
#     Edge 47, Type (0, 0), BuildingBlock: TEMPAE_clean_linker_10, # of connection points: 2
#     Edge 48, Type (0, 0), BuildingBlock: TEMPAE_clean_linker_10, # of connection points: 2
#     Edge 49, Type (0, 0), BuildingBlock: TEMPAE_clean_linker_10, # of connection points: 2
#     Edge 50, Type (0, 0), BuildingBlock: TEMPAE_clean_linker_10, # of connection points: 2
#     Edge 51, Type (0, 0), BuildingBlock: TEMPAE_clean_linker_10, # of connection points: 2
#     Edge 52, Type (0, 0), BuildingBlock: TEMPAE_clean_linker_10, # of connection points: 2
#     Edge 53, Type (0, 0), BuildingBlock: TEMPAE_clean_linker_10, # of connection points: 2
#     Edge 54, Type (0, 0), BuildingBlock: TEMPAE_clean_linker_10, # of connection points: 2
#     Edge 55, Type (0, 0), BuildingBlock: TEMPAE_clean_linker_10, # of connection points: 2
#     Edge 56, Type (0, 0), BuildingBlock: TEMPAE_clean_linker_10, # of connection points: 2
#     Edge 57, Type (0, 0), BuildingBlock: TEMPAE_clean_linker_10, # of connection points: 2
#     Edge 58, Type (0, 0), BuildingBlock: TEMPAE_clean_linker_10, # of connection points: 2
#     Edge 59, Type (0, 0), BuildingBlock: TEMPAE_clean_linker_10, # of connection points: 2
#     Edge 60, Type (0, 0), BuildingBlock: TEMPAE_clean_linker_10, # of connection points: 2
#     Edge 61, Type (0, 0), BuildingBlock: TEMPAE_clean_linker_10, # of connection points: 2
#     Edge 62, Type (0, 0), BuildingBlock: TEMPAE_clean_linker_10, # of connection points: 2
#     Edge 63, Type (0, 0), BuildingBlock: TEMPAE_clean_linker_10, # of connection points: 2
#     Edge 64, Type (0, 0), BuildingBlock: TEMPAE_clean_linker_10, # of connection points: 2
#     Edge 65, Type (0, 0), BuildingBlock: TEMPAE_clean_linker_10, # of connection points: 2
#     Edge 66, Type (0, 0), BuildingBlock: TEMPAE_clean_linker_10, # of connection points: 2
#     Edge 67, Type (0, 0), BuildingBlock: TEMPAE_clean_linker_10, # of connection points: 2
#     Edge 68, Type (0, 0), BuildingBlock: TEMPAE_clean_linker_10, # of connection points: 2
#     Edge 69, Type (0, 0), BuildingBlock: TEMPAE_clean_linker_10, # of connection points: 2
#     Edge 70, Type (0, 0), BuildingBlock: TEMPAE_clean_linker_10, # of connection points: 2
#     Edge 71, Type (0, 0), BuildingBlock: TEMPAE_clean_linker_10, # of connection points: 2
# Relax obj value: 0.274
# Max RMSD: 0.281
# Mean RMSD: 0.265
data_MOF--net-cbo--node1-NAHDIM_clean_sbu_0--edge1-TEMPAE_clean_linker_10
_symmetry_space_group_name_H-M    P1
_symmetry_Int_Tables_number       1
_symmetry_cell_setting            triclinic
loop_
_symmetry_equiv_pos_as_xyz
'x, y, z'
_cell_length_a     52.219638
_cell_length_b     49.981457
_cell_length_c     51.113151
_cell_angle_alpha  90.002182
_cell_angle_beta   90.022268
_cell_angle_gamma 90.017866
loop_
_atom_site_label
_atom_site_type_symbol
_atom_site_fract_x
_atom_site_fract_y
_atom_site_fract_z
_atom_type_partial_charge
C0 C 0.99137 0.15253 0.29292 0.0
O1 O 0.99696 0.17646 0.30192 0.0
O2 O 0.04517 0.18183 0.24669 0.0
Zn3 Zn 0.04342 0.15607 0.27692 0.0
O4 O 0.05274 0.17483 0.31028 0.0
C5 C 0.07424 0.11929 0.24756 0.0
O6 O 0.05882 0.12693 0.22867 0.0
O7 O 0.00848 0.13947 0.28069 0.0
C8 C 0.0749 0.18498 0.31283 0.0
O9 O 0.09094 0.18386 0.29305 0.0
C10 C 0.02853 0.18349 0.22861 0.0
O11 O 0.00758 0.16903 0.23018 0.0
O12 O 0.07044 0.12808 0.27056 0.0
C13 C 0.49797 0.86334 0.79824 0.0
O14 O 0.48009 0.86265 0.8163 0.0
O15 O 0.45531 0.81762 0.73672 0.0
Zn16 Zn 0.45689 0.84211 0.76788 0.0
O17 O 0.44209 0.82371 0.79945 0.0
C18 C 0.42144 0.88661 0.77575 0.0
O19 O 0.4255 0.88242 0.80078 0.0
O20 O 0.49263 0.85528 0.77529 0.0
C21 C 0.41854 0.81728 0.79919 0.0
O22 O 0.40517 0.82135 0.77777 0.0
C23 C 0.47023 0.81962 0.71717 0.0
O24 O 0.48935 0.83667 0.71814 0.0
O25 O 0.43367 0.87284 0.75899 0.0
C26 C 0.48567 0.34863 0.71544 0.0
O27 O 0.49143 0.327 0.70209 0.0
O28 O 0.54449 0.3218 0.76043 0.0
Zn29 Zn 0.53892 0.34579 0.72945 0.0
O30 O 0.54789 0.32737 0.69569 0.0
C31 C 0.56777 0.38563 0.75643 0.0
O32 O 0.55336 0.37745 0.77593 0.0
O33 O 0.50296 0.36003 0.72892 0.0
C34 C 0.54664 0.3415 0.67506 0.0
O35 O 0.53838 0.36626 0.67689 0.0
C36 C 0.56725 0.31349 0.76381 0.0
O37 O 0.58435 0.3183 0.74554 0.0
O38 O 0.56397 0.37596 0.73377 0.0
C39 C 0.01044 0.6182 0.20402 0.0
O40 O 0.9948 0.62262 0.18435 0.0
O41 O 0.96886 0.66429 0.26486 0.0
Zn42 Zn 0.96879 0.64136 0.23239 0.0
O43 O 0.95881 0.66276 0.20053 0.0
C44 C 0.93273 0.60702 0.25917 0.0
O45 O 0.94435 0.61633 0.28008 0.0
O46 O 0.00331 0.62434 0.22702 0.0
C47 C 0.93513 0.66717 0.19668 0.0
O48 O 0.91851 0.65937 0.21441 0.0
C49 C 0.96182 0.68862 0.26547 0.0
O50 O 0.95584 0.70076 0.24352 0.0
O51 O 0.9412 0.61343 0.23672 0.0
C52 C 0.33121 0.03411 0.15372 0.0
O53 O 0.32792 0.02501 0.12983 0.0
O54 O 0.26899 0.05457 0.12618 0.0
Zn55 Zn 0.27755 0.02692 0.15326 0.0
O56 O 0.27853 0.9902 0.13737 0.0
C57 C 0.24537 0.05314 0.18877 0.0
O58 O 0.26118 0.07243 0.18206 0.0
O59 O 0.31184 0.03627 0.16861 0.0
C60 C 0.25878 0.9796 0.1272 0.0
O61 O 0.23711 0.99294 0.1272 0.0
C62 C 0.27162 0.05356 0.1015 0.0
O63 O 0.28145 0.03207 0.09064 0.0
O64 O 0.24941 0.02974 0.17997 0.0
C65 C 0.16383 0.93114 0.6647 0.0
O66 O 0.16722 0.93849 0.64026 0.0
O67 O 0.22837 0.9139 0.63991 0.0
Zn68 Zn 0.21759 0.9416 0.66621 0.0
O69 O 0.21678 0.97818 0.64968 0.0
C70 C 0.2603 0.9583 0.69942 0.0
O71 O 0.25916 0.98076 0.68613 0.0
O72 O 0.1829 0.93126 0.68015 0.0
C73 C 0.20169 0.99615 0.65813 0.0
O74 O 0.18643 0.99059 0.67782 0.0
C75 C 0.22588 0.91522 0.61521 0.0
O76 O 0.21513 0.93641 0.60468 0.0
O77 O 0.24395 0.94002 0.69488 0.0
C78 C 0.82896 0.47302 0.82959 0.0
O79 O 0.82917 0.48619 0.85184 0.0
O80 O 0.76853 0.45354 0.86496 0.0
Zn81 Zn 0.77567 0.48052 0.83683 0.0
O82 O 0.7805 0.51728 0.85169 0.0
C83 C 0.74067 0.45543 0.804 0.0
O84 O 0.75729 0.43627 0.8087 0.0
O85 O 0.80766 0.46876 0.81832 0.0
C86 C 0.765 0.52774 0.86785 0.0
O87 O 0.74455 0.51428 0.87502 0.0
C88 C 0.77845 0.4511 0.88753 0.0
O89 O 0.79556 0.46855 0.89552 0.0
O90 O 0.74515 0.47865 0.81304 0.0
C91 C 0.65627 0.54814 0.31032 0.0
O92 O 0.65534 0.53427 0.33214 0.0
O93 O 0.71741 0.56983 0.34691 0.0
Zn94 Zn 0.70946 0.54164 0.32008 0.0
O95 O 0.70378 0.50582 0.33699 0.0
C96 C 0.74885 0.56259 0.28865 0.0
O97 O 0.73481 0.58404 0.29255 0.0
O98 O 0.67799 0.55327 0.30027 0.0
C99 C 0.7149 0.49913 0.35812 0.0
O100 O 0.73077 0.51603 0.36929 0.0
C101 C 0.70493 0.57649 0.36722 0.0
O102 O 0.68382 0.56362 0.37329 0.0
O103 O 0.74077 0.54027 0.29723 0.0
C104 C 0.13431 0.25876 0.96659 0.0
O105 O 0.15731 0.26714 0.97306 0.0
O106 O 0.16077 0.2069 0.01758 0.0
Zn107 Zn 0.13739 0.23879 0.01836 0.0
O108 O 0.15664 0.27169 0.0297 0.0
C109 C 0.09825 0.24847 0.05797 0.0
O110 O 0.10139 0.27377 0.0518 0.0
O111 O 0.1215 0.24526 0.9831 0.0
C112 C 0.16711 0.27308 0.0521 0.0
O113 O 0.16578 0.25235 0.06786 0.0
C114 C 0.18496 0.20781 0.01509 0.0
O115 O 0.19618 0.23099 0.01113 0.0
O116 O 0.11069 0.2307 0.04553 0.0
C117 C 0.67012 0.22405 0.02632 0.0
O118 O 0.69206 0.21351 0.01912 0.0
O119 O 0.69812 0.28099 0.97815 0.0
Zn120 Zn 0.67519 0.24862 0.97625 0.0
O121 O 0.69408 0.216 0.96357 0.0
C122 C 0.64332 0.27905 0.94051 0.0
O123 O 0.65501 0.29964 0.95115 0.0
O124 O 0.65911 0.24061 0.01117 0.0
C125 C 0.69822 0.21281 0.93927 0.0
O126 O 0.69173 0.23194 0.92294 0.0
C127 C 0.72148 0.28129 0.9712 0.0
O128 O 0.73258 0.25878 0.96435 0.0
O129 O 0.64792 0.25571 0.94918 0.0
C130 C 0.84276 0.75857 0.52155 0.0
O131 O 0.81832 0.76386 0.51825 0.0
O132 O 0.80971 0.72591 0.46582 0.0
Zn133 Zn 0.83911 0.75197 0.46668 0.0
O134 O 0.82815 0.78967 0.45844 0.0
C135 C 0.88462 0.75179 0.43344 0.0
O136 O 0.8917 0.77271 0.44723 0.0
O137 O 0.8561 0.75201 0.5018 0.0
C138 C 0.8266 0.7977 0.43489 0.0
O139 O 0.83084 0.78063 0.41583 0.0
C140 C 0.78783 0.73119 0.45621 0.0
O141 O 0.78296 0.75563 0.4482 0.0
O142 O 0.86378 0.73998 0.43899 0.0
C143 C 0.37373 0.74447 0.46317 0.0
O144 O 0.36944 0.76965 0.46911 0.0
O145 O 0.33454 0.76476 0.51949 0.0
Zn146 Zn 0.35833 0.73313 0.51718 0.0
O147 O 0.3403 0.69996 0.52947 0.0
C148 C 0.39457 0.7642 0.54614 0.0
O149 O 0.38398 0.78351 0.53245 0.0
O150 O 0.37056 0.72658 0.48052 0.0
C151 C 0.33381 0.69741 0.55329 0.0
O152 O 0.33851 0.71708 0.56966 0.0
C153 C 0.31026 0.76343 0.52064 0.0
O154 O 0.29899 0.74005 0.51825 0.0
O155 O 0.38768 0.74019 0.5419 0.0
C156 C 0.99146 0.85693 0.71602 0.0
O157 O 0.98651 0.83174 0.71067 0.0
O158 O 0.93663 0.82881 0.75764 0.0
Zn159 Zn 0.93842 0.85559 0.72831 0.0
O160 O 0.92848 0.83832 0.6942 0.0
C161 C 0.88886 0.87634 0.73444 0.0
O162 O 0.88404 0.8519 0.72633 0.0
O163 O 0.97354 0.87167 0.72466 0.0
C164 C 0.92362 0.81352 0.69176 0.0
O165 O 0.92587 0.79773 0.71217 0.0
C166 C 0.95297 0.82594 0.77584 0.0
O167 O 0.97391 0.84052 0.77566 0.0
O168 O 0.91206 0.88376 0.73657 0.0
C169 C 0.50353 0.11088 0.20155 0.0
O170 O 0.50828 0.13589 0.19528 0.0
O171 O 0.55507 0.13778 0.24959 0.0
Zn172 Zn 0.55568 0.11381 0.21798 0.0
O173 O 0.56727 0.13438 0.1863 0.0
C174 C 0.58252 0.07512 0.24805 0.0
O175 O 0.56376 0.08051 0.26435 0.0
O176 O 0.52124 0.09699 0.21185 0.0
C177 C 0.58612 0.15035 0.18833 0.0
O178 O 0.59705 0.15358 0.21127 0.0
C179 C 0.54854 0.16225 0.25041 0.0
O180 O 0.53989 0.17389 0.22913 0.0
O181 O 0.58239 0.08599 0.22559 0.0
C182 C 0.49586 0.64439 0.25541 0.0
O183 O 0.49308 0.66926 0.26325 0.0
O184 O 0.44528 0.67805 0.21044 0.0
Zn185 Zn 0.44391 0.65289 0.24123 0.0
O186 O 0.43681 0.67247 0.27497 0.0
C187 C 0.41116 0.60486 0.24432 0.0
O188 O 0.428 0.59555 0.26111 0.0
O189 O 0.47702 0.63266 0.24463 0.0
C190 C 0.41403 0.67827 0.28165 0.0
O191 O 0.39507 0.67197 0.26591 0.0
C192 C 0.43796 0.70229 0.21137 0.0
O193 O 0.43111 0.71258 0.23395 0.0
O194 O 0.41467 0.62772 0.23405 0.0
C195 C 0.98937 0.37505 0.77785 0.0
O196 O 0.9917 0.34992 0.78503 0.0
O197 O 0.03946 0.34388 0.7302 0.0
Zn198 Zn 0.0412 0.36653 0.76269 0.0
O199 O 0.0487 0.34465 0.79501 0.0
C200 C 0.09051 0.38319 0.74665 0.0
O201 O 0.09047 0.35827 0.73849 0.0
O202 O 0.00837 0.38675 0.7674 0.0
C203 C 0.06387 0.32475 0.7952 0.0
O204 O 0.07451 0.31695 0.77321 0.0
C205 C 0.03266 0.31955 0.72829 0.0
O206 O 0.02403 0.30691 0.74902 0.0
O207 O 0.07067 0.39228 0.75799 0.0
C208 C 0.72699 0.02491 0.87633 0.0
O209 O 0.74918 0.01483 0.86932 0.0
O210 O 0.73792 0.96129 0.8452 0.0
Zn211 Zn 0.70868 0.97044 0.86906 0.0
O212 O 0.67549 0.95827 0.85308 0.0
C213 C 0.73728 0.94981 0.9115 0.0
O214 O 0.75434 0.96584 0.90096 0.0
O215 O 0.70744 0.00978 0.87722 0.0
C216 C 0.67204 0.93333 0.8497 0.0
O217 O 0.69045 0.91668 0.85622 0.0
C218 C 0.74227 0.96978 0.82221 0.0
O219 O 0.72644 0.98699 0.81145 0.0
O220 O 0.71483 0.94927 0.90193 0.0
C221 C 0.80937 0.99367 0.39173 0.0
O222 O 0.83008 0.00859 0.39094 0.0
O223 O 0.75849 0.04283 0.34284 0.0
Zn224 Zn 0.78503 0.04135 0.37132 0.0
O225 O 0.81897 0.0549 0.35801 0.0
C226 C 0.78438 0.08437 0.41038 0.0
O227 O 0.80878 0.08723 0.40477 0.0
O228 O 0.78809 0.00366 0.38469 0.0
C229 C 0.8204 0.07131 0.33908 0.0
O230 O 0.79924 0.07929 0.32757 0.0
C231 C 0.74696 0.02284 0.33296 0.0
O232 O 0.75339 -0.00143 0.3403 0.0
O233 O 0.77168 0.06576 0.39946 0.0
C234 C 0.22864 0.45298 0.115 0.0
O235 O 0.25234 0.46153 0.1129 0.0
O236 O 0.24991 0.50868 0.15873 0.0
Zn237 Zn 0.21831 0.50618 0.13608 0.0
O238 O 0.18707 0.51942 0.15504 0.0
C239 C 0.24593 0.53696 0.09777 0.0
O240 O 0.26567 0.5258 0.10938 0.0
O241 O 0.21166 0.46851 0.12426 0.0
C242 C 0.18436 0.54427 0.1595 0.0
O243 O 0.20285 0.56077 0.15287 0.0
C244 C 0.25026 0.51523 0.18275 0.0
O245 O 0.2285 0.51884 0.19515 0.0
O246 O 0.22347 0.53057 0.10503 0.0
C247 C 0.27473 0.51898 0.62232 0.0
O248 O 0.25058 0.51315 0.62674 0.0
O249 O 0.253 0.47372 0.67117 0.0
Zn250 Zn 0.2837 0.46825 0.64796 0.0
O251 O 0.31501 0.45638 0.66772 0.0
C252 C 0.2593 0.4207 0.62989 0.0
O253 O 0.24828 0.42329 0.65284 0.0
O254 O 0.29195 0.50245 0.6292 0.0
C255 C 0.31545 0.43519 0.68146 0.0
O256 O 0.29421 0.4215 0.68473 0.0
C257 C 0.25198 0.47344 0.696 0.0
O258 O 0.27327 0.47162 0.70957 0.0
O259 O 0.27524 0.43842 0.62249 0.0
C260 C 0.87036 0.71567 0.01765 0.0
O261 O 0.87186 0.69712 -0.0005 0.0
O262 O 0.8168 0.77021 0.97534 0.0
Zn263 Zn 0.84373 0.74167 0.97654 0.0
O264 O 0.82841 0.70692 0.96454 0.0
C265 C 0.88348 0.73761 0.9363 0.0
O266 O 0.88077 0.71162 0.939 0.0
O267 O 0.85896 0.73748 0.0124 0.0
C268 C 0.81458 0.70626 0.94409 0.0
O269 O 0.81013 0.72863 0.93137 0.0
C270 C 0.81204 0.78774 0.99267 0.0
O271 O 0.8244 0.78702 0.01505 0.0
O272 O 0.87053 0.75326 0.95076 0.0
C273 C 0.33013 0.78534 0.97131 0.0
O274 O 0.32642 0.80647 0.98612 0.0
O275 O 0.28306 0.72844 0.01833 0.0
Zn276 Zn 0.30758 0.75932 0.0156 0.0
O277 O 0.29081 0.79377 0.02643 0.0
C278 C 0.35382 0.76584 0.04809 0.0
O279 O 0.35785 0.78819 0.0352 0.0
O280 O 0.32328 0.7625 0.97972 0.0
C281 C 0.28302 0.79624 0.04986 0.0
O282 O 0.28458 0.77556 0.06567 0.0
C283 C 0.28616 0.70715 0.0051 0.0
O284 O 0.30381 0.70662 0.9868 0.0
O285 O 0.33473 0.75129 0.04219 0.0
C286 C 0.13872 0.23072 0.49312 0.0
O287 O 0.139 0.25496 0.50307 0.0
O288 O 0.18669 0.24782 0.54142 0.0
Zn289 Zn 0.16164 0.21712 0.54254 0.0
O290 O 0.17656 0.18227 0.55546 0.0
C291 C 0.1393 0.24211 0.58695 0.0
O292 O 0.16328 0.24944 0.58989 0.0
O293 O 0.14731 0.21137 0.50663 0.0
C294 C 0.18681 0.17934 0.57785 0.0
O295 O 0.18975 0.2003 0.59305 0.0
C296 C 0.21043 0.24801 0.54684 0.0
O297 O 0.22208 0.22544 0.55244 0.0
O298 O 0.13324 0.22783 0.5673 0.0
C299 C 0.63178 0.29124 0.5056 0.0
O300 O 0.65475 0.30115 0.50153 0.0
O301 O 0.66741 0.25049 0.45252 0.0
Zn302 Zn 0.6384 0.27704 0.45224 0.0
O303 O 0.65134 0.31374 0.44255 0.0
C304 C 0.62399 0.26267 0.40138 0.0
O305 O 0.64816 0.26924 0.39823 0.0
O306 O 0.62056 0.27907 0.48703 0.0
C307 C 0.67361 0.31779 0.43331 0.0
O308 O 0.68927 0.29745 0.43035 0.0
C309 C 0.67495 0.23575 0.47126 0.0
O310 O 0.66376 0.23763 0.4942 0.0
O311 O 0.61414 0.26479 0.42402 0.0
C312 C 0.07032 0.26019 0.09625 0.0
C313 C 0.08307 0.24077 0.08129 0.0
C314 C 0.0583 0.25338 0.11994 0.0
C315 C 0.05927 0.22661 0.12892 0.0
C316 C 0.0712 0.20676 0.11337 0.0
C317 C 0.08283 0.21406 0.08972 0.0
C318 C 0.04549 0.27501 0.13584 0.0
C319 C 0.07273 0.17798 0.12228 0.0
C320 C 0.05903 0.20984 0.20113 0.0
C321 C 0.03477 0.19818 0.20424 0.0
C322 C 0.06677 0.22037 0.17698 0.0
C323 C 0.04976 0.21946 0.15543 0.0
C324 C 0.02469 0.20926 0.15883 0.0
C325 C 0.01751 0.19863 0.1832 0.0
C326 C 0.0937 0.23103 0.17418 0.0
C327 C 0.0059 0.20831 0.13639 0.0
H328 H 0.07029 0.28085 0.08983 0.0
H329 H 0.09253 0.19888 0.07828 0.0
H330 H 0.0261 0.26852 0.14203 0.0
H331 H 0.05677 0.27882 0.15386 0.0
H332 H 0.04378 0.29408 0.12481 0.0
H333 H 0.0814 0.16474 0.10724 0.0
H334 H 0.08444 0.17668 0.14036 0.0
H335 H 0.05336 0.17032 0.12706 0.0
H336 H 0.07248 0.20974 0.2173 0.0
H337 H -0.00135 0.18985 0.18546 0.0
H338 H 0.09344 0.25119 0.1651 0.0
H339 H 0.10485 0.21771 0.16107 0.0
H340 H 0.10381 0.23235 0.19327 0.0
H341 H 0.0053 0.22785 0.12612 0.0
H342 H 0.98625 0.20314 0.14301 0.0
H343 H 0.01219 0.19307 0.12198 0.0
C344 C 0.4391 0.79477 0.68913 0.0
C345 C 0.46339 0.80636 0.69219 0.0
C346 C 0.43064 0.78583 0.66461 0.0
C347 C 0.44703 0.7881 0.64266 0.0
C348 C 0.47218 0.79814 0.64593 0.0
C349 C 0.48001 0.80739 0.67065 0.0
C350 C 0.40359 0.77545 0.66193 0.0
C351 C 0.4904 0.80029 0.62311 0.0
C352 C 0.42402 0.75043 0.5825 0.0
C353 C 0.41107 0.77068 0.56884 0.0
C354 C 0.43711 0.75603 0.60591 0.0
C355 C 0.4368 0.78238 0.61607 0.0
C356 C 0.42465 0.80308 0.60179 0.0
C357 C 0.41214 0.79701 0.57825 0.0
C358 C 0.45032 0.73357 0.62029 0.0
C359 C 0.42363 0.8314 0.61207 0.0
H360 H 0.42612 0.79384 0.70565 0.0
H361 H 0.49889 0.8161 0.6729 0.0
H362 H 0.39225 0.78938 0.64961 0.0
H363 H 0.40354 0.75571 0.65204 0.0
H364 H 0.39386 0.77337 0.68115 0.0
H365 H 0.51023 0.80498 0.6295 0.0
H366 H 0.49063 0.78135 0.61178 0.0
H367 H 0.48385 0.81634 0.6097 0.0
H368 H 0.42343 0.73006 0.57525 0.0
H369 H 0.40218 0.81279 0.56785 0.0
H370 H 0.43948 0.72869 0.63833 0.0
H371 H 0.46986 0.73973 0.62635 0.0
H372 H 0.45176 0.71517 0.60819 0.0
H373 H 0.41247 0.83189 0.63054 0.0
H374 H 0.41463 0.84543 0.59793 0.0
H375 H 0.44319 0.83868 0.61662 0.0
C376 C 0.60112 0.29599 0.79371 0.0
C377 C 0.57549 0.30324 0.78965 0.0
C378 C 0.61027 0.29008 0.81884 0.0
C379 C 0.59337 0.29144 0.84045 0.0
C380 C 0.56719 0.29741 0.83634 0.0
C381 C 0.55854 0.30323 0.81095 0.0
C382 C 0.63832 0.28363 0.82241 0.0
C383 C 0.54859 0.29891 0.85889 0.0
C384 C 0.61736 0.26027 0.90361 0.0
C385 C 0.62786 0.28255 0.91645 0.0
C386 C 0.60523 0.26295 0.87923 0.0
C387 C 0.60362 0.2885 0.86743 0.0
C388 C 0.61328 0.31121 0.88075 0.0
C389 C 0.62525 0.30796 0.90512 0.0
C390 C 0.59508 0.23831 0.86564 0.0
C391 C 0.61191 0.33882 0.86879 0.0
H392 H 0.61433 0.29582 0.77736 0.0
H393 H 0.53868 0.30879 0.808 0.0
H394 H 0.64772 0.29986 0.8337 0.0
H395 H 0.6406 0.26487 0.83377 0.0
H396 H 0.64847 0.28139 0.80344 0.0
H397 H 0.52847 0.30118 0.85217 0.0
H398 H 0.54999 0.28068 0.87119 0.0
H399 H 0.55348 0.31625 0.87149 0.0
H400 H 0.61925 0.24055 0.91222 0.0
H401 H 0.63325 0.32529 0.9149 0.0
H402 H 0.60657 0.23431 0.84781 0.0
H403 H 0.575 0.24152 0.85928 0.0
H404 H 0.59581 0.22032 0.87839 0.0
H405 H 0.62365 0.33946 0.85071 0.0
H406 H 0.61891 0.35459 0.88234 0.0
H407 H 0.59191 0.34358 0.86314 0.0
C408 C 0.96376 0.68899 0.31436 0.0
C409 C 0.95642 0.70151 0.29095 0.0
C410 C 0.95536 0.69869 0.33863 0.0
C411 C 0.93903 0.72126 0.33948 0.0
C412 C 0.93285 0.73494 0.31605 0.0
C413 C 0.94174 0.72497 0.29206 0.0
C414 C 0.96268 0.68379 0.36322 0.0
C415 C 0.91539 0.75902 0.31613 0.0
C416 C 0.88941 0.72366 0.39343 0.0
C417 C 0.89945 0.74324 0.41021 0.0
C418 C 0.90226 0.71626 0.37051 0.0
C419 C 0.92591 0.72854 0.36427 0.0
C420 C 0.93648 0.74791 0.38135 0.0
C421 C 0.92304 0.75515 0.40411 0.0
C422 C 0.89025 0.6956 0.35272 0.0
C423 C 0.96179 0.76117 0.37543 0.0
H424 H 0.97532 0.67099 0.31369 0.0
H425 H 0.93605 0.73482 0.27409 0.0
H426 H 0.96898 0.69796 0.37864 0.0
H427 H 0.94574 0.67289 0.37085 0.0
H428 H 0.97824 0.66907 0.35967 0.0
H429 H 0.91471 0.76908 0.29676 0.0
H430 H 0.89569 0.75266 0.32139 0.0
H431 H 0.9217 0.77374 0.33103 0.0
H432 H 0.87117 0.71438 0.39792 0.0
H433 H 0.93095 0.77025 0.41701 0.0
H434 H 0.90352 0.6785 0.34999 0.0
H435 H 0.8867 0.70444 0.33314 0.0
H436 H 0.87183 0.68784 0.36051 0.0
H437 H 0.97685 0.74579 0.37253 0.0
H438 H 0.96796 0.77494 0.39129 0.0
H439 H 0.96033 0.77271 0.35695 0.0
C440 C 0.20289 0.03971 0.20763 0.0
C441 C 0.22125 0.05959 0.20266 0.0
C442 C 0.1786 0.04636 0.21749 0.0
C443 C 0.17252 0.07353 0.2223 0.0
C444 C 0.1914 0.09349 0.21854 0.0
C445 C 0.21555 0.08626 0.20889 0.0
C446 C 0.15907 0.0245 0.22163 0.0
C447 C 0.1857 0.1227 0.22342 0.0
C448 C 0.10457 0.09914 0.21533 0.0
C449 C 0.09782 0.10405 0.24145 0.0
C450 C 0.12845 0.08811 0.20892 0.0
C451 C 0.14592 0.08157 0.22912 0.0
C452 C 0.13867 0.08504 0.25558 0.0
C453 C 0.11473 0.09636 0.26144 0.0
C454 C 0.13548 0.0848 0.18044 0.0
C455 C 0.15665 0.07799 0.27766 0.0
H456 H 0.20718 0.01902 0.203 0.0
H457 H 0.22962 0.10176 0.20526 0.0
H458 H 0.14997 0.02652 0.24114 0.0
H459 H 0.14369 0.02629 0.20676 0.0
H460 H 0.16768 0.00424 0.22004 0.0
H461 H 0.20294 0.13551 0.22116 0.0
H462 H 0.17088 0.12968 0.20943 0.0
H463 H 0.17793 0.12553 0.24342 0.0
H464 H 0.09163 0.10493 0.19975 0.0
H465 H 0.10961 0.09993 0.28169 0.0
H466 H 0.14231 0.06415 0.17667 0.0
H467 H 0.15139 0.09862 0.17546 0.0
H468 H 0.11912 0.08905 0.16718 0.0
H469 H 0.16475 0.05769 0.27474 0.0
H470 H 0.14702 0.07871 0.29702 0.0
H471 H 0.17292 0.09227 0.2779 0.0
C472 C 0.38359 0.91593 0.78525 0.0
C473 C 0.39987 0.90366 0.76701 0.0
C474 C 0.36096 0.92872 0.77718 0.0
C475 C 0.35445 0.92902 0.75029 0.0
C476 C 0.37156 0.91801 0.7317 0.0
C477 C 0.39409 0.90559 0.74027 0.0
C478 C 0.34339 0.94063 0.79752 0.0
C479 C 0.36535 0.9179 0.70282 0.0
C480 C 0.28568 0.92689 0.72722 0.0
C481 C 0.28267 0.95247 0.71635 0.0
C482 C 0.30851 0.9195 0.73968 0.0
C483 C 0.32877 0.93823 0.74155 0.0
C484 C 0.3252 0.96467 0.73232 0.0
C485 C 0.3022 0.97146 0.71971 0.0
C486 C 0.31153 0.89109 0.74929 0.0
C487 C 0.3462 0.98532 0.73442 0.0
H488 H 0.38797 0.91469 0.80595 0.0
H489 H 0.40663 0.89637 0.72599 0.0
H490 H 0.33662 0.96068 0.7913 0.0
H491 H 0.32627 0.9277 0.79981 0.0
H492 H 0.35292 0.94248 0.81688 0.0
H493 H 0.38147 0.91024 0.69079 0.0
H494 H 0.34834 0.90509 0.69924 0.0
H495 H 0.36052 0.93838 0.6961 0.0
H496 H 0.27063 0.91212 0.72495 0.0
H497 H 0.29995 0.99136 0.71161 0.0
H498 H 0.31861 0.8909 0.76974 0.0
H499 H 0.32594 0.88057 0.7371 0.0
H500 H 0.29328 0.8797 0.74841 0.0
H501 H 0.35477 0.98515 0.75428 0.0
H502 H 0.33911 0.00581 0.73011 0.0
H503 H 0.36166 0.98046 0.72032 0.0
C504 C 0.69632 0.46838 0.78999 0.0
C505 C 0.71555 0.44889 0.79217 0.0
C506 C 0.67142 0.46141 0.7821 0.0
C507 C 0.66567 0.43435 0.77641 0.0
C508 C 0.6853 0.41486 0.7774 0.0
C509 C 0.71001 0.42239 0.78516 0.0
C510 C 0.65102 0.48278 0.78095 0.0
C511 C 0.67995 0.38576 0.77148 0.0
C512 C 0.5994 0.40572 0.78731 0.0
C513 C 0.59088 0.40194 0.76156 0.0
C514 C 0.62328 0.4174 0.79245 0.0
C515 C 0.63887 0.42581 0.77133 0.0
C516 C 0.6297 0.42357 0.74536 0.0
C517 C 0.60584 0.41151 0.74077 0.0
C518 C 0.63246 0.41926 0.82043 0.0
C519 C 0.64564 0.4326 0.72237 0.0
H520 H 0.70047 0.48893 0.79528 0.0
H521 H 0.72476 0.40721 0.78664 0.0
H522 H 0.64044 0.48165 0.76216 0.0
H523 H 0.63694 0.47947 0.79688 0.0
H524 H 0.65915 0.5032 0.78311 0.0
H525 H 0.69763 0.3734 0.77164 0.0
H526 H 0.66647 0.37757 0.78623 0.0
H527 H 0.67068 0.38375 0.75205 0.0
H528 H 0.58799 0.39836 0.80349 0.0
H529 H 0.59928 0.40881 0.72081 0.0
H530 H 0.63918 0.43983 0.82481 0.0
H531 H 0.64895 0.40558 0.82332 0.0
H532 H 0.61727 0.41381 0.83468 0.0
H533 H 0.65338 0.45297 0.72583 0.0
H534 H 0.63451 0.43269 0.70384 0.0
H535 H 0.66223 0.41895 0.71995 0.0
C536 C 0.89368 0.58622 0.23914 0.0
C537 C 0.90747 0.59372 0.26157 0.0
C538 C 0.86811 0.57768 0.24092 0.0
C539 C 0.85604 0.5768 0.26569 0.0
C540 C 0.87031 0.58284 0.28851 0.0
C541 C 0.89587 0.59112 0.28618 0.0
C542 C 0.85363 0.57109 0.21618 0.0
C543 C 0.85815 0.58213 0.31531 0.0
C544 C 0.78506 0.59068 0.27249 0.0
C545 C 0.7754 0.56529 0.27876 0.0
C546 C 0.81112 0.59445 0.26706 0.0
C547 C 0.82796 0.57226 0.26774 0.0
C548 C 0.8181 0.54633 0.27249 0.0
C549 C 0.79192 0.54314 0.27802 0.0
C550 C 0.82085 0.62245 0.26199 0.0
C551 C 0.83541 0.52215 0.27302 0.0
H552 H 0.90252 0.58802 0.22003 0.0
H553 H 0.90638 0.59675 0.30362 0.0
H554 H 0.8427 0.55221 0.21855 0.0
H555 H 0.83961 0.5872 0.21201 0.0
H556 H 0.86658 0.56909 0.19905 0.0
H557 H 0.87235 0.58526 0.33121 0.0
H558 H 0.84337 0.59803 0.31671 0.0
H559 H 0.84841 0.56269 0.31854 0.0
H560 H 0.77245 0.6079 0.27285 0.0
H561 H 0.7846 0.52342 0.28271 0.0
H562 H 0.83226 0.62299 0.2437 0.0
H563 H 0.83367 0.6287 0.27821 0.0
H564 H 0.80506 0.63724 0.26035 0.0
H565 H 0.84801 0.52189 0.25555 0.0
H566 H 0.82441 0.50313 0.27371 0.0
H567 H 0.84797 0.52311 0.29051 0.0
C568 C 0.25156 0.09863 0.09762 0.0
C569 C 0.2623 0.07617 0.08536 0.0
C570 C 0.24109 0.11962 0.08299 0.0
C571 C 0.24142 0.11826 0.05534 0.0
C572 C 0.25296 0.09609 0.04275 0.0
C573 C 0.26325 0.07523 0.05794 0.0
C574 C 0.22895 0.1429 0.09722 0.0
C575 C 0.25379 0.09409 0.0133 0.0
C576 C 0.18796 0.15912 0.0256 0.0
C577 C 0.20031 0.18356 0.02074 0.0
C578 C 0.20153 0.13703 0.03521 0.0
C579 C 0.22813 0.13938 0.04002 0.0
C580 C 0.24105 0.16333 0.03335 0.0
C581 C 0.22697 0.18519 0.02378 0.0
C582 C 0.18703 0.11181 0.04198 0.0
C583 C 0.26944 0.16651 0.03797 0.0
H584 H 0.25085 0.09966 0.11879 0.0
H585 H 0.27161 0.058 0.04831 0.0
H586 H 0.23756 0.16201 0.09056 0.0
H587 H 0.20819 0.14373 0.09265 0.0
H588 H 0.23124 0.14143 0.11879 0.0
H589 H 0.26547 0.07685 0.00654 0.0
H590 H 0.23406 0.09176 0.00556 0.0
H591 H 0.26177 0.11272 0.00477 0.0
H592 H 0.16741 0.15755 0.02301 0.0
H593 H 0.23671 0.20393 0.01989 0.0
H594 H 0.18614 0.10959 0.06357 0.0
H595 H 0.19703 0.09397 0.03413 0.0
H596 H 0.16714 0.11206 0.03424 0.0
H597 H 0.27311 0.16838 0.05928 0.0
H598 H 0.27725 0.18454 0.02808 0.0
H599 H 0.28 0.14865 0.03095 0.0
C600 C 0.78304 0.42323 0.92823 0.0
C601 C 0.77151 0.42766 0.9038 0.0
C602 C 0.77712 0.40031 0.94302 0.0
C603 C 0.75937 0.38147 0.93306 0.0
C604 C 0.74747 0.38605 0.90859 0.0
C605 C 0.75364 0.40906 0.89433 0.0
C606 C 0.79002 0.39611 0.96913 0.0
C607 C 0.72839 0.36646 0.89724 0.0
C608 C 0.75704 0.30828 0.95173 0.0
C609 C 0.73422 0.30726 0.96616 0.0
C610 C 0.7666 0.33272 0.94238 0.0
C611 C 0.75311 0.35666 0.94777 0.0
C612 C 0.7313 0.35598 0.96418 0.0
C613 C 0.72207 0.33127 0.97313 0.0
C614 C 0.78996 0.3326 0.92497 0.0
C615 C 0.71654 0.3811 0.97064 0.0
H616 H 0.79685 0.43751 0.93569 0.0
H617 H 0.74457 0.41228 0.87551 0.0
H618 H 0.77542 0.39347 0.98467 0.0
H619 H 0.80166 0.37755 0.96859 0.0
H620 H 0.80268 0.4131 0.97454 0.0
H621 H 0.7208 0.37308 0.878 0.0
H622 H 0.73755 0.3466 0.89471 0.0
H623 H 0.71206 0.36383 0.91087 0.0
H624 H 0.76666 0.28986 0.94639 0.0
H625 H 0.70459 0.33071 0.98455 0.0
H626 H 0.80338 0.3488 0.93064 0.0
H627 H 0.78402 0.33635 0.90444 0.0
H628 H 0.80029 0.31318 0.92572 0.0
H629 H 0.72975 0.39752 0.9762 0.0
H630 H 0.70268 0.37785 0.98682 0.0
H631 H 0.70576 0.38775 0.95309 0.0
C632 C 0.77587 0.68277 0.45757 0.0
C633 C 0.77015 0.70899 0.44968 0.0
C634 C 0.76227 0.66088 0.44745 0.0
C635 C 0.74256 0.66535 0.42895 0.0
C636 C 0.73532 0.69185 0.42257 0.0
C637 C 0.74918 0.71339 0.43307 0.0
C638 C 0.77041 0.63294 0.45499 0.0
C639 C 0.71432 0.69745 0.40301 0.0
C640 C 0.7361 0.61329 0.37558 0.0
C641 C 0.71424 0.59908 0.38341 0.0
C642 C 0.74532 0.6349 0.39022 0.0
C643 C 0.73243 0.64255 0.4134 0.0
C644 C 0.71035 0.62835 0.42151 0.0
C645 C 0.70146 0.60674 0.40637 0.0
C646 C 0.76892 0.64954 0.38083 0.0
C647 C 0.6962 0.63595 0.44616 0.0
H648 H 0.79183 0.67918 0.47068 0.0
H649 H 0.74447 0.73359 0.42703 0.0
H650 H 0.75347 0.62026 0.4592 0.0
H651 H 0.78083 0.62363 0.43841 0.0
H652 H 0.78318 0.63289 0.47237 0.0
H653 H 0.7084 0.7188 0.40319 0.0
H654 H 0.72119 0.69242 0.38307 0.0
H655 H 0.6973 0.68482 0.40701 0.0
H656 H 0.7461 0.60759 0.35785 0.0
H657 H 0.68455 0.59587 0.41255 0.0
H658 H 0.78419 0.64842 0.39589 0.0
H659 H 0.76445 0.67101 0.37774 0.0
H660 H 0.77654 0.64119 0.36225 0.0
H661 H 0.70923 0.63447 0.46325 0.0
H662 H 0.67927 0.62299 0.4497 0.0
H663 H 0.68973 0.65705 0.44493 0.0
C664 C 0.24819 0.87132 0.61028 0.0
C665 C 0.23586 0.89324 0.59863 0.0
C666 C 0.25864 0.85073 0.59508 0.0
C667 C 0.2567 0.85195 0.56748 0.0
C668 C 0.24386 0.87371 0.55555 0.0
C669 C 0.23361 0.89416 0.57128 0.0
C670 C 0.27223 0.82788 0.60859 0.0
C671 C 0.24134 0.87559 0.52619 0.0
C672 C 0.30806 0.81173 0.53308 0.0
C673 C 0.29544 0.78735 0.52864 0.0
C674 C 0.29524 0.83349 0.5444 0.0
C675 C 0.26914 0.83086 0.55137 0.0
C676 C 0.25586 0.8069 0.54544 0.0
C677 C 0.26919 0.7854 0.53415 0.0
C678 C 0.31008 0.85871 0.55035 0.0
C679 C 0.22797 0.80341 0.55242 0.0
H680 H 0.24999 0.87036 0.63138 0.0
H681 H 0.22404 0.91096 0.56212 0.0
H682 H 0.26353 0.80853 0.60275 0.0
H683 H 0.29262 0.8274 0.60248 0.0
H684 H 0.27146 0.82956 0.63025 0.0
H685 H 0.22962 0.89304 0.52002 0.0
H686 H 0.2606 0.87737 0.51721 0.0
H687 H 0.23245 0.85709 0.51833 0.0
H688 H 0.3283 0.81354 0.52871 0.0
H689 H 0.25924 0.7667 0.53065 0.0
H690 H 0.31235 0.86082 0.57184 0.0
H691 H 0.29952 0.87655 0.54328 0.0
H692 H 0.32942 0.8586 0.5413 0.0
H693 H 0.22598 0.80202 0.57399 0.0
H694 H 0.21965 0.78507 0.54356 0.0
H695 H 0.21667 0.82097 0.54588 0.0
C696 C 0.89882 0.77646 0.9099 0.0
C697 C 0.89885 0.74879 0.91453 0.0
C698 C 0.91055 0.78727 0.88764 0.0
C699 C 0.92285 0.77004 0.86962 0.0
C700 C 0.92417 0.74226 0.87485 0.0
C701 C 0.91204 0.73192 0.89721 0.0
C702 C 0.90861 0.81702 0.88275 0.0
C703 C 0.93742 0.72333 0.85625 0.0
C704 C 0.92268 0.79637 0.8002 0.0
C705 C 0.94678 0.80869 0.79855 0.0
C706 C 0.91513 0.78269 0.82284 0.0
C707 C 0.93217 0.78102 0.84432 0.0
C708 C 0.95705 0.79206 0.84227 0.0
C709 C 0.96404 0.8059 0.81942 0.0
C710 C 0.88837 0.77127 0.82426 0.0
C711 C 0.97587 0.79031 0.86462 0.0
H712 H 0.8888 0.7897 0.92321 0.0
H713 H 0.9123 0.71054 0.90071 0.0
H714 H 0.92786 0.82558 0.87901 0.0
H715 H 0.89682 0.8207 0.86504 0.0
H716 H 0.89983 0.82786 0.89946 0.0
H717 H 0.93955 0.70296 0.86468 0.0
H718 H 0.92619 0.72177 0.83789 0.0
H719 H 0.95666 0.73106 0.85099 0.0
H720 H 0.90924 0.79826 0.78413 0.0
H721 H 0.98278 0.81516 0.81823 0.0
H722 H 0.87712 0.78232 0.83918 0.0
H723 H 0.889 0.75 0.8304 0.0
H724 H 0.87813 0.7726 0.80524 0.0
H725 H 0.96928 0.80319 0.88096 0.0
H726 H 0.99538 0.79684 0.85878 0.0
H727 H 0.97694 0.76952 0.87215 0.0
C728 C 0.5497 0.20577 0.27489 0.0
C729 C 0.55411 0.17809 0.27425 0.0
C730 C 0.55788 0.22131 0.29624 0.0
C731 C 0.57089 0.20886 0.31728 0.0
C732 C 0.57425 0.18077 0.3173 0.0
C733 C 0.56574 0.16574 0.29587 0.0
C734 C 0.5537 0.25119 0.29568 0.0
C735 C 0.5881 0.16672 0.33932 0.0
C736 C 0.62157 0.24672 0.35521 0.0
C737 C 0.60936 0.25112 0.37926 0.0
C738 C 0.6089 0.23382 0.3346 0.0
C739 C 0.58329 0.22523 0.33801 0.0
C740 C 0.57046 0.23056 0.36185 0.0
C741 C 0.58369 0.24338 0.38227 0.0
C742 C 0.62331 0.22843 0.30951 0.0
C743 C 0.54307 0.22193 0.36607 0.0
H744 H 0.5406 0.21546 0.25836 0.0
H745 H 0.5691 0.14434 0.29567 0.0
H746 H 0.54574 0.25819 0.3146 0.0
H747 H 0.57232 0.26147 0.2928 0.0
H748 H 0.54054 0.25732 0.27969 0.0
H749 H 0.58741 0.14459 0.33734 0.0
H750 H 0.60847 0.17306 0.33959 0.0
H751 H 0.57965 0.17234 0.35845 0.0
H752 H 0.64135 0.25273 0.35263 0.0
H753 H 0.57407 0.24684 0.40075 0.0
H754 H 0.61241 0.23624 0.29252 0.0
H755 H 0.62549 0.20653 0.30671 0.0
H756 H 0.64266 0.23768 0.30947 0.0
H757 H 0.53088 0.22871 0.34958 0.0
H758 H 0.53505 0.22991 0.38462 0.0
H759 H 0.54203 0.19977 0.36665 0.0
C760 C 0.44063 0.70623 0.16267 0.0
C761 C 0.43253 0.71677 0.18672 0.0
C762 C 0.43156 0.71676 0.13897 0.0
C763 C 0.41378 0.73812 0.13939 0.0
C764 C 0.4071 0.75016 0.16351 0.0
C765 C 0.41669 0.73943 0.18691 0.0
C766 C 0.43952 0.70368 0.11362 0.0
C767 C 0.38813 0.77292 0.16481 0.0
C768 C 0.39267 0.77236 0.07641 0.0
C769 C 0.37004 0.75838 0.0707 0.0
C770 C 0.40748 0.76578 0.09849 0.0
C771 C 0.39922 0.745 0.11532 0.0
C772 C 0.3765 0.73074 0.1095 0.0
C773 C 0.36231 0.73749 0.08723 0.0
C774 C 0.43179 0.78113 0.10393 0.0
C775 C 0.36688 0.70856 0.12705 0.0
H776 H 0.45316 0.68894 0.16235 0.0
H777 H 0.41044 0.74781 0.20539 0.0
H778 H 0.42347 0.69136 0.10604 0.0
H779 H 0.44402 0.719 0.0986 0.0
H780 H 0.45647 0.69052 0.11621 0.0
H781 H 0.38767 0.78241 0.18446 0.0
H782 H 0.39275 0.78844 0.15005 0.0
H783 H 0.36868 0.76524 0.1603 0.0
H784 H 0.3988 0.78848 0.06368 0.0
H785 H 0.34481 0.72662 0.08306 0.0
H786 H 0.44817 0.76712 0.10573 0.0
H787 H 0.4301 0.79188 0.12284 0.0
H788 H 0.43616 0.79593 0.08833 0.0
H789 H 0.38154 0.69257 0.12864 0.0
H790 H 0.34881 0.69949 0.11975 0.0
H791 H 0.36347 0.71642 0.14705 0.0
C792 C 0.09374 0.2458 0.60236 0.0
C793 C 0.11994 0.25051 0.60642 0.0
C794 C 0.07543 0.25457 0.62062 0.0
C795 C 0.0836 0.2682 0.64342 0.0
C796 C 0.11006 0.27249 0.64782 0.0
C797 C 0.12785 0.26367 0.62926 0.0
C798 C 0.04737 0.24979 0.61527 0.0
C799 C 0.11962 0.28685 0.67196 0.0
C800 C 0.04489 0.31876 0.68124 0.0
C801 C 0.03984 0.30469 0.7044 0.0
C802 C 0.05717 0.30634 0.66012 0.0
C803 C 0.06481 0.27928 0.66237 0.0
C804 C 0.0578 0.26435 0.68481 0.0
C805 C 0.04523 0.27725 0.70558 0.0
C806 C 0.06393 0.32287 0.63638 0.0
C807 C 0.06559 0.23545 0.68794 0.0
H808 H 0.0875 0.23562 0.58476 0.0
H809 H 0.14805 0.26725 0.63266 0.0
H810 H 0.03829 0.23966 0.6322 0.0
H811 H 0.03747 0.26924 0.61264 0.0
H812 H 0.04425 0.23745 0.59748 0.0
H813 H 0.14086 0.28758 0.67293 0.0
H814 H 0.11225 0.30767 0.67218 0.0
H815 H 0.11239 0.27677 0.68983 0.0
H816 H 0.04045 0.33992 0.68011 0.0
H817 H 0.04135 0.26626 0.72343 0.0
H818 H 0.0599 0.31162 0.61813 0.0
H819 H 0.08473 0.32746 0.63667 0.0
H820 H 0.05322 0.34206 0.63584 0.0
H821 H 0.06218 0.22412 0.66961 0.0
H822 H 0.05508 0.22553 0.70416 0.0
H823 H 0.0864 0.23442 0.69225 0.0
C824 C 0.76967 0.96737 0.78185 0.0
C825 C 0.76474 0.95943 0.8077 0.0
C826 C 0.79037 0.95654 0.7678 0.0
C827 C 0.80638 0.93731 0.7799 0.0
C828 C 0.80183 0.92971 0.80616 0.0
C829 C 0.78114 0.94088 0.81971 0.0
C830 C 0.79476 0.96519 0.73987 0.0
C831 C 0.81842 0.90922 0.81977 0.0
C832 C 0.84222 0.88475 0.74117 0.0
C833 C 0.86759 0.89376 0.7432 0.0
C834 C 0.82194 0.89947 0.75189 0.0
C835 C 0.82712 0.92385 0.76494 0.0
C836 C 0.8525 0.93377 0.76589 0.0
C837 C 0.87248 0.91858 0.75501 0.0
C838 C 0.79513 0.8882 0.75043 0.0
C839 C 0.85874 0.95977 0.7795 0.0
H840 H 0.75716 0.98176 0.77246 0.0
H841 H 0.7776 0.93469 0.83972 0.0
H842 H 0.81484 0.9719 0.73723 0.0
H843 H 0.79169 0.94796 0.72654 0.0
H844 H 0.78172 0.98166 0.73391 0.0
H845 H 0.8129 0.90628 0.84057 0.0
H846 H 0.81692 0.88971 0.80953 0.0
H847 H 0.8388 0.91545 0.81905 0.0
H848 H 0.8382 0.86571 0.73188 0.0
H849 H 0.89201 0.92576 0.75653 0.0
H850 H 0.78161 0.90354 0.743 0.0
H851 H 0.78865 0.88245 0.77033 0.0
H852 H 0.79398 0.87031 0.73759 0.0
H853 H 0.84558 0.97584 0.7729 0.0
H854 H 0.87878 0.96625 0.77589 0.0
H855 H 0.856 0.95738 0.8009 0.0
C856 C 0.62643 0.05646 0.24051 0.0
C857 C 0.60557 0.06069 0.25732 0.0
C858 C 0.64987 0.04681 0.25013 0.0
C859 C 0.6525 0.0415 0.27719 0.0
C860 C 0.63104 0.04411 0.29392 0.0
C861 C 0.6078 0.05356 0.28375 0.0
C862 C 0.67221 0.04389 0.23161 0.0
C863 C 0.63306 0.03866 0.32291 0.0
C864 C 0.70999 0.00567 0.3064 0.0
C865 C 0.7244 0.0273 0.31592 0.0
C866 C 0.687 0.00992 0.2927 0.0
C867 C 0.6782 0.03638 0.28866 0.0
C868 C 0.69321 0.05826 0.29726 0.0
C869 C 0.71615 0.05346 0.31066 0.0
C870 C 0.67168 0.98611 0.28347 0.0
C871 C 0.6845 0.08682 0.29334 0.0
H872 H 0.62481 0.06169 0.21999 0.0
H873 H 0.59176 0.0566 0.29686 0.0
H874 H 0.6862 0.06019 0.23525 0.0
H875 H 0.68226 0.02464 0.23499 0.0
H876 H 0.66612 0.04488 0.21081 0.0
H877 H 0.6141 0.03916 0.33276 0.0
H878 H 0.64197 0.01885 0.32645 0.0
H879 H 0.64556 0.05396 0.33213 0.0
H880 H 0.7163 0.98539 0.31025 0.0
H881 H 0.7272 0.07032 0.31778 0.0
H882 H 0.666 0.98869 0.2627 0.0
H883 H 0.65382 0.98452 0.29511 0.0
H884 H 0.68249 0.96708 0.28545 0.0
H885 H 0.68036 0.09057 0.27238 0.0
H886 H 0.699 0.10157 0.30005 0.0
H887 H 0.66649 0.0903 0.30435 0.0
C888 C 0.38473 0.56287 0.24633 0.0
C889 C 0.38799 0.58921 0.23742 0.0
C890 C 0.36288 0.54798 0.23948 0.0
C891 C 0.34384 0.55979 0.22347 0.0
C892 C 0.34694 0.58645 0.21467 0.0
C893 C 0.36895 0.60078 0.22169 0.0
C894 C 0.36025 0.51957 0.24911 0.0
C895 C 0.32704 0.59984 0.19765 0.0
C896 C 0.29794 0.51985 0.1814 0.0
C897 C 0.27488 0.52274 0.19521 0.0
C898 C 0.3209 0.53048 0.19115 0.0
C899 C 0.32082 0.54437 0.21527 0.0
C900 C 0.29795 0.54595 0.23006 0.0
C901 C 0.27523 0.53507 0.21987 0.0
C902 C 0.34492 0.52821 0.17485 0.0
C903 C 0.2971 0.56054 0.25591 0.0
H904 H 0.39935 0.55379 0.25848 0.0
H905 H 0.3712 0.62116 0.21481 0.0
H906 H 0.34213 0.51723 0.26019 0.0
H907 H 0.35933 0.50567 0.23221 0.0
H908 H 0.37645 0.51351 0.26189 0.0
H909 H 0.3321 0.62087 0.1929 0.0
H910 H 0.32481 0.58859 0.17907 0.0
H911 H 0.30818 0.59969 0.20764 0.0
H912 H 0.29792 0.51016 0.16242 0.0
H913 H 0.25755 0.53729 0.23075 0.0
H914 H 0.3612 0.52126 0.18703 0.0
H915 H 0.35008 0.54819 0.167 0.0
H916 H 0.34251 0.51422 0.15813 0.0
H917 H 0.31309 0.55402 0.2687 0.0
H918 H 0.27874 0.55726 0.2664 0.0
H919 H 0.29945 0.58233 0.25248 0.0
C920 C 0.20432 0.47245 0.69398 0.0
C921 C 0.22683 0.46899 0.70858 0.0
C922 C 0.18085 0.46245 0.70294 0.0
C923 C 0.17989 0.44865 0.72709 0.0
C924 C 0.20203 0.44735 0.74305 0.0
C925 C 0.22531 0.45761 0.73361 0.0
C926 C 0.15764 0.46451 0.68541 0.0
C927 C 0.20172 0.43301 0.76904 0.0
C928 C 0.1146 0.42639 0.75206 0.0
C929 C 0.1134 0.40012 0.74241 0.0
C930 C 0.13633 0.44242 0.74772 0.0
C931 C 0.15718 0.4319 0.73333 0.0
C932 C 0.15613 0.40533 0.72379 0.0
C933 C 0.13431 0.3898 0.72849 0.0
C934 C 0.13687 0.47064 0.75822 0.0
C935 C 0.17793 0.39336 0.70824 0.0
H936 H 0.20528 0.4816 0.67477 0.0
H937 H 0.24258 0.455 0.74509 0.0
H938 H 0.15376 0.44469 0.67644 0.0
H939 H 0.14045 0.47026 0.69683 0.0
H940 H 0.16047 0.4793 0.66945 0.0
H941 H 0.21889 0.43781 0.78099 0.0
H942 H 0.18432 0.43826 0.78036 0.0
H943 H 0.20133 0.41109 0.76561 0.0
H944 H 0.09854 0.43447 0.76292 0.0
H945 H 0.13359 0.36953 0.72098 0.0
H946 H 0.13796 0.48505 0.74176 0.0
H947 H 0.15419 0.4737 0.77043 0.0
H948 H 0.11967 0.47536 0.77014 0.0
H949 H 0.18102 0.40511 0.69009 0.0
H950 H 0.17429 0.3722 0.70272 0.0
H951 H 0.19592 0.39426 0.71976 0.0
C952 C 0.79099 0.83147 0.00381 0.0
C953 C 0.79571 0.81091 0.98575 0.0
C954 C 0.77846 0.8551 0.9961 0.0
C955 C 0.77094 0.85829 0.96967 0.0
C956 C 0.77444 0.83702 0.95175 0.0
C957 C 0.78656 0.81355 0.96006 0.0
C958 C 0.77443 0.87709 0.0159 0.0
C959 C 0.76682 0.83963 0.92333 0.0
C960 C 0.72745 0.91201 0.94215 0.0
C961 C 0.74539 0.92934 0.93071 0.0
C962 C 0.73543 0.88979 0.95686 0.0
C963 C 0.76193 0.8846 0.95974 0.0
C964 C 0.78004 0.90304 0.94974 0.0
C965 C 0.77153 0.9253 0.93555 0.0
C966 C 0.71554 0.87097 0.96783 0.0
C967 C 0.80849 0.89817 0.95221 0.0
H968 H 0.79776 0.82949 0.02377 0.0
H969 H 0.78991 0.79772 0.94598 0.0
H970 H 0.78817 0.89356 0.01213 0.0
H971 H 0.75485 0.88553 0.01416 0.0
H972 H 0.77733 0.8699 0.03626 0.0
H973 H 0.76956 0.8207 0.91229 0.0
H974 H 0.74646 0.84568 0.92169 0.0
H975 H 0.7785 0.85548 0.91388 0.0
H976 H 0.70718 0.91519 0.93877 0.0
H977 H 0.78554 0.93867 0.92694 0.0
H978 H 0.72076 0.86462 0.98794 0.0
H979 H 0.71458 0.85272 0.95552 0.0
H980 H 0.69622 0.88025 0.96826 0.0
H981 H 0.81366 0.89369 0.97279 0.0
H982 H 0.81998 0.91558 0.94551 0.0
H983 H 0.8139 0.88051 0.94025 0.0
C984 C 0.27394 0.57154 0.07732 0.0
C985 C 0.24983 0.55934 0.07922 0.0
C986 C 0.27744 0.5948 0.06243 0.0
C987 C 0.25642 0.60589 0.04868 0.0
C988 C 0.23234 0.59289 0.04937 0.0
C989 C 0.22926 0.56987 0.06485 0.0
C990 C 0.30338 0.60819 0.06244 0.0
C991 C 0.20964 0.60381 0.03453 0.0
C992 C 0.26243 0.68066 0.03868 0.0
C993 C 0.27404 0.68193 0.01396 0.0
C994 C 0.25531 0.65605 0.04966 0.0
C995 C 0.25946 0.63217 0.03538 0.0
C996 C 0.26924 0.63351 0.00959 0.0
C997 C 0.27664 0.65839 -0.00075 0.0
C998 C 0.2451 0.6555 0.07731 0.0
C999 C 0.27331 0.60856 0.9935 0.0
H1000 H 0.28993 0.56357 0.08837 0.0
H1001 H 0.21061 0.56043 0.06609 0.0
H1002 H 0.3102 0.61111 0.0421 0.0
H1003 H 0.30186 0.62828 0.07157 0.0
H1004 H 0.31797 0.59644 0.07332 0.0
H1005 H 0.19327 0.58961 0.0344 0.0
H1006 H 0.20323 0.62279 0.04365 0.0
H1007 H 0.21506 0.60839 0.01402 0.0
H1008 H 0.26026 0.69873 0.05019 0.0
H1009 H 0.28535 0.65924 0.98002 0.0
H1010 H 0.25941 0.64595 0.09037 0.0
H1011 H 0.22734 0.64338 0.07836 0.0
H1012 H 0.24094 0.67587 0.08489 0.0
H1013 H 0.28989 0.59725 0.00138 0.0
H1014 H 0.27715 0.61325 0.97262 0.0
H1015 H 0.25632 0.59528 0.99467 0.0
C1016 C 0.26736 0.39178 0.59048 0.0
C1017 C 0.25417 0.39654 0.61394 0.0
C1018 C 0.26314 0.36822 0.57605 0.0
C1019 C 0.24535 0.34907 0.58536 0.0
C1020 C 0.23186 0.35393 0.60891 0.0
C1021 C 0.23642 0.37756 0.62285 0.0
C1022 C 0.27776 0.36372 0.55097 0.0
C1023 C 0.21264 0.33407 0.61951 0.0
C1024 C 0.21107 0.29782 0.54384 0.0
C1025 C 0.22299 0.27405 0.55192 0.0
C1026 C 0.21953 0.32276 0.55294 0.0
C1027 C 0.24031 0.32394 0.57067 0.0
C1028 C 0.25373 0.30023 0.57719 0.0
C1029 C 0.24495 0.27552 0.56764 0.0
C1030 C 0.20487 0.34758 0.54525 0.0
C1031 C 0.27604 0.30066 0.59598 0.0
H1032 H 0.28115 0.40633 0.5835 0.0
H1033 H 0.22609 0.38104 0.64093 0.0
H1034 H 0.2894 0.34523 0.55254 0.0
H1035 H 0.26421 0.36079 0.53449 0.0
H1036 H 0.29066 0.38071 0.5462 0.0
H1037 H 0.20389 0.34082 0.63819 0.0
H1038 H 0.19712 0.33082 0.60503 0.0
H1039 H 0.22206 0.31447 0.62289 0.0
H1040 H 0.19428 0.29688 0.53139 0.0
H1041 H 0.25433 0.25726 0.5739 0.0
H1042 H 0.21818 0.36408 0.54017 0.0
H1043 H 0.1931 0.35439 0.56204 0.0
H1044 H 0.19194 0.34391 0.52836 0.0
H1045 H 0.28947 0.3171 0.59105 0.0
H1046 H 0.28673 0.28145 0.59596 0.0
H1047 H 0.26887 0.30438 0.61609 0.0
C1048 C 0.70396 0.21121 0.44079 0.0
C1049 C 0.69451 0.2149 0.46623 0.0
C1050 C 0.72053 0.19003 0.43489 0.0
C1051 C 0.7281 0.17218 0.45494 0.0
C1052 C 0.71964 0.17648 0.48092 0.0
C1053 C 0.70282 0.19776 0.48625 0.0
C1054 C 0.72904 0.18611 0.40689 0.0
C1055 C 0.72762 0.15808 0.50286 0.0
C1056 C 0.74407 0.10328 0.42907 0.0
C1057 C 0.77071 0.10497 0.42586 0.0
C1058 C 0.73012 0.1245 0.43993 0.0
C1059 C 0.74313 0.14793 0.448 0.0
C1060 C 0.77019 0.14906 0.44652 0.0
C1061 C 0.78368 0.12757 0.43537 0.0
C1062 C 0.70128 0.12248 0.44114 0.0
C1063 C 0.78476 0.17355 0.4553 0.0
H1064 H 0.69779 0.22441 0.42519 0.0
H1065 H 0.69576 0.20058 0.506 0.0
H1066 H 0.75022 0.18488 0.40585 0.0
H1067 H 0.72129 0.16695 0.39928 0.0
H1068 H 0.72251 0.20255 0.39387 0.0
H1069 H 0.72184 0.16588 0.52234 0.0
H1070 H 0.71867 0.13815 0.50005 0.0
H1071 H 0.74868 0.15514 0.5027 0.0
H1072 H 0.73387 0.08582 0.422 0.0
H1073 H 0.80428 0.12898 0.43318 0.0
H1074 H 0.69269 0.13677 0.42702 0.0
H1075 H 0.69428 0.12799 0.4609 0.0
H1076 H 0.6943 0.10206 0.43637 0.0
H1077 H 0.78147 0.19007 0.44119 0.0
H1078 H 0.80569 0.16978 0.45654 0.0
H1079 H 0.77783 0.18043 0.47468 0.0
C1080 C 0.1292 0.20004 0.45577 0.0
C1081 C 0.12882 0.22592 0.46638 0.0
C1082 C 0.12008 0.19506 0.43044 0.0
C1083 C 0.1103 0.21648 0.41533 0.0
C1084 C 0.10982 0.24265 0.42588 0.0
C1085 C 0.11911 0.24707 0.45131 0.0
C1086 C 0.12093 0.16685 0.41985 0.0
C1087 C 0.0995 0.26594 0.41031 0.0
C1088 C 0.10861 0.20421 0.34211 0.0
C1089 C 0.08329 0.19563 0.33847 0.0
C1090 C 0.11745 0.21201 0.3669 0.0
C1091 C 0.10053 0.21123 0.38851 0.0
C1092 C 0.07468 0.20362 0.38477 0.0
C1093 C 0.06637 0.1959 0.35979 0.0
C1094 C 0.14514 0.22007 0.37014 0.0
C1095 C 0.05604 0.20265 0.40734 0.0
H1096 H 0.13668 0.18356 0.46725 0.0
H1097 H 0.11875 0.26713 0.45935 0.0
H1098 H 0.10132 0.16012 0.41469 0.0
H1099 H 0.13254 0.16626 0.40168 0.0
H1100 H 0.12921 0.15246 0.43409 0.0
H1101 H 0.10048 0.28507 0.42133 0.0
H1102 H 0.11049 0.26819 0.39187 0.0
H1103 H 0.07926 0.26213 0.40482 0.0
H1104 H 0.12179 0.20417 0.32573 0.0
H1105 H 0.04672 0.18945 0.35712 0.0
H1106 H 0.15519 0.20511 0.38246 0.0
H1107 H 0.1465 0.23962 0.38031 0.0
H1108 H 0.15529 0.22158 0.35109 0.0
H1109 H 0.06202 0.18693 0.42139 0.0
H1110 H 0.03618 0.19828 0.40082 0.0
H1111 H 0.0561 0.22197 0.41803 0.0
C1112 C 0.34901 0.76547 0.93062 0.0
C1113 C 0.3426 0.78813 0.94544 0.0
C1114 C 0.36137 0.76799 0.90634 0.0
C1115 C 0.36731 0.79378 0.89664 0.0
C1116 C 0.36067 0.81672 0.9114 0.0
C1117 C 0.34847 0.81361 0.93563 0.0
C1118 C 0.36824 0.74309 0.89116 0.0
C1119 C 0.36657 0.84458 0.90163 0.0
C1120 C 0.41989 0.8045 0.84652 0.0
C1121 C 0.4057 0.80847 0.82353 0.0
C1122 C 0.40768 0.79871 0.8703 0.0
C1123 C 0.38063 0.79698 0.87113 0.0
C1124 C 0.36626 0.80002 0.84784 0.0
C1125 C 0.37898 0.80567 0.8243 0.0
C1126 C 0.42367 0.79539 0.89472 0.0
C1127 C 0.33739 0.79838 0.84797 0.0
H1128 H 0.34459 0.7457 0.93808 0.0
H1129 H 0.34353 0.83123 0.94691 0.0
H1130 H 0.35916 0.74365 0.87155 0.0
H1131 H 0.38926 0.74224 0.8881 0.0
H1132 H 0.36209 0.72452 0.90132 0.0
H1133 H 0.35981 0.86034 0.91532 0.0
H1134 H 0.38752 0.84693 0.89888 0.0
H1135 H 0.35739 0.84784 0.88231 0.0
H1136 H 0.44056 0.80651 0.84608 0.0
H1137 H 0.36785 0.80868 0.80664 0.0
H1138 H 0.41864 0.77645 0.90479 0.0
H1139 H 0.41956 0.81199 0.90851 0.0
H1140 H 0.44452 0.79532 0.89043 0.0
H1141 H 0.33102 0.7795 0.85735 0.0
H1142 H 0.32916 0.79936 0.82794 0.0
H1143 H 0.32943 0.81514 0.85965 0.0
C1144 C 0.63122 0.30925 0.5512 0.0
C1145 C 0.61875 0.29542 0.53101 0.0
C1146 C 0.61869 0.3148 0.57484 0.0
C1147 C 0.59305 0.30634 0.57839 0.0
C1148 C 0.58055 0.29176 0.55838 0.0
C1149 C 0.59356 0.28646 0.5349 0.0
C1150 C 0.63269 0.33036 0.59578 0.0
C1151 C 0.55324 0.28237 0.5615 0.0
C1152 C 0.5686 0.30622 0.64839 0.0
C1153 C 0.5564 0.33119 0.6498 0.0
C1154 C 0.57996 0.29744 0.62501 0.0
C1155 C 0.57904 0.314 0.60257 0.0
C1156 C 0.56593 0.33876 0.60363 0.0
C1157 C 0.55479 0.34705 0.62723 0.0
C1158 C 0.59372 0.27087 0.62459 0.0
C1159 C 0.56441 0.35693 0.58007 0.0
H1160 H 0.6507 0.31615 0.54842 0.0
H1161 H 0.5838 0.27569 0.51942 0.0
H1162 H 0.6229 0.34975 0.59917 0.0
H1163 H 0.63234 0.31917 0.61452 0.0
H1164 H 0.65294 0.33441 0.59044 0.0
H1165 H 0.54678 0.2699 0.54475 0.0
H1166 H 0.55119 0.27057 0.57976 0.0
H1167 H 0.54033 0.29991 0.56317 0.0
H1168 H 0.56989 0.29381 0.66573 0.0
H1169 H 0.54527 0.3663 0.62809 0.0
H1170 H 0.61451 0.27422 0.62155 0.0
H1171 H 0.58678 0.25847 0.60804 0.0
H1172 H 0.59107 0.25949 0.64306 0.0
H1173 H 0.58391 0.36386 0.57471 0.0
H1174 H 0.55221 0.37476 0.58368 0.0
H1175 H 0.55662 0.34587 0.56302 0.0
C1176 C 0.94365 0.68769 0.15283 0.0
C1177 C 0.92612 0.67845 0.17155 0.0
C1178 C 0.93536 0.69609 0.12802 0.0
C1179 C 0.90897 0.69495 0.12177 0.0
C1180 C 0.89111 0.6865 0.14088 0.0
C1181 C 0.8999 0.67848 0.16558 0.0
C1182 C 0.95491 0.70531 0.10822 0.0
C1183 C 0.86283 0.68485 0.1349 0.0
C1184 C 0.88238 0.73151 0.06252 0.0
C1185 C 0.88108 0.71081 0.04402 0.0
C1186 C 0.89196 0.72682 0.08778 0.0
C1187 C 0.90013 0.70078 0.09473 0.0
C1188 C 0.89908 0.67989 0.07606 0.0
C1189 C 0.88969 0.68519 0.0509 0.0
C1190 C 0.89306 0.74963 0.10712 0.0
C1191 C 0.90741 0.65178 0.08282 0.0
H1192 H 0.96393 0.68787 0.15735 0.0
H1193 H 0.88621 0.67139 0.17993 0.0
H1194 H 0.95584 0.69077 0.09185 0.0
H1195 H 0.9492 0.72488 0.09981 0.0
H1196 H 0.97434 0.70728 0.11686 0.0
H1197 H 0.85132 0.67934 0.15236 0.0
H1198 H 0.85579 0.70428 0.12728 0.0
H1199 H 0.85947 0.66965 0.11944 0.0
H1200 H 0.87588 0.75139 0.05728 0.0
H1201 H 0.88871 0.66908 0.03674 0.0
H1202 H 0.91279 0.7518 0.11489 0.0
H1203 H 0.88036 0.74529 0.12399 0.0
H1204 H 0.8871 0.76895 0.09827 0.0
H1205 H 0.92757 0.65183 0.08965 0.0
H1206 H 0.90577 0.6379 0.06592 0.0
H1207 H 0.8955 0.64392 0.09907 0.0
C1208 C 0.36017 0.05475 0.18724 0.0
C1209 C 0.35681 0.04329 0.16241 0.0
C1210 C 0.38405 0.06499 0.19499 0.0
C1211 C 0.40502 0.06373 0.17748 0.0
C1212 C 0.40189 0.05163 0.15265 0.0
C1213 C 0.37784 0.04155 0.14543 0.0
C1214 C 0.38669 0.0777 0.22165 0.0
C1215 C 0.42382 0.04987 0.13346 0.0
C1216 C 0.45892 0.11422 0.18407 0.0
C1217 C 0.4781 0.09896 0.19617 0.0
C1218 C 0.43494 0.10308 0.17822 0.0
C1219 C 0.42999 0.07602 0.18463 0.0
C1220 C 0.44912 0.06058 0.19716 0.0
C1221 C 0.47297 0.07224 0.20277 0.0
C1222 C 0.41501 0.12018 0.16483 0.0
C1223 C 0.4445 0.03167 0.20433 0.0
H1224 H 0.34404 0.05614 0.20051 0.0
H1225 H 0.37545 0.03267 0.12624 0.0
H1226 H 0.40264 0.06823 0.23261 0.0
H1227 H 0.39145 0.09922 0.21947 0.0
H1228 H 0.3689 0.07593 0.23343 0.0
H1229 H 0.4185 0.03888 0.11536 0.0
H1230 H 0.43016 0.0703 0.12795 0.0
H1231 H 0.44041 0.03968 0.14264 0.0
H1232 H 0.46269 0.13489 0.17894 0.0
H1233 H 0.48765 0.06031 0.21218 0.0
H1234 H 0.3972 0.12064 0.17664 0.0
H1235 H 0.41006 0.1114 0.14554 0.0
H1236 H 0.42166 0.14106 0.16175 0.0
H1237 H 0.42731 0.02999 0.21697 0.0
H1238 H 0.46107 0.02267 0.21475 0.0
H1239 H 0.4407 0.01982 0.18639 0.0
C1240 C 0.02223 0.89542 0.71532 0.0
C1241 C 0.01719 0.86823 0.71079 0.0
C1242 C 0.04615 0.9066 0.70914 0.0
C1243 C 0.06546 0.89019 0.6982 0.0
C1244 C 0.06067 0.86263 0.6941 0.0
C1245 C 0.0366 0.85199 0.70045 0.0
C1246 C 0.05058 0.93607 0.71384 0.0
C1247 C 0.08081 0.84448 0.68251 0.0
C1248 C 0.11751 0.92161 0.65648 0.0
C1249 C 0.13839 0.92187 0.67376 0.0
C1250 C 0.09356 0.91178 0.66436 0.0
C1251 C 0.09039 0.90196 0.69013 0.0
C1252 C 0.11124 0.90261 0.70783 0.0
C1253 C 0.135 0.91258 0.69943 0.0
C1254 C 0.07175 0.91147 0.64493 0.0
C1255 C 0.10856 0.89233 0.73547 0.0
H1256 H 0.00736 0.90812 0.72335 0.0
H1257 H 0.03292 0.83095 0.69695 0.0
H1258 H 0.0678 0.93902 0.72622 0.0
H1259 H 0.05423 0.94631 0.69494 0.0
H1260 H 0.03398 0.94584 0.7235 0.0
H1261 H 0.07437 0.82332 0.68144 0.0
H1262 H 0.08573 0.85132 0.66248 0.0
H1263 H 0.09859 0.8454 0.69436 0.0
H1264 H 0.11992 0.92882 0.63664 0.0
H1265 H 0.15101 0.91274 0.71293 0.0
H1266 H 0.05505 0.92242 0.65299 0.0
H1267 H 0.06555 0.89056 0.64133 0.0
H1268 H 0.07712 0.92067 0.62592 0.0
H1269 H 0.09256 0.9027 0.74551 0.0
H1270 H 0.12632 0.8952 0.74711 0.0
H1271 H 0.10385 0.87069 0.73513 0.0
C1272 C 0.96199 0.4159 0.77328 0.0
C1273 C 0.96532 0.38983 0.78289 0.0
C1274 C 0.9397 0.43049 0.77885 0.0
C1275 C 0.92041 0.4188 0.79457 0.0
C1276 C 0.92346 0.39234 0.80395 0.0
C1277 C 0.94584 0.37814 0.79791 0.0
C1278 C 0.93698 0.45858 0.76832 0.0
C1279 C 0.90335 0.37925 0.82089 0.0
C1280 C 0.87564 0.46305 0.8337 0.0
C1281 C 0.85285 0.4611 0.81929 0.0
C1282 C 0.89794 0.4499 0.8255 0.0
C1283 C 0.89749 0.43455 0.80224 0.0
C1284 C 0.87483 0.43326 0.78709 0.0
C1285 C 0.85273 0.4465 0.79584 0.0
C1286 C 0.92174 0.4517 0.84221 0.0
C1287 C 0.87373 0.41728 0.76204 0.0
H1288 H 0.9769 0.42502 0.76153 0.0
H1289 H 0.94826 0.35801 0.80541 0.0
H1290 H 0.91876 0.46056 0.75733 0.0
H1291 H 0.93626 0.47303 0.78478 0.0
H1292 H 0.95307 0.46422 0.75522 0.0
H1293 H 0.90829 0.35826 0.82594 0.0
H1294 H 0.90103 0.39077 0.8393 0.0
H1295 H 0.88457 0.37937 0.81074 0.0
H1296 H 0.87593 0.47432 0.85181 0.0
H1297 H 0.83522 0.44498 0.78453 0.0
H1298 H 0.93817 0.45879 0.83032 0.0
H1299 H 0.92676 0.43156 0.84976 0.0
H1300 H 0.91926 0.46543 0.85912 0.0
H1301 H 0.88951 0.42334 0.74878 0.0
H1302 H 0.85523 0.41983 0.75161 0.0
H1303 H 0.87638 0.39572 0.76646 0.0
C1304 C 0.52389 0.60398 0.25053 0.0
C1305 C 0.52008 0.62987 0.26043 0.0
C1306 C 0.54629 0.5896 0.2563 0.0
C1307 C 0.56518 0.6013 0.27255 0.0
C1308 C 0.56167 0.62761 0.28216 0.0
C1309 C 0.53922 0.6416 0.27589 0.0
C1310 C 0.54951 0.56169 0.24549 0.0
C1311 C 0.5813 0.64071 0.2997 0.0
C1312 C 0.60932 0.55729 0.31275 0.0
C1313 C 0.63256 0.55975 0.29919 0.0
C1314 C 0.58709 0.57013 0.30387 0.0
C1315 C 0.58804 0.58565 0.28073 0.0
C1316 C 0.61116 0.58739 0.26638 0.0
C1317 C 0.6332 0.5745 0.27584 0.0
C1318 C 0.56282 0.56788 0.31979 0.0
C1319 C 0.61281 0.60353 0.24147 0.0
H1320 H 0.50925 0.59482 0.23845 0.0
H1321 H 0.53645 0.66158 0.28362 0.0
H1322 H 0.56809 0.55995 0.23512 0.0
H1323 H 0.54975 0.54702 0.26178 0.0
H1324 H 0.53388 0.55616 0.23176 0.0
H1325 H 0.5761 0.66163 0.30478 0.0
H1326 H 0.58326 0.62907 0.31808 0.0
H1327 H 0.60031 0.64081 0.29002 0.0
H1328 H 0.60861 0.54591 0.33078 0.0
H1329 H 0.65105 0.5764 0.26518 0.0
H1330 H 0.54683 0.56074 0.30733 0.0
H1331 H 0.55738 0.58788 0.32738 0.0
H1332 H 0.56495 0.554 0.33663 0.0
H1333 H 0.5974 0.59747 0.22774 0.0
H1334 H 0.63158 0.60113 0.23153 0.0
H1335 H 0.60995 0.62504 0.24593 0.0
C1336 C 0.18023 0.3205 0.04403 0.0
C1337 C 0.17922 0.29835 0.06085 0.0
C1338 C 0.19003 0.34513 0.05257 0.0
C1339 C 0.19903 0.34768 0.07857 0.0
C1340 C 0.19882 0.3252 0.09541 0.0
C1341 C 0.18892 0.30078 0.08634 0.0
C1342 C 0.18999 0.36865 0.03401 0.0
C1343 C 0.20829 0.32715 0.12326 0.0
C1344 C 0.23972 0.40846 0.09532 0.0
C1345 C 0.22144 0.42573 0.10625 0.0
C1346 C 0.23281 0.38283 0.08648 0.0
C1347 C 0.20703 0.37433 0.08862 0.0
C1348 C 0.18857 0.39155 0.09988 0.0
C1349 C 0.19599 0.417 0.10855 0.0
C1350 C 0.25301 0.36497 0.0746 0.0
C1351 C 0.16088 0.38321 0.10252 0.0
H1352 H 0.17291 0.31878 0.02425 0.0
H1353 H 0.18829 0.28374 0.09945 0.0
H1354 H 0.1768 0.38432 0.04141 0.0
H1355 H 0.20937 0.37766 0.03292 0.0
H1356 H 0.18386 0.36293 0.01396 0.0
H1357 H 0.20851 0.30741 0.13325 0.0
H1358 H 0.22791 0.33565 0.12371 0.0
H1359 H 0.19577 0.3409 0.13452 0.0
H1360 H 0.25943 0.41502 0.0935 0.0
H1361 H 0.18172 0.43015 0.11701 0.0
H1362 H 0.24796 0.36036 0.054 0.0
H1363 H 0.25381 0.34567 0.08528 0.0
H1364 H 0.27233 0.37427 0.07499 0.0
H1365 H 0.15269 0.37908 0.0829 0.0
H1366 H 0.14901 0.39877 0.1122 0.0
H1367 H 0.1595 0.36445 0.11403 0.0
C1368 C 0.70089 0.06425 0.89036 0.0
C1369 C 0.72486 0.05336 0.88407 0.0
C1370 C 0.69855 0.09088 0.8986 0.0
C1371 C 0.72072 0.10703 0.90068 0.0
C1372 C 0.74495 0.09632 0.89406 0.0
C1373 C 0.74673 0.06959 0.88578 0.0
C1374 C 0.67234 0.10163 0.90536 0.0
C1375 C 0.769 0.11297 0.89609 0.0
C1376 C 0.70794 0.18169 0.90227 0.0
C1377 C 0.70728 0.18668 0.92927 0.0
C1378 C 0.71339 0.15604 0.89259 0.0
C1379 C 0.71838 0.13496 0.91035 0.0
C1380 C 0.71905 0.14018 0.93756 0.0
C1381 C 0.71346 0.16598 0.9467 0.0
C1382 C 0.71255 0.15124 0.86343 0.0
C1383 C 0.72449 0.11824 0.9571 0.0
H1384 H 0.68387 0.0519 0.88901 0.0
H1385 H 0.76533 0.06133 0.88096 0.0
H1386 H 0.67188 0.10786 0.92619 0.0
H1387 H 0.6681 0.11961 0.89339 0.0
H1388 H 0.65695 0.08665 0.90209 0.0
H1389 H 0.78627 0.10189 0.88949 0.0
H1390 H 0.76706 0.13139 0.88415 0.0
H1391 H 0.77194 0.11936 0.91667 0.0
H1392 H 0.70329 0.19758 0.88865 0.0
H1393 H 0.71317 0.16971 0.96759 0.0
H1394 H 0.69595 0.13828 0.85861 0.0
H1395 H 0.73006 0.1406 0.85691 0.0
H1396 H 0.71078 0.17017 0.85218 0.0
H1397 H 0.70862 0.10347 0.95684 0.0
H1398 H 0.72655 0.12606 0.97734 0.0
H1399 H 0.74227 0.10742 0.95173 0.0
C1400 C 0.78872 0.9494 0.40064 0.0
C1401 C 0.81093 0.96519 0.39956 0.0
C1402 C 0.79001 0.92213 0.40703 0.0
C1403 C 0.81409 0.91036 0.41238 0.0
C1404 C 0.83653 0.92624 0.41166 0.0
C1405 C 0.83467 0.95348 0.4053 0.0
C1406 C 0.76566 0.90584 0.40772 0.0
C1407 C 0.86256 0.91436 0.41721 0.0
C1408 C 0.81769 0.84462 0.44943 0.0
C1409 C 0.82183 0.82628 0.42907 0.0
C1410 C 0.8147 0.87202 0.44425 0.0
C1411 C 0.81594 0.88128 0.41812 0.0
C1412 C 0.8196 0.86282 0.39745 0.0
C1413 C 0.82246 0.83553 0.40318 0.0
C1414 C 0.81069 0.89111 0.46677 0.0
C1415 C 0.82101 0.87195 0.36932 0.0
H1416 H 0.77027 0.95828 0.39628 0.0
H1417 H 0.85192 0.96552 0.40451 0.0
H1418 H 0.76657 0.88972 0.39283 0.0
H1419 H 0.76352 0.89606 0.42708 0.0
H1420 H 0.74838 0.9182 0.40389 0.0
H1421 H 0.87808 0.92955 0.4164 0.0
H1422 H 0.8627 0.90492 0.43685 0.0
H1423 H 0.86684 0.89843 0.40274 0.0
H1424 H 0.81712 0.83764 0.46949 0.0
H1425 H 0.82564 0.82151 0.38733 0.0
H1426 H 0.79299 0.90296 0.46365 0.0
H1427 H 0.82687 0.90546 0.46779 0.0
H1428 H 0.80919 0.88059 0.48586 0.0
H1429 H 0.80346 0.88324 0.36406 0.0
H1430 H 0.8232 0.85497 0.35548 0.0
H1431 H 0.83749 0.88572 0.36676 0.0
C1432 C 0.2632 0.56374 0.60362 0.0
C1433 C 0.28201 0.54507 0.61078 0.0
C1434 C 0.27 0.58894 0.59365 0.0
C1435 C 0.2962 0.5956 0.59083 0.0
C1436 C 0.31525 0.57675 0.59774 0.0
C1437 C 0.30793 0.55171 0.60759 0.0
C1438 C 0.24918 0.60854 0.58637 0.0
C1439 C 0.3434 0.58312 0.59502 0.0
C1440 C 0.31738 0.65113 0.54507 0.0
C1441 C 0.32244 0.67202 0.56267 0.0
C1442 C 0.30811 0.62637 0.55389 0.0
C1443 C 0.30387 0.6224 0.58095 0.0
C1444 C 0.30827 0.64362 0.59874 0.0
C1445 C 0.31748 0.6682 0.58938 0.0
C1446 C 0.30353 0.60424 0.53432 0.0
C1447 C 0.30397 0.64012 0.62775 0.0
H1448 H 0.24314 0.55877 0.60601 0.0
H1449 H 0.3226 0.53743 0.61306 0.0
H1450 H 0.25094 0.62688 0.59847 0.0
H1451 H 0.2513 0.61467 0.56563 0.0
H1452 H 0.22971 0.60005 0.58917 0.0
H1453 H 0.35581 0.56612 0.60097 0.0
H1454 H 0.34787 0.5884 0.57443 0.0
H1455 H 0.34831 0.60074 0.60725 0.0
H1456 H 0.32103 0.65394 0.52438 0.0
H1457 H 0.32127 0.68425 0.6031 0.0
H1458 H 0.2838 0.59628 0.53641 0.0
H1459 H 0.31691 0.58745 0.53817 0.0
H1460 H 0.30627 0.61105 0.51382 0.0
H1461 H 0.28421 0.63291 0.63148 0.0
H1462 H 0.30699 0.65899 0.63881 0.0
H1463 H 0.31729 0.62474 0.63549 0.0
C1464 C 0.84052 0.77164 0.56869 0.0
C1465 C 0.85502 0.7626 0.54736 0.0
C1466 C 0.85221 0.77787 0.59262 0.0
C1467 C 0.87905 0.77496 0.5953 0.0
C1468 C 0.89367 0.76487 0.57419 0.0
C1469 C 0.88148 0.75882 0.55045 0.0
C1470 C 0.83597 0.78852 0.61474 0.0
C1471 C 0.92232 0.76141 0.57636 0.0
C1472 C 0.91086 0.82024 0.64511 0.0
C1473 C 0.91375 0.80306 0.66661 0.0
C1474 C 0.90006 0.81116 0.62163 0.0
C1475 C 0.89195 0.78422 0.61957 0.0
C1476 C 0.89536 0.76657 0.64094 0.0
C1477 C 0.90623 0.77621 0.66424 0.0
C1478 C 0.89679 0.83057 0.59923 0.0
C1479 C 0.88699 0.7377 0.63939 0.0
H1480 H 0.82005 0.7745 0.56652 0.0
H1481 H 0.89282 0.75173 0.5341 0.0
H1482 H 0.83936 0.77673 0.6328 0.0
H1483 H 0.84144 0.80952 0.61901 0.0
H1484 H 0.81519 0.78794 0.61009 0.0
H1485 H 0.9306 0.75138 0.55892 0.0
H1486 H 0.93156 0.78127 0.57861 0.0
H1487 H 0.92717 0.7495 0.59399 0.0
H1488 H 0.91669 0.84099 0.64672 0.0
H1489 H 0.90843 0.76278 0.68074 0.0
H1490 H 0.87614 0.83295 0.59465 0.0
H1491 H 0.90624 0.82267 0.58139 0.0
H1492 H 0.90493 0.85061 0.60368 0.0
H1493 H 0.86593 0.73667 0.63671 0.0
H1494 H 0.89217 0.72623 0.65724 0.0
H1495 H 0.89586 0.72785 0.62218 0.0
C1496 C 0.66742 0.19343 0.06483 0.0
C1497 C 0.65774 0.21544 0.05097 0.0
C1498 C 0.65524 0.18406 0.08749 0.0
C1499 C 0.633 0.19721 0.0967 0.0
C1500 C 0.62343 0.21979 0.08316 0.0
C1501 C 0.63584 0.22856 0.06034 0.0
C1502 C 0.66592 0.15977 0.10129 0.0
C1503 C 0.59993 0.2345 0.09261 0.0
C1504 C 0.58882 0.15607 0.13979 0.0
C1505 C 0.5967 0.1638 0.16491 0.0
C1506 C 0.60009 0.16723 0.11739 0.0
C1507 C 0.6195 0.1868 0.1202 0.0
C1508 C 0.62692 0.19536 0.14549 0.0
C1509 C 0.61552 0.18365 0.16755 0.0
C1510 C 0.59181 0.15745 0.09074 0.0
C1511 C 0.64734 0.21642 0.14924 0.0
H1512 H 0.68428 0.18312 0.05769 0.0
H1513 H 0.62832 0.24566 0.0498 0.0
H1514 H 0.67045 0.16473 0.12193 0.0
H1515 H 0.65137 0.14359 0.10154 0.0
H1516 H 0.68354 0.15204 0.09175 0.0
H1517 H 0.59556 0.25236 0.08047 0.0
H1518 H 0.58313 0.22092 0.09221 0.0
H1519 H 0.60263 0.24098 0.11319 0.0
H1520 H 0.5743 0.14073 0.13758 0.0
H1521 H 0.62159 0.18986 0.1869 0.0
H1522 H 0.60818 0.1476 0.0808 0.0
H1523 H 0.58584 0.17456 0.07835 0.0
H1524 H 0.5757 0.14297 0.09188 0.0
H1525 H 0.66597 0.2088 0.14196 0.0
H1526 H 0.64962 0.22222 0.17009 0.0
H1527 H 0.64262 0.23456 0.1377 0.0
C1528 C 0.42907 0.69756 0.3242 0.0
C1529 C 0.40885 0.69105 0.30726 0.0
C1530 C 0.42431 0.70818 0.34915 0.0
C1531 C 0.39873 0.71232 0.35736 0.0
C1532 C 0.37828 0.70653 0.34007 0.0
C1533 C 0.38359 0.69599 0.31522 0.0
C1534 C 0.44662 0.7142 0.36702 0.0
C1535 C 0.35074 0.71065 0.34814 0.0
C1536 C 0.38403 0.70943 0.42993 0.0
C1537 C 0.38109 0.73659 0.43625 0.0
C1538 C 0.39001 0.70136 0.4044 0.0
C1539 C 0.39324 0.7209 0.38465 0.0
C1540 C 0.39071 0.74837 0.3909 0.0
C1541 C 0.38461 0.7559 0.41665 0.0
C1542 C 0.3925 0.67185 0.3985 0.0
C1543 C 0.39415 0.76975 0.37034 0.0
H1544 H 0.44866 0.69394 0.31816 0.0
H1545 H 0.36786 0.69112 0.30223 0.0
H1546 H 0.44525 0.73497 0.37455 0.0
H1547 H 0.44607 0.70061 0.38417 0.0
H1548 H 0.46535 0.71172 0.35702 0.0
H1549 H 0.33715 0.70674 0.33186 0.0
H1550 H 0.346 0.69705 0.3646 0.0
H1551 H 0.34785 0.73143 0.35517 0.0
H1552 H 0.38136 0.69434 0.44491 0.0
H1553 H 0.38243 0.77692 0.42137 0.0
H1554 H 0.41166 0.66759 0.39012 0.0
H1555 H 0.37806 0.66589 0.38368 0.0
H1556 H 0.38983 0.65923 0.41619 0.0
H1557 H 0.41324 0.76777 0.36102 0.0
H1558 H 0.39235 0.79024 0.37855 0.0
H1559 H 0.3796 0.7672 0.35471 0.0
C1560 C 0.09979 0.25505 0.93268 0.0
C1561 C 0.12315 0.26607 0.94095 0.0
C1562 C 0.08876 0.26258 0.90872 0.0
C1563 C 0.10126 0.28176 0.89285 0.0
C1564 C 0.12494 0.29276 0.901 0.0
C1565 C 0.13565 0.28468 0.92488 0.0
C1566 C 0.06362 0.25022 0.9005 0.0
C1567 C 0.13878 0.31342 0.8847 0.0
C1568 C 0.08691 0.28926 0.82044 0.0
C1569 C 0.07129 0.31209 0.82026 0.0
C1570 C 0.09597 0.27847 0.84404 0.0
C1571 C 0.08944 0.29096 0.86798 0.0
C1572 C 0.07296 0.31344 0.86798 0.0
C1573 C 0.06398 0.32366 0.84412 0.0
C1574 C 0.11326 0.25427 0.8433 0.0
C1575 C 0.06566 0.32739 0.8931 0.0
H1576 H 0.09008 0.24057 0.94495 0.0
H1577 H 0.15367 0.29335 0.93114 0.0
H1578 H 0.04876 0.26598 0.89884 0.0
H1579 H 0.06559 0.24086 0.88092 0.0
H1580 H 0.05686 0.23482 0.91456 0.0
H1581 H 0.15716 0.31979 0.8937 0.0
H1582 H 0.14279 0.30529 0.86493 0.0
H1583 H 0.12647 0.33132 0.88214 0.0
H1584 H 0.09248 0.28007 0.8021 0.0
H1585 H 0.05189 0.34129 0.84416 0.0
H1586 H 0.10614 0.23867 0.85692 0.0
H1587 H 0.13276 0.25996 0.84988 0.0
H1588 H 0.11468 0.24552 0.82337 0.0
H1589 H 0.05758 0.31283 0.90724 0.0
H1590 H 0.05143 0.34359 0.88989 0.0
H1591 H 0.08299 0.33623 0.90224 0.0
C1592 C 0.62782 0.94079 0.83214 0.0
C1593 C 0.64722 0.92306 0.8399 0.0
C1594 C 0.60379 0.93128 0.82404 0.0
C1595 C 0.59901 0.9034 0.82382 0.0
C1596 C 0.61866 0.88539 0.83113 0.0
C1597 C 0.64255 0.89543 0.83901 0.0
C1598 C 0.58334 0.9511 0.81624 0.0
C1599 C 0.61426 0.85552 0.83122 0.0
C1600 C 0.53011 0.88025 0.83049 0.0
C1601 C 0.52388 0.87349 0.80463 0.0
C1602 C 0.5545 0.88996 0.83697 0.0
C1603 C 0.57311 0.89312 0.81709 0.0
C1604 C 0.56697 0.8864 0.79092 0.0
C1605 C 0.54244 0.87658 0.785 0.0
C1606 C 0.56037 0.89677 0.86514 0.0
C1607 C 0.5863 0.88963 0.76919 0.0
H1608 H 0.6313 0.96216 0.83265 0.0
H1609 H 0.65742 0.88157 0.84494 0.0
H1610 H 0.57594 0.94627 0.79644 0.0
H1611 H 0.56697 0.94975 0.83 0.0
H1612 H 0.59052 0.97203 0.81619 0.0
H1613 H 0.63183 0.84417 0.83641 0.0
H1614 H 0.59903 0.85044 0.84552 0.0
H1615 H 0.60755 0.84879 0.81171 0.0
H1616 H 0.51592 0.87788 0.84579 0.0
H1617 H 0.53777 0.87146 0.76495 0.0
H1618 H 0.5659 0.91814 0.86676 0.0
H1619 H 0.57685 0.88472 0.87211 0.0
H1620 H 0.54381 0.89305 0.87828 0.0
H1621 H 0.59266 0.91078 0.76805 0.0
H1622 H 0.57847 0.88363 0.74984 0.0
H1623 H 0.60351 0.87733 0.77336 0.0
C1624 C 0.84739 0.09887 0.30886 0.0
C1625 C 0.84554 0.08213 0.33082 0.0
C1626 C 0.87096 0.10998 0.30135 0.0
C1627 C 0.89316 0.10436 0.31626 0.0
C1628 C 0.89149 0.08722 0.33824 0.0
C1629 C 0.86772 0.07625 0.34521 0.0
C1630 C 0.87204 0.12804 0.27769 0.0
C1631 C 0.91473 0.08086 0.3547 0.0
C1632 C 0.95914 0.11585 0.28698 0.0
C1633 C 0.9659 0.14058 0.298 0.0
C1634 C 0.93536 0.10399 0.29242 0.0
C1635 C 0.91802 0.11708 0.30942 0.0
C1636 C 0.92462 0.14216 0.32038 0.0
C1637 C 0.94843 0.15364 0.31447 0.0
C1638 C 0.92889 0.07731 0.28022 0.0
C1639 C 0.90668 0.15668 0.3387 0.0
H1640 H 0.83037 0.10344 0.29757 0.0
H1641 H 0.86647 0.06336 0.36221 0.0
H1642 H 0.87811 0.14841 0.28367 0.0
H1643 H 0.88649 0.12051 0.26359 0.0
H1644 H 0.85327 0.12952 0.26757 0.0
H1645 H 0.91033 0.06663 0.37078 0.0
H1646 H 0.93003 0.07213 0.34231 0.0
H1647 H 0.92248 0.09954 0.36337 0.0
H1648 H 0.9725 0.10568 0.27416 0.0
H1649 H 0.95349 0.17273 0.3231 0.0
H1650 H 0.91065 0.07881 0.26917 0.0
H1651 H 0.92605 0.0621 0.29576 0.0
H1652 H 0.94411 0.07017 0.26675 0.0
H1653 H 0.88801 0.16022 0.32893 0.0
H1654 H 0.91452 0.17623 0.34525 0.0
H1655 H 0.90291 0.14416 0.3562 0.0
C1656 C 0.15648 0.58223 0.17386 0.0
C1657 C 0.15982 0.55469 0.16983 0.0
C1658 C 0.13262 0.59265 0.18132 0.0
C1659 C 0.11161 0.5751 0.18479 0.0
C1660 C 0.11508 0.5472 0.1817 0.0
C1661 C 0.13916 0.53732 0.17429 0.0
C1662 C 0.12967 0.62252 0.18458 0.0
C1663 C 0.09314 0.52785 0.18529 0.0
C1664 C 0.05241 0.60038 0.22029 0.0
C1665 C 0.03623 0.60689 0.19929 0.0
C1666 C 0.077 0.58994 0.21591 0.0
C1667 C 0.08563 0.58605 0.18994 0.0
C1668 C 0.0694 0.59259 0.16869 0.0
C1669 C 0.04489 0.60285 0.17363 0.0
C1670 C 0.09376 0.58309 0.23904 0.0
C1671 C 0.07797 0.58881 0.14071 0.0
H1672 H 0.17236 0.59579 0.1706 0.0
H1673 H 0.14158 0.516 0.17131 0.0
H1674 H 0.11658 0.63038 0.1693 0.0
H1675 H 0.12096 0.62717 0.20384 0.0
H1676 H 0.14826 0.63323 0.18304 0.0
H1677 H 0.09941 0.50666 0.18398 0.0
H1678 H 0.08386 0.53107 0.20455 0.0
H1679 H 0.07842 0.53147 0.17003 0.0
H1680 H 0.04585 0.60341 0.24018 0.0
H1681 H 0.03257 0.60789 0.15729 0.0
H1682 H 0.1118 0.59479 0.23817 0.0
H1683 H 0.09908 0.56162 0.23838 0.0
H1684 H 0.08417 0.58724 0.25801 0.0
H1685 H 0.09553 0.60071 0.13698 0.0
H1686 H 0.06305 0.59494 0.1264 0.0
H1687 H 0.08283 0.56751 0.13719 0.0
C1688 C 0.34075 0.40207 0.70754 0.0
C1689 C 0.34015 0.42429 0.69079 0.0
C1690 C 0.36403 0.38981 0.71424 0.0
C1691 C 0.38717 0.39984 0.70365 0.0
C1692 C 0.38675 0.42282 0.68749 0.0
C1693 C 0.36327 0.43489 0.68141 0.0
C1694 C 0.3638 0.36562 0.73192 0.0
C1695 C 0.41101 0.43399 0.67565 0.0
C1696 C 0.45209 0.38049 0.73118 0.0
C1697 C 0.45982 0.36052 0.71358 0.0
C1698 C 0.42809 0.39288 0.72876 0.0
C1699 C 0.41165 0.38539 0.708 0.0
C1700 C 0.41916 0.3649 0.69047 0.0
C1701 C 0.44308 0.35258 0.69359 0.0
C1702 C 0.42054 0.41432 0.74807 0.0
C1703 C 0.40225 0.35657 0.6679 0.0
H1704 H 0.32297 0.39389 0.71501 0.0
H1705 H 0.36298 0.45204 0.66844 0.0
H1706 H 0.3696 0.34764 0.72066 0.0
H1707 H 0.37784 0.36816 0.74804 0.0
H1708 H 0.34459 0.36191 0.74053 0.0
H1709 H 0.40755 0.45274 0.66453 0.0
H1710 H 0.42533 0.4381 0.69117 0.0
H1711 H 0.41954 0.41901 0.6622 0.0
H1712 H 0.46488 0.38657 0.7468 0.0
H1713 H 0.44895 0.33721 0.67989 0.0
H1714 H 0.40151 0.40973 0.75662 0.0
H1715 H 0.41887 0.43384 0.73788 0.0
H1716 H 0.43466 0.41642 0.76421 0.0
H1717 H 0.38316 0.35035 0.67522 0.0
H1718 H 0.41059 0.3398 0.65647 0.0
H1719 H 0.39925 0.37381 0.65457 0.0
C1720 C 0.78969 0.67963 0.91132 0.0
C1721 C 0.80482 0.68044 0.934 0.0
C1722 C 0.78148 0.65517 0.90076 0.0
C1723 C 0.78864 0.63097 0.91314 0.0
C1724 C 0.80338 0.63167 0.93637 0.0
C1725 C 0.81126 0.6564 0.94654 0.0
C1726 C 0.76571 0.65519 0.87599 0.0
C1727 C 0.81142 0.60626 0.9501 0.0
C1728 C 0.75358 0.56644 0.89679 0.0
C1729 C 0.7705 0.55449 0.87897 0.0
C1730 C 0.75905 0.59151 0.90788 0.0
C1731 C 0.782 0.60485 0.901 0.0
C1732 C 0.79902 0.59301 0.88285 0.0
C1733 C 0.79305 0.568 0.87204 0.0
C1734 C 0.74043 0.60361 0.92712 0.0
C1735 C 0.82371 0.60661 0.87505 0.0
H1736 H 0.78453 0.69811 0.90157 0.0
H1737 H 0.82291 0.65683 0.9641 0.0
H1738 H 0.77665 0.64548 0.85999 0.0
H1739 H 0.74792 0.64341 0.87885 0.0
H1740 H 0.76044 0.67573 0.86967 0.0
H1741 H 0.82174 0.61029 0.96869 0.0
H1742 H 0.79441 0.59372 0.95443 0.0
H1743 H 0.82412 0.59442 0.93712 0.0
H1744 H 0.73609 0.55615 0.90221 0.0
H1745 H 0.80626 0.55894 0.85829 0.0
H1746 H 0.73437 0.62371 0.92032 0.0
H1747 H 0.74991 0.60628 0.94638 0.0
H1748 H 0.72311 0.59101 0.92986 0.0
H1749 H 0.81961 0.62669 0.86681 0.0
H1750 H 0.83465 0.59491 0.86035 0.0
H1751 H 0.83597 0.60956 0.89255 0.0
C1752 C 0.27688 0.84556 0.04408 0.0
C1753 C 0.2752 0.82276 0.06001 0.0
C1754 C 0.27223 0.87117 0.05427 0.0
C1755 C 0.2657 0.87404 0.081 0.0
C1756 C 0.26288 0.85103 0.09689 0.0
C1757 C 0.26769 0.82566 0.08621 0.0
C1758 C 0.27539 0.89524 0.03671 0.0
C1759 C 0.2558 0.85328 0.12545 0.0
C1760 C 0.28383 0.93896 0.11468 0.0
C1761 C 0.26036 0.9526 0.11536 0.0
C1762 C 0.28577 0.91342 0.10352 0.0
C1763 C 0.2637 0.90115 0.0928 0.0
C1764 C 0.23993 0.91475 0.09341 0.0
C1765 C 0.23855 0.94035 0.10467 0.0
C1766 C 0.31147 0.89956 0.10321 0.0
C1767 C 0.216 0.90225 0.0822 0.0
H1768 H 0.2826 0.84351 0.0238 0.0
H1769 H 0.26622 0.80816 0.09863 0.0
H1770 H 0.2582 0.90823 0.03781 0.0
H1771 H 0.29197 0.90732 0.04341 0.0
H1772 H 0.27857 0.88952 0.01596 0.0
H1773 H 0.25233 0.83343 0.13456 0.0
H1774 H 0.27148 0.86338 0.13628 0.0
H1775 H 0.23835 0.8657 0.12779 0.0
H1776 H 0.3008 0.94826 0.12284 0.0
H1777 H 0.22034 0.95074 0.10512 0.0
H1778 H 0.31709 0.89493 0.08277 0.0
H1779 H 0.31023 0.88028 0.11389 0.0
H1780 H 0.32679 0.91189 0.11229 0.0
H1781 H 0.21886 0.89771 0.06116 0.0
H1782 H 0.19901 0.91545 0.08423 0.0
H1783 H 0.21197 0.88301 0.09221 0.0
C1784 C 0.18118 0.04075 0.65131 0.0
C1785 C 0.20125 0.02297 0.64589 0.0
C1786 C 0.18026 0.06611 0.63962 0.0
C1787 C 0.20007 0.07403 0.62236 0.0
C1788 C 0.22055 0.05631 0.61704 0.0
C1789 C 0.22081 0.03089 0.62874 0.0
C1790 C 0.15794 0.08435 0.64555 0.0
C1791 C 0.24216 0.0642 0.599 0.0
C1792 C 0.18349 0.12953 0.57464 0.0
C1793 C 0.19264 0.15221 0.58784 0.0
C1794 C 0.18638 0.10386 0.58533 0.0
C1795 C 0.19902 0.10076 0.60964 0.0
C1796 C 0.20931 0.12344 0.6225 0.0
C1797 C 0.20587 0.14893 0.61151 0.0
C1798 C 0.17498 0.08018 0.57113 0.0
C1799 C 0.22325 0.12087 0.64826 0.0
H1800 H 0.16596 0.03472 0.66445 0.0
H1801 H 0.23646 0.0173 0.6246 0.0
H1802 H 0.16496 0.10335 0.65419 0.0
H1803 H 0.14775 0.08949 0.62717 0.0
H1804 H 0.14405 0.07512 0.65931 0.0
H1805 H 0.25699 0.04835 0.59741 0.0
H1806 H 0.23456 0.06846 0.57917 0.0
H1807 H 0.25137 0.08282 0.60618 0.0
H1808 H 0.17321 0.13188 0.55635 0.0
H1809 H 0.21316 0.16634 0.62174 0.0
H1810 H 0.15943 0.07131 0.58312 0.0
H1811 H 0.18968 0.06444 0.56823 0.0
H1812 H 0.16697 0.08577 0.55174 0.0
H1813 H 0.20972 0.11407 0.66362 0.0
H1814 H 0.23194 0.14009 0.65463 0.0
H1815 H 0.23858 0.10558 0.64678 0.0
C1816 C 0.66527 0.36691 0.42941 0.0
C1817 C 0.68114 0.34485 0.42441 0.0
C1818 C 0.67143 0.39241 0.41981 0.0
C1819 C 0.69389 0.39588 0.40471 0.0
C1820 C 0.71028 0.37384 0.40007 0.0
C1821 C 0.70375 0.34859 0.41006 0.0
C1822 C 0.65359 0.41551 0.42534 0.0
C1823 C 0.73434 0.37676 0.38394 0.0
C1824 C 0.69482 0.45375 0.35671 0.0
C1825 C 0.70981 0.47266 0.37001 0.0
C1826 C 0.68967 0.42863 0.36772 0.0
C1827 C 0.69961 0.42232 0.39274 0.0
C1828 C 0.71476 0.44128 0.4063 0.0
C1829 C 0.71976 0.46622 0.39473 0.0
C1830 C 0.67355 0.40886 0.3526 0.0
C1831 C 0.72553 0.43528 0.43308 0.0
H1832 H 0.64784 0.36423 0.44061 0.0
H1833 H 0.71612 0.33166 0.40611 0.0
H1834 H 0.66433 0.43232 0.43432 0.0
H1835 H 0.6453 0.42298 0.40674 0.0
H1836 H 0.63767 0.40979 0.43862 0.0
H1837 H 0.74561 0.35793 0.3831 0.0
H1838 H 0.72927 0.38274 0.36368 0.0
H1839 H 0.74665 0.3928 0.39215 0.0
H1840 H 0.68712 0.45853 0.33758 0.0
H1841 H 0.7313 0.48074 0.40516 0.0
H1842 H 0.65612 0.40374 0.36394 0.0
H1843 H 0.68441 0.39003 0.34957 0.0
H1844 H 0.6676 0.41673 0.3332 0.0
H1845 H 0.7097 0.43091 0.44692 0.0
H1846 H 0.73701 0.45216 0.44099 0.0
H1847 H 0.73783 0.41721 0.43223 0.0
loop_
_geom_bond_atom_site_label_1
_geom_bond_atom_site_label_2
_geom_bond_distance
_geom_bond_site_symmetry_2
_ccdc_geom_bond_type
C0 O1 1.160 . S
C0 O7 1.185 . S
O1 C0 1.160 . S
O2 Zn3 1.899 . S
O2 C10 1.284 . S
Zn3 O2 1.899 . S
Zn3 O4 2.032 . S
Zn3 O7 2.086 . S
Zn3 O12 1.977 . S
O4 Zn3 2.032 . S
O4 C8 1.278 . S
C5 O6 1.203 . S
C5 O12 1.267 . S
O6 C5 1.203 . S
O7 C0 1.185 . S
O7 Zn3 2.086 . S
C8 O4 1.278 . S
C8 O9 1.211 . S
O9 C8 1.211 . S
C10 O2 1.284 . S
C10 O11 1.273 . S
O11 C10 1.273 . S
O12 Zn3 1.977 . S
O12 C5 1.267 . S
C13 O14 1.160 . S
C13 O20 1.185 . S
O14 C13 1.160 . S
O15 Zn16 1.899 . S
O15 C23 1.284 . S
Zn16 O15 1.899 . S
Zn16 O17 2.032 . S
Zn16 O20 2.086 . S
Zn16 O25 1.977 . S
O17 Zn16 2.032 . S
O17 C21 1.278 . S
C18 O19 1.203 . S
C18 O25 1.267 . S
O19 C18 1.203 . S
O20 C13 1.185 . S
O20 Zn16 2.086 . S
C21 O17 1.278 . S
C21 O22 1.211 . S
O22 C21 1.211 . S
C23 O15 1.284 . S
C23 O24 1.273 . S
O24 C23 1.273 . S
O25 Zn16 1.977 . S
O25 C18 1.267 . S
C26 O27 1.160 . S
C26 O33 1.185 . S
O27 C26 1.160 . S
O28 Zn29 1.899 . S
O28 C36 1.284 . S
Zn29 O28 1.899 . S
Zn29 O30 2.032 . S
Zn29 O33 2.086 . S
Zn29 O38 1.977 . S
O30 Zn29 2.032 . S
O30 C34 1.278 . S
C31 O32 1.203 . S
C31 O38 1.267 . S
O32 C31 1.203 . S
O33 C26 1.185 . S
O33 Zn29 2.086 . S
C34 O30 1.278 . S
C34 O35 1.211 . S
O35 C34 1.211 . S
C36 O28 1.284 . S
C36 O37 1.273 . S
O37 C36 1.273 . S
O38 Zn29 1.977 . S
O38 C31 1.267 . S
C39 O40 1.160 . S
C39 O46 1.185 . S
O40 C39 1.160 . S
O41 Zn42 1.899 . S
O41 C49 1.284 . S
Zn42 O41 1.899 . S
Zn42 O43 2.032 . S
Zn42 O46 2.086 . S
Zn42 O51 1.977 . S
O43 Zn42 2.032 . S
O43 C47 1.278 . S
C44 O45 1.203 . S
C44 O51 1.267 . S
O45 C44 1.203 . S
O46 C39 1.185 . S
O46 Zn42 2.086 . S
C47 O43 1.278 . S
C47 O48 1.211 . S
O48 C47 1.211 . S
C49 O41 1.284 . S
C49 O50 1.273 . S
O50 C49 1.273 . S
O51 Zn42 1.977 . S
O51 C44 1.267 . S
C52 O53 1.160 . S
C52 O59 1.185 . S
O53 C52 1.160 . S
O54 Zn55 1.899 . S
O54 C62 1.284 . S
Zn55 O54 1.899 . S
Zn55 O56 2.032 . S
Zn55 O59 2.086 . S
Zn55 O64 1.977 . S
O56 Zn55 2.032 . S
O56 C60 1.278 . S
C57 O58 1.203 . S
C57 O64 1.267 . S
O58 C57 1.203 . S
O59 C52 1.185 . S
O59 Zn55 2.086 . S
C60 O56 1.278 . S
C60 O61 1.211 . S
O61 C60 1.211 . S
C62 O54 1.284 . S
C62 O63 1.273 . S
O63 C62 1.273 . S
O64 Zn55 1.977 . S
O64 C57 1.267 . S
C65 O66 1.160 . S
C65 O72 1.185 . S
O66 C65 1.160 . S
O67 Zn68 1.899 . S
O67 C75 1.284 . S
Zn68 O67 1.899 . S
Zn68 O69 2.032 . S
Zn68 O72 2.086 . S
Zn68 O77 1.977 . S
O69 Zn68 2.032 . S
O69 C73 1.278 . S
C70 O71 1.203 . S
C70 O77 1.267 . S
O71 C70 1.203 . S
O72 C65 1.185 . S
O72 Zn68 2.086 . S
C73 O69 1.278 . S
C73 O74 1.211 . S
O74 C73 1.211 . S
C75 O67 1.284 . S
C75 O76 1.273 . S
O76 C75 1.273 . S
O77 Zn68 1.977 . S
O77 C70 1.267 . S
C78 O79 1.160 . S
C78 O85 1.185 . S
O79 C78 1.160 . S
O80 Zn81 1.899 . S
O80 C88 1.284 . S
Zn81 O80 1.899 . S
Zn81 O82 2.032 . S
Zn81 O85 2.086 . S
Zn81 O90 1.977 . S
O82 Zn81 2.032 . S
O82 C86 1.278 . S
C83 O84 1.203 . S
C83 O90 1.267 . S
O84 C83 1.203 . S
O85 C78 1.185 . S
O85 Zn81 2.086 . S
C86 O82 1.278 . S
C86 O87 1.211 . S
O87 C86 1.211 . S
C88 O80 1.284 . S
C88 O89 1.273 . S
O89 C88 1.273 . S
O90 Zn81 1.977 . S
O90 C83 1.267 . S
C91 O92 1.160 . S
C91 O98 1.185 . S
O92 C91 1.160 . S
O93 Zn94 1.899 . S
O93 C101 1.284 . S
Zn94 O93 1.899 . S
Zn94 O95 2.032 . S
Zn94 O98 2.086 . S
Zn94 O103 1.977 . S
O95 Zn94 2.032 . S
O95 C99 1.278 . S
C96 O97 1.203 . S
C96 O103 1.267 . S
O97 C96 1.203 . S
O98 C91 1.185 . S
O98 Zn94 2.086 . S
C99 O95 1.278 . S
C99 O100 1.211 . S
O100 C99 1.211 . S
C101 O93 1.284 . S
C101 O102 1.273 . S
O102 C101 1.273 . S
O103 Zn94 1.977 . S
O103 C96 1.267 . S
C104 O105 1.160 . S
C104 O111 1.185 . S
O105 C104 1.160 . S
O106 Zn107 1.899 . S
O106 C114 1.284 . S
Zn107 O106 1.899 . S
Zn107 O108 2.032 . S
Zn107 O111 2.086 . S
Zn107 O116 1.977 . S
O108 Zn107 2.032 . S
O108 C112 1.278 . S
C109 O110 1.203 . S
C109 O116 1.267 . S
O110 C109 1.203 . S
O111 C104 1.185 . S
O111 Zn107 2.086 . S
C112 O108 1.278 . S
C112 O113 1.211 . S
O113 C112 1.211 . S
C114 O106 1.284 . S
C114 O115 1.273 . S
O115 C114 1.273 . S
O116 Zn107 1.977 . S
O116 C109 1.267 . S
C117 O118 1.160 . S
C117 O124 1.185 . S
O118 C117 1.160 . S
O119 Zn120 1.899 . S
O119 C127 1.284 . S
Zn120 O119 1.899 . S
Zn120 O121 2.032 . S
Zn120 O124 2.086 . S
Zn120 O129 1.977 . S
O121 Zn120 2.032 . S
O121 C125 1.278 . S
C122 O123 1.203 . S
C122 O129 1.267 . S
O123 C122 1.203 . S
O124 C117 1.185 . S
O124 Zn120 2.086 . S
C125 O121 1.278 . S
C125 O126 1.211 . S
O126 C125 1.211 . S
C127 O119 1.284 . S
C127 O128 1.273 . S
O128 C127 1.273 . S
O129 Zn120 1.977 . S
O129 C122 1.267 . S
C130 O131 1.160 . S
C130 O137 1.185 . S
O131 C130 1.160 . S
O132 Zn133 1.899 . S
O132 C140 1.284 . S
Zn133 O132 1.899 . S
Zn133 O134 2.032 . S
Zn133 O137 2.086 . S
Zn133 O142 1.977 . S
O134 Zn133 2.032 . S
O134 C138 1.278 . S
C135 O136 1.203 . S
C135 O142 1.267 . S
O136 C135 1.203 . S
O137 C130 1.185 . S
O137 Zn133 2.086 . S
C138 O134 1.278 . S
C138 O139 1.211 . S
O139 C138 1.211 . S
C140 O132 1.284 . S
C140 O141 1.273 . S
O141 C140 1.273 . S
O142 Zn133 1.977 . S
O142 C135 1.267 . S
C143 O144 1.160 . S
C143 O150 1.185 . S
O144 C143 1.160 . S
O145 Zn146 1.899 . S
O145 C153 1.284 . S
Zn146 O145 1.899 . S
Zn146 O147 2.032 . S
Zn146 O150 2.086 . S
Zn146 O155 1.977 . S
O147 Zn146 2.032 . S
O147 C151 1.278 . S
C148 O149 1.203 . S
C148 O155 1.267 . S
O149 C148 1.203 . S
O150 C143 1.185 . S
O150 Zn146 2.086 . S
C151 O147 1.278 . S
C151 O152 1.211 . S
O152 C151 1.211 . S
C153 O145 1.284 . S
C153 O154 1.273 . S
O154 C153 1.273 . S
O155 Zn146 1.977 . S
O155 C148 1.267 . S
C156 O157 1.160 . S
C156 O163 1.185 . S
O157 C156 1.160 . S
O158 Zn159 1.899 . S
O158 C166 1.284 . S
Zn159 O158 1.899 . S
Zn159 O160 2.032 . S
Zn159 O163 2.086 . S
Zn159 O168 1.977 . S
O160 Zn159 2.032 . S
O160 C164 1.278 . S
C161 O162 1.203 . S
C161 O168 1.267 . S
O162 C161 1.203 . S
O163 C156 1.185 . S
O163 Zn159 2.086 . S
C164 O160 1.278 . S
C164 O165 1.211 . S
O165 C164 1.211 . S
C166 O158 1.284 . S
C166 O167 1.273 . S
O167 C166 1.273 . S
O168 Zn159 1.977 . S
O168 C161 1.267 . S
C169 O170 1.160 . S
C169 O176 1.185 . S
O170 C169 1.160 . S
O171 Zn172 1.899 . S
O171 C179 1.284 . S
Zn172 O171 1.899 . S
Zn172 O173 2.032 . S
Zn172 O176 2.086 . S
Zn172 O181 1.977 . S
O173 Zn172 2.032 . S
O173 C177 1.278 . S
C174 O175 1.203 . S
C174 O181 1.267 . S
O175 C174 1.203 . S
O176 C169 1.185 . S
O176 Zn172 2.086 . S
C177 O173 1.278 . S
C177 O178 1.211 . S
O178 C177 1.211 . S
C179 O171 1.284 . S
C179 O180 1.273 . S
O180 C179 1.273 . S
O181 Zn172 1.977 . S
O181 C174 1.267 . S
C182 O183 1.160 . S
C182 O189 1.185 . S
O183 C182 1.160 . S
O184 Zn185 1.899 . S
O184 C192 1.284 . S
Zn185 O184 1.899 . S
Zn185 O186 2.032 . S
Zn185 O189 2.086 . S
Zn185 O194 1.977 . S
O186 Zn185 2.032 . S
O186 C190 1.278 . S
C187 O188 1.203 . S
C187 O194 1.267 . S
O188 C187 1.203 . S
O189 C182 1.185 . S
O189 Zn185 2.086 . S
C190 O186 1.278 . S
C190 O191 1.211 . S
O191 C190 1.211 . S
C192 O184 1.284 . S
C192 O193 1.273 . S
O193 C192 1.273 . S
O194 Zn185 1.977 . S
O194 C187 1.267 . S
C195 O196 1.160 . S
C195 O202 1.185 . S
O196 C195 1.160 . S
O197 Zn198 1.899 . S
O197 C205 1.284 . S
Zn198 O197 1.899 . S
Zn198 O199 2.032 . S
Zn198 O202 2.086 . S
Zn198 O207 1.977 . S
O199 Zn198 2.032 . S
O199 C203 1.278 . S
C200 O201 1.203 . S
C200 O207 1.267 . S
O201 C200 1.203 . S
O202 C195 1.185 . S
O202 Zn198 2.086 . S
C203 O199 1.278 . S
C203 O204 1.211 . S
O204 C203 1.211 . S
C205 O197 1.284 . S
C205 O206 1.273 . S
O206 C205 1.273 . S
O207 Zn198 1.977 . S
O207 C200 1.267 . S
C208 O209 1.160 . S
C208 O215 1.185 . S
O209 C208 1.160 . S
O210 Zn211 1.899 . S
O210 C218 1.284 . S
Zn211 O210 1.899 . S
Zn211 O212 2.032 . S
Zn211 O215 2.086 . S
Zn211 O220 1.977 . S
O212 Zn211 2.032 . S
O212 C216 1.278 . S
C213 O214 1.203 . S
C213 O220 1.267 . S
O214 C213 1.203 . S
O215 C208 1.185 . S
O215 Zn211 2.086 . S
C216 O212 1.278 . S
C216 O217 1.211 . S
O217 C216 1.211 . S
C218 O210 1.284 . S
C218 O219 1.273 . S
O219 C218 1.273 . S
O220 Zn211 1.977 . S
O220 C213 1.267 . S
C221 O222 1.160 . S
C221 O228 1.185 . S
O222 C221 1.160 . S
O223 Zn224 1.899 . S
O223 C231 1.284 . S
Zn224 O223 1.899 . S
Zn224 O225 2.032 . S
Zn224 O228 2.086 . S
Zn224 O233 1.977 . S
O225 Zn224 2.032 . S
O225 C229 1.278 . S
C226 O227 1.203 . S
C226 O233 1.267 . S
O227 C226 1.203 . S
O228 C221 1.185 . S
O228 Zn224 2.086 . S
C229 O225 1.278 . S
C229 O230 1.211 . S
O230 C229 1.211 . S
C231 O223 1.284 . S
C231 O232 1.273 . S
O232 C231 1.273 . S
O233 Zn224 1.977 . S
O233 C226 1.267 . S
C234 O235 1.160 . S
C234 O241 1.185 . S
O235 C234 1.160 . S
O236 Zn237 1.899 . S
O236 C244 1.284 . S
Zn237 O236 1.899 . S
Zn237 O238 2.032 . S
Zn237 O241 2.086 . S
Zn237 O246 1.977 . S
O238 Zn237 2.032 . S
O238 C242 1.278 . S
C239 O240 1.203 . S
C239 O246 1.267 . S
O240 C239 1.203 . S
O241 C234 1.185 . S
O241 Zn237 2.086 . S
C242 O238 1.278 . S
C242 O243 1.211 . S
O243 C242 1.211 . S
C244 O236 1.284 . S
C244 O245 1.273 . S
O245 C244 1.273 . S
O246 Zn237 1.977 . S
O246 C239 1.267 . S
C247 O248 1.160 . S
C247 O254 1.185 . S
O248 C247 1.160 . S
O249 Zn250 1.899 . S
O249 C257 1.284 . S
Zn250 O249 1.899 . S
Zn250 O251 2.032 . S
Zn250 O254 2.086 . S
Zn250 O259 1.977 . S
O251 Zn250 2.032 . S
O251 C255 1.278 . S
C252 O253 1.203 . S
C252 O259 1.267 . S
O253 C252 1.203 . S
O254 C247 1.185 . S
O254 Zn250 2.086 . S
C255 O251 1.278 . S
C255 O256 1.211 . S
O256 C255 1.211 . S
C257 O249 1.284 . S
C257 O258 1.273 . S
O258 C257 1.273 . S
O259 Zn250 1.977 . S
O259 C252 1.267 . S
C260 O261 1.160 . S
C260 O267 1.185 . S
O261 C260 1.160 . S
O262 Zn263 1.899 . S
O262 C270 1.284 . S
Zn263 O262 1.899 . S
Zn263 O264 2.032 . S
Zn263 O267 2.086 . S
Zn263 O272 1.977 . S
O264 Zn263 2.032 . S
O264 C268 1.278 . S
C265 O266 1.203 . S
C265 O272 1.267 . S
O266 C265 1.203 . S
O267 C260 1.185 . S
O267 Zn263 2.086 . S
C268 O264 1.278 . S
C268 O269 1.211 . S
O269 C268 1.211 . S
C270 O262 1.284 . S
C270 O271 1.273 . S
O271 C270 1.273 . S
O272 Zn263 1.977 . S
O272 C265 1.267 . S
C273 O274 1.160 . S
C273 O280 1.185 . S
O274 C273 1.160 . S
O275 Zn276 1.899 . S
O275 C283 1.284 . S
Zn276 O275 1.899 . S
Zn276 O277 2.032 . S
Zn276 O280 2.086 . S
Zn276 O285 1.977 . S
O277 Zn276 2.032 . S
O277 C281 1.278 . S
C278 O279 1.203 . S
C278 O285 1.267 . S
O279 C278 1.203 . S
O280 C273 1.185 . S
O280 Zn276 2.086 . S
C281 O277 1.278 . S
C281 O282 1.211 . S
O282 C281 1.211 . S
C283 O275 1.284 . S
C283 O284 1.273 . S
O284 C283 1.273 . S
O285 Zn276 1.977 . S
O285 C278 1.267 . S
C286 O287 1.160 . S
C286 O293 1.185 . S
O287 C286 1.160 . S
O288 Zn289 1.899 . S
O288 C296 1.284 . S
Zn289 O288 1.899 . S
Zn289 O290 2.032 . S
Zn289 O293 2.086 . S
Zn289 O298 1.977 . S
O290 Zn289 2.032 . S
O290 C294 1.278 . S
C291 O292 1.203 . S
C291 O298 1.267 . S
O292 C291 1.203 . S
O293 C286 1.185 . S
O293 Zn289 2.086 . S
C294 O290 1.278 . S
C294 O295 1.211 . S
O295 C294 1.211 . S
C296 O288 1.284 . S
C296 O297 1.273 . S
O297 C296 1.273 . S
O298 Zn289 1.977 . S
O298 C291 1.267 . S
C299 O300 1.160 . S
C299 O306 1.185 . S
O300 C299 1.160 . S
O301 Zn302 1.899 . S
O301 C309 1.284 . S
Zn302 O301 1.899 . S
Zn302 O303 2.032 . S
Zn302 O306 2.086 . S
Zn302 O311 1.977 . S
O303 Zn302 2.032 . S
O303 C307 1.278 . S
C304 O305 1.203 . S
C304 O311 1.267 . S
O305 C304 1.203 . S
O306 C299 1.185 . S
O306 Zn302 2.086 . S
C307 O303 1.278 . S
C307 O308 1.211 . S
O308 C307 1.211 . S
C309 O301 1.284 . S
C309 O310 1.273 . S
O310 C309 1.273 . S
O311 Zn302 1.977 . S
O311 C304 1.267 . S
C312 C313 1.391 . S
C312 C314 1.394 . S
C312 H328 0.931 . S
C313 C312 1.391 . S
C313 C317 1.376 . S
C314 C312 1.394 . S
C314 C315 1.369 . S
C314 C318 1.531 . S
C315 C314 1.369 . S
C315 C316 1.410 . S
C315 C323 1.503 . S
C316 C315 1.410 . S
C316 C317 1.392 . S
C316 C319 1.511 . S
C317 C313 1.376 . S
C317 C316 1.392 . S
C317 H329 0.929 . S
C318 C314 1.531 . S
C318 H330 0.960 . S
C318 H331 0.962 . S
C318 H332 0.960 . S
C319 C316 1.511 . S
C319 H333 0.961 . S
C319 H334 0.961 . S
C319 H335 0.961 . S
C320 C321 1.370 . S
C320 C322 1.363 . S
C320 H336 0.931 . S
C321 C320 1.370 . S
C321 C325 1.408 . S
C322 C320 1.363 . S
C322 C323 1.370 . S
C322 C326 1.524 . S
C323 C315 1.503 . S
C323 C322 1.370 . S
C323 C324 1.403 . S
C324 C323 1.403 . S
C324 C325 1.404 . S
C324 C327 1.539 . S
C325 C321 1.408 . S
C325 C324 1.404 . S
C325 H337 0.930 . S
C326 C322 1.524 . S
C326 H338 0.956 . S
C326 H339 0.961 . S
C326 H340 0.961 . S
C327 C324 1.539 . S
C327 H341 0.958 . S
C327 H342 0.961 . S
C327 H343 0.960 . S
H328 C312 0.931 . S
H329 C317 0.929 . S
H330 C318 0.960 . S
H331 C318 0.962 . S
H332 C318 0.960 . S
H333 C319 0.961 . S
H334 C319 0.961 . S
H335 C319 0.961 . S
H336 C320 0.931 . S
H337 C325 0.930 . S
H338 C326 0.956 . S
H339 C326 0.961 . S
H340 C326 0.961 . S
H341 C327 0.958 . S
H342 C327 0.961 . S
H343 C327 0.960 . S
C344 C345 1.391 . S
C344 C346 1.394 . S
C344 H360 0.931 . S
C345 C344 1.391 . S
C345 C349 1.376 . S
C346 C344 1.394 . S
C346 C347 1.369 . S
C346 C350 1.531 . S
C347 C346 1.369 . S
C347 C348 1.410 . S
C347 C355 1.503 . S
C348 C347 1.410 . S
C348 C349 1.392 . S
C348 C351 1.511 . S
C349 C345 1.376 . S
C349 C348 1.392 . S
C349 H361 0.929 . S
C350 C346 1.531 . S
C350 H362 0.960 . S
C350 H363 0.962 . S
C350 H364 0.960 . S
C351 C348 1.511 . S
C351 H365 0.961 . S
C351 H366 0.961 . S
C351 H367 0.961 . S
C352 C353 1.370 . S
C352 C354 1.363 . S
C352 H368 0.931 . S
C353 C352 1.370 . S
C353 C357 1.408 . S
C354 C352 1.363 . S
C354 C355 1.370 . S
C354 C358 1.524 . S
C355 C347 1.503 . S
C355 C354 1.370 . S
C355 C356 1.403 . S
C356 C355 1.403 . S
C356 C357 1.404 . S
C356 C359 1.539 . S
C357 C353 1.408 . S
C357 C356 1.404 . S
C357 H369 0.930 . S
C358 C354 1.524 . S
C358 H370 0.956 . S
C358 H371 0.961 . S
C358 H372 0.961 . S
C359 C356 1.539 . S
C359 H373 0.958 . S
C359 H374 0.961 . S
C359 H375 0.960 . S
H360 C344 0.931 . S
H361 C349 0.929 . S
H362 C350 0.960 . S
H363 C350 0.962 . S
H364 C350 0.960 . S
H365 C351 0.961 . S
H366 C351 0.961 . S
H367 C351 0.961 . S
H368 C352 0.931 . S
H369 C357 0.930 . S
H370 C358 0.956 . S
H371 C358 0.961 . S
H372 C358 0.961 . S
H373 C359 0.958 . S
H374 C359 0.961 . S
H375 C359 0.960 . S
C376 C377 1.391 . S
C376 C378 1.394 . S
C376 H392 0.931 . S
C377 C376 1.391 . S
C377 C381 1.376 . S
C378 C376 1.394 . S
C378 C379 1.369 . S
C378 C382 1.531 . S
C379 C378 1.369 . S
C379 C380 1.410 . S
C379 C387 1.503 . S
C380 C379 1.410 . S
C380 C381 1.392 . S
C380 C383 1.511 . S
C381 C377 1.376 . S
C381 C380 1.392 . S
C381 H393 0.929 . S
C382 C378 1.531 . S
C382 H394 0.960 . S
C382 H395 0.962 . S
C382 H396 0.960 . S
C383 C380 1.511 . S
C383 H397 0.961 . S
C383 H398 0.961 . S
C383 H399 0.961 . S
C384 C385 1.370 . S
C384 C386 1.363 . S
C384 H400 0.931 . S
C385 C384 1.370 . S
C385 C389 1.408 . S
C386 C384 1.363 . S
C386 C387 1.370 . S
C386 C390 1.524 . S
C387 C379 1.503 . S
C387 C386 1.370 . S
C387 C388 1.403 . S
C388 C387 1.403 . S
C388 C389 1.404 . S
C388 C391 1.539 . S
C389 C385 1.408 . S
C389 C388 1.404 . S
C389 H401 0.930 . S
C390 C386 1.524 . S
C390 H402 0.956 . S
C390 H403 0.961 . S
C390 H404 0.961 . S
C391 C388 1.539 . S
C391 H405 0.958 . S
C391 H406 0.961 . S
C391 H407 0.960 . S
H392 C376 0.931 . S
H393 C381 0.929 . S
H394 C382 0.960 . S
H395 C382 0.962 . S
H396 C382 0.960 . S
H397 C383 0.961 . S
H398 C383 0.961 . S
H399 C383 0.961 . S
H400 C384 0.931 . S
H401 C389 0.930 . S
H402 C390 0.956 . S
H403 C390 0.961 . S
H404 C390 0.961 . S
H405 C391 0.958 . S
H406 C391 0.961 . S
H407 C391 0.960 . S
C408 C409 1.391 . S
C408 C410 1.394 . S
C408 H424 0.931 . S
C409 C408 1.391 . S
C409 C413 1.376 . S
C410 C408 1.394 . S
C410 C411 1.369 . S
C410 C414 1.531 . S
C411 C410 1.369 . S
C411 C412 1.410 . S
C411 C419 1.503 . S
C412 C411 1.410 . S
C412 C413 1.392 . S
C412 C415 1.511 . S
C413 C409 1.376 . S
C413 C412 1.392 . S
C413 H425 0.929 . S
C414 C410 1.531 . S
C414 H426 0.960 . S
C414 H427 0.962 . S
C414 H428 0.960 . S
C415 C412 1.511 . S
C415 H429 0.961 . S
C415 H430 0.961 . S
C415 H431 0.961 . S
C416 C417 1.370 . S
C416 C418 1.363 . S
C416 H432 0.931 . S
C417 C416 1.370 . S
C417 C421 1.408 . S
C418 C416 1.363 . S
C418 C419 1.370 . S
C418 C422 1.524 . S
C419 C411 1.503 . S
C419 C418 1.370 . S
C419 C420 1.403 . S
C420 C419 1.403 . S
C420 C421 1.404 . S
C420 C423 1.539 . S
C421 C417 1.408 . S
C421 C420 1.404 . S
C421 H433 0.930 . S
C422 C418 1.524 . S
C422 H434 0.956 . S
C422 H435 0.961 . S
C422 H436 0.961 . S
C423 C420 1.539 . S
C423 H437 0.958 . S
C423 H438 0.961 . S
C423 H439 0.960 . S
H424 C408 0.931 . S
H425 C413 0.929 . S
H426 C414 0.960 . S
H427 C414 0.962 . S
H428 C414 0.960 . S
H429 C415 0.961 . S
H430 C415 0.961 . S
H431 C415 0.961 . S
H432 C416 0.931 . S
H433 C421 0.930 . S
H434 C422 0.956 . S
H435 C422 0.961 . S
H436 C422 0.961 . S
H437 C423 0.958 . S
H438 C423 0.961 . S
H439 C423 0.960 . S
C440 C441 1.391 . S
C440 C442 1.394 . S
C440 H456 0.931 . S
C441 C440 1.391 . S
C441 C445 1.376 . S
C442 C440 1.394 . S
C442 C443 1.369 . S
C442 C446 1.531 . S
C443 C442 1.369 . S
C443 C444 1.410 . S
C443 C451 1.503 . S
C444 C443 1.410 . S
C444 C445 1.392 . S
C444 C447 1.511 . S
C445 C441 1.376 . S
C445 C444 1.392 . S
C445 H457 0.929 . S
C446 C442 1.531 . S
C446 H458 0.960 . S
C446 H459 0.962 . S
C446 H460 0.960 . S
C447 C444 1.511 . S
C447 H461 0.961 . S
C447 H462 0.961 . S
C447 H463 0.961 . S
C448 C449 1.370 . S
C448 C450 1.363 . S
C448 H464 0.931 . S
C449 C448 1.370 . S
C449 C453 1.408 . S
C450 C448 1.363 . S
C450 C451 1.370 . S
C450 C454 1.524 . S
C451 C443 1.503 . S
C451 C450 1.370 . S
C451 C452 1.403 . S
C452 C451 1.403 . S
C452 C453 1.404 . S
C452 C455 1.539 . S
C453 C449 1.408 . S
C453 C452 1.404 . S
C453 H465 0.930 . S
C454 C450 1.524 . S
C454 H466 0.956 . S
C454 H467 0.961 . S
C454 H468 0.961 . S
C455 C452 1.539 . S
C455 H469 0.958 . S
C455 H470 0.961 . S
C455 H471 0.960 . S
H456 C440 0.931 . S
H457 C445 0.929 . S
H458 C446 0.960 . S
H459 C446 0.962 . S
H460 C446 0.960 . S
H461 C447 0.961 . S
H462 C447 0.961 . S
H463 C447 0.961 . S
H464 C448 0.931 . S
H465 C453 0.930 . S
H466 C454 0.956 . S
H467 C454 0.961 . S
H468 C454 0.961 . S
H469 C455 0.958 . S
H470 C455 0.961 . S
H471 C455 0.960 . S
C472 C473 1.391 . S
C472 C474 1.394 . S
C472 H488 0.931 . S
C473 C472 1.391 . S
C473 C477 1.376 . S
C474 C472 1.394 . S
C474 C475 1.369 . S
C474 C478 1.531 . S
C475 C474 1.369 . S
C475 C476 1.410 . S
C475 C483 1.503 . S
C476 C475 1.410 . S
C476 C477 1.392 . S
C476 C479 1.511 . S
C477 C473 1.376 . S
C477 C476 1.392 . S
C477 H489 0.929 . S
C478 C474 1.531 . S
C478 H490 0.960 . S
C478 H491 0.962 . S
C478 H492 0.960 . S
C479 C476 1.511 . S
C479 H493 0.961 . S
C479 H494 0.961 . S
C479 H495 0.961 . S
C480 C481 1.370 . S
C480 C482 1.363 . S
C480 H496 0.931 . S
C481 C480 1.370 . S
C481 C485 1.408 . S
C482 C480 1.363 . S
C482 C483 1.370 . S
C482 C486 1.524 . S
C483 C475 1.503 . S
C483 C482 1.370 . S
C483 C484 1.403 . S
C484 C483 1.403 . S
C484 C485 1.404 . S
C484 C487 1.539 . S
C485 C481 1.408 . S
C485 C484 1.404 . S
C485 H497 0.930 . S
C486 C482 1.524 . S
C486 H498 0.956 . S
C486 H499 0.961 . S
C486 H500 0.961 . S
C487 C484 1.539 . S
C487 H501 0.958 . S
C487 H502 0.961 . S
C487 H503 0.960 . S
H488 C472 0.931 . S
H489 C477 0.929 . S
H490 C478 0.960 . S
H491 C478 0.962 . S
H492 C478 0.960 . S
H493 C479 0.961 . S
H494 C479 0.961 . S
H495 C479 0.961 . S
H496 C480 0.931 . S
H497 C485 0.930 . S
H498 C486 0.956 . S
H499 C486 0.961 . S
H500 C486 0.961 . S
H501 C487 0.958 . S
H502 C487 0.961 . S
H503 C487 0.960 . S
C504 C505 1.391 . S
C504 C506 1.394 . S
C504 H520 0.931 . S
C505 C504 1.391 . S
C505 C509 1.376 . S
C506 C504 1.394 . S
C506 C507 1.369 . S
C506 C510 1.531 . S
C507 C506 1.369 . S
C507 C508 1.410 . S
C507 C515 1.503 . S
C508 C507 1.410 . S
C508 C509 1.392 . S
C508 C511 1.511 . S
C509 C505 1.376 . S
C509 C508 1.392 . S
C509 H521 0.929 . S
C510 C506 1.531 . S
C510 H522 0.960 . S
C510 H523 0.962 . S
C510 H524 0.960 . S
C511 C508 1.511 . S
C511 H525 0.961 . S
C511 H526 0.961 . S
C511 H527 0.961 . S
C512 C513 1.370 . S
C512 C514 1.363 . S
C512 H528 0.931 . S
C513 C512 1.370 . S
C513 C517 1.408 . S
C514 C512 1.363 . S
C514 C515 1.370 . S
C514 C518 1.524 . S
C515 C507 1.503 . S
C515 C514 1.370 . S
C515 C516 1.403 . S
C516 C515 1.403 . S
C516 C517 1.404 . S
C516 C519 1.539 . S
C517 C513 1.408 . S
C517 C516 1.404 . S
C517 H529 0.930 . S
C518 C514 1.524 . S
C518 H530 0.956 . S
C518 H531 0.961 . S
C518 H532 0.961 . S
C519 C516 1.539 . S
C519 H533 0.958 . S
C519 H534 0.961 . S
C519 H535 0.960 . S
H520 C504 0.931 . S
H521 C509 0.929 . S
H522 C510 0.960 . S
H523 C510 0.962 . S
H524 C510 0.960 . S
H525 C511 0.961 . S
H526 C511 0.961 . S
H527 C511 0.961 . S
H528 C512 0.931 . S
H529 C517 0.930 . S
H530 C518 0.956 . S
H531 C518 0.961 . S
H532 C518 0.961 . S
H533 C519 0.958 . S
H534 C519 0.961 . S
H535 C519 0.960 . S
C536 C537 1.391 . S
C536 C538 1.394 . S
C536 H552 0.931 . S
C537 C536 1.391 . S
C537 C541 1.376 . S
C538 C536 1.394 . S
C538 C539 1.369 . S
C538 C542 1.531 . S
C539 C538 1.369 . S
C539 C540 1.410 . S
C539 C547 1.503 . S
C540 C539 1.410 . S
C540 C541 1.392 . S
C540 C543 1.511 . S
C541 C537 1.376 . S
C541 C540 1.392 . S
C541 H553 0.929 . S
C542 C538 1.531 . S
C542 H554 0.960 . S
C542 H555 0.962 . S
C542 H556 0.960 . S
C543 C540 1.511 . S
C543 H557 0.961 . S
C543 H558 0.961 . S
C543 H559 0.961 . S
C544 C545 1.370 . S
C544 C546 1.363 . S
C544 H560 0.931 . S
C545 C544 1.370 . S
C545 C549 1.408 . S
C546 C544 1.363 . S
C546 C547 1.370 . S
C546 C550 1.524 . S
C547 C539 1.503 . S
C547 C546 1.370 . S
C547 C548 1.403 . S
C548 C547 1.403 . S
C548 C549 1.404 . S
C548 C551 1.539 . S
C549 C545 1.408 . S
C549 C548 1.404 . S
C549 H561 0.930 . S
C550 C546 1.524 . S
C550 H562 0.956 . S
C550 H563 0.961 . S
C550 H564 0.961 . S
C551 C548 1.539 . S
C551 H565 0.958 . S
C551 H566 0.961 . S
C551 H567 0.960 . S
H552 C536 0.931 . S
H553 C541 0.929 . S
H554 C542 0.960 . S
H555 C542 0.962 . S
H556 C542 0.960 . S
H557 C543 0.961 . S
H558 C543 0.961 . S
H559 C543 0.961 . S
H560 C544 0.931 . S
H561 C549 0.930 . S
H562 C550 0.956 . S
H563 C550 0.961 . S
H564 C550 0.961 . S
H565 C551 0.958 . S
H566 C551 0.961 . S
H567 C551 0.960 . S
C568 C569 1.391 . S
C568 C570 1.394 . S
C568 H584 0.931 . S
C569 C568 1.391 . S
C569 C573 1.376 . S
C570 C568 1.394 . S
C570 C571 1.369 . S
C570 C574 1.531 . S
C571 C570 1.369 . S
C571 C572 1.410 . S
C571 C579 1.503 . S
C572 C571 1.410 . S
C572 C573 1.392 . S
C572 C575 1.511 . S
C573 C569 1.376 . S
C573 C572 1.392 . S
C573 H585 0.929 . S
C574 C570 1.531 . S
C574 H586 0.960 . S
C574 H587 0.962 . S
C574 H588 0.960 . S
C575 C572 1.511 . S
C575 H589 0.961 . S
C575 H590 0.961 . S
C575 H591 0.961 . S
C576 C577 1.370 . S
C576 C578 1.363 . S
C576 H592 0.931 . S
C577 C576 1.370 . S
C577 C581 1.408 . S
C578 C576 1.363 . S
C578 C579 1.370 . S
C578 C582 1.524 . S
C579 C571 1.503 . S
C579 C578 1.370 . S
C579 C580 1.403 . S
C580 C579 1.403 . S
C580 C581 1.404 . S
C580 C583 1.539 . S
C581 C577 1.408 . S
C581 C580 1.404 . S
C581 H593 0.930 . S
C582 C578 1.524 . S
C582 H594 0.956 . S
C582 H595 0.961 . S
C582 H596 0.961 . S
C583 C580 1.539 . S
C583 H597 0.958 . S
C583 H598 0.961 . S
C583 H599 0.960 . S
H584 C568 0.931 . S
H585 C573 0.929 . S
H586 C574 0.960 . S
H587 C574 0.962 . S
H588 C574 0.960 . S
H589 C575 0.961 . S
H590 C575 0.961 . S
H591 C575 0.961 . S
H592 C576 0.931 . S
H593 C581 0.930 . S
H594 C582 0.956 . S
H595 C582 0.961 . S
H596 C582 0.961 . S
H597 C583 0.958 . S
H598 C583 0.961 . S
H599 C583 0.960 . S
C600 C601 1.391 . S
C600 C602 1.394 . S
C600 H616 0.931 . S
C601 C600 1.391 . S
C601 C605 1.376 . S
C602 C600 1.394 . S
C602 C603 1.369 . S
C602 C606 1.531 . S
C603 C602 1.369 . S
C603 C604 1.410 . S
C603 C611 1.503 . S
C604 C603 1.410 . S
C604 C605 1.392 . S
C604 C607 1.511 . S
C605 C601 1.376 . S
C605 C604 1.392 . S
C605 H617 0.929 . S
C606 C602 1.531 . S
C606 H618 0.960 . S
C606 H619 0.962 . S
C606 H620 0.960 . S
C607 C604 1.511 . S
C607 H621 0.961 . S
C607 H622 0.961 . S
C607 H623 0.961 . S
C608 C609 1.370 . S
C608 C610 1.363 . S
C608 H624 0.931 . S
C609 C608 1.370 . S
C609 C613 1.408 . S
C610 C608 1.363 . S
C610 C611 1.370 . S
C610 C614 1.524 . S
C611 C603 1.503 . S
C611 C610 1.370 . S
C611 C612 1.403 . S
C612 C611 1.403 . S
C612 C613 1.404 . S
C612 C615 1.539 . S
C613 C609 1.408 . S
C613 C612 1.404 . S
C613 H625 0.930 . S
C614 C610 1.524 . S
C614 H626 0.956 . S
C614 H627 0.961 . S
C614 H628 0.961 . S
C615 C612 1.539 . S
C615 H629 0.958 . S
C615 H630 0.961 . S
C615 H631 0.960 . S
H616 C600 0.931 . S
H617 C605 0.929 . S
H618 C606 0.960 . S
H619 C606 0.962 . S
H620 C606 0.960 . S
H621 C607 0.961 . S
H622 C607 0.961 . S
H623 C607 0.961 . S
H624 C608 0.931 . S
H625 C613 0.930 . S
H626 C614 0.956 . S
H627 C614 0.961 . S
H628 C614 0.961 . S
H629 C615 0.958 . S
H630 C615 0.961 . S
H631 C615 0.960 . S
C632 C633 1.391 . S
C632 C634 1.394 . S
C632 H648 0.931 . S
C633 C632 1.391 . S
C633 C637 1.376 . S
C634 C632 1.394 . S
C634 C635 1.369 . S
C634 C638 1.531 . S
C635 C634 1.369 . S
C635 C636 1.410 . S
C635 C643 1.503 . S
C636 C635 1.410 . S
C636 C637 1.392 . S
C636 C639 1.511 . S
C637 C633 1.376 . S
C637 C636 1.392 . S
C637 H649 0.929 . S
C638 C634 1.531 . S
C638 H650 0.960 . S
C638 H651 0.962 . S
C638 H652 0.960 . S
C639 C636 1.511 . S
C639 H653 0.961 . S
C639 H654 0.961 . S
C639 H655 0.961 . S
C640 C641 1.370 . S
C640 C642 1.363 . S
C640 H656 0.931 . S
C641 C640 1.370 . S
C641 C645 1.408 . S
C642 C640 1.363 . S
C642 C643 1.370 . S
C642 C646 1.524 . S
C643 C635 1.503 . S
C643 C642 1.370 . S
C643 C644 1.403 . S
C644 C643 1.403 . S
C644 C645 1.404 . S
C644 C647 1.539 . S
C645 C641 1.408 . S
C645 C644 1.404 . S
C645 H657 0.930 . S
C646 C642 1.524 . S
C646 H658 0.956 . S
C646 H659 0.961 . S
C646 H660 0.961 . S
C647 C644 1.539 . S
C647 H661 0.958 . S
C647 H662 0.961 . S
C647 H663 0.960 . S
H648 C632 0.931 . S
H649 C637 0.929 . S
H650 C638 0.960 . S
H651 C638 0.962 . S
H652 C638 0.960 . S
H653 C639 0.961 . S
H654 C639 0.961 . S
H655 C639 0.961 . S
H656 C640 0.931 . S
H657 C645 0.930 . S
H658 C646 0.956 . S
H659 C646 0.961 . S
H660 C646 0.961 . S
H661 C647 0.958 . S
H662 C647 0.961 . S
H663 C647 0.960 . S
C664 C665 1.391 . S
C664 C666 1.394 . S
C664 H680 0.931 . S
C665 C664 1.391 . S
C665 C669 1.376 . S
C666 C664 1.394 . S
C666 C667 1.369 . S
C666 C670 1.531 . S
C667 C666 1.369 . S
C667 C668 1.410 . S
C667 C675 1.503 . S
C668 C667 1.410 . S
C668 C669 1.392 . S
C668 C671 1.511 . S
C669 C665 1.376 . S
C669 C668 1.392 . S
C669 H681 0.929 . S
C670 C666 1.531 . S
C670 H682 0.960 . S
C670 H683 0.962 . S
C670 H684 0.960 . S
C671 C668 1.511 . S
C671 H685 0.961 . S
C671 H686 0.961 . S
C671 H687 0.961 . S
C672 C673 1.370 . S
C672 C674 1.363 . S
C672 H688 0.931 . S
C673 C672 1.370 . S
C673 C677 1.408 . S
C674 C672 1.363 . S
C674 C675 1.370 . S
C674 C678 1.524 . S
C675 C667 1.503 . S
C675 C674 1.370 . S
C675 C676 1.403 . S
C676 C675 1.403 . S
C676 C677 1.404 . S
C676 C679 1.539 . S
C677 C673 1.408 . S
C677 C676 1.404 . S
C677 H689 0.930 . S
C678 C674 1.524 . S
C678 H690 0.956 . S
C678 H691 0.961 . S
C678 H692 0.961 . S
C679 C676 1.539 . S
C679 H693 0.958 . S
C679 H694 0.961 . S
C679 H695 0.960 . S
H680 C664 0.931 . S
H681 C669 0.929 . S
H682 C670 0.960 . S
H683 C670 0.962 . S
H684 C670 0.960 . S
H685 C671 0.961 . S
H686 C671 0.961 . S
H687 C671 0.961 . S
H688 C672 0.931 . S
H689 C677 0.930 . S
H690 C678 0.956 . S
H691 C678 0.961 . S
H692 C678 0.961 . S
H693 C679 0.958 . S
H694 C679 0.961 . S
H695 C679 0.960 . S
C696 C697 1.391 . S
C696 C698 1.394 . S
C696 H712 0.931 . S
C697 C696 1.391 . S
C697 C701 1.376 . S
C698 C696 1.394 . S
C698 C699 1.369 . S
C698 C702 1.531 . S
C699 C698 1.369 . S
C699 C700 1.410 . S
C699 C707 1.503 . S
C700 C699 1.410 . S
C700 C701 1.392 . S
C700 C703 1.511 . S
C701 C697 1.376 . S
C701 C700 1.392 . S
C701 H713 0.929 . S
C702 C698 1.531 . S
C702 H714 0.960 . S
C702 H715 0.962 . S
C702 H716 0.960 . S
C703 C700 1.511 . S
C703 H717 0.961 . S
C703 H718 0.961 . S
C703 H719 0.961 . S
C704 C705 1.370 . S
C704 C706 1.363 . S
C704 H720 0.931 . S
C705 C704 1.370 . S
C705 C709 1.408 . S
C706 C704 1.363 . S
C706 C707 1.370 . S
C706 C710 1.524 . S
C707 C699 1.503 . S
C707 C706 1.370 . S
C707 C708 1.403 . S
C708 C707 1.403 . S
C708 C709 1.404 . S
C708 C711 1.539 . S
C709 C705 1.408 . S
C709 C708 1.404 . S
C709 H721 0.930 . S
C710 C706 1.524 . S
C710 H722 0.956 . S
C710 H723 0.961 . S
C710 H724 0.961 . S
C711 C708 1.539 . S
C711 H725 0.958 . S
C711 H726 0.961 . S
C711 H727 0.960 . S
H712 C696 0.931 . S
H713 C701 0.929 . S
H714 C702 0.960 . S
H715 C702 0.962 . S
H716 C702 0.960 . S
H717 C703 0.961 . S
H718 C703 0.961 . S
H719 C703 0.961 . S
H720 C704 0.931 . S
H721 C709 0.930 . S
H722 C710 0.956 . S
H723 C710 0.961 . S
H724 C710 0.961 . S
H725 C711 0.958 . S
H726 C711 0.961 . S
H727 C711 0.960 . S
C728 C729 1.391 . S
C728 C730 1.394 . S
C728 H744 0.931 . S
C729 C728 1.391 . S
C729 C733 1.376 . S
C730 C728 1.394 . S
C730 C731 1.369 . S
C730 C734 1.531 . S
C731 C730 1.369 . S
C731 C732 1.410 . S
C731 C739 1.503 . S
C732 C731 1.410 . S
C732 C733 1.392 . S
C732 C735 1.511 . S
C733 C729 1.376 . S
C733 C732 1.392 . S
C733 H745 0.929 . S
C734 C730 1.531 . S
C734 H746 0.960 . S
C734 H747 0.962 . S
C734 H748 0.960 . S
C735 C732 1.511 . S
C735 H749 0.961 . S
C735 H750 0.961 . S
C735 H751 0.961 . S
C736 C737 1.370 . S
C736 C738 1.363 . S
C736 H752 0.931 . S
C737 C736 1.370 . S
C737 C741 1.408 . S
C738 C736 1.363 . S
C738 C739 1.370 . S
C738 C742 1.524 . S
C739 C731 1.503 . S
C739 C738 1.370 . S
C739 C740 1.403 . S
C740 C739 1.403 . S
C740 C741 1.404 . S
C740 C743 1.539 . S
C741 C737 1.408 . S
C741 C740 1.404 . S
C741 H753 0.930 . S
C742 C738 1.524 . S
C742 H754 0.956 . S
C742 H755 0.961 . S
C742 H756 0.961 . S
C743 C740 1.539 . S
C743 H757 0.958 . S
C743 H758 0.961 . S
C743 H759 0.960 . S
H744 C728 0.931 . S
H745 C733 0.929 . S
H746 C734 0.960 . S
H747 C734 0.962 . S
H748 C734 0.960 . S
H749 C735 0.961 . S
H750 C735 0.961 . S
H751 C735 0.961 . S
H752 C736 0.931 . S
H753 C741 0.930 . S
H754 C742 0.956 . S
H755 C742 0.961 . S
H756 C742 0.961 . S
H757 C743 0.958 . S
H758 C743 0.961 . S
H759 C743 0.960 . S
C760 C761 1.391 . S
C760 C762 1.394 . S
C760 H776 0.931 . S
C761 C760 1.391 . S
C761 C765 1.376 . S
C762 C760 1.394 . S
C762 C763 1.369 . S
C762 C766 1.531 . S
C763 C762 1.369 . S
C763 C764 1.410 . S
C763 C771 1.503 . S
C764 C763 1.410 . S
C764 C765 1.392 . S
C764 C767 1.511 . S
C765 C761 1.376 . S
C765 C764 1.392 . S
C765 H777 0.929 . S
C766 C762 1.531 . S
C766 H778 0.960 . S
C766 H779 0.962 . S
C766 H780 0.960 . S
C767 C764 1.511 . S
C767 H781 0.961 . S
C767 H782 0.961 . S
C767 H783 0.961 . S
C768 C769 1.370 . S
C768 C770 1.363 . S
C768 H784 0.931 . S
C769 C768 1.370 . S
C769 C773 1.408 . S
C770 C768 1.363 . S
C770 C771 1.370 . S
C770 C774 1.524 . S
C771 C763 1.503 . S
C771 C770 1.370 . S
C771 C772 1.403 . S
C772 C771 1.403 . S
C772 C773 1.404 . S
C772 C775 1.539 . S
C773 C769 1.408 . S
C773 C772 1.404 . S
C773 H785 0.930 . S
C774 C770 1.524 . S
C774 H786 0.956 . S
C774 H787 0.961 . S
C774 H788 0.961 . S
C775 C772 1.539 . S
C775 H789 0.958 . S
C775 H790 0.961 . S
C775 H791 0.960 . S
H776 C760 0.931 . S
H777 C765 0.929 . S
H778 C766 0.960 . S
H779 C766 0.962 . S
H780 C766 0.960 . S
H781 C767 0.961 . S
H782 C767 0.961 . S
H783 C767 0.961 . S
H784 C768 0.931 . S
H785 C773 0.930 . S
H786 C774 0.956 . S
H787 C774 0.961 . S
H788 C774 0.961 . S
H789 C775 0.958 . S
H790 C775 0.961 . S
H791 C775 0.960 . S
C792 C793 1.391 . S
C792 C794 1.394 . S
C792 H808 0.931 . S
C793 C792 1.391 . S
C793 C797 1.376 . S
C794 C792 1.394 . S
C794 C795 1.369 . S
C794 C798 1.531 . S
C795 C794 1.369 . S
C795 C796 1.410 . S
C795 C803 1.503 . S
C796 C795 1.410 . S
C796 C797 1.392 . S
C796 C799 1.511 . S
C797 C793 1.376 . S
C797 C796 1.392 . S
C797 H809 0.929 . S
C798 C794 1.531 . S
C798 H810 0.960 . S
C798 H811 0.962 . S
C798 H812 0.960 . S
C799 C796 1.511 . S
C799 H813 0.961 . S
C799 H814 0.961 . S
C799 H815 0.961 . S
C800 C801 1.370 . S
C800 C802 1.363 . S
C800 H816 0.931 . S
C801 C800 1.370 . S
C801 C805 1.408 . S
C802 C800 1.363 . S
C802 C803 1.370 . S
C802 C806 1.524 . S
C803 C795 1.503 . S
C803 C802 1.370 . S
C803 C804 1.403 . S
C804 C803 1.403 . S
C804 C805 1.404 . S
C804 C807 1.539 . S
C805 C801 1.408 . S
C805 C804 1.404 . S
C805 H817 0.930 . S
C806 C802 1.524 . S
C806 H818 0.956 . S
C806 H819 0.961 . S
C806 H820 0.961 . S
C807 C804 1.539 . S
C807 H821 0.958 . S
C807 H822 0.961 . S
C807 H823 0.960 . S
H808 C792 0.931 . S
H809 C797 0.929 . S
H810 C798 0.960 . S
H811 C798 0.962 . S
H812 C798 0.960 . S
H813 C799 0.961 . S
H814 C799 0.961 . S
H815 C799 0.961 . S
H816 C800 0.931 . S
H817 C805 0.930 . S
H818 C806 0.956 . S
H819 C806 0.961 . S
H820 C806 0.961 . S
H821 C807 0.958 . S
H822 C807 0.961 . S
H823 C807 0.960 . S
C824 C825 1.391 . S
C824 C826 1.394 . S
C824 H840 0.931 . S
C825 C824 1.391 . S
C825 C829 1.376 . S
C826 C824 1.394 . S
C826 C827 1.369 . S
C826 C830 1.531 . S
C827 C826 1.369 . S
C827 C828 1.410 . S
C827 C835 1.503 . S
C828 C827 1.410 . S
C828 C829 1.392 . S
C828 C831 1.511 . S
C829 C825 1.376 . S
C829 C828 1.392 . S
C829 H841 0.929 . S
C830 C826 1.531 . S
C830 H842 0.960 . S
C830 H843 0.962 . S
C830 H844 0.960 . S
C831 C828 1.511 . S
C831 H845 0.961 . S
C831 H846 0.961 . S
C831 H847 0.961 . S
C832 C833 1.370 . S
C832 C834 1.363 . S
C832 H848 0.931 . S
C833 C832 1.370 . S
C833 C837 1.408 . S
C834 C832 1.363 . S
C834 C835 1.370 . S
C834 C838 1.524 . S
C835 C827 1.503 . S
C835 C834 1.370 . S
C835 C836 1.403 . S
C836 C835 1.403 . S
C836 C837 1.404 . S
C836 C839 1.539 . S
C837 C833 1.408 . S
C837 C836 1.404 . S
C837 H849 0.930 . S
C838 C834 1.524 . S
C838 H850 0.956 . S
C838 H851 0.961 . S
C838 H852 0.961 . S
C839 C836 1.539 . S
C839 H853 0.958 . S
C839 H854 0.961 . S
C839 H855 0.960 . S
H840 C824 0.931 . S
H841 C829 0.929 . S
H842 C830 0.960 . S
H843 C830 0.962 . S
H844 C830 0.960 . S
H845 C831 0.961 . S
H846 C831 0.961 . S
H847 C831 0.961 . S
H848 C832 0.931 . S
H849 C837 0.930 . S
H850 C838 0.956 . S
H851 C838 0.961 . S
H852 C838 0.961 . S
H853 C839 0.958 . S
H854 C839 0.961 . S
H855 C839 0.960 . S
C856 C857 1.391 . S
C856 C858 1.394 . S
C856 H872 0.931 . S
C857 C856 1.391 . S
C857 C861 1.376 . S
C858 C856 1.394 . S
C858 C859 1.369 . S
C858 C862 1.531 . S
C859 C858 1.369 . S
C859 C860 1.410 . S
C859 C867 1.503 . S
C860 C859 1.410 . S
C860 C861 1.392 . S
C860 C863 1.511 . S
C861 C857 1.376 . S
C861 C860 1.392 . S
C861 H873 0.929 . S
C862 C858 1.531 . S
C862 H874 0.960 . S
C862 H875 0.962 . S
C862 H876 0.960 . S
C863 C860 1.511 . S
C863 H877 0.961 . S
C863 H878 0.961 . S
C863 H879 0.961 . S
C864 C865 1.370 . S
C864 C866 1.363 . S
C864 H880 0.931 . S
C865 C864 1.370 . S
C865 C869 1.408 . S
C866 C864 1.363 . S
C866 C867 1.370 . S
C866 C870 1.524 . S
C867 C859 1.503 . S
C867 C866 1.370 . S
C867 C868 1.403 . S
C868 C867 1.403 . S
C868 C869 1.404 . S
C868 C871 1.539 . S
C869 C865 1.408 . S
C869 C868 1.404 . S
C869 H881 0.930 . S
C870 C866 1.524 . S
C870 H882 0.956 . S
C870 H883 0.961 . S
C870 H884 0.961 . S
C871 C868 1.539 . S
C871 H885 0.958 . S
C871 H886 0.961 . S
C871 H887 0.960 . S
H872 C856 0.931 . S
H873 C861 0.929 . S
H874 C862 0.960 . S
H875 C862 0.962 . S
H876 C862 0.960 . S
H877 C863 0.961 . S
H878 C863 0.961 . S
H879 C863 0.961 . S
H880 C864 0.931 . S
H881 C869 0.930 . S
H882 C870 0.956 . S
H883 C870 0.961 . S
H884 C870 0.961 . S
H885 C871 0.958 . S
H886 C871 0.961 . S
H887 C871 0.960 . S
C888 C889 1.391 . S
C888 C890 1.394 . S
C888 H904 0.931 . S
C889 C888 1.391 . S
C889 C893 1.376 . S
C890 C888 1.394 . S
C890 C891 1.369 . S
C890 C894 1.531 . S
C891 C890 1.369 . S
C891 C892 1.410 . S
C891 C899 1.503 . S
C892 C891 1.410 . S
C892 C893 1.392 . S
C892 C895 1.511 . S
C893 C889 1.376 . S
C893 C892 1.392 . S
C893 H905 0.929 . S
C894 C890 1.531 . S
C894 H906 0.960 . S
C894 H907 0.962 . S
C894 H908 0.960 . S
C895 C892 1.511 . S
C895 H909 0.961 . S
C895 H910 0.961 . S
C895 H911 0.961 . S
C896 C897 1.370 . S
C896 C898 1.363 . S
C896 H912 0.931 . S
C897 C896 1.370 . S
C897 C901 1.408 . S
C898 C896 1.363 . S
C898 C899 1.370 . S
C898 C902 1.524 . S
C899 C891 1.503 . S
C899 C898 1.370 . S
C899 C900 1.403 . S
C900 C899 1.403 . S
C900 C901 1.404 . S
C900 C903 1.539 . S
C901 C897 1.408 . S
C901 C900 1.404 . S
C901 H913 0.930 . S
C902 C898 1.524 . S
C902 H914 0.956 . S
C902 H915 0.961 . S
C902 H916 0.961 . S
C903 C900 1.539 . S
C903 H917 0.958 . S
C903 H918 0.961 . S
C903 H919 0.960 . S
H904 C888 0.931 . S
H905 C893 0.929 . S
H906 C894 0.960 . S
H907 C894 0.962 . S
H908 C894 0.960 . S
H909 C895 0.961 . S
H910 C895 0.961 . S
H911 C895 0.961 . S
H912 C896 0.931 . S
H913 C901 0.930 . S
H914 C902 0.956 . S
H915 C902 0.961 . S
H916 C902 0.961 . S
H917 C903 0.958 . S
H918 C903 0.961 . S
H919 C903 0.960 . S
C920 C921 1.391 . S
C920 C922 1.394 . S
C920 H936 0.931 . S
C921 C920 1.391 . S
C921 C925 1.376 . S
C922 C920 1.394 . S
C922 C923 1.369 . S
C922 C926 1.531 . S
C923 C922 1.369 . S
C923 C924 1.410 . S
C923 C931 1.503 . S
C924 C923 1.410 . S
C924 C925 1.392 . S
C924 C927 1.511 . S
C925 C921 1.376 . S
C925 C924 1.392 . S
C925 H937 0.929 . S
C926 C922 1.531 . S
C926 H938 0.960 . S
C926 H939 0.962 . S
C926 H940 0.960 . S
C927 C924 1.511 . S
C927 H941 0.961 . S
C927 H942 0.961 . S
C927 H943 0.961 . S
C928 C929 1.370 . S
C928 C930 1.363 . S
C928 H944 0.931 . S
C929 C928 1.370 . S
C929 C933 1.408 . S
C930 C928 1.363 . S
C930 C931 1.370 . S
C930 C934 1.524 . S
C931 C923 1.503 . S
C931 C930 1.370 . S
C931 C932 1.403 . S
C932 C931 1.403 . S
C932 C933 1.404 . S
C932 C935 1.539 . S
C933 C929 1.408 . S
C933 C932 1.404 . S
C933 H945 0.930 . S
C934 C930 1.524 . S
C934 H946 0.956 . S
C934 H947 0.961 . S
C934 H948 0.961 . S
C935 C932 1.539 . S
C935 H949 0.958 . S
C935 H950 0.961 . S
C935 H951 0.960 . S
H936 C920 0.931 . S
H937 C925 0.929 . S
H938 C926 0.960 . S
H939 C926 0.962 . S
H940 C926 0.960 . S
H941 C927 0.961 . S
H942 C927 0.961 . S
H943 C927 0.961 . S
H944 C928 0.931 . S
H945 C933 0.930 . S
H946 C934 0.956 . S
H947 C934 0.961 . S
H948 C934 0.961 . S
H949 C935 0.958 . S
H950 C935 0.961 . S
H951 C935 0.960 . S
C952 C953 1.391 . S
C952 C954 1.394 . S
C952 H968 0.931 . S
C953 C952 1.391 . S
C953 C957 1.376 . S
C954 C952 1.394 . S
C954 C955 1.369 . S
C954 C958 1.531 . S
C955 C954 1.369 . S
C955 C956 1.410 . S
C955 C963 1.503 . S
C956 C955 1.410 . S
C956 C957 1.392 . S
C956 C959 1.511 . S
C957 C953 1.376 . S
C957 C956 1.392 . S
C957 H969 0.929 . S
C958 C954 1.531 . S
C958 H970 0.960 . S
C958 H971 0.962 . S
C958 H972 0.960 . S
C959 C956 1.511 . S
C959 H973 0.961 . S
C959 H974 0.961 . S
C959 H975 0.961 . S
C960 C961 1.370 . S
C960 C962 1.363 . S
C960 H976 0.931 . S
C961 C960 1.370 . S
C961 C965 1.408 . S
C962 C960 1.363 . S
C962 C963 1.370 . S
C962 C966 1.524 . S
C963 C955 1.503 . S
C963 C962 1.370 . S
C963 C964 1.403 . S
C964 C963 1.403 . S
C964 C965 1.404 . S
C964 C967 1.539 . S
C965 C961 1.408 . S
C965 C964 1.404 . S
C965 H977 0.930 . S
C966 C962 1.524 . S
C966 H978 0.956 . S
C966 H979 0.961 . S
C966 H980 0.961 . S
C967 C964 1.539 . S
C967 H981 0.958 . S
C967 H982 0.961 . S
C967 H983 0.960 . S
H968 C952 0.931 . S
H969 C957 0.929 . S
H970 C958 0.960 . S
H971 C958 0.962 . S
H972 C958 0.960 . S
H973 C959 0.961 . S
H974 C959 0.961 . S
H975 C959 0.961 . S
H976 C960 0.931 . S
H977 C965 0.930 . S
H978 C966 0.956 . S
H979 C966 0.961 . S
H980 C966 0.961 . S
H981 C967 0.958 . S
H982 C967 0.961 . S
H983 C967 0.960 . S
C984 C985 1.391 . S
C984 C986 1.394 . S
C984 H1000 0.931 . S
C985 C984 1.391 . S
C985 C989 1.376 . S
C986 C984 1.394 . S
C986 C987 1.369 . S
C986 C990 1.531 . S
C987 C986 1.369 . S
C987 C988 1.410 . S
C987 C995 1.503 . S
C988 C987 1.410 . S
C988 C989 1.392 . S
C988 C991 1.511 . S
C989 C985 1.376 . S
C989 C988 1.392 . S
C989 H1001 0.929 . S
C990 C986 1.531 . S
C990 H1002 0.960 . S
C990 H1003 0.962 . S
C990 H1004 0.960 . S
C991 C988 1.511 . S
C991 H1005 0.961 . S
C991 H1006 0.961 . S
C991 H1007 0.961 . S
C992 C993 1.370 . S
C992 C994 1.363 . S
C992 H1008 0.931 . S
C993 C992 1.370 . S
C993 C997 1.408 . S
C994 C992 1.363 . S
C994 C995 1.370 . S
C994 C998 1.524 . S
C995 C987 1.503 . S
C995 C994 1.370 . S
C995 C996 1.403 . S
C996 C995 1.403 . S
C996 C997 1.404 . S
C996 C999 1.539 . S
C997 C993 1.408 . S
C997 C996 1.404 . S
C997 H1009 0.930 . S
C998 C994 1.524 . S
C998 H1010 0.956 . S
C998 H1011 0.961 . S
C998 H1012 0.961 . S
C999 C996 1.539 . S
C999 H1013 0.958 . S
C999 H1014 0.961 . S
C999 H1015 0.960 . S
H1000 C984 0.931 . S
H1001 C989 0.929 . S
H1002 C990 0.960 . S
H1003 C990 0.962 . S
H1004 C990 0.960 . S
H1005 C991 0.961 . S
H1006 C991 0.961 . S
H1007 C991 0.961 . S
H1008 C992 0.931 . S
H1009 C997 0.930 . S
H1010 C998 0.956 . S
H1011 C998 0.961 . S
H1012 C998 0.961 . S
H1013 C999 0.958 . S
H1014 C999 0.961 . S
H1015 C999 0.960 . S
C1016 C1017 1.391 . S
C1016 C1018 1.394 . S
C1016 H1032 0.931 . S
C1017 C1016 1.391 . S
C1017 C1021 1.376 . S
C1018 C1016 1.394 . S
C1018 C1019 1.369 . S
C1018 C1022 1.531 . S
C1019 C1018 1.369 . S
C1019 C1020 1.410 . S
C1019 C1027 1.503 . S
C1020 C1019 1.410 . S
C1020 C1021 1.392 . S
C1020 C1023 1.511 . S
C1021 C1017 1.376 . S
C1021 C1020 1.392 . S
C1021 H1033 0.929 . S
C1022 C1018 1.531 . S
C1022 H1034 0.960 . S
C1022 H1035 0.962 . S
C1022 H1036 0.960 . S
C1023 C1020 1.511 . S
C1023 H1037 0.961 . S
C1023 H1038 0.961 . S
C1023 H1039 0.961 . S
C1024 C1025 1.370 . S
C1024 C1026 1.363 . S
C1024 H1040 0.931 . S
C1025 C1024 1.370 . S
C1025 C1029 1.408 . S
C1026 C1024 1.363 . S
C1026 C1027 1.370 . S
C1026 C1030 1.524 . S
C1027 C1019 1.503 . S
C1027 C1026 1.370 . S
C1027 C1028 1.403 . S
C1028 C1027 1.403 . S
C1028 C1029 1.404 . S
C1028 C1031 1.539 . S
C1029 C1025 1.408 . S
C1029 C1028 1.404 . S
C1029 H1041 0.930 . S
C1030 C1026 1.524 . S
C1030 H1042 0.956 . S
C1030 H1043 0.961 . S
C1030 H1044 0.961 . S
C1031 C1028 1.539 . S
C1031 H1045 0.958 . S
C1031 H1046 0.961 . S
C1031 H1047 0.960 . S
H1032 C1016 0.931 . S
H1033 C1021 0.929 . S
H1034 C1022 0.960 . S
H1035 C1022 0.962 . S
H1036 C1022 0.960 . S
H1037 C1023 0.961 . S
H1038 C1023 0.961 . S
H1039 C1023 0.961 . S
H1040 C1024 0.931 . S
H1041 C1029 0.930 . S
H1042 C1030 0.956 . S
H1043 C1030 0.961 . S
H1044 C1030 0.961 . S
H1045 C1031 0.958 . S
H1046 C1031 0.961 . S
H1047 C1031 0.960 . S
C1048 C1049 1.391 . S
C1048 C1050 1.394 . S
C1048 H1064 0.931 . S
C1049 C1048 1.391 . S
C1049 C1053 1.376 . S
C1050 C1048 1.394 . S
C1050 C1051 1.369 . S
C1050 C1054 1.531 . S
C1051 C1050 1.369 . S
C1051 C1052 1.410 . S
C1051 C1059 1.503 . S
C1052 C1051 1.410 . S
C1052 C1053 1.392 . S
C1052 C1055 1.511 . S
C1053 C1049 1.376 . S
C1053 C1052 1.392 . S
C1053 H1065 0.929 . S
C1054 C1050 1.531 . S
C1054 H1066 0.960 . S
C1054 H1067 0.962 . S
C1054 H1068 0.960 . S
C1055 C1052 1.511 . S
C1055 H1069 0.961 . S
C1055 H1070 0.961 . S
C1055 H1071 0.961 . S
C1056 C1057 1.370 . S
C1056 C1058 1.363 . S
C1056 H1072 0.931 . S
C1057 C1056 1.370 . S
C1057 C1061 1.408 . S
C1058 C1056 1.363 . S
C1058 C1059 1.370 . S
C1058 C1062 1.524 . S
C1059 C1051 1.503 . S
C1059 C1058 1.370 . S
C1059 C1060 1.403 . S
C1060 C1059 1.403 . S
C1060 C1061 1.404 . S
C1060 C1063 1.539 . S
C1061 C1057 1.408 . S
C1061 C1060 1.404 . S
C1061 H1073 0.930 . S
C1062 C1058 1.524 . S
C1062 H1074 0.956 . S
C1062 H1075 0.961 . S
C1062 H1076 0.961 . S
C1063 C1060 1.539 . S
C1063 H1077 0.958 . S
C1063 H1078 0.961 . S
C1063 H1079 0.960 . S
H1064 C1048 0.931 . S
H1065 C1053 0.929 . S
H1066 C1054 0.960 . S
H1067 C1054 0.962 . S
H1068 C1054 0.960 . S
H1069 C1055 0.961 . S
H1070 C1055 0.961 . S
H1071 C1055 0.961 . S
H1072 C1056 0.931 . S
H1073 C1061 0.930 . S
H1074 C1062 0.956 . S
H1075 C1062 0.961 . S
H1076 C1062 0.961 . S
H1077 C1063 0.958 . S
H1078 C1063 0.961 . S
H1079 C1063 0.960 . S
C1080 C1081 1.391 . S
C1080 C1082 1.394 . S
C1080 H1096 0.931 . S
C1081 C1080 1.391 . S
C1081 C1085 1.376 . S
C1082 C1080 1.394 . S
C1082 C1083 1.369 . S
C1082 C1086 1.531 . S
C1083 C1082 1.369 . S
C1083 C1084 1.410 . S
C1083 C1091 1.503 . S
C1084 C1083 1.410 . S
C1084 C1085 1.392 . S
C1084 C1087 1.511 . S
C1085 C1081 1.376 . S
C1085 C1084 1.392 . S
C1085 H1097 0.929 . S
C1086 C1082 1.531 . S
C1086 H1098 0.960 . S
C1086 H1099 0.962 . S
C1086 H1100 0.960 . S
C1087 C1084 1.511 . S
C1087 H1101 0.961 . S
C1087 H1102 0.961 . S
C1087 H1103 0.961 . S
C1088 C1089 1.370 . S
C1088 C1090 1.363 . S
C1088 H1104 0.931 . S
C1089 C1088 1.370 . S
C1089 C1093 1.408 . S
C1090 C1088 1.363 . S
C1090 C1091 1.370 . S
C1090 C1094 1.524 . S
C1091 C1083 1.503 . S
C1091 C1090 1.370 . S
C1091 C1092 1.403 . S
C1092 C1091 1.403 . S
C1092 C1093 1.404 . S
C1092 C1095 1.539 . S
C1093 C1089 1.408 . S
C1093 C1092 1.404 . S
C1093 H1105 0.930 . S
C1094 C1090 1.524 . S
C1094 H1106 0.956 . S
C1094 H1107 0.961 . S
C1094 H1108 0.961 . S
C1095 C1092 1.539 . S
C1095 H1109 0.958 . S
C1095 H1110 0.961 . S
C1095 H1111 0.960 . S
H1096 C1080 0.931 . S
H1097 C1085 0.929 . S
H1098 C1086 0.960 . S
H1099 C1086 0.962 . S
H1100 C1086 0.960 . S
H1101 C1087 0.961 . S
H1102 C1087 0.961 . S
H1103 C1087 0.961 . S
H1104 C1088 0.931 . S
H1105 C1093 0.930 . S
H1106 C1094 0.956 . S
H1107 C1094 0.961 . S
H1108 C1094 0.961 . S
H1109 C1095 0.958 . S
H1110 C1095 0.961 . S
H1111 C1095 0.960 . S
C1112 C1113 1.397 . S
C1112 C1114 1.376 1_554 S
C1112 H1128 0.942 . S
C1113 C1112 1.397 . S
C1113 C1117 1.376 1_554 S
C1114 C1112 1.376 1_556 S
C1114 C1115 1.369 . S
C1114 C1118 1.531 . S
C1115 C1114 1.369 . S
C1115 C1116 1.410 . S
C1115 C1123 1.503 . S
C1116 C1115 1.410 . S
C1116 C1117 1.392 . S
C1116 C1119 1.511 . S
C1117 C1113 1.376 1_556 S
C1117 C1116 1.392 . S
C1117 H1129 0.940 . S
C1118 C1114 1.531 . S
C1118 H1130 0.960 . S
C1118 H1131 0.962 . S
C1118 H1132 0.960 . S
C1119 C1116 1.511 . S
C1119 H1133 0.961 . S
C1119 H1134 0.961 . S
C1119 H1135 0.961 . S
C1120 C1121 1.370 . S
C1120 C1122 1.363 . S
C1120 H1136 0.931 . S
C1121 C1120 1.370 . S
C1121 C1125 1.408 . S
C1122 C1120 1.363 . S
C1122 C1123 1.370 . S
C1122 C1126 1.524 . S
C1123 C1115 1.503 . S
C1123 C1122 1.370 . S
C1123 C1124 1.403 . S
C1124 C1123 1.403 . S
C1124 C1125 1.404 . S
C1124 C1127 1.539 . S
C1125 C1121 1.408 . S
C1125 C1124 1.404 . S
C1125 H1137 0.930 . S
C1126 C1122 1.524 . S
C1126 H1138 0.956 . S
C1126 H1139 0.961 . S
C1126 H1140 0.961 . S
C1127 C1124 1.539 . S
C1127 H1141 0.958 . S
C1127 H1142 0.961 . S
C1127 H1143 0.960 . S
H1128 C1112 0.942 . S
H1129 C1117 0.940 . S
H1130 C1118 0.960 . S
H1131 C1118 0.962 . S
H1132 C1118 0.960 . S
H1133 C1119 0.961 . S
H1134 C1119 0.961 . S
H1135 C1119 0.961 . S
H1136 C1120 0.931 . S
H1137 C1125 0.930 . S
H1138 C1126 0.956 . S
H1139 C1126 0.961 . S
H1140 C1126 0.961 . S
H1141 C1127 0.958 . S
H1142 C1127 0.961 . S
H1143 C1127 0.960 . S
C1144 C1145 1.391 . S
C1144 C1146 1.394 . S
C1144 H1160 0.931 . S
C1145 C1144 1.391 . S
C1145 C1149 1.376 . S
C1146 C1144 1.394 . S
C1146 C1147 1.369 . S
C1146 C1150 1.531 . S
C1147 C1146 1.369 . S
C1147 C1148 1.410 . S
C1147 C1155 1.503 . S
C1148 C1147 1.410 . S
C1148 C1149 1.392 . S
C1148 C1151 1.511 . S
C1149 C1145 1.376 . S
C1149 C1148 1.392 . S
C1149 H1161 0.929 . S
C1150 C1146 1.531 . S
C1150 H1162 0.960 . S
C1150 H1163 0.962 . S
C1150 H1164 0.960 . S
C1151 C1148 1.511 . S
C1151 H1165 0.961 . S
C1151 H1166 0.961 . S
C1151 H1167 0.961 . S
C1152 C1153 1.370 . S
C1152 C1154 1.363 . S
C1152 H1168 0.931 . S
C1153 C1152 1.370 . S
C1153 C1157 1.408 . S
C1154 C1152 1.363 . S
C1154 C1155 1.370 . S
C1154 C1158 1.524 . S
C1155 C1147 1.503 . S
C1155 C1154 1.370 . S
C1155 C1156 1.403 . S
C1156 C1155 1.403 . S
C1156 C1157 1.404 . S
C1156 C1159 1.539 . S
C1157 C1153 1.408 . S
C1157 C1156 1.404 . S
C1157 H1169 0.930 . S
C1158 C1154 1.524 . S
C1158 H1170 0.956 . S
C1158 H1171 0.961 . S
C1158 H1172 0.961 . S
C1159 C1156 1.539 . S
C1159 H1173 0.958 . S
C1159 H1174 0.961 . S
C1159 H1175 0.960 . S
H1160 C1144 0.931 . S
H1161 C1149 0.929 . S
H1162 C1150 0.960 . S
H1163 C1150 0.962 . S
H1164 C1150 0.960 . S
H1165 C1151 0.961 . S
H1166 C1151 0.961 . S
H1167 C1151 0.961 . S
H1168 C1152 0.931 . S
H1169 C1157 0.930 . S
H1170 C1158 0.956 . S
H1171 C1158 0.961 . S
H1172 C1158 0.961 . S
H1173 C1159 0.958 . S
H1174 C1159 0.961 . S
H1175 C1159 0.960 . S
C1176 C1177 1.391 . S
C1176 C1178 1.394 . S
C1176 H1192 0.931 . S
C1177 C1176 1.391 . S
C1177 C1181 1.376 . S
C1178 C1176 1.394 . S
C1178 C1179 1.369 . S
C1178 C1182 1.531 . S
C1179 C1178 1.369 . S
C1179 C1180 1.410 . S
C1179 C1187 1.503 . S
C1180 C1179 1.410 . S
C1180 C1181 1.392 . S
C1180 C1183 1.511 . S
C1181 C1177 1.376 . S
C1181 C1180 1.392 . S
C1181 H1193 0.929 . S
C1182 C1178 1.531 . S
C1182 H1194 0.960 . S
C1182 H1195 0.962 . S
C1182 H1196 0.960 . S
C1183 C1180 1.511 . S
C1183 H1197 0.961 . S
C1183 H1198 0.961 . S
C1183 H1199 0.961 . S
C1184 C1185 1.382 . S
C1184 C1186 1.332 1_556 S
C1184 H1200 0.952 . S
C1185 C1184 1.382 . S
C1185 C1189 1.408 1_556 S
C1186 C1184 1.332 1_554 S
C1186 C1187 1.370 . S
C1186 C1190 1.524 . S
C1187 C1179 1.503 . S
C1187 C1186 1.370 . S
C1187 C1188 1.403 . S
C1188 C1187 1.403 . S
C1188 C1189 1.404 . S
C1188 C1191 1.539 . S
C1189 C1185 1.408 1_554 S
C1189 C1188 1.404 . S
C1189 H1201 0.932 . S
C1190 C1186 1.524 . S
C1190 H1202 0.956 . S
C1190 H1203 0.961 . S
C1190 H1204 0.961 . S
C1191 C1188 1.539 . S
C1191 H1205 0.958 . S
C1191 H1206 0.961 . S
C1191 H1207 0.960 . S
H1192 C1176 0.931 . S
H1193 C1181 0.929 . S
H1194 C1182 0.960 . S
H1195 C1182 0.962 . S
H1196 C1182 0.960 . S
H1197 C1183 0.961 . S
H1198 C1183 0.961 . S
H1199 C1183 0.961 . S
H1200 C1184 0.952 . S
H1201 C1189 0.932 . S
H1202 C1190 0.956 . S
H1203 C1190 0.961 . S
H1204 C1190 0.961 . S
H1205 C1191 0.958 . S
H1206 C1191 0.961 . S
H1207 C1191 0.960 . S
C1208 C1209 1.391 . S
C1208 C1210 1.394 . S
C1208 H1224 0.931 . S
C1209 C1208 1.391 . S
C1209 C1213 1.376 . S
C1210 C1208 1.394 . S
C1210 C1211 1.369 . S
C1210 C1214 1.531 . S
C1211 C1210 1.369 . S
C1211 C1212 1.410 . S
C1211 C1219 1.503 . S
C1212 C1211 1.410 . S
C1212 C1213 1.392 . S
C1212 C1215 1.511 . S
C1213 C1209 1.376 . S
C1213 C1212 1.392 . S
C1213 H1225 0.929 . S
C1214 C1210 1.531 . S
C1214 H1226 0.960 . S
C1214 H1227 0.962 . S
C1214 H1228 0.960 . S
C1215 C1212 1.511 . S
C1215 H1229 0.961 . S
C1215 H1230 0.961 . S
C1215 H1231 0.961 . S
C1216 C1217 1.370 . S
C1216 C1218 1.363 . S
C1216 H1232 0.931 . S
C1217 C1216 1.370 . S
C1217 C1221 1.408 . S
C1218 C1216 1.363 . S
C1218 C1219 1.370 . S
C1218 C1222 1.524 . S
C1219 C1211 1.503 . S
C1219 C1218 1.370 . S
C1219 C1220 1.403 . S
C1220 C1219 1.403 . S
C1220 C1221 1.404 . S
C1220 C1223 1.539 . S
C1221 C1217 1.408 . S
C1221 C1220 1.404 . S
C1221 H1233 0.930 . S
C1222 C1218 1.524 . S
C1222 H1234 0.956 . S
C1222 H1235 0.961 . S
C1222 H1236 0.961 . S
C1223 C1220 1.539 . S
C1223 H1237 0.958 . S
C1223 H1238 0.961 . S
C1223 H1239 0.960 . S
H1224 C1208 0.931 . S
H1225 C1213 0.929 . S
H1226 C1214 0.960 . S
H1227 C1214 0.962 . S
H1228 C1214 0.960 . S
H1229 C1215 0.961 . S
H1230 C1215 0.961 . S
H1231 C1215 0.961 . S
H1232 C1216 0.931 . S
H1233 C1221 0.930 . S
H1234 C1222 0.956 . S
H1235 C1222 0.961 . S
H1236 C1222 0.961 . S
H1237 C1223 0.958 . S
H1238 C1223 0.961 . S
H1239 C1223 0.960 . S
C1240 C1241 1.391 . S
C1240 C1242 1.394 1_655 S
C1240 H1256 0.931 . S
C1241 C1240 1.391 . S
C1241 C1245 1.376 . S
C1242 C1240 1.394 1_455 S
C1242 C1243 1.369 . S
C1242 C1246 1.531 . S
C1243 C1242 1.369 . S
C1243 C1244 1.410 . S
C1243 C1251 1.503 . S
C1244 C1243 1.410 . S
C1244 C1245 1.392 1_455 S
C1244 C1247 1.511 . S
C1245 C1241 1.376 . S
C1245 C1244 1.392 1_655 S
C1245 H1257 0.929 . S
C1246 C1242 1.531 . S
C1246 H1258 0.960 . S
C1246 H1259 0.962 . S
C1246 H1260 0.960 . S
C1247 C1244 1.511 . S
C1247 H1261 0.961 . S
C1247 H1262 0.961 . S
C1247 H1263 0.961 . S
C1248 C1249 1.370 . S
C1248 C1250 1.363 . S
C1248 H1264 0.931 . S
C1249 C1248 1.370 . S
C1249 C1253 1.408 . S
C1250 C1248 1.363 . S
C1250 C1251 1.370 . S
C1250 C1254 1.524 . S
C1251 C1243 1.503 . S
C1251 C1250 1.370 . S
C1251 C1252 1.403 . S
C1252 C1251 1.403 . S
C1252 C1253 1.404 . S
C1252 C1255 1.539 . S
C1253 C1249 1.408 . S
C1253 C1252 1.404 . S
C1253 H1265 0.930 . S
C1254 C1250 1.524 . S
C1254 H1266 0.956 . S
C1254 H1267 0.961 . S
C1254 H1268 0.961 . S
C1255 C1252 1.539 . S
C1255 H1269 0.958 . S
C1255 H1270 0.961 . S
C1255 H1271 0.960 . S
H1256 C1240 0.931 . S
H1257 C1245 0.929 . S
H1258 C1246 0.960 . S
H1259 C1246 0.962 . S
H1260 C1246 0.960 . S
H1261 C1247 0.961 . S
H1262 C1247 0.961 . S
H1263 C1247 0.961 . S
H1264 C1248 0.931 . S
H1265 C1253 0.930 . S
H1266 C1254 0.956 . S
H1267 C1254 0.961 . S
H1268 C1254 0.961 . S
H1269 C1255 0.958 . S
H1270 C1255 0.961 . S
H1271 C1255 0.960 . S
C1272 C1273 1.391 . S
C1272 C1274 1.394 1_455 S
C1272 H1288 0.931 . S
C1273 C1272 1.391 . S
C1273 C1277 1.376 . S
C1274 C1272 1.394 1_655 S
C1274 C1275 1.369 . S
C1274 C1278 1.531 . S
C1275 C1274 1.369 . S
C1275 C1276 1.410 . S
C1275 C1283 1.503 . S
C1276 C1275 1.410 . S
C1276 C1277 1.392 1_655 S
C1276 C1279 1.511 . S
C1277 C1273 1.376 . S
C1277 C1276 1.392 1_455 S
C1277 H1289 0.929 . S
C1278 C1274 1.531 . S
C1278 H1290 0.960 . S
C1278 H1291 0.962 . S
C1278 H1292 0.960 . S
C1279 C1276 1.511 . S
C1279 H1293 0.961 . S
C1279 H1294 0.961 . S
C1279 H1295 0.961 . S
C1280 C1281 1.370 . S
C1280 C1282 1.363 . S
C1280 H1296 0.931 . S
C1281 C1280 1.370 . S
C1281 C1285 1.408 . S
C1282 C1280 1.363 . S
C1282 C1283 1.370 . S
C1282 C1286 1.524 . S
C1283 C1275 1.503 . S
C1283 C1282 1.370 . S
C1283 C1284 1.403 . S
C1284 C1283 1.403 . S
C1284 C1285 1.404 . S
C1284 C1287 1.539 . S
C1285 C1281 1.408 . S
C1285 C1284 1.404 . S
C1285 H1297 0.930 . S
C1286 C1282 1.524 . S
C1286 H1298 0.956 . S
C1286 H1299 0.961 . S
C1286 H1300 0.961 . S
C1287 C1284 1.539 . S
C1287 H1301 0.958 . S
C1287 H1302 0.961 . S
C1287 H1303 0.960 . S
H1288 C1272 0.931 . S
H1289 C1277 0.929 . S
H1290 C1278 0.960 . S
H1291 C1278 0.962 . S
H1292 C1278 0.960 . S
H1293 C1279 0.961 . S
H1294 C1279 0.961 . S
H1295 C1279 0.961 . S
H1296 C1280 0.931 . S
H1297 C1285 0.930 . S
H1298 C1286 0.956 . S
H1299 C1286 0.961 . S
H1300 C1286 0.961 . S
H1301 C1287 0.958 . S
H1302 C1287 0.961 . S
H1303 C1287 0.960 . S
C1304 C1305 1.391 . S
C1304 C1306 1.394 . S
C1304 H1320 0.931 . S
C1305 C1304 1.391 . S
C1305 C1309 1.376 . S
C1306 C1304 1.394 . S
C1306 C1307 1.369 . S
C1306 C1310 1.531 . S
C1307 C1306 1.369 . S
C1307 C1308 1.410 . S
C1307 C1315 1.503 . S
C1308 C1307 1.410 . S
C1308 C1309 1.392 . S
C1308 C1311 1.511 . S
C1309 C1305 1.376 . S
C1309 C1308 1.392 . S
C1309 H1321 0.929 . S
C1310 C1306 1.531 . S
C1310 H1322 0.960 . S
C1310 H1323 0.962 . S
C1310 H1324 0.960 . S
C1311 C1308 1.511 . S
C1311 H1325 0.961 . S
C1311 H1326 0.961 . S
C1311 H1327 0.961 . S
C1312 C1313 1.370 . S
C1312 C1314 1.363 . S
C1312 H1328 0.931 . S
C1313 C1312 1.370 . S
C1313 C1317 1.408 . S
C1314 C1312 1.363 . S
C1314 C1315 1.370 . S
C1314 C1318 1.524 . S
C1315 C1307 1.503 . S
C1315 C1314 1.370 . S
C1315 C1316 1.403 . S
C1316 C1315 1.403 . S
C1316 C1317 1.404 . S
C1316 C1319 1.539 . S
C1317 C1313 1.408 . S
C1317 C1316 1.404 . S
C1317 H1329 0.930 . S
C1318 C1314 1.524 . S
C1318 H1330 0.956 . S
C1318 H1331 0.961 . S
C1318 H1332 0.961 . S
C1319 C1316 1.539 . S
C1319 H1333 0.958 . S
C1319 H1334 0.961 . S
C1319 H1335 0.960 . S
H1320 C1304 0.931 . S
H1321 C1309 0.929 . S
H1322 C1310 0.960 . S
H1323 C1310 0.962 . S
H1324 C1310 0.960 . S
H1325 C1311 0.961 . S
H1326 C1311 0.961 . S
H1327 C1311 0.961 . S
H1328 C1312 0.931 . S
H1329 C1317 0.930 . S
H1330 C1318 0.956 . S
H1331 C1318 0.961 . S
H1332 C1318 0.961 . S
H1333 C1319 0.958 . S
H1334 C1319 0.961 . S
H1335 C1319 0.960 . S
C1336 C1337 1.391 . S
C1336 C1338 1.394 . S
C1336 H1352 0.931 . S
C1337 C1336 1.391 . S
C1337 C1341 1.376 . S
C1338 C1336 1.394 . S
C1338 C1339 1.369 . S
C1338 C1342 1.531 . S
C1339 C1338 1.369 . S
C1339 C1340 1.410 . S
C1339 C1347 1.503 . S
C1340 C1339 1.410 . S
C1340 C1341 1.392 . S
C1340 C1343 1.511 . S
C1341 C1337 1.376 . S
C1341 C1340 1.392 . S
C1341 H1353 0.929 . S
C1342 C1338 1.531 . S
C1342 H1354 0.960 . S
C1342 H1355 0.962 . S
C1342 H1356 0.960 . S
C1343 C1340 1.511 . S
C1343 H1357 0.961 . S
C1343 H1358 0.961 . S
C1343 H1359 0.961 . S
C1344 C1345 1.370 . S
C1344 C1346 1.363 . S
C1344 H1360 0.931 . S
C1345 C1344 1.370 . S
C1345 C1349 1.408 . S
C1346 C1344 1.363 . S
C1346 C1347 1.370 . S
C1346 C1350 1.524 . S
C1347 C1339 1.503 . S
C1347 C1346 1.370 . S
C1347 C1348 1.403 . S
C1348 C1347 1.403 . S
C1348 C1349 1.404 . S
C1348 C1351 1.539 . S
C1349 C1345 1.408 . S
C1349 C1348 1.404 . S
C1349 H1361 0.930 . S
C1350 C1346 1.524 . S
C1350 H1362 0.956 . S
C1350 H1363 0.961 . S
C1350 H1364 0.961 . S
C1351 C1348 1.539 . S
C1351 H1365 0.958 . S
C1351 H1366 0.961 . S
C1351 H1367 0.960 . S
H1352 C1336 0.931 . S
H1353 C1341 0.929 . S
H1354 C1342 0.960 . S
H1355 C1342 0.962 . S
H1356 C1342 0.960 . S
H1357 C1343 0.961 . S
H1358 C1343 0.961 . S
H1359 C1343 0.961 . S
H1360 C1344 0.931 . S
H1361 C1349 0.930 . S
H1362 C1350 0.956 . S
H1363 C1350 0.961 . S
H1364 C1350 0.961 . S
H1365 C1351 0.958 . S
H1366 C1351 0.961 . S
H1367 C1351 0.960 . S
C1368 C1369 1.391 . S
C1368 C1370 1.394 1_565 S
C1368 H1384 0.931 . S
C1369 C1368 1.391 . S
C1369 C1373 1.376 1_565 S
C1370 C1368 1.394 1_545 S
C1370 C1371 1.369 . S
C1370 C1374 1.531 . S
C1371 C1370 1.369 . S
C1371 C1372 1.410 . S
C1371 C1379 1.503 . S
C1372 C1371 1.410 . S
C1372 C1373 1.392 . S
C1372 C1375 1.511 . S
C1373 C1369 1.376 1_545 S
C1373 C1372 1.392 . S
C1373 H1385 0.929 . S
C1374 C1370 1.531 . S
C1374 H1386 0.960 . S
C1374 H1387 0.962 . S
C1374 H1388 0.960 . S
C1375 C1372 1.511 . S
C1375 H1389 0.961 . S
C1375 H1390 0.961 . S
C1375 H1391 0.961 . S
C1376 C1377 1.370 . S
C1376 C1378 1.363 . S
C1376 H1392 0.931 . S
C1377 C1376 1.370 . S
C1377 C1381 1.408 . S
C1378 C1376 1.363 . S
C1378 C1379 1.370 . S
C1378 C1382 1.524 . S
C1379 C1371 1.503 . S
C1379 C1378 1.370 . S
C1379 C1380 1.403 . S
C1380 C1379 1.403 . S
C1380 C1381 1.404 . S
C1380 C1383 1.539 . S
C1381 C1377 1.408 . S
C1381 C1380 1.404 . S
C1381 H1393 0.930 . S
C1382 C1378 1.524 . S
C1382 H1394 0.956 . S
C1382 H1395 0.961 . S
C1382 H1396 0.961 . S
C1383 C1380 1.539 . S
C1383 H1397 0.958 . S
C1383 H1398 0.961 . S
C1383 H1399 0.960 . S
H1384 C1368 0.931 . S
H1385 C1373 0.929 . S
H1386 C1374 0.960 . S
H1387 C1374 0.962 . S
H1388 C1374 0.960 . S
H1389 C1375 0.961 . S
H1390 C1375 0.961 . S
H1391 C1375 0.961 . S
H1392 C1376 0.931 . S
H1393 C1381 0.930 . S
H1394 C1382 0.956 . S
H1395 C1382 0.961 . S
H1396 C1382 0.961 . S
H1397 C1383 0.958 . S
H1398 C1383 0.961 . S
H1399 C1383 0.960 . S
C1400 C1401 1.391 1_565 S
C1400 C1402 1.394 . S
C1400 H1416 0.931 . S
C1401 C1400 1.391 1_545 S
C1401 C1405 1.371 1_545 S
C1402 C1400 1.394 . S
C1402 C1403 1.369 . S
C1402 C1406 1.531 . S
C1403 C1402 1.369 . S
C1403 C1404 1.410 . S
C1403 C1411 1.503 . S
C1404 C1403 1.410 . S
C1404 C1405 1.406 . S
C1404 C1407 1.511 . S
C1405 C1401 1.371 1_565 S
C1405 C1404 1.406 . S
C1405 H1417 0.920 1_565 S
C1406 C1402 1.531 . S
C1406 H1418 0.960 . S
C1406 H1419 0.962 . S
C1406 H1420 0.960 . S
C1407 C1404 1.511 . S
C1407 H1421 0.961 . S
C1407 H1422 0.961 . S
C1407 H1423 0.961 . S
C1408 C1409 1.370 . S
C1408 C1410 1.363 . S
C1408 H1424 0.931 . S
C1409 C1408 1.370 . S
C1409 C1413 1.408 . S
C1410 C1408 1.363 . S
C1410 C1411 1.370 . S
C1410 C1414 1.524 . S
C1411 C1403 1.503 . S
C1411 C1410 1.370 . S
C1411 C1412 1.403 . S
C1412 C1411 1.403 . S
C1412 C1413 1.404 . S
C1412 C1415 1.539 . S
C1413 C1409 1.408 . S
C1413 C1412 1.404 . S
C1413 H1425 0.930 . S
C1414 C1410 1.524 . S
C1414 H1426 0.956 . S
C1414 H1427 0.961 . S
C1414 H1428 0.961 . S
C1415 C1412 1.539 . S
C1415 H1429 0.958 . S
C1415 H1430 0.961 . S
C1415 H1431 0.960 . S
H1416 C1400 0.931 . S
H1417 C1405 0.920 1_545 S
H1418 C1406 0.960 . S
H1419 C1406 0.962 . S
H1420 C1406 0.960 . S
H1421 C1407 0.961 . S
H1422 C1407 0.961 . S
H1423 C1407 0.961 . S
H1424 C1408 0.931 . S
H1425 C1413 0.930 . S
H1426 C1414 0.956 . S
H1427 C1414 0.961 . S
H1428 C1414 0.961 . S
H1429 C1415 0.958 . S
H1430 C1415 0.961 . S
H1431 C1415 0.960 . S
C1432 C1433 1.391 . S
C1432 C1434 1.394 . S
C1432 H1448 0.931 . S
C1433 C1432 1.391 . S
C1433 C1437 1.376 . S
C1434 C1432 1.394 . S
C1434 C1435 1.369 . S
C1434 C1438 1.531 . S
C1435 C1434 1.369 . S
C1435 C1436 1.410 . S
C1435 C1443 1.503 . S
C1436 C1435 1.410 . S
C1436 C1437 1.392 . S
C1436 C1439 1.511 . S
C1437 C1433 1.376 . S
C1437 C1436 1.392 . S
C1437 H1449 0.929 . S
C1438 C1434 1.531 . S
C1438 H1450 0.960 . S
C1438 H1451 0.962 . S
C1438 H1452 0.960 . S
C1439 C1436 1.511 . S
C1439 H1453 0.961 . S
C1439 H1454 0.961 . S
C1439 H1455 0.961 . S
C1440 C1441 1.370 . S
C1440 C1442 1.363 . S
C1440 H1456 0.931 . S
C1441 C1440 1.370 . S
C1441 C1445 1.408 . S
C1442 C1440 1.363 . S
C1442 C1443 1.370 . S
C1442 C1446 1.524 . S
C1443 C1435 1.503 . S
C1443 C1442 1.370 . S
C1443 C1444 1.403 . S
C1444 C1443 1.403 . S
C1444 C1445 1.404 . S
C1444 C1447 1.539 . S
C1445 C1441 1.408 . S
C1445 C1444 1.404 . S
C1445 H1457 0.930 . S
C1446 C1442 1.524 . S
C1446 H1458 0.956 . S
C1446 H1459 0.961 . S
C1446 H1460 0.961 . S
C1447 C1444 1.539 . S
C1447 H1461 0.958 . S
C1447 H1462 0.961 . S
C1447 H1463 0.960 . S
H1448 C1432 0.931 . S
H1449 C1437 0.929 . S
H1450 C1438 0.960 . S
H1451 C1438 0.962 . S
H1452 C1438 0.960 . S
H1453 C1439 0.961 . S
H1454 C1439 0.961 . S
H1455 C1439 0.961 . S
H1456 C1440 0.931 . S
H1457 C1445 0.930 . S
H1458 C1446 0.956 . S
H1459 C1446 0.961 . S
H1460 C1446 0.961 . S
H1461 C1447 0.958 . S
H1462 C1447 0.961 . S
H1463 C1447 0.960 . S
C1464 C1465 1.391 . S
C1464 C1466 1.394 . S
C1464 H1480 0.931 . S
C1465 C1464 1.391 . S
C1465 C1469 1.376 . S
C1466 C1464 1.394 . S
C1466 C1467 1.369 . S
C1466 C1470 1.531 . S
C1467 C1466 1.369 . S
C1467 C1468 1.410 . S
C1467 C1475 1.503 . S
C1468 C1467 1.410 . S
C1468 C1469 1.392 . S
C1468 C1471 1.511 . S
C1469 C1465 1.376 . S
C1469 C1468 1.392 . S
C1469 H1481 0.929 . S
C1470 C1466 1.531 . S
C1470 H1482 0.960 . S
C1470 H1483 0.962 . S
C1470 H1484 0.960 . S
C1471 C1468 1.511 . S
C1471 H1485 0.961 . S
C1471 H1486 0.961 . S
C1471 H1487 0.961 . S
C1472 C1473 1.370 . S
C1472 C1474 1.363 . S
C1472 H1488 0.931 . S
C1473 C1472 1.370 . S
C1473 C1477 1.408 . S
C1474 C1472 1.363 . S
C1474 C1475 1.370 . S
C1474 C1478 1.524 . S
C1475 C1467 1.503 . S
C1475 C1474 1.370 . S
C1475 C1476 1.403 . S
C1476 C1475 1.403 . S
C1476 C1477 1.404 . S
C1476 C1479 1.539 . S
C1477 C1473 1.408 . S
C1477 C1476 1.404 . S
C1477 H1489 0.930 . S
C1478 C1474 1.524 . S
C1478 H1490 0.956 . S
C1478 H1491 0.961 . S
C1478 H1492 0.961 . S
C1479 C1476 1.539 . S
C1479 H1493 0.958 . S
C1479 H1494 0.961 . S
C1479 H1495 0.960 . S
H1480 C1464 0.931 . S
H1481 C1469 0.929 . S
H1482 C1470 0.960 . S
H1483 C1470 0.962 . S
H1484 C1470 0.960 . S
H1485 C1471 0.961 . S
H1486 C1471 0.961 . S
H1487 C1471 0.961 . S
H1488 C1472 0.931 . S
H1489 C1477 0.930 . S
H1490 C1478 0.956 . S
H1491 C1478 0.961 . S
H1492 C1478 0.961 . S
H1493 C1479 0.958 . S
H1494 C1479 0.961 . S
H1495 C1479 0.960 . S
C1496 C1497 1.391 1_554 S
C1496 C1498 1.394 . S
C1496 H1512 0.931 . S
C1497 C1496 1.391 1_556 S
C1497 C1501 1.376 . S
C1498 C1496 1.394 . S
C1498 C1499 1.369 . S
C1498 C1502 1.531 . S
C1499 C1498 1.369 . S
C1499 C1500 1.410 . S
C1499 C1507 1.503 . S
C1500 C1499 1.410 . S
C1500 C1501 1.392 1_554 S
C1500 C1503 1.511 . S
C1501 C1497 1.376 . S
C1501 C1500 1.392 1_556 S
C1501 H1513 0.929 . S
C1502 C1498 1.531 . S
C1502 H1514 0.960 . S
C1502 H1515 0.962 . S
C1502 H1516 0.960 . S
C1503 C1500 1.511 . S
C1503 H1517 0.961 . S
C1503 H1518 0.961 . S
C1503 H1519 0.961 . S
C1504 C1505 1.370 . S
C1504 C1506 1.363 . S
C1504 H1520 0.931 . S
C1505 C1504 1.370 . S
C1505 C1509 1.408 . S
C1506 C1504 1.363 . S
C1506 C1507 1.370 . S
C1506 C1510 1.524 . S
C1507 C1499 1.503 . S
C1507 C1506 1.370 . S
C1507 C1508 1.403 . S
C1508 C1507 1.403 . S
C1508 C1509 1.404 . S
C1508 C1511 1.539 . S
C1509 C1505 1.408 . S
C1509 C1508 1.404 . S
C1509 H1521 0.930 . S
C1510 C1506 1.524 . S
C1510 H1522 0.956 . S
C1510 H1523 0.961 . S
C1510 H1524 0.961 . S
C1511 C1508 1.539 . S
C1511 H1525 0.958 . S
C1511 H1526 0.961 . S
C1511 H1527 0.960 . S
H1512 C1496 0.931 . S
H1513 C1501 0.929 . S
H1514 C1502 0.960 . S
H1515 C1502 0.962 . S
H1516 C1502 0.960 . S
H1517 C1503 0.961 . S
H1518 C1503 0.961 . S
H1519 C1503 0.961 . S
H1520 C1504 0.931 . S
H1521 C1509 0.930 . S
H1522 C1510 0.956 . S
H1523 C1510 0.961 . S
H1524 C1510 0.961 . S
H1525 C1511 0.958 . S
H1526 C1511 0.961 . S
H1527 C1511 0.960 . S
C1528 C1529 1.391 . S
C1528 C1530 1.394 . S
C1528 H1544 0.931 . S
C1529 C1528 1.391 . S
C1529 C1533 1.376 . S
C1530 C1528 1.394 . S
C1530 C1531 1.369 . S
C1530 C1534 1.531 . S
C1531 C1530 1.369 . S
C1531 C1532 1.410 . S
C1531 C1539 1.503 . S
C1532 C1531 1.410 . S
C1532 C1533 1.392 . S
C1532 C1535 1.511 . S
C1533 C1529 1.376 . S
C1533 C1532 1.392 . S
C1533 H1545 0.929 . S
C1534 C1530 1.531 . S
C1534 H1546 0.960 . S
C1534 H1547 0.962 . S
C1534 H1548 0.960 . S
C1535 C1532 1.511 . S
C1535 H1549 0.961 . S
C1535 H1550 0.961 . S
C1535 H1551 0.961 . S
C1536 C1537 1.370 . S
C1536 C1538 1.363 . S
C1536 H1552 0.931 . S
C1537 C1536 1.370 . S
C1537 C1541 1.408 . S
C1538 C1536 1.363 . S
C1538 C1539 1.370 . S
C1538 C1542 1.524 . S
C1539 C1531 1.503 . S
C1539 C1538 1.370 . S
C1539 C1540 1.403 . S
C1540 C1539 1.403 . S
C1540 C1541 1.404 . S
C1540 C1543 1.539 . S
C1541 C1537 1.408 . S
C1541 C1540 1.404 . S
C1541 H1553 0.930 . S
C1542 C1538 1.524 . S
C1542 H1554 0.956 . S
C1542 H1555 0.961 . S
C1542 H1556 0.961 . S
C1543 C1540 1.539 . S
C1543 H1557 0.958 . S
C1543 H1558 0.961 . S
C1543 H1559 0.960 . S
H1544 C1528 0.931 . S
H1545 C1533 0.929 . S
H1546 C1534 0.960 . S
H1547 C1534 0.962 . S
H1548 C1534 0.960 . S
H1549 C1535 0.961 . S
H1550 C1535 0.961 . S
H1551 C1535 0.961 . S
H1552 C1536 0.931 . S
H1553 C1541 0.930 . S
H1554 C1542 0.956 . S
H1555 C1542 0.961 . S
H1556 C1542 0.961 . S
H1557 C1543 0.958 . S
H1558 C1543 0.961 . S
H1559 C1543 0.960 . S
C1560 C1561 1.391 . S
C1560 C1562 1.394 1_554 S
C1560 H1576 0.931 . S
C1561 C1560 1.391 . S
C1561 C1565 1.376 1_554 S
C1562 C1560 1.394 1_556 S
C1562 C1563 1.369 . S
C1562 C1566 1.531 . S
C1563 C1562 1.369 . S
C1563 C1564 1.410 . S
C1563 C1571 1.503 . S
C1564 C1563 1.410 . S
C1564 C1565 1.392 . S
C1564 C1567 1.511 . S
C1565 C1561 1.376 1_556 S
C1565 C1564 1.392 . S
C1565 H1577 0.929 . S
C1566 C1562 1.531 . S
C1566 H1578 0.960 . S
C1566 H1579 0.962 . S
C1566 H1580 0.960 . S
C1567 C1564 1.511 . S
C1567 H1581 0.961 . S
C1567 H1582 0.961 . S
C1567 H1583 0.961 . S
C1568 C1569 1.370 . S
C1568 C1570 1.363 . S
C1568 H1584 0.931 . S
C1569 C1568 1.370 . S
C1569 C1573 1.408 . S
C1570 C1568 1.363 . S
C1570 C1571 1.370 . S
C1570 C1574 1.524 . S
C1571 C1563 1.503 . S
C1571 C1570 1.370 . S
C1571 C1572 1.403 . S
C1572 C1571 1.403 . S
C1572 C1573 1.404 . S
C1572 C1575 1.539 . S
C1573 C1569 1.408 . S
C1573 C1572 1.404 . S
C1573 H1585 0.930 . S
C1574 C1570 1.524 . S
C1574 H1586 0.956 . S
C1574 H1587 0.961 . S
C1574 H1588 0.961 . S
C1575 C1572 1.539 . S
C1575 H1589 0.958 . S
C1575 H1590 0.961 . S
C1575 H1591 0.960 . S
H1576 C1560 0.931 . S
H1577 C1565 0.929 . S
H1578 C1566 0.960 . S
H1579 C1566 0.962 . S
H1580 C1566 0.960 . S
H1581 C1567 0.961 . S
H1582 C1567 0.961 . S
H1583 C1567 0.961 . S
H1584 C1568 0.931 . S
H1585 C1573 0.930 . S
H1586 C1574 0.956 . S
H1587 C1574 0.961 . S
H1588 C1574 0.961 . S
H1589 C1575 0.958 . S
H1590 C1575 0.961 . S
H1591 C1575 0.960 . S
C1592 C1593 1.391 . S
C1592 C1594 1.394 . S
C1592 H1608 0.931 . S
C1593 C1592 1.391 . S
C1593 C1597 1.376 . S
C1594 C1592 1.394 . S
C1594 C1595 1.369 . S
C1594 C1598 1.531 . S
C1595 C1594 1.369 . S
C1595 C1596 1.410 . S
C1595 C1603 1.503 . S
C1596 C1595 1.410 . S
C1596 C1597 1.392 . S
C1596 C1599 1.511 . S
C1597 C1593 1.376 . S
C1597 C1596 1.392 . S
C1597 H1609 0.929 . S
C1598 C1594 1.531 . S
C1598 H1610 0.960 . S
C1598 H1611 0.962 . S
C1598 H1612 0.960 . S
C1599 C1596 1.511 . S
C1599 H1613 0.961 . S
C1599 H1614 0.961 . S
C1599 H1615 0.961 . S
C1600 C1601 1.370 . S
C1600 C1602 1.363 . S
C1600 H1616 0.931 . S
C1601 C1600 1.370 . S
C1601 C1605 1.408 . S
C1602 C1600 1.363 . S
C1602 C1603 1.370 . S
C1602 C1606 1.524 . S
C1603 C1595 1.503 . S
C1603 C1602 1.370 . S
C1603 C1604 1.403 . S
C1604 C1603 1.403 . S
C1604 C1605 1.404 . S
C1604 C1607 1.539 . S
C1605 C1601 1.408 . S
C1605 C1604 1.404 . S
C1605 H1617 0.930 . S
C1606 C1602 1.524 . S
C1606 H1618 0.956 . S
C1606 H1619 0.961 . S
C1606 H1620 0.961 . S
C1607 C1604 1.539 . S
C1607 H1621 0.958 . S
C1607 H1622 0.961 . S
C1607 H1623 0.960 . S
H1608 C1592 0.931 . S
H1609 C1597 0.929 . S
H1610 C1598 0.960 . S
H1611 C1598 0.962 . S
H1612 C1598 0.960 . S
H1613 C1599 0.961 . S
H1614 C1599 0.961 . S
H1615 C1599 0.961 . S
H1616 C1600 0.931 . S
H1617 C1605 0.930 . S
H1618 C1606 0.956 . S
H1619 C1606 0.961 . S
H1620 C1606 0.961 . S
H1621 C1607 0.958 . S
H1622 C1607 0.961 . S
H1623 C1607 0.960 . S
C1624 C1625 1.391 . S
C1624 C1626 1.394 . S
C1624 H1640 0.931 . S
C1625 C1624 1.391 . S
C1625 C1629 1.376 . S
C1626 C1624 1.394 . S
C1626 C1627 1.369 . S
C1626 C1630 1.531 . S
C1627 C1626 1.369 . S
C1627 C1628 1.410 . S
C1627 C1635 1.503 . S
C1628 C1627 1.410 . S
C1628 C1629 1.392 . S
C1628 C1631 1.511 . S
C1629 C1625 1.376 . S
C1629 C1628 1.392 . S
C1629 H1641 0.929 . S
C1630 C1626 1.531 . S
C1630 H1642 0.960 . S
C1630 H1643 0.962 . S
C1630 H1644 0.960 . S
C1631 C1628 1.511 . S
C1631 H1645 0.961 . S
C1631 H1646 0.961 . S
C1631 H1647 0.961 . S
C1632 C1633 1.370 . S
C1632 C1634 1.363 1_455 S
C1632 H1648 0.931 . S
C1633 C1632 1.370 . S
C1633 C1637 1.408 1_455 S
C1634 C1632 1.363 1_655 S
C1634 C1635 1.370 . S
C1634 C1638 1.524 . S
C1635 C1627 1.503 . S
C1635 C1634 1.370 . S
C1635 C1636 1.403 . S
C1636 C1635 1.403 . S
C1636 C1637 1.404 . S
C1636 C1639 1.539 . S
C1637 C1633 1.408 1_655 S
C1637 C1636 1.404 . S
C1637 H1649 0.930 1_655 S
C1638 C1634 1.524 . S
C1638 H1650 0.956 . S
C1638 H1651 0.961 . S
C1638 H1652 0.961 . S
C1639 C1636 1.539 . S
C1639 H1653 0.958 . S
C1639 H1654 0.961 . S
C1639 H1655 0.960 . S
H1640 C1624 0.931 . S
H1641 C1629 0.929 . S
H1642 C1630 0.960 . S
H1643 C1630 0.962 . S
H1644 C1630 0.960 . S
H1645 C1631 0.961 . S
H1646 C1631 0.961 . S
H1647 C1631 0.961 . S
H1648 C1632 0.931 . S
H1649 C1637 0.930 1_455 S
H1650 C1638 0.956 . S
H1651 C1638 0.961 . S
H1652 C1638 0.961 . S
H1653 C1639 0.958 . S
H1654 C1639 0.961 . S
H1655 C1639 0.960 . S
C1656 C1657 1.391 . S
C1656 C1658 1.394 . S
C1656 H1672 0.931 . S
C1657 C1656 1.391 . S
C1657 C1661 1.376 . S
C1658 C1656 1.394 . S
C1658 C1659 1.369 . S
C1658 C1662 1.531 . S
C1659 C1658 1.369 . S
C1659 C1660 1.410 . S
C1659 C1667 1.503 . S
C1660 C1659 1.410 . S
C1660 C1661 1.392 . S
C1660 C1663 1.511 . S
C1661 C1657 1.376 . S
C1661 C1660 1.392 . S
C1661 H1673 0.929 . S
C1662 C1658 1.531 . S
C1662 H1674 0.960 . S
C1662 H1675 0.962 . S
C1662 H1676 0.960 . S
C1663 C1660 1.511 . S
C1663 H1677 0.961 . S
C1663 H1678 0.961 . S
C1663 H1679 0.961 . S
C1664 C1665 1.370 . S
C1664 C1666 1.363 1_655 S
C1664 H1680 0.931 . S
C1665 C1664 1.370 . S
C1665 C1669 1.408 1_655 S
C1666 C1664 1.363 1_455 S
C1666 C1667 1.370 . S
C1666 C1670 1.524 . S
C1667 C1659 1.503 . S
C1667 C1666 1.370 . S
C1667 C1668 1.403 . S
C1668 C1667 1.403 . S
C1668 C1669 1.404 . S
C1668 C1671 1.539 . S
C1669 C1665 1.408 1_455 S
C1669 C1668 1.404 . S
C1669 H1681 0.916 1_455 S
C1670 C1666 1.524 . S
C1670 H1682 0.956 . S
C1670 H1683 0.961 . S
C1670 H1684 0.961 . S
C1671 C1668 1.539 . S
C1671 H1685 0.958 . S
C1671 H1686 0.961 . S
C1671 H1687 0.960 . S
H1672 C1656 0.931 . S
H1673 C1661 0.929 . S
H1674 C1662 0.960 . S
H1675 C1662 0.962 . S
H1676 C1662 0.960 . S
H1677 C1663 0.961 . S
H1678 C1663 0.961 . S
H1679 C1663 0.961 . S
H1680 C1664 0.931 . S
H1681 C1669 0.916 1_655 S
H1682 C1670 0.956 . S
H1683 C1670 0.961 . S
H1684 C1670 0.961 . S
H1685 C1671 0.958 . S
H1686 C1671 0.961 . S
H1687 C1671 0.960 . S
C1688 C1689 1.391 . S
C1688 C1690 1.394 . S
C1688 H1704 0.931 . S
C1689 C1688 1.391 . S
C1689 C1693 1.376 . S
C1690 C1688 1.394 . S
C1690 C1691 1.369 . S
C1690 C1694 1.531 . S
C1691 C1690 1.369 . S
C1691 C1692 1.410 . S
C1691 C1699 1.503 . S
C1692 C1691 1.410 . S
C1692 C1693 1.392 . S
C1692 C1695 1.511 . S
C1693 C1689 1.376 . S
C1693 C1692 1.392 . S
C1693 H1705 0.929 . S
C1694 C1690 1.531 . S
C1694 H1706 0.960 . S
C1694 H1707 0.962 . S
C1694 H1708 0.960 . S
C1695 C1692 1.511 . S
C1695 H1709 0.961 . S
C1695 H1710 0.961 . S
C1695 H1711 0.961 . S
C1696 C1697 1.370 . S
C1696 C1698 1.363 . S
C1696 H1712 0.931 . S
C1697 C1696 1.370 . S
C1697 C1701 1.408 . S
C1698 C1696 1.363 . S
C1698 C1699 1.370 . S
C1698 C1702 1.524 . S
C1699 C1691 1.503 . S
C1699 C1698 1.370 . S
C1699 C1700 1.403 . S
C1700 C1699 1.403 . S
C1700 C1701 1.404 . S
C1700 C1703 1.539 . S
C1701 C1697 1.408 . S
C1701 C1700 1.404 . S
C1701 H1713 0.930 . S
C1702 C1698 1.524 . S
C1702 H1714 0.956 . S
C1702 H1715 0.961 . S
C1702 H1716 0.961 . S
C1703 C1700 1.539 . S
C1703 H1717 0.958 . S
C1703 H1718 0.961 . S
C1703 H1719 0.960 . S
H1704 C1688 0.931 . S
H1705 C1693 0.929 . S
H1706 C1694 0.960 . S
H1707 C1694 0.962 . S
H1708 C1694 0.960 . S
H1709 C1695 0.961 . S
H1710 C1695 0.961 . S
H1711 C1695 0.961 . S
H1712 C1696 0.931 . S
H1713 C1701 0.930 . S
H1714 C1702 0.956 . S
H1715 C1702 0.961 . S
H1716 C1702 0.961 . S
H1717 C1703 0.958 . S
H1718 C1703 0.961 . S
H1719 C1703 0.960 . S
C1720 C1721 1.391 . S
C1720 C1722 1.394 . S
C1720 H1736 0.931 . S
C1721 C1720 1.391 . S
C1721 C1725 1.376 . S
C1722 C1720 1.394 . S
C1722 C1723 1.369 . S
C1722 C1726 1.531 . S
C1723 C1722 1.369 . S
C1723 C1724 1.410 . S
C1723 C1731 1.503 . S
C1724 C1723 1.410 . S
C1724 C1725 1.392 . S
C1724 C1727 1.511 . S
C1725 C1721 1.376 . S
C1725 C1724 1.392 . S
C1725 H1737 0.929 . S
C1726 C1722 1.531 . S
C1726 H1738 0.960 . S
C1726 H1739 0.962 . S
C1726 H1740 0.960 . S
C1727 C1724 1.511 . S
C1727 H1741 0.961 . S
C1727 H1742 0.961 . S
C1727 H1743 0.961 . S
C1728 C1729 1.370 . S
C1728 C1730 1.363 . S
C1728 H1744 0.931 . S
C1729 C1728 1.370 . S
C1729 C1733 1.408 . S
C1730 C1728 1.363 . S
C1730 C1731 1.370 . S
C1730 C1734 1.524 . S
C1731 C1723 1.503 . S
C1731 C1730 1.370 . S
C1731 C1732 1.403 . S
C1732 C1731 1.403 . S
C1732 C1733 1.404 . S
C1732 C1735 1.539 . S
C1733 C1729 1.408 . S
C1733 C1732 1.404 . S
C1733 H1745 0.930 . S
C1734 C1730 1.524 . S
C1734 H1746 0.956 . S
C1734 H1747 0.961 . S
C1734 H1748 0.961 . S
C1735 C1732 1.539 . S
C1735 H1749 0.958 . S
C1735 H1750 0.961 . S
C1735 H1751 0.960 . S
H1736 C1720 0.931 . S
H1737 C1725 0.929 . S
H1738 C1726 0.960 . S
H1739 C1726 0.962 . S
H1740 C1726 0.960 . S
H1741 C1727 0.961 . S
H1742 C1727 0.961 . S
H1743 C1727 0.961 . S
H1744 C1728 0.931 . S
H1745 C1733 0.930 . S
H1746 C1734 0.956 . S
H1747 C1734 0.961 . S
H1748 C1734 0.961 . S
H1749 C1735 0.958 . S
H1750 C1735 0.961 . S
H1751 C1735 0.960 . S
C1752 C1753 1.391 . S
C1752 C1754 1.394 . S
C1752 H1768 0.931 . S
C1753 C1752 1.391 . S
C1753 C1757 1.376 . S
C1754 C1752 1.394 . S
C1754 C1755 1.369 . S
C1754 C1758 1.531 . S
C1755 C1754 1.369 . S
C1755 C1756 1.410 . S
C1755 C1763 1.503 . S
C1756 C1755 1.410 . S
C1756 C1757 1.392 . S
C1756 C1759 1.511 . S
C1757 C1753 1.376 . S
C1757 C1756 1.392 . S
C1757 H1769 0.929 . S
C1758 C1754 1.531 . S
C1758 H1770 0.960 . S
C1758 H1771 0.962 . S
C1758 H1772 0.960 . S
C1759 C1756 1.511 . S
C1759 H1773 0.961 . S
C1759 H1774 0.961 . S
C1759 H1775 0.961 . S
C1760 C1761 1.386 . S
C1760 C1762 1.344 1_545 S
C1760 H1776 0.935 . S
C1761 C1760 1.386 . S
C1761 C1765 1.408 . S
C1762 C1760 1.344 1_565 S
C1762 C1763 1.370 . S
C1762 C1766 1.524 . S
C1763 C1755 1.503 . S
C1763 C1762 1.370 . S
C1763 C1764 1.403 . S
C1764 C1763 1.403 . S
C1764 C1765 1.404 1_565 S
C1764 C1767 1.539 . S
C1765 C1761 1.408 . S
C1765 C1764 1.404 1_545 S
C1765 H1777 0.930 . S
C1766 C1762 1.524 . S
C1766 H1778 0.956 . S
C1766 H1779 0.961 . S
C1766 H1780 0.961 . S
C1767 C1764 1.539 . S
C1767 H1781 0.958 . S
C1767 H1782 0.961 . S
C1767 H1783 0.960 . S
H1768 C1752 0.931 . S
H1769 C1757 0.929 . S
H1770 C1758 0.960 . S
H1771 C1758 0.962 . S
H1772 C1758 0.960 . S
H1773 C1759 0.961 . S
H1774 C1759 0.961 . S
H1775 C1759 0.961 . S
H1776 C1760 0.935 . S
H1777 C1765 0.930 . S
H1778 C1766 0.956 . S
H1779 C1766 0.961 . S
H1780 C1766 0.961 . S
H1781 C1767 0.958 . S
H1782 C1767 0.961 . S
H1783 C1767 0.960 . S
C1784 C1785 1.391 . S
C1784 C1786 1.394 1_565 S
C1784 H1800 0.931 . S
C1785 C1784 1.391 . S
C1785 C1789 1.376 . S
C1786 C1784 1.394 1_545 S
C1786 C1787 1.369 . S
C1786 C1790 1.531 . S
C1787 C1786 1.369 . S
C1787 C1788 1.410 . S
C1787 C1795 1.503 . S
C1788 C1787 1.410 . S
C1788 C1789 1.392 1_545 S
C1788 C1791 1.511 . S
C1789 C1785 1.376 . S
C1789 C1788 1.392 1_565 S
C1789 H1801 0.929 . S
C1790 C1786 1.531 . S
C1790 H1802 0.960 . S
C1790 H1803 0.962 . S
C1790 H1804 0.960 . S
C1791 C1788 1.511 . S
C1791 H1805 0.961 . S
C1791 H1806 0.961 . S
C1791 H1807 0.961 . S
C1792 C1793 1.370 . S
C1792 C1794 1.363 . S
C1792 H1808 0.931 . S
C1793 C1792 1.370 . S
C1793 C1797 1.408 . S
C1794 C1792 1.363 . S
C1794 C1795 1.370 . S
C1794 C1798 1.524 . S
C1795 C1787 1.503 . S
C1795 C1794 1.370 . S
C1795 C1796 1.403 . S
C1796 C1795 1.403 . S
C1796 C1797 1.404 . S
C1796 C1799 1.539 . S
C1797 C1793 1.408 . S
C1797 C1796 1.404 . S
C1797 H1809 0.930 . S
C1798 C1794 1.524 . S
C1798 H1810 0.956 . S
C1798 H1811 0.961 . S
C1798 H1812 0.961 . S
C1799 C1796 1.539 . S
C1799 H1813 0.958 . S
C1799 H1814 0.961 . S
C1799 H1815 0.960 . S
H1800 C1784 0.931 . S
H1801 C1789 0.929 . S
H1802 C1790 0.960 . S
H1803 C1790 0.962 . S
H1804 C1790 0.960 . S
H1805 C1791 0.961 . S
H1806 C1791 0.961 . S
H1807 C1791 0.961 . S
H1808 C1792 0.931 . S
H1809 C1797 0.930 . S
H1810 C1798 0.956 . S
H1811 C1798 0.961 . S
H1812 C1798 0.961 . S
H1813 C1799 0.958 . S
H1814 C1799 0.961 . S
H1815 C1799 0.960 . S
C1816 C1817 1.391 . S
C1816 C1818 1.394 . S
C1816 H1832 0.931 . S
C1817 C1816 1.391 . S
C1817 C1821 1.376 . S
C1818 C1816 1.394 . S
C1818 C1819 1.369 . S
C1818 C1822 1.531 . S
C1819 C1818 1.369 . S
C1819 C1820 1.410 . S
C1819 C1827 1.503 . S
C1820 C1819 1.410 . S
C1820 C1821 1.392 . S
C1820 C1823 1.511 . S
C1821 C1817 1.376 . S
C1821 C1820 1.392 . S
C1821 H1833 0.929 . S
C1822 C1818 1.531 . S
C1822 H1834 0.960 . S
C1822 H1835 0.962 . S
C1822 H1836 0.960 . S
C1823 C1820 1.511 . S
C1823 H1837 0.961 . S
C1823 H1838 0.961 . S
C1823 H1839 0.961 . S
C1824 C1825 1.370 . S
C1824 C1826 1.363 . S
C1824 H1840 0.931 . S
C1825 C1824 1.370 . S
C1825 C1829 1.408 . S
C1826 C1824 1.363 . S
C1826 C1827 1.370 . S
C1826 C1830 1.524 . S
C1827 C1819 1.503 . S
C1827 C1826 1.370 . S
C1827 C1828 1.403 . S
C1828 C1827 1.403 . S
C1828 C1829 1.404 . S
C1828 C1831 1.539 . S
C1829 C1825 1.408 . S
C1829 C1828 1.404 . S
C1829 H1841 0.930 . S
C1830 C1826 1.524 . S
C1830 H1842 0.956 . S
C1830 H1843 0.961 . S
C1830 H1844 0.961 . S
C1831 C1828 1.539 . S
C1831 H1845 0.958 . S
C1831 H1846 0.961 . S
C1831 H1847 0.960 . S
H1832 C1816 0.931 . S
H1833 C1821 0.929 . S
H1834 C1822 0.960 . S
H1835 C1822 0.962 . S
H1836 C1822 0.960 . S
H1837 C1823 0.961 . S
H1838 C1823 0.961 . S
H1839 C1823 0.961 . S
H1840 C1824 0.931 . S
H1841 C1829 0.930 . S
H1842 C1830 0.956 . S
H1843 C1830 0.961 . S
H1844 C1830 0.961 . S
H1845 C1831 0.958 . S
H1846 C1831 0.961 . S
H1847 C1831 0.960 . S
C313 C109 0.959 . S
C321 C10 0.972 . S
C345 C23 0.937 . S
C353 C148 0.940 . S
C377 C36 0.915 . S
C385 C122 0.916 . S
C409 C49 0.951 . S
C417 C135 0.946 . S
C441 C57 0.958 . S
C449 C5 0.896 . S
C473 C18 0.875 . S
C481 C70 0.847 . S
C505 C83 0.897 . S
C513 C31 0.923 . S
C537 C44 0.960 . S
C545 C96 0.872 . S
C569 C62 0.943 . S
C577 C114 0.930 . S
C601 C88 0.931 . S
C609 C127 0.914 . S
C633 C140 0.952 . S
C641 C101 0.931 . S
C665 C75 0.916 . S
C673 C153 0.919 . S
C697 C265 0.910 . S
C705 C166 0.937 . S
C729 C179 0.959 . S
C737 C304 0.914 . S
C761 C192 0.956 . S
C769 C278 0.906 . S
C793 C291 0.835 . S
C801 C205 0.920 . S
C825 C218 0.937 . S
C833 C161 0.915 . S
C857 C174 0.816 . S
C865 C231 0.907 . S
C889 C187 0.938 . S
C897 C244 0.934 . S
C921 C257 0.885 . S
C929 C200 0.877 . S
C953 C270 0.961 . S
C961 C213 0.950 . S
C985 C239 1.013 . S
C993 C283 1.005 . S
C1017 C252 0.887 . S
C1025 C296 0.977 . S
C1049 C309 0.991 . S
C1057 C226 0.936 . S
C1081 C286 1.343 . S
C1089 C8 1.321 . S
C1113 C273 1.311 . S
C1121 C21 1.294 . S
C1145 C299 1.348 . S
C1153 C34 1.290 . S
C1177 C47 1.261 . S
C1185 C260 1.340 . S
C1209 C52 1.315 . S
C1217 C169 1.314 . S
C1241 C156 1.280 . S
C1249 C65 1.271 . S
C1273 C195 1.295 . S
C1281 C78 1.296 . S
C1305 C182 1.302 . S
C1313 C91 1.298 . S
C1337 C112 1.260 . S
C1345 C234 1.296 . S
C1369 C208 1.267 . S
C1377 C125 1.277 . S
C1401 C221 1.278 . S
C1409 C138 1.250 . S
C1433 C247 1.276 . S
C1441 C151 1.249 . S
C1465 C130 1.232 . S
C1473 C164 1.244 . S
C1497 C117 1.232 . S
C1505 C177 1.244 . S
C1529 C190 1.237 . S
C1537 C143 1.236 . S
C1561 C104 1.258 . S
C1569 C203 1.215 . S
C1593 C216 1.287 . S
C1601 C13 1.270 . S
C1625 C229 1.228 . S
C1633 C0 1.281 . S
C1657 C242 1.240 . S
C1665 C39 1.272 . S
C1689 C255 1.236 . S
C1697 C26 1.290 . S
C1721 C268 1.222 . S
C1729 C86 1.296 . S
C1753 C281 1.303 . S
C1761 C60 1.290 . S
C1785 C73 1.262 . S
C1793 C294 1.264 . S
C1817 C307 1.300 . S
C1825 C99 1.287 . S
