# Generated by pormake.
# Topology zfy, (5)-cn, num edge types: 1
# Building blocks:
#     Node 0, Type 0, BuildingBlock: XOMCOT_clean_sbu_0, # of connection points: 5
#     Node 1, Type 0, BuildingBlock: XOMCOT_clean_sbu_0, # of connection points: 5
#     Node 2, Type 0, BuildingBlock: XOMCOT_clean_sbu_0, # of connection points: 5
#     Node 3, Type 0, BuildingBlock: XOMCOT_clean_sbu_0, # of connection points: 5
#     Node 4, Type 0, BuildingBlock: XOMCOT_clean_sbu_0, # of connection points: 5
#     Node 5, Type 0, BuildingBlock: XOMCOT_clean_sbu_0, # of connection points: 5
#     Node 6, Type 0, BuildingBlock: XOMCOT_clean_sbu_0, # of connection points: 5
#     Node 7, Type 0, BuildingBlock: XOMCOT_clean_sbu_0, # of connection points: 5
#     Node 8, Type 0, BuildingBlock: XOMCOT_clean_sbu_0, # of connection points: 5
#     Node 9, Type 0, BuildingBlock: XOMCOT_clean_sbu_0, # of connection points: 5
#     Node 10, Type 0, BuildingBlock: XOMCOT_clean_sbu_0, # of connection points: 5
#     Node 11, Type 0, BuildingBlock: XOMCOT_clean_sbu_0, # of connection points: 5
#     Node 12, Type 0, BuildingBlock: XOMCOT_clean_sbu_0, # of connection points: 5
#     Node 13, Type 0, BuildingBlock: XOMCOT_clean_sbu_0, # of connection points: 5
#     Node 14, Type 0, BuildingBlock: XOMCOT_clean_sbu_0, # of connection points: 5
#     Node 15, Type 0, BuildingBlock: XOMCOT_clean_sbu_0, # of connection points: 5
#     Edge 16, Type (0, 0), None
#     Edge 17, Type (0, 0), None
#     Edge 18, Type (0, 0), None
#     Edge 19, Type (0, 0), None
#     Edge 20, Type (0, 0), None
#     Edge 21, Type (0, 0), None
#     Edge 22, Type (0, 0), None
#     Edge 23, Type (0, 0), None
#     Edge 24, Type (0, 0), None
#     Edge 25, Type (0, 0), None
#     Edge 26, Type (0, 0), None
#     Edge 27, Type (0, 0), None
#     Edge 28, Type (0, 0), None
#     Edge 29, Type (0, 0), None
#     Edge 30, Type (0, 0), None
#     Edge 31, Type (0, 0), None
#     Edge 32, Type (0, 0), None
#     Edge 33, Type (0, 0), None
#     Edge 34, Type (0, 0), None
#     Edge 35, Type (0, 0), None
#     Edge 36, Type (0, 0), None
#     Edge 37, Type (0, 0), None
#     Edge 38, Type (0, 0), None
#     Edge 39, Type (0, 0), None
#     Edge 40, Type (0, 0), None
#     Edge 41, Type (0, 0), None
#     Edge 42, Type (0, 0), None
#     Edge 43, Type (0, 0), None
#     Edge 44, Type (0, 0), None
#     Edge 45, Type (0, 0), None
#     Edge 46, Type (0, 0), None
#     Edge 47, Type (0, 0), None
#     Edge 48, Type (0, 0), None
#     Edge 49, Type (0, 0), None
#     Edge 50, Type (0, 0), None
#     Edge 51, Type (0, 0), None
#     Edge 52, Type (0, 0), None
#     Edge 53, Type (0, 0), None
#     Edge 54, Type (0, 0), None
#     Edge 55, Type (0, 0), None
# Relax obj value: 0.182
# Max RMSD: 0.246
# Mean RMSD: 0.239
data_MOF--net-zfy--node1-XOMCOT_clean_sbu_0--edge1-none
_symmetry_space_group_name_H-M    P1
_symmetry_Int_Tables_number       1
_symmetry_cell_setting            triclinic
loop_
_symmetry_equiv_pos_as_xyz
'x, y, z'
_cell_length_a     26.207349
_cell_length_b     26.208272
_cell_length_c     15.825889
_cell_angle_alpha  90.001196
_cell_angle_beta   90.000859
_cell_angle_gamma 90.015399
loop_
_atom_site_label
_atom_site_type_symbol
_atom_site_fract_x
_atom_site_fract_y
_atom_site_fract_z
_atom_type_partial_charge
Co0 Co 0.35897 0.22616 0.01901 0.0
C1 C 0.28336 0.2675 0.14753 0.0
C2 C 0.3623 0.27364 0.18204 0.0
C3 C 0.33391 0.29364 0.24647 0.0
N4 N 0.33105 0.25758 0.11955 0.0
N5 N 0.2846 0.28966 0.22445 0.0
H6 H 0.24861 0.25809 0.11489 0.0
H7 H 0.40339 0.26988 0.18164 0.0
C8 C 0.36326 0.14405 0.14947 0.0
O9 O 0.31523 0.15359 0.16717 0.0
N10 N 0.39316 0.19504 0.92423 0.0
C11 C 0.38723 0.20123 0.84019 0.0
C12 C 0.43092 0.18323 0.80011 0.0
C13 C 0.4397 0.1741 0.93392 0.0
N14 N 0.46378 0.1668 0.86003 0.0
C15 C 0.25495 0.21553 0.96932 0.0
C16 C 0.25246 0.11044 0.95902 0.0
C17 C 0.20899 0.13841 0.93594 0.0
C18 C 0.21076 0.19156 0.94096 0.0
C19 C 0.29655 0.13618 0.98547 0.0
N20 N 0.29676 0.18812 0.99388 0.0
H21 H 0.25551 0.25668 0.97035 0.0
H22 H 0.33085 0.11436 0.99659 0.0
H23 H 0.35545 0.22063 0.81071 0.0
H24 H 0.45775 0.1686 0.99473 0.0
O25 O 0.34168 0.28562 0.95454 0.0
O26 O 0.41502 0.27543 0.02253 0.0
O27 O 0.38667 0.17001 0.09309 0.0
C28 C 0.38545 0.30408 0.97612 0.0
H29 H 0.34834 0.30824 0.30577 0.0
H30 H 0.43893 0.18484 0.73303 0.0
H31 H 0.25328 0.0693 0.95269 0.0
H32 H 0.17844 0.21464 0.92189 0.0
Co33 Co 0.58159 0.60881 0.26881 0.0
C34 C 0.54025 0.53321 0.39739 0.0
C35 C 0.53402 0.61216 0.43175 0.0
C36 C 0.51404 0.58378 0.49621 0.0
N37 N 0.55013 0.58089 0.36932 0.0
N38 N 0.51807 0.53446 0.47428 0.0
H39 H 0.54973 0.49845 0.36482 0.0
H40 H 0.53775 0.65324 0.4313 0.0
C41 C 0.66365 0.6131 0.39935 0.0
O42 O 0.6541 0.56507 0.417 0.0
N43 N 0.61275 0.643 0.17405 0.0
C44 C 0.60653 0.63711 0.09001 0.0
C45 C 0.62452 0.68082 0.04995 0.0
C46 C 0.63369 0.68956 0.18376 0.0
N47 N 0.64096 0.71367 0.10989 0.0
C48 C 0.59222 0.50478 0.21919 0.0
C49 C 0.69732 0.50235 0.20895 0.0
C50 C 0.66936 0.45886 0.18591 0.0
C51 C 0.61621 0.46059 0.19089 0.0
C52 C 0.67157 0.54643 0.23534 0.0
N53 N 0.61963 0.54661 0.24372 0.0
H54 H 0.55107 0.50532 0.22021 0.0
H55 H 0.69338 0.58075 0.24645 0.0
H56 H 0.58711 0.60533 0.06051 0.0
H57 H 0.6392 0.70759 0.24458 0.0
O58 O 0.52214 0.59149 0.20428 0.0
O59 O 0.53233 0.66485 0.27226 0.0
O60 O 0.63771 0.63652 0.34295 0.0
C61 C 0.50368 0.63526 0.22584 0.0
H62 H 0.49941 0.59822 0.55548 0.0
H63 H 0.62288 0.68886 0.98289 0.0
H64 H 0.73847 0.5032 0.20265 0.0
H65 H 0.59314 0.42826 0.17183 0.0
Co66 Co 0.19882 0.83159 0.51899 0.0
C67 C 0.27442 0.79023 0.64752 0.0
C68 C 0.19548 0.78413 0.68204 0.0
C69 C 0.22387 0.76414 0.74647 0.0
N70 N 0.22674 0.80017 0.61954 0.0
N71 N 0.27318 0.76809 0.72444 0.0
H72 H 0.30918 0.79962 0.61486 0.0
H73 H 0.1544 0.78791 0.68165 0.0
C74 C 0.19453 0.9137 0.64945 0.0
O75 O 0.24256 0.90416 0.66714 0.0
N76 N 0.16463 0.86269 0.42421 0.0
C77 C 0.17055 0.85649 0.34017 0.0
C78 C 0.12686 0.87449 0.30008 0.0
C79 C 0.11808 0.88363 0.43389 0.0
N80 N 0.094 0.89092 0.36 0.0
C81 C 0.30283 0.84221 0.4693 0.0
C82 C 0.30533 0.9473 0.459 0.0
C83 C 0.3488 0.91932 0.43593 0.0
C84 C 0.34703 0.86618 0.44095 0.0
C85 C 0.26124 0.92156 0.48545 0.0
N86 N 0.26103 0.86963 0.49386 0.0
H87 H 0.30227 0.80106 0.47034 0.0
H88 H 0.22694 0.94338 0.49657 0.0
H89 H 0.20234 0.8371 0.31069 0.0
H90 H 0.10003 0.88913 0.4947 0.0
O91 O 0.21611 0.77211 0.45453 0.0
O92 O 0.14276 0.78231 0.52252 0.0
O93 O 0.17111 0.88773 0.59307 0.0
C94 C 0.17234 0.75366 0.47611 0.0
H95 H 0.20944 0.74955 0.80578 0.0
H96 H 0.11885 0.87287 0.23301 0.0
H97 H 0.30451 0.98844 0.45267 0.0
H98 H 0.37935 0.8431 0.42188 0.0
Co99 Co 0.97617 0.44891 0.76882 0.0
C100 C 1.01752 0.52451 0.89739 0.0
C101 C 1.02374 0.44556 0.93176 0.0
C102 C 0.04373 0.47394 0.99623 0.0
N103 N 1.00764 0.47683 0.86934 0.0
N104 N 0.0397 0.52326 0.97429 0.0
H105 H 1.00806 0.55927 0.86482 0.0
H106 H 1.02001 0.40447 0.93132 0.0
C107 C 0.89412 0.44461 0.89936 0.0
O108 O 0.90366 0.49265 0.91701 0.0
N109 N 0.94502 0.41471 0.67406 0.0
C110 C 0.95124 0.4206 0.59002 0.0
C111 C 0.93325 0.37689 0.54996 0.0
C112 C 0.92407 0.36815 0.68377 0.0
N113 N 0.91681 0.34404 0.6099 0.0
C114 C 0.96554 0.55293 0.7192 0.0
C115 C 0.86045 0.55536 0.70895 0.0
C116 C 0.88841 0.59885 0.6859 0.0
C117 C 0.94156 0.59712 0.69089 0.0
C118 C 0.8862 0.51128 0.73535 0.0
N119 N 0.93813 0.5111 0.74373 0.0
H120 H 1.0067 0.55239 0.72022 0.0
H121 H 0.86438 0.47697 0.74646 0.0
H122 H 0.97066 0.45237 0.56052 0.0
H123 H 0.91856 0.35012 0.74459 0.0
O124 O 0.03563 0.46622 0.7043 0.0
O125 O 1.02544 0.39287 0.77227 0.0
O126 O 0.92005 0.42119 0.84296 0.0
C127 C 0.05408 0.42246 0.72585 0.0
H128 H 0.05835 0.4595 0.0555 0.0
H129 H 0.93489 0.36884 0.4829 0.0
H130 H 0.8193 0.55452 0.70264 0.0
H131 H 0.96463 0.62945 0.67183 0.0
Co132 Co 0.67937 0.85627 0.99549 0.0
C133 C 0.74465 0.82813 0.84926 0.0
C134 C 0.66722 0.80271 0.83592 0.0
C135 C 0.69417 0.78637 0.76638 0.0
N136 N 0.69888 0.82879 0.88758 0.0
N137 N 0.74258 0.80244 0.77568 0.0
H138 H 0.7789 0.84488 0.87469 0.0
H139 H 0.62748 0.79493 0.84916 0.0
C140 C 0.65695 0.7629 0.10183 0.0
O141 O 0.66977 0.78869 0.16986 0.0
N142 N 0.65702 0.88331 0.10248 0.0
C143 C 0.67681 0.92389 0.14287 0.0
C144 C 0.64204 0.94024 0.20201 0.0
C145 C 0.61085 0.87532 0.13815 0.0
N146 N 0.60137 0.90865 0.201 0.0
C147 C 0.78079 0.89343 0.0191 0.0
C148 C 0.81818 0.82257 0.13203 0.0
C149 C 0.84537 0.86811 0.11946 0.0
C150 C 0.82723 0.90205 0.05872 0.0
C151 C 0.77132 0.81478 0.08897 0.0
N152 N 0.75093 0.85204 0.03793 0.0
H153 H 0.76885 0.92182 0.97438 0.0
H154 H 0.7521 0.77916 0.0986 0.0
H155 H 0.71135 0.94357 0.12471 0.0
H156 H 0.58254 0.84965 0.11196 0.0
O157 O 0.6838 0.92451 0.95158 0.0
O158 O 0.61379 0.87886 0.94396 0.0
O159 O 0.66039 0.78375 0.02906 0.0
C160 C 0.63726 0.92144 0.92616 0.0
H161 H 0.67989 0.76304 0.71518 0.0
H162 H 0.6446 0.97517 0.23841 0.0
H163 H 0.83144 0.79464 0.17742 0.0
H164 H 0.84764 0.93709 0.04498 0.0
Co165 Co 0.45158 0.42944 0.74554 0.0
C166 C 0.47977 0.49469 0.59931 0.0
C167 C 0.50525 0.41729 0.58607 0.0
C168 C 0.52158 0.44423 0.51651 0.0
N169 N 0.47913 0.44895 0.63767 0.0
N170 N 0.50551 0.49263 0.52577 0.0
H171 H 0.46295 0.52892 0.62463 0.0
H172 H 0.51302 0.37756 0.59933 0.0
C173 C 0.5449 0.40694 0.85198 0.0
O174 O 0.5191 0.41972 0.92001 0.0
N175 N 0.42448 0.40709 0.85249 0.0
C176 C 0.38382 0.42684 0.89273 0.0
C177 C 0.36734 0.39204 0.95173 0.0
C178 C 0.43242 0.36091 0.88814 0.0
N179 N 0.39892 0.35137 0.9507 0.0
C180 C 0.41449 0.53087 0.76899 0.0
C181 C 0.48517 0.56821 0.88229 0.0
C182 C 0.43969 0.59541 0.8695 0.0
C183 C 0.40584 0.5773 0.80859 0.0
C184 C 0.493 0.52135 0.83925 0.0
N185 N 0.45582 0.50099 0.78799 0.0
H186 H 0.38617 0.51895 0.72412 0.0
H187 H 0.52858 0.5021 0.84908 0.0
H188 H 0.36418 0.46138 0.87451 0.0
H189 H 0.45814 0.33263 0.86206 0.0
O190 O 0.38336 0.43388 0.70154 0.0
O191 O 0.42896 0.36386 0.69397 0.0
O192 O 0.52408 0.41045 0.77919 0.0
C193 C 0.3864 0.38734 0.67612 0.0
H194 H 0.54489 0.42995 0.46529 0.0
H195 H 0.33238 0.39456 0.98801 0.0
H196 H 0.51303 0.58144 0.92784 0.0
H197 H 0.37083 0.59772 0.7947 0.0
Co198 Co 0.8784 0.20143 0.49551 0.0
C199 C 0.81312 0.22958 0.34929 0.0
C200 C 0.89055 0.25497 0.33593 0.0
C201 C 0.8636 0.27131 0.26639 0.0
N202 N 0.85889 0.22891 0.3876 0.0
N203 N 0.81519 0.25526 0.2757 0.0
H204 H 0.77887 0.21284 0.37473 0.0
H205 H 0.93029 0.26274 0.34916 0.0
C206 C 0.90082 0.29481 0.60184 0.0
O207 O 0.888 0.26903 0.66988 0.0
N208 N 0.90075 0.17441 0.60251 0.0
C209 C 0.88096 0.13383 0.64292 0.0
C210 C 0.91573 0.11749 0.70207 0.0
C211 C 0.94692 0.18239 0.63818 0.0
N212 N 0.9564 0.14907 0.70105 0.0
C213 C 0.77698 0.16428 0.51912 0.0
C214 C 0.73958 0.23513 0.63205 0.0
C215 C 0.7124 0.1896 0.61947 0.0
C216 C 0.73053 0.15566 0.55873 0.0
C217 C 0.78645 0.24292 0.58899 0.0
N218 N 0.80684 0.20566 0.53795 0.0
H219 H 0.78892 0.13589 0.47439 0.0
H220 H 0.80567 0.27854 0.59863 0.0
H221 H 0.84642 0.11415 0.62477 0.0
H222 H 0.97523 0.20806 0.61198 0.0
O223 O 0.87397 0.13318 0.45161 0.0
O224 O 0.94398 0.17884 0.44399 0.0
O225 O 0.89737 0.27396 0.52907 0.0
C226 C 0.92051 0.13625 0.42619 0.0
H227 H 0.87789 0.29463 0.21518 0.0
H228 H 0.91317 0.08257 0.73849 0.0
H229 H 0.72633 0.26307 0.67744 0.0
H230 H 0.71013 0.12061 0.54498 0.0
Co231 Co 0.10621 0.62829 0.24554 0.0
C232 C 0.07801 0.56303 0.09931 0.0
C233 C 0.05255 0.64043 0.08607 0.0
C234 C 0.03621 0.61348 0.01651 0.0
N235 N 0.07866 0.60877 0.13768 0.0
N236 N 0.05228 0.56509 0.02578 0.0
H237 H 0.09482 0.5288 0.12465 0.0
H238 H 0.04478 0.68016 0.09932 0.0
C239 C 1.01289 0.65077 0.35198 0.0
O240 O 0.03869 0.63799 0.42001 0.0
N241 N 0.13331 0.65064 0.35249 0.0
C242 C 0.17397 0.63089 0.39272 0.0
C243 C 0.19045 0.6657 0.45172 0.0
C244 C 0.12537 0.69682 0.38815 0.0
N245 N 0.15887 0.70636 0.4507 0.0
C246 C 0.1433 0.52686 0.269 0.0
C247 C 0.07261 0.48952 0.38228 0.0
C248 C 0.1181 0.46231 0.3695 0.0
C249 C 0.15195 0.48042 0.30861 0.0
C250 C 0.06478 0.53638 0.33924 0.0
N251 N 0.10197 0.55673 0.28799 0.0
H252 H 0.17163 0.53878 0.22415 0.0
H253 H 0.0292 0.55562 0.34905 0.0
H254 H 0.19362 0.59635 0.37451 0.0
H255 H 0.09964 0.7251 0.36207 0.0
O256 O 0.17443 0.62384 0.20154 0.0
O257 O 0.12883 0.69386 0.19397 0.0
O258 O 0.03371 0.64727 0.27919 0.0
C259 C 0.17138 0.67038 0.17612 0.0
H260 H 1.0129 0.62777 0.96528 0.0
H261 H 0.22542 0.66318 0.488 0.0
H262 H 0.04474 0.47628 0.42781 0.0
H263 H 0.18696 0.46001 0.29472 0.0
Co264 Co 0.85883 0.72617 0.51898 0.0
C265 C 0.78321 0.76757 0.64744 0.0
C266 C 0.86214 0.77361 0.68204 0.0
C267 C 0.83375 0.79362 0.74645 0.0
N268 N 0.83089 0.75759 0.61951 0.0
N269 N 0.78444 0.78968 0.72439 0.0
H270 H 0.74845 0.75824 0.61473 0.0
H271 H 0.90322 0.76982 0.68166 0.0
C272 C 0.8631 0.64408 0.64946 0.0
O273 O 0.81506 0.65359 0.66712 0.0
N274 N 0.89305 0.69505 0.42423 0.0
C275 C 0.88711 0.70118 0.34018 0.0
C276 C 0.9308 0.68317 0.30011 0.0
C277 C 0.93961 0.67414 0.43394 0.0
N278 N 0.96369 0.66683 0.36007 0.0
C279 C 0.75482 0.71554 0.46922 0.0
C280 C 0.75234 0.61045 0.45895 0.0
C281 C 0.70887 0.63842 0.43584 0.0
C282 C 0.71063 0.69157 0.44085 0.0
C283 C 0.79642 0.63619 0.48542 0.0
N284 N 0.79663 0.68813 0.49381 0.0
H285 H 0.75538 0.7567 0.47024 0.0
H286 H 0.83072 0.61438 0.49657 0.0
H287 H 0.8553 0.72052 0.31067 0.0
H288 H 0.95765 0.66868 0.49477 0.0
O289 O 0.84156 0.78563 0.45448 0.0
O290 O 0.91489 0.77544 0.52253 0.0
O291 O 0.88652 0.67004 0.59308 0.0
C292 C 0.88533 0.80408 0.47609 0.0
H293 H 0.84817 0.80821 0.80576 0.0
H294 H 0.9388 0.68472 0.23303 0.0
H295 H 0.75316 0.56931 0.45264 0.0
H296 H 0.67832 0.71464 0.42174 0.0
Co297 Co 0.08162 0.10894 0.76902 0.0
C298 C 0.0402 0.03329 0.89745 0.0
C299 C 0.03424 0.11222 0.93212 0.0
C300 C 1.01424 0.08382 0.99653 0.0
N301 N 0.0502 0.08098 0.86954 0.0
N302 N 1.0181 0.03451 0.9744 0.0
H303 H 0.04951 0.99855 0.86471 0.0
H304 H 0.03809 0.15329 0.93179 0.0
C305 C 0.16375 0.11311 0.89946 0.0
O306 O 0.15419 0.06508 0.9171 0.0
N307 N 0.11273 0.14316 0.67427 0.0
C308 C 0.10654 0.13724 0.59023 0.0
C309 C 0.12456 0.18093 0.55016 0.0
C310 C 0.1337 0.1897 0.68397 0.0
N311 N 0.14101 0.21379 0.61009 0.0
C312 C 0.09213 1.00494 0.71913 0.0
C313 C 0.19723 1.00241 0.70895 0.0
C314 C 0.16923 0.95895 0.68585 0.0
C315 C 0.11608 0.96074 0.69079 0.0
C316 C 0.17152 0.0465 0.73538 0.0
N317 N 0.11958 0.04673 0.74375 0.0
H318 H 0.05098 1.00552 0.72013 0.0
H319 H 0.19337 0.08079 0.74653 0.0
H320 H 0.08712 0.10546 0.56074 0.0
H321 H 0.13922 0.20773 0.74479 0.0
O322 O 1.02208 0.09176 0.70456 0.0
O323 O 0.03243 0.16503 0.77273 0.0
O324 O 0.13781 0.13656 0.8431 0.0
C325 C 1.00371 0.13554 0.72628 0.0
H326 H 0.99971 0.09822 0.05588 0.0
H327 H 0.12295 0.18895 0.48309 0.0
H328 H 0.23838 1.00321 0.70268 0.0
H329 H 0.09298 0.92843 0.67168 0.0
Co330 Co 0.69895 0.33154 0.01899 0.0
C331 C 0.77457 0.29014 0.14746 0.0
C332 C 0.69563 0.28411 0.18206 0.0
C333 C 0.72402 0.2641 0.24648 0.0
N334 N 0.72689 0.30012 0.11952 0.0
N335 N 0.77333 0.26803 0.22441 0.0
H336 H 0.80932 0.29945 0.11475 0.0
H337 H 0.65455 0.28791 0.18168 0.0
C338 C 0.69468 0.41363 0.14947 0.0
O339 O 0.74271 0.40412 0.16714 0.0
N340 N 0.66474 0.36265 0.92424 0.0
C341 C 0.67067 0.35653 0.84019 0.0
C342 C 0.62698 0.37454 0.80012 0.0
C343 C 0.61818 0.38356 0.93395 0.0
N344 N 0.59409 0.39089 0.86007 0.0
C345 C 0.80296 0.34217 0.96925 0.0
C346 C 0.80543 0.44726 0.95897 0.0
C347 C 0.8489 0.4193 0.93586 0.0
C348 C 0.84714 0.36615 0.94087 0.0
C349 C 0.76135 0.42152 0.98544 0.0
N350 N 0.76115 0.36958 0.99384 0.0
H351 H 0.8024 0.30102 0.97026 0.0
H352 H 0.72705 0.44333 0.99659 0.0
H353 H 0.70248 0.33719 0.81068 0.0
H354 H 0.60013 0.38903 0.99477 0.0
O355 O 0.71622 0.27207 0.9545 0.0
O356 O 0.6429 0.28226 0.02253 0.0
O357 O 0.67126 0.38767 0.09309 0.0
C358 C 0.67245 0.25362 0.9761 0.0
H359 H 0.7096 0.24951 0.30578 0.0
H360 H 0.61899 0.37299 0.73304 0.0
H361 H 0.80461 0.48841 0.95265 0.0
H362 H 0.87946 0.34308 0.92177 0.0
Co363 Co 0.47616 0.94879 0.26899 0.0
C364 C 0.51757 1.02444 0.39744 0.0
C365 C 0.52357 0.94551 0.43206 0.0
C366 C 0.54358 0.97391 0.49647 0.0
N367 N 0.50759 0.97675 0.36951 0.0
N368 N 0.53969 1.02321 0.47438 0.0
H369 H 0.50823 0.05918 0.36473 0.0
H370 H 0.51974 0.90443 0.43172 0.0
C371 C 0.39403 0.94462 0.39945 0.0
O372 O 0.40359 0.99266 0.41709 0.0
N373 N 0.44503 0.91458 0.17424 0.0
C374 C 0.45123 0.92049 0.0902 0.0
C375 C 0.43321 0.8768 0.05013 0.0
C376 C 0.42406 0.86804 0.18395 0.0
N377 N 0.41676 0.84395 0.11007 0.0
C378 C 0.46565 0.0528 0.21913 0.0
C379 C 0.36055 0.05534 0.20896 0.0
C380 C 0.38855 0.0988 0.18587 0.0
C381 C 0.44171 0.097 0.1908 0.0
C382 C 0.38626 1.01124 0.23537 0.0
N383 N 0.4382 1.01101 0.24374 0.0
H384 H 0.5068 0.05221 0.22013 0.0
H385 H 0.36441 0.97696 0.24653 0.0
H386 H 0.47064 0.95227 0.06071 0.0
H387 H 0.41854 0.85001 0.24477 0.0
O388 O 0.53569 0.96597 0.20452 0.0
O389 O 0.52534 0.8927 0.27268 0.0
O390 O 0.41997 0.92118 0.34308 0.0
C391 C 0.55406 0.92219 0.22623 0.0
H392 H 0.55812 0.9595 0.55582 0.0
H393 H 0.43482 0.86878 0.98306 0.0
H394 H 0.3194 0.05454 0.20269 0.0
H395 H 0.4648 0.12931 0.17169 0.0
Co396 Co 0.17951 0.35629 0.49548 0.0
C397 C 0.24479 0.32804 0.34936 0.0
C398 C 0.16738 0.30259 0.33603 0.0
C399 C 0.19434 0.28622 0.26652 0.0
N400 N 0.19902 0.32871 0.38765 0.0
N401 N 0.24275 0.30228 0.27585 0.0
H402 H 0.27903 0.34485 0.37474 0.0
H403 H 0.12763 0.29483 0.34923 0.0
C404 C 0.15704 0.26299 0.60198 0.0
O405 O 0.16989 0.2888 0.66999 0.0
N406 N 0.15716 0.38341 0.6024 0.0
C407 C 0.17686 0.42417 0.64248 0.0
C408 C 0.14202 0.44068 0.70139 0.0
C409 C 0.11099 0.37544 0.63809 0.0
N410 N 0.1014 0.40904 0.70048 0.0
C411 C 0.28092 0.39345 0.51916 0.0
C412 C 0.3183 0.32257 0.63206 0.0
C413 C 0.34548 0.36811 0.61952 0.0
C414 C 0.32736 0.40205 0.55879 0.0
C415 C 0.27144 0.31478 0.58899 0.0
N416 N 0.25105 0.35206 0.53796 0.0
H417 H 0.26898 0.42185 0.47447 0.0
H418 H 0.25221 0.27916 0.59859 0.0
H419 H 0.21136 0.44386 0.62418 0.0
H420 H 0.08273 0.34964 0.6121 0.0
O421 O 0.18395 0.42449 0.45139 0.0
O422 O 0.11393 0.37884 0.44393 0.0
O423 O 0.1605 0.2838 0.52919 0.0
C424 C 0.1374 0.4214 0.42602 0.0
H425 H 0.18007 0.2629 0.2153 0.0
H426 H 0.1445 0.47571 0.73752 0.0
H427 H 0.33155 0.29462 0.67745 0.0
H428 H 0.34777 0.4371 0.54507 0.0
Co429 Co 0.95148 0.92942 0.24547 0.0
C430 C 0.97973 0.9947 0.09932 0.0
C431 C 1.0051 0.91728 0.08594 0.0
C432 C 1.02146 0.94425 0.01642 0.0
N433 N 0.97903 0.94893 0.13761 0.0
N434 N 1.00545 0.99266 0.02578 0.0
H435 H 0.96296 0.02894 0.12473 0.0
H436 H 1.01283 0.87753 0.09913 0.0
C437 C 0.04479 0.90693 0.3519 0.0
O438 O 1.01899 0.91976 0.41991 0.0
N439 N 0.92437 0.90707 0.35241 0.0
C440 C 0.88371 0.92683 0.39265 0.0
C441 C 0.86724 0.89204 0.45167 0.0
C442 C 0.93231 0.8609 0.38809 0.0
N443 N 0.89881 0.85137 0.45066 0.0
C444 C 0.91441 0.03084 0.26911 0.0
C445 C 0.98526 0.06816 0.38216 0.0
C446 C 0.93975 0.09536 0.36958 0.0
C447 C 0.90582 0.07727 0.30878 0.0
C448 C 0.99303 1.02132 0.33905 0.0
N449 N 0.95577 1.00096 0.28795 0.0
H450 H 0.88602 1.01893 0.22435 0.0
H451 H 1.02864 1.00209 0.34869 0.0
H452 H 0.86407 0.96137 0.37442 0.0
H453 H 0.95803 0.83261 0.36202 0.0
O454 O 0.88326 0.93389 0.20145 0.0
O455 O 0.92884 0.86385 0.19389 0.0
O456 O 1.02397 0.9104 0.27911 0.0
C457 C 0.8863 0.88735 0.17602 0.0
H458 H 0.04475 0.92997 0.96517 0.0
H459 H 0.83227 0.89457 0.48795 0.0
H460 H 1.01319 0.08139 0.4276 0.0
H461 H 0.87079 0.09769 0.29502 0.0
Co462 Co 0.37827 0.70144 0.99547 0.0
C463 C 0.31298 0.7297 0.84936 0.0
C464 C 0.39041 0.75511 0.83599 0.0
C465 C 0.36344 0.77149 0.76649 0.0
N466 N 0.35875 0.72901 0.88763 0.0
N467 N 0.31503 0.75545 0.77584 0.0
H468 H 0.27874 0.71291 0.87475 0.0
H469 H 0.43016 0.76285 0.84919 0.0
C470 C 0.40073 0.79474 0.10196 0.0
O471 O 0.38789 0.76893 0.16997 0.0
N472 N 0.40061 0.67432 0.10239 0.0
C473 C 0.38091 0.63355 0.14246 0.0
C474 C 0.41574 0.61704 0.20137 0.0
C475 C 0.44678 0.68228 0.13808 0.0
N476 N 0.45637 0.64868 0.20046 0.0
C477 C 0.27685 0.66428 0.01914 0.0
C478 C 0.23948 0.73516 0.13205 0.0
C479 C 0.2123 0.68962 0.11951 0.0
C480 C 0.23041 0.65567 0.05878 0.0
C481 C 0.28634 0.74294 0.08897 0.0
N482 N 0.30672 0.70566 0.03793 0.0
H483 H 0.28879 0.63588 0.97443 0.0
H484 H 0.30557 0.77856 0.09858 0.0
H485 H 0.34641 0.61387 0.12415 0.0
H486 H 0.47504 0.70809 0.1121 0.0
O487 O 0.37382 0.63323 0.95138 0.0
O488 O 0.44385 0.67888 0.94393 0.0
O489 O 0.39727 0.77393 0.02917 0.0
C490 C 0.42038 0.63632 0.92601 0.0
H491 H 0.37772 0.7948 0.71527 0.0
H492 H 0.41327 0.58201 0.23749 0.0
H493 H 0.22623 0.7631 0.17744 0.0
H494 H 0.21001 0.62062 0.04506 0.0
Co495 Co 0.60629 0.12829 0.74548 0.0
C496 C 0.57806 0.06302 0.59931 0.0
C497 C 0.55263 0.14043 0.58599 0.0
C498 C 0.53627 0.11347 0.51646 0.0
N499 N 0.57873 0.10878 0.63762 0.0
N500 N 0.55232 0.06506 0.52578 0.0
H501 H 0.59486 1.02879 0.62468 0.0
H502 H 0.54488 0.18017 0.59921 0.0
C503 C 0.51299 0.15078 0.85192 0.0
O504 O 0.53878 0.13795 0.91994 0.0
N505 N 0.63341 0.15063 0.85242 0.0
C506 C 0.67407 0.13087 0.89263 0.0
C507 C 0.69056 0.16567 0.95166 0.0
C508 C 0.62547 0.1968 0.88811 0.0
N509 N 0.65898 0.20633 0.95067 0.0
C510 C 0.64335 1.02686 0.7691 0.0
C511 C 0.57251 0.98954 0.88215 0.0
C512 C 0.61802 0.96234 0.86956 0.0
C513 C 0.65195 0.98043 0.80875 0.0
C514 C 0.56474 0.03639 0.83905 0.0
N515 N 0.602 0.05675 0.78795 0.0
H516 H 0.67174 0.03878 0.72434 0.0
H517 H 0.52914 0.05562 0.8487 0.0
H518 H 0.69372 0.09634 0.87439 0.0
H519 H 0.59974 0.22509 0.86206 0.0
O520 O 0.6745 0.12381 0.70146 0.0
O521 O 0.62893 0.19385 0.69391 0.0
O522 O 0.5338 0.14731 0.77914 0.0
C523 C 0.67147 0.17035 0.67603 0.0
H524 H 0.51296 0.12774 0.46523 0.0
H525 H 0.72553 0.16314 0.98792 0.0
H526 H 0.54458 0.97631 0.92759 0.0
H527 H 0.68697 0.96001 0.79499 0.0
loop_
_geom_bond_atom_site_label_1
_geom_bond_atom_site_label_2
_geom_bond_distance
_geom_bond_site_symmetry_2
_ccdc_geom_bond_type
Co0 N4 2.148 . S
Co0 N10 2.128 1_554 S
Co0 N20 2.194 1_554 S
Co0 O25 2.351 1_554 S
Co0 O26 2.155 . S
Co0 O27 2.096 . S
C1 N4 1.301 . S
C1 N5 1.328 . S
C1 H6 0.930 . S
C2 C3 1.333 . S
C2 N4 1.317 . S
C2 H7 0.930 . S
C3 C2 1.333 . S
C3 N5 1.350 . S
C3 H29 0.931 . S
N4 Co0 2.148 . S
N4 C1 1.301 . S
N4 C2 1.317 . S
N5 C1 1.328 . S
N5 C3 1.350 . S
H6 C1 0.930 . S
H7 C2 0.930 . S
C8 O9 1.224 . S
C8 O27 1.247 . S
O9 C8 1.224 . S
N10 Co0 2.128 1_556 S
N10 C11 1.355 . S
N10 C13 1.311 . S
C11 N10 1.355 . S
C11 C12 1.363 . S
C11 H23 0.929 . S
C12 C11 1.363 . S
C12 N14 1.375 . S
C12 H30 0.931 . S
C13 N10 1.311 . S
C13 N14 1.347 . S
C13 H24 0.929 . S
N14 C12 1.375 . S
N14 C13 1.347 . S
C15 C18 1.365 . S
C15 N20 1.328 . S
C15 H21 0.929 . S
C16 C17 1.362 . S
C16 C19 1.378 . S
C16 H31 0.929 . S
C17 C16 1.362 . S
C17 C18 1.366 . S
C18 C15 1.365 . S
C18 C17 1.366 . S
C18 H32 0.930 . S
C19 C16 1.378 . S
C19 N20 1.315 . S
C19 H22 0.930 1_556 S
N20 Co0 2.194 1_556 S
N20 C15 1.328 . S
N20 C19 1.315 . S
H21 C15 0.929 . S
H22 C19 0.930 1_554 S
H23 C11 0.929 . S
H24 C13 0.929 . S
O25 Co0 2.351 1_556 S
O25 C28 1.244 . S
O26 Co0 2.155 . S
O26 C28 1.240 1_554 S
O27 Co0 2.096 . S
O27 C8 1.247 . S
C28 O25 1.244 . S
C28 O26 1.240 1_556 S
H29 C3 0.931 . S
H30 C12 0.931 . S
H31 C16 0.929 . S
H32 C18 0.930 . S
Co33 N37 2.148 . S
Co33 N43 2.128 . S
Co33 N53 2.194 . S
Co33 O58 2.351 . S
Co33 O59 2.155 . S
Co33 O60 2.096 . S
C34 N37 1.301 . S
C34 N38 1.328 . S
C34 H39 0.930 . S
C35 C36 1.333 . S
C35 N37 1.317 . S
C35 H40 0.930 . S
C36 C35 1.333 . S
C36 N38 1.350 . S
C36 H62 0.931 . S
N37 Co33 2.148 . S
N37 C34 1.301 . S
N37 C35 1.317 . S
N38 C34 1.328 . S
N38 C36 1.350 . S
H39 C34 0.930 . S
H40 C35 0.930 . S
C41 O42 1.224 . S
C41 O60 1.247 . S
O42 C41 1.224 . S
N43 Co33 2.128 . S
N43 C44 1.355 . S
N43 C46 1.311 . S
C44 N43 1.355 . S
C44 C45 1.363 . S
C44 H56 0.929 . S
C45 C44 1.363 . S
C45 N47 1.375 . S
C45 H63 0.931 1_554 S
C46 N43 1.311 . S
C46 N47 1.347 . S
C46 H57 0.929 . S
N47 C45 1.375 . S
N47 C46 1.347 . S
C48 C51 1.365 . S
C48 N53 1.328 . S
C48 H54 0.929 . S
C49 C50 1.362 . S
C49 C52 1.378 . S
C49 H64 0.929 . S
C50 C49 1.362 . S
C50 C51 1.366 . S
C51 C48 1.365 . S
C51 C50 1.366 . S
C51 H65 0.930 . S
C52 C49 1.378 . S
C52 N53 1.315 . S
C52 H55 0.930 . S
N53 Co33 2.194 . S
N53 C48 1.328 . S
N53 C52 1.315 . S
H54 C48 0.929 . S
H55 C52 0.930 . S
H56 C44 0.929 . S
H57 C46 0.929 . S
O58 Co33 2.351 . S
O58 C61 1.244 . S
O59 Co33 2.155 . S
O59 C61 1.240 . S
O60 Co33 2.096 . S
O60 C41 1.247 . S
C61 O58 1.244 . S
C61 O59 1.240 . S
H62 C36 0.931 . S
H63 C45 0.931 1_556 S
H64 C49 0.929 . S
H65 C51 0.930 . S
Co66 N70 2.148 . S
Co66 N76 2.128 . S
Co66 N86 2.194 . S
Co66 O91 2.351 . S
Co66 O92 2.155 . S
Co66 O93 2.096 . S
C67 N70 1.301 . S
C67 N71 1.328 . S
C67 H72 0.930 . S
C68 C69 1.333 . S
C68 N70 1.317 . S
C68 H73 0.930 . S
C69 C68 1.333 . S
C69 N71 1.350 . S
C69 H95 0.931 . S
N70 Co66 2.148 . S
N70 C67 1.301 . S
N70 C68 1.317 . S
N71 C67 1.328 . S
N71 C69 1.350 . S
H72 C67 0.930 . S
H73 C68 0.930 . S
C74 O75 1.224 . S
C74 O93 1.247 . S
O75 C74 1.224 . S
N76 Co66 2.128 . S
N76 C77 1.355 . S
N76 C79 1.311 . S
C77 N76 1.355 . S
C77 C78 1.363 . S
C77 H89 0.929 . S
C78 C77 1.363 . S
C78 N80 1.375 . S
C78 H96 0.931 . S
C79 N76 1.311 . S
C79 N80 1.347 . S
C79 H90 0.929 . S
N80 C78 1.375 . S
N80 C79 1.347 . S
C81 C84 1.365 . S
C81 N86 1.328 . S
C81 H87 0.929 . S
C82 C83 1.362 . S
C82 C85 1.378 . S
C82 H97 0.929 . S
C83 C82 1.362 . S
C83 C84 1.366 . S
C84 C81 1.365 . S
C84 C83 1.366 . S
C84 H98 0.930 . S
C85 C82 1.378 . S
C85 N86 1.315 . S
C85 H88 0.930 . S
N86 Co66 2.194 . S
N86 C81 1.328 . S
N86 C85 1.315 . S
H87 C81 0.929 . S
H88 C85 0.930 . S
H89 C77 0.929 . S
H90 C79 0.929 . S
O91 Co66 2.351 . S
O91 C94 1.244 . S
O92 Co66 2.155 . S
O92 C94 1.240 . S
O93 Co66 2.096 . S
O93 C74 1.247 . S
C94 O91 1.244 . S
C94 O92 1.240 . S
H95 C69 0.931 . S
H96 C78 0.931 . S
H97 C82 0.929 . S
H98 C84 0.930 . S
Co99 N103 2.148 . S
Co99 N109 2.128 . S
Co99 N119 2.194 . S
Co99 O124 2.351 1_655 S
Co99 O125 2.155 1_655 S
Co99 O126 2.096 . S
C100 N103 1.301 1_455 S
C100 N104 1.328 . S
C100 H105 0.930 . S
C101 C102 1.333 . S
C101 N103 1.317 . S
C101 H106 0.930 . S
C102 C101 1.333 . S
C102 N104 1.350 1_655 S
C102 H128 0.931 1_556 S
N103 Co99 2.148 . S
N103 C100 1.301 1_655 S
N103 C101 1.317 . S
N104 C100 1.328 . S
N104 C102 1.350 1_455 S
H105 C100 0.930 . S
H106 C101 0.930 . S
C107 O108 1.224 . S
C107 O126 1.247 . S
O108 C107 1.224 . S
N109 Co99 2.128 . S
N109 C110 1.355 . S
N109 C112 1.311 . S
C110 N109 1.355 . S
C110 C111 1.363 . S
C110 H122 0.929 . S
C111 C110 1.363 . S
C111 N113 1.375 . S
C111 H129 0.931 . S
C112 N109 1.311 . S
C112 N113 1.347 . S
C112 H123 0.929 . S
N113 C111 1.375 . S
N113 C112 1.347 . S
C114 C117 1.365 . S
C114 N119 1.328 . S
C114 H120 0.929 . S
C115 C116 1.362 . S
C115 C118 1.378 . S
C115 H130 0.929 . S
C116 C115 1.362 . S
C116 C117 1.366 . S
C117 C114 1.365 . S
C117 C116 1.366 . S
C117 H131 0.930 . S
C118 C115 1.378 . S
C118 N119 1.315 . S
C118 H121 0.930 . S
N119 Co99 2.194 . S
N119 C114 1.328 . S
N119 C118 1.315 . S
H120 C114 0.929 . S
H121 C118 0.930 . S
H122 C110 0.929 . S
H123 C112 0.929 . S
O124 Co99 2.351 1_455 S
O124 C127 1.244 . S
O125 Co99 2.155 1_455 S
O125 C127 1.240 . S
O126 Co99 2.096 . S
O126 C107 1.247 . S
C127 O124 1.244 . S
C127 O125 1.240 . S
H128 C102 0.931 1_554 S
H129 C111 0.931 . S
H130 C115 0.929 . S
H131 C117 0.930 . S
Co132 N136 2.148 . S
Co132 N142 2.128 1_556 S
Co132 N152 2.194 1_556 S
Co132 O157 2.351 . S
Co132 O158 2.155 . S
Co132 O159 2.096 . S
C133 N136 1.301 . S
C133 N137 1.328 . S
C133 H138 0.930 . S
C134 C135 1.333 . S
C134 N136 1.317 . S
C134 H139 0.930 . S
C135 C134 1.333 . S
C135 N137 1.350 . S
C135 H161 0.931 . S
N136 Co132 2.148 . S
N136 C133 1.301 . S
N136 C134 1.317 . S
N137 C133 1.328 . S
N137 C135 1.350 . S
H138 C133 0.930 . S
H139 C134 0.930 . S
C140 O141 1.224 . S
C140 O159 1.247 1_554 S
O141 C140 1.224 . S
N142 Co132 2.128 1_554 S
N142 C143 1.355 . S
N142 C145 1.311 . S
C143 N142 1.355 . S
C143 C144 1.363 . S
C143 H155 0.929 . S
C144 C143 1.363 . S
C144 N146 1.375 . S
C144 H162 0.931 . S
C145 N142 1.311 . S
C145 N146 1.347 . S
C145 H156 0.929 . S
N146 C144 1.375 . S
N146 C145 1.347 . S
C147 C150 1.365 . S
C147 N152 1.328 . S
C147 H153 0.929 1_554 S
C148 C149 1.362 . S
C148 C151 1.378 . S
C148 H163 0.929 . S
C149 C148 1.362 . S
C149 C150 1.366 . S
C150 C147 1.365 . S
C150 C149 1.366 . S
C150 H164 0.930 . S
C151 C148 1.378 . S
C151 N152 1.315 . S
C151 H154 0.930 . S
N152 Co132 2.194 1_554 S
N152 C147 1.328 . S
N152 C151 1.315 . S
H153 C147 0.929 1_556 S
H154 C151 0.930 . S
H155 C143 0.929 . S
H156 C145 0.929 . S
O157 Co132 2.351 . S
O157 C160 1.244 . S
O158 Co132 2.155 . S
O158 C160 1.240 . S
O159 Co132 2.096 . S
O159 C140 1.247 1_556 S
C160 O157 1.244 . S
C160 O158 1.240 . S
H161 C135 0.931 . S
H162 C144 0.931 . S
H163 C148 0.929 . S
H164 C150 0.930 . S
Co165 N169 2.148 . S
Co165 N175 2.128 . S
Co165 N185 2.194 . S
Co165 O190 2.351 . S
Co165 O191 2.155 . S
Co165 O192 2.096 . S
C166 N169 1.301 . S
C166 N170 1.328 . S
C166 H171 0.930 . S
C167 C168 1.333 . S
C167 N169 1.317 . S
C167 H172 0.930 . S
C168 C167 1.333 . S
C168 N170 1.350 . S
C168 H194 0.931 . S
N169 Co165 2.148 . S
N169 C166 1.301 . S
N169 C167 1.317 . S
N170 C166 1.328 . S
N170 C168 1.350 . S
H171 C166 0.930 . S
H172 C167 0.930 . S
C173 O174 1.224 . S
C173 O192 1.247 . S
O174 C173 1.224 . S
N175 Co165 2.128 . S
N175 C176 1.355 . S
N175 C178 1.311 . S
C176 N175 1.355 . S
C176 C177 1.363 . S
C176 H188 0.929 . S
C177 C176 1.363 . S
C177 N179 1.375 . S
C177 H195 0.931 . S
C178 N175 1.311 . S
C178 N179 1.347 . S
C178 H189 0.929 . S
N179 C177 1.375 . S
N179 C178 1.347 . S
C180 C183 1.365 . S
C180 N185 1.328 . S
C180 H186 0.929 . S
C181 C182 1.362 . S
C181 C184 1.378 . S
C181 H196 0.929 . S
C182 C181 1.362 . S
C182 C183 1.366 . S
C183 C180 1.365 . S
C183 C182 1.366 . S
C183 H197 0.930 . S
C184 C181 1.378 . S
C184 N185 1.315 . S
C184 H187 0.930 . S
N185 Co165 2.194 . S
N185 C180 1.328 . S
N185 C184 1.315 . S
H186 C180 0.929 . S
H187 C184 0.930 . S
H188 C176 0.929 . S
H189 C178 0.929 . S
O190 Co165 2.351 . S
O190 C193 1.244 . S
O191 Co165 2.155 . S
O191 C193 1.240 . S
O192 Co165 2.096 . S
O192 C173 1.247 . S
C193 O190 1.244 . S
C193 O191 1.240 . S
H194 C168 0.931 . S
H195 C177 0.931 . S
H196 C181 0.929 . S
H197 C183 0.930 . S
Co198 N202 2.148 . S
Co198 N208 2.128 . S
Co198 N218 2.194 . S
Co198 O223 2.351 . S
Co198 O224 2.155 . S
Co198 O225 2.096 . S
C199 N202 1.301 . S
C199 N203 1.328 . S
C199 H204 0.930 . S
C200 C201 1.333 . S
C200 N202 1.317 . S
C200 H205 0.930 . S
C201 C200 1.333 . S
C201 N203 1.350 . S
C201 H227 0.931 . S
N202 Co198 2.148 . S
N202 C199 1.301 . S
N202 C200 1.317 . S
N203 C199 1.328 . S
N203 C201 1.350 . S
H204 C199 0.930 . S
H205 C200 0.930 . S
C206 O207 1.224 . S
C206 O225 1.247 . S
O207 C206 1.224 . S
N208 Co198 2.128 . S
N208 C209 1.355 . S
N208 C211 1.311 . S
C209 N208 1.355 . S
C209 C210 1.363 . S
C209 H221 0.929 . S
C210 C209 1.363 . S
C210 N212 1.375 . S
C210 H228 0.931 . S
C211 N208 1.311 . S
C211 N212 1.347 . S
C211 H222 0.929 . S
N212 C210 1.375 . S
N212 C211 1.347 . S
C213 C216 1.365 . S
C213 N218 1.328 . S
C213 H219 0.929 . S
C214 C215 1.362 . S
C214 C217 1.378 . S
C214 H229 0.929 . S
C215 C214 1.362 . S
C215 C216 1.366 . S
C216 C213 1.365 . S
C216 C215 1.366 . S
C216 H230 0.930 . S
C217 C214 1.378 . S
C217 N218 1.315 . S
C217 H220 0.930 . S
N218 Co198 2.194 . S
N218 C213 1.328 . S
N218 C217 1.315 . S
H219 C213 0.929 . S
H220 C217 0.930 . S
H221 C209 0.929 . S
H222 C211 0.929 . S
O223 Co198 2.351 . S
O223 C226 1.244 . S
O224 Co198 2.155 . S
O224 C226 1.240 . S
O225 Co198 2.096 . S
O225 C206 1.247 . S
C226 O223 1.244 . S
C226 O224 1.240 . S
H227 C201 0.931 . S
H228 C210 0.931 . S
H229 C214 0.929 . S
H230 C216 0.930 . S
Co231 N235 2.148 . S
Co231 N241 2.128 . S
Co231 N251 2.194 . S
Co231 O256 2.351 . S
Co231 O257 2.155 . S
Co231 O258 2.096 . S
C232 N235 1.301 . S
C232 N236 1.328 . S
C232 H237 0.930 . S
C233 C234 1.333 . S
C233 N235 1.317 1_655 S
C233 H238 0.930 . S
C234 C233 1.333 . S
C234 N236 1.350 1_655 S
C234 H260 0.931 . S
N235 Co231 2.148 . S
N235 C232 1.301 . S
N235 C233 1.317 1_455 S
N236 C232 1.328 . S
N236 C234 1.350 1_455 S
H237 C232 0.930 . S
H238 C233 0.930 . S
C239 O240 1.224 1_655 S
C239 O258 1.247 1_655 S
O240 C239 1.224 1_455 S
N241 Co231 2.128 . S
N241 C242 1.355 . S
N241 C244 1.311 . S
C242 N241 1.355 . S
C242 C243 1.363 . S
C242 H254 0.929 . S
C243 C242 1.363 . S
C243 N245 1.375 . S
C243 H261 0.931 . S
C244 N241 1.311 . S
C244 N245 1.347 . S
C244 H255 0.929 . S
N245 C243 1.375 . S
N245 C244 1.347 . S
C246 C249 1.365 . S
C246 N251 1.328 . S
C246 H252 0.929 . S
C247 C248 1.362 . S
C247 C250 1.378 . S
C247 H262 0.929 . S
C248 C247 1.362 . S
C248 C249 1.366 . S
C249 C246 1.365 . S
C249 C248 1.366 . S
C249 H263 0.930 . S
C250 C247 1.378 . S
C250 N251 1.315 . S
C250 H253 0.930 . S
N251 Co231 2.194 . S
N251 C246 1.328 . S
N251 C250 1.315 . S
H252 C246 0.929 . S
H253 C250 0.930 . S
H254 C242 0.929 . S
H255 C244 0.929 . S
O256 Co231 2.351 . S
O256 C259 1.244 . S
O257 Co231 2.155 . S
O257 C259 1.240 . S
O258 Co231 2.096 . S
O258 C239 1.247 1_455 S
C259 O256 1.244 . S
C259 O257 1.240 . S
H260 C234 0.931 . S
H261 C243 0.931 . S
H262 C247 0.929 . S
H263 C249 0.930 . S
Co264 N268 2.148 . S
Co264 N274 2.128 . S
Co264 N284 2.194 . S
Co264 O289 2.351 . S
Co264 O290 2.155 . S
Co264 O291 2.096 . S
C265 N268 1.301 . S
C265 N269 1.328 . S
C265 H270 0.930 . S
C266 C267 1.333 . S
C266 N268 1.317 . S
C266 H271 0.930 . S
C267 C266 1.333 . S
C267 N269 1.350 . S
C267 H293 0.931 . S
N268 Co264 2.148 . S
N268 C265 1.301 . S
N268 C266 1.317 . S
N269 C265 1.328 . S
N269 C267 1.350 . S
H270 C265 0.930 . S
H271 C266 0.930 . S
C272 O273 1.224 . S
C272 O291 1.247 . S
O273 C272 1.224 . S
N274 Co264 2.128 . S
N274 C275 1.355 . S
N274 C277 1.311 . S
C275 N274 1.355 . S
C275 C276 1.363 . S
C275 H287 0.929 . S
C276 C275 1.363 . S
C276 N278 1.375 . S
C276 H294 0.931 . S
C277 N274 1.311 . S
C277 N278 1.347 . S
C277 H288 0.929 . S
N278 C276 1.375 . S
N278 C277 1.347 . S
C279 C282 1.365 . S
C279 N284 1.328 . S
C279 H285 0.929 . S
C280 C281 1.362 . S
C280 C283 1.378 . S
C280 H295 0.929 . S
C281 C280 1.362 . S
C281 C282 1.366 . S
C282 C279 1.365 . S
C282 C281 1.366 . S
C282 H296 0.930 . S
C283 C280 1.378 . S
C283 N284 1.315 . S
C283 H286 0.930 . S
N284 Co264 2.194 . S
N284 C279 1.328 . S
N284 C283 1.315 . S
H285 C279 0.929 . S
H286 C283 0.930 . S
H287 C275 0.929 . S
H288 C277 0.929 . S
O289 Co264 2.351 . S
O289 C292 1.244 . S
O290 Co264 2.155 . S
O290 C292 1.240 . S
O291 Co264 2.096 . S
O291 C272 1.247 . S
C292 O289 1.244 . S
C292 O290 1.240 . S
H293 C267 0.931 . S
H294 C276 0.931 . S
H295 C280 0.929 . S
H296 C282 0.930 . S
Co297 N301 2.148 . S
Co297 N307 2.128 . S
Co297 N317 2.194 . S
Co297 O322 2.351 1_455 S
Co297 O323 2.155 1_455 S
Co297 O324 2.096 . S
C298 N301 1.301 1_655 S
C298 N302 1.328 . S
C298 H303 0.930 . S
C299 C300 1.333 . S
C299 N301 1.317 . S
C299 H304 0.930 . S
C300 C299 1.333 . S
C300 N302 1.350 1_455 S
C300 H326 0.931 1_556 S
N301 Co297 2.148 . S
N301 C298 1.301 1_455 S
N301 C299 1.317 . S
N302 C298 1.328 . S
N302 C300 1.350 1_655 S
H303 C298 0.930 . S
H304 C299 0.930 . S
C305 O306 1.224 . S
C305 O324 1.247 . S
O306 C305 1.224 . S
N307 Co297 2.128 . S
N307 C308 1.355 . S
N307 C310 1.311 . S
C308 N307 1.355 . S
C308 C309 1.363 . S
C308 H320 0.929 . S
C309 C308 1.363 . S
C309 N311 1.375 . S
C309 H327 0.931 . S
C310 N307 1.311 . S
C310 N311 1.347 . S
C310 H321 0.929 . S
N311 C309 1.375 . S
N311 C310 1.347 . S
C312 C315 1.365 1_545 S
C312 N317 1.328 . S
C312 H318 0.929 . S
C313 C314 1.362 . S
C313 C316 1.378 1_565 S
C313 H328 0.929 . S
C314 C313 1.362 . S
C314 C315 1.366 . S
C315 C312 1.365 1_565 S
C315 C314 1.366 . S
C315 H329 0.930 . S
C316 C313 1.378 1_545 S
C316 N317 1.315 . S
C316 H319 0.930 . S
N317 Co297 2.194 . S
N317 C312 1.328 . S
N317 C316 1.315 . S
H318 C312 0.929 . S
H319 C316 0.930 . S
H320 C308 0.929 . S
H321 C310 0.929 . S
O322 Co297 2.351 1_655 S
O322 C325 1.244 . S
O323 Co297 2.155 1_655 S
O323 C325 1.240 . S
O324 Co297 2.096 . S
O324 C305 1.247 . S
C325 O322 1.244 . S
C325 O323 1.240 . S
H326 C300 0.931 1_554 S
H327 C309 0.931 . S
H328 C313 0.929 . S
H329 C315 0.930 . S
Co330 N334 2.148 . S
Co330 N340 2.128 1_554 S
Co330 N350 2.194 1_554 S
Co330 O355 2.351 1_554 S
Co330 O356 2.155 . S
Co330 O357 2.096 . S
C331 N334 1.301 . S
C331 N335 1.328 . S
C331 H336 0.930 . S
C332 C333 1.333 . S
C332 N334 1.317 . S
C332 H337 0.930 . S
C333 C332 1.333 . S
C333 N335 1.350 . S
C333 H359 0.931 . S
N334 Co330 2.148 . S
N334 C331 1.301 . S
N334 C332 1.317 . S
N335 C331 1.328 . S
N335 C333 1.350 . S
H336 C331 0.930 . S
H337 C332 0.930 . S
C338 O339 1.224 . S
C338 O357 1.247 . S
O339 C338 1.224 . S
N340 Co330 2.128 1_556 S
N340 C341 1.355 . S
N340 C343 1.311 . S
C341 N340 1.355 . S
C341 C342 1.363 . S
C341 H353 0.929 . S
C342 C341 1.363 . S
C342 N344 1.375 . S
C342 H360 0.931 . S
C343 N340 1.311 . S
C343 N344 1.347 . S
C343 H354 0.929 . S
N344 C342 1.375 . S
N344 C343 1.347 . S
C345 C348 1.365 . S
C345 N350 1.328 . S
C345 H351 0.929 . S
C346 C347 1.362 . S
C346 C349 1.378 . S
C346 H361 0.929 . S
C347 C346 1.362 . S
C347 C348 1.366 . S
C348 C345 1.365 . S
C348 C347 1.366 . S
C348 H362 0.930 . S
C349 C346 1.378 . S
C349 N350 1.315 . S
C349 H352 0.930 1_556 S
N350 Co330 2.194 1_556 S
N350 C345 1.328 . S
N350 C349 1.315 . S
H351 C345 0.929 . S
H352 C349 0.930 1_554 S
H353 C341 0.929 . S
H354 C343 0.929 . S
O355 Co330 2.351 1_556 S
O355 C358 1.244 . S
O356 Co330 2.155 . S
O356 C358 1.240 1_554 S
O357 Co330 2.096 . S
O357 C338 1.247 . S
C358 O355 1.244 . S
C358 O356 1.240 1_556 S
H359 C333 0.931 . S
H360 C342 0.931 . S
H361 C346 0.929 . S
H362 C348 0.930 . S
Co363 N367 2.148 . S
Co363 N373 2.128 . S
Co363 N383 2.194 . S
Co363 O388 2.351 . S
Co363 O389 2.155 . S
Co363 O390 2.096 . S
C364 N367 1.301 . S
C364 N368 1.328 . S
C364 H369 0.930 . S
C365 C366 1.333 . S
C365 N367 1.317 . S
C365 H370 0.930 . S
C366 C365 1.333 . S
C366 N368 1.350 . S
C366 H392 0.931 . S
N367 Co363 2.148 . S
N367 C364 1.301 . S
N367 C365 1.317 . S
N368 C364 1.328 . S
N368 C366 1.350 . S
H369 C364 0.930 . S
H370 C365 0.930 . S
C371 O372 1.224 . S
C371 O390 1.247 . S
O372 C371 1.224 . S
N373 Co363 2.128 . S
N373 C374 1.355 . S
N373 C376 1.311 . S
C374 N373 1.355 . S
C374 C375 1.363 . S
C374 H386 0.929 . S
C375 C374 1.363 . S
C375 N377 1.375 . S
C375 H393 0.931 1_554 S
C376 N373 1.311 . S
C376 N377 1.347 . S
C376 H387 0.929 . S
N377 C375 1.375 . S
N377 C376 1.347 . S
C378 C381 1.365 1_565 S
C378 N383 1.328 . S
C378 H384 0.929 . S
C379 C380 1.362 . S
C379 C382 1.378 1_545 S
C379 H394 0.929 . S
C380 C379 1.362 . S
C380 C381 1.366 . S
C381 C378 1.365 1_545 S
C381 C380 1.366 . S
C381 H395 0.930 . S
C382 C379 1.378 1_565 S
C382 N383 1.315 . S
C382 H385 0.930 . S
N383 Co363 2.194 . S
N383 C378 1.328 . S
N383 C382 1.315 . S
H384 C378 0.929 . S
H385 C382 0.930 . S
H386 C374 0.929 . S
H387 C376 0.929 . S
O388 Co363 2.351 . S
O388 C391 1.244 . S
O389 Co363 2.155 . S
O389 C391 1.240 . S
O390 Co363 2.096 . S
O390 C371 1.247 . S
C391 O388 1.244 . S
C391 O389 1.240 . S
H392 C366 0.931 . S
H393 C375 0.931 1_556 S
H394 C379 0.929 . S
H395 C381 0.930 . S
Co396 N400 2.148 . S
Co396 N406 2.128 . S
Co396 N416 2.194 . S
Co396 O421 2.351 . S
Co396 O422 2.155 . S
Co396 O423 2.096 . S
C397 N400 1.301 . S
C397 N401 1.328 . S
C397 H402 0.930 . S
C398 C399 1.333 . S
C398 N400 1.317 . S
C398 H403 0.930 . S
C399 C398 1.333 . S
C399 N401 1.350 . S
C399 H425 0.931 . S
N400 Co396 2.148 . S
N400 C397 1.301 . S
N400 C398 1.317 . S
N401 C397 1.328 . S
N401 C399 1.350 . S
H402 C397 0.930 . S
H403 C398 0.930 . S
C404 O405 1.224 . S
C404 O423 1.247 . S
O405 C404 1.224 . S
N406 Co396 2.128 . S
N406 C407 1.355 . S
N406 C409 1.311 . S
C407 N406 1.355 . S
C407 C408 1.363 . S
C407 H419 0.929 . S
C408 C407 1.363 . S
C408 N410 1.375 . S
C408 H426 0.931 . S
C409 N406 1.311 . S
C409 N410 1.347 . S
C409 H420 0.929 . S
N410 C408 1.375 . S
N410 C409 1.347 . S
C411 C414 1.365 . S
C411 N416 1.328 . S
C411 H417 0.929 . S
C412 C413 1.362 . S
C412 C415 1.378 . S
C412 H427 0.929 . S
C413 C412 1.362 . S
C413 C414 1.366 . S
C414 C411 1.365 . S
C414 C413 1.366 . S
C414 H428 0.930 . S
C415 C412 1.378 . S
C415 N416 1.315 . S
C415 H418 0.930 . S
N416 Co396 2.194 . S
N416 C411 1.328 . S
N416 C415 1.315 . S
H417 C411 0.929 . S
H418 C415 0.930 . S
H419 C407 0.929 . S
H420 C409 0.929 . S
O421 Co396 2.351 . S
O421 C424 1.244 . S
O422 Co396 2.155 . S
O422 C424 1.240 . S
O423 Co396 2.096 . S
O423 C404 1.247 . S
C424 O421 1.244 . S
C424 O422 1.240 . S
H425 C399 0.931 . S
H426 C408 0.931 . S
H427 C412 0.929 . S
H428 C414 0.930 . S
Co429 N433 2.148 . S
Co429 N439 2.128 . S
Co429 N449 2.194 . S
Co429 O454 2.351 . S
Co429 O455 2.155 . S
Co429 O456 2.096 . S
C430 N433 1.301 . S
C430 N434 1.328 1_565 S
C430 H435 0.930 1_565 S
C431 C432 1.333 . S
C431 N433 1.317 1_455 S
C431 H436 0.930 . S
C432 C431 1.333 . S
C432 N434 1.350 1_465 S
C432 H458 0.931 . S
N433 Co429 2.148 . S
N433 C430 1.301 . S
N433 C431 1.317 1_655 S
N434 C430 1.328 1_545 S
N434 C432 1.350 1_645 S
H435 C430 0.930 1_545 S
H436 C431 0.930 . S
C437 O438 1.224 1_455 S
C437 O456 1.247 1_455 S
O438 C437 1.224 1_655 S
N439 Co429 2.128 . S
N439 C440 1.355 . S
N439 C442 1.311 . S
C440 N439 1.355 . S
C440 C441 1.363 . S
C440 H452 0.929 . S
C441 C440 1.363 . S
C441 N443 1.375 . S
C441 H459 0.931 . S
C442 N439 1.311 . S
C442 N443 1.347 . S
C442 H453 0.929 . S
N443 C441 1.375 . S
N443 C442 1.347 . S
C444 C447 1.365 . S
C444 N449 1.328 1_545 S
C444 H450 0.929 . S
C445 C446 1.362 . S
C445 C448 1.378 . S
C445 H460 0.929 . S
C446 C445 1.362 . S
C446 C447 1.366 . S
C447 C444 1.365 . S
C447 C446 1.366 . S
C447 H461 0.930 . S
C448 C445 1.378 . S
C448 N449 1.315 1_545 S
C448 H451 0.930 1_545 S
N449 Co429 2.194 . S
N449 C444 1.328 1_565 S
N449 C448 1.315 1_565 S
H450 C444 0.929 . S
H451 C448 0.930 1_565 S
H452 C440 0.929 . S
H453 C442 0.929 . S
O454 Co429 2.351 . S
O454 C457 1.244 . S
O455 Co429 2.155 . S
O455 C457 1.240 . S
O456 Co429 2.096 . S
O456 C437 1.247 1_655 S
C457 O454 1.244 . S
C457 O455 1.240 . S
H458 C432 0.931 . S
H459 C441 0.931 . S
H460 C445 0.929 . S
H461 C447 0.930 . S
Co462 N466 2.148 . S
Co462 N472 2.128 1_556 S
Co462 N482 2.194 1_556 S
Co462 O487 2.351 . S
Co462 O488 2.155 . S
Co462 O489 2.096 . S
C463 N466 1.301 . S
C463 N467 1.328 . S
C463 H468 0.930 . S
C464 C465 1.333 . S
C464 N466 1.317 . S
C464 H469 0.930 . S
C465 C464 1.333 . S
C465 N467 1.350 . S
C465 H491 0.931 . S
N466 Co462 2.148 . S
N466 C463 1.301 . S
N466 C464 1.317 . S
N467 C463 1.328 . S
N467 C465 1.350 . S
H468 C463 0.930 . S
H469 C464 0.930 . S
C470 O471 1.224 . S
C470 O489 1.247 1_554 S
O471 C470 1.224 . S
N472 Co462 2.128 1_554 S
N472 C473 1.355 . S
N472 C475 1.311 . S
C473 N472 1.355 . S
C473 C474 1.363 . S
C473 H485 0.929 . S
C474 C473 1.363 . S
C474 N476 1.375 . S
C474 H492 0.931 . S
C475 N472 1.311 . S
C475 N476 1.347 . S
C475 H486 0.929 . S
N476 C474 1.375 . S
N476 C475 1.347 . S
C477 C480 1.365 . S
C477 N482 1.328 . S
C477 H483 0.929 1_554 S
C478 C479 1.362 . S
C478 C481 1.378 . S
C478 H493 0.929 . S
C479 C478 1.362 . S
C479 C480 1.366 . S
C480 C477 1.365 . S
C480 C479 1.366 . S
C480 H494 0.930 . S
C481 C478 1.378 . S
C481 N482 1.315 . S
C481 H484 0.930 . S
N482 Co462 2.194 1_554 S
N482 C477 1.328 . S
N482 C481 1.315 . S
H483 C477 0.929 1_556 S
H484 C481 0.930 . S
H485 C473 0.929 . S
H486 C475 0.929 . S
O487 Co462 2.351 . S
O487 C490 1.244 . S
O488 Co462 2.155 . S
O488 C490 1.240 . S
O489 Co462 2.096 . S
O489 C470 1.247 1_556 S
C490 O487 1.244 . S
C490 O488 1.240 . S
H491 C465 0.931 . S
H492 C474 0.931 . S
H493 C478 0.929 . S
H494 C480 0.930 . S
Co495 N499 2.148 . S
Co495 N505 2.128 . S
Co495 N515 2.194 . S
Co495 O520 2.351 . S
Co495 O521 2.155 . S
Co495 O522 2.096 . S
C496 N499 1.301 . S
C496 N500 1.328 1_545 S
C496 H501 0.930 1_545 S
C497 C498 1.333 . S
C497 N499 1.317 . S
C497 H502 0.930 . S
C498 C497 1.333 . S
C498 N500 1.350 1_545 S
C498 H524 0.931 . S
N499 Co495 2.148 . S
N499 C496 1.301 . S
N499 C497 1.317 . S
N500 C496 1.328 1_565 S
N500 C498 1.350 1_565 S
H501 C496 0.930 1_565 S
H502 C497 0.930 . S
C503 O504 1.224 . S
C503 O522 1.247 . S
O504 C503 1.224 . S
N505 Co495 2.128 . S
N505 C506 1.355 . S
N505 C508 1.311 . S
C506 N505 1.355 . S
C506 C507 1.363 . S
C506 H518 0.929 . S
C507 C506 1.363 . S
C507 N509 1.375 . S
C507 H525 0.931 . S
C508 N505 1.311 . S
C508 N509 1.347 . S
C508 H519 0.929 . S
N509 C507 1.375 . S
N509 C508 1.347 . S
C510 C513 1.365 . S
C510 N515 1.328 1_565 S
C510 H516 0.929 . S
C511 C512 1.362 . S
C511 C514 1.378 . S
C511 H526 0.929 . S
C512 C511 1.362 . S
C512 C513 1.366 . S
C513 C510 1.365 . S
C513 C512 1.366 . S
C513 H527 0.930 . S
C514 C511 1.378 . S
C514 N515 1.315 1_565 S
C514 H517 0.930 1_565 S
N515 Co495 2.194 . S
N515 C510 1.328 1_545 S
N515 C514 1.315 1_545 S
H516 C510 0.929 . S
H517 C514 0.930 1_545 S
H518 C506 0.929 . S
H519 C508 0.929 . S
O520 Co495 2.351 . S
O520 C523 1.244 . S
O521 Co495 2.155 . S
O521 C523 1.240 . S
O522 Co495 2.096 . S
O522 C503 1.247 . S
C523 O520 1.244 . S
C523 O521 1.240 . S
H524 C498 0.931 . S
H525 C507 0.931 . S
H526 C511 0.929 . S
H527 C513 0.930 . S
C503 N14 1.816 . S
N47 C140 1.857 . S
N80 C437 1.819 . S
N113 C206 1.795 . S
N146 C391 1.745 . S
C28 N179 1.788 . S
C325 N212 1.736 . S
N245 C94 1.714 . S
N278 C239 1.820 . S
N311 C404 1.795 . S
C173 N344 1.816 . S
N377 C470 1.857 . S
N410 C127 1.736 . S
N443 C292 1.715 . S
C61 N476 1.745 . S
N509 C358 1.788 . S
N5 N401 1.643 . S
N170 N38 1.732 . S
N71 N467 1.640 . S
N104 N236 1.688 1_556 S
N269 N137 1.640 . S
N335 N203 1.643 . S
N434 N302 1.688 1_554 S
N368 N500 1.732 . S
C305 C17 1.839 . S
C50 C338 1.765 . S
C83 C371 1.817 . S
C272 C116 1.843 . S
C149 C457 1.286 . S
C182 C490 1.293 . S
C215 C523 1.292 . S
C248 C424 1.293 . S
C41 C281 1.817 . S
C314 C74 1.842 . S
C347 C107 1.839 . S
C380 C8 1.765 . S
C413 C193 1.292 . S
C226 C446 1.293 . S
C259 C479 1.286 . S
C512 C160 1.293 . S
