# Generated by pormake.
# Topology sod, (4)-cn, num edge types: 1
# Building blocks:
#     Node 0, Type 0, BuildingBlock: TATPOV_clean_sbu_0, # of connection points: 4
#     Node 1, Type 0, BuildingBlock: TATPOV_clean_sbu_0, # of connection points: 4
#     Node 2, Type 0, BuildingBlock: TATPOV_clean_sbu_0, # of connection points: 4
#     Node 3, Type 0, BuildingBlock: TATPOV_clean_sbu_0, # of connection points: 4
#     Node 4, Type 0, BuildingBlock: TATPOV_clean_sbu_0, # of connection points: 4
#     Node 5, Type 0, BuildingBlock: TATPOV_clean_sbu_0, # of connection points: 4
#     Node 6, Type 0, BuildingBlock: TATPOV_clean_sbu_0, # of connection points: 4
#     Node 7, Type 0, BuildingBlock: TATPOV_clean_sbu_0, # of connection points: 4
#     Node 8, Type 0, BuildingBlock: TATPOV_clean_sbu_0, # of connection points: 4
#     Node 9, Type 0, BuildingBlock: TATPOV_clean_sbu_0, # of connection points: 4
#     Node 10, Type 0, BuildingBlock: TATPOV_clean_sbu_0, # of connection points: 4
#     Node 11, Type 0, BuildingBlock: TATPOV_clean_sbu_0, # of connection points: 4
#     Edge 12, Type (0, 0), BuildingBlock: AJUNOK_clean_linker_0, # of connection points: 2
#     Edge 13, Type (0, 0), BuildingBlock: AJUNOK_clean_linker_0, # of connection points: 2
#     Edge 14, Type (0, 0), BuildingBlock: AJUNOK_clean_linker_0, # of connection points: 2
#     Edge 15, Type (0, 0), BuildingBlock: AJUNOK_clean_linker_0, # of connection points: 2
#     Edge 16, Type (0, 0), BuildingBlock: AJUNOK_clean_linker_0, # of connection points: 2
#     Edge 17, Type (0, 0), BuildingBlock: AJUNOK_clean_linker_0, # of connection points: 2
#     Edge 18, Type (0, 0), BuildingBlock: AJUNOK_clean_linker_0, # of connection points: 2
#     Edge 19, Type (0, 0), BuildingBlock: AJUNOK_clean_linker_0, # of connection points: 2
#     Edge 20, Type (0, 0), BuildingBlock: AJUNOK_clean_linker_0, # of connection points: 2
#     Edge 21, Type (0, 0), BuildingBlock: AJUNOK_clean_linker_0, # of connection points: 2
#     Edge 22, Type (0, 0), BuildingBlock: AJUNOK_clean_linker_0, # of connection points: 2
#     Edge 23, Type (0, 0), BuildingBlock: AJUNOK_clean_linker_0, # of connection points: 2
#     Edge 24, Type (0, 0), BuildingBlock: AJUNOK_clean_linker_0, # of connection points: 2
#     Edge 25, Type (0, 0), BuildingBlock: AJUNOK_clean_linker_0, # of connection points: 2
#     Edge 26, Type (0, 0), BuildingBlock: AJUNOK_clean_linker_0, # of connection points: 2
#     Edge 27, Type (0, 0), BuildingBlock: AJUNOK_clean_linker_0, # of connection points: 2
#     Edge 28, Type (0, 0), BuildingBlock: AJUNOK_clean_linker_0, # of connection points: 2
#     Edge 29, Type (0, 0), BuildingBlock: AJUNOK_clean_linker_0, # of connection points: 2
#     Edge 30, Type (0, 0), BuildingBlock: AJUNOK_clean_linker_0, # of connection points: 2
#     Edge 31, Type (0, 0), BuildingBlock: AJUNOK_clean_linker_0, # of connection points: 2
#     Edge 32, Type (0, 0), BuildingBlock: AJUNOK_clean_linker_0, # of connection points: 2
#     Edge 33, Type (0, 0), BuildingBlock: AJUNOK_clean_linker_0, # of connection points: 2
#     Edge 34, Type (0, 0), BuildingBlock: AJUNOK_clean_linker_0, # of connection points: 2
#     Edge 35, Type (0, 0), BuildingBlock: AJUNOK_clean_linker_0, # of connection points: 2
# Relax obj value: 0.091
# Max RMSD: 0.145
# Mean RMSD: 0.125
data_MOF--net-sod--node1-TATPOV_clean_sbu_0--edge1-AJUNOK_clean_linker_0
_symmetry_space_group_name_H-M    P1
_symmetry_Int_Tables_number       1
_symmetry_cell_setting            triclinic
loop_
_symmetry_equiv_pos_as_xyz
'x, y, z'
_cell_length_a     30.736466
_cell_length_b     31.060758
_cell_length_c     31.764834
_cell_angle_alpha  90.070047
_cell_angle_beta   90.545741
_cell_angle_gamma 92.688758
loop_
_atom_site_label
_atom_site_type_symbol
_atom_site_fract_x
_atom_site_fract_y
_atom_site_fract_z
_atom_type_partial_charge
Zn0 Zn 0.97377 0.21009 0.42627 0.0
Zn1 Zn 0.96623 0.25554 0.4984 0.0
O2 O 0.02676 0.2312 0.5033 0.0
O3 O 0.03485 0.19607 0.4439 0.0
O4 O 0.96358 0.2932 0.55101 0.0
O5 O 0.96337 0.26159 0.39099 0.0
O6 O 0.95958 0.29919 0.44955 0.0
C7 C 0.04973 0.20861 0.47938 0.0
C8 C 0.90542 0.17602 0.4795 0.0
O9 O 0.9181 0.20686 0.50397 0.0
O10 O 0.92339 0.17144 0.44419 0.0
C11 C 0.93216 0.29282 0.57684 0.0
O12 O 0.89847 0.26598 0.57032 0.0
C13 C 0.95882 0.29718 0.4094 0.0
Zn14 Zn 0.80584 0.9364 0.56712 0.0
Zn15 Zn 0.7619 0.93577 0.49296 0.0
O16 O 0.8081 0.89102 0.48174 0.0
O17 O 0.84214 0.89075 0.54325 0.0
O18 O 0.72303 0.93801 0.44097 0.0
O19 O 0.75266 0.91954 0.59964 0.0
O20 O 0.71704 0.92294 0.53957 0.0
C21 C 0.83764 0.87695 0.50588 0.0
C22 C 0.81154 0.0182 0.52444 0.0
O23 O 0.7891 -0.00281 0.49668 0.0
O24 O 0.82269 -0.00023 0.55815 0.0
C25 C 0.73449 0.96001 0.40886 0.0
O26 O 0.7742 0.97751 0.40776 0.0
C27 C 0.71707 0.91724 0.57931 0.0
Zn28 Zn 0.08422 0.79641 0.44286 0.0
Zn29 Zn 0.07088 0.74877 0.51378 0.0
O30 O 0.01269 0.7737 0.49778 0.0
O31 O 0.02078 0.8113 0.43969 0.0
O32 O 0.05206 0.71401 0.56461 0.0
O33 O 0.10485 0.74399 0.41502 0.0
O34 O 0.09244 0.70439 0.47161 0.0
C35 C -0.00337 0.7967 0.46891 0.0
C36 C 0.13649 0.82516 0.51448 0.0
O37 O 0.11689 0.7945 0.53441 0.0
O38 O 0.12777 0.83218 0.47616 0.0
C39 C 0.07333 0.69041 0.58927 0.0
O40 O 0.11519 0.68656 0.58324 0.0
C41 C 0.10548 0.70813 0.43376 0.0
Zn42 Zn 0.22558 0.06221 0.61368 0.0
Zn43 Zn 0.27217 0.06182 0.53891 0.0
O44 O 0.22512 0.1044 0.52623 0.0
O45 O 0.18957 0.10743 0.58603 0.0
O46 O 0.3108 0.06207 0.48715 0.0
O47 O 0.28037 0.07906 0.64581 0.0
O48 O 0.31523 0.07972 0.58548 0.0
C49 C 0.19491 0.1195 0.54824 0.0
C50 C 0.2246 0.97947 0.57178 0.0
O51 O 0.24801 -0.0 0.5449 0.0
O52 O 0.21048 -0.00122 0.60368 0.0
C53 C 0.30833 0.03582 0.45625 0.0
O54 O 0.27692 0.00569 0.45531 0.0
C55 C 0.31517 0.08496 0.62524 0.0
Zn56 Zn 0.52986 0.08761 0.30344 0.0
Zn57 Zn 0.50498 0.01824 0.25976 0.0
O58 O 0.45408 0.02237 0.30293 0.0
O59 O 0.47743 0.07879 0.34012 0.0
O60 O 0.48804 0.96796 0.21997 0.0
O61 O 0.5276 0.12736 0.25434 0.0
O62 O 0.51121 0.06931 0.21672 0.0
C63 C 0.44904 0.04864 0.33339 0.0
C64 C 0.59174 0.02226 0.31009 0.0
O65 O 0.56291 0.00059 0.28869 0.0
O66 O 0.58615 0.06127 0.31919 0.0
C67 C 0.49528 0.92863 0.2274 0.0
O68 O 0.51297 0.91877 0.26372 0.0
C69 C 0.51939 0.10999 0.21898 0.0
Zn70 Zn 0.06032 0.58117 0.2179 0.0
Zn71 Zn 0.03053 0.51479 0.26457 0.0
O72 O 0.06766 0.4837 0.22186 0.0
O73 O 0.08516 0.53784 0.17943 0.0
O74 O 0.00824 0.46878 0.3038 0.0
O75 O 0.09473 0.60541 0.26745 0.0
O76 O 0.06412 0.55394 0.3059 0.0
C77 C 0.08534 0.49815 0.18833 0.0
C78 C 0.96824 0.5729 0.21726 0.0
O79 O 0.97578 0.53943 0.23878 0.0
O80 O -0.00065 0.59831 0.20601 0.0
C81 C 0.97665 0.44206 0.29623 0.0
O82 O 0.95687 0.44263 0.25939 0.0
C83 C 0.08905 0.58756 0.30288 0.0
Zn84 Zn 0.57723 0.07685 0.70134 0.0
Zn85 Zn 0.54089 0.01832 0.75408 0.0
O86 O 0.57435 0.97948 0.71478 0.0
O87 O 0.59741 0.0272 0.66764 0.0
O88 O 0.51641 0.97842 0.79831 0.0
O89 O 0.61297 0.10467 0.74842 0.0
O90 O 0.57616 0.06082 0.79044 0.0
C91 C 0.59295 0.98859 0.6801 0.0
C92 C 0.48446 0.07679 0.70144 0.0
O93 O 0.48848 0.04483 0.72607 0.0
O94 O 0.51785 0.09764 0.68801 0.0
C95 C 0.48111 0.95577 0.79496 0.0
O96 O 0.45831 0.95696 0.75982 0.0
C97 C 0.60346 0.09229 0.78529 0.0
Zn98 Zn 0.90407 0.51601 0.71926 0.0
Zn99 Zn 0.97397 0.49708 0.7637 0.0
O100 O -0.00381 0.54966 0.72836 0.0
O101 O 0.93779 0.56563 0.69213 0.0
O102 O 0.02626 0.48374 0.80101 0.0
O103 O 0.86856 0.5256 0.77044 0.0
O104 O 0.92577 0.50972 0.80839 0.0
C105 C 0.97759 0.57315 0.70133 0.0
C106 C 0.93249 0.43197 0.69928 0.0
O107 O 0.96292 0.44247 0.72559 0.0
O108 O 0.90243 0.4575 0.69195 0.0
C109 C 0.06573 0.49011 0.78978 0.0
O110 O 0.0737 0.50474 0.75171 0.0
C111 C 0.88609 0.52035 0.80611 0.0
Zn112 Zn 0.30186 0.45458 0.06204 0.0
Zn113 Zn 0.25291 0.45578 0.99065 0.0
O114 O 0.29536 0.4075 0.97773 0.0
O115 O 0.33285 0.40547 0.03727 0.0
O116 O 0.20837 0.45574 0.94263 0.0
O117 O 0.2508 0.44142 0.09877 0.0
O118 O 0.21175 0.4455 0.04072 0.0
C119 C 0.32463 0.39106 1.00063 0.0
C120 C 0.3087 0.53617 0.01729 0.0
O121 O 0.28302 0.5166 0.99102 0.0
O122 O 0.3211 0.51684 0.05011 0.0
C123 C 0.2124 0.47443 0.90717 0.0
O124 O 0.24968 0.49454 0.89807 0.0
C125 C 0.21412 0.43997 0.08042 0.0
Zn126 Zn 0.55918 0.30595 0.92162 0.0
Zn127 Zn 0.55407 0.256 0.99112 0.0
O128 O 0.49212 0.27653 0.98161 0.0
O129 O 0.4945 0.31492 0.92355 0.0
O130 O 0.5475 0.21477 0.04011 0.0
O131 O 0.58376 0.25815 0.88902 0.0
O132 O 0.57877 0.21744 0.94555 0.0
C133 C 0.47308 0.29916 0.95418 0.0
C134 C 0.61237 0.33781 0.99164 0.0
O135 O 0.59667 0.30495 0.0113 0.0
O136 O 0.60113 0.34495 0.95395 0.0
C137 C 0.53018 0.2256 0.07445 0.0
O138 O 0.51735 0.26514 0.07857 0.0
C139 C 0.58954 0.22266 0.90723 0.0
Zn140 Zn 0.71133 0.56218 0.11382 0.0
Zn141 Zn 0.76312 0.56728 0.04252 0.0
O142 O 0.7209 0.61527 0.03175 0.0
O143 O 0.68112 0.61336 0.08919 0.0
O144 O 0.8017 0.56449 0.9908 0.0
O145 O 0.76573 0.57062 0.14934 0.0
O146 O 0.80526 0.57743 0.09189 0.0
C147 C 0.6901 0.62966 0.05353 0.0
C148 C 0.7052 0.48578 0.06367 0.0
O149 O 0.73243 0.50787 0.04168 0.0
O150 O 0.69036 0.50157 0.09708 0.0
C151 C 0.78331 0.55239 0.95645 0.0
O152 O 0.74082 0.54544 0.95611 0.0
C153 C 0.80231 0.57699 0.13188 0.0
Zn154 Zn 0.47655 0.7302 0.93129 0.0
Zn155 Zn 0.46626 0.77423 1.00276 0.0
O156 O 0.527 0.74946 0.00965 0.0
O157 O 0.53719 0.71601 0.94971 0.0
O158 O 0.46135 0.81241 0.05512 0.0
O159 O 0.46666 0.78096 0.89529 0.0
O160 O 0.46136 0.81851 0.95374 0.0
C161 C 0.55088 0.72757 0.98589 0.0
C162 C 0.4058 0.69495 0.98045 0.0
O163 O 0.41729 0.72518 0.00623 0.0
O164 O 0.42584 0.6909 0.94618 0.0
C165 C 0.47465 0.80108 0.09139 0.0
O166 O 0.48975 0.76245 0.09573 0.0
C167 C 0.4615 0.81647 0.91357 0.0
C168 C 0.94377 0.33267 0.34076 0.0
C169 C 0.95651 0.33651 0.38338 0.0
C170 C 0.94803 0.36772 0.31322 0.0
C171 C 0.96584 0.40776 0.32712 0.0
H172 H 0.93174 0.30189 0.32815 0.0
H173 H 0.93941 0.36271 0.28037 0.0
S174 S -0.00081 0.43633 0.43667 0.0
N175 N 0.98363 0.38479 0.43903 0.0
N176 N 0.99216 0.45064 0.38711 0.0
C177 C 0.97629 0.41281 0.37016 0.0
C178 C 0.97141 0.37721 0.39836 0.0
C179 C 0.66104 0.94816 0.37401 0.0
C180 C 0.70117 0.97199 0.37718 0.0
C181 C 0.6265 0.96275 0.34926 0.0
C182 C 0.63065 0.00209 0.32752 0.0
H183 H 0.65568 0.91882 0.392 0.0
H184 H 0.59555 0.94456 0.34937 0.0
S185 S 0.72975 0.07452 0.32162 0.0
N186 N 0.74387 0.03506 0.35293 0.0
N187 N 0.6787 0.06274 0.30768 0.0
C188 C 0.67117 0.02496 0.32853 0.0
C189 C 0.70652 0.00982 0.35298 0.0
C190 C 0.08295 0.60274 0.37956 0.0
C191 C 0.10507 0.60996 0.34137 0.0
C192 C 0.08748 0.63246 0.41267 0.0
C193 C 0.11426 0.67002 0.40835 0.0
H194 H 0.05883 0.57637 0.38252 0.0
H195 H 0.06645 0.62825 0.43968 0.0
S196 S 0.18939 0.69638 0.32053 0.0
N197 N 0.16236 0.65174 0.30537 0.0
N198 N 0.17074 0.70767 0.36767 0.0
C199 C 0.14128 0.67413 0.37304 0.0
C200 C 0.13669 0.64401 0.3394 0.0
C201 C 0.37214 0.07402 0.42218 0.0
C202 C 0.34198 0.03858 0.42272 0.0
C203 C 0.40568 0.07701 0.3927 0.0
C204 C 0.41097 0.04465 0.36221 0.0
H205 H 0.37021 0.09978 0.44502 0.0
H206 H 0.42798 0.10503 0.39431 0.0
S207 S 0.34019 0.94527 0.34921 0.0
N208 N 0.319 0.9705 0.38937 0.0
N209 N 0.3823 0.97616 0.33393 0.0
C210 C 0.38059 0.00928 0.36174 0.0
C211 C 0.34613 0.00624 0.39193 0.0
C212 C 0.04783 0.60382 0.67155 0.0
C213 C 0.0028 0.60702 0.67774 0.0
C214 C 0.07084 0.63189 0.64409 0.0
C215 C 0.04974 0.66437 0.62196 0.0
H216 H 0.06508 0.57824 0.68651 0.0
H217 H 0.10507 0.62704 0.63912 0.0
S218 S 0.93342 0.69028 0.63229 0.0
N219 N 0.93897 0.64807 0.66303 0.0
N220 N 0.98193 0.70086 0.61195 0.0
C221 C 0.00524 0.66951 0.63001 0.0
C222 C 0.98188 0.64085 0.65772 0.0
C223 C 0.40356 0.07029 0.70599 0.0
C224 C 0.44094 0.08677 0.68523 0.0
C225 C 0.36221 0.07296 0.68775 0.0
C226 C 0.35696 0.09155 0.6478 0.0
H227 H 0.40638 0.05365 0.73578 0.0
H228 H 0.33462 0.05781 0.70385 0.0
S229 S 0.4434 0.14492 0.58304 0.0
N230 N 0.46935 0.1269 0.62471 0.0
N231 N 0.3915 0.13109 0.59021 0.0
C232 C 0.39356 0.11085 0.62805 0.0
C233 C 0.43563 0.10871 0.64686 0.0
C234 C 0.97154 0.34688 0.62451 0.0
C235 C 0.93245 0.32451 0.61217 0.0
C236 C 0.97198 0.37969 0.65513 0.0
C237 C 0.93322 0.39185 0.674 0.0
H238 H 0.00197 0.33971 0.60971 0.0
H239 H 0.00247 0.39718 0.66235 0.0
S240 S 0.82286 0.34138 0.65594 0.0
N241 N 0.85444 0.31505 0.6241 0.0
N242 N 0.85532 0.3772 0.68058 0.0
C243 C 0.8943 0.36865 0.66334 0.0
C244 C 0.8939 0.33485 0.63275 0.0
C245 C 0.64626 0.93184 0.67296 0.0
C246 C 0.61309 0.95545 0.65501 0.0
C247 C 0.6774 0.91365 0.64734 0.0
C248 C 0.67606 0.91871 0.6032 0.0
H249 H 0.65106 0.93154 0.7068 0.0
H250 H 0.70507 0.89956 0.66249 0.0
S251 S 0.58722 0.96655 0.5416 0.0
N252 N 0.57463 0.97485 0.59129 0.0
N253 N 0.63247 0.93993 0.54282 0.0
C254 C 0.63887 0.93619 0.58504 0.0
C255 C 0.60758 0.95506 0.61116 0.0
C256 C 0.4091 0.34184 0.93318 0.0
C257 C 0.42809 0.31295 0.96147 0.0
C258 C 0.37218 0.36412 0.94421 0.0
C259 C 0.35324 0.3584 0.98395 0.0
H260 H 0.42452 0.34964 0.90345 0.0
H261 H 0.36082 0.38857 0.923 0.0
S262 S 0.38375 0.27969 0.06547 0.0
N263 N 0.41988 0.2744 0.02791 0.0
N264 N 0.35117 0.31694 0.0487 0.0
C265 C 0.36892 0.32643 0.01059 0.0
C266 C 0.40615 0.30344 0.99929 0.0
C267 C 0.34978 0.6039 0.04081 0.0
C268 C 0.32656 0.58068 0.00887 0.0
C269 C 0.37234 0.64327 0.03239 0.0
C270 C 0.37291 0.66064 0.99162 0.0
H271 H 0.35206 0.59078 0.07229 0.0
H272 H 0.39184 0.65858 0.05728 0.0
S273 S 0.31244 0.61645 0.89828 0.0
N274 N 0.30158 0.58106 0.93592 0.0
N275 N 0.34448 0.65454 0.9201 0.0
C276 C 0.3474 0.63947 0.96015 0.0
C277 C 0.32407 0.59966 0.96876 0.0
C278 C 0.63391 0.38299 0.05407 0.0
C279 C 0.642 0.36974 0.01274 0.0
C280 C 0.65618 0.41944 0.07129 0.0
C281 C 0.6876 0.44345 0.04786 0.0
H282 H 0.60838 0.3668 0.07223 0.0
H283 H 0.64729 0.42986 0.10247 0.0
S284 S 0.72558 0.41671 0.94056 0.0
N285 N 0.68677 0.37972 0.9506 0.0
N286 N 0.72939 0.44746 0.98295 0.0
C287 C 0.69838 0.4281 0.00769 0.0
C288 C 0.67532 0.39144 0.9901 0.0
C289 C 0.63176 0.68225 0.06242 0.0
C290 C 0.661 0.662 0.03578 0.0
C291 C 0.59807 0.70626 0.04606 0.0
C292 C 0.59197 0.71059 1.00237 0.0
H293 H 0.63361 0.67794 0.09621 0.0
H294 H 0.5751 0.7192 0.06784 0.0
S295 S 0.66369 0.67 0.9192 0.0
N296 N 0.68484 0.65256 0.96363 0.0
N297 N 0.62132 0.69744 0.93288 0.0
C298 C 0.62298 0.69344 0.97548 0.0
C299 C 0.65758 0.66927 0.99217 0.0
C300 C 0.44186 0.85158 0.84615 0.0
C301 C 0.45914 0.85548 0.88726 0.0
C302 C 0.44657 0.88538 0.81722 0.0
C303 C 0.4695 0.92403 0.8281 0.0
H304 H 0.42605 0.82149 0.83568 0.0
H305 H 0.43439 0.88014 0.78542 0.0
S306 S 0.51622 0.95253 0.93326 0.0
N307 N 0.49606 0.90263 0.93873 0.0
N308 N 0.50565 0.96611 0.88409 0.0
C309 C 0.4845 0.92942 0.86991 0.0
C310 C 0.47906 0.89517 0.89961 0.0
C311 C 0.18045 0.49349 0.83688 0.0
C312 C 0.17462 0.47577 0.87733 0.0
C313 C 0.14529 0.49716 0.80875 0.0
C314 C 0.10252 0.48357 0.81982 0.0
H315 H 0.21247 0.50503 0.82679 0.0
H316 H 0.15178 0.51149 0.77825 0.0
S317 S 0.06944 0.4337 0.92156 0.0
N318 N 0.12249 0.44341 0.92664 0.0
N319 N 0.05659 0.45054 0.87398 0.0
C320 C 0.09622 0.46516 0.85995 0.0
C321 C 0.13214 0.46119 0.88858 0.0
C322 C 0.63036 0.16321 0.81361 0.0
C323 C 0.61482 0.12072 0.82148 0.0
C324 C 0.62541 0.19565 0.84337 0.0
C325 C 0.60533 0.18664 0.88218 0.0
H326 H 0.64248 0.1725 0.78287 0.0
H327 H 0.63457 0.22852 0.8346 0.0
S328 S 0.57197 0.07833 0.92299 0.0
N329 N 0.58815 0.06954 0.87444 0.0
N330 N 0.57897 0.13081 0.93059 0.0
C331 C 0.59578 0.14336 0.89288 0.0
C332 C 0.60064 0.11023 0.86242 0.0
C333 C 0.87996 0.53743 0.88357 0.0
C334 C 0.85982 0.52702 0.84464 0.0
C335 C 0.85516 0.54603 0.91945 0.0
C336 C 0.8092 0.54414 0.91795 0.0
H337 H 0.91516 0.53968 0.88622 0.0
H338 H 0.87222 0.55411 0.94859 0.0
S339 S 0.74052 0.51589 0.82406 0.0
N340 N 0.79098 0.51373 0.80728 0.0
N341 N 0.74475 0.52963 0.87414 0.0
C342 C 0.78875 0.53303 0.87931 0.0
C343 C 0.81391 0.52455 0.84288 0.0
C344 C 0.51599 0.18246 0.18544 0.0
C345 C 0.51988 0.13769 0.18083 0.0
C346 C 0.5186 0.21028 0.15081 0.0
C347 C 0.52582 0.19471 0.11003 0.0
H348 H 0.51102 0.19638 0.21621 0.0
H349 H 0.51574 0.24445 0.15634 0.0
S350 S 0.53678 0.07999 0.08035 0.0
N351 N 0.52992 0.07883 0.13185 0.0
N352 N 0.5354 0.13119 0.06667 0.0
C353 C 0.52914 0.1499 0.1047 0.0
C354 C 0.52594 0.1214 0.14006 0.0
C355 C 0.91933 0.60293 0.16303 0.0
C356 C 0.92411 0.57909 0.20032 0.0
C357 C 0.87928 0.60339 0.14192 0.0
C358 C 0.84235 0.58078 0.15773 0.0
H359 H 0.94719 0.61957 0.14872 0.0
H360 H 0.87752 0.62067 0.11238 0.0
S361 S 0.83642 0.51739 0.25668 0.0
N362 N 0.88782 0.53505 0.25395 0.0
N363 N 0.81211 0.53658 0.21458 0.0
C364 C 0.84594 0.55907 0.19638 0.0
C365 C 0.88696 0.55803 0.21758 0.0
C366 C 0.46858 0.87607 0.12071 0.0
C367 C 0.4767 0.8323 0.12737 0.0
C368 C 0.47363 0.90667 0.15332 0.0
C369 C 0.48699 0.89494 0.19416 0.0
H370 H 0.45919 0.88715 0.08976 0.0
H371 H 0.46786 0.94 0.14609 0.0
S372 S 0.50902 0.78386 0.22928 0.0
N373 N 0.49636 0.77847 0.1789 0.0
N374 N 0.50576 0.83563 0.23985 0.0
C375 C 0.49383 0.85101 0.20161 0.0
C376 C 0.48872 0.81986 0.16839 0.0
C377 C 0.13842 0.46224 0.08991 0.0
C378 C 0.17439 0.44104 0.10604 0.0
C379 C 0.10674 0.47712 0.11682 0.0
C380 C 0.10943 0.47034 0.16045 0.0
H381 H 0.13683 0.47124 0.05701 0.0
H382 H 0.08179 0.4969 0.10379 0.0
S383 S 0.19089 0.40732 0.21687 0.0
N384 N 0.20652 0.40713 0.16725 0.0
N385 N 0.14608 0.43466 0.21775 0.0
C386 C 0.1418 0.4443 0.17625 0.0
C387 C 0.17459 0.42969 0.14896 0.0
C388 C 0.8888 0.81907 0.51844 0.0
C389 C 0.87072 0.84824 0.49022 0.0
C390 C 0.92798 0.80003 0.50968 0.0
C391 C 0.95106 0.80998 0.4726 0.0
H392 H 0.87383 0.81283 0.54872 0.0
H393 H 0.94149 0.7795 0.53354 0.0
S394 S 0.91376 0.8794 0.38549 0.0
N395 N 0.87558 0.8822 0.4215 0.0
N396 N 0.94975 0.84668 0.40484 0.0
C397 C 0.93134 0.83625 0.44241 0.0
C398 C 0.89098 0.85529 0.45126 0.0
C399 C 0.85145 0.11609 0.4627 0.0
C400 C 0.87359 0.14181 0.49332 0.0
C401 C 0.82902 0.07752 0.47352 0.0
C402 C 0.8283 0.06278 0.51537 0.0
H403 H 0.85319 0.12477 0.42971 0.0
H404 H 0.81433 0.058 0.44841 0.0
S405 S 0.87529 0.12155 0.60835 0.0
N406 N 0.88891 0.15254 0.56793 0.0
N407 N 0.84697 0.07974 0.5884 0.0
C408 C 0.8474 0.08984 0.54678 0.0
C409 C 0.8699 0.12948 0.53574 0.0
C410 C 0.15327 0.87684 0.57265 0.0
C411 C 0.16653 0.85614 0.53601 0.0
C412 C 0.17449 0.91544 0.58608 0.0
C413 C 0.20965 0.93426 0.56328 0.0
H414 H 0.12417 0.86528 0.58889 0.0
H415 H 0.16123 0.93202 0.61273 0.0
S416 S 0.26274 0.88606 0.47109 0.0
N417 N 0.22081 0.85264 0.48128 0.0
N418 N 0.26164 0.92443 0.50703 0.0
C419 C 0.22609 0.91094 0.52941 0.0
C420 C 0.20422 0.87202 0.5156 0.0
C421 C 0.10001 0.19226 0.5387 0.0
C422 C 0.09146 0.19253 0.49514 0.0
C423 C 0.135 0.17041 0.55536 0.0
C424 C 0.16314 0.14831 0.52913 0.0
H425 H 0.07823 0.20706 0.56045 0.0
H426 H 0.13899 0.16955 0.58927 0.0
S427 S 0.15888 0.14489 0.4123 0.0
N428 N 0.11685 0.17299 0.42564 0.0
N429 N 0.18288 0.13208 0.45697 0.0
C430 C 0.15696 0.15109 0.48527 0.0
C431 C 0.12103 0.17311 0.46829 0.0
loop_
_geom_bond_atom_site_label_1
_geom_bond_atom_site_label_2
_geom_bond_distance
_geom_bond_site_symmetry_2
_ccdc_geom_bond_type
Zn0 O3 2.031 . S
Zn0 O5 2.049 . S
Zn0 O10 2.067 1_455 S
Zn1 O2 1.962 . S
Zn1 O4 1.986 . S
Zn1 O6 1.996 . S
Zn1 O9 1.943 1_455 S
O2 Zn1 1.962 . S
O2 C7 1.254 . S
O3 Zn0 2.031 . S
O3 C7 1.269 . S
O4 Zn1 1.986 . S
O4 C11 1.262 . S
O5 Zn0 2.049 . S
O5 C13 1.260 . S
O6 Zn1 1.996 . S
O6 C13 1.257 . S
C7 O2 1.254 . S
C7 O3 1.269 . S
C8 O9 1.249 . S
C8 O10 1.270 . S
O9 Zn1 1.943 1_655 S
O9 C8 1.249 . S
O10 Zn0 2.067 1_655 S
O10 C8 1.270 . S
C11 O4 1.262 . S
C11 O12 1.232 . S
O12 C11 1.232 . S
C13 O5 1.260 . S
C13 O6 1.257 . S
Zn14 O17 2.031 1_545 S
Zn14 O19 2.049 . S
Zn14 O24 2.067 . S
Zn15 O16 1.962 1_545 S
Zn15 O18 1.986 . S
Zn15 O20 1.996 . S
Zn15 O23 1.943 . S
O16 Zn15 1.962 1_565 S
O16 C21 1.254 . S
O17 Zn14 2.031 1_565 S
O17 C21 1.269 . S
O18 Zn15 1.986 . S
O18 C25 1.262 . S
O19 Zn14 2.049 . S
O19 C27 1.260 . S
O20 Zn15 1.996 . S
O20 C27 1.257 . S
C21 O16 1.254 . S
C21 O17 1.269 . S
C22 O23 1.249 . S
C22 O24 1.270 . S
O23 Zn15 1.943 . S
O23 C22 1.249 . S
O24 Zn14 2.067 . S
O24 C22 1.270 . S
C25 O18 1.262 . S
C25 O26 1.232 . S
O26 C25 1.232 . S
C27 O19 1.260 . S
C27 O20 1.257 . S
Zn28 O31 2.031 1_455 S
Zn28 O33 2.049 . S
Zn28 O38 2.067 . S
Zn29 O30 1.962 1_455 S
Zn29 O32 1.986 . S
Zn29 O34 1.996 . S
Zn29 O37 1.943 . S
O30 Zn29 1.962 1_655 S
O30 C35 1.254 . S
O31 Zn28 2.031 1_655 S
O31 C35 1.269 . S
O32 Zn29 1.986 . S
O32 C39 1.262 . S
O33 Zn28 2.049 . S
O33 C41 1.260 . S
O34 Zn29 1.996 . S
O34 C41 1.257 . S
C35 O30 1.254 . S
C35 O31 1.269 . S
C36 O37 1.249 . S
C36 O38 1.270 . S
O37 Zn29 1.943 . S
O37 C36 1.249 . S
O38 Zn28 2.067 . S
O38 C36 1.270 . S
C39 O32 1.262 . S
C39 O40 1.232 . S
O40 C39 1.232 . S
C41 O33 1.260 . S
C41 O34 1.257 . S
Zn42 O45 2.031 . S
Zn42 O47 2.049 . S
Zn42 O52 2.067 1_545 S
Zn43 O44 1.962 . S
Zn43 O46 1.986 . S
Zn43 O48 1.996 . S
Zn43 O51 1.943 1_545 S
O44 Zn43 1.962 . S
O44 C49 1.254 . S
O45 Zn42 2.031 . S
O45 C49 1.269 . S
O46 Zn43 1.986 . S
O46 C53 1.262 . S
O47 Zn42 2.049 . S
O47 C55 1.260 . S
O48 Zn43 1.996 . S
O48 C55 1.257 . S
C49 O44 1.254 . S
C49 O45 1.269 . S
C50 O51 1.249 . S
C50 O52 1.270 . S
O51 Zn43 1.943 1_565 S
O51 C50 1.249 . S
O52 Zn42 2.067 1_565 S
O52 C50 1.270 . S
C53 O46 1.262 . S
C53 O54 1.232 . S
O54 C53 1.232 . S
C55 O47 1.260 . S
C55 O48 1.257 . S
Zn56 O59 2.031 . S
Zn56 O61 2.049 . S
Zn56 O66 2.067 . S
Zn57 O58 1.962 . S
Zn57 O60 1.986 1_545 S
Zn57 O62 1.996 . S
Zn57 O65 1.943 . S
O58 Zn57 1.962 . S
O58 C63 1.254 . S
O59 Zn56 2.031 . S
O59 C63 1.269 . S
O60 Zn57 1.986 1_565 S
O60 C67 1.262 . S
O61 Zn56 2.049 . S
O61 C69 1.260 . S
O62 Zn57 1.996 . S
O62 C69 1.257 . S
C63 O58 1.254 . S
C63 O59 1.269 . S
C64 O65 1.249 . S
C64 O66 1.270 . S
O65 Zn57 1.943 . S
O65 C64 1.249 . S
O66 Zn56 2.067 . S
O66 C64 1.270 . S
C67 O60 1.262 . S
C67 O68 1.232 . S
O68 C67 1.232 . S
C69 O61 1.260 . S
C69 O62 1.257 . S
Zn70 O73 2.031 . S
Zn70 O75 2.049 . S
Zn70 O80 2.067 1_455 S
Zn71 O72 1.962 . S
Zn71 O74 1.986 . S
Zn71 O76 1.996 . S
Zn71 O79 1.943 1_455 S
O72 Zn71 1.962 . S
O72 C77 1.254 . S
O73 Zn70 2.031 . S
O73 C77 1.269 . S
O74 Zn71 1.986 . S
O74 C81 1.262 . S
O75 Zn70 2.049 . S
O75 C83 1.260 . S
O76 Zn71 1.996 . S
O76 C83 1.257 . S
C77 O72 1.254 . S
C77 O73 1.269 . S
C78 O79 1.249 . S
C78 O80 1.270 . S
O79 Zn71 1.943 1_655 S
O79 C78 1.249 . S
O80 Zn70 2.067 1_655 S
O80 C78 1.270 . S
C81 O74 1.262 . S
C81 O82 1.232 . S
O82 C81 1.232 . S
C83 O75 1.260 . S
C83 O76 1.257 . S
Zn84 O87 2.031 . S
Zn84 O89 2.049 . S
Zn84 O94 2.067 . S
Zn85 O86 1.962 . S
Zn85 O88 1.986 1_545 S
Zn85 O90 1.996 . S
Zn85 O93 1.943 1_545 S
O86 Zn85 1.962 . S
O86 C91 1.256 . S
O87 Zn84 2.031 . S
O87 C91 1.269 . S
O88 Zn85 1.986 1_565 S
O88 C95 1.262 . S
O89 Zn84 2.049 . S
O89 C97 1.260 . S
O90 Zn85 1.996 . S
O90 C97 1.257 . S
C91 O86 1.256 . S
C91 O87 1.269 . S
C92 O93 1.249 1_545 S
C92 O94 1.270 . S
O93 Zn85 1.943 1_565 S
O93 C92 1.249 1_565 S
O94 Zn84 2.067 . S
O94 C92 1.270 . S
C95 O88 1.262 . S
C95 O96 1.232 . S
O96 C95 1.232 . S
C97 O89 1.260 . S
C97 O90 1.257 . S
Zn98 O101 2.031 . S
Zn98 O103 2.049 . S
Zn98 O108 2.067 . S
Zn99 O100 1.962 . S
Zn99 O102 1.986 . S
Zn99 O104 1.996 1_455 S
Zn99 O107 1.943 . S
O100 Zn99 1.962 . S
O100 C105 1.254 . S
O101 Zn98 2.031 . S
O101 C105 1.269 1_655 S
O102 Zn99 1.986 . S
O102 C109 1.262 . S
O103 Zn98 2.049 . S
O103 C111 1.260 . S
O104 Zn99 1.996 1_655 S
O104 C111 1.257 . S
C105 O100 1.254 . S
C105 O101 1.269 1_455 S
C106 O107 1.249 . S
C106 O108 1.270 1_455 S
O107 Zn99 1.943 . S
O107 C106 1.249 . S
O108 Zn98 2.067 . S
O108 C106 1.270 1_655 S
C109 O102 1.262 . S
C109 O110 1.232 . S
O110 C109 1.232 . S
C111 O103 1.260 . S
C111 O104 1.257 . S
Zn112 O115 2.031 . S
Zn112 O117 2.049 . S
Zn112 O122 2.067 . S
Zn113 O114 1.962 . S
Zn113 O116 1.986 . S
Zn113 O118 1.996 1_556 S
Zn113 O121 1.943 . S
O114 Zn113 1.962 . S
O114 C119 1.254 1_556 S
O115 Zn112 2.031 . S
O115 C119 1.269 . S
O116 Zn113 1.986 . S
O116 C123 1.262 . S
O117 Zn112 2.049 . S
O117 C125 1.260 . S
O118 Zn113 1.996 1_554 S
O118 C125 1.257 . S
C119 O114 1.254 1_554 S
C119 O115 1.269 . S
C120 O121 1.249 1_554 S
C120 O122 1.270 . S
O121 Zn113 1.943 . S
O121 C120 1.249 1_556 S
O122 Zn112 2.067 . S
O122 C120 1.270 . S
C123 O116 1.262 . S
C123 O124 1.232 . S
O124 C123 1.232 . S
C125 O117 1.260 . S
C125 O118 1.257 . S
Zn126 O129 2.031 . S
Zn126 O131 2.049 . S
Zn126 O136 2.067 . S
Zn127 O128 1.962 . S
Zn127 O130 1.986 . S
Zn127 O132 1.996 1_554 S
Zn127 O135 1.943 . S
O128 Zn127 1.962 . S
O128 C133 1.254 . S
O129 Zn126 2.031 . S
O129 C133 1.269 1_556 S
O130 Zn127 1.986 . S
O130 C137 1.262 . S
O131 Zn126 2.049 . S
O131 C139 1.260 . S
O132 Zn127 1.996 1_556 S
O132 C139 1.257 . S
C133 O128 1.254 . S
C133 O129 1.269 1_554 S
C134 O135 1.249 1_556 S
C134 O136 1.270 . S
O135 Zn127 1.943 . S
O135 C134 1.249 1_554 S
O136 Zn126 2.067 . S
O136 C134 1.270 . S
C137 O130 1.262 . S
C137 O138 1.232 . S
O138 C137 1.232 . S
C139 O131 1.260 . S
C139 O132 1.257 . S
Zn140 O143 2.031 . S
Zn140 O145 2.049 . S
Zn140 O150 2.067 . S
Zn141 O142 1.962 . S
Zn141 O144 1.986 . S
Zn141 O146 1.996 1_556 S
Zn141 O149 1.943 . S
O142 Zn141 1.962 . S
O142 C147 1.254 1_556 S
O143 Zn140 2.031 . S
O143 C147 1.269 . S
O144 Zn141 1.986 . S
O144 C151 1.262 . S
O145 Zn140 2.049 . S
O145 C153 1.260 . S
O146 Zn141 1.996 1_554 S
O146 C153 1.257 . S
C147 O142 1.254 1_554 S
C147 O143 1.269 . S
C148 O149 1.249 1_554 S
C148 O150 1.270 . S
O149 Zn141 1.943 . S
O149 C148 1.249 1_556 S
O150 Zn140 2.067 . S
O150 C148 1.270 . S
C151 O144 1.262 . S
C151 O152 1.232 . S
O152 C151 1.232 . S
C153 O145 1.260 . S
C153 O146 1.257 . S
Zn154 O157 2.031 . S
Zn154 O159 2.049 . S
Zn154 O164 2.067 . S
Zn155 O156 1.962 . S
Zn155 O158 1.986 . S
Zn155 O160 1.996 1_554 S
Zn155 O163 1.943 . S
O156 Zn155 1.962 . S
O156 C161 1.254 . S
O157 Zn154 2.031 . S
O157 C161 1.269 1_556 S
O158 Zn155 1.986 . S
O158 C165 1.262 . S
O159 Zn154 2.049 . S
O159 C167 1.260 . S
O160 Zn155 1.996 1_556 S
O160 C167 1.257 . S
C161 O156 1.254 . S
C161 O157 1.269 1_554 S
C162 O163 1.249 1_556 S
C162 O164 1.270 . S
O163 Zn155 1.943 . S
O163 C162 1.249 1_554 S
O164 Zn154 2.067 . S
O164 C162 1.270 . S
C165 O158 1.262 . S
C165 O166 1.232 . S
O166 C165 1.232 . S
C167 O159 1.260 . S
C167 O160 1.257 . S
C168 C169 1.369 . S
C168 C170 1.419 . S
C168 H172 0.930 . S
C169 C168 1.369 . S
C169 C178 1.429 . S
C170 C168 1.419 . S
C170 C171 1.363 . S
C170 H173 0.929 . S
C171 C170 1.363 . S
C171 C177 1.428 . S
H172 C168 0.930 . S
H173 C170 0.929 . S
S174 N175 1.613 . S
S174 N176 1.610 1_655 S
N175 S174 1.613 . S
N175 C178 1.350 1_655 S
N176 S174 1.610 1_455 S
N176 C177 1.351 . S
C177 C171 1.428 . S
C177 N176 1.351 . S
C177 C178 1.434 . S
C178 C169 1.429 . S
C178 N175 1.350 1_455 S
C178 C177 1.434 . S
C179 C180 1.369 . S
C179 C181 1.419 . S
C179 H183 0.930 . S
C180 C179 1.369 . S
C180 C189 1.429 . S
C181 C179 1.419 . S
C181 C182 1.363 . S
C181 H184 0.929 . S
C182 C181 1.363 . S
C182 C188 1.428 . S
H183 C179 0.930 . S
H184 C181 0.929 . S
S185 N186 1.613 . S
S185 N187 1.610 . S
N186 S185 1.613 . S
N186 C189 1.350 . S
N187 S185 1.610 . S
N187 C188 1.351 . S
C188 C182 1.428 . S
C188 N187 1.351 . S
C188 C189 1.434 . S
C189 C180 1.429 . S
C189 N186 1.350 . S
C189 C188 1.434 . S
C190 C191 1.369 . S
C190 C192 1.419 . S
C190 H194 0.930 . S
C191 C190 1.369 . S
C191 C200 1.429 . S
C192 C190 1.419 . S
C192 C193 1.363 . S
C192 H195 0.929 . S
C193 C192 1.363 . S
C193 C199 1.428 . S
H194 C190 0.930 . S
H195 C192 0.929 . S
S196 N197 1.613 . S
S196 N198 1.610 . S
N197 S196 1.613 . S
N197 C200 1.350 . S
N198 S196 1.610 . S
N198 C199 1.351 . S
C199 C193 1.428 . S
C199 N198 1.351 . S
C199 C200 1.434 . S
C200 C191 1.429 . S
C200 N197 1.350 . S
C200 C199 1.434 . S
C201 C202 1.369 . S
C201 C203 1.419 . S
C201 H205 0.930 . S
C202 C201 1.369 . S
C202 C211 1.429 1_545 S
C203 C201 1.419 . S
C203 C204 1.363 . S
C203 H206 0.929 . S
C204 C203 1.363 . S
C204 C210 1.428 1_545 S
H205 C201 0.930 . S
H206 C203 0.929 . S
S207 N208 1.613 . S
S207 N209 1.610 . S
N208 S207 1.613 . S
N208 C211 1.350 . S
N209 S207 1.610 . S
N209 C210 1.351 . S
C210 C204 1.428 1_565 S
C210 N209 1.351 . S
C210 C211 1.434 . S
C211 C202 1.429 1_565 S
C211 N208 1.350 . S
C211 C210 1.434 . S
C212 C213 1.369 . S
C212 C214 1.419 . S
C212 H216 0.930 . S
C213 C212 1.369 . S
C213 C222 1.429 1_455 S
C214 C212 1.419 . S
C214 C215 1.363 . S
C214 H217 0.929 . S
C215 C214 1.363 . S
C215 C221 1.428 1_455 S
H216 C212 0.930 . S
H217 C214 0.929 . S
S218 N219 1.613 . S
S218 N220 1.610 . S
N219 S218 1.613 . S
N219 C222 1.350 . S
N220 S218 1.610 . S
N220 C221 1.351 . S
C221 C215 1.428 1_655 S
C221 N220 1.351 . S
C221 C222 1.434 . S
C222 C213 1.429 1_655 S
C222 N219 1.350 . S
C222 C221 1.434 . S
C223 C224 1.369 1_565 S
C223 C225 1.419 . S
C223 H227 0.930 . S
C224 C223 1.369 1_545 S
C224 C233 1.429 . S
C225 C223 1.419 . S
C225 C226 1.363 1_565 S
C225 H228 0.929 . S
C226 C225 1.363 1_545 S
C226 C232 1.428 . S
H227 C223 0.930 . S
H228 C225 0.929 . S
S229 N230 1.613 . S
S229 N231 1.610 . S
N230 S229 1.613 . S
N230 C233 1.350 . S
N231 S229 1.610 . S
N231 C232 1.351 . S
C232 C226 1.428 . S
C232 N231 1.351 . S
C232 C233 1.434 . S
C233 C224 1.429 . S
C233 N230 1.350 . S
C233 C232 1.434 . S
C234 C235 1.369 . S
C234 C236 1.419 . S
C234 H238 0.930 . S
C235 C234 1.369 . S
C235 C244 1.429 1_455 S
C236 C234 1.419 . S
C236 C237 1.363 . S
C236 H239 0.929 . S
C237 C236 1.363 . S
C237 C243 1.428 1_455 S
H238 C234 0.930 . S
H239 C236 0.929 . S
S240 N241 1.613 . S
S240 N242 1.610 . S
N241 S240 1.613 . S
N241 C244 1.350 . S
N242 S240 1.610 . S
N242 C243 1.351 . S
C243 C237 1.428 1_655 S
C243 N242 1.351 . S
C243 C244 1.434 . S
C244 C235 1.429 1_655 S
C244 N241 1.350 . S
C244 C243 1.434 . S
C245 C246 1.369 . S
C245 C247 1.419 . S
C245 H249 0.930 1_545 S
C246 C245 1.369 . S
C246 C255 1.429 . S
C247 C245 1.419 . S
C247 C248 1.363 . S
C247 H250 0.929 1_545 S
C248 C247 1.363 . S
C248 C254 1.428 . S
H249 C245 0.930 1_565 S
H250 C247 0.929 1_565 S
S251 N252 1.613 . S
S251 N253 1.610 . S
N252 S251 1.613 . S
N252 C255 1.350 . S
N253 S251 1.610 . S
N253 C254 1.351 . S
C254 C248 1.428 . S
C254 N253 1.351 . S
C254 C255 1.434 . S
C255 C246 1.429 . S
C255 N252 1.350 . S
C255 C254 1.434 . S
C256 C257 1.369 1_556 S
C256 C258 1.419 . S
C256 H260 0.930 . S
C257 C256 1.369 1_554 S
C257 C266 1.429 . S
C258 C256 1.419 . S
C258 C259 1.363 1_556 S
C258 H261 0.929 . S
C259 C258 1.363 1_554 S
C259 C265 1.428 . S
H260 C256 0.930 . S
H261 C258 0.929 . S
S262 N263 1.613 . S
S262 N264 1.610 . S
N263 S262 1.613 . S
N263 C266 1.350 . S
N264 S262 1.610 . S
N264 C265 1.351 . S
C265 C259 1.428 . S
C265 N264 1.351 . S
C265 C266 1.434 . S
C266 C257 1.429 . S
C266 N263 1.350 . S
C266 C265 1.434 . S
C267 C268 1.369 . S
C267 C269 1.419 . S
C267 H271 0.930 . S
C268 C267 1.369 . S
C268 C277 1.429 1_554 S
C269 C267 1.419 . S
C269 C270 1.377 . S
C269 H272 0.929 . S
C270 C269 1.377 . S
C270 C276 1.416 1_554 S
H271 C267 0.930 . S
H272 C269 0.929 . S
S273 N274 1.613 . S
S273 N275 1.610 . S
N274 S273 1.613 . S
N274 C277 1.350 . S
N275 S273 1.610 . S
N275 C276 1.351 . S
C276 C270 1.416 1_556 S
C276 N275 1.351 . S
C276 C277 1.434 . S
C277 C268 1.429 1_556 S
C277 N274 1.350 . S
C277 C276 1.434 . S
C278 C279 1.369 . S
C278 C280 1.419 . S
C278 H282 0.930 . S
C279 C278 1.369 . S
C279 C288 1.429 1_554 S
C280 C278 1.419 . S
C280 C281 1.363 . S
C280 H283 0.929 . S
C281 C280 1.363 . S
C281 C287 1.428 1_554 S
H282 C278 0.930 . S
H283 C280 0.929 . S
S284 N285 1.613 . S
S284 N286 1.610 . S
N285 S284 1.613 . S
N285 C288 1.350 . S
N286 S284 1.610 . S
N286 C287 1.351 . S
C287 C281 1.428 1_556 S
C287 N286 1.351 . S
C287 C288 1.434 . S
C288 C279 1.429 1_556 S
C288 N285 1.350 . S
C288 C287 1.434 . S
C289 C290 1.369 . S
C289 C291 1.419 . S
C289 H293 0.930 . S
C290 C289 1.369 . S
C290 C299 1.429 1_554 S
C291 C289 1.419 . S
C291 C292 1.363 . S
C291 H294 0.929 . S
C292 C291 1.363 . S
C292 C298 1.428 1_554 S
H293 C289 0.930 . S
H294 C291 0.929 . S
S295 N296 1.613 . S
S295 N297 1.610 . S
N296 S295 1.613 . S
N296 C299 1.350 . S
N297 S295 1.610 . S
N297 C298 1.351 . S
C298 C292 1.428 1_556 S
C298 N297 1.351 . S
C298 C299 1.434 . S
C299 C290 1.429 1_556 S
C299 N296 1.350 . S
C299 C298 1.434 . S
C300 C301 1.369 . S
C300 C302 1.419 . S
C300 H304 0.930 . S
C301 C300 1.369 . S
C301 C310 1.429 . S
C302 C300 1.419 . S
C302 C303 1.363 . S
C302 H305 0.929 . S
C303 C302 1.363 . S
C303 C309 1.428 . S
H304 C300 0.930 . S
H305 C302 0.929 . S
S306 N307 1.613 . S
S306 N308 1.610 . S
N307 S306 1.613 . S
N307 C310 1.350 . S
N308 S306 1.610 . S
N308 C309 1.351 . S
C309 C303 1.428 . S
C309 N308 1.351 . S
C309 C310 1.434 . S
C310 C301 1.429 . S
C310 N307 1.350 . S
C310 C309 1.434 . S
C311 C312 1.369 . S
C311 C313 1.419 . S
C311 H315 0.930 . S
C312 C311 1.369 . S
C312 C321 1.429 . S
C313 C311 1.419 . S
C313 C314 1.363 . S
C313 H316 0.929 . S
C314 C313 1.363 . S
C314 C320 1.428 . S
H315 C311 0.930 . S
H316 C313 0.929 . S
S317 N318 1.613 . S
S317 N319 1.610 . S
N318 S317 1.613 . S
N318 C321 1.350 . S
N319 S317 1.610 . S
N319 C320 1.351 . S
C320 C314 1.428 . S
C320 N319 1.351 . S
C320 C321 1.434 . S
C321 C312 1.429 . S
C321 N318 1.350 . S
C321 C320 1.434 . S
C322 C323 1.369 . S
C322 C324 1.419 . S
C322 H326 0.930 . S
C323 C322 1.369 . S
C323 C332 1.429 . S
C324 C322 1.419 . S
C324 C325 1.363 . S
C324 H327 0.929 . S
C325 C324 1.363 . S
C325 C331 1.428 . S
H326 C322 0.930 . S
H327 C324 0.929 . S
S328 N329 1.613 . S
S328 N330 1.610 . S
N329 S328 1.613 . S
N329 C332 1.350 . S
N330 S328 1.610 . S
N330 C331 1.351 . S
C331 C325 1.428 . S
C331 N330 1.351 . S
C331 C332 1.434 . S
C332 C323 1.429 . S
C332 N329 1.350 . S
C332 C331 1.434 . S
C333 C334 1.369 . S
C333 C335 1.419 . S
C333 H337 0.930 . S
C334 C333 1.369 . S
C334 C343 1.429 . S
C335 C333 1.419 . S
C335 C336 1.363 . S
C335 H338 0.929 . S
C336 C335 1.363 . S
C336 C342 1.428 . S
H337 C333 0.930 . S
H338 C335 0.929 . S
S339 N340 1.613 . S
S339 N341 1.610 . S
N340 S339 1.613 . S
N340 C343 1.350 . S
N341 S339 1.610 . S
N341 C342 1.351 . S
C342 C336 1.428 . S
C342 N341 1.351 . S
C342 C343 1.434 . S
C343 C334 1.429 . S
C343 N340 1.350 . S
C343 C342 1.434 . S
C344 C345 1.369 . S
C344 C346 1.419 . S
C344 H348 0.930 . S
C345 C344 1.369 . S
C345 C354 1.429 . S
C346 C344 1.419 . S
C346 C347 1.363 . S
C346 H349 0.929 . S
C347 C346 1.363 . S
C347 C353 1.428 . S
H348 C344 0.930 . S
H349 C346 0.929 . S
S350 N351 1.613 . S
S350 N352 1.610 . S
N351 S350 1.613 . S
N351 C354 1.350 . S
N352 S350 1.610 . S
N352 C353 1.351 . S
C353 C347 1.428 . S
C353 N352 1.351 . S
C353 C354 1.434 . S
C354 C345 1.429 . S
C354 N351 1.350 . S
C354 C353 1.434 . S
C355 C356 1.369 . S
C355 C357 1.419 . S
C355 H359 0.930 . S
C356 C355 1.369 . S
C356 C365 1.429 . S
C357 C355 1.419 . S
C357 C358 1.363 . S
C357 H360 0.929 . S
C358 C357 1.363 . S
C358 C364 1.428 . S
H359 C355 0.930 . S
H360 C357 0.929 . S
S361 N362 1.613 . S
S361 N363 1.610 . S
N362 S361 1.613 . S
N362 C365 1.350 . S
N363 S361 1.610 . S
N363 C364 1.351 . S
C364 C358 1.428 . S
C364 N363 1.351 . S
C364 C365 1.434 . S
C365 C356 1.429 . S
C365 N362 1.350 . S
C365 C364 1.434 . S
C366 C367 1.369 . S
C366 C368 1.419 . S
C366 H370 0.930 . S
C367 C366 1.369 . S
C367 C376 1.429 . S
C368 C366 1.419 . S
C368 C369 1.363 . S
C368 H371 0.929 . S
C369 C368 1.363 . S
C369 C375 1.428 . S
H370 C366 0.930 . S
H371 C368 0.929 . S
S372 N373 1.613 . S
S372 N374 1.610 . S
N373 S372 1.613 . S
N373 C376 1.350 . S
N374 S372 1.610 . S
N374 C375 1.351 . S
C375 C369 1.428 . S
C375 N374 1.351 . S
C375 C376 1.434 . S
C376 C367 1.429 . S
C376 N373 1.350 . S
C376 C375 1.434 . S
C377 C378 1.369 . S
C377 C379 1.419 . S
C377 H381 0.930 . S
C378 C377 1.369 . S
C378 C387 1.429 . S
C379 C377 1.419 . S
C379 C380 1.363 . S
C379 H382 0.929 . S
C380 C379 1.363 . S
C380 C386 1.428 . S
H381 C377 0.930 . S
H382 C379 0.929 . S
S383 N384 1.613 . S
S383 N385 1.610 . S
N384 S383 1.613 . S
N384 C387 1.350 . S
N385 S383 1.610 . S
N385 C386 1.351 . S
C386 C380 1.428 . S
C386 N385 1.351 . S
C386 C387 1.434 . S
C387 C378 1.429 . S
C387 N384 1.350 . S
C387 C386 1.434 . S
C388 C389 1.369 . S
C388 C390 1.419 . S
C388 H392 0.930 . S
C389 C388 1.369 . S
C389 C398 1.429 . S
C390 C388 1.419 . S
C390 C391 1.363 . S
C390 H393 0.929 . S
C391 C390 1.363 . S
C391 C397 1.428 . S
H392 C388 0.930 . S
H393 C390 0.929 . S
S394 N395 1.613 . S
S394 N396 1.610 . S
N395 S394 1.613 . S
N395 C398 1.350 . S
N396 S394 1.610 . S
N396 C397 1.351 . S
C397 C391 1.428 . S
C397 N396 1.351 . S
C397 C398 1.434 . S
C398 C389 1.429 . S
C398 N395 1.350 . S
C398 C397 1.434 . S
C399 C400 1.369 . S
C399 C401 1.419 . S
C399 H403 0.930 . S
C400 C399 1.369 . S
C400 C409 1.429 . S
C401 C399 1.419 . S
C401 C402 1.363 . S
C401 H404 0.929 . S
C402 C401 1.363 . S
C402 C408 1.428 . S
H403 C399 0.930 . S
H404 C401 0.929 . S
S405 N406 1.613 . S
S405 N407 1.610 . S
N406 S405 1.613 . S
N406 C409 1.350 . S
N407 S405 1.610 . S
N407 C408 1.351 . S
C408 C402 1.428 . S
C408 N407 1.351 . S
C408 C409 1.434 . S
C409 C400 1.429 . S
C409 N406 1.350 . S
C409 C408 1.434 . S
C410 C411 1.369 . S
C410 C412 1.419 . S
C410 H414 0.930 . S
C411 C410 1.369 . S
C411 C420 1.429 . S
C412 C410 1.419 . S
C412 C413 1.363 . S
C412 H415 0.929 . S
C413 C412 1.363 . S
C413 C419 1.428 . S
H414 C410 0.930 . S
H415 C412 0.929 . S
S416 N417 1.613 . S
S416 N418 1.610 . S
N417 S416 1.613 . S
N417 C420 1.350 . S
N418 S416 1.610 . S
N418 C419 1.351 . S
C419 C413 1.428 . S
C419 N418 1.351 . S
C419 C420 1.434 . S
C420 C411 1.429 . S
C420 N417 1.350 . S
C420 C419 1.434 . S
C421 C422 1.369 . S
C421 C423 1.419 . S
C421 H425 0.930 . S
C422 C421 1.369 . S
C422 C431 1.429 . S
C423 C421 1.419 . S
C423 C424 1.363 . S
C423 H426 0.929 . S
C424 C423 1.363 . S
C424 C430 1.428 . S
H425 C421 0.930 . S
H426 C423 0.929 . S
S427 N428 1.613 . S
S427 N429 1.610 . S
N428 S427 1.613 . S
N428 C431 1.350 . S
N429 S427 1.610 . S
N429 C430 1.351 . S
C430 C424 1.428 . S
C430 N429 1.351 . S
C430 C431 1.434 . S
C431 C422 1.429 . S
C431 N428 1.350 . S
C431 C430 1.434 . S
C169 C13 1.366 . S
C171 C81 1.429 . S
C180 C25 1.338 . S
C182 C64 1.321 . S
C191 C83 1.364 . S
C193 C41 1.363 . S
C202 C53 1.369 . S
C204 C63 1.355 . S
C213 C105 1.418 . S
C215 C39 1.431 . S
C224 C92 1.463 . S
C226 C55 1.429 . S
C235 C11 1.420 . S
C237 C106 1.403 . S
C246 C91 1.461 . S
C248 C27 1.418 . S
C257 C133 1.346 . S
C259 C119 1.343 . S
C268 C120 1.271 . S
C270 C162 1.261 1_554 S
C279 C134 1.316 1_554 S
C281 C148 1.317 . S
C290 C147 1.352 . S
C292 C161 1.348 . S
C301 C167 1.383 . S
C303 C95 1.437 . S
C312 C123 1.228 . S
C314 C109 1.227 . S
C323 C97 1.427 . S
C325 C139 1.427 . S
C334 C111 1.267 . S
C336 C151 1.310 . S
C345 C69 1.319 . S
C347 C137 1.368 . S
C356 C78 1.533 . S
C358 C153 1.490 . S
C367 C165 1.302 . S
C369 C67 1.302 . S
C378 C125 1.429 . S
C380 C77 1.475 . S
C389 C21 1.439 . S
C391 C35 1.436 . S
C400 C8 1.370 . S
C402 C22 1.365 . S
C411 C36 1.432 . S
C413 C50 1.437 . S
C422 C7 1.443 . S
C424 C49 1.442 . S
