# Generated by pormake.
# Topology sxb, (6)-cn, num edge types: 1
# Building blocks:
#     Node 0, Type 0, BuildingBlock: CUKXOW_clean_sbu_0, # of connection points: 6
#     Node 1, Type 0, BuildingBlock: CUKXOW_clean_sbu_0, # of connection points: 6
#     Node 2, Type 0, BuildingBlock: CUKXOW_clean_sbu_0, # of connection points: 6
#     Node 3, Type 0, BuildingBlock: CUKXOW_clean_sbu_0, # of connection points: 6
#     Edge 4, Type (0, 0), BuildingBlock: ZUJKAS_clean_linker_0, # of connection points: 2
#     Edge 5, Type (0, 0), BuildingBlock: ZUJKAS_clean_linker_0, # of connection points: 2
#     Edge 6, Type (0, 0), BuildingBlock: ZUJKAS_clean_linker_0, # of connection points: 2
#     Edge 7, Type (0, 0), BuildingBlock: ZUJKAS_clean_linker_0, # of connection points: 2
#     Edge 8, Type (0, 0), BuildingBlock: ZUJKAS_clean_linker_0, # of connection points: 2
#     Edge 9, Type (0, 0), BuildingBlock: ZUJKAS_clean_linker_0, # of connection points: 2
#     Edge 10, Type (0, 0), BuildingBlock: ZUJKAS_clean_linker_0, # of connection points: 2
#     Edge 11, Type (0, 0), BuildingBlock: ZUJKAS_clean_linker_0, # of connection points: 2
#     Edge 12, Type (0, 0), BuildingBlock: ZUJKAS_clean_linker_0, # of connection points: 2
#     Edge 13, Type (0, 0), BuildingBlock: ZUJKAS_clean_linker_0, # of connection points: 2
#     Edge 14, Type (0, 0), BuildingBlock: ZUJKAS_clean_linker_0, # of connection points: 2
#     Edge 15, Type (0, 0), BuildingBlock: ZUJKAS_clean_linker_0, # of connection points: 2
# Relax obj value: 0.013
# Max RMSD: 0.064
# Mean RMSD: 0.064
data_MOF--net-sxb--node1-CUKXOW_clean_sbu_0--edge1-ZUJKAS_clean_linker_0
_symmetry_space_group_name_H-M    P1
_symmetry_Int_Tables_number       1
_symmetry_cell_setting            triclinic
loop_
_symmetry_equiv_pos_as_xyz
'x, y, z'
_cell_length_a     18.60701
_cell_length_b     41.650583
_cell_length_c     39.60378
_cell_angle_alpha  90.284324
_cell_angle_beta   103.0784
_cell_angle_gamma 90.086346
loop_
_atom_site_label
_atom_site_type_symbol
_atom_site_fract_x
_atom_site_fract_y
_atom_site_fract_z
_atom_type_partial_charge
Tb0 Tb 1.01136 0.02156 0.99518 0.0
C1 C 1.02681 -0.01007 0.92571 0.0
Tb2 Tb 0.05654 0.95055 -0.00373 0.0
O3 O 0.11414 0.03617 0.98162 0.0
O4 O 0.11081 -0.00508 0.01095 0.0
O5 O 0.99404 0.01303 0.93983 0.0
C6 C 0.12103 0.89345 0.99257 0.0
O7 O 0.06101 0.96539 0.94385 0.0
C8 C 0.91741 0.9612 -0.0038 0.0
C9 C 0.042 0.98218 0.06582 0.0
O10 O 0.05357 0.90072 0.97762 0.0
O11 O 0.15238 0.91844 0.00946 0.0
O12 O 0.95368 0.93612 0.00997 0.0
O13 O 0.95725 0.9772 0.98051 0.0
O14 O 0.07462 0.95913 0.05156 0.0
O15 O 1.00748 0.00672 0.04775 0.0
C16 C 0.94663 0.07863 -0.00113 0.0
O17 O 1.01407 0.07138 0.01387 0.0
O18 O 0.9154 0.05363 0.98194 0.0
C19 C 0.15049 0.01109 0.99532 0.0
Tb20 Tb 0.06866 0.02159 0.49684 0.0
C21 C 0.04932 -0.01087 0.56611 0.0
Tb22 Tb 1.02436 0.9459 0.49748 0.0
O23 O 0.95472 0.03976 0.4922 0.0
O24 O 0.97704 -0.0082 0.49257 0.0
O25 O 0.08083 0.01274 0.55196 0.0
C26 C 0.95537 0.89011 0.49825 0.0
O27 O 1.01694 0.96357 0.54858 0.0
C28 C 0.16761 0.95647 0.50277 0.0
C29 C 0.04196 0.97849 0.42808 0.0
O30 O 1.01408 0.89934 0.52068 0.0
O31 O 0.9347 0.91251 0.47529 0.0
O32 O 0.13844 0.92799 0.50145 0.0
O33 O 0.11581 0.97578 0.50178 0.0
O34 O 1.01067 0.95484 0.44229 0.0
O35 O 0.07531 0.00383 0.44567 0.0
C36 C 0.14137 0.07656 0.49701 0.0
O37 O 0.08469 0.06742 0.47327 0.0
O38 O 0.15762 0.05459 0.52077 0.0
C39 C 0.92537 0.0113 0.49115 0.0
Tb40 Tb 0.50854 0.52116 0.99236 0.0
C41 C 0.52416 0.48668 0.92458 0.0
Tb42 Tb 0.55529 0.45027 -0.00296 0.0
O43 O 0.61104 0.53512 0.97819 0.0
O44 O 0.60861 0.49519 0.00957 0.0
O45 O 0.49075 0.51031 0.93755 0.0
C46 C 0.62056 0.39302 -0.00455 0.0
O47 O 0.55938 0.46304 0.94394 0.0
C48 C 0.41579 0.46082 -0.00387 0.0
C49 C 0.53781 0.48465 0.06466 0.0
O50 O 0.55325 0.39998 0.97998 0.0
O51 O 0.65136 0.41839 0.01177 0.0
O52 O 0.45251 0.4363 0.01106 0.0
O53 O 0.45547 0.47623 0.97985 0.0
O54 O 0.57169 0.46101 0.05192 0.0
O55 O 0.50322 0.50833 0.04519 0.0
C56 C 0.44374 0.57849 0.99403 0.0
O57 O 0.51091 0.57141 0.00961 0.0
O58 O 0.41283 0.55321 0.97757 0.0
C59 C 0.64797 0.51068 0.99317 0.0
Tb60 Tb 0.54913 0.52386 0.49557 0.0
C61 C 0.53484 0.488 0.56329 0.0
Tb62 Tb 0.50478 0.45035 0.4916 0.0
O63 O 0.43542 0.54343 0.4864 0.0
O64 O 0.45514 0.49527 0.48795 0.0
O65 O 0.56798 0.51167 0.55021 0.0
C66 C 0.44659 0.3925 0.49564 0.0
O67 O 0.49955 0.46401 0.54419 0.0
C68 C 0.64186 0.46386 0.48988 0.0
C69 C 0.50535 0.48758 0.42296 0.0
O70 O 0.50977 0.40237 0.51394 0.0
O71 O 0.41594 0.41526 0.47498 0.0
O72 O 0.60694 0.43833 0.47603 0.0
O73 O 0.60235 0.47871 0.50676 0.0
O74 O 0.47676 0.46312 0.43705 0.0
O75 O 0.54186 0.51177 0.44131 0.0
C76 C 0.62462 0.57861 0.50006 0.0
O77 O 0.63667 0.5534 0.48267 0.0
O78 O 0.57078 0.57281 0.51505 0.0
C79 C 0.40418 0.51538 0.48469 0.0
H80 H 0.50461 0.6325 0.02801 0.0
H81 H 0.44842 0.68571 0.02771 0.0
H82 H 0.24958 0.65013 0.95951 0.0
H83 H 0.3052 0.5967 0.96022 0.0
H84 H 0.39693 0.72595 0.97244 0.0
H85 H 0.16963 0.69349 0.03563 0.0
H86 H 0.24677 0.66723 0.03578 0.0
H87 H 0.17227 0.66971 -0.00199 0.0
C88 C 0.44872 0.63599 0.01315 0.0
C89 C 0.40911 0.61045 0.99427 0.0
C90 C 0.41672 0.66641 0.01295 0.0
C91 C 0.34436 0.67188 0.99399 0.0
C92 C 0.30486 0.64638 0.97494 0.0
H93 H 0.0593 0.83984 0.95795 0.0
H94 H 0.11497 0.78657 0.95746 0.0
C95 C 0.33682 0.6159 0.97519 0.0
C96 C 0.31127 0.70448 0.99343 0.0
H97 H 0.16659 0.74593 0.01223 0.0
C98 C 0.34673 0.73034 0.98128 0.0
C99 C 0.24566 0.71024 0.0049 0.0
C100 C 0.20661 0.68379 0.01962 0.0
C101 C 0.31782 0.76163 0.97972 0.0
C102 C 0.25226 0.76739 0.99124 0.0
C103 C 0.21675 0.74153 0.00335 0.0
C104 C 0.21954 0.80005 0.99098 0.0
C105 C 0.35689 0.78807 0.96501 0.0
C106 C 0.25952 0.82537 0.01016 0.0
C107 C 0.22787 0.85586 0.01034 0.0
C108 C 0.15541 0.86153 0.9916 0.0
C109 C 0.11535 0.83618 0.97255 0.0
C110 C 0.14705 0.80573 0.97231 0.0
H111 H 0.39345 0.77836 0.9488 0.0
H112 H 0.31678 0.80479 0.94906 0.0
H113 H 0.3917 0.80198 0.98663 0.0
H114 H 0.3149 0.82145 0.02539 0.0
H115 H 0.25984 0.8749 0.02546 0.0
H116 H 0.75932 0.37493 0.02922 0.0
H117 H 0.81556 0.32158 0.02953 0.0
H118 H 0.61607 0.28574 0.9621 0.0
H119 H 0.55997 0.33896 0.96151 0.0
H120 H 0.76633 0.2629 0.05128 0.0
H121 H 0.77613 0.25732 0.91238 0.0
H122 H 0.7615 0.29435 0.93372 0.0
H123 H 0.68666 0.26648 0.91979 0.0
C124 C 0.72772 0.35568 0.01431 0.0
C125 C 0.6554 0.3611 0.99522 0.0
C126 C 0.75982 0.32523 0.01455 0.0
C127 C 0.72044 0.29973 -0.00454 0.0
C128 C 0.64808 0.30514 0.97647 0.0
H129 H 0.80793 0.09725 0.96577 0.0
H130 H 0.75268 0.15072 0.96603 0.0
C131 C 0.61594 0.33554 0.9763 0.0
C132 C 0.75414 0.26726 -0.00386 0.0
H133 H 0.80315 0.20909 0.94445 0.0
C134 C 0.7748 0.25121 0.02796 0.0
C135 C 0.76496 0.25194 0.96569 0.0
C136 C 0.74682 0.26846 0.93098 0.0
C137 C 0.80461 0.22006 0.03005 0.0
C138 C 0.81528 0.20472 -0.00041 0.0
C139 C 0.79474 0.2208 0.96778 0.0
C140 C 0.84832 0.17212 0.00017 0.0
C141 C 0.82278 0.20353 0.06475 0.0
C142 C 0.92061 0.16638 0.01907 0.0
C143 C 0.95221 0.13589 0.01893 0.0
C144 C 0.91224 0.11057 -0.00023 0.0
C145 C 0.83992 0.1163 0.98086 0.0
C146 C 0.80839 0.14683 0.98094 0.0
H147 H 0.79385 0.21479 0.08344 0.0
H148 H 0.80768 0.17769 0.06203 0.0
H149 H 0.88301 0.20533 0.07583 0.0
H150 H 0.95305 0.18562 0.03355 0.0
H151 H 1.0082 0.13223 0.03358 0.0
H152 H 0.10328 0.12511 0.45114 0.0
H153 H 0.16006 0.17833 0.45323 0.0
H154 H 0.3185 0.1522 0.54634 0.0
H155 H 0.26178 0.0987 0.54437 0.0
H156 H 0.17689 0.22301 0.51154 0.0
H157 H 0.44315 0.18922 0.47941 0.0
H158 H 0.36277 0.1635 0.46943 0.0
H159 H 0.41591 0.16673 0.51316 0.0
C160 C 0.15058 0.13062 0.4719 0.0
C161 C 0.1783 0.1079 0.4976 0.0
C162 C 0.18279 0.161 0.47309 0.0
C163 C 0.24362 0.16902 0.49979 0.0
C164 C 0.27206 0.14625 0.52531 0.0
H165 H 0.50437 0.34448 0.53965 0.0
H166 H 0.454 0.29044 0.5425 0.0
C167 C 0.23957 0.11583 0.52422 0.0
C168 C 0.27526 0.2017 0.50141 0.0
H169 H 0.42711 0.24374 0.49224 0.0
C170 C 0.23162 0.22762 0.50738 0.0
C171 C 0.34675 0.20744 0.49615 0.0
C172 C 0.395 0.18036 0.48894 0.0
C173 C 0.2577 0.25929 0.50829 0.0
C174 C 0.32862 0.26516 0.50224 0.0
C175 C 0.37267 0.23915 0.49677 0.0
C176 C 0.35781 0.29813 0.50099 0.0
C177 C 0.20949 0.28609 0.51626 0.0
C178 C 0.32066 0.32025 0.47653 0.0
C179 C 0.34909 0.35115 0.47501 0.0
C180 C 0.41554 0.36024 0.49765 0.0
C181 C 0.45292 0.33805 0.52195 0.0
C182 C 0.42431 0.30721 0.52357 0.0
H183 H 0.16771 0.27713 0.53004 0.0
H184 H 0.24293 0.30507 0.53238 0.0
H185 H 0.17959 0.29709 0.49162 0.0
H186 H 0.27014 0.3135 0.45833 0.0
H187 H 0.31953 0.36779 0.45589 0.0
H188 H 1.01109 0.83878 0.53705 0.0
H189 H 0.95722 0.78521 0.53612 0.0
H190 H 0.76676 0.81636 0.45951 0.0
H191 H 0.82223 0.86985 0.45938 0.0
H192 H 0.83602 0.76566 0.55277 0.0
H193 H 0.81814 0.73571 0.41464 0.0
H194 H 0.86832 0.77021 0.43548 0.0
H195 H 0.76962 0.77183 0.42018 0.0
C196 C 0.95784 0.83415 0.5199 0.0
C197 C 0.92088 0.85829 0.49812 0.0
C198 C 0.92712 0.80355 0.51939 0.0
C199 C 0.85854 0.79655 0.4973 0.0
C200 C 0.82068 0.82091 0.47604 0.0
H201 H 0.58548 0.63486 0.52543 0.0
H202 H 0.64381 0.68734 0.52483 0.0
C203 C 0.85202 0.8515 0.47618 0.0
C204 C 0.82626 0.76397 0.49753 0.0
H205 H 0.75644 0.70025 0.4458 0.0
C206 C 0.81896 0.75131 0.52938 0.0
C207 C 0.80525 0.74499 0.46712 0.0
C208 C 0.8164 0.75621 0.43249 0.0
C209 C 0.79042 0.72042 0.53165 0.0
C210 C 0.76611 0.70206 0.50102 0.0
C211 C 0.77442 0.71448 0.46922 0.0
C212 C 0.73098 0.67012 0.50134 0.0
C213 C 0.78811 0.70761 0.56698 0.0
C214 C 0.75912 0.64311 0.48731 0.0
C215 C 0.72495 0.61314 0.48706 0.0
C216 C 0.66236 0.60978 0.50096 0.0
C217 C 0.63425 0.63676 0.51493 0.0
C218 C 0.66779 0.66673 0.51479 0.0
H219 H 0.82962 0.71969 0.58778 0.0
H220 H 0.73285 0.71227 0.57212 0.0
H221 H 0.79836 0.68135 0.56857 0.0
H222 H 0.8076 0.64523 0.47661 0.0
H223 H 0.74743 0.59265 0.47603 0.0
H224 H 0.24423 0.96753 0.03417 0.0
H225 H 0.37468 0.9585 0.03424 0.0
H226 H 0.36354 0.03193 0.95684 0.0
H227 H 0.23315 0.04057 0.95623 0.0
H228 H 0.43591 0.97605 0.94279 0.0
H229 H 0.54584 0.01903 0.07762 0.0
H230 H 0.47741 -0.01213 0.07323 0.0
H231 H 0.45224 0.02654 0.05433 0.0
C232 C 0.26954 0.98149 0.01698 0.0
C233 C 0.22861 0.00471 0.99517 0.0
C234 C 0.34422 0.97657 0.01728 0.0
C235 C 0.37922 -0.00511 -0.0041 0.0
C236 C 0.33787 0.01765 0.97367 0.0
H237 H 0.82377 0.00466 0.9571 0.0
H238 H 0.69332 0.01379 0.95696 0.0
C239 C 0.26343 0.0226 0.97342 0.0
C240 C 0.45878 -0.00961 -0.00354 0.0
H241 H 0.63197 -0.00354 0.04854 0.0
C242 C 0.47882 0.9806 0.96587 0.0
C243 C 0.51474 -0.00358 0.02657 0.0
C244 C 0.49683 0.00832 0.05976 0.0
C245 C 0.55315 0.97609 0.96475 0.0
C246 C 0.6091 0.98211 0.99487 0.0
C247 C 0.58906 -0.00809 0.02545 0.0
C248 C 0.68867 0.97756 -0.00455 0.0
C249 C 0.57103 0.96415 0.93157 0.0
C250 C 0.72997 0.95487 0.01779 0.0
C251 C 0.80442 0.94988 0.0181 0.0
C252 C 0.8393 0.96766 -0.00371 0.0
C253 C 0.79842 -0.0092 0.97435 0.0
C254 C 0.72373 -0.00423 0.974 0.0
H255 H 0.52203 0.95341 0.91374 0.0
H256 H 0.59038 0.98459 0.91807 0.0
H257 H 0.61566 0.94595 0.93701 0.0
H258 H 0.70426 0.94067 0.03468 0.0
H259 H 0.83466 0.93196 0.03538 0.0
H260 H 0.28079 0.91444 0.51381 0.0
H261 H 0.40936 0.92454 0.51209 0.0
H262 H 0.35788 0.02394 0.48786 0.0
H263 H 0.22878 0.01383 0.4898 0.0
H264 H 0.46497 0.94576 0.4576 0.0
H265 H 0.5376 0.03076 0.56866 0.0
H266 H 0.45506 0.00643 0.56074 0.0
H267 H 0.45842 0.04215 0.53585 0.0
C268 C 0.29703 0.93852 0.50838 0.0
C269 C 0.2452 0.96352 0.50246 0.0
C270 C 0.37046 0.94424 0.50736 0.0
C271 C 0.39362 0.97507 0.50037 0.0
C272 C 0.34171 0.00011 0.49414 0.0
H273 H 0.81254 0.05356 0.47935 0.0
H274 H 0.68363 0.04382 0.48075 0.0
C275 C 0.26803 -0.00562 0.49528 0.0
C276 C 0.47167 0.9805 0.49866 0.0
H277 H 0.62724 0.02288 0.53543 0.0
C278 C 0.50056 0.96256 0.47468 0.0
C279 C 0.51802 0.00239 0.52099 0.0
C280 C 0.4911 0.02136 0.54824 0.0
C281 C 0.57417 0.96625 0.47205 0.0
C282 C 0.62053 -0.01189 0.4944 0.0
C283 C 0.59163 0.00609 0.51834 0.0
C284 C 0.69873 -0.00666 0.49286 0.0
C285 C 0.60113 0.94727 0.44482 0.0
C286 C 0.75036 0.96821 0.49941 0.0
C287 C 0.82423 0.97373 0.49849 0.0
C288 C 0.84753 0.00447 0.49116 0.0
C289 C 0.79595 0.02956 0.48489 0.0
C290 C 0.72232 0.02406 0.48573 0.0
H291 H 0.55466 0.93788 0.42439 0.0
H292 H 0.63724 0.96219 0.43236 0.0
H293 H 0.63377 0.92647 0.45724 0.0
H294 H 0.73382 0.94448 0.5058 0.0
H295 H 0.86326 0.95422 0.50426 0.0
H296 H 0.74227 0.46818 0.03348 0.0
H297 H 0.87292 0.45919 0.03395 0.0
H298 H 0.86113 0.53078 0.95458 0.0
H299 H 0.73054 0.53928 0.9535 0.0
H300 H 0.9342 0.47525 0.94189 0.0
H301 H 0.04342 0.51997 0.07606 0.0
H302 H 0.97585 0.48853 0.07231 0.0
H303 H 0.94955 0.52686 0.05277 0.0
C304 C 0.76749 0.48174 0.01595 0.0
C305 C 0.72629 0.50437 0.99341 0.0
C306 C 0.84229 0.47686 0.01649 0.0
C307 C 0.87717 0.49468 0.99466 0.0
C308 C 0.83558 0.51688 0.97177 0.0
H309 H 0.32195 0.50349 0.95584 0.0
H310 H 0.19142 0.51277 0.95541 0.0
C311 C 0.761 0.52176 0.97124 0.0
C312 C 0.9568 0.4902 0.99537 0.0
H313 H 0.12982 0.49688 0.04746 0.0
C314 C 0.97702 0.48007 0.96493 0.0
C315 C 1.01264 0.49658 0.02543 0.0
C316 C 0.9946 0.50886 0.05844 0.0
C317 C 0.05139 0.47556 0.96391 0.0
C318 C 0.10722 0.48193 0.99398 0.0
C319 C 0.08701 0.49207 0.02441 0.0
C320 C 0.18684 0.47734 0.99471 0.0
C321 C 0.06942 0.46327 0.9309 0.0
C322 C 0.22822 0.45509 0.01762 0.0
C323 C 0.30273 0.45005 0.01813 0.0
C324 C 0.33758 0.46732 -0.00407 0.0
C325 C 0.29662 0.49002 0.9734 0.0
C326 C 0.22188 0.49506 0.97288 0.0
H327 H 1.02058 0.45221 0.91326 0.0
H328 H 0.08831 0.48359 0.91706 0.0
H329 H 0.11438 0.44523 0.93657 0.0
H330 H 0.20254 0.44126 0.03481 0.0
H331 H 0.33303 0.43248 0.03587 0.0
H332 H 0.29361 0.55877 0.46982 0.0
H333 H 0.16357 0.55102 0.47046 0.0
H334 H 0.20571 0.45126 0.49616 0.0
H335 H 0.33661 0.45918 0.49618 0.0
H336 H 0.05804 0.51007 0.4316 0.0
H337 H 0.10537 0.4837 0.57221 0.0
H338 H 0.17586 0.50069 0.55294 0.0
H339 H 0.15565 0.45846 0.54877 0.0
C340 C 0.27506 0.53513 0.47543 0.0
C341 C 0.32502 0.50948 0.48273 0.0
C342 C 0.20076 0.53074 0.47579 0.0
C343 C 0.175 0.50069 0.48379 0.0
C344 C 0.22457 0.4748 0.49044 0.0
H345 H 0.72374 0.43511 0.45001 0.0
H346 H 0.85198 0.44593 0.44838 0.0
C347 C 0.2991 0.47919 0.49 0.0
C348 C 0.09625 0.49671 0.48509 0.0
H349 H 0.98285 0.47746 0.53894 0.0
C350 C 0.04161 0.50297 0.45507 0.0
C351 C 0.07479 0.48803 0.51592 0.0
C352 C 0.13083 0.4826 0.54942 0.0
C353 C 0.96622 0.50012 0.45483 0.0
C354 C 0.94484 0.49037 0.48532 0.0
C355 C 0.99936 0.48478 0.51555 0.0
C356 C 0.8663 0.48467 0.48593 0.0
C357 C 0.91002 0.50785 0.42201 0.0
C358 C 0.83187 0.50256 0.50799 0.0
C359 C 0.75827 0.49634 0.50903 0.0
C360 C 0.71838 0.47194 0.48824 0.0
C361 C 0.75305 0.45414 0.46624 0.0
C362 C 0.82623 0.4604 0.46513 0.0
H363 H 0.93396 0.52306 0.40433 0.0
H364 H 0.89029 0.48518 0.40812 0.0
H365 H 0.86166 0.52042 0.4279 0.0
H366 H 0.86196 0.52129 0.52439 0.0
H367 H 0.73302 0.51023 0.52642 0.0
H368 H 0.98339 0.93073 0.38188 0.0
H369 H 0.98429 0.9276 0.32024 0.0
H370 H 0.09856 0.01841 0.32789 0.0
H371 H 0.09892 0.02169 0.38933 0.0
H372 H 0.92413 0.97054 0.26719 0.0
H373 H 0.2268 0.95952 0.28295 0.0
H374 H 0.18168 0.95332 0.31825 0.0
H375 H 0.20037 -0.00665 0.30563 0.0
C376 C 1.009 0.95 0.37052 0.0
C377 C 0.04146 0.97637 0.39069 0.0
C378 C 1.00939 0.94815 0.3353 0.0
C379 C 0.04259 0.97251 0.31973 0.0
C380 C 0.07411 -0.00098 0.33962 0.0
H381 H 0.98299 0.0246 0.10508 0.0
H382 H 0.9817 0.02029 0.16641 0.0
C383 C 0.07382 0.0009 0.37476 0.0
C384 C 0.0428 0.9708 0.28245 0.0
H385 H 0.15711 0.97198 0.22616 0.0
C386 C 0.97499 0.97057 0.25816 0.0
C387 C 0.10929 0.9704 0.27083 0.0
C388 C 0.18368 0.96884 0.29576 0.0
C389 C 0.97191 0.97102 0.22244 0.0
C390 C 0.03843 0.97228 0.21087 0.0
C391 C 0.10621 0.97142 0.23515 0.0
C392 C 0.03901 0.9748 0.17369 0.0
C393 C 0.89754 0.97002 0.19743 0.0
C394 C 0.07355 0.9511 0.15775 0.0
C395 C 0.07503 0.9536 0.12276 0.0
C396 C 0.04224 0.97998 0.10312 0.0
C397 C 1.00847 0.00389 0.11935 0.0
C398 C 1.00716 0.00137 0.15435 0.0
H399 H 0.85426 0.96014 0.20975 0.0
H400 H 0.88119 -0.00523 0.18872 0.0
H401 H 0.89941 0.95525 0.17422 0.0
H402 H 0.0989 0.93051 0.17234 0.0
H403 H 0.10155 0.93474 0.11113 0.0
H404 H 0.08778 0.94753 0.88731 0.0
H405 H 0.09197 0.9517 0.82638 0.0
H406 H 0.97318 0.04115 0.8188 0.0
H407 H 0.96773 0.03708 0.87976 0.0
H408 H 0.91874 -0.00102 0.76438 0.0
H409 H 0.22207 0.01263 0.78526 0.0
H410 H 0.19482 0.97803 0.80622 0.0
H411 H 0.17389 0.01756 0.81973 0.0
C412 C 0.0625 0.96814 0.87279 0.0
C413 C 1.02761 -0.00796 0.88851 0.0
C414 C 0.06546 0.97057 0.838 0.0
C415 C 1.03413 -0.00297 0.81832 0.0
C416 C 0.9982 0.02067 0.83368 0.0
H417 H 0.10442 0.03775 0.61177 0.0
H418 H 0.09877 0.04214 0.67275 0.0
C419 C 0.99512 0.01827 0.86851 0.0
C420 C 0.03716 -0.00054 0.78142 0.0
H421 H 0.15634 0.00074 0.72739 0.0
C422 C 0.97063 -0.00035 0.75626 0.0
C423 C 0.10495 0.00086 0.77099 0.0
C424 C 0.178 0.00259 0.79696 0.0
C425 C 0.97011 -1e-05 0.7208 0.0
C426 C 0.03794 -0.00038 0.71035 0.0
C427 C 0.10444 0.00066 0.73552 0.0
C428 C 0.04102 -0.00288 0.67344 0.0
C429 C 0.89697 0.00076 0.69484 0.0
C430 C 1.01152 0.97009 0.6539 0.0
C431 C 1.01457 0.96747 0.61912 0.0
C432 C 0.04774 -0.00823 0.60323 0.0
C433 C 0.07831 0.01863 0.6231 0.0
C434 C 0.07515 0.02121 0.65795 0.0
H435 H 0.85235 0.0102 0.7066 0.0
H436 H 0.90019 0.01579 0.67214 0.0
H437 H 0.88158 0.97599 0.68546 0.0
H438 H 0.98643 0.95089 0.66562 0.0
H439 H 0.99083 0.94635 0.60477 0.0
H440 H 0.55001 0.53428 0.38398 0.0
H441 H 0.55068 0.53199 0.32255 0.0
H442 H 0.45213 0.43769 0.31479 0.0
H443 H 0.45031 0.43978 0.37631 0.0
H444 H 0.62479 0.48622 0.29135 0.0
H445 H 0.32355 0.48633 0.2328 0.0
H446 H 0.36124 0.49796 0.27728 0.0
H447 H 0.3541 0.45625 0.26523 0.0
C448 C 0.52765 0.51314 0.36924 0.0
C449 C 0.50007 0.48719 0.38514 0.0
C450 C 0.52824 0.51189 0.33412 0.0
C451 C 0.50103 0.48479 0.31416 0.0
C452 C 0.4723 0.45904 0.32968 0.0
H453 H 0.59589 0.43938 0.11321 0.0
H454 H 0.58769 0.43798 0.17398 0.0
C455 C 0.47153 0.46027 0.36487 0.0
C456 C 0.5062 0.48305 0.27752 0.0
H457 H 0.40328 0.47877 0.19458 0.0
C458 C 0.57644 0.48454 0.27015 0.0
C459 C 0.44288 0.48107 0.25006 0.0
C460 C 0.36606 0.48057 0.25656 0.0
C461 C 0.58512 0.48424 0.2359 0.0
C462 C 0.52187 0.48191 0.20844 0.0
C463 C 0.45162 0.48032 0.2158 0.0
C464 C 0.52718 0.48253 0.1718 0.0
C465 C 0.66165 0.48728 0.22936 0.0
C466 C 0.49495 0.5078 0.15046 0.0
C467 C 0.49928 0.50866 0.11579 0.0
C468 C 0.53571 0.48413 0.10175 0.0
C469 C 0.56789 0.45877 0.12324 0.0
C470 C 0.56345 0.45794 0.15798 0.0
H471 H 0.70222 0.49593 0.25271 0.0
H472 H 0.68009 0.46342 0.22209 0.0
H473 H 0.66194 0.50404 0.20768 0.0
H474 H 0.46663 0.52696 0.16072 0.0
H475 H 0.47364 0.52851 0.10001 0.0
H476 H 0.59237 0.53435 0.61126 0.0
H477 H 0.59194 0.53499 0.67297 0.0
H478 H 0.48171 0.44311 0.66196 0.0
H479 H 0.48079 0.44235 0.6003 0.0
H480 H 0.41736 0.48812 0.69772 0.0
H481 H 0.72031 0.48123 0.75003 0.0
H482 H 0.691 0.51333 0.71995 0.0
H483 H 0.67767 0.47239 0.7053 0.0
C484 C 0.5684 0.51417 0.62197 0.0
C485 C 0.53678 0.48826 0.60082 0.0
C486 C 0.56853 0.51454 0.65727 0.0
C487 C 0.53762 0.48891 0.67202 0.0
C488 C 0.50603 0.46306 0.65102 0.0
H489 H 0.58343 0.44212 0.88786 0.0
H490 H 0.58481 0.44329 0.82637 0.0
C491 C 0.50567 0.46269 0.61577 0.0
C492 C 0.53612 0.48929 0.70916 0.0
H493 H 0.64631 0.48979 0.79072 0.0
C494 C 0.46735 0.48848 0.7181 0.0
C495 C 0.60154 0.48942 0.73555 0.0
C496 C 0.67689 0.48885 0.72736 0.0
C497 C 0.46217 0.48794 0.75285 0.0
C498 C 0.52755 0.48876 0.77926 0.0
C499 C 0.59634 0.48941 0.77033 0.0
C500 C 0.52581 0.48821 0.81636 0.0
C501 C 0.3869 0.48576 0.76099 0.0
C502 C 0.49256 0.51323 0.83105 0.0
C503 C 0.49133 0.51261 0.86616 0.0
C504 C 0.52388 0.48704 0.88723 0.0
C505 C 0.55762 0.46213 0.87239 0.0
C506 C 0.55865 0.46276 0.83728 0.0
H507 H 0.34428 0.4774 0.73824 0.0
H508 H 0.38756 0.46916 0.78291 0.0
H509 H 0.3705 0.50988 0.76855 0.0
H510 H 0.46813 0.53338 0.81542 0.0
H511 H 0.4654 0.53231 0.87678 0.0
loop_
_geom_bond_atom_site_label_1
_geom_bond_atom_site_label_2
_geom_bond_distance
_geom_bond_site_symmetry_2
_ccdc_geom_bond_type
Tb0 O3 2.453 . S
Tb0 O4 2.596 1_545 S
Tb0 O5 2.374 1_454 S
Tb0 O13 2.343 1_454 S
Tb0 O15 2.353 . S
Tb0 O17 2.427 1_455 S
Tb0 O18 2.513 1_454 S
C1 O5 1.251 . S
C1 O7 1.263 1_545 S
Tb2 O4 2.343 1_656 S
Tb2 O7 2.353 . S
Tb2 O10 2.427 1_655 S
Tb2 O11 2.513 1_656 S
Tb2 O12 2.453 . S
Tb2 O13 2.596 1_565 S
Tb2 O14 2.374 1_656 S
O3 Tb0 2.453 . S
O3 C19 1.245 . S
O4 Tb0 2.596 1_565 S
O4 Tb2 2.343 1_454 S
O4 C19 1.259 1_565 S
O5 Tb0 2.374 1_656 S
O5 C1 1.251 . S
C6 O10 1.275 1_554 S
C6 O11 1.246 . S
O7 C1 1.263 1_565 S
O7 Tb2 2.353 . S
C8 O12 1.245 . S
C8 O13 1.259 1_565 S
C9 O14 1.250 . S
C9 O15 1.263 1_565 S
O10 Tb2 2.427 1_455 S
O10 C6 1.275 1_556 S
O11 Tb2 2.513 1_454 S
O11 C6 1.246 . S
O12 Tb2 2.453 . S
O12 C8 1.245 . S
O13 Tb0 2.343 1_656 S
O13 Tb2 2.596 1_545 S
O13 C8 1.259 1_545 S
O14 Tb2 2.374 1_454 S
O14 C9 1.250 . S
O15 Tb0 2.353 . S
O15 C9 1.263 1_545 S
C16 O17 1.275 1_556 S
C16 O18 1.246 . S
O17 Tb0 2.427 1_655 S
O17 C16 1.275 1_554 S
O18 Tb0 2.513 1_656 S
O18 C16 1.246 . S
C19 O3 1.245 . S
C19 O4 1.259 1_545 S
Tb20 O23 2.453 . S
Tb20 O24 2.596 1_545 S
Tb20 O25 2.374 1_655 S
Tb20 O33 2.343 1_655 S
Tb20 O35 2.353 . S
Tb20 O37 2.427 1_655 S
Tb20 O38 2.513 1_655 S
C21 O25 1.251 . S
C21 O27 1.263 1_545 S
Tb22 O24 2.343 1_455 S
Tb22 O27 2.353 . S
Tb22 O30 2.427 1_455 S
Tb22 O31 2.513 1_455 S
Tb22 O32 2.453 . S
Tb22 O33 2.596 1_565 S
Tb22 O34 2.374 1_455 S
O23 Tb20 2.453 . S
O23 C39 1.245 . S
O24 Tb20 2.596 1_565 S
O24 Tb22 2.343 1_655 S
O24 C39 1.259 1_565 S
O25 Tb20 2.374 1_455 S
O25 C21 1.251 . S
C26 O30 1.275 . S
C26 O31 1.246 . S
O27 C21 1.263 1_565 S
O27 Tb22 2.353 . S
C28 O32 1.245 . S
C28 O33 1.259 1_565 S
C29 O34 1.250 . S
C29 O35 1.263 1_565 S
O30 Tb22 2.427 1_655 S
O30 C26 1.275 . S
O31 Tb22 2.513 1_655 S
O31 C26 1.246 . S
O32 Tb22 2.453 . S
O32 C28 1.245 . S
O33 Tb20 2.343 1_455 S
O33 Tb22 2.596 1_545 S
O33 C28 1.259 1_545 S
O34 Tb22 2.374 1_655 S
O34 C29 1.250 . S
O35 Tb20 2.353 . S
O35 C29 1.263 1_545 S
C36 O37 1.275 . S
C36 O38 1.246 . S
O37 Tb20 2.427 1_455 S
O37 C36 1.275 . S
O38 Tb20 2.513 1_455 S
O38 C36 1.246 . S
C39 O23 1.245 . S
C39 O24 1.259 1_545 S
Tb40 O43 2.453 . S
Tb40 O44 2.596 . S
Tb40 O45 2.374 1_554 S
Tb40 O53 2.343 1_554 S
Tb40 O55 2.353 . S
Tb40 O57 2.427 . S
Tb40 O58 2.513 1_554 S
C41 O45 1.251 . S
C41 O47 1.263 . S
Tb42 O44 2.343 1_556 S
Tb42 O47 2.353 . S
Tb42 O50 2.427 . S
Tb42 O51 2.513 1_556 S
Tb42 O52 2.453 . S
Tb42 O53 2.596 . S
Tb42 O54 2.374 1_556 S
O43 Tb40 2.453 . S
O43 C59 1.245 . S
O44 Tb40 2.596 . S
O44 Tb42 2.343 1_554 S
O44 C59 1.259 . S
O45 Tb40 2.374 1_556 S
O45 C41 1.251 . S
C46 O50 1.275 1_554 S
C46 O51 1.246 . S
O47 C41 1.263 . S
O47 Tb42 2.353 . S
C48 O52 1.245 . S
C48 O53 1.259 . S
C49 O54 1.250 . S
C49 O55 1.263 . S
O50 Tb42 2.427 . S
O50 C46 1.275 1_556 S
O51 Tb42 2.513 1_554 S
O51 C46 1.246 . S
O52 Tb42 2.453 . S
O52 C48 1.245 . S
O53 Tb40 2.343 1_556 S
O53 Tb42 2.596 . S
O53 C48 1.259 . S
O54 Tb42 2.374 1_554 S
O54 C49 1.250 . S
O55 Tb40 2.353 . S
O55 C49 1.263 . S
C56 O57 1.275 1_556 S
C56 O58 1.246 . S
O57 Tb40 2.427 . S
O57 C56 1.275 1_554 S
O58 Tb40 2.513 1_556 S
O58 C56 1.246 . S
C59 O43 1.245 . S
C59 O44 1.259 . S
Tb60 O63 2.453 . S
Tb60 O64 2.596 . S
Tb60 O65 2.374 . S
Tb60 O73 2.343 . S
Tb60 O75 2.353 . S
Tb60 O77 2.427 . S
Tb60 O78 2.513 . S
C61 O65 1.251 . S
C61 O67 1.263 . S
Tb62 O64 2.343 . S
Tb62 O67 2.353 . S
Tb62 O70 2.427 . S
Tb62 O71 2.513 . S
Tb62 O72 2.453 . S
Tb62 O73 2.596 . S
Tb62 O74 2.374 . S
O63 Tb60 2.453 . S
O63 C79 1.245 . S
O64 Tb60 2.596 . S
O64 Tb62 2.343 . S
O64 C79 1.259 . S
O65 Tb60 2.374 . S
O65 C61 1.251 . S
C66 O70 1.275 . S
C66 O71 1.246 . S
O67 C61 1.263 . S
O67 Tb62 2.353 . S
C68 O72 1.245 . S
C68 O73 1.259 . S
C69 O74 1.250 . S
C69 O75 1.263 . S
O70 Tb62 2.427 . S
O70 C66 1.275 . S
O71 Tb62 2.513 . S
O71 C66 1.246 . S
O72 Tb62 2.453 . S
O72 C68 1.245 . S
O73 Tb60 2.343 . S
O73 Tb62 2.596 . S
O73 C68 1.259 . S
O74 Tb62 2.374 . S
O74 C69 1.250 . S
O75 Tb60 2.353 . S
O75 C69 1.263 . S
C76 O77 1.275 . S
C76 O78 1.246 . S
O77 Tb60 2.427 . S
O77 C76 1.275 . S
O78 Tb60 2.513 . S
O78 C76 1.246 . S
C79 O63 1.245 . S
C79 O64 1.259 . S
H80 C88 0.929 . S
H81 C90 0.930 . S
H82 C92 0.930 . S
H83 C95 0.929 . S
H84 C98 0.930 . S
H85 C100 0.960 . S
H86 C100 0.960 . S
H87 C100 0.960 . S
C88 H80 0.929 . S
C88 C89 1.377 1_554 S
C88 C90 1.384 . S
C89 C88 1.377 1_556 S
C89 C95 1.390 . S
C90 H81 0.930 . S
C90 C88 1.384 . S
C90 C91 1.388 . S
C91 C90 1.388 . S
C91 C92 1.381 1_554 S
C91 C96 1.493 . S
C92 H82 0.930 . S
C92 C91 1.381 1_556 S
C92 C95 1.386 . S
H93 C109 0.930 . S
H94 C110 0.931 . S
C95 H83 0.929 . S
C95 C89 1.390 . S
C95 C92 1.386 . S
C96 C91 1.493 . S
C96 C98 1.395 . S
C96 C99 1.403 1_554 S
H97 C103 0.930 . S
C98 H84 0.930 . S
C98 C96 1.395 . S
C98 C101 1.403 . S
C99 C96 1.403 1_556 S
C99 C100 1.524 . S
C99 C103 1.400 . S
C100 H85 0.960 . S
C100 H86 0.960 . S
C100 H87 0.960 . S
C100 C99 1.524 . S
C101 C98 1.403 . S
C101 C102 1.392 . S
C101 C105 1.495 . S
C102 C101 1.392 . S
C102 C103 1.385 1_554 S
C102 C104 1.478 . S
C103 H97 0.930 . S
C103 C99 1.400 . S
C103 C102 1.385 1_556 S
C104 C102 1.478 . S
C104 C106 1.381 . S
C104 C110 1.383 1_554 S
C105 C101 1.495 . S
C105 H111 0.959 . S
C105 H112 0.961 . S
C105 H113 0.960 . S
C106 C104 1.381 . S
C106 C107 1.394 . S
C106 H114 0.930 . S
C107 C106 1.394 . S
C107 C108 1.383 . S
C107 H115 0.929 . S
C108 C107 1.383 . S
C108 C109 1.377 1_554 S
C109 H93 0.930 . S
C109 C108 1.377 1_556 S
C109 C110 1.379 . S
C110 H94 0.931 . S
C110 C104 1.383 1_556 S
C110 C109 1.379 . S
H111 C105 0.959 . S
H112 C105 0.961 . S
H113 C105 0.960 . S
H114 C106 0.930 . S
H115 C107 0.929 . S
H116 C124 0.929 . S
H117 C126 0.930 . S
H118 C128 0.930 . S
H119 C131 0.929 . S
H120 C134 0.930 . S
H121 C136 0.960 . S
H122 C136 0.960 . S
H123 C136 0.960 . S
C124 H116 0.929 . S
C124 C125 1.377 . S
C124 C126 1.384 . S
C125 C124 1.377 . S
C125 C131 1.390 1_554 S
C126 H117 0.930 . S
C126 C124 1.384 . S
C126 C127 1.372 . S
C127 C126 1.372 . S
C127 C128 1.400 1_554 S
C127 C132 1.490 . S
C128 H118 0.930 . S
C128 C127 1.400 1_556 S
C128 C131 1.386 . S
H129 C145 0.930 . S
H130 C146 0.931 . S
C131 H119 0.929 . S
C131 C125 1.390 1_556 S
C131 C128 1.386 . S
C132 C127 1.490 . S
C132 C134 1.395 . S
C132 C135 1.403 1_554 S
H133 C139 0.930 . S
C134 H120 0.930 . S
C134 C132 1.395 . S
C134 C137 1.403 . S
C135 C132 1.403 1_556 S
C135 C136 1.524 . S
C135 C139 1.400 . S
C136 H121 0.960 . S
C136 H122 0.960 . S
C136 H123 0.960 . S
C136 C135 1.524 . S
C137 C134 1.403 . S
C137 C138 1.392 . S
C137 C141 1.495 . S
C138 C137 1.392 . S
C138 C139 1.385 1_554 S
C138 C140 1.478 . S
C139 H133 0.930 . S
C139 C135 1.400 . S
C139 C138 1.385 1_556 S
C140 C138 1.478 . S
C140 C142 1.381 . S
C140 C146 1.383 1_554 S
C141 C137 1.495 . S
C141 H147 0.959 . S
C141 H148 0.961 . S
C141 H149 0.960 . S
C142 C140 1.381 . S
C142 C143 1.394 . S
C142 H150 0.930 . S
C143 C142 1.394 . S
C143 C144 1.383 1_554 S
C143 H151 0.929 . S
C144 C143 1.383 1_556 S
C144 C145 1.377 . S
C145 H129 0.930 . S
C145 C144 1.377 . S
C145 C146 1.379 . S
C146 H130 0.931 . S
C146 C140 1.383 1_556 S
C146 C145 1.379 . S
H147 C141 0.959 . S
H148 C141 0.961 . S
H149 C141 0.960 . S
H150 C142 0.930 . S
H151 C143 0.929 . S
H152 C160 0.929 . S
H153 C162 0.930 . S
H154 C164 0.930 . S
H155 C167 0.929 . S
H156 C170 0.930 . S
H157 C172 0.960 . S
H158 C172 0.960 . S
H159 C172 0.960 . S
C160 H152 0.929 . S
C160 C161 1.377 . S
C160 C162 1.384 . S
C161 C160 1.377 . S
C161 C167 1.390 . S
C162 H153 0.930 . S
C162 C160 1.384 . S
C162 C163 1.372 . S
C163 C162 1.372 . S
C163 C164 1.400 . S
C163 C168 1.490 . S
C164 H154 0.930 . S
C164 C163 1.400 . S
C164 C167 1.386 . S
H165 C181 0.930 . S
H166 C182 0.931 . S
C167 H155 0.929 . S
C167 C161 1.390 . S
C167 C164 1.386 . S
C168 C163 1.490 . S
C168 C170 1.395 . S
C168 C171 1.403 . S
H169 C175 0.930 . S
C170 H156 0.930 . S
C170 C168 1.395 . S
C170 C173 1.403 . S
C171 C168 1.403 . S
C171 C172 1.524 . S
C171 C175 1.400 . S
C172 H157 0.960 . S
C172 H158 0.960 . S
C172 H159 0.960 . S
C172 C171 1.524 . S
C173 C170 1.403 . S
C173 C174 1.392 . S
C173 C177 1.495 . S
C174 C173 1.392 . S
C174 C175 1.385 . S
C174 C176 1.478 . S
C175 H169 0.930 . S
C175 C171 1.400 . S
C175 C174 1.385 . S
C176 C174 1.478 . S
C176 C178 1.381 . S
C176 C182 1.383 . S
C177 C173 1.495 . S
C177 H183 0.959 . S
C177 H184 0.961 . S
C177 H185 0.960 . S
C178 C176 1.381 . S
C178 C179 1.394 . S
C178 H186 0.930 . S
C179 C178 1.394 . S
C179 C180 1.383 . S
C179 H187 0.929 . S
C180 C179 1.383 . S
C180 C181 1.377 . S
C181 H165 0.930 . S
C181 C180 1.377 . S
C181 C182 1.379 . S
C182 H166 0.931 . S
C182 C176 1.383 . S
C182 C181 1.379 . S
H183 C177 0.959 . S
H184 C177 0.961 . S
H185 C177 0.960 . S
H186 C178 0.930 . S
H187 C179 0.929 . S
H188 C196 0.929 . S
H189 C198 0.930 . S
H190 C200 0.930 . S
H191 C203 0.929 . S
H192 C206 0.930 . S
H193 C208 0.960 . S
H194 C208 0.960 . S
H195 C208 0.960 . S
C196 H188 0.929 . S
C196 C197 1.377 . S
C196 C198 1.384 . S
C197 C196 1.377 . S
C197 C203 1.390 . S
C198 H189 0.930 . S
C198 C196 1.384 . S
C198 C199 1.372 . S
C199 C198 1.372 . S
C199 C200 1.400 . S
C199 C204 1.490 . S
C200 H190 0.930 . S
C200 C199 1.400 . S
C200 C203 1.386 . S
H201 C217 0.930 . S
H202 C218 0.931 . S
C203 H191 0.929 . S
C203 C197 1.390 . S
C203 C200 1.386 . S
C204 C199 1.490 . S
C204 C206 1.395 . S
C204 C207 1.403 . S
H205 C211 0.930 . S
C206 H192 0.930 . S
C206 C204 1.395 . S
C206 C209 1.403 . S
C207 C204 1.403 . S
C207 C208 1.524 . S
C207 C211 1.400 . S
C208 H193 0.960 . S
C208 H194 0.960 . S
C208 H195 0.960 . S
C208 C207 1.524 . S
C209 C206 1.403 . S
C209 C210 1.392 . S
C209 C213 1.495 . S
C210 C209 1.392 . S
C210 C211 1.385 . S
C210 C212 1.478 . S
C211 H205 0.930 . S
C211 C207 1.400 . S
C211 C210 1.385 . S
C212 C210 1.478 . S
C212 C214 1.381 . S
C212 C218 1.383 . S
C213 C209 1.495 . S
C213 H219 0.959 . S
C213 H220 0.961 . S
C213 H221 0.960 . S
C214 C212 1.381 . S
C214 C215 1.394 . S
C214 H222 0.930 . S
C215 C214 1.394 . S
C215 C216 1.383 . S
C215 H223 0.929 . S
C216 C215 1.383 . S
C216 C217 1.377 . S
C217 H201 0.930 . S
C217 C216 1.377 . S
C217 C218 1.379 . S
C218 H202 0.931 . S
C218 C212 1.383 . S
C218 C217 1.379 . S
H219 C213 0.959 . S
H220 C213 0.961 . S
H221 C213 0.960 . S
H222 C214 0.930 . S
H223 C215 0.929 . S
H224 C232 0.929 . S
H225 C234 0.930 . S
H226 C236 0.930 . S
H227 C239 0.929 . S
H228 C242 0.930 . S
H229 C244 0.960 . S
H230 C244 0.960 . S
H231 C244 0.960 1_556 S
C232 H224 0.929 . S
C232 C233 1.371 1_554 S
C232 C234 1.384 . S
C233 C232 1.371 1_556 S
C233 C239 1.398 1_565 S
C234 H225 0.930 . S
C234 C232 1.384 . S
C234 C235 1.372 . S
C235 C234 1.372 . S
C235 C236 1.400 1_564 S
C235 C240 1.490 . S
C236 H226 0.930 . S
C236 C235 1.400 1_546 S
C236 C239 1.386 . S
H237 C253 0.930 . S
H238 C254 0.931 . S
C239 H227 0.929 . S
C239 C233 1.398 1_545 S
C239 C236 1.386 . S
C240 C235 1.490 . S
C240 C242 1.395 1_554 S
C240 C243 1.403 1_565 S
H241 C247 0.930 . S
C242 H228 0.930 . S
C242 C240 1.395 1_556 S
C242 C245 1.403 . S
C243 C240 1.403 1_545 S
C243 C244 1.524 . S
C243 C247 1.400 . S
C244 H229 0.960 . S
C244 H230 0.960 . S
C244 H231 0.960 1_554 S
C244 C243 1.524 . S
C245 C242 1.403 . S
C245 C246 1.393 1_556 S
C245 C249 1.495 . S
C246 C245 1.393 1_554 S
C246 C247 1.389 1_565 S
C246 C248 1.472 1_554 S
C247 H241 0.930 . S
C247 C243 1.400 . S
C247 C246 1.389 1_545 S
C248 C246 1.472 1_556 S
C248 C250 1.378 1_556 S
C248 C254 1.386 1_565 S
C249 C245 1.495 . S
C249 H255 0.959 . S
C249 H256 0.961 . S
C249 H257 0.960 1_556 S
C250 C248 1.378 1_554 S
C250 C251 1.394 . S
C250 H258 0.930 . S
C251 C250 1.394 . S
C251 C252 1.398 1_565 S
C251 H259 0.929 . S
C252 C251 1.398 1_545 S
C252 C253 1.367 1_554 S
C253 H237 0.930 . S
C253 C252 1.367 1_556 S
C253 C254 1.379 . S
C254 H238 0.931 . S
C254 C248 1.386 1_545 S
C254 C253 1.379 . S
H255 C249 0.959 . S
H256 C249 0.961 . S
H257 C249 0.960 1_554 S
H258 C250 0.930 . S
H259 C251 0.929 . S
H260 C268 0.929 . S
H261 C270 0.930 . S
H262 C272 0.930 . S
H263 C275 0.929 . S
H264 C278 0.930 . S
H265 C280 0.960 . S
H266 C280 0.960 . S
H267 C280 0.960 1_545 S
C268 H260 0.929 . S
C268 C269 1.377 1_565 S
C268 C270 1.384 . S
C269 C268 1.377 1_545 S
C269 C275 1.390 . S
C270 H261 0.930 . S
C270 C268 1.384 . S
C270 C271 1.348 1_565 S
C271 C270 1.348 1_545 S
C271 C272 1.426 . S
C271 C276 1.489 1_545 S
C272 H262 0.930 . S
C272 C271 1.426 . S
C272 C275 1.386 . S
H273 C289 0.930 . S
H274 C290 0.931 . S
C275 H263 0.929 . S
C275 C269 1.390 . S
C275 C272 1.386 . S
C276 C271 1.489 1_565 S
C276 C278 1.394 1_565 S
C276 C279 1.403 . S
H277 C283 0.930 . S
C278 H264 0.930 . S
C278 C276 1.394 1_545 S
C278 C281 1.403 . S
C279 C276 1.403 . S
C279 C280 1.524 . S
C279 C283 1.400 . S
C280 H265 0.960 . S
C280 H266 0.960 . S
C280 H267 0.960 1_565 S
C280 C279 1.524 . S
C281 C278 1.403 . S
C281 C282 1.392 1_545 S
C281 C285 1.495 . S
C282 C281 1.392 1_565 S
C282 C283 1.385 . S
C282 C284 1.478 . S
C283 H277 0.930 . S
C283 C279 1.400 . S
C283 C282 1.385 . S
C284 C282 1.478 . S
C284 C286 1.381 . S
C284 C290 1.383 1_565 S
C285 C281 1.495 . S
C285 H291 0.959 . S
C285 H292 0.961 . S
C285 H293 0.960 1_545 S
C286 C284 1.381 . S
C286 C287 1.394 . S
C286 H294 0.930 . S
C287 C286 1.394 . S
C287 C288 1.383 . S
C287 H295 0.929 . S
C288 C287 1.383 . S
C288 C289 1.377 1_565 S
C289 H273 0.930 . S
C289 C288 1.377 1_545 S
C289 C290 1.379 . S
C290 H274 0.931 . S
C290 C284 1.383 1_545 S
C290 C289 1.379 . S
H291 C285 0.959 . S
H292 C285 0.961 . S
H293 C285 0.960 1_565 S
H294 C286 0.930 . S
H295 C287 0.929 . S
H296 C304 0.929 . S
H297 C306 0.930 . S
H298 C308 0.930 . S
H299 C311 0.929 . S
H300 C314 0.930 . S
H301 C316 0.960 1_455 S
H302 C316 0.960 . S
H303 C316 0.960 . S
C304 H296 0.929 . S
C304 C305 1.400 . S
C304 C306 1.384 . S
C305 C304 1.400 . S
C305 C311 1.375 1_556 S
C306 H297 0.930 . S
C306 C304 1.384 . S
C306 C307 1.372 . S
C307 C306 1.372 . S
C307 C308 1.400 1_556 S
C307 C312 1.490 . S
C308 H298 0.930 . S
C308 C307 1.400 1_554 S
C308 C311 1.386 . S
H309 C325 0.930 . S
H310 C326 0.931 . S
C311 H299 0.929 . S
C311 C305 1.375 1_554 S
C311 C308 1.386 . S
C312 C307 1.490 . S
C312 C314 1.395 . S
C312 C315 1.403 1_556 S
H313 C319 0.930 . S
C314 H300 0.930 . S
C314 C312 1.395 . S
C314 C317 1.403 1_655 S
C315 C312 1.403 1_554 S
C315 C316 1.524 . S
C315 C319 1.400 1_655 S
C316 H301 0.960 1_655 S
C316 H302 0.960 . S
C316 H303 0.960 . S
C316 C315 1.524 . S
C317 C314 1.403 1_455 S
C317 C318 1.392 . S
C317 C321 1.495 . S
C318 C317 1.392 . S
C318 C319 1.385 1_556 S
C318 C320 1.478 . S
C319 H313 0.930 . S
C319 C315 1.400 1_455 S
C319 C318 1.385 1_554 S
C320 C318 1.478 . S
C320 C322 1.381 . S
C320 C326 1.383 1_556 S
C321 C317 1.495 . S
C321 H327 0.959 1_455 S
C321 H328 0.961 . S
C321 H329 0.960 . S
C322 C320 1.381 . S
C322 C323 1.394 . S
C322 H330 0.930 . S
C323 C322 1.394 . S
C323 C324 1.383 . S
C323 H331 0.929 . S
C324 C323 1.383 . S
C324 C325 1.377 1_556 S
C325 H309 0.930 . S
C325 C324 1.377 1_554 S
C325 C326 1.379 . S
C326 H310 0.931 . S
C326 C320 1.383 1_554 S
C326 C325 1.379 . S
H327 C321 0.959 1_655 S
H328 C321 0.961 . S
H329 C321 0.960 . S
H330 C322 0.930 . S
H331 C323 0.929 . S
H332 C340 0.929 . S
H333 C342 0.930 . S
H334 C344 0.930 . S
H335 C347 0.929 . S
H336 C350 0.930 . S
H337 C352 0.960 . S
H338 C352 0.960 . S
H339 C352 0.960 . S
C340 H332 0.929 . S
C340 C341 1.377 . S
C340 C342 1.384 . S
C341 C340 1.377 . S
C341 C347 1.390 . S
C342 H333 0.930 . S
C342 C340 1.384 . S
C342 C343 1.372 . S
C343 C342 1.372 . S
C343 C344 1.400 . S
C343 C348 1.490 . S
C344 H334 0.930 . S
C344 C343 1.400 . S
C344 C347 1.386 . S
H345 C361 0.930 . S
H346 C362 0.931 . S
C347 H335 0.929 . S
C347 C341 1.390 . S
C347 C344 1.386 . S
C348 C343 1.490 . S
C348 C350 1.395 . S
C348 C351 1.403 . S
H349 C355 0.930 . S
C350 H336 0.930 . S
C350 C348 1.395 . S
C350 C353 1.403 1_455 S
C351 C348 1.403 . S
C351 C352 1.524 . S
C351 C355 1.400 1_455 S
C352 H337 0.960 . S
C352 H338 0.960 . S
C352 H339 0.960 . S
C352 C351 1.524 . S
C353 C350 1.403 1_655 S
C353 C354 1.392 . S
C353 C357 1.495 . S
C354 C353 1.392 . S
C354 C355 1.385 . S
C354 C356 1.478 . S
C355 H349 0.930 . S
C355 C351 1.400 1_655 S
C355 C354 1.385 . S
C356 C354 1.478 . S
C356 C358 1.381 . S
C356 C362 1.383 . S
C357 C353 1.495 . S
C357 H363 0.959 . S
C357 H364 0.961 . S
C357 H365 0.960 . S
C358 C356 1.381 . S
C358 C359 1.394 . S
C358 H366 0.930 . S
C359 C358 1.394 . S
C359 C360 1.383 . S
C359 H367 0.929 . S
C360 C359 1.383 . S
C360 C361 1.377 . S
C361 H345 0.930 . S
C361 C360 1.377 . S
C361 C362 1.379 . S
C362 H346 0.931 . S
C362 C356 1.383 . S
C362 C361 1.379 . S
H363 C357 0.959 . S
H364 C357 0.961 . S
H365 C357 0.960 . S
H366 C358 0.930 . S
H367 C359 0.929 . S
H368 C376 0.929 . S
H369 C378 0.930 . S
H370 C380 0.930 . S
H371 C383 0.929 . S
H372 C386 0.930 . S
H373 C388 0.960 . S
H374 C388 0.960 . S
H375 C388 0.960 1_655 S
C376 H368 0.929 . S
C376 C377 1.377 . S
C376 C378 1.384 . S
C377 C376 1.377 . S
C377 C383 1.390 1_465 S
C378 H369 0.930 . S
C378 C376 1.384 . S
C378 C379 1.372 . S
C379 C378 1.372 . S
C379 C380 1.400 1_465 S
C379 C384 1.490 . S
C380 H370 0.930 . S
C380 C379 1.400 1_645 S
C380 C383 1.386 . S
H381 C397 0.930 . S
H382 C398 0.931 . S
C383 H371 0.929 . S
C383 C377 1.390 1_645 S
C383 C380 1.386 . S
C384 C379 1.490 . S
C384 C386 1.395 1_455 S
C384 C387 1.403 1_565 S
H385 C391 0.930 . S
C386 H372 0.930 . S
C386 C384 1.395 1_655 S
C386 C389 1.403 . S
C387 C384 1.403 1_545 S
C387 C388 1.524 . S
C387 C391 1.400 . S
C388 H373 0.960 . S
C388 H374 0.960 . S
C388 H375 0.960 1_455 S
C388 C387 1.524 . S
C389 C386 1.403 . S
C389 C390 1.391 1_655 S
C389 C393 1.495 . S
C390 C389 1.391 1_455 S
C390 C391 1.385 1_565 S
C390 C392 1.479 1_455 S
C391 H385 0.930 . S
C391 C387 1.400 . S
C391 C390 1.385 1_545 S
C392 C390 1.479 1_655 S
C392 C394 1.381 1_655 S
C392 C398 1.383 1_565 S
C393 C389 1.495 . S
C393 H399 0.959 . S
C393 H400 0.961 . S
C393 H401 0.960 1_655 S
C394 C392 1.381 1_455 S
C394 C395 1.394 . S
C394 H402 0.930 . S
C395 C394 1.394 . S
C395 C396 1.383 1_455 S
C395 H403 0.929 . S
C396 C395 1.383 1_655 S
C396 C397 1.377 1_565 S
C397 H381 0.930 . S
C397 C396 1.377 1_545 S
C397 C398 1.379 . S
C398 H382 0.931 . S
C398 C392 1.383 1_545 S
C398 C397 1.379 . S
H399 C393 0.959 . S
H400 C393 0.961 . S
H401 C393 0.960 1_455 S
H402 C394 0.930 . S
H403 C395 0.929 . S
H404 C412 0.929 . S
H405 C414 0.930 . S
H406 C416 0.930 . S
H407 C419 0.929 . S
H408 C422 0.930 . S
H409 C424 0.960 . S
H410 C424 0.960 . S
H411 C424 0.960 1_545 S
C412 H404 0.929 . S
C412 C413 1.377 1_665 S
C412 C414 1.384 . S
C413 C412 1.377 1_445 S
C413 C419 1.390 . S
C414 H405 0.930 . S
C414 C412 1.384 . S
C414 C415 1.381 . S
C415 C414 1.381 . S
C415 C416 1.393 1_665 S
C415 C420 1.487 . S
C416 H406 0.930 . S
C416 C415 1.393 1_445 S
C416 C419 1.386 . S
H417 C433 0.930 . S
H418 C434 0.931 . S
C419 H407 0.929 . S
C419 C413 1.390 . S
C419 C416 1.386 . S
C420 C415 1.487 . S
C420 C422 1.394 1_565 S
C420 C423 1.402 1_655 S
H421 C427 0.930 1_545 S
C422 H408 0.930 . S
C422 C420 1.394 1_545 S
C422 C425 1.403 . S
C423 C420 1.402 1_455 S
C423 C424 1.526 . S
C423 C427 1.399 . S
C424 H409 0.960 . S
C424 H410 0.960 . S
C424 H411 0.960 1_565 S
C424 C423 1.526 . S
C425 C422 1.403 . S
C425 C426 1.392 . S
C425 C429 1.496 . S
C426 C425 1.392 . S
C426 C427 1.385 1_645 S
C426 C428 1.478 . S
C427 H421 0.930 1_565 S
C427 C423 1.399 . S
C427 C426 1.385 1_465 S
C428 C426 1.478 . S
C428 C430 1.381 1_545 S
C428 C434 1.383 1_655 S
C429 C425 1.496 . S
C429 H435 0.959 . S
C429 H436 0.961 . S
C429 H437 0.960 1_545 S
C430 C428 1.381 1_565 S
C430 C431 1.394 . S
C430 H438 0.930 . S
C431 C430 1.394 . S
C431 C432 1.383 1_565 S
C431 H439 0.929 . S
C432 C431 1.383 1_545 S
C432 C433 1.377 1_655 S
C433 H417 0.930 . S
C433 C432 1.377 1_455 S
C433 C434 1.379 . S
C434 H418 0.931 . S
C434 C428 1.383 1_455 S
C434 C433 1.379 . S
H435 C429 0.959 . S
H436 C429 0.961 . S
H437 C429 0.960 1_565 S
H438 C430 0.930 . S
H439 C431 0.929 . S
H440 C448 0.929 . S
H441 C450 0.930 . S
H442 C452 0.930 . S
H443 C455 0.929 . S
H444 C458 0.930 . S
H445 C460 0.960 . S
H446 C460 0.960 . S
H447 C460 0.960 . S
C448 H440 0.929 . S
C448 C449 1.377 . S
C448 C450 1.384 . S
C449 C448 1.377 . S
C449 C455 1.390 . S
C450 H441 0.930 . S
C450 C448 1.384 . S
C450 C451 1.372 . S
C451 C450 1.372 . S
C451 C452 1.400 . S
C451 C456 1.490 . S
C452 H442 0.930 . S
C452 C451 1.400 . S
C452 C455 1.386 . S
H453 C469 0.930 . S
H454 C470 0.931 . S
C455 H443 0.929 . S
C455 C449 1.390 . S
C455 C452 1.386 . S
C456 C451 1.490 . S
C456 C458 1.395 . S
C456 C459 1.403 . S
H457 C463 0.930 . S
C458 H444 0.930 . S
C458 C456 1.395 . S
C458 C461 1.403 . S
C459 C456 1.403 . S
C459 C460 1.524 . S
C459 C463 1.400 . S
C460 H445 0.960 . S
C460 H446 0.960 . S
C460 H447 0.960 . S
C460 C459 1.524 . S
C461 C458 1.403 . S
C461 C462 1.392 . S
C461 C465 1.495 . S
C462 C461 1.392 . S
C462 C463 1.385 . S
C462 C464 1.478 . S
C463 H457 0.930 . S
C463 C459 1.400 . S
C463 C462 1.385 . S
C464 C462 1.478 . S
C464 C466 1.381 . S
C464 C470 1.383 . S
C465 C461 1.495 . S
C465 H471 0.959 . S
C465 H472 0.961 . S
C465 H473 0.960 . S
C466 C464 1.381 . S
C466 C467 1.394 . S
C466 H474 0.930 . S
C467 C466 1.394 . S
C467 C468 1.383 . S
C467 H475 0.929 . S
C468 C467 1.383 . S
C468 C469 1.377 . S
C469 H453 0.930 . S
C469 C468 1.377 . S
C469 C470 1.379 . S
C470 H454 0.931 . S
C470 C464 1.383 . S
C470 C469 1.379 . S
H471 C465 0.959 . S
H472 C465 0.961 . S
H473 C465 0.960 . S
H474 C466 0.930 . S
H475 C467 0.929 . S
H476 C484 0.929 . S
H477 C486 0.930 . S
H478 C488 0.930 . S
H479 C491 0.929 . S
H480 C494 0.930 . S
H481 C496 0.960 . S
H482 C496 0.960 . S
H483 C496 0.960 . S
C484 H476 0.929 . S
C484 C485 1.377 . S
C484 C486 1.384 . S
C485 C484 1.377 . S
C485 C491 1.390 . S
C486 H477 0.930 . S
C486 C484 1.384 . S
C486 C487 1.372 . S
C487 C486 1.372 . S
C487 C488 1.400 . S
C487 C492 1.490 . S
C488 H478 0.930 . S
C488 C487 1.400 . S
C488 C491 1.386 . S
H489 C505 0.930 . S
H490 C506 0.931 . S
C491 H479 0.929 . S
C491 C485 1.390 . S
C491 C488 1.386 . S
C492 C487 1.490 . S
C492 C494 1.395 . S
C492 C495 1.403 . S
H493 C499 0.930 . S
C494 H480 0.930 . S
C494 C492 1.395 . S
C494 C497 1.403 . S
C495 C492 1.403 . S
C495 C496 1.524 . S
C495 C499 1.400 . S
C496 H481 0.960 . S
C496 H482 0.960 . S
C496 H483 0.960 . S
C496 C495 1.524 . S
C497 C494 1.403 . S
C497 C498 1.392 . S
C497 C501 1.495 . S
C498 C497 1.392 . S
C498 C499 1.385 . S
C498 C500 1.478 . S
C499 H493 0.930 . S
C499 C495 1.400 . S
C499 C498 1.385 . S
C500 C498 1.478 . S
C500 C502 1.381 . S
C500 C506 1.383 . S
C501 C497 1.495 . S
C501 H507 0.959 . S
C501 H508 0.961 . S
C501 H509 0.960 . S
C502 C500 1.381 . S
C502 C503 1.394 . S
C502 H510 0.930 . S
C503 C502 1.394 . S
C503 C504 1.383 . S
C503 H511 0.929 . S
C504 C503 1.383 . S
C504 C505 1.377 . S
C505 H489 0.930 . S
C505 C504 1.377 . S
C505 C506 1.379 . S
C506 H490 0.931 . S
C506 C500 1.383 . S
C506 C505 1.379 . S
H507 C501 0.959 . S
H508 C501 0.961 . S
H509 C501 0.960 . S
H510 C502 0.930 . S
H511 C503 0.929 . S
C89 C56 1.486 . S
C108 C6 1.494 . S
C125 C46 1.484 . S
C144 C16 1.499 . S
C161 C36 1.479 . S
C180 C66 1.491 . S
C197 C26 1.480 . S
C216 C76 1.499 . S
C233 C19 1.821 1_566 S
C252 C8 1.793 1_544 S
C269 C28 1.822 1_545 S
C288 C39 1.810 1_565 S
C305 C59 1.823 1_556 S
C324 C48 1.825 . S
C341 C79 1.824 . S
C360 C68 1.830 . S
C377 C29 1.490 1_455 S
C396 C9 1.482 1_655 S
C413 C1 1.489 1_455 S
C432 C21 1.500 1_655 S
C449 C69 1.485 . S
C468 C49 1.486 . S
C485 C61 1.487 . S
C504 C41 1.477 . S
