# Generated by pormake.
# Topology sxb, (6)-cn, num edge types: 1
# Building blocks:
#     Node 0, Type 0, BuildingBlock: PAMTOO_clean_sbu_0, # of connection points: 6
#     Node 1, Type 0, BuildingBlock: PAMTOO_clean_sbu_0, # of connection points: 6
#     Node 2, Type 0, BuildingBlock: PAMTOO_clean_sbu_0, # of connection points: 6
#     Node 3, Type 0, BuildingBlock: PAMTOO_clean_sbu_0, # of connection points: 6
#     Edge 4, Type (0, 0), BuildingBlock: FUNLAD_clean_linker_0, # of connection points: 2
#     Edge 5, Type (0, 0), BuildingBlock: FUNLAD_clean_linker_0, # of connection points: 2
#     Edge 6, Type (0, 0), BuildingBlock: FUNLAD_clean_linker_0, # of connection points: 2
#     Edge 7, Type (0, 0), BuildingBlock: FUNLAD_clean_linker_0, # of connection points: 2
#     Edge 8, Type (0, 0), BuildingBlock: FUNLAD_clean_linker_0, # of connection points: 2
#     Edge 9, Type (0, 0), BuildingBlock: FUNLAD_clean_linker_0, # of connection points: 2
#     Edge 10, Type (0, 0), BuildingBlock: FUNLAD_clean_linker_0, # of connection points: 2
#     Edge 11, Type (0, 0), BuildingBlock: FUNLAD_clean_linker_0, # of connection points: 2
#     Edge 12, Type (0, 0), BuildingBlock: FUNLAD_clean_linker_0, # of connection points: 2
#     Edge 13, Type (0, 0), BuildingBlock: FUNLAD_clean_linker_0, # of connection points: 2
#     Edge 14, Type (0, 0), BuildingBlock: FUNLAD_clean_linker_0, # of connection points: 2
#     Edge 15, Type (0, 0), BuildingBlock: FUNLAD_clean_linker_0, # of connection points: 2
# Relax obj value: 0.350
# Max RMSD: 0.084
# Mean RMSD: 0.082
data_MOF--net-sxb--node1-PAMTOO_clean_sbu_0--edge1-FUNLAD_clean_linker_0
_symmetry_space_group_name_H-M    P1
_symmetry_Int_Tables_number       1
_symmetry_cell_setting            triclinic
loop_
_symmetry_equiv_pos_as_xyz
'x, y, z'
_cell_length_a     18.689897
_cell_length_b     39.401829
_cell_length_c     35.984299
_cell_angle_alpha  94.674423
_cell_angle_beta   98.442094
_cell_angle_gamma 67.508075
loop_
_atom_site_label
_atom_site_type_symbol
_atom_site_fract_x
_atom_site_fract_y
_atom_site_fract_z
_atom_type_partial_charge
Dy0 Dy 0.19165 1.06339 0.01353 0.0
Dy1 Dy 1.028 1.05068 0.00344 0.0
C2 C 0.10221 1.05793 0.93227 0.0
O3 O 0.09962 0.12002 0.00202 0.0
O4 O 0.98985 0.11192 0.01353 0.0
O5 O 0.25385 0.09987 0.01384 0.0
O6 O 0.31783 1.04157 0.01897 0.0
O7 O 1.07017 1.04383 0.06509 0.0
O8 O 0.15787 0.0728 0.07171 0.0
O9 O 0.12171 0.99448 -0.00355 0.0
O10 O 0.22677 1.00432 0.02882 0.0
O11 O 0.90689 1.06524 0.01106 0.0
O12 O 0.9669 1.01575 -0.02024 0.0
C13 C 1.02582 0.13364 0.00789 0.0
O14 O 0.16994 1.04699 0.95327 0.0
O15 O 1.03737 0.06835 0.94749 0.0
C16 C 0.35436 0.07252 0.97593 0.0
C17 C 0.39014 0.07739 0.90349 0.0
C18 C 0.38831 1.04452 0.91489 0.0
C19 C 0.37041 1.04212 0.95063 0.0
C20 C 0.35977 0.10485 0.9652 0.0
C21 C 0.37728 0.10731 0.92927 0.0
C22 C 0.31974 0.07267 0.01038 0.0
C23 C 0.1145 1.05896 0.08625 0.0
C24 C 0.19369 0.9816 0.01348 0.0
C25 C 0.83865 1.04989 0.95561 0.0
C26 C 0.73955 1.06559 0.88705 0.0
C27 C 0.75959 1.03185 0.90423 0.0
C28 C 0.80858 1.02412 0.93831 0.0
C29 C 0.81779 0.08386 0.93876 0.0
C30 C 0.76807 0.09176 0.90492 0.0
C31 C 0.89974 1.03907 -0.01198 0.0
H32 H 0.39731 1.0211 0.89558 0.0
H33 H 0.3657 1.01692 0.95768 0.0
H34 H 0.34711 0.12873 -0.01596 0.0
H35 H 0.37959 0.1328 0.92144 0.0
H36 H 0.73759 1.01139 0.89121 0.0
H37 H 0.82494 0.99757 0.95059 0.0
H38 H 0.84171 0.10388 0.95114 0.0
H39 H 0.75383 0.11788 0.89212 0.0
Dy40 Dy 1.07011 0.10384 0.50939 0.0
Dy41 Dy 0.14956 1.0147 0.50899 0.0
C42 C 0.1 1.05809 0.43269 0.0
O43 O 0.96684 0.08593 0.50852 0.0
O44 O 1.02268 1.02294 0.51017 0.0
O45 O 0.98237 0.15086 0.48103 0.0
O46 O 1.04797 0.15809 0.53389 0.0
O47 O 0.13031 1.0294 0.56911 0.0
O48 O 0.09965 0.09176 0.57049 0.0
O49 O 0.25374 1.03191 0.51012 0.0
O50 O 0.19823 0.09512 0.51068 0.0
O51 O 0.21224 0.96312 0.53681 0.0
O52 O 0.18997 0.96405 0.47625 0.0
C53 C 0.96021 1.05375 0.50942 0.0
O54 O 0.10554 0.0868 0.45196 0.0
O55 O 0.09742 1.03062 0.44988 0.0
C56 C 1.01081 0.20416 0.49012 0.0
C57 C 1.05003 0.26152 0.47005 0.0
C58 C 0.09254 0.225 0.45922 0.0
C59 C 1.07312 0.19649 0.46927 0.0
C60 C 0.96524 0.2406 0.499 0.0
C61 C 0.98463 0.26919 0.48897 0.0
C62 C 0.99759 0.17423 0.50551 0.0
C63 C 0.11647 1.06096 0.58754 0.0
C64 C 0.26059 1.0642 0.51061 0.0
C65 C 0.17479 0.9169 0.50504 0.0
C66 C 0.08615 0.87242 0.49256 0.0
C67 C 1.06264 0.90423 0.51575 0.0
C68 C 0.10646 0.92624 0.52189 0.0
C69 C 0.20059 0.8844 0.48322 0.0
C70 C 0.15654 0.86221 0.47702 0.0
C71 C 0.21164 0.94376 0.50572 0.0
H72 H 0.14394 0.21815 0.44517 0.0
H73 H 0.10894 0.16835 0.46236 0.0
H74 H 0.91677 0.24681 0.51503 0.0
H75 H 0.95062 0.29711 0.49741 0.0
H76 H 1.00799 0.91334 0.52753 0.0
H77 H 0.08477 0.95155 0.53835 0.0
H78 H 0.25285 0.87704 0.46971 0.0
H79 H 0.17627 0.83771 0.45926 0.0
Dy80 Dy 0.69454 0.56316 0.01484 0.0
Dy81 Dy 0.5303 0.55085 0.00259 0.0
C82 C 0.60844 0.55776 0.93294 0.0
O83 O 0.60299 0.6205 0.00628 0.0
O84 O 0.49014 0.61211 0.01188 0.0
O85 O 0.75553 0.59952 0.01177 0.0
O86 O 0.8209 0.54239 0.02367 0.0
O87 O 0.56813 0.54535 0.06482 0.0
O88 O 0.66179 0.57109 0.07303 0.0
O89 O 0.62443 0.49464 -0.00411 0.0
O90 O 0.72957 0.50385 0.02904 0.0
O91 O 0.40788 0.56552 0.00754 0.0
O92 O 0.472 0.51462 -0.02053 0.0
C93 C 0.52772 0.63391 0.00932 0.0
O94 O 0.67481 0.5455 0.95489 0.0
O95 O 0.5424 0.56907 0.94726 0.0
C96 C 0.86114 0.56901 -0.02206 0.0
C97 C 0.90035 0.56856 0.90507 0.0
C98 C 0.89633 0.53699 0.9186 0.0
C99 C 0.87658 0.53724 0.95457 0.0
C100 C 0.8694 0.5999 0.9652 0.0
C101 C 0.88855 0.59974 0.92903 0.0
C102 C 0.82277 0.57242 0.0119 0.0
C103 C 0.61508 0.55863 0.08665 0.0
C104 C 0.69615 0.48143 0.01323 0.0
C105 C 0.34427 0.54634 0.95282 0.0
C106 C 0.24698 0.55716 0.88372 0.0
C107 C 0.27546 0.58421 0.89898 0.0
C108 C 0.32434 0.57871 0.93311 0.0
C109 C 0.31441 0.51972 0.93806 0.0
C110 C 0.26631 0.52502 0.90372 0.0
C111 C 0.40355 0.53792 -0.01398 0.0
H112 H 0.9046 0.51266 0.90069 0.0
H113 H 0.86952 0.51313 0.96321 0.0
H114 H 0.85711 0.62481 -0.01748 0.0
H115 H 0.8925 0.62427 0.91949 0.0
H116 H 0.26169 0.60913 0.88397 0.0
H117 H 0.34813 0.59929 0.94358 0.0
H118 H 0.33003 0.49438 0.95263 0.0
H119 H 0.24428 0.50396 0.89275 0.0
Dy120 Dy 0.53538 0.61854 0.50733 0.0
Dy121 Dy 0.61821 0.52998 0.50714 0.0
C122 C 0.57451 0.57273 0.43117 0.0
O123 O 0.43384 0.60312 0.51575 0.0
O124 O 0.48645 0.54176 0.49988 0.0
O125 O 0.45218 0.66737 0.47983 0.0
O126 O 0.52451 0.67202 0.53113 0.0
O127 O 0.60062 0.54349 0.56748 0.0
O128 O 0.55177 0.60667 0.56837 0.0
O129 O 0.72435 0.54584 0.51679 0.0
O130 O 0.66423 0.60683 0.50242 0.0
O131 O 0.69253 0.47797 0.53173 0.0
O132 O 0.63228 0.47966 0.47524 0.0
C133 C 0.42564 0.5714 0.5079 0.0
O134 O 0.52057 0.59895 0.44759 0.0
O135 O 0.62972 0.54705 0.45121 0.0
C136 C 0.49864 0.71514 0.48547 0.0
C137 C 0.55927 0.76382 0.46213 0.0
C138 C 0.59427 0.72584 0.45449 0.0
C139 C 0.56408 0.70173 0.46603 0.0
C140 C 0.46044 0.75302 0.49114 0.0
C141 C 0.49036 0.7773 0.47936 0.0
C142 C 0.47556 0.68934 0.5029 0.0
C143 C 0.57583 0.57535 0.58554 0.0
C144 C 0.72893 0.57733 0.50992 0.0
C145 C 0.63593 0.43434 0.51343 0.0
C146 C 0.54082 0.39479 0.51803 0.0
C147 C 0.52921 0.42772 0.53898 0.0
C148 C 0.57627 0.4474 0.5366 0.0
C149 C 0.65123 0.40032 0.49446 0.0
C150 C 0.60401 0.38056 0.49682 0.0
C151 C 0.67121 0.45921 0.50377 0.0
H152 H 0.64799 0.7144 0.44184 0.0
H153 H 0.59415 0.67244 0.46148 0.0
H154 H 0.40956 0.76369 0.50601 0.0
H155 H 0.46153 0.80645 0.48518 0.0
H156 H 0.48038 0.43965 0.55511 0.0
H157 H 0.56274 0.47399 0.55092 0.0
H158 H 0.6966 0.39012 0.47617 0.0
H159 H 0.61462 0.35503 0.4807 0.0
C160 C 0.52133 0.69987 0.00957 0.0
C161 C 0.48332 0.67502 0.00952 0.0
C162 C 0.47924 0.7383 0.00973 0.0
C163 C 0.39741 0.75323 0.0098 0.0
C164 C 0.35978 0.72826 0.00955 0.0
C165 C 0.40174 0.69001 0.00957 0.0
C166 C 0.34821 0.79408 0.00897 0.0
C167 C 0.37564 0.82169 0.01609 0.0
C168 C 0.32593 0.86251 0.01563 0.0
C169 C 0.3601 0.88767 0.03108 0.0
C170 C 0.31747 0.9259 0.03073 0.0
C171 C 0.23884 0.9406 0.01463 0.0
H172 H 0.2179 0.85944 -0.01346 0.0
C173 C 0.20439 0.91554 -0.00095 0.0
C174 C 0.24703 0.87721 -0.0005 0.0
H175 H 0.1442 0.92552 -0.01382 0.0
H176 H 0.58395 0.68966 0.00941 0.0
H177 H 0.51125 0.75599 0.00922 0.0
H178 H 0.29706 0.7384 0.00938 0.0
H179 H 0.36974 0.67216 0.0094 0.0
H180 H 0.28559 0.80142 0.00327 0.0
H181 H 0.43789 0.81437 0.02386 0.0
H182 H 0.42057 0.87771 0.04359 0.0
H183 H 0.34663 0.94398 0.04292 0.0
C184 C 0.70538 0.41557 -0.00129 0.0
C185 C 0.74076 0.44037 0.014 0.0
C186 C 0.74749 0.37719 -0.00117 0.0
C187 C 0.82677 0.36218 0.0143 0.0
C188 C 0.8619 0.38707 0.02944 0.0
C189 C 0.81978 0.42536 0.02946 0.0
C190 C 0.87589 0.32131 0.01426 0.0
C191 C 0.84764 0.29392 0.00822 0.0
C192 C 0.8964 0.25302 0.00868 0.0
C193 C 0.85924 0.22825 0.01088 0.0
C194 C 0.9009 0.18996 0.01073 0.0
C195 C 0.98157 0.17476 0.00799 0.0
H196 H 1.00871 0.25543 0.00334 0.0
C197 C 1.01901 0.19943 0.00549 0.0
C198 C 0.97729 0.23787 0.00586 0.0
H199 H 1.08092 0.18905 0.00322 0.0
H200 H 0.64486 0.42581 -0.01367 0.0
H201 H 0.7177 0.3596 -0.01388 0.0
H202 H 0.9227 0.37686 0.04141 0.0
H203 H 0.84966 0.44322 0.04139 0.0
H204 H 0.93848 0.31372 0.02084 0.0
H205 H 0.78486 0.30151 0.00393 0.0
H206 H 0.79719 0.23857 0.01284 0.0
H207 H 0.86939 0.17224 0.01259 0.0
C208 C 0.08884 0.31273 0.49828 0.0
C209 C 0.08162 0.29014 0.46682 0.0
C210 C 0.1349 0.33348 0.49898 0.0
C211 C 0.17473 0.33185 0.46828 0.0
C212 C 0.16116 0.31234 0.43544 0.0
C213 C 0.11529 0.29139 0.43477 0.0
C214 C 0.23599 0.34727 0.4711 0.0
C215 C 0.28532 0.34497 0.50296 0.0
C216 C 0.35326 0.35603 0.50622 0.0
C217 C 0.38382 0.36494 0.54198 0.0
C218 C 0.44697 0.37615 0.54618 0.0
C219 C 0.48121 0.37826 0.51467 0.0
H220 H 0.36986 0.34862 0.44705 0.0
C221 C 0.45277 0.36782 0.47909 0.0
C222 C 0.38961 0.35669 0.47488 0.0
H223 H 0.47759 0.36944 0.45423 0.0
H224 H 1.06364 0.31239 0.52343 0.0
H225 H 0.14215 0.34941 0.52421 0.0
H226 H 0.19032 0.31127 0.41122 0.0
H227 H 0.10952 0.27468 0.40994 0.0
H228 H 0.24438 0.35765 0.44573 0.0
H229 H 0.2764 0.33404 0.52791 0.0
H230 H 0.35775 0.36396 0.56666 0.0
H231 H 0.46824 0.38371 0.57399 0.0
C232 C 0.98997 0.84802 0.50904 0.0
C233 C 1.03289 0.85247 0.48217 0.0
C234 C 0.92932 0.83567 0.49814 0.0
C235 C 0.91077 0.82725 0.46016 0.0
C236 C 0.95744 0.82876 0.43372 0.0
C237 C 1.01775 0.84161 0.44456 0.0
C238 C 0.84251 0.81708 0.44805 0.0
C239 C 0.77493 0.83477 0.46251 0.0
C240 C 0.70969 0.82167 0.4574 0.0
C241 C 0.66116 0.83024 0.48583 0.0
C242 C 0.60786 0.8134 0.48592 0.0
C243 C 0.60136 0.78796 0.45721 0.0
H244 H 0.73241 0.79286 0.40362 0.0
C245 C 0.64452 0.78215 0.4268 0.0
C246 C 0.69837 0.79883 0.42687 0.0
H247 H 0.63919 0.76344 0.40376 0.0
H248 H 1.00166 0.85522 0.53838 0.0
H249 H 0.89614 0.83325 0.51937 0.0
H250 H 0.94483 0.82172 0.40441 0.0
H251 H 1.04961 0.84486 0.42317 0.0
H252 H 0.84927 0.79438 0.42789 0.0
H253 H 0.77035 0.85776 0.48219 0.0
H254 H 0.66806 0.84814 0.50943 0.0
H255 H 0.576 0.81839 0.50992 0.0
C256 C 0.46166 1.05176 0.84762 0.0
C257 C 0.40367 0.08056 0.86455 0.0
C258 C 0.47544 1.05493 0.81125 0.0
C259 C 0.43204 0.08707 0.79124 0.0
C260 C 0.37191 0.11523 0.80732 0.0
C261 C 0.3581 0.11212 0.84383 0.0
C262 C 0.45329 0.09229 0.75464 0.0
C263 C 0.52547 0.0902 0.75066 0.0
C264 C 0.58612 0.08616 0.78326 0.0
C265 C 0.65303 1.05388 0.78705 0.0
C266 C 0.70376 1.04736 0.82067 0.0
C267 C 0.68893 0.07341 0.85059 0.0
H268 H 0.52158 0.13803 0.80992 0.0
C269 C 0.62414 0.10662 0.84583 0.0
C270 C 0.573 0.11289 0.81246 0.0
H271 H 0.61137 0.12711 0.86845 0.0
H272 H 0.49765 1.02711 0.86281 0.0
H273 H 0.52136 1.0326 0.79905 0.0
H274 H 0.33752 0.14011 0.79217 0.0
H275 H 0.31187 0.13441 0.85588 0.0
H276 H 0.409 0.09817 0.73031 0.0
H277 H 0.53961 0.09174 0.7228 0.0
H278 H 0.66387 1.03297 0.7648 0.0
H279 H 0.75398 1.02175 0.82352 0.0
C280 C 0.41043 1.03341 0.51081 0.0
C281 C 0.34169 1.06562 0.5107 0.0
C282 C 0.48544 1.03488 0.51066 0.0
C283 C 0.49534 0.06876 0.51035 0.0
C284 C 0.42646 0.1008 0.51024 0.0
C285 C 0.35182 0.09933 0.51041 0.0
C286 C 0.57431 0.07275 0.51009 0.0
C287 C 0.64673 1.04505 0.51029 0.0
C288 C 0.72569 1.04907 0.51004 0.0
C289 C 0.79473 1.01706 0.51059 0.0
C290 C 0.86933 1.01858 0.51039 0.0
C291 C 0.87923 1.05229 0.50961 0.0
H292 H 0.6854 0.10856 0.50878 0.0
C293 C 0.81034 0.08446 0.50904 0.0
C294 C 0.73538 0.08295 0.50926 0.0
H295 H 0.81413 0.11115 0.50843 0.0
H296 H 0.40647 1.00672 0.51099 0.0
H297 H 0.53529 1.00924 0.51074 0.0
H298 H 0.43017 0.12755 0.50999 0.0
H299 H 0.30166 0.12494 0.51024 0.0
H300 H 0.57156 0.10071 0.50974 0.0
H301 H 0.64951 1.01709 0.5107 0.0
H302 H 0.79118 0.99031 0.51119 0.0
H303 H 0.9196 0.99299 0.51086 0.0
C304 C 0.97193 0.53944 0.84995 0.0
C305 C 0.91397 0.5693 0.86564 0.0
C306 C 0.98539 0.54033 0.81298 0.0
C307 C 0.94142 0.57115 0.79109 0.0
C308 C 0.88143 0.60035 0.80607 0.0
C309 C 0.86812 0.59957 0.84319 0.0
C310 C 0.9617 0.57391 0.75347 0.0
C311 C 1.03322 0.57182 0.74827 0.0
C312 C 0.09393 0.5702 0.78021 0.0
C313 C 1.08048 0.59902 0.80723 0.0
C314 C 0.13169 0.59522 0.84039 0.0
C315 C 0.19678 0.56243 0.84715 0.0
H316 H 0.17226 0.51576 0.76531 0.0
C317 C 0.21196 0.53424 0.81931 0.0
C318 C 0.1612 0.53827 0.78586 0.0
H319 H 0.26238 0.50887 0.82373 0.0
H320 H 1.008 0.51574 0.86651 0.0
H321 H 1.03129 0.51725 0.80169 0.0
H322 H 0.84669 0.62424 0.7895 0.0
H323 H 0.82194 0.62262 0.85434 0.0
H324 H 0.91717 0.57794 0.72937 0.0
H325 H 1.04674 0.57156 0.71989 0.0
H326 H 1.02873 0.6239 0.80323 0.0
H327 H 0.11865 0.61731 0.86142 0.0
C328 C 0.27725 0.60086 0.5126 0.0
C329 C 0.34519 0.56918 0.50791 0.0
C330 C 0.20271 0.5988 0.51265 0.0
C331 C 0.19242 0.56483 0.50819 0.0
C332 C 0.26055 0.53327 0.50369 0.0
C333 C 0.33473 0.53535 0.50341 0.0
C334 C 0.11398 0.5603 0.50874 0.0
C335 C 1.04111 0.58771 0.50856 0.0
C336 C 0.96247 0.58327 0.50875 0.0
C337 C 0.89204 0.61454 0.50377 0.0
C338 C 0.81774 0.61265 0.50409 0.0
C339 C 0.80956 0.57932 0.50974 0.0
H340 H 1.00569 0.52479 0.51863 0.0
C341 C 0.8799 0.5479 0.51486 0.0
C342 C 0.9545 0.54977 0.51433 0.0
H343 H 0.87753 0.52152 0.51928 0.0
H344 H 0.28147 0.6276 0.51625 0.0
H345 H 0.15357 0.62403 0.51658 0.0
H346 H 0.2566 0.50645 0.5003 0.0
H347 H 0.3843 0.5101 0.49986 0.0
H348 H 0.11728 0.5322 0.50862 0.0
H349 H 1.03753 0.61575 0.50753 0.0
H350 H 0.89423 0.641 0.49946 0.0
H351 H 0.76634 0.63765 0.49997 0.0
C352 C 0.10073 0.08542 0.37182 0.0
C353 C 0.0972 1.05647 0.391 0.0
C354 C 0.09922 0.08356 0.33261 0.0
C355 C 0.09457 1.05251 0.31156 0.0
C356 C 0.09001 1.02388 0.33079 0.0
C357 C 0.0916 1.02573 0.36992 0.0
C358 C 0.092 1.04918 0.26966 0.0
C359 C 0.11703 0.0687 0.24907 0.0
C360 C 0.1159 1.06492 0.20724 0.0
C361 C 0.16248 0.07848 0.19036 0.0
C362 C 0.1625 0.07629 0.15131 0.0
C363 C 0.11544 1.06062 0.12787 0.0
H364 H 1.02983 1.03947 0.1952 0.0
C365 C 1.06842 1.04716 0.14465 0.0
C366 C 1.06839 1.04937 0.18377 0.0
H367 H 1.03086 1.0352 0.12756 0.0
H368 H 0.10449 0.10967 0.38706 0.0
H369 H 0.1005 0.10679 0.31907 0.0
H370 H 0.08571 0.99975 0.31548 0.0
H371 H 0.08856 1.00292 0.38361 0.0
H372 H 1.07188 1.02842 0.25567 0.0
H373 H 0.14292 0.08734 0.26344 0.0
H374 H 0.1993 0.09085 0.20749 0.0
H375 H 0.19934 0.08708 0.13955 0.0
C376 C 0.16451 1.05585 0.87428 0.0
C377 C 0.09922 1.05771 0.89073 0.0
C378 C 0.16218 1.05503 0.83511 0.0
C379 C 0.09462 1.05569 0.81144 0.0
C380 C 1.02969 1.05729 0.82792 0.0
C381 C 1.03156 1.05871 0.86707 0.0
C382 C 0.09103 1.05311 0.76964 0.0
C383 C 0.13092 0.06646 0.75041 0.0
C384 C 0.12569 1.06458 0.70857 0.0
C385 C 0.1344 0.0925 0.69 0.0
C386 C 0.13058 0.0915 0.65078 0.0
C387 C 0.1199 1.06201 0.62917 0.0
H388 H 0.10992 1.01256 0.70042 0.0
C389 C 0.11263 1.03366 0.64779 0.0
C390 C 0.11498 1.03502 0.68702 0.0
H391 H 0.10449 1.0105 0.63203 0.0
H392 H 0.21755 1.05504 0.89168 0.0
H393 H 0.214 1.05299 0.82351 0.0
H394 H 0.97708 1.05757 0.81043 0.0
H395 H 0.98038 1.05994 0.87876 0.0
H396 H 1.05079 1.04157 0.75414 0.0
H397 H 0.16517 0.08127 0.76561 0.0
H398 H 0.14347 0.11541 0.70587 0.0
H399 H 0.13702 0.11366 0.63743 0.0
C400 C 0.50721 0.5956 0.36707 0.0
C401 C 0.57263 0.57199 0.38959 0.0
C402 C 0.50484 0.59458 0.3279 0.0
C403 C 0.56825 0.57046 0.3102 0.0
C404 C 0.63383 0.54678 0.3327 0.0
C405 C 0.63585 0.5475 0.37188 0.0
C406 C 0.56265 0.56984 0.26829 0.0
C407 C 0.62522 0.56001 0.24938 0.0
C408 C 0.61977 0.56027 0.20753 0.0
C409 C 0.67917 0.56519 0.1915 0.0
C410 C 0.67719 0.56499 0.15242 0.0
C411 C 0.61637 0.55916 0.12822 0.0
H412 H 0.51294 0.5496 0.19459 0.0
C413 C 0.55731 0.55374 0.14422 0.0
C414 C 0.55878 0.55442 0.18339 0.0
H415 H 0.50968 0.54907 0.12649 0.0
H416 H 0.45728 0.6147 0.37964 0.0
H417 H 0.4533 0.61294 0.31137 0.0
H418 H 0.68306 0.52711 0.32014 0.0
H419 H 0.68708 0.5288 0.38828 0.0
H420 H 0.50451 0.5798 0.25271 0.0
H421 H 0.68283 0.55341 0.26515 0.0
H422 H 0.72723 0.56943 0.2093 0.0
H423 H 0.72399 0.56903 0.14123 0.0
C424 C 0.61108 0.54377 0.6476 0.0
C425 C 0.57384 0.57604 0.62687 0.0
C426 C 0.60858 0.54445 0.68644 0.0
C427 C 0.56834 0.57743 0.70553 0.0
C428 C 0.53038 0.60951 0.68472 0.0
C429 C 0.53361 0.60894 0.646 0.0
C430 C 0.56226 0.57917 0.74667 0.0
C431 C 0.61684 0.55617 0.77161 0.0
C432 C 0.61219 0.5581 0.8129 0.0
C433 C 0.68167 0.54399 0.83755 0.0
C434 C 0.68022 0.54415 0.87634 0.0
C435 C 0.60903 0.55808 0.89161 0.0
H436 H 0.48576 0.58243 0.81 0.0
C437 C 0.53923 0.57209 0.86698 0.0
C438 C 0.54072 0.57213 0.82807 0.0
H439 H 0.48331 0.58288 0.8777 0.0
H440 H 0.64226 0.51788 0.63384 0.0
H441 H 0.63683 0.51891 0.70118 0.0
H442 H 0.49834 0.63525 0.69851 0.0
H443 H 0.50368 0.63428 0.63101 0.0
H444 H 0.51308 0.60146 0.75685 0.0
H445 H 0.66955 0.53612 0.76183 0.0
H446 H 0.73758 0.53285 0.82679 0.0
H447 H 0.7352 0.53307 0.89431 0.0
loop_
_geom_bond_atom_site_label_1
_geom_bond_atom_site_label_2
_geom_bond_distance
_geom_bond_site_symmetry_2
_ccdc_geom_bond_type
Dy0 O3 2.307 1_455 S
Dy0 O5 2.395 1_554 S
Dy0 O6 2.379 . S
Dy0 O8 2.339 . S
Dy0 O10 2.298 1_545 S
Dy0 O14 2.275 1_554 S
Dy0 C22 2.738 . S
Dy1 O4 2.298 1_565 S
Dy1 O7 2.275 1_556 S
Dy1 O9 2.307 1_655 S
Dy1 O11 2.395 1_556 S
Dy1 O12 2.379 . S
Dy1 O15 2.339 . S
Dy1 C31 2.739 . S
C2 O14 1.254 1_665 S
C2 O15 1.257 . S
O3 Dy0 2.307 1_655 S
O3 C13 1.270 . S
O4 Dy1 2.298 1_545 S
O4 C13 1.229 1_556 S
O5 Dy0 2.395 1_556 S
O5 C22 1.255 1_556 S
O6 Dy0 2.379 . S
O6 C22 1.249 . S
O7 Dy1 2.275 1_554 S
O7 C23 1.254 1_665 S
O8 Dy0 2.339 . S
O8 C23 1.257 . S
O9 Dy1 2.307 1_455 S
O9 C24 1.269 . S
O10 Dy0 2.298 1_565 S
O10 C24 1.231 1_554 S
O11 Dy1 2.395 1_554 S
O11 C31 1.253 1_554 S
O12 Dy1 2.379 . S
O12 C31 1.253 . S
C13 O3 1.270 . S
C13 O4 1.229 1_554 S
O14 Dy0 2.275 1_556 S
O14 C2 1.254 1_445 S
O15 Dy1 2.339 . S
O15 C2 1.257 . S
C16 C19 1.344 1_554 S
C16 C20 1.328 . S
C16 C22 1.516 1_565 S
C17 C18 1.304 1_554 S
C17 C21 1.323 . S
C18 C17 1.304 1_556 S
C18 C19 1.371 . S
C18 H32 0.930 . S
C19 C16 1.344 1_556 S
C19 C18 1.371 . S
C19 H33 0.931 . S
C20 C16 1.328 . S
C20 C21 1.433 . S
C20 H34 0.931 1_565 S
C21 C17 1.323 . S
C21 C20 1.433 . S
C21 H35 0.933 . S
C22 Dy0 2.738 . S
C22 O5 1.255 1_554 S
C22 O6 1.249 . S
C22 C16 1.516 1_545 S
C23 O7 1.254 1_445 S
C23 O8 1.257 . S
C24 O9 1.269 . S
C24 O10 1.231 1_556 S
C25 C28 1.344 1_556 S
C25 C29 1.328 . S
C25 C31 1.516 1_545 S
C26 C27 1.304 1_556 S
C26 C30 1.323 . S
C27 C26 1.304 1_554 S
C27 C28 1.371 . S
C27 H36 0.930 . S
C28 C25 1.344 1_554 S
C28 C27 1.371 . S
C28 H37 0.931 . S
C29 C25 1.328 . S
C29 C30 1.433 . S
C29 H38 0.931 1_545 S
C30 C26 1.323 . S
C30 C29 1.433 . S
C30 H39 0.933 . S
C31 Dy1 2.739 . S
C31 O11 1.253 1_556 S
C31 O12 1.253 . S
C31 C25 1.516 1_565 S
H32 C18 0.930 . S
H33 C19 0.931 . S
H34 C20 0.931 1_545 S
H35 C21 0.933 . S
H36 C27 0.930 . S
H37 C28 0.931 . S
H38 C29 0.931 1_565 S
H39 C30 0.933 . S
Dy40 O43 2.307 . S
Dy40 O45 2.395 1_655 S
Dy40 O46 2.379 1_655 S
Dy40 O48 2.339 1_655 S
Dy40 O50 2.298 1_655 S
Dy40 O54 2.275 . S
Dy40 C62 2.738 1_655 S
Dy41 O44 2.298 1_455 S
Dy41 O47 2.275 . S
Dy41 O49 2.307 . S
Dy41 O51 2.395 1_455 S
Dy41 O52 2.379 1_455 S
Dy41 O55 2.338 . S
Dy41 C71 2.738 1_455 S
C42 O54 1.254 1_565 S
C42 O55 1.258 1_655 S
O43 Dy40 2.307 . S
O43 C53 1.266 . S
O44 Dy41 2.298 1_655 S
O44 C53 1.236 1_565 S
O45 Dy40 2.395 1_455 S
O45 C62 1.255 . S
O46 Dy40 2.379 1_455 S
O46 C62 1.249 . S
O47 Dy41 2.275 . S
O47 C63 1.254 1_565 S
O48 Dy40 2.339 1_455 S
O48 C63 1.257 . S
O49 Dy41 2.307 . S
O49 C64 1.266 . S
O50 Dy40 2.298 1_455 S
O50 C64 1.236 1_545 S
O51 Dy41 2.395 1_655 S
O51 C71 1.255 . S
O52 Dy41 2.379 1_655 S
O52 C71 1.249 . S
C53 O43 1.266 . S
C53 O44 1.236 1_545 S
O54 Dy40 2.275 . S
O54 C42 1.254 1_545 S
O55 Dy41 2.338 . S
O55 C42 1.258 1_455 S
C56 C59 1.344 . S
C56 C60 1.328 . S
C56 C62 1.516 . S
C57 C58 1.304 . S
C57 C61 1.323 . S
C58 C57 1.304 . S
C58 C59 1.371 . S
C58 H72 0.930 . S
C59 C56 1.344 . S
C59 C58 1.371 . S
C59 H73 0.931 . S
C60 C56 1.328 . S
C60 C61 1.433 . S
C60 H74 0.931 . S
C61 C57 1.323 . S
C61 C60 1.433 . S
C61 H75 0.933 . S
C62 Dy40 2.738 1_455 S
C62 O45 1.255 . S
C62 O46 1.249 . S
C62 C56 1.516 . S
C63 O47 1.254 1_545 S
C63 O48 1.257 . S
C64 O49 1.266 . S
C64 O50 1.236 1_565 S
C65 C68 1.344 . S
C65 C69 1.328 . S
C65 C71 1.516 . S
C66 C67 1.304 . S
C66 C70 1.323 . S
C67 C66 1.304 . S
C67 C68 1.371 . S
C67 H76 0.930 . S
C68 C65 1.344 . S
C68 C67 1.371 . S
C68 H77 0.931 . S
C69 C65 1.328 . S
C69 C70 1.433 . S
C69 H78 0.931 . S
C70 C66 1.323 . S
C70 C69 1.433 . S
C70 H79 0.933 . S
C71 Dy41 2.738 1_655 S
C71 O51 1.255 . S
C71 O52 1.249 . S
C71 C65 1.516 . S
H72 C58 0.930 . S
H73 C59 0.931 . S
H74 C60 0.931 . S
H75 C61 0.933 . S
H76 C67 0.930 . S
H77 C68 0.931 . S
H78 C69 0.931 . S
H79 C70 0.933 . S
Dy80 O83 2.307 . S
Dy80 O85 2.395 1_554 S
Dy80 O86 2.379 . S
Dy80 O88 2.339 . S
Dy80 O90 2.298 . S
Dy80 O94 2.275 1_554 S
Dy80 C102 2.738 . S
Dy81 O84 2.298 . S
Dy81 O87 2.275 1_556 S
Dy81 O89 2.307 . S
Dy81 O91 2.395 1_556 S
Dy81 O92 2.379 . S
Dy81 O95 2.339 . S
Dy81 C111 2.738 . S
C82 O94 1.254 . S
C82 O95 1.257 . S
O83 Dy80 2.307 . S
O83 C93 1.270 . S
O84 Dy81 2.298 . S
O84 C93 1.229 1_556 S
O85 Dy80 2.395 1_556 S
O85 C102 1.255 1_556 S
O86 Dy80 2.379 . S
O86 C102 1.249 . S
O87 Dy81 2.275 1_554 S
O87 C103 1.254 . S
O88 Dy80 2.339 . S
O88 C103 1.257 . S
O89 Dy81 2.307 . S
O89 C104 1.269 . S
O90 Dy80 2.298 . S
O90 C104 1.231 1_554 S
O91 Dy81 2.395 1_554 S
O91 C111 1.255 1_554 S
O92 Dy81 2.379 . S
O92 C111 1.249 . S
C93 O83 1.270 . S
C93 O84 1.229 1_554 S
O94 Dy80 2.275 1_556 S
O94 C82 1.254 . S
O95 Dy81 2.339 . S
O95 C82 1.257 . S
C96 C99 1.344 1_554 S
C96 C100 1.328 . S
C96 C102 1.516 . S
C97 C98 1.304 1_554 S
C97 C101 1.323 . S
C98 C97 1.304 1_556 S
C98 C99 1.371 . S
C98 H112 0.930 . S
C99 C96 1.344 1_556 S
C99 C98 1.371 . S
C99 H113 0.931 . S
C100 C96 1.328 . S
C100 C101 1.433 . S
C100 H114 0.931 . S
C101 C97 1.323 . S
C101 C100 1.433 . S
C101 H115 0.933 . S
C102 Dy80 2.738 . S
C102 O85 1.255 1_554 S
C102 O86 1.249 . S
C102 C96 1.516 . S
C103 O87 1.254 . S
C103 O88 1.257 . S
C104 O89 1.269 . S
C104 O90 1.231 1_556 S
C105 C108 1.344 1_556 S
C105 C109 1.328 . S
C105 C111 1.516 . S
C106 C107 1.304 1_556 S
C106 C110 1.323 . S
C107 C106 1.304 1_554 S
C107 C108 1.371 . S
C107 H116 0.930 . S
C108 C105 1.344 1_554 S
C108 C107 1.371 . S
C108 H117 0.931 . S
C109 C105 1.328 . S
C109 C110 1.433 . S
C109 H118 0.931 . S
C110 C106 1.323 . S
C110 C109 1.433 . S
C110 H119 0.933 . S
C111 Dy81 2.738 . S
C111 O91 1.255 1_556 S
C111 O92 1.249 . S
C111 C105 1.516 . S
H112 C98 0.930 . S
H113 C99 0.931 . S
H114 C100 0.931 . S
H115 C101 0.933 . S
H116 C107 0.930 . S
H117 C108 0.931 . S
H118 C109 0.931 . S
H119 C110 0.933 . S
Dy120 O123 2.307 . S
Dy120 O125 2.395 . S
Dy120 O126 2.379 . S
Dy120 O128 2.339 . S
Dy120 O130 2.298 . S
Dy120 O134 2.275 . S
Dy120 C142 2.738 . S
Dy121 O124 2.298 . S
Dy121 O127 2.275 . S
Dy121 O129 2.307 . S
Dy121 O131 2.395 . S
Dy121 O132 2.379 . S
Dy121 O135 2.339 . S
Dy121 C151 2.738 . S
C122 O134 1.254 . S
C122 O135 1.257 . S
O123 Dy120 2.307 . S
O123 C133 1.266 . S
O124 Dy121 2.298 . S
O124 C133 1.236 . S
O125 Dy120 2.395 . S
O125 C142 1.255 . S
O126 Dy120 2.379 . S
O126 C142 1.249 . S
O127 Dy121 2.275 . S
O127 C143 1.254 . S
O128 Dy120 2.339 . S
O128 C143 1.257 . S
O129 Dy121 2.307 . S
O129 C144 1.266 . S
O130 Dy120 2.298 . S
O130 C144 1.236 . S
O131 Dy121 2.395 . S
O131 C151 1.255 . S
O132 Dy121 2.379 . S
O132 C151 1.249 . S
C133 O123 1.266 . S
C133 O124 1.236 . S
O134 Dy120 2.275 . S
O134 C122 1.254 . S
O135 Dy121 2.339 . S
O135 C122 1.257 . S
C136 C139 1.344 . S
C136 C140 1.328 . S
C136 C142 1.516 . S
C137 C138 1.304 . S
C137 C141 1.323 . S
C138 C137 1.304 . S
C138 C139 1.371 . S
C138 H152 0.930 . S
C139 C136 1.344 . S
C139 C138 1.371 . S
C139 H153 0.931 . S
C140 C136 1.328 . S
C140 C141 1.433 . S
C140 H154 0.931 . S
C141 C137 1.323 . S
C141 C140 1.433 . S
C141 H155 0.933 . S
C142 Dy120 2.738 . S
C142 O125 1.255 . S
C142 O126 1.249 . S
C142 C136 1.516 . S
C143 O127 1.254 . S
C143 O128 1.257 . S
C144 O129 1.266 . S
C144 O130 1.236 . S
C145 C148 1.344 . S
C145 C149 1.328 . S
C145 C151 1.516 . S
C146 C147 1.304 . S
C146 C150 1.323 . S
C147 C146 1.304 . S
C147 C148 1.371 . S
C147 H156 0.930 . S
C148 C145 1.344 . S
C148 C147 1.371 . S
C148 H157 0.931 . S
C149 C145 1.328 . S
C149 C150 1.433 . S
C149 H158 0.931 . S
C150 C146 1.323 . S
C150 C149 1.433 . S
C150 H159 0.933 . S
C151 Dy121 2.738 . S
C151 O131 1.255 . S
C151 O132 1.249 . S
C151 C145 1.516 . S
H152 C138 0.930 . S
H153 C139 0.931 . S
H154 C140 0.931 . S
H155 C141 0.933 . S
H156 C147 0.930 . S
H157 C148 0.931 . S
H158 C149 0.931 . S
H159 C150 0.933 . S
C160 C161 1.376 1_554 S
C160 C162 1.383 . S
C160 H176 0.951 . S
C161 C160 1.376 1_556 S
C161 C165 1.395 . S
C162 C160 1.383 . S
C162 C163 1.402 1_554 S
C162 H177 0.951 . S
C163 C162 1.402 1_556 S
C163 C164 1.375 . S
C163 C166 1.481 . S
C164 C163 1.375 . S
C164 C165 1.367 . S
C164 H178 0.951 . S
C165 C161 1.395 . S
C165 C164 1.367 . S
C165 H179 0.950 . S
C166 C163 1.481 . S
C166 C167 1.297 . S
C166 H180 0.950 . S
C167 C166 1.297 . S
C167 C168 1.479 . S
C167 H181 0.950 1_556 S
C168 C167 1.479 . S
C168 C169 1.375 1_556 S
C168 C174 1.404 . S
C169 C168 1.375 1_554 S
C169 C170 1.369 . S
C169 H182 0.950 . S
C170 C169 1.369 . S
C170 C171 1.392 1_554 S
C170 H183 0.951 . S
C171 C170 1.392 1_556 S
C171 C173 1.384 . S
H172 C174 0.949 . S
C173 C171 1.384 . S
C173 C174 1.385 . S
C173 H175 0.950 . S
C174 C168 1.404 . S
C174 H172 0.949 . S
C174 C173 1.385 . S
H175 C173 0.950 . S
H176 C160 0.951 . S
H177 C162 0.951 . S
H178 C164 0.951 . S
H179 C165 0.950 . S
H180 C166 0.950 . S
H181 C167 0.950 1_554 S
H182 C169 0.950 . S
H183 C170 0.951 . S
C184 C185 1.386 . S
C184 C186 1.383 . S
C184 H200 0.951 . S
C185 C184 1.386 . S
C185 C189 1.383 1_556 S
C186 C184 1.383 . S
C186 C187 1.402 1_556 S
C186 H201 0.951 . S
C187 C186 1.402 1_554 S
C187 C188 1.375 . S
C187 C190 1.481 . S
C188 C187 1.375 . S
C188 C189 1.367 . S
C188 H202 0.951 . S
C189 C185 1.383 1_554 S
C189 C188 1.367 . S
C189 H203 0.950 . S
C190 C187 1.481 . S
C190 C191 1.297 1_554 S
C190 H204 0.950 . S
C191 C190 1.297 1_556 S
C191 C192 1.479 . S
C191 H205 0.950 . S
C192 C191 1.479 . S
C192 C193 1.375 . S
C192 C198 1.404 1_556 S
C193 C192 1.375 . S
C193 C194 1.369 . S
C193 H206 0.950 . S
C194 C193 1.369 . S
C194 C195 1.395 . S
C194 H207 0.951 . S
C195 C194 1.395 . S
C195 C197 1.382 1_556 S
H196 C198 0.949 . S
C197 C195 1.382 1_554 S
C197 C198 1.385 . S
C197 H199 0.950 . S
C198 C192 1.404 1_554 S
C198 H196 0.949 . S
C198 C197 1.385 . S
H199 C197 0.950 . S
H200 C184 0.951 . S
H201 C186 0.951 . S
H202 C188 0.951 . S
H203 C189 0.950 . S
H204 C190 0.950 . S
H205 C191 0.950 . S
H206 C193 0.950 . S
H207 C194 0.951 . S
C208 C209 1.386 . S
C208 C210 1.383 . S
C208 H224 0.951 . S
C209 C208 1.386 . S
C209 C213 1.383 . S
C210 C208 1.383 . S
C210 C211 1.402 . S
C210 H225 0.951 . S
C211 C210 1.402 . S
C211 C212 1.375 . S
C211 C214 1.481 . S
C212 C211 1.375 . S
C212 C213 1.367 . S
C212 H226 0.951 . S
C213 C209 1.383 . S
C213 C212 1.367 . S
C213 H227 0.950 . S
C214 C211 1.481 . S
C214 C215 1.297 . S
C214 H228 0.950 . S
C215 C214 1.297 . S
C215 C216 1.479 . S
C215 H229 0.950 . S
C216 C215 1.479 . S
C216 C217 1.375 . S
C216 C222 1.404 . S
C217 C216 1.375 . S
C217 C218 1.369 . S
C217 H230 0.950 . S
C218 C217 1.369 . S
C218 C219 1.392 . S
C218 H231 0.951 . S
C219 C218 1.392 . S
C219 C221 1.384 . S
H220 C222 0.949 . S
C221 C219 1.384 . S
C221 C222 1.385 . S
C221 H223 0.950 . S
C222 C216 1.404 . S
C222 H220 0.949 . S
C222 C221 1.385 . S
H223 C221 0.950 . S
H224 C208 0.951 . S
H225 C210 0.951 . S
H226 C212 0.951 . S
H227 C213 0.950 . S
H228 C214 0.950 . S
H229 C215 0.950 . S
H230 C217 0.950 . S
H231 C218 0.951 . S
C232 C233 1.386 . S
C232 C234 1.383 . S
C232 H248 0.951 . S
C233 C232 1.386 . S
C233 C237 1.383 . S
C234 C232 1.383 . S
C234 C235 1.402 . S
C234 H249 0.951 . S
C235 C234 1.402 . S
C235 C236 1.375 . S
C235 C238 1.481 . S
C236 C235 1.375 . S
C236 C237 1.367 . S
C236 H250 0.951 . S
C237 C233 1.383 . S
C237 C236 1.367 . S
C237 H251 0.950 . S
C238 C235 1.481 . S
C238 C239 1.297 . S
C238 H252 0.950 . S
C239 C238 1.297 . S
C239 C240 1.479 . S
C239 H253 0.950 . S
C240 C239 1.479 . S
C240 C241 1.375 . S
C240 C246 1.404 . S
C241 C240 1.375 . S
C241 C242 1.369 . S
C241 H254 0.950 . S
C242 C241 1.369 . S
C242 C243 1.392 . S
C242 H255 0.951 . S
C243 C242 1.392 . S
C243 C245 1.384 . S
H244 C246 0.949 . S
C245 C243 1.384 . S
C245 C246 1.385 . S
C245 H247 0.950 . S
C246 C240 1.404 . S
C246 H244 0.949 . S
C246 C245 1.385 . S
H247 C245 0.950 . S
H248 C232 0.951 . S
H249 C234 0.951 . S
H250 C236 0.951 . S
H251 C237 0.950 . S
H252 C238 0.950 . S
H253 C239 0.950 . S
H254 C241 0.950 . S
H255 C242 0.951 . S
C256 C257 1.386 . S
C256 C258 1.383 1_554 S
C256 H272 0.951 . S
C257 C256 1.386 . S
C257 C261 1.384 1_554 S
C258 C256 1.383 1_556 S
C258 C259 1.402 . S
C258 H273 0.947 . S
C259 C258 1.402 . S
C259 C260 1.375 1_565 S
C259 C262 1.481 1_565 S
C260 C259 1.375 1_545 S
C260 C261 1.366 1_545 S
C260 H274 0.951 . S
C261 C257 1.384 1_556 S
C261 C260 1.366 1_565 S
C261 H275 0.949 1_565 S
C262 C259 1.481 1_545 S
C262 C263 1.297 1_545 S
C262 H276 0.950 . S
C263 C262 1.297 1_565 S
C263 C264 1.479 1_565 S
C263 H277 0.950 . S
C264 C263 1.479 1_545 S
C264 C265 1.375 1_545 S
C264 C270 1.404 . S
C265 C264 1.375 1_565 S
C265 C266 1.369 1_565 S
C265 H278 0.950 . S
C266 C265 1.369 1_545 S
C266 C267 1.392 . S
C266 H279 0.951 1_545 S
C267 C266 1.392 . S
C267 C269 1.384 . S
H268 C270 0.949 . S
C269 C267 1.384 . S
C269 C270 1.385 . S
C269 H271 0.950 . S
C270 C264 1.404 . S
C270 H268 0.949 . S
C270 C269 1.385 . S
H271 C269 0.950 . S
H272 C256 0.951 . S
H273 C258 0.947 . S
H274 C260 0.951 . S
H275 C261 0.949 1_545 S
H276 C262 0.950 . S
H277 C263 0.950 . S
H278 C265 0.950 . S
H279 C266 0.951 1_565 S
C280 C281 1.389 . S
C280 C282 1.377 1_565 S
C280 H296 0.953 . S
C281 C280 1.389 . S
C281 C285 1.383 1_565 S
C282 C280 1.377 1_545 S
C282 C283 1.402 . S
C282 H297 0.951 . S
C283 C282 1.402 . S
C283 C284 1.375 . S
C283 C286 1.481 . S
C284 C283 1.375 . S
C284 C285 1.367 . S
C284 H298 0.951 . S
C285 C281 1.383 1_545 S
C285 C284 1.367 . S
C285 H299 0.950 . S
C286 C283 1.481 . S
C286 C287 1.297 . S
C286 H300 0.950 . S
C287 C286 1.297 . S
C287 C288 1.479 . S
C287 H301 0.950 . S
C288 C287 1.479 . S
C288 C289 1.375 . S
C288 C294 1.404 . S
C289 C288 1.375 . S
C289 C290 1.369 . S
C289 H302 0.950 . S
C290 C289 1.369 . S
C290 C291 1.392 . S
C290 H303 0.951 . S
C291 C290 1.392 . S
C291 C293 1.384 . S
H292 C294 0.949 . S
C293 C291 1.384 . S
C293 C294 1.385 . S
C293 H295 0.950 . S
C294 C288 1.404 . S
C294 H292 0.949 . S
C294 C293 1.385 . S
H295 C293 0.950 . S
H296 C280 0.953 . S
H297 C282 0.951 . S
H298 C284 0.951 . S
H299 C285 0.950 . S
H300 C286 0.950 . S
H301 C287 0.950 . S
H302 C289 0.950 . S
H303 C290 0.951 . S
C304 C305 1.386 . S
C304 C306 1.383 . S
C304 H320 0.951 . S
C305 C304 1.386 . S
C305 C309 1.383 1_554 S
C306 C304 1.383 . S
C306 C307 1.402 1_554 S
C306 H321 0.951 . S
C307 C306 1.402 1_556 S
C307 C308 1.375 . S
C307 C310 1.481 . S
C308 C307 1.375 . S
C308 C309 1.367 . S
C308 H322 0.951 . S
C309 C305 1.383 1_556 S
C309 C308 1.367 . S
C309 H323 0.950 . S
C310 C307 1.481 . S
C310 C311 1.297 1_656 S
C310 H324 0.950 . S
C311 C310 1.297 1_454 S
C311 C312 1.479 . S
C311 H325 0.950 . S
C312 C311 1.479 . S
C312 C313 1.375 . S
C312 C318 1.404 1_554 S
C313 C312 1.375 . S
C313 C314 1.369 . S
C313 H326 0.950 . S
C314 C313 1.369 . S
C314 C315 1.392 1_554 S
C314 H327 0.951 . S
C315 C314 1.392 1_556 S
C315 C317 1.384 . S
H316 C318 0.949 . S
C317 C315 1.384 . S
C317 C318 1.385 . S
C317 H319 0.950 . S
C318 C312 1.404 1_556 S
C318 H316 0.949 . S
C318 C317 1.385 . S
H319 C317 0.950 . S
H320 C304 0.951 . S
H321 C306 0.951 . S
H322 C308 0.951 . S
H323 C309 0.950 . S
H324 C310 0.950 . S
H325 C311 0.950 . S
H326 C313 0.950 . S
H327 C314 0.951 . S
C328 C329 1.386 . S
C328 C330 1.383 . S
C328 H344 0.951 . S
C329 C328 1.386 . S
C329 C333 1.383 . S
C330 C328 1.383 . S
C330 C331 1.402 . S
C330 H345 0.951 . S
C331 C330 1.402 . S
C331 C332 1.375 . S
C331 C334 1.481 . S
C332 C331 1.375 . S
C332 C333 1.367 . S
C332 H346 0.951 . S
C333 C329 1.383 . S
C333 C332 1.367 . S
C333 H347 0.950 . S
C334 C331 1.481 . S
C334 C335 1.297 1_455 S
C334 H348 0.950 . S
C335 C334 1.297 1_655 S
C335 C336 1.479 . S
C335 H349 0.950 . S
C336 C335 1.479 . S
C336 C337 1.375 . S
C336 C342 1.404 . S
C337 C336 1.375 . S
C337 C338 1.369 . S
C337 H350 0.950 . S
C338 C337 1.369 . S
C338 C339 1.392 . S
C338 H351 0.951 . S
C339 C338 1.392 . S
C339 C341 1.384 . S
H340 C342 0.949 . S
C341 C339 1.384 . S
C341 C342 1.385 . S
C341 H343 0.950 . S
C342 C336 1.404 . S
C342 H340 0.949 . S
C342 C341 1.385 . S
H343 C341 0.950 . S
H344 C328 0.951 . S
H345 C330 0.951 . S
H346 C332 0.951 . S
H347 C333 0.950 . S
H348 C334 0.950 . S
H349 C335 0.950 . S
H350 C337 0.950 . S
H351 C338 0.951 . S
C352 C353 1.404 1_655 S
C352 C354 1.383 . S
C352 H368 0.951 . S
C353 C352 1.404 1_455 S
C353 C357 1.364 1_545 S
C354 C352 1.383 . S
C354 C355 1.402 1_645 S
C354 H369 0.951 . S
C355 C354 1.402 1_465 S
C355 C356 1.375 . S
C355 C358 1.481 . S
C356 C355 1.375 . S
C356 C357 1.367 . S
C356 H370 0.951 . S
C357 C353 1.364 1_565 S
C357 C356 1.367 . S
C357 H371 0.950 . S
C358 C355 1.481 . S
C358 C359 1.297 1_565 S
C358 H372 0.950 . S
C359 C358 1.297 1_545 S
C359 C360 1.479 . S
C359 H373 0.950 . S
C360 C359 1.479 . S
C360 C361 1.375 1_455 S
C360 C366 1.404 1_545 S
C361 C360 1.375 1_655 S
C361 C362 1.368 . S
C361 H374 0.951 . S
C362 C361 1.368 . S
C362 C363 1.392 1_655 S
C362 H375 0.951 . S
C363 C362 1.392 1_455 S
C363 C365 1.384 1_545 S
H364 C366 0.949 . S
C365 C363 1.384 1_565 S
C365 C366 1.385 . S
C365 H367 0.950 . S
C366 C360 1.404 1_565 S
C366 H364 0.949 . S
C366 C365 1.385 . S
H367 C365 0.950 . S
H368 C352 0.951 . S
H369 C354 0.951 . S
H370 C356 0.951 . S
H371 C357 0.950 . S
H372 C358 0.950 . S
H373 C359 0.950 . S
H374 C361 0.951 . S
H375 C362 0.951 . S
C376 C377 1.386 1_455 S
C376 C378 1.383 . S
C376 H392 0.951 . S
C377 C376 1.386 1_655 S
C377 C381 1.383 . S
C378 C376 1.383 . S
C378 C379 1.402 1_455 S
C378 H393 0.951 . S
C379 C378 1.402 1_655 S
C379 C380 1.375 . S
C379 C382 1.481 . S
C380 C379 1.375 . S
C380 C381 1.367 . S
C380 H394 0.951 . S
C381 C377 1.383 . S
C381 C380 1.367 . S
C381 H395 0.950 . S
C382 C379 1.481 . S
C382 C383 1.297 1_655 S
C382 H396 0.950 . S
C383 C382 1.297 1_455 S
C383 C384 1.479 . S
C383 H397 0.950 . S
C384 C383 1.479 . S
C384 C385 1.375 . S
C384 C390 1.404 1_455 S
C385 C384 1.375 . S
C385 C386 1.369 . S
C385 H398 0.950 . S
C386 C385 1.369 . S
C386 C387 1.392 . S
C386 H399 0.951 . S
C387 C386 1.392 . S
C387 C389 1.384 1_455 S
H388 C390 0.949 . S
C389 C387 1.384 1_655 S
C389 C390 1.385 . S
C389 H391 0.950 . S
C390 C384 1.404 1_655 S
C390 H388 0.949 . S
C390 C389 1.385 . S
H391 C389 0.950 . S
H392 C376 0.951 . S
H393 C378 0.951 . S
H394 C380 0.951 . S
H395 C381 0.950 . S
H396 C382 0.950 . S
H397 C383 0.950 . S
H398 C385 0.950 . S
H399 C386 0.951 . S
C400 C401 1.386 . S
C400 C402 1.383 . S
C400 H416 0.951 . S
C401 C400 1.386 . S
C401 C405 1.383 . S
C402 C400 1.383 . S
C402 C403 1.402 . S
C402 H417 0.951 . S
C403 C402 1.402 . S
C403 C404 1.375 . S
C403 C406 1.481 . S
C404 C403 1.375 . S
C404 C405 1.367 . S
C404 H418 0.951 . S
C405 C401 1.383 . S
C405 C404 1.367 . S
C405 H419 0.950 . S
C406 C403 1.481 . S
C406 C407 1.297 . S
C406 H420 0.950 . S
C407 C406 1.297 . S
C407 C408 1.479 . S
C407 H421 0.950 . S
C408 C407 1.479 . S
C408 C409 1.375 . S
C408 C414 1.404 . S
C409 C408 1.375 . S
C409 C410 1.369 . S
C409 H422 0.950 . S
C410 C409 1.369 . S
C410 C411 1.392 . S
C410 H423 0.951 . S
C411 C410 1.392 . S
C411 C413 1.384 . S
H412 C414 0.949 . S
C413 C411 1.384 . S
C413 C414 1.385 . S
C413 H415 0.950 . S
C414 C408 1.404 . S
C414 H412 0.949 . S
C414 C413 1.385 . S
H415 C413 0.950 . S
H416 C400 0.951 . S
H417 C402 0.951 . S
H418 C404 0.951 . S
H419 C405 0.950 . S
H420 C406 0.950 . S
H421 C407 0.950 . S
H422 C409 0.950 . S
H423 C410 0.951 . S
C424 C425 1.386 . S
C424 C426 1.383 . S
C424 H440 0.951 . S
C425 C424 1.386 . S
C425 C429 1.383 . S
C426 C424 1.383 . S
C426 C427 1.402 . S
C426 H441 0.951 . S
C427 C426 1.402 . S
C427 C428 1.375 . S
C427 C430 1.481 . S
C428 C427 1.375 . S
C428 C429 1.367 . S
C428 H442 0.951 . S
C429 C425 1.383 . S
C429 C428 1.367 . S
C429 H443 0.950 . S
C430 C427 1.481 . S
C430 C431 1.297 . S
C430 H444 0.950 . S
C431 C430 1.297 . S
C431 C432 1.479 . S
C431 H445 0.950 . S
C432 C431 1.479 . S
C432 C433 1.375 . S
C432 C438 1.404 . S
C433 C432 1.375 . S
C433 C434 1.369 . S
C433 H446 0.950 . S
C434 C433 1.369 . S
C434 C435 1.392 . S
C434 H447 0.951 . S
C435 C434 1.392 . S
C435 C437 1.384 . S
H436 C438 0.949 . S
C437 C435 1.384 . S
C437 C438 1.385 . S
C437 H439 0.950 . S
C438 C432 1.404 . S
C438 H436 0.949 . S
C438 C437 1.385 . S
H439 C437 0.950 . S
H440 C424 0.951 . S
H441 C426 0.951 . S
H442 C428 0.951 . S
H443 C429 0.950 . S
H444 C430 0.950 . S
H445 C431 0.950 . S
H446 C433 0.950 . S
H447 C434 0.951 . S
C161 C93 3.564 1_556 S
C171 C24 3.565 . S
C185 C104 3.570 . S
C195 C13 3.546 1_556 S
C209 C57 0.256 . S
C219 C146 0.459 . S
C233 C66 0.211 . S
C243 C137 0.435 . S
C257 C17 1.251 . S
C267 C26 1.306 . S
C281 C64 4.670 . S
C291 C53 4.662 . S
C305 C97 1.283 . S
C315 C106 1.257 . S
C329 C133 4.671 . S
C339 C144 4.659 . S
C353 C42 1.447 1_445 S
C363 C23 1.420 . S
C377 C2 1.448 . S
C387 C63 1.494 1_565 S
C401 C122 1.439 . S
C411 C103 1.433 . S
C425 C143 1.447 . S
C435 C82 1.481 . S
