# Generated by pormake.
# Topology fcp, (5)-cn, num edge types: 1
# Building blocks:
#     Node 0, Type 0, BuildingBlock: XOMCOT_clean_sbu_0, # of connection points: 5
#     Node 1, Type 0, BuildingBlock: XOMCOT_clean_sbu_0, # of connection points: 5
#     Node 2, Type 0, BuildingBlock: XOMCOT_clean_sbu_0, # of connection points: 5
#     Node 3, Type 0, BuildingBlock: XOMCOT_clean_sbu_0, # of connection points: 5
#     Node 4, Type 0, BuildingBlock: XOMCOT_clean_sbu_0, # of connection points: 5
#     Node 5, Type 0, BuildingBlock: XOMCOT_clean_sbu_0, # of connection points: 5
#     Node 6, Type 0, BuildingBlock: XOMCOT_clean_sbu_0, # of connection points: 5
#     Node 7, Type 0, BuildingBlock: XOMCOT_clean_sbu_0, # of connection points: 5
#     Node 8, Type 0, BuildingBlock: XOMCOT_clean_sbu_0, # of connection points: 5
#     Node 9, Type 0, BuildingBlock: XOMCOT_clean_sbu_0, # of connection points: 5
#     Node 10, Type 0, BuildingBlock: XOMCOT_clean_sbu_0, # of connection points: 5
#     Node 11, Type 0, BuildingBlock: XOMCOT_clean_sbu_0, # of connection points: 5
#     Node 12, Type 0, BuildingBlock: XOMCOT_clean_sbu_0, # of connection points: 5
#     Node 13, Type 0, BuildingBlock: XOMCOT_clean_sbu_0, # of connection points: 5
#     Node 14, Type 0, BuildingBlock: XOMCOT_clean_sbu_0, # of connection points: 5
#     Node 15, Type 0, BuildingBlock: XOMCOT_clean_sbu_0, # of connection points: 5
#     Node 16, Type 0, BuildingBlock: XOMCOT_clean_sbu_0, # of connection points: 5
#     Node 17, Type 0, BuildingBlock: XOMCOT_clean_sbu_0, # of connection points: 5
#     Node 18, Type 0, BuildingBlock: XOMCOT_clean_sbu_0, # of connection points: 5
#     Node 19, Type 0, BuildingBlock: XOMCOT_clean_sbu_0, # of connection points: 5
#     Node 20, Type 0, BuildingBlock: XOMCOT_clean_sbu_0, # of connection points: 5
#     Node 21, Type 0, BuildingBlock: XOMCOT_clean_sbu_0, # of connection points: 5
#     Node 22, Type 0, BuildingBlock: XOMCOT_clean_sbu_0, # of connection points: 5
#     Node 23, Type 0, BuildingBlock: XOMCOT_clean_sbu_0, # of connection points: 5
#     Edge 24, Type (0, 0), BuildingBlock: KIFKEQ_clean_linker_1, # of connection points: 2
#     Edge 25, Type (0, 0), BuildingBlock: KIFKEQ_clean_linker_1, # of connection points: 2
#     Edge 26, Type (0, 0), BuildingBlock: KIFKEQ_clean_linker_1, # of connection points: 2
#     Edge 27, Type (0, 0), BuildingBlock: KIFKEQ_clean_linker_1, # of connection points: 2
#     Edge 28, Type (0, 0), BuildingBlock: KIFKEQ_clean_linker_1, # of connection points: 2
#     Edge 29, Type (0, 0), BuildingBlock: KIFKEQ_clean_linker_1, # of connection points: 2
#     Edge 30, Type (0, 0), BuildingBlock: KIFKEQ_clean_linker_1, # of connection points: 2
#     Edge 31, Type (0, 0), BuildingBlock: KIFKEQ_clean_linker_1, # of connection points: 2
#     Edge 32, Type (0, 0), BuildingBlock: KIFKEQ_clean_linker_1, # of connection points: 2
#     Edge 33, Type (0, 0), BuildingBlock: KIFKEQ_clean_linker_1, # of connection points: 2
#     Edge 34, Type (0, 0), BuildingBlock: KIFKEQ_clean_linker_1, # of connection points: 2
#     Edge 35, Type (0, 0), BuildingBlock: KIFKEQ_clean_linker_1, # of connection points: 2
#     Edge 36, Type (0, 0), BuildingBlock: KIFKEQ_clean_linker_1, # of connection points: 2
#     Edge 37, Type (0, 0), BuildingBlock: KIFKEQ_clean_linker_1, # of connection points: 2
#     Edge 38, Type (0, 0), BuildingBlock: KIFKEQ_clean_linker_1, # of connection points: 2
#     Edge 39, Type (0, 0), BuildingBlock: KIFKEQ_clean_linker_1, # of connection points: 2
#     Edge 40, Type (0, 0), BuildingBlock: KIFKEQ_clean_linker_1, # of connection points: 2
#     Edge 41, Type (0, 0), BuildingBlock: KIFKEQ_clean_linker_1, # of connection points: 2
#     Edge 42, Type (0, 0), BuildingBlock: KIFKEQ_clean_linker_1, # of connection points: 2
#     Edge 43, Type (0, 0), BuildingBlock: KIFKEQ_clean_linker_1, # of connection points: 2
#     Edge 44, Type (0, 0), BuildingBlock: KIFKEQ_clean_linker_1, # of connection points: 2
#     Edge 45, Type (0, 0), BuildingBlock: KIFKEQ_clean_linker_1, # of connection points: 2
#     Edge 46, Type (0, 0), BuildingBlock: KIFKEQ_clean_linker_1, # of connection points: 2
#     Edge 47, Type (0, 0), BuildingBlock: KIFKEQ_clean_linker_1, # of connection points: 2
#     Edge 48, Type (0, 0), BuildingBlock: KIFKEQ_clean_linker_1, # of connection points: 2
#     Edge 49, Type (0, 0), BuildingBlock: KIFKEQ_clean_linker_1, # of connection points: 2
#     Edge 50, Type (0, 0), BuildingBlock: KIFKEQ_clean_linker_1, # of connection points: 2
#     Edge 51, Type (0, 0), BuildingBlock: KIFKEQ_clean_linker_1, # of connection points: 2
#     Edge 52, Type (0, 0), BuildingBlock: KIFKEQ_clean_linker_1, # of connection points: 2
#     Edge 53, Type (0, 0), BuildingBlock: KIFKEQ_clean_linker_1, # of connection points: 2
#     Edge 54, Type (0, 0), BuildingBlock: KIFKEQ_clean_linker_1, # of connection points: 2
#     Edge 55, Type (0, 0), BuildingBlock: KIFKEQ_clean_linker_1, # of connection points: 2
#     Edge 56, Type (0, 0), BuildingBlock: KIFKEQ_clean_linker_1, # of connection points: 2
#     Edge 57, Type (0, 0), BuildingBlock: KIFKEQ_clean_linker_1, # of connection points: 2
#     Edge 58, Type (0, 0), BuildingBlock: KIFKEQ_clean_linker_1, # of connection points: 2
#     Edge 59, Type (0, 0), BuildingBlock: KIFKEQ_clean_linker_1, # of connection points: 2
#     Edge 60, Type (0, 0), BuildingBlock: KIFKEQ_clean_linker_1, # of connection points: 2
#     Edge 61, Type (0, 0), BuildingBlock: KIFKEQ_clean_linker_1, # of connection points: 2
#     Edge 62, Type (0, 0), BuildingBlock: KIFKEQ_clean_linker_1, # of connection points: 2
#     Edge 63, Type (0, 0), BuildingBlock: KIFKEQ_clean_linker_1, # of connection points: 2
#     Edge 64, Type (0, 0), BuildingBlock: KIFKEQ_clean_linker_1, # of connection points: 2
#     Edge 65, Type (0, 0), BuildingBlock: KIFKEQ_clean_linker_1, # of connection points: 2
#     Edge 66, Type (0, 0), BuildingBlock: KIFKEQ_clean_linker_1, # of connection points: 2
#     Edge 67, Type (0, 0), BuildingBlock: KIFKEQ_clean_linker_1, # of connection points: 2
#     Edge 68, Type (0, 0), BuildingBlock: KIFKEQ_clean_linker_1, # of connection points: 2
#     Edge 69, Type (0, 0), BuildingBlock: KIFKEQ_clean_linker_1, # of connection points: 2
#     Edge 70, Type (0, 0), BuildingBlock: KIFKEQ_clean_linker_1, # of connection points: 2
#     Edge 71, Type (0, 0), BuildingBlock: KIFKEQ_clean_linker_1, # of connection points: 2
#     Edge 72, Type (0, 0), BuildingBlock: KIFKEQ_clean_linker_1, # of connection points: 2
#     Edge 73, Type (0, 0), BuildingBlock: KIFKEQ_clean_linker_1, # of connection points: 2
#     Edge 74, Type (0, 0), BuildingBlock: KIFKEQ_clean_linker_1, # of connection points: 2
#     Edge 75, Type (0, 0), BuildingBlock: KIFKEQ_clean_linker_1, # of connection points: 2
#     Edge 76, Type (0, 0), BuildingBlock: KIFKEQ_clean_linker_1, # of connection points: 2
#     Edge 77, Type (0, 0), BuildingBlock: KIFKEQ_clean_linker_1, # of connection points: 2
#     Edge 78, Type (0, 0), BuildingBlock: KIFKEQ_clean_linker_1, # of connection points: 2
#     Edge 79, Type (0, 0), BuildingBlock: KIFKEQ_clean_linker_1, # of connection points: 2
#     Edge 80, Type (0, 0), BuildingBlock: KIFKEQ_clean_linker_1, # of connection points: 2
#     Edge 81, Type (0, 0), BuildingBlock: KIFKEQ_clean_linker_1, # of connection points: 2
#     Edge 82, Type (0, 0), BuildingBlock: KIFKEQ_clean_linker_1, # of connection points: 2
#     Edge 83, Type (0, 0), BuildingBlock: KIFKEQ_clean_linker_1, # of connection points: 2
# Relax obj value: 0.054
# Max RMSD: 0.111
# Mean RMSD: 0.111
data_MOF--net-fcp--node1-XOMCOT_clean_sbu_0--edge1-KIFKEQ_clean_linker_1
_symmetry_space_group_name_H-M    P1
_symmetry_Int_Tables_number       1
_symmetry_cell_setting            triclinic
loop_
_symmetry_equiv_pos_as_xyz
'x, y, z'
_cell_length_a     52.236445
_cell_length_b     52.293227
_cell_length_c     52.272946
_cell_angle_alpha  90.037063
_cell_angle_beta   90.023519
_cell_angle_gamma 89.965788
loop_
_atom_site_label
_atom_site_type_symbol
_atom_site_fract_x
_atom_site_fract_y
_atom_site_fract_z
_atom_type_partial_charge
Co0 Co 0.08331 0.33144 0.18042 0.0
C1 C 0.13222 0.30977 0.15994 0.0
C2 C 0.12966 0.35016 0.1538 0.0
C3 C 0.15193 0.34146 0.14292 0.0
N4 N 0.11719 0.33037 0.16464 0.0
N5 N 0.1535 0.31601 0.14661 0.0
H6 H 0.1272 0.2904 0.16505 0.0
H7 H 0.12291 0.36957 0.15286 0.0
C8 C 0.08845 0.39131 0.18198 0.0
O9 O 0.08152 0.39698 0.15852 0.0
N10 N 0.0499 0.33263 0.19624 0.0
C11 C 0.02919 0.3191 0.18903 0.0
C12 C 1.00882 0.32621 0.20414 0.0
C13 C 0.04206 0.34745 0.2159 0.0
N14 N 0.01693 0.34402 0.22099 0.0
C15 C 0.07504 0.32286 0.12725 0.0
C16 C 0.03794 0.35976 0.11953 0.0
C17 C 0.04581 0.34473 0.09865 0.0
C18 C 0.06447 0.32593 0.10293 0.0
C19 C 0.04911 0.35605 0.14367 0.0
N20 N 0.06798 0.33827 0.1471 0.0
H21 H 0.08873 0.30769 0.13022 0.0
H22 H 0.04246 0.36738 0.15964 0.0
H23 H 0.02884 0.30543 0.17349 0.0
H24 H 0.05426 0.36095 0.22578 0.0
O25 O 0.08156 0.29417 0.18067 0.0
O26 O 0.09738 0.31853 0.21159 0.0
O27 O 0.089 0.36825 0.18988 0.0
C28 C 0.0922 0.29574 0.20325 0.0
H29 H 0.16574 0.3531 0.13282 0.0
H30 H 0.98948 0.3189 0.20278 0.0
H31 H 0.02339 0.37434 0.11726 0.0
H32 H 0.07052 0.3132 0.08774 0.0
Co33 Co 0.836 0.43731 0.33812 0.0
C34 C 0.81677 0.39101 0.36541 0.0
C35 C 0.84688 0.38222 0.33903 0.0
C36 C 0.838 0.35972 0.34927 0.0
N37 N 0.83418 0.40201 0.34971 0.0
N38 N 0.819 0.36529 0.36576 0.0
H39 H 0.80186 0.40121 0.37533 0.0
H40 H 0.8607 0.38385 0.32373 0.0
C41 C 0.89169 0.42163 0.34253 0.0
O42 O 0.88758 0.41123 0.36504 0.0
N43 N 0.83762 0.47198 0.32581 0.0
C44 C 0.82568 0.49259 0.3356 0.0
C45 C 0.83246 0.5137 0.32138 0.0
C46 C 0.85115 0.4806 0.30563 0.0
N47 N 0.84844 0.50609 0.30255 0.0
C48 C 0.82075 0.44952 0.38944 0.0
C49 C 0.86559 0.47313 0.40449 0.0
C50 C 0.84513 0.47207 0.42185 0.0
C51 C 0.8225 0.46 0.41395 0.0
C52 C 0.86301 0.46237 0.38004 0.0
N53 N 0.84104 0.44998 0.373 0.0
H54 H 0.80255 0.44199 0.3834 0.0
H55 H 0.87837 0.46503 0.36653 0.0
H56 H 0.81305 0.49231 0.35199 0.0
H57 H 0.86308 0.46853 0.29375 0.0
O58 O 0.79883 0.43839 0.33605 0.0
O59 O 0.82488 0.42609 0.30494 0.0
O60 O 0.8738 0.43377 0.33114 0.0
C61 C 0.80158 0.42973 0.31282 0.0
H62 H 0.84391 0.34064 0.34379 0.0
H63 H 0.82597 0.53311 0.32452 0.0
H64 H 0.88312 0.48306 0.40935 0.0
H65 H 0.80604 0.45891 0.42648 0.0
Co66 Co 0.93794 0.68723 0.18244 0.0
C67 C 0.89037 0.70428 0.15501 0.0
C68 C 0.88302 0.67883 0.18622 0.0
C69 C 0.86001 0.68733 0.17688 0.0
N70 N 0.90216 0.68904 0.17232 0.0
N71 N 0.86453 0.70343 0.15722 0.0
H72 H 0.90029 0.71662 0.14189 0.0
H73 H 0.88566 0.66703 0.20301 0.0
C74 C 0.92071 0.63237 0.17895 0.0
O75 O 0.90892 0.63713 0.15725 0.0
N76 N 0.973 0.68537 0.19368 0.0
C77 C 0.99365 0.6967 0.18328 0.0
C78 C 0.01492 0.68992 0.19738 0.0
C79 C 0.98176 0.67221 0.21404 0.0
N80 N 1.00735 0.67457 0.21672 0.0
C81 C 0.94925 0.70248 0.13099 0.0
C82 C 0.97171 0.65729 0.11526 0.0
C83 C 0.9712 0.67802 0.09823 0.0
C84 C 0.95964 0.70079 0.10643 0.0
C85 C 0.96111 0.65981 0.13976 0.0
N86 N 0.9494 0.68202 0.1472 0.0
H87 H 0.94203 0.72074 0.13726 0.0
H88 H 0.9635 0.64422 0.15302 0.0
H89 H 0.9933 0.70896 0.16663 0.0
H90 H 0.96967 0.66084 0.22639 0.0
O91 O 0.93918 0.72435 0.18426 0.0
O92 O 0.92801 0.69858 0.21597 0.0
O93 O 0.93437 0.64959 0.18959 0.0
C94 C 0.93132 0.72178 0.20778 0.0
H95 H 0.84149 0.68308 0.18508 0.0
H96 H 0.03439 0.69602 0.19383 0.0
H97 H 0.98121 0.6396 0.11013 0.0
H98 H 0.95895 0.71743 0.09411 0.0
Co99 Co 0.18718 0.58347 0.33772 0.0
C100 C 0.2063 0.63 0.36486 0.0
C101 C 0.17723 0.63867 0.33726 0.0
C102 C 0.18573 0.66123 0.34772 0.0
N103 N 0.18947 0.61894 0.34859 0.0
N104 N 0.20404 0.65571 0.36496 0.0
H105 H 0.22073 0.61987 0.37554 0.0
H106 H 0.16384 0.6369 0.32158 0.0
C107 C 0.13188 0.60036 0.34159 0.0
O108 O 0.13615 0.61118 0.36389 0.0
N109 N 0.18486 0.54864 0.32604 0.0
C110 C 0.19553 0.52777 0.33669 0.0
C111 C 0.18725 0.50652 0.32347 0.0
C112 C 0.17066 0.54002 0.3063 0.0
N113 N 0.17165 0.51432 0.30441 0.0
C114 C 0.20203 0.57206 0.38934 0.0
C115 C 0.15653 0.55013 0.40487 0.0
C116 C 0.17681 0.55159 0.42246 0.0
C117 C 0.19985 0.56258 0.41422 0.0
C118 C 0.15953 0.55993 0.38008 0.0
N119 N 0.18179 0.57164 0.37283 0.0
H120 H 0.22047 0.57881 0.38312 0.0
H121 H 0.14414 0.55726 0.36659 0.0
H122 H 0.20798 0.52793 0.35323 0.0
H123 H 0.15919 0.55222 0.29412 0.0
O124 O 0.22433 0.58175 0.33587 0.0
O125 O 0.19866 0.59383 0.30438 0.0
O126 O 0.14951 0.58755 0.33054 0.0
C127 C 0.22186 0.59007 0.3125 0.0
H128 H 0.17998 0.68029 0.34203 0.0
H129 H 0.19218 0.48684 0.32761 0.0
H130 H 0.13851 0.54136 0.41011 0.0
H131 H 0.21647 0.56309 0.42661 0.0
Co132 Co 0.08375 0.68758 0.83726 0.0
C133 C 0.13226 0.70718 0.86104 0.0
C134 C 0.13857 0.67733 0.83372 0.0
C135 C 0.1619 0.68648 0.84145 0.0
N136 N 0.11983 0.68972 0.84645 0.0
N137 N 0.15799 0.70542 0.8585 0.0
H138 H 0.12296 0.72226 0.87157 0.0
H139 H 0.13553 0.66352 0.81862 0.0
C140 C 0.10042 0.63288 0.842 0.0
O141 O 0.11098 0.63834 0.86417 0.0
N142 N 0.04848 0.68546 0.82682 0.0
C143 C 0.02854 0.69941 0.8353 0.0
C144 C 1.00727 0.69319 0.8209 0.0
C145 C 0.03927 0.67105 0.80754 0.0
N146 N 0.01413 0.67534 0.80351 0.0
C147 C 0.07551 0.70125 0.88991 0.0
C148 C 0.05003 0.65719 0.90404 0.0
C149 C 0.05322 0.67662 0.9223 0.0
C150 C 0.06613 0.69891 0.91483 0.0
C151 C 0.05977 0.66031 0.87927 0.0
N152 N 0.07312 0.68181 0.87264 0.0
H153 H 0.08356 0.7193 0.88423 0.0
H154 H 0.05575 0.64572 0.86523 0.0
H155 H 0.02953 0.71342 0.8505 0.0
H156 H 0.05098 0.6584 0.79606 0.0
O157 O 0.08206 0.72463 0.83623 0.0
O158 O 0.09254 0.6996 0.80358 0.0
O159 O 0.08766 0.64989 0.82997 0.0
C160 C 0.08906 0.72259 0.81241 0.0
H161 H 0.18029 0.68021 0.83429 0.0
H162 H 0.98829 0.70122 0.82299 0.0
H163 H 0.03985 0.63978 0.90871 0.0
H164 H 0.06808 0.71495 0.9278 0.0
Co165 Co 0.1853 0.43758 0.68343 0.0
C166 C 0.20444 0.38988 0.6579 0.0
C167 C 0.17385 0.38298 0.68423 0.0
C168 C 0.1828 0.35986 0.67572 0.0
N169 N 0.18685 0.40199 0.67261 0.0
N170 N 0.20221 0.36414 0.6593 0.0
H171 H 0.21993 0.39934 0.64814 0.0
H172 H 0.15979 0.38562 0.69917 0.0
C173 C 0.13027 0.42229 0.67685 0.0
O174 O 0.13589 0.41233 0.65445 0.0
N175 N 0.18379 0.47238 0.69537 0.0
C176 C 0.19851 0.49214 0.68794 0.0
C177 C 0.19252 0.51307 0.70286 0.0
C178 C 0.16911 0.48138 0.71457 0.0
N179 N 0.17403 0.50623 0.71954 0.0
C180 C 0.20091 0.44808 0.63178 0.0
C181 C 0.15732 0.47413 0.61696 0.0
C182 C 0.17749 0.47169 0.59939 0.0
C183 C 0.1995 0.45843 0.60718 0.0
C184 C 0.15957 0.46352 0.64147 0.0
N185 N 0.18084 0.44991 0.6484 0.0
H186 H 0.21868 0.43955 0.63774 0.0
H187 H 0.14451 0.46714 0.65512 0.0
H188 H 0.21287 0.49125 0.67306 0.0
H189 H 0.15575 0.46974 0.72527 0.0
O190 O 0.2224 0.43834 0.68581 0.0
O191 O 0.19605 0.42672 0.71692 0.0
O192 O 0.14731 0.43438 0.68952 0.0
C193 C 0.21944 0.42998 0.7091 0.0
H194 H 0.17609 0.34133 0.68197 0.0
H195 H 0.20113 0.53185 0.70156 0.0
H196 H 0.14033 0.48499 0.61218 0.0
H197 H 0.21574 0.45631 0.59448 0.0
Co198 Co 0.93726 0.33324 0.83573 0.0
C199 C 0.89081 0.31398 0.86319 0.0
C200 C 0.88214 0.3438 0.83649 0.0
C201 C 0.85959 0.3353 0.84694 0.0
N202 N 0.90191 0.33113 0.84729 0.0
N203 N 0.86509 0.3165 0.86362 0.0
H204 H 0.9009 0.29909 0.87326 0.0
H205 H 0.88384 0.35748 0.82109 0.0
C206 C 0.92101 0.38815 0.84166 0.0
O207 O 0.91118 0.38281 0.86417 0.0
N208 N 0.97186 0.33528 0.82321 0.0
C209 C 0.99205 0.321 0.83042 0.0
C210 C 0.01268 0.32738 0.81524 0.0
C211 C 0.9803 0.35009 0.80388 0.0
N212 N 1.0052 0.34568 0.79862 0.0
C213 C 0.949 0.31859 0.88744 0.0
C214 C 0.9723 0.36373 0.902 0.0
C215 C 0.96994 0.34407 0.92013 0.0
C216 C 0.95839 0.32113 0.91235 0.0
C217 C 0.96265 0.36034 0.87721 0.0
N218 N 0.95003 0.33843 0.87052 0.0
H219 H 0.94168 0.30026 0.88158 0.0
H220 H 0.96586 0.37526 0.86334 0.0
H221 H 0.99168 0.30671 0.84537 0.0
H222 H 0.96823 0.3632 0.79333 0.0
O223 O 0.9386 0.29615 0.8338 0.0
O224 O 0.92611 0.32191 0.80255 0.0
O225 O 0.93319 0.37104 0.82916 0.0
C226 C 0.9299 0.29869 0.81058 0.0
H227 H 0.84052 0.34136 0.84154 0.0
H228 H 0.03169 0.31921 0.81636 0.0
H229 H 0.98153 0.38162 0.90683 0.0
H230 H 0.95726 0.30491 0.92516 0.0
Co231 Co 0.83504 0.58324 0.68371 0.0
C232 C 0.8174 0.63015 0.65568 0.0
C233 C 0.84287 0.6382 0.68676 0.0
C234 C 0.83408 0.66095 0.67717 0.0
N235 N 0.83286 0.61878 0.67307 0.0
N236 N 0.81797 0.65597 0.65761 0.0
H237 H 0.80507 0.61996 0.64274 0.0
H238 H 0.85472 0.63591 0.70358 0.0
C239 C 0.8893 0.60121 0.67923 0.0
O240 O 0.88366 0.61196 0.65722 0.0
N241 N 0.83717 0.54844 0.69548 0.0
C242 C 0.82299 0.52841 0.68771 0.0
C243 C 0.82913 0.50756 0.70266 0.0
C244 C 0.8517 0.53969 0.71491 0.0
N245 N 0.84718 0.51474 0.7197 0.0
C246 C 0.82045 0.57153 0.63209 0.0
C247 C 0.86609 0.54957 0.61689 0.0
C248 C 0.84597 0.55116 0.59913 0.0
C249 C 0.82284 0.56212 0.60721 0.0
C250 C 0.86289 0.55938 0.64166 0.0
N251 N 0.84061 0.57119 0.64872 0.0
H252 H 0.80197 0.57838 0.63817 0.0
H253 H 0.8782 0.55678 0.65527 0.0
H254 H 0.80886 0.52906 0.67259 0.0
H255 H 0.86462 0.55157 0.72591 0.0
O256 O 0.79796 0.58158 0.68513 0.0
O257 O 0.82318 0.59375 0.717 0.0
O258 O 0.87272 0.58753 0.6908 0.0
C259 C 0.80011 0.59009 0.70844 0.0
H260 H 0.83808 0.67961 0.68514 0.0
H261 H 0.82092 0.48862 0.70114 0.0
H262 H 0.88414 0.54077 0.61175 0.0
H263 H 0.80636 0.56271 0.59464 0.0
Co264 Co 0.18291 0.08065 0.33198 0.0
C265 C 0.15624 0.1271 0.31199 0.0
C266 C 0.18356 0.13602 0.34123 0.0
C267 C 0.17339 0.15852 0.33222 0.0
N268 N 0.17222 0.11618 0.32921 0.0
N269 N 0.15631 0.15285 0.31379 0.0
H270 H 0.14568 0.11683 0.29758 0.0
H271 H 0.19911 0.13438 0.35478 0.0
C272 C 0.17929 0.09819 0.38701 0.0
O273 O 0.1569 0.10881 0.38264 0.0
N274 N 0.19445 0.0458 0.33464 0.0
C275 C 0.18425 0.02486 0.32366 0.0
C276 C 0.19842 1.00387 0.33104 0.0
C277 C 0.21476 0.03748 0.34819 0.0
N278 N 0.2176 0.01189 0.34642 0.0
C279 C 0.13115 0.06928 0.31762 0.0
C280 C 0.11625 0.04684 0.36306 0.0
C281 C 0.09875 0.04756 0.34269 0.0
C282 C 0.10655 0.05912 0.31979 0.0
C283 C 0.14079 0.05729 0.36006 0.0
N284 N 0.14779 0.06906 0.33777 0.0
H285 H 0.13711 0.07626 0.29921 0.0
H286 H 0.15442 0.05478 0.37536 0.0
H287 H 0.16767 0.02485 0.31127 0.0
H288 H 0.22693 0.04989 0.35944 0.0
O289 O 0.18432 0.0785 0.29491 0.0
O290 O 0.21633 0.09041 0.32014 0.0
O291 O 0.19038 0.08522 0.36953 0.0
C292 C 0.2079 0.08629 0.29712 0.0
H293 H 0.17917 0.17762 0.33773 0.0
H294 H 0.19501 0.98426 0.32535 0.0
H295 H 0.11145 0.03731 0.38081 0.0
H296 H 0.09389 0.05994 0.3034 0.0
Co297 Co 0.58706 0.33824 0.18533 0.0
C298 C 0.63356 0.36611 0.2033 0.0
C299 C 0.64194 0.33977 0.17306 0.0
C300 C 0.66455 0.35033 0.18136 0.0
N301 N 0.6223 0.35026 0.18619 0.0
N302 N 0.65923 0.36677 0.20044 0.0
H303 H 0.62364 0.37586 0.21852 0.0
H304 H 0.64018 0.32434 0.15941 0.0
C305 C 0.60142 0.34162 0.12932 0.0
O306 O 0.61142 0.36442 0.13272 0.0
N307 N 0.55247 0.32552 0.18462 0.0
C308 C 0.53207 0.33521 0.19702 0.0
C309 C 0.51081 0.32102 0.19055 0.0
C310 C 0.54357 0.30542 0.17111 0.0
N311 N 0.5181 0.30232 0.17428 0.0
C312 C 0.57477 0.38965 0.19963 0.0
C313 C 0.54962 0.40359 0.15528 0.0
C314 C 0.55098 0.42124 0.17548 0.0
C315 C 0.56387 0.41392 0.19781 0.0
C316 C 0.56079 0.37931 0.15795 0.0
N317 N 0.57389 0.37282 0.17968 0.0
H318 H 0.58293 0.3841 0.21768 0.0
H319 H 0.55792 0.36549 0.14289 0.0
H320 H 0.53257 0.35159 0.20965 0.0
H321 H 0.55538 0.2937 0.1588 0.0
O322 O 0.58653 0.33738 0.22242 0.0
O323 O 0.59903 0.30553 0.19733 0.0
O324 O 0.59 0.33034 0.14771 0.0
C325 C 0.59562 0.31428 0.22036 0.0
H326 H 0.68358 0.34504 0.17506 0.0
H327 H 0.49151 0.32415 0.19739 0.0
H328 H 0.53916 0.40811 0.13797 0.0
H329 H 0.56524 0.42673 0.21404 0.0
Co330 Co 0.837 0.93616 0.33466 0.0
C331 C 0.86452 0.88981 0.31514 0.0
C332 C 0.83687 0.88091 0.34404 0.0
C333 C 0.84755 0.85844 0.3356 0.0
N334 N 0.84809 0.90075 0.33191 0.0
N335 N 0.86484 0.8641 0.3174 0.0
H336 H 0.87521 0.89999 0.30079 0.0
H337 H 0.82119 0.88256 0.35743 0.0
C338 C 0.84283 0.91875 0.38915 0.0
O339 O 0.8652 0.90871 0.38352 0.0
N340 N 0.82504 0.97088 0.33741 0.0
C341 C 0.83515 0.99176 0.32628 0.0
C342 C 0.82175 0.01291 0.33451 0.0
C343 C 0.80543 0.97939 0.35187 0.0
N344 N 0.8031 1.00506 0.35056 0.0
C345 C 0.88865 0.94772 0.31977 0.0
C346 C 0.90388 0.97029 0.36508 0.0
C347 C 0.92163 0.9684 0.34502 0.0
C348 C 0.91356 0.95714 0.32205 0.0
C349 C 0.87911 0.96046 0.36201 0.0
N350 N 0.87204 0.94832 0.33991 0.0
H351 H 0.8825 0.94084 0.30135 0.0
H352 H 0.86547 0.96335 0.37723 0.0
H353 H 0.85138 0.99165 0.31343 0.0
H354 H 0.79359 0.96716 0.36364 0.0
O355 O 0.83492 0.93823 0.29761 0.0
O356 O 0.80364 0.9256 0.32327 0.0
O357 O 0.83051 0.93156 0.37239 0.0
C358 C 0.81165 0.92962 0.30009 0.0
H359 H 0.84206 0.83933 0.34135 0.0
H360 H 0.8254 0.03255 0.32911 0.0
H361 H 0.909 0.97937 0.38299 0.0
H362 H 0.92612 0.95636 0.30559 0.0
Co363 Co 0.43786 0.68236 0.18741 0.0
C364 C 0.3912 0.65477 0.20561 0.0
C365 C 0.38294 0.68119 0.17543 0.0
C366 C 0.36029 0.67062 0.18358 0.0
N367 N 0.40252 0.67066 0.1886 0.0
N368 N 0.36554 0.65411 0.20261 0.0
H369 H 0.40108 0.64487 0.22075 0.0
H370 H 0.38477 0.69655 0.16172 0.0
C371 C 0.42318 0.67802 0.13156 0.0
O372 O 0.4129 0.65541 0.13544 0.0
N373 N 0.47253 0.69483 0.18633 0.0
C374 C 0.49306 0.68519 0.19856 0.0
C375 C 0.51424 0.69936 0.19184 0.0
C376 C 0.48128 0.71487 0.17268 0.0
N377 N 0.50677 0.718 0.17559 0.0
C378 C 0.4498 0.63088 0.20221 0.0
C379 C 0.47424 0.61639 0.15762 0.0
C380 C 0.4726 0.59872 0.17774 0.0
C381 C 0.46018 0.60635 0.20026 0.0
C382 C 0.46361 0.64087 0.16042 0.0
N383 N 0.45074 0.64761 0.1822 0.0
H384 H 0.44191 0.63669 0.22032 0.0
H385 H 0.46669 0.65461 0.14535 0.0
H386 H 0.49267 0.66888 0.21126 0.0
H387 H 0.46932 0.72654 0.16046 0.0
O388 O 0.43845 0.68406 0.22457 0.0
O389 O 0.42636 0.71539 0.19871 0.0
O390 O 0.43482 0.68955 0.14968 0.0
C391 C 0.42973 0.70727 0.22195 0.0
H392 H 0.34129 0.67584 0.17713 0.0
H393 H 0.53362 0.69627 0.19849 0.0
H394 H 0.48446 0.61171 0.14022 0.0
H395 H 0.45869 0.59356 0.21648 0.0
Co396 Co 0.1839 0.93758 0.68799 0.0
C397 C 0.15674 0.88982 0.70471 0.0
C398 C 0.18857 0.88274 0.67989 0.0
C399 C 0.17926 0.85968 0.68816 0.0
N400 N 0.17427 0.90174 0.68987 0.0
N401 N 0.15921 0.86403 0.70385 0.0
H402 H 0.14321 0.89961 0.71675 0.0
H403 H 0.20553 0.88554 0.66837 0.0
C404 C 0.18061 0.9199 0.63331 0.0
O405 O 0.15889 0.90822 0.63822 0.0
N406 N 0.19467 0.97272 0.68601 0.0
C407 C 0.18405 0.99326 0.69736 0.0
C408 C 0.19775 0.01467 0.69031 0.0
C409 C 0.21474 0.9817 0.67256 0.0
N410 N 0.21704 1.00731 0.67475 0.0
C411 C 0.13202 0.94813 0.70283 0.0
C412 C 0.11617 0.96971 0.65727 0.0
C413 C 0.09868 0.9684 0.67762 0.0
C414 C 0.10706 0.95751 0.70067 0.0
C415 C 0.14103 0.96005 0.66024 0.0
N416 N 0.14849 0.94857 0.68255 0.0
H417 H 0.13835 0.94136 0.72124 0.0
H418 H 0.15443 0.96271 0.64479 0.0
H419 H 0.16751 0.99272 0.70978 0.0
H420 H 0.22713 0.96973 0.66106 0.0
O421 O 0.18559 0.93897 0.72516 0.0
O422 O 0.21754 0.92812 0.69952 0.0
O423 O 0.19121 0.93381 0.65036 0.0
C424 C 0.20922 0.93134 0.72271 0.0
H425 H 0.18769 0.84125 0.68402 0.0
H426 H 0.19393 0.0341 0.69635 0.0
H427 H 0.11082 0.97833 0.63922 0.0
H428 H 0.09472 0.95703 0.71731 0.0
Co429 Co 0.43547 0.33624 0.83387 0.0
C430 C 0.38832 0.36318 0.81563 0.0
C431 C 0.38029 0.33474 0.84399 0.0
C432 C 0.35748 0.34501 0.83588 0.0
N433 N 0.39978 0.34666 0.83195 0.0
N434 N 0.36259 0.36279 0.818 0.0
H435 H 0.39822 0.37444 0.8015 0.0
H436 H 0.38242 0.31881 0.85699 0.0
C437 C 0.41883 0.3396 0.88915 0.0
O438 O 0.40751 0.36166 0.88495 0.0
N439 N 0.47052 0.32492 0.83577 0.0
C440 C 0.49114 0.33536 0.82443 0.0
C441 C 0.51245 0.32139 0.83131 0.0
C442 C 0.47936 0.30466 0.84905 0.0
N443 N 0.50498 0.30209 0.84676 0.0
C444 C 0.44612 0.38797 0.8191 0.0
C445 C 0.46659 0.40436 0.86499 0.0
C446 C 0.46453 0.42197 0.8448 0.0
C447 C 0.45448 0.41322 0.8215 0.0
C448 C 0.45807 0.37913 0.8617 0.0
N449 N 0.44687 0.37148 0.83931 0.0
H450 H 0.43972 0.38155 0.80059 0.0
H451 H 0.46109 0.36574 0.87708 0.0
H452 H 0.49072 0.35197 0.81213 0.0
H453 H 0.4673 0.29233 0.86049 0.0
O454 O 0.43684 0.33461 0.79673 0.0
O455 O 0.42538 0.30284 0.82228 0.0
O456 O 0.43185 0.32886 0.8715 0.0
C457 C 0.42882 0.31115 0.79912 0.0
H458 H 0.33854 0.33887 0.84158 0.0
H459 H 0.53191 0.32502 0.82521 0.0
H460 H 0.4747 0.40994 0.88321 0.0
H461 H 0.45365 0.42556 0.8049 0.0
Co462 Co 0.83736 0.08268 0.68433 0.0
C463 C 0.86195 0.13064 0.70403 0.0
C464 C 0.83618 0.13733 0.6729 0.0
C465 C 0.84429 0.16052 0.68204 0.0
N466 N 0.84772 0.11841 0.68614 0.0
N467 N 0.86036 0.15637 0.70177 0.0
H468 H 0.87146 0.12128 0.71974 0.0
H469 H 0.82155 0.13458 0.65853 0.0
C470 C 0.84418 0.09793 0.62934 0.0
O471 O 0.8666 0.10774 0.63518 0.0
N472 N 0.82591 0.04773 0.68254 0.0
C473 C 0.83574 0.02734 0.69482 0.0
C474 C 0.82183 1.00601 0.68797 0.0
C475 C 0.80605 0.03875 0.66874 0.0
N476 N 0.80316 0.01326 0.67162 0.0
C477 C 0.88928 0.07298 0.69985 0.0
C478 C 0.90425 0.04649 0.65661 0.0
C479 C 0.92178 0.04911 0.6768 0.0
C480 C 0.91394 0.06265 0.6986 0.0
C481 C 0.87969 0.05709 0.65869 0.0
N482 N 0.87264 0.07085 0.67982 0.0
H483 H 0.88327 0.08161 0.71754 0.0
H484 H 0.86604 0.05325 0.64366 0.0
H485 H 0.85188 0.02795 0.70777 0.0
H486 H 0.79421 0.05061 0.65657 0.0
O487 O 0.83504 0.08155 0.72139 0.0
O488 O 0.80371 0.09304 0.6952 0.0
O489 O 0.83124 0.08607 0.64633 0.0
C490 C 0.81162 0.08965 0.71854 0.0
H491 H 0.838 0.17902 0.67522 0.0
H492 H 0.82503 0.98671 0.69473 0.0
H493 H 0.90908 0.03543 0.63976 0.0
H494 H 0.9266 0.06495 0.71485 0.0
Co495 Co 0.58223 0.67948 0.83195 0.0
C496 C 0.63248 0.66035 0.812 0.0
C497 C 0.62232 0.64333 0.84788 0.0
C498 C 0.6443 0.63181 0.83915 0.0
N499 N 0.61471 0.66117 0.83084 0.0
N500 N 0.65061 0.64253 0.81663 0.0
H501 H 0.63166 0.6714 0.79457 0.0
H502 H 0.61185 0.63787 0.86477 0.0
C503 C 0.58915 0.67974 0.89182 0.0
O504 O 0.58171 0.6565 0.89769 0.0
N505 N 0.54997 0.69754 0.83334 0.0
C506 C 0.52977 0.69347 0.81785 0.0
C507 C 0.51075 0.71056 0.82412 0.0
C508 C 0.54301 0.71695 0.84891 0.0
N509 N 0.51908 0.72528 0.84363 0.0
C510 C 0.56912 0.62799 0.82111 0.0
C511 C 0.53384 0.62088 0.85988 0.0
C512 C 0.5389 0.60059 0.84297 0.0
C513 C 0.55672 0.6045 0.82334 0.0
C514 C 0.54654 0.64434 0.85675 0.0
N515 N 0.56448 0.64734 0.838 0.0
H516 H 0.58259 0.63073 0.80566 0.0
H517 H 0.54176 0.66015 0.86919 0.0
H518 H 0.52897 0.67905 0.80303 0.0
H519 H 0.55529 0.7251 0.86346 0.0
O520 O 0.58065 0.68049 0.79466 0.0
O521 O 0.5984 0.70988 0.81953 0.0
O522 O 0.58879 0.68785 0.86883 0.0
C523 C 0.59243 0.70243 0.79661 0.0
H524 H 0.65452 0.61629 0.84831 0.0
H525 H 0.49206 0.71183 0.81524 0.0
H526 H 0.51978 0.61883 0.87496 0.0
H527 H 0.5612 0.58943 0.80983 0.0
Co528 Co 0.33585 0.18104 0.08472 0.0
C529 C 0.319 0.15427 0.13241 0.0
C530 C 0.3439 0.18595 0.13968 0.0
C531 C 0.33518 0.17683 0.16268 0.0
N532 N 0.33414 0.17159 0.12061 0.0
N533 N 0.3194 0.1569 0.15818 0.0
H534 H 0.30694 0.14089 0.1225 0.0
H535 H 0.35545 0.20289 0.13695 0.0
C536 C 0.39069 0.17918 0.10223 0.0
O537 O 0.38631 0.15743 0.11401 0.0
N538 N 0.33755 0.19158 0.04949 0.0
C539 C 0.32652 0.18051 0.02902 0.0
C540 C 0.33299 0.19439 1.00754 0.0
C541 C 0.35021 0.2121 0.04043 0.0
N542 N 0.34783 0.21426 0.01481 0.0
C543 C 0.32228 0.12889 0.07457 0.0
C544 C 0.36814 0.11382 0.05303 0.0
C545 C 0.34814 0.09596 0.0546 0.0
C546 C 0.32494 0.10394 0.06544 0.0
C547 C 0.36469 0.13867 0.06253 0.0
N548 N 0.34223 0.14574 0.07401 0.0
H549 H 0.30368 0.13487 0.08116 0.0
H550 H 0.37985 0.15237 0.05973 0.0
H551 H 0.31467 0.16357 0.02964 0.0
H552 H 0.36124 0.22495 0.05234 0.0
O553 O 0.29871 0.18151 0.08335 0.0
O554 O 0.32324 0.21443 0.09383 0.0
O555 O 0.3733 0.1894 0.08843 0.0
C556 C 0.30035 0.20527 0.09064 0.0
H557 H 0.339 0.18537 0.18114 0.0
H558 H 0.32699 0.19034 0.98814 0.0
H559 H 0.38625 0.10875 0.04432 0.0
H560 H 0.30853 0.0913 0.06603 0.0
Co561 Co 0.33616 0.83688 0.93708 0.0
C562 C 0.31692 0.86472 0.89089 0.0
C563 C 0.34741 0.83879 0.88206 0.0
C564 C 0.33894 0.84957 0.85964 0.0
N565 N 0.33428 0.84892 0.90188 0.0
N566 N 0.31973 0.86577 0.86524 0.0
H567 H 0.30169 0.87428 0.90098 0.0
H568 H 0.36139 0.82362 0.88359 0.0
C569 C 0.39138 0.84295 0.92172 0.0
O570 O 0.38615 0.86578 0.91257 0.0
N571 N 0.33786 0.82405 0.97157 0.0
C572 C 0.32554 0.83328 0.99222 0.0
C573 C 0.33253 0.81895 0.01319 0.0
C574 C 0.35184 0.8041 0.98003 0.0
N575 N 0.34903 0.80062 1.00547 0.0
C576 C 0.32139 0.88836 0.94953 0.0
C577 C 0.36578 0.9021 0.97476 0.0
C578 C 0.34576 0.91993 0.97323 0.0
C579 C 0.32333 0.91268 0.9604 0.0
C580 C 0.363 0.87787 0.96363 0.0
N581 N 0.34134 0.87151 0.95033 0.0
H582 H 0.30329 0.88277 0.94146 0.0
H583 H 0.37796 0.86395 0.96664 0.0
H584 H 0.31254 0.84939 0.99205 0.0
H585 H 0.36418 0.79271 0.96791 0.0
O586 O 0.29902 0.83513 0.93821 0.0
O587 O 0.32472 0.80391 0.92545 0.0
O588 O 0.37405 0.83014 0.93323 0.0
C589 C 0.30149 0.81202 0.92922 0.0
H590 H 0.34535 0.84474 0.84054 0.0
H591 H 0.32584 0.8217 0.0326 0.0
H592 H 0.38309 0.90644 0.98531 0.0
H593 H 0.30716 0.92558 0.95903 0.0
Co594 Co 0.33608 0.18777 0.58196 0.0
C595 C 0.36304 0.20601 0.62908 0.0
C596 C 0.33445 0.17778 0.63712 0.0
C597 C 0.34481 0.18581 0.65991 0.0
N598 N 0.34641 0.18978 0.61765 0.0
N599 N 0.36269 0.2036 0.65479 0.0
H600 H 0.37441 0.22006 0.6192 0.0
H601 H 0.31848 0.1648 0.635 0.0
C602 C 0.33991 0.13267 0.59882 0.0
O603 O 0.36204 0.13718 0.60991 0.0
N604 N 0.32486 0.18576 0.54692 0.0
C605 C 0.33527 0.19716 0.52633 0.0
C606 C 0.32141 0.19012 0.50499 0.0
C607 C 0.30473 0.17229 0.53805 0.0
N608 N 0.30222 0.17451 0.51244 0.0
C609 C 0.38754 0.20318 0.57102 0.0
C610 C 0.4044 0.15763 0.55016 0.0
C611 C 0.42136 0.17839 0.55125 0.0
C612 C 0.41254 0.20139 0.56179 0.0
C613 C 0.37934 0.16032 0.55943 0.0
N614 N 0.37142 0.18264 0.57062 0.0
H615 H 0.38096 0.22152 0.5777 0.0
H616 H 0.36619 0.14467 0.55671 0.0
H617 H 0.35179 0.2096 0.52677 0.0
H618 H 0.29246 0.16074 0.55007 0.0
O619 O 0.33424 0.22487 0.58065 0.0
O620 O 0.3025 0.19917 0.59188 0.0
O621 O 0.32896 0.15008 0.58565 0.0
C622 C 0.31072 0.22237 0.5885 0.0
H623 H 0.33871 0.18008 0.67885 0.0
H624 H 0.32506 0.19619 0.48555 0.0
H625 H 0.41014 0.13977 0.54135 0.0
H626 H 0.4248 0.21806 0.56272 0.0
Co627 Co 0.68675 0.18164 0.93496 0.0
C628 C 0.70465 0.15397 0.88814 0.0
C629 C 0.67472 0.1808 0.88012 0.0
C630 C 0.68276 0.17033 0.8574 0.0
N631 N 0.68779 0.16997 0.8996 0.0
N632 N 0.70164 0.15356 0.86247 0.0
H633 H 0.71971 0.14385 0.89792 0.0
H634 H 0.66121 0.19634 0.88209 0.0
C635 C 0.63081 0.178 0.92022 0.0
O636 O 0.63445 0.15533 0.90995 0.0
N637 N 0.68577 0.19415 0.96963 0.0
C638 C 0.69795 0.18446 0.99015 0.0
C639 C 0.69141 0.19883 0.01129 0.0
C640 C 0.67234 0.21438 0.97834 0.0
N641 N 0.67532 0.21762 1.00379 0.0
C642 C 0.70121 0.13004 0.9469 0.0
C643 C 0.65673 0.11614 0.97184 0.0
C644 C 0.67684 0.09837 0.97043 0.0
C645 C 0.69927 0.10568 0.95768 0.0
C646 C 0.6595 0.14042 0.96081 0.0
N647 N 0.68128 0.14691 0.9478 0.0
H648 H 0.71929 0.13562 0.93879 0.0
H649 H 0.64448 0.15427 0.96376 0.0
H650 H 0.71052 0.16803 0.9898 0.0
H651 H 0.66023 0.22615 0.96635 0.0
O652 O 0.72394 0.18296 0.93554 0.0
O653 O 0.69835 0.21455 0.92352 0.0
O654 O 0.64904 0.18925 0.93195 0.0
C655 C 0.72154 0.2062 0.92689 0.0
H656 H 0.67638 0.17582 0.83847 0.0
H657 H 0.6981 0.19575 0.03064 0.0
H658 H 0.63938 0.11171 0.98226 0.0
H659 H 0.71546 0.09281 0.95631 0.0
Co660 Co 0.68323 0.83111 0.58169 0.0
C661 C 0.65682 0.81147 0.62841 0.0
C662 C 0.68289 0.84188 0.6369 0.0
C663 C 0.6729 0.83299 0.65952 0.0
N664 N 0.67218 0.82906 0.61721 0.0
N665 N 0.65659 0.81381 0.65413 0.0
H666 H 0.64711 0.79632 0.61838 0.0
H667 H 0.69808 0.8558 0.63517 0.0
C668 C 0.68027 0.88667 0.59766 0.0
O669 O 0.65746 0.88309 0.60764 0.0
N670 N 0.69518 0.833 0.54691 0.0
C671 C 0.68712 0.81926 0.52666 0.0
C672 C 0.70221 0.8254 0.50588 0.0
C673 C 0.71491 0.8472 0.53837 0.0
N674 N 0.71959 0.843 0.51334 0.0
C675 C 0.63064 0.81886 0.57132 0.0
C676 C 0.61821 0.86379 0.54645 0.0
C677 C 0.59929 0.84498 0.54933 0.0
C678 C 0.60588 0.82222 0.56183 0.0
C679 C 0.64275 0.85972 0.5565 0.0
N680 N 0.64848 0.83784 0.56965 0.0
H681 H 0.63567 0.80047 0.579 0.0
H682 H 0.6573 0.87392 0.55296 0.0
H683 H 0.67165 0.80553 0.52709 0.0
H684 H 0.72615 0.85972 0.55042 0.0
O685 O 0.68356 0.79401 0.57993 0.0
O686 O 0.71621 0.81843 0.59187 0.0
O687 O 0.69156 0.8685 0.58587 0.0
C688 C 0.70717 0.79564 0.58781 0.0
H689 H 0.67842 0.83906 0.67854 0.0
H690 H 0.70049 0.81759 0.48678 0.0
H691 H 0.61417 0.88144 0.53641 0.0
H692 H 0.59228 0.80667 0.56343 0.0
Co693 Co 0.68763 0.83735 0.08248 0.0
C694 C 0.70678 0.86352 0.1298 0.0
C695 C 0.67815 0.83531 0.13772 0.0
C696 C 0.6864 0.84537 0.16055 0.0
N697 N 0.69022 0.84726 0.11828 0.0
N698 N 0.70443 0.86302 0.15552 0.0
H699 H 0.72101 0.87473 0.11998 0.0
H700 H 0.66495 0.81954 0.13555 0.0
C701 C 0.63257 0.84041 0.09985 0.0
O702 O 0.63683 0.86273 0.11061 0.0
N703 N 0.68492 0.82643 0.04739 0.0
C704 C 0.69482 0.83765 0.02644 0.0
C705 C 0.68663 0.82432 1.00519 0.0
C706 C 0.67128 0.8063 0.03878 0.0
N707 N 0.67187 0.80464 0.01304 0.0
C708 C 0.70112 0.88963 0.07256 0.0
C709 C 0.65556 0.90432 0.05009 0.0
C710 C 0.67539 0.92234 0.05201 0.0
C711 C 0.69845 0.91455 0.06333 0.0
C712 C 0.65903 0.87951 0.05968 0.0
N713 N 0.68132 0.87262 0.07161 0.0
H714 H 0.71964 0.88376 0.0794 0.0
H715 H 0.64404 0.86567 0.0566 0.0
H716 H 0.70673 0.85456 0.02658 0.0
H717 H 0.66054 0.79358 0.05108 0.0
O718 O 0.72474 0.83654 0.08026 0.0
O719 O 0.70012 0.80392 0.09155 0.0
O720 O 0.65016 0.82941 0.08695 0.0
C721 C 0.72301 0.81282 0.08762 0.0
H722 H 0.6806 0.83925 0.17946 0.0
H723 H 0.69115 0.82876 0.98548 0.0
H724 H 0.63757 0.90922 0.04105 0.0
H725 H 0.71476 0.92729 0.0642 0.0
Co726 Co 0.33837 0.83341 0.43784 0.0
C727 C 0.36525 0.81493 0.39087 0.0
C728 C 0.33934 0.84565 0.38296 0.0
C729 C 0.34957 0.83736 0.36021 0.0
N730 N 0.34982 0.83226 0.40241 0.0
N731 N 0.36577 0.81799 0.36524 0.0
H732 H 0.3748 0.79946 0.40057 0.0
H733 H 0.32415 0.85955 0.38493 0.0
C734 C 0.34214 0.88921 0.42333 0.0
O735 O 0.36497 0.88553 0.41343 0.0
N736 N 0.3261 0.83443 0.47256 0.0
C737 C 0.33604 0.82236 0.49302 0.0
C738 C 0.32194 0.82901 0.51429 0.0
C739 C 0.30596 0.84789 0.48143 0.0
N740 N 0.30304 0.84504 0.50692 0.0
C741 C 0.39073 0.82017 0.44849 0.0
C742 C 0.4035 0.86451 0.47426 0.0
C743 C 0.42225 0.84555 0.47113 0.0
C744 C 0.41549 0.82307 0.45818 0.0
C745 C 0.37898 0.8609 0.46403 0.0
N746 N 0.37309 0.83933 0.45044 0.0
H747 H 0.38553 0.80199 0.44039 0.0
H748 H 0.36457 0.87521 0.46778 0.0
H749 H 0.35253 0.80985 0.49253 0.0
H750 H 0.29405 0.85997 0.46954 0.0
O751 O 0.33731 0.79625 0.43857 0.0
O752 O 0.30547 0.82164 0.42662 0.0
O753 O 0.33058 0.87098 0.43472 0.0
C754 C 0.31398 0.79854 0.42999 0.0
H755 H 0.34427 0.84394 0.3413 0.0
H756 H 0.32527 0.82248 0.53365 0.0
H757 H 0.40767 0.88195 0.48463 0.0
H758 H 0.42895 0.80742 0.45634 0.0
Co759 Co 0.68175 0.18899 0.43849 0.0
C760 C 0.6636 0.20947 0.38813 0.0
C761 C 0.64591 0.1738 0.39781 0.0
C762 C 0.63486 0.18279 0.37571 0.0
N763 N 0.66387 0.19055 0.4058 0.0
N764 N 0.64601 0.20518 0.36971 0.0
H765 H 0.67489 0.22673 0.38923 0.0
H766 H 0.64003 0.15693 0.40809 0.0
C767 C 0.68049 0.12924 0.43175 0.0
O768 O 0.6571 0.12413 0.43931 0.0
N769 N 0.69942 0.18716 0.47091 0.0
C770 C 0.69531 0.20251 0.49118 0.0
C771 C 0.71229 0.19602 0.51023 0.0
C772 C 0.71876 0.17147 0.47783 0.0
N773 N 0.72699 0.17653 0.50182 0.0
C774 C 0.63019 0.20069 0.45074 0.0
C775 C 0.62194 0.16237 0.48622 0.0
C776 C 0.60195 0.17945 0.48062 0.0
C777 C 0.60644 0.19886 0.46272 0.0
C778 C 0.64569 0.16509 0.47394 0.0
N779 N 0.64924 0.18357 0.45583 0.0
H780 H 0.63337 0.21598 0.43722 0.0
H781 H 0.66127 0.1525 0.47911 0.0
H782 H 0.68097 0.21742 0.492 0.0
H783 H 0.72696 0.15703 0.46545 0.0
O784 O 0.68345 0.22622 0.44023 0.0
O785 O 0.71263 0.20088 0.42273 0.0
O786 O 0.68937 0.15194 0.43195 0.0
C787 C 0.70552 0.22391 0.42872 0.0
H788 H 0.61937 0.17389 0.36521 0.0
H789 H 0.71352 0.20478 0.52896 0.0
H790 H 0.61943 0.14745 0.50036 0.0
H791 H 0.59161 0.21251 0.45783 0.0
H792 H 0.16162 0.52399 0.25451 0.0
H793 H 0.1499 0.46885 0.31463 0.0
H794 H 0.14011 0.49554 0.22408 0.0
H795 H 0.12748 0.44097 0.28491 0.0
H796 H 0.11955 0.38316 0.22261 0.0
H797 H 0.13837 0.41399 0.25121 0.0
H798 H 0.10128 0.4753 0.2099 0.0
H799 H 0.08302 0.4439 0.18007 0.0
C800 C 0.15412 0.5059 0.26122 0.0
C801 C 0.15778 0.49836 0.28677 0.0
C802 C 0.14167 0.48966 0.24387 0.0
C803 C 0.13235 0.46571 0.25186 0.0
C804 C 0.13509 0.45885 0.27778 0.0
C805 C 0.14787 0.47483 0.29491 0.0
C806 C 0.11519 0.40318 0.21954 0.0
C807 C 0.09951 0.41102 0.19913 0.0
C808 C 0.12593 0.42096 0.23617 0.0
C809 C 0.12102 0.44721 0.23329 0.0
C810 C 0.10556 0.45523 0.21267 0.0
C811 C 0.09499 0.43728 0.19564 0.0
H812 H 0.03117 0.36066 0.2681 0.0
H813 H 0.96754 0.35794 0.21553 0.0
H814 H 1.00403 0.38267 0.29964 0.0
H815 H 0.94062 0.37976 0.24673 0.0
H816 H 0.9057 0.44021 0.29584 0.0
H817 H 0.93859 0.42357 0.26744 0.0
H818 H 0.96336 0.37123 0.32625 0.0
H819 H 0.93016 0.38779 0.35493 0.0
C820 C 0.01148 0.36492 0.26326 0.0
C821 C 1.00142 0.35749 0.23941 0.0
C822 C 0.99595 0.37735 0.28131 0.0
C823 C 0.97026 0.38304 0.27558 0.0
C824 C 0.96041 0.37589 0.2516 0.0
C825 C 0.97575 0.36317 0.23382 0.0
C826 C 0.91838 0.42545 0.303 0.0
C827 C 0.915 0.41509 0.32761 0.0
C828 C 0.93718 0.41586 0.28663 0.0
C829 C 0.95326 0.39582 0.29448 0.0
C830 C 0.95123 0.3867 0.3197 0.0
C831 C 0.9322 0.3962 0.33611 0.0
H832 H 0.8609 0.49335 0.2538 0.0
H833 H 0.86363 0.55503 0.30861 0.0
H834 H 0.88129 0.52093 0.22177 0.0
H835 H 0.88376 0.58249 0.2768 0.0
H836 H 0.9416 0.61735 0.22436 0.0
H837 H 0.92583 0.58448 0.25321 0.0
H838 H 0.86945 0.56201 0.19718 0.0
H839 H 0.88516 0.59512 0.16807 0.0
C840 C 0.866 0.51272 0.25902 0.0
C841 C 0.86063 0.52207 0.28369 0.0
C842 C 0.87749 0.52852 0.24068 0.0
C843 C 0.88425 0.5538 0.24684 0.0
C844 C 0.87906 0.563 0.27157 0.0
C845 C 0.86729 0.54737 0.28972 0.0
C846 C 0.92611 0.60518 0.21791 0.0
C847 C 0.91442 0.60914 0.19398 0.0
C848 C 0.91702 0.58641 0.23454 0.0
C849 C 0.89614 0.57099 0.22762 0.0
C850 C 0.88558 0.57364 0.20301 0.0
C851 C 0.89459 0.59261 0.18635 0.0
H852 H 0.11709 0.58023 0.29579 0.0
H853 H 0.09503 0.63641 0.35236 0.0
H854 H 0.08493 0.59693 0.26659 0.0
H855 H 0.06261 0.65307 0.32289 0.0
H856 H 0.99454 0.66296 0.26566 0.0
H857 H 0.02177 0.64242 0.29786 0.0
H858 H 0.08355 0.63885 0.24313 0.0
H859 H 0.05638 0.65909 0.21105 0.0
C860 C 0.1051 0.59588 0.30221 0.0
C861 C 0.1089 0.60719 0.32635 0.0
C862 C 0.08676 0.60552 0.28537 0.0
C863 C 0.07159 0.6266 0.29227 0.0
C864 C 0.07406 0.63681 0.31705 0.0
C865 C 0.09261 0.62723 0.33393 0.0
C866 C 0.01388 0.65762 0.26051 0.0
C867 C 0.02333 0.66264 0.23581 0.0
C868 C 0.0295 0.64604 0.27898 0.0
C869 C 0.05472 0.63888 0.27296 0.0
C870 C 0.06408 0.64385 0.24825 0.0
C871 C 0.04862 0.6557 0.22994 0.0
H872 H 0.19672 0.5442 0.74635 0.0
H873 H 0.12536 0.50366 0.73717 0.0
H874 H 0.17709 0.57143 0.77886 0.0
H875 H 0.10566 0.53092 0.76984 0.0
H876 H 0.07718 0.61167 0.80026 0.0
H877 H 0.09421 0.57821 0.77245 0.0
H878 H 0.15834 0.56823 0.82359 0.0
H879 H 0.14132 0.60163 0.85152 0.0
C880 C 0.17683 0.54113 0.75129 0.0
C881 C 0.16255 0.52188 0.73914 0.0
C882 C 0.16567 0.55651 0.77011 0.0
C883 C 0.13987 0.55321 0.77698 0.0
C884 C 0.12557 0.5339 0.76491 0.0
C885 C 0.13687 0.51825 0.74632 0.0
C886 C 0.09463 0.60195 0.80587 0.0
C887 C 0.10797 0.6094 0.82803 0.0
C888 C 0.10434 0.58276 0.78995 0.0
C889 C 0.12775 0.57083 0.79571 0.0
C890 C 0.14041 0.57733 0.81854 0.0
C891 C 0.13052 0.5963 0.83465 0.0
H892 H 1.00136 0.39431 0.78125 0.0
H893 H 0.04347 0.32397 0.77138 0.0
H894 H 0.02797 0.41477 0.74856 0.0
H895 H 0.07006 0.34436 0.73883 0.0
H896 H 0.09951 0.38126 0.66657 0.0
H897 H 0.0663 0.36345 0.69422 0.0
H898 H 0.07509 0.42715 0.74603 0.0
H899 H 0.10837 0.44495 0.71851 0.0
C900 C 0.01614 0.38318 0.77193 0.0
C901 C 0.02042 0.35757 0.77894 0.0
C902 C 0.03142 0.39491 0.75333 0.0
C903 C 0.051 0.38113 0.74106 0.0
C904 C 0.05492 0.35538 0.74773 0.0
C905 C 0.03991 0.34379 0.76657 0.0
C906 C 0.09391 0.39182 0.6835 0.0
C907 C 0.10666 0.41446 0.69041 0.0
C908 C 0.07507 0.38148 0.69945 0.0
C909 C 0.06832 0.39376 0.72242 0.0
C910 C 0.07982 0.4173 0.72842 0.0
C911 C 0.09891 0.42746 0.71267 0.0
H912 H 0.94426 0.40988 0.8003 0.0
H913 H 0.88001 0.41912 0.8515 0.0
H914 H 0.92712 0.44351 0.7728 0.0
H915 H 0.86284 0.4527 0.82385 0.0
H916 H 0.82468 0.4765 0.74618 0.0
H917 H 0.84432 0.44943 0.77882 0.0
H918 H 0.91531 0.49088 0.77073 0.0
H919 H 0.89558 0.51799 0.73795 0.0
C920 C 0.92677 0.41947 0.80597 0.0
C921 C 0.91342 0.41176 0.82802 0.0
C922 C 0.917 0.43877 0.79024 0.0
C923 C 0.89351 0.45052 0.79605 0.0
C924 C 0.88085 0.44376 0.81879 0.0
C925 C 0.89081 0.4247 0.83473 0.0
C926 C 0.84446 0.47982 0.75137 0.0
C927 C 0.85863 0.49926 0.73943 0.0
C928 C 0.85562 0.46453 0.77026 0.0
C929 C 0.88132 0.46814 0.7774 0.0
C930 C 0.89548 0.48768 0.76558 0.0
C931 C 0.88417 0.50323 0.74694 0.0
H932 H 0.0179 0.62738 0.7844 0.0
H933 H 0.97464 0.69746 0.77837 0.0
H934 H 0.99093 0.60791 0.7514 0.0
H935 H 0.94764 0.67801 0.7455 0.0
H936 H 0.91876 0.64365 0.6713 0.0
H937 H 0.95138 0.66105 0.69995 0.0
H938 H 0.94405 0.59487 0.7487 0.0
H939 H 0.91137 0.57746 0.72018 0.0
C940 C 1.00274 0.63866 0.77589 0.0
C941 C 0.99832 0.66392 0.78401 0.0
C942 C 0.98726 0.62748 0.75711 0.0
C943 C 0.96729 0.64149 0.74579 0.0
C944 C 0.96309 0.66686 0.75367 0.0
C945 C 0.97833 0.67789 0.77269 0.0
C946 C 0.92454 0.63251 0.68779 0.0
C947 C 0.91241 0.60922 0.69353 0.0
C948 C 0.94303 0.64261 0.70432 0.0
C949 C 0.95004 0.62944 0.72669 0.0
C950 C 0.93909 0.6054 0.73157 0.0
C951 C 0.92035 0.59547 0.71525 0.0
H952 H 0.22569 0.07919 0.40161 0.0
H953 H 0.16776 0.13387 0.42397 0.0
H954 H 0.25444 0.09629 0.43394 0.0
H955 H 0.19679 0.15098 0.45653 0.0
H956 H 0.25338 0.16188 0.52482 0.0
H957 H 0.22178 0.14079 0.49728 0.0
H958 H 0.27713 0.13843 0.43601 0.0
H959 H 0.30861 0.15916 0.46349 0.0
C960 C 0.21888 0.0946 0.41368 0.0
C961 C 0.19447 0.10536 0.40993 0.0
C962 C 0.23547 0.10449 0.43214 0.0
C963 C 0.22805 0.12527 0.44746 0.0
C964 C 0.20304 0.13494 0.44498 0.0
C965 C 0.18641 0.12512 0.42634 0.0
C966 C 0.25879 0.15668 0.50552 0.0
C967 C 0.28349 0.1622 0.49631 0.0
C968 C 0.24067 0.14478 0.48973 0.0
C969 C 0.24702 0.13781 0.46455 0.0
C970 C 0.27175 0.14327 0.45543 0.0
C971 C 0.28971 0.1554 0.47107 0.0
H972 H 0.58228 0.29499 0.11593 0.0
H973 H 0.6355 0.35307 0.09087 0.0
H974 H 0.59857 0.26597 0.08342 0.0
H975 H 0.6518 0.32377 0.05814 0.0
H976 H 0.66151 0.26593 0.99069 0.0
H977 H 0.64072 0.29782 0.01815 0.0
H978 H 0.641 0.24384 0.08062 0.0
H979 H 0.66142 0.21211 0.05325 0.0
C980 C 0.59718 0.30177 0.10322 0.0
C981 C 0.60781 0.3263 0.10627 0.0
C982 C 0.60659 0.28503 0.08466 0.0
C983 C 0.62678 0.29242 0.06855 0.0
C984 C 0.63623 0.31755 0.07031 0.0
C985 C 0.62686 0.33433 0.08905 0.0
C986 C 0.65695 0.26088 0.01024 0.0
C987 C 0.66314 0.23651 0.01982 0.0
C988 C 0.64522 0.27917 0.02598 0.0
C989 C 0.63908 0.27328 0.05147 0.0
C990 C 0.64518 0.24887 0.06096 0.0
C991 C 0.65715 0.23076 0.04537 0.0
H992 H 0.73826 0.89105 0.5177 0.0
H993 H 0.74572 0.82116 0.4744 0.0
H994 H 0.7713 0.911 0.49118 0.0
H995 H 0.77867 0.84106 0.44786 0.0
H996 H 0.85208 0.87678 0.41892 0.0
H997 H 0.82398 0.85894 0.45177 0.0
H998 H 0.77364 0.924 0.44424 0.0
H999 H 0.80159 0.9418 0.41135 0.0
C1000 C 0.74714 0.8799 0.50266 0.0
C1001 C 0.73937 0.85457 0.49804 0.0
C1002 C 0.76593 0.89134 0.48743 0.0
C1003 C 0.77764 0.87754 0.46755 0.0
C1004 C 0.7702 0.85207 0.46325 0.0
C1005 C 0.75114 0.84076 0.47822 0.0
C1006 C 0.83537 0.88759 0.42472 0.0
C1007 C 0.82899 0.91065 0.41247 0.0
C1008 C 0.81917 0.87725 0.44334 0.0
C1009 C 0.7965 0.88996 0.45035 0.0
C1010 C 0.79102 0.91382 0.4393 0.0
C1011 C 0.80701 0.92399 0.42044 0.0
H1012 H 0.36299 0.7524 0.99225 0.0
H1013 H 0.36365 0.80648 0.05464 0.0
H1014 H 0.38404 0.72061 0.01967 0.0
H1015 H 0.38441 0.77491 0.08192 0.0
H1016 H 0.44313 0.72392 0.11707 0.0
H1017 H 0.42704 0.75256 0.08413 0.0
H1018 H 0.37269 0.69515 0.06031 0.0
H1019 H 0.38875 0.66625 0.09349 0.0
C1020 C 0.36777 0.75752 0.01174 0.0
C1021 C 0.36163 0.78191 0.02133 0.0
C1022 C 0.37965 0.73931 0.02744 0.0
C1023 C 0.38601 0.74533 0.05287 0.0
C1024 C 0.38004 0.76979 0.06231 0.0
C1025 C 0.3679 0.7878 0.04678 0.0
C1026 C 0.42804 0.71714 0.10458 0.0
C1027 C 0.41698 0.69288 0.10819 0.0
C1028 C 0.41876 0.73364 0.08577 0.0
C1029 C 0.39831 0.72627 0.06997 0.0
C1030 C 0.38847 0.70134 0.07224 0.0
C1031 C 0.39769 0.68479 0.09123 0.0
H1032 H 0.30947 0.85983 0.556 0.0
H1033 H 0.25438 0.85823 0.49447 0.0
H1034 H 0.27807 0.8805 0.58363 0.0
H1035 H 0.22281 0.87919 0.5222 0.0
H1036 H 0.16912 0.88454 0.59609 0.0
H1037 H 0.19802 0.86804 0.56313 0.0
H1038 H 0.25534 0.92296 0.58584 0.0
H1039 H 0.2267 0.93951 0.61857 0.0
C1040 C 0.29061 0.86383 0.54842 0.0
C1041 C 0.28439 0.85735 0.5231 0.0
C1042 C 0.2727 0.87592 0.56414 0.0
C1043 C 0.24804 0.88161 0.55501 0.0
C1044 C 0.24167 0.875 0.52973 0.0
C1045 C 0.25976 0.86317 0.51385 0.0
C1046 C 0.18766 0.89348 0.59368 0.0
C1047 C 0.19567 0.91314 0.61022 0.0
C1048 C 0.2042 0.88401 0.5748 0.0
C1049 C 0.22908 0.89393 0.57224 0.0
C1050 C 0.23645 0.91462 0.5877 0.0
C1051 C 0.21993 0.92418 0.60638 0.0
H1052 H 0.38294 0.34987 0.92625 0.0
H1053 H 0.43977 0.29411 0.90373 0.0
H1054 H 0.36704 0.32027 0.95882 0.0
H1055 H 0.42386 0.26478 0.9361 0.0
H1056 H 0.36318 0.20834 0.9658 0.0
H1057 H 0.38262 0.24051 0.93824 0.0
H1058 H 0.37824 0.29582 0.99945 0.0
H1059 H 0.35844 0.26356 0.02704 0.0
C1060 C 0.39242 0.3316 0.92859 0.0
C1061 C 0.41242 0.32427 0.91214 0.0
C1062 C 0.38328 0.31464 0.94724 0.0
C1063 C 0.39392 0.29004 0.94966 0.0
C1064 C 0.41494 0.2834 0.93431 0.0
C1065 C 0.42414 0.30032 0.91585 0.0
C1066 C 0.36622 0.22738 0.97334 0.0
C1067 C 0.35926 0.23339 0.99859 0.0
C1068 C 0.37761 0.24575 0.95766 0.0
C1069 C 0.38213 0.27065 0.96676 0.0
C1070 C 0.37497 0.2768 0.99193 0.0
C1071 C 0.36381 0.25829 1.00775 0.0
H1072 H 0.8582 0.13527 0.59545 0.0
H1073 H 0.80041 0.07774 0.60893 0.0
H1074 H 0.83247 0.15275 0.56059 0.0
H1075 H 0.77473 0.09531 0.57411 0.0
H1076 H 0.73999 0.12634 0.49995 0.0
H1077 H 0.77185 0.10452 0.5267 0.0
H1078 H 0.79086 0.1765 0.56249 0.0
H1079 H 0.75929 0.19812 0.5358 0.0
C1080 C 0.84032 0.12596 0.59061 0.0
C1081 C 0.83126 0.10525 0.60515 0.0
C1082 C 0.8255 0.13611 0.57075 0.0
C1083 C 0.80145 0.12559 0.5648 0.0
C1084 C 0.79322 0.10377 0.57815 0.0
C1085 C 0.80791 0.09378 0.59818 0.0
C1086 C 0.7513 0.13747 0.51328 0.0
C1087 C 0.74705 0.16389 0.51594 0.0
C1088 C 0.76939 0.12499 0.52867 0.0
C1089 C 0.78389 0.13879 0.54668 0.0
C1090 C 0.78023 0.16535 0.54862 0.0
C1091 C 0.76195 0.17771 0.53353 0.0
H1092 H 0.65028 0.81367 0.96711 0.0
H1093 H 0.6628 0.75465 0.02331 0.0
H1094 H 0.62848 0.78314 0.93962 0.0
H1095 H 0.64178 0.72349 0.99533 0.0
H1096 H 0.58434 0.67844 0.94457 0.0
H1097 H 0.60285 0.70872 0.97542 0.0
H1098 H 0.63965 0.74891 0.91326 0.0
H1099 H 0.62065 0.71982 0.88296 0.0
C1100 C 0.64859 0.79403 0.97343 0.0
C1101 C 0.65852 0.78647 0.99717 0.0
C1102 C 0.63613 0.77644 0.95767 0.0
C1103 C 0.63369 0.75062 0.96499 0.0
C1104 C 0.6431 0.74319 0.9891 0.0
C1105 C 0.65526 0.76098 1.00509 0.0
C1106 C 0.59635 0.69383 0.93765 0.0
C1107 C 0.60068 0.69689 0.91129 0.0
C1108 C 0.60705 0.71112 0.95528 0.0
C1109 C 0.62245 0.73161 0.94685 0.0
C1110 C 0.62726 0.734 0.92053 0.0
C1111 C 0.61642 0.71709 0.90307 0.0
H1112 H 0.46872 0.30858 0.16033 0.0
H1113 H 0.53058 0.25384 0.16053 0.0
H1114 H 0.44079 0.27713 0.14026 0.0
H1115 H 0.50253 0.2222 0.14014 0.0
H1116 H 0.42893 0.16809 0.13665 0.0
H1117 H 0.46213 0.1972 0.15225 0.0
H1118 H 0.43735 0.25436 0.09808 0.0
H1119 H 0.40434 0.22551 0.08245 0.0
C1120 C 0.47633 0.28979 0.15614 0.0
C1121 C 0.50182 0.28367 0.16209 0.0
C1122 C 0.46042 0.27185 0.14438 0.0
C1123 C 0.46952 0.24724 0.13848 0.0
C1124 C 0.495 0.24101 0.1445 0.0
C1125 C 0.51107 0.25914 0.156 0.0
C1126 C 0.43091 0.18666 0.12769 0.0
C1127 C 0.41374 0.19454 0.10851 0.0
C1128 C 0.44994 0.20331 0.13663 0.0
C1129 C 0.45204 0.22819 0.12665 0.0
C1130 C 0.43588 0.23546 0.10645 0.0
C1131 C 0.41704 0.21883 0.09742 0.0
H1132 H 0.42559 0.85674 0.88455 0.0
H1133 H 0.41109 0.79877 0.94159 0.0
H1134 H 0.46038 0.83081 0.86715 0.0
H1135 H 0.44585 0.77291 0.92414 0.0
H1136 H 0.52044 0.73815 0.89388 0.0
H1137 H 0.49348 0.76997 0.91551 0.0
H1138 H 0.45853 0.78926 0.84318 0.0
H1139 H 0.48541 0.75771 0.82175 0.0
C1140 C 0.43018 0.83877 0.89376 0.0
C1141 C 0.4154 0.82974 0.91433 0.0
C1142 C 0.45 0.82383 0.88367 0.0
C1143 C 0.45569 0.79971 0.89411 0.0
C1144 C 0.44204 0.79146 0.91575 0.0
C1145 C 0.42204 0.80625 0.92567 0.0
C1146 C 0.50726 0.74951 0.88263 0.0
C1147 C 0.50489 0.74535 0.85616 0.0
C1148 C 0.49174 0.76758 0.895 0.0
C1149 C 0.4739 0.78215 0.88104 0.0
C1150 C 0.47226 0.77857 0.85444 0.0
C1151 C 0.48746 0.76031 0.84219 0.0
H1152 H 0.26593 0.99503 0.66222 0.0
H1153 H 0.21052 0.05623 0.65939 0.0
H1154 H 0.29744 0.02252 0.64109 0.0
H1155 H 0.24194 0.08369 0.63862 0.0
H1156 H 0.29357 0.11816 0.57958 0.0
H1157 H 0.26476 0.08585 0.59657 0.0
H1158 H 0.32231 0.06311 0.6513 0.0
H1159 H 0.35137 0.09561 0.63433 0.0
C1160 C 0.26045 0.01429 0.65698 0.0
C1161 C 0.23573 0.02347 0.66248 0.0
C1162 C 0.27853 0.03006 0.64506 0.0
C1163 C 0.27212 0.0552 0.63805 0.0
C1164 C 0.24737 0.0643 0.64348 0.0
C1165 C 0.22944 0.04867 0.65564 0.0
C1166 C 0.30034 0.10604 0.59496 0.0
C1167 C 0.32473 0.10973 0.60579 0.0
C1168 C 0.28372 0.08761 0.60479 0.0
C1169 C 0.2911 0.07227 0.62556 0.0
C1170 C 0.31609 0.07468 0.63528 0.0
C1171 C 0.33275 0.09329 0.62553 0.0
H1172 H 0.49236 0.25331 0.85927 0.0
H1173 H 0.55414 0.30803 0.86174 0.0
H1174 H 0.51989 0.22143 0.87988 0.0
H1175 H 0.58162 0.27626 0.88196 0.0
H1176 H 0.61687 0.22424 0.93992 0.0
H1177 H 0.58434 0.25329 0.92369 0.0
H1178 H 0.56013 0.19615 0.86921 0.0
H1179 H 0.59285 0.16683 0.88546 0.0
C1180 C 0.51175 0.25856 0.86432 0.0
C1181 C 0.52109 0.2832 0.85885 0.0
C1182 C 0.52755 0.24026 0.87595 0.0
C1183 C 0.55286 0.24638 0.88269 0.0
C1184 C 0.5621 0.27105 0.87731 0.0
C1185 C 0.54645 0.28918 0.86545 0.0
C1186 C 0.60438 0.21762 0.92476 0.0
C1187 C 0.60773 0.19326 0.91378 0.0
C1188 C 0.58582 0.23437 0.91536 0.0
C1189 C 0.57 0.22719 0.89486 0.0
C1190 C 0.57206 0.20222 0.88503 0.0
C1191 C 0.5908 0.18542 0.89437 0.0
H1192 H 0.80932 0.96389 0.65773 0.0
H1193 H 0.75468 0.02583 0.65778 0.0
H1194 H 0.77785 0.93613 0.63738 0.0
H1195 H 0.72307 0.99799 0.6371 0.0
H1196 H 0.6686 0.92479 0.63205 0.0
H1197 H 0.69764 0.95772 0.64838 0.0
H1198 H 0.75563 0.93309 0.59497 0.0
H1199 H 0.72686 0.9004 0.57863 0.0
C1200 C 0.79055 0.97155 0.65345 0.0
C1201 C 0.78449 0.99703 0.65939 0.0
C1202 C 0.7726 0.95574 0.64154 0.0
C1203 C 0.74804 0.96495 0.63548 0.0
C1204 C 0.74184 0.99038 0.64157 0.0
C1205 C 0.75997 1.00634 0.65323 0.0
C1206 C 0.68733 0.92678 0.6234 0.0
C1207 C 0.69549 0.9097 0.60426 0.0
C1208 C 0.70396 0.94563 0.63278 0.0
C1209 C 0.72906 0.94765 0.62326 0.0
C1210 C 0.73658 0.93165 0.60303 0.0
C1211 C 0.72 0.91298 0.5936 0.0
H1212 H 0.49395 0.76633 0.16169 0.0
H1213 H 0.55605 0.71186 0.16125 0.0
H1214 H 0.52155 0.79784 0.14056 0.0
H1215 H 0.58354 0.74319 0.14043 0.0
H1216 H 0.61845 0.79387 0.08097 0.0
H1217 H 0.58588 0.76522 0.09774 0.0
H1218 H 0.56216 0.82323 0.15152 0.0
H1219 H 0.59496 0.85215 0.13477 0.0
C1220 C 0.51343 0.76107 0.15697 0.0
C1221 C 0.52286 0.73663 0.16317 0.0
C1222 C 0.52924 0.77913 0.14505 0.0
C1223 C 0.55464 0.77292 0.13871 0.0
C1224 C 0.56396 0.74844 0.14479 0.0
C1225 C 0.54831 0.73057 0.15697 0.0
C1226 C 0.60607 0.80077 0.0961 0.0
C1227 C 0.60958 0.82524 0.10675 0.0
C1228 C 0.58749 0.78425 0.10579 0.0
C1229 C 0.57179 0.79182 0.12623 0.0
C1230 C 0.57401 0.81689 0.13574 0.0
C1231 C 0.5928 0.83344 0.12614 0.0
H1232 H 0.21207 0.96316 0.36263 0.0
H1233 H 0.26623 0.02535 0.35873 0.0
H1234 H 0.24405 0.93667 0.38386 0.0
H1235 H 0.2983 0.99884 0.38035 0.0
H1236 H 0.3534 0.92637 0.38791 0.0
H1237 H 0.32396 0.95852 0.37081 0.0
H1238 H 0.26686 0.93567 0.42591 0.0
H1239 H 0.29605 0.9037 0.44298 0.0
C1240 C 0.23084 0.97114 0.36625 0.0
C1241 C 0.23662 0.99633 0.35897 0.0
C1242 C 0.24908 0.95608 0.37868 0.0
C1243 C 0.27363 0.96576 0.38396 0.0
C1244 C 0.27955 0.99088 0.37652 0.0
C1245 C 0.26115 1.00608 0.36431 0.0
C1246 C 0.33482 0.92865 0.39679 0.0
C1247 C 0.32698 0.91221 0.41657 0.0
C1248 C 0.31794 0.94704 0.38697 0.0
C1249 C 0.29294 0.94924 0.39671 0.0
C1250 C 0.28581 0.93403 0.41765 0.0
C1251 C 0.30263 0.9158 0.42751 0.0
H1252 H 0.75349 0.9946 0.36157 0.0
H1253 H 0.81254 0.05143 0.37074 0.0
H1254 H 0.72259 0.02326 0.38222 0.0
H1255 H 0.78235 0.07958 0.39217 0.0
H1256 H 0.71928 0.13648 0.39836 0.0
H1257 H 0.74778 0.10524 0.3799 0.0
H1258 H 0.70855 0.045 0.42069 0.0
H1259 H 0.67887 0.07679 0.43867 0.0
C1260 C 0.75988 0.01309 0.36834 0.0
C1261 C 0.78526 0.02103 0.36419 0.0
C1262 C 0.74226 0.02947 0.38026 0.0
C1263 C 0.7498 0.05396 0.38851 0.0
C1264 C 0.77556 0.06123 0.38536 0.0
C1265 C 0.79296 0.0451 0.37314 0.0
C1266 C 0.71664 0.1166 0.40355 0.0
C1267 C 0.69695 0.10918 0.42029 0.0
C1268 C 0.73319 0.09861 0.39303 0.0
C1269 C 0.73094 0.07257 0.3992 0.0
C1270 C 0.71084 0.06491 0.4155 0.0
C1271 C 0.69389 0.08307 0.42587 0.0
H1272 H 0.94906 0.32662 0.96498 0.0
H1273 H 0.0143 0.36789 0.93551 0.0
H1274 H 0.96706 0.32884 1.0079 0.0
H1275 H 0.03171 0.37118 0.97863 0.0
H1276 H 0.0702 0.34256 0.05234 0.0
H1277 H 0.05137 0.34407 1.00983 0.0
H1278 H 0.97678 0.3567 0.04322 0.0
H1279 H 0.99554 0.35404 0.08593 0.0
C1280 C 0.9672 0.33628 0.96764 0.0
C1281 C 0.98026 0.34691 0.94664 0.0
C1282 C 0.97737 0.33786 0.99237 0.0
C1283 C 1.0009 0.35016 0.99683 0.0
C1284 C 0.01371 0.36127 0.97592 0.0
C1285 C 1.00354 0.35966 0.95118 0.0
C1286 C 0.04975 0.34555 0.05067 0.0
C1287 C 0.03439 0.34793 0.07265 0.0
C1288 C 0.03897 0.34675 0.02621 0.0
C1289 C 0.01249 0.35045 0.02298 0.0
C1290 C 0.99719 0.3535 0.04495 0.0
C1291 C 1.008 0.35228 0.06947 0.0
H1292 H 0.88573 0.47255 0.45542 0.0
H1293 H 0.80821 0.49992 0.4465 0.0
H1294 H 0.88787 0.49265 0.49764 0.0
H1295 H 0.81 0.51907 0.48883 0.0
H1296 H 0.82831 0.57206 0.55452 0.0
H1297 H 0.82965 0.55385 0.51165 0.0
H1298 H 0.87045 0.48816 0.54075 0.0
H1299 H 0.86919 0.50648 0.58374 0.0
C1300 C 0.86917 0.48288 0.46241 0.0
C1301 C 0.84676 0.48447 0.44755 0.0
C1302 C 0.87031 0.49419 0.48673 0.0
C1303 C 0.84912 0.50752 0.49671 0.0
C1304 C 0.82682 0.50925 0.48171 0.0
C1305 C 0.82566 0.49793 0.45751 0.0
C1306 C 0.83753 0.5537 0.55182 0.0
C1307 C 0.84846 0.54067 0.57268 0.0
C1308 C 0.83828 0.54323 0.5272 0.0
C1309 C 0.84994 0.51938 0.52271 0.0
C1310 C 0.86153 0.50666 0.54343 0.0
C1311 C 0.86081 0.51718 0.5681 0.0
H1312 H 0.07429 0.69238 0.96769 0.0
H1313 H 1.0069 0.65604 0.93651 0.0
H1314 H 0.05516 0.69141 1.01018 0.0
H1315 H 0.98781 0.65497 0.97909 0.0
H1316 H 0.97059 0.63818 0.06386 0.0
H1317 H 0.99127 0.63605 0.02192 0.0
H1318 H 0.02049 0.71256 0.03266 0.0
H1319 H 1.00059 0.71436 0.07468 0.0
C1320 C 0.05537 0.68423 0.96986 0.0
C1321 C 0.04213 0.67443 0.94855 0.0
C1322 C 0.04438 0.68367 0.99426 0.0
C1323 C 0.01984 0.67328 0.99808 0.0
C1324 C 1.00685 0.66287 0.97692 0.0
C1325 C 0.01783 0.66346 0.95247 0.0
C1326 C 0.98161 0.65444 0.05733 0.0
C1327 C 0.98379 0.67648 0.07264 0.0
C1328 C 0.99328 0.65332 0.03319 0.0
C1329 C 1.00758 0.67413 0.02387 0.0
C1330 C 1.00989 0.69606 0.03929 0.0
C1331 C 0.99817 0.69722 0.06331 0.0
H1332 H 0.13663 0.47378 0.56626 0.0
H1333 H 0.21541 0.49752 0.57412 0.0
H1334 H 0.1348 0.49392 0.52407 0.0
H1335 H 0.21384 0.51686 0.53184 0.0
H1336 H 0.19577 0.57155 0.46707 0.0
H1337 H 0.19476 0.55288 0.50972 0.0
H1338 H 0.15183 0.48861 0.48059 0.0
H1339 H 0.15292 0.50725 0.43779 0.0
C1340 C 0.15354 0.48331 0.55903 0.0
C1341 C 0.17619 0.48391 0.57361 0.0
C1342 C 0.15257 0.49465 0.53474 0.0
C1343 C 0.17416 0.50706 0.52451 0.0
C1344 C 0.19674 0.50775 0.53918 0.0
C1345 C 0.19774 0.49634 0.56335 0.0
C1346 C 0.18618 0.55338 0.46969 0.0
C1347 C 0.17459 0.54086 0.44885 0.0
C1348 C 0.18561 0.54266 0.49419 0.0
C1349 C 0.17341 0.51911 0.49862 0.0
C1350 C 0.16119 0.50689 0.47796 0.0
C1351 C 0.16179 0.51761 0.45338 0.0
H1352 H 0.9369 0.01351 0.36739 0.0
H1353 H 0.9663 0.94713 0.32795 0.0
H1354 H 0.97988 0.03186 0.36842 0.0
H1355 H 1.00918 0.96534 0.32909 0.0
H1356 H 0.07412 0.0189 0.30647 0.0
H1357 H 0.03184 0.99973 0.30871 0.0
H1358 H 0.02307 0.02779 0.38595 0.0
H1359 H 0.06527 0.04793 0.38333 0.0
C1360 C 0.95258 1.00264 0.35929 0.0
C1361 C 0.94807 0.97892 0.34739 0.0
C1362 C 0.97725 0.01317 0.35988 0.0
C1363 C 0.99802 1.00022 0.34862 0.0
C1364 C 0.99359 0.97614 0.33745 0.0
C1365 C 0.96898 0.96566 0.33682 0.0
C1366 C 0.06313 0.02125 0.32387 0.0
C1367 C 0.07308 0.03519 0.34464 0.0
C1368 C 0.03895 1.00992 0.32529 0.0
C1369 C 0.02399 0.0121 0.34755 0.0
C1370 C 0.03396 0.0259 0.36843 0.0
C1371 C 0.05826 0.03724 0.36702 0.0
H1372 H 0.55006 0.45522 0.13529 0.0
H1373 H 0.52258 0.44478 0.21246 0.0
H1374 H 0.53128 0.49817 0.13456 0.0
H1375 H 0.5038 0.48729 0.21172 0.0
H1376 H 0.50015 0.57357 0.2144 0.0
H1377 H 0.51844 0.53088 0.21248 0.0
H1378 H 0.49108 0.52246 0.13494 0.0
H1379 H 0.47276 0.56553 0.13686 0.0
C1380 C 0.5398 0.46197 0.15197 0.0
C1381 C 0.53818 0.4467 0.17406 0.0
C1382 C 0.52902 0.48658 0.15157 0.0
C1383 C 0.51633 0.49639 0.17323 0.0
C1384 C 0.51401 0.48069 0.19493 0.0
C1385 C 0.52478 0.45625 0.19535 0.0
C1386 C 0.49781 0.56259 0.19698 0.0
C1387 C 0.48467 0.57291 0.1759 0.0
C1388 C 0.50832 0.53804 0.19587 0.0
C1389 C 0.50597 0.52301 0.17367 0.0
C1390 C 0.49338 0.53353 0.1523 0.0
C1391 C 0.48287 0.55822 0.1534 0.0
H1392 H 0.08341 0.01254 0.65332 0.0
H1393 H 0.05399 0.94896 0.69705 0.0
H1394 H 0.04064 0.03131 0.65193 0.0
H1395 H 0.01134 0.96777 0.69575 0.0
H1396 H 0.94682 0.02366 0.71517 0.0
H1397 H 0.98907 1.00409 0.71408 0.0
H1398 H 0.99725 0.02589 0.63483 0.0
H1399 H 0.9551 0.04627 0.63616 0.0
C1400 C 0.06779 1.00235 0.66233 0.0
C1401 C 0.07228 0.97926 0.67543 0.0
C1402 C 0.04323 0.01316 0.66156 0.0
C1403 C 0.02252 1.00118 0.67389 0.0
C1404 C 0.02691 0.97781 0.68647 0.0
C1405 C 0.05141 0.967 0.68721 0.0
C1406 C 0.95768 0.02454 0.69755 0.0
C1407 C 0.94755 0.03674 0.6758 0.0
C1408 C 0.98183 0.01299 0.69683 0.0
C1409 C 0.99661 0.01331 0.67435 0.0
C1410 C 0.9865 0.02546 0.65254 0.0
C1411 C 0.96223 0.03694 0.65323 0.0
H1412 H 0.51648 0.57302 0.80478 0.0
H1413 H 0.53137 0.57144 0.88599 0.0
H1414 H 0.49732 0.53061 0.80731 0.0
H1415 H 0.51191 0.52879 0.88859 0.0
H1416 H 0.50644 0.44029 0.87122 0.0
H1417 H 0.52234 0.48418 0.87287 0.0
H1418 H 0.45926 0.50881 0.82557 0.0
H1419 H 0.44298 0.46521 0.82435 0.0
C1420 C 0.51554 0.56362 0.82322 0.0
C1421 C 0.52553 0.57555 0.84517 0.0
C1422 C 0.50438 0.53939 0.82471 0.0
C1423 C 0.50308 0.52629 0.84815 0.0
C1424 C 0.51278 0.53832 0.87022 0.0
C1425 C 0.5237 0.56279 0.86878 0.0
C1426 C 0.49565 0.4551 0.86156 0.0
C1427 C 0.47351 0.44901 0.84742 0.0
C1428 C 0.50482 0.48029 0.86249 0.0
C1429 C 0.49219 0.49996 0.84917 0.0
C1430 C 0.46969 0.49403 0.83568 0.0
C1431 C 0.46042 0.46896 0.83491 0.0
H1432 H 0.37162 0.08085 1.00996 0.0
H1433 H 0.33028 0.05123 0.07505 0.0
H1434 H 0.37257 0.0381 0.99113 0.0
H1435 H 0.3312 1.00862 0.05625 0.0
H1436 H 0.30881 0.94495 1.00067 0.0
H1437 H 0.31115 0.98694 0.02057 0.0
H1438 H 0.38957 0.99452 0.99553 0.0
H1439 H 0.38694 0.95263 0.97481 0.0
C1440 C 0.36309 0.06517 0.02046 0.0
C1441 C 0.35069 0.06958 0.04396 0.0
C1442 C 0.36362 0.04064 1.00964 0.0
C1443 C 0.35173 0.01991 0.02203 0.0
C1444 C 0.34007 0.0242 0.04589 0.0
C1445 C 0.33956 0.04867 0.0567 0.0
C1446 C 0.32651 0.95562 0.99918 0.0
C1447 C 0.34763 0.94542 0.98595 0.0
C1448 C 0.32796 0.97961 0.0109 0.0
C1449 C 0.35058 0.99414 1.00976 0.0
C1450 C 0.37178 0.98395 0.99662 0.0
C1451 C 0.37035 0.95983 0.98495 0.0
H1452 H 0.4454 0.21294 0.52054 0.0
H1453 H 0.45684 0.14004 0.55746 0.0
H1454 H 0.48905 0.21181 0.50452 0.0
H1455 H 0.50105 0.13907 0.54185 0.0
H1456 H 0.57201 0.13689 0.48779 0.0
H1457 H 0.52834 0.13525 0.50481 0.0
H1458 H 0.5314 0.21649 0.51977 0.0
H1459 H 0.57447 0.21809 0.50223 0.0
C1460 C 0.45737 0.19674 0.52542 0.0
C1461 C 0.44773 0.17672 0.54052 0.0
C1462 C 0.48249 0.19611 0.51631 0.0
C1463 C 0.49886 0.17555 0.52221 0.0
C1464 C 0.48902 0.15516 0.5368 0.0
C1465 C 0.4637 0.1557 0.54578 0.0
C1466 C 0.56336 0.15429 0.49499 0.0
C1467 C 0.57654 0.17766 0.49339 0.0
C1468 C 0.53834 0.15338 0.50477 0.0
C1469 C 0.52607 0.17582 0.51332 0.0
C1470 C 0.53984 0.19894 0.51269 0.0
C1471 C 0.56463 0.19986 0.50276 0.0
H1472 H 0.71384 0.07369 0.9981 0.0
H1473 H 0.63587 0.06535 0.97192 0.0
H1474 H 0.71177 0.03172 0.01801 0.0
H1475 H 0.63352 0.02344 0.99263 0.0
H1476 H 0.65213 0.93725 1.00714 0.0
H1477 H 0.65093 0.97996 0.9883 0.0
H1478 H 0.6918 1.00985 0.05361 0.0
H1479 H 0.69294 0.96729 0.07245 0.0
C1480 C 0.69623 0.06288 0.99654 0.0
C1481 C 0.67508 0.07289 0.98321 0.0
C1482 C 0.69493 0.03889 1.00827 0.0
C1483 C 0.67245 0.02415 1.00703 0.0
C1484 C 0.65121 0.03417 0.9938 0.0
C1485 C 0.65248 0.05829 0.98213 0.0
C1486 C 0.6605 0.95299 0.01769 0.0
C1487 C 0.67281 0.94871 0.04127 0.0
C1488 C 0.65983 0.97752 1.00685 0.0
C1489 C 0.67148 0.99837 0.01929 0.0
C1490 C 0.6831 0.99418 0.04321 0.0
C1491 C 0.68374 0.96973 0.05404 0.0
H1492 H 0.43538 0.86388 0.51851 0.0
H1493 H 0.46814 0.83362 0.44897 0.0
H1494 H 0.47809 0.86652 0.53745 0.0
H1495 H 0.51076 0.83582 0.46804 0.0
H1496 H 0.58615 0.86392 0.5022 0.0
H1497 H 0.54342 0.86672 0.48329 0.0
H1498 H 0.51078 0.8356 0.55247 0.0
H1499 H 0.5534 0.83322 0.5715 0.0
C1500 C 0.45172 0.85804 0.50717 0.0
C1501 C 0.44835 0.84849 0.48224 0.0
C1502 C 0.47616 0.85933 0.51811 0.0
C1503 C 0.49784 0.85132 0.50428 0.0
C1504 C 0.49451 0.84236 0.47913 0.0
C1505 C 0.47007 0.84086 0.46829 0.0
C1506 C 0.56981 0.85804 0.5135 0.0
C1507 C 0.57319 0.84829 0.53834 0.0
C1508 C 0.54536 0.85941 0.50257 0.0
C1509 C 0.52369 0.8513 0.51633 0.0
C1510 C 0.52702 0.8422 0.54142 0.0
C1511 C 0.55147 0.84063 0.55224 0.0
H1512 H 0.08083 0.24485 0.19479 0.0
H1513 H 0.12046 0.29567 0.24656 0.0
H1514 H 0.09322 0.20832 0.22165 0.0
H1515 H 0.13337 0.25974 0.27249 0.0
H1516 H 0.13509 0.19712 0.32884 0.0
H1517 H 0.11631 0.23003 0.30174 0.0
H1518 H 0.1299 0.18289 0.23513 0.0
H1519 H 0.14785 0.14951 0.26271 0.0
C1520 C 0.09218 0.2482 0.21181 0.0
C1521 C 0.09945 0.27315 0.21867 0.0
C1522 C 0.09937 0.22731 0.22713 0.0
C1523 C 0.114 0.23108 0.24948 0.0
C1524 C 0.1215 0.25607 0.2559 0.0
C1525 C 0.11422 0.27676 0.24083 0.0
C1526 C 0.13381 0.19377 0.30844 0.0
C1527 C 0.1431 0.17096 0.29783 0.0
C1528 C 0.12318 0.21263 0.29284 0.0
C1529 C 0.12204 0.20938 0.26613 0.0
C1530 C 0.13033 0.18601 0.25561 0.0
C1531 C 0.14066 0.16691 0.27136 0.0
H1532 H 0.80304 0.40488 0.26732 0.0
H1533 H 0.75048 0.43922 0.32106 0.0
H1534 H 0.76753 0.39202 0.24049 0.0
H1535 H 0.71455 0.42717 0.29347 0.0
H1536 H 0.65707 0.37341 0.25179 0.0
H1537 H 0.69065 0.39097 0.27919 0.0
H1538 H 0.73634 0.40726 0.21217 0.0
H1539 H 0.70313 0.38874 0.18515 0.0
C1540 C 0.78384 0.41002 0.27324 0.0
C1541 C 0.77958 0.42312 0.2963 0.0
C1542 C 0.7634 0.4028 0.2577 0.0
C1543 C 0.73806 0.40874 0.26459 0.0
C1544 C 0.73377 0.42206 0.28764 0.0
C1545 C 0.75433 0.4291 0.30339 0.0
C1546 C 0.67417 0.38109 0.243 0.0
C1547 C 0.67767 0.37956 0.2164 0.0
C1548 C 0.69342 0.39122 0.25866 0.0
C1549 C 0.71643 0.40029 0.24798 0.0
C1550 C 0.71923 0.39984 0.22119 0.0
C1551 C 0.70019 0.38937 0.20564 0.0
H1552 H 0.88768 0.82114 0.33378 0.0
H1553 H 0.87283 0.86607 0.26632 0.0
H1554 H 0.90769 0.78812 0.30763 0.0
H1555 H 0.89171 0.83255 0.23968 0.0
H1556 H 0.94059 0.77276 0.19899 0.0
H1557 H 0.92815 0.8089 0.22609 0.0
H1558 H 0.8936 0.75633 0.27976 0.0
H1559 H 0.90693 0.72065 0.25349 0.0
C1560 C 0.88876 0.82385 0.31327 0.0
C1561 C 0.87862 0.84595 0.302 0.0
C1562 C 0.90006 0.80492 0.29822 0.0
C1563 C 0.90095 0.80737 0.27141 0.0
C1564 C 0.89162 0.83004 0.26024 0.0
C1565 C 0.88072 0.84923 0.27543 0.0
C1566 C 0.93057 0.76905 0.21674 0.0
C1567 C 0.92485 0.74388 0.22417 0.0
C1568 C 0.92329 0.78974 0.2322 0.0
C1569 C 0.90995 0.78563 0.25526 0.0
C1570 C 0.90438 0.76035 0.26254 0.0
C1571 C 0.91188 0.73979 0.24732 0.0
H1572 H 0.32214 0.63173 0.18646 0.0
H1573 H 0.36699 0.64715 0.25394 0.0
H1574 H 0.2887 0.61273 0.21277 0.0
H1575 H 0.33311 0.62915 0.28067 0.0
H1576 H 0.27289 0.58078 0.32154 0.0
H1577 H 0.30919 0.59295 0.29455 0.0
H1578 H 0.25684 0.62735 0.24046 0.0
H1579 H 0.22098 0.61432 0.26667 0.0
C1580 C 0.32476 0.63102 0.20699 0.0
C1581 C 0.347 0.64102 0.21819 0.0
C1582 C 0.30557 0.62028 0.22214 0.0
C1583 C 0.30791 0.61974 0.24898 0.0
C1584 C 0.33067 0.62897 0.2601 0.0
C1585 C 0.35009 0.63936 0.24483 0.0
C1586 C 0.26925 0.59072 0.30373 0.0
C1587 C 0.24408 0.59646 0.29617 0.0
C1588 C 0.29004 0.59786 0.28833 0.0
C1589 C 0.28605 0.61105 0.26517 0.0
C1590 C 0.26077 0.61669 0.25777 0.0
C1591 C 0.24011 0.60936 0.27296 0.0
H1592 H 0.1033 0.77032 0.82801 0.0
H1593 H 0.08712 0.72549 0.76062 0.0
H1594 H 0.11752 0.80571 0.80112 0.0
H1595 H 0.0998 0.76117 0.73362 0.0
H1596 H 0.15681 0.81302 0.69444 0.0
H1597 H 0.13741 0.78048 0.72068 0.0
H1598 H 0.10853 0.83867 0.77189 0.0
H1599 H 0.12976 0.87132 0.74655 0.0
C1600 C 0.10223 0.76831 0.80741 0.0
C1601 C 0.09439 0.74514 0.79635 0.0
C1602 C 0.11026 0.78863 0.79193 0.0
C1603 C 0.11018 0.78631 0.76507 0.0
C1604 C 0.1009 0.7635 0.75417 0.0
C1605 C 0.09341 0.74306 0.76962 0.0
C1606 C 0.1466 0.81904 0.71139 0.0
C1607 C 0.14535 0.84499 0.7184 0.0
C1608 C 0.13498 0.80025 0.72632 0.0
C1609 C 0.12127 0.80678 0.74853 0.0
C1610 C 0.11924 0.8328 0.75516 0.0
C1611 C 0.1312 0.85165 0.74035 0.0
H1612 H 0.31841 0.38321 0.83463 0.0
H1613 H 0.36463 0.37253 0.7672 0.0
H1614 H 0.28491 0.40289 0.80884 0.0
H1615 H 0.3307 0.39112 0.7409 0.0
H1616 H 0.27039 0.44022 0.70148 0.0
H1617 H 0.30638 0.42726 0.72848 0.0
H1618 H 0.25365 0.3897 0.77996 0.0
H1619 H 0.21801 0.4036 0.75375 0.0
C1620 C 0.3213 0.38511 0.81421 0.0
C1621 C 0.34396 0.37628 0.80286 0.0
C1622 C 0.30208 0.39622 0.79935 0.0
C1623 C 0.3048 0.39827 0.77263 0.0
C1624 C 0.32794 0.39015 0.7614 0.0
C1625 C 0.3474 0.37942 0.77641 0.0
C1626 C 0.26659 0.4294 0.71872 0.0
C1627 C 0.24139 0.42304 0.72556 0.0
C1628 C 0.28721 0.42181 0.73413 0.0
C1629 C 0.28304 0.40747 0.75655 0.0
C1630 C 0.25771 0.40122 0.76325 0.0
C1631 C 0.23719 0.40905 0.74808 0.0
H1632 H 0.91378 0.2996 0.7612 0.0
H1633 H 0.93008 0.24774 0.82342 0.0
H1634 H 0.89852 0.26408 0.73539 0.0
H1635 H 0.91439 0.21194 0.79745 0.0
H1636 H 0.9037 0.15269 0.73045 0.0
H1637 H 0.92267 0.18617 0.75729 0.0
H1638 H 0.86034 0.23678 0.73775 0.0
H1639 H 0.84143 0.20365 0.71141 0.0
C1640 C 0.91424 0.28056 0.76934 0.0
C1641 C 0.92296 0.27651 0.79443 0.0
C1642 C 0.90536 0.2602 0.75457 0.0
C1643 C 0.90491 0.23525 0.76451 0.0
C1644 C 0.91458 0.23095 0.78926 0.0
C1645 C 0.92348 0.25144 0.80413 0.0
C1646 C 0.89398 0.17091 0.73209 0.0
C1647 C 0.87123 0.17556 0.71842 0.0
C1648 C 0.90485 0.19006 0.74744 0.0
C1649 C 0.8932 0.21424 0.74932 0.0
C1650 C 0.87014 0.21859 0.73619 0.0
C1651 C 0.85931 0.19954 0.721 0.0
H1652 H 0.68072 0.67347 0.78837 0.0
H1653 H 0.66672 0.59442 0.80724 0.0
H1654 H 0.71679 0.6605 0.76113 0.0
H1655 H 0.70237 0.58141 0.77966 0.0
H1656 H 0.75085 0.57308 0.70326 0.0
H1657 H 0.71351 0.58583 0.72884 0.0
H1658 H 0.76124 0.63646 0.77327 0.0
H1659 H 0.79856 0.62333 0.74831 0.0
C1660 C 0.68527 0.65335 0.78647 0.0
C1661 C 0.67116 0.63494 0.79998 0.0
C1662 C 0.70585 0.64595 0.77104 0.0
C1663 C 0.71224 0.61998 0.76838 0.0
C1664 C 0.69772 0.60153 0.78135 0.0
C1665 C 0.67752 0.60897 0.79723 0.0
C1666 C 0.75332 0.58683 0.71857 0.0
C1667 C 0.77757 0.59711 0.72394 0.0
C1668 C 0.73203 0.59408 0.73316 0.0
C1669 C 0.7346 0.61219 0.75287 0.0
C1670 C 0.75879 0.62261 0.75804 0.0
C1671 C 0.78012 0.61494 0.74389 0.0
H1672 H 0.19294 0.10079 0.2492 0.0
H1673 H 0.25965 0.08427 0.29499 0.0
H1674 H 0.22047 0.11544 0.2144 0.0
H1675 H 0.28726 0.09742 0.25994 0.0
H1676 H 0.32732 0.15493 0.20949 0.0
H1677 H 0.30023 0.13553 0.2414 0.0
H1678 H 0.25053 0.10657 0.18194 0.0
H1679 H 0.27668 0.12771 0.14993 0.0
C1680 C 0.21352 0.09971 0.25152 0.0
C1681 C 0.22422 0.09166 0.27479 0.0
C1682 C 0.22935 0.10801 0.23157 0.0
C1683 C 0.25619 0.108 0.23439 0.0
C1684 C 0.26673 0.09847 0.25726 0.0
C1685 C 0.25093 0.09071 0.27732 0.0
C1686 C 0.31053 0.1447 0.20306 0.0
C1687 C 0.30422 0.14333 0.17694 0.0
C1688 C 0.29511 0.1331 0.22148 0.0
C1689 C 0.27311 0.11932 0.21438 0.0
C1690 C 0.26711 0.11729 0.18821 0.0
C1691 C 0.2824 0.12921 0.16974 0.0
H1692 H 0.6778 0.23324 0.34029 0.0
H1693 H 0.59823 0.21526 0.35293 0.0
H1694 H 0.66571 0.26093 0.30429 0.0
H1695 H 0.5861 0.24326 0.31736 0.0
H1696 H 0.57862 0.31956 0.26954 0.0
H1697 H 0.5911 0.29389 0.30684 0.0
H1698 H 0.64227 0.24973 0.2594 0.0
H1699 H 0.62941 0.27482 0.22208 0.0
C1700 C 0.65776 0.23542 0.33546 0.0
C1701 C 0.63895 0.22204 0.34917 0.0
C1702 C 0.65087 0.25112 0.31491 0.0
C1703 C 0.625 0.25415 0.30817 0.0
C1704 C 0.60615 0.24129 0.32229 0.0
C1705 C 0.61309 0.22517 0.34245 0.0
C1706 C 0.59249 0.30434 0.26713 0.0
C1707 C 0.60294 0.29905 0.24295 0.0
C1708 C 0.59958 0.28969 0.2884 0.0
C1709 C 0.61769 0.26997 0.28589 0.0
C1710 C 0.6284 0.26496 0.2618 0.0
C1711 C 0.6209 0.27919 0.24047 0.0
H1712 H 0.76658 0.90389 0.30064 0.0
H1713 H 0.82033 0.93984 0.24927 0.0
H1714 H 0.74092 0.89022 0.26458 0.0
H1715 H 0.79385 0.92708 0.2128 0.0
H1716 H 0.7554 0.87225 0.15413 0.0
H1717 H 0.78139 0.89088 0.18833 0.0
H1718 H 0.71278 0.90381 0.23284 0.0
H1719 H 0.68732 0.88408 0.19913 0.0
C1720 C 0.7727 0.90927 0.28159 0.0
C1721 C 0.79546 0.923 0.27782 0.0
C1722 C 0.75783 0.90157 0.26081 0.0
C1723 C 0.76509 0.90768 0.23562 0.0
C1724 C 0.78777 0.92176 0.23186 0.0
C1725 C 0.80286 0.92925 0.25276 0.0
C1726 C 0.74599 0.8794 0.17115 0.0
C1727 C 0.71944 0.87655 0.1742 0.0
C1728 C 0.76082 0.89015 0.19074 0.0
C1729 C 0.7493 0.89859 0.21362 0.0
C1730 C 0.72249 0.89688 0.2159 0.0
C1731 C 0.70782 0.88574 0.19656 0.0
H1732 H 0.40455 0.75263 0.22077 0.0
H1733 H 0.43884 0.69857 0.27299 0.0
H1734 H 0.39125 0.779 0.25646 0.0
H1735 H 0.42636 0.7257 0.30909 0.0
H1736 H 0.37232 0.76661 0.36679 0.0
H1737 H 0.38996 0.73959 0.33294 0.0
H1738 H 0.40622 0.80707 0.288 0.0
H1739 H 0.38765 0.83371 0.32146 0.0
C1740 C 0.40958 0.74654 0.23993 0.0
C1741 C 0.4228 0.72353 0.24405 0.0
C1742 C 0.4021 0.76181 0.26048 0.0
C1743 C 0.4079 0.75469 0.28577 0.0
C1744 C 0.42133 0.73169 0.28991 0.0
C1745 C 0.42863 0.71621 0.26924 0.0
C1746 C 0.37999 0.77558 0.34978 0.0
C1747 C 0.37845 0.8022 0.34658 0.0
C1748 C 0.39016 0.76013 0.33038 0.0
C1749 C 0.39927 0.77106 0.30751 0.0
C1750 C 0.39876 0.79786 0.30499 0.0
C1751 C 0.38827 0.81319 0.32417 0.0
H1752 H 0.33566 0.88951 0.82258 0.0
H1753 H 0.26826 0.87192 0.86668 0.0
H1754 H 0.30914 0.90903 0.78958 0.0
H1755 H 0.24131 0.8904 0.83317 0.0
H1756 H 0.19974 0.9394 0.77386 0.0
H1757 H 0.22681 0.92688 0.81003 0.0
H1758 H 0.2819 0.89477 0.75726 0.0
H1759 H 0.25562 0.90815 0.72159 0.0
C1760 C 0.31509 0.88986 0.82512 0.0
C1761 C 0.30398 0.8791 0.84702 0.0
C1762 C 0.29982 0.90089 0.80618 0.0
C1763 C 0.27295 0.90095 0.8084 0.0
C1764 C 0.2619 0.89095 0.83084 0.0
C1765 C 0.27729 0.88029 0.85004 0.0
C1766 C 0.21779 0.92991 0.77011 0.0
C1767 C 0.22561 0.9249 0.74488 0.0
C1768 C 0.23324 0.92257 0.79082 0.0
C1769 C 0.2567 0.9099 0.78667 0.0
C1770 C 0.26436 0.90502 0.76134 0.0
C1771 C 0.24913 0.91256 0.74077 0.0
H1772 H 0.43892 0.31996 0.7483 0.0
H1773 H 0.40349 0.26592 0.79969 0.0
H1774 H 0.42648 0.29331 0.71185 0.0
H1775 H 0.3901 0.24011 0.76367 0.0
H1776 H 0.38397 0.18656 0.69833 0.0
H1777 H 0.40375 0.2121 0.73196 0.0
H1778 H 0.3905 0.28053 0.6874 0.0
H1779 H 0.37189 0.25447 0.65329 0.0
C1780 C 0.42849 0.30241 0.75179 0.0
C1781 C 0.4223 0.29497 0.77685 0.0
C1782 C 0.4212 0.2872 0.73091 0.0
C1783 C 0.40735 0.2644 0.7347 0.0
C1784 C 0.40128 0.25712 0.75988 0.0
C1785 C 0.40881 0.27208 0.78064 0.0
C1786 C 0.3856 0.20704 0.69573 0.0
C1787 C 0.37632 0.2186 0.67339 0.0
C1788 C 0.39676 0.22175 0.71502 0.0
C1789 C 0.39837 0.24854 0.7127 0.0
C1790 C 0.38986 0.25999 0.68983 0.0
C1791 C 0.37912 0.24512 0.67029 0.0
H1792 H 0.82014 0.08004 0.76945 0.0
H1793 H 0.76591 0.11441 0.71743 0.0
H1794 H 0.79308 0.0923 0.80562 0.0
H1795 H 0.73956 0.12757 0.75326 0.0
H1796 H 0.68535 0.13202 0.8187 0.0
H1797 H 0.71156 0.1133 0.78498 0.0
H1798 H 0.77957 0.12832 0.82976 0.0
H1799 H 0.75293 0.14605 0.86387 0.0
C1800 C 0.80245 0.09021 0.76576 0.0
C1801 C 0.7951 0.09615 0.7406 0.0
C1802 C 0.78701 0.09739 0.78649 0.0
C1803 C 0.764 0.11088 0.78248 0.0
C1804 C 0.75677 0.1167 0.7572 0.0
C1805 C 0.77201 0.1093 0.73657 0.0
C1806 C 0.70589 0.13105 0.82133 0.0
C1807 C 0.71713 0.14056 0.84377 0.0
C1808 C 0.72098 0.12049 0.80198 0.0
C1809 C 0.74782 0.1196 0.80436 0.0
C1810 C 0.75899 0.12839 0.82728 0.0
C1811 C 0.74377 0.13861 0.84684 0.0
H1812 H 0.62186 0.74499 0.79705 0.0
H1813 H 0.58058 0.6951 0.74568 0.0
H1814 H 0.63509 0.77119 0.76137 0.0
H1815 H 0.59338 0.72213 0.70947 0.0
H1816 H 0.64824 0.76267 0.65079 0.0
H1817 H 0.63056 0.735 0.68416 0.0
H1818 H 0.61799 0.80126 0.73203 0.0
H1819 H 0.63627 0.82854 0.69902 0.0
C1820 C 0.61538 0.73971 0.77808 0.0
C1821 C 0.60003 0.718 0.77423 0.0
C1822 C 0.62285 0.75492 0.75755 0.0
C1823 C 0.61502 0.74906 0.73251 0.0
C1824 C 0.59982 0.72716 0.72851 0.0
C1825 C 0.5924 0.71174 0.74922 0.0
C1826 C 0.64134 0.77126 0.66833 0.0
C1827 C 0.64387 0.79771 0.67249 0.0
C1828 C 0.63117 0.75544 0.68744 0.0
C1829 C 0.62319 0.76582 0.71097 0.0
C1830 C 0.62458 0.79248 0.71445 0.0
C1831 C 0.63496 0.80817 0.69554 0.0
H1832 H 0.29844 0.2567 0.09763 0.0
H1833 H 0.25093 0.18912 0.09743 0.0
H1834 H 0.26172 0.28255 0.11012 0.0
H1835 H 0.21396 0.21517 0.11001 0.0
H1836 H 0.16611 0.26875 0.16457 0.0
H1837 H 0.20036 0.24092 0.1491 0.0
H1838 H 0.22 0.29689 0.09174 0.0
H1839 H 0.18566 0.32441 0.10666 0.0
C1840 C 0.28008 0.24739 0.10007 0.0
C1841 C 0.27753 0.2209 0.0965 0.0
C1842 C 0.25902 0.26222 0.10713 0.0
C1843 C 0.23496 0.25088 0.11103 0.0
C1844 C 0.23232 0.22438 0.1073 0.0
C1845 C 0.2534 0.20953 0.09992 0.0
C1846 C 0.17747 0.27501 0.14845 0.0
C1847 C 0.17319 0.29904 0.1371 0.0
C1848 C 0.19709 0.25903 0.13959 0.0
C1849 C 0.21295 0.26682 0.11933 0.0
C1850 C 0.20835 0.29055 0.10767 0.0
C1851 C 0.18869 0.3064 0.11636 0.0
H1852 H 0.30221 0.76327 0.91124 0.0
H1853 H 0.25048 0.82479 0.93063 0.0
H1854 H 0.26641 0.738 0.89567 0.0
H1855 H 0.2144 0.79934 0.91469 0.0
H1856 H 0.1552 0.73233 0.90302 0.0
H1857 H 0.189 0.75861 0.92223 0.0
H1858 H 0.2382 0.74194 0.85801 0.0
H1859 H 0.20474 0.71623 0.83882 0.0
C1860 C 0.28315 0.77137 0.91232 0.0
C1861 C 0.27921 0.79612 0.92199 0.0
C1862 C 0.26263 0.75691 0.90327 0.0
C1863 C 0.23762 0.7668 0.90364 0.0
C1864 C 0.23346 0.79119 0.91423 0.0
C1865 C 0.2541 0.80576 0.92328 0.0
C1866 C 0.17316 0.73449 0.89293 0.0
C1867 C 0.17733 0.7218 0.86954 0.0
C1868 C 0.1925 0.74951 0.90394 0.0
C1869 C 0.21639 0.75201 0.89181 0.0
C1870 C 0.22024 0.73988 0.86816 0.0
C1871 C 0.201 0.72504 0.85717 0.0
H1872 H 0.32377 0.27326 0.58898 0.0
H1873 H 0.26094 0.22154 0.60342 0.0
H1874 H 0.29771 0.309 0.60471 0.0
H1875 H 0.23508 0.25702 0.61878 0.0
H1876 H 0.21179 0.31652 0.67739 0.0
H1877 H 0.23788 0.28359 0.65782 0.0
H1878 H 0.2573 0.33503 0.59626 0.0
H1879 H 0.2306 0.36831 0.61583 0.0
C1880 C 0.30432 0.26958 0.59515 0.0
C1881 C 0.29448 0.24456 0.59519 0.0
C1882 C 0.28941 0.29004 0.60408 0.0
C1883 C 0.26449 0.28574 0.61329 0.0
C1884 C 0.25439 0.26086 0.61227 0.0
C1885 C 0.26919 0.24054 0.60334 0.0
C1886 C 0.22126 0.32087 0.65952 0.0
C1887 C 0.21869 0.34503 0.648 0.0
C1888 C 0.23632 0.30194 0.64832 0.0
C1889 C 0.24935 0.30659 0.6253 0.0
C1890 C 0.24748 0.33093 0.61404 0.0
C1891 C 0.23223 0.34996 0.62525 0.0
H1892 H 0.86705 0.26521 0.87056 0.0
H1893 H 0.82154 0.33225 0.8859 0.0
H1894 H 0.83319 0.23814 0.88816 0.0
H1895 H 0.78812 0.30562 0.90447 0.0
H1896 H 0.72079 0.25153 0.90177 0.0
H1897 H 0.75672 0.27774 0.8889 0.0
H1898 H 0.80887 0.2241 0.92426 0.0
H1899 H 0.77251 0.19713 0.93632 0.0
C1900 C 0.85001 0.27414 0.87827 0.0
C1901 C 0.84671 0.30075 0.87669 0.0
C1902 C 0.83061 0.25869 0.88841 0.0
C1903 C 0.80767 0.26961 0.89743 0.0
C1904 C 0.80514 0.29641 0.89705 0.0
C1905 C 0.82431 0.31174 0.88657 0.0
C1906 C 0.73989 0.24533 0.90694 0.0
C1907 C 0.7438 0.22228 0.92013 0.0
C1908 C 0.76058 0.26051 0.89971 0.0
C1909 C 0.78581 0.25327 0.90575 0.0
C1910 C 0.78975 0.2302 0.91909 0.0
C1911 C 0.76893 0.21481 0.92614 0.0
H1912 H 0.69151 0.74856 0.60412 0.0
H1913 H 0.75859 0.79186 0.58331 0.0
H1914 H 0.71875 0.71325 0.61827 0.0
H1915 H 0.78581 0.75628 0.59585 0.0
H1916 H 0.82716 0.70679 0.65318 0.0
H1917 H 0.80001 0.73869 0.63386 0.0
H1918 H 0.7476 0.67964 0.60923 0.0
H1919 H 0.77397 0.64767 0.63043 0.0
C1920 C 0.71208 0.7502 0.60199 0.0
C1921 C 0.72304 0.77294 0.59293 0.0
C1922 C 0.72773 0.72996 0.60999 0.0
C1923 C 0.75461 0.73197 0.60862 0.0
C1924 C 0.76529 0.75427 0.598 0.0
C1925 C 0.74971 0.77462 0.59058 0.0
C1926 C 0.80977 0.70047 0.64391 0.0
C1927 C 0.80275 0.67452 0.64381 0.0
C1928 C 0.7943 0.71885 0.63233 0.0
C1929 C 0.77152 0.71187 0.6198 0.0
C1930 C 0.76481 0.68582 0.61898 0.0
C1931 C 0.78019 0.66738 0.6309 0.0
H1932 H 0.81347 0.69418 0.15422 0.0
H1933 H 0.87202 0.74676 0.12879 0.0
H1934 H 0.78104 0.72079 0.13506 0.0
H1935 H 0.83946 0.77253 0.10777 0.0
H1936 H 0.77067 0.82852 0.10235 0.0
H1937 H 0.80617 0.80159 0.11654 0.0
H1938 H 0.76212 0.73417 0.09748 0.0
H1939 H 0.72635 0.76116 0.08487 0.0
C1940 C 0.81957 0.71132 0.14442 0.0
C1941 C 0.84556 0.71832 0.14355 0.0
C1942 C 0.80085 0.72647 0.13292 0.0
C1943 C 0.80746 0.74893 0.11968 0.0
C1944 C 0.83352 0.7556 0.11808 0.0
C1945 C 0.85232 0.74055 0.12992 0.0
C1946 C 0.76881 0.80793 0.10097 0.0
C1947 C 0.74574 0.79688 0.09279 0.0
C1948 C 0.78919 0.79244 0.109 0.0
C1949 C 0.78702 0.76557 0.10857 0.0
C1950 C 0.76433 0.75471 0.09889 0.0
C1951 C 0.74385 0.77016 0.09142 0.0
H1952 H 0.18808 0.69921 0.38706 0.0
H1953 H 0.2552 0.65342 0.37284 0.0
H1954 H 0.21458 0.73236 0.40636 0.0
H1955 H 0.28218 0.68704 0.39106 0.0
H1956 H 0.3229 0.7476 0.43964 0.0
H1957 H 0.2959 0.71132 0.42731 0.0
H1958 H 0.24277 0.76352 0.39123 0.0
H1959 H 0.26893 0.79932 0.40438 0.0
C1960 C 0.20858 0.69634 0.38813 0.0
C1961 C 0.21965 0.67396 0.37835 0.0
C1962 C 0.22384 0.71533 0.39902 0.0
C1963 C 0.25065 0.71266 0.39987 0.0
C1964 C 0.26163 0.68973 0.39095 0.0
C1965 C 0.24623 0.67048 0.38044 0.0
C1966 C 0.30532 0.75119 0.42925 0.0
C1967 C 0.29795 0.77629 0.42313 0.0
C1968 C 0.28991 0.73043 0.42206 0.0
C1969 C 0.26697 0.73442 0.40843 0.0
C1970 C 0.25987 0.75962 0.40228 0.0
C1971 C 0.27503 0.78024 0.40967 0.0
H1972 H 0.74847 0.22297 0.39977 0.0
H1973 H 0.69885 0.27482 0.4408 0.0
H1974 H 0.7753 0.25836 0.38693 0.0
H1975 H 0.72651 0.31069 0.42844 0.0
H1976 H 0.76788 0.36914 0.37428 0.0
H1977 H 0.73983 0.33599 0.39171 0.0
H1978 H 0.80565 0.28736 0.40397 0.0
H1979 H 0.83331 0.32018 0.3859 0.0
C1980 C 0.7434 0.24197 0.40629 0.0
C1981 C 0.72156 0.24606 0.42142 0.0
C1982 C 0.75897 0.26233 0.39906 0.0
C1983 C 0.75335 0.28741 0.40693 0.0
C1984 C 0.73135 0.29162 0.42196 0.0
C1985 C 0.71557 0.2711 0.42913 0.0
C1986 C 0.7763 0.35149 0.38107 0.0
C1987 C 0.80273 0.34707 0.3785 0.0
C1988 C 0.76026 0.3325 0.39109 0.0
C1989 C 0.7704 0.30881 0.39891 0.0
C1990 C 0.79705 0.30506 0.3975 0.0
C1991 C 0.81295 0.32387 0.38725 0.0
loop_
_geom_bond_atom_site_label_1
_geom_bond_atom_site_label_2
_geom_bond_distance
_geom_bond_site_symmetry_2
_ccdc_geom_bond_type
Co0 N4 2.148 . S
Co0 N10 2.128 . S
Co0 N20 2.194 . S
Co0 O25 2.351 . S
Co0 O26 2.155 . S
Co0 O27 2.096 . S
C1 N4 1.301 . S
C1 N5 1.328 . S
C1 H6 0.930 . S
C2 C3 1.333 . S
C2 N4 1.317 . S
C2 H7 0.930 . S
C3 C2 1.333 . S
C3 N5 1.350 . S
C3 H29 0.931 . S
N4 Co0 2.148 . S
N4 C1 1.301 . S
N4 C2 1.317 . S
N5 C1 1.328 . S
N5 C3 1.350 . S
H6 C1 0.930 . S
H7 C2 0.930 . S
C8 O9 1.224 . S
C8 O27 1.247 . S
O9 C8 1.224 . S
N10 Co0 2.128 . S
N10 C11 1.355 . S
N10 C13 1.311 . S
C11 N10 1.355 . S
C11 C12 1.352 1_455 S
C11 H23 0.929 . S
C12 C11 1.352 1_655 S
C12 N14 1.370 1_655 S
C12 H30 0.944 . S
C13 N10 1.311 . S
C13 N14 1.347 . S
C13 H24 0.929 . S
N14 C12 1.370 1_455 S
N14 C13 1.347 . S
C15 C18 1.365 . S
C15 N20 1.328 . S
C15 H21 0.929 . S
C16 C17 1.362 . S
C16 C19 1.378 . S
C16 H31 0.929 . S
C17 C16 1.362 . S
C17 C18 1.366 . S
C18 C15 1.365 . S
C18 C17 1.366 . S
C18 H32 0.930 . S
C19 C16 1.378 . S
C19 N20 1.315 . S
C19 H22 0.930 . S
N20 Co0 2.194 . S
N20 C15 1.328 . S
N20 C19 1.315 . S
H21 C15 0.929 . S
H22 C19 0.930 . S
H23 C11 0.929 . S
H24 C13 0.929 . S
O25 Co0 2.351 . S
O25 C28 1.244 . S
O26 Co0 2.155 . S
O26 C28 1.240 . S
O27 Co0 2.096 . S
O27 C8 1.247 . S
C28 O25 1.244 . S
C28 O26 1.240 . S
H29 C3 0.931 . S
H30 C12 0.944 . S
H31 C16 0.929 . S
H32 C18 0.930 . S
Co33 N37 2.148 . S
Co33 N43 2.128 . S
Co33 N53 2.194 . S
Co33 O58 2.351 . S
Co33 O59 2.155 . S
Co33 O60 2.096 . S
C34 N37 1.301 . S
C34 N38 1.328 . S
C34 H39 0.930 . S
C35 C36 1.333 . S
C35 N37 1.317 . S
C35 H40 0.930 . S
C36 C35 1.333 . S
C36 N38 1.350 . S
C36 H62 0.931 . S
N37 Co33 2.148 . S
N37 C34 1.301 . S
N37 C35 1.317 . S
N38 C34 1.328 . S
N38 C36 1.350 . S
H39 C34 0.930 . S
H40 C35 0.930 . S
C41 O42 1.224 . S
C41 O60 1.247 . S
O42 C41 1.224 . S
N43 Co33 2.128 . S
N43 C44 1.355 . S
N43 C46 1.311 . S
C44 N43 1.355 . S
C44 C45 1.363 . S
C44 H56 0.929 . S
C45 C44 1.363 . S
C45 N47 1.375 . S
C45 H63 0.931 . S
C46 N43 1.311 . S
C46 N47 1.347 . S
C46 H57 0.929 . S
N47 C45 1.375 . S
N47 C46 1.347 . S
C48 C51 1.365 . S
C48 N53 1.328 . S
C48 H54 0.929 . S
C49 C50 1.362 . S
C49 C52 1.378 . S
C49 H64 0.929 . S
C50 C49 1.362 . S
C50 C51 1.366 . S
C51 C48 1.365 . S
C51 C50 1.366 . S
C51 H65 0.930 . S
C52 C49 1.378 . S
C52 N53 1.315 . S
C52 H55 0.930 . S
N53 Co33 2.194 . S
N53 C48 1.328 . S
N53 C52 1.315 . S
H54 C48 0.929 . S
H55 C52 0.930 . S
H56 C44 0.929 . S
H57 C46 0.929 . S
O58 Co33 2.351 . S
O58 C61 1.244 . S
O59 Co33 2.155 . S
O59 C61 1.240 . S
O60 Co33 2.096 . S
O60 C41 1.247 . S
C61 O58 1.244 . S
C61 O59 1.240 . S
H62 C36 0.931 . S
H63 C45 0.931 . S
H64 C49 0.929 . S
H65 C51 0.930 . S
Co66 N70 2.148 . S
Co66 N76 2.128 . S
Co66 N86 2.194 . S
Co66 O91 2.351 . S
Co66 O92 2.155 . S
Co66 O93 2.096 . S
C67 N70 1.301 . S
C67 N71 1.328 . S
C67 H72 0.930 . S
C68 C69 1.333 . S
C68 N70 1.317 . S
C68 H73 0.930 . S
C69 C68 1.333 . S
C69 N71 1.350 . S
C69 H95 0.931 . S
N70 Co66 2.148 . S
N70 C67 1.301 . S
N70 C68 1.317 . S
N71 C67 1.328 . S
N71 C69 1.350 . S
H72 C67 0.930 . S
H73 C68 0.930 . S
C74 O75 1.224 . S
C74 O93 1.247 . S
O75 C74 1.224 . S
N76 Co66 2.128 . S
N76 C77 1.355 . S
N76 C79 1.311 . S
C77 N76 1.355 . S
C77 C78 1.352 1_655 S
C77 H89 0.929 . S
C78 C77 1.352 1_455 S
C78 N80 1.370 1_455 S
C78 H96 0.944 . S
C79 N76 1.311 . S
C79 N80 1.347 . S
C79 H90 0.929 . S
N80 C78 1.370 1_655 S
N80 C79 1.347 . S
C81 C84 1.365 . S
C81 N86 1.328 . S
C81 H87 0.929 . S
C82 C83 1.362 . S
C82 C85 1.378 . S
C82 H97 0.929 . S
C83 C82 1.362 . S
C83 C84 1.366 . S
C84 C81 1.365 . S
C84 C83 1.366 . S
C84 H98 0.930 . S
C85 C82 1.378 . S
C85 N86 1.315 . S
C85 H88 0.930 . S
N86 Co66 2.194 . S
N86 C81 1.328 . S
N86 C85 1.315 . S
H87 C81 0.929 . S
H88 C85 0.930 . S
H89 C77 0.929 . S
H90 C79 0.929 . S
O91 Co66 2.351 . S
O91 C94 1.244 . S
O92 Co66 2.155 . S
O92 C94 1.240 . S
O93 Co66 2.096 . S
O93 C74 1.247 . S
C94 O91 1.244 . S
C94 O92 1.240 . S
H95 C69 0.931 . S
H96 C78 0.944 . S
H97 C82 0.929 . S
H98 C84 0.930 . S
Co99 N103 2.148 . S
Co99 N109 2.128 . S
Co99 N119 2.194 . S
Co99 O124 2.351 . S
Co99 O125 2.155 . S
Co99 O126 2.096 . S
C100 N103 1.301 . S
C100 N104 1.328 . S
C100 H105 0.930 . S
C101 C102 1.333 . S
C101 N103 1.317 . S
C101 H106 0.930 . S
C102 C101 1.333 . S
C102 N104 1.350 . S
C102 H128 0.931 . S
N103 Co99 2.148 . S
N103 C100 1.301 . S
N103 C101 1.317 . S
N104 C100 1.328 . S
N104 C102 1.350 . S
H105 C100 0.930 . S
H106 C101 0.930 . S
C107 O108 1.224 . S
C107 O126 1.247 . S
O108 C107 1.224 . S
N109 Co99 2.128 . S
N109 C110 1.355 . S
N109 C112 1.311 . S
C110 N109 1.355 . S
C110 C111 1.363 . S
C110 H122 0.929 . S
C111 C110 1.363 . S
C111 N113 1.375 . S
C111 H129 0.931 . S
C112 N109 1.311 . S
C112 N113 1.347 . S
C112 H123 0.929 . S
N113 C111 1.375 . S
N113 C112 1.347 . S
C114 C117 1.365 . S
C114 N119 1.328 . S
C114 H120 0.929 . S
C115 C116 1.362 . S
C115 C118 1.378 . S
C115 H130 0.929 . S
C116 C115 1.362 . S
C116 C117 1.366 . S
C117 C114 1.365 . S
C117 C116 1.366 . S
C117 H131 0.930 . S
C118 C115 1.378 . S
C118 N119 1.315 . S
C118 H121 0.930 . S
N119 Co99 2.194 . S
N119 C114 1.328 . S
N119 C118 1.315 . S
H120 C114 0.929 . S
H121 C118 0.930 . S
H122 C110 0.929 . S
H123 C112 0.929 . S
O124 Co99 2.351 . S
O124 C127 1.244 . S
O125 Co99 2.155 . S
O125 C127 1.240 . S
O126 Co99 2.096 . S
O126 C107 1.247 . S
C127 O124 1.244 . S
C127 O125 1.240 . S
H128 C102 0.931 . S
H129 C111 0.931 . S
H130 C115 0.929 . S
H131 C117 0.930 . S
Co132 N136 2.148 . S
Co132 N142 2.128 . S
Co132 N152 2.194 . S
Co132 O157 2.351 . S
Co132 O158 2.155 . S
Co132 O159 2.096 . S
C133 N136 1.301 . S
C133 N137 1.328 . S
C133 H138 0.930 . S
C134 C135 1.333 . S
C134 N136 1.317 . S
C134 H139 0.930 . S
C135 C134 1.333 . S
C135 N137 1.350 . S
C135 H161 0.931 . S
N136 Co132 2.148 . S
N136 C133 1.301 . S
N136 C134 1.317 . S
N137 C133 1.328 . S
N137 C135 1.350 . S
H138 C133 0.930 . S
H139 C134 0.930 . S
C140 O141 1.224 . S
C140 O159 1.247 . S
O141 C140 1.224 . S
N142 Co132 2.128 . S
N142 C143 1.355 . S
N142 C145 1.311 . S
C143 N142 1.355 . S
C143 C144 1.352 1_455 S
C143 H155 0.929 . S
C144 C143 1.352 1_655 S
C144 N146 1.370 1_655 S
C144 H162 0.944 . S
C145 N142 1.311 . S
C145 N146 1.347 . S
C145 H156 0.929 . S
N146 C144 1.370 1_455 S
N146 C145 1.347 . S
C147 C150 1.365 . S
C147 N152 1.328 . S
C147 H153 0.929 . S
C148 C149 1.362 . S
C148 C151 1.378 . S
C148 H163 0.929 . S
C149 C148 1.362 . S
C149 C150 1.366 . S
C150 C147 1.365 . S
C150 C149 1.366 . S
C150 H164 0.930 . S
C151 C148 1.378 . S
C151 N152 1.315 . S
C151 H154 0.930 . S
N152 Co132 2.194 . S
N152 C147 1.328 . S
N152 C151 1.315 . S
H153 C147 0.929 . S
H154 C151 0.930 . S
H155 C143 0.929 . S
H156 C145 0.929 . S
O157 Co132 2.351 . S
O157 C160 1.244 . S
O158 Co132 2.155 . S
O158 C160 1.240 . S
O159 Co132 2.096 . S
O159 C140 1.247 . S
C160 O157 1.244 . S
C160 O158 1.240 . S
H161 C135 0.931 . S
H162 C144 0.944 . S
H163 C148 0.929 . S
H164 C150 0.930 . S
Co165 N169 2.148 . S
Co165 N175 2.128 . S
Co165 N185 2.194 . S
Co165 O190 2.351 . S
Co165 O191 2.155 . S
Co165 O192 2.096 . S
C166 N169 1.301 . S
C166 N170 1.328 . S
C166 H171 0.930 . S
C167 C168 1.333 . S
C167 N169 1.317 . S
C167 H172 0.930 . S
C168 C167 1.333 . S
C168 N170 1.350 . S
C168 H194 0.931 . S
N169 Co165 2.148 . S
N169 C166 1.301 . S
N169 C167 1.317 . S
N170 C166 1.328 . S
N170 C168 1.350 . S
H171 C166 0.930 . S
H172 C167 0.930 . S
C173 O174 1.224 . S
C173 O192 1.247 . S
O174 C173 1.224 . S
N175 Co165 2.128 . S
N175 C176 1.355 . S
N175 C178 1.311 . S
C176 N175 1.355 . S
C176 C177 1.363 . S
C176 H188 0.929 . S
C177 C176 1.363 . S
C177 N179 1.375 . S
C177 H195 0.931 . S
C178 N175 1.311 . S
C178 N179 1.347 . S
C178 H189 0.929 . S
N179 C177 1.375 . S
N179 C178 1.347 . S
C180 C183 1.365 . S
C180 N185 1.328 . S
C180 H186 0.929 . S
C181 C182 1.362 . S
C181 C184 1.378 . S
C181 H196 0.929 . S
C182 C181 1.362 . S
C182 C183 1.366 . S
C183 C180 1.365 . S
C183 C182 1.366 . S
C183 H197 0.930 . S
C184 C181 1.378 . S
C184 N185 1.315 . S
C184 H187 0.930 . S
N185 Co165 2.194 . S
N185 C180 1.328 . S
N185 C184 1.315 . S
H186 C180 0.929 . S
H187 C184 0.930 . S
H188 C176 0.929 . S
H189 C178 0.929 . S
O190 Co165 2.351 . S
O190 C193 1.244 . S
O191 Co165 2.155 . S
O191 C193 1.240 . S
O192 Co165 2.096 . S
O192 C173 1.247 . S
C193 O190 1.244 . S
C193 O191 1.240 . S
H194 C168 0.931 . S
H195 C177 0.931 . S
H196 C181 0.929 . S
H197 C183 0.930 . S
Co198 N202 2.148 . S
Co198 N208 2.128 . S
Co198 N218 2.194 . S
Co198 O223 2.351 . S
Co198 O224 2.155 . S
Co198 O225 2.096 . S
C199 N202 1.301 . S
C199 N203 1.328 . S
C199 H204 0.930 . S
C200 C201 1.333 . S
C200 N202 1.317 . S
C200 H205 0.930 . S
C201 C200 1.333 . S
C201 N203 1.350 . S
C201 H227 0.931 . S
N202 Co198 2.148 . S
N202 C199 1.301 . S
N202 C200 1.317 . S
N203 C199 1.328 . S
N203 C201 1.350 . S
H204 C199 0.930 . S
H205 C200 0.930 . S
C206 O207 1.224 . S
C206 O225 1.247 . S
O207 C206 1.224 . S
N208 Co198 2.128 . S
N208 C209 1.355 . S
N208 C211 1.311 . S
C209 N208 1.355 . S
C209 C210 1.352 1_655 S
C209 H221 0.929 . S
C210 C209 1.352 1_455 S
C210 N212 1.370 1_455 S
C210 H228 0.944 . S
C211 N208 1.311 . S
C211 N212 1.347 . S
C211 H222 0.929 . S
N212 C210 1.370 1_655 S
N212 C211 1.347 . S
C213 C216 1.365 . S
C213 N218 1.328 . S
C213 H219 0.929 . S
C214 C215 1.362 . S
C214 C217 1.378 . S
C214 H229 0.929 . S
C215 C214 1.362 . S
C215 C216 1.366 . S
C216 C213 1.365 . S
C216 C215 1.366 . S
C216 H230 0.930 . S
C217 C214 1.378 . S
C217 N218 1.315 . S
C217 H220 0.930 . S
N218 Co198 2.194 . S
N218 C213 1.328 . S
N218 C217 1.315 . S
H219 C213 0.929 . S
H220 C217 0.930 . S
H221 C209 0.929 . S
H222 C211 0.929 . S
O223 Co198 2.351 . S
O223 C226 1.244 . S
O224 Co198 2.155 . S
O224 C226 1.240 . S
O225 Co198 2.096 . S
O225 C206 1.247 . S
C226 O223 1.244 . S
C226 O224 1.240 . S
H227 C201 0.931 . S
H228 C210 0.944 . S
H229 C214 0.929 . S
H230 C216 0.930 . S
Co231 N235 2.148 . S
Co231 N241 2.128 . S
Co231 N251 2.194 . S
Co231 O256 2.351 . S
Co231 O257 2.155 . S
Co231 O258 2.096 . S
C232 N235 1.301 . S
C232 N236 1.328 . S
C232 H237 0.930 . S
C233 C234 1.333 . S
C233 N235 1.317 . S
C233 H238 0.930 . S
C234 C233 1.333 . S
C234 N236 1.350 . S
C234 H260 0.931 . S
N235 Co231 2.148 . S
N235 C232 1.301 . S
N235 C233 1.317 . S
N236 C232 1.328 . S
N236 C234 1.350 . S
H237 C232 0.930 . S
H238 C233 0.930 . S
C239 O240 1.224 . S
C239 O258 1.247 . S
O240 C239 1.224 . S
N241 Co231 2.128 . S
N241 C242 1.355 . S
N241 C244 1.311 . S
C242 N241 1.355 . S
C242 C243 1.363 . S
C242 H254 0.929 . S
C243 C242 1.363 . S
C243 N245 1.375 . S
C243 H261 0.931 . S
C244 N241 1.311 . S
C244 N245 1.347 . S
C244 H255 0.929 . S
N245 C243 1.375 . S
N245 C244 1.347 . S
C246 C249 1.365 . S
C246 N251 1.328 . S
C246 H252 0.929 . S
C247 C248 1.362 . S
C247 C250 1.378 . S
C247 H262 0.929 . S
C248 C247 1.362 . S
C248 C249 1.366 . S
C249 C246 1.365 . S
C249 C248 1.366 . S
C249 H263 0.930 . S
C250 C247 1.378 . S
C250 N251 1.315 . S
C250 H253 0.930 . S
N251 Co231 2.194 . S
N251 C246 1.328 . S
N251 C250 1.315 . S
H252 C246 0.929 . S
H253 C250 0.930 . S
H254 C242 0.929 . S
H255 C244 0.929 . S
O256 Co231 2.351 . S
O256 C259 1.244 . S
O257 Co231 2.155 . S
O257 C259 1.240 . S
O258 Co231 2.096 . S
O258 C239 1.247 . S
C259 O256 1.244 . S
C259 O257 1.240 . S
H260 C234 0.931 . S
H261 C243 0.931 . S
H262 C247 0.929 . S
H263 C249 0.930 . S
Co264 N268 2.148 . S
Co264 N274 2.128 . S
Co264 N284 2.194 . S
Co264 O289 2.351 . S
Co264 O290 2.155 . S
Co264 O291 2.096 . S
C265 N268 1.301 . S
C265 N269 1.328 . S
C265 H270 0.930 . S
C266 C267 1.333 . S
C266 N268 1.317 . S
C266 H271 0.930 . S
C267 C266 1.333 . S
C267 N269 1.350 . S
C267 H293 0.931 . S
N268 Co264 2.148 . S
N268 C265 1.301 . S
N268 C266 1.317 . S
N269 C265 1.328 . S
N269 C267 1.350 . S
H270 C265 0.930 . S
H271 C266 0.930 . S
C272 O273 1.224 . S
C272 O291 1.247 . S
O273 C272 1.224 . S
N274 Co264 2.128 . S
N274 C275 1.355 . S
N274 C277 1.311 . S
C275 N274 1.355 . S
C275 C276 1.352 1_545 S
C275 H287 0.929 . S
C276 C275 1.352 1_565 S
C276 N278 1.370 1_565 S
C276 H294 0.944 . S
C277 N274 1.311 . S
C277 N278 1.347 . S
C277 H288 0.929 . S
N278 C276 1.370 1_545 S
N278 C277 1.347 . S
C279 C282 1.365 . S
C279 N284 1.328 . S
C279 H285 0.929 . S
C280 C281 1.362 . S
C280 C283 1.378 . S
C280 H295 0.929 . S
C281 C280 1.362 . S
C281 C282 1.366 . S
C282 C279 1.365 . S
C282 C281 1.366 . S
C282 H296 0.930 . S
C283 C280 1.378 . S
C283 N284 1.315 . S
C283 H286 0.930 . S
N284 Co264 2.194 . S
N284 C279 1.328 . S
N284 C283 1.315 . S
H285 C279 0.929 . S
H286 C283 0.930 . S
H287 C275 0.929 . S
H288 C277 0.929 . S
O289 Co264 2.351 . S
O289 C292 1.244 . S
O290 Co264 2.155 . S
O290 C292 1.240 . S
O291 Co264 2.096 . S
O291 C272 1.247 . S
C292 O289 1.244 . S
C292 O290 1.240 . S
H293 C267 0.931 . S
H294 C276 0.944 . S
H295 C280 0.929 . S
H296 C282 0.930 . S
Co297 N301 2.148 . S
Co297 N307 2.128 . S
Co297 N317 2.194 . S
Co297 O322 2.351 . S
Co297 O323 2.155 . S
Co297 O324 2.096 . S
C298 N301 1.301 . S
C298 N302 1.328 . S
C298 H303 0.930 . S
C299 C300 1.333 . S
C299 N301 1.317 . S
C299 H304 0.930 . S
C300 C299 1.333 . S
C300 N302 1.350 . S
C300 H326 0.931 . S
N301 Co297 2.148 . S
N301 C298 1.301 . S
N301 C299 1.317 . S
N302 C298 1.328 . S
N302 C300 1.350 . S
H303 C298 0.930 . S
H304 C299 0.930 . S
C305 O306 1.224 . S
C305 O324 1.247 . S
O306 C305 1.224 . S
N307 Co297 2.128 . S
N307 C308 1.355 . S
N307 C310 1.311 . S
C308 N307 1.355 . S
C308 C309 1.363 . S
C308 H320 0.929 . S
C309 C308 1.363 . S
C309 N311 1.375 . S
C309 H327 0.931 . S
C310 N307 1.311 . S
C310 N311 1.347 . S
C310 H321 0.929 . S
N311 C309 1.375 . S
N311 C310 1.347 . S
C312 C315 1.365 . S
C312 N317 1.328 . S
C312 H318 0.929 . S
C313 C314 1.362 . S
C313 C316 1.378 . S
C313 H328 0.929 . S
C314 C313 1.362 . S
C314 C315 1.366 . S
C315 C312 1.365 . S
C315 C314 1.366 . S
C315 H329 0.930 . S
C316 C313 1.378 . S
C316 N317 1.315 . S
C316 H319 0.930 . S
N317 Co297 2.194 . S
N317 C312 1.328 . S
N317 C316 1.315 . S
H318 C312 0.929 . S
H319 C316 0.930 . S
H320 C308 0.929 . S
H321 C310 0.929 . S
O322 Co297 2.351 . S
O322 C325 1.244 . S
O323 Co297 2.155 . S
O323 C325 1.240 . S
O324 Co297 2.096 . S
O324 C305 1.247 . S
C325 O322 1.244 . S
C325 O323 1.240 . S
H326 C300 0.931 . S
H327 C309 0.931 . S
H328 C313 0.929 . S
H329 C315 0.930 . S
Co330 N334 2.148 . S
Co330 N340 2.128 . S
Co330 N350 2.194 . S
Co330 O355 2.351 . S
Co330 O356 2.155 . S
Co330 O357 2.096 . S
C331 N334 1.301 . S
C331 N335 1.328 . S
C331 H336 0.930 . S
C332 C333 1.333 . S
C332 N334 1.317 . S
C332 H337 0.930 . S
C333 C332 1.333 . S
C333 N335 1.350 . S
C333 H359 0.931 . S
N334 Co330 2.148 . S
N334 C331 1.301 . S
N334 C332 1.317 . S
N335 C331 1.328 . S
N335 C333 1.350 . S
H336 C331 0.930 . S
H337 C332 0.930 . S
C338 O339 1.224 . S
C338 O357 1.247 . S
O339 C338 1.224 . S
N340 Co330 2.128 . S
N340 C341 1.355 . S
N340 C343 1.311 . S
C341 N340 1.355 . S
C341 C342 1.352 1_565 S
C341 H353 0.929 . S
C342 C341 1.352 1_545 S
C342 N344 1.370 1_545 S
C342 H360 0.944 . S
C343 N340 1.311 . S
C343 N344 1.347 . S
C343 H354 0.929 . S
N344 C342 1.370 1_565 S
N344 C343 1.347 . S
C345 C348 1.365 . S
C345 N350 1.328 . S
C345 H351 0.929 . S
C346 C347 1.362 . S
C346 C349 1.378 . S
C346 H361 0.929 . S
C347 C346 1.362 . S
C347 C348 1.366 . S
C348 C345 1.365 . S
C348 C347 1.366 . S
C348 H362 0.930 . S
C349 C346 1.378 . S
C349 N350 1.315 . S
C349 H352 0.930 . S
N350 Co330 2.194 . S
N350 C345 1.328 . S
N350 C349 1.315 . S
H351 C345 0.929 . S
H352 C349 0.930 . S
H353 C341 0.929 . S
H354 C343 0.929 . S
O355 Co330 2.351 . S
O355 C358 1.244 . S
O356 Co330 2.155 . S
O356 C358 1.240 . S
O357 Co330 2.096 . S
O357 C338 1.247 . S
C358 O355 1.244 . S
C358 O356 1.240 . S
H359 C333 0.931 . S
H360 C342 0.944 . S
H361 C346 0.929 . S
H362 C348 0.930 . S
Co363 N367 2.148 . S
Co363 N373 2.128 . S
Co363 N383 2.194 . S
Co363 O388 2.351 . S
Co363 O389 2.155 . S
Co363 O390 2.096 . S
C364 N367 1.301 . S
C364 N368 1.328 . S
C364 H369 0.930 . S
C365 C366 1.333 . S
C365 N367 1.317 . S
C365 H370 0.930 . S
C366 C365 1.333 . S
C366 N368 1.350 . S
C366 H392 0.931 . S
N367 Co363 2.148 . S
N367 C364 1.301 . S
N367 C365 1.317 . S
N368 C364 1.328 . S
N368 C366 1.350 . S
H369 C364 0.930 . S
H370 C365 0.930 . S
C371 O372 1.224 . S
C371 O390 1.247 . S
O372 C371 1.224 . S
N373 Co363 2.128 . S
N373 C374 1.355 . S
N373 C376 1.311 . S
C374 N373 1.355 . S
C374 C375 1.363 . S
C374 H386 0.929 . S
C375 C374 1.363 . S
C375 N377 1.375 . S
C375 H393 0.931 . S
C376 N373 1.311 . S
C376 N377 1.347 . S
C376 H387 0.929 . S
N377 C375 1.375 . S
N377 C376 1.347 . S
C378 C381 1.365 . S
C378 N383 1.328 . S
C378 H384 0.929 . S
C379 C380 1.362 . S
C379 C382 1.378 . S
C379 H394 0.929 . S
C380 C379 1.362 . S
C380 C381 1.366 . S
C381 C378 1.365 . S
C381 C380 1.366 . S
C381 H395 0.930 . S
C382 C379 1.378 . S
C382 N383 1.315 . S
C382 H385 0.930 . S
N383 Co363 2.194 . S
N383 C378 1.328 . S
N383 C382 1.315 . S
H384 C378 0.929 . S
H385 C382 0.930 . S
H386 C374 0.929 . S
H387 C376 0.929 . S
O388 Co363 2.351 . S
O388 C391 1.244 . S
O389 Co363 2.155 . S
O389 C391 1.240 . S
O390 Co363 2.096 . S
O390 C371 1.247 . S
C391 O388 1.244 . S
C391 O389 1.240 . S
H392 C366 0.931 . S
H393 C375 0.931 . S
H394 C379 0.929 . S
H395 C381 0.930 . S
Co396 N400 2.148 . S
Co396 N406 2.128 . S
Co396 N416 2.194 . S
Co396 O421 2.351 . S
Co396 O422 2.155 . S
Co396 O423 2.096 . S
C397 N400 1.301 . S
C397 N401 1.328 . S
C397 H402 0.930 . S
C398 C399 1.333 . S
C398 N400 1.317 . S
C398 H403 0.930 . S
C399 C398 1.333 . S
C399 N401 1.350 . S
C399 H425 0.931 . S
N400 Co396 2.148 . S
N400 C397 1.301 . S
N400 C398 1.317 . S
N401 C397 1.328 . S
N401 C399 1.350 . S
H402 C397 0.930 . S
H403 C398 0.930 . S
C404 O405 1.224 . S
C404 O423 1.247 . S
O405 C404 1.224 . S
N406 Co396 2.128 . S
N406 C407 1.355 . S
N406 C409 1.311 . S
C407 N406 1.355 . S
C407 C408 1.352 1_565 S
C407 H419 0.929 . S
C408 C407 1.352 1_545 S
C408 N410 1.370 1_545 S
C408 H426 0.944 . S
C409 N406 1.311 . S
C409 N410 1.347 . S
C409 H420 0.929 . S
N410 C408 1.370 1_565 S
N410 C409 1.347 . S
C411 C414 1.365 . S
C411 N416 1.328 . S
C411 H417 0.929 . S
C412 C413 1.362 . S
C412 C415 1.378 . S
C412 H427 0.929 . S
C413 C412 1.362 . S
C413 C414 1.366 . S
C414 C411 1.365 . S
C414 C413 1.366 . S
C414 H428 0.930 . S
C415 C412 1.378 . S
C415 N416 1.315 . S
C415 H418 0.930 . S
N416 Co396 2.194 . S
N416 C411 1.328 . S
N416 C415 1.315 . S
H417 C411 0.929 . S
H418 C415 0.930 . S
H419 C407 0.929 . S
H420 C409 0.929 . S
O421 Co396 2.351 . S
O421 C424 1.244 . S
O422 Co396 2.155 . S
O422 C424 1.240 . S
O423 Co396 2.096 . S
O423 C404 1.247 . S
C424 O421 1.244 . S
C424 O422 1.240 . S
H425 C399 0.931 . S
H426 C408 0.944 . S
H427 C412 0.929 . S
H428 C414 0.930 . S
Co429 N433 2.148 . S
Co429 N439 2.128 . S
Co429 N449 2.194 . S
Co429 O454 2.351 . S
Co429 O455 2.155 . S
Co429 O456 2.096 . S
C430 N433 1.301 . S
C430 N434 1.328 . S
C430 H435 0.930 . S
C431 C432 1.333 . S
C431 N433 1.317 . S
C431 H436 0.930 . S
C432 C431 1.333 . S
C432 N434 1.350 . S
C432 H458 0.931 . S
N433 Co429 2.148 . S
N433 C430 1.301 . S
N433 C431 1.317 . S
N434 C430 1.328 . S
N434 C432 1.350 . S
H435 C430 0.930 . S
H436 C431 0.930 . S
C437 O438 1.224 . S
C437 O456 1.247 . S
O438 C437 1.224 . S
N439 Co429 2.128 . S
N439 C440 1.355 . S
N439 C442 1.311 . S
C440 N439 1.355 . S
C440 C441 1.363 . S
C440 H452 0.929 . S
C441 C440 1.363 . S
C441 N443 1.375 . S
C441 H459 0.931 . S
C442 N439 1.311 . S
C442 N443 1.347 . S
C442 H453 0.929 . S
N443 C441 1.375 . S
N443 C442 1.347 . S
C444 C447 1.365 . S
C444 N449 1.328 . S
C444 H450 0.929 . S
C445 C446 1.362 . S
C445 C448 1.378 . S
C445 H460 0.929 . S
C446 C445 1.362 . S
C446 C447 1.366 . S
C447 C444 1.365 . S
C447 C446 1.366 . S
C447 H461 0.930 . S
C448 C445 1.378 . S
C448 N449 1.315 . S
C448 H451 0.930 . S
N449 Co429 2.194 . S
N449 C444 1.328 . S
N449 C448 1.315 . S
H450 C444 0.929 . S
H451 C448 0.930 . S
H452 C440 0.929 . S
H453 C442 0.929 . S
O454 Co429 2.351 . S
O454 C457 1.244 . S
O455 Co429 2.155 . S
O455 C457 1.240 . S
O456 Co429 2.096 . S
O456 C437 1.247 . S
C457 O454 1.244 . S
C457 O455 1.240 . S
H458 C432 0.931 . S
H459 C441 0.931 . S
H460 C445 0.929 . S
H461 C447 0.930 . S
Co462 N466 2.148 . S
Co462 N472 2.128 . S
Co462 N482 2.194 . S
Co462 O487 2.351 . S
Co462 O488 2.155 . S
Co462 O489 2.096 . S
C463 N466 1.301 . S
C463 N467 1.328 . S
C463 H468 0.930 . S
C464 C465 1.333 . S
C464 N466 1.317 . S
C464 H469 0.930 . S
C465 C464 1.333 . S
C465 N467 1.350 . S
C465 H491 0.931 . S
N466 Co462 2.148 . S
N466 C463 1.301 . S
N466 C464 1.317 . S
N467 C463 1.328 . S
N467 C465 1.350 . S
H468 C463 0.930 . S
H469 C464 0.930 . S
C470 O471 1.224 . S
C470 O489 1.247 . S
O471 C470 1.224 . S
N472 Co462 2.128 . S
N472 C473 1.355 . S
N472 C475 1.311 . S
C473 N472 1.355 . S
C473 C474 1.352 1_545 S
C473 H485 0.929 . S
C474 C473 1.352 1_565 S
C474 N476 1.370 1_565 S
C474 H492 0.944 . S
C475 N472 1.311 . S
C475 N476 1.347 . S
C475 H486 0.929 . S
N476 C474 1.370 1_545 S
N476 C475 1.347 . S
C477 C480 1.365 . S
C477 N482 1.328 . S
C477 H483 0.929 . S
C478 C479 1.362 . S
C478 C481 1.378 . S
C478 H493 0.929 . S
C479 C478 1.362 . S
C479 C480 1.366 . S
C480 C477 1.365 . S
C480 C479 1.366 . S
C480 H494 0.930 . S
C481 C478 1.378 . S
C481 N482 1.315 . S
C481 H484 0.930 . S
N482 Co462 2.194 . S
N482 C477 1.328 . S
N482 C481 1.315 . S
H483 C477 0.929 . S
H484 C481 0.930 . S
H485 C473 0.929 . S
H486 C475 0.929 . S
O487 Co462 2.351 . S
O487 C490 1.244 . S
O488 Co462 2.155 . S
O488 C490 1.240 . S
O489 Co462 2.096 . S
O489 C470 1.247 . S
C490 O487 1.244 . S
C490 O488 1.240 . S
H491 C465 0.931 . S
H492 C474 0.944 . S
H493 C478 0.929 . S
H494 C480 0.930 . S
Co495 N499 2.148 . S
Co495 N505 2.128 . S
Co495 N515 2.194 . S
Co495 O520 2.351 . S
Co495 O521 2.155 . S
Co495 O522 2.096 . S
C496 N499 1.301 . S
C496 N500 1.328 . S
C496 H501 0.930 . S
C497 C498 1.333 . S
C497 N499 1.317 . S
C497 H502 0.930 . S
C498 C497 1.333 . S
C498 N500 1.350 . S
C498 H524 0.931 . S
N499 Co495 2.148 . S
N499 C496 1.301 . S
N499 C497 1.317 . S
N500 C496 1.328 . S
N500 C498 1.350 . S
H501 C496 0.930 . S
H502 C497 0.930 . S
C503 O504 1.224 . S
C503 O522 1.247 . S
O504 C503 1.224 . S
N505 Co495 2.128 . S
N505 C506 1.355 . S
N505 C508 1.311 . S
C506 N505 1.355 . S
C506 C507 1.363 . S
C506 H518 0.929 . S
C507 C506 1.363 . S
C507 N509 1.375 . S
C507 H525 0.931 . S
C508 N505 1.311 . S
C508 N509 1.347 . S
C508 H519 0.929 . S
N509 C507 1.375 . S
N509 C508 1.347 . S
C510 C513 1.365 . S
C510 N515 1.328 . S
C510 H516 0.929 . S
C511 C512 1.362 . S
C511 C514 1.378 . S
C511 H526 0.929 . S
C512 C511 1.362 . S
C512 C513 1.366 . S
C513 C510 1.365 . S
C513 C512 1.366 . S
C513 H527 0.930 . S
C514 C511 1.378 . S
C514 N515 1.315 . S
C514 H517 0.930 . S
N515 Co495 2.194 . S
N515 C510 1.328 . S
N515 C514 1.315 . S
H516 C510 0.929 . S
H517 C514 0.930 . S
H518 C506 0.929 . S
H519 C508 0.929 . S
O520 Co495 2.351 . S
O520 C523 1.244 . S
O521 Co495 2.155 . S
O521 C523 1.240 . S
O522 Co495 2.096 . S
O522 C503 1.247 . S
C523 O520 1.244 . S
C523 O521 1.240 . S
H524 C498 0.931 . S
H525 C507 0.931 . S
H526 C511 0.929 . S
H527 C513 0.930 . S
Co528 N532 2.148 . S
Co528 N538 2.128 . S
Co528 N548 2.194 . S
Co528 O553 2.351 . S
Co528 O554 2.155 . S
Co528 O555 2.096 . S
C529 N532 1.301 . S
C529 N533 1.328 . S
C529 H534 0.930 . S
C530 C531 1.333 . S
C530 N532 1.317 . S
C530 H535 0.930 . S
C531 C530 1.333 . S
C531 N533 1.350 . S
C531 H557 0.931 . S
N532 Co528 2.148 . S
N532 C529 1.301 . S
N532 C530 1.317 . S
N533 C529 1.328 . S
N533 C531 1.350 . S
H534 C529 0.930 . S
H535 C530 0.930 . S
C536 O537 1.224 . S
C536 O555 1.247 . S
O537 C536 1.224 . S
N538 Co528 2.128 . S
N538 C539 1.355 . S
N538 C541 1.311 . S
C539 N538 1.355 . S
C539 C540 1.352 1_554 S
C539 H551 0.929 . S
C540 C539 1.352 1_556 S
C540 N542 1.370 1_556 S
C540 H558 0.944 . S
C541 N538 1.311 . S
C541 N542 1.347 . S
C541 H552 0.929 . S
N542 C540 1.370 1_554 S
N542 C541 1.347 . S
C543 C546 1.365 . S
C543 N548 1.328 . S
C543 H549 0.929 . S
C544 C545 1.362 . S
C544 C547 1.378 . S
C544 H559 0.929 . S
C545 C544 1.362 . S
C545 C546 1.366 . S
C546 C543 1.365 . S
C546 C545 1.366 . S
C546 H560 0.930 . S
C547 C544 1.378 . S
C547 N548 1.315 . S
C547 H550 0.930 . S
N548 Co528 2.194 . S
N548 C543 1.328 . S
N548 C547 1.315 . S
H549 C543 0.929 . S
H550 C547 0.930 . S
H551 C539 0.929 . S
H552 C541 0.929 . S
O553 Co528 2.351 . S
O553 C556 1.244 . S
O554 Co528 2.155 . S
O554 C556 1.240 . S
O555 Co528 2.096 . S
O555 C536 1.247 . S
C556 O553 1.244 . S
C556 O554 1.240 . S
H557 C531 0.931 . S
H558 C540 0.944 . S
H559 C544 0.929 . S
H560 C546 0.930 . S
Co561 N565 2.148 . S
Co561 N571 2.128 . S
Co561 N581 2.194 . S
Co561 O586 2.351 . S
Co561 O587 2.155 . S
Co561 O588 2.096 . S
C562 N565 1.301 . S
C562 N566 1.328 . S
C562 H567 0.930 . S
C563 C564 1.333 . S
C563 N565 1.317 . S
C563 H568 0.930 . S
C564 C563 1.333 . S
C564 N566 1.350 . S
C564 H590 0.931 . S
N565 Co561 2.148 . S
N565 C562 1.301 . S
N565 C563 1.317 . S
N566 C562 1.328 . S
N566 C564 1.350 . S
H567 C562 0.930 . S
H568 C563 0.930 . S
C569 O570 1.224 . S
C569 O588 1.247 . S
O570 C569 1.224 . S
N571 Co561 2.128 . S
N571 C572 1.355 . S
N571 C574 1.311 . S
C572 N571 1.355 . S
C572 C573 1.352 1_556 S
C572 H584 0.929 . S
C573 C572 1.352 1_554 S
C573 N575 1.370 1_554 S
C573 H591 0.944 . S
C574 N571 1.311 . S
C574 N575 1.347 . S
C574 H585 0.929 . S
N575 C573 1.370 1_556 S
N575 C574 1.347 . S
C576 C579 1.365 . S
C576 N581 1.328 . S
C576 H582 0.929 . S
C577 C578 1.362 . S
C577 C580 1.378 . S
C577 H592 0.929 . S
C578 C577 1.362 . S
C578 C579 1.366 . S
C579 C576 1.365 . S
C579 C578 1.366 . S
C579 H593 0.930 . S
C580 C577 1.378 . S
C580 N581 1.315 . S
C580 H583 0.930 . S
N581 Co561 2.194 . S
N581 C576 1.328 . S
N581 C580 1.315 . S
H582 C576 0.929 . S
H583 C580 0.930 . S
H584 C572 0.929 . S
H585 C574 0.929 . S
O586 Co561 2.351 . S
O586 C589 1.244 . S
O587 Co561 2.155 . S
O587 C589 1.240 . S
O588 Co561 2.096 . S
O588 C569 1.247 . S
C589 O586 1.244 . S
C589 O587 1.240 . S
H590 C564 0.931 . S
H591 C573 0.944 . S
H592 C577 0.929 . S
H593 C579 0.930 . S
Co594 N598 2.148 . S
Co594 N604 2.128 . S
Co594 N614 2.194 . S
Co594 O619 2.351 . S
Co594 O620 2.155 . S
Co594 O621 2.096 . S
C595 N598 1.301 . S
C595 N599 1.328 . S
C595 H600 0.930 . S
C596 C597 1.333 . S
C596 N598 1.317 . S
C596 H601 0.930 . S
C597 C596 1.333 . S
C597 N599 1.350 . S
C597 H623 0.931 . S
N598 Co594 2.148 . S
N598 C595 1.301 . S
N598 C596 1.317 . S
N599 C595 1.328 . S
N599 C597 1.350 . S
H600 C595 0.930 . S
H601 C596 0.930 . S
C602 O603 1.224 . S
C602 O621 1.247 . S
O603 C602 1.224 . S
N604 Co594 2.128 . S
N604 C605 1.355 . S
N604 C607 1.311 . S
C605 N604 1.355 . S
C605 C606 1.363 . S
C605 H617 0.929 . S
C606 C605 1.363 . S
C606 N608 1.375 . S
C606 H624 0.931 . S
C607 N604 1.311 . S
C607 N608 1.347 . S
C607 H618 0.929 . S
N608 C606 1.375 . S
N608 C607 1.347 . S
C609 C612 1.365 . S
C609 N614 1.328 . S
C609 H615 0.929 . S
C610 C611 1.362 . S
C610 C613 1.378 . S
C610 H625 0.929 . S
C611 C610 1.362 . S
C611 C612 1.366 . S
C612 C609 1.365 . S
C612 C611 1.366 . S
C612 H626 0.930 . S
C613 C610 1.378 . S
C613 N614 1.315 . S
C613 H616 0.930 . S
N614 Co594 2.194 . S
N614 C609 1.328 . S
N614 C613 1.315 . S
H615 C609 0.929 . S
H616 C613 0.930 . S
H617 C605 0.929 . S
H618 C607 0.929 . S
O619 Co594 2.351 . S
O619 C622 1.244 . S
O620 Co594 2.155 . S
O620 C622 1.240 . S
O621 Co594 2.096 . S
O621 C602 1.247 . S
C622 O619 1.244 . S
C622 O620 1.240 . S
H623 C597 0.931 . S
H624 C606 0.931 . S
H625 C610 0.929 . S
H626 C612 0.930 . S
Co627 N631 2.148 . S
Co627 N637 2.128 . S
Co627 N647 2.194 . S
Co627 O652 2.351 . S
Co627 O653 2.155 . S
Co627 O654 2.096 . S
C628 N631 1.301 . S
C628 N632 1.328 . S
C628 H633 0.930 . S
C629 C630 1.333 . S
C629 N631 1.317 . S
C629 H634 0.930 . S
C630 C629 1.333 . S
C630 N632 1.350 . S
C630 H656 0.931 . S
N631 Co627 2.148 . S
N631 C628 1.301 . S
N631 C629 1.317 . S
N632 C628 1.328 . S
N632 C630 1.350 . S
H633 C628 0.930 . S
H634 C629 0.930 . S
C635 O636 1.224 . S
C635 O654 1.247 . S
O636 C635 1.224 . S
N637 Co627 2.128 . S
N637 C638 1.355 . S
N637 C640 1.311 . S
C638 N637 1.355 . S
C638 C639 1.352 1_556 S
C638 H650 0.929 . S
C639 C638 1.352 1_554 S
C639 N641 1.370 1_554 S
C639 H657 0.944 . S
C640 N637 1.311 . S
C640 N641 1.347 . S
C640 H651 0.929 . S
N641 C639 1.370 1_556 S
N641 C640 1.347 . S
C642 C645 1.365 . S
C642 N647 1.328 . S
C642 H648 0.929 . S
C643 C644 1.362 . S
C643 C646 1.378 . S
C643 H658 0.929 . S
C644 C643 1.362 . S
C644 C645 1.366 . S
C645 C642 1.365 . S
C645 C644 1.366 . S
C645 H659 0.930 . S
C646 C643 1.378 . S
C646 N647 1.315 . S
C646 H649 0.930 . S
N647 Co627 2.194 . S
N647 C642 1.328 . S
N647 C646 1.315 . S
H648 C642 0.929 . S
H649 C646 0.930 . S
H650 C638 0.929 . S
H651 C640 0.929 . S
O652 Co627 2.351 . S
O652 C655 1.244 . S
O653 Co627 2.155 . S
O653 C655 1.240 . S
O654 Co627 2.096 . S
O654 C635 1.247 . S
C655 O652 1.244 . S
C655 O653 1.240 . S
H656 C630 0.931 . S
H657 C639 0.944 . S
H658 C643 0.929 . S
H659 C645 0.930 . S
Co660 N664 2.148 . S
Co660 N670 2.128 . S
Co660 N680 2.194 . S
Co660 O685 2.351 . S
Co660 O686 2.155 . S
Co660 O687 2.096 . S
C661 N664 1.301 . S
C661 N665 1.328 . S
C661 H666 0.930 . S
C662 C663 1.333 . S
C662 N664 1.317 . S
C662 H667 0.930 . S
C663 C662 1.333 . S
C663 N665 1.350 . S
C663 H689 0.931 . S
N664 Co660 2.148 . S
N664 C661 1.301 . S
N664 C662 1.317 . S
N665 C661 1.328 . S
N665 C663 1.350 . S
H666 C661 0.930 . S
H667 C662 0.930 . S
C668 O669 1.224 . S
C668 O687 1.247 . S
O669 C668 1.224 . S
N670 Co660 2.128 . S
N670 C671 1.355 . S
N670 C673 1.311 . S
C671 N670 1.355 . S
C671 C672 1.363 . S
C671 H683 0.929 . S
C672 C671 1.363 . S
C672 N674 1.375 . S
C672 H690 0.931 . S
C673 N670 1.311 . S
C673 N674 1.347 . S
C673 H684 0.929 . S
N674 C672 1.375 . S
N674 C673 1.347 . S
C675 C678 1.365 . S
C675 N680 1.328 . S
C675 H681 0.929 . S
C676 C677 1.362 . S
C676 C679 1.378 . S
C676 H691 0.929 . S
C677 C676 1.362 . S
C677 C678 1.366 . S
C678 C675 1.365 . S
C678 C677 1.366 . S
C678 H692 0.930 . S
C679 C676 1.378 . S
C679 N680 1.315 . S
C679 H682 0.930 . S
N680 Co660 2.194 . S
N680 C675 1.328 . S
N680 C679 1.315 . S
H681 C675 0.929 . S
H682 C679 0.930 . S
H683 C671 0.929 . S
H684 C673 0.929 . S
O685 Co660 2.351 . S
O685 C688 1.244 . S
O686 Co660 2.155 . S
O686 C688 1.240 . S
O687 Co660 2.096 . S
O687 C668 1.247 . S
C688 O685 1.244 . S
C688 O686 1.240 . S
H689 C663 0.931 . S
H690 C672 0.931 . S
H691 C676 0.929 . S
H692 C678 0.930 . S
Co693 N697 2.148 . S
Co693 N703 2.128 . S
Co693 N713 2.194 . S
Co693 O718 2.351 . S
Co693 O719 2.155 . S
Co693 O720 2.096 . S
C694 N697 1.301 . S
C694 N698 1.328 . S
C694 H699 0.930 . S
C695 C696 1.333 . S
C695 N697 1.317 . S
C695 H700 0.930 . S
C696 C695 1.333 . S
C696 N698 1.350 . S
C696 H722 0.931 . S
N697 Co693 2.148 . S
N697 C694 1.301 . S
N697 C695 1.317 . S
N698 C694 1.328 . S
N698 C696 1.350 . S
H699 C694 0.930 . S
H700 C695 0.930 . S
C701 O702 1.224 . S
C701 O720 1.247 . S
O702 C701 1.224 . S
N703 Co693 2.128 . S
N703 C704 1.355 . S
N703 C706 1.311 . S
C704 N703 1.355 . S
C704 C705 1.352 1_554 S
C704 H716 0.929 . S
C705 C704 1.352 1_556 S
C705 N707 1.370 1_556 S
C705 H723 0.944 . S
C706 N703 1.311 . S
C706 N707 1.347 . S
C706 H717 0.929 . S
N707 C705 1.370 1_554 S
N707 C706 1.347 . S
C708 C711 1.365 . S
C708 N713 1.328 . S
C708 H714 0.929 . S
C709 C710 1.362 . S
C709 C712 1.378 . S
C709 H724 0.929 . S
C710 C709 1.362 . S
C710 C711 1.366 . S
C711 C708 1.365 . S
C711 C710 1.366 . S
C711 H725 0.930 . S
C712 C709 1.378 . S
C712 N713 1.315 . S
C712 H715 0.930 . S
N713 Co693 2.194 . S
N713 C708 1.328 . S
N713 C712 1.315 . S
H714 C708 0.929 . S
H715 C712 0.930 . S
H716 C704 0.929 . S
H717 C706 0.929 . S
O718 Co693 2.351 . S
O718 C721 1.244 . S
O719 Co693 2.155 . S
O719 C721 1.240 . S
O720 Co693 2.096 . S
O720 C701 1.247 . S
C721 O718 1.244 . S
C721 O719 1.240 . S
H722 C696 0.931 . S
H723 C705 0.944 . S
H724 C709 0.929 . S
H725 C711 0.930 . S
Co726 N730 2.148 . S
Co726 N736 2.128 . S
Co726 N746 2.194 . S
Co726 O751 2.351 . S
Co726 O752 2.155 . S
Co726 O753 2.096 . S
C727 N730 1.301 . S
C727 N731 1.328 . S
C727 H732 0.930 . S
C728 C729 1.333 . S
C728 N730 1.317 . S
C728 H733 0.930 . S
C729 C728 1.333 . S
C729 N731 1.350 . S
C729 H755 0.931 . S
N730 Co726 2.148 . S
N730 C727 1.301 . S
N730 C728 1.317 . S
N731 C727 1.328 . S
N731 C729 1.350 . S
H732 C727 0.930 . S
H733 C728 0.930 . S
C734 O735 1.224 . S
C734 O753 1.247 . S
O735 C734 1.224 . S
N736 Co726 2.128 . S
N736 C737 1.355 . S
N736 C739 1.311 . S
C737 N736 1.355 . S
C737 C738 1.363 . S
C737 H749 0.929 . S
C738 C737 1.363 . S
C738 N740 1.375 . S
C738 H756 0.931 . S
C739 N736 1.311 . S
C739 N740 1.347 . S
C739 H750 0.929 . S
N740 C738 1.375 . S
N740 C739 1.347 . S
C741 C744 1.365 . S
C741 N746 1.328 . S
C741 H747 0.929 . S
C742 C743 1.362 . S
C742 C745 1.378 . S
C742 H757 0.929 . S
C743 C742 1.362 . S
C743 C744 1.366 . S
C744 C741 1.365 . S
C744 C743 1.366 . S
C744 H758 0.930 . S
C745 C742 1.378 . S
C745 N746 1.315 . S
C745 H748 0.930 . S
N746 Co726 2.194 . S
N746 C741 1.328 . S
N746 C745 1.315 . S
H747 C741 0.929 . S
H748 C745 0.930 . S
H749 C737 0.929 . S
H750 C739 0.929 . S
O751 Co726 2.351 . S
O751 C754 1.244 . S
O752 Co726 2.155 . S
O752 C754 1.240 . S
O753 Co726 2.096 . S
O753 C734 1.247 . S
C754 O751 1.244 . S
C754 O752 1.240 . S
H755 C729 0.931 . S
H756 C738 0.931 . S
H757 C742 0.929 . S
H758 C744 0.930 . S
Co759 N763 2.148 . S
Co759 N769 2.128 . S
Co759 N779 2.194 . S
Co759 O784 2.351 . S
Co759 O785 2.155 . S
Co759 O786 2.096 . S
C760 N763 1.301 . S
C760 N764 1.328 . S
C760 H765 0.930 . S
C761 C762 1.333 . S
C761 N763 1.317 . S
C761 H766 0.930 . S
C762 C761 1.333 . S
C762 N764 1.350 . S
C762 H788 0.931 . S
N763 Co759 2.148 . S
N763 C760 1.301 . S
N763 C761 1.317 . S
N764 C760 1.328 . S
N764 C762 1.350 . S
H765 C760 0.930 . S
H766 C761 0.930 . S
C767 O768 1.224 . S
C767 O786 1.247 . S
O768 C767 1.224 . S
N769 Co759 2.128 . S
N769 C770 1.355 . S
N769 C772 1.311 . S
C770 N769 1.355 . S
C770 C771 1.363 . S
C770 H782 0.929 . S
C771 C770 1.363 . S
C771 N773 1.375 . S
C771 H789 0.931 . S
C772 N769 1.311 . S
C772 N773 1.347 . S
C772 H783 0.929 . S
N773 C771 1.375 . S
N773 C772 1.347 . S
C774 C777 1.365 . S
C774 N779 1.328 . S
C774 H780 0.929 . S
C775 C776 1.362 . S
C775 C778 1.378 . S
C775 H790 0.929 . S
C776 C775 1.362 . S
C776 C777 1.366 . S
C777 C774 1.365 . S
C777 C776 1.366 . S
C777 H791 0.930 . S
C778 C775 1.378 . S
C778 N779 1.315 . S
C778 H781 0.930 . S
N779 Co759 2.194 . S
N779 C774 1.328 . S
N779 C778 1.315 . S
H780 C774 0.929 . S
H781 C778 0.930 . S
H782 C770 0.929 . S
H783 C772 0.929 . S
O784 Co759 2.351 . S
O784 C787 1.244 . S
O785 Co759 2.155 . S
O785 C787 1.240 . S
O786 Co759 2.096 . S
O786 C767 1.247 . S
C787 O784 1.244 . S
C787 O785 1.240 . S
H788 C762 0.931 . S
H789 C771 0.931 . S
H790 C775 0.929 . S
H791 C777 0.930 . S
H792 C800 0.950 . S
H793 C805 0.950 . S
H794 C802 0.950 . S
H795 C804 0.950 . S
H796 C806 0.950 . S
H797 C808 0.950 . S
H798 C810 0.950 . S
H799 C811 0.950 . S
C800 H792 0.950 . S
C800 C801 1.386 . S
C800 C802 1.391 . S
C801 C800 1.386 . S
C801 C805 1.393 . S
C802 H794 0.950 . S
C802 C800 1.391 . S
C802 C803 1.400 . S
C803 C802 1.400 . S
C803 C804 1.398 . S
C803 C809 1.491 . S
C804 H795 0.950 . S
C804 C803 1.398 . S
C804 C805 1.391 . S
C805 H793 0.950 . S
C805 C801 1.393 . S
C805 C804 1.391 . S
C806 H796 0.950 . S
C806 C807 1.386 . S
C806 C808 1.391 . S
C807 C806 1.386 . S
C807 C811 1.393 . S
C808 H797 0.950 . S
C808 C806 1.391 . S
C808 C809 1.400 . S
C809 C803 1.491 . S
C809 C808 1.400 . S
C809 C810 1.398 . S
C810 H798 0.950 . S
C810 C809 1.398 . S
C810 C811 1.391 . S
C811 H799 0.950 . S
C811 C807 1.393 . S
C811 C810 1.391 . S
H812 C820 0.950 1_455 S
H813 C825 0.950 . S
H814 C822 0.950 . S
H815 C824 0.950 . S
H816 C826 0.950 . S
H817 C828 0.950 . S
H818 C830 0.950 . S
H819 C831 0.950 . S
C820 H812 0.950 1_655 S
C820 C821 1.386 . S
C820 C822 1.391 . S
C821 C820 1.386 . S
C821 C825 1.393 . S
C822 H814 0.950 . S
C822 C820 1.391 . S
C822 C823 1.400 . S
C823 C822 1.400 . S
C823 C824 1.398 . S
C823 C829 1.491 . S
C824 H815 0.950 . S
C824 C823 1.398 . S
C824 C825 1.391 . S
C825 H813 0.950 . S
C825 C821 1.393 . S
C825 C824 1.391 . S
C826 H816 0.950 . S
C826 C827 1.386 . S
C826 C828 1.391 . S
C827 C826 1.386 . S
C827 C831 1.393 . S
C828 H817 0.950 . S
C828 C826 1.391 . S
C828 C829 1.400 . S
C829 C823 1.491 . S
C829 C828 1.400 . S
C829 C830 1.398 . S
C830 H818 0.950 . S
C830 C829 1.398 . S
C830 C831 1.391 . S
C831 H819 0.950 . S
C831 C827 1.393 . S
C831 C830 1.391 . S
H832 C840 0.950 . S
H833 C845 0.950 . S
H834 C842 0.950 . S
H835 C844 0.950 . S
H836 C846 0.950 . S
H837 C848 0.950 . S
H838 C850 0.950 . S
H839 C851 0.950 . S
C840 H832 0.950 . S
C840 C841 1.386 . S
C840 C842 1.391 . S
C841 C840 1.386 . S
C841 C845 1.393 . S
C842 H834 0.950 . S
C842 C840 1.391 . S
C842 C843 1.400 . S
C843 C842 1.400 . S
C843 C844 1.398 . S
C843 C849 1.491 . S
C844 H835 0.950 . S
C844 C843 1.398 . S
C844 C845 1.391 . S
C845 H833 0.950 . S
C845 C841 1.393 . S
C845 C844 1.391 . S
C846 H836 0.950 . S
C846 C847 1.386 . S
C846 C848 1.391 . S
C847 C846 1.386 . S
C847 C851 1.393 . S
C848 H837 0.950 . S
C848 C846 1.391 . S
C848 C849 1.400 . S
C849 C843 1.491 . S
C849 C848 1.400 . S
C849 C850 1.398 . S
C850 H838 0.950 . S
C850 C849 1.398 . S
C850 C851 1.391 . S
C851 H839 0.950 . S
C851 C847 1.393 . S
C851 C850 1.391 . S
H852 C860 0.950 . S
H853 C865 0.950 . S
H854 C862 0.950 . S
H855 C864 0.950 . S
H856 C866 0.950 . S
H857 C868 0.950 . S
H858 C870 0.950 . S
H859 C871 0.950 . S
C860 H852 0.950 . S
C860 C861 1.386 . S
C860 C862 1.391 . S
C861 C860 1.386 . S
C861 C865 1.393 . S
C862 H854 0.950 . S
C862 C860 1.391 . S
C862 C863 1.400 . S
C863 C862 1.400 . S
C863 C864 1.398 . S
C863 C869 1.491 . S
C864 H855 0.950 . S
C864 C863 1.398 . S
C864 C865 1.391 . S
C865 H853 0.950 . S
C865 C861 1.393 . S
C865 C864 1.391 . S
C866 H856 0.950 . S
C866 C867 1.386 . S
C866 C868 1.391 . S
C867 C866 1.386 . S
C867 C871 1.393 . S
C868 H857 0.950 . S
C868 C866 1.391 . S
C868 C869 1.400 . S
C869 C863 1.491 . S
C869 C868 1.400 . S
C869 C870 1.398 . S
C870 H858 0.950 . S
C870 C869 1.398 . S
C870 C871 1.391 . S
C871 H859 0.950 . S
C871 C867 1.393 . S
C871 C870 1.391 . S
H872 C880 0.950 . S
H873 C885 0.950 . S
H874 C882 0.950 . S
H875 C884 0.950 . S
H876 C886 0.950 . S
H877 C888 0.950 . S
H878 C890 0.950 . S
H879 C891 0.950 . S
C880 H872 0.950 . S
C880 C881 1.386 . S
C880 C882 1.391 . S
C881 C880 1.386 . S
C881 C885 1.393 . S
C882 H874 0.950 . S
C882 C880 1.391 . S
C882 C883 1.400 . S
C883 C882 1.400 . S
C883 C884 1.398 . S
C883 C889 1.491 . S
C884 H875 0.950 . S
C884 C883 1.398 . S
C884 C885 1.391 . S
C885 H873 0.950 . S
C885 C881 1.393 . S
C885 C884 1.391 . S
C886 H876 0.950 . S
C886 C887 1.386 . S
C886 C888 1.391 . S
C887 C886 1.386 . S
C887 C891 1.393 . S
C888 H877 0.950 . S
C888 C886 1.391 . S
C888 C889 1.400 . S
C889 C883 1.491 . S
C889 C888 1.400 . S
C889 C890 1.398 . S
C890 H878 0.950 . S
C890 C889 1.398 . S
C890 C891 1.391 . S
C891 H879 0.950 . S
C891 C887 1.393 . S
C891 C890 1.391 . S
H892 C900 0.950 . S
H893 C905 0.950 . S
H894 C902 0.950 . S
H895 C904 0.950 . S
H896 C906 0.950 . S
H897 C908 0.950 . S
H898 C910 0.950 . S
H899 C911 0.950 . S
C900 H892 0.950 . S
C900 C901 1.386 . S
C900 C902 1.391 . S
C901 C900 1.386 . S
C901 C905 1.393 . S
C902 H894 0.950 . S
C902 C900 1.391 . S
C902 C903 1.400 . S
C903 C902 1.400 . S
C903 C904 1.398 . S
C903 C909 1.491 . S
C904 H895 0.950 . S
C904 C903 1.398 . S
C904 C905 1.391 . S
C905 H893 0.950 . S
C905 C901 1.393 . S
C905 C904 1.391 . S
C906 H896 0.950 . S
C906 C907 1.386 . S
C906 C908 1.391 . S
C907 C906 1.386 . S
C907 C911 1.393 . S
C908 H897 0.950 . S
C908 C906 1.391 . S
C908 C909 1.400 . S
C909 C903 1.491 . S
C909 C908 1.400 . S
C909 C910 1.398 . S
C910 H898 0.950 . S
C910 C909 1.398 . S
C910 C911 1.391 . S
C911 H899 0.950 . S
C911 C907 1.393 . S
C911 C910 1.391 . S
H912 C920 0.950 . S
H913 C925 0.950 . S
H914 C922 0.950 . S
H915 C924 0.950 . S
H916 C926 0.950 . S
H917 C928 0.950 . S
H918 C930 0.950 . S
H919 C931 0.950 . S
C920 H912 0.950 . S
C920 C921 1.386 . S
C920 C922 1.391 . S
C921 C920 1.386 . S
C921 C925 1.393 . S
C922 H914 0.950 . S
C922 C920 1.391 . S
C922 C923 1.400 . S
C923 C922 1.400 . S
C923 C924 1.398 . S
C923 C929 1.491 . S
C924 H915 0.950 . S
C924 C923 1.398 . S
C924 C925 1.391 . S
C925 H913 0.950 . S
C925 C921 1.393 . S
C925 C924 1.391 . S
C926 H916 0.950 . S
C926 C927 1.386 . S
C926 C928 1.391 . S
C927 C926 1.386 . S
C927 C931 1.393 . S
C928 H917 0.950 . S
C928 C926 1.391 . S
C928 C929 1.400 . S
C929 C923 1.491 . S
C929 C928 1.400 . S
C929 C930 1.398 . S
C930 H918 0.950 . S
C930 C929 1.398 . S
C930 C931 1.391 . S
C931 H919 0.950 . S
C931 C927 1.393 . S
C931 C930 1.391 . S
H932 C940 0.950 . S
H933 C945 0.950 . S
H934 C942 0.950 . S
H935 C944 0.950 . S
H936 C946 0.950 . S
H937 C948 0.950 . S
H938 C950 0.950 . S
H939 C951 0.950 . S
C940 H932 0.950 . S
C940 C941 1.386 . S
C940 C942 1.391 . S
C941 C940 1.386 . S
C941 C945 1.393 . S
C942 H934 0.950 . S
C942 C940 1.391 . S
C942 C943 1.400 . S
C943 C942 1.400 . S
C943 C944 1.398 . S
C943 C949 1.491 . S
C944 H935 0.950 . S
C944 C943 1.398 . S
C944 C945 1.391 . S
C945 H933 0.950 . S
C945 C941 1.393 . S
C945 C944 1.391 . S
C946 H936 0.950 . S
C946 C947 1.386 . S
C946 C948 1.391 . S
C947 C946 1.386 . S
C947 C951 1.393 . S
C948 H937 0.950 . S
C948 C946 1.391 . S
C948 C949 1.400 . S
C949 C943 1.491 . S
C949 C948 1.400 . S
C949 C950 1.398 . S
C950 H938 0.950 . S
C950 C949 1.398 . S
C950 C951 1.391 . S
C951 H939 0.950 . S
C951 C947 1.393 . S
C951 C950 1.391 . S
H952 C960 0.950 . S
H953 C965 0.950 . S
H954 C962 0.950 . S
H955 C964 0.950 . S
H956 C966 0.950 . S
H957 C968 0.950 . S
H958 C970 0.950 . S
H959 C971 0.950 . S
C960 H952 0.950 . S
C960 C961 1.386 . S
C960 C962 1.391 . S
C961 C960 1.386 . S
C961 C965 1.393 . S
C962 H954 0.950 . S
C962 C960 1.391 . S
C962 C963 1.400 . S
C963 C962 1.400 . S
C963 C964 1.398 . S
C963 C969 1.491 . S
C964 H955 0.950 . S
C964 C963 1.398 . S
C964 C965 1.391 . S
C965 H953 0.950 . S
C965 C961 1.393 . S
C965 C964 1.391 . S
C966 H956 0.950 . S
C966 C967 1.386 . S
C966 C968 1.391 . S
C967 C966 1.386 . S
C967 C971 1.393 . S
C968 H957 0.950 . S
C968 C966 1.391 . S
C968 C969 1.400 . S
C969 C963 1.491 . S
C969 C968 1.400 . S
C969 C970 1.398 . S
C970 H958 0.950 . S
C970 C969 1.398 . S
C970 C971 1.391 . S
C971 H959 0.950 . S
C971 C967 1.393 . S
C971 C970 1.391 . S
H972 C980 0.950 . S
H973 C985 0.950 . S
H974 C982 0.950 . S
H975 C984 0.950 . S
H976 C986 0.950 1_556 S
H977 C988 0.950 . S
H978 C990 0.950 . S
H979 C991 0.950 . S
C980 H972 0.950 . S
C980 C981 1.386 . S
C980 C982 1.391 . S
C981 C980 1.386 . S
C981 C985 1.393 . S
C982 H974 0.950 . S
C982 C980 1.391 . S
C982 C983 1.400 . S
C983 C982 1.400 . S
C983 C984 1.398 . S
C983 C989 1.491 . S
C984 H975 0.950 . S
C984 C983 1.398 . S
C984 C985 1.391 . S
C985 H973 0.950 . S
C985 C981 1.393 . S
C985 C984 1.391 . S
C986 H976 0.950 1_554 S
C986 C987 1.386 . S
C986 C988 1.391 . S
C987 C986 1.386 . S
C987 C991 1.393 . S
C988 H977 0.950 . S
C988 C986 1.391 . S
C988 C989 1.400 . S
C989 C983 1.491 . S
C989 C988 1.400 . S
C989 C990 1.398 . S
C990 H978 0.950 . S
C990 C989 1.398 . S
C990 C991 1.391 . S
C991 H979 0.950 . S
C991 C987 1.393 . S
C991 C990 1.391 . S
H992 C1000 0.950 . S
H993 C1005 0.950 . S
H994 C1002 0.950 . S
H995 C1004 0.950 . S
H996 C1006 0.950 . S
H997 C1008 0.950 . S
H998 C1010 0.950 . S
H999 C1011 0.950 . S
C1000 H992 0.950 . S
C1000 C1001 1.386 . S
C1000 C1002 1.391 . S
C1001 C1000 1.386 . S
C1001 C1005 1.393 . S
C1002 H994 0.950 . S
C1002 C1000 1.391 . S
C1002 C1003 1.400 . S
C1003 C1002 1.400 . S
C1003 C1004 1.398 . S
C1003 C1009 1.491 . S
C1004 H995 0.950 . S
C1004 C1003 1.398 . S
C1004 C1005 1.391 . S
C1005 H993 0.950 . S
C1005 C1001 1.393 . S
C1005 C1004 1.391 . S
C1006 H996 0.950 . S
C1006 C1007 1.386 . S
C1006 C1008 1.391 . S
C1007 C1006 1.386 . S
C1007 C1011 1.393 . S
C1008 H997 0.950 . S
C1008 C1006 1.391 . S
C1008 C1009 1.400 . S
C1009 C1003 1.491 . S
C1009 C1008 1.400 . S
C1009 C1010 1.398 . S
C1010 H998 0.950 . S
C1010 C1009 1.398 . S
C1010 C1011 1.391 . S
C1011 H999 0.950 . S
C1011 C1007 1.393 . S
C1011 C1010 1.391 . S
H1012 C1020 0.950 . S
H1013 C1025 0.950 . S
H1014 C1022 0.950 . S
H1015 C1024 0.950 . S
H1016 C1026 0.950 . S
H1017 C1028 0.950 . S
H1018 C1030 0.950 . S
H1019 C1031 0.950 . S
C1020 H1012 0.950 . S
C1020 C1021 1.386 . S
C1020 C1022 1.391 . S
C1021 C1020 1.386 . S
C1021 C1025 1.393 . S
C1022 H1014 0.950 . S
C1022 C1020 1.391 . S
C1022 C1023 1.400 . S
C1023 C1022 1.400 . S
C1023 C1024 1.398 . S
C1023 C1029 1.491 . S
C1024 H1015 0.950 . S
C1024 C1023 1.398 . S
C1024 C1025 1.391 . S
C1025 H1013 0.950 . S
C1025 C1021 1.393 . S
C1025 C1024 1.391 . S
C1026 H1016 0.950 . S
C1026 C1027 1.386 . S
C1026 C1028 1.391 . S
C1027 C1026 1.386 . S
C1027 C1031 1.393 . S
C1028 H1017 0.950 . S
C1028 C1026 1.391 . S
C1028 C1029 1.400 . S
C1029 C1023 1.491 . S
C1029 C1028 1.400 . S
C1029 C1030 1.398 . S
C1030 H1018 0.950 . S
C1030 C1029 1.398 . S
C1030 C1031 1.391 . S
C1031 H1019 0.950 . S
C1031 C1027 1.393 . S
C1031 C1030 1.391 . S
H1032 C1040 0.950 . S
H1033 C1045 0.950 . S
H1034 C1042 0.950 . S
H1035 C1044 0.950 . S
H1036 C1046 0.950 . S
H1037 C1048 0.950 . S
H1038 C1050 0.950 . S
H1039 C1051 0.950 . S
C1040 H1032 0.950 . S
C1040 C1041 1.386 . S
C1040 C1042 1.391 . S
C1041 C1040 1.386 . S
C1041 C1045 1.393 . S
C1042 H1034 0.950 . S
C1042 C1040 1.391 . S
C1042 C1043 1.400 . S
C1043 C1042 1.400 . S
C1043 C1044 1.398 . S
C1043 C1049 1.491 . S
C1044 H1035 0.950 . S
C1044 C1043 1.398 . S
C1044 C1045 1.391 . S
C1045 H1033 0.950 . S
C1045 C1041 1.393 . S
C1045 C1044 1.391 . S
C1046 H1036 0.950 . S
C1046 C1047 1.386 . S
C1046 C1048 1.391 . S
C1047 C1046 1.386 . S
C1047 C1051 1.393 . S
C1048 H1037 0.950 . S
C1048 C1046 1.391 . S
C1048 C1049 1.400 . S
C1049 C1043 1.491 . S
C1049 C1048 1.400 . S
C1049 C1050 1.398 . S
C1050 H1038 0.950 . S
C1050 C1049 1.398 . S
C1050 C1051 1.391 . S
C1051 H1039 0.950 . S
C1051 C1047 1.393 . S
C1051 C1050 1.391 . S
H1052 C1060 0.950 . S
H1053 C1065 0.950 . S
H1054 C1062 0.950 . S
H1055 C1064 0.950 . S
H1056 C1066 0.950 . S
H1057 C1068 0.950 . S
H1058 C1070 0.950 . S
H1059 C1071 0.950 . S
C1060 H1052 0.950 . S
C1060 C1061 1.386 . S
C1060 C1062 1.391 . S
C1061 C1060 1.386 . S
C1061 C1065 1.393 . S
C1062 H1054 0.950 . S
C1062 C1060 1.391 . S
C1062 C1063 1.400 . S
C1063 C1062 1.400 . S
C1063 C1064 1.398 . S
C1063 C1069 1.491 . S
C1064 H1055 0.950 . S
C1064 C1063 1.398 . S
C1064 C1065 1.391 . S
C1065 H1053 0.950 . S
C1065 C1061 1.393 . S
C1065 C1064 1.391 . S
C1066 H1056 0.950 . S
C1066 C1067 1.386 . S
C1066 C1068 1.391 . S
C1067 C1066 1.386 . S
C1067 C1071 1.393 . S
C1068 H1057 0.950 . S
C1068 C1066 1.391 . S
C1068 C1069 1.400 . S
C1069 C1063 1.491 . S
C1069 C1068 1.400 . S
C1069 C1070 1.398 . S
C1070 H1058 0.950 . S
C1070 C1069 1.398 . S
C1070 C1071 1.391 . S
C1071 H1059 0.950 . S
C1071 C1067 1.393 . S
C1071 C1070 1.391 . S
H1072 C1080 0.950 . S
H1073 C1085 0.950 . S
H1074 C1082 0.950 . S
H1075 C1084 0.950 . S
H1076 C1086 0.950 . S
H1077 C1088 0.950 . S
H1078 C1090 0.950 . S
H1079 C1091 0.950 . S
C1080 H1072 0.950 . S
C1080 C1081 1.386 . S
C1080 C1082 1.391 . S
C1081 C1080 1.386 . S
C1081 C1085 1.393 . S
C1082 H1074 0.950 . S
C1082 C1080 1.391 . S
C1082 C1083 1.400 . S
C1083 C1082 1.400 . S
C1083 C1084 1.398 . S
C1083 C1089 1.491 . S
C1084 H1075 0.950 . S
C1084 C1083 1.398 . S
C1084 C1085 1.391 . S
C1085 H1073 0.950 . S
C1085 C1081 1.393 . S
C1085 C1084 1.391 . S
C1086 H1076 0.950 . S
C1086 C1087 1.386 . S
C1086 C1088 1.391 . S
C1087 C1086 1.386 . S
C1087 C1091 1.393 . S
C1088 H1077 0.950 . S
C1088 C1086 1.391 . S
C1088 C1089 1.400 . S
C1089 C1083 1.491 . S
C1089 C1088 1.400 . S
C1089 C1090 1.398 . S
C1090 H1078 0.950 . S
C1090 C1089 1.398 . S
C1090 C1091 1.391 . S
C1091 H1079 0.950 . S
C1091 C1087 1.393 . S
C1091 C1090 1.391 . S
H1092 C1100 0.950 . S
H1093 C1105 0.950 1_554 S
H1094 C1102 0.950 . S
H1095 C1104 0.950 . S
H1096 C1106 0.950 . S
H1097 C1108 0.950 . S
H1098 C1110 0.950 . S
H1099 C1111 0.950 . S
C1100 H1092 0.950 . S
C1100 C1101 1.386 . S
C1100 C1102 1.391 . S
C1101 C1100 1.386 . S
C1101 C1105 1.393 . S
C1102 H1094 0.950 . S
C1102 C1100 1.391 . S
C1102 C1103 1.400 . S
C1103 C1102 1.400 . S
C1103 C1104 1.398 . S
C1103 C1109 1.491 . S
C1104 H1095 0.950 . S
C1104 C1103 1.398 . S
C1104 C1105 1.391 . S
C1105 H1093 0.950 1_556 S
C1105 C1101 1.393 . S
C1105 C1104 1.391 . S
C1106 H1096 0.950 . S
C1106 C1107 1.386 . S
C1106 C1108 1.391 . S
C1107 C1106 1.386 . S
C1107 C1111 1.393 . S
C1108 H1097 0.950 . S
C1108 C1106 1.391 . S
C1108 C1109 1.400 . S
C1109 C1103 1.491 . S
C1109 C1108 1.400 . S
C1109 C1110 1.398 . S
C1110 H1098 0.950 . S
C1110 C1109 1.398 . S
C1110 C1111 1.391 . S
C1111 H1099 0.950 . S
C1111 C1107 1.393 . S
C1111 C1110 1.391 . S
H1112 C1120 0.950 . S
H1113 C1125 0.950 . S
H1114 C1122 0.950 . S
H1115 C1124 0.950 . S
H1116 C1126 0.950 . S
H1117 C1128 0.950 . S
H1118 C1130 0.950 . S
H1119 C1131 0.950 . S
C1120 H1112 0.950 . S
C1120 C1121 1.386 . S
C1120 C1122 1.391 . S
C1121 C1120 1.386 . S
C1121 C1125 1.393 . S
C1122 H1114 0.950 . S
C1122 C1120 1.391 . S
C1122 C1123 1.400 . S
C1123 C1122 1.400 . S
C1123 C1124 1.398 . S
C1123 C1129 1.491 . S
C1124 H1115 0.950 . S
C1124 C1123 1.398 . S
C1124 C1125 1.391 . S
C1125 H1113 0.950 . S
C1125 C1121 1.393 . S
C1125 C1124 1.391 . S
C1126 H1116 0.950 . S
C1126 C1127 1.386 . S
C1126 C1128 1.391 . S
C1127 C1126 1.386 . S
C1127 C1131 1.393 . S
C1128 H1117 0.950 . S
C1128 C1126 1.391 . S
C1128 C1129 1.400 . S
C1129 C1123 1.491 . S
C1129 C1128 1.400 . S
C1129 C1130 1.398 . S
C1130 H1118 0.950 . S
C1130 C1129 1.398 . S
C1130 C1131 1.391 . S
C1131 H1119 0.950 . S
C1131 C1127 1.393 . S
C1131 C1130 1.391 . S
H1132 C1140 0.950 . S
H1133 C1145 0.950 . S
H1134 C1142 0.950 . S
H1135 C1144 0.950 . S
H1136 C1146 0.950 . S
H1137 C1148 0.950 . S
H1138 C1150 0.950 . S
H1139 C1151 0.950 . S
C1140 H1132 0.950 . S
C1140 C1141 1.386 . S
C1140 C1142 1.391 . S
C1141 C1140 1.386 . S
C1141 C1145 1.393 . S
C1142 H1134 0.950 . S
C1142 C1140 1.391 . S
C1142 C1143 1.400 . S
C1143 C1142 1.400 . S
C1143 C1144 1.398 . S
C1143 C1149 1.491 . S
C1144 H1135 0.950 . S
C1144 C1143 1.398 . S
C1144 C1145 1.391 . S
C1145 H1133 0.950 . S
C1145 C1141 1.393 . S
C1145 C1144 1.391 . S
C1146 H1136 0.950 . S
C1146 C1147 1.386 . S
C1146 C1148 1.391 . S
C1147 C1146 1.386 . S
C1147 C1151 1.393 . S
C1148 H1137 0.950 . S
C1148 C1146 1.391 . S
C1148 C1149 1.400 . S
C1149 C1143 1.491 . S
C1149 C1148 1.400 . S
C1149 C1150 1.398 . S
C1150 H1138 0.950 . S
C1150 C1149 1.398 . S
C1150 C1151 1.391 . S
C1151 H1139 0.950 . S
C1151 C1147 1.393 . S
C1151 C1150 1.391 . S
H1152 C1160 0.946 1_565 S
H1153 C1165 0.950 . S
H1154 C1162 0.950 . S
H1155 C1164 0.950 . S
H1156 C1166 0.950 . S
H1157 C1168 0.950 . S
H1158 C1170 0.950 . S
H1159 C1171 0.950 . S
C1160 H1152 0.946 1_545 S
C1160 C1161 1.386 . S
C1160 C1162 1.391 . S
C1161 C1160 1.386 . S
C1161 C1165 1.393 . S
C1162 H1154 0.950 . S
C1162 C1160 1.391 . S
C1162 C1163 1.400 . S
C1163 C1162 1.400 . S
C1163 C1164 1.398 . S
C1163 C1169 1.491 . S
C1164 H1155 0.950 . S
C1164 C1163 1.398 . S
C1164 C1165 1.391 . S
C1165 H1153 0.950 . S
C1165 C1161 1.393 . S
C1165 C1164 1.391 . S
C1166 H1156 0.950 . S
C1166 C1167 1.386 . S
C1166 C1168 1.391 . S
C1167 C1166 1.386 . S
C1167 C1171 1.393 . S
C1168 H1157 0.950 . S
C1168 C1166 1.391 . S
C1168 C1169 1.400 . S
C1169 C1163 1.491 . S
C1169 C1168 1.400 . S
C1169 C1170 1.398 . S
C1170 H1158 0.950 . S
C1170 C1169 1.398 . S
C1170 C1171 1.391 . S
C1171 H1159 0.950 . S
C1171 C1167 1.393 . S
C1171 C1170 1.391 . S
H1172 C1180 0.950 . S
H1173 C1185 0.950 . S
H1174 C1182 0.950 . S
H1175 C1184 0.950 . S
H1176 C1186 0.950 . S
H1177 C1188 0.950 . S
H1178 C1190 0.950 . S
H1179 C1191 0.950 . S
C1180 H1172 0.950 . S
C1180 C1181 1.386 . S
C1180 C1182 1.391 . S
C1181 C1180 1.386 . S
C1181 C1185 1.393 . S
C1182 H1174 0.950 . S
C1182 C1180 1.391 . S
C1182 C1183 1.400 . S
C1183 C1182 1.400 . S
C1183 C1184 1.398 . S
C1183 C1189 1.491 . S
C1184 H1175 0.950 . S
C1184 C1183 1.398 . S
C1184 C1185 1.391 . S
C1185 H1173 0.950 . S
C1185 C1181 1.393 . S
C1185 C1184 1.391 . S
C1186 H1176 0.950 . S
C1186 C1187 1.386 . S
C1186 C1188 1.391 . S
C1187 C1186 1.386 . S
C1187 C1191 1.393 . S
C1188 H1177 0.950 . S
C1188 C1186 1.391 . S
C1188 C1189 1.400 . S
C1189 C1183 1.491 . S
C1189 C1188 1.400 . S
C1189 C1190 1.398 . S
C1190 H1178 0.950 . S
C1190 C1189 1.398 . S
C1190 C1191 1.391 . S
C1191 H1179 0.950 . S
C1191 C1187 1.393 . S
C1191 C1190 1.391 . S
H1192 C1200 0.950 . S
H1193 C1205 0.950 1_545 S
H1194 C1202 0.950 . S
H1195 C1204 0.950 . S
H1196 C1206 0.950 . S
H1197 C1208 0.950 . S
H1198 C1210 0.950 . S
H1199 C1211 0.950 . S
C1200 H1192 0.950 . S
C1200 C1201 1.386 . S
C1200 C1202 1.391 . S
C1201 C1200 1.386 . S
C1201 C1205 1.393 . S
C1202 H1194 0.950 . S
C1202 C1200 1.391 . S
C1202 C1203 1.400 . S
C1203 C1202 1.400 . S
C1203 C1204 1.398 . S
C1203 C1209 1.491 . S
C1204 H1195 0.950 . S
C1204 C1203 1.398 . S
C1204 C1205 1.391 . S
C1205 H1193 0.950 1_565 S
C1205 C1201 1.393 . S
C1205 C1204 1.391 . S
C1206 H1196 0.950 . S
C1206 C1207 1.386 . S
C1206 C1208 1.391 . S
C1207 C1206 1.386 . S
C1207 C1211 1.393 . S
C1208 H1197 0.950 . S
C1208 C1206 1.391 . S
C1208 C1209 1.400 . S
C1209 C1203 1.491 . S
C1209 C1208 1.400 . S
C1209 C1210 1.398 . S
C1210 H1198 0.950 . S
C1210 C1209 1.398 . S
C1210 C1211 1.391 . S
C1211 H1199 0.950 . S
C1211 C1207 1.393 . S
C1211 C1210 1.391 . S
H1212 C1220 0.950 . S
H1213 C1225 0.950 . S
H1214 C1222 0.950 . S
H1215 C1224 0.950 . S
H1216 C1226 0.950 . S
H1217 C1228 0.950 . S
H1218 C1230 0.950 . S
H1219 C1231 0.950 . S
C1220 H1212 0.950 . S
C1220 C1221 1.386 . S
C1220 C1222 1.391 . S
C1221 C1220 1.386 . S
C1221 C1225 1.393 . S
C1222 H1214 0.950 . S
C1222 C1220 1.391 . S
C1222 C1223 1.400 . S
C1223 C1222 1.400 . S
C1223 C1224 1.398 . S
C1223 C1229 1.491 . S
C1224 H1215 0.950 . S
C1224 C1223 1.398 . S
C1224 C1225 1.391 . S
C1225 H1213 0.950 . S
C1225 C1221 1.393 . S
C1225 C1224 1.391 . S
C1226 H1216 0.950 . S
C1226 C1227 1.386 . S
C1226 C1228 1.391 . S
C1227 C1226 1.386 . S
C1227 C1231 1.393 . S
C1228 H1217 0.950 . S
C1228 C1226 1.391 . S
C1228 C1229 1.400 . S
C1229 C1223 1.491 . S
C1229 C1228 1.400 . S
C1229 C1230 1.398 . S
C1230 H1218 0.950 . S
C1230 C1229 1.398 . S
C1230 C1231 1.391 . S
C1231 H1219 0.950 . S
C1231 C1227 1.393 . S
C1231 C1230 1.391 . S
H1232 C1240 0.950 . S
H1233 C1245 0.950 1_545 S
H1234 C1242 0.950 . S
H1235 C1244 0.950 . S
H1236 C1246 0.950 . S
H1237 C1248 0.950 . S
H1238 C1250 0.950 . S
H1239 C1251 0.950 . S
C1240 H1232 0.950 . S
C1240 C1241 1.386 . S
C1240 C1242 1.391 . S
C1241 C1240 1.386 . S
C1241 C1245 1.393 . S
C1242 H1234 0.950 . S
C1242 C1240 1.391 . S
C1242 C1243 1.400 . S
C1243 C1242 1.400 . S
C1243 C1244 1.398 . S
C1243 C1249 1.491 . S
C1244 H1235 0.950 . S
C1244 C1243 1.398 . S
C1244 C1245 1.391 . S
C1245 H1233 0.950 1_565 S
C1245 C1241 1.393 . S
C1245 C1244 1.391 . S
C1246 H1236 0.950 . S
C1246 C1247 1.386 . S
C1246 C1248 1.391 . S
C1247 C1246 1.386 . S
C1247 C1251 1.393 . S
C1248 H1237 0.950 . S
C1248 C1246 1.391 . S
C1248 C1249 1.400 . S
C1249 C1243 1.491 . S
C1249 C1248 1.400 . S
C1249 C1250 1.398 . S
C1250 H1238 0.950 . S
C1250 C1249 1.398 . S
C1250 C1251 1.391 . S
C1251 H1239 0.950 . S
C1251 C1247 1.393 . S
C1251 C1250 1.391 . S
H1252 C1260 0.950 1_565 S
H1253 C1265 0.950 . S
H1254 C1262 0.950 . S
H1255 C1264 0.950 . S
H1256 C1266 0.950 . S
H1257 C1268 0.950 . S
H1258 C1270 0.950 . S
H1259 C1271 0.950 . S
C1260 H1252 0.950 1_545 S
C1260 C1261 1.386 . S
C1260 C1262 1.391 . S
C1261 C1260 1.386 . S
C1261 C1265 1.393 . S
C1262 H1254 0.950 . S
C1262 C1260 1.391 . S
C1262 C1263 1.400 . S
C1263 C1262 1.400 . S
C1263 C1264 1.398 . S
C1263 C1269 1.491 . S
C1264 H1255 0.950 . S
C1264 C1263 1.398 . S
C1264 C1265 1.391 . S
C1265 H1253 0.950 . S
C1265 C1261 1.393 . S
C1265 C1264 1.391 . S
C1266 H1256 0.950 . S
C1266 C1267 1.386 . S
C1266 C1268 1.391 . S
C1267 C1266 1.386 . S
C1267 C1271 1.393 . S
C1268 H1257 0.950 . S
C1268 C1266 1.391 . S
C1268 C1269 1.400 . S
C1269 C1263 1.491 . S
C1269 C1268 1.400 . S
C1269 C1270 1.398 . S
C1270 H1258 0.950 . S
C1270 C1269 1.398 . S
C1270 C1271 1.391 . S
C1271 H1259 0.950 . S
C1271 C1267 1.393 . S
C1271 C1270 1.391 . S
H1272 C1280 0.950 . S
H1273 C1285 0.956 . S
H1274 C1282 0.950 . S
H1275 C1284 0.950 . S
H1276 C1286 0.950 . S
H1277 C1288 0.950 . S
H1278 C1290 0.950 . S
H1279 C1291 0.956 . S
C1280 H1272 0.950 . S
C1280 C1281 1.386 . S
C1280 C1282 1.391 . S
C1281 C1280 1.386 . S
C1281 C1285 1.382 1_655 S
C1282 H1274 0.950 . S
C1282 C1280 1.391 . S
C1282 C1283 1.400 . S
C1283 C1282 1.400 . S
C1283 C1284 1.398 1_655 S
C1283 C1289 1.491 1_656 S
C1284 H1275 0.950 . S
C1284 C1283 1.398 1_455 S
C1284 C1285 1.395 . S
C1285 H1273 0.956 . S
C1285 C1281 1.382 1_455 S
C1285 C1284 1.395 . S
C1286 H1276 0.950 . S
C1286 C1287 1.386 . S
C1286 C1288 1.391 . S
C1287 C1286 1.386 . S
C1287 C1291 1.382 1_455 S
C1288 H1277 0.950 . S
C1288 C1286 1.391 . S
C1288 C1289 1.400 . S
C1289 C1283 1.491 1_454 S
C1289 C1288 1.400 . S
C1289 C1290 1.398 1_455 S
C1290 H1278 0.950 . S
C1290 C1289 1.398 1_655 S
C1290 C1291 1.395 . S
C1291 H1279 0.956 . S
C1291 C1287 1.382 1_655 S
C1291 C1290 1.395 . S
H1292 C1300 0.950 . S
H1293 C1305 0.950 . S
H1294 C1302 0.950 . S
H1295 C1304 0.950 . S
H1296 C1306 0.950 . S
H1297 C1308 0.950 . S
H1298 C1310 0.950 . S
H1299 C1311 0.950 . S
C1300 H1292 0.950 . S
C1300 C1301 1.386 . S
C1300 C1302 1.391 . S
C1301 C1300 1.386 . S
C1301 C1305 1.393 . S
C1302 H1294 0.950 . S
C1302 C1300 1.391 . S
C1302 C1303 1.400 . S
C1303 C1302 1.400 . S
C1303 C1304 1.398 . S
C1303 C1309 1.491 . S
C1304 H1295 0.950 . S
C1304 C1303 1.398 . S
C1304 C1305 1.391 . S
C1305 H1293 0.950 . S
C1305 C1301 1.393 . S
C1305 C1304 1.391 . S
C1306 H1296 0.950 . S
C1306 C1307 1.386 . S
C1306 C1308 1.391 . S
C1307 C1306 1.386 . S
C1307 C1311 1.393 . S
C1308 H1297 0.950 . S
C1308 C1306 1.391 . S
C1308 C1309 1.400 . S
C1309 C1303 1.491 . S
C1309 C1308 1.400 . S
C1309 C1310 1.398 . S
C1310 H1298 0.950 . S
C1310 C1309 1.398 . S
C1310 C1311 1.391 . S
C1311 H1299 0.950 . S
C1311 C1307 1.393 . S
C1311 C1310 1.391 . S
H1312 C1320 0.950 . S
H1313 C1325 0.950 . S
H1314 C1322 0.950 . S
H1315 C1324 0.950 1_655 S
H1316 C1326 0.950 . S
H1317 C1328 0.950 . S
H1318 C1330 0.950 1_455 S
H1319 C1331 0.950 . S
C1320 H1312 0.950 . S
C1320 C1321 1.386 . S
C1320 C1322 1.391 . S
C1321 C1320 1.386 . S
C1321 C1325 1.393 . S
C1322 H1314 0.950 . S
C1322 C1320 1.391 . S
C1322 C1323 1.400 . S
C1323 C1322 1.400 . S
C1323 C1324 1.398 . S
C1323 C1329 1.491 1_456 S
C1324 H1315 0.950 1_455 S
C1324 C1323 1.398 . S
C1324 C1325 1.391 . S
C1325 H1313 0.950 . S
C1325 C1321 1.393 . S
C1325 C1324 1.391 . S
C1326 H1316 0.950 . S
C1326 C1327 1.386 . S
C1326 C1328 1.391 . S
C1327 C1326 1.386 . S
C1327 C1331 1.393 . S
C1328 H1317 0.950 . S
C1328 C1326 1.391 . S
C1328 C1329 1.400 . S
C1329 C1323 1.491 1_654 S
C1329 C1328 1.400 . S
C1329 C1330 1.398 . S
C1330 H1318 0.950 1_655 S
C1330 C1329 1.398 . S
C1330 C1331 1.391 . S
C1331 H1319 0.950 . S
C1331 C1327 1.393 . S
C1331 C1330 1.391 . S
H1332 C1340 0.950 . S
H1333 C1345 0.950 . S
H1334 C1342 0.950 . S
H1335 C1344 0.950 . S
H1336 C1346 0.950 . S
H1337 C1348 0.950 . S
H1338 C1350 0.950 . S
H1339 C1351 0.950 . S
C1340 H1332 0.950 . S
C1340 C1341 1.386 . S
C1340 C1342 1.391 . S
C1341 C1340 1.386 . S
C1341 C1345 1.393 . S
C1342 H1334 0.950 . S
C1342 C1340 1.391 . S
C1342 C1343 1.400 . S
C1343 C1342 1.400 . S
C1343 C1344 1.398 . S
C1343 C1349 1.491 . S
C1344 H1335 0.950 . S
C1344 C1343 1.398 . S
C1344 C1345 1.391 . S
C1345 H1333 0.950 . S
C1345 C1341 1.393 . S
C1345 C1344 1.391 . S
C1346 H1336 0.950 . S
C1346 C1347 1.386 . S
C1346 C1348 1.391 . S
C1347 C1346 1.386 . S
C1347 C1351 1.393 . S
C1348 H1337 0.950 . S
C1348 C1346 1.391 . S
C1348 C1349 1.400 . S
C1349 C1343 1.491 . S
C1349 C1348 1.400 . S
C1349 C1350 1.398 . S
C1350 H1338 0.950 . S
C1350 C1349 1.398 . S
C1350 C1351 1.391 . S
C1351 H1339 0.950 . S
C1351 C1347 1.393 . S
C1351 C1350 1.391 . S
H1352 C1360 0.950 1_545 S
H1353 C1365 0.950 . S
H1354 C1362 0.950 . S
H1355 C1364 0.950 . S
H1356 C1366 0.950 1_565 S
H1357 C1368 0.950 . S
H1358 C1370 0.950 . S
H1359 C1371 0.950 . S
C1360 H1352 0.950 1_565 S
C1360 C1361 1.386 . S
C1360 C1362 1.391 1_565 S
C1361 C1360 1.386 . S
C1361 C1365 1.393 . S
C1362 H1354 0.950 . S
C1362 C1360 1.391 1_545 S
C1362 C1363 1.400 1_545 S
C1363 C1362 1.400 1_565 S
C1363 C1364 1.398 . S
C1363 C1369 1.491 1_665 S
C1364 H1355 0.950 . S
C1364 C1363 1.398 . S
C1364 C1365 1.391 . S
C1365 H1353 0.950 . S
C1365 C1361 1.393 . S
C1365 C1364 1.391 . S
C1366 H1356 0.950 1_545 S
C1366 C1367 1.386 . S
C1366 C1368 1.391 1_545 S
C1367 C1366 1.386 . S
C1367 C1371 1.393 . S
C1368 H1357 0.950 . S
C1368 C1366 1.391 1_565 S
C1368 C1369 1.400 1_565 S
C1369 C1363 1.491 1_445 S
C1369 C1368 1.400 1_545 S
C1369 C1370 1.398 . S
C1370 H1358 0.950 . S
C1370 C1369 1.398 . S
C1370 C1371 1.391 . S
C1371 H1359 0.950 . S
C1371 C1367 1.393 . S
C1371 C1370 1.391 . S
H1372 C1380 0.950 . S
H1373 C1385 0.950 . S
H1374 C1382 0.950 . S
H1375 C1384 0.950 . S
H1376 C1386 0.950 . S
H1377 C1388 0.950 . S
H1378 C1390 0.950 . S
H1379 C1391 0.950 . S
C1380 H1372 0.950 . S
C1380 C1381 1.386 . S
C1380 C1382 1.391 . S
C1381 C1380 1.386 . S
C1381 C1385 1.393 . S
C1382 H1374 0.950 . S
C1382 C1380 1.391 . S
C1382 C1383 1.400 . S
C1383 C1382 1.400 . S
C1383 C1384 1.398 . S
C1383 C1389 1.491 . S
C1384 H1375 0.950 . S
C1384 C1383 1.398 . S
C1384 C1385 1.391 . S
C1385 H1373 0.950 . S
C1385 C1381 1.393 . S
C1385 C1384 1.391 . S
C1386 H1376 0.950 . S
C1386 C1387 1.386 . S
C1386 C1388 1.391 . S
C1387 C1386 1.386 . S
C1387 C1391 1.393 . S
C1388 H1377 0.950 . S
C1388 C1386 1.391 . S
C1388 C1389 1.400 . S
C1389 C1383 1.491 . S
C1389 C1388 1.400 . S
C1389 C1390 1.398 . S
C1390 H1378 0.950 . S
C1390 C1389 1.398 . S
C1390 C1391 1.391 . S
C1391 H1379 0.950 . S
C1391 C1387 1.393 . S
C1391 C1390 1.391 . S
H1392 C1400 0.950 . S
H1393 C1405 0.950 . S
H1394 C1402 0.950 . S
H1395 C1404 0.950 . S
H1396 C1406 0.950 . S
H1397 C1408 0.950 . S
H1398 C1410 0.950 . S
H1399 C1411 0.950 . S
C1400 H1392 0.950 . S
C1400 C1401 1.386 . S
C1400 C1402 1.391 1_565 S
C1401 C1400 1.386 . S
C1401 C1405 1.393 . S
C1402 H1394 0.950 . S
C1402 C1400 1.391 1_545 S
C1402 C1403 1.400 1_545 S
C1403 C1402 1.400 1_565 S
C1403 C1404 1.398 . S
C1403 C1409 1.491 1_465 S
C1404 H1395 0.950 . S
C1404 C1403 1.398 . S
C1404 C1405 1.391 . S
C1405 H1393 0.950 . S
C1405 C1401 1.393 . S
C1405 C1404 1.391 . S
C1406 H1396 0.950 . S
C1406 C1407 1.386 . S
C1406 C1408 1.391 1_545 S
C1407 C1406 1.386 . S
C1407 C1411 1.393 . S
C1408 H1397 0.950 . S
C1408 C1406 1.391 1_565 S
C1408 C1409 1.400 1_565 S
C1409 C1403 1.491 1_645 S
C1409 C1408 1.400 1_545 S
C1409 C1410 1.398 . S
C1410 H1398 0.950 . S
C1410 C1409 1.398 . S
C1410 C1411 1.391 . S
C1411 H1399 0.950 . S
C1411 C1407 1.393 . S
C1411 C1410 1.391 . S
H1412 C1420 0.950 . S
H1413 C1425 0.950 . S
H1414 C1422 0.950 . S
H1415 C1424 0.950 . S
H1416 C1426 0.950 . S
H1417 C1428 0.950 . S
H1418 C1430 0.950 . S
H1419 C1431 0.950 . S
C1420 H1412 0.950 . S
C1420 C1421 1.386 . S
C1420 C1422 1.391 . S
C1421 C1420 1.386 . S
C1421 C1425 1.393 . S
C1422 H1414 0.950 . S
C1422 C1420 1.391 . S
C1422 C1423 1.400 . S
C1423 C1422 1.400 . S
C1423 C1424 1.398 . S
C1423 C1429 1.491 . S
C1424 H1415 0.950 . S
C1424 C1423 1.398 . S
C1424 C1425 1.391 . S
C1425 H1413 0.950 . S
C1425 C1421 1.393 . S
C1425 C1424 1.391 . S
C1426 H1416 0.950 . S
C1426 C1427 1.386 . S
C1426 C1428 1.391 . S
C1427 C1426 1.386 . S
C1427 C1431 1.393 . S
C1428 H1417 0.950 . S
C1428 C1426 1.391 . S
C1428 C1429 1.400 . S
C1429 C1423 1.491 . S
C1429 C1428 1.400 . S
C1429 C1430 1.398 . S
C1430 H1418 0.950 . S
C1430 C1429 1.398 . S
C1430 C1431 1.391 . S
C1431 H1419 0.950 . S
C1431 C1427 1.393 . S
C1431 C1430 1.391 . S
H1432 C1440 0.950 1_556 S
H1433 C1445 0.950 . S
H1434 C1442 0.950 . S
H1435 C1444 0.950 . S
H1436 C1446 0.950 1_554 S
H1437 C1448 0.950 . S
H1438 C1450 0.950 . S
H1439 C1451 0.950 . S
C1440 H1432 0.950 1_554 S
C1440 C1441 1.386 . S
C1440 C1442 1.391 1_554 S
C1441 C1440 1.386 . S
C1441 C1445 1.393 . S
C1442 H1434 0.950 . S
C1442 C1440 1.391 1_556 S
C1442 C1443 1.400 1_556 S
C1443 C1442 1.400 1_554 S
C1443 C1444 1.398 . S
C1443 C1449 1.491 1_544 S
C1444 H1435 0.950 . S
C1444 C1443 1.398 . S
C1444 C1445 1.391 . S
C1445 H1433 0.950 . S
C1445 C1441 1.393 . S
C1445 C1444 1.391 . S
C1446 H1436 0.950 1_556 S
C1446 C1447 1.386 . S
C1446 C1448 1.391 1_556 S
C1447 C1446 1.386 . S
C1447 C1451 1.393 . S
C1448 H1437 0.950 . S
C1448 C1446 1.391 1_554 S
C1448 C1449 1.400 1_554 S
C1449 C1443 1.491 1_566 S
C1449 C1448 1.400 1_556 S
C1449 C1450 1.398 . S
C1450 H1438 0.950 . S
C1450 C1449 1.398 . S
C1450 C1451 1.391 . S
C1451 H1439 0.950 . S
C1451 C1447 1.393 . S
C1451 C1450 1.391 . S
H1452 C1460 0.950 . S
H1453 C1465 0.950 . S
H1454 C1462 0.950 . S
H1455 C1464 0.950 . S
H1456 C1466 0.950 . S
H1457 C1468 0.950 . S
H1458 C1470 0.950 . S
H1459 C1471 0.950 . S
C1460 H1452 0.950 . S
C1460 C1461 1.386 . S
C1460 C1462 1.391 . S
C1461 C1460 1.386 . S
C1461 C1465 1.393 . S
C1462 H1454 0.950 . S
C1462 C1460 1.391 . S
C1462 C1463 1.400 . S
C1463 C1462 1.400 . S
C1463 C1464 1.398 . S
C1463 C1469 1.491 . S
C1464 H1455 0.950 . S
C1464 C1463 1.398 . S
C1464 C1465 1.391 . S
C1465 H1453 0.950 . S
C1465 C1461 1.393 . S
C1465 C1464 1.391 . S
C1466 H1456 0.950 . S
C1466 C1467 1.386 . S
C1466 C1468 1.391 . S
C1467 C1466 1.386 . S
C1467 C1471 1.393 . S
C1468 H1457 0.950 . S
C1468 C1466 1.391 . S
C1468 C1469 1.400 . S
C1469 C1463 1.491 . S
C1469 C1468 1.400 . S
C1469 C1470 1.398 . S
C1470 H1458 0.950 . S
C1470 C1469 1.398 . S
C1470 C1471 1.391 . S
C1471 H1459 0.950 . S
C1471 C1467 1.393 . S
C1471 C1470 1.391 . S
H1472 C1480 0.936 1_554 S
H1473 C1485 0.950 . S
H1474 C1482 0.950 . S
H1475 C1484 0.950 . S
H1476 C1486 0.936 1_556 S
H1477 C1488 0.950 . S
H1478 C1490 0.950 . S
H1479 C1491 0.950 . S
C1480 H1472 0.936 1_556 S
C1480 C1481 1.409 . S
C1480 C1482 1.382 1_556 S
C1481 C1480 1.409 . S
C1481 C1485 1.393 . S
C1482 H1474 0.950 . S
C1482 C1480 1.382 1_554 S
C1482 C1483 1.400 1_554 S
C1483 C1482 1.400 1_556 S
C1483 C1484 1.398 . S
C1483 C1489 1.491 1_546 S
C1484 H1475 0.950 . S
C1484 C1483 1.398 . S
C1484 C1485 1.391 . S
C1485 H1473 0.950 . S
C1485 C1481 1.393 . S
C1485 C1484 1.391 . S
C1486 H1476 0.936 1_554 S
C1486 C1487 1.409 . S
C1486 C1488 1.382 1_554 S
C1487 C1486 1.409 . S
C1487 C1491 1.393 . S
C1488 H1477 0.950 . S
C1488 C1486 1.382 1_556 S
C1488 C1489 1.400 1_556 S
C1489 C1483 1.491 1_564 S
C1489 C1488 1.400 1_554 S
C1489 C1490 1.398 . S
C1490 H1478 0.950 . S
C1490 C1489 1.398 . S
C1490 C1491 1.391 . S
C1491 H1479 0.950 . S
C1491 C1487 1.393 . S
C1491 C1490 1.391 . S
H1492 C1500 0.950 . S
H1493 C1505 0.950 . S
H1494 C1502 0.950 . S
H1495 C1504 0.950 . S
H1496 C1506 0.950 . S
H1497 C1508 0.950 . S
H1498 C1510 0.950 . S
H1499 C1511 0.950 . S
C1500 H1492 0.950 . S
C1500 C1501 1.386 . S
C1500 C1502 1.391 . S
C1501 C1500 1.386 . S
C1501 C1505 1.393 . S
C1502 H1494 0.950 . S
C1502 C1500 1.391 . S
C1502 C1503 1.400 . S
C1503 C1502 1.400 . S
C1503 C1504 1.398 . S
C1503 C1509 1.491 . S
C1504 H1495 0.950 . S
C1504 C1503 1.398 . S
C1504 C1505 1.391 . S
C1505 H1493 0.950 . S
C1505 C1501 1.393 . S
C1505 C1504 1.391 . S
C1506 H1496 0.950 . S
C1506 C1507 1.386 . S
C1506 C1508 1.391 . S
C1507 C1506 1.386 . S
C1507 C1511 1.393 . S
C1508 H1497 0.950 . S
C1508 C1506 1.391 . S
C1508 C1509 1.400 . S
C1509 C1503 1.491 . S
C1509 C1508 1.400 . S
C1509 C1510 1.398 . S
C1510 H1498 0.950 . S
C1510 C1509 1.398 . S
C1510 C1511 1.391 . S
C1511 H1499 0.950 . S
C1511 C1507 1.393 . S
C1511 C1510 1.391 . S
H1512 C1520 0.950 . S
H1513 C1525 0.950 . S
H1514 C1522 0.950 . S
H1515 C1524 0.950 . S
H1516 C1526 0.950 . S
H1517 C1528 0.950 . S
H1518 C1530 0.950 . S
H1519 C1531 0.950 . S
C1520 H1512 0.950 . S
C1520 C1521 1.386 . S
C1520 C1522 1.391 . S
C1521 C1520 1.386 . S
C1521 C1525 1.393 . S
C1522 H1514 0.950 . S
C1522 C1520 1.391 . S
C1522 C1523 1.400 . S
C1523 C1522 1.400 . S
C1523 C1524 1.398 . S
C1523 C1529 1.491 . S
C1524 H1515 0.950 . S
C1524 C1523 1.398 . S
C1524 C1525 1.391 . S
C1525 H1513 0.950 . S
C1525 C1521 1.393 . S
C1525 C1524 1.391 . S
C1526 H1516 0.950 . S
C1526 C1527 1.386 . S
C1526 C1528 1.391 . S
C1527 C1526 1.386 . S
C1527 C1531 1.393 . S
C1528 H1517 0.950 . S
C1528 C1526 1.391 . S
C1528 C1529 1.400 . S
C1529 C1523 1.491 . S
C1529 C1528 1.400 . S
C1529 C1530 1.398 . S
C1530 H1518 0.950 . S
C1530 C1529 1.398 . S
C1530 C1531 1.391 . S
C1531 H1519 0.950 . S
C1531 C1527 1.393 . S
C1531 C1530 1.391 . S
H1532 C1540 0.950 . S
H1533 C1545 0.950 . S
H1534 C1542 0.950 . S
H1535 C1544 0.950 . S
H1536 C1546 0.950 . S
H1537 C1548 0.950 . S
H1538 C1550 0.950 . S
H1539 C1551 0.950 . S
C1540 H1532 0.950 . S
C1540 C1541 1.386 . S
C1540 C1542 1.391 . S
C1541 C1540 1.386 . S
C1541 C1545 1.393 . S
C1542 H1534 0.950 . S
C1542 C1540 1.391 . S
C1542 C1543 1.400 . S
C1543 C1542 1.400 . S
C1543 C1544 1.398 . S
C1543 C1549 1.491 . S
C1544 H1535 0.950 . S
C1544 C1543 1.398 . S
C1544 C1545 1.391 . S
C1545 H1533 0.950 . S
C1545 C1541 1.393 . S
C1545 C1544 1.391 . S
C1546 H1536 0.950 . S
C1546 C1547 1.386 . S
C1546 C1548 1.391 . S
C1547 C1546 1.386 . S
C1547 C1551 1.393 . S
C1548 H1537 0.950 . S
C1548 C1546 1.391 . S
C1548 C1549 1.400 . S
C1549 C1543 1.491 . S
C1549 C1548 1.400 . S
C1549 C1550 1.398 . S
C1550 H1538 0.950 . S
C1550 C1549 1.398 . S
C1550 C1551 1.391 . S
C1551 H1539 0.950 . S
C1551 C1547 1.393 . S
C1551 C1550 1.391 . S
H1552 C1560 0.950 . S
H1553 C1565 0.950 . S
H1554 C1562 0.950 . S
H1555 C1564 0.950 . S
H1556 C1566 0.950 . S
H1557 C1568 0.950 . S
H1558 C1570 0.950 . S
H1559 C1571 0.950 . S
C1560 H1552 0.950 . S
C1560 C1561 1.386 . S
C1560 C1562 1.391 . S
C1561 C1560 1.386 . S
C1561 C1565 1.393 . S
C1562 H1554 0.950 . S
C1562 C1560 1.391 . S
C1562 C1563 1.400 . S
C1563 C1562 1.400 . S
C1563 C1564 1.398 . S
C1563 C1569 1.491 . S
C1564 H1555 0.950 . S
C1564 C1563 1.398 . S
C1564 C1565 1.391 . S
C1565 H1553 0.950 . S
C1565 C1561 1.393 . S
C1565 C1564 1.391 . S
C1566 H1556 0.950 . S
C1566 C1567 1.386 . S
C1566 C1568 1.391 . S
C1567 C1566 1.386 . S
C1567 C1571 1.393 . S
C1568 H1557 0.950 . S
C1568 C1566 1.391 . S
C1568 C1569 1.400 . S
C1569 C1563 1.491 . S
C1569 C1568 1.400 . S
C1569 C1570 1.398 . S
C1570 H1558 0.950 . S
C1570 C1569 1.398 . S
C1570 C1571 1.391 . S
C1571 H1559 0.950 . S
C1571 C1567 1.393 . S
C1571 C1570 1.391 . S
H1572 C1580 0.950 . S
H1573 C1585 0.950 . S
H1574 C1582 0.950 . S
H1575 C1584 0.950 . S
H1576 C1586 0.950 . S
H1577 C1588 0.950 . S
H1578 C1590 0.950 . S
H1579 C1591 0.950 . S
C1580 H1572 0.950 . S
C1580 C1581 1.386 . S
C1580 C1582 1.391 . S
C1581 C1580 1.386 . S
C1581 C1585 1.393 . S
C1582 H1574 0.950 . S
C1582 C1580 1.391 . S
C1582 C1583 1.400 . S
C1583 C1582 1.400 . S
C1583 C1584 1.398 . S
C1583 C1589 1.491 . S
C1584 H1575 0.950 . S
C1584 C1583 1.398 . S
C1584 C1585 1.391 . S
C1585 H1573 0.950 . S
C1585 C1581 1.393 . S
C1585 C1584 1.391 . S
C1586 H1576 0.950 . S
C1586 C1587 1.386 . S
C1586 C1588 1.391 . S
C1587 C1586 1.386 . S
C1587 C1591 1.393 . S
C1588 H1577 0.950 . S
C1588 C1586 1.391 . S
C1588 C1589 1.400 . S
C1589 C1583 1.491 . S
C1589 C1588 1.400 . S
C1589 C1590 1.398 . S
C1590 H1578 0.950 . S
C1590 C1589 1.398 . S
C1590 C1591 1.391 . S
C1591 H1579 0.950 . S
C1591 C1587 1.393 . S
C1591 C1590 1.391 . S
H1592 C1600 0.950 . S
H1593 C1605 0.950 . S
H1594 C1602 0.950 . S
H1595 C1604 0.950 . S
H1596 C1606 0.950 . S
H1597 C1608 0.950 . S
H1598 C1610 0.950 . S
H1599 C1611 0.950 . S
C1600 H1592 0.950 . S
C1600 C1601 1.386 . S
C1600 C1602 1.391 . S
C1601 C1600 1.386 . S
C1601 C1605 1.393 . S
C1602 H1594 0.950 . S
C1602 C1600 1.391 . S
C1602 C1603 1.400 . S
C1603 C1602 1.400 . S
C1603 C1604 1.398 . S
C1603 C1609 1.491 . S
C1604 H1595 0.950 . S
C1604 C1603 1.398 . S
C1604 C1605 1.391 . S
C1605 H1593 0.950 . S
C1605 C1601 1.393 . S
C1605 C1604 1.391 . S
C1606 H1596 0.950 . S
C1606 C1607 1.386 . S
C1606 C1608 1.391 . S
C1607 C1606 1.386 . S
C1607 C1611 1.393 . S
C1608 H1597 0.950 . S
C1608 C1606 1.391 . S
C1608 C1609 1.400 . S
C1609 C1603 1.491 . S
C1609 C1608 1.400 . S
C1609 C1610 1.398 . S
C1610 H1598 0.950 . S
C1610 C1609 1.398 . S
C1610 C1611 1.391 . S
C1611 H1599 0.950 . S
C1611 C1607 1.393 . S
C1611 C1610 1.391 . S
H1612 C1620 0.950 . S
H1613 C1625 0.950 . S
H1614 C1622 0.950 . S
H1615 C1624 0.950 . S
H1616 C1626 0.950 . S
H1617 C1628 0.950 . S
H1618 C1630 0.950 . S
H1619 C1631 0.950 . S
C1620 H1612 0.950 . S
C1620 C1621 1.386 . S
C1620 C1622 1.391 . S
C1621 C1620 1.386 . S
C1621 C1625 1.393 . S
C1622 H1614 0.950 . S
C1622 C1620 1.391 . S
C1622 C1623 1.400 . S
C1623 C1622 1.400 . S
C1623 C1624 1.398 . S
C1623 C1629 1.491 . S
C1624 H1615 0.950 . S
C1624 C1623 1.398 . S
C1624 C1625 1.391 . S
C1625 H1613 0.950 . S
C1625 C1621 1.393 . S
C1625 C1624 1.391 . S
C1626 H1616 0.950 . S
C1626 C1627 1.386 . S
C1626 C1628 1.391 . S
C1627 C1626 1.386 . S
C1627 C1631 1.393 . S
C1628 H1617 0.950 . S
C1628 C1626 1.391 . S
C1628 C1629 1.400 . S
C1629 C1623 1.491 . S
C1629 C1628 1.400 . S
C1629 C1630 1.398 . S
C1630 H1618 0.950 . S
C1630 C1629 1.398 . S
C1630 C1631 1.391 . S
C1631 H1619 0.950 . S
C1631 C1627 1.393 . S
C1631 C1630 1.391 . S
H1632 C1640 0.950 . S
H1633 C1645 0.950 . S
H1634 C1642 0.950 . S
H1635 C1644 0.950 . S
H1636 C1646 0.950 . S
H1637 C1648 0.950 . S
H1638 C1650 0.950 . S
H1639 C1651 0.950 . S
C1640 H1632 0.950 . S
C1640 C1641 1.386 . S
C1640 C1642 1.391 . S
C1641 C1640 1.386 . S
C1641 C1645 1.393 . S
C1642 H1634 0.950 . S
C1642 C1640 1.391 . S
C1642 C1643 1.400 . S
C1643 C1642 1.400 . S
C1643 C1644 1.398 . S
C1643 C1649 1.491 . S
C1644 H1635 0.950 . S
C1644 C1643 1.398 . S
C1644 C1645 1.391 . S
C1645 H1633 0.950 . S
C1645 C1641 1.393 . S
C1645 C1644 1.391 . S
C1646 H1636 0.950 . S
C1646 C1647 1.386 . S
C1646 C1648 1.391 . S
C1647 C1646 1.386 . S
C1647 C1651 1.393 . S
C1648 H1637 0.950 . S
C1648 C1646 1.391 . S
C1648 C1649 1.400 . S
C1649 C1643 1.491 . S
C1649 C1648 1.400 . S
C1649 C1650 1.398 . S
C1650 H1638 0.950 . S
C1650 C1649 1.398 . S
C1650 C1651 1.391 . S
C1651 H1639 0.950 . S
C1651 C1647 1.393 . S
C1651 C1650 1.391 . S
H1652 C1660 0.950 . S
H1653 C1665 0.950 . S
H1654 C1662 0.950 . S
H1655 C1664 0.950 . S
H1656 C1666 0.950 . S
H1657 C1668 0.950 . S
H1658 C1670 0.950 . S
H1659 C1671 0.950 . S
C1660 H1652 0.950 . S
C1660 C1661 1.386 . S
C1660 C1662 1.391 . S
C1661 C1660 1.386 . S
C1661 C1665 1.393 . S
C1662 H1654 0.950 . S
C1662 C1660 1.391 . S
C1662 C1663 1.400 . S
C1663 C1662 1.400 . S
C1663 C1664 1.398 . S
C1663 C1669 1.491 . S
C1664 H1655 0.950 . S
C1664 C1663 1.398 . S
C1664 C1665 1.391 . S
C1665 H1653 0.950 . S
C1665 C1661 1.393 . S
C1665 C1664 1.391 . S
C1666 H1656 0.950 . S
C1666 C1667 1.386 . S
C1666 C1668 1.391 . S
C1667 C1666 1.386 . S
C1667 C1671 1.393 . S
C1668 H1657 0.950 . S
C1668 C1666 1.391 . S
C1668 C1669 1.400 . S
C1669 C1663 1.491 . S
C1669 C1668 1.400 . S
C1669 C1670 1.398 . S
C1670 H1658 0.950 . S
C1670 C1669 1.398 . S
C1670 C1671 1.391 . S
C1671 H1659 0.950 . S
C1671 C1667 1.393 . S
C1671 C1670 1.391 . S
H1672 C1680 0.950 . S
H1673 C1685 0.950 . S
H1674 C1682 0.950 . S
H1675 C1684 0.950 . S
H1676 C1686 0.950 . S
H1677 C1688 0.950 . S
H1678 C1690 0.950 . S
H1679 C1691 0.950 . S
C1680 H1672 0.950 . S
C1680 C1681 1.386 . S
C1680 C1682 1.391 . S
C1681 C1680 1.386 . S
C1681 C1685 1.393 . S
C1682 H1674 0.950 . S
C1682 C1680 1.391 . S
C1682 C1683 1.400 . S
C1683 C1682 1.400 . S
C1683 C1684 1.398 . S
C1683 C1689 1.491 . S
C1684 H1675 0.950 . S
C1684 C1683 1.398 . S
C1684 C1685 1.391 . S
C1685 H1673 0.950 . S
C1685 C1681 1.393 . S
C1685 C1684 1.391 . S
C1686 H1676 0.950 . S
C1686 C1687 1.386 . S
C1686 C1688 1.391 . S
C1687 C1686 1.386 . S
C1687 C1691 1.393 . S
C1688 H1677 0.950 . S
C1688 C1686 1.391 . S
C1688 C1689 1.400 . S
C1689 C1683 1.491 . S
C1689 C1688 1.400 . S
C1689 C1690 1.398 . S
C1690 H1678 0.950 . S
C1690 C1689 1.398 . S
C1690 C1691 1.391 . S
C1691 H1679 0.950 . S
C1691 C1687 1.393 . S
C1691 C1690 1.391 . S
H1692 C1700 0.950 . S
H1693 C1705 0.950 . S
H1694 C1702 0.950 . S
H1695 C1704 0.950 . S
H1696 C1706 0.950 . S
H1697 C1708 0.950 . S
H1698 C1710 0.950 . S
H1699 C1711 0.950 . S
C1700 H1692 0.950 . S
C1700 C1701 1.386 . S
C1700 C1702 1.391 . S
C1701 C1700 1.386 . S
C1701 C1705 1.393 . S
C1702 H1694 0.950 . S
C1702 C1700 1.391 . S
C1702 C1703 1.400 . S
C1703 C1702 1.400 . S
C1703 C1704 1.398 . S
C1703 C1709 1.491 . S
C1704 H1695 0.950 . S
C1704 C1703 1.398 . S
C1704 C1705 1.391 . S
C1705 H1693 0.950 . S
C1705 C1701 1.393 . S
C1705 C1704 1.391 . S
C1706 H1696 0.950 . S
C1706 C1707 1.386 . S
C1706 C1708 1.391 . S
C1707 C1706 1.386 . S
C1707 C1711 1.393 . S
C1708 H1697 0.950 . S
C1708 C1706 1.391 . S
C1708 C1709 1.400 . S
C1709 C1703 1.491 . S
C1709 C1708 1.400 . S
C1709 C1710 1.398 . S
C1710 H1698 0.950 . S
C1710 C1709 1.398 . S
C1710 C1711 1.391 . S
C1711 H1699 0.950 . S
C1711 C1707 1.393 . S
C1711 C1710 1.391 . S
H1712 C1720 0.950 . S
H1713 C1725 0.950 . S
H1714 C1722 0.950 . S
H1715 C1724 0.950 . S
H1716 C1726 0.950 . S
H1717 C1728 0.950 . S
H1718 C1730 0.950 . S
H1719 C1731 0.950 . S
C1720 H1712 0.950 . S
C1720 C1721 1.386 . S
C1720 C1722 1.391 . S
C1721 C1720 1.386 . S
C1721 C1725 1.393 . S
C1722 H1714 0.950 . S
C1722 C1720 1.391 . S
C1722 C1723 1.400 . S
C1723 C1722 1.400 . S
C1723 C1724 1.398 . S
C1723 C1729 1.491 . S
C1724 H1715 0.950 . S
C1724 C1723 1.398 . S
C1724 C1725 1.391 . S
C1725 H1713 0.950 . S
C1725 C1721 1.393 . S
C1725 C1724 1.391 . S
C1726 H1716 0.950 . S
C1726 C1727 1.386 . S
C1726 C1728 1.391 . S
C1727 C1726 1.386 . S
C1727 C1731 1.393 . S
C1728 H1717 0.950 . S
C1728 C1726 1.391 . S
C1728 C1729 1.400 . S
C1729 C1723 1.491 . S
C1729 C1728 1.400 . S
C1729 C1730 1.398 . S
C1730 H1718 0.950 . S
C1730 C1729 1.398 . S
C1730 C1731 1.391 . S
C1731 H1719 0.950 . S
C1731 C1727 1.393 . S
C1731 C1730 1.391 . S
H1732 C1740 0.950 . S
H1733 C1745 0.950 . S
H1734 C1742 0.950 . S
H1735 C1744 0.950 . S
H1736 C1746 0.950 . S
H1737 C1748 0.950 . S
H1738 C1750 0.950 . S
H1739 C1751 0.950 . S
C1740 H1732 0.950 . S
C1740 C1741 1.386 . S
C1740 C1742 1.391 . S
C1741 C1740 1.386 . S
C1741 C1745 1.393 . S
C1742 H1734 0.950 . S
C1742 C1740 1.391 . S
C1742 C1743 1.400 . S
C1743 C1742 1.400 . S
C1743 C1744 1.398 . S
C1743 C1749 1.491 . S
C1744 H1735 0.950 . S
C1744 C1743 1.398 . S
C1744 C1745 1.391 . S
C1745 H1733 0.950 . S
C1745 C1741 1.393 . S
C1745 C1744 1.391 . S
C1746 H1736 0.950 . S
C1746 C1747 1.386 . S
C1746 C1748 1.391 . S
C1747 C1746 1.386 . S
C1747 C1751 1.393 . S
C1748 H1737 0.950 . S
C1748 C1746 1.391 . S
C1748 C1749 1.400 . S
C1749 C1743 1.491 . S
C1749 C1748 1.400 . S
C1749 C1750 1.398 . S
C1750 H1738 0.950 . S
C1750 C1749 1.398 . S
C1750 C1751 1.391 . S
C1751 H1739 0.950 . S
C1751 C1747 1.393 . S
C1751 C1750 1.391 . S
H1752 C1760 0.950 . S
H1753 C1765 0.950 . S
H1754 C1762 0.950 . S
H1755 C1764 0.950 . S
H1756 C1766 0.950 . S
H1757 C1768 0.950 . S
H1758 C1770 0.950 . S
H1759 C1771 0.950 . S
C1760 H1752 0.950 . S
C1760 C1761 1.386 . S
C1760 C1762 1.391 . S
C1761 C1760 1.386 . S
C1761 C1765 1.393 . S
C1762 H1754 0.950 . S
C1762 C1760 1.391 . S
C1762 C1763 1.400 . S
C1763 C1762 1.400 . S
C1763 C1764 1.398 . S
C1763 C1769 1.491 . S
C1764 H1755 0.950 . S
C1764 C1763 1.398 . S
C1764 C1765 1.391 . S
C1765 H1753 0.950 . S
C1765 C1761 1.393 . S
C1765 C1764 1.391 . S
C1766 H1756 0.950 . S
C1766 C1767 1.386 . S
C1766 C1768 1.391 . S
C1767 C1766 1.386 . S
C1767 C1771 1.393 . S
C1768 H1757 0.950 . S
C1768 C1766 1.391 . S
C1768 C1769 1.400 . S
C1769 C1763 1.491 . S
C1769 C1768 1.400 . S
C1769 C1770 1.398 . S
C1770 H1758 0.950 . S
C1770 C1769 1.398 . S
C1770 C1771 1.391 . S
C1771 H1759 0.950 . S
C1771 C1767 1.393 . S
C1771 C1770 1.391 . S
H1772 C1780 0.950 . S
H1773 C1785 0.950 . S
H1774 C1782 0.950 . S
H1775 C1784 0.950 . S
H1776 C1786 0.950 . S
H1777 C1788 0.950 . S
H1778 C1790 0.950 . S
H1779 C1791 0.950 . S
C1780 H1772 0.950 . S
C1780 C1781 1.386 . S
C1780 C1782 1.391 . S
C1781 C1780 1.386 . S
C1781 C1785 1.393 . S
C1782 H1774 0.950 . S
C1782 C1780 1.391 . S
C1782 C1783 1.400 . S
C1783 C1782 1.400 . S
C1783 C1784 1.398 . S
C1783 C1789 1.491 . S
C1784 H1775 0.950 . S
C1784 C1783 1.398 . S
C1784 C1785 1.391 . S
C1785 H1773 0.950 . S
C1785 C1781 1.393 . S
C1785 C1784 1.391 . S
C1786 H1776 0.950 . S
C1786 C1787 1.386 . S
C1786 C1788 1.391 . S
C1787 C1786 1.386 . S
C1787 C1791 1.393 . S
C1788 H1777 0.950 . S
C1788 C1786 1.391 . S
C1788 C1789 1.400 . S
C1789 C1783 1.491 . S
C1789 C1788 1.400 . S
C1789 C1790 1.398 . S
C1790 H1778 0.950 . S
C1790 C1789 1.398 . S
C1790 C1791 1.391 . S
C1791 H1779 0.950 . S
C1791 C1787 1.393 . S
C1791 C1790 1.391 . S
H1792 C1800 0.950 . S
H1793 C1805 0.950 . S
H1794 C1802 0.950 . S
H1795 C1804 0.950 . S
H1796 C1806 0.950 . S
H1797 C1808 0.950 . S
H1798 C1810 0.950 . S
H1799 C1811 0.950 . S
C1800 H1792 0.950 . S
C1800 C1801 1.386 . S
C1800 C1802 1.391 . S
C1801 C1800 1.386 . S
C1801 C1805 1.393 . S
C1802 H1794 0.950 . S
C1802 C1800 1.391 . S
C1802 C1803 1.400 . S
C1803 C1802 1.400 . S
C1803 C1804 1.398 . S
C1803 C1809 1.491 . S
C1804 H1795 0.950 . S
C1804 C1803 1.398 . S
C1804 C1805 1.391 . S
C1805 H1793 0.950 . S
C1805 C1801 1.393 . S
C1805 C1804 1.391 . S
C1806 H1796 0.950 . S
C1806 C1807 1.386 . S
C1806 C1808 1.391 . S
C1807 C1806 1.386 . S
C1807 C1811 1.393 . S
C1808 H1797 0.950 . S
C1808 C1806 1.391 . S
C1808 C1809 1.400 . S
C1809 C1803 1.491 . S
C1809 C1808 1.400 . S
C1809 C1810 1.398 . S
C1810 H1798 0.950 . S
C1810 C1809 1.398 . S
C1810 C1811 1.391 . S
C1811 H1799 0.950 . S
C1811 C1807 1.393 . S
C1811 C1810 1.391 . S
H1812 C1820 0.950 . S
H1813 C1825 0.950 . S
H1814 C1822 0.950 . S
H1815 C1824 0.950 . S
H1816 C1826 0.950 . S
H1817 C1828 0.950 . S
H1818 C1830 0.950 . S
H1819 C1831 0.950 . S
C1820 H1812 0.950 . S
C1820 C1821 1.386 . S
C1820 C1822 1.391 . S
C1821 C1820 1.386 . S
C1821 C1825 1.393 . S
C1822 H1814 0.950 . S
C1822 C1820 1.391 . S
C1822 C1823 1.400 . S
C1823 C1822 1.400 . S
C1823 C1824 1.398 . S
C1823 C1829 1.491 . S
C1824 H1815 0.950 . S
C1824 C1823 1.398 . S
C1824 C1825 1.391 . S
C1825 H1813 0.950 . S
C1825 C1821 1.393 . S
C1825 C1824 1.391 . S
C1826 H1816 0.950 . S
C1826 C1827 1.386 . S
C1826 C1828 1.391 . S
C1827 C1826 1.386 . S
C1827 C1831 1.393 . S
C1828 H1817 0.950 . S
C1828 C1826 1.391 . S
C1828 C1829 1.400 . S
C1829 C1823 1.491 . S
C1829 C1828 1.400 . S
C1829 C1830 1.398 . S
C1830 H1818 0.950 . S
C1830 C1829 1.398 . S
C1830 C1831 1.391 . S
C1831 H1819 0.950 . S
C1831 C1827 1.393 . S
C1831 C1830 1.391 . S
H1832 C1840 0.950 . S
H1833 C1845 0.950 . S
H1834 C1842 0.950 . S
H1835 C1844 0.950 . S
H1836 C1846 0.950 . S
H1837 C1848 0.950 . S
H1838 C1850 0.950 . S
H1839 C1851 0.950 . S
C1840 H1832 0.950 . S
C1840 C1841 1.386 . S
C1840 C1842 1.391 . S
C1841 C1840 1.386 . S
C1841 C1845 1.393 . S
C1842 H1834 0.950 . S
C1842 C1840 1.391 . S
C1842 C1843 1.400 . S
C1843 C1842 1.400 . S
C1843 C1844 1.398 . S
C1843 C1849 1.491 . S
C1844 H1835 0.950 . S
C1844 C1843 1.398 . S
C1844 C1845 1.391 . S
C1845 H1833 0.950 . S
C1845 C1841 1.393 . S
C1845 C1844 1.391 . S
C1846 H1836 0.950 . S
C1846 C1847 1.386 . S
C1846 C1848 1.391 . S
C1847 C1846 1.386 . S
C1847 C1851 1.393 . S
C1848 H1837 0.950 . S
C1848 C1846 1.391 . S
C1848 C1849 1.400 . S
C1849 C1843 1.491 . S
C1849 C1848 1.400 . S
C1849 C1850 1.398 . S
C1850 H1838 0.950 . S
C1850 C1849 1.398 . S
C1850 C1851 1.391 . S
C1851 H1839 0.950 . S
C1851 C1847 1.393 . S
C1851 C1850 1.391 . S
H1852 C1860 0.950 . S
H1853 C1865 0.950 . S
H1854 C1862 0.950 . S
H1855 C1864 0.950 . S
H1856 C1866 0.950 . S
H1857 C1868 0.950 . S
H1858 C1870 0.950 . S
H1859 C1871 0.950 . S
C1860 H1852 0.950 . S
C1860 C1861 1.386 . S
C1860 C1862 1.391 . S
C1861 C1860 1.386 . S
C1861 C1865 1.393 . S
C1862 H1854 0.950 . S
C1862 C1860 1.391 . S
C1862 C1863 1.400 . S
C1863 C1862 1.400 . S
C1863 C1864 1.398 . S
C1863 C1869 1.491 . S
C1864 H1855 0.950 . S
C1864 C1863 1.398 . S
C1864 C1865 1.391 . S
C1865 H1853 0.950 . S
C1865 C1861 1.393 . S
C1865 C1864 1.391 . S
C1866 H1856 0.950 . S
C1866 C1867 1.386 . S
C1866 C1868 1.391 . S
C1867 C1866 1.386 . S
C1867 C1871 1.393 . S
C1868 H1857 0.950 . S
C1868 C1866 1.391 . S
C1868 C1869 1.400 . S
C1869 C1863 1.491 . S
C1869 C1868 1.400 . S
C1869 C1870 1.398 . S
C1870 H1858 0.950 . S
C1870 C1869 1.398 . S
C1870 C1871 1.391 . S
C1871 H1859 0.950 . S
C1871 C1867 1.393 . S
C1871 C1870 1.391 . S
H1872 C1880 0.950 . S
H1873 C1885 0.950 . S
H1874 C1882 0.950 . S
H1875 C1884 0.950 . S
H1876 C1886 0.950 . S
H1877 C1888 0.950 . S
H1878 C1890 0.950 . S
H1879 C1891 0.950 . S
C1880 H1872 0.950 . S
C1880 C1881 1.386 . S
C1880 C1882 1.391 . S
C1881 C1880 1.386 . S
C1881 C1885 1.393 . S
C1882 H1874 0.950 . S
C1882 C1880 1.391 . S
C1882 C1883 1.400 . S
C1883 C1882 1.400 . S
C1883 C1884 1.398 . S
C1883 C1889 1.491 . S
C1884 H1875 0.950 . S
C1884 C1883 1.398 . S
C1884 C1885 1.391 . S
C1885 H1873 0.950 . S
C1885 C1881 1.393 . S
C1885 C1884 1.391 . S
C1886 H1876 0.950 . S
C1886 C1887 1.386 . S
C1886 C1888 1.391 . S
C1887 C1886 1.386 . S
C1887 C1891 1.393 . S
C1888 H1877 0.950 . S
C1888 C1886 1.391 . S
C1888 C1889 1.400 . S
C1889 C1883 1.491 . S
C1889 C1888 1.400 . S
C1889 C1890 1.398 . S
C1890 H1878 0.950 . S
C1890 C1889 1.398 . S
C1890 C1891 1.391 . S
C1891 H1879 0.950 . S
C1891 C1887 1.393 . S
C1891 C1890 1.391 . S
H1892 C1900 0.950 . S
H1893 C1905 0.950 . S
H1894 C1902 0.950 . S
H1895 C1904 0.950 . S
H1896 C1906 0.950 . S
H1897 C1908 0.950 . S
H1898 C1910 0.950 . S
H1899 C1911 0.950 . S
C1900 H1892 0.950 . S
C1900 C1901 1.386 . S
C1900 C1902 1.391 . S
C1901 C1900 1.386 . S
C1901 C1905 1.393 . S
C1902 H1894 0.950 . S
C1902 C1900 1.391 . S
C1902 C1903 1.400 . S
C1903 C1902 1.400 . S
C1903 C1904 1.398 . S
C1903 C1909 1.491 . S
C1904 H1895 0.950 . S
C1904 C1903 1.398 . S
C1904 C1905 1.391 . S
C1905 H1893 0.950 . S
C1905 C1901 1.393 . S
C1905 C1904 1.391 . S
C1906 H1896 0.950 . S
C1906 C1907 1.386 . S
C1906 C1908 1.391 . S
C1907 C1906 1.386 . S
C1907 C1911 1.393 . S
C1908 H1897 0.950 . S
C1908 C1906 1.391 . S
C1908 C1909 1.400 . S
C1909 C1903 1.491 . S
C1909 C1908 1.400 . S
C1909 C1910 1.398 . S
C1910 H1898 0.950 . S
C1910 C1909 1.398 . S
C1910 C1911 1.391 . S
C1911 H1899 0.950 . S
C1911 C1907 1.393 . S
C1911 C1910 1.391 . S
H1912 C1920 0.950 . S
H1913 C1925 0.950 . S
H1914 C1922 0.950 . S
H1915 C1924 0.950 . S
H1916 C1926 0.950 . S
H1917 C1928 0.950 . S
H1918 C1930 0.950 . S
H1919 C1931 0.950 . S
C1920 H1912 0.950 . S
C1920 C1921 1.386 . S
C1920 C1922 1.391 . S
C1921 C1920 1.386 . S
C1921 C1925 1.393 . S
C1922 H1914 0.950 . S
C1922 C1920 1.391 . S
C1922 C1923 1.400 . S
C1923 C1922 1.400 . S
C1923 C1924 1.398 . S
C1923 C1929 1.491 . S
C1924 H1915 0.950 . S
C1924 C1923 1.398 . S
C1924 C1925 1.391 . S
C1925 H1913 0.950 . S
C1925 C1921 1.393 . S
C1925 C1924 1.391 . S
C1926 H1916 0.950 . S
C1926 C1927 1.386 . S
C1926 C1928 1.391 . S
C1927 C1926 1.386 . S
C1927 C1931 1.393 . S
C1928 H1917 0.950 . S
C1928 C1926 1.391 . S
C1928 C1929 1.400 . S
C1929 C1923 1.491 . S
C1929 C1928 1.400 . S
C1929 C1930 1.398 . S
C1930 H1918 0.950 . S
C1930 C1929 1.398 . S
C1930 C1931 1.391 . S
C1931 H1919 0.950 . S
C1931 C1927 1.393 . S
C1931 C1930 1.391 . S
H1932 C1940 0.950 . S
H1933 C1945 0.950 . S
H1934 C1942 0.950 . S
H1935 C1944 0.950 . S
H1936 C1946 0.950 . S
H1937 C1948 0.950 . S
H1938 C1950 0.950 . S
H1939 C1951 0.950 . S
C1940 H1932 0.950 . S
C1940 C1941 1.386 . S
C1940 C1942 1.391 . S
C1941 C1940 1.386 . S
C1941 C1945 1.393 . S
C1942 H1934 0.950 . S
C1942 C1940 1.391 . S
C1942 C1943 1.400 . S
C1943 C1942 1.400 . S
C1943 C1944 1.398 . S
C1943 C1949 1.491 . S
C1944 H1935 0.950 . S
C1944 C1943 1.398 . S
C1944 C1945 1.391 . S
C1945 H1933 0.950 . S
C1945 C1941 1.393 . S
C1945 C1944 1.391 . S
C1946 H1936 0.950 . S
C1946 C1947 1.386 . S
C1946 C1948 1.391 . S
C1947 C1946 1.386 . S
C1947 C1951 1.393 . S
C1948 H1937 0.950 . S
C1948 C1946 1.391 . S
C1948 C1949 1.400 . S
C1949 C1943 1.491 . S
C1949 C1948 1.400 . S
C1949 C1950 1.398 . S
C1950 H1938 0.950 . S
C1950 C1949 1.398 . S
C1950 C1951 1.391 . S
C1951 H1939 0.950 . S
C1951 C1947 1.393 . S
C1951 C1950 1.391 . S
H1952 C1960 0.950 . S
H1953 C1965 0.950 . S
H1954 C1962 0.950 . S
H1955 C1964 0.950 . S
H1956 C1966 0.950 . S
H1957 C1968 0.950 . S
H1958 C1970 0.950 . S
H1959 C1971 0.950 . S
C1960 H1952 0.950 . S
C1960 C1961 1.386 . S
C1960 C1962 1.391 . S
C1961 C1960 1.386 . S
C1961 C1965 1.393 . S
C1962 H1954 0.950 . S
C1962 C1960 1.391 . S
C1962 C1963 1.400 . S
C1963 C1962 1.400 . S
C1963 C1964 1.398 . S
C1963 C1969 1.491 . S
C1964 H1955 0.950 . S
C1964 C1963 1.398 . S
C1964 C1965 1.391 . S
C1965 H1953 0.950 . S
C1965 C1961 1.393 . S
C1965 C1964 1.391 . S
C1966 H1956 0.950 . S
C1966 C1967 1.386 . S
C1966 C1968 1.391 . S
C1967 C1966 1.386 . S
C1967 C1971 1.393 . S
C1968 H1957 0.950 . S
C1968 C1966 1.391 . S
C1968 C1969 1.400 . S
C1969 C1963 1.491 . S
C1969 C1968 1.400 . S
C1969 C1970 1.398 . S
C1970 H1958 0.950 . S
C1970 C1969 1.398 . S
C1970 C1971 1.391 . S
C1971 H1959 0.950 . S
C1971 C1967 1.393 . S
C1971 C1970 1.391 . S
H1972 C1980 0.950 . S
H1973 C1985 0.950 . S
H1974 C1982 0.950 . S
H1975 C1984 0.950 . S
H1976 C1986 0.950 . S
H1977 C1988 0.950 . S
H1978 C1990 0.950 . S
H1979 C1991 0.950 . S
C1980 H1972 0.950 . S
C1980 C1981 1.386 . S
C1980 C1982 1.391 . S
C1981 C1980 1.386 . S
C1981 C1985 1.393 . S
C1982 H1974 0.950 . S
C1982 C1980 1.391 . S
C1982 C1983 1.400 . S
C1983 C1982 1.400 . S
C1983 C1984 1.398 . S
C1983 C1989 1.491 . S
C1984 H1975 0.950 . S
C1984 C1983 1.398 . S
C1984 C1985 1.391 . S
C1985 H1973 0.950 . S
C1985 C1981 1.393 . S
C1985 C1984 1.391 . S
C1986 H1976 0.950 . S
C1986 C1987 1.386 . S
C1986 C1988 1.391 . S
C1987 C1986 1.386 . S
C1987 C1991 1.393 . S
C1988 H1977 0.950 . S
C1988 C1986 1.391 . S
C1988 C1989 1.400 . S
C1989 C1983 1.491 . S
C1989 C1988 1.400 . S
C1989 C1990 1.398 . S
C1990 H1978 0.950 . S
C1990 C1989 1.398 . S
C1990 C1991 1.391 . S
C1991 H1979 0.950 . S
C1991 C1987 1.393 . S
C1991 C1990 1.391 . S
C801 N113 1.388 . S
C807 C8 1.415 . S
C821 N14 1.407 1_655 S
C827 C41 1.419 . S
C841 N47 1.390 . S
C847 C74 1.422 . S
C861 C107 1.422 . S
C867 N80 1.391 1_455 S
C881 N179 1.394 . S
C887 C140 1.423 . S
C901 N212 1.389 1_455 S
C907 C173 1.421 . S
C921 C206 1.415 . S
C927 N245 1.403 . S
C941 N146 1.392 1_655 S
C947 C239 1.422 . S
C961 C272 1.421 . S
C967 N608 1.405 . S
C981 C305 1.417 . S
C987 N641 1.386 1_554 S
C1001 N674 1.404 . S
C1007 C338 1.422 . S
C1021 N575 1.404 1_554 S
C1027 C371 1.415 . S
C1041 N740 1.407 . S
C1047 C404 1.420 . S
C1061 C437 1.414 . S
C1067 N542 1.401 1_556 S
C1081 C470 1.422 . S
C1087 N773 1.390 . S
C1101 N707 1.390 1_556 S
C1107 C503 1.414 . S
C1121 N311 1.404 . S
C1127 C536 1.415 . S
C1141 C569 1.423 . S
C1147 N509 1.393 . S
C1161 N410 1.394 1_545 S
C1167 C602 1.423 . S
C1181 N443 1.388 . S
C1187 C635 1.421 . S
C1201 N476 1.395 1_565 S
C1207 C668 1.414 . S
C1221 N377 1.387 . S
C1227 C701 1.419 . S
C1241 N278 1.387 1_565 S
C1247 C734 1.416 . S
C1261 N344 1.404 1_545 S
C1267 C767 1.422 . S
C1281 C215 1.652 . S
C1287 C17 1.655 . S
C1301 C50 1.656 . S
C1307 C248 1.656 . S
C1321 C149 1.656 . S
C1327 C83 1.656 . S
C1341 C182 1.656 . S
C1347 C116 1.655 . S
C1361 C347 1.650 . S
C1367 C281 1.648 . S
C1381 C314 1.655 . S
C1387 C380 1.656 . S
C1401 C413 1.649 . S
C1407 C479 1.648 . S
C1421 C512 1.648 . S
C1427 C446 1.649 . S
C1441 C545 1.650 . S
C1447 C578 1.648 . S
C1461 C611 1.648 . S
C1467 C776 1.648 . S
C1481 C644 1.654 . S
C1487 C710 1.651 . S
C1501 C743 1.649 . S
C1507 C677 1.652 . S
C1521 C28 1.202 . S
C1527 N269 1.217 . S
C1541 C61 1.210 . S
C1547 N302 1.212 . S
C1561 N335 1.206 . S
C1567 C94 1.214 . S
C1581 N368 1.219 . S
C1587 C127 1.195 . S
C1601 C160 1.195 . S
C1607 N401 1.219 . S
C1621 N434 1.220 . S
C1627 C193 1.197 . S
C1641 C226 1.197 . S
C1647 N467 1.217 . S
C1661 N500 1.209 . S
C1667 C259 1.214 . S
C1681 C292 1.196 . S
C1687 N533 1.218 . S
C1701 N764 1.209 . S
C1707 C325 1.214 . S
C1721 C358 1.212 . S
C1727 N698 1.206 . S
C1741 C391 1.196 . S
C1747 N731 1.220 . S
C1761 N566 1.207 . S
C1767 C424 1.211 . S
C1781 C457 1.213 . S
C1787 N599 1.206 . S
C1801 C490 1.198 . S
C1807 N632 1.219 . S
C1821 C523 1.196 . S
C1827 N665 1.220 . S
C1841 C556 1.214 . S
C1847 N5 1.206 . S
C1861 C589 1.205 . S
C1867 N137 1.210 . S
C1881 C622 1.201 . S
C1887 N170 1.213 . S
C1901 N203 1.213 . S
C1907 C655 1.209 . S
C1921 C688 1.208 . S
C1927 N236 1.208 . S
C1941 N71 1.209 . S
C1947 C721 1.207 . S
C1961 N104 1.220 . S
C1967 C754 1.195 . S
C1981 C787 1.206 . S
C1987 N38 1.215 . S
