# Generated by pormake.
# Topology lcy-a-x, (5)-cn, num edge types: 1
# Building blocks:
#     Node 0, Type 0, BuildingBlock: XOMCOT_clean_sbu_1, # of connection points: 5
#     Node 1, Type 0, BuildingBlock: XOMCOT_clean_sbu_1, # of connection points: 5
#     Node 2, Type 0, BuildingBlock: XOMCOT_clean_sbu_1, # of connection points: 5
#     Node 3, Type 0, BuildingBlock: XOMCOT_clean_sbu_1, # of connection points: 5
#     Node 4, Type 0, BuildingBlock: XOMCOT_clean_sbu_1, # of connection points: 5
#     Node 5, Type 0, BuildingBlock: XOMCOT_clean_sbu_1, # of connection points: 5
#     Node 6, Type 0, BuildingBlock: XOMCOT_clean_sbu_1, # of connection points: 5
#     Node 7, Type 0, BuildingBlock: XOMCOT_clean_sbu_1, # of connection points: 5
#     Node 8, Type 0, BuildingBlock: XOMCOT_clean_sbu_1, # of connection points: 5
#     Node 9, Type 0, BuildingBlock: XOMCOT_clean_sbu_1, # of connection points: 5
#     Node 10, Type 0, BuildingBlock: XOMCOT_clean_sbu_1, # of connection points: 5
#     Node 11, Type 0, BuildingBlock: XOMCOT_clean_sbu_1, # of connection points: 5
#     Node 12, Type 0, BuildingBlock: XOMCOT_clean_sbu_1, # of connection points: 5
#     Node 13, Type 0, BuildingBlock: XOMCOT_clean_sbu_1, # of connection points: 5
#     Node 14, Type 0, BuildingBlock: XOMCOT_clean_sbu_1, # of connection points: 5
#     Node 15, Type 0, BuildingBlock: XOMCOT_clean_sbu_1, # of connection points: 5
#     Node 16, Type 0, BuildingBlock: XOMCOT_clean_sbu_1, # of connection points: 5
#     Node 17, Type 0, BuildingBlock: XOMCOT_clean_sbu_1, # of connection points: 5
#     Node 18, Type 0, BuildingBlock: XOMCOT_clean_sbu_1, # of connection points: 5
#     Node 19, Type 0, BuildingBlock: XOMCOT_clean_sbu_1, # of connection points: 5
#     Node 20, Type 0, BuildingBlock: XOMCOT_clean_sbu_1, # of connection points: 5
#     Node 21, Type 0, BuildingBlock: XOMCOT_clean_sbu_1, # of connection points: 5
#     Node 22, Type 0, BuildingBlock: XOMCOT_clean_sbu_1, # of connection points: 5
#     Node 23, Type 0, BuildingBlock: XOMCOT_clean_sbu_1, # of connection points: 5
#     Edge 24, Type (0, 0), BuildingBlock: TEMPAE_clean_linker_10, # of connection points: 2
#     Edge 25, Type (0, 0), BuildingBlock: TEMPAE_clean_linker_10, # of connection points: 2
#     Edge 26, Type (0, 0), BuildingBlock: TEMPAE_clean_linker_10, # of connection points: 2
#     Edge 27, Type (0, 0), BuildingBlock: TEMPAE_clean_linker_10, # of connection points: 2
#     Edge 28, Type (0, 0), BuildingBlock: TEMPAE_clean_linker_10, # of connection points: 2
#     Edge 29, Type (0, 0), BuildingBlock: TEMPAE_clean_linker_10, # of connection points: 2
#     Edge 30, Type (0, 0), BuildingBlock: TEMPAE_clean_linker_10, # of connection points: 2
#     Edge 31, Type (0, 0), BuildingBlock: TEMPAE_clean_linker_10, # of connection points: 2
#     Edge 32, Type (0, 0), BuildingBlock: TEMPAE_clean_linker_10, # of connection points: 2
#     Edge 33, Type (0, 0), BuildingBlock: TEMPAE_clean_linker_10, # of connection points: 2
#     Edge 34, Type (0, 0), BuildingBlock: TEMPAE_clean_linker_10, # of connection points: 2
#     Edge 35, Type (0, 0), BuildingBlock: TEMPAE_clean_linker_10, # of connection points: 2
#     Edge 36, Type (0, 0), BuildingBlock: TEMPAE_clean_linker_10, # of connection points: 2
#     Edge 37, Type (0, 0), BuildingBlock: TEMPAE_clean_linker_10, # of connection points: 2
#     Edge 38, Type (0, 0), BuildingBlock: TEMPAE_clean_linker_10, # of connection points: 2
#     Edge 39, Type (0, 0), BuildingBlock: TEMPAE_clean_linker_10, # of connection points: 2
#     Edge 40, Type (0, 0), BuildingBlock: TEMPAE_clean_linker_10, # of connection points: 2
#     Edge 41, Type (0, 0), BuildingBlock: TEMPAE_clean_linker_10, # of connection points: 2
#     Edge 42, Type (0, 0), BuildingBlock: TEMPAE_clean_linker_10, # of connection points: 2
#     Edge 43, Type (0, 0), BuildingBlock: TEMPAE_clean_linker_10, # of connection points: 2
#     Edge 44, Type (0, 0), BuildingBlock: TEMPAE_clean_linker_10, # of connection points: 2
#     Edge 45, Type (0, 0), BuildingBlock: TEMPAE_clean_linker_10, # of connection points: 2
#     Edge 46, Type (0, 0), BuildingBlock: TEMPAE_clean_linker_10, # of connection points: 2
#     Edge 47, Type (0, 0), BuildingBlock: TEMPAE_clean_linker_10, # of connection points: 2
#     Edge 48, Type (0, 0), BuildingBlock: TEMPAE_clean_linker_10, # of connection points: 2
#     Edge 49, Type (0, 0), BuildingBlock: TEMPAE_clean_linker_10, # of connection points: 2
#     Edge 50, Type (0, 0), BuildingBlock: TEMPAE_clean_linker_10, # of connection points: 2
#     Edge 51, Type (0, 0), BuildingBlock: TEMPAE_clean_linker_10, # of connection points: 2
#     Edge 52, Type (0, 0), BuildingBlock: TEMPAE_clean_linker_10, # of connection points: 2
#     Edge 53, Type (0, 0), BuildingBlock: TEMPAE_clean_linker_10, # of connection points: 2
#     Edge 54, Type (0, 0), BuildingBlock: TEMPAE_clean_linker_10, # of connection points: 2
#     Edge 55, Type (0, 0), BuildingBlock: TEMPAE_clean_linker_10, # of connection points: 2
#     Edge 56, Type (0, 0), BuildingBlock: TEMPAE_clean_linker_10, # of connection points: 2
#     Edge 57, Type (0, 0), BuildingBlock: TEMPAE_clean_linker_10, # of connection points: 2
#     Edge 58, Type (0, 0), BuildingBlock: TEMPAE_clean_linker_10, # of connection points: 2
#     Edge 59, Type (0, 0), BuildingBlock: TEMPAE_clean_linker_10, # of connection points: 2
#     Edge 60, Type (0, 0), BuildingBlock: TEMPAE_clean_linker_10, # of connection points: 2
#     Edge 61, Type (0, 0), BuildingBlock: TEMPAE_clean_linker_10, # of connection points: 2
#     Edge 62, Type (0, 0), BuildingBlock: TEMPAE_clean_linker_10, # of connection points: 2
#     Edge 63, Type (0, 0), BuildingBlock: TEMPAE_clean_linker_10, # of connection points: 2
#     Edge 64, Type (0, 0), BuildingBlock: TEMPAE_clean_linker_10, # of connection points: 2
#     Edge 65, Type (0, 0), BuildingBlock: TEMPAE_clean_linker_10, # of connection points: 2
#     Edge 66, Type (0, 0), BuildingBlock: TEMPAE_clean_linker_10, # of connection points: 2
#     Edge 67, Type (0, 0), BuildingBlock: TEMPAE_clean_linker_10, # of connection points: 2
#     Edge 68, Type (0, 0), BuildingBlock: TEMPAE_clean_linker_10, # of connection points: 2
#     Edge 69, Type (0, 0), BuildingBlock: TEMPAE_clean_linker_10, # of connection points: 2
#     Edge 70, Type (0, 0), BuildingBlock: TEMPAE_clean_linker_10, # of connection points: 2
#     Edge 71, Type (0, 0), BuildingBlock: TEMPAE_clean_linker_10, # of connection points: 2
#     Edge 72, Type (0, 0), BuildingBlock: TEMPAE_clean_linker_10, # of connection points: 2
#     Edge 73, Type (0, 0), BuildingBlock: TEMPAE_clean_linker_10, # of connection points: 2
#     Edge 74, Type (0, 0), BuildingBlock: TEMPAE_clean_linker_10, # of connection points: 2
#     Edge 75, Type (0, 0), BuildingBlock: TEMPAE_clean_linker_10, # of connection points: 2
#     Edge 76, Type (0, 0), BuildingBlock: TEMPAE_clean_linker_10, # of connection points: 2
#     Edge 77, Type (0, 0), BuildingBlock: TEMPAE_clean_linker_10, # of connection points: 2
#     Edge 78, Type (0, 0), BuildingBlock: TEMPAE_clean_linker_10, # of connection points: 2
#     Edge 79, Type (0, 0), BuildingBlock: TEMPAE_clean_linker_10, # of connection points: 2
#     Edge 80, Type (0, 0), BuildingBlock: TEMPAE_clean_linker_10, # of connection points: 2
#     Edge 81, Type (0, 0), BuildingBlock: TEMPAE_clean_linker_10, # of connection points: 2
#     Edge 82, Type (0, 0), BuildingBlock: TEMPAE_clean_linker_10, # of connection points: 2
#     Edge 83, Type (0, 0), BuildingBlock: TEMPAE_clean_linker_10, # of connection points: 2
# Relax obj value: 0.878
# Max RMSD: 0.223
# Mean RMSD: 0.223
data_MOF--net-lcy-a-x--node1-XOMCOT_clean_sbu_1--edge1-TEMPAE_clean_linker_10
_symmetry_space_group_name_H-M    P1
_symmetry_Int_Tables_number       1
_symmetry_cell_setting            triclinic
loop_
_symmetry_equiv_pos_as_xyz
'x, y, z'
_cell_length_a     58.508985
_cell_length_b     58.511753
_cell_length_c     58.511095
_cell_angle_alpha  90.005461
_cell_angle_beta   89.999839
_cell_angle_gamma 90.020284
loop_
_atom_site_label
_atom_site_type_symbol
_atom_site_fract_x
_atom_site_fract_y
_atom_site_fract_z
_atom_type_partial_charge
C0 C 0.01529 0.0252 0.74933 0.0
C1 C 0.9927 0.02513 0.75611 0.0
N2 N 0.98014 0.03547 0.73975 0.0
N3 N 0.01686 0.03531 0.72872 0.0
C4 C 0.99528 0.04144 0.72339 0.0
H5 H 0.0297 0.01882 0.75899 0.0
Co6 Co 0.04295 0.04262 0.71223 0.0
C7 C 0.03135 0.02868 0.6654 0.0
O8 O 0.05192 0.0198 0.66355 0.0
N9 N 0.06932 0.05184 0.69622 0.0
C10 C 0.10311 0.06829 0.6893 0.0
C11 C 0.09071 0.05511 0.70445 0.0
C12 C 0.06906 0.06396 0.67659 0.0
N13 N 0.08936 0.07352 0.67169 0.0
O14 O 0.0343 0.07371 0.71442 0.0
H15 H 0.0963 0.05036 0.72139 0.0
H16 H 0.05368 0.06791 0.66715 0.0
O17 O 0.02576 0.03957 0.68355 0.0
C18 C 0.04414 0.08711 0.72836 0.0
O19 O 0.06165 0.07976 0.74032 0.0
N20 N 0.05078 0.01101 0.7105 0.0
C21 C 0.06056 0.96497 0.70296 0.0
C22 C 0.03836 0.97324 0.70028 0.0
C23 C 0.03376 0.99608 0.70448 0.0
C24 C 0.07216 0.00283 0.71504 0.0
C25 C 0.07751 0.97983 0.71113 0.0
H26 H 0.01645 0.00189 0.70187 0.0
H27 H 0.08525 0.01389 0.72163 0.0
H28 H 0.99088 0.05045 0.70787 0.0
H29 H 0.98622 0.01872 0.77219 0.0
H30 H 0.1203 0.07471 0.6917 0.0
H31 H 0.02451 0.96211 0.69503 0.0
H32 H 0.09475 0.97382 0.71419 0.0
C33 C 0.24631 0.80748 0.99311 0.0
C34 C 0.24627 0.78638 0.0037 0.0
N35 N 0.25039 0.77012 0.98781 0.0
N36 N 0.25072 0.80457 0.97072 0.0
C37 C 0.25299 0.78177 0.96805 0.0
H38 H 0.24288 0.8238 0.00109 0.0
Co39 Co 0.25035 0.82572 0.94677 0.0
C40 C 0.29324 0.80862 0.92304 0.0
O41 O 0.30562 0.82686 0.92718 0.0
N42 N 0.24899 0.84649 0.92185 0.0
C43 C 0.2568 0.86703 0.89063 0.0
C44 C 0.26565 0.85772 0.91034 0.0
C45 C 0.23009 0.85027 0.90916 0.0
N46 N 0.23437 0.86217 0.88996 0.0
O47 O 0.22672 0.80757 0.93349 0.0
H48 H 0.28333 0.85864 0.91531 0.0
H49 H 0.21364 0.84276 0.91264 0.0
O50 O 0.27255 0.80734 0.92996 0.0
C51 C 0.20681 0.81032 0.94171 0.0
O52 O 0.20303 0.82828 0.95467 0.0
N53 N 0.27338 0.84316 0.96126 0.0
C54 C 0.31008 0.86818 0.97782 0.0
C55 C 0.30958 0.84442 0.9802 0.0
C56 C 0.29111 0.83222 0.97181 0.0
C57 C 0.27219 0.8665 0.96169 0.0
C58 C 0.29091 0.87946 0.96908 0.0
H59 H 0.29203 0.81379 0.97218 0.0
H60 H 0.25735 0.87517 0.95491 0.0
H61 H 0.25537 0.77389 0.95154 0.0
H62 H 0.24303 0.7834 0.02164 0.0
H63 H 0.26634 0.87544 0.8772 0.0
H64 H 0.32421 0.83515 0.98679 0.0
H65 H 0.29074 0.89788 0.96729 0.0
C66 C 0.52348 0.98165 0.25956 0.0
C67 C 0.5439 0.97974 0.27122 0.0
N68 N 0.56087 0.98709 0.25744 0.0
N69 N 0.52759 0.99039 0.23867 0.0
C70 C 0.55045 0.99331 0.23784 0.0
H71 H 0.50677 0.97672 0.26575 0.0
Co72 Co 0.50702 0.9951 0.21484 0.0
C73 C 0.53223 0.03766 0.19653 0.0
O74 O 0.51936 0.05396 0.20499 0.0
N75 N 0.48683 -0.0006 0.19036 0.0
C76 C 0.46911 0.01439 0.16022 0.0
C77 C 0.48027 0.01918 0.18035 0.0
C78 C 0.47865 0.98296 0.17649 0.0
N79 N 0.46814 0.99156 0.15792 0.0
O80 O 0.52257 0.97178 0.19859 0.0
H81 H 0.48443 0.03604 0.18652 0.0
H82 H 0.48227 0.96499 0.17862 0.0
O83 O 0.52764 0.01668 0.20035 0.0
C84 C 0.51794 0.95141 0.20444 0.0
O85 O 0.49964 0.94787 0.217 0.0
N86 N 0.49171 0.01735 0.23199 0.0
C87 C 0.46769 0.0512 0.25482 0.0
C88 C 0.4916 0.05036 0.25601 0.0
C89 C 0.50329 0.03316 0.2446 0.0
C90 C 0.4684 0.01634 0.23295 0.0
C91 C 0.45596 0.03357 0.24375 0.0
H92 H 0.52176 0.03327 0.24494 0.0
H93 H 0.45932 0.00268 0.22442 0.0
H94 H 0.5593 -0.00012 0.22303 0.0
H95 H 0.54608 0.97297 0.28829 0.0
H96 H 0.46373 0.02665 0.14745 0.0
H97 H 0.50129 0.06374 0.26439 0.0
H98 H 0.43746 0.03353 0.24284 0.0
C99 C 0.26213 0.28606 0.51488 0.0
C100 C 0.25469 0.30611 0.5249 0.0
N101 N 0.26602 0.32363 0.51514 0.0
N102 N 0.27809 0.29108 0.49904 0.0
C103 C 0.28013 0.31401 0.49972 0.0
H104 H 0.25665 0.26893 0.51919 0.0
Co105 Co 0.29584 0.27162 0.48146 0.0
C106 C 0.29799 0.29437 0.43595 0.0
O107 O 0.29783 0.27457 0.42533 0.0
N108 N 0.31486 0.25225 0.46416 0.0
C109 C 0.33432 0.22441 0.44692 0.0
C110 C 0.31518 0.22958 0.45968 0.0
C111 C 0.33433 0.26013 0.45459 0.0
N112 N 0.34634 0.24378 0.44374 0.0
O113 O 0.32246 0.28363 0.4953 0.0
H114 H 0.30274 0.21726 0.46539 0.0
H115 H 0.33917 0.27795 0.45497 0.0
O116 O 0.29756 0.29516 0.45777 0.0
C117 C 0.32871 0.27666 0.51487 0.0
O118 O 0.31532 0.26285 0.52645 0.0
N119 N 0.26914 0.25935 0.46862 0.0
C120 C 0.22832 0.24008 0.4535 0.0
C121 C 0.23402 0.26257 0.44776 0.0
C122 C 0.25417 0.27208 0.45599 0.0
C123 C 0.26328 0.23787 0.47541 0.0
C124 C 0.24316 0.22767 0.46765 0.0
H125 H 0.25696 0.29004 0.4531 0.0
H126 H 0.27391 0.22888 0.48755 0.0
H127 H 0.29256 0.32346 0.4898 0.0
H128 H 0.24214 0.30767 0.53841 0.0
H129 H 0.33901 0.20767 0.44064 0.0
H130 H 0.22234 0.27324 0.43814 0.0
H131 H 0.2389 0.21054 0.47325 0.0
C132 C 0.54896 0.55227 0.32598 0.0
C133 C 0.53052 0.55713 0.31207 0.0
N134 N 0.51183 0.54724 0.32121 0.0
N135 N 0.54179 0.53932 0.34364 0.0
C136 C 0.51918 0.53658 0.34023 0.0
H137 H 0.56657 0.55702 0.32294 0.0
Co138 Co 0.5589 0.52432 0.36564 0.0
C139 C 0.5327 0.53063 0.40842 0.0
O140 O 0.55203 0.5339 0.41942 0.0
N141 N 0.57584 0.50788 0.38761 0.0
C142 C 0.60076 0.4902 0.4104 0.0
C143 C 0.59791 0.50738 0.39446 0.0
C144 C 0.56603 0.49044 0.39912 0.0
N145 N 0.58056 0.47954 0.4132 0.0
O146 O 0.54786 0.49603 0.35469 0.0
H147 H 0.61141 0.51825 0.38824 0.0
H148 H 0.54812 0.48616 0.39752 0.0
O149 O 0.53303 0.52635 0.38697 0.0
C150 C 0.55628 0.48754 0.33658 0.0
O151 O 0.57066 0.49968 0.32434 0.0
N152 N 0.57047 0.55254 0.3755 0.0
C153 C 0.5893 0.59428 0.38817 0.0
C154 C 0.56588 0.59025 0.39072 0.0
C155 C 0.55668 0.56957 0.38357 0.0
C156 C 0.59297 0.55682 0.37127 0.0
C157 C 0.6029 0.57749 0.37786 0.0
H158 H 0.53835 0.56762 0.38394 0.0
H159 H 0.6031 0.5444 0.36212 0.0
H160 H 0.50854 0.52564 0.35068 0.0
H161 H 0.53093 0.56662 0.29619 0.0
H162 H 0.61653 0.48577 0.41897 0.0
H163 H 0.55455 0.60345 0.39708 0.0
H164 H 0.62083 0.58055 0.37443 0.0
C165 C 0.81178 0.28157 0.538 0.0
C166 C 0.80955 0.25919 0.53077 0.0
N167 N 0.80973 0.2455 0.54932 0.0
N168 N 0.81302 0.28187 0.56099 0.0
C169 C 0.81177 0.25973 0.56732 0.0
H170 H 0.81308 0.29654 0.52723 0.0
Co171 Co 0.81921 0.30582 0.5809 0.0
C172 C 0.78371 0.29957 0.61659 0.0
O173 O 0.77805 0.32128 0.61538 0.0
N174 N 0.82708 0.32918 0.60158 0.0
C175 C 0.84699 0.35685 0.6187 0.0
C176 C 0.83911 0.34861 0.59807 0.0
C177 C 0.82889 0.32561 0.62429 0.0
N178 N 0.84047 0.34221 0.63519 0.0
O179 O 0.84409 0.2886 0.59233 0.0
H180 H 0.84435 0.35497 0.58155 0.0
H181 H 0.82473 0.30952 0.63233 0.0
O182 O 0.79962 0.29164 0.60387 0.0
C183 C 0.86469 0.29284 0.58715 0.0
O184 O 0.86925 0.31056 0.57413 0.0
N185 N 0.79398 0.32259 0.56918 0.0
C186 C 0.75443 0.34808 0.5635 0.0
C187 C 0.75336 0.32421 0.56421 0.0
C188 C 0.77339 0.31173 0.5669 0.0
C189 C 0.79552 0.34539 0.56447 0.0
C190 C 0.77581 0.35869 0.5624 0.0
H191 H 0.772 0.29349 0.56938 0.0
H192 H 0.81183 0.35369 0.56334 0.0
H193 H 0.81285 0.25414 0.58491 0.0
H194 H 0.80876 0.25343 0.51321 0.0
H195 H 0.85831 0.3713 0.62102 0.0
H196 H 0.73711 0.31535 0.56482 0.0
H197 H 0.77722 0.37709 0.56094 0.0
C198 C 0.03708 0.57763 0.82268 0.0
C199 C 0.05829 0.57767 0.81237 0.0
N200 N 0.07416 0.57202 0.82816 0.0
N201 N 0.03954 0.57187 0.84481 0.0
C202 C 0.06219 0.56855 0.84759 0.0
H203 H 0.02108 0.58262 0.81488 0.0
Co204 Co 0.01785 0.57373 0.86802 0.0
C205 C 0.032 0.53366 0.89725 0.0
O206 O 0.01216 0.52325 0.89628 0.0
N207 N 0.99606 0.5764 0.89217 0.0
C208 C 0.97173 0.5691 0.92076 0.0
C209 C 0.98057 0.56124 0.90044 0.0
C210 C 0.99539 0.59369 0.9075 0.0
N211 N 0.98106 0.5896 0.92498 0.0
O212 O 0.03596 0.5975 0.8807 0.0
H213 H 0.97664 0.5448 0.89307 0.0
H214 H 0.00657 0.60834 0.90724 0.0
O215 O 0.03523 0.55242 0.88657 0.0
C216 C 0.03343 0.6172 0.87203 0.0
O217 O 0.01574 0.62076 0.85864 0.0
N218 N 0.00085 0.55056 0.85396 0.0
C219 C 0.97509 0.51551 0.83521 0.0
C220 C -0.00132 0.51296 0.83816 0.0
C221 C 0.01131 0.53078 0.8474 0.0
C222 C 0.97842 0.55432 0.84871 0.0
C223 C 0.96491 0.53661 0.84003 0.0
H224 H 0.02943 0.52838 0.85003 0.0
H225 H 0.9707 0.57067 0.85253 0.0
H226 H 0.06979 0.56459 0.86391 0.0
H227 H 0.06177 0.58268 0.79492 0.0
H228 H 0.9605 0.5599 0.93223 0.0
H229 H 0.00714 0.49692 0.83442 0.0
H230 H 0.94675 0.53918 0.83757 0.0
C231 C 0.78853 0.80505 0.05355 0.0
C232 C 0.7897 0.82432 0.04005 0.0
N233 N 0.78583 0.84286 0.05328 0.0
N234 N 0.784 0.81138 0.07519 0.0
C235 C 0.78259 0.83436 0.07453 0.0
H236 H 0.78992 0.78753 0.04783 0.0
Co237 Co 0.77705 0.79278 0.10007 0.0
C238 C 0.8046 0.81527 0.1368 0.0
O239 O 0.81425 0.79592 0.14265 0.0
N240 N 0.7691 0.77385 0.12573 0.0
C241 C 0.76895 0.75163 0.15687 0.0
C242 C 0.78196 0.76005 0.13923 0.0
C243 C 0.74812 0.77281 0.13555 0.0
N244 N 0.74764 0.75976 0.15449 0.0
O245 O 0.74817 0.80752 0.10208 0.0
H246 H 0.79997 0.75666 0.13717 0.0
H247 H 0.7334 0.78219 0.12972 0.0
O248 O 0.78984 0.81578 0.12071 0.0
C249 C 0.73413 0.80226 0.08637 0.0
O250 O 0.74069 0.78804 0.07026 0.0
N251 N 0.80516 0.77805 0.09641 0.0
C252 C 0.84627 0.75499 0.09336 0.0
C253 C 0.84589 0.77888 0.09368 0.0
C254 C 0.82506 0.79014 0.09492 0.0
C255 C 0.80513 0.75496 0.09308 0.0
C256 C 0.82569 0.74288 0.09241 0.0
H257 H 0.82495 0.8086 0.09537 0.0
H258 H 0.78909 0.74577 0.09242 0.0
H259 H 0.77841 0.84446 0.08939 0.0
H260 H 0.79209 0.82438 0.02173 0.0
H261 H 0.77485 0.74082 0.17068 0.0
H262 H 0.86159 0.78871 0.09385 0.0
H263 H 0.82555 0.72439 0.09151 0.0
C264 C 0.73586 0.03812 0.00668 0.0
C265 C 0.75072 0.02022 0.00259 0.0
N266 N 0.74121 0.00105 0.01104 0.0
N267 N 0.7173 0.03009 0.01777 0.0
C268 C 0.72119 0.00754 0.02029 0.0
H269 H 0.73874 0.05591 0.00259 0.0
Co270 Co 0.69352 0.04661 0.03052 0.0
C271 C 0.65292 0.01628 0.02778 0.0
O272 O 0.63974 0.03395 0.0235 0.0
N273 N 0.66962 0.06347 0.04439 0.0
C274 C 0.64225 0.08794 0.05472 0.0
C275 C 0.65869 0.08304 0.03861 0.0
C276 C 0.65967 0.05719 0.06431 0.0
N277 N 0.64306 0.07167 0.07089 0.0
O278 O 0.70488 0.03882 0.05974 0.0
H279 H 0.66199 0.09331 0.0237 0.0
H280 H 0.66397 0.04172 0.07349 0.0
O281 O 0.67436 0.0192 0.03082 0.0
C282 C 0.71517 0.05402 0.07133 0.0
O283 O 0.71654 0.07496 0.06332 0.0
N284 N 0.68397 0.05467 0.00112 0.0
C285 C 0.67699 0.0689 0.95627 0.0
C286 C 0.67177 0.0465 0.96285 0.0
C287 C 0.67593 0.03955 0.98523 0.0
C288 C 0.69 0.07622 0.99474 0.0
C289 C 0.68616 0.08391 0.97254 0.0
H290 H 0.67394 0.02167 0.98917 0.0
H291 H 0.69825 0.0874 0.00696 0.0
H292 H 0.71033 0.99625 0.03004 0.0
H293 H 0.76732 0.02125 0.99449 0.0
H294 H 0.63064 0.10234 0.05459 0.0
H295 H 0.66589 0.03404 0.95048 0.0
H296 H 0.69097 0.10119 0.96799 0.0
C297 C 0.31997 0.50146 0.25821 0.0
C298 C 0.34003 0.5135 0.2552 0.0
N299 N 0.35607 0.50426 0.26889 0.0
N300 N 0.32347 0.48478 0.27372 0.0
C301 C 0.34554 0.48701 0.27995 0.0
H302 H 0.30375 0.50508 0.25014 0.0
Co303 Co 0.30228 0.46502 0.28653 0.0
C304 C 0.32731 0.42079 0.2921 0.0
O305 O 0.30865 0.40868 0.28898 0.0
N306 N 0.28084 0.44559 0.30034 0.0
C307 C 0.25146 0.42415 0.31151 0.0
C308 C 0.25957 0.43863 0.2947 0.0
C309 C 0.28481 0.43576 0.32082 0.0
N310 N 0.26754 0.42232 0.32794 0.0
O311 O 0.30849 0.47749 0.31572 0.0
H312 H 0.25048 0.44342 0.27939 0.0
H313 H 0.30098 0.43734 0.3296 0.0
O314 O 0.32653 0.44261 0.29134 0.0
C315 C 0.30116 0.49692 0.32197 0.0
O316 O 0.2905 0.51004 0.3072 0.0
N317 N 0.29578 0.45359 0.25728 0.0
C318 C 0.2865 0.4456 0.21109 0.0
C319 C 0.30514 0.43511 0.22189 0.0
C320 C 0.31004 0.44012 0.2446 0.0
C321 C 0.2771 0.46328 0.24742 0.0
C322 C 0.27218 0.45965 0.22437 0.0
H323 H 0.32612 0.43417 0.25111 0.0
H324 H 0.2667 0.47503 0.25721 0.0
H325 H 0.35346 0.47692 0.29327 0.0
H326 H 0.34251 0.52809 0.2441 0.0
H327 H 0.23515 0.41544 0.31137 0.0
H328 H 0.3167 0.42403 0.21266 0.0
H329 H 0.25805 0.46894 0.2169 0.0
C330 C 0.79658 0.03781 0.55956 0.0
C331 C 0.7884 0.05991 0.55822 0.0
N332 N 0.80635 0.07416 0.55563 0.0
N333 N 0.81953 0.03823 0.55771 0.0
C334 C 0.82493 0.06054 0.55547 0.0
H335 H 0.78655 0.0225 0.56221 0.0
Co336 Co 0.84047 0.01457 0.56116 0.0
C337 C 0.87363 0.02592 0.52349 0.0
O338 O 0.87053 0.00663 0.51249 0.0
N339 N 0.86269 0.9909 0.56533 0.0
C340 C 0.89103 0.96622 0.55827 0.0
C341 C 0.87067 0.97494 0.55049 0.0
C342 C 0.87828 0.99053 0.58242 0.0
N343 N 0.89568 0.9761 0.57839 0.0
O344 O 0.8527 0.03126 0.58601 0.0
H345 H 0.86368 0.97122 0.53385 0.0
H346 H 0.87866 0.00243 0.5965 0.0
O347 O 0.86227 0.03032 0.5416 0.0
C348 C 0.84236 0.02991 0.60501 0.0
O349 O 0.82618 0.01449 0.60736 0.0
N350 N 0.82681 -0.00104 0.53674 0.0
C351 C 0.8125 0.97449 0.49902 0.0
C352 C 0.8155 0.99815 0.49756 0.0
C353 C 0.82256 0.01015 0.51673 0.0
C354 C 0.82017 0.97674 0.53939 0.0
C355 C 0.81391 0.96375 0.52033 0.0
H356 H 0.82617 0.02819 0.51505 0.0
H357 H 0.82192 0.96852 0.55586 0.0
H358 H 0.84233 0.06677 0.55488 0.0
H359 H 0.77067 0.06505 0.55923 0.0
H360 H 0.90259 0.95526 0.54886 0.0
H361 H 0.81425 0.00696 0.48131 0.0
H362 H 0.81134 0.94549 0.52197 0.0
C363 C 0.2817 0.57546 0.82486 0.0
C364 C 0.26023 0.56571 0.82483 0.0
N365 N 0.24516 0.58103 0.81639 0.0
N366 N 0.28023 0.59677 0.81636 0.0
C367 C 0.25787 0.59965 0.81136 0.0
H368 H 0.29715 0.56798 0.83173 0.0
Co369 Co 0.30243 0.61965 0.81668 0.0
C370 C 0.28959 0.64112 0.77108 0.0
O371 O 0.30814 0.63528 0.75991 0.0
N372 N 0.32432 0.64353 0.81781 0.0
C373 C 0.34772 0.6724 0.80913 0.0
C374 C 0.33756 0.65272 0.80119 0.0
C375 C 0.32759 0.65755 0.83585 0.0
N376 N 0.34131 0.67534 0.83098 0.0
O377 O 0.28332 0.63556 0.83764 0.0
H378 H 0.33941 0.64608 0.78413 0.0
H379 H 0.31872 0.656 0.8519 0.0
O380 O 0.28688 0.63552 0.79201 0.0
C381 C 0.28484 0.62839 0.85807 0.0
O382 O 0.30181 0.6146 0.86325 0.0
N383 N 0.32079 0.60258 0.79656 0.0
C384 C 0.34848 0.58115 0.76461 0.0
C385 C 0.32467 0.58082 0.7622 0.0
C386 C 0.31112 0.59154 0.77842 0.0
C387 C 0.34366 0.60039 0.80075 0.0
C388 C 0.35803 0.59039 0.7845 0.0
H389 H 0.2929 0.59233 0.77548 0.0
H390 H 0.35102 0.60765 0.81608 0.0
H391 H 0.25098 0.61557 0.80508 0.0
H392 H 0.25597 0.54911 0.83177 0.0
H393 H 0.35804 0.68421 0.79931 0.0
H394 H 0.31664 0.57389 0.74702 0.0
H395 H 0.37637 0.59061 0.78701 0.0
C396 C 0.26147 0.56297 0.99651 0.0
C397 C 0.26834 0.58549 0.99676 0.0
N398 N 0.24966 0.59879 -0.00091 0.0
N399 N 0.2386 0.56207 -0.00109 0.0
C400 C 0.23187 0.58412 0.0003 0.0
H401 H 0.27236 0.54822 0.99416 0.0
Co402 Co 0.22015 0.53633 0.99733 0.0
C403 C 0.18751 0.54213 0.03575 0.0
O404 O 0.18932 0.52054 0.0417 0.0
N405 N 0.2011 0.51046 0.99482 0.0
C406 C 0.18573 0.47723 0.98421 0.0
C407 C 0.20575 0.48844 0.98946 0.0
C408 C 0.1782 0.51204 0.99255 0.0
N409 N 0.16844 0.49221 0.98618 0.0
O410 O 0.20351 0.5509 0.97358 0.0
H411 H 0.2225 0.48123 0.98715 0.0
H412 H 0.16907 0.52813 0.99317 0.0
O413 O 0.19903 0.54992 0.01892 0.0
C414 C 0.20239 0.54438 0.95294 0.0
O415 O 0.2112 0.5245 0.94732 0.0
N416 N 0.23748 0.52279 0.02075 0.0
C417 C 0.26139 0.50089 0.05551 0.0
C418 C 0.24987 0.52148 0.05967 0.0
C419 C 0.23873 0.53253 0.04191 0.0
C420 C 0.25103 0.50453 0.01568 0.0
C421 C 0.26269 0.49287 0.03295 0.0
H422 H 0.23087 0.54884 0.04538 0.0
H423 H 0.25295 0.49906 0.99818 0.0
H424 H 0.21418 0.58928 0.0018 0.0
H425 H 0.28567 0.5916 0.99455 0.0
H426 H 0.18424 0.45998 0.97768 0.0
H427 H 0.24876 0.52879 0.07664 0.0
H428 H 0.27253 0.47778 0.02873 0.0
C429 C 0.763 0.02373 0.28814 0.0
C430 C 0.73993 0.02651 0.29237 0.0
N431 N 0.7286 0.00925 0.28213 0.0
N432 N 0.76601 0.00487 0.27527 0.0
C433 C 0.74477 0.99658 0.27176 0.0
H434 H 0.77666 0.0348 0.29385 0.0
Co435 Co 0.79279 0.99309 0.26304 0.0
C436 C 0.78826 0.9434 0.26737 0.0
O437 O 0.80974 0.94304 0.27396 0.0
N438 N 0.81961 0.98105 0.24904 0.0
C439 C 0.8529 0.96585 0.23802 0.0
C440 C 0.84246 0.98095 0.25291 0.0
C441 C 0.81713 0.96704 0.23085 0.0
N442 N 0.83672 0.9571 0.22432 0.0
O443 O 0.78116 -0.0 0.23367 0.0
H444 H 0.85122 0.99002 0.26629 0.0
H445 H 0.80069 0.96234 0.22375 0.0
O446 O 0.779 0.9624 0.26161 0.0
C447 C 0.78979 0.01534 0.22098 0.0
O448 O 0.8082 0.0263 0.22773 0.0
N449 N 0.80333 0.98704 0.2931 0.0
C450 C 0.81809 0.97498 0.33671 0.0
C451 C 0.79672 0.96796 0.32873 0.0
C452 C 0.78944 0.97467 0.30727 0.0
C453 C 0.82286 0.99649 0.30163 0.0
C454 C 0.83094 0.99022 0.32332 0.0
H455 H 0.77256 0.96944 0.30197 0.0
H456 H 0.83208 0.00908 0.29179 0.0
H457 H 0.74108 0.98187 0.26118 0.0
H458 H 0.73212 0.0401 0.3022 0.0
H459 H 0.87057 0.9604 0.23845 0.0
H460 H 0.78542 0.95765 0.33917 0.0
H461 H 0.84692 0.99719 0.32951 0.0
C462 C 0.29451 0.52536 0.55199 0.0
C463 C 0.28215 0.5056 0.55569 0.0
N464 N 0.29405 0.48795 0.54689 0.0
N465 N 0.31398 0.52005 0.54088 0.0
C466 C 0.31315 0.49722 0.53795 0.0
H467 H 0.28946 0.54252 0.55665 0.0
Co468 Co 0.33602 0.53976 0.52952 0.0
C469 C 0.38016 0.51764 0.53906 0.0
O470 O 0.38797 0.53789 0.54489 0.0
N471 N 0.35823 0.5595 0.51659 0.0
C472 C 0.38354 0.5858 0.50541 0.0
C473 C 0.36493 0.5815 0.51928 0.0
C474 C 0.37234 0.55145 0.50017 0.0
N475 N 0.38831 0.56662 0.49367 0.0
O476 O 0.32903 0.52991 0.49955 0.0
H477 H 0.35741 0.59379 0.53072 0.0
H478 H 0.37151 0.53415 0.49372 0.0
O479 O 0.35946 0.51556 0.53214 0.0
C480 C 0.31112 0.53594 0.4889 0.0
O481 O 0.29547 0.54809 0.49945 0.0
N482 N 0.34219 0.54949 0.55967 0.0
C483 C 0.35448 0.56379 0.60324 0.0
C484 C 0.35533 0.54066 0.59742 0.0
C485 C 0.34838 0.53379 0.57584 0.0
C486 C 0.33842 0.5716 0.56597 0.0
C487 C 0.34495 0.57932 0.58766 0.0
H488 H 0.34838 0.51572 0.57207 0.0
H489 H 0.33029 0.58326 0.55421 0.0
H490 H 0.32588 0.48765 0.52854 0.0
H491 H 0.26568 0.50433 0.56401 0.0
H492 H 0.39338 0.60146 0.50481 0.0
H493 H 0.36101 0.52791 0.60959 0.0
H494 H 0.34272 0.59714 0.59213 0.0
C495 C 0.777 0.08157 0.73736 0.0
C496 C 0.7952 0.06661 0.73599 0.0
N497 N 0.8141 0.07748 0.7435 0.0
N498 N 0.78445 0.10167 0.7458 0.0
C499 C 0.80705 0.09865 0.7492 0.0
H500 H 0.75963 0.07828 0.73194 0.0
Co501 Co 0.76894 0.12936 0.74836 0.0
C502 C 0.79088 0.14239 0.79418 0.0
O503 O 0.77304 0.13873 0.80728 0.0
N504 N 0.75386 0.15775 0.75018 0.0
C505 C 0.74028 0.19162 0.76117 0.0
C506 C 0.74805 0.17065 0.76848 0.0
C507 C 0.7485 0.17096 0.73206 0.0
N508 N 0.74055 0.19163 0.73822 0.0
O509 O 0.78995 0.1416 0.72676 0.0
H510 H 0.74987 0.16563 0.78606 0.0
H511 H 0.7518 0.16631 0.71454 0.0
O512 O 0.78973 0.13909 0.7726 0.0
C513 C 0.78519 0.13679 0.70612 0.0
O514 O 0.76521 0.12751 0.70168 0.0
N515 N 0.74789 0.11615 0.76864 0.0
C516 C 0.71552 0.09754 0.79805 0.0
C517 C 0.73873 0.09204 0.80038 0.0
C518 C 0.7546 0.10129 0.78531 0.0
C519 C 0.72519 0.11998 0.76482 0.0
C520 C 0.70869 0.11122 0.77965 0.0
H521 H 0.77247 0.09725 0.78767 0.0
H522 H 0.71978 0.13028 0.75047 0.0
H523 H 0.81841 0.11222 0.75448 0.0
H524 H 0.79462 0.04927 0.72958 0.0
H525 H 0.73574 0.20605 0.77183 0.0
H526 H 0.74478 0.08158 0.8144 0.0
H527 H 0.69085 0.1154 0.77699 0.0
C528 C 0.06759 0.76126 0.03437 0.0
C529 C 0.06576 0.76915 0.01225 0.0
N530 N 0.06853 0.75134 0.99779 0.0
N531 N 0.07118 0.73855 0.03391 0.0
C532 C 0.07174 0.73304 0.01152 0.0
H533 H 0.06683 0.77144 0.04978 0.0
Co534 Co 0.07808 0.71923 0.05821 0.0
C535 C 0.04691 0.68024 0.05029 0.0
O536 O 0.04074 0.6806 0.0719 0.0
N537 N 0.08689 0.70006 0.08229 0.0
C538 C 0.10676 0.68738 0.11224 0.0
C539 C 0.09798 0.70642 0.10152 0.0
C540 C 0.09013 0.67727 0.08124 0.0
N541 N 0.1016 0.66903 0.0994 0.0
O542 O 0.105 0.71098 0.04243 0.0
H543 H 0.10136 0.72393 0.10638 0.0
H544 H 0.08677 0.66717 0.06614 0.0
O545 O 0.0621 0.69415 0.0429 0.0
C546 C 0.12293 0.72292 0.04455 0.0
O547 O 0.12394 0.73789 0.06127 0.0
N548 N 0.05042 0.72769 0.0732 0.0
C549 C 0.00785 0.72886 0.09399 0.0
C550 C 0.00961 0.7281 0.07024 0.0
C551 C 0.03099 0.72789 0.06016 0.0
C552 C 0.04889 0.73178 0.09617 0.0
C553 C 0.02758 0.73209 0.10707 0.0
H554 H 0.03173 0.72565 0.04185 0.0
H555 H 0.06397 0.73398 0.1064 0.0
H556 H 0.0755 0.71598 0.00552 0.0
H557 H 0.06288 0.78673 0.00735 0.0
H558 H 0.1176 0.68727 0.12723 0.0
H559 H 0.99454 0.72657 0.05956 0.0
H560 H 0.02659 0.73381 0.12547 0.0
C561 C 0.50638 0.79043 0.07161 0.0
C562 C 0.50219 0.78513 0.09424 0.0
N563 N 0.50789 0.80337 0.10719 0.0
N564 N 0.51452 0.81193 0.07042 0.0
C565 C 0.5149 0.81939 0.09219 0.0
H566 H 0.50521 0.77887 0.05723 0.0
Co567 Co 0.52925 0.82693 0.04659 0.0
C568 C 0.51022 0.87337 0.04883 0.0
O569 O 0.50755 0.87307 0.02652 0.0
N570 N 0.54617 0.84186 0.02368 0.0
C571 C 0.57393 0.84809 0.99815 0.0
C572 C 0.55729 0.83296 0.00545 0.0
C573 C 0.55723 0.86173 0.02768 0.0
N574 N 0.57393 0.86602 0.01251 0.0
O575 O 0.55615 0.82792 0.06461 0.0
H576 H 0.55526 0.81564 -0.00066 0.0
H577 H 0.55469 0.87199 0.0428 0.0
O578 O 0.51947 0.8564 0.0591 0.0
C579 C 0.56765 0.81013 0.06921 0.0
O580 O 0.56021 0.79014 0.06219 0.0
N581 N 0.50195 0.82604 0.02869 0.0
C582 C 0.46394 0.83849 0.0033 0.0
C583 C 0.46286 0.8382 0.02708 0.0
C584 C 0.48193 0.83162 0.03949 0.0
C585 C 0.50202 0.82295 0.00552 0.0
C586 C 0.48317 0.82957 0.99232 0.0
H587 H 0.48116 0.83367 0.0578 0.0
H588 H 0.51692 0.81659 0.99691 0.0
H589 H 0.52173 0.83586 0.097 0.0
H590 H 0.49713 0.76856 0.10072 0.0
H591 H 0.58636 0.84518 0.98476 0.0
H592 H 0.4479 0.8445 0.03601 0.0
H593 H 0.48406 0.82883 0.97384 0.0
C594 C 0.54541 0.25458 0.3224 0.0
C595 C 0.55503 0.24962 0.34339 0.0
N596 N 0.54243 0.25997 0.35964 0.0
N597 N 0.52699 0.26805 0.3256 0.0
C598 C 0.52576 0.27113 0.34839 0.0
H599 H 0.5516 0.24906 0.30588 0.0
Co600 Co 0.50828 0.2815 0.3039 0.0
C601 C 0.4618 0.27931 0.32396 0.0
O602 O 0.45323 0.2747 0.30371 0.0
N603 N 0.4898 0.29649 0.28206 0.0
C604 C 0.47265 0.31238 0.25194 0.0
C605 C 0.48775 0.29572 0.25904 0.0
C606 C 0.47669 0.31448 0.28815 0.0
N607 N 0.46571 0.32417 0.27044 0.0
O608 O 0.51816 0.31061 0.31353 0.0
H609 H 0.49699 0.28455 0.24773 0.0
H610 H 0.47493 0.32012 0.30564 0.0
O611 O 0.48327 0.28276 0.32632 0.0
C612 C 0.53712 0.31952 0.30797 0.0
O613 O 0.55235 0.30734 0.29685 0.0
N614 N 0.49874 0.25224 0.29445 0.0
C615 C 0.48103 0.21068 0.2799 0.0
C616 C 0.47942 0.21715 0.30282 0.0
C617 C 0.48897 0.23766 0.30987 0.0
C618 C 0.50304 0.24491 0.27278 0.0
C619 C 0.49382 0.22432 0.26489 0.0
H620 H 0.48826 0.24183 0.32782 0.0
H621 H 0.51381 0.25487 0.26163 0.0
H622 H 0.51337 0.28212 0.35661 0.0
H623 H 0.57011 0.23935 0.34646 0.0
H624 H 0.46754 0.31576 0.23449 0.0
H625 H 0.47116 0.20627 0.31533 0.0
H626 H 0.4966 0.2192 0.24732 0.0
C627 C 0.0056 0.24252 0.53022 0.0
C628 C 0.00321 0.25764 0.54818 0.0
N629 N 0.0108 0.24742 0.56742 0.0
N630 N 0.01484 0.22297 0.53811 0.0
C631 C 0.0179 0.22653 0.56067 0.0
H632 H -0.00036 0.24503 0.51291 0.0
Co633 Co 0.01624 0.19464 0.52367 0.0
C634 C 0.06153 0.18074 0.54592 0.0
O635 O 0.07463 0.18363 0.52793 0.0
N636 N 0.01667 0.16564 0.50977 0.0
C637 C 0.02516 0.13043 0.49798 0.0
C638 C 0.03396 0.15082 0.50578 0.0
C639 C 0.99776 0.15409 0.50343 0.0
N640 N 0.00235 0.13265 0.49654 0.0
O641 O 0.99404 0.18422 0.54503 0.0
H642 H 0.05178 0.1541 0.50888 0.0
H643 H 0.98063 0.16064 0.50515 0.0
O644 O 0.04006 0.18462 0.54478 0.0
C645 C 0.97395 0.1902 0.53942 0.0
O646 O 0.97086 0.19956 0.51922 0.0
N647 N 0.0371 0.20605 0.50208 0.0
C648 C 0.06843 0.22043 0.4694 0.0
C649 C 0.0701 0.22802 0.49208 0.0
C650 C 0.05409 0.22085 0.50811 0.0
C651 C 0.03375 0.20063 0.47961 0.0
C652 C 0.04957 0.20718 0.46302 0.0
H653 H 0.05621 0.22611 0.52569 0.0
H654 H 0.01913 0.19056 0.47451 0.0
H655 H 0.02407 0.21346 0.57214 0.0
H656 H 0.99511 0.27424 0.54731 0.0
H657 H 0.03466 0.11494 0.49451 0.0
H658 H 0.08446 0.23824 0.49778 0.0
H659 H 0.04742 0.20146 0.44554 0.0
C660 C 0.06625 0.74262 0.79012 0.0
C661 C 0.05791 0.74307 0.81215 0.0
N662 N 0.07457 0.75079 0.82614 0.0
N663 N 0.08796 0.75026 0.79018 0.0
C664 C 0.09254 0.75503 0.8123 0.0
H665 H 0.05742 0.73629 0.77516 0.0
Co666 Co 0.10889 0.74972 0.76621 0.0
C667 C 0.13134 0.79552 0.77526 0.0
O668 O 0.12431 0.80498 0.7562 0.0
N669 N 0.13084 0.74833 0.74216 0.0
C670 C 0.15634 0.75606 0.71472 0.0
C671 C 0.13792 0.76424 0.72685 0.0
C672 C 0.14483 0.7304 0.73815 0.0
N673 N 0.16048 0.73469 0.72187 0.0
O674 O 0.12642 0.72891 0.78421 0.0
H675 H 0.13048 0.78088 0.72446 0.0
H676 H 0.14481 0.7148 0.74791 0.0
O677 O 0.12597 0.77488 0.78011 0.0
C678 C 0.11927 0.70843 0.78295 0.0
O679 O 0.10438 0.70337 0.76689 0.0
N680 N 0.09014 0.76951 0.74913 0.0
C681 C 0.06776 0.80158 0.72246 0.0
C682 C 0.06903 0.80436 0.74619 0.0
C683 C 0.08019 0.78802 0.75927 0.0
C684 C 0.0858 0.76476 0.72669 0.0
C685 C 0.07532 0.78107 0.71274 0.0
H686 H 0.08249 0.79127 0.77731 0.0
H687 H 0.09203 0.74908 0.71916 0.0
H688 H 0.10908 0.7608 0.81818 0.0
H689 H 0.04127 0.73706 0.81754 0.0
H690 H 0.16641 0.76533 0.70227 0.0
H691 H 0.0633 0.81996 0.75437 0.0
H692 H 0.07416 0.7782 0.69449 0.0
C693 C 0.55581 0.3026 0.56153 0.0
C694 C 0.56328 0.28985 0.54312 0.0
N695 N 0.55365 0.29849 0.52407 0.0
N696 N 0.54153 0.31903 0.55398 0.0
C697 C 0.54043 0.31593 0.53118 0.0
H698 H 0.56043 0.30008 0.57926 0.0
Co699 Co 0.52581 0.34095 0.57063 0.0
C700 C 0.5278 0.38298 0.54239 0.0
O701 O 0.53023 0.39529 0.56102 0.0
N702 N 0.5088 0.36286 0.58715 0.0
C703 C 0.49368 0.3899 0.60939 0.0
C704 C 0.51049 0.37339 0.60768 0.0
C705 C 0.49026 0.37259 0.57743 0.0
N706 N 0.48125 0.38951 0.59005 0.0
O707 O 0.49772 0.3281 0.5608 0.0
H708 H 0.52339 0.37021 0.62041 0.0
H709 H 0.48432 0.3683 0.56046 0.0
O710 O 0.52563 0.36126 0.54377 0.0
C711 C 0.48976 0.30848 0.5655 0.0
O712 O 0.50215 0.29381 0.57713 0.0
N713 N 0.55409 0.35308 0.58036 0.0
C714 C 0.5968 0.36913 0.59403 0.0
C715 C 0.59045 0.36942 0.57102 0.0
C716 C 0.56946 0.36068 0.5645 0.0
C717 C 0.56055 0.35111 0.60268 0.0
C718 C 0.58184 0.35934 0.61002 0.0
H719 H 0.56611 0.35926 0.54645 0.0
H720 H 0.54946 0.34256 0.61473 0.0
H721 H 0.52967 0.32595 0.51998 0.0
H722 H 0.57499 0.27554 0.54366 0.0
H723 H 0.49168 0.4021 0.62315 0.0
H724 H 0.60218 0.37518 0.55789 0.0
H725 H 0.58674 0.35762 0.62778 0.0
C726 C 0.00386 0.30032 0.76818 0.0
C727 C 0.01195 0.30299 0.74617 0.0
N728 N 0.99717 0.29275 0.73171 0.0
N729 N 0.98408 0.28855 0.76748 0.0
C730 C 0.98059 0.28406 0.74514 0.0
H731 H 0.01196 0.3063 0.78369 0.0
Co732 Co 0.96586 0.27803 0.79126 0.0
C733 C 0.91983 0.29203 0.77641 0.0
O734 O 0.91555 0.29929 0.79725 0.0
N735 N 0.94792 0.26571 0.81504 0.0
C736 C 0.938 0.24638 0.84647 0.0
C737 C 0.95424 0.26042 0.83666 0.0
C738 C 0.92837 0.25384 0.81196 0.0
N739 N 0.92165 0.2426 0.83082 0.0
O740 O 0.96985 0.24805 0.77978 0.0
H741 H 0.97057 0.26464 0.8442 0.0
H742 H 0.92017 0.25151 0.79557 0.0
O743 O 0.93879 0.28206 0.77198 0.0
C744 C 0.98359 0.2344 0.78953 0.0
O745 O 0.994 0.24074 0.80839 0.0
N746 N 0.96246 0.30852 0.80221 0.0
C747 C 0.95359 0.35306 0.81674 0.0
C748 C 0.95227 0.34733 0.79361 0.0
C749 C 0.95716 0.32521 0.78668 0.0
C750 C 0.96561 0.31426 0.82461 0.0
C751 C 0.96099 0.33643 0.83232 0.0
H752 H 0.95588 0.32139 0.76866 0.0
H753 H 0.97178 0.30189 0.83668 0.0
H754 H 0.96655 0.27374 0.73894 0.0
H755 H 0.02754 0.31165 0.74125 0.0
H756 H 0.93872 0.23865 0.86326 0.0
H757 H 0.94771 0.35994 0.78084 0.0
H758 H 0.96306 0.34047 0.85027 0.0
C759 C 0.56384 0.81339 0.30588 0.0
C760 C 0.54619 0.81189 0.29027 0.0
N761 N 0.5551 0.80569 0.26995 0.0
N762 N 0.58364 0.80817 0.29531 0.0
C763 C 0.57776 0.80378 0.27349 0.0
H764 H 0.56244 0.8184 0.32362 0.0
Co765 Co 0.61322 0.80959 0.30668 0.0
C766 C 0.63032 0.76873 0.27755 0.0
O767 O 0.62919 0.75178 0.29222 0.0
N768 N 0.64328 0.81129 0.3174 0.0
C769 C 0.67972 0.80183 0.32267 0.0
C770 C 0.65774 0.79367 0.32126 0.0
C771 C 0.65675 0.82997 0.31753 0.0
N772 N 0.67894 0.82465 0.32026 0.0
O773 O 0.61904 0.83332 0.28552 0.0
H774 H 0.6529 0.77586 0.32124 0.0
H775 H 0.65091 0.84694 0.31325 0.0
O776 O 0.62424 0.78882 0.28338 0.0
C777 C 0.612 0.85328 0.29018 0.0
O778 O 0.60379 0.85729 0.31071 0.0
N779 N 0.60648 0.78665 0.32781 0.0
C780 C 0.59804 0.75326 0.36044 0.0
C781 C 0.59065 0.75038 0.33781 0.0
C782 C 0.59476 0.76745 0.32182 0.0
C783 C 0.61195 0.79066 0.35014 0.0
C784 C 0.60832 0.77393 0.36673 0.0
H785 H 0.58907 0.76495 0.30443 0.0
H786 H 0.61977 0.80668 0.35503 0.0
H787 H 0.59003 0.80025 0.26011 0.0
H788 H 0.5283 0.81526 0.29355 0.0
H789 H 0.69518 0.7917 0.32352 0.0
H790 H 0.58261 0.73467 0.3322 0.0
H791 H 0.6138 0.77696 0.38415 0.0
C792 C 0.07662 0.9273 0.71466 0.0
C793 C 0.06514 0.94055 0.69842 0.0
C794 C 0.07714 0.90345 0.71272 0.0
C795 C 0.06594 0.89274 0.69408 0.0
C796 C 0.05597 0.90616 0.67667 0.0
C797 C 0.05566 0.92998 0.67907 0.0
C798 C 0.08826 0.88968 0.73153 0.0
C799 C 0.04424 0.89541 0.65636 0.0
C800 C 0.07955 0.82992 0.69334 0.0
C801 C 0.06271 0.8218 0.70831 0.0
C802 C 0.07963 0.85284 0.68637 0.0
C803 C 0.06244 0.86768 0.69463 0.0
C804 C 0.0438 0.85875 0.70723 0.0
C805 C 0.04418 0.83581 0.71397 0.0
C806 C 0.09949 0.86162 0.67247 0.0
C807 C 0.02485 0.87394 0.71594 0.0
H808 H 0.08391 0.93544 0.72962 0.0
H809 H 0.04713 0.94031 0.66626 0.0
H810 H 0.10018 0.8769 0.72419 0.0
H811 H 0.09786 0.9006 0.74373 0.0
H812 H 0.07495 0.88019 0.74116 0.0
H813 H 0.04174 0.90789 0.64227 0.0
H814 H 0.05417 0.88065 0.64979 0.0
H815 H 0.02722 0.88895 0.66164 0.0
H816 H 0.09394 0.81908 0.689 0.0
H817 H 0.03108 0.82938 0.7254 0.0
H818 H 0.11217 0.86965 0.68407 0.0
H819 H 0.09387 0.87481 0.66006 0.0
H820 H 0.10815 0.84759 0.66305 0.0
H821 H 0.03146 0.88476 0.73006 0.0
H822 H 0.01013 0.86389 0.72249 0.0
H823 H 0.01871 0.88551 0.70224 0.0
C824 C 0.44308 0.87355 0.9927 0.0
C825 C 0.44539 0.84978 0.99083 0.0
C826 C 0.42232 0.88426 0.98749 0.0
C827 C 0.40354 0.87068 0.98067 0.0
C828 C 0.40661 0.84694 0.97658 0.0
C829 C 0.42763 0.83674 0.98177 0.0
C830 C 0.42003 0.90962 0.99149 0.0
C831 C 0.38704 0.83186 0.96904 0.0
C832 C 0.34363 0.87682 0.00177 0.0
C833 C 0.33218 0.87968 0.98101 0.0
C834 C 0.36753 0.87684 0.0025 0.0
C835 C 0.37995 0.87982 0.98192 0.0
C836 C 0.3684 0.88646 0.96177 0.0
C837 C 0.34443 0.88628 0.96152 0.0
C838 C 0.37923 0.87034 0.02457 0.0
C839 C 0.38111 0.89075 0.93977 0.0
H840 H 0.45699 0.88351 -0.00015 0.0
H841 H 0.42956 0.81834 0.98058 0.0
H842 H 0.40757 0.91745 0.97954 0.0
H843 H 0.41389 0.91264 0.00917 0.0
H844 H 0.43677 0.9184 0.9896 0.0
H845 H 0.39283 0.81436 0.96448 0.0
H846 H 0.37433 0.83048 0.98307 0.0
H847 H 0.37823 0.8394 0.95405 0.0
H848 H 0.334 0.8718 0.0168 0.0
H849 H 0.33547 0.88851 0.94544 0.0
H850 H 0.39439 0.88129 0.02761 0.0
H851 H 0.38522 0.85237 0.02345 0.0
H852 H 0.36757 0.87182 0.03948 0.0
H853 H 0.39775 0.89926 0.94301 0.0
H854 H 0.37089 0.90146 0.92787 0.0
H855 H 0.38461 0.87418 0.93123 0.0
C856 C 0.449 0.18254 0.28009 0.0
C857 C 0.47094 0.18875 0.27262 0.0
C858 C 0.44084 0.16025 0.27703 0.0
C859 C 0.45512 0.14391 0.26648 0.0
C860 C 0.47655 0.15061 0.2573 0.0
C861 C 0.48418 0.17303 0.26046 0.0
C862 C 0.4177 0.15396 0.28654 0.0
C863 C 0.49223 0.13368 0.24568 0.0
C864 C 0.46194 0.08268 0.28258 0.0
C865 C 0.45598 0.07231 0.26188 0.0
C866 C 0.45885 0.10616 0.28566 0.0
C867 C 0.4496 0.11927 0.26755 0.0
C868 C 0.4402 0.10823 0.24823 0.0
C869 C 0.44356 0.08468 0.24556 0.0
C870 C 0.46845 0.11726 0.30688 0.0
C871 C 0.42938 0.12158 0.22902 0.0
H872 H 0.43859 0.19489 0.28918 0.0
H873 H 0.50115 0.17781 0.25475 0.0
H874 H 0.4092 0.14067 0.276 0.0
H875 H 0.41983 0.14702 0.30405 0.0
H876 H 0.40634 0.16914 0.28762 0.0
H877 H 0.49811 0.12076 0.25827 0.0
H878 H 0.48298 0.12447 0.23193 0.0
H879 H 0.5075 0.14204 0.2381 0.0
H880 H 0.47116 0.07289 0.29534 0.0
H881 H 0.43876 0.07659 0.22959 0.0
H882 H 0.45668 0.1306 0.3134 0.0
H883 H 0.48493 0.12567 0.30265 0.0
H884 H 0.47158 0.10461 0.32069 0.0
H885 H 0.41936 0.13624 0.23569 0.0
H886 H 0.41801 0.1106 0.21849 0.0
H887 H 0.443 0.12849 0.21777 0.0
C888 C 0.09771 0.20479 0.44284 0.0
C889 C 0.08801 0.22376 0.45383 0.0
C890 C 0.12032 0.20556 0.43496 0.0
C891 C 0.1333 0.22562 0.43855 0.0
C892 C 0.12241 0.24577 0.44636 0.0
C893 C 0.09975 0.2446 0.45385 0.0
C894 C 0.13107 0.18411 0.42557 0.0
C895 C 0.13551 0.26774 0.44981 0.0
C896 C 0.19173 0.22195 0.46495 0.0
C897 C 0.20536 0.23132 0.44769 0.0
C898 C 0.16838 0.21837 0.46148 0.0
C899 C 0.1585 0.22417 0.44012 0.0
C900 C 0.17258 0.23156 0.42192 0.0
C901 C 0.19591 0.23525 0.426 0.0
C902 C 0.15399 0.21027 0.48137 0.0
C903 C 0.1629 0.23719 0.3987 0.0
H904 H 0.08858 0.18866 0.4425 0.0
H905 H 0.09195 0.25944 0.46175 0.0
H906 H 0.14386 0.18819 0.41218 0.0
H907 H 0.14001 0.17494 0.43956 0.0
H908 H 0.11798 0.17243 0.41829 0.0
H909 H 0.12394 0.28251 0.45277 0.0
H910 H 0.14688 0.26597 0.4649 0.0
H911 H 0.14641 0.27147 0.43478 0.0
H912 H 0.19893 0.21904 0.48178 0.0
H913 H 0.20656 0.24221 0.41251 0.0
H914 H 0.14333 0.19547 0.47621 0.0
H915 H 0.14228 0.22415 0.48684 0.0
H916 H 0.16456 0.20513 0.49629 0.0
H917 H 0.14784 0.22643 0.39458 0.0
H918 H 0.17599 0.23492 0.38513 0.0
H919 H 0.15742 0.25533 0.39846 0.0
C920 C 0.60886 0.62946 0.37524 0.0
C921 C 0.59824 0.61734 0.39286 0.0
C922 C 0.61153 0.65315 0.3767 0.0
C923 C 0.60368 0.66478 0.39646 0.0
C924 C 0.59561 0.65221 0.41545 0.0
C925 C 0.59266 0.62854 0.4133 0.0
C926 C 0.62035 0.66591 0.35604 0.0
C927 C 0.58812 0.66383 0.43721 0.0
C928 C 0.61645 0.72711 0.38864 0.0
C929 C 0.59692 0.73374 0.37641 0.0
C930 C 0.61794 0.70518 0.3982 0.0
C931 C 0.59969 0.6897 0.39492 0.0
C932 C 0.57888 0.69742 0.38526 0.0
C933 C 0.5777 0.71951 0.37629 0.0
C934 C 0.63989 0.69792 0.40958 0.0
C935 C 0.55878 0.68156 0.38182 0.0
H936 H 0.61312 0.62077 0.35943 0.0
H937 H 0.58473 0.619 0.42708 0.0
H938 H 0.60619 0.67578 0.34817 0.0
H939 H 0.63382 0.67824 0.36109 0.0
H940 H 0.62752 0.65422 0.3429 0.0
H941 H 0.5899 0.65218 0.4521 0.0
H942 H 0.59813 0.67961 0.44049 0.0
H943 H 0.56984 0.66863 0.43579 0.0
H944 H 0.63129 0.73819 0.38904 0.0
H945 H 0.56234 0.72498 0.36747 0.0
H946 H 0.65112 0.68954 0.39681 0.0
H947 H 0.6366 0.68549 0.42353 0.0
H948 H 0.64923 0.71286 0.41668 0.0
H949 H 0.56315 0.66858 0.36867 0.0
H950 H 0.54322 0.69083 0.37612 0.0
H951 H 0.55475 0.67234 0.39786 0.0
C952 C 0.62996 0.39538 0.59007 0.0
C953 C 0.62049 0.3756 0.5998 0.0
C954 C 0.65363 0.39738 0.58707 0.0
C955 C 0.66788 0.37919 0.59405 0.0
C956 C 0.65864 0.36097 0.60709 0.0
C957 C 0.6349 0.35937 0.6098 0.0
C958 C 0.6629 0.41745 0.5738 0.0
C959 C 0.67343 0.34157 0.61547 0.0
C960 C 0.71364 0.35619 0.55513 0.0
C961 C 0.7334 0.36132 0.56752 0.0
C962 C 0.69222 0.36358 0.56275 0.0
C963 C 0.69065 0.37623 0.58337 0.0
C964 C 0.71076 0.38324 0.59478 0.0
C965 C 0.73201 0.37567 0.58668 0.0
C966 C 0.67118 0.35615 0.54973 0.0
C967 C 0.70986 0.39697 0.61659 0.0
H968 H 0.61874 0.40816 0.5827 0.0
H969 H 0.62761 0.34414 0.61745 0.0
H970 H 0.67994 0.42266 0.58028 0.0
H971 H 0.66489 0.41251 0.5556 0.0
H972 H 0.65115 0.43234 0.57464 0.0
H973 H 0.67811 0.33047 0.60082 0.0
H974 H 0.6895 0.34817 0.62306 0.0
H975 H 0.66447 0.33093 0.62841 0.0
H976 H 0.71484 0.34518 0.54026 0.0
H977 H 0.74734 0.37947 0.59639 0.0
H978 H 0.65976 0.37096 0.54661 0.0
H979 H 0.66148 0.3435 0.56002 0.0
H980 H 0.67549 0.34823 0.53302 0.0
H981 H 0.69556 0.4094 0.61641 0.0
H982 H 0.72612 0.40633 0.61954 0.0
H983 H 0.70714 0.38522 0.63123 0.0
C984 C 0.96461 0.38862 0.8374 0.0
C985 C 0.94887 0.37685 0.82378 0.0
C986 C 0.96301 0.41234 0.8401 0.0
C987 C 0.94523 0.42443 0.82893 0.0
C988 C 0.92809 0.41234 0.81696 0.0
C989 C 0.93015 0.38861 0.81448 0.0
C990 C 0.98151 0.42464 0.85327 0.0
C991 C 0.90864 0.42455 0.80524 0.0
C992 C 0.94574 0.48671 0.84548 0.0
C993 C 0.96147 0.49516 0.82953 0.0
C994 C 0.93833 0.46393 0.84436 0.0
C995 C 0.94696 0.4496 0.8269 0.0
C996 C 0.96071 0.45893 0.80929 0.0
C997 C 0.96787 0.48167 0.81088 0.0
C998 C 0.92326 0.45472 0.86314 0.0
C999 C 0.96992 0.44431 0.79011 0.0
H1000 H 0.97909 0.37957 0.84458 0.0
H1001 H 0.9177 0.3794 0.8043 0.0
H1002 H 0.99236 0.4345 0.84122 0.0
H1003 H 0.97388 0.43697 0.86548 0.0
H1004 H 0.99263 0.41265 0.86291 0.0
H1005 H 0.89433 0.41271 0.80123 0.0
H1006 H 0.90206 0.43874 0.81595 0.0
H1007 H 0.91485 0.43204 0.78897 0.0
H1008 H 0.9409 0.49721 0.85996 0.0
H1009 H 0.97995 0.48839 0.79852 0.0
H1010 H 0.93402 0.44584 0.87599 0.0
H1011 H 0.9108 0.44213 0.85637 0.0
H1012 H 0.91381 0.46864 0.87195 0.0
H1013 H 0.98304 0.43245 0.79697 0.0
H1014 H 0.97788 0.45474 0.77638 0.0
H1015 H 0.95611 0.43379 0.7825 0.0
C1016 C 0.97461 0.74382 0.11564 0.0
C1017 C 0.98519 0.72571 0.10426 0.0
C1018 C 0.95081 0.74397 0.11842 0.0
C1019 C 0.93771 0.72567 0.10941 0.0
C1020 C 0.94876 0.70601 0.10078 0.0
C1021 C 0.97251 0.70629 0.09829 0.0
C1022 C 0.93957 0.76497 0.12829 0.0
C1023 C 0.93546 0.686 0.0914 0.0
C1024 C 0.87343 0.73087 0.11518 0.0
C1025 C 0.8683 0.74324 0.09535 0.0
C1026 C 0.89593 0.72394 0.11971 0.0
C1027 C 0.91335 0.72955 0.10393 0.0
C1028 C 0.9078 0.74064 0.08311 0.0
C1029 C 0.88529 0.74752 0.07917 0.0
C1030 C 0.90118 0.71209 0.142 0.0
C1031 C 0.92584 0.74649 0.06555 0.0
H1032 H 0.98457 0.75874 0.12031 0.0
H1033 H 0.98095 0.69218 0.08971 0.0
H1034 H 0.92511 0.76017 0.13957 0.0
H1035 H 0.95186 0.77554 0.13819 0.0
H1036 H 0.93261 0.77556 0.11418 0.0
H1037 H 0.94623 0.67041 0.09016 0.0
H1038 H 0.92034 0.68219 0.10219 0.0
H1039 H 0.92922 0.69026 0.074 0.0
H1040 H 0.86015 0.72787 0.12776 0.0
H1041 H 0.8811 0.75714 0.06389 0.0
H1042 H 0.90824 0.72473 0.15425 0.0
H1043 H 0.91418 0.6985 0.13966 0.0
H1044 H 0.8856 0.70444 0.1497 0.0
H1045 H 0.9379 0.75922 0.07278 0.0
H1046 H 0.91835 0.75368 0.04965 0.0
H1047 H 0.93586 0.73105 0.06101 0.0
C1048 C 0.69456 0.08629 0.92176 0.0
C1049 C 0.6758 0.07545 0.9319 0.0
C1050 C 0.69536 0.08989 0.89818 0.0
C1051 C 0.67686 0.08253 0.88439 0.0
C1052 C 0.65729 0.07271 0.89463 0.0
C1053 C 0.65707 0.0691 0.91834 0.0
C1054 C 0.71661 0.10046 0.88793 0.0
C1055 C 0.6371 0.06502 0.88054 0.0
C1056 C 0.68522 0.10779 0.82614 0.0
C1057 C 0.69933 0.09108 0.81633 0.0
C1058 C 0.67507 0.10414 0.84753 0.0
C1059 C 0.67943 0.08345 0.85924 0.0
C1060 C 0.69112 0.06549 0.84804 0.0
C1061 C 0.70091 0.06952 0.8266 0.0
C1062 C 0.66204 0.1234 0.85866 0.0
C1063 C 0.69578 0.043 0.8598 0.0
H1064 H 0.70921 0.09092 0.93213 0.0
H1065 H 0.64245 0.06086 0.92622 0.0
H1066 H 0.712 0.11541 0.87724 0.0
H1067 H 0.72897 0.10614 0.90118 0.0
H1068 H 0.72525 0.08785 0.8767 0.0
H1069 H 0.62149 0.06308 0.89117 0.0
H1070 H 0.63348 0.07725 0.86651 0.0
H1071 H 0.64098 0.04822 0.87266 0.0
H1072 H 0.6838 0.12446 0.81819 0.0
H1073 H 0.71132 0.05638 0.8187 0.0
H1074 H 0.67351 0.13263 0.87062 0.0
H1075 H 0.64736 0.11678 0.86867 0.0
H1076 H 0.65564 0.13582 0.8458 0.0
H1077 H 0.70924 0.04549 0.87294 0.0
H1078 H 0.70171 0.02971 0.84761 0.0
H1079 H 0.68025 0.03668 0.86863 0.0
C1080 C 0.26805 0.46378 0.07587 0.0
C1081 C 0.27075 0.48761 0.07494 0.0
C1082 C 0.2727 0.45168 0.09604 0.0
C1083 C 0.2794 0.46387 0.11581 0.0
C1084 C 0.28364 0.48766 0.1145 0.0
C1085 C 0.27979 0.4991 0.09391 0.0
C1086 C 0.26914 0.42614 0.09642 0.0
C1087 C 0.29075 0.50138 0.13522 0.0
C1088 C 0.26231 0.44772 0.17564 0.0
C1089 C 0.28383 0.44453 0.18576 0.0
C1090 C 0.2603 0.45231 0.15223 0.0
C1091 C 0.28018 0.45263 0.13846 0.0
C1092 C 0.30144 0.44631 0.1479 0.0
C1093 C 0.30316 0.44291 0.17151 0.0
C1094 C 0.23723 0.45895 0.14274 0.0
C1095 C 0.32277 0.44507 0.13342 0.0
H1096 H 0.26115 0.4547 0.06127 0.0
H1097 H 0.28277 0.51737 0.09304 0.0
H1098 H 0.28131 0.4176 0.10819 0.0
H1099 H 0.25155 0.42233 0.10238 0.0
H1100 H 0.27112 0.41867 0.07907 0.0
H1101 H 0.29316 0.51979 0.13124 0.0
H1102 H 0.27755 0.49986 0.14876 0.0
H1103 H 0.30697 0.49464 0.1423 0.0
H1104 H 0.2471 0.44795 0.18619 0.0
H1105 H 0.32001 0.4405 0.17873 0.0
H1106 H 0.23341 0.449 0.12709 0.0
H1107 H 0.23744 0.4773 0.13792 0.0
H1108 H 0.22323 0.45618 0.15526 0.0
H1109 H 0.31896 0.43759 0.1164 0.0
H1110 H 0.33629 0.4347 0.1418 0.0
H1111 H 0.32959 0.46254 0.13067 0.0
C1112 C 0.79457 0.96525 0.462 0.0
C1113 C 0.81222 0.9615 0.47761 0.0
C1114 C 0.798 0.96128 0.43867 0.0
C1115 C 0.81976 0.95388 0.431 0.0
C1116 C 0.83667 0.94749 0.44704 0.0
C1117 C 0.83262 0.95131 0.47033 0.0
C1118 C 0.77926 0.96762 0.4221 0.0
C1119 C 0.85995 0.93929 0.4396 0.0
C1120 C 0.82088 0.94542 0.36723 0.0
C1121 C 0.82514 0.96789 0.35991 0.0
C1122 C 0.82101 0.93984 0.3905 0.0
C1123 C 0.82579 0.95713 0.40664 0.0
C1124 C 0.83284 0.97908 0.39915 0.0
C1125 C 0.83234 0.98425 0.37578 0.0
C1126 C 0.81381 0.91616 0.39775 0.0
C1127 C 0.83874 0.99781 0.41591 0.0
H1128 H 0.7789 0.97328 0.46778 0.0
H1129 H 0.84634 0.9487 0.48253 0.0
H1130 H 0.77748 0.9544 0.40864 0.0
H1131 H 0.76252 0.96975 0.43081 0.0
H1132 H 0.78368 0.98398 0.41358 0.0
H1133 H 0.86862 0.9296 0.45344 0.0
H1134 H 0.85883 0.92834 0.42417 0.0
H1135 H 0.87074 0.95429 0.43528 0.0
H1136 H 0.81583 0.93257 0.35486 0.0
H1137 H 0.83573 0.00159 0.37019 0.0
H1138 H 0.79545 0.91642 0.4025 0.0
H1139 H 0.82359 0.91034 0.4129 0.0
H1140 H 0.8161 0.90357 0.38372 0.0
H1141 H 0.82295 0.00364 0.42467 0.0
H1142 H 0.84672 0.01278 0.40737 0.0
H1143 H 0.85061 0.99136 0.4292 0.0
C1144 C 0.34689 0.58279 0.64048 0.0
C1145 C 0.36188 0.5708 0.62629 0.0
C1146 C 0.35151 0.58509 0.66384 0.0
C1147 C 0.37171 0.57531 0.67302 0.0
C1148 C 0.38793 0.56511 0.65833 0.0
C1149 C 0.38271 0.5628 0.63508 0.0
C1150 C 0.33381 0.59628 0.67896 0.0
C1151 C 0.40993 0.5551 0.6673 0.0
C1152 C 0.37616 0.59243 0.73466 0.0
C1153 C 0.36254 0.57538 0.74455 0.0
C1154 C 0.38196 0.59137 0.71144 0.0
C1155 C 0.37377 0.57293 0.69813 0.0
C1156 C 0.36299 0.55412 0.70891 0.0
C1157 C 0.35755 0.55557 0.73213 0.0
C1158 C 0.39432 0.61128 0.7007 0.0
C1159 C 0.35444 0.53385 0.69541 0.0
H1160 H 0.33079 0.58892 0.63365 0.0
H1161 H 0.39446 0.55377 0.62394 0.0
H1162 H 0.34189 0.6094 0.69 0.0
H1163 H 0.31996 0.60453 0.66893 0.0
H1164 H 0.32601 0.58325 0.69034 0.0
H1165 H 0.42306 0.55388 0.65363 0.0
H1166 H 0.41691 0.56541 0.6816 0.0
H1167 H 0.40664 0.5376 0.67382 0.0
H1168 H 0.38011 0.60775 0.74432 0.0
H1169 H 0.34727 0.54228 0.73998 0.0
H1170 H 0.38164 0.62314 0.69307 0.0
H1171 H 0.4059 0.60547 0.68684 0.0
H1172 H 0.40443 0.62092 0.71357 0.0
H1173 H 0.33931 0.53904 0.68521 0.0
H1174 H 0.34939 0.51943 0.70668 0.0
H1175 H 0.3677 0.52777 0.68333 0.0
C1176 C 0.09293 0.16002 0.56629 0.0
C1177 C 0.07094 0.16961 0.56657 0.0
C1178 C 0.10058 0.14623 0.58437 0.0
C1179 C 0.08588 0.14203 0.6031 0.0
C1180 C 0.06444 0.15319 0.60431 0.0
C1181 C 0.05721 0.16681 0.58601 0.0
C1182 C 0.12365 0.13485 0.58259 0.0
C1183 C 0.04837 0.1494 0.62416 0.0
C1184 C 0.08386 0.08441 0.63183 0.0
C1185 C 0.09311 0.0893 0.65332 0.0
C1186 C 0.08276 0.10113 0.61481 0.0
C1187 C 0.09106 0.12337 0.61949 0.0
C1188 C 0.10193 0.12798 0.64064 0.0
C1189 C 0.10286 0.11078 0.65739 0.0
C1190 C 0.07125 0.09536 0.59242 0.0
C1191 C 0.11109 0.15144 0.64618 0.0
H1192 H 0.10377 0.16229 0.55144 0.0
H1193 H 0.04035 0.17446 0.58654 0.0
H1194 H 0.13279 0.13554 0.59919 0.0
H1195 H 0.1213 0.11657 0.57813 0.0
H1196 H 0.13452 0.14291 0.56927 0.0
H1197 H 0.03374 0.1615 0.62393 0.0
H1198 H 0.04152 0.13172 0.62344 0.0
H1199 H 0.05756 0.15129 0.64063 0.0
H1200 H 0.07647 0.06768 0.6288 0.0
H1201 H 0.10982 0.11456 0.67413 0.0
H1202 H 0.08214 0.10068 0.57783 0.0
H1203 H 0.05488 0.10484 0.59107 0.0
H1204 H 0.06758 0.07681 0.59079 0.0
H1205 H 0.1205 0.15869 0.6314 0.0
H1206 H 0.12261 0.15114 0.66127 0.0
H1207 H 0.09661 0.16308 0.64998 0.0
C1208 C 0.2282 0.8542 0.84928 0.0
C1209 C 0.2197 0.86187 0.87031 0.0
C1210 C 0.2133 0.84675 0.83207 0.0
C1211 C 0.18944 0.84726 0.83602 0.0
C1212 C 0.18078 0.85728 0.85624 0.0
C1213 C 0.19608 0.86442 0.87322 0.0
C1214 C 0.2232 0.83622 0.81069 0.0
C1215 C 0.15544 0.85852 0.86092 0.0
C1216 C 0.14987 0.8322 0.78692 0.0
C1217 C 0.1456 0.80896 0.79117 0.0
C1218 C 0.16386 0.84506 0.80154 0.0
C1219 C 0.17389 0.83436 0.82071 0.0
C1220 C 0.16943 0.81099 0.82525 0.0
C1221 C 0.15527 0.79859 0.81045 0.0
C1222 C 0.16803 0.87 0.79638 0.0
C1223 C 0.17985 0.79897 0.8456 0.0
H1224 H 0.24646 0.85202 0.84709 0.0
H1225 H 0.1896 0.87048 0.88948 0.0
H1226 H 0.22114 0.81737 0.81147 0.0
H1227 H 0.21398 0.84232 0.79529 0.0
H1228 H 0.24167 0.84015 0.80872 0.0
H1229 H 0.15147 0.87023 0.87533 0.0
H1230 H 0.14602 0.86433 0.84553 0.0
H1231 H 0.14902 0.84123 0.86535 0.0
H1232 H 0.14234 0.84039 0.77211 0.0
H1233 H 0.15203 0.78067 0.81386 0.0
H1234 H 0.18648 0.8729 0.79311 0.0
H1235 H 0.16326 0.88062 0.81134 0.0
H1236 H 0.15819 0.87598 0.78128 0.0
H1237 H 0.19877 0.79969 0.84452 0.0
H1238 H 0.17454 0.78077 0.84675 0.0
H1239 H 0.17477 0.80774 0.86163 0.0
C1240 C 0.48258 0.90525 0.05372 0.0
C1241 C 0.50114 0.89262 0.06208 0.0
C1242 C 0.47306 0.92305 0.06661 0.0
C1243 C 0.48275 0.92854 0.08805 0.0
C1244 C 0.50176 0.91602 0.09637 0.0
C1245 C 0.51055 0.89799 0.08337 0.0
C1246 C 0.45246 0.93565 0.05752 0.0
C1247 C 0.51281 0.92163 0.11905 0.0
C1248 C 0.47824 0.98524 0.11793 0.0
C1249 C 0.46541 0.97899 0.13713 0.0
C1250 C 0.48245 0.96946 0.10044 0.0
C1251 C 0.47317 0.94719 0.10219 0.0
C1252 C 0.45789 0.94182 0.12016 0.0
C1253 C 0.45442 0.95778 0.13764 0.0
C1254 C 0.499 0.97578 0.08169 0.0
C1255 C 0.44718 0.91845 0.12226 0.0
H1256 H 0.4751 0.90084 0.03735 0.0
H1257 H 0.52495 0.88822 0.08975 0.0
H1258 H 0.43785 0.9334 0.06939 0.0
H1259 H 0.45606 0.95423 0.05655 0.0
H1260 H 0.44729 0.92953 0.0403 0.0
H1261 H 0.52804 0.91083 0.12253 0.0
H1262 H 0.51813 0.93983 0.11937 0.0
H1263 H 0.50034 0.91911 0.1331 0.0
H1264 H 0.48696 0.00159 0.11778 0.0
H1265 H 0.44454 0.9531 0.1526 0.0
H1266 H 0.49306 0.96931 0.0649 0.0
H1267 H 0.51583 0.96778 0.08527 0.0
H1268 H 0.50148 0.99457 0.08048 0.0
H1269 H 0.44125 0.91219 0.10537 0.0
H1270 H 0.43249 0.91851 0.13429 0.0
H1271 H 0.4601 0.90618 0.12873 0.0
C1272 C 0.37993 0.26697 0.43294 0.0
C1273 C 0.36638 0.24737 0.42981 0.0
C1274 C 0.39717 0.27274 0.41737 0.0
C1275 C 0.40148 0.25821 0.39858 0.0
C1276 C 0.38908 0.23756 0.39622 0.0
C1277 C 0.37153 0.23247 0.41176 0.0
C1278 C 0.40995 0.29498 0.4204 0.0
C1279 C 0.39363 0.22135 0.37666 0.0
C1280 C 0.42406 0.2824 0.34299 0.0
C1281 C 0.44719 0.27651 0.34418 0.0
C1282 C 0.40919 0.27736 0.36106 0.0
C1283 C 0.4176 0.26544 0.38039 0.0
C1284 C 0.44108 0.2598 0.38183 0.0
C1285 C 0.45573 0.26583 0.36383 0.0
C1286 C 0.38438 0.28425 0.3592 0.0
C1287 C 0.45055 0.2467 0.40194 0.0
H1288 H 0.37666 0.27823 0.44722 0.0
H1289 H 0.36126 0.21731 0.40913 0.0
H1290 H 0.42859 0.29173 0.42135 0.0
H1291 H 0.40696 0.30618 0.40538 0.0
H1292 H 0.40462 0.30432 0.43604 0.0
H1293 H 0.38436 0.20489 0.37868 0.0
H1294 H 0.38815 0.22935 0.36036 0.0
H1295 H 0.4122 0.21775 0.37526 0.0
H1296 H 0.41755 0.29076 0.32778 0.0
H1297 H 0.47362 0.26109 0.36462 0.0
H1298 H 0.37907 0.29387 0.37466 0.0
H1299 H 0.37349 0.26876 0.35815 0.0
H1300 H 0.38103 0.29501 0.34391 0.0
H1301 H 0.44921 0.25719 0.41766 0.0
H1302 H 0.46874 0.24187 0.39943 0.0
H1303 H 0.44045 0.2309 0.40482 0.0
C1304 C 0.54552 0.38246 0.5037 0.0
C1305 C 0.53248 0.39386 0.52025 0.0
C1306 C 0.55396 0.3942 0.48456 0.0
C1307 C 0.5485 0.41759 0.48164 0.0
C1308 C 0.53404 0.42869 0.49757 0.0
C1309 C 0.52647 0.41675 0.51688 0.0
C1310 C 0.56952 0.38188 0.46807 0.0
C1311 C 0.52732 0.45345 0.49473 0.0
C1312 C 0.58676 0.45874 0.44943 0.0
C1313 C 0.5746 0.46158 0.42899 0.0
C1314 C 0.57909 0.44348 0.46628 0.0
C1315 C 0.55869 0.43094 0.46264 0.0
C1316 C 0.54705 0.43277 0.44158 0.0
C1317 C 0.55525 0.44792 0.42497 0.0
C1318 C 0.5922 0.44162 0.48843 0.0
C1319 C 0.52525 0.4197 0.43705 0.0
H1320 H 0.55029 0.36478 0.50641 0.0
H1321 H 0.51625 0.42547 0.52966 0.0
H1322 H 0.56141 0.38107 0.45096 0.0
H1323 H 0.58583 0.39137 0.46613 0.0
H1324 H 0.57346 0.3642 0.47375 0.0
H1325 H 0.51444 0.45892 0.50757 0.0
H1326 H 0.54265 0.46447 0.49651 0.0
H1327 H 0.52021 0.45638 0.4774 0.0
H1328 H 0.60167 0.46919 0.45274 0.0
H1329 H 0.54604 0.44951 0.40903 0.0
H1330 H 0.59523 0.42342 0.49279 0.0
H1331 H 0.58199 0.4492 0.5025 0.0
H1332 H 0.60893 0.45058 0.48764 0.0
H1333 H 0.52792 0.40119 0.44006 0.0
H1334 H 0.51893 0.42212 0.41931 0.0
H1335 H 0.51176 0.42547 0.44908 0.0
C1336 C 0.89154 0.31914 0.76 0.0
C1337 C 0.90519 0.2996 0.75743 0.0
C1338 C 0.87967 0.32836 0.74138 0.0
C1339 C 0.88113 0.31746 0.71987 0.0
C1340 C 0.8943 0.2973 0.71735 0.0
C1341 C 0.9064 0.28874 0.73615 0.0
C1342 C 0.86624 0.35018 0.74453 0.0
C1343 C 0.89588 0.28497 0.69472 0.0
C1344 C 0.83659 0.32742 0.67425 0.0
C1345 C 0.84896 0.34024 0.65819 0.0
C1346 C 0.84655 0.3205 0.69485 0.0
C1347 C 0.86921 0.32724 0.69981 0.0
C1348 C 0.88107 0.34194 0.68467 0.0
C1349 C 0.87085 0.34814 0.66389 0.0
C1350 C 0.8334 0.30466 0.71044 0.0
C1351 C 0.90508 0.34993 0.68975 0.0
H1352 H 0.89088 0.32781 0.77636 0.0
H1353 H 0.91699 0.27366 0.73416 0.0
H1354 H 0.87351 0.36379 0.73349 0.0
H1355 H 0.84824 0.34764 0.73918 0.0
H1356 H 0.86644 0.35624 0.76253 0.0
H1357 H 0.90645 0.26924 0.69578 0.0
H1358 H 0.87851 0.28024 0.68872 0.0
H1359 H 0.90343 0.29642 0.68163 0.0
H1360 H 0.81945 0.32173 0.67013 0.0
H1361 H 0.88056 0.35801 0.65163 0.0
H1362 H 0.8339 0.31093 0.72831 0.0
H1363 H 0.84148 0.2875 0.71025 0.0
H1364 H 0.81525 0.30279 0.70514 0.0
H1365 H 0.90631 0.35643 0.70752 0.0
H1366 H 0.91071 0.36361 0.67784 0.0
H1367 H 0.91709 0.33534 0.68819 0.0
C1368 C 0.04518 0.65875 0.01368 0.0
C1369 C 0.03471 0.66538 0.03412 0.0
C1370 C 0.03339 0.64543 0.99767 0.0
C1371 C 0.0104 0.63914 0.00202 0.0
C1372 C -0.00027 0.64583 0.02265 0.0
C1373 C 0.01214 0.65868 0.03862 0.0
C1374 C 0.04548 0.63832 0.97598 0.0
C1375 C 0.97508 0.63996 0.02754 0.0
C1376 C 0.9801 0.62507 0.94693 0.0
C1377 C 0.98227 0.60128 0.94641 0.0
C1378 C 0.98736 0.6376 0.96599 0.0
C1379 C 0.99761 0.62598 0.98456 0.0
C1380 C 0.99831 0.60179 0.98477 0.0
C1381 C 0.99037 0.58968 0.96568 0.0
C1382 C 0.98578 0.66335 0.96538 0.0
C1383 C 0.00947 0.5888 0.00406 0.0
H1384 H 0.06265 0.66392 0.01025 0.0
H1385 H 0.00392 0.66412 0.05432 0.0
H1386 H 0.0445 0.6195 0.97385 0.0
H1387 H 0.03696 0.64618 0.96098 0.0
H1388 H 0.06376 0.6435 0.97588 0.0
H1389 H 0.96941 0.64623 0.04455 0.0
H1390 H 0.96393 0.64761 0.01424 0.0
H1391 H 0.97256 0.62119 0.02683 0.0
H1392 H 0.97395 0.63387 0.93183 0.0
H1393 H 0.9924 0.57129 0.96496 0.0
H1394 H 0.00297 0.67066 0.96208 0.0
H1395 H 0.97981 0.67009 0.98207 0.0
H1396 H 0.97401 0.6694 0.95176 0.0
H1397 H 0.02826 0.59133 0.00325 0.0
H1398 H 0.00588 0.57017 0.00311 0.0
H1399 H 0.00359 0.5953 0.02086 0.0
C1400 C 0.70634 0.75804 0.16281 0.0
C1401 C 0.72905 0.75803 0.17051 0.0
C1402 C 0.68804 0.75827 0.17834 0.0
C1403 C 0.69263 0.75891 0.20209 0.0
C1404 C 0.71554 0.75857 0.20993 0.0
C1405 C 0.73345 0.75793 0.19404 0.0
C1406 C 0.66386 0.75839 0.16933 0.0
C1407 C 0.72117 0.75979 0.2351 0.0
C1408 C 0.65098 0.78518 0.24404 0.0
C1409 C 0.64322 0.76585 0.25597 0.0
C1410 C 0.66629 0.7831 0.22574 0.0
C1411 C 0.67371 0.76112 0.21891 0.0
C1412 C 0.6647 0.74147 0.22979 0.0
C1413 C 0.64969 0.74407 0.24836 0.0
C1414 C 0.67566 0.80453 0.21478 0.0
C1415 C 0.67179 0.71775 0.22258 0.0
H1416 H 0.70293 0.758 0.14461 0.0
H1417 H 0.75096 0.75833 0.20002 0.0
H1418 H 0.65362 0.74487 0.17782 0.0
H1419 H 0.65564 0.775 0.1733 0.0
H1420 H 0.66319 0.7557 0.15055 0.0
H1421 H 0.73985 0.7588 0.23838 0.0
H1422 H 0.71465 0.77606 0.24235 0.0
H1423 H 0.71264 0.74564 0.2444 0.0
H1424 H 0.64605 0.80212 0.24972 0.0
H1425 H 0.64358 0.72905 0.25732 0.0
H1426 H 0.67454 0.80341 0.19589 0.0
H1427 H 0.694 0.8064 0.21926 0.0
H1428 H 0.66647 0.82013 0.22049 0.0
H1429 H 0.6706 0.71593 0.20374 0.0
H1430 H 0.66112 0.70431 0.23072 0.0
H1431 H 0.68989 0.7148 0.22743 0.0
C1432 C 0.6372 0.06106 0.11114 0.0
C1433 C 0.62838 0.06914 0.0904 0.0
C1434 C 0.62283 0.05715 0.12994 0.0
C1435 C 0.59904 0.06094 0.12768 0.0
C1436 C 0.59013 0.06949 0.10685 0.0
C1437 C 0.60499 0.07372 0.08852 0.0
C1438 C 0.63302 0.04851 0.15202 0.0
C1439 C 0.56481 0.07332 0.10363 0.0
C1440 C 0.55835 0.02674 0.1647 0.0
C1441 C 0.55059 0.04335 0.18015 0.0
C1442 C 0.57436 0.03219 0.14775 0.0
C1443 C 0.58322 0.05467 0.14654 0.0
C1444 C 0.57616 0.07129 0.16266 0.0
C1445 C 0.5597 0.06549 0.17914 0.0
C1446 C 0.58119 0.01408 0.13065 0.0
C1447 C 0.58567 0.09527 0.16221 0.0
H1448 H 0.65537 0.05778 0.11259 0.0
H1449 H 0.5982 0.07974 0.07238 0.0
H1450 H 0.62741 0.05937 0.16651 0.0
H1451 H 0.62687 0.03091 0.15546 0.0
H1452 H 0.65201 0.04827 0.15155 0.0
H1453 H 0.56075 0.08071 0.08662 0.0
H1454 H 0.55558 0.05684 0.10542 0.0
H1455 H 0.55819 0.08497 0.11703 0.0
H1456 H 0.55132 0.00961 0.16532 0.0
H1457 H 0.55389 0.07832 0.19118 0.0
H1458 H 0.6 0.01179 0.13071 0.0
H1459 H 0.57623 0.01957 0.11319 0.0
H1460 H 0.57304 0.99731 0.13425 0.0
H1461 H 0.60463 0.09478 0.16231 0.0
H1462 H 0.57976 0.10562 0.17699 0.0
H1463 H 0.58036 0.10397 0.14623 0.0
C1464 C 0.28465 0.4101 0.36455 0.0
C1465 C 0.26841 0.40681 0.34714 0.0
C1466 C 0.28905 0.39312 0.38083 0.0
C1467 C 0.27619 0.37269 0.38037 0.0
C1468 C 0.25832 0.37008 0.36425 0.0
C1469 C 0.25481 0.38705 0.34764 0.0
C1470 C 0.30845 0.39646 0.39755 0.0
C1471 C 0.24369 0.34883 0.36378 0.0
C1472 C 0.30315 0.31739 0.40062 0.0
C1473 C 0.29417 0.31538 0.42267 0.0
C1474 C 0.29798 0.33637 0.38696 0.0
C1475 C 0.28278 0.35328 0.39533 0.0
C1476 C 0.27383 0.35142 0.41773 0.0
C1477 C 0.27996 0.33264 0.4313 0.0
C1478 C 0.30855 0.33819 0.36347 0.0
C1479 C 0.25711 0.36876 0.42702 0.0
H1480 H 0.29467 0.42562 0.36501 0.0
H1481 H 0.24211 0.38427 0.33449 0.0
H1482 H 0.30234 0.39413 0.41533 0.0
H1483 H 0.32183 0.38338 0.39445 0.0
H1484 H 0.3164 0.41364 0.39608 0.0
H1485 H 0.22861 0.35079 0.35242 0.0
H1486 H 0.25399 0.33418 0.35756 0.0
H1487 H 0.23767 0.34454 0.38125 0.0
H1488 H 0.31422 0.30405 0.39404 0.0
H1489 H 0.27279 0.33095 0.4483 0.0
H1490 H 0.31713 0.35499 0.36146 0.0
H1491 H 0.29502 0.33712 0.35024 0.0
H1492 H 0.32127 0.32447 0.36022 0.0
H1493 H 0.26467 0.38613 0.42651 0.0
H1494 H 0.25193 0.36493 0.44488 0.0
H1495 H 0.24158 0.36909 0.41614 0.0
C1496 C 0.93452 0.99103 0.57597 0.0
C1497 C 0.91782 0.97908 0.58822 0.0
C1498 C 0.95433 -0.00104 0.58681 0.0
C1499 C 0.95752 0.9944 0.61035 0.0
C1500 C 0.9412 0.98122 0.62246 0.0
C1501 C 0.92128 0.97402 0.61127 0.0
C1502 C 0.97103 0.01342 0.57346 0.0
C1503 C 0.94428 0.9756 0.64747 0.0
C1504 C 0.01609 0.00117 0.6369 0.0
C1505 C 0.01346 0.02158 0.6492 0.0
C1506 C 0.99813 0.99228 0.62384 0.0
C1507 C 0.97726 0.00438 0.62267 0.0
C1508 C 0.97486 0.02554 0.63421 0.0
C1509 C 0.99294 0.03376 0.64761 0.0
C1510 C 0.00112 0.96945 0.61216 0.0
C1511 C 0.95296 0.03915 0.63294 0.0
H1512 H 0.93128 0.99543 0.55826 0.0
H1513 H 0.90799 0.96514 0.62064 0.0
H1514 H 0.97037 0.03129 0.5798 0.0
H1515 H 0.98876 0.00721 0.57596 0.0
H1516 H 0.96716 0.0135 0.55486 0.0
H1517 H 0.93119 0.96335 0.65371 0.0
H1518 H 0.96148 0.96821 0.65048 0.0
H1519 H 0.94306 0.99147 0.65777 0.0
H1520 H 0.03184 0.99152 0.63833 0.0
H1521 H 0.99092 0.04954 0.65713 0.0
H1522 H 0.99717 0.97095 0.59368 0.0
H1523 H 0.98895 0.95689 0.61952 0.0
H1524 H 0.01874 0.96263 0.61408 0.0
H1525 H 0.94791 0.04175 0.61484 0.0
H1526 H 0.95455 0.05611 0.64133 0.0
H1527 H 0.93896 0.02956 0.64139 0.0
C1528 C 0.32703 0.78889 0.90593 0.0
C1529 C 0.30347 0.78931 0.91043 0.0
C1530 C 0.3369 0.77086 0.89362 0.0
C1531 C 0.32281 0.75302 0.88543 0.0
C1532 C 0.29907 0.7532 0.89016 0.0
C1533 C 0.2897 0.7713 0.90272 0.0
C1534 C 0.36235 0.77093 0.88929 0.0
C1535 C 0.28346 0.73445 0.88166 0.0
C1536 C 0.3381 0.71704 0.83402 0.0
C1537 C 0.34244 0.69589 0.84433 0.0
C1538 C 0.333 0.7363 0.84731 0.0
C1539 C 0.33259 0.7343 0.87143 0.0
C1540 C 0.33899 0.71348 0.88192 0.0
C1541 C 0.34371 0.69445 0.86819 0.0
C1542 C 0.32611 0.75818 0.8355 0.0
C1543 C 0.33917 0.7108 0.90759 0.0
H1544 H 0.33782 0.80266 0.91205 0.0
H1545 H 0.2715 0.77148 0.90619 0.0
H1546 H 0.37005 0.75479 0.89559 0.0
H1547 H 0.3657 0.77184 0.87065 0.0
H1548 H 0.37106 0.78554 0.89773 0.0
H1549 H 0.26537 0.73723 0.88673 0.0
H1550 H 0.28434 0.73341 0.86274 0.0
H1551 H 0.28911 0.71771 0.88852 0.0
H1552 H 0.33684 0.71808 0.81558 0.0
H1553 H 0.34719 0.67805 0.87607 0.0
H1554 H 0.33508 0.77302 0.84314 0.0
H1555 H 0.30749 0.76098 0.83783 0.0
H1556 H 0.32983 0.75773 0.81688 0.0
H1557 H 0.3477 0.72561 0.91581 0.0
H1558 H 0.34798 0.69488 0.91299 0.0
H1559 H 0.32134 0.71022 0.914 0.0
C1560 C 0.12801 0.50294 0.98667 0.0
C1561 C 0.14584 0.49036 0.97686 0.0
C1562 C 0.10753 0.50646 0.97484 0.0
C1563 C 0.10497 0.49719 0.95265 0.0
C1564 C 0.12204 0.48264 0.94359 0.0
C1565 C 0.14234 0.47935 0.95588 0.0
C1566 C 0.0896 0.52186 0.9852 0.0
C1567 C 0.11987 0.47238 0.92002 0.0
C1568 C 0.04747 0.50349 0.92333 0.0
C1569 C 0.0508 0.52367 0.91079 0.0
C1570 C 0.06505 0.49437 0.93685 0.0
C1571 C 0.0864 0.50567 0.9377 0.0
C1572 C 0.08998 0.52581 0.92476 0.0
C1573 C 0.0721 0.53461 0.91157 0.0
C1574 C 0.0607 0.47291 0.95049 0.0
C1575 C 0.11261 0.53831 0.9251 0.0
H1576 H 0.13072 0.51122 0.00302 0.0
H1577 H 0.15616 0.46974 0.94818 0.0
H1578 H 0.08992 0.53867 0.97641 0.0
H1579 H 0.07228 0.51452 0.98287 0.0
H1580 H 0.09258 0.52477 0.00373 0.0
H1581 H 0.13252 0.45851 0.91715 0.0
H1582 H 0.10245 0.46544 0.91724 0.0
H1583 H 0.12278 0.48589 0.90703 0.0
H1584 H 0.03104 0.49495 0.92283 0.0
H1585 H 0.07482 0.55025 0.90205 0.0
H1586 H 0.06204 0.47673 0.96901 0.0
H1587 H 0.07384 0.45984 0.9465 0.0
H1588 H 0.04353 0.46555 0.94705 0.0
H1589 H 0.11633 0.5444 0.94267 0.0
H1590 H 0.1128 0.55326 0.91338 0.0
H1591 H 0.12662 0.52657 0.92008 0.0
C1592 C 0.80061 0.85722 0.14413 0.0
C1593 C 0.81255 0.83673 0.14749 0.0
C1594 C 0.80752 0.87739 0.15512 0.0
C1595 C 0.82692 0.87704 0.16963 0.0
C1596 C 0.83969 0.85669 0.17213 0.0
C1597 C 0.83226 0.83674 0.16115 0.0
C1598 C 0.79336 0.89875 0.15216 0.0
C1599 C 0.8606 0.85571 0.18723 0.0
C1600 C 0.84889 0.9345 0.19094 0.0
C1601 C 0.83755 0.93602 0.2119 0.0
C1602 C 0.84628 0.91497 0.17711 0.0
C1603 C 0.83187 0.89693 0.18455 0.0
C1604 C 0.82125 0.89816 0.20622 0.0
C1605 C 0.82436 0.91762 0.21963 0.0
C1606 C 0.85811 0.91404 0.15423 0.0
C1607 C 0.80574 0.87939 0.2149 0.0
H1608 H 0.78547 0.85737 0.13345 0.0
H1609 H 0.84183 0.82106 0.16353 0.0
H1610 H 0.78451 0.90277 0.16845 0.0
H1611 H 0.80446 0.91353 0.14795 0.0
H1612 H 0.78029 0.89686 0.1385 0.0
H1613 H 0.87031 0.83955 0.18496 0.0
H1614 H 0.87212 0.87032 0.18358 0.0
H1615 H 0.85535 0.85703 0.20541 0.0
H1616 H 0.85893 0.9489 0.18505 0.0
H1617 H 0.81577 0.9189 0.23593 0.0
H1618 H 0.84522 0.91514 0.14037 0.0
H1619 H 0.86721 0.89753 0.15216 0.0
H1620 H 0.87056 0.92822 0.15205 0.0
H1621 H 0.79089 0.87744 0.20326 0.0
H1622 H 0.79923 0.88288 0.2324 0.0
H1623 H 0.81498 0.86284 0.2151 0.0
C1624 C 0.48995 0.53332 0.40843 0.0
C1625 C 0.51079 0.53524 0.42014 0.0
C1626 C 0.46921 0.5388 0.41921 0.0
C1627 C 0.4694 0.54654 0.44214 0.0
C1628 C 0.49037 0.54846 0.45403 0.0
C1629 C 0.51078 0.54271 0.44292 0.0
C1630 C 0.44715 0.53635 0.40606 0.0
C1631 C 0.49126 0.55656 0.47854 0.0
C1632 C 0.41891 0.57888 0.4672 0.0
C1633 C 0.40813 0.56168 0.47991 0.0
C1634 C 0.43861 0.5741 0.45428 0.0
C1635 C 0.44767 0.55165 0.4542 0.0
C1636 C 0.43669 0.5342 0.46679 0.0
C1637 C 0.41717 0.53945 0.47955 0.0
C1638 C 0.44997 0.59314 0.44109 0.0
C1639 C 0.44586 0.51006 0.46725 0.0
H1640 H 0.48981 0.52764 0.39081 0.0
H1641 H 0.52679 0.54432 0.45209 0.0
H1642 H 0.43505 0.52526 0.41557 0.0
H1643 H 0.43892 0.55332 0.40416 0.0
H1644 H 0.44986 0.52896 0.38878 0.0
H1645 H 0.50903 0.55773 0.48513 0.0
H1646 H 0.48312 0.57362 0.48003 0.0
H1647 H 0.4815 0.54467 0.48962 0.0
H1648 H 0.41193 0.59602 0.46735 0.0
H1649 H 0.40936 0.52616 0.48977 0.0
H1650 H 0.45169 0.58829 0.42285 0.0
H1651 H 0.46746 0.59604 0.44781 0.0
H1652 H 0.44028 0.60943 0.44219 0.0
H1653 H 0.44774 0.50345 0.44957 0.0
H1654 H 0.43462 0.49823 0.47698 0.0
H1655 H 0.46308 0.50988 0.4752 0.0
C1656 C 0.78416 0.26437 0.64043 0.0
C1657 C 0.77349 0.28491 0.63435 0.0
C1658 C 0.77556 0.25086 0.65819 0.0
C1659 C 0.7556 0.2579 0.66991 0.0
C1660 C 0.7444 0.27834 0.66351 0.0
C1661 C 0.7536 0.29174 0.64587 0.0
C1662 C 0.78812 0.22922 0.66465 0.0
C1663 C 0.72287 0.28612 0.6754 0.0
C1664 C 0.72925 0.20838 0.70159 0.0
C1665 C 0.7392 0.21093 0.72319 0.0
C1666 C 0.73274 0.22475 0.68448 0.0
C1667 C 0.7469 0.24381 0.68909 0.0
C1668 C 0.7555 0.24736 0.71144 0.0
C1669 C 0.75135 0.23089 0.72834 0.0
C1670 C 0.7229 0.22061 0.66099 0.0
C1671 C 0.77092 0.26731 0.71695 0.0
H1672 H 0.7996 0.25907 0.63167 0.0
H1673 H 0.74523 0.30757 0.64111 0.0
H1674 H 0.79361 0.23013 0.68278 0.0
H1675 H 0.7766 0.21426 0.66295 0.0
H1676 H 0.80346 0.22626 0.65385 0.0
H1677 H 0.71558 0.3018 0.66755 0.0
H1678 H 0.7098 0.27239 0.67486 0.0
H1679 H 0.72654 0.28965 0.69367 0.0
H1680 H 0.71982 0.1929 0.69777 0.0
H1681 H 0.75925 0.23265 0.74499 0.0
H1682 H 0.73666 0.21471 0.64935 0.0
H1683 H 0.71579 0.23664 0.65377 0.0
H1684 H 0.70924 0.20742 0.66127 0.0
H1685 H 0.78788 0.26453 0.70891 0.0
H1686 H 0.77344 0.26941 0.73565 0.0
H1687 H 0.76388 0.28342 0.70989 0.0
C1688 C 0.16838 0.57966 0.04054 0.0
C1689 C 0.17342 0.55799 0.04932 0.0
C1690 C 0.15572 0.59541 0.05324 0.0
C1691 C 0.14801 0.58939 0.07538 0.0
C1692 C 0.15292 0.5675 0.08437 0.0
C1693 C 0.16554 0.55194 0.07114 0.0
C1694 C 0.15064 0.61855 0.04289 0.0
C1695 C 0.14511 0.56066 0.10799 0.0
C1696 C 0.13439 0.64372 0.10665 0.0
C1697 C 0.11147 0.64658 0.10036 0.0
C1698 C 0.14614 0.62363 0.10094 0.0
C1699 C 0.1346 0.60629 0.08861 0.0
C1700 C 0.11079 0.60797 0.08486 0.0
C1701 C 0.09947 0.62813 0.09092 0.0
C1702 C 0.17146 0.62224 0.10565 0.0
C1703 C 0.09779 0.58982 0.07191 0.0
H1704 H 0.1743 0.58437 0.02362 0.0
H1705 H 0.16953 0.53522 0.07804 0.0
H1706 H 0.13189 0.62131 0.04208 0.0
H1707 H 0.15795 0.63226 0.05376 0.0
H1708 H 0.15774 0.62038 0.02537 0.0
H1709 H 0.14973 0.54273 0.11218 0.0
H1710 H 0.15296 0.57212 0.12089 0.0
H1711 H 0.12631 0.56261 0.10949 0.0
H1712 H 0.14371 0.6579 0.11404 0.0
H1713 H 0.0816 0.63025 0.08651 0.0
H1714 H 0.181 0.62663 0.08986 0.0
H1715 H 0.17646 0.60468 0.11071 0.0
H1716 H 0.17672 0.63433 0.11932 0.0
H1717 H 0.1015 0.59153 0.05338 0.0
H1718 H 0.07903 0.59147 0.07439 0.0
H1719 H 0.10316 0.57246 0.07726 0.0
C1720 C 0.65797 0.97382 0.02489 0.0
C1721 C 0.64346 0.9929 0.02582 0.0
C1722 C 0.64917 0.9517 0.02196 0.0
C1723 C 0.62529 0.94861 0.01983 0.0
C1724 C 0.61054 0.96776 0.02093 0.0
C1725 C 0.6198 0.98966 0.02387 0.0
C1726 C 0.66551 0.93177 0.02078 0.0
C1727 C 0.5849 0.9651 0.01927 0.0
C1728 C 0.59754 0.89579 0.99421 0.0
C1729 C 0.58999 0.88459 0.01395 0.0
C1730 C 0.61027 0.91612 0.99579 0.0
C1731 C 0.61537 0.92534 0.01762 0.0
C1732 C 0.60906 0.91322 0.03754 0.0
C1733 C 0.59664 0.89291 0.03544 0.0
C1734 C 0.61722 0.92836 0.97419 0.0
C1735 C 0.61446 0.92228 0.06112 0.0
H1736 H 0.67626 0.97613 0.02616 0.0
H1737 H 0.60845 0.00427 0.02464 0.0
H1738 H 0.65942 0.91731 0.03143 0.0
H1739 H 0.66656 0.92559 0.00288 0.0
H1740 H 0.68296 0.93658 0.02652 0.0
H1741 H 0.57584 0.98176 0.02013 0.0
H1742 H 0.58031 0.95655 0.00298 0.0
H1743 H 0.57865 0.9541 0.03339 0.0
H1744 H 0.59251 0.88927 0.97762 0.0
H1745 H 0.59151 0.88386 0.05073 0.0
H1746 H 0.63562 0.93292 0.97486 0.0
H1747 H 0.60744 0.94453 0.97264 0.0
H1748 H 0.61406 0.91786 0.95869 0.0
H1749 H 0.63319 0.92451 0.06306 0.0
H1750 H 0.60825 0.91077 0.07488 0.0
H1751 H 0.60646 0.93931 0.06349 0.0
C1752 C 0.43136 0.34368 0.25548 0.0
C1753 C 0.44865 0.34189 0.27198 0.0
C1754 C 0.41288 0.35864 0.25862 0.0
C1755 C 0.41157 0.37189 0.27883 0.0
C1756 C 0.42952 0.37109 0.29494 0.0
C1757 C 0.44793 0.35629 0.29119 0.0
C1758 C 0.39421 0.35946 0.24082 0.0
C1759 C 0.42872 0.38487 0.31676 0.0
C1760 C 0.3685 0.42022 0.2813 0.0
C1761 C 0.34962 0.40921 0.29116 0.0
C1762 C 0.38894 0.40838 0.27736 0.0
C1763 C 0.39061 0.38517 0.28395 0.0
C1764 C 0.37196 0.37433 0.29494 0.0
C1765 C 0.35155 0.38643 0.29816 0.0
C1766 C 0.40838 0.42041 0.26537 0.0
C1767 C 0.37335 0.34977 0.30281 0.0
H1768 H 0.43168 0.33267 0.24062 0.0
H1769 H 0.46142 0.35554 0.30378 0.0
H1770 H 0.37838 0.35176 0.24786 0.0
H1771 H 0.39023 0.37743 0.23625 0.0
H1772 H 0.39895 0.35005 0.22502 0.0
H1773 H 0.44486 0.38361 0.32669 0.0
H1774 H 0.42535 0.40313 0.31298 0.0
H1775 H 0.41447 0.37865 0.32764 0.0
H1776 H 0.36696 0.4378 0.27565 0.0
H1777 H 0.33698 0.37798 0.30591 0.0
H1778 H 0.41227 0.41157 0.24905 0.0
H1779 H 0.42406 0.41972 0.27599 0.0
H1780 H 0.4044 0.43859 0.26162 0.0
H1781 H 0.37535 0.33835 0.28781 0.0
H1782 H 0.3579 0.34441 0.31247 0.0
H1783 H 0.38857 0.3473 0.31387 0.0
C1784 C 0.96458 0.11987 0.48363 0.0
C1785 C 0.98559 0.11493 0.49399 0.0
C1786 C 0.94617 0.10466 0.48528 0.0
C1787 C 0.94888 0.08418 0.49783 0.0
C1788 C 0.9705 0.0784 0.50704 0.0
C1789 C 0.98869 0.09384 0.50487 0.0
C1790 C 0.92346 0.11125 0.47495 0.0
C1791 C 0.97397 0.05677 0.5207 0.0
C1792 C 0.89751 0.06074 0.52937 0.0
C1793 C 0.89168 0.04182 0.51588 0.0
C1794 C 0.91588 0.07487 0.52343 0.0
C1795 C 0.92862 0.07004 0.50343 0.0
C1796 C 0.9224 0.05142 0.48934 0.0
C1797 C 0.90401 0.03747 0.49577 0.0
C1798 C 0.92203 0.09462 0.53891 0.0
C1799 C 0.93546 0.04598 0.46776 0.0
H1800 H 0.96233 0.13616 0.47509 0.0
H1801 H 0.00486 0.09016 0.51312 0.0
H1802 H 0.91599 0.09666 0.46542 0.0
H1803 H 0.91132 0.11581 0.48878 0.0
H1804 H 0.92502 0.12608 0.4632 0.0
H1805 H 0.99227 0.05366 0.52466 0.0
H1806 H 0.96442 0.05802 0.53704 0.0
H1807 H 0.96713 0.04179 0.5113 0.0
H1808 H 0.88807 0.06423 0.54493 0.0
H1809 H 0.89953 0.02293 0.4852 0.0
H1810 H 0.92197 0.11085 0.52911 0.0
H1811 H 0.93956 0.09221 0.54574 0.0
H1812 H 0.91004 0.09635 0.55353 0.0
H1813 H 0.93639 0.0613 0.45663 0.0
H1814 H 0.92755 0.03177 0.45795 0.0
H1815 H 0.95326 0.04112 0.47212 0.0
C1816 C 0.2537 0.6639 0.77214 0.0
C1817 C 0.27159 0.65438 0.75941 0.0
C1818 C 0.23663 0.67685 0.76155 0.0
C1819 C 0.23734 0.68015 0.73758 0.0
C1820 C 0.25517 0.67035 0.72454 0.0
C1821 C 0.27222 0.65766 0.73566 0.0
C1822 C 0.21789 0.68709 0.7761 0.0
C1823 C 0.25616 0.6732 0.69892 0.0
C1824 C 0.17893 0.69749 0.71732 0.0
C1825 C 0.18069 0.72131 0.71847 0.0
C1826 C 0.19805 0.68361 0.72111 0.0
C1827 C 0.21922 0.69396 0.72654 0.0
C1828 C 0.22155 0.71802 0.72537 0.0
C1829 C 0.20218 0.73147 0.72116 0.0
C1830 C 0.19496 0.658 0.72169 0.0
C1831 C 0.24381 0.72971 0.73117 0.0
H1832 H 0.25311 0.66146 0.7905 0.0
H1833 H 0.28594 0.65019 0.72571 0.0
H1834 H 0.21749 0.70591 0.77384 0.0
H1835 H 0.20103 0.68035 0.77063 0.0
H1836 H 0.22015 0.68328 0.79457 0.0
H1837 H 0.27102 0.66423 0.69124 0.0
H1838 H 0.24026 0.66647 0.69106 0.0
H1839 H 0.25723 0.6916 0.69448 0.0
H1840 H 0.16223 0.68977 0.71511 0.0
H1841 H 0.20344 0.74991 0.72223 0.0
H1842 H 0.19385 0.65222 0.73971 0.0
H1843 H 0.20977 0.64923 0.71374 0.0
H1844 H 0.1791 0.65263 0.71273 0.0
H1845 H 0.24645 0.72912 0.74995 0.0
H1846 H 0.24389 0.7479 0.7257 0.0
H1847 H 0.25845 0.72083 0.72306 0.0
C1848 C 0.46386 0.4117 0.5588 0.0
C1849 C 0.46494 0.40616 0.58215 0.0
C1850 C 0.44884 0.42842 0.5507 0.0
C1851 C 0.43461 0.44009 0.56633 0.0
C1852 C 0.43526 0.43437 0.58986 0.0
C1853 C 0.4505 0.41746 0.59751 0.0
C1854 C 0.44876 0.43411 0.52551 0.0
C1855 C 0.42032 0.44655 0.60699 0.0
C1856 C 0.41712 0.50031 0.55073 0.0
C1857 C 0.39431 0.49734 0.54399 0.0
C1858 C 0.43036 0.48178 0.55796 0.0
C1859 C 0.42064 0.45966 0.55829 0.0
C1860 C 0.39787 0.45635 0.55074 0.0
C1861 C 0.3849 0.47531 0.54374 0.0
C1862 C 0.45468 0.48597 0.56563 0.0
C1863 C 0.38702 0.43295 0.55058 0.0
H1864 H 0.47534 0.4035 0.54683 0.0
H1865 H 0.45122 0.41313 0.6155 0.0
H1866 H 0.43109 0.43337 0.51868 0.0
H1867 H 0.45509 0.4518 0.52292 0.0
H1868 H 0.45969 0.42231 0.51541 0.0
H1869 H 0.4219 0.43921 0.62443 0.0
H1870 H 0.42509 0.4649 0.6077 0.0
H1871 H 0.40216 0.44564 0.60161 0.0
H1872 H 0.42459 0.51727 0.5508 0.0
H1873 H 0.36725 0.47291 0.53863 0.0
H1874 H 0.46666 0.47563 0.55521 0.0
H1875 H 0.45676 0.48055 0.58368 0.0
H1876 H 0.45968 0.50424 0.5642 0.0
H1877 H 0.39862 0.42024 0.54262 0.0
H1878 H 0.37052 0.43283 0.5412 0.0
H1879 H 0.38385 0.42736 0.56842 0.0
C1880 C 0.83154 0.15494 0.79072 0.0
C1881 C 0.81169 0.15288 0.80399 0.0
C1882 C 0.8504 0.16739 0.79863 0.0
C1883 C 0.84929 0.17826 0.82023 0.0
C1884 C 0.82991 0.17501 0.83432 0.0
C1885 C 0.81134 0.16227 0.82605 0.0
C1886 C 0.87092 0.17015 0.7832 0.0
C1887 C 0.82813 0.18627 0.85747 0.0
C1888 C 0.90461 0.20538 0.84093 0.0
C1889 C 0.90241 0.22744 0.8319 0.0
C1890 C 0.88699 0.18924 0.83821 0.0
C1891 C 0.86683 0.19555 0.82637 0.0
C1892 C 0.86408 0.21827 0.81853 0.0
C1893 C 0.88196 0.23387 0.82134 0.0
C1894 C 0.89052 0.16518 0.84676 0.0
C1895 C 0.84277 0.22582 0.80605 0.0
H1896 H 0.83209 0.14749 0.77377 0.0
H1897 H 0.79613 0.16063 0.8365 0.0
H1898 H 0.87152 0.18792 0.77661 0.0
H1899 H 0.88695 0.1671 0.79284 0.0
H1900 H 0.87037 0.15827 0.76838 0.0
H1901 H 0.81371 0.1793 0.86767 0.0
H1902 H 0.84421 0.18403 0.86727 0.0
H1903 H 0.82542 0.2049 0.8552 0.0
H1904 H 0.92056 0.2004 0.84891 0.0
H1905 H 0.88033 0.25104 0.81455 0.0
H1906 H 0.89339 0.15362 0.832 0.0
H1907 H 0.87509 0.15898 0.85588 0.0
H1908 H 0.90547 0.1639 0.85839 0.0
H1909 H 0.84156 0.21674 0.78944 0.0
H1910 H 0.84264 0.24451 0.80269 0.0
H1911 H 0.82732 0.22136 0.8161 0.0
C1912 C 0.71119 0.83324 0.29507 0.0
C1913 C 0.69736 0.83926 0.31365 0.0
C1914 C 0.72673 0.84892 0.28582 0.0
C1915 C 0.72869 0.87087 0.29579 0.0
C1916 C 0.71528 0.8767 0.31508 0.0
C1917 C 0.69947 0.86086 0.32358 0.0
C1918 C 0.74037 0.84234 0.26492 0.0
C1919 C 0.71725 0.89981 0.32643 0.0
C1920 C 0.78194 0.90609 0.2865 0.0
C1921 C 0.77388 0.92323 0.2718 0.0
C1922 C 0.76753 0.88857 0.29399 0.0
C1923 C 0.74472 0.88787 0.28612 0.0
C1924 C 0.73684 0.90435 0.27023 0.0
C1925 C 0.75151 0.92203 0.2634 0.0
C1926 C 0.77636 0.87162 0.31136 0.0
C1927 C 0.71274 0.90367 0.26103 0.0
H1928 H 0.70896 0.81666 0.28712 0.0
H1929 H 0.68843 0.86538 0.33774 0.0
H1930 H 0.73606 0.85395 0.25056 0.0
H1931 H 0.75892 0.84429 0.26832 0.0
H1932 H 0.73703 0.82445 0.25947 0.0
H1933 H 0.70658 0.90107 0.34208 0.0
H1934 H 0.73531 0.90326 0.3311 0.0
H1935 H 0.71185 0.91338 0.31435 0.0
H1936 H 0.7992 0.90698 0.29317 0.0
H1937 H 0.74531 0.93518 0.25191 0.0
H1938 H 0.7733 0.85387 0.30545 0.0
H1939 H 0.76696 0.87381 0.32769 0.0
H1940 H 0.79491 0.87377 0.31477 0.0
H1941 H 0.70952 0.88696 0.25266 0.0
H1942 H 0.70942 0.91754 0.24848 0.0
H1943 H 0.70031 0.90529 0.27524 0.0
C1944 C 0.0104 0.1125 0.73289 0.0
C1945 C 0.03418 0.10961 0.73326 0.0
C1946 C 0.00044 0.13295 0.74041 0.0
C1947 C 0.01471 0.15105 0.74779 0.0
C1948 C 0.03878 0.14862 0.7469 0.0
C1949 C 0.04823 0.12773 0.74001 0.0
C1950 C 0.97472 0.13468 0.74166 0.0
C1951 C 0.05454 0.16779 0.75401 0.0
C1952 C 0.99081 0.21089 0.75487 0.0
C1953 C 0.98943 0.21252 0.77872 0.0
C1954 C -0.00129 0.19081 0.74441 0.0
C1955 C 0.00463 0.17184 0.7582 0.0
C1956 C 0.00217 0.17312 0.78225 0.0
C1957 C 0.99496 0.19363 0.79226 0.0
C1958 C 0.0017 0.19028 0.71878 0.0
C1959 C 0.0077 0.15301 0.79747 0.0
H1960 H -0.00046 0.09834 0.72785 0.0
H1961 H 0.06663 0.12547 0.74011 0.0
H1962 H 0.96935 0.13592 0.75981 0.0
H1963 H 0.9687 0.15039 0.73293 0.0
H1964 H 0.9661 0.11967 0.73383 0.0
H1965 H 0.0727 0.16404 0.7499 0.0
H1966 H 0.04957 0.18393 0.7454 0.0
H1967 H 0.0531 0.17064 0.7727 0.0
H1968 H 0.98672 0.22566 0.74445 0.0
H1969 H 0.9937 0.19494 0.81071 0.0
H1970 H 0.9926 0.17539 0.71138 0.0
H1971 H 0.02008 0.18828 0.71458 0.0
H1972 H 0.99529 0.2061 0.71045 0.0
H1973 H -0.00131 0.13748 0.79135 0.0
H1974 H 0.00285 0.15614 0.81556 0.0
H1975 H 0.0263 0.14941 0.79679 0.0
C1976 C 0.15736 0.73972 0.02629 0.0
C1977 C 0.13827 0.72546 0.02463 0.0
C1978 C 0.16814 0.74803 0.00664 0.0
C1979 C 0.15958 0.74186 0.98479 0.0
C1980 C 0.14198 0.72541 0.98301 0.0
C1981 C 0.13159 0.71725 0.00304 0.0
C1982 C 0.18704 0.76541 0.00943 0.0
C1983 C 0.1325 0.71813 0.96014 0.0
C1984 C 0.16855 0.7946 0.95065 0.0
C1985 C 0.19094 0.7908 0.94315 0.0
C1986 C 0.15617 0.77711 0.96127 0.0
C1987 C 0.16676 0.75563 0.96474 0.0
C1988 C 0.1876 0.75065 0.95357 0.0
C1989 C 0.19947 0.76838 0.94261 0.0
C1990 C 0.13331 0.78279 0.9718 0.0
C1991 C 0.19881 0.72759 0.95598 0.0
H1992 H 0.16285 0.74579 0.04292 0.0
H1993 H 0.11705 0.70587 0.00158 0.0
H1994 H 0.20106 0.76215 0.99715 0.0
H1995 H 0.1802 0.78274 0.00586 0.0
H1996 H 0.19424 0.76536 0.027 0.0
H1997 H 0.12423 0.70107 0.9612 0.0
H1998 H 0.11936 0.7306 0.9546 0.0
H1999 H 0.14598 0.71766 0.94683 0.0
H2000 H 0.16159 0.81177 0.95035 0.0
H2001 H 0.21649 0.76516 0.93609 0.0
H2002 H 0.13577 0.78714 0.9901 0.0
H2003 H 0.12153 0.76799 0.97088 0.0
H2004 H 0.12516 0.79762 0.96318 0.0
H2005 H 0.20533 0.72563 0.97367 0.0
H2006 H 0.21332 0.72542 0.94393 0.0
H2007 H 0.18618 0.71375 0.95304 0.0
C2008 C 0.55909 0.94056 0.20077 0.0
C2009 C 0.53625 0.93406 0.20439 0.0
C2010 C 0.57707 0.9268 0.20869 0.0
C2011 C 0.57188 0.90639 0.22053 0.0
C2012 C 0.54908 0.89827 0.22113 0.0
C2013 C 0.53151 0.91218 0.21284 0.0
C2014 C 0.60137 0.93519 0.20655 0.0
C2015 C 0.54287 0.87627 0.23315 0.0
C2016 C 0.61025 0.86304 0.24863 0.0
C2017 C 0.60809 0.86981 0.27157 0.0
C2018 C 0.60069 0.87621 0.23103 0.0
C2019 C 0.58863 0.89638 0.23667 0.0
C2020 C 0.58891 0.9046 0.25947 0.0
C2021 C 0.59875 0.89122 0.27664 0.0
C2022 C 0.60168 0.86724 0.20689 0.0
C2023 C 0.57655 0.92622 0.26628 0.0
H2024 H 0.56293 0.95727 0.19374 0.0
H2025 H 0.51391 0.90682 0.21505 0.0
H2026 H 0.60766 0.94103 0.22346 0.0
H2027 H 0.61269 0.92107 0.2009 0.0
H2028 H 0.60285 0.94962 0.1943 0.0
H2029 H 0.52471 0.87152 0.23043 0.0
H2030 H 0.55383 0.86206 0.22707 0.0
H2031 H 0.54579 0.87816 0.2518 0.0
H2032 H 0.61788 0.84667 0.24449 0.0
H2033 H 0.59752 0.89677 0.29428 0.0
H2034 H 0.59967 0.88105 0.19405 0.0
H2035 H 0.58775 0.85463 0.20437 0.0
H2036 H 0.61812 0.85826 0.20376 0.0
H2037 H 0.58044 0.94022 0.25417 0.0
H2038 H 0.5812 0.93194 0.28378 0.0
H2039 H 0.55782 0.92321 0.26573 0.0
C2040 C 0.45908 0.2805 0.55531 0.0
C2041 C 0.46603 0.3031 0.55902 0.0
C2042 C 0.43658 0.27559 0.54854 0.0
C2043 C 0.42069 0.29368 0.54603 0.0
C2044 C 0.42753 0.31645 0.55034 0.0
C2045 C 0.45018 0.32089 0.55654 0.0
C2046 C 0.42994 0.25115 0.5436 0.0
C2047 C 0.41097 0.33617 0.54828 0.0
C2048 C 0.36926 0.28699 0.50737 0.0
C2049 C 0.35197 0.2817 0.52309 0.0
C2050 C 0.39182 0.29036 0.51458 0.0
C2051 C 0.39706 0.28902 0.53814 0.0
C2052 C 0.37961 0.28403 0.55415 0.0
C2053 C 0.35726 0.28012 0.54637 0.0
C2054 C 0.41006 0.29523 0.49696 0.0
C2055 C 0.38451 0.28303 0.57947 0.0
H2056 H 0.47136 0.26676 0.55717 0.0
H2057 H 0.45541 0.33836 0.55972 0.0
H2058 H 0.41529 0.24604 0.55449 0.0
H2059 H 0.42434 0.24956 0.52554 0.0
H2060 H 0.44426 0.23905 0.54659 0.0
H2061 H 0.41876 0.35271 0.55342 0.0
H2062 H 0.40494 0.33767 0.53037 0.0
H2063 H 0.39573 0.33302 0.55911 0.0
H2064 H 0.36527 0.28796 0.48931 0.0
H2065 H 0.34388 0.27606 0.55853 0.0
H2066 H 0.42417 0.28267 0.49857 0.0
H2067 H 0.41747 0.31243 0.49992 0.0
H2068 H 0.40333 0.29454 0.47923 0.0
H2069 H 0.39767 0.26986 0.58302 0.0
H2070 H 0.369 0.27901 0.58966 0.0
H2071 H 0.39149 0.29967 0.58533 0.0
C2072 C 0.55506 0.45507 0.30903 0.0
C2073 C 0.55268 0.46322 0.3314 0.0
C2074 C 0.55284 0.43169 0.30424 0.0
C2075 C 0.54887 0.41619 0.32239 0.0
C2076 C 0.54667 0.42435 0.34504 0.0
C2077 C 0.54825 0.44784 0.34921 0.0
C2078 C 0.5545 0.42358 0.2798 0.0
C2079 C 0.54284 0.40827 0.36488 0.0
C2080 C 0.52146 0.35872 0.31181 0.0
C2081 C 0.5405 0.34417 0.31153 0.0
C2082 C 0.52406 0.38232 0.31451 0.0
C2083 C 0.54618 0.39146 0.31774 0.0
C2084 C 0.5655 0.37688 0.31753 0.0
C2085 C 0.56244 0.35334 0.31406 0.0
C2086 C 0.5031 0.39741 0.31412 0.0
C2087 C 0.58928 0.38607 0.32149 0.0
H2088 H 0.55844 0.46701 0.29527 0.0
H2089 H 0.54667 0.4541 0.36656 0.0
H2090 H 0.5687 0.41116 0.27802 0.0
H2091 H 0.53853 0.4146 0.2749 0.0
H2092 H 0.5574 0.43788 0.26765 0.0
H2093 H 0.54345 0.41718 0.38161 0.0
H2094 H 0.52593 0.39987 0.36317 0.0
H2095 H 0.55597 0.39459 0.36485 0.0
H2096 H 0.50449 0.3517 0.30954 0.0
H2097 H 0.57713 0.34205 0.31383 0.0
H2098 H 0.50578 0.4122 0.30256 0.0
H2099 H 0.49986 0.40427 0.33148 0.0
H2100 H 0.48761 0.38804 0.30841 0.0
H2101 H 0.59336 0.39939 0.30864 0.0
H2102 H 0.60251 0.37248 0.32055 0.0
H2103 H 0.59021 0.39427 0.33857 0.0
C2104 C 0.93335 0.19531 0.54918 0.0
C2105 C 0.95593 0.19305 0.55669 0.0
C2106 C 0.91738 0.20735 0.56222 0.0
C2107 C 0.92437 0.21717 0.58322 0.0
C2108 C 0.94575 0.21112 0.59273 0.0
C2109 C 0.96156 0.1992 0.57917 0.0
C2110 C 0.89422 0.21233 0.55192 0.0
C2111 C 0.95279 0.21952 0.61605 0.0
C2112 C 0.90418 0.27789 0.58228 0.0
C2113 C 0.88244 0.27555 0.59194 0.0
C2114 C 0.91927 0.25936 0.58157 0.0
C2115 C 0.91245 0.2381 0.59107 0.0
C2116 C 0.89186 0.23662 0.6036 0.0
C2117 C 0.87691 0.25535 0.6037 0.0
C2118 C 0.94146 0.26199 0.56855 0.0
C2119 C 0.88458 0.21484 0.61531 0.0
H2120 H 0.92886 0.18985 0.53204 0.0
H2121 H 0.97891 0.19694 0.58527 0.0
H2122 H 0.8805 0.20898 0.56454 0.0
H2123 H 0.89323 0.23063 0.54702 0.0
H2124 H 0.89083 0.2018 0.53648 0.0
H2125 H 0.96699 0.20912 0.62314 0.0
H2126 H 0.95859 0.23751 0.61484 0.0
H2127 H 0.93813 0.21904 0.62807 0.0
H2128 H 0.90879 0.29366 0.57371 0.0
H2129 H 0.86034 0.25362 0.61184 0.0
H2130 H 0.94114 0.25107 0.55304 0.0
H2131 H 0.95607 0.25638 0.5792 0.0
H2132 H 0.94461 0.27992 0.56316 0.0
H2133 H 0.8729 0.2052 0.60393 0.0
H2134 H 0.87502 0.21872 0.63125 0.0
H2135 H 0.89936 0.20374 0.61954 0.0
C2136 C 0.04981 0.65474 0.8614 0.0
C2137 C 0.05286 0.6333 0.87146 0.0
C2138 C 0.06854 0.66728 0.85346 0.0
C2139 C 0.09088 0.65815 0.85592 0.0
C2140 C 0.09424 0.63835 0.86936 0.0
C2141 C 0.07508 0.62595 0.87689 0.0
C2142 C 0.06403 0.68891 0.84007 0.0
C2143 C 0.11793 0.62952 0.87439 0.0
C2144 C 0.11594 0.66957 0.79904 0.0
C2145 C 0.12229 0.69241 0.80216 0.0
C2146 C 0.10904 0.65625 0.81763 0.0
C2147 C 0.10876 0.66612 0.83975 0.0
C2148 C 0.11975 0.68732 0.84341 0.0
C2149 C 0.12617 0.70056 0.8244 0.0
C2150 C 0.09877 0.63303 0.81299 0.0
C2151 C 0.12221 0.69699 0.86714 0.0
H2152 H 0.03266 0.66084 0.85788 0.0
H2153 H 0.07756 0.60966 0.88536 0.0
H2154 H 0.07508 0.70292 0.84634 0.0
H2155 H 0.0681 0.68608 0.82176 0.0
H2156 H 0.04596 0.69457 0.84138 0.0
H2157 H 0.11761 0.61364 0.88479 0.0
H2158 H 0.1273 0.6261 0.85829 0.0
H2159 H 0.12773 0.64274 0.8838 0.0
H2160 H 0.11386 0.66293 0.78186 0.0
H2161 H 0.1319 0.71799 0.82696 0.0
H2162 H 0.07987 0.63402 0.81443 0.0
H2163 H 0.10487 0.62046 0.82572 0.0
H2164 H 0.10314 0.62662 0.79565 0.0
H2165 H 0.10523 0.70209 0.87382 0.0
H2166 H 0.13371 0.71209 0.86743 0.0
H2167 H 0.12911 0.68379 0.87885 0.0
C2168 C 0.60294 0.7928 0.08554 0.0
C2169 C 0.59064 0.81235 0.07932 0.0
C2170 C 0.62617 0.79423 0.09109 0.0
C2171 C 0.63732 0.8157 0.09012 0.0
C2172 C 0.62449 0.83576 0.08596 0.0
C2173 C 0.60121 0.83384 0.08066 0.0
C2174 C 0.63919 0.77248 0.09593 0.0
C2175 C 0.63556 0.85904 0.08496 0.0
C2176 C 0.69959 0.81501 0.10811 0.0
C2177 C 0.71014 0.80972 0.08724 0.0
C2178 C 0.67582 0.8181 0.10935 0.0
C2179 C 0.66262 0.81633 0.08916 0.0
C2180 C 0.67351 0.81284 0.06784 0.0
C2181 C 0.69713 0.80936 0.06719 0.0
C2182 C 0.66475 0.82196 0.13233 0.0
C2183 C 0.66008 0.81145 0.04582 0.0
H2184 H 0.59472 0.7762 0.08499 0.0
H2185 H 0.59171 0.84909 0.07619 0.0
H2186 H 0.64979 0.76802 0.08084 0.0
H2187 H 0.6509 0.7748 0.11066 0.0
H2188 H 0.62758 0.75791 0.09961 0.0
H2189 H 0.62308 0.87271 0.08914 0.0
H2190 H 0.65028 0.86036 0.09683 0.0
H2191 H 0.6419 0.86215 0.06735 0.0
H2192 H 0.70968 0.81554 0.12363 0.0
H2193 H 0.70535 0.80567 0.05099 0.0
H2194 H 0.65501 0.80647 0.13734 0.0
H2195 H 0.65242 0.83634 0.13141 0.0
H2196 H 0.67752 0.82564 0.14589 0.0
H2197 H 0.64894 0.79609 0.04609 0.0
H2198 H 0.67134 0.81043 0.03056 0.0
H2199 H 0.64885 0.82662 0.04401 0.0
C2200 C 0.75556 0.0168 0.19588 0.0
C2201 C 0.77899 0.02075 0.19895 0.0
C2202 C 0.74482 0.0222 0.17519 0.0
C2203 C 0.75799 0.03121 0.15701 0.0
C2204 C 0.78174 0.03487 0.15991 0.0
C2205 C 0.79193 0.02987 0.18101 0.0
C2206 C 0.71936 0.01855 0.17288 0.0
C2207 C 0.79638 0.04397 0.14069 0.0
C2208 C 0.73348 0.02582 0.09732 0.0
C2209 C 0.72572 0.04812 0.09334 0.0
C2210 C 0.74432 0.02013 0.1179 0.0
C2211 C 0.74684 0.03701 0.13503 0.0
C2212 C 0.73865 0.05945 0.13123 0.0
C2213 C 0.72843 0.06482 0.11025 0.0
C2214 C 0.7533 0.99615 0.12119 0.0
C2215 C 0.74056 0.07773 0.14936 0.0
H2216 H 0.74552 0.0099 0.20984 0.0
H2217 H 0.81008 0.03274 0.18336 0.0
H2218 H 0.71088 0.03491 0.16839 0.0
H2219 H 0.7158 0.00634 0.15882 0.0
H2220 H 0.71155 0.01184 0.18883 0.0
H2221 H 0.81471 0.04507 0.14549 0.0
H2222 H 0.79474 0.03277 0.12547 0.0
H2223 H 0.79041 0.06123 0.13564 0.0
H2224 H 0.73155 0.01296 0.08411 0.0
H2225 H 0.72226 0.08202 0.10719 0.0
H2226 H 0.74478 0.98802 0.13605 0.0
H2227 H 0.77188 0.99668 0.12495 0.0
H2228 H 0.7505 0.98523 0.1059 0.0
H2229 H 0.73203 0.07195 0.16528 0.0
H2230 H 0.73274 0.09415 0.1439 0.0
H2231 H 0.75879 0.08083 0.15354 0.0
C2232 C 0.28757 0.5296 0.45389 0.0
C2233 C 0.30905 0.53087 0.46435 0.0
C2234 C 0.28564 0.52467 0.43049 0.0
C2235 C 0.30571 0.52156 0.4173 0.0
C2236 C 0.32744 0.52337 0.42774 0.0
C2237 C 0.32883 0.52771 0.45121 0.0
C2238 C 0.26219 0.5223 0.41999 0.0
C2239 C 0.34922 0.52063 0.41414 0.0
C2240 C 0.30395 0.48649 0.36304 0.0
C2241 C 0.30261 0.50349 0.34622 0.0
C2242 C 0.30435 0.49216 0.38627 0.0
C2243 C 0.30407 0.51543 0.39278 0.0
C2244 C 0.30296 0.53272 0.37588 0.0
C2245 C 0.30192 0.52651 0.35273 0.0
C2246 C 0.30504 0.47323 0.40382 0.0
C2247 C 0.3032 0.55773 0.38224 0.0
H2248 H 0.27229 0.532 0.46408 0.0
H2249 H 0.34549 0.529 0.45921 0.0
H2250 H 0.26024 0.53444 0.40557 0.0
H2251 H 0.26007 0.50482 0.41294 0.0
H2252 H 0.24831 0.5255 0.43255 0.0
H2253 H 0.36472 0.52401 0.42459 0.0
H2254 H 0.35034 0.503 0.40727 0.0
H2255 H 0.3492 0.53247 0.39933 0.0
H2256 H 0.30422 0.46866 0.35808 0.0
H2257 H 0.30093 0.53966 0.33971 0.0
H2258 H 0.29103 0.47545 0.41641 0.0
H2259 H 0.32139 0.47394 0.41339 0.0
H2260 H 0.30342 0.45604 0.39595 0.0
H2261 H 0.28857 0.56167 0.39364 0.0
H2262 H 0.30226 0.56905 0.36703 0.0
H2263 H 0.31905 0.56177 0.39184 0.0
C2264 C 0.85698 0.06848 0.61649 0.0
C2265 C 0.84448 0.04865 0.62177 0.0
C2266 C 0.85464 0.08839 0.6297 0.0
C2267 C 0.83927 0.08838 0.64835 0.0
C2268 C 0.82825 0.06778 0.65489 0.0
C2269 C 0.83118 0.04814 0.64162 0.0
C2270 C 0.86727 0.10966 0.62242 0.0
C2271 C 0.81144 0.06692 0.67451 0.0
C2272 C 0.82553 0.12814 0.69598 0.0
C2273 C 0.80347 0.13441 0.68902 0.0
C2274 C 0.83981 0.11587 0.68113 0.0
C2275 C 0.8316 0.10999 0.65916 0.0
C2276 C 0.81141 0.12033 0.65078 0.0
C2277 C 0.79742 0.13238 0.66596 0.0
C2278 C 0.86197 0.10625 0.69007 0.0
C2279 C 0.80273 0.11564 0.62693 0.0
H2280 H 0.86754 0.06896 0.60127 0.0
H2281 H 0.82174 0.0328 0.64596 0.0
H2282 H 0.85758 0.11825 0.60857 0.0
H2283 H 0.86949 0.12193 0.63671 0.0
H2284 H 0.88437 0.1052 0.61545 0.0
H2285 H 0.80669 0.04913 0.67913 0.0
H2286 H 0.81855 0.0754 0.68986 0.0
H2287 H 0.79563 0.07621 0.66966 0.0
H2288 H 0.83055 0.13022 0.7137 0.0
H2289 H 0.78063 0.13795 0.66041 0.0
H2290 H 0.87541 0.107 0.6767 0.0
H2291 H 0.85949 0.08803 0.69469 0.0
H2292 H 0.86796 0.11555 0.7055 0.0
H2293 H 0.8168 0.11698 0.61431 0.0
H2294 H 0.78892 0.12767 0.62195 0.0
H2295 H 0.79585 0.09797 0.62606 0.0
C2296 C 0.24305 0.63395 0.86519 0.0
C2297 C 0.26513 0.62989 0.87368 0.0
C2298 C 0.22376 0.62712 0.87779 0.0
C2299 C 0.22695 0.61556 0.89876 0.0
C2300 C 0.24897 0.61513 0.90894 0.0
C2301 C 0.26781 0.62247 0.89623 0.0
C2302 C 0.20026 0.63021 0.86775 0.0
C2303 C 0.25321 0.6041 0.93194 0.0
C2304 C 0.1923 0.58429 0.94158 0.0
C2305 C 0.19832 0.5619 0.93522 0.0
C2306 C 0.19774 0.60283 0.92736 0.0
C2307 C 0.20988 0.59866 0.90693 0.0
C2308 C 0.21169 0.57595 0.8986 0.0
C2309 C 0.2056 0.55775 0.91285 0.0
C2310 C 0.19313 0.62687 0.93541 0.0
C2311 C 0.22362 0.57056 0.87638 0.0
H2312 H 0.24084 0.64043 0.84798 0.0
H2313 H 0.28486 0.6202 0.90314 0.0
H2314 H 0.19329 0.61343 0.8625 0.0
H2315 H 0.18848 0.63733 0.88078 0.0
H2316 H 0.20044 0.6417 0.85264 0.0
H2317 H 0.27095 0.60689 0.9381 0.0
H2318 H 0.24131 0.61101 0.94495 0.0
H2319 H 0.25021 0.5854 0.93073 0.0
H2320 H 0.18554 0.58754 0.95852 0.0
H2321 H 0.20934 0.54043 0.90745 0.0
H2322 H 0.18496 0.63685 0.92153 0.0
H2323 H 0.20942 0.63556 0.93973 0.0
H2324 H 0.18183 0.62719 0.95067 0.0
H2325 H 0.21804 0.58246 0.86283 0.0
H2326 H 0.2202 0.5528 0.87059 0.0
H2327 H 0.24235 0.57265 0.87858 0.0
C2328 C 0.84488 0.05286 0.72807 0.0
C2329 C 0.8374 0.06936 0.74377 0.0
C2330 C 0.868 0.04643 0.72695 0.0
C2331 C 0.88391 0.05631 0.74229 0.0
C2332 C 0.87631 0.0724 0.75868 0.0
C2333 C 0.85322 0.07876 0.75915 0.0
C2334 C 0.8755 0.02956 0.70892 0.0
C2335 C 0.89268 0.08323 0.77546 0.0
C2336 C 0.94093 0.02707 0.75328 0.0
C2337 C 0.95593 0.04035 0.74008 0.0
C2338 C 0.91741 0.03187 0.75394 0.0
C2339 C 0.90861 0.05031 0.74099 0.0
C2340 C 0.92359 0.06365 0.72747 0.0
C2341 C 0.94702 0.05857 0.72725 0.0
C2342 C 0.902 0.01737 0.76871 0.0
C2343 C 0.9149 0.08334 0.71323 0.0
H2344 H 0.83283 0.0455 0.71613 0.0
H2345 H 0.84753 0.09116 0.77166 0.0
H2346 H 0.88786 0.03785 0.69717 0.0
H2347 H 0.88438 0.01489 0.717 0.0
H2348 H 0.86092 0.02299 0.69868 0.0
H2349 H 0.8839 0.09491 0.7876 0.0
H2350 H 0.90164 0.06979 0.78538 0.0
H2351 H 0.90589 0.09311 0.76611 0.0
H2352 H 0.94755 0.0128 0.76302 0.0
H2353 H 0.95839 0.06923 0.71729 0.0
H2354 H 0.88825 0.00968 0.75816 0.0
H2355 H 0.89362 0.02821 0.78183 0.0
H2356 H 0.91144 0.00343 0.77749 0.0
H2357 H 0.90309 0.07677 0.69994 0.0
H2358 H 0.92895 0.09281 0.70464 0.0
H2359 H 0.90515 0.09549 0.72402 0.0
C2360 C 0.25864 0.73117 0.97313 0.0
C2361 C 0.25034 0.74547 0.9906 0.0
C2362 C 0.25758 0.70728 0.97493 0.0
C2363 C 0.24848 0.69719 0.99492 0.0
C2364 C 0.24035 0.71135 0.01278 0.0
C2365 C 0.24137 0.73525 0.01041 0.0
C2366 C 0.26614 0.69281 0.95532 0.0
C2367 C 0.23043 0.70123 0.03434 0.0
C2368 C 0.22952 0.63506 0.99079 0.0
C2369 C 0.24884 0.62346 -0.00098 0.0
C2370 C 0.2289 0.65905 0.98985 0.0
C2371 C 0.24809 0.67181 0.99729 0.0
C2372 C 0.26742 0.66023 0.00612 0.0
C2373 C 0.26758 0.63624 0.00682 0.0
C2374 C 0.208 0.67064 0.98015 0.0
C2375 C 0.28807 0.67319 0.01459 0.0
H2376 H 0.26607 0.73851 0.9579 0.0
H2377 H 0.23475 0.74583 0.02403 0.0
H2378 H 0.28042 0.68179 0.96117 0.0
H2379 H 0.2523 0.68134 0.94924 0.0
H2380 H 0.27219 0.70328 0.94068 0.0
H2381 H 0.22499 0.71455 0.04673 0.0
H2382 H 0.21542 0.69045 0.0301 0.0
H2383 H 0.24324 0.69002 0.0427 0.0
H2384 H 0.21508 0.62536 0.98447 0.0
H2385 H 0.28239 0.62745 0.01357 0.0
H2386 H 0.21198 0.67712 0.96278 0.0
H2387 H 0.20291 0.68548 0.99079 0.0
H2388 H 0.19322 0.6588 0.97889 0.0
H2389 H 0.29587 0.6829 0.00029 0.0
H2390 H 0.30126 0.66171 0.02199 0.0
H2391 H 0.28289 0.68578 0.02779 0.0
C2392 C 0.6891 0.02375 0.27979 0.0
C2393 C 0.70431 0.00534 0.28127 0.0
C2394 C 0.66554 0.02007 0.27702 0.0
C2395 C 0.65698 0.99742 0.27609 0.0
C2396 C 0.6722 0.97877 0.27845 0.0
C2397 C 0.6957 0.98296 0.2808 0.0
C2398 C 0.6499 0.04041 0.27428 0.0
C2399 C 0.66378 0.95437 0.2779 0.0
C2400 C 0.59296 0.98994 0.28493 0.0
C2401 C 0.58506 0.98835 0.26234 0.0
C2402 C 0.61639 0.99233 0.28973 0.0
C2403 C 0.63227 0.99333 0.2715 0.0
C2404 C 0.62449 0.99111 0.24871 0.0
C2405 C 0.60105 0.98852 0.24444 0.0
C2406 C 0.6241 0.9942 0.31427 0.0
C2407 C 0.64086 0.99191 0.22877 0.0
H2408 H 0.69575 0.04103 0.27993 0.0
H2409 H 0.70743 0.9687 0.28222 0.0
H2410 H 0.64184 0.03999 0.25711 0.0
H2411 H 0.63593 0.03969 0.28708 0.0
H2412 H 0.65911 0.0569 0.27624 0.0
H2413 H 0.67726 0.94206 0.28309 0.0
H2414 H 0.64882 0.9522 0.28936 0.0
H2415 H 0.65812 0.94999 0.26034 0.0
H2416 H 0.58082 0.98987 0.29888 0.0
H2417 H 0.5953 0.98661 0.22697 0.0
H2418 H 0.63184 0.01125 0.31728 0.0
H2419 H 0.63746 0.98124 0.3179 0.0
H2420 H 0.6098 0.99179 0.32652 0.0
H2421 H 0.64999 0.00854 0.22861 0.0
H2422 H 0.63206 0.98967 0.21209 0.0
H2423 H 0.65394 0.97831 0.23054 0.0
C2424 C 0.26447 0.45813 0.54252 0.0
C2425 C 0.28742 0.46428 0.54564 0.0
C2426 C 0.25821 0.4352 0.539 0.0
C2427 C 0.27531 0.41809 0.53883 0.0
C2428 C 0.29837 0.42412 0.54306 0.0
C2429 C 0.30414 0.44714 0.54628 0.0
C2430 C 0.23347 0.42943 0.53451 0.0
C2431 C 0.31712 0.40639 0.54327 0.0
C2432 C 0.26214 0.35464 0.54353 0.0
C2433 C 0.26517 0.34755 0.52085 0.0
C2434 C 0.26437 0.37778 0.54958 0.0
C2435 C 0.26961 0.39413 0.5325 0.0
C2436 C 0.27141 0.38717 0.5094 0.0
C2437 C 0.2692 0.36398 0.50388 0.0
C2438 C 0.2624 0.38455 0.5744 0.0
C2439 C 0.27673 0.40405 0.4906 0.0
H2440 H 0.25153 0.47136 0.54187 0.0
H2441 H 0.32185 0.45182 0.54906 0.0
H2442 H 0.23147 0.42366 0.51655 0.0
H2443 H 0.22786 0.41517 0.54567 0.0
H2444 H 0.22201 0.4443 0.53737 0.0
H2445 H 0.33349 0.41338 0.54987 0.0
H2446 H 0.31217 0.39154 0.55396 0.0
H2447 H 0.31998 0.40002 0.52564 0.0
H2448 H 0.25916 0.34196 0.55669 0.0
H2449 H 0.27112 0.35856 0.48628 0.0
H2450 H 0.25089 0.39949 0.57631 0.0
H2451 H 0.27945 0.38969 0.58092 0.0
H2452 H 0.25584 0.37035 0.58518 0.0
H2453 H 0.26468 0.41866 0.49128 0.0
H2454 H 0.27576 0.39616 0.47335 0.0
H2455 H 0.29421 0.411 0.49304 0.0
C2456 C 0.47022 0.54413 0.32608 0.0
C2457 C 0.48926 0.54541 0.3116 0.0
C2458 C 0.44839 0.53943 0.31741 0.0
C2459 C 0.44557 0.53566 0.29367 0.0
C2460 C 0.46455 0.53793 0.27882 0.0
C2461 C 0.4862 0.54291 0.28797 0.0
C2462 C 0.42858 0.53745 0.33384 0.0
C2463 C 0.46223 0.53397 0.25343 0.0
C2464 C 0.39615 0.49647 0.27894 0.0
C2465 C 0.37908 0.5121 0.27278 0.0
C2466 C 0.41813 0.50388 0.28491 0.0
C2467 C 0.42315 0.52755 0.28484 0.0
C2468 C 0.40625 0.54339 0.27782 0.0
C2469 C 0.38439 0.53545 0.27179 0.0
C2470 C 0.43572 0.48639 0.29204 0.0
C2471 C 0.41092 0.56876 0.27768 0.0
H2472 H 0.47254 0.54634 0.34432 0.0
H2473 H 0.50092 0.5437 0.27678 0.0
H2474 H 0.41356 0.54705 0.32739 0.0
H2475 H 0.42346 0.51925 0.33539 0.0
H2476 H 0.43295 0.54395 0.35113 0.0
H2477 H 0.47805 0.53856 0.24399 0.0
H2478 H 0.45836 0.51569 0.25021 0.0
H2479 H 0.4478 0.54409 0.24645 0.0
H2480 H 0.39218 0.47839 0.27935 0.0
H2481 H 0.3712 0.54759 0.26723 0.0
H2482 H 0.44016 0.48888 0.31031 0.0
H2483 H 0.45165 0.48865 0.282 0.0
H2484 H 0.42954 0.46858 0.28972 0.0
H2485 H 0.41351 0.57483 0.29546 0.0
H2486 H 0.39667 0.57863 0.26994 0.0
H2487 H 0.42684 0.57249 0.26808 0.0
C2488 C 0.82401 0.11041 0.54317 0.0
C2489 C 0.80625 0.0988 0.55439 0.0
C2490 C 0.82462 0.13436 0.54231 0.0
C2491 C 0.80695 0.14711 0.55279 0.0
C2492 C 0.78895 0.13555 0.56414 0.0
C2493 C 0.7888 0.11154 0.56479 0.0
C2494 C 0.84422 0.14603 0.5302 0.0
C2495 C 0.77002 0.14858 0.57587 0.0
C2496 C 0.81966 0.20895 0.56807 0.0
C2497 C 0.80915 0.22083 0.55004 0.0
C2498 C 0.8188 0.18501 0.56937 0.0
C2499 C 0.80745 0.17255 0.55201 0.0
C2500 C 0.79695 0.18438 0.53368 0.0
C2501 C 0.79792 0.20837 0.53293 0.0
C2502 C 0.83037 0.1731 0.58914 0.0
C2503 C 0.78465 0.17168 0.51489 0.0
H2504 H 0.83741 0.10074 0.53484 0.0
H2505 H 0.77526 0.10276 0.57384 0.0
H2506 H 0.83759 0.1569 0.51616 0.0
H2507 H 0.85342 0.15741 0.54227 0.0
H2508 H 0.85663 0.13363 0.52294 0.0
H2509 H 0.75723 0.13706 0.58389 0.0
H2510 H 0.77732 0.15982 0.5893 0.0
H2511 H 0.76117 0.15976 0.56337 0.0
H2512 H 0.82887 0.21833 0.5811 0.0
H2513 H 0.7896 0.21741 0.51909 0.0
H2514 H 0.84624 0.16471 0.58302 0.0
H2515 H 0.81921 0.1596 0.59639 0.0
H2516 H 0.83496 0.18519 0.60304 0.0
H2517 H 0.79663 0.15982 0.50621 0.0
H2518 H 0.77725 0.18339 0.50191 0.0
H2519 H 0.77068 0.16118 0.52225 0.0
C2520 C 0.10883 0.57069 0.80379 0.0
C2521 C 0.09879 0.57193 0.82556 0.0
C2522 C 0.13267 0.57161 0.801 0.0
C2523 C 0.14694 0.57356 0.82044 0.0
C2524 C 0.13703 0.57429 0.84249 0.0
C2525 C 0.11316 0.5737 0.84476 0.0
C2526 C 0.1426 0.57073 0.7772 0.0
C2527 C 0.15151 0.57641 0.86378 0.0
C2528 C 0.20987 0.55755 0.8169 0.0
C2529 C 0.22047 0.57905 0.8156 0.0
C2530 C 0.18598 0.55548 0.81812 0.0
C2531 C 0.17221 0.57536 0.81774 0.0
C2532 C 0.18264 0.59706 0.81564 0.0
C2533 C 0.20658 0.59866 0.81472 0.0
C2534 C 0.17547 0.53203 0.8205 0.0
C2535 C 0.16855 0.61871 0.81516 0.0
H2536 H 0.09807 0.56903 0.78884 0.0
H2537 H 0.1059 0.5752 0.86167 0.0
H2538 H 0.15222 0.58669 0.77366 0.0
H2539 H 0.15488 0.55635 0.77581 0.0
H2540 H 0.12924 0.56863 0.76387 0.0
H2541 H 0.14177 0.57196 0.87946 0.0
H2542 H 0.16686 0.56532 0.86285 0.0
H2543 H 0.15745 0.59431 0.86547 0.0
H2544 H 0.22024 0.54225 0.81725 0.0
H2545 H 0.21427 0.61545 0.81412 0.0
H2546 H 0.16246 0.52928 0.80698 0.0
H2547 H 0.1666 0.5307 0.83722 0.0
H2548 H 0.18841 0.51818 0.81941 0.0
H2549 H 0.15492 0.61747 0.80204 0.0
H2550 H 0.17909 0.63409 0.81155 0.0
H2551 H 0.16002 0.62107 0.83192 0.0
C2552 C 0.7369 0.95944 0.00896 0.0
C2553 C 0.75087 0.97854 0.01248 0.0
C2554 C 0.74494 0.93731 0.01327 0.0
C2555 C 0.76734 0.9343 0.02194 0.0
C2556 C 0.7819 0.95348 0.02454 0.0
C2557 C 0.77352 0.97544 0.01955 0.0
C2558 C 0.72898 0.91733 0.00977 0.0
C2559 C 0.80577 0.951 0.03397 0.0
C2560 C 0.77292 0.88262 0.06047 0.0
C2561 C 0.78305 0.86637 0.04594 0.0
C2562 C 0.76868 0.90501 0.05313 0.0
C2563 C 0.7744 0.91145 0.03055 0.0
C2564 C 0.78524 0.89553 0.01594 0.0
C2565 C 0.78959 0.87326 0.02385 0.0
C2566 C 0.75728 0.92157 0.06936 0.0
C2567 C 0.79143 0.90176 0.99168 0.0
H2568 H 0.71942 0.96193 0.00333 0.0
H2569 H 0.7842 0.99029 0.02246 0.0
H2570 H 0.73802 0.90275 0.00172 0.0
H2571 H 0.72247 0.91148 0.0266 0.0
H2572 H 0.71413 0.92197 -0.0011 0.0
H2573 H 0.81581 0.96703 0.0323 0.0
H2574 H 0.80482 0.94639 0.05234 0.0
H2575 H 0.81503 0.93703 0.02511 0.0
H2576 H 0.76758 0.87788 0.07749 0.0
H2577 H 0.79782 0.86123 0.0125 0.0
H2578 H 0.73985 0.92562 0.06309 0.0
H2579 H 0.76699 0.93784 0.07009 0.0
H2580 H 0.75585 0.91459 0.08697 0.0
H2581 H 0.7756 0.90497 0.98174 0.0
H2582 H 0.80132 0.88805 0.98303 0.0
H2583 H 0.80161 0.91775 0.99137 0.0
C2584 C 0.09425 0.7509 0.86368 0.0
C2585 C 0.07399 0.7522 0.85083 0.0
C2586 C 0.09383 0.75129 0.88769 0.0
C2587 C 0.07263 0.75299 0.8992 0.0
C2588 C 0.05217 0.75472 0.88639 0.0
C2589 C 0.0531 0.75427 0.86241 0.0
C2590 C 0.11604 0.74915 0.9007 0.0
C2591 C 0.02925 0.75693 0.89806 0.0
C2592 C 0.06754 0.73148 0.96031 0.0
C2593 C 0.06934 0.7518 0.97303 0.0
C2594 C 0.06893 0.73159 0.93634 0.0
C2595 C 0.07176 0.75257 0.92465 0.0
C2596 C 0.07349 0.77314 0.93725 0.0
C2597 C 0.07236 0.7725 0.96122 0.0
C2598 C 0.06752 0.70921 0.92354 0.0
C2599 C 0.07666 0.79584 0.9254 0.0
H2600 H 0.11048 0.74891 0.85506 0.0
H2601 H 0.0374 0.75565 0.85272 0.0
H2602 H 0.1171 0.7621 0.91451 0.0
H2603 H 0.11686 0.73208 0.90891 0.0
H2604 H 0.13117 0.75111 0.8894 0.0
H2605 H 0.015 0.75881 0.88566 0.0
H2606 H 0.02597 0.74161 0.90875 0.0
H2607 H 0.0293 0.77197 0.90961 0.0
H2608 H 0.06493 0.71537 0.96896 0.0
H2609 H 0.07422 0.78829 0.97064 0.0
H2610 H 0.08345 0.7065 0.91361 0.0
H2611 H 0.05318 0.70966 0.91114 0.0
H2612 H 0.06503 0.69438 0.93513 0.0
H2613 H 0.09284 0.79574 0.91551 0.0
H2614 H 0.07716 0.81036 0.93762 0.0
H2615 H 0.06254 0.79874 0.91308 0.0
C2616 C 0.52485 0.81678 0.24261 0.0
C2617 C 0.54363 0.80306 0.24834 0.0
C2618 C 0.51553 0.81624 0.22046 0.0
C2619 C 0.52524 0.8016 0.20381 0.0
C2620 C 0.54335 0.78679 0.20994 0.0
C2621 C 0.55228 0.7877 0.23212 0.0
C2622 C 0.49612 0.83215 0.21454 0.0
C2623 C 0.55423 0.77093 0.19272 0.0
C2624 C 0.4979 0.78966 0.14602 0.0
C2625 C 0.51058 0.80417 0.13173 0.0
C2626 C 0.50175 0.78923 0.16975 0.0
C2627 C 0.51865 0.80365 0.17936 0.0
C2628 C 0.53091 0.81887 0.16516 0.0
C2629 C 0.52683 0.81886 0.1416 0.0
C2630 C 0.48832 0.77279 0.18441 0.0
C2631 C 0.54908 0.83459 0.1747 0.0
H2632 H 0.51817 0.82873 0.25507 0.0
H2633 H 0.56648 0.77672 0.23665 0.0
H2634 H 0.50215 0.84523 0.2022 0.0
H2635 H 0.48208 0.82255 0.20615 0.0
H2636 H 0.4892 0.84101 0.22984 0.0
H2637 H 0.56662 0.75899 0.20077 0.0
H2638 H 0.54097 0.76077 0.18376 0.0
H2639 H 0.5634 0.78113 0.17962 0.0
H2640 H 0.48517 0.77845 0.13861 0.0
H2641 H 0.53715 0.82983 0.1309 0.0
H2642 H 0.48106 0.78176 0.19945 0.0
H2643 H 0.49988 0.75926 0.19097 0.0
H2644 H 0.4742 0.76451 0.17479 0.0
H2645 H 0.54182 0.84525 0.18859 0.0
H2646 H 0.55639 0.84611 0.1615 0.0
H2647 H 0.56316 0.82433 0.18218 0.0
C2648 C 0.55831 0.2675 0.49577 0.0
C2649 C 0.55618 0.29082 0.50084 0.0
C2650 C 0.55831 0.25981 0.473 0.0
C2651 C 0.55629 0.27588 0.45501 0.0
C2652 C 0.55525 0.29951 0.46007 0.0
C2653 C 0.55519 0.30666 0.4829 0.0
C2654 C 0.55934 0.23448 0.46825 0.0
C2655 C 0.5533 0.31722 0.44138 0.0
C2656 C 0.56851 0.26215 0.39273 0.0
C2657 C 0.54629 0.26065 0.38391 0.0
C2658 C 0.57218 0.26601 0.41616 0.0
C2659 C 0.55317 0.26818 0.43099 0.0
C2660 C 0.53077 0.2653 0.42231 0.0
C2661 C 0.52763 0.26164 0.39887 0.0
C2662 C 0.5963 0.26907 0.42477 0.0
C2663 C 0.51004 0.26729 0.43757 0.0
H2664 H 0.55898 0.25523 0.50962 0.0
H2665 H 0.554 0.32472 0.48679 0.0
H2666 H 0.54262 0.22863 0.46149 0.0
H2667 H 0.57239 0.23074 0.45502 0.0
H2668 H 0.56338 0.22444 0.48385 0.0
H2669 H 0.55334 0.33494 0.44818 0.0
H2670 H 0.56767 0.31538 0.42915 0.0
H2671 H 0.53722 0.31459 0.43167 0.0
H2672 H 0.58293 0.26149 0.38114 0.0
H2673 H 0.51047 0.26009 0.39208 0.0
H2674 H 0.59911 0.25883 0.44048 0.0
H2675 H 0.59912 0.28726 0.42931 0.0
H2676 H 0.60921 0.26404 0.41178 0.0
H2677 H 0.51182 0.25587 0.4526 0.0
H2678 H 0.49396 0.26293 0.42849 0.0
H2679 H 0.5086 0.28504 0.44409 0.0
C2680 C 0.97956 0.28654 0.69386 0.0
C2681 C -0.00083 0.28988 0.70728 0.0
C2682 C 0.98122 0.28151 0.67047 0.0
C2683 C 0.00305 0.27982 0.66019 0.0
C2684 C 0.02288 0.28417 0.67339 0.0
C2685 C 0.0207 0.28914 0.69678 0.0
C2686 C 0.9596 0.27693 0.65711 0.0
C2687 C 0.04646 0.28257 0.66303 0.0
C2688 C 0.00898 0.24035 0.60911 0.0
C2689 C 0.00913 0.25573 0.59065 0.0
C2690 C 0.0071 0.248 0.63173 0.0
C2691 C 0.00524 0.27168 0.63617 0.0
C2692 C 0.00534 0.28737 0.61776 0.0
C2693 C 0.0073 0.27922 0.59523 0.0
C2694 C 0.00678 0.23066 0.65087 0.0
C2695 C 0.00327 0.31275 0.62187 0.0
H2696 H 0.96282 0.28752 0.70171 0.0
H2697 H 0.03593 0.29155 0.707 0.0
H2698 H 0.96026 0.28511 0.64002 0.0
H2699 H 0.95776 0.25825 0.65444 0.0
H2700 H 0.94417 0.28315 0.66625 0.0
H2701 H 0.05999 0.28836 0.67503 0.0
H2702 H 0.05003 0.2646 0.65813 0.0
H2703 H 0.04744 0.29303 0.64725 0.0
H2704 H 0.00979 0.22216 0.606 0.0
H2705 H 0.00759 0.29129 0.58122 0.0
H2706 H 0.99026 0.23165 0.66014 0.0
H2707 H 0.02051 0.23447 0.66337 0.0
H2708 H 0.00909 0.21289 0.64458 0.0
H2709 H 0.98696 0.3165 0.63079 0.0
H2710 H 0.00381 0.32274 0.60574 0.0
H2711 H 0.01733 0.31864 0.63315 0.0
loop_
_geom_bond_atom_site_label_1
_geom_bond_atom_site_label_2
_geom_bond_distance
_geom_bond_site_symmetry_2
_ccdc_geom_bond_type
C0 C1 1.351 1_455 S
C0 N3 1.368 . S
C0 H5 0.931 . S
C1 C0 1.351 1_655 S
C1 N2 1.373 . S
C1 H29 0.930 . S
N2 C1 1.373 . S
N2 C4 1.340 . S
N3 C0 1.368 . S
N3 C4 1.321 1_455 S
N3 Co6 2.135 . S
C4 N2 1.340 . S
C4 N3 1.321 1_655 S
C4 H28 0.930 . S
H5 C0 0.931 . S
Co6 N3 2.135 . S
Co6 N9 2.121 . S
Co6 O14 2.055 . S
Co6 O17 2.039 . S
Co6 N20 2.140 . S
C7 O8 1.227 1_655 S
C7 O17 1.265 1_655 S
O8 C7 1.227 1_455 S
N9 Co6 2.121 . S
N9 C11 1.375 . S
N9 C12 1.313 . S
C10 C11 1.338 . S
C10 N13 1.377 . S
C10 H30 0.930 . S
C11 N9 1.375 . S
C11 C10 1.338 . S
C11 H15 0.931 . S
C12 N9 1.313 . S
C12 N13 1.344 . S
C12 H16 0.930 . S
N13 C10 1.377 . S
N13 C12 1.344 . S
O14 Co6 2.055 . S
O14 C18 1.253 . S
H15 C11 0.931 . S
H16 C12 0.930 . S
O17 Co6 2.039 . S
O17 C7 1.265 1_455 S
C18 O14 1.253 . S
C18 O19 1.227 . S
O19 C18 1.227 . S
N20 Co6 2.140 . S
N20 C23 1.346 . S
N20 C24 1.345 . S
C21 C22 1.387 . S
C21 C25 1.391 1_565 S
C22 C21 1.387 . S
C22 C23 1.369 1_565 S
C22 H31 0.929 . S
C23 N20 1.346 . S
C23 C22 1.369 1_545 S
C23 H26 0.928 . S
C24 N20 1.345 . S
C24 C25 1.371 . S
C24 H27 0.931 . S
C25 C21 1.391 1_545 S
C25 C24 1.371 . S
C25 H32 0.930 . S
H26 C23 0.928 . S
H27 C24 0.931 . S
H28 C4 0.930 . S
H29 C1 0.930 . S
H30 C10 0.930 . S
H31 C22 0.929 . S
H32 C25 0.930 . S
C33 C34 1.351 . S
C33 N36 1.368 . S
C33 H38 0.931 . S
C34 C33 1.351 . S
C34 N35 1.373 . S
C34 H62 0.930 . S
N35 C34 1.373 . S
N35 C37 1.340 . S
N36 C33 1.368 . S
N36 C37 1.321 . S
N36 Co39 2.135 1_554 S
C37 N35 1.340 . S
C37 N36 1.321 . S
C37 H61 0.930 1_554 S
H38 C33 0.931 . S
Co39 N36 2.135 1_556 S
Co39 N42 2.121 . S
Co39 O47 2.055 . S
Co39 O50 2.039 . S
Co39 N53 2.140 . S
C40 O41 1.227 . S
C40 O50 1.265 . S
O41 C40 1.227 . S
N42 Co39 2.121 . S
N42 C44 1.375 . S
N42 C45 1.313 . S
C43 C44 1.338 . S
C43 N46 1.377 . S
C43 H63 0.930 . S
C44 N42 1.375 . S
C44 C43 1.338 . S
C44 H48 0.931 . S
C45 N42 1.313 . S
C45 N46 1.344 . S
C45 H49 0.930 . S
N46 C43 1.377 . S
N46 C45 1.344 . S
O47 Co39 2.055 . S
O47 C51 1.253 . S
H48 C44 0.931 . S
H49 C45 0.930 . S
O50 Co39 2.039 . S
O50 C40 1.265 . S
C51 O47 1.253 . S
C51 O52 1.227 1_556 S
O52 C51 1.227 1_554 S
N53 Co39 2.140 . S
N53 C56 1.346 . S
N53 C57 1.345 . S
C54 C55 1.387 1_554 S
C54 C58 1.390 1_554 S
C55 C54 1.387 1_556 S
C55 C56 1.369 . S
C55 H64 0.929 1_556 S
C56 N53 1.346 . S
C56 C55 1.369 . S
C56 H59 0.928 . S
C57 N53 1.345 . S
C57 C58 1.371 . S
C57 H60 0.931 . S
C58 C54 1.390 1_556 S
C58 C57 1.371 . S
C58 H65 0.930 . S
H59 C56 0.928 . S
H60 C57 0.931 . S
H61 C37 0.930 1_556 S
H62 C34 0.930 . S
H63 C43 0.930 . S
H64 C55 0.929 1_554 S
H65 C58 0.930 . S
C66 C67 1.351 . S
C66 N69 1.368 . S
C66 H71 0.931 . S
C67 C66 1.351 . S
C67 N68 1.373 . S
C67 H95 0.930 . S
N68 C67 1.373 . S
N68 C70 1.340 . S
N69 C66 1.368 . S
N69 C70 1.321 . S
N69 Co72 2.135 . S
C70 N68 1.340 . S
C70 N69 1.321 . S
C70 H94 0.930 . S
H71 C66 0.931 . S
Co72 N69 2.135 . S
Co72 N75 2.121 . S
Co72 O80 2.055 1_545 S
Co72 O83 2.039 . S
Co72 N86 2.140 . S
C73 O74 1.227 . S
C73 O83 1.265 . S
O74 C73 1.227 . S
N75 Co72 2.121 . S
N75 C77 1.375 . S
N75 C78 1.329 . S
C76 C77 1.338 . S
C76 N79 1.377 . S
C76 H96 0.930 . S
C77 N75 1.375 . S
C77 C76 1.338 . S
C77 H81 0.931 . S
C78 N75 1.329 . S
C78 N79 1.347 . S
C78 H82 0.914 1_545 S
N79 C76 1.377 . S
N79 C78 1.347 . S
O80 Co72 2.055 1_565 S
O80 C84 1.253 . S
H81 C77 0.931 . S
H82 C78 0.914 1_565 S
O83 Co72 2.039 . S
O83 C73 1.265 . S
C84 O80 1.253 . S
C84 O85 1.227 1_565 S
O85 C84 1.227 1_545 S
N86 Co72 2.140 . S
N86 C89 1.346 . S
N86 C90 1.345 . S
C87 C88 1.387 . S
C87 C91 1.391 . S
C88 C87 1.387 . S
C88 C89 1.369 . S
C88 H97 0.929 . S
C89 N86 1.346 . S
C89 C88 1.369 . S
C89 H92 0.928 . S
C90 N86 1.345 . S
C90 C91 1.371 . S
C90 H93 0.931 . S
C91 C87 1.391 . S
C91 C90 1.371 . S
C91 H98 0.930 . S
H92 C89 0.928 . S
H93 C90 0.931 . S
H94 C70 0.930 . S
H95 C67 0.930 . S
H96 C76 0.930 . S
H97 C88 0.929 . S
H98 C91 0.930 . S
C99 C100 1.351 . S
C99 N102 1.368 . S
C99 H104 0.931 . S
C100 C99 1.351 . S
C100 N101 1.373 . S
C100 H128 0.930 . S
N101 C100 1.373 . S
N101 C103 1.340 . S
N102 C99 1.368 . S
N102 C103 1.321 . S
N102 Co105 2.135 . S
C103 N101 1.340 . S
C103 N102 1.321 . S
C103 H127 0.930 . S
H104 C99 0.931 . S
Co105 N102 2.135 . S
Co105 N108 2.121 . S
Co105 O113 2.055 . S
Co105 O116 2.039 . S
Co105 N119 2.140 . S
C106 O107 1.227 . S
C106 O116 1.265 . S
O107 C106 1.227 . S
N108 Co105 2.121 . S
N108 C110 1.375 . S
N108 C111 1.313 . S
C109 C110 1.338 . S
C109 N112 1.377 . S
C109 H129 0.930 . S
C110 N108 1.375 . S
C110 C109 1.338 . S
C110 H114 0.931 . S
C111 N108 1.313 . S
C111 N112 1.344 . S
C111 H115 0.930 . S
N112 C109 1.377 . S
N112 C111 1.344 . S
O113 Co105 2.055 . S
O113 C117 1.253 . S
H114 C110 0.931 . S
H115 C111 0.930 . S
O116 Co105 2.039 . S
O116 C106 1.265 . S
C117 O113 1.253 . S
C117 O118 1.227 . S
O118 C117 1.227 . S
N119 Co105 2.140 . S
N119 C122 1.346 . S
N119 C123 1.345 . S
C120 C121 1.387 . S
C120 C124 1.391 . S
C121 C120 1.387 . S
C121 C122 1.369 . S
C121 H130 0.929 . S
C122 N119 1.346 . S
C122 C121 1.369 . S
C122 H125 0.928 . S
C123 N119 1.345 . S
C123 C124 1.371 . S
C123 H126 0.931 . S
C124 C120 1.391 . S
C124 C123 1.371 . S
C124 H131 0.930 . S
H125 C122 0.928 . S
H126 C123 0.931 . S
H127 C103 0.930 . S
H128 C100 0.930 . S
H129 C109 0.930 . S
H130 C121 0.929 . S
H131 C124 0.930 . S
C132 C133 1.351 . S
C132 N135 1.368 . S
C132 H137 0.931 . S
C133 C132 1.351 . S
C133 N134 1.373 . S
C133 H161 0.930 . S
N134 C133 1.373 . S
N134 C136 1.340 . S
N135 C132 1.368 . S
N135 C136 1.321 . S
N135 Co138 2.135 . S
C136 N134 1.340 . S
C136 N135 1.321 . S
C136 H160 0.930 . S
H137 C132 0.931 . S
Co138 N135 2.135 . S
Co138 N141 2.121 . S
Co138 O146 2.055 . S
Co138 O149 2.039 . S
Co138 N152 2.140 . S
C139 O140 1.227 . S
C139 O149 1.265 . S
O140 C139 1.227 . S
N141 Co138 2.121 . S
N141 C143 1.375 . S
N141 C144 1.313 . S
C142 C143 1.338 . S
C142 N145 1.377 . S
C142 H162 0.930 . S
C143 N141 1.375 . S
C143 C142 1.338 . S
C143 H147 0.931 . S
C144 N141 1.313 . S
C144 N145 1.344 . S
C144 H148 0.930 . S
N145 C142 1.377 . S
N145 C144 1.344 . S
O146 Co138 2.055 . S
O146 C150 1.253 . S
H147 C143 0.931 . S
H148 C144 0.930 . S
O149 Co138 2.039 . S
O149 C139 1.265 . S
C150 O146 1.253 . S
C150 O151 1.227 . S
O151 C150 1.227 . S
N152 Co138 2.140 . S
N152 C155 1.346 . S
N152 C156 1.345 . S
C153 C154 1.387 . S
C153 C157 1.391 . S
C154 C153 1.387 . S
C154 C155 1.369 . S
C154 H163 0.929 . S
C155 N152 1.346 . S
C155 C154 1.369 . S
C155 H158 0.928 . S
C156 N152 1.345 . S
C156 C157 1.371 . S
C156 H159 0.931 . S
C157 C153 1.391 . S
C157 C156 1.371 . S
C157 H164 0.930 . S
H158 C155 0.928 . S
H159 C156 0.931 . S
H160 C136 0.930 . S
H161 C133 0.930 . S
H162 C142 0.930 . S
H163 C154 0.929 . S
H164 C157 0.930 . S
C165 C166 1.351 . S
C165 N168 1.368 . S
C165 H170 0.931 . S
C166 C165 1.351 . S
C166 N167 1.373 . S
C166 H194 0.930 . S
N167 C166 1.373 . S
N167 C169 1.340 . S
N168 C165 1.368 . S
N168 C169 1.321 . S
N168 Co171 2.135 . S
C169 N167 1.340 . S
C169 N168 1.321 . S
C169 H193 0.930 . S
H170 C165 0.931 . S
Co171 N168 2.135 . S
Co171 N174 2.121 . S
Co171 O179 2.055 . S
Co171 O182 2.039 . S
Co171 N185 2.140 . S
C172 O173 1.227 . S
C172 O182 1.265 . S
O173 C172 1.227 . S
N174 Co171 2.121 . S
N174 C176 1.375 . S
N174 C177 1.313 . S
C175 C176 1.338 . S
C175 N178 1.377 . S
C175 H195 0.930 . S
C176 N174 1.375 . S
C176 C175 1.338 . S
C176 H180 0.931 . S
C177 N174 1.313 . S
C177 N178 1.344 . S
C177 H181 0.930 . S
N178 C175 1.377 . S
N178 C177 1.344 . S
O179 Co171 2.055 . S
O179 C183 1.253 . S
H180 C176 0.931 . S
H181 C177 0.930 . S
O182 Co171 2.039 . S
O182 C172 1.265 . S
C183 O179 1.253 . S
C183 O184 1.227 . S
O184 C183 1.227 . S
N185 Co171 2.140 . S
N185 C188 1.346 . S
N185 C189 1.345 . S
C186 C187 1.387 . S
C186 C190 1.391 . S
C187 C186 1.387 . S
C187 C188 1.369 . S
C187 H196 0.929 . S
C188 N185 1.346 . S
C188 C187 1.369 . S
C188 H191 0.928 . S
C189 N185 1.345 . S
C189 C190 1.371 . S
C189 H192 0.931 . S
C190 C186 1.391 . S
C190 C189 1.371 . S
C190 H197 0.930 . S
H191 C188 0.928 . S
H192 C189 0.931 . S
H193 C169 0.930 . S
H194 C166 0.930 . S
H195 C175 0.930 . S
H196 C187 0.929 . S
H197 C190 0.930 . S
C198 C199 1.351 . S
C198 N201 1.368 . S
C198 H203 0.931 . S
C199 C198 1.351 . S
C199 N200 1.373 . S
C199 H227 0.930 . S
N200 C199 1.373 . S
N200 C202 1.340 . S
N201 C198 1.368 . S
N201 C202 1.321 . S
N201 Co204 2.135 . S
C202 N200 1.340 . S
C202 N201 1.321 . S
C202 H226 0.930 . S
H203 C198 0.931 . S
Co204 N201 2.135 . S
Co204 N207 2.121 . S
Co204 O212 2.055 . S
Co204 O215 2.039 . S
Co204 N218 2.140 . S
C205 O206 1.227 . S
C205 O215 1.265 . S
O206 C205 1.227 . S
N207 Co204 2.121 . S
N207 C209 1.375 . S
N207 C210 1.313 . S
C208 C209 1.338 . S
C208 N211 1.377 1_455 S
C208 H228 0.930 1_455 S
C209 N207 1.375 . S
C209 C208 1.338 . S
C209 H213 0.931 . S
C210 N207 1.313 . S
C210 N211 1.344 1_455 S
C210 H214 0.930 . S
N211 C208 1.377 1_655 S
N211 C210 1.344 1_655 S
O212 Co204 2.055 . S
O212 C216 1.253 . S
H213 C209 0.931 . S
H214 C210 0.930 . S
O215 Co204 2.039 . S
O215 C205 1.265 . S
C216 O212 1.253 . S
C216 O217 1.227 . S
O217 C216 1.227 . S
N218 Co204 2.140 . S
N218 C221 1.346 . S
N218 C222 1.345 . S
C219 C220 1.387 . S
C219 C223 1.391 1_455 S
C220 C219 1.387 . S
C220 C221 1.369 . S
C220 H229 0.929 . S
C221 N218 1.346 . S
C221 C220 1.369 . S
C221 H224 0.928 . S
C222 N218 1.345 . S
C222 C223 1.371 1_455 S
C222 H225 0.931 1_455 S
C223 C219 1.391 1_655 S
C223 C222 1.371 1_655 S
C223 H230 0.930 . S
H224 C221 0.928 . S
H225 C222 0.931 1_655 S
H226 C202 0.930 . S
H227 C199 0.930 . S
H228 C208 0.930 1_655 S
H229 C220 0.929 . S
H230 C223 0.930 . S
C231 C232 1.351 . S
C231 N234 1.368 . S
C231 H236 0.931 . S
C232 C231 1.351 . S
C232 N233 1.373 . S
C232 H260 0.930 . S
N233 C232 1.373 . S
N233 C235 1.340 . S
N234 C231 1.368 . S
N234 C235 1.321 . S
N234 Co237 2.135 . S
C235 N233 1.340 . S
C235 N234 1.321 . S
C235 H259 0.930 . S
H236 C231 0.931 . S
Co237 N234 2.135 . S
Co237 N240 2.121 . S
Co237 O245 2.055 . S
Co237 O248 2.039 . S
Co237 N251 2.140 . S
C238 O239 1.227 . S
C238 O248 1.265 . S
O239 C238 1.227 . S
N240 Co237 2.121 . S
N240 C242 1.375 . S
N240 C243 1.313 . S
C241 C242 1.338 . S
C241 N244 1.377 . S
C241 H261 0.930 . S
C242 N240 1.375 . S
C242 C241 1.338 . S
C242 H246 0.931 . S
C243 N240 1.313 . S
C243 N244 1.344 . S
C243 H247 0.930 . S
N244 C241 1.377 . S
N244 C243 1.344 . S
O245 Co237 2.055 . S
O245 C249 1.253 . S
H246 C242 0.931 . S
H247 C243 0.930 . S
O248 Co237 2.039 . S
O248 C238 1.265 . S
C249 O245 1.253 . S
C249 O250 1.227 . S
O250 C249 1.227 . S
N251 Co237 2.140 . S
N251 C254 1.346 . S
N251 C255 1.345 . S
C252 C253 1.387 . S
C252 C256 1.391 . S
C253 C252 1.387 . S
C253 C254 1.369 . S
C253 H262 0.929 . S
C254 N251 1.346 . S
C254 C253 1.369 . S
C254 H257 0.928 . S
C255 N251 1.345 . S
C255 C256 1.371 . S
C255 H258 0.931 . S
C256 C252 1.391 . S
C256 C255 1.371 . S
C256 H263 0.930 . S
H257 C254 0.928 . S
H258 C255 0.931 . S
H259 C235 0.930 . S
H260 C232 0.930 . S
H261 C241 0.930 . S
H262 C253 0.929 . S
H263 C256 0.930 . S
C264 C265 1.351 1_545 S
C264 N267 1.368 . S
C264 H269 0.931 . S
C265 C264 1.351 1_565 S
C265 N266 1.373 . S
C265 H293 0.930 . S
N266 C265 1.373 . S
N266 C268 1.340 . S
N267 C264 1.368 . S
N267 C268 1.321 1_545 S
N267 Co270 2.135 . S
C268 N266 1.340 . S
C268 N267 1.321 1_565 S
C268 H292 0.930 . S
H269 C264 0.931 . S
Co270 N267 2.135 . S
Co270 N273 2.121 . S
Co270 O278 2.055 . S
Co270 O281 2.039 . S
Co270 N284 2.140 . S
C271 O272 1.227 1_565 S
C271 O281 1.265 1_565 S
O272 C271 1.227 1_545 S
N273 Co270 2.121 . S
N273 C275 1.375 . S
N273 C276 1.313 . S
C274 C275 1.338 . S
C274 N277 1.377 . S
C274 H294 0.930 . S
C275 N273 1.375 . S
C275 C274 1.338 . S
C275 H279 0.931 . S
C276 N273 1.313 . S
C276 N277 1.344 . S
C276 H280 0.930 . S
N277 C274 1.377 . S
N277 C276 1.344 . S
O278 Co270 2.055 . S
O278 C282 1.253 . S
H279 C275 0.931 . S
H280 C276 0.930 . S
O281 Co270 2.039 . S
O281 C271 1.265 1_545 S
C282 O278 1.253 . S
C282 O283 1.227 . S
O283 C282 1.227 . S
N284 Co270 2.140 . S
N284 C287 1.346 . S
N284 C288 1.345 . S
C285 C286 1.387 . S
C285 C289 1.391 1_556 S
C286 C285 1.387 . S
C286 C287 1.369 1_556 S
C286 H295 0.929 . S
C287 N284 1.346 . S
C287 C286 1.369 1_554 S
C287 H290 0.928 . S
C288 N284 1.345 . S
C288 C289 1.371 . S
C288 H291 0.931 . S
C289 C285 1.391 1_554 S
C289 C288 1.371 . S
C289 H296 0.930 . S
H290 C287 0.928 . S
H291 C288 0.931 . S
H292 C268 0.930 . S
H293 C265 0.930 . S
H294 C274 0.930 . S
H295 C286 0.929 . S
H296 C289 0.930 . S
C297 C298 1.351 . S
C297 N300 1.368 . S
C297 H302 0.931 . S
C298 C297 1.351 . S
C298 N299 1.373 . S
C298 H326 0.930 . S
N299 C298 1.373 . S
N299 C301 1.340 . S
N300 C297 1.368 . S
N300 C301 1.321 . S
N300 Co303 2.135 . S
C301 N299 1.340 . S
C301 N300 1.321 . S
C301 H325 0.930 . S
H302 C297 0.931 . S
Co303 N300 2.135 . S
Co303 N306 2.121 . S
Co303 O311 2.055 . S
Co303 O314 2.039 . S
Co303 N317 2.140 . S
C304 O305 1.227 . S
C304 O314 1.265 . S
O305 C304 1.227 . S
N306 Co303 2.121 . S
N306 C308 1.375 . S
N306 C309 1.313 . S
C307 C308 1.338 . S
C307 N310 1.377 . S
C307 H327 0.930 . S
C308 N306 1.375 . S
C308 C307 1.338 . S
C308 H312 0.931 . S
C309 N306 1.313 . S
C309 N310 1.344 . S
C309 H313 0.930 . S
N310 C307 1.377 . S
N310 C309 1.344 . S
O311 Co303 2.055 . S
O311 C315 1.253 . S
H312 C308 0.931 . S
H313 C309 0.930 . S
O314 Co303 2.039 . S
O314 C304 1.265 . S
C315 O311 1.253 . S
C315 O316 1.227 . S
O316 C315 1.227 . S
N317 Co303 2.140 . S
N317 C320 1.346 . S
N317 C321 1.345 . S
C318 C319 1.387 . S
C318 C322 1.391 . S
C319 C318 1.387 . S
C319 C320 1.369 . S
C319 H328 0.929 . S
C320 N317 1.346 . S
C320 C319 1.369 . S
C320 H323 0.928 . S
C321 N317 1.345 . S
C321 C322 1.371 . S
C321 H324 0.931 . S
C322 C318 1.391 . S
C322 C321 1.371 . S
C322 H329 0.930 . S
H323 C320 0.928 . S
H324 C321 0.931 . S
H325 C301 0.930 . S
H326 C298 0.930 . S
H327 C307 0.930 . S
H328 C319 0.929 . S
H329 C322 0.930 . S
C330 C331 1.351 . S
C330 N333 1.368 . S
C330 H335 0.931 . S
C331 C330 1.351 . S
C331 N332 1.373 . S
C331 H359 0.930 . S
N332 C331 1.373 . S
N332 C334 1.340 . S
N333 C330 1.368 . S
N333 C334 1.321 . S
N333 Co336 2.135 . S
C334 N332 1.340 . S
C334 N333 1.321 . S
C334 H358 0.930 . S
H335 C330 0.931 . S
Co336 N333 2.135 . S
Co336 N339 2.121 . S
Co336 O344 2.055 . S
Co336 O347 2.039 . S
Co336 N350 2.140 . S
C337 O338 1.227 . S
C337 O347 1.265 . S
O338 C337 1.227 . S
N339 Co336 2.121 . S
N339 C341 1.375 . S
N339 C342 1.313 . S
C340 C341 1.338 . S
C340 N343 1.377 1_545 S
C340 H360 0.930 1_545 S
C341 N339 1.375 . S
C341 C340 1.338 . S
C341 H345 0.931 . S
C342 N339 1.313 . S
C342 N343 1.344 1_545 S
C342 H346 0.930 . S
N343 C340 1.377 1_565 S
N343 C342 1.344 1_565 S
O344 Co336 2.055 . S
O344 C348 1.253 . S
H345 C341 0.931 . S
H346 C342 0.930 . S
O347 Co336 2.039 . S
O347 C337 1.265 . S
C348 O344 1.253 . S
C348 O349 1.227 . S
O349 C348 1.227 . S
N350 Co336 2.140 . S
N350 C353 1.346 . S
N350 C354 1.345 . S
C351 C352 1.387 . S
C351 C355 1.391 1_545 S
C352 C351 1.387 . S
C352 C353 1.369 . S
C352 H361 0.929 . S
C353 N350 1.346 . S
C353 C352 1.369 . S
C353 H356 0.928 . S
C354 N350 1.345 . S
C354 C355 1.371 1_545 S
C354 H357 0.931 1_545 S
C355 C351 1.391 1_565 S
C355 C354 1.371 1_565 S
C355 H362 0.930 . S
H356 C353 0.928 . S
H357 C354 0.931 1_565 S
H358 C334 0.930 . S
H359 C331 0.930 . S
H360 C340 0.930 1_565 S
H361 C352 0.929 . S
H362 C355 0.930 . S
C363 C364 1.351 . S
C363 N366 1.368 . S
C363 H368 0.931 . S
C364 C363 1.351 . S
C364 N365 1.373 . S
C364 H392 0.930 . S
N365 C364 1.373 . S
N365 C367 1.340 . S
N366 C363 1.368 . S
N366 C367 1.321 . S
N366 Co369 2.135 . S
C367 N365 1.340 . S
C367 N366 1.321 . S
C367 H391 0.930 . S
H368 C363 0.931 . S
Co369 N366 2.135 . S
Co369 N372 2.121 . S
Co369 O377 2.055 . S
Co369 O380 2.039 . S
Co369 N383 2.140 . S
C370 O371 1.227 . S
C370 O380 1.265 . S
O371 C370 1.227 . S
N372 Co369 2.121 . S
N372 C374 1.375 . S
N372 C375 1.313 . S
C373 C374 1.338 . S
C373 N376 1.377 . S
C373 H393 0.930 . S
C374 N372 1.375 . S
C374 C373 1.338 . S
C374 H378 0.931 . S
C375 N372 1.313 . S
C375 N376 1.344 . S
C375 H379 0.930 . S
N376 C373 1.377 . S
N376 C375 1.344 . S
O377 Co369 2.055 . S
O377 C381 1.253 . S
H378 C374 0.931 . S
H379 C375 0.930 . S
O380 Co369 2.039 . S
O380 C370 1.265 . S
C381 O377 1.253 . S
C381 O382 1.227 . S
O382 C381 1.227 . S
N383 Co369 2.140 . S
N383 C386 1.346 . S
N383 C387 1.345 . S
C384 C385 1.387 . S
C384 C388 1.391 . S
C385 C384 1.387 . S
C385 C386 1.369 . S
C385 H394 0.929 . S
C386 N383 1.346 . S
C386 C385 1.369 . S
C386 H389 0.928 . S
C387 N383 1.345 . S
C387 C388 1.371 . S
C387 H390 0.931 . S
C388 C384 1.391 . S
C388 C387 1.371 . S
C388 H395 0.930 . S
H389 C386 0.928 . S
H390 C387 0.931 . S
H391 C367 0.930 . S
H392 C364 0.930 . S
H393 C373 0.930 . S
H394 C385 0.929 . S
H395 C388 0.930 . S
C396 C397 1.351 . S
C396 N399 1.368 . S
C396 H401 0.931 . S
C397 C396 1.351 . S
C397 N398 1.373 . S
C397 H425 0.930 . S
N398 C397 1.373 . S
N398 C400 1.340 . S
N399 C396 1.368 . S
N399 C400 1.321 . S
N399 Co402 2.135 . S
C400 N398 1.340 . S
C400 N399 1.321 . S
C400 H424 0.930 . S
H401 C396 0.931 . S
Co402 N399 2.135 . S
Co402 N405 2.121 . S
Co402 O410 2.055 1_554 S
Co402 O413 2.039 . S
Co402 N416 2.140 . S
C403 O404 1.227 . S
C403 O413 1.265 . S
O404 C403 1.227 . S
N405 Co402 2.121 . S
N405 C407 1.375 . S
N405 C408 1.329 . S
C406 C407 1.338 . S
C406 N409 1.377 . S
C406 H426 0.930 . S
C407 N405 1.375 . S
C407 C406 1.338 . S
C407 H411 0.931 . S
C408 N405 1.329 . S
C408 N409 1.347 . S
C408 H412 0.914 1_554 S
N409 C406 1.377 . S
N409 C408 1.347 . S
O410 Co402 2.055 1_556 S
O410 C414 1.253 . S
H411 C407 0.931 . S
H412 C408 0.914 1_556 S
O413 Co402 2.039 . S
O413 C403 1.265 . S
C414 O410 1.253 . S
C414 O415 1.227 1_556 S
O415 C414 1.227 1_554 S
N416 Co402 2.140 . S
N416 C419 1.346 . S
N416 C420 1.345 . S
C417 C418 1.387 . S
C417 C421 1.391 . S
C418 C417 1.387 . S
C418 C419 1.369 . S
C418 H427 0.929 . S
C419 N416 1.346 . S
C419 C418 1.369 . S
C419 H422 0.928 . S
C420 N416 1.345 . S
C420 C421 1.371 . S
C420 H423 0.931 . S
C421 C417 1.391 . S
C421 C420 1.371 . S
C421 H428 0.930 . S
H422 C419 0.928 . S
H423 C420 0.931 . S
H424 C400 0.930 . S
H425 C397 0.930 . S
H426 C406 0.930 . S
H427 C418 0.929 . S
H428 C421 0.930 . S
C429 C430 1.351 . S
C429 N432 1.368 . S
C429 H434 0.931 . S
C430 C429 1.351 . S
C430 N431 1.373 . S
C430 H458 0.930 . S
N431 C430 1.373 . S
N431 C433 1.340 . S
N432 C429 1.368 . S
N432 C433 1.321 . S
N432 Co435 2.135 1_545 S
C433 N431 1.340 . S
C433 N432 1.321 . S
C433 H457 0.930 1_545 S
H434 C429 0.931 . S
Co435 N432 2.135 1_565 S
Co435 N438 2.121 . S
Co435 O443 2.055 . S
Co435 O446 2.039 . S
Co435 N449 2.140 . S
C436 O437 1.227 . S
C436 O446 1.265 . S
O437 C436 1.227 . S
N438 Co435 2.121 . S
N438 C440 1.375 . S
N438 C441 1.313 . S
C439 C440 1.338 . S
C439 N442 1.377 . S
C439 H459 0.930 . S
C440 N438 1.375 . S
C440 C439 1.338 . S
C440 H444 0.931 . S
C441 N438 1.313 . S
C441 N442 1.344 . S
C441 H445 0.930 . S
N442 C439 1.377 . S
N442 C441 1.344 . S
O443 Co435 2.055 . S
O443 C447 1.253 . S
H444 C440 0.931 . S
H445 C441 0.930 . S
O446 Co435 2.039 . S
O446 C436 1.265 . S
C447 O443 1.253 . S
C447 O448 1.227 1_565 S
O448 C447 1.227 1_545 S
N449 Co435 2.140 . S
N449 C452 1.346 . S
N449 C453 1.345 . S
C450 C451 1.387 1_545 S
C450 C454 1.390 1_545 S
C451 C450 1.387 1_565 S
C451 C452 1.369 . S
C451 H460 0.929 1_565 S
C452 N449 1.346 . S
C452 C451 1.369 . S
C452 H455 0.928 . S
C453 N449 1.345 . S
C453 C454 1.371 . S
C453 H456 0.931 . S
C454 C450 1.390 1_565 S
C454 C453 1.371 . S
C454 H461 0.930 . S
H455 C452 0.928 . S
H456 C453 0.931 . S
H457 C433 0.930 1_565 S
H458 C430 0.930 . S
H459 C439 0.930 . S
H460 C451 0.929 1_545 S
H461 C454 0.930 . S
C462 C463 1.351 . S
C462 N465 1.368 . S
C462 H467 0.931 . S
C463 C462 1.351 . S
C463 N464 1.373 . S
C463 H491 0.930 . S
N464 C463 1.373 . S
N464 C466 1.340 . S
N465 C462 1.368 . S
N465 C466 1.321 . S
N465 Co468 2.135 . S
C466 N464 1.340 . S
C466 N465 1.321 . S
C466 H490 0.930 . S
H467 C462 0.931 . S
Co468 N465 2.135 . S
Co468 N471 2.121 . S
Co468 O476 2.055 . S
Co468 O479 2.039 . S
Co468 N482 2.140 . S
C469 O470 1.227 . S
C469 O479 1.265 . S
O470 C469 1.227 . S
N471 Co468 2.121 . S
N471 C473 1.375 . S
N471 C474 1.313 . S
C472 C473 1.338 . S
C472 N475 1.377 . S
C472 H492 0.930 . S
C473 N471 1.375 . S
C473 C472 1.338 . S
C473 H477 0.931 . S
C474 N471 1.313 . S
C474 N475 1.344 . S
C474 H478 0.930 . S
N475 C472 1.377 . S
N475 C474 1.344 . S
O476 Co468 2.055 . S
O476 C480 1.253 . S
H477 C473 0.931 . S
H478 C474 0.930 . S
O479 Co468 2.039 . S
O479 C469 1.265 . S
C480 O476 1.253 . S
C480 O481 1.227 . S
O481 C480 1.227 . S
N482 Co468 2.140 . S
N482 C485 1.346 . S
N482 C486 1.345 . S
C483 C484 1.387 . S
C483 C487 1.391 . S
C484 C483 1.387 . S
C484 C485 1.369 . S
C484 H493 0.929 . S
C485 N482 1.346 . S
C485 C484 1.369 . S
C485 H488 0.928 . S
C486 N482 1.345 . S
C486 C487 1.371 . S
C486 H489 0.931 . S
C487 C483 1.391 . S
C487 C486 1.371 . S
C487 H494 0.930 . S
H488 C485 0.928 . S
H489 C486 0.931 . S
H490 C466 0.930 . S
H491 C463 0.930 . S
H492 C472 0.930 . S
H493 C484 0.929 . S
H494 C487 0.930 . S
C495 C496 1.351 . S
C495 N498 1.368 . S
C495 H500 0.931 . S
C496 C495 1.351 . S
C496 N497 1.373 . S
C496 H524 0.930 . S
N497 C496 1.373 . S
N497 C499 1.340 . S
N498 C495 1.368 . S
N498 C499 1.321 . S
N498 Co501 2.135 . S
C499 N497 1.340 . S
C499 N498 1.321 . S
C499 H523 0.930 . S
H500 C495 0.931 . S
Co501 N498 2.135 . S
Co501 N504 2.121 . S
Co501 O509 2.055 . S
Co501 O512 2.039 . S
Co501 N515 2.140 . S
C502 O503 1.227 . S
C502 O512 1.265 . S
O503 C502 1.227 . S
N504 Co501 2.121 . S
N504 C506 1.375 . S
N504 C507 1.313 . S
C505 C506 1.338 . S
C505 N508 1.377 . S
C505 H525 0.930 . S
C506 N504 1.375 . S
C506 C505 1.338 . S
C506 H510 0.931 . S
C507 N504 1.313 . S
C507 N508 1.344 . S
C507 H511 0.930 . S
N508 C505 1.377 . S
N508 C507 1.344 . S
O509 Co501 2.055 . S
O509 C513 1.253 . S
H510 C506 0.931 . S
H511 C507 0.930 . S
O512 Co501 2.039 . S
O512 C502 1.265 . S
C513 O509 1.253 . S
C513 O514 1.227 . S
O514 C513 1.227 . S
N515 Co501 2.140 . S
N515 C518 1.346 . S
N515 C519 1.345 . S
C516 C517 1.387 . S
C516 C520 1.391 . S
C517 C516 1.387 . S
C517 C518 1.369 . S
C517 H526 0.929 . S
C518 N515 1.346 . S
C518 C517 1.369 . S
C518 H521 0.928 . S
C519 N515 1.345 . S
C519 C520 1.371 . S
C519 H522 0.931 . S
C520 C516 1.391 . S
C520 C519 1.371 . S
C520 H527 0.930 . S
H521 C518 0.928 . S
H522 C519 0.931 . S
H523 C499 0.930 . S
H524 C496 0.930 . S
H525 C505 0.930 . S
H526 C517 0.929 . S
H527 C520 0.930 . S
C528 C529 1.351 1_554 S
C528 N531 1.368 . S
C528 H533 0.931 . S
C529 C528 1.351 1_556 S
C529 N530 1.373 . S
C529 H557 0.930 . S
N530 C529 1.373 . S
N530 C532 1.340 . S
N531 C528 1.368 . S
N531 C532 1.321 1_554 S
N531 Co534 2.135 . S
C532 N530 1.340 . S
C532 N531 1.321 1_556 S
C532 H556 0.930 . S
H533 C528 0.931 . S
Co534 N531 2.135 . S
Co534 N537 2.121 . S
Co534 O542 2.055 . S
Co534 O545 2.039 . S
Co534 N548 2.140 . S
C535 O536 1.227 1_556 S
C535 O545 1.265 1_556 S
O536 C535 1.227 1_554 S
N537 Co534 2.121 . S
N537 C539 1.375 . S
N537 C540 1.313 . S
C538 C539 1.338 . S
C538 N541 1.377 . S
C538 H558 0.930 . S
C539 N537 1.375 . S
C539 C538 1.338 . S
C539 H543 0.931 . S
C540 N537 1.313 . S
C540 N541 1.344 . S
C540 H544 0.930 . S
N541 C538 1.377 . S
N541 C540 1.344 . S
O542 Co534 2.055 . S
O542 C546 1.253 . S
H543 C539 0.931 . S
H544 C540 0.930 . S
O545 Co534 2.039 . S
O545 C535 1.265 1_554 S
C546 O542 1.253 . S
C546 O547 1.227 . S
O547 C546 1.227 . S
N548 Co534 2.140 . S
N548 C551 1.346 . S
N548 C552 1.345 . S
C549 C550 1.387 . S
C549 C553 1.391 1_655 S
C550 C549 1.387 . S
C550 C551 1.369 1_655 S
C550 H559 0.929 . S
C551 N548 1.346 . S
C551 C550 1.369 1_455 S
C551 H554 0.928 . S
C552 N548 1.345 . S
C552 C553 1.371 . S
C552 H555 0.931 . S
C553 C549 1.391 1_455 S
C553 C552 1.371 . S
C553 H560 0.930 . S
H554 C551 0.928 . S
H555 C552 0.931 . S
H556 C532 0.930 . S
H557 C529 0.930 . S
H558 C538 0.930 . S
H559 C550 0.929 . S
H560 C553 0.930 . S
C561 C562 1.351 . S
C561 N564 1.368 . S
C561 H566 0.931 . S
C562 C561 1.351 . S
C562 N563 1.373 . S
C562 H590 0.930 . S
N563 C562 1.373 . S
N563 C565 1.340 . S
N564 C561 1.368 . S
N564 C565 1.321 . S
N564 Co567 2.135 . S
C565 N563 1.340 . S
C565 N564 1.321 . S
C565 H589 0.930 . S
H566 C561 0.931 . S
Co567 N564 2.135 . S
Co567 N570 2.121 . S
Co567 O575 2.055 . S
Co567 O578 2.039 . S
Co567 N581 2.140 . S
C568 O569 1.227 . S
C568 O578 1.265 . S
O569 C568 1.227 . S
N570 Co567 2.121 . S
N570 C572 1.375 . S
N570 C573 1.313 . S
C571 C572 1.338 . S
C571 N574 1.377 1_554 S
C571 H591 0.930 1_554 S
C572 N570 1.375 . S
C572 C571 1.338 . S
C572 H576 0.931 . S
C573 N570 1.313 . S
C573 N574 1.344 1_554 S
C573 H577 0.930 . S
N574 C571 1.377 1_556 S
N574 C573 1.344 1_556 S
O575 Co567 2.055 . S
O575 C579 1.253 . S
H576 C572 0.931 . S
H577 C573 0.930 . S
O578 Co567 2.039 . S
O578 C568 1.265 . S
C579 O575 1.253 . S
C579 O580 1.227 . S
O580 C579 1.227 . S
N581 Co567 2.140 . S
N581 C584 1.346 . S
N581 C585 1.345 . S
C582 C583 1.387 . S
C582 C586 1.391 1_554 S
C583 C582 1.387 . S
C583 C584 1.369 . S
C583 H592 0.929 . S
C584 N581 1.346 . S
C584 C583 1.369 . S
C584 H587 0.928 . S
C585 N581 1.345 . S
C585 C586 1.371 1_554 S
C585 H588 0.931 1_554 S
C586 C582 1.391 1_556 S
C586 C585 1.371 1_556 S
C586 H593 0.930 . S
H587 C584 0.928 . S
H588 C585 0.931 1_556 S
H589 C565 0.930 . S
H590 C562 0.930 . S
H591 C571 0.930 1_556 S
H592 C583 0.929 . S
H593 C586 0.930 . S
C594 C595 1.351 . S
C594 N597 1.368 . S
C594 H599 0.931 . S
C595 C594 1.351 . S
C595 N596 1.373 . S
C595 H623 0.930 . S
N596 C595 1.373 . S
N596 C598 1.340 . S
N597 C594 1.368 . S
N597 C598 1.321 . S
N597 Co600 2.135 . S
C598 N596 1.340 . S
C598 N597 1.321 . S
C598 H622 0.930 . S
H599 C594 0.931 . S
Co600 N597 2.135 . S
Co600 N603 2.121 . S
Co600 O608 2.055 . S
Co600 O611 2.039 . S
Co600 N614 2.140 . S
C601 O602 1.227 . S
C601 O611 1.265 . S
O602 C601 1.227 . S
N603 Co600 2.121 . S
N603 C605 1.375 . S
N603 C606 1.313 . S
C604 C605 1.338 . S
C604 N607 1.377 . S
C604 H624 0.930 . S
C605 N603 1.375 . S
C605 C604 1.338 . S
C605 H609 0.931 . S
C606 N603 1.313 . S
C606 N607 1.344 . S
C606 H610 0.930 . S
N607 C604 1.377 . S
N607 C606 1.344 . S
O608 Co600 2.055 . S
O608 C612 1.253 . S
H609 C605 0.931 . S
H610 C606 0.930 . S
O611 Co600 2.039 . S
O611 C601 1.265 . S
C612 O608 1.253 . S
C612 O613 1.227 . S
O613 C612 1.227 . S
N614 Co600 2.140 . S
N614 C617 1.346 . S
N614 C618 1.345 . S
C615 C616 1.387 . S
C615 C619 1.391 . S
C616 C615 1.387 . S
C616 C617 1.369 . S
C616 H625 0.929 . S
C617 N614 1.346 . S
C617 C616 1.369 . S
C617 H620 0.928 . S
C618 N614 1.345 . S
C618 C619 1.371 . S
C618 H621 0.931 . S
C619 C615 1.391 . S
C619 C618 1.371 . S
C619 H626 0.930 . S
H620 C617 0.928 . S
H621 C618 0.931 . S
H622 C598 0.930 . S
H623 C595 0.930 . S
H624 C604 0.930 . S
H625 C616 0.929 . S
H626 C619 0.930 . S
C627 C628 1.351 . S
C627 N630 1.368 . S
C627 H632 0.931 . S
C628 C627 1.351 . S
C628 N629 1.373 . S
C628 H656 0.930 . S
N629 C628 1.373 . S
N629 C631 1.340 . S
N630 C627 1.368 . S
N630 C631 1.321 . S
N630 Co633 2.135 . S
C631 N629 1.340 . S
C631 N630 1.321 . S
C631 H655 0.930 . S
H632 C627 0.931 . S
Co633 N630 2.135 . S
Co633 N636 2.121 . S
Co633 O641 2.055 1_455 S
Co633 O644 2.039 . S
Co633 N647 2.140 . S
C634 O635 1.227 . S
C634 O644 1.265 . S
O635 C634 1.227 . S
N636 Co633 2.121 . S
N636 C638 1.375 . S
N636 C639 1.329 . S
C637 C638 1.338 . S
C637 N640 1.377 . S
C637 H657 0.930 . S
C638 N636 1.375 . S
C638 C637 1.338 . S
C638 H642 0.931 . S
C639 N636 1.329 . S
C639 N640 1.347 . S
C639 H643 0.914 1_455 S
N640 C637 1.377 . S
N640 C639 1.347 . S
O641 Co633 2.055 1_655 S
O641 C645 1.253 . S
H642 C638 0.931 . S
H643 C639 0.914 1_655 S
O644 Co633 2.039 . S
O644 C634 1.265 . S
C645 O641 1.253 . S
C645 O646 1.227 1_655 S
O646 C645 1.227 1_455 S
N647 Co633 2.140 . S
N647 C650 1.346 . S
N647 C651 1.345 . S
C648 C649 1.387 . S
C648 C652 1.391 . S
C649 C648 1.387 . S
C649 C650 1.369 . S
C649 H658 0.929 . S
C650 N647 1.346 . S
C650 C649 1.369 . S
C650 H653 0.928 . S
C651 N647 1.345 . S
C651 C652 1.371 . S
C651 H654 0.931 . S
C652 C648 1.391 . S
C652 C651 1.371 . S
C652 H659 0.930 . S
H653 C650 0.928 . S
H654 C651 0.931 . S
H655 C631 0.930 . S
H656 C628 0.930 . S
H657 C637 0.930 . S
H658 C649 0.929 . S
H659 C652 0.930 . S
C660 C661 1.351 . S
C660 N663 1.368 . S
C660 H665 0.931 . S
C661 C660 1.351 . S
C661 N662 1.373 . S
C661 H689 0.930 . S
N662 C661 1.373 . S
N662 C664 1.340 . S
N663 C660 1.368 . S
N663 C664 1.321 . S
N663 Co666 2.135 . S
C664 N662 1.340 . S
C664 N663 1.321 . S
C664 H688 0.930 . S
H665 C660 0.931 . S
Co666 N663 2.135 . S
Co666 N669 2.121 . S
Co666 O674 2.055 . S
Co666 O677 2.039 . S
Co666 N680 2.140 . S
C667 O668 1.227 . S
C667 O677 1.265 . S
O668 C667 1.227 . S
N669 Co666 2.121 . S
N669 C671 1.375 . S
N669 C672 1.313 . S
C670 C671 1.338 . S
C670 N673 1.377 . S
C670 H690 0.930 . S
C671 N669 1.375 . S
C671 C670 1.338 . S
C671 H675 0.931 . S
C672 N669 1.313 . S
C672 N673 1.344 . S
C672 H676 0.930 . S
N673 C670 1.377 . S
N673 C672 1.344 . S
O674 Co666 2.055 . S
O674 C678 1.253 . S
H675 C671 0.931 . S
H676 C672 0.930 . S
O677 Co666 2.039 . S
O677 C667 1.265 . S
C678 O674 1.253 . S
C678 O679 1.227 . S
O679 C678 1.227 . S
N680 Co666 2.140 . S
N680 C683 1.346 . S
N680 C684 1.345 . S
C681 C682 1.387 . S
C681 C685 1.391 . S
C682 C681 1.387 . S
C682 C683 1.369 . S
C682 H691 0.929 . S
C683 N680 1.346 . S
C683 C682 1.369 . S
C683 H686 0.928 . S
C684 N680 1.345 . S
C684 C685 1.371 . S
C684 H687 0.931 . S
C685 C681 1.391 . S
C685 C684 1.371 . S
C685 H692 0.930 . S
H686 C683 0.928 . S
H687 C684 0.931 . S
H688 C664 0.930 . S
H689 C661 0.930 . S
H690 C670 0.930 . S
H691 C682 0.929 . S
H692 C685 0.930 . S
C693 C694 1.351 . S
C693 N696 1.368 . S
C693 H698 0.931 . S
C694 C693 1.351 . S
C694 N695 1.373 . S
C694 H722 0.930 . S
N695 C694 1.373 . S
N695 C697 1.340 . S
N696 C693 1.368 . S
N696 C697 1.321 . S
N696 Co699 2.135 . S
C697 N695 1.340 . S
C697 N696 1.321 . S
C697 H721 0.930 . S
H698 C693 0.931 . S
Co699 N696 2.135 . S
Co699 N702 2.121 . S
Co699 O707 2.055 . S
Co699 O710 2.039 . S
Co699 N713 2.140 . S
C700 O701 1.227 . S
C700 O710 1.265 . S
O701 C700 1.227 . S
N702 Co699 2.121 . S
N702 C704 1.375 . S
N702 C705 1.313 . S
C703 C704 1.338 . S
C703 N706 1.377 . S
C703 H723 0.930 . S
C704 N702 1.375 . S
C704 C703 1.338 . S
C704 H708 0.931 . S
C705 N702 1.313 . S
C705 N706 1.344 . S
C705 H709 0.930 . S
N706 C703 1.377 . S
N706 C705 1.344 . S
O707 Co699 2.055 . S
O707 C711 1.253 . S
H708 C704 0.931 . S
H709 C705 0.930 . S
O710 Co699 2.039 . S
O710 C700 1.265 . S
C711 O707 1.253 . S
C711 O712 1.227 . S
O712 C711 1.227 . S
N713 Co699 2.140 . S
N713 C716 1.346 . S
N713 C717 1.345 . S
C714 C715 1.387 . S
C714 C718 1.391 . S
C715 C714 1.387 . S
C715 C716 1.369 . S
C715 H724 0.929 . S
C716 N713 1.346 . S
C716 C715 1.369 . S
C716 H719 0.928 . S
C717 N713 1.345 . S
C717 C718 1.371 . S
C717 H720 0.931 . S
C718 C714 1.391 . S
C718 C717 1.371 . S
C718 H725 0.930 . S
H719 C716 0.928 . S
H720 C717 0.931 . S
H721 C697 0.930 . S
H722 C694 0.930 . S
H723 C703 0.930 . S
H724 C715 0.929 . S
H725 C718 0.930 . S
C726 C727 1.351 . S
C726 N729 1.368 . S
C726 H731 0.931 . S
C727 C726 1.351 . S
C727 N728 1.373 . S
C727 H755 0.930 . S
N728 C727 1.373 . S
N728 C730 1.340 . S
N729 C726 1.368 . S
N729 C730 1.321 . S
N729 Co732 2.135 1_455 S
C730 N728 1.340 . S
C730 N729 1.321 . S
C730 H754 0.930 1_455 S
H731 C726 0.931 . S
Co732 N729 2.135 1_655 S
Co732 N735 2.121 . S
Co732 O740 2.055 . S
Co732 O743 2.039 . S
Co732 N746 2.140 . S
C733 O734 1.227 . S
C733 O743 1.265 . S
O734 C733 1.227 . S
N735 Co732 2.121 . S
N735 C737 1.375 . S
N735 C738 1.313 . S
C736 C737 1.338 . S
C736 N739 1.377 . S
C736 H756 0.930 . S
C737 N735 1.375 . S
C737 C736 1.338 . S
C737 H741 0.931 . S
C738 N735 1.313 . S
C738 N739 1.344 . S
C738 H742 0.930 . S
N739 C736 1.377 . S
N739 C738 1.344 . S
O740 Co732 2.055 . S
O740 C744 1.253 . S
H741 C737 0.931 . S
H742 C738 0.930 . S
O743 Co732 2.039 . S
O743 C733 1.265 . S
C744 O740 1.253 . S
C744 O745 1.227 1_655 S
O745 C744 1.227 1_455 S
N746 Co732 2.140 . S
N746 C749 1.346 . S
N746 C750 1.345 . S
C747 C748 1.387 1_455 S
C747 C751 1.390 1_455 S
C748 C747 1.387 1_655 S
C748 C749 1.369 . S
C748 H757 0.929 1_655 S
C749 N746 1.346 . S
C749 C748 1.369 . S
C749 H752 0.928 . S
C750 N746 1.345 . S
C750 C751 1.371 . S
C750 H753 0.931 . S
C751 C747 1.390 1_655 S
C751 C750 1.371 . S
C751 H758 0.930 . S
H752 C749 0.928 . S
H753 C750 0.931 . S
H754 C730 0.930 1_655 S
H755 C727 0.930 . S
H756 C736 0.930 . S
H757 C748 0.929 1_455 S
H758 C751 0.930 . S
C759 C760 1.351 . S
C759 N762 1.368 . S
C759 H764 0.931 . S
C760 C759 1.351 . S
C760 N761 1.373 . S
C760 H788 0.930 . S
N761 C760 1.373 . S
N761 C763 1.340 . S
N762 C759 1.368 . S
N762 C763 1.321 . S
N762 Co765 2.135 . S
C763 N761 1.340 . S
C763 N762 1.321 . S
C763 H787 0.930 . S
H764 C759 0.931 . S
Co765 N762 2.135 . S
Co765 N768 2.121 . S
Co765 O773 2.055 . S
Co765 O776 2.039 . S
Co765 N779 2.140 . S
C766 O767 1.227 . S
C766 O776 1.265 . S
O767 C766 1.227 . S
N768 Co765 2.121 . S
N768 C770 1.375 . S
N768 C771 1.313 . S
C769 C770 1.338 . S
C769 N772 1.377 . S
C769 H789 0.930 . S
C770 N768 1.375 . S
C770 C769 1.338 . S
C770 H774 0.931 . S
C771 N768 1.313 . S
C771 N772 1.344 . S
C771 H775 0.930 . S
N772 C769 1.377 . S
N772 C771 1.344 . S
O773 Co765 2.055 . S
O773 C777 1.253 . S
H774 C770 0.931 . S
H775 C771 0.930 . S
O776 Co765 2.039 . S
O776 C766 1.265 . S
C777 O773 1.253 . S
C777 O778 1.227 . S
O778 C777 1.227 . S
N779 Co765 2.140 . S
N779 C782 1.346 . S
N779 C783 1.345 . S
C780 C781 1.387 . S
C780 C784 1.391 . S
C781 C780 1.387 . S
C781 C782 1.369 . S
C781 H790 0.929 . S
C782 N779 1.346 . S
C782 C781 1.369 . S
C782 H785 0.928 . S
C783 N779 1.345 . S
C783 C784 1.371 . S
C783 H786 0.931 . S
C784 C780 1.391 . S
C784 C783 1.371 . S
C784 H791 0.930 . S
H785 C782 0.928 . S
H786 C783 0.931 . S
H787 C763 0.930 . S
H788 C760 0.930 . S
H789 C769 0.930 . S
H790 C781 0.929 . S
H791 C784 0.930 . S
C792 C793 1.391 . S
C792 C794 1.394 . S
C792 H808 0.931 . S
C793 C792 1.391 . S
C793 C797 1.376 . S
C794 C792 1.394 . S
C794 C795 1.369 . S
C794 C798 1.531 . S
C795 C794 1.369 . S
C795 C796 1.410 . S
C795 C803 1.503 . S
C796 C795 1.410 . S
C796 C797 1.392 . S
C796 C799 1.511 . S
C797 C793 1.376 . S
C797 C796 1.392 . S
C797 H809 0.929 . S
C798 C794 1.531 . S
C798 H810 0.960 . S
C798 H811 0.962 . S
C798 H812 0.960 . S
C799 C796 1.511 . S
C799 H813 0.961 . S
C799 H814 0.961 . S
C799 H815 0.961 . S
C800 C801 1.370 . S
C800 C802 1.363 . S
C800 H816 0.931 . S
C801 C800 1.370 . S
C801 C805 1.408 . S
C802 C800 1.363 . S
C802 C803 1.370 . S
C802 C806 1.524 . S
C803 C795 1.503 . S
C803 C802 1.370 . S
C803 C804 1.403 . S
C804 C803 1.403 . S
C804 C805 1.404 . S
C804 C807 1.539 . S
C805 C801 1.408 . S
C805 C804 1.404 . S
C805 H817 0.930 . S
C806 C802 1.524 . S
C806 H818 0.956 . S
C806 H819 0.961 . S
C806 H820 0.961 . S
C807 C804 1.539 . S
C807 H821 0.958 . S
C807 H822 0.961 . S
C807 H823 0.960 . S
H808 C792 0.931 . S
H809 C797 0.929 . S
H810 C798 0.960 . S
H811 C798 0.962 . S
H812 C798 0.960 . S
H813 C799 0.961 . S
H814 C799 0.961 . S
H815 C799 0.961 . S
H816 C800 0.931 . S
H817 C805 0.930 . S
H818 C806 0.956 . S
H819 C806 0.961 . S
H820 C806 0.961 . S
H821 C807 0.958 . S
H822 C807 0.961 . S
H823 C807 0.960 . S
C824 C825 1.391 . S
C824 C826 1.394 . S
C824 H840 0.931 . S
C825 C824 1.391 . S
C825 C829 1.376 . S
C826 C824 1.394 . S
C826 C827 1.369 . S
C826 C830 1.531 . S
C827 C826 1.369 . S
C827 C828 1.410 . S
C827 C835 1.503 . S
C828 C827 1.410 . S
C828 C829 1.392 . S
C828 C831 1.511 . S
C829 C825 1.376 . S
C829 C828 1.392 . S
C829 H841 0.929 . S
C830 C826 1.531 . S
C830 H842 0.960 . S
C830 H843 0.962 1_556 S
C830 H844 0.960 . S
C831 C828 1.511 . S
C831 H845 0.961 . S
C831 H846 0.959 1_556 S
C831 H847 0.961 . S
C832 C833 1.370 . S
C832 C834 1.363 . S
C832 H848 0.931 . S
C833 C832 1.370 . S
C833 C837 1.408 1_554 S
C834 C832 1.363 . S
C834 C835 1.370 1_554 S
C834 C838 1.524 . S
C835 C827 1.503 . S
C835 C834 1.370 1_556 S
C835 C836 1.403 . S
C836 C835 1.403 . S
C836 C837 1.404 . S
C836 C839 1.539 . S
C837 C833 1.408 1_556 S
C837 C836 1.404 . S
C837 H849 0.930 . S
C838 C834 1.524 . S
C838 H850 0.956 . S
C838 H851 0.961 . S
C838 H852 0.961 . S
C839 C836 1.539 . S
C839 H853 0.958 . S
C839 H854 0.961 . S
C839 H855 0.960 . S
H840 C824 0.931 . S
H841 C829 0.929 . S
H842 C830 0.960 . S
H843 C830 0.962 1_554 S
H844 C830 0.960 . S
H845 C831 0.961 . S
H846 C831 0.959 1_554 S
H847 C831 0.961 . S
H848 C832 0.931 . S
H849 C837 0.930 . S
H850 C838 0.956 . S
H851 C838 0.961 . S
H852 C838 0.961 . S
H853 C839 0.958 . S
H854 C839 0.961 . S
H855 C839 0.960 . S
C856 C857 1.391 . S
C856 C858 1.394 . S
C856 H872 0.931 . S
C857 C856 1.391 . S
C857 C861 1.376 . S
C858 C856 1.394 . S
C858 C859 1.369 . S
C858 C862 1.531 . S
C859 C858 1.369 . S
C859 C860 1.410 . S
C859 C867 1.503 . S
C860 C859 1.410 . S
C860 C861 1.392 . S
C860 C863 1.511 . S
C861 C857 1.376 . S
C861 C860 1.392 . S
C861 H873 0.929 . S
C862 C858 1.531 . S
C862 H874 0.960 . S
C862 H875 0.962 . S
C862 H876 0.960 . S
C863 C860 1.511 . S
C863 H877 0.961 . S
C863 H878 0.961 . S
C863 H879 0.961 . S
C864 C865 1.370 . S
C864 C866 1.363 . S
C864 H880 0.931 . S
C865 C864 1.370 . S
C865 C869 1.408 . S
C866 C864 1.363 . S
C866 C867 1.370 . S
C866 C870 1.524 . S
C867 C859 1.503 . S
C867 C866 1.370 . S
C867 C868 1.403 . S
C868 C867 1.403 . S
C868 C869 1.404 . S
C868 C871 1.539 . S
C869 C865 1.408 . S
C869 C868 1.404 . S
C869 H881 0.930 . S
C870 C866 1.524 . S
C870 H882 0.956 . S
C870 H883 0.961 . S
C870 H884 0.961 . S
C871 C868 1.539 . S
C871 H885 0.958 . S
C871 H886 0.961 . S
C871 H887 0.960 . S
H872 C856 0.931 . S
H873 C861 0.929 . S
H874 C862 0.960 . S
H875 C862 0.962 . S
H876 C862 0.960 . S
H877 C863 0.961 . S
H878 C863 0.961 . S
H879 C863 0.961 . S
H880 C864 0.931 . S
H881 C869 0.930 . S
H882 C870 0.956 . S
H883 C870 0.961 . S
H884 C870 0.961 . S
H885 C871 0.958 . S
H886 C871 0.961 . S
H887 C871 0.960 . S
C888 C889 1.391 . S
C888 C890 1.394 . S
C888 H904 0.931 . S
C889 C888 1.391 . S
C889 C893 1.376 . S
C890 C888 1.394 . S
C890 C891 1.369 . S
C890 C894 1.531 . S
C891 C890 1.369 . S
C891 C892 1.410 . S
C891 C899 1.503 . S
C892 C891 1.410 . S
C892 C893 1.392 . S
C892 C895 1.511 . S
C893 C889 1.376 . S
C893 C892 1.392 . S
C893 H905 0.929 . S
C894 C890 1.531 . S
C894 H906 0.960 . S
C894 H907 0.962 . S
C894 H908 0.960 . S
C895 C892 1.511 . S
C895 H909 0.961 . S
C895 H910 0.961 . S
C895 H911 0.961 . S
C896 C897 1.370 . S
C896 C898 1.363 . S
C896 H912 0.931 . S
C897 C896 1.370 . S
C897 C901 1.408 . S
C898 C896 1.363 . S
C898 C899 1.370 . S
C898 C902 1.524 . S
C899 C891 1.503 . S
C899 C898 1.370 . S
C899 C900 1.403 . S
C900 C899 1.403 . S
C900 C901 1.404 . S
C900 C903 1.539 . S
C901 C897 1.408 . S
C901 C900 1.404 . S
C901 H913 0.930 . S
C902 C898 1.524 . S
C902 H914 0.956 . S
C902 H915 0.961 . S
C902 H916 0.961 . S
C903 C900 1.539 . S
C903 H917 0.958 . S
C903 H918 0.961 . S
C903 H919 0.960 . S
H904 C888 0.931 . S
H905 C893 0.929 . S
H906 C894 0.960 . S
H907 C894 0.962 . S
H908 C894 0.960 . S
H909 C895 0.961 . S
H910 C895 0.961 . S
H911 C895 0.961 . S
H912 C896 0.931 . S
H913 C901 0.930 . S
H914 C902 0.956 . S
H915 C902 0.961 . S
H916 C902 0.961 . S
H917 C903 0.958 . S
H918 C903 0.961 . S
H919 C903 0.960 . S
C920 C921 1.391 . S
C920 C922 1.394 . S
C920 H936 0.931 . S
C921 C920 1.391 . S
C921 C925 1.376 . S
C922 C920 1.394 . S
C922 C923 1.369 . S
C922 C926 1.531 . S
C923 C922 1.369 . S
C923 C924 1.410 . S
C923 C931 1.503 . S
C924 C923 1.410 . S
C924 C925 1.392 . S
C924 C927 1.511 . S
C925 C921 1.376 . S
C925 C924 1.392 . S
C925 H937 0.929 . S
C926 C922 1.531 . S
C926 H938 0.960 . S
C926 H939 0.962 . S
C926 H940 0.960 . S
C927 C924 1.511 . S
C927 H941 0.961 . S
C927 H942 0.961 . S
C927 H943 0.961 . S
C928 C929 1.370 . S
C928 C930 1.363 . S
C928 H944 0.931 . S
C929 C928 1.370 . S
C929 C933 1.408 . S
C930 C928 1.363 . S
C930 C931 1.370 . S
C930 C934 1.524 . S
C931 C923 1.503 . S
C931 C930 1.370 . S
C931 C932 1.403 . S
C932 C931 1.403 . S
C932 C933 1.404 . S
C932 C935 1.539 . S
C933 C929 1.408 . S
C933 C932 1.404 . S
C933 H945 0.930 . S
C934 C930 1.524 . S
C934 H946 0.956 . S
C934 H947 0.961 . S
C934 H948 0.961 . S
C935 C932 1.539 . S
C935 H949 0.958 . S
C935 H950 0.961 . S
C935 H951 0.960 . S
H936 C920 0.931 . S
H937 C925 0.929 . S
H938 C926 0.960 . S
H939 C926 0.962 . S
H940 C926 0.960 . S
H941 C927 0.961 . S
H942 C927 0.961 . S
H943 C927 0.961 . S
H944 C928 0.931 . S
H945 C933 0.930 . S
H946 C934 0.956 . S
H947 C934 0.961 . S
H948 C934 0.961 . S
H949 C935 0.958 . S
H950 C935 0.961 . S
H951 C935 0.960 . S
C952 C953 1.391 . S
C952 C954 1.394 . S
C952 H968 0.931 . S
C953 C952 1.391 . S
C953 C957 1.376 . S
C954 C952 1.394 . S
C954 C955 1.369 . S
C954 C958 1.531 . S
C955 C954 1.369 . S
C955 C956 1.410 . S
C955 C963 1.503 . S
C956 C955 1.410 . S
C956 C957 1.392 . S
C956 C959 1.511 . S
C957 C953 1.376 . S
C957 C956 1.392 . S
C957 H969 0.929 . S
C958 C954 1.531 . S
C958 H970 0.960 . S
C958 H971 0.962 . S
C958 H972 0.960 . S
C959 C956 1.511 . S
C959 H973 0.961 . S
C959 H974 0.961 . S
C959 H975 0.961 . S
C960 C961 1.370 . S
C960 C962 1.363 . S
C960 H976 0.931 . S
C961 C960 1.370 . S
C961 C965 1.408 . S
C962 C960 1.363 . S
C962 C963 1.370 . S
C962 C966 1.524 . S
C963 C955 1.503 . S
C963 C962 1.370 . S
C963 C964 1.403 . S
C964 C963 1.403 . S
C964 C965 1.404 . S
C964 C967 1.539 . S
C965 C961 1.408 . S
C965 C964 1.404 . S
C965 H977 0.930 . S
C966 C962 1.524 . S
C966 H978 0.956 . S
C966 H979 0.961 . S
C966 H980 0.961 . S
C967 C964 1.539 . S
C967 H981 0.958 . S
C967 H982 0.961 . S
C967 H983 0.960 . S
H968 C952 0.931 . S
H969 C957 0.929 . S
H970 C958 0.960 . S
H971 C958 0.962 . S
H972 C958 0.960 . S
H973 C959 0.961 . S
H974 C959 0.961 . S
H975 C959 0.961 . S
H976 C960 0.931 . S
H977 C965 0.930 . S
H978 C966 0.956 . S
H979 C966 0.961 . S
H980 C966 0.961 . S
H981 C967 0.958 . S
H982 C967 0.961 . S
H983 C967 0.960 . S
C984 C985 1.391 . S
C984 C986 1.394 . S
C984 H1000 0.931 . S
C985 C984 1.391 . S
C985 C989 1.376 1_455 S
C986 C984 1.394 . S
C986 C987 1.369 1_455 S
C986 C990 1.531 . S
C987 C986 1.369 1_655 S
C987 C988 1.410 . S
C987 C995 1.503 . S
C988 C987 1.410 . S
C988 C989 1.392 . S
C988 C991 1.511 . S
C989 C985 1.376 1_655 S
C989 C988 1.392 . S
C989 H1001 0.929 . S
C990 C986 1.531 . S
C990 H1002 0.960 1_455 S
C990 H1003 0.962 . S
C990 H1004 0.960 . S
C991 C988 1.511 . S
C991 H1005 0.961 . S
C991 H1006 0.961 . S
C991 H1007 0.961 . S
C992 C993 1.370 1_455 S
C992 C994 1.363 . S
C992 H1008 0.931 . S
C993 C992 1.370 1_655 S
C993 C997 1.408 . S
C994 C992 1.363 . S
C994 C995 1.370 1_455 S
C994 C998 1.524 . S
C995 C987 1.503 . S
C995 C994 1.370 1_655 S
C995 C996 1.403 . S
C996 C995 1.403 . S
C996 C997 1.404 . S
C996 C999 1.539 . S
C997 C993 1.408 . S
C997 C996 1.404 . S
C997 H1009 0.930 . S
C998 C994 1.524 . S
C998 H1010 0.956 . S
C998 H1011 0.961 . S
C998 H1012 0.961 . S
C999 C996 1.539 . S
C999 H1013 0.958 . S
C999 H1014 0.961 . S
C999 H1015 0.960 . S
H1000 C984 0.931 . S
H1001 C989 0.929 . S
H1002 C990 0.960 1_655 S
H1003 C990 0.962 . S
H1004 C990 0.960 . S
H1005 C991 0.961 . S
H1006 C991 0.961 . S
H1007 C991 0.961 . S
H1008 C992 0.931 . S
H1009 C997 0.930 . S
H1010 C998 0.956 . S
H1011 C998 0.961 . S
H1012 C998 0.961 . S
H1013 C999 0.958 . S
H1014 C999 0.961 . S
H1015 C999 0.960 . S
C1016 C1017 1.391 . S
C1016 C1018 1.394 . S
C1016 H1032 0.931 . S
C1017 C1016 1.391 . S
C1017 C1021 1.376 . S
C1018 C1016 1.394 . S
C1018 C1019 1.369 . S
C1018 C1022 1.531 . S
C1019 C1018 1.369 . S
C1019 C1020 1.410 . S
C1019 C1027 1.503 . S
C1020 C1019 1.410 . S
C1020 C1021 1.392 . S
C1020 C1023 1.511 . S
C1021 C1017 1.376 . S
C1021 C1020 1.392 . S
C1021 H1033 0.929 . S
C1022 C1018 1.531 . S
C1022 H1034 0.960 . S
C1022 H1035 0.962 . S
C1022 H1036 0.960 . S
C1023 C1020 1.511 . S
C1023 H1037 0.961 . S
C1023 H1038 0.961 . S
C1023 H1039 0.961 . S
C1024 C1025 1.370 . S
C1024 C1026 1.363 . S
C1024 H1040 0.931 . S
C1025 C1024 1.370 . S
C1025 C1029 1.408 . S
C1026 C1024 1.363 . S
C1026 C1027 1.370 . S
C1026 C1030 1.524 . S
C1027 C1019 1.503 . S
C1027 C1026 1.370 . S
C1027 C1028 1.403 . S
C1028 C1027 1.403 . S
C1028 C1029 1.404 . S
C1028 C1031 1.539 . S
C1029 C1025 1.408 . S
C1029 C1028 1.404 . S
C1029 H1041 0.930 . S
C1030 C1026 1.524 . S
C1030 H1042 0.956 . S
C1030 H1043 0.961 . S
C1030 H1044 0.961 . S
C1031 C1028 1.539 . S
C1031 H1045 0.958 . S
C1031 H1046 0.961 . S
C1031 H1047 0.960 . S
H1032 C1016 0.931 . S
H1033 C1021 0.929 . S
H1034 C1022 0.960 . S
H1035 C1022 0.962 . S
H1036 C1022 0.960 . S
H1037 C1023 0.961 . S
H1038 C1023 0.961 . S
H1039 C1023 0.961 . S
H1040 C1024 0.931 . S
H1041 C1029 0.930 . S
H1042 C1030 0.956 . S
H1043 C1030 0.961 . S
H1044 C1030 0.961 . S
H1045 C1031 0.958 . S
H1046 C1031 0.961 . S
H1047 C1031 0.960 . S
C1048 C1049 1.391 . S
C1048 C1050 1.394 . S
C1048 H1064 0.931 . S
C1049 C1048 1.391 . S
C1049 C1053 1.376 . S
C1050 C1048 1.394 . S
C1050 C1051 1.369 . S
C1050 C1054 1.531 . S
C1051 C1050 1.369 . S
C1051 C1052 1.410 . S
C1051 C1059 1.503 . S
C1052 C1051 1.410 . S
C1052 C1053 1.392 . S
C1052 C1055 1.511 . S
C1053 C1049 1.376 . S
C1053 C1052 1.392 . S
C1053 H1065 0.929 . S
C1054 C1050 1.531 . S
C1054 H1066 0.960 . S
C1054 H1067 0.962 . S
C1054 H1068 0.960 . S
C1055 C1052 1.511 . S
C1055 H1069 0.961 . S
C1055 H1070 0.961 . S
C1055 H1071 0.961 . S
C1056 C1057 1.370 . S
C1056 C1058 1.363 . S
C1056 H1072 0.931 . S
C1057 C1056 1.370 . S
C1057 C1061 1.408 . S
C1058 C1056 1.363 . S
C1058 C1059 1.370 . S
C1058 C1062 1.524 . S
C1059 C1051 1.503 . S
C1059 C1058 1.370 . S
C1059 C1060 1.403 . S
C1060 C1059 1.403 . S
C1060 C1061 1.404 . S
C1060 C1063 1.539 . S
C1061 C1057 1.408 . S
C1061 C1060 1.404 . S
C1061 H1073 0.930 . S
C1062 C1058 1.524 . S
C1062 H1074 0.956 . S
C1062 H1075 0.961 . S
C1062 H1076 0.961 . S
C1063 C1060 1.539 . S
C1063 H1077 0.958 . S
C1063 H1078 0.961 . S
C1063 H1079 0.960 . S
H1064 C1048 0.931 . S
H1065 C1053 0.929 . S
H1066 C1054 0.960 . S
H1067 C1054 0.962 . S
H1068 C1054 0.960 . S
H1069 C1055 0.961 . S
H1070 C1055 0.961 . S
H1071 C1055 0.961 . S
H1072 C1056 0.931 . S
H1073 C1061 0.930 . S
H1074 C1062 0.956 . S
H1075 C1062 0.961 . S
H1076 C1062 0.961 . S
H1077 C1063 0.958 . S
H1078 C1063 0.961 . S
H1079 C1063 0.960 . S
C1080 C1081 1.391 . S
C1080 C1082 1.394 . S
C1080 H1096 0.931 . S
C1081 C1080 1.391 . S
C1081 C1085 1.376 . S
C1082 C1080 1.394 . S
C1082 C1083 1.369 . S
C1082 C1086 1.531 . S
C1083 C1082 1.369 . S
C1083 C1084 1.410 . S
C1083 C1091 1.503 . S
C1084 C1083 1.410 . S
C1084 C1085 1.392 . S
C1084 C1087 1.511 . S
C1085 C1081 1.376 . S
C1085 C1084 1.392 . S
C1085 H1097 0.929 . S
C1086 C1082 1.531 . S
C1086 H1098 0.960 . S
C1086 H1099 0.962 . S
C1086 H1100 0.960 . S
C1087 C1084 1.511 . S
C1087 H1101 0.961 . S
C1087 H1102 0.961 . S
C1087 H1103 0.961 . S
C1088 C1089 1.370 . S
C1088 C1090 1.363 . S
C1088 H1104 0.931 . S
C1089 C1088 1.370 . S
C1089 C1093 1.408 . S
C1090 C1088 1.363 . S
C1090 C1091 1.370 . S
C1090 C1094 1.524 . S
C1091 C1083 1.503 . S
C1091 C1090 1.370 . S
C1091 C1092 1.403 . S
C1092 C1091 1.403 . S
C1092 C1093 1.404 . S
C1092 C1095 1.539 . S
C1093 C1089 1.408 . S
C1093 C1092 1.404 . S
C1093 H1105 0.930 . S
C1094 C1090 1.524 . S
C1094 H1106 0.956 . S
C1094 H1107 0.961 . S
C1094 H1108 0.961 . S
C1095 C1092 1.539 . S
C1095 H1109 0.958 . S
C1095 H1110 0.961 . S
C1095 H1111 0.960 . S
H1096 C1080 0.931 . S
H1097 C1085 0.929 . S
H1098 C1086 0.960 . S
H1099 C1086 0.962 . S
H1100 C1086 0.960 . S
H1101 C1087 0.961 . S
H1102 C1087 0.961 . S
H1103 C1087 0.961 . S
H1104 C1088 0.931 . S
H1105 C1093 0.930 . S
H1106 C1094 0.956 . S
H1107 C1094 0.961 . S
H1108 C1094 0.961 . S
H1109 C1095 0.958 . S
H1110 C1095 0.961 . S
H1111 C1095 0.960 . S
C1112 C1113 1.391 1_545 S
C1112 C1114 1.394 . S
C1112 H1128 0.931 . S
C1113 C1112 1.391 1_565 S
C1113 C1117 1.376 . S
C1114 C1112 1.394 . S
C1114 C1115 1.369 . S
C1114 C1118 1.531 . S
C1115 C1114 1.369 . S
C1115 C1116 1.410 1_545 S
C1115 C1123 1.503 . S
C1116 C1115 1.410 1_565 S
C1116 C1117 1.392 . S
C1116 C1119 1.511 . S
C1117 C1113 1.376 . S
C1117 C1116 1.392 . S
C1117 H1129 0.929 . S
C1118 C1114 1.531 . S
C1118 H1130 0.960 . S
C1118 H1131 0.962 . S
C1118 H1132 0.960 . S
C1119 C1116 1.511 . S
C1119 H1133 0.961 . S
C1119 H1134 0.961 . S
C1119 H1135 0.961 . S
C1120 C1121 1.370 1_565 S
C1120 C1122 1.363 . S
C1120 H1136 0.931 . S
C1121 C1120 1.370 1_545 S
C1121 C1125 1.408 . S
C1122 C1120 1.363 . S
C1122 C1123 1.370 1_565 S
C1122 C1126 1.524 . S
C1123 C1115 1.503 . S
C1123 C1122 1.370 1_545 S
C1123 C1124 1.403 . S
C1124 C1123 1.403 . S
C1124 C1125 1.404 . S
C1124 C1127 1.539 . S
C1125 C1121 1.408 . S
C1125 C1124 1.404 . S
C1125 H1137 0.930 . S
C1126 C1122 1.524 . S
C1126 H1138 0.956 . S
C1126 H1139 0.961 . S
C1126 H1140 0.961 . S
C1127 C1124 1.539 . S
C1127 H1141 0.958 . S
C1127 H1142 0.961 . S
C1127 H1143 0.960 . S
H1128 C1112 0.931 . S
H1129 C1117 0.929 . S
H1130 C1118 0.960 . S
H1131 C1118 0.962 . S
H1132 C1118 0.960 . S
H1133 C1119 0.961 . S
H1134 C1119 0.961 . S
H1135 C1119 0.961 . S
H1136 C1120 0.931 . S
H1137 C1125 0.930 . S
H1138 C1126 0.956 . S
H1139 C1126 0.961 . S
H1140 C1126 0.961 . S
H1141 C1127 0.958 . S
H1142 C1127 0.961 . S
H1143 C1127 0.960 . S
C1144 C1145 1.391 . S
C1144 C1146 1.394 . S
C1144 H1160 0.931 . S
C1145 C1144 1.391 . S
C1145 C1149 1.376 . S
C1146 C1144 1.394 . S
C1146 C1147 1.369 . S
C1146 C1150 1.531 . S
C1147 C1146 1.369 . S
C1147 C1148 1.410 . S
C1147 C1155 1.503 . S
C1148 C1147 1.410 . S
C1148 C1149 1.392 . S
C1148 C1151 1.511 . S
C1149 C1145 1.376 . S
C1149 C1148 1.392 . S
C1149 H1161 0.929 . S
C1150 C1146 1.531 . S
C1150 H1162 0.960 . S
C1150 H1163 0.962 . S
C1150 H1164 0.960 . S
C1151 C1148 1.511 . S
C1151 H1165 0.961 . S
C1151 H1166 0.961 . S
C1151 H1167 0.961 . S
C1152 C1153 1.370 . S
C1152 C1154 1.363 . S
C1152 H1168 0.931 . S
C1153 C1152 1.370 . S
C1153 C1157 1.408 . S
C1154 C1152 1.363 . S
C1154 C1155 1.370 . S
C1154 C1158 1.524 . S
C1155 C1147 1.503 . S
C1155 C1154 1.370 . S
C1155 C1156 1.403 . S
C1156 C1155 1.403 . S
C1156 C1157 1.404 . S
C1156 C1159 1.539 . S
C1157 C1153 1.408 . S
C1157 C1156 1.404 . S
C1157 H1169 0.930 . S
C1158 C1154 1.524 . S
C1158 H1170 0.956 . S
C1158 H1171 0.961 . S
C1158 H1172 0.961 . S
C1159 C1156 1.539 . S
C1159 H1173 0.958 . S
C1159 H1174 0.961 . S
C1159 H1175 0.960 . S
H1160 C1144 0.931 . S
H1161 C1149 0.929 . S
H1162 C1150 0.960 . S
H1163 C1150 0.962 . S
H1164 C1150 0.960 . S
H1165 C1151 0.961 . S
H1166 C1151 0.961 . S
H1167 C1151 0.961 . S
H1168 C1152 0.931 . S
H1169 C1157 0.930 . S
H1170 C1158 0.956 . S
H1171 C1158 0.961 . S
H1172 C1158 0.961 . S
H1173 C1159 0.958 . S
H1174 C1159 0.961 . S
H1175 C1159 0.960 . S
C1176 C1177 1.391 . S
C1176 C1178 1.394 . S
C1176 H1192 0.931 . S
C1177 C1176 1.391 . S
C1177 C1181 1.376 . S
C1178 C1176 1.394 . S
C1178 C1179 1.369 . S
C1178 C1182 1.531 . S
C1179 C1178 1.369 . S
C1179 C1180 1.410 . S
C1179 C1187 1.503 . S
C1180 C1179 1.410 . S
C1180 C1181 1.392 . S
C1180 C1183 1.511 . S
C1181 C1177 1.376 . S
C1181 C1180 1.392 . S
C1181 H1193 0.929 . S
C1182 C1178 1.531 . S
C1182 H1194 0.960 . S
C1182 H1195 0.962 . S
C1182 H1196 0.960 . S
C1183 C1180 1.511 . S
C1183 H1197 0.961 . S
C1183 H1198 0.961 . S
C1183 H1199 0.961 . S
C1184 C1185 1.370 . S
C1184 C1186 1.363 . S
C1184 H1200 0.931 . S
C1185 C1184 1.370 . S
C1185 C1189 1.408 . S
C1186 C1184 1.363 . S
C1186 C1187 1.370 . S
C1186 C1190 1.524 . S
C1187 C1179 1.503 . S
C1187 C1186 1.370 . S
C1187 C1188 1.403 . S
C1188 C1187 1.403 . S
C1188 C1189 1.404 . S
C1188 C1191 1.539 . S
C1189 C1185 1.408 . S
C1189 C1188 1.404 . S
C1189 H1201 0.930 . S
C1190 C1186 1.524 . S
C1190 H1202 0.956 . S
C1190 H1203 0.961 . S
C1190 H1204 0.961 . S
C1191 C1188 1.539 . S
C1191 H1205 0.958 . S
C1191 H1206 0.961 . S
C1191 H1207 0.960 . S
H1192 C1176 0.931 . S
H1193 C1181 0.929 . S
H1194 C1182 0.960 . S
H1195 C1182 0.962 . S
H1196 C1182 0.960 . S
H1197 C1183 0.961 . S
H1198 C1183 0.961 . S
H1199 C1183 0.961 . S
H1200 C1184 0.931 . S
H1201 C1189 0.930 . S
H1202 C1190 0.956 . S
H1203 C1190 0.961 . S
H1204 C1190 0.961 . S
H1205 C1191 0.958 . S
H1206 C1191 0.961 . S
H1207 C1191 0.960 . S
C1208 C1209 1.391 . S
C1208 C1210 1.394 . S
C1208 H1224 0.931 . S
C1209 C1208 1.391 . S
C1209 C1213 1.376 . S
C1210 C1208 1.394 . S
C1210 C1211 1.369 . S
C1210 C1214 1.531 . S
C1211 C1210 1.369 . S
C1211 C1212 1.410 . S
C1211 C1219 1.503 . S
C1212 C1211 1.410 . S
C1212 C1213 1.392 . S
C1212 C1215 1.511 . S
C1213 C1209 1.376 . S
C1213 C1212 1.392 . S
C1213 H1225 0.929 . S
C1214 C1210 1.531 . S
C1214 H1226 0.960 . S
C1214 H1227 0.962 . S
C1214 H1228 0.960 . S
C1215 C1212 1.511 . S
C1215 H1229 0.961 . S
C1215 H1230 0.961 . S
C1215 H1231 0.961 . S
C1216 C1217 1.370 . S
C1216 C1218 1.363 . S
C1216 H1232 0.931 . S
C1217 C1216 1.370 . S
C1217 C1221 1.408 . S
C1218 C1216 1.363 . S
C1218 C1219 1.370 . S
C1218 C1222 1.524 . S
C1219 C1211 1.503 . S
C1219 C1218 1.370 . S
C1219 C1220 1.403 . S
C1220 C1219 1.403 . S
C1220 C1221 1.404 . S
C1220 C1223 1.539 . S
C1221 C1217 1.408 . S
C1221 C1220 1.404 . S
C1221 H1233 0.930 . S
C1222 C1218 1.524 . S
C1222 H1234 0.956 . S
C1222 H1235 0.961 . S
C1222 H1236 0.961 . S
C1223 C1220 1.539 . S
C1223 H1237 0.958 . S
C1223 H1238 0.961 . S
C1223 H1239 0.960 . S
H1224 C1208 0.931 . S
H1225 C1213 0.929 . S
H1226 C1214 0.960 . S
H1227 C1214 0.962 . S
H1228 C1214 0.960 . S
H1229 C1215 0.961 . S
H1230 C1215 0.961 . S
H1231 C1215 0.961 . S
H1232 C1216 0.931 . S
H1233 C1221 0.930 . S
H1234 C1222 0.956 . S
H1235 C1222 0.961 . S
H1236 C1222 0.961 . S
H1237 C1223 0.958 . S
H1238 C1223 0.961 . S
H1239 C1223 0.960 . S
C1240 C1241 1.391 . S
C1240 C1242 1.394 . S
C1240 H1256 0.931 . S
C1241 C1240 1.391 . S
C1241 C1245 1.376 . S
C1242 C1240 1.394 . S
C1242 C1243 1.369 . S
C1242 C1246 1.531 . S
C1243 C1242 1.369 . S
C1243 C1244 1.410 . S
C1243 C1251 1.503 . S
C1244 C1243 1.410 . S
C1244 C1245 1.392 . S
C1244 C1247 1.511 . S
C1245 C1241 1.376 . S
C1245 C1244 1.392 . S
C1245 H1257 0.929 . S
C1246 C1242 1.531 . S
C1246 H1258 0.960 . S
C1246 H1259 0.962 . S
C1246 H1260 0.960 . S
C1247 C1244 1.511 . S
C1247 H1261 0.961 . S
C1247 H1262 0.961 . S
C1247 H1263 0.961 . S
C1248 C1249 1.370 . S
C1248 C1250 1.363 . S
C1248 H1264 0.931 . S
C1249 C1248 1.370 . S
C1249 C1253 1.408 . S
C1250 C1248 1.363 . S
C1250 C1251 1.370 . S
C1250 C1254 1.524 . S
C1251 C1243 1.503 . S
C1251 C1250 1.370 . S
C1251 C1252 1.403 . S
C1252 C1251 1.403 . S
C1252 C1253 1.404 . S
C1252 C1255 1.539 . S
C1253 C1249 1.408 . S
C1253 C1252 1.404 . S
C1253 H1265 0.930 . S
C1254 C1250 1.524 . S
C1254 H1266 0.956 . S
C1254 H1267 0.961 . S
C1254 H1268 0.961 . S
C1255 C1252 1.539 . S
C1255 H1269 0.958 . S
C1255 H1270 0.961 . S
C1255 H1271 0.960 . S
H1256 C1240 0.931 . S
H1257 C1245 0.929 . S
H1258 C1246 0.960 . S
H1259 C1246 0.962 . S
H1260 C1246 0.960 . S
H1261 C1247 0.961 . S
H1262 C1247 0.961 . S
H1263 C1247 0.961 . S
H1264 C1248 0.931 . S
H1265 C1253 0.930 . S
H1266 C1254 0.956 . S
H1267 C1254 0.961 . S
H1268 C1254 0.961 . S
H1269 C1255 0.958 . S
H1270 C1255 0.961 . S
H1271 C1255 0.960 . S
C1272 C1273 1.391 . S
C1272 C1274 1.394 . S
C1272 H1288 0.931 . S
C1273 C1272 1.391 . S
C1273 C1277 1.376 . S
C1274 C1272 1.394 . S
C1274 C1275 1.369 . S
C1274 C1278 1.531 . S
C1275 C1274 1.369 . S
C1275 C1276 1.410 . S
C1275 C1283 1.503 . S
C1276 C1275 1.410 . S
C1276 C1277 1.392 . S
C1276 C1279 1.511 . S
C1277 C1273 1.376 . S
C1277 C1276 1.392 . S
C1277 H1289 0.929 . S
C1278 C1274 1.531 . S
C1278 H1290 0.960 . S
C1278 H1291 0.962 . S
C1278 H1292 0.960 . S
C1279 C1276 1.511 . S
C1279 H1293 0.961 . S
C1279 H1294 0.961 . S
C1279 H1295 0.961 . S
C1280 C1281 1.370 . S
C1280 C1282 1.363 . S
C1280 H1296 0.931 . S
C1281 C1280 1.370 . S
C1281 C1285 1.408 . S
C1282 C1280 1.363 . S
C1282 C1283 1.370 . S
C1282 C1286 1.524 . S
C1283 C1275 1.503 . S
C1283 C1282 1.370 . S
C1283 C1284 1.403 . S
C1284 C1283 1.403 . S
C1284 C1285 1.404 . S
C1284 C1287 1.539 . S
C1285 C1281 1.408 . S
C1285 C1284 1.404 . S
C1285 H1297 0.930 . S
C1286 C1282 1.524 . S
C1286 H1298 0.956 . S
C1286 H1299 0.961 . S
C1286 H1300 0.961 . S
C1287 C1284 1.539 . S
C1287 H1301 0.958 . S
C1287 H1302 0.961 . S
C1287 H1303 0.960 . S
H1288 C1272 0.931 . S
H1289 C1277 0.929 . S
H1290 C1278 0.960 . S
H1291 C1278 0.962 . S
H1292 C1278 0.960 . S
H1293 C1279 0.961 . S
H1294 C1279 0.961 . S
H1295 C1279 0.961 . S
H1296 C1280 0.931 . S
H1297 C1285 0.930 . S
H1298 C1286 0.956 . S
H1299 C1286 0.961 . S
H1300 C1286 0.961 . S
H1301 C1287 0.958 . S
H1302 C1287 0.961 . S
H1303 C1287 0.960 . S
C1304 C1305 1.391 . S
C1304 C1306 1.394 . S
C1304 H1320 0.931 . S
C1305 C1304 1.391 . S
C1305 C1309 1.376 . S
C1306 C1304 1.394 . S
C1306 C1307 1.369 . S
C1306 C1310 1.531 . S
C1307 C1306 1.369 . S
C1307 C1308 1.410 . S
C1307 C1315 1.503 . S
C1308 C1307 1.410 . S
C1308 C1309 1.392 . S
C1308 C1311 1.511 . S
C1309 C1305 1.376 . S
C1309 C1308 1.392 . S
C1309 H1321 0.929 . S
C1310 C1306 1.531 . S
C1310 H1322 0.960 . S
C1310 H1323 0.962 . S
C1310 H1324 0.960 . S
C1311 C1308 1.511 . S
C1311 H1325 0.961 . S
C1311 H1326 0.961 . S
C1311 H1327 0.961 . S
C1312 C1313 1.370 . S
C1312 C1314 1.363 . S
C1312 H1328 0.931 . S
C1313 C1312 1.370 . S
C1313 C1317 1.408 . S
C1314 C1312 1.363 . S
C1314 C1315 1.370 . S
C1314 C1318 1.524 . S
C1315 C1307 1.503 . S
C1315 C1314 1.370 . S
C1315 C1316 1.403 . S
C1316 C1315 1.403 . S
C1316 C1317 1.404 . S
C1316 C1319 1.539 . S
C1317 C1313 1.408 . S
C1317 C1316 1.404 . S
C1317 H1329 0.930 . S
C1318 C1314 1.524 . S
C1318 H1330 0.956 . S
C1318 H1331 0.961 . S
C1318 H1332 0.961 . S
C1319 C1316 1.539 . S
C1319 H1333 0.958 . S
C1319 H1334 0.961 . S
C1319 H1335 0.960 . S
H1320 C1304 0.931 . S
H1321 C1309 0.929 . S
H1322 C1310 0.960 . S
H1323 C1310 0.962 . S
H1324 C1310 0.960 . S
H1325 C1311 0.961 . S
H1326 C1311 0.961 . S
H1327 C1311 0.961 . S
H1328 C1312 0.931 . S
H1329 C1317 0.930 . S
H1330 C1318 0.956 . S
H1331 C1318 0.961 . S
H1332 C1318 0.961 . S
H1333 C1319 0.958 . S
H1334 C1319 0.961 . S
H1335 C1319 0.960 . S
C1336 C1337 1.391 . S
C1336 C1338 1.394 . S
C1336 H1352 0.931 . S
C1337 C1336 1.391 . S
C1337 C1341 1.376 . S
C1338 C1336 1.394 . S
C1338 C1339 1.369 . S
C1338 C1342 1.531 . S
C1339 C1338 1.369 . S
C1339 C1340 1.410 . S
C1339 C1347 1.503 . S
C1340 C1339 1.410 . S
C1340 C1341 1.392 . S
C1340 C1343 1.511 . S
C1341 C1337 1.376 . S
C1341 C1340 1.392 . S
C1341 H1353 0.929 . S
C1342 C1338 1.531 . S
C1342 H1354 0.960 . S
C1342 H1355 0.962 . S
C1342 H1356 0.960 . S
C1343 C1340 1.511 . S
C1343 H1357 0.961 . S
C1343 H1358 0.961 . S
C1343 H1359 0.961 . S
C1344 C1345 1.370 . S
C1344 C1346 1.363 . S
C1344 H1360 0.931 . S
C1345 C1344 1.370 . S
C1345 C1349 1.408 . S
C1346 C1344 1.363 . S
C1346 C1347 1.370 . S
C1346 C1350 1.524 . S
C1347 C1339 1.503 . S
C1347 C1346 1.370 . S
C1347 C1348 1.403 . S
C1348 C1347 1.403 . S
C1348 C1349 1.404 . S
C1348 C1351 1.539 . S
C1349 C1345 1.408 . S
C1349 C1348 1.404 . S
C1349 H1361 0.930 . S
C1350 C1346 1.524 . S
C1350 H1362 0.956 . S
C1350 H1363 0.961 . S
C1350 H1364 0.961 . S
C1351 C1348 1.539 . S
C1351 H1365 0.958 . S
C1351 H1366 0.961 . S
C1351 H1367 0.960 . S
H1352 C1336 0.931 . S
H1353 C1341 0.929 . S
H1354 C1342 0.960 . S
H1355 C1342 0.962 . S
H1356 C1342 0.960 . S
H1357 C1343 0.961 . S
H1358 C1343 0.961 . S
H1359 C1343 0.961 . S
H1360 C1344 0.931 . S
H1361 C1349 0.930 . S
H1362 C1350 0.956 . S
H1363 C1350 0.961 . S
H1364 C1350 0.961 . S
H1365 C1351 0.958 . S
H1366 C1351 0.961 . S
H1367 C1351 0.960 . S
C1368 C1369 1.391 . S
C1368 C1370 1.394 . S
C1368 H1384 0.931 . S
C1369 C1368 1.391 . S
C1369 C1373 1.376 . S
C1370 C1368 1.394 . S
C1370 C1371 1.369 . S
C1370 C1374 1.531 . S
C1371 C1370 1.369 . S
C1371 C1372 1.410 1_455 S
C1371 C1379 1.503 . S
C1372 C1371 1.410 1_655 S
C1372 C1373 1.392 1_655 S
C1372 C1375 1.511 . S
C1373 C1369 1.376 . S
C1373 C1372 1.392 1_455 S
C1373 H1385 0.929 1_455 S
C1374 C1370 1.531 . S
C1374 H1386 0.960 . S
C1374 H1387 0.962 . S
C1374 H1388 0.960 . S
C1375 C1372 1.511 . S
C1375 H1389 0.961 . S
C1375 H1390 0.961 . S
C1375 H1391 0.961 . S
C1376 C1377 1.370 . S
C1376 C1378 1.363 1_655 S
C1376 H1392 0.931 . S
C1377 C1376 1.370 . S
C1377 C1381 1.408 . S
C1378 C1376 1.363 1_455 S
C1378 C1379 1.370 . S
C1378 C1382 1.524 . S
C1379 C1371 1.503 . S
C1379 C1378 1.370 . S
C1379 C1380 1.403 1_455 S
C1380 C1379 1.403 1_655 S
C1380 C1381 1.404 . S
C1380 C1383 1.539 . S
C1381 C1377 1.408 . S
C1381 C1380 1.404 . S
C1381 H1393 0.930 . S
C1382 C1378 1.524 . S
C1382 H1394 0.956 . S
C1382 H1395 0.961 1_455 S
C1382 H1396 0.961 . S
C1383 C1380 1.539 . S
C1383 H1397 0.958 1_655 S
C1383 H1398 0.961 . S
C1383 H1399 0.960 . S
H1384 C1368 0.931 . S
H1385 C1373 0.929 1_655 S
H1386 C1374 0.960 . S
H1387 C1374 0.962 . S
H1388 C1374 0.960 . S
H1389 C1375 0.961 . S
H1390 C1375 0.961 . S
H1391 C1375 0.961 . S
H1392 C1376 0.931 . S
H1393 C1381 0.930 . S
H1394 C1382 0.956 . S
H1395 C1382 0.961 1_655 S
H1396 C1382 0.961 . S
H1397 C1383 0.958 1_455 S
H1398 C1383 0.961 . S
H1399 C1383 0.960 . S
C1400 C1401 1.391 . S
C1400 C1402 1.394 . S
C1400 H1416 0.931 . S
C1401 C1400 1.391 . S
C1401 C1405 1.376 . S
C1402 C1400 1.394 . S
C1402 C1403 1.369 . S
C1402 C1406 1.531 . S
C1403 C1402 1.369 . S
C1403 C1404 1.410 . S
C1403 C1411 1.503 . S
C1404 C1403 1.410 . S
C1404 C1405 1.392 . S
C1404 C1407 1.511 . S
C1405 C1401 1.376 . S
C1405 C1404 1.392 . S
C1405 H1417 0.929 . S
C1406 C1402 1.531 . S
C1406 H1418 0.960 . S
C1406 H1419 0.962 . S
C1406 H1420 0.960 . S
C1407 C1404 1.511 . S
C1407 H1421 0.961 . S
C1407 H1422 0.961 . S
C1407 H1423 0.961 . S
C1408 C1409 1.370 . S
C1408 C1410 1.363 . S
C1408 H1424 0.931 . S
C1409 C1408 1.370 . S
C1409 C1413 1.408 . S
C1410 C1408 1.363 . S
C1410 C1411 1.370 . S
C1410 C1414 1.524 . S
C1411 C1403 1.503 . S
C1411 C1410 1.370 . S
C1411 C1412 1.403 . S
C1412 C1411 1.403 . S
C1412 C1413 1.404 . S
C1412 C1415 1.539 . S
C1413 C1409 1.408 . S
C1413 C1412 1.404 . S
C1413 H1425 0.930 . S
C1414 C1410 1.524 . S
C1414 H1426 0.956 . S
C1414 H1427 0.961 . S
C1414 H1428 0.961 . S
C1415 C1412 1.539 . S
C1415 H1429 0.958 . S
C1415 H1430 0.961 . S
C1415 H1431 0.960 . S
H1416 C1400 0.931 . S
H1417 C1405 0.929 . S
H1418 C1406 0.960 . S
H1419 C1406 0.962 . S
H1420 C1406 0.960 . S
H1421 C1407 0.961 . S
H1422 C1407 0.961 . S
H1423 C1407 0.961 . S
H1424 C1408 0.931 . S
H1425 C1413 0.930 . S
H1426 C1414 0.956 . S
H1427 C1414 0.961 . S
H1428 C1414 0.961 . S
H1429 C1415 0.958 . S
H1430 C1415 0.961 . S
H1431 C1415 0.960 . S
C1432 C1433 1.391 . S
C1432 C1434 1.394 . S
C1432 H1448 0.931 . S
C1433 C1432 1.391 . S
C1433 C1437 1.376 . S
C1434 C1432 1.394 . S
C1434 C1435 1.369 . S
C1434 C1438 1.531 . S
C1435 C1434 1.369 . S
C1435 C1436 1.410 . S
C1435 C1443 1.503 . S
C1436 C1435 1.410 . S
C1436 C1437 1.392 . S
C1436 C1439 1.511 . S
C1437 C1433 1.376 . S
C1437 C1436 1.392 . S
C1437 H1449 0.929 . S
C1438 C1434 1.531 . S
C1438 H1450 0.960 . S
C1438 H1451 0.962 . S
C1438 H1452 0.960 . S
C1439 C1436 1.511 . S
C1439 H1453 0.961 . S
C1439 H1454 0.961 . S
C1439 H1455 0.961 . S
C1440 C1441 1.370 . S
C1440 C1442 1.363 . S
C1440 H1456 0.931 . S
C1441 C1440 1.370 . S
C1441 C1445 1.408 . S
C1442 C1440 1.363 . S
C1442 C1443 1.370 . S
C1442 C1446 1.524 . S
C1443 C1435 1.503 . S
C1443 C1442 1.370 . S
C1443 C1444 1.403 . S
C1444 C1443 1.403 . S
C1444 C1445 1.404 . S
C1444 C1447 1.539 . S
C1445 C1441 1.408 . S
C1445 C1444 1.404 . S
C1445 H1457 0.930 . S
C1446 C1442 1.524 . S
C1446 H1458 0.956 . S
C1446 H1459 0.961 . S
C1446 H1460 0.961 . S
C1447 C1444 1.539 . S
C1447 H1461 0.958 . S
C1447 H1462 0.961 . S
C1447 H1463 0.960 . S
H1448 C1432 0.931 . S
H1449 C1437 0.929 . S
H1450 C1438 0.960 . S
H1451 C1438 0.962 . S
H1452 C1438 0.960 . S
H1453 C1439 0.961 . S
H1454 C1439 0.961 . S
H1455 C1439 0.961 . S
H1456 C1440 0.931 . S
H1457 C1445 0.930 . S
H1458 C1446 0.956 . S
H1459 C1446 0.961 . S
H1460 C1446 0.961 . S
H1461 C1447 0.958 . S
H1462 C1447 0.961 . S
H1463 C1447 0.960 . S
C1464 C1465 1.391 . S
C1464 C1466 1.394 . S
C1464 H1480 0.931 . S
C1465 C1464 1.391 . S
C1465 C1469 1.376 . S
C1466 C1464 1.394 . S
C1466 C1467 1.369 . S
C1466 C1470 1.531 . S
C1467 C1466 1.369 . S
C1467 C1468 1.410 . S
C1467 C1475 1.503 . S
C1468 C1467 1.410 . S
C1468 C1469 1.392 . S
C1468 C1471 1.511 . S
C1469 C1465 1.376 . S
C1469 C1468 1.392 . S
C1469 H1481 0.929 . S
C1470 C1466 1.531 . S
C1470 H1482 0.960 . S
C1470 H1483 0.962 . S
C1470 H1484 0.960 . S
C1471 C1468 1.511 . S
C1471 H1485 0.961 . S
C1471 H1486 0.961 . S
C1471 H1487 0.961 . S
C1472 C1473 1.370 . S
C1472 C1474 1.363 . S
C1472 H1488 0.931 . S
C1473 C1472 1.370 . S
C1473 C1477 1.408 . S
C1474 C1472 1.363 . S
C1474 C1475 1.370 . S
C1474 C1478 1.524 . S
C1475 C1467 1.503 . S
C1475 C1474 1.370 . S
C1475 C1476 1.403 . S
C1476 C1475 1.403 . S
C1476 C1477 1.404 . S
C1476 C1479 1.539 . S
C1477 C1473 1.408 . S
C1477 C1476 1.404 . S
C1477 H1489 0.930 . S
C1478 C1474 1.524 . S
C1478 H1490 0.956 . S
C1478 H1491 0.961 . S
C1478 H1492 0.961 . S
C1479 C1476 1.539 . S
C1479 H1493 0.958 . S
C1479 H1494 0.961 . S
C1479 H1495 0.960 . S
H1480 C1464 0.931 . S
H1481 C1469 0.929 . S
H1482 C1470 0.960 . S
H1483 C1470 0.962 . S
H1484 C1470 0.960 . S
H1485 C1471 0.961 . S
H1486 C1471 0.961 . S
H1487 C1471 0.961 . S
H1488 C1472 0.931 . S
H1489 C1477 0.930 . S
H1490 C1478 0.956 . S
H1491 C1478 0.961 . S
H1492 C1478 0.961 . S
H1493 C1479 0.958 . S
H1494 C1479 0.961 . S
H1495 C1479 0.960 . S
C1496 C1497 1.389 1_545 S
C1496 C1498 1.395 . S
C1496 H1512 0.931 . S
C1497 C1496 1.389 1_565 S
C1497 C1501 1.376 . S
C1498 C1496 1.395 . S
C1498 C1499 1.369 . S
C1498 C1502 1.531 . S
C1499 C1498 1.369 . S
C1499 C1500 1.410 1_545 S
C1499 C1507 1.503 . S
C1500 C1499 1.410 1_565 S
C1500 C1501 1.392 . S
C1500 C1503 1.511 . S
C1501 C1497 1.376 . S
C1501 C1500 1.392 . S
C1501 H1513 0.929 . S
C1502 C1498 1.531 . S
C1502 H1514 0.960 . S
C1502 H1515 0.962 . S
C1502 H1516 0.960 . S
C1503 C1500 1.511 . S
C1503 H1517 0.961 . S
C1503 H1518 0.961 . S
C1503 H1519 0.961 1_565 S
C1504 C1505 1.370 . S
C1504 C1506 1.354 1_545 S
C1504 H1520 0.931 1_545 S
C1505 C1504 1.370 . S
C1505 C1509 1.408 . S
C1506 C1504 1.354 1_565 S
C1506 C1507 1.347 1_565 S
C1506 C1510 1.558 . S
C1507 C1499 1.503 . S
C1507 C1506 1.347 1_545 S
C1507 C1508 1.403 . S
C1508 C1507 1.403 . S
C1508 C1509 1.404 . S
C1508 C1511 1.539 . S
C1509 C1505 1.408 . S
C1509 C1508 1.404 . S
C1509 H1521 0.930 . S
C1510 C1506 1.558 . S
C1510 H1522 0.956 . S
C1510 H1523 0.961 . S
C1510 H1524 0.961 . S
C1511 C1508 1.539 . S
C1511 H1525 0.958 . S
C1511 H1526 0.961 . S
C1511 H1527 0.960 . S
H1512 C1496 0.931 . S
H1513 C1501 0.929 . S
H1514 C1502 0.960 . S
H1515 C1502 0.962 . S
H1516 C1502 0.960 . S
H1517 C1503 0.961 . S
H1518 C1503 0.961 . S
H1519 C1503 0.961 1_545 S
H1520 C1504 0.931 1_565 S
H1521 C1509 0.930 . S
H1522 C1510 0.956 . S
H1523 C1510 0.961 . S
H1524 C1510 0.961 . S
H1525 C1511 0.958 . S
H1526 C1511 0.961 . S
H1527 C1511 0.960 . S
C1528 C1529 1.391 . S
C1528 C1530 1.394 . S
C1528 H1544 0.931 . S
C1529 C1528 1.391 . S
C1529 C1533 1.376 . S
C1530 C1528 1.394 . S
C1530 C1531 1.369 . S
C1530 C1534 1.531 . S
C1531 C1530 1.369 . S
C1531 C1532 1.410 . S
C1531 C1539 1.503 . S
C1532 C1531 1.410 . S
C1532 C1533 1.392 . S
C1532 C1535 1.511 . S
C1533 C1529 1.376 . S
C1533 C1532 1.392 . S
C1533 H1545 0.929 . S
C1534 C1530 1.531 . S
C1534 H1546 0.960 . S
C1534 H1547 0.962 . S
C1534 H1548 0.960 . S
C1535 C1532 1.511 . S
C1535 H1549 0.961 . S
C1535 H1550 0.961 . S
C1535 H1551 0.961 . S
C1536 C1537 1.370 . S
C1536 C1538 1.363 . S
C1536 H1552 0.931 . S
C1537 C1536 1.370 . S
C1537 C1541 1.408 . S
C1538 C1536 1.363 . S
C1538 C1539 1.370 . S
C1538 C1542 1.524 . S
C1539 C1531 1.503 . S
C1539 C1538 1.370 . S
C1539 C1540 1.403 . S
C1540 C1539 1.403 . S
C1540 C1541 1.404 . S
C1540 C1543 1.539 . S
C1541 C1537 1.408 . S
C1541 C1540 1.404 . S
C1541 H1553 0.930 . S
C1542 C1538 1.524 . S
C1542 H1554 0.956 . S
C1542 H1555 0.961 . S
C1542 H1556 0.961 . S
C1543 C1540 1.539 . S
C1543 H1557 0.958 . S
C1543 H1558 0.961 . S
C1543 H1559 0.960 . S
H1544 C1528 0.931 . S
H1545 C1533 0.929 . S
H1546 C1534 0.960 . S
H1547 C1534 0.962 . S
H1548 C1534 0.960 . S
H1549 C1535 0.961 . S
H1550 C1535 0.961 . S
H1551 C1535 0.961 . S
H1552 C1536 0.931 . S
H1553 C1541 0.930 . S
H1554 C1542 0.956 . S
H1555 C1542 0.961 . S
H1556 C1542 0.961 . S
H1557 C1543 0.958 . S
H1558 C1543 0.961 . S
H1559 C1543 0.960 . S
C1560 C1561 1.391 . S
C1560 C1562 1.394 . S
C1560 H1576 0.931 1_556 S
C1561 C1560 1.391 . S
C1561 C1565 1.376 . S
C1562 C1560 1.394 . S
C1562 C1563 1.369 . S
C1562 C1566 1.531 . S
C1563 C1562 1.369 . S
C1563 C1564 1.410 . S
C1563 C1571 1.503 . S
C1564 C1563 1.410 . S
C1564 C1565 1.392 . S
C1564 C1567 1.511 . S
C1565 C1561 1.376 . S
C1565 C1564 1.392 . S
C1565 H1577 0.929 . S
C1566 C1562 1.531 . S
C1566 H1578 0.960 . S
C1566 H1579 0.962 . S
C1566 H1580 0.960 . S
C1567 C1564 1.511 . S
C1567 H1581 0.961 . S
C1567 H1582 0.961 . S
C1567 H1583 0.961 . S
C1568 C1569 1.370 . S
C1568 C1570 1.363 . S
C1568 H1584 0.931 . S
C1569 C1568 1.370 . S
C1569 C1573 1.408 . S
C1570 C1568 1.363 . S
C1570 C1571 1.370 . S
C1570 C1574 1.524 . S
C1571 C1563 1.503 . S
C1571 C1570 1.370 . S
C1571 C1572 1.403 . S
C1572 C1571 1.403 . S
C1572 C1573 1.404 . S
C1572 C1575 1.539 . S
C1573 C1569 1.408 . S
C1573 C1572 1.404 . S
C1573 H1585 0.930 . S
C1574 C1570 1.524 . S
C1574 H1586 0.956 . S
C1574 H1587 0.961 . S
C1574 H1588 0.961 . S
C1575 C1572 1.539 . S
C1575 H1589 0.958 . S
C1575 H1590 0.961 . S
C1575 H1591 0.960 . S
H1576 C1560 0.931 1_554 S
H1577 C1565 0.929 . S
H1578 C1566 0.960 . S
H1579 C1566 0.962 . S
H1580 C1566 0.960 . S
H1581 C1567 0.961 . S
H1582 C1567 0.961 . S
H1583 C1567 0.961 . S
H1584 C1568 0.931 . S
H1585 C1573 0.930 . S
H1586 C1574 0.956 . S
H1587 C1574 0.961 . S
H1588 C1574 0.961 . S
H1589 C1575 0.958 . S
H1590 C1575 0.961 . S
H1591 C1575 0.960 . S
C1592 C1593 1.391 . S
C1592 C1594 1.394 . S
C1592 H1608 0.931 . S
C1593 C1592 1.391 . S
C1593 C1597 1.376 . S
C1594 C1592 1.394 . S
C1594 C1595 1.369 . S
C1594 C1598 1.531 . S
C1595 C1594 1.369 . S
C1595 C1596 1.410 . S
C1595 C1603 1.503 . S
C1596 C1595 1.410 . S
C1596 C1597 1.392 . S
C1596 C1599 1.511 . S
C1597 C1593 1.376 . S
C1597 C1596 1.392 . S
C1597 H1609 0.929 . S
C1598 C1594 1.531 . S
C1598 H1610 0.960 . S
C1598 H1611 0.962 . S
C1598 H1612 0.960 . S
C1599 C1596 1.511 . S
C1599 H1613 0.961 . S
C1599 H1614 0.961 . S
C1599 H1615 0.961 . S
C1600 C1601 1.370 . S
C1600 C1602 1.363 . S
C1600 H1616 0.931 . S
C1601 C1600 1.370 . S
C1601 C1605 1.408 . S
C1602 C1600 1.363 . S
C1602 C1603 1.370 . S
C1602 C1606 1.524 . S
C1603 C1595 1.503 . S
C1603 C1602 1.370 . S
C1603 C1604 1.403 . S
C1604 C1603 1.403 . S
C1604 C1605 1.404 . S
C1604 C1607 1.539 . S
C1605 C1601 1.408 . S
C1605 C1604 1.404 . S
C1605 H1617 0.930 . S
C1606 C1602 1.524 . S
C1606 H1618 0.956 . S
C1606 H1619 0.961 . S
C1606 H1620 0.961 . S
C1607 C1604 1.539 . S
C1607 H1621 0.958 . S
C1607 H1622 0.961 . S
C1607 H1623 0.960 . S
H1608 C1592 0.931 . S
H1609 C1597 0.929 . S
H1610 C1598 0.960 . S
H1611 C1598 0.962 . S
H1612 C1598 0.960 . S
H1613 C1599 0.961 . S
H1614 C1599 0.961 . S
H1615 C1599 0.961 . S
H1616 C1600 0.931 . S
H1617 C1605 0.930 . S
H1618 C1606 0.956 . S
H1619 C1606 0.961 . S
H1620 C1606 0.961 . S
H1621 C1607 0.958 . S
H1622 C1607 0.961 . S
H1623 C1607 0.960 . S
C1624 C1625 1.391 . S
C1624 C1626 1.394 . S
C1624 H1640 0.931 . S
C1625 C1624 1.391 . S
C1625 C1629 1.376 . S
C1626 C1624 1.394 . S
C1626 C1627 1.369 . S
C1626 C1630 1.531 . S
C1627 C1626 1.369 . S
C1627 C1628 1.410 . S
C1627 C1635 1.503 . S
C1628 C1627 1.410 . S
C1628 C1629 1.392 . S
C1628 C1631 1.511 . S
C1629 C1625 1.376 . S
C1629 C1628 1.392 . S
C1629 H1641 0.929 . S
C1630 C1626 1.531 . S
C1630 H1642 0.960 . S
C1630 H1643 0.962 . S
C1630 H1644 0.960 . S
C1631 C1628 1.511 . S
C1631 H1645 0.961 . S
C1631 H1646 0.961 . S
C1631 H1647 0.961 . S
C1632 C1633 1.370 . S
C1632 C1634 1.363 . S
C1632 H1648 0.931 . S
C1633 C1632 1.370 . S
C1633 C1637 1.408 . S
C1634 C1632 1.363 . S
C1634 C1635 1.370 . S
C1634 C1638 1.524 . S
C1635 C1627 1.503 . S
C1635 C1634 1.370 . S
C1635 C1636 1.403 . S
C1636 C1635 1.403 . S
C1636 C1637 1.404 . S
C1636 C1639 1.539 . S
C1637 C1633 1.408 . S
C1637 C1636 1.404 . S
C1637 H1649 0.930 . S
C1638 C1634 1.524 . S
C1638 H1650 0.956 . S
C1638 H1651 0.961 . S
C1638 H1652 0.961 . S
C1639 C1636 1.539 . S
C1639 H1653 0.958 . S
C1639 H1654 0.961 . S
C1639 H1655 0.960 . S
H1640 C1624 0.931 . S
H1641 C1629 0.929 . S
H1642 C1630 0.960 . S
H1643 C1630 0.962 . S
H1644 C1630 0.960 . S
H1645 C1631 0.961 . S
H1646 C1631 0.961 . S
H1647 C1631 0.961 . S
H1648 C1632 0.931 . S
H1649 C1637 0.930 . S
H1650 C1638 0.956 . S
H1651 C1638 0.961 . S
H1652 C1638 0.961 . S
H1653 C1639 0.958 . S
H1654 C1639 0.961 . S
H1655 C1639 0.960 . S
C1656 C1657 1.391 . S
C1656 C1658 1.394 . S
C1656 H1672 0.931 . S
C1657 C1656 1.391 . S
C1657 C1661 1.376 . S
C1658 C1656 1.394 . S
C1658 C1659 1.369 . S
C1658 C1662 1.531 . S
C1659 C1658 1.369 . S
C1659 C1660 1.410 . S
C1659 C1667 1.503 . S
C1660 C1659 1.410 . S
C1660 C1661 1.392 . S
C1660 C1663 1.511 . S
C1661 C1657 1.376 . S
C1661 C1660 1.392 . S
C1661 H1673 0.929 . S
C1662 C1658 1.531 . S
C1662 H1674 0.960 . S
C1662 H1675 0.962 . S
C1662 H1676 0.960 . S
C1663 C1660 1.511 . S
C1663 H1677 0.961 . S
C1663 H1678 0.961 . S
C1663 H1679 0.961 . S
C1664 C1665 1.370 . S
C1664 C1666 1.363 . S
C1664 H1680 0.931 . S
C1665 C1664 1.370 . S
C1665 C1669 1.408 . S
C1666 C1664 1.363 . S
C1666 C1667 1.370 . S
C1666 C1670 1.524 . S
C1667 C1659 1.503 . S
C1667 C1666 1.370 . S
C1667 C1668 1.403 . S
C1668 C1667 1.403 . S
C1668 C1669 1.404 . S
C1668 C1671 1.539 . S
C1669 C1665 1.408 . S
C1669 C1668 1.404 . S
C1669 H1681 0.930 . S
C1670 C1666 1.524 . S
C1670 H1682 0.956 . S
C1670 H1683 0.961 . S
C1670 H1684 0.961 . S
C1671 C1668 1.539 . S
C1671 H1685 0.958 . S
C1671 H1686 0.961 . S
C1671 H1687 0.960 . S
H1672 C1656 0.931 . S
H1673 C1661 0.929 . S
H1674 C1662 0.960 . S
H1675 C1662 0.962 . S
H1676 C1662 0.960 . S
H1677 C1663 0.961 . S
H1678 C1663 0.961 . S
H1679 C1663 0.961 . S
H1680 C1664 0.931 . S
H1681 C1669 0.930 . S
H1682 C1670 0.956 . S
H1683 C1670 0.961 . S
H1684 C1670 0.961 . S
H1685 C1671 0.958 . S
H1686 C1671 0.961 . S
H1687 C1671 0.960 . S
C1688 C1689 1.391 . S
C1688 C1690 1.394 . S
C1688 H1704 0.931 . S
C1689 C1688 1.391 . S
C1689 C1693 1.376 . S
C1690 C1688 1.394 . S
C1690 C1691 1.369 . S
C1690 C1694 1.531 . S
C1691 C1690 1.369 . S
C1691 C1692 1.410 . S
C1691 C1699 1.503 . S
C1692 C1691 1.410 . S
C1692 C1693 1.392 . S
C1692 C1695 1.511 . S
C1693 C1689 1.376 . S
C1693 C1692 1.392 . S
C1693 H1705 0.929 . S
C1694 C1690 1.531 . S
C1694 H1706 0.960 . S
C1694 H1707 0.962 . S
C1694 H1708 0.960 . S
C1695 C1692 1.511 . S
C1695 H1709 0.961 . S
C1695 H1710 0.961 . S
C1695 H1711 0.961 . S
C1696 C1697 1.370 . S
C1696 C1698 1.363 . S
C1696 H1712 0.931 . S
C1697 C1696 1.370 . S
C1697 C1701 1.408 . S
C1698 C1696 1.363 . S
C1698 C1699 1.370 . S
C1698 C1702 1.524 . S
C1699 C1691 1.503 . S
C1699 C1698 1.370 . S
C1699 C1700 1.403 . S
C1700 C1699 1.403 . S
C1700 C1701 1.404 . S
C1700 C1703 1.539 . S
C1701 C1697 1.408 . S
C1701 C1700 1.404 . S
C1701 H1713 0.930 . S
C1702 C1698 1.524 . S
C1702 H1714 0.956 . S
C1702 H1715 0.961 . S
C1702 H1716 0.961 . S
C1703 C1700 1.539 . S
C1703 H1717 0.958 . S
C1703 H1718 0.961 . S
C1703 H1719 0.960 . S
H1704 C1688 0.931 . S
H1705 C1693 0.929 . S
H1706 C1694 0.960 . S
H1707 C1694 0.962 . S
H1708 C1694 0.960 . S
H1709 C1695 0.961 . S
H1710 C1695 0.961 . S
H1711 C1695 0.961 . S
H1712 C1696 0.931 . S
H1713 C1701 0.930 . S
H1714 C1702 0.956 . S
H1715 C1702 0.961 . S
H1716 C1702 0.961 . S
H1717 C1703 0.958 . S
H1718 C1703 0.961 . S
H1719 C1703 0.960 . S
C1720 C1721 1.391 . S
C1720 C1722 1.394 . S
C1720 H1736 0.931 . S
C1721 C1720 1.391 . S
C1721 C1725 1.376 . S
C1722 C1720 1.394 . S
C1722 C1723 1.369 . S
C1722 C1726 1.531 . S
C1723 C1722 1.369 . S
C1723 C1724 1.410 . S
C1723 C1731 1.503 . S
C1724 C1723 1.410 . S
C1724 C1725 1.392 . S
C1724 C1727 1.511 . S
C1725 C1721 1.376 . S
C1725 C1724 1.392 . S
C1725 H1737 0.929 1_565 S
C1726 C1722 1.531 . S
C1726 H1738 0.960 . S
C1726 H1739 0.962 . S
C1726 H1740 0.960 . S
C1727 C1724 1.511 . S
C1727 H1741 0.950 1_565 S
C1727 H1742 0.961 . S
C1727 H1743 0.961 . S
C1728 C1729 1.370 . S
C1728 C1730 1.363 . S
C1728 H1744 0.931 . S
C1729 C1728 1.370 . S
C1729 C1733 1.408 1_556 S
C1730 C1728 1.363 . S
C1730 C1731 1.370 1_556 S
C1730 C1734 1.524 . S
C1731 C1723 1.503 . S
C1731 C1730 1.370 1_554 S
C1731 C1732 1.403 . S
C1732 C1731 1.403 . S
C1732 C1733 1.404 . S
C1732 C1735 1.539 . S
C1733 C1729 1.408 1_554 S
C1733 C1732 1.404 . S
C1733 H1745 0.930 . S
C1734 C1730 1.524 . S
C1734 H1746 0.956 . S
C1734 H1747 0.961 . S
C1734 H1748 0.961 . S
C1735 C1732 1.539 . S
C1735 H1749 0.958 . S
C1735 H1750 0.961 . S
C1735 H1751 0.960 . S
H1736 C1720 0.931 . S
H1737 C1725 0.929 1_545 S
H1738 C1726 0.960 . S
H1739 C1726 0.962 . S
H1740 C1726 0.960 . S
H1741 C1727 0.950 1_545 S
H1742 C1727 0.961 . S
H1743 C1727 0.961 . S
H1744 C1728 0.931 . S
H1745 C1733 0.930 . S
H1746 C1734 0.956 . S
H1747 C1734 0.961 . S
H1748 C1734 0.961 . S
H1749 C1735 0.958 . S
H1750 C1735 0.961 . S
H1751 C1735 0.960 . S
C1752 C1753 1.391 . S
C1752 C1754 1.394 . S
C1752 H1768 0.931 . S
C1753 C1752 1.391 . S
C1753 C1757 1.376 . S
C1754 C1752 1.394 . S
C1754 C1755 1.369 . S
C1754 C1758 1.531 . S
C1755 C1754 1.369 . S
C1755 C1756 1.410 . S
C1755 C1763 1.503 . S
C1756 C1755 1.410 . S
C1756 C1757 1.392 . S
C1756 C1759 1.511 . S
C1757 C1753 1.376 . S
C1757 C1756 1.392 . S
C1757 H1769 0.929 . S
C1758 C1754 1.531 . S
C1758 H1770 0.960 . S
C1758 H1771 0.962 . S
C1758 H1772 0.960 . S
C1759 C1756 1.511 . S
C1759 H1773 0.961 . S
C1759 H1774 0.961 . S
C1759 H1775 0.961 . S
C1760 C1761 1.370 . S
C1760 C1762 1.363 . S
C1760 H1776 0.931 . S
C1761 C1760 1.370 . S
C1761 C1765 1.408 . S
C1762 C1760 1.363 . S
C1762 C1763 1.370 . S
C1762 C1766 1.524 . S
C1763 C1755 1.503 . S
C1763 C1762 1.370 . S
C1763 C1764 1.403 . S
C1764 C1763 1.403 . S
C1764 C1765 1.404 . S
C1764 C1767 1.539 . S
C1765 C1761 1.408 . S
C1765 C1764 1.404 . S
C1765 H1777 0.930 . S
C1766 C1762 1.524 . S
C1766 H1778 0.956 . S
C1766 H1779 0.961 . S
C1766 H1780 0.961 . S
C1767 C1764 1.539 . S
C1767 H1781 0.958 . S
C1767 H1782 0.961 . S
C1767 H1783 0.960 . S
H1768 C1752 0.931 . S
H1769 C1757 0.929 . S
H1770 C1758 0.960 . S
H1771 C1758 0.962 . S
H1772 C1758 0.960 . S
H1773 C1759 0.961 . S
H1774 C1759 0.961 . S
H1775 C1759 0.961 . S
H1776 C1760 0.931 . S
H1777 C1765 0.930 . S
H1778 C1766 0.956 . S
H1779 C1766 0.961 . S
H1780 C1766 0.961 . S
H1781 C1767 0.958 . S
H1782 C1767 0.961 . S
H1783 C1767 0.960 . S
C1784 C1785 1.391 . S
C1784 C1786 1.394 . S
C1784 H1800 0.931 . S
C1785 C1784 1.391 . S
C1785 C1789 1.376 . S
C1786 C1784 1.394 . S
C1786 C1787 1.369 . S
C1786 C1790 1.531 . S
C1787 C1786 1.369 . S
C1787 C1788 1.410 . S
C1787 C1795 1.503 . S
C1788 C1787 1.410 . S
C1788 C1789 1.392 . S
C1788 C1791 1.511 . S
C1789 C1785 1.376 . S
C1789 C1788 1.392 . S
C1789 H1801 0.929 1_655 S
C1790 C1786 1.531 . S
C1790 H1802 0.960 . S
C1790 H1803 0.962 . S
C1790 H1804 0.960 . S
C1791 C1788 1.511 . S
C1791 H1805 0.961 . S
C1791 H1806 0.961 . S
C1791 H1807 0.961 . S
C1792 C1793 1.370 . S
C1792 C1794 1.363 . S
C1792 H1808 0.931 . S
C1793 C1792 1.370 . S
C1793 C1797 1.408 . S
C1794 C1792 1.363 . S
C1794 C1795 1.370 . S
C1794 C1798 1.524 . S
C1795 C1787 1.503 . S
C1795 C1794 1.370 . S
C1795 C1796 1.403 . S
C1796 C1795 1.403 . S
C1796 C1797 1.404 . S
C1796 C1799 1.539 . S
C1797 C1793 1.408 . S
C1797 C1796 1.404 . S
C1797 H1809 0.930 . S
C1798 C1794 1.524 . S
C1798 H1810 0.956 . S
C1798 H1811 0.961 . S
C1798 H1812 0.961 . S
C1799 C1796 1.539 . S
C1799 H1813 0.958 . S
C1799 H1814 0.961 . S
C1799 H1815 0.960 . S
H1800 C1784 0.931 . S
H1801 C1789 0.929 1_455 S
H1802 C1790 0.960 . S
H1803 C1790 0.962 . S
H1804 C1790 0.960 . S
H1805 C1791 0.961 . S
H1806 C1791 0.961 . S
H1807 C1791 0.961 . S
H1808 C1792 0.931 . S
H1809 C1797 0.930 . S
H1810 C1798 0.956 . S
H1811 C1798 0.961 . S
H1812 C1798 0.961 . S
H1813 C1799 0.958 . S
H1814 C1799 0.961 . S
H1815 C1799 0.960 . S
C1816 C1817 1.391 . S
C1816 C1818 1.394 . S
C1816 H1832 0.931 . S
C1817 C1816 1.391 . S
C1817 C1821 1.376 . S
C1818 C1816 1.394 . S
C1818 C1819 1.369 . S
C1818 C1822 1.531 . S
C1819 C1818 1.369 . S
C1819 C1820 1.410 . S
C1819 C1827 1.503 . S
C1820 C1819 1.410 . S
C1820 C1821 1.392 . S
C1820 C1823 1.511 . S
C1821 C1817 1.376 . S
C1821 C1820 1.392 . S
C1821 H1833 0.929 . S
C1822 C1818 1.531 . S
C1822 H1834 0.960 . S
C1822 H1835 0.962 . S
C1822 H1836 0.960 . S
C1823 C1820 1.511 . S
C1823 H1837 0.961 . S
C1823 H1838 0.961 . S
C1823 H1839 0.961 . S
C1824 C1825 1.370 . S
C1824 C1826 1.363 . S
C1824 H1840 0.931 . S
C1825 C1824 1.370 . S
C1825 C1829 1.408 . S
C1826 C1824 1.363 . S
C1826 C1827 1.370 . S
C1826 C1830 1.524 . S
C1827 C1819 1.503 . S
C1827 C1826 1.370 . S
C1827 C1828 1.403 . S
C1828 C1827 1.403 . S
C1828 C1829 1.404 . S
C1828 C1831 1.539 . S
C1829 C1825 1.408 . S
C1829 C1828 1.404 . S
C1829 H1841 0.930 . S
C1830 C1826 1.524 . S
C1830 H1842 0.956 . S
C1830 H1843 0.961 . S
C1830 H1844 0.961 . S
C1831 C1828 1.539 . S
C1831 H1845 0.958 . S
C1831 H1846 0.961 . S
C1831 H1847 0.960 . S
H1832 C1816 0.931 . S
H1833 C1821 0.929 . S
H1834 C1822 0.960 . S
H1835 C1822 0.962 . S
H1836 C1822 0.960 . S
H1837 C1823 0.961 . S
H1838 C1823 0.961 . S
H1839 C1823 0.961 . S
H1840 C1824 0.931 . S
H1841 C1829 0.930 . S
H1842 C1830 0.956 . S
H1843 C1830 0.961 . S
H1844 C1830 0.961 . S
H1845 C1831 0.958 . S
H1846 C1831 0.961 . S
H1847 C1831 0.960 . S
C1848 C1849 1.391 . S
C1848 C1850 1.394 . S
C1848 H1864 0.931 . S
C1849 C1848 1.391 . S
C1849 C1853 1.376 . S
C1850 C1848 1.394 . S
C1850 C1851 1.369 . S
C1850 C1854 1.531 . S
C1851 C1850 1.369 . S
C1851 C1852 1.410 . S
C1851 C1859 1.503 . S
C1852 C1851 1.410 . S
C1852 C1853 1.392 . S
C1852 C1855 1.511 . S
C1853 C1849 1.376 . S
C1853 C1852 1.392 . S
C1853 H1865 0.929 . S
C1854 C1850 1.531 . S
C1854 H1866 0.960 . S
C1854 H1867 0.962 . S
C1854 H1868 0.960 . S
C1855 C1852 1.511 . S
C1855 H1869 0.961 . S
C1855 H1870 0.961 . S
C1855 H1871 0.961 . S
C1856 C1857 1.370 . S
C1856 C1858 1.363 . S
C1856 H1872 0.931 . S
C1857 C1856 1.370 . S
C1857 C1861 1.408 . S
C1858 C1856 1.363 . S
C1858 C1859 1.370 . S
C1858 C1862 1.524 . S
C1859 C1851 1.503 . S
C1859 C1858 1.370 . S
C1859 C1860 1.403 . S
C1860 C1859 1.403 . S
C1860 C1861 1.404 . S
C1860 C1863 1.539 . S
C1861 C1857 1.408 . S
C1861 C1860 1.404 . S
C1861 H1873 0.930 . S
C1862 C1858 1.524 . S
C1862 H1874 0.956 . S
C1862 H1875 0.961 . S
C1862 H1876 0.961 . S
C1863 C1860 1.539 . S
C1863 H1877 0.958 . S
C1863 H1878 0.961 . S
C1863 H1879 0.960 . S
H1864 C1848 0.931 . S
H1865 C1853 0.929 . S
H1866 C1854 0.960 . S
H1867 C1854 0.962 . S
H1868 C1854 0.960 . S
H1869 C1855 0.961 . S
H1870 C1855 0.961 . S
H1871 C1855 0.961 . S
H1872 C1856 0.931 . S
H1873 C1861 0.930 . S
H1874 C1862 0.956 . S
H1875 C1862 0.961 . S
H1876 C1862 0.961 . S
H1877 C1863 0.958 . S
H1878 C1863 0.961 . S
H1879 C1863 0.960 . S
C1880 C1881 1.391 . S
C1880 C1882 1.394 . S
C1880 H1896 0.931 . S
C1881 C1880 1.391 . S
C1881 C1885 1.376 . S
C1882 C1880 1.394 . S
C1882 C1883 1.369 . S
C1882 C1886 1.531 . S
C1883 C1882 1.369 . S
C1883 C1884 1.410 . S
C1883 C1891 1.503 . S
C1884 C1883 1.410 . S
C1884 C1885 1.392 . S
C1884 C1887 1.511 . S
C1885 C1881 1.376 . S
C1885 C1884 1.392 . S
C1885 H1897 0.929 . S
C1886 C1882 1.531 . S
C1886 H1898 0.960 . S
C1886 H1899 0.962 . S
C1886 H1900 0.960 . S
C1887 C1884 1.511 . S
C1887 H1901 0.961 . S
C1887 H1902 0.961 . S
C1887 H1903 0.961 . S
C1888 C1889 1.370 . S
C1888 C1890 1.363 . S
C1888 H1904 0.931 . S
C1889 C1888 1.370 . S
C1889 C1893 1.408 . S
C1890 C1888 1.363 . S
C1890 C1891 1.370 . S
C1890 C1894 1.524 . S
C1891 C1883 1.503 . S
C1891 C1890 1.370 . S
C1891 C1892 1.403 . S
C1892 C1891 1.403 . S
C1892 C1893 1.404 . S
C1892 C1895 1.539 . S
C1893 C1889 1.408 . S
C1893 C1892 1.404 . S
C1893 H1905 0.930 . S
C1894 C1890 1.524 . S
C1894 H1906 0.956 . S
C1894 H1907 0.961 . S
C1894 H1908 0.961 . S
C1895 C1892 1.539 . S
C1895 H1909 0.958 . S
C1895 H1910 0.961 . S
C1895 H1911 0.960 . S
H1896 C1880 0.931 . S
H1897 C1885 0.929 . S
H1898 C1886 0.960 . S
H1899 C1886 0.962 . S
H1900 C1886 0.960 . S
H1901 C1887 0.961 . S
H1902 C1887 0.961 . S
H1903 C1887 0.961 . S
H1904 C1888 0.931 . S
H1905 C1893 0.930 . S
H1906 C1894 0.956 . S
H1907 C1894 0.961 . S
H1908 C1894 0.961 . S
H1909 C1895 0.958 . S
H1910 C1895 0.961 . S
H1911 C1895 0.960 . S
C1912 C1913 1.391 . S
C1912 C1914 1.394 . S
C1912 H1928 0.931 . S
C1913 C1912 1.391 . S
C1913 C1917 1.376 . S
C1914 C1912 1.394 . S
C1914 C1915 1.369 . S
C1914 C1918 1.531 . S
C1915 C1914 1.369 . S
C1915 C1916 1.410 . S
C1915 C1923 1.503 . S
C1916 C1915 1.410 . S
C1916 C1917 1.392 . S
C1916 C1919 1.511 . S
C1917 C1913 1.376 . S
C1917 C1916 1.392 . S
C1917 H1929 0.929 . S
C1918 C1914 1.531 . S
C1918 H1930 0.960 . S
C1918 H1931 0.962 . S
C1918 H1932 0.960 . S
C1919 C1916 1.511 . S
C1919 H1933 0.961 . S
C1919 H1934 0.961 . S
C1919 H1935 0.961 . S
C1920 C1921 1.370 . S
C1920 C1922 1.363 . S
C1920 H1936 0.931 . S
C1921 C1920 1.370 . S
C1921 C1925 1.408 . S
C1922 C1920 1.363 . S
C1922 C1923 1.370 . S
C1922 C1926 1.524 . S
C1923 C1915 1.503 . S
C1923 C1922 1.370 . S
C1923 C1924 1.403 . S
C1924 C1923 1.403 . S
C1924 C1925 1.404 . S
C1924 C1927 1.539 . S
C1925 C1921 1.408 . S
C1925 C1924 1.404 . S
C1925 H1937 0.930 . S
C1926 C1922 1.524 . S
C1926 H1938 0.956 . S
C1926 H1939 0.961 . S
C1926 H1940 0.961 . S
C1927 C1924 1.539 . S
C1927 H1941 0.958 . S
C1927 H1942 0.961 . S
C1927 H1943 0.960 . S
H1928 C1912 0.931 . S
H1929 C1917 0.929 . S
H1930 C1918 0.960 . S
H1931 C1918 0.962 . S
H1932 C1918 0.960 . S
H1933 C1919 0.961 . S
H1934 C1919 0.961 . S
H1935 C1919 0.961 . S
H1936 C1920 0.931 . S
H1937 C1925 0.930 . S
H1938 C1926 0.956 . S
H1939 C1926 0.961 . S
H1940 C1926 0.961 . S
H1941 C1927 0.958 . S
H1942 C1927 0.961 . S
H1943 C1927 0.960 . S
C1944 C1945 1.391 . S
C1944 C1946 1.394 . S
C1944 H1960 0.931 . S
C1945 C1944 1.391 . S
C1945 C1949 1.376 . S
C1946 C1944 1.394 . S
C1946 C1947 1.369 . S
C1946 C1950 1.531 . S
C1947 C1946 1.369 . S
C1947 C1948 1.410 . S
C1947 C1955 1.503 . S
C1948 C1947 1.410 . S
C1948 C1949 1.392 . S
C1948 C1951 1.511 . S
C1949 C1945 1.376 . S
C1949 C1948 1.392 . S
C1949 H1961 0.929 . S
C1950 C1946 1.531 . S
C1950 H1962 0.960 . S
C1950 H1963 0.924 1_455 S
C1950 H1964 0.960 . S
C1951 C1948 1.511 . S
C1951 H1965 0.961 . S
C1951 H1966 0.961 . S
C1951 H1967 0.961 . S
C1952 C1953 1.370 1_655 S
C1952 C1954 1.363 1_655 S
C1952 H1968 0.931 . S
C1953 C1952 1.370 1_455 S
C1953 C1957 1.408 . S
C1954 C1952 1.363 1_455 S
C1954 C1955 1.370 . S
C1954 C1958 1.524 1_455 S
C1955 C1947 1.503 . S
C1955 C1954 1.370 . S
C1955 C1956 1.403 . S
C1956 C1955 1.403 . S
C1956 C1957 1.404 . S
C1956 C1959 1.539 . S
C1957 C1953 1.408 . S
C1957 C1956 1.404 . S
C1957 H1969 0.930 . S
C1958 C1954 1.524 1_655 S
C1958 H1970 0.956 . S
C1958 H1971 0.961 . S
C1958 H1972 0.961 . S
C1959 C1956 1.539 . S
C1959 H1973 0.958 . S
C1959 H1974 0.961 . S
C1959 H1975 0.960 . S
H1960 C1944 0.931 . S
H1961 C1949 0.929 . S
H1962 C1950 0.960 . S
H1963 C1950 0.924 1_655 S
H1964 C1950 0.960 . S
H1965 C1951 0.961 . S
H1966 C1951 0.961 . S
H1967 C1951 0.961 . S
H1968 C1952 0.931 . S
H1969 C1957 0.930 . S
H1970 C1958 0.956 . S
H1971 C1958 0.961 . S
H1972 C1958 0.961 . S
H1973 C1959 0.958 . S
H1974 C1959 0.961 . S
H1975 C1959 0.960 . S
C1976 C1977 1.391 . S
C1976 C1978 1.394 . S
C1976 H1992 0.931 . S
C1977 C1976 1.391 . S
C1977 C1981 1.376 . S
C1978 C1976 1.394 . S
C1978 C1979 1.369 . S
C1978 C1982 1.531 . S
C1979 C1978 1.369 . S
C1979 C1980 1.410 . S
C1979 C1987 1.503 . S
C1980 C1979 1.410 . S
C1980 C1981 1.392 . S
C1980 C1983 1.511 . S
C1981 C1977 1.376 . S
C1981 C1980 1.392 . S
C1981 H1993 0.929 . S
C1982 C1978 1.531 . S
C1982 H1994 0.960 . S
C1982 H1995 0.962 . S
C1982 H1996 0.960 . S
C1983 C1980 1.511 . S
C1983 H1997 0.961 . S
C1983 H1998 0.961 . S
C1983 H1999 0.961 . S
C1984 C1985 1.370 1_556 S
C1984 C1986 1.361 1_556 S
C1984 H2000 0.931 . S
C1985 C1984 1.370 1_554 S
C1985 C1989 1.408 . S
C1986 C1984 1.361 1_554 S
C1986 C1987 1.378 . S
C1986 C1990 1.519 1_554 S
C1987 C1979 1.503 . S
C1987 C1986 1.378 . S
C1987 C1988 1.403 . S
C1988 C1987 1.403 . S
C1988 C1989 1.404 . S
C1988 C1991 1.539 . S
C1989 C1985 1.408 . S
C1989 C1988 1.404 . S
C1989 H2001 0.930 . S
C1990 C1986 1.519 1_556 S
C1990 H2002 0.956 . S
C1990 H2003 0.961 . S
C1990 H2004 0.961 . S
C1991 C1988 1.539 . S
C1991 H2005 0.958 . S
C1991 H2006 0.961 . S
C1991 H2007 0.960 . S
H1992 C1976 0.931 . S
H1993 C1981 0.929 . S
H1994 C1982 0.960 . S
H1995 C1982 0.962 . S
H1996 C1982 0.960 . S
H1997 C1983 0.961 . S
H1998 C1983 0.961 . S
H1999 C1983 0.961 . S
H2000 C1984 0.931 . S
H2001 C1989 0.930 . S
H2002 C1990 0.956 . S
H2003 C1990 0.961 . S
H2004 C1990 0.961 . S
H2005 C1991 0.958 . S
H2006 C1991 0.961 . S
H2007 C1991 0.960 . S
C2008 C2009 1.391 . S
C2008 C2010 1.394 . S
C2008 H2024 0.931 . S
C2009 C2008 1.391 . S
C2009 C2013 1.376 . S
C2010 C2008 1.394 . S
C2010 C2011 1.369 . S
C2010 C2014 1.531 . S
C2011 C2010 1.369 . S
C2011 C2012 1.410 . S
C2011 C2019 1.503 . S
C2012 C2011 1.410 . S
C2012 C2013 1.392 . S
C2012 C2015 1.511 . S
C2013 C2009 1.376 . S
C2013 C2012 1.392 . S
C2013 H2025 0.929 . S
C2014 C2010 1.531 . S
C2014 H2026 0.960 . S
C2014 H2027 0.962 . S
C2014 H2028 0.960 . S
C2015 C2012 1.511 . S
C2015 H2029 0.961 . S
C2015 H2030 0.961 . S
C2015 H2031 0.961 . S
C2016 C2017 1.370 . S
C2016 C2018 1.363 . S
C2016 H2032 0.931 . S
C2017 C2016 1.370 . S
C2017 C2021 1.408 . S
C2018 C2016 1.363 . S
C2018 C2019 1.370 . S
C2018 C2022 1.524 . S
C2019 C2011 1.503 . S
C2019 C2018 1.370 . S
C2019 C2020 1.403 . S
C2020 C2019 1.403 . S
C2020 C2021 1.404 . S
C2020 C2023 1.539 . S
C2021 C2017 1.408 . S
C2021 C2020 1.404 . S
C2021 H2033 0.930 . S
C2022 C2018 1.524 . S
C2022 H2034 0.956 . S
C2022 H2035 0.961 . S
C2022 H2036 0.961 . S
C2023 C2020 1.539 . S
C2023 H2037 0.958 . S
C2023 H2038 0.961 . S
C2023 H2039 0.960 . S
H2024 C2008 0.931 . S
H2025 C2013 0.929 . S
H2026 C2014 0.960 . S
H2027 C2014 0.962 . S
H2028 C2014 0.960 . S
H2029 C2015 0.961 . S
H2030 C2015 0.961 . S
H2031 C2015 0.961 . S
H2032 C2016 0.931 . S
H2033 C2021 0.930 . S
H2034 C2022 0.956 . S
H2035 C2022 0.961 . S
H2036 C2022 0.961 . S
H2037 C2023 0.958 . S
H2038 C2023 0.961 . S
H2039 C2023 0.960 . S
C2040 C2041 1.391 . S
C2040 C2042 1.394 . S
C2040 H2056 0.931 . S
C2041 C2040 1.391 . S
C2041 C2045 1.376 . S
C2042 C2040 1.394 . S
C2042 C2043 1.369 . S
C2042 C2046 1.531 . S
C2043 C2042 1.369 . S
C2043 C2044 1.410 . S
C2043 C2051 1.503 . S
C2044 C2043 1.410 . S
C2044 C2045 1.392 . S
C2044 C2047 1.511 . S
C2045 C2041 1.376 . S
C2045 C2044 1.392 . S
C2045 H2057 0.929 . S
C2046 C2042 1.531 . S
C2046 H2058 0.960 . S
C2046 H2059 0.962 . S
C2046 H2060 0.960 . S
C2047 C2044 1.511 . S
C2047 H2061 0.961 . S
C2047 H2062 0.961 . S
C2047 H2063 0.961 . S
C2048 C2049 1.370 . S
C2048 C2050 1.363 . S
C2048 H2064 0.931 . S
C2049 C2048 1.370 . S
C2049 C2053 1.408 . S
C2050 C2048 1.363 . S
C2050 C2051 1.370 . S
C2050 C2054 1.524 . S
C2051 C2043 1.503 . S
C2051 C2050 1.370 . S
C2051 C2052 1.403 . S
C2052 C2051 1.403 . S
C2052 C2053 1.404 . S
C2052 C2055 1.539 . S
C2053 C2049 1.408 . S
C2053 C2052 1.404 . S
C2053 H2065 0.930 . S
C2054 C2050 1.524 . S
C2054 H2066 0.956 . S
C2054 H2067 0.961 . S
C2054 H2068 0.961 . S
C2055 C2052 1.539 . S
C2055 H2069 0.958 . S
C2055 H2070 0.961 . S
C2055 H2071 0.960 . S
H2056 C2040 0.931 . S
H2057 C2045 0.929 . S
H2058 C2046 0.960 . S
H2059 C2046 0.962 . S
H2060 C2046 0.960 . S
H2061 C2047 0.961 . S
H2062 C2047 0.961 . S
H2063 C2047 0.961 . S
H2064 C2048 0.931 . S
H2065 C2053 0.930 . S
H2066 C2054 0.956 . S
H2067 C2054 0.961 . S
H2068 C2054 0.961 . S
H2069 C2055 0.958 . S
H2070 C2055 0.961 . S
H2071 C2055 0.960 . S
C2072 C2073 1.391 . S
C2072 C2074 1.394 . S
C2072 H2088 0.931 . S
C2073 C2072 1.391 . S
C2073 C2077 1.376 . S
C2074 C2072 1.394 . S
C2074 C2075 1.369 . S
C2074 C2078 1.531 . S
C2075 C2074 1.369 . S
C2075 C2076 1.410 . S
C2075 C2083 1.503 . S
C2076 C2075 1.410 . S
C2076 C2077 1.392 . S
C2076 C2079 1.511 . S
C2077 C2073 1.376 . S
C2077 C2076 1.392 . S
C2077 H2089 0.929 . S
C2078 C2074 1.531 . S
C2078 H2090 0.960 . S
C2078 H2091 0.962 . S
C2078 H2092 0.960 . S
C2079 C2076 1.511 . S
C2079 H2093 0.961 . S
C2079 H2094 0.961 . S
C2079 H2095 0.961 . S
C2080 C2081 1.370 . S
C2080 C2082 1.363 . S
C2080 H2096 0.931 . S
C2081 C2080 1.370 . S
C2081 C2085 1.408 . S
C2082 C2080 1.363 . S
C2082 C2083 1.370 . S
C2082 C2086 1.524 . S
C2083 C2075 1.503 . S
C2083 C2082 1.370 . S
C2083 C2084 1.403 . S
C2084 C2083 1.403 . S
C2084 C2085 1.404 . S
C2084 C2087 1.539 . S
C2085 C2081 1.408 . S
C2085 C2084 1.404 . S
C2085 H2097 0.930 . S
C2086 C2082 1.524 . S
C2086 H2098 0.956 . S
C2086 H2099 0.961 . S
C2086 H2100 0.961 . S
C2087 C2084 1.539 . S
C2087 H2101 0.958 . S
C2087 H2102 0.961 . S
C2087 H2103 0.960 . S
H2088 C2072 0.931 . S
H2089 C2077 0.929 . S
H2090 C2078 0.960 . S
H2091 C2078 0.962 . S
H2092 C2078 0.960 . S
H2093 C2079 0.961 . S
H2094 C2079 0.961 . S
H2095 C2079 0.961 . S
H2096 C2080 0.931 . S
H2097 C2085 0.930 . S
H2098 C2086 0.956 . S
H2099 C2086 0.961 . S
H2100 C2086 0.961 . S
H2101 C2087 0.958 . S
H2102 C2087 0.961 . S
H2103 C2087 0.960 . S
C2104 C2105 1.391 . S
C2104 C2106 1.394 . S
C2104 H2120 0.931 . S
C2105 C2104 1.391 . S
C2105 C2109 1.376 . S
C2106 C2104 1.394 . S
C2106 C2107 1.369 . S
C2106 C2110 1.531 . S
C2107 C2106 1.369 . S
C2107 C2108 1.410 . S
C2107 C2115 1.503 . S
C2108 C2107 1.410 . S
C2108 C2109 1.392 . S
C2108 C2111 1.511 . S
C2109 C2105 1.376 . S
C2109 C2108 1.392 . S
C2109 H2121 0.929 . S
C2110 C2106 1.531 . S
C2110 H2122 0.960 . S
C2110 H2123 0.962 . S
C2110 H2124 0.960 . S
C2111 C2108 1.511 . S
C2111 H2125 0.961 . S
C2111 H2126 0.961 . S
C2111 H2127 0.961 . S
C2112 C2113 1.370 . S
C2112 C2114 1.363 . S
C2112 H2128 0.931 . S
C2113 C2112 1.370 . S
C2113 C2117 1.408 . S
C2114 C2112 1.363 . S
C2114 C2115 1.370 . S
C2114 C2118 1.524 . S
C2115 C2107 1.503 . S
C2115 C2114 1.370 . S
C2115 C2116 1.403 . S
C2116 C2115 1.403 . S
C2116 C2117 1.404 . S
C2116 C2119 1.539 . S
C2117 C2113 1.408 . S
C2117 C2116 1.404 . S
C2117 H2129 0.930 . S
C2118 C2114 1.524 . S
C2118 H2130 0.956 . S
C2118 H2131 0.961 . S
C2118 H2132 0.961 . S
C2119 C2116 1.539 . S
C2119 H2133 0.958 . S
C2119 H2134 0.961 . S
C2119 H2135 0.960 . S
H2120 C2104 0.931 . S
H2121 C2109 0.929 . S
H2122 C2110 0.960 . S
H2123 C2110 0.962 . S
H2124 C2110 0.960 . S
H2125 C2111 0.961 . S
H2126 C2111 0.961 . S
H2127 C2111 0.961 . S
H2128 C2112 0.931 . S
H2129 C2117 0.930 . S
H2130 C2118 0.956 . S
H2131 C2118 0.961 . S
H2132 C2118 0.961 . S
H2133 C2119 0.958 . S
H2134 C2119 0.961 . S
H2135 C2119 0.960 . S
C2136 C2137 1.391 . S
C2136 C2138 1.394 . S
C2136 H2152 0.931 . S
C2137 C2136 1.391 . S
C2137 C2141 1.376 . S
C2138 C2136 1.394 . S
C2138 C2139 1.369 . S
C2138 C2142 1.531 . S
C2139 C2138 1.369 . S
C2139 C2140 1.410 . S
C2139 C2147 1.503 . S
C2140 C2139 1.410 . S
C2140 C2141 1.392 . S
C2140 C2143 1.511 . S
C2141 C2137 1.376 . S
C2141 C2140 1.392 . S
C2141 H2153 0.929 . S
C2142 C2138 1.531 . S
C2142 H2154 0.960 . S
C2142 H2155 0.962 . S
C2142 H2156 0.960 1_455 S
C2143 C2140 1.511 . S
C2143 H2157 0.961 . S
C2143 H2158 0.961 . S
C2143 H2159 0.961 . S
C2144 C2145 1.370 . S
C2144 C2146 1.363 . S
C2144 H2160 0.931 . S
C2145 C2144 1.370 . S
C2145 C2149 1.408 . S
C2146 C2144 1.363 . S
C2146 C2147 1.370 . S
C2146 C2150 1.524 . S
C2147 C2139 1.503 . S
C2147 C2146 1.370 . S
C2147 C2148 1.403 . S
C2148 C2147 1.403 . S
C2148 C2149 1.404 . S
C2148 C2151 1.539 . S
C2149 C2145 1.408 . S
C2149 C2148 1.404 . S
C2149 H2161 0.930 . S
C2150 C2146 1.524 . S
C2150 H2162 0.956 . S
C2150 H2163 0.961 . S
C2150 H2164 0.961 . S
C2151 C2148 1.539 . S
C2151 H2165 0.958 . S
C2151 H2166 0.961 . S
C2151 H2167 0.960 . S
H2152 C2136 0.931 . S
H2153 C2141 0.929 . S
H2154 C2142 0.960 . S
H2155 C2142 0.962 . S
H2156 C2142 0.960 1_655 S
H2157 C2143 0.961 . S
H2158 C2143 0.961 . S
H2159 C2143 0.961 . S
H2160 C2144 0.931 . S
H2161 C2149 0.930 . S
H2162 C2150 0.956 . S
H2163 C2150 0.961 . S
H2164 C2150 0.961 . S
H2165 C2151 0.958 . S
H2166 C2151 0.961 . S
H2167 C2151 0.960 . S
C2168 C2169 1.391 . S
C2168 C2170 1.394 . S
C2168 H2184 0.931 . S
C2169 C2168 1.391 . S
C2169 C2173 1.376 . S
C2170 C2168 1.394 . S
C2170 C2171 1.369 . S
C2170 C2174 1.531 . S
C2171 C2170 1.369 . S
C2171 C2172 1.410 . S
C2171 C2179 1.503 . S
C2172 C2171 1.410 . S
C2172 C2173 1.392 . S
C2172 C2175 1.511 . S
C2173 C2169 1.376 . S
C2173 C2172 1.392 . S
C2173 H2185 0.929 . S
C2174 C2170 1.531 . S
C2174 H2186 0.960 . S
C2174 H2187 0.962 . S
C2174 H2188 0.960 . S
C2175 C2172 1.511 . S
C2175 H2189 0.961 . S
C2175 H2190 0.961 . S
C2175 H2191 0.961 . S
C2176 C2177 1.370 . S
C2176 C2178 1.363 . S
C2176 H2192 0.931 . S
C2177 C2176 1.370 . S
C2177 C2181 1.408 . S
C2178 C2176 1.363 . S
C2178 C2179 1.370 . S
C2178 C2182 1.524 . S
C2179 C2171 1.503 . S
C2179 C2178 1.370 . S
C2179 C2180 1.403 . S
C2180 C2179 1.403 . S
C2180 C2181 1.404 . S
C2180 C2183 1.539 . S
C2181 C2177 1.408 . S
C2181 C2180 1.404 . S
C2181 H2193 0.930 . S
C2182 C2178 1.524 . S
C2182 H2194 0.956 . S
C2182 H2195 0.961 . S
C2182 H2196 0.961 . S
C2183 C2180 1.539 . S
C2183 H2197 0.958 . S
C2183 H2198 0.961 . S
C2183 H2199 0.960 . S
H2184 C2168 0.931 . S
H2185 C2173 0.929 . S
H2186 C2174 0.960 . S
H2187 C2174 0.962 . S
H2188 C2174 0.960 . S
H2189 C2175 0.961 . S
H2190 C2175 0.961 . S
H2191 C2175 0.961 . S
H2192 C2176 0.931 . S
H2193 C2181 0.930 . S
H2194 C2182 0.956 . S
H2195 C2182 0.961 . S
H2196 C2182 0.961 . S
H2197 C2183 0.958 . S
H2198 C2183 0.961 . S
H2199 C2183 0.960 . S
C2200 C2201 1.391 . S
C2200 C2202 1.394 . S
C2200 H2216 0.931 . S
C2201 C2200 1.391 . S
C2201 C2205 1.376 . S
C2202 C2200 1.394 . S
C2202 C2203 1.369 . S
C2202 C2206 1.531 . S
C2203 C2202 1.369 . S
C2203 C2204 1.410 . S
C2203 C2211 1.503 . S
C2204 C2203 1.410 . S
C2204 C2205 1.392 . S
C2204 C2207 1.511 . S
C2205 C2201 1.376 . S
C2205 C2204 1.392 . S
C2205 H2217 0.929 1_545 S
C2206 C2202 1.531 . S
C2206 H2218 0.960 . S
C2206 H2219 0.962 . S
C2206 H2220 0.960 . S
C2207 C2204 1.511 . S
C2207 H2221 0.961 1_545 S
C2207 H2222 0.961 . S
C2207 H2223 0.961 . S
C2208 C2209 1.370 . S
C2208 C2210 1.363 . S
C2208 H2224 0.931 . S
C2209 C2208 1.370 . S
C2209 C2213 1.408 . S
C2210 C2208 1.363 . S
C2210 C2211 1.370 . S
C2210 C2214 1.524 1_545 S
C2211 C2203 1.503 . S
C2211 C2210 1.370 . S
C2211 C2212 1.403 . S
C2212 C2211 1.403 . S
C2212 C2213 1.404 . S
C2212 C2215 1.539 . S
C2213 C2209 1.408 . S
C2213 C2212 1.404 . S
C2213 H2225 0.930 . S
C2214 C2210 1.524 1_565 S
C2214 H2226 0.956 . S
C2214 H2227 0.961 . S
C2214 H2228 0.961 . S
C2215 C2212 1.539 . S
C2215 H2229 0.958 . S
C2215 H2230 0.961 . S
C2215 H2231 0.960 . S
H2216 C2200 0.931 . S
H2217 C2205 0.929 1_565 S
H2218 C2206 0.960 . S
H2219 C2206 0.962 . S
H2220 C2206 0.960 . S
H2221 C2207 0.961 1_565 S
H2222 C2207 0.961 . S
H2223 C2207 0.961 . S
H2224 C2208 0.931 . S
H2225 C2213 0.930 . S
H2226 C2214 0.956 . S
H2227 C2214 0.961 . S
H2228 C2214 0.961 . S
H2229 C2215 0.958 . S
H2230 C2215 0.961 . S
H2231 C2215 0.960 . S
C2232 C2233 1.391 . S
C2232 C2234 1.394 . S
C2232 H2248 0.931 . S
C2233 C2232 1.391 . S
C2233 C2237 1.376 . S
C2234 C2232 1.394 . S
C2234 C2235 1.369 . S
C2234 C2238 1.531 . S
C2235 C2234 1.369 . S
C2235 C2236 1.410 . S
C2235 C2243 1.503 . S
C2236 C2235 1.410 . S
C2236 C2237 1.392 . S
C2236 C2239 1.511 . S
C2237 C2233 1.376 . S
C2237 C2236 1.392 . S
C2237 H2249 0.929 . S
C2238 C2234 1.531 . S
C2238 H2250 0.960 . S
C2238 H2251 0.962 . S
C2238 H2252 0.960 . S
C2239 C2236 1.511 . S
C2239 H2253 0.961 . S
C2239 H2254 0.961 . S
C2239 H2255 0.961 . S
C2240 C2241 1.370 . S
C2240 C2242 1.363 . S
C2240 H2256 0.931 . S
C2241 C2240 1.370 . S
C2241 C2245 1.408 . S
C2242 C2240 1.363 . S
C2242 C2243 1.370 . S
C2242 C2246 1.524 . S
C2243 C2235 1.503 . S
C2243 C2242 1.370 . S
C2243 C2244 1.403 . S
C2244 C2243 1.403 . S
C2244 C2245 1.404 . S
C2244 C2247 1.539 . S
C2245 C2241 1.408 . S
C2245 C2244 1.404 . S
C2245 H2257 0.930 . S
C2246 C2242 1.524 . S
C2246 H2258 0.956 . S
C2246 H2259 0.961 . S
C2246 H2260 0.961 . S
C2247 C2244 1.539 . S
C2247 H2261 0.958 . S
C2247 H2262 0.961 . S
C2247 H2263 0.960 . S
H2248 C2232 0.931 . S
H2249 C2237 0.929 . S
H2250 C2238 0.960 . S
H2251 C2238 0.962 . S
H2252 C2238 0.960 . S
H2253 C2239 0.961 . S
H2254 C2239 0.961 . S
H2255 C2239 0.961 . S
H2256 C2240 0.931 . S
H2257 C2245 0.930 . S
H2258 C2246 0.956 . S
H2259 C2246 0.961 . S
H2260 C2246 0.961 . S
H2261 C2247 0.958 . S
H2262 C2247 0.961 . S
H2263 C2247 0.960 . S
C2264 C2265 1.391 . S
C2264 C2266 1.394 . S
C2264 H2280 0.931 . S
C2265 C2264 1.391 . S
C2265 C2269 1.376 . S
C2266 C2264 1.394 . S
C2266 C2267 1.369 . S
C2266 C2270 1.531 . S
C2267 C2266 1.369 . S
C2267 C2268 1.410 . S
C2267 C2275 1.503 . S
C2268 C2267 1.410 . S
C2268 C2269 1.392 . S
C2268 C2271 1.511 . S
C2269 C2265 1.376 . S
C2269 C2268 1.392 . S
C2269 H2281 0.929 . S
C2270 C2266 1.531 . S
C2270 H2282 0.960 . S
C2270 H2283 0.962 . S
C2270 H2284 0.960 . S
C2271 C2268 1.511 . S
C2271 H2285 0.961 . S
C2271 H2286 0.961 . S
C2271 H2287 0.961 . S
C2272 C2273 1.370 . S
C2272 C2274 1.363 . S
C2272 H2288 0.931 . S
C2273 C2272 1.370 . S
C2273 C2277 1.408 . S
C2274 C2272 1.363 . S
C2274 C2275 1.370 . S
C2274 C2278 1.524 . S
C2275 C2267 1.503 . S
C2275 C2274 1.370 . S
C2275 C2276 1.403 . S
C2276 C2275 1.403 . S
C2276 C2277 1.404 . S
C2276 C2279 1.539 . S
C2277 C2273 1.408 . S
C2277 C2276 1.404 . S
C2277 H2289 0.930 . S
C2278 C2274 1.524 . S
C2278 H2290 0.956 . S
C2278 H2291 0.961 . S
C2278 H2292 0.961 . S
C2279 C2276 1.539 . S
C2279 H2293 0.958 . S
C2279 H2294 0.961 . S
C2279 H2295 0.960 . S
H2280 C2264 0.931 . S
H2281 C2269 0.929 . S
H2282 C2270 0.960 . S
H2283 C2270 0.962 . S
H2284 C2270 0.960 . S
H2285 C2271 0.961 . S
H2286 C2271 0.961 . S
H2287 C2271 0.961 . S
H2288 C2272 0.931 . S
H2289 C2277 0.930 . S
H2290 C2278 0.956 . S
H2291 C2278 0.961 . S
H2292 C2278 0.961 . S
H2293 C2279 0.958 . S
H2294 C2279 0.961 . S
H2295 C2279 0.960 . S
C2296 C2297 1.391 . S
C2296 C2298 1.394 . S
C2296 H2312 0.931 . S
C2297 C2296 1.391 . S
C2297 C2301 1.376 . S
C2298 C2296 1.394 . S
C2298 C2299 1.369 . S
C2298 C2302 1.531 . S
C2299 C2298 1.369 . S
C2299 C2300 1.410 . S
C2299 C2307 1.503 . S
C2300 C2299 1.410 . S
C2300 C2301 1.392 . S
C2300 C2303 1.511 . S
C2301 C2297 1.376 . S
C2301 C2300 1.392 . S
C2301 H2313 0.929 . S
C2302 C2298 1.531 . S
C2302 H2314 0.960 . S
C2302 H2315 0.962 . S
C2302 H2316 0.960 . S
C2303 C2300 1.511 . S
C2303 H2317 0.961 . S
C2303 H2318 0.961 . S
C2303 H2319 0.961 . S
C2304 C2305 1.370 . S
C2304 C2306 1.363 . S
C2304 H2320 0.931 . S
C2305 C2304 1.370 . S
C2305 C2309 1.408 . S
C2306 C2304 1.363 . S
C2306 C2307 1.370 . S
C2306 C2310 1.524 . S
C2307 C2299 1.503 . S
C2307 C2306 1.370 . S
C2307 C2308 1.403 . S
C2308 C2307 1.403 . S
C2308 C2309 1.404 . S
C2308 C2311 1.539 . S
C2309 C2305 1.408 . S
C2309 C2308 1.404 . S
C2309 H2321 0.930 . S
C2310 C2306 1.524 . S
C2310 H2322 0.956 . S
C2310 H2323 0.961 . S
C2310 H2324 0.961 . S
C2311 C2308 1.539 . S
C2311 H2325 0.958 . S
C2311 H2326 0.961 . S
C2311 H2327 0.960 . S
H2312 C2296 0.931 . S
H2313 C2301 0.929 . S
H2314 C2302 0.960 . S
H2315 C2302 0.962 . S
H2316 C2302 0.960 . S
H2317 C2303 0.961 . S
H2318 C2303 0.961 . S
H2319 C2303 0.961 . S
H2320 C2304 0.931 . S
H2321 C2309 0.930 . S
H2322 C2310 0.956 . S
H2323 C2310 0.961 . S
H2324 C2310 0.961 . S
H2325 C2311 0.958 . S
H2326 C2311 0.961 . S
H2327 C2311 0.960 . S
C2328 C2329 1.391 . S
C2328 C2330 1.394 . S
C2328 H2344 0.931 . S
C2329 C2328 1.391 . S
C2329 C2333 1.376 . S
C2330 C2328 1.394 . S
C2330 C2331 1.369 . S
C2330 C2334 1.531 . S
C2331 C2330 1.369 . S
C2331 C2332 1.410 . S
C2331 C2339 1.503 . S
C2332 C2331 1.410 . S
C2332 C2333 1.392 . S
C2332 C2335 1.511 . S
C2333 C2329 1.376 . S
C2333 C2332 1.392 . S
C2333 H2345 0.929 . S
C2334 C2330 1.531 . S
C2334 H2346 0.960 . S
C2334 H2347 0.986 . S
C2334 H2348 0.960 . S
C2335 C2332 1.511 . S
C2335 H2349 0.961 . S
C2335 H2350 0.961 . S
C2335 H2351 0.961 . S
C2336 C2337 1.370 . S
C2336 C2338 1.363 . S
C2336 H2352 0.929 . S
C2337 C2336 1.370 . S
C2337 C2341 1.408 . S
C2338 C2336 1.363 . S
C2338 C2339 1.370 . S
C2338 C2342 1.524 . S
C2339 C2331 1.503 . S
C2339 C2338 1.370 . S
C2339 C2340 1.403 . S
C2340 C2339 1.403 . S
C2340 C2341 1.404 . S
C2340 C2343 1.539 . S
C2341 C2337 1.408 . S
C2341 C2340 1.404 . S
C2341 H2353 0.930 . S
C2342 C2338 1.524 . S
C2342 H2354 0.956 1_545 S
C2342 H2355 0.961 . S
C2342 H2356 0.961 1_545 S
C2343 C2340 1.539 . S
C2343 H2357 0.958 . S
C2343 H2358 0.961 . S
C2343 H2359 0.960 . S
H2344 C2328 0.931 . S
H2345 C2333 0.929 . S
H2346 C2334 0.960 . S
H2347 C2334 0.986 . S
H2348 C2334 0.960 . S
H2349 C2335 0.961 . S
H2350 C2335 0.961 . S
H2351 C2335 0.961 . S
H2352 C2336 0.929 . S
H2353 C2341 0.930 . S
H2354 C2342 0.956 1_565 S
H2355 C2342 0.961 . S
H2356 C2342 0.961 1_565 S
H2357 C2343 0.958 . S
H2358 C2343 0.961 . S
H2359 C2343 0.960 . S
C2360 C2361 1.391 . S
C2360 C2362 1.394 . S
C2360 H2376 0.931 . S
C2361 C2360 1.391 . S
C2361 C2365 1.376 . S
C2362 C2360 1.394 . S
C2362 C2363 1.369 . S
C2362 C2366 1.531 . S
C2363 C2362 1.369 . S
C2363 C2364 1.410 . S
C2363 C2371 1.503 . S
C2364 C2363 1.410 . S
C2364 C2365 1.392 . S
C2364 C2367 1.511 . S
C2365 C2361 1.376 . S
C2365 C2364 1.392 . S
C2365 H2377 0.929 . S
C2366 C2362 1.531 . S
C2366 H2378 0.960 . S
C2366 H2379 0.962 . S
C2366 H2380 0.960 . S
C2367 C2364 1.511 . S
C2367 H2381 0.961 . S
C2367 H2382 0.961 . S
C2367 H2383 0.961 . S
C2368 C2369 1.370 . S
C2368 C2370 1.363 . S
C2368 H2384 0.931 . S
C2369 C2368 1.370 . S
C2369 C2373 1.408 . S
C2370 C2368 1.363 . S
C2370 C2371 1.370 . S
C2370 C2374 1.524 . S
C2371 C2363 1.503 . S
C2371 C2370 1.370 . S
C2371 C2372 1.403 . S
C2372 C2371 1.403 . S
C2372 C2373 1.404 . S
C2372 C2375 1.539 . S
C2373 C2369 1.408 . S
C2373 C2372 1.404 . S
C2373 H2385 0.930 . S
C2374 C2370 1.524 . S
C2374 H2386 0.956 1_554 S
C2374 H2387 0.961 . S
C2374 H2388 0.961 1_554 S
C2375 C2372 1.539 . S
C2375 H2389 0.958 . S
C2375 H2390 0.961 . S
C2375 H2391 0.960 . S
H2376 C2360 0.931 . S
H2377 C2365 0.929 . S
H2378 C2366 0.960 . S
H2379 C2366 0.962 . S
H2380 C2366 0.960 . S
H2381 C2367 0.961 . S
H2382 C2367 0.961 . S
H2383 C2367 0.961 . S
H2384 C2368 0.931 . S
H2385 C2373 0.930 . S
H2386 C2374 0.956 1_556 S
H2387 C2374 0.961 . S
H2388 C2374 0.961 1_556 S
H2389 C2375 0.958 . S
H2390 C2375 0.961 . S
H2391 C2375 0.960 . S
C2392 C2393 1.391 . S
C2392 C2394 1.394 . S
C2392 H2408 0.931 . S
C2393 C2392 1.391 . S
C2393 C2397 1.376 . S
C2394 C2392 1.394 . S
C2394 C2395 1.369 . S
C2394 C2398 1.531 . S
C2395 C2394 1.369 . S
C2395 C2396 1.410 . S
C2395 C2403 1.503 . S
C2396 C2395 1.410 . S
C2396 C2397 1.392 . S
C2396 C2399 1.511 1_545 S
C2397 C2393 1.376 . S
C2397 C2396 1.392 . S
C2397 H2409 0.929 1_545 S
C2398 C2394 1.531 . S
C2398 H2410 0.960 . S
C2398 H2411 0.962 . S
C2398 H2412 0.960 . S
C2399 C2396 1.511 1_565 S
C2399 H2413 0.961 . S
C2399 H2414 0.961 . S
C2399 H2415 0.961 . S
C2400 C2401 1.370 . S
C2400 C2402 1.363 . S
C2400 H2416 0.931 . S
C2401 C2400 1.370 . S
C2401 C2405 1.408 . S
C2402 C2400 1.363 . S
C2402 C2403 1.370 . S
C2402 C2406 1.524 . S
C2403 C2395 1.503 . S
C2403 C2402 1.370 . S
C2403 C2404 1.403 . S
C2404 C2403 1.403 . S
C2404 C2405 1.404 . S
C2404 C2407 1.539 . S
C2405 C2401 1.408 . S
C2405 C2404 1.404 . S
C2405 H2417 0.930 . S
C2406 C2402 1.524 . S
C2406 H2418 0.956 . S
C2406 H2419 0.961 . S
C2406 H2420 0.961 . S
C2407 C2404 1.539 . S
C2407 H2421 0.958 . S
C2407 H2422 0.961 . S
C2407 H2423 0.960 . S
H2408 C2392 0.931 . S
H2409 C2397 0.929 1_565 S
H2410 C2398 0.960 . S
H2411 C2398 0.962 . S
H2412 C2398 0.960 . S
H2413 C2399 0.961 . S
H2414 C2399 0.961 . S
H2415 C2399 0.961 . S
H2416 C2400 0.931 . S
H2417 C2405 0.930 . S
H2418 C2406 0.956 . S
H2419 C2406 0.961 . S
H2420 C2406 0.961 . S
H2421 C2407 0.958 . S
H2422 C2407 0.961 . S
H2423 C2407 0.960 . S
C2424 C2425 1.391 . S
C2424 C2426 1.394 . S
C2424 H2440 0.931 . S
C2425 C2424 1.391 . S
C2425 C2429 1.376 . S
C2426 C2424 1.394 . S
C2426 C2427 1.369 . S
C2426 C2430 1.531 . S
C2427 C2426 1.369 . S
C2427 C2428 1.410 . S
C2427 C2435 1.503 . S
C2428 C2427 1.410 . S
C2428 C2429 1.392 . S
C2428 C2431 1.511 . S
C2429 C2425 1.376 . S
C2429 C2428 1.392 . S
C2429 H2441 0.929 . S
C2430 C2426 1.531 . S
C2430 H2442 0.960 . S
C2430 H2443 0.962 . S
C2430 H2444 0.960 . S
C2431 C2428 1.511 . S
C2431 H2445 0.961 . S
C2431 H2446 0.961 . S
C2431 H2447 0.961 . S
C2432 C2433 1.370 . S
C2432 C2434 1.363 . S
C2432 H2448 0.931 . S
C2433 C2432 1.370 . S
C2433 C2437 1.408 . S
C2434 C2432 1.363 . S
C2434 C2435 1.370 . S
C2434 C2438 1.524 . S
C2435 C2427 1.503 . S
C2435 C2434 1.370 . S
C2435 C2436 1.403 . S
C2436 C2435 1.403 . S
C2436 C2437 1.404 . S
C2436 C2439 1.539 . S
C2437 C2433 1.408 . S
C2437 C2436 1.404 . S
C2437 H2449 0.930 . S
C2438 C2434 1.524 . S
C2438 H2450 0.956 . S
C2438 H2451 0.961 . S
C2438 H2452 0.961 . S
C2439 C2436 1.539 . S
C2439 H2453 0.958 . S
C2439 H2454 0.961 . S
C2439 H2455 0.960 . S
H2440 C2424 0.931 . S
H2441 C2429 0.929 . S
H2442 C2430 0.960 . S
H2443 C2430 0.962 . S
H2444 C2430 0.960 . S
H2445 C2431 0.961 . S
H2446 C2431 0.961 . S
H2447 C2431 0.961 . S
H2448 C2432 0.931 . S
H2449 C2437 0.930 . S
H2450 C2438 0.956 . S
H2451 C2438 0.961 . S
H2452 C2438 0.961 . S
H2453 C2439 0.958 . S
H2454 C2439 0.961 . S
H2455 C2439 0.960 . S
C2456 C2457 1.391 . S
C2456 C2458 1.394 . S
C2456 H2472 0.931 . S
C2457 C2456 1.391 . S
C2457 C2461 1.376 . S
C2458 C2456 1.394 . S
C2458 C2459 1.369 . S
C2458 C2462 1.531 . S
C2459 C2458 1.369 . S
C2459 C2460 1.410 . S
C2459 C2467 1.503 . S
C2460 C2459 1.410 . S
C2460 C2461 1.392 . S
C2460 C2463 1.511 . S
C2461 C2457 1.376 . S
C2461 C2460 1.392 . S
C2461 H2473 0.929 . S
C2462 C2458 1.531 . S
C2462 H2474 0.960 . S
C2462 H2475 0.962 . S
C2462 H2476 0.960 . S
C2463 C2460 1.511 . S
C2463 H2477 0.961 . S
C2463 H2478 0.961 . S
C2463 H2479 0.961 . S
C2464 C2465 1.370 . S
C2464 C2466 1.363 . S
C2464 H2480 0.931 . S
C2465 C2464 1.370 . S
C2465 C2469 1.408 . S
C2466 C2464 1.363 . S
C2466 C2467 1.370 . S
C2466 C2470 1.524 . S
C2467 C2459 1.503 . S
C2467 C2466 1.370 . S
C2467 C2468 1.403 . S
C2468 C2467 1.403 . S
C2468 C2469 1.404 . S
C2468 C2471 1.539 . S
C2469 C2465 1.408 . S
C2469 C2468 1.404 . S
C2469 H2481 0.930 . S
C2470 C2466 1.524 . S
C2470 H2482 0.956 . S
C2470 H2483 0.961 . S
C2470 H2484 0.961 . S
C2471 C2468 1.539 . S
C2471 H2485 0.958 . S
C2471 H2486 0.961 . S
C2471 H2487 0.960 . S
H2472 C2456 0.931 . S
H2473 C2461 0.929 . S
H2474 C2462 0.960 . S
H2475 C2462 0.962 . S
H2476 C2462 0.960 . S
H2477 C2463 0.961 . S
H2478 C2463 0.961 . S
H2479 C2463 0.961 . S
H2480 C2464 0.931 . S
H2481 C2469 0.930 . S
H2482 C2470 0.956 . S
H2483 C2470 0.961 . S
H2484 C2470 0.961 . S
H2485 C2471 0.958 . S
H2486 C2471 0.961 . S
H2487 C2471 0.960 . S
C2488 C2489 1.391 . S
C2488 C2490 1.394 . S
C2488 H2504 0.931 . S
C2489 C2488 1.391 . S
C2489 C2493 1.376 . S
C2490 C2488 1.394 . S
C2490 C2491 1.369 . S
C2490 C2494 1.531 . S
C2491 C2490 1.369 . S
C2491 C2492 1.410 . S
C2491 C2499 1.503 . S
C2492 C2491 1.410 . S
C2492 C2493 1.392 . S
C2492 C2495 1.511 . S
C2493 C2489 1.376 . S
C2493 C2492 1.392 . S
C2493 H2505 0.929 . S
C2494 C2490 1.531 . S
C2494 H2506 0.960 . S
C2494 H2507 0.962 . S
C2494 H2508 0.960 . S
C2495 C2492 1.511 . S
C2495 H2509 0.961 . S
C2495 H2510 0.961 . S
C2495 H2511 0.961 . S
C2496 C2497 1.370 . S
C2496 C2498 1.363 . S
C2496 H2512 0.931 . S
C2497 C2496 1.370 . S
C2497 C2501 1.408 . S
C2498 C2496 1.363 . S
C2498 C2499 1.370 . S
C2498 C2502 1.524 . S
C2499 C2491 1.503 . S
C2499 C2498 1.370 . S
C2499 C2500 1.403 . S
C2500 C2499 1.403 . S
C2500 C2501 1.404 . S
C2500 C2503 1.539 . S
C2501 C2497 1.408 . S
C2501 C2500 1.404 . S
C2501 H2513 0.930 . S
C2502 C2498 1.524 . S
C2502 H2514 0.956 . S
C2502 H2515 0.961 . S
C2502 H2516 0.961 . S
C2503 C2500 1.539 . S
C2503 H2517 0.958 . S
C2503 H2518 0.961 . S
C2503 H2519 0.960 . S
H2504 C2488 0.931 . S
H2505 C2493 0.929 . S
H2506 C2494 0.960 . S
H2507 C2494 0.962 . S
H2508 C2494 0.960 . S
H2509 C2495 0.961 . S
H2510 C2495 0.961 . S
H2511 C2495 0.961 . S
H2512 C2496 0.931 . S
H2513 C2501 0.930 . S
H2514 C2502 0.956 . S
H2515 C2502 0.961 . S
H2516 C2502 0.961 . S
H2517 C2503 0.958 . S
H2518 C2503 0.961 . S
H2519 C2503 0.960 . S
C2520 C2521 1.391 . S
C2520 C2522 1.394 . S
C2520 H2536 0.931 . S
C2521 C2520 1.391 . S
C2521 C2525 1.376 . S
C2522 C2520 1.394 . S
C2522 C2523 1.369 . S
C2522 C2526 1.531 . S
C2523 C2522 1.369 . S
C2523 C2524 1.410 . S
C2523 C2531 1.503 . S
C2524 C2523 1.410 . S
C2524 C2525 1.392 . S
C2524 C2527 1.511 . S
C2525 C2521 1.376 . S
C2525 C2524 1.392 . S
C2525 H2537 0.929 . S
C2526 C2522 1.531 . S
C2526 H2538 0.960 . S
C2526 H2539 0.962 . S
C2526 H2540 0.960 . S
C2527 C2524 1.511 . S
C2527 H2541 0.961 . S
C2527 H2542 0.961 . S
C2527 H2543 0.961 . S
C2528 C2529 1.370 . S
C2528 C2530 1.363 . S
C2528 H2544 0.931 . S
C2529 C2528 1.370 . S
C2529 C2533 1.408 . S
C2530 C2528 1.363 . S
C2530 C2531 1.370 . S
C2530 C2534 1.524 . S
C2531 C2523 1.503 . S
C2531 C2530 1.370 . S
C2531 C2532 1.403 . S
C2532 C2531 1.403 . S
C2532 C2533 1.404 . S
C2532 C2535 1.539 . S
C2533 C2529 1.408 . S
C2533 C2532 1.404 . S
C2533 H2545 0.930 . S
C2534 C2530 1.524 . S
C2534 H2546 0.956 . S
C2534 H2547 0.961 . S
C2534 H2548 0.961 . S
C2535 C2532 1.539 . S
C2535 H2549 0.958 . S
C2535 H2550 0.961 . S
C2535 H2551 0.960 . S
H2536 C2520 0.931 . S
H2537 C2525 0.929 . S
H2538 C2526 0.960 . S
H2539 C2526 0.962 . S
H2540 C2526 0.960 . S
H2541 C2527 0.961 . S
H2542 C2527 0.961 . S
H2543 C2527 0.961 . S
H2544 C2528 0.931 . S
H2545 C2533 0.930 . S
H2546 C2534 0.956 . S
H2547 C2534 0.961 . S
H2548 C2534 0.961 . S
H2549 C2535 0.958 . S
H2550 C2535 0.961 . S
H2551 C2535 0.960 . S
C2552 C2553 1.391 . S
C2552 C2554 1.394 . S
C2552 H2568 0.931 1_554 S
C2553 C2552 1.391 . S
C2553 C2557 1.376 . S
C2554 C2552 1.394 . S
C2554 C2555 1.369 . S
C2554 C2558 1.531 1_554 S
C2555 C2554 1.369 . S
C2555 C2556 1.410 . S
C2555 C2563 1.503 . S
C2556 C2555 1.410 . S
C2556 C2557 1.392 . S
C2556 C2559 1.511 . S
C2557 C2553 1.376 . S
C2557 C2556 1.392 . S
C2557 H2569 0.929 . S
C2558 C2554 1.531 1_556 S
C2558 H2570 0.960 . S
C2558 H2571 0.962 1_556 S
C2558 H2572 0.960 . S
C2559 C2556 1.511 . S
C2559 H2573 0.961 . S
C2559 H2574 0.961 . S
C2559 H2575 0.961 . S
C2560 C2561 1.370 . S
C2560 C2562 1.363 . S
C2560 H2576 0.931 . S
C2561 C2560 1.370 . S
C2561 C2565 1.408 . S
C2562 C2560 1.363 . S
C2562 C2563 1.370 . S
C2562 C2566 1.524 . S
C2563 C2555 1.503 . S
C2563 C2562 1.370 . S
C2563 C2564 1.403 . S
C2564 C2563 1.403 . S
C2564 C2565 1.404 . S
C2564 C2567 1.539 . S
C2565 C2561 1.408 . S
C2565 C2564 1.404 . S
C2565 H2577 0.930 . S
C2566 C2562 1.524 . S
C2566 H2578 0.956 . S
C2566 H2579 0.961 . S
C2566 H2580 0.961 . S
C2567 C2564 1.539 . S
C2567 H2581 0.958 1_554 S
C2567 H2582 0.961 . S
C2567 H2583 0.960 . S
H2568 C2552 0.931 1_556 S
H2569 C2557 0.929 . S
H2570 C2558 0.960 . S
H2571 C2558 0.962 1_554 S
H2572 C2558 0.960 . S
H2573 C2559 0.961 . S
H2574 C2559 0.961 . S
H2575 C2559 0.961 . S
H2576 C2560 0.931 . S
H2577 C2565 0.930 . S
H2578 C2566 0.956 . S
H2579 C2566 0.961 . S
H2580 C2566 0.961 . S
H2581 C2567 0.958 1_556 S
H2582 C2567 0.961 . S
H2583 C2567 0.960 . S
C2584 C2585 1.391 . S
C2584 C2586 1.394 . S
C2584 H2600 0.931 . S
C2585 C2584 1.391 . S
C2585 C2589 1.376 . S
C2586 C2584 1.394 . S
C2586 C2587 1.369 . S
C2586 C2590 1.531 . S
C2587 C2586 1.369 . S
C2587 C2588 1.410 . S
C2587 C2595 1.503 . S
C2588 C2587 1.410 . S
C2588 C2589 1.392 . S
C2588 C2591 1.518 . S
C2589 C2585 1.376 . S
C2589 C2588 1.392 . S
C2589 H2601 0.929 . S
C2590 C2586 1.531 . S
C2590 H2602 0.960 . S
C2590 H2603 0.962 . S
C2590 H2604 0.960 . S
C2591 C2588 1.518 . S
C2591 H2605 0.956 1_455 S
C2591 H2606 0.959 1_455 S
C2591 H2607 0.959 1_455 S
C2592 C2593 1.370 . S
C2592 C2594 1.363 . S
C2592 H2608 0.931 . S
C2593 C2592 1.370 . S
C2593 C2597 1.408 . S
C2594 C2592 1.363 . S
C2594 C2595 1.370 . S
C2594 C2598 1.524 . S
C2595 C2587 1.503 . S
C2595 C2594 1.370 . S
C2595 C2596 1.403 . S
C2596 C2595 1.403 . S
C2596 C2597 1.404 . S
C2596 C2599 1.539 . S
C2597 C2593 1.408 . S
C2597 C2596 1.404 . S
C2597 H2609 0.930 . S
C2598 C2594 1.524 . S
C2598 H2610 0.956 . S
C2598 H2611 0.961 . S
C2598 H2612 0.961 . S
C2599 C2596 1.539 . S
C2599 H2613 0.958 . S
C2599 H2614 0.961 . S
C2599 H2615 0.960 . S
H2600 C2584 0.931 . S
H2601 C2589 0.929 . S
H2602 C2590 0.960 . S
H2603 C2590 0.962 . S
H2604 C2590 0.960 . S
H2605 C2591 0.956 1_655 S
H2606 C2591 0.959 1_655 S
H2607 C2591 0.959 1_655 S
H2608 C2592 0.931 . S
H2609 C2597 0.930 . S
H2610 C2598 0.956 . S
H2611 C2598 0.961 . S
H2612 C2598 0.961 . S
H2613 C2599 0.958 . S
H2614 C2599 0.961 . S
H2615 C2599 0.960 . S
C2616 C2617 1.391 . S
C2616 C2618 1.394 . S
C2616 H2632 0.931 . S
C2617 C2616 1.391 . S
C2617 C2621 1.376 . S
C2618 C2616 1.394 . S
C2618 C2619 1.369 . S
C2618 C2622 1.531 . S
C2619 C2618 1.369 . S
C2619 C2620 1.410 . S
C2619 C2627 1.503 . S
C2620 C2619 1.410 . S
C2620 C2621 1.392 . S
C2620 C2623 1.511 . S
C2621 C2617 1.376 . S
C2621 C2620 1.392 . S
C2621 H2633 0.929 . S
C2622 C2618 1.531 . S
C2622 H2634 0.960 . S
C2622 H2635 0.962 . S
C2622 H2636 0.960 . S
C2623 C2620 1.511 . S
C2623 H2637 0.961 . S
C2623 H2638 0.961 . S
C2623 H2639 0.961 . S
C2624 C2625 1.370 . S
C2624 C2626 1.363 . S
C2624 H2640 0.931 . S
C2625 C2624 1.370 . S
C2625 C2629 1.408 . S
C2626 C2624 1.363 . S
C2626 C2627 1.370 . S
C2626 C2630 1.524 . S
C2627 C2619 1.503 . S
C2627 C2626 1.370 . S
C2627 C2628 1.403 . S
C2628 C2627 1.403 . S
C2628 C2629 1.404 . S
C2628 C2631 1.539 . S
C2629 C2625 1.408 . S
C2629 C2628 1.404 . S
C2629 H2641 0.930 . S
C2630 C2626 1.524 . S
C2630 H2642 0.956 . S
C2630 H2643 0.961 . S
C2630 H2644 0.961 . S
C2631 C2628 1.539 . S
C2631 H2645 0.958 . S
C2631 H2646 0.961 . S
C2631 H2647 0.960 . S
H2632 C2616 0.931 . S
H2633 C2621 0.929 . S
H2634 C2622 0.960 . S
H2635 C2622 0.962 . S
H2636 C2622 0.960 . S
H2637 C2623 0.961 . S
H2638 C2623 0.961 . S
H2639 C2623 0.961 . S
H2640 C2624 0.931 . S
H2641 C2629 0.930 . S
H2642 C2630 0.956 . S
H2643 C2630 0.961 . S
H2644 C2630 0.961 . S
H2645 C2631 0.958 . S
H2646 C2631 0.961 . S
H2647 C2631 0.960 . S
C2648 C2649 1.391 . S
C2648 C2650 1.394 . S
C2648 H2664 0.931 . S
C2649 C2648 1.391 . S
C2649 C2653 1.376 . S
C2650 C2648 1.394 . S
C2650 C2651 1.369 . S
C2650 C2654 1.531 . S
C2651 C2650 1.369 . S
C2651 C2652 1.410 . S
C2651 C2659 1.503 . S
C2652 C2651 1.410 . S
C2652 C2653 1.392 . S
C2652 C2655 1.511 . S
C2653 C2649 1.376 . S
C2653 C2652 1.392 . S
C2653 H2665 0.929 . S
C2654 C2650 1.531 . S
C2654 H2666 0.960 . S
C2654 H2667 0.962 . S
C2654 H2668 0.960 . S
C2655 C2652 1.511 . S
C2655 H2669 0.961 . S
C2655 H2670 0.961 . S
C2655 H2671 0.961 . S
C2656 C2657 1.370 . S
C2656 C2658 1.363 . S
C2656 H2672 0.931 . S
C2657 C2656 1.370 . S
C2657 C2661 1.408 . S
C2658 C2656 1.363 . S
C2658 C2659 1.370 . S
C2658 C2662 1.524 . S
C2659 C2651 1.503 . S
C2659 C2658 1.370 . S
C2659 C2660 1.403 . S
C2660 C2659 1.403 . S
C2660 C2661 1.404 . S
C2660 C2663 1.539 . S
C2661 C2657 1.408 . S
C2661 C2660 1.404 . S
C2661 H2673 0.930 . S
C2662 C2658 1.524 . S
C2662 H2674 0.956 . S
C2662 H2675 0.961 . S
C2662 H2676 0.961 . S
C2663 C2660 1.539 . S
C2663 H2677 0.958 . S
C2663 H2678 0.961 . S
C2663 H2679 0.960 . S
H2664 C2648 0.931 . S
H2665 C2653 0.929 . S
H2666 C2654 0.960 . S
H2667 C2654 0.962 . S
H2668 C2654 0.960 . S
H2669 C2655 0.961 . S
H2670 C2655 0.961 . S
H2671 C2655 0.961 . S
H2672 C2656 0.931 . S
H2673 C2661 0.930 . S
H2674 C2662 0.956 . S
H2675 C2662 0.961 . S
H2676 C2662 0.961 . S
H2677 C2663 0.958 . S
H2678 C2663 0.961 . S
H2679 C2663 0.960 . S
C2680 C2681 1.391 . S
C2680 C2682 1.394 . S
C2680 H2696 0.931 1_455 S
C2681 C2680 1.391 . S
C2681 C2685 1.376 . S
C2682 C2680 1.394 . S
C2682 C2683 1.369 . S
C2682 C2686 1.531 . S
C2683 C2682 1.369 . S
C2683 C2684 1.410 . S
C2683 C2691 1.503 . S
C2684 C2683 1.410 . S
C2684 C2685 1.392 . S
C2684 C2687 1.511 . S
C2685 C2681 1.376 . S
C2685 C2684 1.392 . S
C2685 H2697 0.929 . S
C2686 C2682 1.531 . S
C2686 H2698 0.960 . S
C2686 H2699 0.961 1_455 S
C2686 H2700 0.960 1_455 S
C2687 C2684 1.511 . S
C2687 H2701 0.961 . S
C2687 H2702 0.961 . S
C2687 H2703 0.961 . S
C2688 C2689 1.370 . S
C2688 C2690 1.363 . S
C2688 H2704 0.931 . S
C2689 C2688 1.370 . S
C2689 C2693 1.408 . S
C2690 C2688 1.363 . S
C2690 C2691 1.370 . S
C2690 C2694 1.524 . S
C2691 C2683 1.503 . S
C2691 C2690 1.370 . S
C2691 C2692 1.403 . S
C2692 C2691 1.403 . S
C2692 C2693 1.404 . S
C2692 C2695 1.539 . S
C2693 C2689 1.408 . S
C2693 C2692 1.404 . S
C2693 H2705 0.930 . S
C2694 C2690 1.524 . S
C2694 H2706 0.956 . S
C2694 H2707 0.961 . S
C2694 H2708 0.961 . S
C2695 C2692 1.539 . S
C2695 H2709 0.958 . S
C2695 H2710 0.961 . S
C2695 H2711 0.960 . S
H2696 C2680 0.931 1_655 S
H2697 C2685 0.929 . S
H2698 C2686 0.960 . S
H2699 C2686 0.961 1_655 S
H2700 C2686 0.960 1_655 S
H2701 C2687 0.961 . S
H2702 C2687 0.961 . S
H2703 C2687 0.961 . S
H2704 C2688 0.931 . S
H2705 C2693 0.930 . S
H2706 C2694 0.956 . S
H2707 C2694 0.961 . S
H2708 C2694 0.961 . S
H2709 C2695 0.958 . S
H2710 C2695 0.961 . S
H2711 C2695 0.960 . S
C793 C21 0.795 . S
C801 C681 0.869 . S
C825 C582 0.910 1_556 S
C833 C54 0.834 . S
C857 C615 0.920 . S
C865 C87 0.825 . S
C889 C648 0.899 . S
C897 C120 0.840 . S
C921 C153 0.861 . S
C929 C780 0.840 . S
C953 C714 0.920 . S
C961 C186 0.826 . S
C985 C747 0.803 . S
C993 C219 0.878 1_655 S
C1017 C549 0.780 . S
C1025 C252 0.880 . S
C1049 C285 0.780 . S
C1057 C516 0.880 . S
C1081 C417 0.890 . S
C1089 C318 0.829 . S
C1113 C351 0.782 1_565 S
C1121 C450 0.882 . S
C1145 C483 0.780 . S
C1153 C384 0.879 . S
C1177 C634 1.492 . S
C1185 N13 1.211 . S
C1209 N46 1.198 . S
C1217 C667 1.496 . S
C1241 C568 1.499 . S
C1249 N79 1.201 1_565 S
C1273 N112 1.248 . S
C1281 C601 1.492 . S
C1305 C700 1.502 . S
C1313 N145 1.197 . S
C1337 C733 1.477 . S
C1345 N178 1.242 . S
C1369 C535 1.498 . S
C1377 N211 1.222 . S
C1401 N244 1.286 . S
C1409 C766 1.490 . S
C1433 N277 1.284 . S
C1441 C73 1.491 . S
C1465 N310 1.257 . S
C1473 C106 1.491 . S
C1497 N343 1.155 . S
C1505 C7 1.501 . S
C1529 C40 1.498 . S
C1537 N376 1.202 . S
C1561 N409 1.147 1_556 S
C1569 C205 1.504 . S
C1593 C238 1.488 . S
C1601 N442 1.239 . S
C1625 C139 1.510 . S
C1633 N475 1.192 . S
C1657 C172 1.486 . S
C1665 N508 1.241 . S
C1689 C403 1.509 . S
C1697 N541 1.196 . S
C1721 C271 1.509 . S
C1729 N574 1.191 . S
C1753 N607 1.147 . S
C1761 C304 1.503 . S
C1785 N640 1.262 1_655 S
C1793 C337 1.495 . S
C1817 C370 1.501 . S
C1825 N673 1.217 . S
C1849 N706 1.237 . S
C1857 C469 1.493 . S
C1881 C502 1.508 . S
C1889 N739 1.200 . S
C1913 N772 1.169 . S
C1921 C436 1.500 . S
C1945 C18 1.164 . S
C1953 C744 1.143 1_455 S
C1977 C546 1.162 . S
C1985 C51 1.138 1_554 S
C2009 C84 1.144 . S
C2017 C777 1.148 . S
C2041 C711 1.154 . S
C2049 C117 1.132 . S
C2073 C150 1.164 . S
C2081 C612 1.144 . S
C2105 C645 1.103 . S
C2113 C183 1.133 . S
C2137 C216 1.126 . S
C2145 C678 1.123 . S
C2169 C579 1.164 . S
C2177 C249 1.143 . S
C2201 C447 1.158 1_545 S
C2209 C282 1.148 . S
C2233 C480 1.159 . S
C2241 C315 1.135 . S
C2265 C348 1.113 . S
C2273 C513 1.140 . S
C2297 C381 1.152 . S
C2305 C414 1.149 . S
C2329 N497 0.504 . S
C2337 N2 0.543 . S
C2361 N35 0.617 . S
C2369 N398 0.631 . S
C2393 N431 0.469 . S
C2401 N68 0.565 . S
C2425 N464 0.548 . S
C2433 N101 0.537 . S
C2457 N134 0.659 . S
C2465 N299 0.629 . S
C2489 N332 0.652 . S
C2497 N167 0.630 . S
C2521 N200 0.470 . S
C2529 N365 0.578 . S
C2553 N266 0.662 . S
C2561 N233 0.629 . S
C2585 N662 0.692 . S
C2593 N530 0.585 . S
C2617 N761 0.500 . S
C2625 N563 0.544 . S
C2649 N695 0.538 . S
C2657 N596 0.618 . S
C2681 N728 0.691 . S
C2689 N629 0.615 . S
