# Generated by pormake.
# Topology acs-g, (3)-cn, num edge types: 1
# Building blocks:
#     Node 0, Type 0, BuildingBlock: WUSLED_clean_sbu_0, # of connection points: 3
#     Node 1, Type 0, BuildingBlock: WUSLED_clean_sbu_0, # of connection points: 3
#     Node 2, Type 0, BuildingBlock: WUSLED_clean_sbu_0, # of connection points: 3
#     Node 3, Type 0, BuildingBlock: WUSLED_clean_sbu_0, # of connection points: 3
#     Node 4, Type 0, BuildingBlock: WUSLED_clean_sbu_0, # of connection points: 3
#     Node 5, Type 0, BuildingBlock: WUSLED_clean_sbu_0, # of connection points: 3
#     Node 6, Type 0, BuildingBlock: WUSLED_clean_sbu_0, # of connection points: 3
#     Node 7, Type 0, BuildingBlock: WUSLED_clean_sbu_0, # of connection points: 3
#     Node 8, Type 0, BuildingBlock: WUSLED_clean_sbu_0, # of connection points: 3
#     Node 9, Type 0, BuildingBlock: WUSLED_clean_sbu_0, # of connection points: 3
#     Node 10, Type 0, BuildingBlock: WUSLED_clean_sbu_0, # of connection points: 3
#     Node 11, Type 0, BuildingBlock: WUSLED_clean_sbu_0, # of connection points: 3
#     Edge 12, Type (0, 0), BuildingBlock: MIFKUJ_clean_linker_0, # of connection points: 2
#     Edge 13, Type (0, 0), BuildingBlock: MIFKUJ_clean_linker_0, # of connection points: 2
#     Edge 14, Type (0, 0), BuildingBlock: MIFKUJ_clean_linker_0, # of connection points: 2
#     Edge 15, Type (0, 0), BuildingBlock: MIFKUJ_clean_linker_0, # of connection points: 2
#     Edge 16, Type (0, 0), BuildingBlock: MIFKUJ_clean_linker_0, # of connection points: 2
#     Edge 17, Type (0, 0), BuildingBlock: MIFKUJ_clean_linker_0, # of connection points: 2
#     Edge 18, Type (0, 0), BuildingBlock: MIFKUJ_clean_linker_0, # of connection points: 2
#     Edge 19, Type (0, 0), BuildingBlock: MIFKUJ_clean_linker_0, # of connection points: 2
#     Edge 20, Type (0, 0), BuildingBlock: MIFKUJ_clean_linker_0, # of connection points: 2
#     Edge 21, Type (0, 0), BuildingBlock: MIFKUJ_clean_linker_0, # of connection points: 2
#     Edge 22, Type (0, 0), BuildingBlock: MIFKUJ_clean_linker_0, # of connection points: 2
#     Edge 23, Type (0, 0), BuildingBlock: MIFKUJ_clean_linker_0, # of connection points: 2
#     Edge 24, Type (0, 0), BuildingBlock: MIFKUJ_clean_linker_0, # of connection points: 2
#     Edge 25, Type (0, 0), BuildingBlock: MIFKUJ_clean_linker_0, # of connection points: 2
#     Edge 26, Type (0, 0), BuildingBlock: MIFKUJ_clean_linker_0, # of connection points: 2
#     Edge 27, Type (0, 0), BuildingBlock: MIFKUJ_clean_linker_0, # of connection points: 2
#     Edge 28, Type (0, 0), BuildingBlock: MIFKUJ_clean_linker_0, # of connection points: 2
#     Edge 29, Type (0, 0), BuildingBlock: MIFKUJ_clean_linker_0, # of connection points: 2
# Relax obj value: 0.022
# Max RMSD: 0.018
# Mean RMSD: 0.018
data_MOF--net-acs-g--node1-WUSLED_clean_sbu_0--edge1-MIFKUJ_clean_linker_0
_symmetry_space_group_name_H-M    P1
_symmetry_Int_Tables_number       1
_symmetry_cell_setting            triclinic
loop_
_symmetry_equiv_pos_as_xyz
'x, y, z'
_cell_length_a     88.012894
_cell_length_b     87.867185
_cell_length_c     74.473053
_cell_angle_alpha  90.312603
_cell_angle_beta   89.79069
_cell_angle_gamma 119.84064
loop_
_atom_site_label
_atom_site_type_symbol
_atom_site_fract_x
_atom_site_fract_y
_atom_site_fract_z
_atom_type_partial_charge
C0 C 0.30895 0.37104 0.21782 0.0
C1 C 0.31044 0.38171 0.23267 0.0
C2 C 0.27834 0.36691 0.23566 0.0
C3 C 0.29527 0.37959 0.24157 0.0
C4 C 0.27718 0.35579 0.22139 0.0
C5 C 0.29219 0.35788 0.21263 0.0
U6 U 0.35813 0.38886 0.20089 0.0
O7 O 0.36706 0.37395 0.18402 0.0
O8 O 0.36719 0.39716 0.17317 0.0
C9 C 0.37035 0.38426 0.17009 0.0
C10 C 0.32395 0.37382 0.20622 0.0
C11 C 0.36631 0.37623 0.15184 0.0
C12 C 0.34781 0.36491 0.12516 0.0
C13 C 0.35003 0.37017 0.14335 0.0
C14 C 0.37774 0.37088 0.12404 0.0
C15 C 0.36178 0.36551 0.11519 0.0
C16 C 0.37997 0.37622 0.14206 0.0
C17 C 0.39868 0.42153 0.23112 0.0
C18 C 0.43041 0.43729 0.22617 0.0
C19 C 0.41832 0.44362 0.25249 0.0
C20 C 0.40147 0.431 0.24713 0.0
C21 C 0.43305 0.44732 0.24195 0.0
C22 C 0.41332 0.42454 0.22074 0.0
C23 C 0.38019 0.40941 0.22583 0.0
O24 O 0.33335 0.38927 0.19872 0.0
O25 O 0.33325 0.36647 0.21074 0.0
O26 O 0.37469 0.39251 0.22465 0.0
O27 O 0.37337 0.41491 0.21357 0.0
H28 H 0.32323 0.39195 0.23702 0.0
H29 H 0.2968 0.38838 0.25254 0.0
H30 H 0.26455 0.34555 0.21668 0.0
H31 H 0.29062 0.34943 0.20129 0.0
H32 H 0.33528 0.36066 0.11878 0.0
H33 H 0.33924 0.36999 0.15059 0.0
H34 H 0.38882 0.3717 0.11679 0.0
H35 H 0.39269 0.38096 0.14822 0.0
H36 H 0.44143 0.43975 0.21771 0.0
H37 H 0.41977 0.45072 0.26488 0.0
H38 H 0.39045 0.42887 0.25544 0.0
H39 H 0.41154 0.41735 0.20833 0.0
C40 C 0.95338 0.30066 0.71838 0.0
C41 C 0.94423 0.303 0.73268 0.0
C42 C 0.92707 0.27108 0.73747 0.0
C43 C 0.93124 0.28836 0.74214 0.0
C44 C 0.93671 0.26902 0.72347 0.0
C45 C 0.94962 0.28356 0.71413 0.0
U46 U 0.98478 0.34943 0.70119 0.0
O47 O 1.00828 0.35805 0.68408 0.0
O48 O 0.98533 0.35871 0.67361 0.0
C49 C 1.00129 0.36176 0.67041 0.0
C50 C 0.96564 0.31518 0.70639 0.0
C51 C 1.00545 0.35863 0.65184 0.0
C52 C 1.00583 0.34035 0.62711 0.0
C53 C 1.00181 0.34215 0.64514 0.0
C54 C 1.01702 0.37133 0.62249 0.0
C55 C 1.01349 0.35498 0.61543 0.0
C56 C 1.01318 0.3731 0.64034 0.0
C57 C 0.99221 0.39028 0.73107 0.0
C58 C 1.00989 0.42215 0.72724 0.0
C59 C 0.98769 0.41021 0.75037 0.0
C60 C 0.98356 0.39322 0.74537 0.0
C61 C 1.00068 0.42496 0.74126 0.0
C62 C 1.00562 0.40492 0.7221 0.0
C63 C 0.9862 0.37167 0.72609 0.0
O64 O 0.95973 0.32465 0.69872 0.0
O65 O 0.98224 0.32445 0.71098 0.0
O66 O 0.99778 0.3664 0.72482 0.0
O67 O 0.97371 0.36443 0.71404 0.0
H68 H 0.94683 0.31604 0.73626 0.0
H69 H 0.92433 0.2906 0.75297 0.0
H70 H 0.93382 0.25607 0.71914 0.0
H71 H 0.95633 0.28134 0.70307 0.0
H72 H 1.00298 0.32752 0.62241 0.0
H73 H 0.99583 0.33073 0.65374 0.0
H74 H 1.02236 0.3829 0.61415 0.0
H75 H 1.01607 0.38593 0.64513 0.0
H76 H 1.01996 0.4332 0.7199 0.0
H77 H 0.98053 0.41179 0.7614 0.0
H78 H 0.97329 0.38222 0.75261 0.0
H79 H 1.01255 0.40306 0.71103 0.0
C80 C 0.6687 0.94507 0.21746 0.0
C81 C 0.6581 0.93711 0.2326 0.0
C82 C 0.67149 0.91865 0.2366 0.0
C83 C 0.65943 0.92392 0.24204 0.0
C84 C 0.6824 0.92707 0.22186 0.0
C85 C 0.68096 0.94003 0.21239 0.0
U86 U 0.65168 0.9769 0.20076 0.0
O87 O 0.66676 1.00059 0.18402 0.0
O88 O 0.64307 0.97793 0.17327 0.0
C89 C 0.65609 0.99383 0.17025 0.0
C90 C 0.66663 0.95753 0.20562 0.0
C91 C 0.66336 0.99782 0.15172 0.0
C92 C 0.68179 0.99764 0.12709 0.0
C93 C 0.67647 0.99442 0.14529 0.0
C94 C 0.66124 1.00783 0.12184 0.0
C95 C 0.67392 1.00405 0.11511 0.0
C96 C 0.65612 1.00484 0.13986 0.0
C97 C 0.61848 0.98462 0.2303 0.0
C98 C 0.60137 0.99893 0.22347 0.0
C99 C 0.5971 0.98393 0.25173 0.0
C100 C 0.60989 0.97962 0.24691 0.0
C101 C 0.59246 0.99357 0.24011 0.0
C102 C 0.61423 0.99447 0.21859 0.0
C103 C 0.63075 0.97814 0.22558 0.0
O104 O 0.65137 0.95178 0.1978 0.0
O105 O 0.67391 0.97408 0.21056 0.0
O106 O 0.64762 0.98952 0.22474 0.0
O107 O 0.62557 0.96588 0.21319 0.0
H108 H 0.64855 0.94075 0.23683 0.0
H109 H 0.65089 0.91766 0.2534 0.0
H110 H 0.69164 0.92315 0.21724 0.0
H111 H 0.68916 0.94581 0.20068 0.0
H112 H 0.69157 0.99455 0.12225 0.0
H113 H 0.68229 0.98902 0.15416 0.0
H114 H 0.65503 1.01288 0.11302 0.0
H115 H 0.6461 1.00768 0.14447 0.0
H116 H 0.5984 1.00652 0.21417 0.0
H117 H 0.59045 0.97914 0.26443 0.0
H118 H 0.61279 0.9719 0.25613 0.0
H119 H 0.62063 0.99848 0.20565 0.0
C120 C 0.7392 0.65852 0.72312 0.0
C121 C 0.73957 0.65361 0.74097 0.0
C122 C 0.77087 0.6639 0.73827 0.0
C123 C 0.75538 0.65635 0.74853 0.0
C124 C 0.77046 0.66914 0.72062 0.0
C125 C 0.75479 0.66654 0.71316 0.0
U126 U 0.69119 0.64426 0.70209 0.0
O127 O 0.68932 0.66346 0.68442 0.0
O128 O 0.68844 0.63967 0.67273 0.0
C129 C 0.68848 0.65443 0.66993 0.0
C130 C 0.72283 0.65456 0.71389 0.0
C131 C 0.68695 0.66017 0.65178 0.0
C132 C 0.70052 0.67762 0.62502 0.0
C133 C 0.70155 0.67379 0.64312 0.0
C134 C 0.67006 0.65483 0.62441 0.0
C135 C 0.68482 0.66794 0.61529 0.0
C136 C 0.67118 0.65088 0.64236 0.0
C137 C 0.6459 0.61024 0.72729 0.0
C138 C 0.61415 0.59444 0.72339 0.0
C139 C 0.62707 0.58758 0.74849 0.0
C140 C 0.64372 0.60041 0.74284 0.0
C141 C 0.61214 0.58432 0.73877 0.0
C142 C 0.63098 0.60734 0.71763 0.0
C143 C 0.6641 0.62247 0.7215 0.0
O144 O 0.71392 0.64012 0.70445 0.0
O145 O 0.71442 0.66303 0.71775 0.0
O146 O 0.67051 0.63956 0.72199 0.0
O147 O 0.67167 0.61722 0.70972 0.0
H148 H 0.72764 0.6473 0.74885 0.0
H149 H 0.75541 0.65206 0.76214 0.0
H150 H 0.78222 0.67491 0.71246 0.0
H151 H 0.75476 0.67038 0.69937 0.0
H152 H 0.71224 0.68765 0.61851 0.0
H153 H 0.71393 0.681 0.65011 0.0
H154 H 0.65762 0.64735 0.6176 0.0
H155 H 0.65978 0.64031 0.64881 0.0
H156 H 0.60278 0.59203 0.71562 0.0
H157 H 0.62587 0.57989 0.76029 0.0
H158 H 0.65503 0.60238 0.75045 0.0
H159 H 0.63234 0.61473 0.70555 0.0
C160 C 0.09503 0.73145 0.21698 0.0
C161 C 0.09866 0.7301 0.23515 0.0
C162 C 0.12181 0.76109 0.23555 0.0
C163 C 0.11189 0.74488 0.2444 0.0
C164 C 0.11775 0.76232 0.21759 0.0
C165 C 0.10455 0.74778 0.20852 0.0
U166 U 0.06251 0.68217 0.2009 0.0
O167 O 0.0386 0.67338 0.18441 0.0
O168 O 0.06131 0.67268 0.17322 0.0
C169 C 0.04536 0.66977 0.17036 0.0
C170 C 0.08205 0.71645 0.20583 0.0
C171 C 0.04137 0.67373 0.15212 0.0
C172 C 0.04881 0.69184 0.12514 0.0
C173 C 0.05189 0.68977 0.14332 0.0
C174 C 0.02426 0.66223 0.1246 0.0
C175 C 0.0351 0.67795 0.11546 0.0
C176 C 0.0274 0.66016 0.14262 0.0
C177 C 0.05535 0.64176 0.23107 0.0
C178 C 0.0381 0.60982 0.22744 0.0
C179 C 0.05937 0.62236 0.25136 0.0
C180 C 0.06351 0.6392 0.24595 0.0
C181 C 0.04688 0.60738 0.24204 0.0
C182 C 0.04237 0.6269 0.22192 0.0
C183 C 0.06144 0.66022 0.22568 0.0
O184 O 0.08756 0.70683 0.19761 0.0
O185 O 0.06569 0.70732 0.21127 0.0
O186 O 0.04999 0.66567 0.22481 0.0
O187 O 0.07355 0.667 0.21317 0.0
H188 H 0.09152 0.71767 0.24204 0.0
H189 H 0.11476 0.74349 0.25823 0.0
H190 H 0.12502 0.7746 0.21043 0.0
H191 H 0.10199 0.74925 0.1946 0.0
H192 H 0.0573 0.7042 0.11857 0.0
H193 H 0.06275 0.70048 0.15031 0.0
H194 H 1.01376 0.6512 0.11759 0.0
H195 H 1.0192 0.6476 0.14899 0.0
H196 H 0.02841 0.59859 0.21993 0.0
H197 H 0.06617 0.62107 0.26283 0.0
H198 H 0.07344 0.65039 0.25334 0.0
H199 H 0.0358 0.62848 0.21041 0.0
C200 C 0.37957 0.08711 0.71648 0.0
C201 C 0.38525 0.09165 0.73438 0.0
C202 C 0.37659 0.11428 0.7343 0.0
C203 C 0.38364 0.10507 0.74328 0.0
C204 C 0.37045 0.10917 0.71667 0.0
C205 C 0.37189 0.09581 0.70796 0.0
U206 U 0.39696 0.05488 0.70061 0.0
O207 O 0.38193 0.03086 0.68412 0.0
O208 O 0.40508 0.05366 0.67289 0.0
C209 C 0.39212 0.03767 0.67002 0.0
C210 C 0.38188 0.07416 0.70555 0.0
C211 C 0.38397 0.03376 0.65189 0.0
C212 C 0.37204 0.04083 0.62564 0.0
C213 C 0.37753 0.04384 0.64374 0.0
C214 C 0.37883 0.01737 0.62388 0.0
C215 C 0.37289 0.0277 0.61535 0.0
C216 C 0.38426 0.02037 0.64183 0.0
C217 C 0.43068 0.04793 0.72995 0.0
C218 C 0.44595 0.03138 0.72477 0.0
C219 C 0.45346 0.05069 0.75047 0.0
C220 C 0.44082 0.05507 0.74542 0.0
C221 C 0.45636 0.03878 0.74031 0.0
C222 C 0.43325 0.03592 0.71963 0.0
C223 C 0.41824 0.05411 0.7251 0.0
O224 O 0.39698 0.07981 0.69737 0.0
O225 O 0.37494 0.05785 0.7111 0.0
O226 O 0.40139 0.04262 0.72445 0.0
O227 O 0.42325 0.06619 0.71264 0.0
H228 H 0.39119 0.08512 0.74131 0.0
H229 H 0.38848 0.10867 0.75688 0.0
H230 H 0.36471 0.11574 0.70945 0.0
H231 H 0.36729 0.09251 0.69425 0.0
H232 H 0.36735 0.04892 0.61964 0.0
H233 H 0.37716 0.05427 0.65119 0.0
H234 H 0.38001 1.00737 0.61647 0.0
H235 H 0.38932 1.01253 0.64771 0.0
H236 H 0.44756 0.02205 0.7166 0.0
H237 H 0.46131 0.05715 0.76219 0.0
H238 H 0.4392 0.06442 0.75357 0.0
H239 H 0.42559 0.0302 0.70759 0.0
C240 C 0.6634 0.72832 0.3099 0.0
C241 C 0.65902 0.73065 0.29249 0.0
C242 C 0.67107 0.76203 0.29762 0.0
C243 C 0.66279 0.74717 0.28642 0.0
C244 C 0.67633 0.75991 0.31493 0.0
C245 C 0.67242 0.74314 0.32109 0.0
U246 U 0.65154 0.68313 0.33573 0.0
O247 O 0.67367 0.68699 0.353 0.0
O248 O 0.65061 0.68676 0.36493 0.0
C249 C 0.66617 0.68856 0.36765 0.0
C250 C 0.65694 0.70994 0.31566 0.0
C251 C 0.67007 0.68349 0.38529 0.0
C252 C 0.68888 0.69361 0.41166 0.0
C253 C 0.68544 0.69588 0.39389 0.0
C254 C 0.66182 0.66587 0.41264 0.0
C255 C 0.67686 0.67893 0.42166 0.0
C256 C 0.65844 0.66814 0.39462 0.0
C257 C 0.61859 0.63596 0.31282 0.0
C258 C 0.60301 0.60422 0.30862 0.0
C259 C 0.59441 0.62197 0.29145 0.0
C260 C 0.60775 0.63724 0.29979 0.0
C261 C 0.59162 0.60518 0.29609 0.0
C262 C 0.61629 0.61936 0.31677 0.0
C263 C 0.63093 0.65082 0.32436 0.0
O264 O 0.64421 0.70271 0.32749 0.0
O265 O 0.66722 0.70306 0.31515 0.0
O266 O 0.64783 0.65948 0.32091 0.0
O267 O 0.62523 0.65994 0.33327 0.0
H268 H 0.65214 0.71947 0.2836 0.0
H269 H 0.65892 0.74821 0.2729 0.0
H270 H 0.68279 0.77105 0.32394 0.0
H271 H 0.67603 0.74173 0.33461 0.0
H272 H 0.70093 0.70371 0.41759 0.0
H273 H 0.69463 0.70781 0.38701 0.0
H274 H 0.65222 0.65428 0.41966 0.0
H275 H 0.64648 0.65829 0.38826 0.0
H276 H 0.60121 0.59164 0.31281 0.0
H277 H 0.58608 0.62326 0.28162 0.0
H278 H 0.60924 0.6499 0.29644 0.0
H279 H 0.62435 0.61801 0.3269 0.0
C280 C 0.95298 0.66076 0.82005 0.0
C281 C 0.94738 0.65335 0.80287 0.0
C282 C 0.92712 0.66505 0.80125 0.0
C283 C 0.93462 0.65552 0.79354 0.0
C284 C 0.93303 0.67244 0.81841 0.0
C285 C 0.94576 0.67041 0.82753 0.0
U286 U 0.98496 0.64345 0.83621 0.0
O287 O 1.00884 0.65863 0.85268 0.0
O288 O 0.98609 0.63545 0.86394 0.0
C289 C 1.00207 0.64842 0.86674 0.0
C290 C 0.9656 0.65837 0.83129 0.0
C291 C 1.00621 0.65653 0.88497 0.0
C292 C 1.00095 0.67049 0.91094 0.0
C293 C 0.99753 0.66466 0.8929 0.0
C294 C 1.02194 0.66045 0.91309 0.0
C295 C 1.01307 0.66823 0.92142 0.0
C296 C 1.01859 0.65477 0.8952 0.0
C297 C 0.99246 0.61012 0.80619 0.0
C298 C 1.00779 0.59372 0.81167 0.0
C299 C 0.99025 0.5879 0.78492 0.0
C300 C 0.98618 0.6008 0.79005 0.0
C301 C 1.00077 0.58382 0.79578 0.0
C302 C 1.00358 0.60671 0.8169 0.0
C303 C 0.98614 0.62242 0.81139 0.0
O304 O 0.95986 0.64313 0.83916 0.0
O305 O 0.98203 0.66554 0.82611 0.0
O306 O 0.99749 0.63932 0.81223 0.0
O307 O 0.97404 0.6172 0.82391 0.0
H308 H 0.95272 0.64579 0.79677 0.0
H309 H 0.93066 0.64972 0.78031 0.0
H310 H 0.92746 0.67943 0.82524 0.0
H311 H 0.94974 0.67616 0.8408 0.0
H312 H 0.99399 0.67661 0.91669 0.0
H313 H 0.98791 0.66621 0.88531 0.0
H314 H 0.03107 0.65807 0.92057 0.0
H315 H 0.02537 0.64843 0.88948 0.0
H316 H 1.01597 0.591 0.82037 0.0
H317 H 0.9849 0.58093 0.77242 0.0
H318 H 0.9777 0.60324 0.78148 0.0
H319 H 1.00867 0.61375 0.82942 0.0
C320 C 0.30831 0.94371 0.31775 0.0
C321 C 0.30907 0.9396 0.29957 0.0
C322 C 0.27749 0.9177 0.29971 0.0
C323 C 0.29381 0.92673 0.29064 0.0
C324 C 0.27713 0.92204 0.31789 0.0
C325 C 0.29216 0.93482 0.32662 0.0
U326 U 0.35743 0.97671 0.33521 0.0
O327 O 0.36467 1.00011 0.35232 0.0
O328 O 0.36539 0.97736 0.36335 0.0
C329 C 0.36804 0.99324 0.36634 0.0
C330 C 0.3236 0.95665 0.3286 0.0
C331 C 0.36453 0.99748 0.38475 0.0
C332 C 0.34619 0.99222 0.41137 0.0
C333 C 0.34798 0.98892 0.39309 0.0
C334 C 0.37723 1.01295 0.41288 0.0
C335 C 0.3609 1.00413 0.42159 0.0
C336 C 0.37898 1.00967 0.3948 0.0
C337 C 0.39974 0.98544 0.30698 0.0
C338 C 0.43134 1.00125 0.31281 0.0
C339 C 0.42012 0.98375 0.28587 0.0
C340 C 0.40308 0.97927 0.29091 0.0
C341 C 0.43463 0.99477 0.29667 0.0
C342 C 0.41405 0.99661 0.31794 0.0
C343 C 0.38103 0.97892 0.3117 0.0
O344 O 0.33305 0.95114 0.33698 0.0
O345 O 0.33267 0.97314 0.32354 0.0
O346 O 0.37515 0.99006 0.31223 0.0
O347 O 0.37388 0.96657 0.32389 0.0
H348 H 0.32137 0.94623 0.29233 0.0
H349 H 0.2948 0.92395 0.27664 0.0
H350 H 0.26525 0.91527 0.32574 0.0
H351 H 0.29117 0.93762 0.34063 0.0
H352 H 0.33336 0.98532 0.41755 0.0
H353 H 0.33658 0.97944 0.38566 0.0
H354 H 0.38891 0.02197 0.42023 0.0
H355 H 0.3919 0.01632 0.38877 0.0
H356 H 0.44208 1.00988 0.32149 0.0
H357 H 0.42176 0.97801 0.27364 0.0
H358 H 0.39232 0.97055 0.28227 0.0
H359 H 0.41188 1.00157 0.33046 0.0
C360 C 0.37982 0.3011 0.81957 0.0
C361 C 0.39009 0.30238 0.80453 0.0
C362 C 0.37519 0.27006 0.8017 0.0
C363 C 0.38785 0.28707 0.79575 0.0
C364 C 0.36437 0.26925 0.81618 0.0
C365 C 0.36683 0.28441 0.82502 0.0
U366 U 0.39747 0.35058 0.83609 0.0
O367 O 0.38231 0.35929 0.8528 0.0
O368 O 0.40564 0.35983 0.86383 0.0
C369 C 0.39262 0.36281 0.86678 0.0
C370 C 0.38268 0.31633 0.83093 0.0
C371 C 0.38465 0.35889 0.88502 0.0
C372 C 0.37038 0.33958 0.91063 0.0
C373 C 0.37616 0.342 0.89259 0.0
C374 C 0.38118 0.37072 0.91347 0.0
C375 C 0.37302 0.35399 0.92144 0.0
C376 C 0.38682 0.37308 0.8956 0.0
C377 C 0.42966 0.39143 0.80614 0.0
C378 C 0.44874 0.4226 0.81305 0.0
C379 C 0.44845 0.41178 0.78308 0.0
C380 C 0.43581 0.39489 0.78841 0.0
C381 C 0.45559 0.42588 0.79538 0.0
C382 C 0.43594 0.40553 0.81839 0.0
C383 C 0.4179 0.37277 0.81122 0.0
O384 O 0.39815 0.3259 0.83835 0.0
O385 O 0.37524 0.3255 0.82628 0.0
O386 O 0.40095 0.36686 0.81212 0.0
O387 O 0.4235 0.36619 0.82365 0.0
H388 H 0.40014 0.31514 0.7999 0.0
H389 H 0.39653 0.28877 0.7847 0.0
H390 H 0.35386 0.25693 0.82103 0.0
H391 H 0.35864 0.28301 0.83651 0.0
H392 H 0.36398 0.32645 0.91612 0.0
H393 H 0.37429 0.3308 0.88472 0.0
H394 H 0.38386 0.38224 0.92123 0.0
H395 H 0.39343 0.38624 0.89014 0.0
H396 H 0.45377 0.43304 0.82295 0.0
H397 H 0.45282 0.41367 0.76925 0.0
H398 H 0.43116 0.38431 0.77866 0.0
H399 H 0.43135 0.40326 0.83216 0.0
C400 C 0.09537 0.372 0.31783 0.0
C401 C 0.10144 0.37935 0.30071 0.0
C402 C 0.12248 0.36859 0.30048 0.0
C403 C 0.11483 0.37754 0.29204 0.0
C404 C 0.11574 0.36078 0.31722 0.0
C405 C 0.10247 0.36247 0.3257 0.0
U406 U 0.06241 0.3883 0.33533 0.0
O407 O 0.03932 0.37221 0.35261 0.0
O408 O 0.06179 0.39616 0.36338 0.0
C409 C 0.04608 0.38285 0.36646 0.0
C410 C 0.08252 0.37444 0.32881 0.0
C411 C 0.04168 0.37593 0.3851 0.0
C412 C 0.03974 0.35701 0.41012 0.0
C413 C 0.04365 0.36206 0.39189 0.0
C414 C 0.03158 0.37928 0.4146 0.0
C415 C 0.03399 0.36589 0.42178 0.0
C416 C 0.03536 0.38419 0.39663 0.0
C417 C 0.05423 0.42201 0.3065 0.0
C418 C 0.03838 0.4381 0.31103 0.0
C419 C 0.058 0.44502 0.28575 0.0
C420 C 0.06174 0.43199 0.29103 0.0
C421 C 0.04658 0.44861 0.2958 0.0
C422 C 0.04226 0.42497 0.31643 0.0
C423 C 0.06024 0.4095 0.31172 0.0
O424 O 0.08802 0.38953 0.33705 0.0
O425 O 0.06602 0.36695 0.32381 0.0
O426 O 0.04892 0.39259 0.31242 0.0
O427 O 0.07262 0.41471 0.32388 0.0
H428 H 0.09617 0.38674 0.29427 0.0
H429 H 0.11963 0.38368 0.27911 0.0
H430 H 0.12096 0.35349 0.32399 0.0
H431 H 0.09799 0.35659 0.3388 0.0
H432 H 0.04175 0.34663 0.41523 0.0
H433 H 0.04843 0.35538 0.38328 0.0
H434 H 0.02692 0.38621 0.42302 0.0
H435 H 0.03355 0.39478 0.39174 0.0
H436 H 0.02947 0.44045 0.31908 0.0
H437 H 0.06429 0.45248 0.27378 0.0
H438 H 0.0709 0.42994 0.28307 0.0
H439 H 0.03622 0.41743 0.32843 0.0
C440 C 0.73961 0.08805 0.81716 0.0
C441 C 0.73765 0.09703 0.80254 0.0
C442 C 0.76969 0.11459 0.7988 0.0
C443 C 0.75254 0.11013 0.79344 0.0
C444 C 0.77136 0.10509 0.81308 0.0
C445 C 0.7566 0.09207 0.82204 0.0
U446 U 0.69091 0.05602 0.8354 0.0
O447 O 0.68361 0.03298 0.85282 0.0
O448 O 0.68252 0.0558 0.8634 0.0
C449 C 0.67996 0.04002 0.86662 0.0
C450 C 0.72485 0.07574 0.82892 0.0
C451 C 0.68301 0.03598 0.88523 0.0
C452 C 0.70092 0.03523 0.90996 0.0
C453 C 0.69928 0.03907 0.89185 0.0
C454 C 0.67019 0.02512 0.91474 0.0
C455 C 0.68632 0.02819 0.92171 0.0
C456 C 0.66859 0.0289 0.89688 0.0
C457 C 0.64876 0.0467 0.80686 0.0
C458 C 0.61752 0.03336 0.81406 0.0
C459 C 0.62801 0.0462 0.78484 0.0
C460 C 0.64506 0.05057 0.78974 0.0
C461 C 0.61388 0.03764 0.79689 0.0
C462 C 0.63478 0.03787 0.81901 0.0
C463 C 0.66754 0.05343 0.81149 0.0
O464 O 0.71532 0.08156 0.83675 0.0
O465 O 0.71578 0.05903 0.82451 0.0
O466 O 0.67346 0.04234 0.81228 0.0
O467 O 0.67463 0.06599 0.82357 0.0
H468 H 0.72471 0.09421 0.79843 0.0
H469 H 0.75061 0.1169 0.78234 0.0
H470 H 0.78416 0.10818 0.81793 0.0
H471 H 0.75853 0.08551 0.83334 0.0
H472 H 0.71357 0.03771 0.91472 0.0
H473 H 0.71066 0.0445 0.88315 0.0
H474 H 0.6587 0.02017 0.92323 0.0
H475 H 0.65593 0.02644 0.89217 0.0
H476 H 0.60706 0.02661 0.82371 0.0
H477 H 0.62608 0.05014 0.7717 0.0
H478 H 0.65556 0.0575 0.78016 0.0
H479 H 0.63723 0.03472 0.83234 0.0
H480 H 0.2703 0.37108 0.27099 0.0
H481 H 0.2433 0.36958 0.28229 0.0
H482 H 0.22183 0.35806 0.22875 0.0
H483 H 0.24877 0.36047 0.21739 0.0
H484 H 0.2155 0.38057 0.24131 0.0
H485 H 0.20794 0.32674 0.26593 0.0
H486 H 0.21405 0.307 0.2841 0.0
H487 H 0.21499 0.33488 0.33199 0.0
H488 H 0.20911 0.35491 0.3141 0.0
H489 H 0.12845 0.36151 0.26552 0.0
H490 H 0.15356 0.35921 0.25427 0.0
H491 H 0.17692 0.37239 0.30696 0.0
H492 H 0.15193 0.37431 0.31819 0.0
H493 H 0.18139 0.34766 0.29458 0.0
H494 H 0.18977 0.40198 0.26895 0.0
H495 H 0.18209 0.42035 0.25041 0.0
H496 H 0.17873 0.38997 0.20368 0.0
H497 H 0.18612 0.37125 0.222 0.0
C498 C 0.25985 0.36831 0.26162 0.0
C499 C 0.26186 0.36577 0.24322 0.0
C500 C 0.24424 0.3672 0.26816 0.0
C501 C 0.2302 0.36348 0.25648 0.0
C502 C 0.23226 0.3609 0.23818 0.0
C503 C 0.24777 0.36211 0.23168 0.0
C504 C 0.21382 0.36338 0.2627 0.0
C505 C 0.20796 0.3731 0.25284 0.0
C506 C 0.20395 0.35403 0.27798 0.0
C507 C 0.20833 0.3425 0.28862 0.0
C508 C 0.2097 0.32882 0.2803 0.0
C509 C 0.21305 0.31753 0.29056 0.0
C510 C 0.21497 0.31972 0.30917 0.0
C511 C 0.21356 0.33322 0.31757 0.0
C512 C 0.21022 0.34455 0.30737 0.0
C513 C 0.13902 0.36404 0.27465 0.0
C514 C 0.13806 0.36805 0.29282 0.0
C515 C 0.15343 0.36273 0.2682 0.0
C516 C 0.16741 0.36576 0.27968 0.0
C517 C 0.16641 0.36985 0.29775 0.0
C518 C 0.15203 0.37098 0.30419 0.0
C519 C 0.18321 0.36488 0.27319 0.0
C520 C 0.18895 0.35502 0.28302 0.0
C521 C 0.19295 0.37399 0.2578 0.0
C522 C 0.18828 0.3851 0.24689 0.0
C523 C 0.18723 0.39913 0.25475 0.0
C524 C 0.18295 0.40961 0.24428 0.0
C525 C 0.17987 0.4063 0.22589 0.0
C526 C 0.18107 0.3925 0.21793 0.0
C527 C 0.18529 0.38195 0.22836 0.0
H528 H 0.1766 0.41446 0.2178 0.0
H529 H 0.2175 0.31093 0.3171 0.0
H530 H 0.77471 0.14655 0.78706 0.0
H531 H 0.80175 0.17191 0.77664 0.0
H532 H 0.82876 0.14248 0.78135 0.0
H533 H 0.80176 0.11709 0.79188 0.0
H534 H 0.84916 0.17306 0.79414 0.0
H535 H 0.81833 0.15426 0.73904 0.0
H536 H 0.79366 0.14469 0.71794 0.0
H537 H 0.79486 0.1938 0.72505 0.0
H538 H 0.81943 0.2036 0.74632 0.0
H539 H 0.92479 0.23933 0.74582 0.0
H540 H 0.89922 0.21241 0.75634 0.0
H541 H 0.86973 0.23944 0.75971 0.0
H542 H 0.89506 0.26628 0.74872 0.0
H543 H 0.85159 0.20883 0.74182 0.0
H544 H 0.88433 0.2268 0.79757 0.0
H545 H 0.90945 0.23461 0.81758 0.0
H546 H 0.90582 0.18484 0.80691 0.0
H547 H 0.88082 0.17682 0.78665 0.0
C548 C 0.78627 0.14528 0.78558 0.0
C549 C 0.78585 0.1296 0.79046 0.0
C550 C 0.80187 0.15991 0.77959 0.0
C551 C 0.81752 0.1593 0.77801 0.0
C552 C 0.81704 0.14353 0.7825 0.0
C553 C 0.80148 0.12893 0.78856 0.0
C554 C 0.83441 0.17521 0.77224 0.0
C555 C 0.84969 0.1807 0.78252 0.0
C556 C 0.8354 0.18543 0.75713 0.0
C557 C 0.8206 0.17959 0.7444 0.0
C558 C 0.81324 0.16296 0.7362 0.0
C559 C 0.7993 0.15751 0.72419 0.0
C560 C 0.79267 0.16861 0.7202 0.0
C561 C 0.8 0.18521 0.72817 0.0
C562 C 0.81395 0.19073 0.74018 0.0
C563 C 0.9129 0.23963 0.74882 0.0
C564 C 0.91212 0.25514 0.74617 0.0
C565 C 0.89826 0.22417 0.75504 0.0
C566 C 0.88239 0.22373 0.75889 0.0
C567 C 0.88174 0.23931 0.75683 0.0
C568 C 0.89637 0.25478 0.75066 0.0
C569 C 0.86616 0.20692 0.76398 0.0
C570 C 0.85103 0.20118 0.75345 0.0
C571 C 0.8655 0.19628 0.77858 0.0
C572 C 0.88082 0.2013 0.79042 0.0
C573 C 0.88901 0.2176 0.79932 0.0
C574 C 0.9032 0.22204 0.81076 0.0
C575 C 0.90926 0.21025 0.81348 0.0
C576 C 0.90114 0.19398 0.80477 0.0
C577 C 0.88696 0.18948 0.79331 0.0
H578 H 0.92021 0.21369 0.82237 0.0
H579 H 0.78187 0.16436 0.7109 0.0
H580 H 0.69891 0.79578 0.30267 0.0
H581 H 0.70146 0.82345 0.29226 0.0
H582 H 0.6504 0.79474 0.26787 0.0
H583 H 0.64772 0.7673 0.27822 0.0
H584 H 0.67225 0.82043 0.24596 0.0
H585 H 0.65694 0.81562 0.30893 0.0
H586 H 0.66157 0.81198 0.3409 0.0
H587 H 0.71164 0.85916 0.33944 0.0
H588 H 0.70741 0.86294 0.30736 0.0
H589 H 0.64621 0.88417 0.23609 0.0
H590 H 0.6484 0.85888 0.24656 0.0
H591 H 0.70041 0.89377 0.26648 0.0
H592 H 0.69832 0.9191 0.25567 0.0
H593 H 0.68126 0.86659 0.29024 0.0
H594 H 0.69653 0.87242 0.22815 0.0
H595 H 0.69328 0.87579 0.19577 0.0
H596 H 0.64465 0.827 0.19523 0.0
H597 H 0.64755 0.82341 0.22767 0.0
C598 C 0.68819 0.79537 0.29518 0.0
C599 C 0.6731 0.77919 0.29135 0.0
C600 C 0.68968 0.81122 0.28916 0.0
C601 C 0.67605 0.8113 0.27935 0.0
C602 C 0.66116 0.79515 0.27529 0.0
C603 C 0.65968 0.77938 0.28125 0.0
C604 C 0.67678 0.82805 0.27382 0.0
C605 C 0.67407 0.83043 0.2557 0.0
C606 C 0.67962 0.84143 0.28634 0.0
C607 C 0.68192 0.8395 0.30574 0.0
C608 C 0.66896 0.82519 0.31542 0.0
C609 C 0.67151 0.82309 0.33355 0.0
C610 C 0.6869 0.83532 0.34219 0.0
C611 C 0.69973 0.8497 0.33272 0.0
C612 C 0.69726 0.85184 0.31457 0.0
C613 C 0.65799 0.88643 0.24295 0.0
C614 C 0.67204 0.9036 0.24516 0.0
C615 C 0.65931 0.87197 0.24881 0.0
C616 C 0.67466 0.87432 0.25717 0.0
C617 C 0.68846 0.89154 0.26003 0.0
C618 C 0.68725 0.90601 0.25388 0.0
C619 C 0.67636 0.85878 0.26244 0.0
C620 C 0.67954 0.85664 0.28049 0.0
C621 C 0.67403 0.84563 0.24984 0.0
C622 C 0.67217 0.84774 0.23036 0.0
C623 C 0.68507 0.86248 0.22115 0.0
C624 C 0.68332 0.86441 0.20278 0.0
C625 C 0.66874 0.85164 0.19346 0.0
C626 C 0.65592 0.83689 0.20248 0.0
C627 C 0.65763 0.83488 0.22085 0.0
H628 H 0.6674 0.85316 0.17924 0.0
H629 H 0.68887 0.83366 0.35622 0.0
H630 H 0.78392 0.64278 0.72941 0.0
H631 H 0.81114 0.64451 0.73976 0.0
H632 H 0.82202 0.68945 0.77256 0.0
H633 H 0.79461 0.68764 0.7621 0.0
H634 H 0.85134 0.69431 0.75504 0.0
H635 H 0.80801 0.64991 0.7924 0.0
H636 H 0.78016 0.62299 0.79906 0.0
H637 H 0.7963 0.59274 0.76702 0.0
H638 H 0.8242 0.61953 0.76004 0.0
H639 H 0.9202 0.6925 0.80349 0.0
H640 H 0.89467 0.69344 0.79296 0.0
H641 H 0.87632 0.64374 0.76607 0.0
H642 H 0.90106 0.64183 0.77812 0.0
H643 H 0.85035 0.64225 0.78174 0.0
H644 H 0.8944 0.68815 0.74425 0.0
H645 H 0.92146 0.71589 0.73751 0.0
H646 H 0.90366 0.74425 0.77036 0.0
H647 H 0.87658 0.71668 0.77741 0.0
C648 C 0.7921 0.65294 0.73892 0.0
C649 C 0.78713 0.66492 0.74518 0.0
C650 C 0.80763 0.65392 0.74486 0.0
C651 C 0.81859 0.66696 0.75716 0.0
C652 C 0.81377 0.6792 0.76317 0.0
C653 C 0.7981 0.67811 0.75731 0.0
C654 C 0.83499 0.66767 0.76364 0.0
C655 C 0.85115 0.68302 0.76111 0.0
C656 C 0.83482 0.65289 0.77132 0.0
C657 C 0.81815 0.63673 0.77562 0.0
C658 C 0.80558 0.63753 0.7867 0.0
C659 C 0.7898 0.62229 0.79055 0.0
C660 C 0.78646 0.60617 0.78345 0.0
C661 C 0.79891 0.60524 0.77252 0.0
C662 C 0.81473 0.62043 0.76864 0.0
C663 C 0.91071 0.68158 0.79552 0.0
C664 C 0.91277 0.66686 0.79214 0.0
C665 C 0.89615 0.68236 0.7891 0.0
C666 C 0.8834 0.66877 0.77846 0.0
C667 C 0.88582 0.65444 0.77429 0.0
C668 C 0.90021 0.65346 0.78106 0.0
C669 C 0.86703 0.66883 0.77276 0.0
C670 C 0.85073 0.6536 0.77559 0.0
C671 C 0.86712 0.68382 0.76547 0.0
C672 C 0.88356 0.70033 0.7615 0.0
C673 C 0.89634 0.70028 0.75016 0.0
C674 C 0.91165 0.71598 0.74625 0.0
C675 C 0.9143 0.73181 0.75355 0.0
C676 C 0.90161 0.73198 0.76474 0.0
C677 C 0.88627 0.71633 0.76868 0.0
H678 H 0.92616 0.74394 0.75049 0.0
H679 H 0.77423 0.59439 0.78644 0.0
H680 H 0.27362 0.89388 0.2727 0.0
H681 H 0.2464 0.86895 0.26141 0.0
H682 H 0.21634 0.8836 0.29584 0.0
H683 H 0.24315 0.90896 0.3064 0.0
H684 H 0.20637 0.84867 0.29967 0.0
H685 H 0.21463 0.88816 0.25227 0.0
H686 H 0.22978 0.90892 0.2276 0.0
H687 H 0.23477 0.8692 0.19873 0.0
H688 H 0.21987 0.84826 0.22334 0.0
H689 H 0.12273 0.7801 0.26575 0.0
H690 H 0.14763 0.80766 0.27683 0.0
H691 H 0.18052 0.80428 0.23569 0.0
H692 H 0.15554 0.77752 0.22418 0.0
H693 H 0.18772 0.83531 0.23615 0.0
H694 H 0.18044 0.79601 0.28546 0.0
H695 H 0.16516 0.77602 0.31068 0.0
H696 H 0.15811 0.8159 0.33647 0.0
H697 H 0.17312 0.83604 0.31129 0.0
C698 C 0.26127 0.89211 0.27765 0.0
C699 C 0.26092 0.90347 0.29093 0.0
C700 C 0.24563 0.87769 0.2712 0.0
C701 C 0.22919 0.87413 0.27793 0.0
C702 C 0.22877 0.88579 0.2906 0.0
C703 C 0.24429 0.90032 0.29677 0.0
C704 C 0.21253 0.85791 0.27248 0.0
C705 C 0.20221 0.84581 0.28577 0.0
C706 C 0.207 0.85402 0.25439 0.0
C707 C 0.21634 0.86671 0.23977 0.0
C708 C 0.21916 0.88391 0.24077 0.0
C709 C 0.22765 0.8957 0.22676 0.0
C710 C 0.23329 0.89041 0.21164 0.0
C711 C 0.23043 0.8733 0.21047 0.0
C712 C 0.22196 0.86147 0.22444 0.0
C713 C 0.13536 0.78519 0.25927 0.0
C714 C 0.13717 0.77657 0.24411 0.0
C715 C 0.14969 0.80098 0.26564 0.0
C716 C 0.1663 0.80828 0.25729 0.0
C717 C 0.16802 0.79926 0.24244 0.0
C718 C 0.15371 0.7838 0.23589 0.0
C719 C 0.18182 0.82548 0.26324 0.0
C720 C 0.19188 0.83797 0.25006 0.0
C721 C 0.18708 0.82971 0.28147 0.0
C722 C 0.1777 0.81744 0.29637 0.0
C723 C 0.17547 0.80044 0.29642 0.0
C724 C 0.16688 0.7891 0.31073 0.0
C725 C 0.16061 0.79467 0.32514 0.0
C726 C 0.16292 0.81159 0.32528 0.0
C727 C 0.17145 0.82296 0.31099 0.0
H728 H 0.15402 0.78588 0.33622 0.0
H729 H 0.23983 0.89954 0.20079 0.0
H730 H 0.3596 0.23635 0.81637 0.0
H731 H 0.35725 0.20997 0.80416 0.0
H732 H 0.38632 0.23799 0.75736 0.0
H733 H 0.38717 0.26457 0.76847 0.0
H734 H 0.36147 0.20527 0.74799 0.0
H735 H 0.40597 0.22846 0.79453 0.0
H736 H 0.41635 0.23971 0.82511 0.0
H737 H 0.37644 0.19114 0.84747 0.0
H738 H 0.36575 0.17966 0.81702 0.0
H739 H 0.38871 0.14641 0.7193 0.0
H740 H 0.38694 0.17151 0.73072 0.0
H741 H 0.36171 0.14275 0.77882 0.0
H742 H 0.3641 0.1176 0.76754 0.0
H743 H 0.38272 0.17479 0.78794 0.0
H744 H 0.33821 0.15062 0.74324 0.0
H745 H 0.32544 0.13853 0.71355 0.0
H746 H 0.36225 0.18708 0.68861 0.0
H747 H 0.3753 0.19944 0.71815 0.0
C748 C 0.36513 0.23727 0.80321 0.0
C749 C 0.37361 0.2533 0.79366 0.0
C750 C 0.36404 0.22188 0.79635 0.0
C751 C 0.37205 0.22188 0.78003 0.0
C752 C 0.38015 0.23755 0.77011 0.0
C753 C 0.38084 0.25297 0.77673 0.0
C754 C 0.37246 0.20571 0.77388 0.0
C755 C 0.36637 0.19879 0.75664 0.0
C756 C 0.37816 0.19664 0.7853 0.0
C757 C 0.38505 0.20324 0.80353 0.0
C758 C 0.39944 0.22018 0.80598 0.0
C759 C 0.40535 0.22661 0.82328 0.0
C760 C 0.39705 0.21615 0.83822 0.0
C761 C 0.38287 0.19921 0.83589 0.0
C762 C 0.37691 0.19272 0.81862 0.0
C763 C 0.38277 0.14539 0.73233 0.0
C764 C 0.37639 0.12988 0.74239 0.0
C765 C 0.38161 0.15976 0.73882 0.0
C766 C 0.37366 0.15904 0.75545 0.0
C767 C 0.36775 0.14373 0.76586 0.0
C768 C 0.36916 0.12933 0.75944 0.0
C769 C 0.37199 0.17444 0.7619 0.0
C770 C 0.3778 0.18122 0.77924 0.0
C771 C 0.36575 0.18319 0.75066 0.0
C772 C 0.35779 0.17592 0.73289 0.0
C773 C 0.34362 0.1587 0.73141 0.0
C774 C 0.33632 0.1518 0.71461 0.0
C775 C 0.34305 0.16202 0.6992 0.0
C776 C 0.35705 0.17919 0.70056 0.0
C777 C 0.36436 0.18616 0.71733 0.0
H778 H 0.33741 0.15665 0.6862 0.0
H779 H 0.40162 0.22117 0.85161 0.0
H780 H 0.46576 0.44954 0.24162 0.0
H781 H 0.49408 0.47475 0.25082 0.0
H782 H 0.46818 0.50418 0.26339 0.0
H783 H 0.44034 0.47957 0.25397 0.0
H784 H 0.49585 0.52301 0.24346 0.0
H785 H 0.48376 0.48723 0.29668 0.0
H786 H 0.47885 0.46183 0.31494 0.0
H787 H 0.52799 0.46787 0.2971 0.0
H788 H 0.53313 0.49322 0.27861 0.0
H789 H 0.55782 0.59799 0.29064 0.0
H790 H 0.53254 0.5704 0.28115 0.0
H791 H 0.56528 0.54691 0.27605 0.0
H792 H 0.59058 0.57444 0.28592 0.0
H793 H 0.53619 0.52399 0.29027 0.0
H794 H 0.54871 0.55967 0.2376 0.0
H795 H 0.55443 0.58568 0.21993 0.0
H796 H 0.50495 0.57963 0.23654 0.0
H797 H 0.49898 0.55364 0.25436 0.0
C798 C 0.46616 0.46142 0.2463 0.0
C799 C 0.45065 0.46241 0.24713 0.0
C800 C 0.48234 0.47577 0.25177 0.0
C801 C 0.48334 0.49142 0.25801 0.0
C802 C 0.46787 0.49232 0.25875 0.0
C803 C 0.45185 0.47812 0.2534 0.0
C804 C 0.5004 0.50746 0.26261 0.0
C805 C 0.50456 0.52318 0.25382 0.0
C806 C 0.51223 0.50775 0.27568 0.0
C807 C 0.50868 0.49194 0.28602 0.0
C808 C 0.49339 0.48297 0.29642 0.0
C809 C 0.49061 0.46864 0.30689 0.0
C810 C 0.50306 0.46319 0.30712 0.0
C811 C 0.51833 0.47206 0.29687 0.0
C812 C 0.52117 0.48641 0.2864 0.0
C813 C 0.55975 0.58708 0.28721 0.0
C814 C 0.57638 0.58863 0.2889 0.0
C815 C 0.54521 0.57121 0.28176 0.0
C816 C 0.5469 0.55649 0.27745 0.0
C817 C 0.56349 0.55798 0.27919 0.0
C818 C 0.57802 0.57381 0.28482 0.0
C819 C 0.53135 0.53958 0.27139 0.0
C820 C 0.52753 0.52375 0.2798 0.0
C821 C 0.5198 0.53907 0.25789 0.0
C822 C 0.52346 0.5548 0.24738 0.0
C823 C 0.53911 0.56397 0.23756 0.0
C824 C 0.54238 0.57868 0.2275 0.0
C825 C 0.53007 0.58432 0.22713 0.0
C826 C 0.51446 0.57525 0.23682 0.0
C827 C 0.51111 0.56051 0.24687 0.0
H828 H 0.53262 0.59571 0.21933 0.0
H829 H 0.50092 0.45214 0.31528 0.0
H830 H 0.9759 0.43447 0.74667 0.0
H831 H 0.97969 0.46277 0.75606 0.0
H832 H 0.03571 0.48474 0.75641 0.0
H833 H 0.03195 0.45605 0.74703 0.0
H834 H 1.02233 0.49522 0.78719 0.0
H835 H 1.01932 0.49528 0.72292 0.0
H836 H 1.00668 0.48182 0.69361 0.0
H837 H 0.95779 0.47808 0.70863 0.0
H838 H 0.97007 0.49132 0.73814 0.0
H839 H 0.03106 0.58137 0.79688 0.0
H840 H 0.03474 0.55661 0.78707 0.0
H841 H 0.97986 0.52709 0.77362 0.0
H842 H 0.97623 0.55165 0.78308 0.0
H843 H 0.99709 0.52255 0.74809 0.0
H844 H 0.99886 0.5204 0.81271 0.0
H845 H 1.01055 0.53303 0.84254 0.0
H846 H 0.0608 0.53994 0.82773 0.0
H847 H 0.04948 0.52764 0.79767 0.0
C848 C 0.98907 0.44525 0.7488 0.0
C849 C 1.0036 0.44287 0.7461 0.0
C850 C 0.99122 0.46151 0.75416 0.0
C851 C 1.00799 0.47602 0.75698 0.0
C852 C 1.02262 0.47377 0.7544 0.0
C853 C 1.02046 0.45741 0.74885 0.0
C854 C 1.00986 0.4935 0.76185 0.0
C855 C 1.01714 0.5014 0.77849 0.0
C856 C 1.00282 0.50151 0.75075 0.0
C857 C 0.9956 0.49424 0.73275 0.0
C858 C 1.00586 0.49156 0.71998 0.0
C859 C 0.99876 0.48396 0.70334 0.0
C860 C 0.98144 0.47908 0.69927 0.0
C861 C 0.97121 0.48188 0.7118 0.0
C862 C 0.97825 0.48947 0.72847 0.0
C863 C 1.01977 0.56955 0.79195 0.0
C864 C 1.00335 0.56864 0.7907 0.0
C865 C 1.02188 0.55535 0.78631 0.0
C866 C 1.00756 0.53976 0.77959 0.0
C867 C 0.99121 0.53889 0.77854 0.0
C868 C 0.98914 0.55304 0.78399 0.0
C869 C 1.00926 0.52423 0.77365 0.0
C870 C 1.00256 0.51661 0.75676 0.0
C871 C 1.01674 0.51648 0.7846 0.0
C872 C 1.02338 0.52328 0.80287 0.0
C873 C 1.01242 0.52468 0.81579 0.0
C874 C 1.01899 0.5318 0.83273 0.0
C875 C 0.03642 0.53734 0.83701 0.0
C876 C 0.0473 0.53568 0.82438 0.0
C877 C 0.04082 0.52863 0.80739 0.0
H878 H 0.04149 0.54288 0.85012 0.0
H879 H 0.97594 0.47315 0.6864 0.0
H880 H 0.56761 0.99508 0.21847 0.0
H881 H 0.54243 0.99795 0.22776 0.0
H882 H 0.55867 1.00269 0.28298 0.0
H883 H 0.58405 1.00038 0.27386 0.0
H884 H 0.52445 0.97943 0.28038 0.0
H885 H 0.56187 0.0386 0.26034 0.0
H886 H 0.5812 0.0615 0.23896 0.0
H887 H 0.53949 0.04222 0.20037 0.0
H888 H 0.51993 0.01916 0.22153 0.0
H889 H 0.46253 0.99965 0.31806 0.0
H890 H 0.49046 1.0025 0.30851 0.0
H891 H 0.47567 1.00058 0.25309 0.0
H892 H 0.44835 0.99892 0.26244 0.0
H893 H 0.50921 0.02243 0.25569 0.0
H894 H 0.47189 0.96291 0.27577 0.0
H895 H 0.45242 0.94068 0.29765 0.0
H896 H 0.49406 0.96085 0.33637 0.0
H897 H 0.51375 0.98325 0.31472 0.0
C898 C 0.56609 0.99708 0.23257 0.0
C899 C 0.57795 0.99721 0.24536 0.0
C900 C 0.55154 0.99865 0.2379 0.0
C901 C 0.54844 1.00044 0.25616 0.0
C902 C 0.56052 1.00111 0.26885 0.0
C903 C 0.57509 0.99968 0.26355 0.0
C904 C 0.53242 1.00109 0.26219 0.0
C905 C 0.5213 0.98901 0.27511 0.0
C906 C 0.52787 1.01325 0.25517 0.0
C907 C 0.53951 0.02709 0.24244 0.0
C908 C 0.55686 0.0392 0.24725 0.0
C909 C 0.56785 0.05222 0.2352 0.0
C910 C 0.56159 0.05329 0.2183 0.0
C911 C 0.54432 0.04137 0.21346 0.0
C912 C 0.53326 0.02835 0.22549 0.0
C913 C 0.46529 1.00017 0.30383 0.0
C914 C 0.45275 0.99861 0.29111 0.0
C915 C 0.48127 1.00157 0.29835 0.0
C916 C 0.48512 1.00122 0.28 0.0
C917 C 0.47308 1.00065 0.26732 0.0
C918 C 0.45724 0.99948 0.27276 0.0
C919 C 0.5013 1.00085 0.27397 0.0
C920 C 0.51238 1.01288 0.26098 0.0
C921 C 0.50582 0.98861 0.2809 0.0
C922 C 0.49424 0.97479 0.29369 0.0
C923 C 0.47688 0.96259 0.28896 0.0
C924 C 0.46581 0.94997 0.30131 0.0
C925 C 0.472 0.94938 0.3184 0.0
C926 C 0.4893 0.96132 0.32313 0.0
C927 C 0.50043 0.97395 0.3108 0.0
H928 H 0.46339 0.93965 0.32798 0.0
H929 H 0.57012 0.06336 0.20897 0.0
H930 H 0.4825 0.4322 0.7723 0.0
H931 H 0.50696 0.45996 0.76286 0.0
H932 H 0.48915 0.48764 0.79711 0.0
H933 H 0.46356 0.4596 0.80576 0.0
H934 H 0.50242 0.50591 0.76698 0.0
H935 H 0.52343 0.47943 0.80924 0.0
H936 H 0.52705 0.45533 0.82128 0.0
H937 H 0.55349 0.45469 0.77294 0.0
H938 H 0.54979 0.47861 0.76051 0.0
H939 H 0.58684 0.58475 0.76004 0.0
H940 H 0.55964 0.55934 0.7709 0.0
H941 H 0.57181 0.52479 0.74048 0.0
H942 H 0.59915 0.55011 0.73026 0.0
H943 H 0.56115 0.51137 0.77136 0.0
H944 H 0.53977 0.53722 0.72855 0.0
H945 H 0.53615 0.56115 0.71605 0.0
H946 H 0.51059 0.56308 0.76452 0.0
H947 H 0.51438 0.5394 0.77747 0.0
C948 C 0.4834 0.4441 0.77764 0.0
C949 C 0.47077 0.44339 0.78984 0.0
C950 C 0.49771 0.46011 0.77238 0.0
C951 C 0.50034 0.47606 0.77955 0.0
C952 C 0.48762 0.47557 0.79146 0.0
C953 C 0.47304 0.45945 0.79657 0.0
C954 C 0.51664 0.49298 0.77495 0.0
C955 C 0.51528 0.50719 0.76819 0.0
C956 C 0.53354 0.49475 0.77622 0.0
C957 C 0.53624 0.48074 0.78392 0.0
C958 C 0.52998 0.47411 0.80117 0.0
C959 C 0.53203 0.46048 0.80805 0.0
C960 C 0.54047 0.45346 0.79787 0.0
C961 C 0.54695 0.46013 0.78081 0.0
C962 C 0.5449 0.47374 0.77385 0.0
C963 C 0.5835 0.57171 0.75554 0.0
C964 C 0.59486 0.56935 0.74405 0.0
C965 C 0.56794 0.55716 0.76172 0.0
C966 C 0.56336 0.53999 0.75634 0.0
C967 C 0.57486 0.53779 0.74484 0.0
C968 C 0.59043 0.55226 0.73884 0.0
C969 C 0.54696 0.52419 0.76292 0.0
C970 C 0.54832 0.51018 0.77017 0.0
C971 C 0.53013 0.52265 0.76202 0.0
C972 C 0.52752 0.53664 0.75406 0.0
C973 C 0.53347 0.54281 0.7366 0.0
C974 C 0.5314 0.55635 0.72943 0.0
C975 C 0.52319 0.56366 0.73951 0.0
C976 C 0.51698 0.55742 0.75675 0.0
C977 C 0.5191 0.54395 0.76401 0.0
H978 H 0.5216 0.57414 0.73394 0.0
H979 H 0.54201 0.44288 0.80321 0.0
H980 H 1.01581 0.57573 0.24644 0.0
H981 H 1.01242 0.54733 0.25596 0.0
H982 H 0.06857 0.57083 0.25883 0.0
H983 H 0.07198 0.59883 0.24934 0.0
H984 H 0.0544 0.5407 0.24041 0.0
H985 H 0.04335 0.56059 0.29694 0.0
H986 H 0.02833 0.5693 0.3193 0.0
H987 H 0.98077 0.52034 0.31151 0.0
H988 H 0.99545 0.51143 0.28895 0.0
H989 H 0.07197 0.48139 0.28585 0.0
H990 H 0.06893 0.50602 0.27582 0.0
H991 H 1.013 0.47548 0.28337 0.0
H992 H 1.0161 0.45065 0.29391 0.0
H993 H 1.02316 0.50682 0.2945 0.0
H994 H 0.03419 0.48649 0.2386 0.0
H995 H 0.04914 0.47753 0.21637 0.0
H996 H 0.09638 0.52706 0.22276 0.0
H997 H 0.08173 0.53628 0.24504 0.0
C998 C 0.0274 0.57479 0.24906 0.0
C999 C 0.04419 0.58967 0.24718 0.0
C1000 C 0.02545 0.55857 0.25469 0.0
C1001 C 0.04024 0.55687 0.25832 0.0
C1002 C 0.05692 0.5717 0.25625 0.0
C1003 C 0.05885 0.5878 0.25084 0.0
C1004 C 0.03881 0.53962 0.26317 0.0
C1005 C 0.04765 0.53338 0.25233 0.0
C1006 C 0.02952 0.5296 0.27837 0.0
C1007 C 1.02042 0.53548 0.29101 0.0
C1008 C 0.02961 0.55182 0.29974 0.0
C1009 C 1.02118 0.55675 0.31254 0.0
C1010 C 1.00359 0.54542 0.31676 0.0
C1011 C 0.99437 0.52915 0.30818 0.0
C1012 C 1.00273 0.52416 0.29538 0.0
C1013 C 0.05896 0.47978 0.28527 0.0
C1014 C 0.04427 0.46385 0.29053 0.0
C1015 C 0.05721 0.49394 0.27936 0.0
C1016 C 0.04067 0.49266 0.27823 0.0
C1017 C 0.02594 0.47689 0.28389 0.0
C1018 C 0.02771 0.46268 0.29001 0.0
C1019 C 0.03906 0.50807 0.27191 0.0
C1020 C 0.02969 0.51398 0.28243 0.0
C1021 C 0.04783 0.51782 0.25635 0.0
C1022 C 0.0569 0.51199 0.24361 0.0
C1023 C 0.04782 0.49538 0.2354 0.0
C1024 C 0.05622 0.49029 0.22274 0.0
C1025 C 0.07371 0.5017 0.21819 0.0
C1026 C 0.08285 0.51823 0.2263 0.0
C1027 C 0.07449 0.5234 0.23892 0.0
H1028 H 0.08017 0.49776 0.20835 0.0
H1029 H 0.99712 0.54922 0.32674 0.0
H1030 H 0.47786 0.03127 0.71895 0.0
H1031 H 0.50283 0.02813 0.72833 0.0
H1032 H 0.49274 0.03485 0.78359 0.0
H1033 H 0.46741 0.03714 0.77457 0.0
H1034 H 0.52725 0.05659 0.77499 0.0
H1035 H 0.48539 0.9952 0.76998 0.0
H1036 H 0.46271 0.96841 0.75498 0.0
H1037 H 0.49885 0.97524 0.7127 0.0
H1038 H 0.52174 1.00214 0.72744 0.0
H1039 H 0.58841 0.0388 0.81794 0.0
H1040 H 0.56066 0.03622 0.80832 0.0
H1041 H 0.57068 0.02663 0.75395 0.0
H1042 H 0.59803 0.02843 0.76353 0.0
H1043 H 0.53636 1.00637 0.76138 0.0
H1044 H 0.57817 0.06804 0.76647 0.0
H1045 H 0.6008 0.09457 0.7819 0.0
H1046 H 0.56448 0.08709 0.82421 0.0
H1047 H 0.54164 0.06047 0.80904 0.0
C1048 C 0.48065 0.03172 0.73314 0.0
C1049 C 0.47058 0.03486 0.74588 0.0
C1050 C 0.49509 0.03001 0.7385 0.0
C1051 C 0.49992 0.03145 0.75671 0.0
C1052 C 0.48955 0.03394 0.76945 0.0
C1053 C 0.47504 0.03539 0.76417 0.0
C1054 C 0.51607 0.03108 0.76257 0.0
C1055 C 0.52908 0.04548 0.77218 0.0
C1056 C 0.51886 0.01684 0.75865 0.0
C1057 C 0.5052 1.00074 0.74971 0.0
C1058 C 0.48845 0.99104 0.75742 0.0
C1059 C 0.47558 0.97583 0.74899 0.0
C1060 C 0.47933 0.97015 0.73287 0.0
C1061 C 0.49597 0.97966 0.72518 0.0
C1062 C 0.50891 0.99487 0.73359 0.0
C1063 C 0.58464 0.03583 0.80399 0.0
C1064 C 0.59585 0.03414 0.79155 0.0
C1065 C 0.56876 0.03455 0.79843 0.0
C1066 C 0.5636 0.03161 0.78026 0.0
C1067 C 0.5743 0.02906 0.768 0.0
C1068 C 0.59013 0.03029 0.77353 0.0
C1069 C 0.54745 0.03182 0.77396 0.0
C1070 C 0.53451 0.01747 0.76419 0.0
C1071 C 0.5447 0.04611 0.77771 0.0
C1072 C 0.55826 0.06223 0.78671 0.0
C1073 C 0.57504 0.07204 0.7791 0.0
C1074 C 0.58789 0.0871 0.78778 0.0
C1075 C 0.58409 0.09249 0.80404 0.0
C1076 C 0.5674 0.08289 0.81161 0.0
C1077 C 0.55448 0.06785 0.80296 0.0
H1078 H 0.59407 0.10413 0.81077 0.0
H1079 H 0.46934 0.95837 0.72636 0.0
H1080 H 0.34966 0.37865 0.08919 0.0
H1081 H 0.35044 0.37547 0.05664 0.0
H1082 H 0.37145 0.34078 0.06365 0.0
H1083 H 0.37153 0.34474 0.09628 0.0
H1084 H 0.38772 0.36073 0.03717 0.0
H1085 H 0.32609 0.32568 0.04971 0.0
H1086 H 0.29843 0.32027 0.0638 0.0
H1087 H 0.30091 0.36357 0.03482 0.0
H1088 H 0.32862 0.36925 0.02059 0.0
H1089 H 0.37484 0.33177 0.94644 0.0
H1090 H 0.37054 0.3314 0.97895 0.0
H1091 H 0.35695 0.37201 0.97396 0.0
H1092 H 0.36048 0.37197 0.94144 0.0
H1093 H 0.3365 0.34806 0.99919 0.0
H1094 H 0.39876 0.38297 0.98722 0.0
H1095 H 0.42607 0.38755 0.97296 0.0
H1096 H 0.42163 0.34285 1.00082 0.0
H1097 H 0.39425 0.33799 1.0152 0.0
C1098 C 0.3542 0.37013 0.08381 0.0
C1099 C 0.36037 0.36184 0.0954 0.0
C1100 C 0.35462 0.36826 0.0651 0.0
C1101 C 0.36069 0.35757 0.05741 0.0
C1102 C 0.36669 0.34911 0.06904 0.0
C1103 C 0.36663 0.35129 0.08776 0.0
C1104 C 0.36101 0.35543 0.03733 0.0
C1105 C 0.37637 0.35767 0.02899 0.0
C1106 C 0.34643 0.35173 0.02629 0.0
C1107 C 0.32941 0.3479 0.03414 0.0
C1108 C 0.3207 0.33401 0.04633 0.0
C1109 C 0.30503 0.33091 0.05434 0.0
C1110 C 0.29793 0.34158 0.05022 0.0
C1111 C 0.30642 0.3553 0.03797 0.0
C1112 C 0.32206 0.35842 0.02987 0.0
C1113 C 0.37059 0.3404 0.95213 0.0
C1114 C 0.36833 0.35211 0.94111 0.0
C1115 C 0.36832 0.34031 0.97084 0.0
C1116 C 0.36378 0.35196 0.97909 0.0
C1117 C 0.3606 0.36298 0.96806 0.0
C1118 C 0.36281 0.36305 0.94938 0.0
C1119 C 0.36312 0.35325 0.99917 0.0
C1120 C 0.34775 0.35097 1.00746 0.0
C1121 C 0.37762 0.35674 1.01017 0.0
C1122 C 0.39447 0.36009 1.00222 0.0
C1123 C 0.40364 0.37415 0.99031 0.0
C1124 C 0.41911 0.37678 0.98221 0.0
C1125 C 0.42557 0.36548 0.98597 0.0
C1126 C 0.41663 0.3516 0.99794 0.0
C1127 C 0.40116 0.34893 1.00612 0.0
H1128 H 0.43751 0.36749 0.97962 0.0
H1129 H 0.28584 0.33922 0.05651 0.0
H1130 H 1.01545 0.33415 0.4398 0.0
H1131 H 1.01082 0.32968 0.47252 0.0
H1132 H 0.04222 0.38549 0.48099 0.0
H1133 H 0.04685 0.38996 0.44873 0.0
H1134 H 0.05233 0.36749 0.50237 0.0
H1135 H 0.99822 0.36469 0.48565 0.0
H1136 H 0.96938 0.35356 0.47128 0.0
H1137 H 0.95081 0.30358 0.49658 0.0
H1138 H 0.97961 0.31431 0.51087 0.0
H1139 H 0.03967 0.37988 0.5939 0.0
H1140 H 0.04277 0.37956 0.56166 0.0
H1141 H 1.00072 0.32583 0.55973 0.0
H1142 H 0.99616 0.32674 0.59197 0.0
H1143 H 0.99547 0.34034 0.53438 0.0
H1144 H 0.04952 0.34302 0.55148 0.0
H1145 H 0.07852 0.35403 0.5655 0.0
H1146 H 0.09745 0.40362 0.53924 0.0
H1147 H 0.06855 0.39301 0.52524 0.0
C1148 C 1.02141 0.34542 0.44869 0.0
C1149 C 0.03153 0.36243 0.44159 0.0
C1150 C 1.01859 0.34288 0.46738 0.0
C1151 C 0.02605 0.35727 0.47932 0.0
C1152 C 0.03624 0.37416 0.47217 0.0
C1153 C 0.03888 0.3767 0.45365 0.0
C1154 C 0.02442 0.35502 0.49931 0.0
C1155 C 0.03988 0.36163 0.5094 0.0
C1156 C 1.00817 0.34694 0.50853 0.0
C1157 C 0.99121 0.34022 0.49907 0.0
C1158 C 0.98811 0.35123 0.48789 0.0
C1159 C 0.97172 0.34501 0.47983 0.0
C1160 C 0.9583 0.32785 0.48295 0.0
C1161 C 0.96123 0.31685 0.49411 0.0
C1162 C 0.97759 0.32298 0.50217 0.0
C1163 C 0.03082 0.36799 0.58674 0.0
C1164 C 1.01729 0.3535 0.59586 0.0
C1165 C 0.03295 0.36769 0.5681 0.0
C1166 C 1.02216 0.35261 0.55789 0.0
C1167 C 1.00925 0.33775 0.56706 0.0
C1168 C 1.00677 0.33821 0.58571 0.0
C1169 C 1.02347 0.35277 0.53766 0.0
C1170 C 1.00795 0.34591 0.52747 0.0
C1171 C 0.0397 0.36056 0.52828 0.0
C1172 C 0.0568 0.36725 0.53746 0.0
C1173 C 0.0598 0.35634 0.54888 0.0
C1174 C 0.07624 0.3625 0.55678 0.0
C1175 C 0.0898 0.37952 0.5533 0.0
C1176 C 0.08694 0.39045 0.54195 0.0
C1177 C 0.07053 0.38437 0.53404 0.0
H1178 H 0.10254 0.38423 0.55935 0.0
H1179 H 0.9456 0.3231 0.47677 0.0
H1180 H 0.6619 1.00107 0.94242 0.0
H1181 H 0.66176 0.99743 0.97484 0.0
H1182 H 0.71338 0.04277 0.97833 0.0
H1183 H 0.71351 0.04678 0.94574 0.0
H1184 H 0.71027 0.01745 1.00105 0.0
H1185 H 0.67602 0.04483 0.98802 0.0
H1186 H 0.65243 0.04785 0.97375 0.0
H1187 H 0.61385 0.99959 0.99781 0.0
H1188 H 0.63722 0.99609 1.01195 0.0
H1189 H 0.70501 0.0254 0.09736 0.0
H1190 H 0.70938 0.03028 0.06479 0.0
H1191 H 0.6553 0.99101 0.05594 0.0
H1192 H 0.65084 0.98699 0.0883 0.0
H1193 H 0.66121 1.01557 0.03574 0.0
H1194 H 0.69504 0.98719 0.04797 0.0
H1195 H 0.71847 0.98374 0.06201 0.0
H1196 H 0.75732 0.03266 0.03931 0.0
H1197 H 0.73411 0.03661 0.02549 0.0
C1198 C 0.67325 1.0104 0.94999 0.0
C1199 C 0.68755 0.02453 0.94128 0.0
C1200 C 0.67315 1.00824 0.96865 0.0
C1201 C 0.68735 0.02008 0.97927 0.0
C1202 C 0.70214 0.03354 0.97055 0.0
C1203 C 0.70223 0.03577 0.95181 0.0
C1204 C 0.6865 0.01864 0.99941 0.0
C1205 C 0.69964 0.01723 1.00867 0.0
C1206 C 0.67248 0.01802 1.00947 0.0
C1207 C 0.65841 0.0201 1.00089 0.0
C1208 C 0.66252 0.03477 0.99013 0.0
C1209 C 0.64918 0.03658 0.98208 0.0
C1210 C 0.63166 0.02389 0.98483 0.0
C1211 C 0.62743 1.00938 0.99566 0.0
C1212 C 0.64072 1.00748 1.00369 0.0
C1213 C 0.69417 0.01769 0.08837 0.0
C1214 C 0.6776 1.00573 0.09538 0.0
C1215 C 0.69666 0.02043 0.06969 0.0
C1216 C 0.68273 1.0109 0.05756 0.0
C1217 C 0.66632 0.99867 0.06474 0.0
C1218 C 0.66377 0.99625 0.08331 0.0
C1219 C 0.68475 1.01385 0.03753 0.0
C1220 C 0.67185 1.01568 0.02822 0.0
C1221 C 0.6989 1.01468 0.02746 0.0
C1222 C 0.71281 1.01231 0.03589 0.0
C1223 C 0.70856 0.9973 0.04612 0.0
C1224 C 0.72182 0.99525 0.05403 0.0
C1225 C 0.73937 1.008 0.0516 0.0
C1226 C 0.74372 0.02282 0.04124 0.0
C1227 C 0.73052 0.02499 0.03339 0.0
H1228 H 0.74961 1.00637 0.05771 0.0
H1229 H 0.62135 0.02533 0.97861 0.0
H1230 H 0.70151 0.69882 0.59581 0.0
H1231 H 0.70157 0.70227 0.56318 0.0
H1232 H 0.66609 0.6467 0.55739 0.0
H1233 H 0.66665 0.64299 0.58961 0.0
H1234 H 0.69213 0.65668 0.53498 0.0
H1235 H 0.65378 0.67948 0.5519 0.0
H1236 H 0.64518 0.69954 0.56601 0.0
H1237 H 0.68756 0.74334 0.53925 0.0
H1238 H 0.69654 0.72357 0.52516 0.0
H1239 H 0.66626 0.64963 0.44343 0.0
H1240 H 0.66915 0.64889 0.47593 0.0
H1241 H 0.69803 0.70546 0.47751 0.0
H1242 H 0.69355 0.70637 0.44567 0.0
H1243 H 0.67763 0.69679 0.50247 0.0
H1244 H 0.71661 0.6758 0.48542 0.0
H1245 H 0.72679 0.65705 0.47114 0.0
H1246 H 0.68619 0.61191 0.49802 0.0
H1247 H 0.67569 0.63035 0.51234 0.0
C1248 C 0.69374 0.68731 0.5876 0.0
C1249 C 0.68405 0.6706 0.59552 0.0
C1250 C 0.69362 0.68936 0.56891 0.0
C1251 C 0.68373 0.67476 0.55774 0.0
C1252 C 0.67382 0.65819 0.56565 0.0
C1253 C 0.67401 0.65612 0.58422 0.0
C1254 C 0.6844 0.67627 0.53775 0.0
C1255 C 0.68877 0.66533 0.52784 0.0
C1256 C 0.68082 0.68811 0.52838 0.0
C1257 C 0.67597 0.70006 0.53767 0.0
C1258 C 0.66142 0.69342 0.54924 0.0
C1259 C 0.65643 0.70473 0.55718 0.0
C1260 C 0.66584 0.72271 0.55358 0.0
C1261 C 0.6803 0.72942 0.54208 0.0
C1262 C 0.68535 0.71817 0.53412 0.0
C1263 C 0.67309 0.66196 0.45064 0.0
C1264 C 0.67967 0.67806 0.44152 0.0
C1265 C 0.67506 0.66151 0.46933 0.0
C1266 C 0.68407 0.67713 0.4794 0.0
C1267 C 0.69101 0.69316 0.47026 0.0
C1268 C 0.68866 0.69363 0.45176 0.0
C1269 C 0.68514 0.67698 0.4995 0.0
C1270 C 0.68116 0.68821 0.50949 0.0
C1271 C 0.68939 0.66564 0.50896 0.0
C1272 C 0.69524 0.65443 0.49977 0.0
C1273 C 0.70973 0.66184 0.48811 0.0
C1274 C 0.7156 0.65128 0.48006 0.0
C1275 C 0.70711 0.6333 0.48362 0.0
C1276 C 0.69273 0.62583 0.49524 0.0
C1277 C 0.68683 0.63634 0.50333 0.0
H1278 H 0.7117 0.62515 0.47742 0.0
H1279 H 0.6619 0.73142 0.55966 0.0
H1280 H 1.00452 0.66813 0.09695 0.0
H1281 H 1.00039 0.66816 0.06448 0.0
H1282 H 0.05591 0.68934 0.05652 0.0
H1283 H 0.0601 0.69024 0.089 0.0
H1284 H 0.04722 0.70392 0.03435 0.0
H1285 H 1.01918 0.64243 0.04963 0.0
H1286 H 0.99799 0.61441 0.06376 0.0
H1287 H 0.95535 0.61812 0.04061 0.0
H1288 H 0.97623 0.64628 0.02663 0.0
H1289 H 0.04363 0.68115 0.94116 0.0
H1290 H 0.04725 0.68468 0.97364 0.0
H1291 H 0.99293 0.67015 0.9793 0.0
H1292 H 0.98897 0.66576 0.94685 0.0
H1293 H 1.00029 0.65254 1.00235 0.0
H1294 H 0.02898 0.71338 0.98584 0.0
H1295 H 0.05047 0.741 0.97135 0.0
H1296 H 0.09259 0.73775 0.99646 0.0
H1297 H 0.0714 0.70993 1.01081 0.0
C1298 C 1.01586 0.6729 0.08826 0.0
C1299 C 0.03266 0.67918 0.09566 0.0
C1300 C 1.01346 0.67271 0.06958 0.0
C1301 C 0.02773 0.67829 0.05767 0.0
C1302 C 0.04456 0.68489 0.06516 0.0
C1303 C 0.04701 0.68546 0.08384 0.0
C1304 C 0.02538 0.67777 0.03754 0.0
C1305 C 0.0371 0.69249 0.02741 0.0
C1306 C 1.01183 0.66319 0.02819 0.0
C1307 C 0.99929 0.64661 0.03728 0.0
C1308 C 1.00528 0.63739 0.04775 0.0
C1309 C 0.99332 0.62145 0.0557 0.0
C1310 C 0.97534 0.61452 0.05313 0.0
C1311 C 0.96927 0.62352 0.04264 0.0
C1312 C 0.98116 0.63948 0.03473 0.0
C1313 C 0.03238 0.67866 0.94924 0.0
C1314 C 1.0159 0.6729 0.94114 0.0
C1315 C 0.03456 0.68093 0.96793 0.0
C1316 C 1.02041 0.67776 0.97915 0.0
C1317 C 1.00411 0.67266 0.97107 0.0
C1318 C 1.00189 0.67031 0.95237 0.0
C1319 C 1.02223 0.67858 0.99928 0.0
C1320 C 1.01041 0.66391 1.00937 0.0
C1321 C 0.0358 0.69311 1.00857 0.0
C1322 C 0.04857 0.70943 0.99924 0.0
C1323 C 0.04282 0.7184 0.98806 0.0
C1324 C 0.05496 0.73413 0.97991 0.0
C1325 C 0.07288 0.7411 0.98294 0.0
C1326 C 0.07871 0.73232 0.99408 0.0
C1327 C 0.06664 0.71656 1.0022 0.0
H1328 H 0.08225 0.75333 0.9767 0.0
H1329 H 0.96611 0.60215 0.05923 0.0
H1330 H 0.3426 0.97935 0.44747 0.0
H1331 H 0.34351 0.98338 0.48004 0.0
H1332 H 0.3777 0.03907 0.47345 0.0
H1333 H 0.37718 0.03501 0.44091 0.0
H1334 H 0.38948 0.02944 0.50003 0.0
H1335 H 0.33203 0.01993 0.48657 0.0
H1336 H 0.30287 1.00424 0.47239 0.0
H1337 H 0.29097 0.95767 0.50176 0.0
H1338 H 0.32012 0.97311 0.51608 0.0
H1339 H 0.38067 0.05302 0.58964 0.0
H1340 H 0.37694 0.04909 0.55704 0.0
H1341 H 0.35237 0.99307 0.56343 0.0
H1342 H 0.35582 0.99683 0.59603 0.0
H1343 H 0.33559 1.00315 0.53735 0.0
H1344 H 0.39383 1.01346 0.55039 0.0
H1345 H 0.42295 0.02988 0.56458 0.0
H1346 H 0.43299 0.07634 0.53608 0.0
H1347 H 0.40388 0.06017 0.52175 0.0
C1348 C 0.35008 0.9925 0.45291 0.0
C1349 C 0.35978 1.00683 0.44142 0.0
C1350 C 0.35061 0.99482 0.47164 0.0
C1351 C 0.36053 1.01161 0.47946 0.0
C1352 C 0.36999 0.02596 0.46796 0.0
C1353 C 0.36963 0.02362 0.44926 0.0
C1354 C 0.36125 1.01417 0.49954 0.0
C1355 C 0.37763 0.02388 0.50806 0.0
C1356 C 0.34594 1.00677 0.51038 0.0
C1357 C 0.32824 0.99763 0.50231 0.0
C1358 C 0.32318 1.00634 0.48999 0.0
C1359 C 0.30667 0.9975 0.48193 0.0
C1360 C 0.29508 0.97996 0.48615 0.0
C1361 C 0.29995 0.97126 0.49852 0.0
C1362 C 0.31644 0.98006 0.50666 0.0
C1363 C 0.37418 0.03983 0.58419 0.0
C1364 C 0.36871 0.02527 0.59561 0.0
C1365 C 0.37219 0.03761 0.56547 0.0
C1366 C 0.36457 0.02078 0.55767 0.0
C1367 C 0.35836 1.00619 0.56905 0.0
C1368 C 0.36045 1.00839 0.58774 0.0
C1369 C 0.36373 0.01845 0.53766 0.0
C1370 C 0.34738 1.00876 0.52922 0.0
C1371 C 0.37903 0.02601 0.52689 0.0
C1372 C 0.39669 0.03564 0.53507 0.0
C1373 C 0.40225 0.02719 0.54718 0.0
C1374 C 0.41874 0.03644 0.55523 0.0
C1375 C 0.4298 0.05415 0.55125 0.0
C1376 C 0.42441 0.06262 0.53913 0.0
C1377 C 0.40795 0.0534 0.531 0.0
H1378 H 0.44255 0.06131 0.55753 0.0
H1379 H 0.28233 0.97311 0.47984 0.0
loop_
_geom_bond_atom_site_label_1
_geom_bond_atom_site_label_2
_geom_bond_distance
_geom_bond_site_symmetry_2
_ccdc_geom_bond_type
C0 C1 1.264 . S
C0 C5 1.479 . S
C0 C10 1.465 . S
C1 C0 1.264 . S
C1 C3 1.339 . S
C1 H28 0.931 . S
C2 C3 1.395 . S
C2 C4 1.320 . S
C3 C1 1.339 . S
C3 C2 1.395 . S
C3 H29 0.929 . S
C4 C2 1.320 . S
C4 C5 1.405 . S
C4 H30 0.930 . S
C5 C0 1.479 . S
C5 C4 1.405 . S
C5 H31 0.931 . S
U6 O7 2.454 . S
U6 O8 2.458 . S
U6 C9 2.984 . S
U6 C10 2.847 . S
U6 C23 2.882 . S
U6 O24 2.441 . S
U6 O25 2.420 . S
U6 O26 2.455 . S
U6 O27 2.449 . S
O7 U6 2.454 . S
O7 C9 1.353 . S
O8 U6 2.458 . S
O8 C9 1.286 . S
C9 U6 2.984 . S
C9 O7 1.353 . S
C9 O8 1.286 . S
C9 C11 1.363 . S
C10 C0 1.465 . S
C10 U6 2.847 . S
C10 O24 1.249 . S
C10 O25 1.202 . S
C11 C9 1.363 . S
C11 C13 1.408 . S
C11 C16 1.342 . S
C12 C13 1.310 . S
C12 C15 1.461 . S
C12 H32 0.932 . S
C13 C11 1.408 . S
C13 C12 1.310 . S
C13 H33 0.930 . S
C14 C15 1.474 . S
C14 C16 1.285 . S
C14 H34 0.929 . S
C15 C12 1.461 . S
C15 C14 1.474 . S
C16 C11 1.342 . S
C16 C14 1.285 . S
C16 H35 0.930 . S
C17 C20 1.424 . S
C17 C22 1.245 . S
C17 C23 1.428 . S
C18 C21 1.260 . S
C18 C22 1.477 . S
C18 H36 0.932 . S
C19 C20 1.384 . S
C19 C21 1.479 . S
C19 H37 0.929 . S
C20 C17 1.424 . S
C20 C19 1.384 . S
C20 H38 0.928 . S
C21 C18 1.260 . S
C21 C19 1.479 . S
C22 C17 1.245 . S
C22 C18 1.477 . S
C22 H39 0.932 . S
C23 U6 2.882 . S
C23 C17 1.428 . S
C23 O26 1.301 . S
C23 O27 1.282 . S
O24 U6 2.441 . S
O24 C10 1.249 . S
O25 U6 2.420 . S
O25 C10 1.202 . S
O26 U6 2.455 . S
O26 C23 1.301 . S
O27 U6 2.449 . S
O27 C23 1.282 . S
H28 C1 0.931 . S
H29 C3 0.929 . S
H30 C4 0.930 . S
H31 C5 0.931 . S
H32 C12 0.932 . S
H33 C13 0.930 . S
H34 C14 0.929 . S
H35 C16 0.930 . S
H36 C18 0.932 . S
H37 C19 0.929 . S
H38 C20 0.928 . S
H39 C22 0.932 . S
C40 C41 1.264 . S
C40 C45 1.479 . S
C40 C50 1.465 . S
C41 C40 1.264 . S
C41 C43 1.339 . S
C41 H68 0.931 . S
C42 C43 1.395 . S
C42 C44 1.320 . S
C43 C41 1.339 . S
C43 C42 1.395 . S
C43 H69 0.929 . S
C44 C42 1.320 . S
C44 C45 1.405 . S
C44 H70 0.930 . S
C45 C40 1.479 . S
C45 C44 1.405 . S
C45 H71 0.931 . S
U46 O47 2.454 . S
U46 O48 2.458 . S
U46 C49 2.984 . S
U46 C50 2.847 . S
U46 C63 2.882 . S
U46 O64 2.441 . S
U46 O65 2.420 . S
U46 O66 2.455 . S
U46 O67 2.449 . S
O47 U46 2.454 . S
O47 C49 1.353 . S
O48 U46 2.458 . S
O48 C49 1.286 . S
C49 U46 2.984 . S
C49 O47 1.353 . S
C49 O48 1.286 . S
C49 C51 1.363 . S
C50 C40 1.465 . S
C50 U46 2.847 . S
C50 O64 1.249 . S
C50 O65 1.202 . S
C51 C49 1.363 . S
C51 C53 1.408 . S
C51 C56 1.342 . S
C52 C53 1.310 . S
C52 C55 1.461 1_655 S
C52 H72 0.932 . S
C53 C51 1.408 . S
C53 C52 1.310 . S
C53 H73 0.930 . S
C54 C55 1.475 . S
C54 C56 1.285 1_455 S
C54 H74 0.929 . S
C55 C52 1.461 1_455 S
C55 C54 1.475 . S
C56 C51 1.342 . S
C56 C54 1.285 1_655 S
C56 H75 0.930 . S
C57 C60 1.424 . S
C57 C62 1.245 . S
C57 C63 1.428 . S
C58 C61 1.260 . S
C58 C62 1.477 . S
C58 H76 0.932 1_655 S
C59 C60 1.384 . S
C59 C61 1.479 . S
C59 H77 0.929 . S
C60 C57 1.424 . S
C60 C59 1.384 . S
C60 H78 0.928 . S
C61 C58 1.260 . S
C61 C59 1.479 . S
C62 C57 1.245 . S
C62 C58 1.477 . S
C62 H79 0.932 . S
C63 U46 2.882 . S
C63 C57 1.428 . S
C63 O66 1.301 . S
C63 O67 1.282 . S
O64 U46 2.441 . S
O64 C50 1.249 . S
O65 U46 2.420 . S
O65 C50 1.202 . S
O66 U46 2.455 . S
O66 C63 1.301 . S
O67 U46 2.449 . S
O67 C63 1.282 . S
H68 C41 0.931 . S
H69 C43 0.929 . S
H70 C44 0.930 . S
H71 C45 0.931 . S
H72 C52 0.932 . S
H73 C53 0.930 . S
H74 C54 0.929 . S
H75 C56 0.930 . S
H76 C58 0.932 1_455 S
H77 C59 0.929 . S
H78 C60 0.928 . S
H79 C62 0.932 . S
C80 C81 1.264 . S
C80 C85 1.479 . S
C80 C90 1.465 . S
C81 C80 1.264 . S
C81 C83 1.339 . S
C81 H108 0.931 . S
C82 C83 1.395 . S
C82 C84 1.320 . S
C83 C81 1.339 . S
C83 C82 1.395 . S
C83 H109 0.929 . S
C84 C82 1.320 . S
C84 C85 1.405 . S
C84 H110 0.930 . S
C85 C80 1.479 . S
C85 C84 1.405 . S
C85 H111 0.931 . S
U86 O87 2.454 . S
U86 O88 2.458 . S
U86 C89 2.984 . S
U86 C90 2.847 . S
U86 C103 2.882 . S
U86 O104 2.441 . S
U86 O105 2.420 . S
U86 O106 2.455 . S
U86 O107 2.449 . S
O87 U86 2.454 . S
O87 C89 1.353 . S
O88 U86 2.458 . S
O88 C89 1.286 . S
C89 U86 2.984 . S
C89 O87 1.353 . S
C89 O88 1.286 . S
C89 C91 1.363 . S
C90 C80 1.465 . S
C90 U86 2.847 . S
C90 O104 1.249 . S
C90 O105 1.202 . S
C91 C89 1.363 . S
C91 C93 1.408 . S
C91 C96 1.342 . S
C92 C93 1.310 . S
C92 C95 1.467 1_565 S
C92 H112 0.932 . S
C93 C91 1.408 . S
C93 C92 1.310 . S
C93 H113 0.930 . S
C94 C95 1.470 . S
C94 C96 1.285 1_545 S
C94 H114 0.929 . S
C95 C92 1.467 1_545 S
C95 C94 1.470 . S
C96 C91 1.342 . S
C96 C94 1.285 1_565 S
C96 H115 0.930 . S
C97 C100 1.424 . S
C97 C102 1.245 . S
C97 C103 1.428 . S
C98 C101 1.260 . S
C98 C102 1.477 . S
C98 H116 0.932 1_565 S
C99 C100 1.384 . S
C99 C101 1.479 . S
C99 H117 0.929 . S
C100 C97 1.424 . S
C100 C99 1.384 . S
C100 H118 0.928 . S
C101 C98 1.260 . S
C101 C99 1.479 . S
C102 C97 1.245 . S
C102 C98 1.477 . S
C102 H119 0.932 . S
C103 U86 2.882 . S
C103 C97 1.428 . S
C103 O106 1.301 . S
C103 O107 1.282 . S
O104 U86 2.441 . S
O104 C90 1.249 . S
O105 U86 2.420 . S
O105 C90 1.202 . S
O106 U86 2.455 . S
O106 C103 1.301 . S
O107 U86 2.449 . S
O107 C103 1.282 . S
H108 C81 0.931 . S
H109 C83 0.929 . S
H110 C84 0.930 . S
H111 C85 0.931 . S
H112 C92 0.932 . S
H113 C93 0.930 . S
H114 C94 0.929 . S
H115 C96 0.930 . S
H116 C98 0.932 1_545 S
H117 C99 0.929 . S
H118 C100 0.928 . S
H119 C102 0.932 . S
C120 C121 1.264 . S
C120 C125 1.479 . S
C120 C130 1.465 . S
C121 C120 1.264 . S
C121 C123 1.339 . S
C121 H148 0.931 . S
C122 C123 1.395 . S
C122 C124 1.320 . S
C123 C121 1.339 . S
C123 C122 1.395 . S
C123 H149 0.929 . S
C124 C122 1.320 . S
C124 C125 1.405 . S
C124 H150 0.930 . S
C125 C120 1.479 . S
C125 C124 1.405 . S
C125 H151 0.931 . S
U126 O127 2.454 . S
U126 O128 2.458 . S
U126 C129 2.984 . S
U126 C130 2.847 . S
U126 C143 2.882 . S
U126 O144 2.441 . S
U126 O145 2.420 . S
U126 O146 2.455 . S
U126 O147 2.449 . S
O127 U126 2.454 . S
O127 C129 1.353 . S
O128 U126 2.458 . S
O128 C129 1.286 . S
C129 U126 2.984 . S
C129 O127 1.353 . S
C129 O128 1.286 . S
C129 C131 1.363 . S
C130 C120 1.465 . S
C130 U126 2.847 . S
C130 O144 1.249 . S
C130 O145 1.202 . S
C131 C129 1.363 . S
C131 C133 1.408 . S
C131 C136 1.342 . S
C132 C133 1.310 . S
C132 C135 1.461 . S
C132 H152 0.932 . S
C133 C131 1.408 . S
C133 C132 1.310 . S
C133 H153 0.930 . S
C134 C135 1.474 . S
C134 C136 1.285 . S
C134 H154 0.929 . S
C135 C132 1.461 . S
C135 C134 1.474 . S
C136 C131 1.342 . S
C136 C134 1.285 . S
C136 H155 0.930 . S
C137 C140 1.424 . S
C137 C142 1.245 . S
C137 C143 1.428 . S
C138 C141 1.260 . S
C138 C142 1.477 . S
C138 H156 0.932 . S
C139 C140 1.384 . S
C139 C141 1.479 . S
C139 H157 0.929 . S
C140 C137 1.424 . S
C140 C139 1.384 . S
C140 H158 0.928 . S
C141 C138 1.260 . S
C141 C139 1.479 . S
C142 C137 1.245 . S
C142 C138 1.477 . S
C142 H159 0.932 . S
C143 U126 2.882 . S
C143 C137 1.428 . S
C143 O146 1.301 . S
C143 O147 1.282 . S
O144 U126 2.441 . S
O144 C130 1.249 . S
O145 U126 2.420 . S
O145 C130 1.202 . S
O146 U126 2.455 . S
O146 C143 1.301 . S
O147 U126 2.449 . S
O147 C143 1.282 . S
H148 C121 0.931 . S
H149 C123 0.929 . S
H150 C124 0.930 . S
H151 C125 0.931 . S
H152 C132 0.932 . S
H153 C133 0.930 . S
H154 C134 0.929 . S
H155 C136 0.930 . S
H156 C138 0.932 . S
H157 C139 0.929 . S
H158 C140 0.928 . S
H159 C142 0.932 . S
C160 C161 1.264 . S
C160 C165 1.479 . S
C160 C170 1.465 . S
C161 C160 1.264 . S
C161 C163 1.339 . S
C161 H188 0.931 . S
C162 C163 1.395 . S
C162 C164 1.320 . S
C163 C161 1.339 . S
C163 C162 1.395 . S
C163 H189 0.929 . S
C164 C162 1.320 . S
C164 C165 1.405 . S
C164 H190 0.930 . S
C165 C160 1.479 . S
C165 C164 1.405 . S
C165 H191 0.931 . S
U166 O167 2.454 . S
U166 O168 2.458 . S
U166 C169 2.984 . S
U166 C170 2.847 . S
U166 C183 2.882 . S
U166 O184 2.441 . S
U166 O185 2.420 . S
U166 O186 2.455 . S
U166 O187 2.449 . S
O167 U166 2.454 . S
O167 C169 1.353 . S
O168 U166 2.458 . S
O168 C169 1.286 . S
C169 U166 2.984 . S
C169 O167 1.353 . S
C169 O168 1.286 . S
C169 C171 1.363 . S
C170 C160 1.465 . S
C170 U166 2.847 . S
C170 O184 1.249 . S
C170 O185 1.202 . S
C171 C169 1.363 . S
C171 C173 1.408 . S
C171 C176 1.342 . S
C172 C173 1.310 . S
C172 C175 1.461 1_455 S
C172 H192 0.932 . S
C173 C171 1.408 . S
C173 C172 1.310 . S
C173 H193 0.930 . S
C174 C175 1.475 . S
C174 C176 1.285 1_655 S
C174 H194 0.929 . S
C175 C172 1.461 1_655 S
C175 C174 1.475 . S
C176 C171 1.342 . S
C176 C174 1.285 1_455 S
C176 H195 0.930 . S
C177 C180 1.424 . S
C177 C182 1.245 . S
C177 C183 1.428 . S
C178 C181 1.260 . S
C178 C182 1.477 . S
C178 H196 0.932 1_455 S
C179 C180 1.384 . S
C179 C181 1.479 . S
C179 H197 0.929 . S
C180 C177 1.424 . S
C180 C179 1.384 . S
C180 H198 0.928 . S
C181 C178 1.260 . S
C181 C179 1.479 . S
C182 C177 1.245 . S
C182 C178 1.477 . S
C182 H199 0.932 . S
C183 U166 2.882 . S
C183 C177 1.428 . S
C183 O186 1.301 . S
C183 O187 1.282 . S
O184 U166 2.441 . S
O184 C170 1.249 . S
O185 U166 2.420 . S
O185 C170 1.202 . S
O186 U166 2.455 . S
O186 C183 1.301 . S
O187 U166 2.449 . S
O187 C183 1.282 . S
H188 C161 0.931 . S
H189 C163 0.929 . S
H190 C164 0.930 . S
H191 C165 0.931 . S
H192 C172 0.932 . S
H193 C173 0.930 . S
H194 C174 0.929 . S
H195 C176 0.930 . S
H196 C178 0.932 1_655 S
H197 C179 0.929 . S
H198 C180 0.928 . S
H199 C182 0.932 . S
C200 C201 1.264 . S
C200 C205 1.479 . S
C200 C210 1.465 . S
C201 C200 1.264 . S
C201 C203 1.339 . S
C201 H228 0.931 . S
C202 C203 1.395 . S
C202 C204 1.320 . S
C203 C201 1.339 . S
C203 C202 1.395 . S
C203 H229 0.929 . S
C204 C202 1.320 . S
C204 C205 1.405 . S
C204 H230 0.930 . S
C205 C200 1.479 . S
C205 C204 1.405 . S
C205 H231 0.931 . S
U206 O207 2.454 . S
U206 O208 2.458 . S
U206 C209 2.984 . S
U206 C210 2.847 . S
U206 C223 2.882 . S
U206 O224 2.441 . S
U206 O225 2.420 . S
U206 O226 2.455 . S
U206 O227 2.449 . S
O207 U206 2.454 . S
O207 C209 1.353 . S
O208 U206 2.458 . S
O208 C209 1.286 . S
C209 U206 2.984 . S
C209 O207 1.353 . S
C209 O208 1.286 . S
C209 C211 1.363 . S
C210 C200 1.465 . S
C210 U206 2.847 . S
C210 O224 1.249 . S
C210 O225 1.202 . S
C211 C209 1.363 . S
C211 C213 1.408 . S
C211 C216 1.342 . S
C212 C213 1.310 . S
C212 C215 1.467 1_545 S
C212 H232 0.932 . S
C213 C211 1.408 . S
C213 C212 1.310 . S
C213 H233 0.930 . S
C214 C215 1.470 . S
C214 C216 1.285 1_565 S
C214 H234 0.929 . S
C215 C212 1.467 1_565 S
C215 C214 1.470 . S
C216 C211 1.342 . S
C216 C214 1.285 1_545 S
C216 H235 0.930 . S
C217 C220 1.424 . S
C217 C222 1.245 . S
C217 C223 1.428 . S
C218 C221 1.260 . S
C218 C222 1.477 . S
C218 H236 0.932 1_545 S
C219 C220 1.384 . S
C219 C221 1.479 . S
C219 H237 0.929 . S
C220 C217 1.424 . S
C220 C219 1.384 . S
C220 H238 0.928 . S
C221 C218 1.260 . S
C221 C219 1.479 . S
C222 C217 1.245 . S
C222 C218 1.477 . S
C222 H239 0.932 . S
C223 U206 2.882 . S
C223 C217 1.428 . S
C223 O226 1.301 . S
C223 O227 1.282 . S
O224 U206 2.441 . S
O224 C210 1.249 . S
O225 U206 2.420 . S
O225 C210 1.202 . S
O226 U206 2.455 . S
O226 C223 1.301 . S
O227 U206 2.449 . S
O227 C223 1.282 . S
H228 C201 0.931 . S
H229 C203 0.929 . S
H230 C204 0.930 . S
H231 C205 0.931 . S
H232 C212 0.932 . S
H233 C213 0.930 . S
H234 C214 0.929 . S
H235 C216 0.930 . S
H236 C218 0.932 1_565 S
H237 C219 0.929 . S
H238 C220 0.928 . S
H239 C222 0.932 . S
C240 C241 1.264 . S
C240 C245 1.479 . S
C240 C250 1.465 . S
C241 C240 1.264 . S
C241 C243 1.339 . S
C241 H268 0.931 . S
C242 C243 1.395 . S
C242 C244 1.320 . S
C243 C241 1.339 . S
C243 C242 1.395 . S
C243 H269 0.929 . S
C244 C242 1.320 . S
C244 C245 1.405 . S
C244 H270 0.930 . S
C245 C240 1.479 . S
C245 C244 1.405 . S
C245 H271 0.931 . S
U246 O247 2.454 . S
U246 O248 2.458 . S
U246 C249 2.984 . S
U246 C250 2.847 . S
U246 C263 2.882 . S
U246 O264 2.441 . S
U246 O265 2.420 . S
U246 O266 2.455 . S
U246 O267 2.449 . S
O247 U246 2.454 . S
O247 C249 1.353 . S
O248 U246 2.458 . S
O248 C249 1.286 . S
C249 U246 2.984 . S
C249 O247 1.353 . S
C249 O248 1.286 . S
C249 C251 1.363 . S
C250 C240 1.465 . S
C250 U246 2.847 . S
C250 O264 1.249 . S
C250 O265 1.202 . S
C251 C249 1.363 . S
C251 C253 1.408 . S
C251 C256 1.342 . S
C252 C253 1.310 . S
C252 C255 1.461 . S
C252 H272 0.932 . S
C253 C251 1.408 . S
C253 C252 1.310 . S
C253 H273 0.930 . S
C254 C255 1.474 . S
C254 C256 1.285 . S
C254 H274 0.929 . S
C255 C252 1.461 . S
C255 C254 1.474 . S
C256 C251 1.342 . S
C256 C254 1.285 . S
C256 H275 0.930 . S
C257 C260 1.424 . S
C257 C262 1.245 . S
C257 C263 1.428 . S
C258 C261 1.260 . S
C258 C262 1.477 . S
C258 H276 0.932 . S
C259 C260 1.384 . S
C259 C261 1.479 . S
C259 H277 0.929 . S
C260 C257 1.424 . S
C260 C259 1.384 . S
C260 H278 0.928 . S
C261 C258 1.260 . S
C261 C259 1.479 . S
C262 C257 1.245 . S
C262 C258 1.477 . S
C262 H279 0.932 . S
C263 U246 2.882 . S
C263 C257 1.428 . S
C263 O266 1.301 . S
C263 O267 1.282 . S
O264 U246 2.441 . S
O264 C250 1.249 . S
O265 U246 2.420 . S
O265 C250 1.202 . S
O266 U246 2.455 . S
O266 C263 1.301 . S
O267 U246 2.449 . S
O267 C263 1.282 . S
H268 C241 0.931 . S
H269 C243 0.929 . S
H270 C244 0.930 . S
H271 C245 0.931 . S
H272 C252 0.932 . S
H273 C253 0.930 . S
H274 C254 0.929 . S
H275 C256 0.930 . S
H276 C258 0.932 . S
H277 C259 0.929 . S
H278 C260 0.928 . S
H279 C262 0.932 . S
C280 C281 1.264 . S
C280 C285 1.479 . S
C280 C290 1.465 . S
C281 C280 1.264 . S
C281 C283 1.339 . S
C281 H308 0.931 . S
C282 C283 1.395 . S
C282 C284 1.320 . S
C283 C281 1.339 . S
C283 C282 1.395 . S
C283 H309 0.929 . S
C284 C282 1.320 . S
C284 C285 1.405 . S
C284 H310 0.930 . S
C285 C280 1.479 . S
C285 C284 1.405 . S
C285 H311 0.931 . S
U286 O287 2.454 . S
U286 O288 2.458 . S
U286 C289 2.984 . S
U286 C290 2.847 . S
U286 C303 2.882 . S
U286 O304 2.441 . S
U286 O305 2.420 . S
U286 O306 2.455 . S
U286 O307 2.449 . S
O287 U286 2.454 . S
O287 C289 1.353 . S
O288 U286 2.458 . S
O288 C289 1.286 . S
C289 U286 2.984 . S
C289 O287 1.353 . S
C289 O288 1.286 . S
C289 C291 1.363 . S
C290 C280 1.465 . S
C290 U286 2.847 . S
C290 O304 1.249 . S
C290 O305 1.202 . S
C291 C289 1.363 . S
C291 C293 1.408 . S
C291 C296 1.342 . S
C292 C293 1.310 . S
C292 C295 1.467 1_655 S
C292 H312 0.932 . S
C293 C291 1.408 . S
C293 C292 1.310 . S
C293 H313 0.930 . S
C294 C295 1.470 . S
C294 C296 1.285 1_455 S
C294 H314 0.929 . S
C295 C292 1.467 1_455 S
C295 C294 1.470 . S
C296 C291 1.342 . S
C296 C294 1.285 1_655 S
C296 H315 0.930 . S
C297 C300 1.424 . S
C297 C302 1.245 . S
C297 C303 1.428 . S
C298 C301 1.260 . S
C298 C302 1.477 . S
C298 H316 0.932 1_655 S
C299 C300 1.384 . S
C299 C301 1.479 . S
C299 H317 0.929 . S
C300 C297 1.424 . S
C300 C299 1.384 . S
C300 H318 0.928 . S
C301 C298 1.260 . S
C301 C299 1.479 . S
C302 C297 1.245 . S
C302 C298 1.477 . S
C302 H319 0.932 . S
C303 U286 2.882 . S
C303 C297 1.428 . S
C303 O306 1.301 . S
C303 O307 1.282 . S
O304 U286 2.441 . S
O304 C290 1.249 . S
O305 U286 2.420 . S
O305 C290 1.202 . S
O306 U286 2.455 . S
O306 C303 1.301 . S
O307 U286 2.449 . S
O307 C303 1.282 . S
H308 C281 0.931 . S
H309 C283 0.929 . S
H310 C284 0.930 . S
H311 C285 0.931 . S
H312 C292 0.932 . S
H313 C293 0.930 . S
H314 C294 0.929 . S
H315 C296 0.930 . S
H316 C298 0.932 1_455 S
H317 C299 0.929 . S
H318 C300 0.928 . S
H319 C302 0.932 . S
C320 C321 1.264 . S
C320 C325 1.479 . S
C320 C330 1.465 . S
C321 C320 1.264 . S
C321 C323 1.339 . S
C321 H348 0.931 . S
C322 C323 1.395 . S
C322 C324 1.320 . S
C323 C321 1.339 . S
C323 C322 1.395 . S
C323 H349 0.929 . S
C324 C322 1.320 . S
C324 C325 1.405 . S
C324 H350 0.930 . S
C325 C320 1.479 . S
C325 C324 1.405 . S
C325 H351 0.931 . S
U326 O327 2.454 . S
U326 O328 2.458 . S
U326 C329 2.984 . S
U326 C330 2.847 . S
U326 C343 2.882 . S
U326 O344 2.441 . S
U326 O345 2.420 . S
U326 O346 2.455 . S
U326 O347 2.449 . S
O327 U326 2.454 . S
O327 C329 1.353 . S
O328 U326 2.458 . S
O328 C329 1.286 . S
C329 U326 2.984 . S
C329 O327 1.353 . S
C329 O328 1.286 . S
C329 C331 1.363 . S
C330 C320 1.465 . S
C330 U326 2.847 . S
C330 O344 1.249 . S
C330 O345 1.202 . S
C331 C329 1.363 . S
C331 C333 1.408 . S
C331 C336 1.342 . S
C332 C333 1.310 . S
C332 C335 1.461 1_565 S
C332 H352 0.932 . S
C333 C331 1.408 . S
C333 C332 1.310 . S
C333 H353 0.930 . S
C334 C335 1.475 . S
C334 C336 1.285 1_545 S
C334 H354 0.929 . S
C335 C332 1.461 1_545 S
C335 C334 1.475 . S
C336 C331 1.342 . S
C336 C334 1.285 1_565 S
C336 H355 0.930 . S
C337 C340 1.424 . S
C337 C342 1.245 . S
C337 C343 1.428 . S
C338 C341 1.260 . S
C338 C342 1.477 . S
C338 H356 0.932 1_565 S
C339 C340 1.384 . S
C339 C341 1.479 . S
C339 H357 0.929 . S
C340 C337 1.424 . S
C340 C339 1.384 . S
C340 H358 0.928 . S
C341 C338 1.260 . S
C341 C339 1.479 . S
C342 C337 1.245 . S
C342 C338 1.477 . S
C342 H359 0.932 . S
C343 U326 2.882 . S
C343 C337 1.428 . S
C343 O346 1.301 . S
C343 O347 1.282 . S
O344 U326 2.441 . S
O344 C330 1.249 . S
O345 U326 2.420 . S
O345 C330 1.202 . S
O346 U326 2.455 . S
O346 C343 1.301 . S
O347 U326 2.449 . S
O347 C343 1.282 . S
H348 C321 0.931 . S
H349 C323 0.929 . S
H350 C324 0.930 . S
H351 C325 0.931 . S
H352 C332 0.932 . S
H353 C333 0.930 . S
H354 C334 0.929 . S
H355 C336 0.930 . S
H356 C338 0.932 1_545 S
H357 C339 0.929 . S
H358 C340 0.928 . S
H359 C342 0.932 . S
C360 C361 1.264 . S
C360 C365 1.479 . S
C360 C370 1.465 . S
C361 C360 1.264 . S
C361 C363 1.339 . S
C361 H388 0.931 . S
C362 C363 1.395 . S
C362 C364 1.320 . S
C363 C361 1.339 . S
C363 C362 1.395 . S
C363 H389 0.929 . S
C364 C362 1.320 . S
C364 C365 1.405 . S
C364 H390 0.930 . S
C365 C360 1.479 . S
C365 C364 1.405 . S
C365 H391 0.931 . S
U366 O367 2.454 . S
U366 O368 2.458 . S
U366 C369 2.984 . S
U366 C370 2.847 . S
U366 C383 2.882 . S
U366 O384 2.441 . S
U366 O385 2.420 . S
U366 O386 2.455 . S
U366 O387 2.449 . S
O367 U366 2.454 . S
O367 C369 1.353 . S
O368 U366 2.458 . S
O368 C369 1.286 . S
C369 U366 2.984 . S
C369 O367 1.353 . S
C369 O368 1.286 . S
C369 C371 1.363 . S
C370 C360 1.465 . S
C370 U366 2.847 . S
C370 O384 1.249 . S
C370 O385 1.202 . S
C371 C369 1.363 . S
C371 C373 1.408 . S
C371 C376 1.342 . S
C372 C373 1.310 . S
C372 C375 1.461 . S
C372 H392 0.932 . S
C373 C371 1.408 . S
C373 C372 1.310 . S
C373 H393 0.930 . S
C374 C375 1.474 . S
C374 C376 1.285 . S
C374 H394 0.929 . S
C375 C372 1.461 . S
C375 C374 1.474 . S
C376 C371 1.342 . S
C376 C374 1.285 . S
C376 H395 0.930 . S
C377 C380 1.424 . S
C377 C382 1.245 . S
C377 C383 1.428 . S
C378 C381 1.260 . S
C378 C382 1.477 . S
C378 H396 0.932 . S
C379 C380 1.384 . S
C379 C381 1.479 . S
C379 H397 0.929 . S
C380 C377 1.424 . S
C380 C379 1.384 . S
C380 H398 0.928 . S
C381 C378 1.260 . S
C381 C379 1.479 . S
C382 C377 1.245 . S
C382 C378 1.477 . S
C382 H399 0.932 . S
C383 U366 2.882 . S
C383 C377 1.428 . S
C383 O386 1.301 . S
C383 O387 1.282 . S
O384 U366 2.441 . S
O384 C370 1.249 . S
O385 U366 2.420 . S
O385 C370 1.202 . S
O386 U366 2.455 . S
O386 C383 1.301 . S
O387 U366 2.449 . S
O387 C383 1.282 . S
H388 C361 0.931 . S
H389 C363 0.929 . S
H390 C364 0.930 . S
H391 C365 0.931 . S
H392 C372 0.932 . S
H393 C373 0.930 . S
H394 C374 0.929 . S
H395 C376 0.930 . S
H396 C378 0.932 . S
H397 C379 0.929 . S
H398 C380 0.928 . S
H399 C382 0.932 . S
C400 C401 1.264 . S
C400 C405 1.479 . S
C400 C410 1.465 . S
C401 C400 1.264 . S
C401 C403 1.339 . S
C401 H428 0.931 . S
C402 C403 1.395 . S
C402 C404 1.320 . S
C403 C401 1.339 . S
C403 C402 1.395 . S
C403 H429 0.929 . S
C404 C402 1.320 . S
C404 C405 1.405 . S
C404 H430 0.930 . S
C405 C400 1.479 . S
C405 C404 1.405 . S
C405 H431 0.931 . S
U406 O407 2.454 . S
U406 O408 2.458 . S
U406 C409 2.984 . S
U406 C410 2.847 . S
U406 C423 2.882 . S
U406 O424 2.441 . S
U406 O425 2.420 . S
U406 O426 2.455 . S
U406 O427 2.449 . S
O407 U406 2.454 . S
O407 C409 1.353 . S
O408 U406 2.458 . S
O408 C409 1.286 . S
C409 U406 2.984 . S
C409 O407 1.353 . S
C409 O408 1.286 . S
C409 C411 1.363 . S
C410 C400 1.465 . S
C410 U406 2.847 . S
C410 O424 1.249 . S
C410 O425 1.202 . S
C411 C409 1.363 . S
C411 C413 1.408 . S
C411 C416 1.342 . S
C412 C413 1.310 . S
C412 C415 1.467 1_455 S
C412 H432 0.932 . S
C413 C411 1.408 . S
C413 C412 1.310 . S
C413 H433 0.930 . S
C414 C415 1.470 . S
C414 C416 1.285 1_655 S
C414 H434 0.929 . S
C415 C412 1.467 1_655 S
C415 C414 1.470 . S
C416 C411 1.342 . S
C416 C414 1.285 1_455 S
C416 H435 0.930 . S
C417 C420 1.424 . S
C417 C422 1.245 . S
C417 C423 1.428 . S
C418 C421 1.260 . S
C418 C422 1.477 . S
C418 H436 0.932 1_455 S
C419 C420 1.384 . S
C419 C421 1.479 . S
C419 H437 0.929 . S
C420 C417 1.424 . S
C420 C419 1.384 . S
C420 H438 0.928 . S
C421 C418 1.260 . S
C421 C419 1.479 . S
C422 C417 1.245 . S
C422 C418 1.477 . S
C422 H439 0.932 . S
C423 U406 2.882 . S
C423 C417 1.428 . S
C423 O426 1.301 . S
C423 O427 1.282 . S
O424 U406 2.441 . S
O424 C410 1.249 . S
O425 U406 2.420 . S
O425 C410 1.202 . S
O426 U406 2.455 . S
O426 C423 1.301 . S
O427 U406 2.449 . S
O427 C423 1.282 . S
H428 C401 0.931 . S
H429 C403 0.929 . S
H430 C404 0.930 . S
H431 C405 0.931 . S
H432 C412 0.932 . S
H433 C413 0.930 . S
H434 C414 0.929 . S
H435 C416 0.930 . S
H436 C418 0.932 1_655 S
H437 C419 0.929 . S
H438 C420 0.928 . S
H439 C422 0.932 . S
C440 C441 1.264 . S
C440 C445 1.479 . S
C440 C450 1.465 . S
C441 C440 1.264 . S
C441 C443 1.339 . S
C441 H468 0.931 . S
C442 C443 1.395 . S
C442 C444 1.320 . S
C443 C441 1.339 . S
C443 C442 1.395 . S
C443 H469 0.929 . S
C444 C442 1.320 . S
C444 C445 1.405 . S
C444 H470 0.930 . S
C445 C440 1.479 . S
C445 C444 1.405 . S
C445 H471 0.931 . S
U446 O447 2.454 . S
U446 O448 2.458 . S
U446 C449 2.984 . S
U446 C450 2.847 . S
U446 C463 2.882 . S
U446 O464 2.441 . S
U446 O465 2.420 . S
U446 O466 2.455 . S
U446 O467 2.449 . S
O447 U446 2.454 . S
O447 C449 1.353 . S
O448 U446 2.458 . S
O448 C449 1.286 . S
C449 U446 2.984 . S
C449 O447 1.353 . S
C449 O448 1.286 . S
C449 C451 1.363 . S
C450 C440 1.465 . S
C450 U446 2.847 . S
C450 O464 1.249 . S
C450 O465 1.202 . S
C451 C449 1.363 . S
C451 C453 1.408 . S
C451 C456 1.342 . S
C452 C453 1.310 . S
C452 C455 1.461 1_545 S
C452 H472 0.932 . S
C453 C451 1.408 . S
C453 C452 1.310 . S
C453 H473 0.930 . S
C454 C455 1.475 . S
C454 C456 1.285 1_565 S
C454 H474 0.929 . S
C455 C452 1.461 1_565 S
C455 C454 1.475 . S
C456 C451 1.342 . S
C456 C454 1.285 1_545 S
C456 H475 0.930 . S
C457 C460 1.424 . S
C457 C462 1.245 . S
C457 C463 1.428 . S
C458 C461 1.260 . S
C458 C462 1.477 . S
C458 H476 0.932 1_545 S
C459 C460 1.384 . S
C459 C461 1.479 . S
C459 H477 0.929 . S
C460 C457 1.424 . S
C460 C459 1.384 . S
C460 H478 0.928 . S
C461 C458 1.260 . S
C461 C459 1.479 . S
C462 C457 1.245 . S
C462 C458 1.477 . S
C462 H479 0.932 . S
C463 U446 2.882 . S
C463 C457 1.428 . S
C463 O466 1.301 . S
C463 O467 1.282 . S
O464 U446 2.441 . S
O464 C450 1.249 . S
O465 U446 2.420 . S
O465 C450 1.202 . S
O466 U446 2.455 . S
O466 C463 1.301 . S
O467 U446 2.449 . S
O467 C463 1.282 . S
H468 C441 0.931 . S
H469 C443 0.929 . S
H470 C444 0.930 . S
H471 C445 0.931 . S
H472 C452 0.932 . S
H473 C453 0.930 . S
H474 C454 0.929 . S
H475 C456 0.930 . S
H476 C458 0.932 1_565 S
H477 C459 0.929 . S
H478 C460 0.928 . S
H479 C462 0.932 . S
H480 C498 0.951 . S
H481 C500 0.951 . S
H482 C502 0.950 . S
H483 C503 0.950 . S
H484 C505 0.950 . S
H485 C508 0.950 . S
H486 C509 0.950 . S
H487 C511 0.950 . S
H488 C512 0.950 . S
H489 C513 0.951 . S
H490 C515 0.951 . S
H491 C517 0.950 . S
H492 C518 0.950 . S
H493 C520 0.950 . S
H494 C523 0.950 . S
H495 C524 0.950 . S
H496 C526 0.950 . S
H497 C527 0.950 . S
C498 H480 0.951 . S
C498 C499 1.366 . S
C498 C500 1.388 . S
C499 C498 1.366 . S
C499 C503 1.385 . S
C500 H481 0.951 . S
C500 C498 1.388 . S
C500 C501 1.366 . S
C501 C500 1.366 . S
C501 C502 1.414 . S
C501 C504 1.499 . S
C502 H482 0.950 . S
C502 C501 1.414 . S
C502 C503 1.374 . S
C503 H483 0.950 . S
C503 C499 1.385 . S
C503 C502 1.374 . S
C504 C501 1.499 . S
C504 C505 1.373 . S
C504 C506 1.389 . S
C505 H484 0.950 . S
C505 C504 1.373 . S
C505 C521 1.377 . S
C506 C504 1.389 . S
C506 C507 1.524 . S
C506 C520 1.377 . S
C507 C506 1.524 . S
C507 C508 1.397 . S
C507 C512 1.363 . S
C508 H485 0.950 . S
C508 C507 1.397 . S
C508 C509 1.334 . S
C509 H486 0.950 . S
C509 C508 1.334 . S
C509 C510 1.287 . S
C510 C509 1.287 . S
C510 C511 1.524 . S
C510 H529 0.913 . S
C511 H487 0.950 . S
C511 C510 1.524 . S
C511 C512 1.415 . S
C512 H488 0.950 . S
C512 C507 1.363 . S
C512 C511 1.415 . S
C513 H489 0.951 . S
C513 C514 1.366 . S
C513 C515 1.388 . S
C514 C513 1.366 . S
C514 C518 1.385 . S
C515 H490 0.951 . S
C515 C513 1.388 . S
C515 C516 1.366 . S
C516 C515 1.366 . S
C516 C517 1.414 . S
C516 C519 1.499 . S
C517 H491 0.950 . S
C517 C516 1.414 . S
C517 C518 1.374 . S
C518 H492 0.950 . S
C518 C514 1.385 . S
C518 C517 1.374 . S
C519 C516 1.499 . S
C519 C520 1.373 . S
C519 C521 1.389 . S
C520 H493 0.950 . S
C520 C506 1.377 . S
C520 C519 1.373 . S
C521 C505 1.377 . S
C521 C519 1.389 . S
C521 C522 1.524 . S
C522 C521 1.524 . S
C522 C523 1.397 . S
C522 C527 1.363 . S
C523 H494 0.950 . S
C523 C522 1.397 . S
C523 C524 1.334 . S
C524 H495 0.950 . S
C524 C523 1.334 . S
C524 C525 1.287 . S
C525 C524 1.287 . S
C525 C526 1.524 . S
C525 H528 0.999 . S
C526 H496 0.950 . S
C526 C525 1.524 . S
C526 C527 1.415 . S
C527 H497 0.950 . S
C527 C522 1.363 . S
C527 C526 1.415 . S
H528 C525 0.999 . S
H529 C510 0.913 . S
H530 C548 0.951 . S
H531 C550 0.951 . S
H532 C552 0.950 . S
H533 C553 0.950 . S
H534 C555 0.950 . S
H535 C558 0.950 . S
H536 C559 0.950 . S
H537 C561 0.950 . S
H538 C562 0.950 . S
H539 C563 0.951 . S
H540 C565 0.951 . S
H541 C567 0.950 . S
H542 C568 0.950 . S
H543 C570 0.950 . S
H544 C573 0.950 . S
H545 C574 0.950 . S
H546 C576 0.950 . S
H547 C577 0.950 . S
C548 H530 0.951 . S
C548 C549 1.366 . S
C548 C550 1.388 . S
C549 C548 1.366 . S
C549 C553 1.385 . S
C550 H531 0.951 . S
C550 C548 1.388 . S
C550 C551 1.366 . S
C551 C550 1.366 . S
C551 C552 1.414 . S
C551 C554 1.499 . S
C552 H532 0.950 . S
C552 C551 1.414 . S
C552 C553 1.374 . S
C553 H533 0.950 . S
C553 C549 1.385 . S
C553 C552 1.374 . S
C554 C551 1.499 . S
C554 C555 1.373 . S
C554 C556 1.389 . S
C555 H534 0.950 . S
C555 C554 1.373 . S
C555 C571 1.377 . S
C556 C554 1.389 . S
C556 C557 1.524 . S
C556 C570 1.377 . S
C557 C556 1.524 . S
C557 C558 1.397 . S
C557 C562 1.363 . S
C558 H535 0.950 . S
C558 C557 1.397 . S
C558 C559 1.334 . S
C559 H536 0.950 . S
C559 C558 1.334 . S
C559 C560 1.287 . S
C560 C559 1.287 . S
C560 C561 1.524 . S
C560 H579 0.913 . S
C561 H537 0.950 . S
C561 C560 1.524 . S
C561 C562 1.415 . S
C562 H538 0.950 . S
C562 C557 1.363 . S
C562 C561 1.415 . S
C563 H539 0.951 . S
C563 C564 1.366 . S
C563 C565 1.388 . S
C564 C563 1.366 . S
C564 C568 1.385 . S
C565 H540 0.951 . S
C565 C563 1.388 . S
C565 C566 1.366 . S
C566 C565 1.366 . S
C566 C567 1.414 . S
C566 C569 1.499 . S
C567 H541 0.950 . S
C567 C566 1.414 . S
C567 C568 1.374 . S
C568 H542 0.950 . S
C568 C564 1.385 . S
C568 C567 1.374 . S
C569 C566 1.499 . S
C569 C570 1.373 . S
C569 C571 1.389 . S
C570 H543 0.950 . S
C570 C556 1.377 . S
C570 C569 1.373 . S
C571 C555 1.377 . S
C571 C569 1.389 . S
C571 C572 1.524 . S
C572 C571 1.524 . S
C572 C573 1.397 . S
C572 C577 1.363 . S
C573 H544 0.950 . S
C573 C572 1.397 . S
C573 C574 1.334 . S
C574 H545 0.950 . S
C574 C573 1.334 . S
C574 C575 1.287 . S
C575 C574 1.287 . S
C575 C576 1.524 . S
C575 H578 0.999 . S
C576 H546 0.950 . S
C576 C575 1.524 . S
C576 C577 1.415 . S
C577 H547 0.950 . S
C577 C572 1.363 . S
C577 C576 1.415 . S
H578 C575 0.999 . S
H579 C560 0.913 . S
H580 C598 0.951 . S
H581 C600 0.951 . S
H582 C602 0.950 . S
H583 C603 0.950 . S
H584 C605 0.950 . S
H585 C608 0.950 . S
H586 C609 0.950 . S
H587 C611 0.950 . S
H588 C612 0.950 . S
H589 C613 0.951 . S
H590 C615 0.951 . S
H591 C617 0.950 . S
H592 C618 0.950 . S
H593 C620 0.950 . S
H594 C623 0.950 . S
H595 C624 0.950 . S
H596 C626 0.950 . S
H597 C627 0.950 . S
C598 H580 0.951 . S
C598 C599 1.366 . S
C598 C600 1.388 . S
C599 C598 1.366 . S
C599 C603 1.385 . S
C600 H581 0.951 . S
C600 C598 1.388 . S
C600 C601 1.366 . S
C601 C600 1.366 . S
C601 C602 1.414 . S
C601 C604 1.499 . S
C602 H582 0.950 . S
C602 C601 1.414 . S
C602 C603 1.374 . S
C603 H583 0.950 . S
C603 C599 1.385 . S
C603 C602 1.374 . S
C604 C601 1.499 . S
C604 C605 1.373 . S
C604 C606 1.389 . S
C605 H584 0.950 . S
C605 C604 1.373 . S
C605 C621 1.377 . S
C606 C604 1.389 . S
C606 C607 1.524 . S
C606 C620 1.377 . S
C607 C606 1.524 . S
C607 C608 1.397 . S
C607 C612 1.363 . S
C608 H585 0.950 . S
C608 C607 1.397 . S
C608 C609 1.334 . S
C609 H586 0.950 . S
C609 C608 1.334 . S
C609 C610 1.287 . S
C610 C609 1.287 . S
C610 C611 1.524 . S
C610 H629 0.913 . S
C611 H587 0.950 . S
C611 C610 1.524 . S
C611 C612 1.415 . S
C612 H588 0.950 . S
C612 C607 1.363 . S
C612 C611 1.415 . S
C613 H589 0.951 . S
C613 C614 1.366 . S
C613 C615 1.388 . S
C614 C613 1.366 . S
C614 C618 1.385 . S
C615 H590 0.951 . S
C615 C613 1.388 . S
C615 C616 1.366 . S
C616 C615 1.366 . S
C616 C617 1.414 . S
C616 C619 1.499 . S
C617 H591 0.950 . S
C617 C616 1.414 . S
C617 C618 1.374 . S
C618 H592 0.950 . S
C618 C614 1.385 . S
C618 C617 1.374 . S
C619 C616 1.499 . S
C619 C620 1.373 . S
C619 C621 1.389 . S
C620 H593 0.950 . S
C620 C606 1.377 . S
C620 C619 1.373 . S
C621 C605 1.377 . S
C621 C619 1.389 . S
C621 C622 1.524 . S
C622 C621 1.524 . S
C622 C623 1.397 . S
C622 C627 1.363 . S
C623 H594 0.950 . S
C623 C622 1.397 . S
C623 C624 1.334 . S
C624 H595 0.950 . S
C624 C623 1.334 . S
C624 C625 1.287 . S
C625 C624 1.287 . S
C625 C626 1.524 . S
C625 H628 0.999 . S
C626 H596 0.950 . S
C626 C625 1.524 . S
C626 C627 1.415 . S
C627 H597 0.950 . S
C627 C622 1.363 . S
C627 C626 1.415 . S
H628 C625 0.999 . S
H629 C610 0.913 . S
H630 C648 0.951 . S
H631 C650 0.951 . S
H632 C652 0.950 . S
H633 C653 0.950 . S
H634 C655 0.950 . S
H635 C658 0.950 . S
H636 C659 0.950 . S
H637 C661 0.950 . S
H638 C662 0.950 . S
H639 C663 0.951 . S
H640 C665 0.951 . S
H641 C667 0.950 . S
H642 C668 0.950 . S
H643 C670 0.950 . S
H644 C673 0.950 . S
H645 C674 0.950 . S
H646 C676 0.950 . S
H647 C677 0.950 . S
C648 H630 0.951 . S
C648 C649 1.366 . S
C648 C650 1.388 . S
C649 C648 1.366 . S
C649 C653 1.385 . S
C650 H631 0.951 . S
C650 C648 1.388 . S
C650 C651 1.366 . S
C651 C650 1.366 . S
C651 C652 1.414 . S
C651 C654 1.499 . S
C652 H632 0.950 . S
C652 C651 1.414 . S
C652 C653 1.374 . S
C653 H633 0.950 . S
C653 C649 1.385 . S
C653 C652 1.374 . S
C654 C651 1.499 . S
C654 C655 1.373 . S
C654 C656 1.389 . S
C655 H634 0.950 . S
C655 C654 1.373 . S
C655 C671 1.377 . S
C656 C654 1.389 . S
C656 C657 1.524 . S
C656 C670 1.377 . S
C657 C656 1.524 . S
C657 C658 1.397 . S
C657 C662 1.363 . S
C658 H635 0.950 . S
C658 C657 1.397 . S
C658 C659 1.334 . S
C659 H636 0.950 . S
C659 C658 1.334 . S
C659 C660 1.287 . S
C660 C659 1.287 . S
C660 C661 1.524 . S
C660 H679 0.913 . S
C661 H637 0.950 . S
C661 C660 1.524 . S
C661 C662 1.415 . S
C662 H638 0.950 . S
C662 C657 1.363 . S
C662 C661 1.415 . S
C663 H639 0.951 . S
C663 C664 1.366 . S
C663 C665 1.388 . S
C664 C663 1.366 . S
C664 C668 1.385 . S
C665 H640 0.951 . S
C665 C663 1.388 . S
C665 C666 1.366 . S
C666 C665 1.366 . S
C666 C667 1.414 . S
C666 C669 1.499 . S
C667 H641 0.950 . S
C667 C666 1.414 . S
C667 C668 1.374 . S
C668 H642 0.950 . S
C668 C664 1.385 . S
C668 C667 1.374 . S
C669 C666 1.499 . S
C669 C670 1.373 . S
C669 C671 1.389 . S
C670 H643 0.950 . S
C670 C656 1.377 . S
C670 C669 1.373 . S
C671 C655 1.377 . S
C671 C669 1.389 . S
C671 C672 1.524 . S
C672 C671 1.524 . S
C672 C673 1.397 . S
C672 C677 1.363 . S
C673 H644 0.950 . S
C673 C672 1.397 . S
C673 C674 1.334 . S
C674 H645 0.950 . S
C674 C673 1.334 . S
C674 C675 1.287 . S
C675 C674 1.287 . S
C675 C676 1.524 . S
C675 H678 0.999 . S
C676 H646 0.950 . S
C676 C675 1.524 . S
C676 C677 1.415 . S
C677 H647 0.950 . S
C677 C672 1.363 . S
C677 C676 1.415 . S
H678 C675 0.999 . S
H679 C660 0.913 . S
H680 C698 0.951 . S
H681 C700 0.951 . S
H682 C702 0.950 . S
H683 C703 0.950 . S
H684 C705 0.950 . S
H685 C708 0.950 . S
H686 C709 0.950 . S
H687 C711 0.950 . S
H688 C712 0.950 . S
H689 C713 0.951 . S
H690 C715 0.951 . S
H691 C717 0.950 . S
H692 C718 0.950 . S
H693 C720 0.950 . S
H694 C723 0.950 . S
H695 C724 0.950 . S
H696 C726 0.950 . S
H697 C727 0.950 . S
C698 H680 0.951 . S
C698 C699 1.366 . S
C698 C700 1.388 . S
C699 C698 1.366 . S
C699 C703 1.385 . S
C700 H681 0.951 . S
C700 C698 1.388 . S
C700 C701 1.366 . S
C701 C700 1.366 . S
C701 C702 1.414 . S
C701 C704 1.499 . S
C702 H682 0.950 . S
C702 C701 1.414 . S
C702 C703 1.374 . S
C703 H683 0.950 . S
C703 C699 1.385 . S
C703 C702 1.374 . S
C704 C701 1.499 . S
C704 C705 1.373 . S
C704 C706 1.389 . S
C705 H684 0.950 . S
C705 C704 1.373 . S
C705 C721 1.377 . S
C706 C704 1.389 . S
C706 C707 1.524 . S
C706 C720 1.377 . S
C707 C706 1.524 . S
C707 C708 1.397 . S
C707 C712 1.363 . S
C708 H685 0.950 . S
C708 C707 1.397 . S
C708 C709 1.334 . S
C709 H686 0.950 . S
C709 C708 1.334 . S
C709 C710 1.287 . S
C710 C709 1.287 . S
C710 C711 1.524 . S
C710 H729 0.913 . S
C711 H687 0.950 . S
C711 C710 1.524 . S
C711 C712 1.415 . S
C712 H688 0.950 . S
C712 C707 1.363 . S
C712 C711 1.415 . S
C713 H689 0.951 . S
C713 C714 1.366 . S
C713 C715 1.388 . S
C714 C713 1.366 . S
C714 C718 1.385 . S
C715 H690 0.951 . S
C715 C713 1.388 . S
C715 C716 1.366 . S
C716 C715 1.366 . S
C716 C717 1.414 . S
C716 C719 1.499 . S
C717 H691 0.950 . S
C717 C716 1.414 . S
C717 C718 1.374 . S
C718 H692 0.950 . S
C718 C714 1.385 . S
C718 C717 1.374 . S
C719 C716 1.499 . S
C719 C720 1.373 . S
C719 C721 1.389 . S
C720 H693 0.950 . S
C720 C706 1.377 . S
C720 C719 1.373 . S
C721 C705 1.377 . S
C721 C719 1.389 . S
C721 C722 1.524 . S
C722 C721 1.524 . S
C722 C723 1.397 . S
C722 C727 1.363 . S
C723 H694 0.950 . S
C723 C722 1.397 . S
C723 C724 1.334 . S
C724 H695 0.950 . S
C724 C723 1.334 . S
C724 C725 1.287 . S
C725 C724 1.287 . S
C725 C726 1.524 . S
C725 H728 0.999 . S
C726 H696 0.950 . S
C726 C725 1.524 . S
C726 C727 1.415 . S
C727 H697 0.950 . S
C727 C722 1.363 . S
C727 C726 1.415 . S
H728 C725 0.999 . S
H729 C710 0.913 . S
H730 C748 0.951 . S
H731 C750 0.951 . S
H732 C752 0.950 . S
H733 C753 0.950 . S
H734 C755 0.950 . S
H735 C758 0.950 . S
H736 C759 0.950 . S
H737 C761 0.950 . S
H738 C762 0.950 . S
H739 C763 0.951 . S
H740 C765 0.951 . S
H741 C767 0.950 . S
H742 C768 0.950 . S
H743 C770 0.950 . S
H744 C773 0.950 . S
H745 C774 0.950 . S
H746 C776 0.950 . S
H747 C777 0.950 . S
C748 H730 0.951 . S
C748 C749 1.366 . S
C748 C750 1.388 . S
C749 C748 1.366 . S
C749 C753 1.385 . S
C750 H731 0.951 . S
C750 C748 1.388 . S
C750 C751 1.366 . S
C751 C750 1.366 . S
C751 C752 1.414 . S
C751 C754 1.499 . S
C752 H732 0.950 . S
C752 C751 1.414 . S
C752 C753 1.374 . S
C753 H733 0.950 . S
C753 C749 1.385 . S
C753 C752 1.374 . S
C754 C751 1.499 . S
C754 C755 1.373 . S
C754 C756 1.389 . S
C755 H734 0.950 . S
C755 C754 1.373 . S
C755 C771 1.377 . S
C756 C754 1.389 . S
C756 C757 1.524 . S
C756 C770 1.377 . S
C757 C756 1.524 . S
C757 C758 1.397 . S
C757 C762 1.363 . S
C758 H735 0.950 . S
C758 C757 1.397 . S
C758 C759 1.334 . S
C759 H736 0.950 . S
C759 C758 1.334 . S
C759 C760 1.287 . S
C760 C759 1.287 . S
C760 C761 1.524 . S
C760 H779 0.913 . S
C761 H737 0.950 . S
C761 C760 1.524 . S
C761 C762 1.415 . S
C762 H738 0.950 . S
C762 C757 1.363 . S
C762 C761 1.415 . S
C763 H739 0.951 . S
C763 C764 1.366 . S
C763 C765 1.388 . S
C764 C763 1.366 . S
C764 C768 1.385 . S
C765 H740 0.951 . S
C765 C763 1.388 . S
C765 C766 1.366 . S
C766 C765 1.366 . S
C766 C767 1.414 . S
C766 C769 1.499 . S
C767 H741 0.950 . S
C767 C766 1.414 . S
C767 C768 1.374 . S
C768 H742 0.950 . S
C768 C764 1.385 . S
C768 C767 1.374 . S
C769 C766 1.499 . S
C769 C770 1.373 . S
C769 C771 1.389 . S
C770 H743 0.950 . S
C770 C756 1.377 . S
C770 C769 1.373 . S
C771 C755 1.377 . S
C771 C769 1.389 . S
C771 C772 1.524 . S
C772 C771 1.524 . S
C772 C773 1.397 . S
C772 C777 1.363 . S
C773 H744 0.950 . S
C773 C772 1.397 . S
C773 C774 1.334 . S
C774 H745 0.950 . S
C774 C773 1.334 . S
C774 C775 1.287 . S
C775 C774 1.287 . S
C775 C776 1.524 . S
C775 H778 0.999 . S
C776 H746 0.950 . S
C776 C775 1.524 . S
C776 C777 1.415 . S
C777 H747 0.950 . S
C777 C772 1.363 . S
C777 C776 1.415 . S
H778 C775 0.999 . S
H779 C760 0.913 . S
H780 C798 0.951 . S
H781 C800 0.951 . S
H782 C802 0.950 . S
H783 C803 0.950 . S
H784 C805 0.950 . S
H785 C808 0.950 . S
H786 C809 0.950 . S
H787 C811 0.950 . S
H788 C812 0.950 . S
H789 C813 0.951 . S
H790 C815 0.951 . S
H791 C817 0.950 . S
H792 C818 0.950 . S
H793 C820 0.950 . S
H794 C823 0.950 . S
H795 C824 0.950 . S
H796 C826 0.950 . S
H797 C827 0.950 . S
C798 H780 0.951 . S
C798 C799 1.366 . S
C798 C800 1.388 . S
C799 C798 1.366 . S
C799 C803 1.385 . S
C800 H781 0.951 . S
C800 C798 1.388 . S
C800 C801 1.366 . S
C801 C800 1.366 . S
C801 C802 1.414 . S
C801 C804 1.499 . S
C802 H782 0.950 . S
C802 C801 1.414 . S
C802 C803 1.374 . S
C803 H783 0.950 . S
C803 C799 1.385 . S
C803 C802 1.374 . S
C804 C801 1.499 . S
C804 C805 1.373 . S
C804 C806 1.389 . S
C805 H784 0.950 . S
C805 C804 1.373 . S
C805 C821 1.377 . S
C806 C804 1.389 . S
C806 C807 1.524 . S
C806 C820 1.377 . S
C807 C806 1.524 . S
C807 C808 1.397 . S
C807 C812 1.363 . S
C808 H785 0.950 . S
C808 C807 1.397 . S
C808 C809 1.334 . S
C809 H786 0.950 . S
C809 C808 1.334 . S
C809 C810 1.287 . S
C810 C809 1.287 . S
C810 C811 1.524 . S
C810 H829 0.913 . S
C811 H787 0.950 . S
C811 C810 1.524 . S
C811 C812 1.415 . S
C812 H788 0.950 . S
C812 C807 1.363 . S
C812 C811 1.415 . S
C813 H789 0.951 . S
C813 C814 1.366 . S
C813 C815 1.388 . S
C814 C813 1.366 . S
C814 C818 1.385 . S
C815 H790 0.951 . S
C815 C813 1.388 . S
C815 C816 1.366 . S
C816 C815 1.366 . S
C816 C817 1.414 . S
C816 C819 1.499 . S
C817 H791 0.950 . S
C817 C816 1.414 . S
C817 C818 1.374 . S
C818 H792 0.950 . S
C818 C814 1.385 . S
C818 C817 1.374 . S
C819 C816 1.499 . S
C819 C820 1.373 . S
C819 C821 1.389 . S
C820 H793 0.950 . S
C820 C806 1.377 . S
C820 C819 1.373 . S
C821 C805 1.377 . S
C821 C819 1.389 . S
C821 C822 1.524 . S
C822 C821 1.524 . S
C822 C823 1.397 . S
C822 C827 1.363 . S
C823 H794 0.950 . S
C823 C822 1.397 . S
C823 C824 1.334 . S
C824 H795 0.950 . S
C824 C823 1.334 . S
C824 C825 1.287 . S
C825 C824 1.287 . S
C825 C826 1.524 . S
C825 H828 0.999 . S
C826 H796 0.950 . S
C826 C825 1.524 . S
C826 C827 1.415 . S
C827 H797 0.950 . S
C827 C822 1.363 . S
C827 C826 1.415 . S
H828 C825 0.999 . S
H829 C810 0.913 . S
H830 C848 0.951 . S
H831 C850 0.951 . S
H832 C852 0.982 . S
H833 C853 0.989 . S
H834 C855 0.994 . S
H835 C858 0.950 . S
H836 C859 0.950 . S
H837 C861 0.950 . S
H838 C862 0.950 . S
H839 C863 0.950 . S
H840 C865 0.957 1_455 S
H841 C867 0.950 . S
H842 C868 0.950 . S
H843 C870 0.950 . S
H844 C873 0.950 . S
H845 C874 0.950 . S
H846 C876 0.950 . S
H847 C877 0.950 . S
C848 H830 0.951 . S
C848 C849 1.366 . S
C848 C850 1.388 . S
C849 C848 1.366 . S
C849 C853 1.365 1_655 S
C850 H831 0.951 . S
C850 C848 1.388 . S
C850 C851 1.366 . S
C851 C850 1.366 . S
C851 C852 1.355 1_655 S
C851 C854 1.499 . S
C852 H832 0.982 . S
C852 C851 1.355 1_455 S
C852 C853 1.383 . S
C853 H833 0.989 . S
C853 C849 1.365 1_455 S
C853 C852 1.383 . S
C854 C851 1.499 . S
C854 C855 1.373 . S
C854 C856 1.389 . S
C855 H834 0.994 . S
C855 C854 1.373 . S
C855 C871 1.377 . S
C856 C854 1.389 . S
C856 C857 1.524 . S
C856 C870 1.377 . S
C857 C856 1.524 . S
C857 C858 1.397 . S
C857 C862 1.363 . S
C858 H835 0.950 . S
C858 C857 1.397 . S
C858 C859 1.334 . S
C859 H836 0.950 . S
C859 C858 1.334 . S
C859 C860 1.287 . S
C860 C859 1.287 . S
C860 C861 1.524 . S
C860 H879 0.913 . S
C861 H837 0.950 . S
C861 C860 1.524 . S
C861 C862 1.415 . S
C862 H838 0.950 . S
C862 C857 1.363 . S
C862 C861 1.415 . S
C863 H839 0.950 . S
C863 C864 1.368 1_455 S
C863 C865 1.383 1_455 S
C864 C863 1.368 1_655 S
C864 C868 1.385 . S
C865 H840 0.957 1_655 S
C865 C863 1.383 1_655 S
C865 C866 1.362 . S
C866 C865 1.362 . S
C866 C867 1.414 . S
C866 C869 1.499 . S
C867 H841 0.950 . S
C867 C866 1.414 . S
C867 C868 1.374 . S
C868 H842 0.950 . S
C868 C864 1.385 . S
C868 C867 1.374 . S
C869 C866 1.499 . S
C869 C870 1.373 . S
C869 C871 1.389 . S
C870 H843 0.950 . S
C870 C856 1.377 . S
C870 C869 1.373 . S
C871 C855 1.377 . S
C871 C869 1.389 . S
C871 C872 1.525 1_655 S
C872 C871 1.525 1_455 S
C872 C873 1.398 1_455 S
C872 C877 1.361 . S
C873 H844 0.950 . S
C873 C872 1.398 1_655 S
C873 C874 1.334 . S
C874 H845 0.950 . S
C874 C873 1.334 . S
C874 C875 1.287 1_655 S
C875 C874 1.287 1_455 S
C875 C876 1.524 . S
C875 H878 0.999 . S
C876 H846 0.950 . S
C876 C875 1.524 . S
C876 C877 1.415 . S
C877 H847 0.950 . S
C877 C872 1.361 . S
C877 C876 1.415 . S
H878 C875 0.999 . S
H879 C860 0.913 . S
H880 C898 0.951 . S
H881 C900 0.951 . S
H882 C902 0.950 . S
H883 C903 0.950 . S
H884 C905 0.950 . S
H885 C908 0.950 . S
H886 C909 0.950 . S
H887 C911 0.950 . S
H888 C912 0.950 . S
H889 C913 0.951 . S
H890 C915 0.951 . S
H891 C917 0.950 . S
H892 C918 0.950 . S
H893 C920 0.950 1_545 S
H894 C923 0.950 . S
H895 C924 0.950 . S
H896 C926 0.950 . S
H897 C927 0.950 . S
C898 H880 0.951 . S
C898 C899 1.366 . S
C898 C900 1.388 . S
C899 C898 1.366 . S
C899 C903 1.385 . S
C900 H881 0.951 . S
C900 C898 1.388 . S
C900 C901 1.366 . S
C901 C900 1.366 . S
C901 C902 1.414 . S
C901 C904 1.499 . S
C902 H882 0.950 . S
C902 C901 1.414 . S
C902 C903 1.374 . S
C903 H883 0.950 . S
C903 C899 1.385 . S
C903 C902 1.374 . S
C904 C901 1.499 . S
C904 C905 1.373 . S
C904 C906 1.389 . S
C905 H884 0.950 . S
C905 C904 1.373 . S
C905 C921 1.377 . S
C906 C904 1.389 . S
C906 C907 1.524 1_565 S
C906 C920 1.377 . S
C907 C906 1.524 1_545 S
C907 C908 1.397 . S
C907 C912 1.363 . S
C908 H885 0.950 . S
C908 C907 1.397 . S
C908 C909 1.334 . S
C909 H886 0.950 . S
C909 C908 1.334 . S
C909 C910 1.287 . S
C910 C909 1.287 . S
C910 C911 1.524 . S
C910 H929 0.913 . S
C911 H887 0.950 . S
C911 C910 1.524 . S
C911 C912 1.415 . S
C912 H888 0.950 . S
C912 C907 1.363 . S
C912 C911 1.415 . S
C913 H889 0.951 . S
C913 C914 1.366 . S
C913 C915 1.388 . S
C914 C913 1.366 . S
C914 C918 1.385 . S
C915 H890 0.951 . S
C915 C913 1.388 . S
C915 C916 1.366 . S
C916 C915 1.366 . S
C916 C917 1.414 . S
C916 C919 1.499 . S
C917 H891 0.950 . S
C917 C916 1.414 . S
C917 C918 1.374 . S
C918 H892 0.950 . S
C918 C914 1.385 . S
C918 C917 1.374 . S
C919 C916 1.499 . S
C919 C920 1.373 . S
C919 C921 1.389 . S
C920 H893 0.950 1_565 S
C920 C906 1.377 . S
C920 C919 1.373 . S
C921 C905 1.377 . S
C921 C919 1.389 . S
C921 C922 1.524 . S
C922 C921 1.524 . S
C922 C923 1.397 . S
C922 C927 1.363 . S
C923 H894 0.950 . S
C923 C922 1.397 . S
C923 C924 1.334 . S
C924 H895 0.950 . S
C924 C923 1.334 . S
C924 C925 1.287 . S
C925 C924 1.287 . S
C925 C926 1.524 . S
C925 H928 0.999 . S
C926 H896 0.950 . S
C926 C925 1.524 . S
C926 C927 1.415 . S
C927 H897 0.950 . S
C927 C922 1.363 . S
C927 C926 1.415 . S
H928 C925 0.999 . S
H929 C910 0.913 . S
H930 C948 0.951 . S
H931 C950 0.951 . S
H932 C952 0.950 . S
H933 C953 0.950 . S
H934 C955 0.950 . S
H935 C958 0.950 . S
H936 C959 0.950 . S
H937 C961 0.950 . S
H938 C962 0.950 . S
H939 C963 0.951 . S
H940 C965 0.951 . S
H941 C967 0.950 . S
H942 C968 0.950 . S
H943 C970 0.950 . S
H944 C973 0.950 . S
H945 C974 0.950 . S
H946 C976 0.950 . S
H947 C977 0.950 . S
C948 H930 0.951 . S
C948 C949 1.366 . S
C948 C950 1.388 . S
C949 C948 1.366 . S
C949 C953 1.385 . S
C950 H931 0.951 . S
C950 C948 1.388 . S
C950 C951 1.366 . S
C951 C950 1.366 . S
C951 C952 1.414 . S
C951 C954 1.499 . S
C952 H932 0.950 . S
C952 C951 1.414 . S
C952 C953 1.374 . S
C953 H933 0.950 . S
C953 C949 1.385 . S
C953 C952 1.374 . S
C954 C951 1.499 . S
C954 C955 1.373 . S
C954 C956 1.389 . S
C955 H934 0.950 . S
C955 C954 1.373 . S
C955 C971 1.377 . S
C956 C954 1.389 . S
C956 C957 1.524 . S
C956 C970 1.377 . S
C957 C956 1.524 . S
C957 C958 1.397 . S
C957 C962 1.363 . S
C958 H935 0.950 . S
C958 C957 1.397 . S
C958 C959 1.334 . S
C959 H936 0.950 . S
C959 C958 1.334 . S
C959 C960 1.287 . S
C960 C959 1.287 . S
C960 C961 1.524 . S
C960 H979 0.913 . S
C961 H937 0.950 . S
C961 C960 1.524 . S
C961 C962 1.415 . S
C962 H938 0.950 . S
C962 C957 1.363 . S
C962 C961 1.415 . S
C963 H939 0.951 . S
C963 C964 1.366 . S
C963 C965 1.388 . S
C964 C963 1.366 . S
C964 C968 1.385 . S
C965 H940 0.951 . S
C965 C963 1.388 . S
C965 C966 1.366 . S
C966 C965 1.366 . S
C966 C967 1.414 . S
C966 C969 1.499 . S
C967 H941 0.950 . S
C967 C966 1.414 . S
C967 C968 1.374 . S
C968 H942 0.950 . S
C968 C964 1.385 . S
C968 C967 1.374 . S
C969 C966 1.499 . S
C969 C970 1.373 . S
C969 C971 1.389 . S
C970 H943 0.950 . S
C970 C956 1.377 . S
C970 C969 1.373 . S
C971 C955 1.377 . S
C971 C969 1.389 . S
C971 C972 1.524 . S
C972 C971 1.524 . S
C972 C973 1.397 . S
C972 C977 1.363 . S
C973 H944 0.950 . S
C973 C972 1.397 . S
C973 C974 1.334 . S
C974 H945 0.950 . S
C974 C973 1.334 . S
C974 C975 1.287 . S
C975 C974 1.287 . S
C975 C976 1.524 . S
C975 H978 0.999 . S
C976 H946 0.950 . S
C976 C975 1.524 . S
C976 C977 1.415 . S
C977 H947 0.950 . S
C977 C972 1.363 . S
C977 C976 1.415 . S
H978 C975 0.999 . S
H979 C960 0.913 . S
H980 C998 0.972 . S
H981 C1000 0.959 . S
H982 C1002 0.950 . S
H983 C1003 0.950 . S
H984 C1005 0.950 . S
H985 C1008 0.950 . S
H986 C1009 0.950 1_455 S
H987 C1011 0.950 . S
H988 C1012 0.950 . S
H989 C1013 0.951 . S
H990 C1015 0.951 . S
H991 C1017 1.024 . S
H992 C1018 0.979 . S
H993 C1020 0.950 1_655 S
H994 C1023 0.950 . S
H995 C1024 0.950 . S
H996 C1026 0.950 . S
H997 C1027 0.950 . S
C998 H980 0.972 . S
C998 C999 1.355 1_655 S
C998 C1000 1.386 . S
C999 C998 1.355 1_455 S
C999 C1003 1.385 . S
C1000 H981 0.959 . S
C1000 C998 1.386 . S
C1000 C1001 1.349 1_655 S
C1001 C1000 1.349 1_455 S
C1001 C1002 1.414 . S
C1001 C1004 1.499 . S
C1002 H982 0.950 . S
C1002 C1001 1.414 . S
C1002 C1003 1.374 . S
C1003 H983 0.950 . S
C1003 C999 1.385 . S
C1003 C1002 1.374 . S
C1004 C1001 1.499 . S
C1004 C1005 1.373 . S
C1004 C1006 1.389 . S
C1005 H984 0.950 . S
C1005 C1004 1.373 . S
C1005 C1021 1.377 . S
C1006 C1004 1.389 . S
C1006 C1007 1.524 1_455 S
C1006 C1020 1.377 . S
C1007 C1006 1.524 1_655 S
C1007 C1008 1.397 1_655 S
C1007 C1012 1.363 . S
C1008 H985 0.950 . S
C1008 C1007 1.397 1_455 S
C1008 C1009 1.334 1_455 S
C1009 H986 0.950 1_655 S
C1009 C1008 1.334 1_655 S
C1009 C1010 1.287 . S
C1010 C1009 1.287 . S
C1010 C1011 1.524 . S
C1010 H1029 0.913 . S
C1011 H987 0.950 . S
C1011 C1010 1.524 . S
C1011 C1012 1.415 . S
C1012 H988 0.950 . S
C1012 C1007 1.363 . S
C1012 C1011 1.415 . S
C1013 H989 0.951 . S
C1013 C1014 1.366 . S
C1013 C1015 1.388 . S
C1014 C1013 1.366 . S
C1014 C1018 1.328 1_455 S
C1015 H990 0.951 . S
C1015 C1013 1.388 . S
C1015 C1016 1.366 . S
C1016 C1015 1.366 . S
C1016 C1017 1.379 1_455 S
C1016 C1019 1.499 . S
C1017 H991 1.024 . S
C1017 C1016 1.379 1_655 S
C1017 C1018 1.365 . S
C1018 H992 0.979 . S
C1018 C1014 1.328 1_655 S
C1018 C1017 1.365 . S
C1019 C1016 1.499 . S
C1019 C1020 1.373 . S
C1019 C1021 1.389 . S
C1020 H993 0.950 1_455 S
C1020 C1006 1.377 . S
C1020 C1019 1.373 . S
C1021 C1005 1.377 . S
C1021 C1019 1.389 . S
C1021 C1022 1.524 . S
C1022 C1021 1.524 . S
C1022 C1023 1.397 . S
C1022 C1027 1.363 . S
C1023 H994 0.950 . S
C1023 C1022 1.397 . S
C1023 C1024 1.334 . S
C1024 H995 0.950 . S
C1024 C1023 1.334 . S
C1024 C1025 1.287 . S
C1025 C1024 1.287 . S
C1025 C1026 1.524 . S
C1025 H1028 0.999 . S
C1026 H996 0.950 . S
C1026 C1025 1.524 . S
C1026 C1027 1.415 . S
C1027 H997 0.950 . S
C1027 C1022 1.363 . S
C1027 C1026 1.415 . S
H1028 C1025 0.999 . S
H1029 C1010 0.913 . S
H1030 C1048 0.951 . S
H1031 C1050 0.951 . S
H1032 C1052 0.950 . S
H1033 C1053 0.950 . S
H1034 C1055 0.950 . S
H1035 C1058 0.950 . S
H1036 C1059 0.950 . S
H1037 C1061 0.950 . S
H1038 C1062 0.950 . S
H1039 C1063 0.951 . S
H1040 C1065 0.951 . S
H1041 C1067 0.950 . S
H1042 C1068 0.950 . S
H1043 C1070 0.950 1_565 S
H1044 C1073 0.950 . S
H1045 C1074 0.950 . S
H1046 C1076 0.950 . S
H1047 C1077 0.950 . S
C1048 H1030 0.951 . S
C1048 C1049 1.366 . S
C1048 C1050 1.388 . S
C1049 C1048 1.366 . S
C1049 C1053 1.385 . S
C1050 H1031 0.951 . S
C1050 C1048 1.388 . S
C1050 C1051 1.366 . S
C1051 C1050 1.366 . S
C1051 C1052 1.414 . S
C1051 C1054 1.499 . S
C1052 H1032 0.950 . S
C1052 C1051 1.414 . S
C1052 C1053 1.374 . S
C1053 H1033 0.950 . S
C1053 C1049 1.385 . S
C1053 C1052 1.374 . S
C1054 C1051 1.499 . S
C1054 C1055 1.373 . S
C1054 C1056 1.389 . S
C1055 H1034 0.950 . S
C1055 C1054 1.373 . S
C1055 C1071 1.377 . S
C1056 C1054 1.389 . S
C1056 C1057 1.524 1_545 S
C1056 C1070 1.377 . S
C1057 C1056 1.524 1_565 S
C1057 C1058 1.397 . S
C1057 C1062 1.363 . S
C1058 H1035 0.950 . S
C1058 C1057 1.397 . S
C1058 C1059 1.334 . S
C1059 H1036 0.950 . S
C1059 C1058 1.334 . S
C1059 C1060 1.287 . S
C1060 C1059 1.287 . S
C1060 C1061 1.524 . S
C1060 H1079 0.913 . S
C1061 H1037 0.950 . S
C1061 C1060 1.524 . S
C1061 C1062 1.415 . S
C1062 H1038 0.950 . S
C1062 C1057 1.363 . S
C1062 C1061 1.415 . S
C1063 H1039 0.951 . S
C1063 C1064 1.366 . S
C1063 C1065 1.388 . S
C1064 C1063 1.366 . S
C1064 C1068 1.385 . S
C1065 H1040 0.951 . S
C1065 C1063 1.388 . S
C1065 C1066 1.366 . S
C1066 C1065 1.366 . S
C1066 C1067 1.414 . S
C1066 C1069 1.499 . S
C1067 H1041 0.950 . S
C1067 C1066 1.414 . S
C1067 C1068 1.374 . S
C1068 H1042 0.950 . S
C1068 C1064 1.385 . S
C1068 C1067 1.374 . S
C1069 C1066 1.499 . S
C1069 C1070 1.373 . S
C1069 C1071 1.389 . S
C1070 H1043 0.950 1_545 S
C1070 C1056 1.377 . S
C1070 C1069 1.373 . S
C1071 C1055 1.377 . S
C1071 C1069 1.389 . S
C1071 C1072 1.524 . S
C1072 C1071 1.524 . S
C1072 C1073 1.397 . S
C1072 C1077 1.363 . S
C1073 H1044 0.950 . S
C1073 C1072 1.397 . S
C1073 C1074 1.334 . S
C1074 H1045 0.950 . S
C1074 C1073 1.334 . S
C1074 C1075 1.287 . S
C1075 C1074 1.287 . S
C1075 C1076 1.524 . S
C1075 H1078 0.999 . S
C1076 H1046 0.950 . S
C1076 C1075 1.524 . S
C1076 C1077 1.415 . S
C1077 H1047 0.950 . S
C1077 C1072 1.363 . S
C1077 C1076 1.415 . S
H1078 C1075 0.999 . S
H1079 C1060 0.913 . S
H1080 C1098 0.951 . S
H1081 C1100 0.951 . S
H1082 C1102 0.950 . S
H1083 C1103 0.950 . S
H1084 C1105 0.950 . S
H1085 C1108 0.950 . S
H1086 C1109 0.950 . S
H1087 C1111 0.950 . S
H1088 C1112 0.950 . S
H1089 C1113 0.951 . S
H1090 C1115 0.951 . S
H1091 C1117 0.950 . S
H1092 C1118 0.950 . S
H1093 C1120 0.950 . S
H1094 C1123 0.950 . S
H1095 C1124 0.950 . S
H1096 C1126 0.950 . S
H1097 C1127 0.950 . S
C1098 H1080 0.951 . S
C1098 C1099 1.366 . S
C1098 C1100 1.388 . S
C1099 C1098 1.366 . S
C1099 C1103 1.385 . S
C1100 H1081 0.951 . S
C1100 C1098 1.388 . S
C1100 C1101 1.366 . S
C1101 C1100 1.366 . S
C1101 C1102 1.414 . S
C1101 C1104 1.499 . S
C1102 H1082 0.950 . S
C1102 C1101 1.414 . S
C1102 C1103 1.374 . S
C1103 H1083 0.950 . S
C1103 C1099 1.385 . S
C1103 C1102 1.374 . S
C1104 C1101 1.499 . S
C1104 C1105 1.373 . S
C1104 C1106 1.389 . S
C1105 H1084 0.950 . S
C1105 C1104 1.373 . S
C1105 C1121 1.377 1_554 S
C1106 C1104 1.389 . S
C1106 C1107 1.524 . S
C1106 C1120 1.377 1_554 S
C1107 C1106 1.524 . S
C1107 C1108 1.397 . S
C1107 C1112 1.363 . S
C1108 H1085 0.950 . S
C1108 C1107 1.397 . S
C1108 C1109 1.334 . S
C1109 H1086 0.950 . S
C1109 C1108 1.334 . S
C1109 C1110 1.287 . S
C1110 C1109 1.287 . S
C1110 C1111 1.524 . S
C1110 H1129 0.913 . S
C1111 H1087 0.950 . S
C1111 C1110 1.524 . S
C1111 C1112 1.415 . S
C1112 H1088 0.950 . S
C1112 C1107 1.363 . S
C1112 C1111 1.415 . S
C1113 H1089 0.951 . S
C1113 C1114 1.366 . S
C1113 C1115 1.388 . S
C1114 C1113 1.366 . S
C1114 C1118 1.385 . S
C1115 H1090 0.951 . S
C1115 C1113 1.388 . S
C1115 C1116 1.366 . S
C1116 C1115 1.366 . S
C1116 C1117 1.414 . S
C1116 C1119 1.499 . S
C1117 H1091 0.950 . S
C1117 C1116 1.414 . S
C1117 C1118 1.374 . S
C1118 H1092 0.950 . S
C1118 C1114 1.385 . S
C1118 C1117 1.374 . S
C1119 C1116 1.499 . S
C1119 C1120 1.373 . S
C1119 C1121 1.389 . S
C1120 H1093 0.950 . S
C1120 C1106 1.377 1_556 S
C1120 C1119 1.373 . S
C1121 C1105 1.377 1_556 S
C1121 C1119 1.389 . S
C1121 C1122 1.524 . S
C1122 C1121 1.524 . S
C1122 C1123 1.397 . S
C1122 C1127 1.363 . S
C1123 H1094 0.950 . S
C1123 C1122 1.397 . S
C1123 C1124 1.334 . S
C1124 H1095 0.950 . S
C1124 C1123 1.334 . S
C1124 C1125 1.287 . S
C1125 C1124 1.287 . S
C1125 C1126 1.524 . S
C1125 H1128 0.999 . S
C1126 H1096 0.950 . S
C1126 C1125 1.524 . S
C1126 C1127 1.415 . S
C1127 H1097 0.950 . S
C1127 C1122 1.363 . S
C1127 C1126 1.415 . S
H1128 C1125 0.999 . S
H1129 C1110 0.913 . S
H1130 C1148 0.951 . S
H1131 C1150 0.951 . S
H1132 C1152 0.950 . S
H1133 C1153 0.950 . S
H1134 C1155 0.950 . S
H1135 C1158 0.950 . S
H1136 C1159 0.950 . S
H1137 C1161 0.950 . S
H1138 C1162 0.950 . S
H1139 C1163 0.951 . S
H1140 C1165 0.951 . S
H1141 C1167 0.950 . S
H1142 C1168 0.950 . S
H1143 C1170 0.950 . S
H1144 C1173 0.950 . S
H1145 C1174 0.950 . S
H1146 C1176 0.950 . S
H1147 C1177 0.950 . S
C1148 H1130 0.951 . S
C1148 C1149 1.366 . S
C1148 C1150 1.388 . S
C1149 C1148 1.366 . S
C1149 C1153 1.385 1_655 S
C1150 H1131 0.951 . S
C1150 C1148 1.388 . S
C1150 C1151 1.366 . S
C1151 C1150 1.366 . S
C1151 C1152 1.414 1_655 S
C1151 C1154 1.499 . S
C1152 H1132 0.950 . S
C1152 C1151 1.414 1_455 S
C1152 C1153 1.374 . S
C1153 H1133 0.950 . S
C1153 C1149 1.385 1_455 S
C1153 C1152 1.374 . S
C1154 C1151 1.499 . S
C1154 C1155 1.373 1_655 S
C1154 C1156 1.389 . S
C1155 H1134 0.950 . S
C1155 C1154 1.373 1_455 S
C1155 C1171 1.377 . S
C1156 C1154 1.389 . S
C1156 C1157 1.524 . S
C1156 C1170 1.377 . S
C1157 C1156 1.524 . S
C1157 C1158 1.397 . S
C1157 C1162 1.363 . S
C1158 H1135 0.950 . S
C1158 C1157 1.397 . S
C1158 C1159 1.334 . S
C1159 H1136 0.950 . S
C1159 C1158 1.334 . S
C1159 C1160 1.287 . S
C1160 C1159 1.287 . S
C1160 C1161 1.524 . S
C1160 H1179 0.913 . S
C1161 H1137 0.950 . S
C1161 C1160 1.524 . S
C1161 C1162 1.415 . S
C1162 H1138 0.950 . S
C1162 C1157 1.363 . S
C1162 C1161 1.415 . S
C1163 H1139 0.951 . S
C1163 C1164 1.366 . S
C1163 C1165 1.388 . S
C1164 C1163 1.366 . S
C1164 C1168 1.385 1_455 S
C1165 H1140 0.951 . S
C1165 C1163 1.388 . S
C1165 C1166 1.366 . S
C1166 C1165 1.366 . S
C1166 C1167 1.414 1_455 S
C1166 C1169 1.499 . S
C1167 H1141 0.950 . S
C1167 C1166 1.414 1_655 S
C1167 C1168 1.374 . S
C1168 H1142 0.950 . S
C1168 C1164 1.385 1_655 S
C1168 C1167 1.374 . S
C1169 C1166 1.499 . S
C1169 C1170 1.373 1_455 S
C1169 C1171 1.389 . S
C1170 H1143 0.950 . S
C1170 C1156 1.377 . S
C1170 C1169 1.373 1_655 S
C1171 C1155 1.377 . S
C1171 C1169 1.389 . S
C1171 C1172 1.524 . S
C1172 C1171 1.524 . S
C1172 C1173 1.397 . S
C1172 C1177 1.363 . S
C1173 H1144 0.950 . S
C1173 C1172 1.397 . S
C1173 C1174 1.334 . S
C1174 H1145 0.950 . S
C1174 C1173 1.334 . S
C1174 C1175 1.287 . S
C1175 C1174 1.287 . S
C1175 C1176 1.524 . S
C1175 H1178 0.999 . S
C1176 H1146 0.950 . S
C1176 C1175 1.524 . S
C1176 C1177 1.415 . S
C1177 H1147 0.950 . S
C1177 C1172 1.363 . S
C1177 C1176 1.415 . S
H1178 C1175 0.999 . S
H1179 C1160 0.913 . S
H1180 C1198 0.951 . S
H1181 C1200 0.951 . S
H1182 C1202 0.950 . S
H1183 C1203 0.950 . S
H1184 C1205 0.961 . S
H1185 C1208 0.950 . S
H1186 C1209 0.950 . S
H1187 C1211 0.950 . S
H1188 C1212 0.950 . S
H1189 C1213 0.951 . S
H1190 C1215 0.951 . S
H1191 C1217 0.950 . S
H1192 C1218 0.950 . S
H1193 C1220 0.961 . S
H1194 C1223 0.950 . S
H1195 C1224 0.950 . S
H1196 C1226 0.950 . S
H1197 C1227 0.950 . S
C1198 H1180 0.951 . S
C1198 C1199 1.366 . S
C1198 C1200 1.388 . S
C1199 C1198 1.366 . S
C1199 C1203 1.385 1_565 S
C1200 H1181 0.951 . S
C1200 C1198 1.388 . S
C1200 C1201 1.390 . S
C1201 C1200 1.390 . S
C1201 C1202 1.398 1_565 S
C1201 C1204 1.497 1_565 S
C1202 H1182 0.950 . S
C1202 C1201 1.398 1_545 S
C1202 C1203 1.374 . S
C1203 H1183 0.950 . S
C1203 C1199 1.385 1_545 S
C1203 C1202 1.374 . S
C1204 C1201 1.497 1_545 S
C1204 C1205 1.372 . S
C1204 C1206 1.397 . S
C1205 H1184 0.961 . S
C1205 C1204 1.372 . S
C1205 C1221 1.376 1_546 S
C1206 C1204 1.397 . S
C1206 C1207 1.526 . S
C1206 C1220 1.376 1_546 S
C1207 C1206 1.526 . S
C1207 C1208 1.397 . S
C1207 C1212 1.363 1_545 S
C1208 H1185 0.950 . S
C1208 C1207 1.397 . S
C1208 C1209 1.334 . S
C1209 H1186 0.950 . S
C1209 C1208 1.334 . S
C1209 C1210 1.287 . S
C1210 C1209 1.287 . S
C1210 C1211 1.524 1_545 S
C1210 H1229 0.913 . S
C1211 H1187 0.950 . S
C1211 C1210 1.524 1_565 S
C1211 C1212 1.415 . S
C1212 H1188 0.950 . S
C1212 C1207 1.363 1_565 S
C1212 C1211 1.415 . S
C1213 H1189 0.951 . S
C1213 C1214 1.366 . S
C1213 C1215 1.388 . S
C1214 C1213 1.366 . S
C1214 C1218 1.385 1_545 S
C1215 H1190 0.951 . S
C1215 C1213 1.388 . S
C1215 C1216 1.389 . S
C1216 C1215 1.389 . S
C1216 C1217 1.399 1_545 S
C1216 C1219 1.497 1_545 S
C1217 H1191 0.950 . S
C1217 C1216 1.399 1_565 S
C1217 C1218 1.374 . S
C1218 H1192 0.950 . S
C1218 C1214 1.385 1_565 S
C1218 C1217 1.374 . S
C1219 C1216 1.497 1_565 S
C1219 C1220 1.372 . S
C1219 C1221 1.397 . S
C1220 H1193 0.961 . S
C1220 C1206 1.376 1_564 S
C1220 C1219 1.372 . S
C1221 C1205 1.376 1_564 S
C1221 C1219 1.397 . S
C1221 C1222 1.527 . S
C1222 C1221 1.527 . S
C1222 C1223 1.397 . S
C1222 C1227 1.363 1_565 S
C1223 H1194 0.950 . S
C1223 C1222 1.397 . S
C1223 C1224 1.334 . S
C1224 H1195 0.950 . S
C1224 C1223 1.334 . S
C1224 C1225 1.287 . S
C1225 C1224 1.287 . S
C1225 C1226 1.524 1_565 S
C1225 H1228 0.999 . S
C1226 H1196 0.950 . S
C1226 C1225 1.524 1_545 S
C1226 C1227 1.415 . S
C1227 H1197 0.950 . S
C1227 C1222 1.363 1_545 S
C1227 C1226 1.415 . S
H1228 C1225 0.999 . S
H1229 C1210 0.913 . S
H1230 C1248 0.951 . S
H1231 C1250 0.951 . S
H1232 C1252 0.950 . S
H1233 C1253 0.950 . S
H1234 C1255 0.950 . S
H1235 C1258 0.950 . S
H1236 C1259 0.950 . S
H1237 C1261 0.950 . S
H1238 C1262 0.950 . S
H1239 C1263 0.951 . S
H1240 C1265 0.951 . S
H1241 C1267 0.950 . S
H1242 C1268 0.950 . S
H1243 C1270 0.950 . S
H1244 C1273 0.950 . S
H1245 C1274 0.950 . S
H1246 C1276 0.950 . S
H1247 C1277 0.950 . S
C1248 H1230 0.951 . S
C1248 C1249 1.366 . S
C1248 C1250 1.388 . S
C1249 C1248 1.366 . S
C1249 C1253 1.385 . S
C1250 H1231 0.951 . S
C1250 C1248 1.388 . S
C1250 C1251 1.366 . S
C1251 C1250 1.366 . S
C1251 C1252 1.414 . S
C1251 C1254 1.499 . S
C1252 H1232 0.950 . S
C1252 C1251 1.414 . S
C1252 C1253 1.374 . S
C1253 H1233 0.950 . S
C1253 C1249 1.385 . S
C1253 C1252 1.374 . S
C1254 C1251 1.499 . S
C1254 C1255 1.373 . S
C1254 C1256 1.389 . S
C1255 H1234 0.950 . S
C1255 C1254 1.373 . S
C1255 C1271 1.377 . S
C1256 C1254 1.389 . S
C1256 C1257 1.524 . S
C1256 C1270 1.377 . S
C1257 C1256 1.524 . S
C1257 C1258 1.397 . S
C1257 C1262 1.363 . S
C1258 H1235 0.950 . S
C1258 C1257 1.397 . S
C1258 C1259 1.334 . S
C1259 H1236 0.950 . S
C1259 C1258 1.334 . S
C1259 C1260 1.287 . S
C1260 C1259 1.287 . S
C1260 C1261 1.524 . S
C1260 H1279 0.913 . S
C1261 H1237 0.950 . S
C1261 C1260 1.524 . S
C1261 C1262 1.415 . S
C1262 H1238 0.950 . S
C1262 C1257 1.363 . S
C1262 C1261 1.415 . S
C1263 H1239 0.951 . S
C1263 C1264 1.366 . S
C1263 C1265 1.388 . S
C1264 C1263 1.366 . S
C1264 C1268 1.385 . S
C1265 H1240 0.951 . S
C1265 C1263 1.388 . S
C1265 C1266 1.366 . S
C1266 C1265 1.366 . S
C1266 C1267 1.414 . S
C1266 C1269 1.499 . S
C1267 H1241 0.950 . S
C1267 C1266 1.414 . S
C1267 C1268 1.374 . S
C1268 H1242 0.950 . S
C1268 C1264 1.385 . S
C1268 C1267 1.374 . S
C1269 C1266 1.499 . S
C1269 C1270 1.373 . S
C1269 C1271 1.389 . S
C1270 H1243 0.950 . S
C1270 C1256 1.377 . S
C1270 C1269 1.373 . S
C1271 C1255 1.377 . S
C1271 C1269 1.389 . S
C1271 C1272 1.524 . S
C1272 C1271 1.524 . S
C1272 C1273 1.397 . S
C1272 C1277 1.363 . S
C1273 H1244 0.950 . S
C1273 C1272 1.397 . S
C1273 C1274 1.334 . S
C1274 H1245 0.950 . S
C1274 C1273 1.334 . S
C1274 C1275 1.287 . S
C1275 C1274 1.287 . S
C1275 C1276 1.524 . S
C1275 H1278 0.999 . S
C1276 H1246 0.950 . S
C1276 C1275 1.524 . S
C1276 C1277 1.415 . S
C1277 H1247 0.950 . S
C1277 C1272 1.363 . S
C1277 C1276 1.415 . S
H1278 C1275 0.999 . S
H1279 C1260 0.913 . S
H1280 C1298 0.951 . S
H1281 C1300 0.951 . S
H1282 C1302 0.950 . S
H1283 C1303 0.950 . S
H1284 C1305 0.950 . S
H1285 C1308 0.950 . S
H1286 C1309 0.950 . S
H1287 C1311 0.950 . S
H1288 C1312 0.950 . S
H1289 C1313 0.951 . S
H1290 C1315 0.951 . S
H1291 C1317 0.950 . S
H1292 C1318 0.950 . S
H1293 C1320 0.950 . S
H1294 C1323 0.950 . S
H1295 C1324 0.950 . S
H1296 C1326 0.950 . S
H1297 C1327 0.950 . S
C1298 H1280 0.951 . S
C1298 C1299 1.366 . S
C1298 C1300 1.388 . S
C1299 C1298 1.366 . S
C1299 C1303 1.385 1_655 S
C1300 H1281 0.951 . S
C1300 C1298 1.388 . S
C1300 C1301 1.366 . S
C1301 C1300 1.366 . S
C1301 C1302 1.414 1_655 S
C1301 C1304 1.501 . S
C1302 H1282 0.950 . S
C1302 C1301 1.414 1_455 S
C1302 C1303 1.374 . S
C1303 H1283 0.950 . S
C1303 C1299 1.385 1_455 S
C1303 C1302 1.374 . S
C1304 C1301 1.501 . S
C1304 C1305 1.363 1_655 S
C1304 C1306 1.400 . S
C1305 H1284 0.950 . S
C1305 C1304 1.363 1_455 S
C1305 C1321 1.377 1_554 S
C1306 C1304 1.400 . S
C1306 C1307 1.524 . S
C1306 C1320 1.377 1_554 S
C1307 C1306 1.524 . S
C1307 C1308 1.397 . S
C1307 C1312 1.363 . S
C1308 H1285 0.950 . S
C1308 C1307 1.397 . S
C1308 C1309 1.334 . S
C1309 H1286 0.950 . S
C1309 C1308 1.334 . S
C1309 C1310 1.287 . S
C1310 C1309 1.287 . S
C1310 C1311 1.524 . S
C1310 H1329 0.913 . S
C1311 H1287 0.950 . S
C1311 C1310 1.524 . S
C1311 C1312 1.415 . S
C1312 H1288 0.950 . S
C1312 C1307 1.363 . S
C1312 C1311 1.415 . S
C1313 H1289 0.951 . S
C1313 C1314 1.366 . S
C1313 C1315 1.388 . S
C1314 C1313 1.366 . S
C1314 C1318 1.385 1_455 S
C1315 H1290 0.951 . S
C1315 C1313 1.388 . S
C1315 C1316 1.366 . S
C1316 C1315 1.366 . S
C1316 C1317 1.414 1_455 S
C1316 C1319 1.500 . S
C1317 H1291 0.950 . S
C1317 C1316 1.414 1_655 S
C1317 C1318 1.374 . S
C1318 H1292 0.950 . S
C1318 C1314 1.385 1_655 S
C1318 C1317 1.374 . S
C1319 C1316 1.500 . S
C1319 C1320 1.365 1_455 S
C1319 C1321 1.398 . S
C1320 H1293 0.950 . S
C1320 C1306 1.377 1_556 S
C1320 C1319 1.365 1_655 S
C1321 C1305 1.377 1_556 S
C1321 C1319 1.398 . S
C1321 C1322 1.524 . S
C1322 C1321 1.524 . S
C1322 C1323 1.397 . S
C1322 C1327 1.363 . S
C1323 H1294 0.950 . S
C1323 C1322 1.397 . S
C1323 C1324 1.334 . S
C1324 H1295 0.950 . S
C1324 C1323 1.334 . S
C1324 C1325 1.287 . S
C1325 C1324 1.287 . S
C1325 C1326 1.524 . S
C1325 H1328 0.999 . S
C1326 H1296 0.950 . S
C1326 C1325 1.524 . S
C1326 C1327 1.415 . S
C1327 H1297 0.950 . S
C1327 C1322 1.363 . S
C1327 C1326 1.415 . S
H1328 C1325 0.999 . S
H1329 C1310 0.913 . S
H1330 C1348 0.951 . S
H1331 C1350 0.951 . S
H1332 C1352 0.950 . S
H1333 C1353 0.950 . S
H1334 C1355 0.950 . S
H1335 C1358 0.950 1_545 S
H1336 C1359 0.950 . S
H1337 C1361 0.950 . S
H1338 C1362 0.950 . S
H1339 C1363 0.951 . S
H1340 C1365 0.951 . S
H1341 C1367 0.950 . S
H1342 C1368 0.950 . S
H1343 C1370 0.950 . S
H1344 C1373 0.950 1_565 S
H1345 C1374 0.950 . S
H1346 C1376 0.950 . S
H1347 C1377 0.950 . S
C1348 H1330 0.951 . S
C1348 C1349 1.366 1_565 S
C1348 C1350 1.388 . S
C1349 C1348 1.366 1_545 S
C1349 C1353 1.385 . S
C1350 H1331 0.951 . S
C1350 C1348 1.388 . S
C1350 C1351 1.366 1_565 S
C1351 C1350 1.366 1_545 S
C1351 C1352 1.414 . S
C1351 C1354 1.499 . S
C1352 H1332 0.950 . S
C1352 C1351 1.414 . S
C1352 C1353 1.374 . S
C1353 H1333 0.950 . S
C1353 C1349 1.385 . S
C1353 C1352 1.374 . S
C1354 C1351 1.499 . S
C1354 C1355 1.373 . S
C1354 C1356 1.389 1_545 S
C1355 H1334 0.950 . S
C1355 C1354 1.373 . S
C1355 C1371 1.377 . S
C1356 C1354 1.389 1_565 S
C1356 C1357 1.524 . S
C1356 C1370 1.377 . S
C1357 C1356 1.524 . S
C1357 C1358 1.397 . S
C1357 C1362 1.363 . S
C1358 H1335 0.950 1_565 S
C1358 C1357 1.397 . S
C1358 C1359 1.334 . S
C1359 H1336 0.950 . S
C1359 C1358 1.334 . S
C1359 C1360 1.287 . S
C1360 C1359 1.287 . S
C1360 C1361 1.524 . S
C1360 H1379 0.913 . S
C1361 H1337 0.950 . S
C1361 C1360 1.524 . S
C1361 C1362 1.415 . S
C1362 H1338 0.950 . S
C1362 C1357 1.363 . S
C1362 C1361 1.415 . S
C1363 H1339 0.951 . S
C1363 C1364 1.366 1_545 S
C1363 C1365 1.388 . S
C1364 C1363 1.366 1_565 S
C1364 C1368 1.385 . S
C1365 H1340 0.951 . S
C1365 C1363 1.388 . S
C1365 C1366 1.366 1_545 S
C1366 C1365 1.366 1_565 S
C1366 C1367 1.414 . S
C1366 C1369 1.499 . S
C1367 H1341 0.950 . S
C1367 C1366 1.414 . S
C1367 C1368 1.374 . S
C1368 H1342 0.950 . S
C1368 C1364 1.385 . S
C1368 C1367 1.374 . S
C1369 C1366 1.499 . S
C1369 C1370 1.373 . S
C1369 C1371 1.389 1_565 S
C1370 H1343 0.950 . S
C1370 C1356 1.377 . S
C1370 C1369 1.373 . S
C1371 C1355 1.377 . S
C1371 C1369 1.389 1_545 S
C1371 C1372 1.524 . S
C1372 C1371 1.524 . S
C1372 C1373 1.397 . S
C1372 C1377 1.363 . S
C1373 H1344 0.950 1_545 S
C1373 C1372 1.397 . S
C1373 C1374 1.334 . S
C1374 H1345 0.950 . S
C1374 C1373 1.334 . S
C1374 C1375 1.287 . S
C1375 C1374 1.287 . S
C1375 C1376 1.524 . S
C1375 H1378 0.999 . S
C1376 H1346 0.950 . S
C1376 C1375 1.524 . S
C1376 C1377 1.415 . S
C1377 H1347 0.950 . S
C1377 C1372 1.363 . S
C1377 C1376 1.415 . S
H1378 C1375 0.999 . S
H1379 C1360 0.913 . S
C499 C2 2.101 . S
C514 C402 2.101 . S
C549 C442 2.101 . S
C564 C42 2.101 . S
C599 C242 2.102 . S
C614 C82 2.102 . S
C649 C122 2.101 . S
C664 C282 2.101 . S
C699 C322 2.102 . S
C714 C162 2.102 . S
C749 C362 2.102 . S
C764 C202 2.102 . S
C799 C21 2.145 . S
C814 C261 2.145 . S
C849 C61 2.145 . S
C864 C301 2.145 . S
C899 C101 2.145 . S
C914 C341 2.145 . S
C949 C381 2.145 . S
C964 C141 2.145 . S
C999 C181 2.145 . S
C1014 C421 2.145 . S
C1049 C221 2.145 . S
C1064 C461 2.145 . S
C1099 C15 2.140 . S
C1114 C375 2.140 . S
C1149 C415 2.139 . S
C1164 C55 2.139 . S
C1199 C455 2.139 . S
C1214 C95 2.139 . S
C1249 C135 2.140 . S
C1264 C255 2.140 . S
C1299 C175 2.139 . S
C1314 C295 2.139 . S
C1349 C335 2.139 . S
C1364 C215 2.139 . S
