# Generated by pormake.
# Topology uml, (4)-cn, num edge types: 1
# Building blocks:
#     Node 0, Type 0, BuildingBlock: GALJAG_clean_sbu_0, # of connection points: 4
#     Node 1, Type 0, BuildingBlock: GALJAG_clean_sbu_0, # of connection points: 4
#     Node 2, Type 0, BuildingBlock: GALJAG_clean_sbu_0, # of connection points: 4
#     Node 3, Type 0, BuildingBlock: GALJAG_clean_sbu_0, # of connection points: 4
#     Node 4, Type 0, BuildingBlock: GALJAG_clean_sbu_0, # of connection points: 4
#     Node 5, Type 0, BuildingBlock: GALJAG_clean_sbu_0, # of connection points: 4
#     Node 6, Type 0, BuildingBlock: GALJAG_clean_sbu_0, # of connection points: 4
#     Node 7, Type 0, BuildingBlock: GALJAG_clean_sbu_0, # of connection points: 4
#     Node 8, Type 0, BuildingBlock: GALJAG_clean_sbu_0, # of connection points: 4
#     Node 9, Type 0, BuildingBlock: GALJAG_clean_sbu_0, # of connection points: 4
#     Node 10, Type 0, BuildingBlock: GALJAG_clean_sbu_0, # of connection points: 4
#     Node 11, Type 0, BuildingBlock: GALJAG_clean_sbu_0, # of connection points: 4
#     Node 12, Type 0, BuildingBlock: GALJAG_clean_sbu_0, # of connection points: 4
#     Node 13, Type 0, BuildingBlock: GALJAG_clean_sbu_0, # of connection points: 4
#     Node 14, Type 0, BuildingBlock: GALJAG_clean_sbu_0, # of connection points: 4
#     Node 15, Type 0, BuildingBlock: GALJAG_clean_sbu_0, # of connection points: 4
#     Node 16, Type 0, BuildingBlock: GALJAG_clean_sbu_0, # of connection points: 4
#     Node 17, Type 0, BuildingBlock: GALJAG_clean_sbu_0, # of connection points: 4
#     Node 18, Type 0, BuildingBlock: GALJAG_clean_sbu_0, # of connection points: 4
#     Node 19, Type 0, BuildingBlock: GALJAG_clean_sbu_0, # of connection points: 4
#     Node 20, Type 0, BuildingBlock: GALJAG_clean_sbu_0, # of connection points: 4
#     Node 21, Type 0, BuildingBlock: GALJAG_clean_sbu_0, # of connection points: 4
#     Node 22, Type 0, BuildingBlock: GALJAG_clean_sbu_0, # of connection points: 4
#     Node 23, Type 0, BuildingBlock: GALJAG_clean_sbu_0, # of connection points: 4
#     Node 24, Type 0, BuildingBlock: GALJAG_clean_sbu_0, # of connection points: 4
#     Node 25, Type 0, BuildingBlock: GALJAG_clean_sbu_0, # of connection points: 4
#     Node 26, Type 0, BuildingBlock: GALJAG_clean_sbu_0, # of connection points: 4
#     Node 27, Type 0, BuildingBlock: GALJAG_clean_sbu_0, # of connection points: 4
#     Node 28, Type 0, BuildingBlock: GALJAG_clean_sbu_0, # of connection points: 4
#     Node 29, Type 0, BuildingBlock: GALJAG_clean_sbu_0, # of connection points: 4
#     Node 30, Type 0, BuildingBlock: GALJAG_clean_sbu_0, # of connection points: 4
#     Node 31, Type 0, BuildingBlock: GALJAG_clean_sbu_0, # of connection points: 4
#     Node 32, Type 0, BuildingBlock: GALJAG_clean_sbu_0, # of connection points: 4
#     Node 33, Type 0, BuildingBlock: GALJAG_clean_sbu_0, # of connection points: 4
#     Node 34, Type 0, BuildingBlock: GALJAG_clean_sbu_0, # of connection points: 4
#     Node 35, Type 0, BuildingBlock: GALJAG_clean_sbu_0, # of connection points: 4
#     Edge 36, Type (0, 0), BuildingBlock: OJICUG_clean_linker_0, # of connection points: 2
#     Edge 37, Type (0, 0), BuildingBlock: OJICUG_clean_linker_0, # of connection points: 2
#     Edge 38, Type (0, 0), BuildingBlock: OJICUG_clean_linker_0, # of connection points: 2
#     Edge 39, Type (0, 0), BuildingBlock: OJICUG_clean_linker_0, # of connection points: 2
#     Edge 40, Type (0, 0), BuildingBlock: OJICUG_clean_linker_0, # of connection points: 2
#     Edge 41, Type (0, 0), BuildingBlock: OJICUG_clean_linker_0, # of connection points: 2
#     Edge 42, Type (0, 0), BuildingBlock: OJICUG_clean_linker_0, # of connection points: 2
#     Edge 43, Type (0, 0), BuildingBlock: OJICUG_clean_linker_0, # of connection points: 2
#     Edge 44, Type (0, 0), BuildingBlock: OJICUG_clean_linker_0, # of connection points: 2
#     Edge 45, Type (0, 0), BuildingBlock: OJICUG_clean_linker_0, # of connection points: 2
#     Edge 46, Type (0, 0), BuildingBlock: OJICUG_clean_linker_0, # of connection points: 2
#     Edge 47, Type (0, 0), BuildingBlock: OJICUG_clean_linker_0, # of connection points: 2
#     Edge 48, Type (0, 0), BuildingBlock: OJICUG_clean_linker_0, # of connection points: 2
#     Edge 49, Type (0, 0), BuildingBlock: OJICUG_clean_linker_0, # of connection points: 2
#     Edge 50, Type (0, 0), BuildingBlock: OJICUG_clean_linker_0, # of connection points: 2
#     Edge 51, Type (0, 0), BuildingBlock: OJICUG_clean_linker_0, # of connection points: 2
#     Edge 52, Type (0, 0), BuildingBlock: OJICUG_clean_linker_0, # of connection points: 2
#     Edge 53, Type (0, 0), BuildingBlock: OJICUG_clean_linker_0, # of connection points: 2
#     Edge 54, Type (0, 0), BuildingBlock: OJICUG_clean_linker_0, # of connection points: 2
#     Edge 55, Type (0, 0), BuildingBlock: OJICUG_clean_linker_0, # of connection points: 2
#     Edge 56, Type (0, 0), BuildingBlock: OJICUG_clean_linker_0, # of connection points: 2
#     Edge 57, Type (0, 0), BuildingBlock: OJICUG_clean_linker_0, # of connection points: 2
#     Edge 58, Type (0, 0), BuildingBlock: OJICUG_clean_linker_0, # of connection points: 2
#     Edge 59, Type (0, 0), BuildingBlock: OJICUG_clean_linker_0, # of connection points: 2
#     Edge 60, Type (0, 0), BuildingBlock: OJICUG_clean_linker_0, # of connection points: 2
#     Edge 61, Type (0, 0), BuildingBlock: OJICUG_clean_linker_0, # of connection points: 2
#     Edge 62, Type (0, 0), BuildingBlock: OJICUG_clean_linker_0, # of connection points: 2
#     Edge 63, Type (0, 0), BuildingBlock: OJICUG_clean_linker_0, # of connection points: 2
#     Edge 64, Type (0, 0), BuildingBlock: OJICUG_clean_linker_0, # of connection points: 2
#     Edge 65, Type (0, 0), BuildingBlock: OJICUG_clean_linker_0, # of connection points: 2
#     Edge 66, Type (0, 0), BuildingBlock: OJICUG_clean_linker_0, # of connection points: 2
#     Edge 67, Type (0, 0), BuildingBlock: OJICUG_clean_linker_0, # of connection points: 2
#     Edge 68, Type (0, 0), BuildingBlock: OJICUG_clean_linker_0, # of connection points: 2
#     Edge 69, Type (0, 0), BuildingBlock: OJICUG_clean_linker_0, # of connection points: 2
#     Edge 70, Type (0, 0), BuildingBlock: OJICUG_clean_linker_0, # of connection points: 2
#     Edge 71, Type (0, 0), BuildingBlock: OJICUG_clean_linker_0, # of connection points: 2
#     Edge 72, Type (0, 0), BuildingBlock: OJICUG_clean_linker_0, # of connection points: 2
#     Edge 73, Type (0, 0), BuildingBlock: OJICUG_clean_linker_0, # of connection points: 2
#     Edge 74, Type (0, 0), BuildingBlock: OJICUG_clean_linker_0, # of connection points: 2
#     Edge 75, Type (0, 0), BuildingBlock: OJICUG_clean_linker_0, # of connection points: 2
#     Edge 76, Type (0, 0), BuildingBlock: OJICUG_clean_linker_0, # of connection points: 2
#     Edge 77, Type (0, 0), BuildingBlock: OJICUG_clean_linker_0, # of connection points: 2
#     Edge 78, Type (0, 0), BuildingBlock: OJICUG_clean_linker_0, # of connection points: 2
#     Edge 79, Type (0, 0), BuildingBlock: OJICUG_clean_linker_0, # of connection points: 2
#     Edge 80, Type (0, 0), BuildingBlock: OJICUG_clean_linker_0, # of connection points: 2
#     Edge 81, Type (0, 0), BuildingBlock: OJICUG_clean_linker_0, # of connection points: 2
#     Edge 82, Type (0, 0), BuildingBlock: OJICUG_clean_linker_0, # of connection points: 2
#     Edge 83, Type (0, 0), BuildingBlock: OJICUG_clean_linker_0, # of connection points: 2
#     Edge 84, Type (0, 0), BuildingBlock: OJICUG_clean_linker_0, # of connection points: 2
#     Edge 85, Type (0, 0), BuildingBlock: OJICUG_clean_linker_0, # of connection points: 2
#     Edge 86, Type (0, 0), BuildingBlock: OJICUG_clean_linker_0, # of connection points: 2
#     Edge 87, Type (0, 0), BuildingBlock: OJICUG_clean_linker_0, # of connection points: 2
#     Edge 88, Type (0, 0), BuildingBlock: OJICUG_clean_linker_0, # of connection points: 2
#     Edge 89, Type (0, 0), BuildingBlock: OJICUG_clean_linker_0, # of connection points: 2
#     Edge 90, Type (0, 0), BuildingBlock: OJICUG_clean_linker_0, # of connection points: 2
#     Edge 91, Type (0, 0), BuildingBlock: OJICUG_clean_linker_0, # of connection points: 2
#     Edge 92, Type (0, 0), BuildingBlock: OJICUG_clean_linker_0, # of connection points: 2
#     Edge 93, Type (0, 0), BuildingBlock: OJICUG_clean_linker_0, # of connection points: 2
#     Edge 94, Type (0, 0), BuildingBlock: OJICUG_clean_linker_0, # of connection points: 2
#     Edge 95, Type (0, 0), BuildingBlock: OJICUG_clean_linker_0, # of connection points: 2
#     Edge 96, Type (0, 0), BuildingBlock: OJICUG_clean_linker_0, # of connection points: 2
#     Edge 97, Type (0, 0), BuildingBlock: OJICUG_clean_linker_0, # of connection points: 2
#     Edge 98, Type (0, 0), BuildingBlock: OJICUG_clean_linker_0, # of connection points: 2
#     Edge 99, Type (0, 0), BuildingBlock: OJICUG_clean_linker_0, # of connection points: 2
#     Edge 100, Type (0, 0), BuildingBlock: OJICUG_clean_linker_0, # of connection points: 2
#     Edge 101, Type (0, 0), BuildingBlock: OJICUG_clean_linker_0, # of connection points: 2
#     Edge 102, Type (0, 0), BuildingBlock: OJICUG_clean_linker_0, # of connection points: 2
#     Edge 103, Type (0, 0), BuildingBlock: OJICUG_clean_linker_0, # of connection points: 2
#     Edge 104, Type (0, 0), BuildingBlock: OJICUG_clean_linker_0, # of connection points: 2
#     Edge 105, Type (0, 0), BuildingBlock: OJICUG_clean_linker_0, # of connection points: 2
#     Edge 106, Type (0, 0), BuildingBlock: OJICUG_clean_linker_0, # of connection points: 2
#     Edge 107, Type (0, 0), BuildingBlock: OJICUG_clean_linker_0, # of connection points: 2
# Relax obj value: 0.085
# Max RMSD: 0.314
# Mean RMSD: 0.220
data_MOF--net-uml--node1-GALJAG_clean_sbu_0--edge1-OJICUG_clean_linker_0
_symmetry_space_group_name_H-M    P1
_symmetry_Int_Tables_number       1
_symmetry_cell_setting            triclinic
loop_
_symmetry_equiv_pos_as_xyz
'x, y, z'
_cell_length_a     68.9564
_cell_length_b     68.77588
_cell_length_c     20.909495
_cell_angle_alpha  89.953163
_cell_angle_beta   90.155
_cell_angle_gamma 116.51254
loop_
_atom_site_label
_atom_site_type_symbol
_atom_site_fract_x
_atom_site_fract_y
_atom_site_fract_z
_atom_type_partial_charge
In0 In 0.34935 0.10806 0.18834 0.0
O1 O 0.32354 0.0857 0.25602 0.0
O2 O 0.35617 0.10304 0.29061 0.0
C3 C 0.33543 0.10721 0.07056 0.0
C4 C 0.34911 0.14612 0.20956 0.0
C5 C 0.3721 0.08827 0.14398 0.0
O6 O 0.32289 0.09473 0.11314 0.0
O7 O 0.35434 0.12011 0.08871 0.0
O8 O 0.3817 0.10771 0.16454 0.0
O9 O 0.35177 0.07892 0.15141 0.0
C10 C 0.33661 0.09009 0.30264 0.0
O11 O 0.36686 0.14471 0.20596 0.0
O12 O 0.33213 0.12834 0.20576 0.0
In13 In 0.86093 0.26861 0.17809 0.0
O14 O 0.82899 0.23728 0.19025 0.0
O15 O 0.85785 0.23446 0.17036 0.0
C16 C 0.85213 0.30244 0.15645 0.0
C17 C 0.8775 0.27636 0.29722 0.0
C18 C 0.87949 0.27537 0.06227 0.0
O19 O 0.83843 0.28306 0.14441 0.0
O20 O 0.8691 0.30424 0.18446 0.0
O21 O 0.89015 0.27595 0.11237 0.0
O22 O 0.85988 0.27077 0.07112 0.0
C23 C 0.83776 0.2248 0.18076 0.0
O24 O 0.88858 0.27624 0.2491 0.0
O25 O 0.85821 0.27274 0.28495 0.0
In26 In 0.75177 0.62301 0.15085 0.0
O27 O 0.78258 0.61822 0.15763 0.0
O28 O 0.78496 0.65052 0.15599 0.0
C29 C 0.71097 0.5968 0.11965 0.0
C30 C 0.7478 0.63143 0.27236 0.0
C31 C 0.75686 0.6337 0.02957 0.0
O32 O 0.7241 0.58889 0.13283 0.0
O33 O 0.71819 0.61712 0.12768 0.0
O34 O 0.75461 0.646 0.07146 0.0
O35 O 0.75665 0.61616 0.04969 0.0
C36 C 0.79475 0.63872 0.15774 0.0
O37 O 0.74837 0.64416 0.2275 0.0
O38 O 0.74804 0.61382 0.25511 0.0
In39 In 0.0627 0.28768 0.36129 0.0
O40 O 0.09734 0.31421 0.35987 0.0
O41 O 0.09136 0.28175 0.33614 0.0
C42 C 0.04232 0.31063 0.40406 0.0
C43 C 0.05209 0.28016 0.2361 0.0
C44 C 0.06082 0.2654 0.46903 0.0
O45 O 0.06243 0.31921 0.39263 0.0
O46 O 0.03241 0.29042 0.39333 0.0
O47 O 0.04556 0.25772 0.42822 0.0
O48 O 0.076 0.28358 0.45484 0.0
C49 C 0.10513 0.30126 0.345 0.0
O50 O 0.05016 0.26485 0.27336 0.0
O51 O 0.05808 0.29833 0.26296 0.0
In52 In 0.64434 0.74814 0.3266 0.0
O53 O 0.66597 0.74154 0.25679 0.0
O54 O 0.63835 0.74431 0.21968 0.0
C55 C 0.65677 0.74382 0.44446 0.0
C56 C 0.66018 0.79188 0.32209 0.0
C57 C 0.6066 0.71267 0.3469 0.0
O58 O 0.66687 0.74212 0.39581 0.0
O59 O 0.6412 0.7482 0.43299 0.0
O60 O 0.60842 0.73168 0.35535 0.0
O61 O 0.62317 0.71186 0.32416 0.0
C62 C 0.65491 0.74144 0.20816 0.0
O63 O 0.64016 0.7794 0.31368 0.0
O64 O 0.67169 0.78222 0.33246 0.0
In65 In 0.24889 0.88544 0.3388 0.0
O66 O 0.25247 0.91128 0.26544 0.0
O67 O 0.25057 0.88105 0.23194 0.0
C68 C 0.25188 0.90128 0.45665 0.0
C69 C 0.20557 0.86032 0.33944 0.0
C70 C 0.28699 0.8841 0.35535 0.0
O71 O 0.2524 0.91257 0.40801 0.0
O72 O 0.24969 0.88241 0.44508 0.0
O73 O 0.26906 0.86742 0.36423 0.0
O74 O 0.28544 0.90062 0.33457 0.0
C75 C 0.252 0.89957 0.21804 0.0
O76 O 0.21871 0.85214 0.33199 0.0
O77 O 0.21442 0.88068 0.34619 0.0
In78 In 0.6616 0.90292 0.82304 0.0
O79 O 0.68639 0.92512 0.75163 0.0
O80 O 0.65573 0.90147 0.71629 0.0
C81 C 0.67529 0.91786 0.94024 0.0
C82 C 0.66906 0.86777 0.82418 0.0
C83 C 0.62946 0.91415 0.83836 0.0
O84 O 0.68685 0.9267 0.89161 0.0
O85 O 0.65758 0.90141 0.9292 0.0
O86 O 0.62605 0.89451 0.8447 0.0
O87 O 0.64828 0.92708 0.81983 0.0
C88 C 0.67425 0.91667 0.7037 0.0
O89 O 0.65012 0.86611 0.81617 0.0
O90 O 0.68374 0.88691 0.83125 0.0
In91 In 0.08595 0.75167 0.84695 0.0
O92 O 0.12256 0.77445 0.84001 0.0
O93 O 0.10065 0.7884 0.85032 0.0
C94 C 0.07573 0.70945 0.86187 0.0
C95 C 0.07225 0.75149 0.72731 0.0
C96 C 0.0734 0.75292 0.96619 0.0
O97 O 0.09532 0.72393 0.85941 0.0
O98 O 0.06169 0.71631 0.85315 0.0
O99 O 0.06306 0.75531 0.91892 0.0
O100 O 0.09005 0.75054 0.95264 0.0
C101 C 0.12006 0.79163 0.84447 0.0
O102 O 0.06341 0.75587 0.77459 0.0
O103 O 0.08749 0.74672 0.74095 0.0
In104 In 0.24613 0.38861 0.83921 0.0
O105 O 0.2134 0.39034 0.83051 0.0
O106 O 0.21429 0.35949 0.83215 0.0
C107 C 0.28676 0.41479 0.87225 0.0
C108 C 0.25424 0.38201 0.7194 0.0
C109 C 0.24244 0.37736 0.9601 0.0
O110 O 0.27351 0.42276 0.86096 0.0
O111 O 0.27963 0.39458 0.86242 0.0
O112 O 0.24453 0.36558 0.91631 0.0
O113 O 0.2416 0.39465 0.94211 0.0
C114 C 0.2028 0.3696 0.83021 0.0
O115 O 0.25299 0.36922 0.76473 0.0
O116 O 0.25152 0.39852 0.73494 0.0
In117 In 0.93968 0.65679 0.64655 0.0
O118 O 0.90272 0.64182 0.6513 0.0
O119 O 0.92088 0.67633 0.64035 0.0
C120 C 0.95962 0.6313 0.63921 0.0
C121 C 0.94892 0.66992 0.76826 0.0
C122 C 0.94624 0.66488 0.52158 0.0
O123 O 0.93906 0.6233 0.64284 0.0
O124 O 0.96969 0.65185 0.64266 0.0
O125 O 0.95782 0.67899 0.56276 0.0
O126 O 0.93168 0.64742 0.54434 0.0
C127 C 0.90247 0.66014 0.64521 0.0
O128 O 0.95711 0.68304 0.72187 0.0
O129 O 0.93685 0.6504 0.75263 0.0
In130 In 0.38708 0.27101 0.66952 0.0
O131 O 0.38902 0.23833 0.67391 0.0
O132 O 0.35825 0.2381 0.65974 0.0
C133 C 0.42372 0.30795 0.65452 0.0
C134 C 0.3776 0.27587 0.78991 0.0
C135 C 0.37667 0.27849 0.55319 0.0
O136 O 0.42303 0.28957 0.64173 0.0
O137 O 0.40676 0.30716 0.67975 0.0
O138 O 0.36606 0.27943 0.60171 0.0
O139 O 0.39146 0.27285 0.56394 0.0
C140 C 0.3687 0.22711 0.66581 0.0
O141 O 0.36637 0.27692 0.74309 0.0
O142 O 0.39368 0.27245 0.77564 0.0
In143 In 0.7407 0.11361 0.67783 0.0
O144 O 0.74068 0.08841 0.75086 0.0
O145 O 0.735 0.11438 0.78551 0.0
C146 C 0.74242 0.09044 0.57457 0.0
C147 C 0.77907 0.15013 0.68108 0.0
C148 C 0.70507 0.11707 0.63647 0.0
O149 O 0.72478 0.0869 0.60113 0.0
O150 O 0.75895 0.1039 0.6037 0.0
O151 O 0.7234 0.12709 0.61018 0.0
O152 O 0.70518 0.10681 0.68652 0.0
C153 C 0.73738 0.09769 0.79886 0.0
O154 O 0.76112 0.15105 0.68009 0.0
O155 O 0.77738 0.13115 0.68117 0.0
In156 In 0.97799 0.38698 0.48456 0.0
O157 O 0.94995 0.37485 0.55759 0.0
O158 O 0.98234 0.38739 0.5924 0.0
C159 C 0.96365 0.38082 0.36234 0.0
C160 C 0.99114 0.43008 0.48418 0.0
C161 C 0.99852 0.36184 0.47692 0.0
O162 O 0.95058 0.37421 0.40913 0.0
O163 O 0.98341 0.38992 0.37776 0.0
O164 O 0.00855 0.38233 0.48217 0.0
O165 O 0.97805 0.35399 0.4781 0.0
C166 C 0.96247 0.3799 0.60582 0.0
O167 O 0.00451 0.4221 0.48584 0.0
O168 O 0.97147 0.41633 0.48324 0.0
In169 In 0.56281 0.59247 0.49097 0.0
O170 O 0.58709 0.59223 0.56514 0.0
O171 O 0.55933 0.59543 0.59804 0.0
C172 C 0.57839 0.59324 0.37338 0.0
C173 C 0.53254 0.55062 0.49087 0.0
C174 C 0.56525 0.63217 0.47201 0.0
O175 O 0.5888 0.59234 0.42255 0.0
O176 O 0.56053 0.59347 0.3843 0.0
O177 O 0.54769 0.61503 0.464 0.0
O178 O 0.58086 0.6292 0.49359 0.0
C179 C 0.57635 0.59374 0.6124 0.0
O180 O 0.52746 0.56611 0.49816 0.0
O181 O 0.55252 0.55645 0.48387 0.0
In182 In 0.40574 0.95907 0.48638 0.0
O183 O 0.39982 0.98032 0.5591 0.0
O184 O 0.40374 0.95283 0.5929 0.0
C185 C 0.40083 0.97056 0.36827 0.0
C186 C 0.44951 0.97658 0.48765 0.0
C187 C 0.36913 0.92209 0.46966 0.0
O188 O 0.39927 0.98102 0.41644 0.0
O189 O 0.40534 0.95506 0.38038 0.0
O190 O 0.38765 0.92279 0.46049 0.0
O191 O 0.36944 0.9394 0.49105 0.0
C192 C 0.40076 0.96925 0.60653 0.0
O193 O 0.43784 0.95628 0.49519 0.0
O194 O 0.43901 0.98743 0.47938 0.0
In195 In 0.78594 0.67313 0.6489 0.0
O196 O 0.76391 0.64711 0.58016 0.0
O197 O 0.78337 0.67902 0.54339 0.0
C198 C 0.77639 0.65821 0.76729 0.0
C199 C 0.82366 0.67062 0.64039 0.0
C200 C 0.76844 0.69989 0.67727 0.0
O201 O 0.76695 0.64626 0.71968 0.0
O202 O 0.791 0.67697 0.75438 0.0
O203 O 0.78886 0.70727 0.67109 0.0
O204 O 0.75763 0.67998 0.66403 0.0
C205 C 0.76949 0.65967 0.53223 0.0
O206 O 0.82301 0.68877 0.63668 0.0
O207 O 0.8055 0.65434 0.64693 0.0
In208 In 0.30583 0.08958 0.68344 0.0
O209 O 0.30353 0.12146 0.66682 0.0
O210 O 0.33488 0.12182 0.67299 0.0
C211 C 0.28119 0.04873 0.71951 0.0
C212 C 0.31203 0.08073 0.56493 0.0
C213 C 0.31466 0.0972 0.80448 0.0
O214 O 0.27249 0.06104 0.7037 0.0
O215 O 0.30163 0.05694 0.71311 0.0
O216 O 0.32764 0.09454 0.76616 0.0
O217 O 0.29716 0.09613 0.78091 0.0
C218 C 0.32416 0.13265 0.66674 0.0
O219 O 0.32532 0.08271 0.60966 0.0
O220 O 0.29524 0.08281 0.58087 0.0
In221 In 0.9024 0.2605 0.67953 0.0
O222 O 0.88126 0.22351 0.67467 0.0
O223 O 0.86564 0.24402 0.68233 0.0
C224 C 0.94422 0.26939 0.69331 0.0
C225 C 0.90163 0.27399 0.5592 0.0
C226 C 0.90076 0.27249 0.8003 0.0
O227 O 0.92929 0.25012 0.68728 0.0
O228 O 0.93808 0.28415 0.68873 0.0
O229 O 0.89817 0.28291 0.75352 0.0
O230 O 0.90381 0.2563 0.7855 0.0
C231 C 0.86356 0.22489 0.67841 0.0
O232 O 0.89693 0.28251 0.60672 0.0
O233 O 0.90736 0.25942 0.57298 0.0
In234 In 0.34047 0.26418 0.1743 0.0
O235 O 0.36583 0.28244 0.0989 0.0
O236 O 0.33368 0.26084 0.06832 0.0
C237 C 0.35444 0.27755 0.292 0.0
C238 C 0.34244 0.22634 0.18534 0.0
C239 C 0.31208 0.28019 0.18886 0.0
O240 O 0.36684 0.28556 0.24425 0.0
O241 O 0.33569 0.26292 0.27955 0.0
O242 O 0.30603 0.25984 0.18738 0.0
O243 O 0.33195 0.29197 0.17739 0.0
C244 C 0.35285 0.2738 0.05275 0.0
O245 O 0.32451 0.22712 0.17815 0.0
O246 O 0.359 0.2445 0.18519 0.0
In247 In 0.76794 0.08709 0.18327 0.0
O248 O 0.74151 0.08353 0.11059 0.0
O249 O 0.77108 0.08451 0.07596 0.0
C250 C 0.75575 0.08327 0.30651 0.0
C251 C 0.79113 0.13067 0.18132 0.0
C252 C 0.77316 0.05086 0.19548 0.0
O253 O 0.74193 0.07932 0.2618 0.0
O254 O 0.77502 0.0895 0.28812 0.0
O255 O 0.7891 0.06959 0.2 0.0
O256 O 0.75522 0.05065 0.18133 0.0
C257 C 0.75272 0.08344 0.06257 0.0
O258 O 0.8 0.11817 0.1728 0.0
O259 O 0.77091 0.12108 0.19044 0.0
In260 In 0.9326 0.69779 0.1516 0.0
O261 O 0.94562 0.68137 0.07929 0.0
O262 O 0.93714 0.70559 0.04464 0.0
C263 C 0.94446 0.68095 0.25307 0.0
C264 C 0.88866 0.67969 0.14822 0.0
C265 C 0.95399 0.73902 0.19576 0.0
O266 O 0.95782 0.69739 0.22332 0.0
O267 O 0.9259 0.672 0.22806 0.0
O268 O 0.93684 0.72504 0.2214 0.0
O269 O 0.959 0.73275 0.14436 0.0
C270 C 0.9441 0.69193 0.03165 0.0
O271 O 0.90022 0.70006 0.15024 0.0
O272 O 0.89926 0.66881 0.14633 0.0
In273 In 0.57187 0.98584 0.99725 0.0
O274 O 0.5932 0.01104 0.06949 0.0
O275 O 0.57213 0.97921 0.10345 0.0
C276 C 0.58272 1.0007 0.87873 0.0
C277 C 0.53529 0.99046 0.00028 0.0
C278 C 0.58627 0.95688 0.96799 0.0
O279 O 0.59258 0.01225 0.92666 0.0
O280 O 0.56723 0.98241 0.89134 0.0
O281 O 0.5662 0.95078 0.97775 0.0
O282 O 0.59853 0.97667 0.97973 0.0
C283 C 0.5859 0.99839 0.1169 0.0
O284 O 0.53489 0.97186 0.00493 0.0
O285 O 0.55392 0.00616 0.9952 0.0
In286 In 0.0418 0.58096 0.98299 0.0
O287 O 0.03257 0.54543 0.99458 0.0
O288 O 0.00687 0.55372 0.97227 0.0
C289 C 0.05073 0.62186 0.95201 0.0
C290 C 0.0455 0.58571 0.11024 0.0
C291 C 0.05941 0.57798 0.87322 0.0
O292 O 0.06491 0.61632 0.97179 0.0
O293 O 0.03139 0.60673 0.95085 0.0
O294 O 0.04089 0.57743 0.87748 0.0
O295 O 0.06943 0.57944 0.9256 0.0
C296 C 0.01256 0.5388 0.98349 0.0
O297 O 0.02985 0.58577 0.07857 0.0
O298 O 0.05989 0.58359 0.07717 0.0
In299 In 0.41052 0.44172 0.97999 0.0
O300 O 0.41112 0.41637 0.05085 0.0
O301 O 0.40695 0.44321 0.08766 0.0
C302 C 0.40762 0.42858 0.85737 0.0
C303 C 0.45287 0.47049 0.98406 0.0
C304 C 0.37153 0.44162 0.97125 0.0
O305 O 0.40605 0.4158 0.90318 0.0
O306 O 0.41113 0.44748 0.87421 0.0
O307 O 0.38892 0.45904 0.9645 0.0
O308 O 0.37411 0.42502 0.98523 0.0
C309 C 0.40887 0.42613 0.09968 0.0
O310 O 0.43797 0.47632 0.9921 0.0
O311 O 0.44626 0.45045 0.97375 0.0
In312 In 0.69512 0.75873 0.82677 0.0
O313 O 0.67034 0.7378 0.90016 0.0
O314 O 0.70187 0.76029 0.93321 0.0
C315 C 0.68155 0.74886 0.70685 0.0
C316 C 0.68876 0.79438 0.82919 0.0
C317 C 0.72294 0.7424 0.80258 0.0
O318 O 0.66951 0.73868 0.75354 0.0
O319 O 0.69985 0.76404 0.72139 0.0
O320 O 0.72964 0.76282 0.80815 0.0
O321 O 0.7031 0.73094 0.81525 0.0
C322 C 0.68291 0.74621 0.94735 0.0
O323 O 0.70774 0.79574 0.83392 0.0
O324 O 0.67368 0.77534 0.82394 0.0
In325 In 0.22564 0.91835 0.83638 0.0
O326 O 0.18874 0.89637 0.84356 0.0
O327 O 0.21008 0.88181 0.83128 0.0
C328 C 0.23922 0.9613 0.82112 0.0
C329 C 0.23901 0.91733 0.9564 0.0
C330 C 0.23862 0.91638 0.71767 0.0
O331 O 0.21913 0.94816 0.81887 0.0
O332 O 0.25153 0.9527 0.83489 0.0
O333 O 0.24814 0.91332 0.76589 0.0
O334 O 0.22247 0.91981 0.72989 0.0
C335 C 0.19082 0.87897 0.8379 0.0
O336 O 0.24752 0.91289 0.90845 0.0
O337 O 0.22411 0.92272 0.94347 0.0
In338 In 0.06659 0.28912 0.83435 0.0
O339 O 0.10178 0.29713 0.84863 0.0
O340 O 0.09495 0.32371 0.82561 0.0
C341 C 0.02845 0.28606 0.79307 0.0
C342 C 0.05852 0.28264 0.96071 0.0
C343 C 0.06757 0.26756 0.72913 0.0
O344 O 0.03116 0.27025 0.81417 0.0
O345 O 0.04511 0.30439 0.79581 0.0
O346 O 0.07406 0.28785 0.73101 0.0
O347 O 0.06132 0.25766 0.78201 0.0
C348 C 0.10924 0.31728 0.83744 0.0
O349 O 0.0593 0.29897 0.93084 0.0
O350 O 0.06203 0.26928 0.92667 0.0
In351 In 0.42266 0.01006 0.98877 0.0
O352 O 0.4016 0.98474 0.91609 0.0
O353 O 0.42388 0.01614 0.88204 0.0
C354 C 0.40921 0.99568 0.10659 0.0
C355 C 0.45906 0.00501 0.99032 0.0
C356 C 0.41009 0.04111 0.0079 0.0
O357 O 0.4003 0.98399 0.05806 0.0
O358 O 0.42488 0.01391 0.09502 0.0
O359 O 0.43001 0.04542 0.00901 0.0
O360 O 0.39728 0.02186 0.99189 0.0
C361 C 0.4097 0.99716 0.86855 0.0
O362 O 0.4596 0.02356 0.98292 0.0
O363 O 0.44037 0.98948 0.99618 0.0
In364 In 0.93298 0.40192 0.98483 0.0
O365 O 0.94972 0.38863 0.91478 0.0
O366 O 0.92679 0.39849 0.87683 0.0
C367 C 0.94281 0.39153 0.10156 0.0
C368 C 0.95622 0.44587 0.98172 0.0
C369 C 0.89102 0.37464 0.00664 0.0
O370 O 0.95125 0.38854 0.05101 0.0
O371 O 0.93035 0.40019 0.0928 0.0
O372 O 0.89888 0.39474 0.01917 0.0
O373 O 0.9038 0.36903 0.97791 0.0
C374 C 0.94005 0.3908 0.8657 0.0
O375 O 0.936 0.43671 0.97104 0.0
O376 O 0.96419 0.43292 0.99315 0.0
In377 In 0.58658 0.55985 0.99419 0.0
O378 O 0.55979 0.52455 0.98476 0.0
O379 O 0.55079 0.54994 0.00251 0.0
C380 C 0.62675 0.56327 0.00721 0.0
C381 C 0.58825 0.57483 0.8743 0.0
C382 C 0.58908 0.57577 0.11241 0.0
O383 O 0.6102 0.54523 0.01624 0.0
O384 O 0.62272 0.57852 0.98813 0.0
O385 O 0.58775 0.5861 0.06361 0.0
O386 O 0.58862 0.55756 0.10107 0.0
C387 C 0.54459 0.52993 0.99324 0.0
O388 O 0.58621 0.58484 0.92274 0.0
O389 O 0.58979 0.55755 0.88663 0.0
In390 In 0.02983 0.5647 0.50739 0.0
O391 O 0.00347 0.52972 0.50372 0.0
O392 O 0.03588 0.53603 0.48052 0.0
C393 C 0.00642 0.58411 0.55513 0.0
C394 C 0.03927 0.57854 0.38505 0.0
C395 C 0.05438 0.56951 0.61231 0.0
O396 O 0.99774 0.56423 0.5397 0.0
O397 O 0.02659 0.59399 0.54558 0.0
O398 O 0.06005 0.58412 0.56973 0.0
O399 O 0.03697 0.55286 0.60071 0.0
C400 C 0.01643 0.52208 0.48793 0.0
O401 O 0.0537 0.57897 0.42327 0.0
O402 O 0.02069 0.57189 0.40929 0.0
In403 In 0.44004 0.4176 0.48527 0.0
O404 O 0.41325 0.412 0.41072 0.0
O405 O 0.44303 0.41388 0.37735 0.0
C406 C 0.41529 0.41436 0.58986 0.0
C407 C 0.47071 0.45957 0.48582 0.0
C408 C 0.45176 0.3867 0.52363 0.0
O409 O 0.41703 0.39825 0.56725 0.0
O410 O 0.42404 0.43121 0.55611 0.0
O411 O 0.46017 0.40569 0.54694 0.0
O412 O 0.43862 0.38387 0.47819 0.0
C413 C 0.4245 0.41197 0.36311 0.0
O414 O 0.47572 0.44397 0.48301 0.0
O415 O 0.45068 0.45384 0.48785 0.0
In416 In 0.58749 0.03696 0.4972 0.0
O417 O 0.55539 0.03967 0.48612 0.0
O418 O 0.5542 0.00855 0.50274 0.0
C419 C 0.62386 0.07419 0.51371 0.0
C420 C 0.59334 0.02652 0.37816 0.0
C421 C 0.59163 0.02567 0.61626 0.0
O422 O 0.60524 0.07334 0.522 0.0
O423 O 0.62378 0.05686 0.49337 0.0
O424 O 0.59344 0.01512 0.56872 0.0
O425 O 0.58738 0.04126 0.60306 0.0
C426 C 0.54372 0.01936 0.49357 0.0
O427 O 0.59411 0.01564 0.4263 0.0
O428 O 0.59002 0.04281 0.39054 0.0
In429 In 0.23899 0.33904 0.34212 0.0
O430 O 0.25487 0.36779 0.41022 0.0
O431 O 0.24465 0.33575 0.447 0.0
C432 C 0.24079 0.35372 0.22363 0.0
C433 C 0.19652 0.32616 0.35494 0.0
C434 C 0.26296 0.31903 0.30972 0.0
O435 O 0.25025 0.36672 0.26919 0.0
O436 O 0.23054 0.33398 0.23887 0.0
O437 O 0.24338 0.30847 0.32685 0.0
O438 O 0.27063 0.33947 0.31406 0.0
C439 C 0.25283 0.35589 0.45841 0.0
O440 O 0.20439 0.31268 0.35417 0.0
O441 O 0.21017 0.34587 0.35181 0.0
In442 In 0.71231 0.92947 0.32081 0.0
O443 O 0.69017 0.9325 0.39566 0.0
O444 O 0.71924 0.93107 0.42663 0.0
C445 C 0.70041 0.93212 0.20189 0.0
C446 C 0.69773 0.88606 0.31993 0.0
C447 C 0.74568 0.96876 0.30492 0.0
O448 O 0.68914 0.93282 0.24908 0.0
O449 O 0.71704 0.92967 0.2155 0.0
O450 O 0.74803 0.95157 0.29787 0.0
O451 O 0.72718 0.96588 0.32373 0.0
C452 C 0.70196 0.93214 0.44194 0.0
O453 O 0.71783 0.8988 0.32672 0.0
O454 O 0.68568 0.89539 0.31371 0.0
In455 In 0.06857 0.78571 0.3453 0.0
O456 O 0.09872 0.81901 0.35196 0.0
O457 O 0.10301 0.79044 0.33787 0.0
C458 C 0.02995 0.78576 0.33022 0.0
C459 C 0.06444 0.7713 0.46518 0.0
C460 C 0.06429 0.76933 0.22819 0.0
O461 O 0.04749 0.80263 0.31849 0.0
O462 O 0.03229 0.77 0.3536 0.0
O463 O 0.06474 0.75843 0.27674 0.0
O464 O 0.06651 0.78823 0.23937 0.0
C465 C 0.11185 0.81081 0.34452 0.0
O466 O 0.06462 0.7598 0.41798 0.0
O467 O 0.06624 0.78999 0.45151 0.0
C468 C 0.3016 0.07505 0.44955 0.0
C469 C 0.31712 0.0788 0.49765 0.0
H470 H 0.29561 0.07521 0.34909 0.0
C471 C 0.33832 0.0831 0.48044 0.0
H472 H 0.2851 0.07154 0.46161 0.0
C473 C 0.34438 0.08546 0.41629 0.0
C474 C 0.32924 0.08319 0.36836 0.0
H475 H 0.35059 0.08596 0.51657 0.0
H476 H 0.36115 0.09004 0.40438 0.0
C477 C 0.30759 0.07706 0.38524 0.0
C478 C 0.88182 0.28462 0.47672 0.0
C479 C 0.89808 0.27839 0.49213 0.0
H480 H 0.86231 0.28853 0.40254 0.0
C481 C 0.90899 0.27365 0.44244 0.0
H482 H 0.87306 0.28821 0.51411 0.0
C483 C 0.90312 0.2742 0.37862 0.0
C484 C 0.88586 0.27897 0.36347 0.0
H485 H 0.92161 0.26881 0.45307 0.0
H486 H 0.91134 0.26978 0.34146 0.0
C487 C 0.87558 0.28465 0.41296 0.0
C488 C 0.76374 0.66714 0.41879 0.0
C489 C 0.76128 0.65209 0.46725 0.0
H490 H 0.76076 0.67225 0.31907 0.0
C491 C 0.75209 0.62985 0.4522 0.0
H492 H 0.77063 0.68436 0.42925 0.0
C493 C 0.74668 0.62293 0.38896 0.0
C494 C 0.74999 0.63809 0.34005 0.0
H495 H 0.74998 0.61791 0.48876 0.0
H496 H 0.74057 0.6058 0.37807 0.0
C497 C 0.75795 0.66018 0.35583 0.0
C498 C 0.05084 0.29591 0.06399 0.0
C499 C 0.05445 0.28011 0.03064 0.0
H500 H 0.04687 0.30799 0.15456 0.0
C501 C 0.05489 0.26273 0.0652 0.0
H502 H 0.05019 0.30941 0.03896 0.0
C503 C 0.05275 0.2618 0.13218 0.0
C504 C 0.05026 0.27831 0.16547 0.0
H505 H 0.05754 0.25024 0.04078 0.0
H506 H 0.0541 0.2488 0.15801 0.0
C507 C 0.04883 0.29505 0.1304 0.0
C508 C 0.64656 0.73377 0.09185 0.0
C509 C 0.66165 0.73982 0.14219 0.0
H510 H 0.64143 0.73046 0.9905 0.0
C511 C 0.68353 0.74595 0.12825 0.0
H512 H 0.62958 0.7289 0.10134 0.0
C513 C 0.69038 0.74725 0.06478 0.0
C514 C 0.67539 0.74193 0.01429 0.0
H515 H 0.69552 0.75075 0.16616 0.0
H516 H 0.70749 0.75297 0.05512 0.0
C517 C 0.65333 0.73456 0.02849 0.0
C518 C 0.24331 0.92126 0.13688 0.0
C519 C 0.25123 0.90615 0.15116 0.0
H520 H 0.23296 0.93645 0.06369 0.0
C521 C 0.2567 0.89605 0.10072 0.0
H522 H 0.23887 0.9292 0.17485 0.0
C523 C 0.25376 0.90055 0.03714 0.0
C524 C 0.24477 0.91479 0.02295 0.0
H525 H 0.26286 0.88435 0.11043 0.0
H526 H 0.25762 0.89213 -0.00078 0.0
C527 C 0.23986 0.92534 0.07335 0.0
C528 C 0.70368 0.93258 0.62251 0.0
C529 C 0.68151 0.92306 0.63744 0.0
H530 H 0.72755 0.94273 0.54825 0.0
C531 C 0.66627 0.91837 0.58793 0.0
H532 H 0.71574 0.93631 0.65985 0.0
C533 C 0.67304 0.9225 0.52433 0.0
C534 C 0.69513 0.93089 0.50915 0.0
H535 H 0.64909 0.91112 0.5983 0.0
H536 H 0.66092 0.91816 0.48691 0.0
C537 C 0.71042 0.93621 0.55878 0.0
C538 C 0.05739 0.774 0.58105 0.0
C539 C 0.0636 0.76407 0.53184 0.0
H540 H 0.05468 0.77726 0.68214 0.0
C541 C 0.07045 0.74825 0.54733 0.0
H542 H 0.05192 0.78616 0.5702 0.0
C543 C 0.07239 0.74346 0.61123 0.0
C544 C 0.067 0.75402 0.66052 0.0
H545 H 0.07532 0.74036 0.51023 0.0
H546 H 0.0787 0.73195 0.62213 0.0
C547 C 0.05884 0.76882 0.64495 0.0
C548 C 0.25835 0.38486 0.53878 0.0
C549 C 0.25694 0.36432 0.52439 0.0
H550 H 0.25846 0.40662 0.61238 0.0
C551 C 0.25691 0.35073 0.57452 0.0
H552 H 0.25834 0.39563 0.50096 0.0
C553 C 0.25708 0.35703 0.63794 0.0
C554 C 0.25707 0.37696 0.65253 0.0
H555 H 0.25594 0.33485 0.56478 0.0
H556 H 0.2563 0.34584 0.67548 0.0
C557 C 0.2583 0.3911 0.60246 0.0
C558 C 0.94835 0.66184 0.88498 0.0
C559 C 0.95119 0.67688 0.83598 0.0
H560 H 0.94444 0.65503 0.98549 0.0
C561 C 0.95363 0.69765 0.85243 0.0
H562 H 0.9464 0.6457 0.87363 0.0
C563 C 0.95195 0.7028 0.9164 0.0
C564 C 0.94837 0.68748 0.96517 0.0
H565 H 0.95564 0.70948 0.81559 0.0
H566 H 0.95295 0.7186 0.92754 0.0
C567 C 0.94725 0.66719 0.949 0.0
C568 C 0.34445 0.27249 0.93643 0.0
C569 C 0.35981 0.27695 0.98547 0.0
H570 H 0.33822 0.26909 0.83566 0.0
C571 C 0.38141 0.28254 0.96956 0.0
H572 H 0.32768 0.26816 0.94756 0.0
C573 C 0.38733 0.28258 0.90566 0.0
C574 C 0.37183 0.27754 0.85674 0.0
H575 H 0.39352 0.28593 0.00658 0.0
H576 H 0.40394 0.28622 0.89461 0.0
C577 C 0.35047 0.27303 0.87252 0.0
C578 C 0.72919 0.09772 0.91587 0.0
C579 C 0.73858 0.09115 0.86592 0.0
H580 H 0.72575 0.09982 0.01739 0.0
C581 C 0.75093 0.08015 0.88133 0.0
H582 H 0.7196 0.10624 0.90545 0.0
C583 C 0.75488 0.07696 0.94537 0.0
C584 C 0.74606 0.08414 0.99536 0.0
H585 H 0.75849 0.07502 0.84398 0.0
H586 H 0.76529 0.06934 0.95581 0.0
C587 C 0.73264 0.09398 0.97994 0.0
C588 C 0.93057 0.38403 0.74873 0.0
C589 C 0.94455 0.38568 0.79989 0.0
H590 H 0.92495 0.38029 0.64731 0.0
C591 C 0.9634 0.38338 0.78702 0.0
H592 H 0.91585 0.38562 0.75711 0.0
C593 C 0.96873 0.38061 0.72414 0.0
C594 C 0.95511 0.37963 0.67273 0.0
H595 H 0.97449 0.38453 0.82527 0.0
H596 H 0.98382 0.37976 0.71559 0.0
C597 C 0.9357 0.38082 0.68588 0.0
C598 C 0.5737 0.59904 0.73 0.0
C599 C 0.58187 0.5914 0.67952 0.0
H600 H 0.56981 0.60023 0.83148 0.0
C601 C 0.59363 0.57972 0.69393 0.0
H602 H 0.56457 0.60808 0.72023 0.0
C603 C 0.59615 0.57477 0.75746 0.0
C604 C 0.58747 0.5819 0.80785 0.0
H605 H 0.59999 0.57351 0.656 0.0
H606 H 0.60457 0.56502 0.76709 0.0
C607 C 0.57672 0.59458 0.79362 0.0
C608 C 0.39713 0.96751 0.78698 0.0
C609 C 0.40457 0.9896 0.80182 0.0
H610 H 0.39034 0.94376 0.71301 0.0
C611 C 0.40891 0.00464 0.75189 0.0
H612 H 0.39377 0.9556 0.82458 0.0
C613 C 0.4065 0.99781 0.68815 0.0
C614 C 0.40026 0.97591 0.67331 0.0
H615 H 0.41463 0.02177 0.76212 0.0
H616 H 0.41053 0.00983 0.65056 0.0
C617 C 0.39525 0.96076 0.72323 0.0
C618 C 0.58862 0.99795 0.29746 0.0
C619 C 0.59446 0.01981 0.31182 0.0
H620 H 0.58114 0.97394 0.22389 0.0
C621 C 0.59962 0.03489 0.26167 0.0
H622 H 0.58451 0.986 0.33527 0.0
C623 C 0.59815 0.02809 0.19811 0.0
C624 C 0.591 0.00601 0.18361 0.0
H625 H 0.60425 0.05186 0.27152 0.0
H626 H 0.60153 0.03994 0.16034 0.0
C627 C 0.58665 0.99106 0.23382 0.0
C628 C 0.02694 0.58593 0.27988 0.0
C629 C 0.04288 0.58342 0.31591 0.0
H630 H 0.01547 0.5889 0.18727 0.0
C631 C 0.06088 0.58352 0.28415 0.0
H632 H 0.01292 0.58602 0.30294 0.0
C633 C 0.06227 0.58499 0.21715 0.0
C634 C 0.04577 0.58655 0.1811 0.0
H635 H 0.07337 0.58153 0.31075 0.0
H636 H 0.07588 0.58423 0.19356 0.0
C637 C 0.0284 0.58756 0.21343 0.0
C638 C 0.42325 0.40911 0.18161 0.0
C639 C 0.41024 0.41942 0.16639 0.0
H640 H 0.4382 0.39893 0.25611 0.0
C641 C 0.40025 0.42524 0.2164 0.0
H642 H 0.43127 0.40458 0.14414 0.0
C643 C 0.40374 0.42147 0.28035 0.0
C644 C 0.41781 0.4124 0.29574 0.0
H645 H 0.39014 0.43322 0.20609 0.0
H646 H 0.39635 0.42677 0.31782 0.0
C647 C 0.42725 0.40593 0.24568 0.0
C648 C 0.36467 0.20614 0.19817 0.0
C649 C 0.34418 0.20592 0.1946 0.0
H650 H 0.38239 0.18735 0.20634 0.0
C651 C 0.32552 0.18612 0.20054 0.0
H652 H 0.37937 0.22124 0.19415 0.0
C653 C 0.32729 0.16682 0.20828 0.0
C654 C 0.34775 0.16693 0.20987 0.0
H655 H 0.30955 0.18548 0.19858 0.0
H656 H 0.31254 0.15173 0.21136 0.0
C657 C 0.36644 0.1868 0.20558 0.0
C658 C 0.82562 0.16529 0.1705 0.0
C659 C 0.80319 0.15474 0.18115 0.0
H660 H 0.85409 0.19565 0.16206 0.0
C661 C 0.79217 0.16745 0.19188 0.0
H662 H 0.83457 0.156 0.16212 0.0
C663 C 0.80332 0.19017 0.19194 0.0
C664 C 0.82575 0.20072 0.18121 0.0
H665 H 0.77485 0.15983 0.20029 0.0
H666 H 0.79437 0.19947 0.20029 0.0
C667 C 0.83678 0.18802 0.17051 0.0
C668 C 0.85328 0.68166 0.15419 0.0
C669 C 0.86463 0.66912 0.15037 0.0
H670 H 0.82246 0.68187 0.15997 0.0
C671 C 0.85281 0.64629 0.15014 0.0
H672 H 0.86188 0.69924 0.15473 0.0
C673 C 0.83011 0.63623 0.15339 0.0
C674 C 0.81878 0.64882 0.15694 0.0
H675 H 0.86111 0.63615 0.14747 0.0
H676 H 0.82145 0.61866 0.15267 0.0
C677 C 0.83066 0.67164 0.15741 0.0
C678 C 0.13611 0.29192 0.34033 0.0
C679 C 0.12854 0.30775 0.34527 0.0
H680 H 0.16365 0.28531 0.34069 0.0
C681 C 0.14343 0.32956 0.35461 0.0
H682 H 0.12493 0.27494 0.33363 0.0
C683 C 0.16554 0.33545 0.35879 0.0
C684 C 0.1731 0.31961 0.35416 0.0
H685 H 0.13801 0.34205 0.35897 0.0
H686 H 0.1767 0.35243 0.36556 0.0
C687 C 0.15821 0.2978 0.34498 0.0
C688 C 0.69224 0.8286 0.32965 0.0
C689 C 0.66977 0.81597 0.3206 0.0
H690 H 0.71877 0.86061 0.33646 0.0
C691 C 0.65676 0.8266 0.3107 0.0
H692 H 0.70275 0.82091 0.33738 0.0
C693 C 0.66598 0.84932 0.31025 0.0
C694 C 0.68843 0.86198 0.3196 0.0
H695 H 0.63945 0.81737 0.30358 0.0
H696 H 0.65542 0.85698 0.30272 0.0
C697 C 0.70147 0.85136 0.32911 0.0
C698 C 0.16837 0.85807 0.34938 0.0
C699 C 0.18161 0.8475 0.34057 0.0
H700 H 0.13605 0.85489 0.35758 0.0
C701 C 0.17168 0.82486 0.33313 0.0
H702 H 0.17549 0.87554 0.3553 0.0
C703 C 0.14905 0.81306 0.33447 0.0
C704 C 0.13581 0.82363 0.34331 0.0
H705 H 0.18138 0.81624 0.32627 0.0
H706 H 0.14193 0.79559 0.32856 0.0
C707 C 0.14574 0.84628 0.35073 0.0
C708 C 0.65753 0.82773 0.81954 0.0
C709 C 0.67405 0.84898 0.8256 0.0
H710 H 0.64928 0.79389 0.81615 0.0
C711 C 0.69561 0.85223 0.8333 0.0
H712 H 0.64081 0.8247 0.81364 0.0
C713 C 0.70053 0.83458 0.83471 0.0
C714 C 0.68399 0.81333 0.82857 0.0
H715 H 0.70873 0.86847 0.83814 0.0
H716 H 0.71725 0.83757 0.84051 0.0
C717 C 0.66244 0.8101 0.82107 0.0
C718 C 0.15102 0.85334 0.84695 0.0
C719 C 0.17252 0.85674 0.83935 0.0
H720 H 0.11765 0.83013 0.85453 0.0
C721 C 0.17662 0.83849 0.83345 0.0
H722 H 0.14731 0.86701 0.85166 0.0
C723 C 0.15968 0.81737 0.83518 0.0
C724 C 0.13819 0.81396 0.8428 0.0
H725 H 0.19301 0.84049 0.82756 0.0
H726 H 0.16343 0.80373 0.8305 0.0
C727 C 0.13405 0.83219 0.84862 0.0
C728 C 0.14203 0.35423 0.82683 0.0
C729 C 0.13303 0.33155 0.83588 0.0
H730 H 0.17128 0.38437 0.81812 0.0
C731 C 0.14715 0.32199 0.84254 0.0
H732 H 0.13157 0.36209 0.82144 0.0
C733 C 0.16952 0.33453 0.84 0.0
C734 C 0.17871 0.35716 0.83115 0.0
H735 H 0.14093 0.30463 0.84941 0.0
H736 H 0.17965 0.3263 0.84545 0.0
C737 C 0.16473 0.36697 0.82481 0.0
C738 C 0.84299 0.64734 0.64587 0.0
C739 C 0.84394 0.66815 0.63977 0.0
H740 H 0.86064 0.62846 0.65256 0.0
C741 C 0.86427 0.68624 0.635 0.0
H742 H 0.82756 0.63303 0.64977 0.0
C743 C 0.88325 0.68357 0.63668 0.0
C744 C 0.88228 0.66276 0.64323 0.0
H745 H 0.86553 0.70245 0.63042 0.0
H746 H 0.89871 0.69787 0.63309 0.0
C747 C 0.86194 0.64468 0.64761 0.0
C748 C 0.33473 0.19185 0.65818 0.0
C749 C 0.35749 0.20293 0.66411 0.0
H750 H 0.30633 0.1611 0.6542 0.0
C751 C 0.36911 0.19066 0.66889 0.0
H752 H 0.32524 0.2008 0.65431 0.0
C753 C 0.35823 0.16789 0.66844 0.0
C754 C 0.33544 0.1568 0.66344 0.0
H755 H 0.3866 0.19863 0.67337 0.0
H756 H 0.36773 0.15896 0.67287 0.0
C757 C 0.32384 0.16908 0.65798 0.0
C758 C 0.8196 0.16664 0.6787 0.0
C759 C 0.80057 0.16942 0.68079 0.0
H760 H 0.85434 0.18187 0.67606 0.0
C761 C 0.80245 0.19059 0.68189 0.0
H762 H 0.81873 0.15052 0.67767 0.0
C763 C 0.82293 0.20858 0.68105 0.0
C764 C 0.84195 0.20576 0.67887 0.0
H765 H 0.78813 0.19327 0.68342 0.0
H766 H 0.82385 0.22471 0.68204 0.0
C767 C 0.84004 0.18459 0.67766 0.0
C768 C 0.01955 0.46866 0.47705 0.0
C769 C 0.9977 0.45363 0.48333 0.0
H770 H 0.04259 0.5022 0.47268 0.0
C771 C 0.98194 0.46126 0.48879 0.0
H772 H 0.03201 0.46323 0.47247 0.0
C773 C 0.98797 0.48352 0.48914 0.0
C774 C 0.00984 0.49856 0.48352 0.0
H775 H 0.96494 0.45002 0.49358 0.0
H776 H 0.97552 0.48893 0.49442 0.0
C777 C 0.02557 0.49094 0.47687 0.0
C778 C 0.50897 0.48915 0.48253 0.0
C779 C 0.48667 0.48281 0.48728 0.0
H780 H 0.5409 0.51556 0.47986 0.0
C781 C 0.47952 0.49897 0.49363 0.0
H782 H 0.51496 0.47711 0.47764 0.0
C783 C 0.49434 0.521 0.49511 0.0
C784 C 0.51664 0.52736 0.49009 0.0
H785 H 0.46241 0.49461 0.49754 0.0
H786 H 0.48834 0.53304 0.49997 0.0
C787 C 0.52379 0.5112 0.48382 0.0
C788 C 0.50787 0.0205 0.4814 0.0
C789 C 0.51961 0.00857 0.49179 0.0
H790 H 0.47661 0.01974 0.47189 0.0
C791 C 0.50808 0.9859 0.50054 0.0
H792 H 0.51621 0.03793 0.47447 0.0
C793 C 0.48536 0.97542 0.49904 0.0
C794 C 0.47362 0.98735 0.48877 0.0
H795 H 0.51662 0.97618 0.50864 0.0
H796 H 0.47702 0.958 0.50607 0.0
C797 C 0.48515 0.01001 0.47992 0.0
C798 C 0.47658 0.9802 0.00057 0.0
C799 C 0.47861 0.00138 0.99294 0.0
H800 H 0.4929 0.96008 0.00904 0.0
C801 C 0.49935 0.01884 0.98851 0.0
H802 H 0.46076 0.96639 0.00424 0.0
C803 C 0.51771 0.01519 0.99147 0.0
C804 C 0.51569 0.99401 -0.00115 0.0
H805 H 0.50142 0.03531 0.98276 0.0
H806 H 0.53351 0.02902 0.98769 0.0
C807 C 0.49495 0.97655 0.00345 0.0
C808 C 0.00569 0.50022 0.99602 0.0
C809 C 0.99746 0.51518 0.98311 0.0
H810 H 0.99929 0.46703 0.00556 0.0
C811 C 0.9752 0.50719 0.96957 0.0
H812 H 0.02272 0.50571 0.00662 0.0
C813 C 0.96155 0.48465 0.96893 0.0
C814 C 0.96997 0.46979 0.98177 0.0
H815 H 0.96836 0.5183 0.95935 0.0
H816 H 0.94448 0.47888 0.95835 0.0
C817 C 0.99219 0.47793 0.99535 0.0
C818 C 0.4834 0.50787 -0.00107 0.0
C819 C 0.47633 0.48569 0.98671 0.0
H820 H 0.51041 0.53912 0.01072 0.0
C821 C 0.49196 0.47802 0.97717 0.0
H822 H 0.47181 0.51429 0.00657 0.0
C823 C 0.51415 0.49226 0.97958 0.0
C824 C 0.52119 0.51446 0.9916 0.0
H825 H 0.48704 0.46098 0.9677 0.0
H826 H 0.52577 0.48589 0.97181 0.0
C827 C 0.50555 0.52208 0.00135 0.0
C828 C 0.41477 0.07425 0.07057 0.0
C829 C 0.40156 0.05559 0.03502 0.0
H830 H 0.41582 0.09942 0.13381 0.0
C831 C 0.37913 0.04876 0.03339 0.0
H832 H 0.43213 0.07977 0.07308 0.0
C833 C 0.3699 0.05953 0.06894 0.0
C834 C 0.38285 0.07763 0.10662 0.0
H835 H 0.36847 0.03451 0.00644 0.0
H836 H 0.35246 0.05347 0.06716 0.0
C837 C 0.40546 0.08532 0.10587 0.0
C838 C 0.86287 0.34198 0.14826 0.0
C839 C 0.85272 0.32119 0.12078 0.0
H840 H 0.88211 0.37598 0.13182 0.0
C841 C 0.84994 0.31933 0.05406 0.0
H842 H 0.86546 0.3438 0.19949 0.0
C843 C 0.86026 0.33767 0.01513 0.0
C844 C 0.87267 0.35816 0.04258 0.0
H845 H 0.84245 0.30347 0.03161 0.0
H846 H 0.86045 0.33548 0.96386 0.0
C847 C 0.8724 0.36041 0.10935 0.0
C848 C 0.67378 0.56505 0.1061 0.0
C849 C 0.69037 0.58485 0.08473 0.0
H850 H 0.64004 0.54225 0.09739 0.0
C851 C 0.68663 0.59502 0.03117 0.0
H852 H 0.67635 0.55693 0.14733 0.0
C853 C 0.6663 0.58663 0.0024 0.0
C854 C 0.64905 0.56791 0.02675 0.0
H855 H 0.6993 0.61012 0.01306 0.0
H856 H 0.66376 0.59559 0.96329 0.0
C857 C 0.65312 0.55663 0.07729 0.0
C858 C 0.03248 0.35815 0.45682 0.0
C859 C 0.00985 0.34836 0.46415 0.0
H860 H 0.06046 0.35391 0.43197 0.0
C861 C 0.99807 0.32584 0.45452 0.0
H862 H 0.04201 0.37547 0.46382 0.0
C863 C 0.00866 0.31347 0.43614 0.0
C864 C 0.03121 0.3234 0.4269 0.0
H865 H 0.98061 0.31782 0.45976 0.0
H866 H 0.99911 0.29621 0.42799 0.0
C867 C 0.04304 0.3458 0.43834 0.0
C868 C 0.58925 0.69249 0.44536 0.0
C869 C 0.58977 0.69331 0.37818 0.0
H870 H 0.58115 0.67203 0.52858 0.0
C871 C 0.5786 0.67403 0.34339 0.0
H872 H 0.59827 0.70709 0.4731 0.0
C873 C 0.56809 0.65409 0.37525 0.0
C874 C 0.56939 0.65308 0.44217 0.0
H875 H 0.57928 0.67421 0.29162 0.0
H876 H 0.56085 0.63928 0.34723 0.0
C877 C 0.57952 0.67247 0.47711 0.0
C878 C 0.32657 0.89522 0.34513 0.0
C879 C 0.30772 0.88654 0.38254 0.0
H880 H 0.3613 0.91231 0.34452 0.0
C881 C 0.30969 0.88575 0.4493 0.0
H882 H 0.32544 0.8965 0.29374 0.0
C883 C 0.33016 0.8955 0.47848 0.0
C884 C 0.34897 0.9054 0.44121 0.0
H885 H 0.29538 0.8797 0.47922 0.0
H886 H 0.33121 0.89676 0.53015 0.0
C887 C 0.34706 0.90421 0.37423 0.0
C888 C 0.61014 0.95513 0.88343 0.0
C889 C 0.59463 0.94414 0.93051 0.0
H890 H 0.63244 0.95389 0.81535 0.0
C891 C 0.58793 0.92185 0.94013 0.0
H892 H 0.6151 0.97218 0.87362 0.0
C893 C 0.59811 0.91123 0.90653 0.0
C894 C 0.6147 0.92278 0.86235 0.0
H895 H 0.57574 0.91302 0.9756 0.0
H896 H 0.59388 0.89443 0.91765 0.0
C897 C 0.61991 0.94457 0.84946 0.0
C898 C 0.04741 0.67144 0.88326 0.0
C899 C 0.06943 0.68664 0.8807 0.0
H900 H 0.02416 0.63908 0.90807 0.0
C901 C 0.08512 0.68026 0.90124 0.0
H902 H 0.0349 0.67588 0.86802 0.0
C903 C 0.07893 0.65929 0.92482 0.0
C904 C 0.05691 0.64416 0.9282 0.0
H905 H 0.10218 0.6916 0.9003 0.0
H906 H 0.09147 0.65495 0.94054 0.0
C907 C 0.04121 0.65039 0.90659 0.0
C908 C 0.33171 0.42264 0.98511 0.0
C909 C 0.34968 0.43947 0.95614 0.0
H910 H 0.2976 0.40222 0.98155 0.0
C911 C 0.34622 0.45105 0.90531 0.0
H912 H 0.33386 0.41349 0.02442 0.0
C913 C 0.32522 0.44445 0.88022 0.0
C914 C 0.30762 0.42633 0.90619 0.0
H915 H 0.35986 0.46396 0.8817 0.0
H916 H 0.32305 0.45235 0.83788 0.0
C917 C 0.31096 0.41619 0.96052 0.0
C918 C 0.99401 0.62838 0.62213 0.0
C919 C 0.97125 0.61817 0.62478 0.0
H920 H 0.0228 0.62567 0.59818 0.0
C921 C 0.96004 0.59611 0.60773 0.0
H922 H 0.00316 0.64534 0.635 0.0
C923 C 0.9714 0.58477 0.58628 0.0
C924 C 0.99414 0.59531 0.58145 0.0
H925 H 0.9425 0.58783 0.609 0.0
H926 H 0.96237 0.56793 0.57204 0.0
C927 C 0.00529 0.61711 0.60073 0.0
C928 C 0.45262 0.36775 0.62449 0.0
C929 C 0.45226 0.36796 0.55725 0.0
H930 H 0.44372 0.34801 0.70906 0.0
C931 C 0.44753 0.34858 0.52408 0.0
H932 H 0.45592 0.38236 0.65137 0.0
C933 C 0.44137 0.32903 0.55742 0.0
C934 C 0.43913 0.32844 0.62428 0.0
H935 H 0.44697 0.34826 0.47229 0.0
H936 H 0.43594 0.31407 0.53041 0.0
C937 C 0.44572 0.34809 0.65767 0.0
C938 C 0.66333 0.09897 0.50523 0.0
C939 C 0.64401 0.09151 0.54032 0.0
H940 H 0.69803 0.11398 0.50827 0.0
C941 C 0.6451 0.09625 0.60598 0.0
H942 H 0.66289 0.09512 0.45485 0.0
C943 C 0.66523 0.10635 0.63714 0.0
C944 C 0.68456 0.11249 0.60273 0.0
H945 H 0.63044 0.09018 0.63436 0.0
H946 H 0.66562 0.10805 0.68869 0.0
C947 C 0.68343 0.10976 0.53594 0.0
C948 C 0.75795 0.74399 0.75884 0.0
C949 C 0.73573 0.73227 0.77298 0.0
H950 H 0.78606 0.74297 0.71712 0.0
C951 C 0.7247 0.71051 0.75332 0.0
H952 H 0.7668 0.76087 0.77278 0.0
C953 C 0.73538 0.70065 0.72033 0.0
C954 C 0.75759 0.71204 0.70669 0.0
H955 H 0.70754 0.70101 0.76239 0.0
H956 H 0.72611 0.68381 0.70638 0.0
C957 C 0.76888 0.73385 0.72642 0.0
C958 C 0.27105 0.99723 0.80786 0.0
C959 C 0.24859 0.98448 0.80154 0.0
H960 H 0.29861 0.02701 0.78685 0.0
C961 C 0.23632 0.99351 0.77053 0.0
H962 H 0.28105 0.99094 0.83163 0.0
C963 C 0.24658 0.01464 0.74453 0.0
C964 C 0.26925 0.02685 0.74858 0.0
H965 H 0.21899 0.98403 0.76458 0.0
H966 H 0.23693 0.02113 0.71981 0.0
C967 C 0.28119 0.01797 0.78161 0.0
C968 C 0.00281 0.29977 0.74828 0.0
C969 C 0.00747 0.28247 0.76436 0.0
H970 H 0.97902 0.30921 0.71263 0.0
C971 C 0.99175 0.26107 0.75229 0.0
H972 H 0.01467 0.31642 0.75654 0.0
C973 C 0.97161 0.25695 0.72655 0.0
C974 C 0.96657 0.27412 0.71255 0.0
H975 H 0.99492 0.24735 0.76322 0.0
H976 H 0.95976 0.24023 0.71931 0.0
C977 C 0.98247 0.29562 0.72286 0.0
C978 C 0.27771 0.27664 0.23934 0.0
C979 C 0.29834 0.28979 0.21408 0.0
H980 H 0.25033 0.27559 0.29056 0.0
C981 C 0.30708 0.31244 0.22063 0.0
H982 H 0.27069 0.25911 0.2356 0.0
C983 C 0.2957 0.32178 0.25296 0.0
C984 C 0.27525 0.3087 0.27918 0.0
H985 H 0.323 0.32302 0.20212 0.0
H986 H 0.30298 0.33931 0.25724 0.0
C987 C 0.26621 0.28604 0.27152 0.0
C988 C 0.76906 0.00858 0.31426 0.0
C989 C 0.76032 0.98978 0.2763 0.0
H990 H 0.78119 0.04324 0.31682 0.0
C991 C 0.75998 0.9919 0.20952 0.0
H992 H 0.76886 0.00728 0.36592 0.0
C993 C 0.76624 0.01234 0.18164 0.0
C994 C 0.77367 0.03101 0.22 0.0
H995 H 0.75266 0.97757 0.17951 0.0
H996 H 0.76376 0.01338 0.13081 0.0
C997 C 0.77608 0.02911 0.28613 0.0
C998 C 0.98977 0.76791 0.33379 0.0
C999 C 0.00888 0.78166 0.30175 0.0
H1000 H 0.95672 0.74415 0.32493 0.0
C1001 C 0.00788 0.78538 0.23602 0.0
H1002 H 0.9902 0.76458 0.3843 0.0
C1003 C 0.98883 0.77316 0.20144 0.0
C1004 C 0.97041 0.75747 0.23245 0.0
H1005 H 0.02247 0.79561 0.20999 0.0
H1006 H 0.98919 0.77448 0.14978 0.0
C1007 C 0.97058 0.75616 0.29957 0.0
C1008 C 0.34617 0.11338 0.9572 0.0
C1009 C 0.32956 0.10567 0.00293 0.0
H1010 H 0.3543 0.11644 0.85807 0.0
C1011 C 0.30784 0.09591 0.98311 0.0
H1012 H 0.36308 0.12088 0.97137 0.0
C1013 C 0.30285 0.09376 0.91795 0.0
C1014 C 0.31956 0.10086 0.87253 0.0
H1015 H 0.29482 0.08989 0.01777 0.0
H1016 H 0.28601 0.08596 0.90313 0.0
C1017 C 0.34121 0.11078 0.8925 0.0
C1018 C 0.87965 0.28688 0.94953 0.0
C1019 C 0.8884 0.27863 0.99716 0.0
H1020 H 0.87725 0.29199 0.84921 0.0
C1021 C 0.90357 0.27121 0.98019 0.0
H1022 H 0.868 0.29284 0.96173 0.0
C1023 C 0.90849 0.27032 0.91578 0.0
C1024 C 0.89872 0.27735 0.86778 0.0
H1025 H 0.91047 0.26475 0.0161 0.0
H1026 H 0.91928 0.26332 0.9033 0.0
C1027 C 0.88498 0.2865 0.8853 0.0
C1028 C 0.75605 0.62367 0.91496 0.0
C1029 C 0.76043 0.6397 0.96194 0.0
H1030 H 0.75741 0.61701 0.81529 0.0
C1031 C 0.76919 0.6616 0.94415 0.0
H1032 H 0.74914 0.60663 0.92781 0.0
C1033 C 0.7743 0.66749 0.88048 0.0
C1034 C 0.77029 0.65152 0.83359 0.0
H1035 H 0.7727 0.67421 0.97962 0.0
H1036 H 0.78142 0.68456 0.86794 0.0
C1037 C 0.76072 0.62954 0.85089 0.0
C1038 C 0.04383 0.24867 0.63781 0.0
C1039 C 0.06439 0.25678 0.66681 0.0
H1040 H 0.02632 0.24462 0.54964 0.0
C1041 C 0.08263 0.26181 0.62863 0.0
H1042 H 0.0296 0.24523 0.66655 0.0
C1043 C 0.08075 0.26137 0.56217 0.0
C1044 C 0.06065 0.25626 0.53297 0.0
H1045 H 0.09865 0.26846 0.64995 0.0
H1046 H 0.09544 0.26748 0.53386 0.0
C1047 C 0.04194 0.24838 0.5709 0.0
C1048 C 0.65289 0.73642 0.62296 0.0
C1049 C 0.67476 0.74433 0.63975 0.0
H1050 H 0.63011 0.7303 0.54686 0.0
C1051 C 0.69049 0.74979 0.59148 0.0
H1052 H 0.64052 0.73214 0.65941 0.0
C1053 C 0.68452 0.7483 0.52715 0.0
C1054 C 0.66283 0.74185 0.51057 0.0
H1055 H 0.70749 0.75579 0.60355 0.0
H1056 H 0.69697 0.75333 0.49075 0.0
C1057 C 0.64699 0.73545 0.55875 0.0
C1058 C 0.25597 0.9029 0.63607 0.0
C1059 C 0.24505 0.91524 0.65137 0.0
H1060 H 0.26666 0.88877 0.56125 0.0
C1061 C 0.23882 0.92523 0.60211 0.0
H1062 H 0.26097 0.89509 0.67323 0.0
C1063 C 0.24249 0.92203 0.5382 0.0
C1064 C 0.25198 0.90839 0.52285 0.0
H1065 H 0.23054 0.93502 0.61293 0.0
H1066 H 0.23673 0.92913 0.50092 0.0
C1067 C 0.25919 0.89929 0.57217 0.0
C1068 C 0.67221 0.92387 0.11802 0.0
C1069 C 0.69412 0.93236 0.13503 0.0
H1070 H 0.64908 0.91243 0.04173 0.0
C1071 C 0.70999 0.9387 0.08697 0.0
H1072 H 0.65973 0.91887 0.15432 0.0
C1073 C 0.70396 0.93536 0.02268 0.0
C1074 C 0.68198 0.9252 0.00598 0.0
H1075 H 0.72703 0.94544 0.09923 0.0
H1076 H 0.71639 0.93947 0.98651 0.0
C1077 C 0.66617 0.92009 0.05382 0.0
C1078 C 0.07214 0.74793 0.14537 0.0
C1079 C 0.06288 0.76163 0.16225 0.0
H1080 H 0.08291 0.7346 0.06873 0.0
C1081 C 0.05455 0.77018 0.11436 0.0
H1082 H 0.07867 0.74122 0.1816 0.0
C1083 C 0.05663 0.76614 0.05002 0.0
C1084 C 0.0675 0.75392 0.03298 0.0
H1085 H 0.04717 0.78068 0.12661 0.0
H1086 H 0.05094 0.77365 0.01376 0.0
C1087 C 0.07466 0.7443 0.08099 0.0
C1088 C 0.24685 0.38189 0.14003 0.0
C1089 C 0.24172 0.36039 0.15671 0.0
H1090 H 0.25069 0.40411 0.06359 0.0
C1091 C 0.23686 0.34467 0.10856 0.0
H1092 H 0.25062 0.39424 0.17651 0.0
C1093 C 0.2371 0.35028 0.04466 0.0
C1094 C 0.24187 0.37164 0.02778 0.0
H1095 H 0.23298 0.32798 0.1202 0.0
H1096 H 0.23338 0.33783 0.00851 0.0
C1097 C 0.24673 0.38745 0.07577 0.0
C1098 C 0.96364 0.68795 0.42476 0.0
C1099 C 0.94845 0.66832 0.45155 0.0
H1100 H 0.97467 0.70723 0.33957 0.0
C1101 C 0.93419 0.65188 0.41066 0.0
H1102 H 0.9749 0.70084 0.45503 0.0
C1103 C 0.93406 0.65548 0.3451 0.0
C1104 C 0.94833 0.67551 0.31866 0.0
H1105 H 0.92242 0.63645 0.42957 0.0
H1106 H 0.92207 0.64292 0.31548 0.0
C1107 C 0.96364 0.6915 0.35866 0.0
C1108 C 0.38801 0.28812 0.44048 0.0
C1109 C 0.37194 0.28267 0.48772 0.0
H1110 H 0.3951 0.29138 0.34023 0.0
C1111 C 0.35102 0.2792 0.47047 0.0
H1112 H 0.40437 0.29115 0.45301 0.0
C1113 C 0.34572 0.27909 0.40607 0.0
C1114 C 0.36139 0.28289 0.35854 0.0
H1115 H 0.33845 0.27511 0.50619 0.0
H1116 H 0.32909 0.27494 0.39326 0.0
C1117 C 0.38281 0.28843 0.37616 0.0
C1118 C 0.76385 0.08594 0.48553 0.0
C1119 C 0.74386 0.08367 0.50832 0.0
H1120 H 0.78308 0.08735 0.40438 0.0
C1121 C 0.72674 0.07883 0.46456 0.0
H1122 H 0.77733 0.08968 0.518 0.0
C1123 C 0.73011 0.0778 0.39863 0.0
C1124 C 0.75062 0.0815 0.37575 0.0
H1125 H 0.7112 0.07726 0.48078 0.0
H1126 H 0.71702 0.07508 0.3656 0.0
C1127 C 0.76716 0.08478 0.42019 0.0
C1128 C 0.96669 0.38528 0.18157 0.0
C1129 C 0.94713 0.38589 0.1667 0.0
H1130 H 0.98727 0.38329 0.25568 0.0
C1131 C 0.93203 0.38245 0.21591 0.0
H1132 H 0.97858 0.38785 0.14466 0.0
C1133 C 0.93676 0.37937 0.2792 0.0
C1134 C 0.95689 0.38014 0.29472 0.0
H1135 H 0.91669 0.38262 0.20567 0.0
H1136 H 0.92513 0.37751 0.31632 0.0
C1137 C 0.97163 0.38269 0.24511 0.0
C1138 C 0.58067 0.59737 0.19389 0.0
C1139 C 0.58982 0.58343 0.17853 0.0
H1140 H 0.56985 0.61136 0.26878 0.0
C1141 C 0.59794 0.57516 0.22785 0.0
H1142 H 0.57434 0.60397 0.15677 0.0
C1143 C 0.59583 0.57977 0.29183 0.0
C1144 C 0.58512 0.5923 0.30725 0.0
H1145 H 0.60525 0.56449 0.21704 0.0
H1146 H 0.60126 0.57239 0.32912 0.0
C1147 C 0.5781 0.60156 0.25785 0.0
C1148 C 0.40522 0.99817 0.28533 0.0
C1149 C 0.39901 0.97647 0.3019 0.0
H1150 H 0.41347 0.02127 0.20916 0.0
C1151 C 0.39333 0.96065 0.25356 0.0
H1152 H 0.40967 0.0106 0.32183 0.0
C1153 C 0.39509 0.96664 0.18927 0.0
C1154 C 0.40303 0.98859 0.17275 0.0
H1155 H 0.38832 0.94375 0.26548 0.0
H1156 H 0.3916 0.95435 0.15277 0.0
C1157 C 0.40747 0.00422 0.22106 0.0
C1158 C 0.58385 0.99199 0.76414 0.0
C1159 C 0.58831 0.00769 0.81225 0.0
H1160 H 0.582 0.98555 0.66346 0.0
C1161 C 0.59637 0.02963 0.79555 0.0
H1162 H 0.57783 0.97496 0.77623 0.0
C1163 C 0.59838 0.03559 0.73118 0.0
C1164 C 0.59286 0.01974 0.68299 0.0
H1165 H 0.59994 0.04197 0.83196 0.0
H1166 H 0.6036 0.05251 0.71904 0.0
C1167 C 0.58635 0.99801 0.69984 0.0
C1168 C 0.05968 0.55452 0.71523 0.0
C1169 C 0.0643 0.57277 0.67642 0.0
H1170 H 0.05539 0.54214 0.81091 0.0
C1171 C 0.07356 0.59351 0.70432 0.0
H1172 H 0.05257 0.53834 0.69477 0.0
C1173 C 0.07516 0.59562 0.77095 0.0
C1174 C 0.06794 0.57707 0.80991 0.0
H1175 H 0.07709 0.6078 0.67555 0.0
H1176 H 0.07969 0.61146 0.79204 0.0
C1177 C 0.06148 0.55667 0.78166 0.0
C1178 C 0.40681 0.43376 0.67759 0.0
C1179 C 0.4085 0.41522 0.65654 0.0
H1180 H 0.4051 0.45234 0.75714 0.0
C1181 C 0.4075 0.39967 0.70204 0.0
H1182 H 0.40753 0.44603 0.64385 0.0
C1183 C 0.40629 0.40339 0.76767 0.0
C1184 C 0.40609 0.4227 0.78865 0.0
H1185 H 0.40897 0.3853 0.68727 0.0
H1186 H 0.40653 0.39167 0.8019 0.0
C1187 C 0.4056 0.43744 0.74273 0.0
loop_
_geom_bond_atom_site_label_1
_geom_bond_atom_site_label_2
_geom_bond_distance
_geom_bond_site_symmetry_2
_ccdc_geom_bond_type
In0 O1 2.294 . S
In0 O2 2.326 . S
In0 O6 2.266 . S
In0 O7 2.326 . S
In0 O8 2.266 . S
In0 O9 2.326 . S
In0 O11 2.294 . S
In0 O12 2.326 . S
O1 In0 2.294 . S
O1 C10 1.240 . S
O2 In0 2.326 . S
O2 C10 1.252 . S
C3 O6 1.252 . S
C3 O7 1.260 . S
C4 O11 1.240 . S
C4 O12 1.252 . S
C5 O8 1.252 . S
C5 O9 1.260 . S
O6 In0 2.266 . S
O6 C3 1.252 . S
O7 In0 2.326 . S
O7 C3 1.260 . S
O8 In0 2.266 . S
O8 C5 1.252 . S
O9 In0 2.326 . S
O9 C5 1.260 . S
C10 O1 1.240 . S
C10 O2 1.252 . S
O11 In0 2.294 . S
O11 C4 1.240 . S
O12 In0 2.326 . S
O12 C4 1.252 . S
In13 O14 2.294 . S
In13 O15 2.326 . S
In13 O19 2.266 . S
In13 O20 2.326 . S
In13 O21 2.266 . S
In13 O22 2.326 . S
In13 O24 2.294 . S
In13 O25 2.326 . S
O14 In13 2.294 . S
O14 C23 1.240 . S
O15 In13 2.326 . S
O15 C23 1.252 . S
C16 O19 1.252 . S
C16 O20 1.260 . S
C17 O24 1.240 . S
C17 O25 1.252 . S
C18 O21 1.252 . S
C18 O22 1.260 . S
O19 In13 2.266 . S
O19 C16 1.252 . S
O20 In13 2.326 . S
O20 C16 1.260 . S
O21 In13 2.266 . S
O21 C18 1.252 . S
O22 In13 2.326 . S
O22 C18 1.260 . S
C23 O14 1.240 . S
C23 O15 1.252 . S
O24 In13 2.294 . S
O24 C17 1.240 . S
O25 In13 2.326 . S
O25 C17 1.252 . S
In26 O27 2.294 . S
In26 O28 2.326 . S
In26 O32 2.266 . S
In26 O33 2.326 . S
In26 O34 2.266 . S
In26 O35 2.326 . S
In26 O37 2.294 . S
In26 O38 2.326 . S
O27 In26 2.294 . S
O27 C36 1.240 . S
O28 In26 2.326 . S
O28 C36 1.252 . S
C29 O32 1.252 . S
C29 O33 1.260 . S
C30 O37 1.240 . S
C30 O38 1.252 . S
C31 O34 1.252 . S
C31 O35 1.260 . S
O32 In26 2.266 . S
O32 C29 1.252 . S
O33 In26 2.326 . S
O33 C29 1.260 . S
O34 In26 2.266 . S
O34 C31 1.252 . S
O35 In26 2.326 . S
O35 C31 1.260 . S
C36 O27 1.240 . S
C36 O28 1.252 . S
O37 In26 2.294 . S
O37 C30 1.240 . S
O38 In26 2.326 . S
O38 C30 1.252 . S
In39 O40 2.294 . S
In39 O41 2.326 . S
In39 O45 2.266 . S
In39 O46 2.326 . S
In39 O47 2.266 . S
In39 O48 2.326 . S
In39 O50 2.294 . S
In39 O51 2.326 . S
O40 In39 2.294 . S
O40 C49 1.240 . S
O41 In39 2.326 . S
O41 C49 1.252 . S
C42 O45 1.252 . S
C42 O46 1.260 . S
C43 O50 1.240 . S
C43 O51 1.252 . S
C44 O47 1.252 . S
C44 O48 1.260 . S
O45 In39 2.266 . S
O45 C42 1.252 . S
O46 In39 2.326 . S
O46 C42 1.260 . S
O47 In39 2.266 . S
O47 C44 1.252 . S
O48 In39 2.326 . S
O48 C44 1.260 . S
C49 O40 1.240 . S
C49 O41 1.252 . S
O50 In39 2.294 . S
O50 C43 1.240 . S
O51 In39 2.326 . S
O51 C43 1.252 . S
In52 O53 2.294 . S
In52 O54 2.326 . S
In52 O58 2.266 . S
In52 O59 2.326 . S
In52 O60 2.266 . S
In52 O61 2.326 . S
In52 O63 2.294 . S
In52 O64 2.326 . S
O53 In52 2.294 . S
O53 C62 1.240 . S
O54 In52 2.326 . S
O54 C62 1.252 . S
C55 O58 1.252 . S
C55 O59 1.260 . S
C56 O63 1.240 . S
C56 O64 1.252 . S
C57 O60 1.252 . S
C57 O61 1.260 . S
O58 In52 2.266 . S
O58 C55 1.252 . S
O59 In52 2.326 . S
O59 C55 1.260 . S
O60 In52 2.266 . S
O60 C57 1.252 . S
O61 In52 2.326 . S
O61 C57 1.260 . S
C62 O53 1.240 . S
C62 O54 1.252 . S
O63 In52 2.294 . S
O63 C56 1.240 . S
O64 In52 2.326 . S
O64 C56 1.252 . S
In65 O66 2.294 . S
In65 O67 2.326 . S
In65 O71 2.266 . S
In65 O72 2.326 . S
In65 O73 2.266 . S
In65 O74 2.326 . S
In65 O76 2.294 . S
In65 O77 2.326 . S
O66 In65 2.294 . S
O66 C75 1.240 . S
O67 In65 2.326 . S
O67 C75 1.252 . S
C68 O71 1.252 . S
C68 O72 1.260 . S
C69 O76 1.240 . S
C69 O77 1.252 . S
C70 O73 1.252 . S
C70 O74 1.260 . S
O71 In65 2.266 . S
O71 C68 1.252 . S
O72 In65 2.326 . S
O72 C68 1.260 . S
O73 In65 2.266 . S
O73 C70 1.252 . S
O74 In65 2.326 . S
O74 C70 1.260 . S
C75 O66 1.240 . S
C75 O67 1.252 . S
O76 In65 2.294 . S
O76 C69 1.240 . S
O77 In65 2.326 . S
O77 C69 1.252 . S
In78 O79 2.294 . S
In78 O80 2.326 . S
In78 O84 2.266 . S
In78 O85 2.326 . S
In78 O86 2.266 . S
In78 O87 2.326 . S
In78 O89 2.294 . S
In78 O90 2.326 . S
O79 In78 2.294 . S
O79 C88 1.240 . S
O80 In78 2.326 . S
O80 C88 1.252 . S
C81 O84 1.252 . S
C81 O85 1.260 . S
C82 O89 1.240 . S
C82 O90 1.252 . S
C83 O86 1.252 . S
C83 O87 1.260 . S
O84 In78 2.266 . S
O84 C81 1.252 . S
O85 In78 2.326 . S
O85 C81 1.260 . S
O86 In78 2.266 . S
O86 C83 1.252 . S
O87 In78 2.326 . S
O87 C83 1.260 . S
C88 O79 1.240 . S
C88 O80 1.252 . S
O89 In78 2.294 . S
O89 C82 1.240 . S
O90 In78 2.326 . S
O90 C82 1.252 . S
In91 O92 2.294 . S
In91 O93 2.326 . S
In91 O97 2.266 . S
In91 O98 2.326 . S
In91 O99 2.266 . S
In91 O100 2.326 . S
In91 O102 2.294 . S
In91 O103 2.326 . S
O92 In91 2.294 . S
O92 C101 1.240 . S
O93 In91 2.326 . S
O93 C101 1.252 . S
C94 O97 1.252 . S
C94 O98 1.260 . S
C95 O102 1.240 . S
C95 O103 1.252 . S
C96 O99 1.252 . S
C96 O100 1.260 . S
O97 In91 2.266 . S
O97 C94 1.252 . S
O98 In91 2.326 . S
O98 C94 1.260 . S
O99 In91 2.266 . S
O99 C96 1.252 . S
O100 In91 2.326 . S
O100 C96 1.260 . S
C101 O92 1.240 . S
C101 O93 1.252 . S
O102 In91 2.294 . S
O102 C95 1.240 . S
O103 In91 2.326 . S
O103 C95 1.252 . S
In104 O105 2.294 . S
In104 O106 2.326 . S
In104 O110 2.266 . S
In104 O111 2.326 . S
In104 O112 2.266 . S
In104 O113 2.326 . S
In104 O115 2.294 . S
In104 O116 2.326 . S
O105 In104 2.294 . S
O105 C114 1.240 . S
O106 In104 2.326 . S
O106 C114 1.252 . S
C107 O110 1.252 . S
C107 O111 1.260 . S
C108 O115 1.240 . S
C108 O116 1.252 . S
C109 O112 1.252 . S
C109 O113 1.260 . S
O110 In104 2.266 . S
O110 C107 1.252 . S
O111 In104 2.326 . S
O111 C107 1.260 . S
O112 In104 2.266 . S
O112 C109 1.252 . S
O113 In104 2.326 . S
O113 C109 1.260 . S
C114 O105 1.240 . S
C114 O106 1.252 . S
O115 In104 2.294 . S
O115 C108 1.240 . S
O116 In104 2.326 . S
O116 C108 1.252 . S
In117 O118 2.294 . S
In117 O119 2.326 . S
In117 O123 2.266 . S
In117 O124 2.326 . S
In117 O125 2.266 . S
In117 O126 2.326 . S
In117 O128 2.294 . S
In117 O129 2.326 . S
O118 In117 2.294 . S
O118 C127 1.240 . S
O119 In117 2.326 . S
O119 C127 1.252 . S
C120 O123 1.252 . S
C120 O124 1.260 . S
C121 O128 1.240 . S
C121 O129 1.252 . S
C122 O125 1.252 . S
C122 O126 1.260 . S
O123 In117 2.266 . S
O123 C120 1.252 . S
O124 In117 2.326 . S
O124 C120 1.260 . S
O125 In117 2.266 . S
O125 C122 1.252 . S
O126 In117 2.326 . S
O126 C122 1.260 . S
C127 O118 1.240 . S
C127 O119 1.252 . S
O128 In117 2.294 . S
O128 C121 1.240 . S
O129 In117 2.326 . S
O129 C121 1.252 . S
In130 O131 2.294 . S
In130 O132 2.326 . S
In130 O136 2.266 . S
In130 O137 2.326 . S
In130 O138 2.266 . S
In130 O139 2.326 . S
In130 O141 2.294 . S
In130 O142 2.326 . S
O131 In130 2.294 . S
O131 C140 1.240 . S
O132 In130 2.326 . S
O132 C140 1.252 . S
C133 O136 1.252 . S
C133 O137 1.260 . S
C134 O141 1.240 . S
C134 O142 1.252 . S
C135 O138 1.252 . S
C135 O139 1.260 . S
O136 In130 2.266 . S
O136 C133 1.252 . S
O137 In130 2.326 . S
O137 C133 1.260 . S
O138 In130 2.266 . S
O138 C135 1.252 . S
O139 In130 2.326 . S
O139 C135 1.260 . S
C140 O131 1.240 . S
C140 O132 1.252 . S
O141 In130 2.294 . S
O141 C134 1.240 . S
O142 In130 2.326 . S
O142 C134 1.252 . S
In143 O144 2.294 . S
In143 O145 2.326 . S
In143 O149 2.266 . S
In143 O150 2.326 . S
In143 O151 2.266 . S
In143 O152 2.326 . S
In143 O154 2.294 . S
In143 O155 2.326 . S
O144 In143 2.294 . S
O144 C153 1.240 . S
O145 In143 2.326 . S
O145 C153 1.252 . S
C146 O149 1.252 . S
C146 O150 1.260 . S
C147 O154 1.240 . S
C147 O155 1.252 . S
C148 O151 1.252 . S
C148 O152 1.260 . S
O149 In143 2.266 . S
O149 C146 1.252 . S
O150 In143 2.326 . S
O150 C146 1.260 . S
O151 In143 2.266 . S
O151 C148 1.252 . S
O152 In143 2.326 . S
O152 C148 1.260 . S
C153 O144 1.240 . S
C153 O145 1.252 . S
O154 In143 2.294 . S
O154 C147 1.240 . S
O155 In143 2.326 . S
O155 C147 1.252 . S
In156 O157 2.294 1_455 S
In156 O158 2.326 . S
In156 O162 2.267 1_455 S
In156 O163 2.326 . S
In156 O164 2.265 . S
In156 O165 2.325 . S
In156 O167 2.294 . S
In156 O168 2.327 1_455 S
O157 In156 2.294 1_655 S
O157 C166 1.240 . S
O158 In156 2.326 . S
O158 C166 1.252 1_455 S
C159 O162 1.252 . S
C159 O163 1.260 1_655 S
C160 O167 1.240 . S
C160 O168 1.252 1_455 S
C161 O164 1.252 . S
C161 O165 1.260 . S
O162 In156 2.267 1_655 S
O162 C159 1.252 . S
O163 In156 2.326 . S
O163 C159 1.260 1_455 S
O164 In156 2.265 . S
O164 C161 1.252 . S
O165 In156 2.325 . S
O165 C161 1.260 . S
C166 O157 1.240 . S
C166 O158 1.252 1_655 S
O167 In156 2.294 . S
O167 C160 1.240 . S
O168 In156 2.327 1_655 S
O168 C160 1.252 1_655 S
In169 O170 2.294 . S
In169 O171 2.326 . S
In169 O175 2.266 . S
In169 O176 2.326 . S
In169 O177 2.266 . S
In169 O178 2.326 . S
In169 O180 2.294 . S
In169 O181 2.326 . S
O170 In169 2.294 . S
O170 C179 1.240 . S
O171 In169 2.326 . S
O171 C179 1.252 . S
C172 O175 1.252 . S
C172 O176 1.260 . S
C173 O180 1.240 . S
C173 O181 1.252 . S
C174 O177 1.252 . S
C174 O178 1.260 . S
O175 In169 2.266 . S
O175 C172 1.252 . S
O176 In169 2.326 . S
O176 C172 1.260 . S
O177 In169 2.266 . S
O177 C174 1.252 . S
O178 In169 2.326 . S
O178 C174 1.260 . S
C179 O170 1.240 . S
C179 O171 1.252 . S
O180 In169 2.294 . S
O180 C173 1.240 . S
O181 In169 2.326 . S
O181 C173 1.252 . S
In182 O183 2.294 . S
In182 O184 2.326 . S
In182 O188 2.266 . S
In182 O189 2.326 . S
In182 O190 2.266 . S
In182 O191 2.326 . S
In182 O193 2.294 . S
In182 O194 2.326 . S
O183 In182 2.294 . S
O183 C192 1.240 . S
O184 In182 2.326 . S
O184 C192 1.252 . S
C185 O188 1.252 . S
C185 O189 1.260 . S
C186 O193 1.240 . S
C186 O194 1.252 . S
C187 O190 1.252 . S
C187 O191 1.260 . S
O188 In182 2.266 . S
O188 C185 1.252 . S
O189 In182 2.326 . S
O189 C185 1.260 . S
O190 In182 2.266 . S
O190 C187 1.252 . S
O191 In182 2.326 . S
O191 C187 1.260 . S
C192 O183 1.240 . S
C192 O184 1.252 . S
O193 In182 2.294 . S
O193 C186 1.240 . S
O194 In182 2.326 . S
O194 C186 1.252 . S
In195 O196 2.294 . S
In195 O197 2.326 . S
In195 O201 2.266 . S
In195 O202 2.326 . S
In195 O203 2.266 . S
In195 O204 2.326 . S
In195 O206 2.294 . S
In195 O207 2.326 . S
O196 In195 2.294 . S
O196 C205 1.240 . S
O197 In195 2.326 . S
O197 C205 1.252 . S
C198 O201 1.252 . S
C198 O202 1.260 . S
C199 O206 1.240 . S
C199 O207 1.252 . S
C200 O203 1.252 . S
C200 O204 1.260 . S
O201 In195 2.266 . S
O201 C198 1.252 . S
O202 In195 2.326 . S
O202 C198 1.260 . S
O203 In195 2.266 . S
O203 C200 1.252 . S
O204 In195 2.326 . S
O204 C200 1.260 . S
C205 O196 1.240 . S
C205 O197 1.252 . S
O206 In195 2.294 . S
O206 C199 1.240 . S
O207 In195 2.326 . S
O207 C199 1.252 . S
In208 O209 2.294 . S
In208 O210 2.326 . S
In208 O214 2.266 . S
In208 O215 2.326 . S
In208 O216 2.266 . S
In208 O217 2.326 . S
In208 O219 2.294 . S
In208 O220 2.326 . S
O209 In208 2.294 . S
O209 C218 1.240 . S
O210 In208 2.326 . S
O210 C218 1.252 . S
C211 O214 1.252 . S
C211 O215 1.260 . S
C212 O219 1.240 . S
C212 O220 1.252 . S
C213 O216 1.252 . S
C213 O217 1.260 . S
O214 In208 2.266 . S
O214 C211 1.252 . S
O215 In208 2.326 . S
O215 C211 1.260 . S
O216 In208 2.266 . S
O216 C213 1.252 . S
O217 In208 2.326 . S
O217 C213 1.260 . S
C218 O209 1.240 . S
C218 O210 1.252 . S
O219 In208 2.294 . S
O219 C212 1.240 . S
O220 In208 2.326 . S
O220 C212 1.252 . S
In221 O222 2.294 . S
In221 O223 2.326 . S
In221 O227 2.266 . S
In221 O228 2.326 . S
In221 O229 2.266 . S
In221 O230 2.326 . S
In221 O232 2.294 . S
In221 O233 2.326 . S
O222 In221 2.294 . S
O222 C231 1.240 . S
O223 In221 2.326 . S
O223 C231 1.252 . S
C224 O227 1.252 . S
C224 O228 1.260 . S
C225 O232 1.240 . S
C225 O233 1.252 . S
C226 O229 1.252 . S
C226 O230 1.260 . S
O227 In221 2.266 . S
O227 C224 1.252 . S
O228 In221 2.326 . S
O228 C224 1.260 . S
O229 In221 2.266 . S
O229 C226 1.252 . S
O230 In221 2.326 . S
O230 C226 1.260 . S
C231 O222 1.240 . S
C231 O223 1.252 . S
O232 In221 2.294 . S
O232 C225 1.240 . S
O233 In221 2.326 . S
O233 C225 1.252 . S
In234 O235 2.294 . S
In234 O236 2.326 . S
In234 O240 2.266 . S
In234 O241 2.326 . S
In234 O242 2.266 . S
In234 O243 2.326 . S
In234 O245 2.294 . S
In234 O246 2.326 . S
O235 In234 2.294 . S
O235 C244 1.240 . S
O236 In234 2.326 . S
O236 C244 1.252 . S
C237 O240 1.252 . S
C237 O241 1.260 . S
C238 O245 1.240 . S
C238 O246 1.252 . S
C239 O242 1.252 . S
C239 O243 1.260 . S
O240 In234 2.266 . S
O240 C237 1.252 . S
O241 In234 2.326 . S
O241 C237 1.260 . S
O242 In234 2.266 . S
O242 C239 1.252 . S
O243 In234 2.326 . S
O243 C239 1.260 . S
C244 O235 1.240 . S
C244 O236 1.252 . S
O245 In234 2.294 . S
O245 C238 1.240 . S
O246 In234 2.326 . S
O246 C238 1.252 . S
In247 O248 2.294 . S
In247 O249 2.326 . S
In247 O253 2.266 . S
In247 O254 2.326 . S
In247 O255 2.266 . S
In247 O256 2.326 . S
In247 O258 2.294 . S
In247 O259 2.326 . S
O248 In247 2.294 . S
O248 C257 1.240 . S
O249 In247 2.326 . S
O249 C257 1.252 . S
C250 O253 1.252 . S
C250 O254 1.260 . S
C251 O258 1.240 . S
C251 O259 1.252 . S
C252 O255 1.252 . S
C252 O256 1.260 . S
O253 In247 2.266 . S
O253 C250 1.252 . S
O254 In247 2.326 . S
O254 C250 1.260 . S
O255 In247 2.266 . S
O255 C252 1.252 . S
O256 In247 2.326 . S
O256 C252 1.260 . S
C257 O248 1.240 . S
C257 O249 1.252 . S
O258 In247 2.294 . S
O258 C251 1.240 . S
O259 In247 2.326 . S
O259 C251 1.252 . S
In260 O261 2.294 . S
In260 O262 2.326 . S
In260 O266 2.266 . S
In260 O267 2.326 . S
In260 O268 2.266 . S
In260 O269 2.326 . S
In260 O271 2.294 . S
In260 O272 2.326 . S
O261 In260 2.294 . S
O261 C270 1.240 . S
O262 In260 2.326 . S
O262 C270 1.252 . S
C263 O266 1.252 . S
C263 O267 1.260 . S
C264 O271 1.240 . S
C264 O272 1.252 . S
C265 O268 1.252 . S
C265 O269 1.260 . S
O266 In260 2.266 . S
O266 C263 1.252 . S
O267 In260 2.326 . S
O267 C263 1.260 . S
O268 In260 2.266 . S
O268 C265 1.252 . S
O269 In260 2.326 . S
O269 C265 1.260 . S
C270 O261 1.240 . S
C270 O262 1.252 . S
O271 In260 2.294 . S
O271 C264 1.240 . S
O272 In260 2.326 . S
O272 C264 1.252 . S
In273 O274 2.297 1_565 S
In273 O275 2.330 . S
In273 O279 2.264 1_564 S
In273 O280 2.322 1_554 S
In273 O281 2.265 1_554 S
In273 O282 2.325 1_554 S
In273 O284 2.294 . S
In273 O285 2.327 1_565 S
O274 In273 2.297 1_545 S
O274 C283 1.240 . S
O275 In273 2.330 . S
O275 C283 1.252 1_565 S
C276 O279 1.252 . S
C276 O280 1.260 1_545 S
C277 O284 1.240 . S
C277 O285 1.252 1_565 S
C278 O281 1.252 . S
C278 O282 1.260 . S
O279 In273 2.264 1_546 S
O279 C276 1.252 . S
O280 In273 2.322 1_556 S
O280 C276 1.260 1_565 S
O281 In273 2.265 1_556 S
O281 C278 1.252 . S
O282 In273 2.325 1_556 S
O282 C278 1.260 . S
C283 O274 1.240 . S
C283 O275 1.252 1_545 S
O284 In273 2.294 . S
O284 C277 1.240 . S
O285 In273 2.327 1_545 S
O285 C277 1.252 1_545 S
In286 O287 2.294 . S
In286 O288 2.327 . S
In286 O292 2.265 1_554 S
In286 O293 2.325 1_554 S
In286 O294 2.264 1_554 S
In286 O295 2.322 1_554 S
In286 O297 2.296 . S
In286 O298 2.330 . S
O287 In286 2.294 . S
O287 C296 1.240 . S
O288 In286 2.327 . S
O288 C296 1.252 . S
C289 O292 1.252 . S
C289 O293 1.260 . S
C290 O297 1.240 . S
C290 O298 1.252 . S
C291 O294 1.252 . S
C291 O295 1.260 . S
O292 In286 2.265 1_556 S
O292 C289 1.252 . S
O293 In286 2.325 1_556 S
O293 C289 1.260 . S
O294 In286 2.264 1_556 S
O294 C291 1.252 . S
O295 In286 2.322 1_556 S
O295 C291 1.260 . S
C296 O287 1.240 . S
C296 O288 1.252 . S
O297 In286 2.296 . S
O297 C290 1.240 . S
O298 In286 2.330 . S
O298 C290 1.252 . S
In299 O300 2.296 . S
In299 O301 2.330 . S
In299 O305 2.264 1_554 S
In299 O306 2.322 1_554 S
In299 O307 2.265 1_554 S
In299 O308 2.325 1_554 S
In299 O310 2.294 . S
In299 O311 2.327 . S
O300 In299 2.296 . S
O300 C309 1.240 . S
O301 In299 2.330 . S
O301 C309 1.252 . S
C302 O305 1.252 . S
C302 O306 1.260 . S
C303 O310 1.240 . S
C303 O311 1.252 . S
C304 O307 1.252 . S
C304 O308 1.260 . S
O305 In299 2.264 1_556 S
O305 C302 1.252 . S
O306 In299 2.322 1_556 S
O306 C302 1.260 . S
O307 In299 2.265 1_556 S
O307 C304 1.252 . S
O308 In299 2.325 1_556 S
O308 C304 1.260 . S
C309 O300 1.240 . S
C309 O301 1.252 . S
O310 In299 2.294 . S
O310 C303 1.240 . S
O311 In299 2.327 . S
O311 C303 1.252 . S
In312 O313 2.294 . S
In312 O314 2.326 . S
In312 O318 2.266 . S
In312 O319 2.326 . S
In312 O320 2.266 . S
In312 O321 2.326 . S
In312 O323 2.294 . S
In312 O324 2.326 . S
O313 In312 2.294 . S
O313 C322 1.240 . S
O314 In312 2.326 . S
O314 C322 1.252 . S
C315 O318 1.252 . S
C315 O319 1.260 . S
C316 O323 1.240 . S
C316 O324 1.252 . S
C317 O320 1.252 . S
C317 O321 1.260 . S
O318 In312 2.266 . S
O318 C315 1.252 . S
O319 In312 2.326 . S
O319 C315 1.260 . S
O320 In312 2.266 . S
O320 C317 1.252 . S
O321 In312 2.326 . S
O321 C317 1.260 . S
C322 O313 1.240 . S
C322 O314 1.252 . S
O323 In312 2.294 . S
O323 C316 1.240 . S
O324 In312 2.326 . S
O324 C316 1.252 . S
In325 O326 2.294 . S
In325 O327 2.326 . S
In325 O331 2.266 . S
In325 O332 2.326 . S
In325 O333 2.266 . S
In325 O334 2.326 . S
In325 O336 2.294 . S
In325 O337 2.326 . S
O326 In325 2.294 . S
O326 C335 1.240 . S
O327 In325 2.326 . S
O327 C335 1.252 . S
C328 O331 1.252 . S
C328 O332 1.260 . S
C329 O336 1.240 . S
C329 O337 1.252 . S
C330 O333 1.252 . S
C330 O334 1.260 . S
O331 In325 2.266 . S
O331 C328 1.252 . S
O332 In325 2.326 . S
O332 C328 1.260 . S
O333 In325 2.266 . S
O333 C330 1.252 . S
O334 In325 2.326 . S
O334 C330 1.260 . S
C335 O326 1.240 . S
C335 O327 1.252 . S
O336 In325 2.294 . S
O336 C329 1.240 . S
O337 In325 2.326 . S
O337 C329 1.252 . S
In338 O339 2.294 . S
In338 O340 2.326 . S
In338 O344 2.266 . S
In338 O345 2.326 . S
In338 O346 2.266 . S
In338 O347 2.326 . S
In338 O349 2.294 . S
In338 O350 2.326 . S
O339 In338 2.294 . S
O339 C348 1.240 . S
O340 In338 2.326 . S
O340 C348 1.252 . S
C341 O344 1.252 . S
C341 O345 1.260 . S
C342 O349 1.240 . S
C342 O350 1.252 . S
C343 O346 1.252 . S
C343 O347 1.260 . S
O344 In338 2.266 . S
O344 C341 1.252 . S
O345 In338 2.326 . S
O345 C341 1.260 . S
O346 In338 2.266 . S
O346 C343 1.252 . S
O347 In338 2.326 . S
O347 C343 1.260 . S
C348 O339 1.240 . S
C348 O340 1.252 . S
O349 In338 2.294 . S
O349 C342 1.240 . S
O350 In338 2.326 . S
O350 C342 1.252 . S
In351 O352 2.297 1_545 S
In351 O353 2.330 . S
In351 O357 2.264 1_546 S
In351 O358 2.322 1_556 S
In351 O359 2.265 1_556 S
In351 O360 2.325 1_556 S
In351 O362 2.294 . S
In351 O363 2.327 1_545 S
O352 In351 2.297 1_565 S
O352 C361 1.240 . S
O353 In351 2.330 . S
O353 C361 1.252 1_545 S
C354 O357 1.252 . S
C354 O358 1.260 1_565 S
C355 O362 1.240 . S
C355 O363 1.252 1_545 S
C356 O359 1.252 . S
C356 O360 1.260 . S
O357 In351 2.264 1_564 S
O357 C354 1.252 . S
O358 In351 2.322 1_554 S
O358 C354 1.260 1_545 S
O359 In351 2.265 1_554 S
O359 C356 1.252 . S
O360 In351 2.325 1_554 S
O360 C356 1.260 . S
C361 O352 1.240 . S
C361 O353 1.252 1_565 S
O362 In351 2.294 . S
O362 C355 1.240 . S
O363 In351 2.327 1_565 S
O363 C355 1.252 1_565 S
In364 O365 2.296 . S
In364 O366 2.330 . S
In364 O370 2.264 1_556 S
In364 O371 2.322 1_556 S
In364 O372 2.265 1_556 S
In364 O373 2.325 1_556 S
In364 O375 2.294 . S
In364 O376 2.327 . S
O365 In364 2.296 . S
O365 C374 1.240 . S
O366 In364 2.330 . S
O366 C374 1.252 . S
C367 O370 1.252 . S
C367 O371 1.260 . S
C368 O375 1.240 . S
C368 O376 1.252 . S
C369 O372 1.252 . S
C369 O373 1.260 . S
O370 In364 2.264 1_554 S
O370 C367 1.252 . S
O371 In364 2.322 1_554 S
O371 C367 1.260 . S
O372 In364 2.265 1_554 S
O372 C369 1.252 . S
O373 In364 2.325 1_554 S
O373 C369 1.260 . S
C374 O365 1.240 . S
C374 O366 1.252 . S
O375 In364 2.294 . S
O375 C368 1.240 . S
O376 In364 2.327 . S
O376 C368 1.252 . S
In377 O378 2.294 . S
In377 O379 2.327 . S
In377 O383 2.265 1_556 S
In377 O384 2.325 1_556 S
In377 O385 2.264 1_556 S
In377 O386 2.322 1_556 S
In377 O388 2.296 . S
In377 O389 2.330 . S
O378 In377 2.294 . S
O378 C387 1.240 . S
O379 In377 2.327 . S
O379 C387 1.252 . S
C380 O383 1.252 . S
C380 O384 1.260 . S
C381 O388 1.240 . S
C381 O389 1.252 . S
C382 O385 1.252 . S
C382 O386 1.260 . S
O383 In377 2.265 1_554 S
O383 C380 1.252 . S
O384 In377 2.325 1_554 S
O384 C380 1.260 . S
O385 In377 2.264 1_554 S
O385 C382 1.252 . S
O386 In377 2.322 1_554 S
O386 C382 1.260 . S
C387 O378 1.240 . S
C387 O379 1.252 . S
O388 In377 2.296 . S
O388 C381 1.240 . S
O389 In377 2.330 . S
O389 C381 1.252 . S
In390 O391 2.294 . S
In390 O392 2.327 1_655 S
In390 O396 2.265 . S
In390 O397 2.325 . S
In390 O398 2.267 1_655 S
In390 O399 2.326 . S
In390 O401 2.294 1_655 S
In390 O402 2.326 . S
O391 In390 2.294 . S
O391 C400 1.240 . S
O392 In390 2.327 1_455 S
O392 C400 1.252 1_455 S
C393 O396 1.252 . S
C393 O397 1.260 . S
C394 O401 1.240 . S
C394 O402 1.252 1_455 S
C395 O398 1.252 . S
C395 O399 1.260 1_455 S
O396 In390 2.265 . S
O396 C393 1.252 . S
O397 In390 2.325 . S
O397 C393 1.260 . S
O398 In390 2.267 1_455 S
O398 C395 1.252 . S
O399 In390 2.326 . S
O399 C395 1.260 1_655 S
C400 O391 1.240 . S
C400 O392 1.252 1_655 S
O401 In390 2.294 1_455 S
O401 C394 1.240 . S
O402 In390 2.326 . S
O402 C394 1.252 1_655 S
In403 O404 2.294 . S
In403 O405 2.326 . S
In403 O409 2.266 . S
In403 O410 2.326 . S
In403 O411 2.266 . S
In403 O412 2.326 . S
In403 O414 2.294 . S
In403 O415 2.326 . S
O404 In403 2.294 . S
O404 C413 1.240 . S
O405 In403 2.326 . S
O405 C413 1.252 . S
C406 O409 1.252 . S
C406 O410 1.260 . S
C407 O414 1.240 . S
C407 O415 1.252 . S
C408 O411 1.252 . S
C408 O412 1.260 . S
O409 In403 2.266 . S
O409 C406 1.252 . S
O410 In403 2.326 . S
O410 C406 1.260 . S
O411 In403 2.266 . S
O411 C408 1.252 . S
O412 In403 2.326 . S
O412 C408 1.260 . S
C413 O404 1.240 . S
C413 O405 1.252 . S
O414 In403 2.294 . S
O414 C407 1.240 . S
O415 In403 2.326 . S
O415 C407 1.252 . S
In416 O417 2.294 . S
In416 O418 2.326 . S
In416 O422 2.266 . S
In416 O423 2.326 . S
In416 O424 2.266 . S
In416 O425 2.326 . S
In416 O427 2.294 . S
In416 O428 2.326 . S
O417 In416 2.294 . S
O417 C426 1.240 . S
O418 In416 2.326 . S
O418 C426 1.252 . S
C419 O422 1.252 . S
C419 O423 1.260 . S
C420 O427 1.240 . S
C420 O428 1.252 . S
C421 O424 1.252 . S
C421 O425 1.260 . S
O422 In416 2.266 . S
O422 C419 1.252 . S
O423 In416 2.326 . S
O423 C419 1.260 . S
O424 In416 2.266 . S
O424 C421 1.252 . S
O425 In416 2.326 . S
O425 C421 1.260 . S
C426 O417 1.240 . S
C426 O418 1.252 . S
O427 In416 2.294 . S
O427 C420 1.240 . S
O428 In416 2.326 . S
O428 C420 1.252 . S
In429 O430 2.294 . S
In429 O431 2.326 . S
In429 O435 2.266 . S
In429 O436 2.326 . S
In429 O437 2.266 . S
In429 O438 2.326 . S
In429 O440 2.294 . S
In429 O441 2.326 . S
O430 In429 2.294 . S
O430 C439 1.240 . S
O431 In429 2.326 . S
O431 C439 1.252 . S
C432 O435 1.252 . S
C432 O436 1.260 . S
C433 O440 1.240 . S
C433 O441 1.252 . S
C434 O437 1.252 . S
C434 O438 1.260 . S
O435 In429 2.266 . S
O435 C432 1.252 . S
O436 In429 2.326 . S
O436 C432 1.260 . S
O437 In429 2.266 . S
O437 C434 1.252 . S
O438 In429 2.326 . S
O438 C434 1.260 . S
C439 O430 1.240 . S
C439 O431 1.252 . S
O440 In429 2.294 . S
O440 C433 1.240 . S
O441 In429 2.326 . S
O441 C433 1.252 . S
In442 O443 2.294 . S
In442 O444 2.326 . S
In442 O448 2.266 . S
In442 O449 2.326 . S
In442 O450 2.266 . S
In442 O451 2.326 . S
In442 O453 2.294 . S
In442 O454 2.326 . S
O443 In442 2.294 . S
O443 C452 1.240 . S
O444 In442 2.326 . S
O444 C452 1.252 . S
C445 O448 1.252 . S
C445 O449 1.260 . S
C446 O453 1.240 . S
C446 O454 1.252 . S
C447 O450 1.252 . S
C447 O451 1.260 . S
O448 In442 2.266 . S
O448 C445 1.252 . S
O449 In442 2.326 . S
O449 C445 1.260 . S
O450 In442 2.266 . S
O450 C447 1.252 . S
O451 In442 2.326 . S
O451 C447 1.260 . S
C452 O443 1.240 . S
C452 O444 1.252 . S
O453 In442 2.294 . S
O453 C446 1.240 . S
O454 In442 2.326 . S
O454 C446 1.252 . S
In455 O456 2.294 . S
In455 O457 2.326 . S
In455 O461 2.266 . S
In455 O462 2.326 . S
In455 O463 2.266 . S
In455 O464 2.326 . S
In455 O466 2.294 . S
In455 O467 2.326 . S
O456 In455 2.294 . S
O456 C465 1.240 . S
O457 In455 2.326 . S
O457 C465 1.252 . S
C458 O461 1.252 . S
C458 O462 1.260 . S
C459 O466 1.240 . S
C459 O467 1.252 . S
C460 O463 1.252 . S
C460 O464 1.260 . S
O461 In455 2.266 . S
O461 C458 1.252 . S
O462 In455 2.326 . S
O462 C458 1.260 . S
O463 In455 2.266 . S
O463 C460 1.252 . S
O464 In455 2.326 . S
O464 C460 1.260 . S
C465 O456 1.240 . S
C465 O457 1.252 . S
O466 In455 2.294 . S
O466 C459 1.240 . S
O467 In455 2.326 . S
O467 C459 1.252 . S
C468 C469 1.387 . S
C468 H472 0.950 . S
C468 C477 1.390 . S
C469 C468 1.387 . S
C469 C471 1.387 . S
H470 C477 0.950 . S
C471 C469 1.387 . S
C471 C473 1.390 . S
C471 H475 0.950 . S
H472 C468 0.950 . S
C473 C471 1.390 . S
C473 C474 1.387 . S
C473 H476 0.950 . S
C474 C473 1.387 . S
C474 C477 1.387 . S
H475 C471 0.950 . S
H476 C473 0.950 . S
C477 C468 1.390 . S
C477 H470 0.950 . S
C477 C474 1.387 . S
C478 C479 1.387 . S
C478 H482 0.950 . S
C478 C487 1.390 . S
C479 C478 1.387 . S
C479 C481 1.387 . S
H480 C487 0.950 . S
C481 C479 1.387 . S
C481 C483 1.390 . S
C481 H485 0.950 . S
H482 C478 0.950 . S
C483 C481 1.390 . S
C483 C484 1.387 . S
C483 H486 0.950 . S
C484 C483 1.387 . S
C484 C487 1.387 . S
H485 C481 0.950 . S
H486 C483 0.950 . S
C487 C478 1.390 . S
C487 H480 0.950 . S
C487 C484 1.387 . S
C488 C489 1.387 . S
C488 H492 0.950 . S
C488 C497 1.390 . S
C489 C488 1.387 . S
C489 C491 1.387 . S
H490 C497 0.950 . S
C491 C489 1.387 . S
C491 C493 1.390 . S
C491 H495 0.950 . S
H492 C488 0.950 . S
C493 C491 1.390 . S
C493 C494 1.387 . S
C493 H496 0.950 . S
C494 C493 1.387 . S
C494 C497 1.387 . S
H495 C491 0.950 . S
H496 C493 0.950 . S
C497 C488 1.390 . S
C497 H490 0.950 . S
C497 C494 1.387 . S
C498 C499 1.387 . S
C498 H502 0.950 . S
C498 C507 1.390 . S
C499 C498 1.387 . S
C499 C501 1.387 . S
H500 C507 0.950 . S
C501 C499 1.387 . S
C501 C503 1.390 . S
C501 H505 0.950 . S
H502 C498 0.950 . S
C503 C501 1.390 . S
C503 C504 1.387 . S
C503 H506 0.950 . S
C504 C503 1.387 . S
C504 C507 1.387 . S
H505 C501 0.950 . S
H506 C503 0.950 . S
C507 C498 1.390 . S
C507 H500 0.950 . S
C507 C504 1.387 . S
C508 C509 1.387 . S
C508 H512 0.950 . S
C508 C517 1.390 . S
C509 C508 1.387 . S
C509 C511 1.387 . S
H510 C517 0.950 . S
C511 C509 1.387 . S
C511 C513 1.390 . S
C511 H515 0.950 . S
H512 C508 0.950 . S
C513 C511 1.390 . S
C513 C514 1.387 . S
C513 H516 0.950 . S
C514 C513 1.387 . S
C514 C517 1.387 . S
H515 C511 0.950 . S
H516 C513 0.950 . S
C517 C508 1.390 . S
C517 H510 0.950 . S
C517 C514 1.387 . S
C518 C519 1.387 . S
C518 H522 0.950 . S
C518 C527 1.390 . S
C519 C518 1.387 . S
C519 C521 1.387 . S
H520 C527 0.950 . S
C521 C519 1.387 . S
C521 C523 1.390 . S
C521 H525 0.950 . S
H522 C518 0.950 . S
C523 C521 1.390 . S
C523 C524 1.387 . S
C523 H526 0.950 . S
C524 C523 1.387 . S
C524 C527 1.387 . S
H525 C521 0.950 . S
H526 C523 0.950 . S
C527 C518 1.390 . S
C527 H520 0.950 . S
C527 C524 1.387 . S
C528 C529 1.387 . S
C528 H532 0.950 . S
C528 C537 1.390 . S
C529 C528 1.387 . S
C529 C531 1.387 . S
H530 C537 0.950 . S
C531 C529 1.387 . S
C531 C533 1.390 . S
C531 H535 0.950 . S
H532 C528 0.950 . S
C533 C531 1.390 . S
C533 C534 1.387 . S
C533 H536 0.950 . S
C534 C533 1.387 . S
C534 C537 1.387 . S
H535 C531 0.950 . S
H536 C533 0.950 . S
C537 C528 1.390 . S
C537 H530 0.950 . S
C537 C534 1.387 . S
C538 C539 1.387 . S
C538 H542 0.950 . S
C538 C547 1.390 . S
C539 C538 1.387 . S
C539 C541 1.387 . S
H540 C547 0.950 . S
C541 C539 1.387 . S
C541 C543 1.390 . S
C541 H545 0.950 . S
H542 C538 0.950 . S
C543 C541 1.390 . S
C543 C544 1.387 . S
C543 H546 0.950 . S
C544 C543 1.387 . S
C544 C547 1.387 . S
H545 C541 0.950 . S
H546 C543 0.950 . S
C547 C538 1.390 . S
C547 H540 0.950 . S
C547 C544 1.387 . S
C548 C549 1.387 . S
C548 H552 0.950 . S
C548 C557 1.390 . S
C549 C548 1.387 . S
C549 C551 1.387 . S
H550 C557 0.950 . S
C551 C549 1.387 . S
C551 C553 1.390 . S
C551 H555 0.950 . S
H552 C548 0.950 . S
C553 C551 1.390 . S
C553 C554 1.387 . S
C553 H556 0.950 . S
C554 C553 1.387 . S
C554 C557 1.387 . S
H555 C551 0.950 . S
H556 C553 0.950 . S
C557 C548 1.390 . S
C557 H550 0.950 . S
C557 C554 1.387 . S
C558 C559 1.387 . S
C558 H562 0.950 . S
C558 C567 1.390 . S
C559 C558 1.387 . S
C559 C561 1.387 . S
H560 C567 0.950 . S
C561 C559 1.387 . S
C561 C563 1.390 . S
C561 H565 0.950 . S
H562 C558 0.950 . S
C563 C561 1.390 . S
C563 C564 1.387 . S
C563 H566 0.950 . S
C564 C563 1.387 . S
C564 C567 1.387 . S
H565 C561 0.950 . S
H566 C563 0.950 . S
C567 C558 1.390 . S
C567 H560 0.950 . S
C567 C564 1.387 . S
C568 C569 1.387 . S
C568 H572 0.950 . S
C568 C577 1.390 . S
C569 C568 1.387 . S
C569 C571 1.387 . S
H570 C577 0.950 . S
C571 C569 1.387 . S
C571 C573 1.390 . S
C571 H575 0.950 . S
H572 C568 0.950 . S
C573 C571 1.390 . S
C573 C574 1.387 . S
C573 H576 0.950 . S
C574 C573 1.387 . S
C574 C577 1.387 . S
H575 C571 0.950 . S
H576 C573 0.950 . S
C577 C568 1.390 . S
C577 H570 0.950 . S
C577 C574 1.387 . S
C578 C579 1.387 . S
C578 H582 0.950 . S
C578 C587 1.390 . S
C579 C578 1.387 . S
C579 C581 1.387 . S
H580 C587 0.950 . S
C581 C579 1.387 . S
C581 C583 1.390 . S
C581 H585 0.950 . S
H582 C578 0.950 . S
C583 C581 1.390 . S
C583 C584 1.387 . S
C583 H586 0.950 . S
C584 C583 1.387 . S
C584 C587 1.387 . S
H585 C581 0.950 . S
H586 C583 0.950 . S
C587 C578 1.390 . S
C587 H580 0.950 . S
C587 C584 1.387 . S
C588 C589 1.387 . S
C588 H592 0.950 . S
C588 C597 1.390 . S
C589 C588 1.387 . S
C589 C591 1.387 1_655 S
H590 C597 0.950 . S
C591 C589 1.387 1_455 S
C591 C593 1.390 . S
C591 H595 0.950 . S
H592 C588 0.950 . S
C593 C591 1.390 . S
C593 C594 1.387 1_455 S
C593 H596 0.950 . S
C594 C593 1.387 1_655 S
C594 C597 1.387 . S
H595 C591 0.950 . S
H596 C593 0.950 . S
C597 C588 1.390 . S
C597 H590 0.950 . S
C597 C594 1.387 . S
C598 C599 1.387 . S
C598 H602 0.950 . S
C598 C607 1.390 . S
C599 C598 1.387 . S
C599 C601 1.387 . S
H600 C607 0.950 . S
C601 C599 1.387 . S
C601 C603 1.390 . S
C601 H605 0.950 . S
H602 C598 0.950 . S
C603 C601 1.390 . S
C603 C604 1.387 . S
C603 H606 0.950 . S
C604 C603 1.387 . S
C604 C607 1.387 . S
H605 C601 0.950 . S
H606 C603 0.950 . S
C607 C598 1.390 . S
C607 H600 0.950 . S
C607 C604 1.387 . S
C608 C609 1.387 . S
C608 H612 0.950 . S
C608 C617 1.390 . S
C609 C608 1.387 . S
C609 C611 1.336 1_565 S
H610 C617 0.950 . S
C611 C609 1.336 1_545 S
C611 C613 1.395 . S
C611 H615 0.998 . S
H612 C608 0.950 . S
C613 C611 1.395 . S
C613 C614 1.387 1_545 S
C613 H616 0.950 . S
C614 C613 1.387 1_565 S
C614 C617 1.387 . S
H615 C611 0.998 . S
H616 C613 0.950 . S
C617 C608 1.390 . S
C617 H610 0.950 . S
C617 C614 1.387 . S
C618 C619 1.387 1_565 S
C618 H622 0.950 . S
C618 C627 1.390 . S
C619 C618 1.387 1_545 S
C619 C621 1.387 . S
H620 C627 0.950 . S
C621 C619 1.387 . S
C621 C623 1.390 . S
C621 H625 0.950 . S
H622 C618 0.950 . S
C623 C621 1.390 . S
C623 C624 1.387 . S
C623 H626 0.950 . S
C624 C623 1.387 . S
C624 C627 1.387 1_545 S
H625 C621 0.950 . S
H626 C623 0.950 . S
C627 C618 1.390 . S
C627 H620 0.950 . S
C627 C624 1.387 1_565 S
C628 C629 1.387 . S
C628 H632 0.950 . S
C628 C637 1.390 . S
C629 C628 1.387 . S
C629 C631 1.387 . S
H630 C637 0.950 . S
C631 C629 1.387 . S
C631 C633 1.390 . S
C631 H635 0.950 . S
H632 C628 0.950 . S
C633 C631 1.390 . S
C633 C634 1.387 . S
C633 H636 0.950 . S
C634 C633 1.387 . S
C634 C637 1.387 . S
H635 C631 0.950 . S
H636 C633 0.950 . S
C637 C628 1.390 . S
C637 H630 0.950 . S
C637 C634 1.387 . S
C638 C639 1.387 . S
C638 H642 0.950 . S
C638 C647 1.390 . S
C639 C638 1.387 . S
C639 C641 1.387 . S
H640 C647 0.950 . S
C641 C639 1.387 . S
C641 C643 1.390 . S
C641 H645 0.950 . S
H642 C638 0.950 . S
C643 C641 1.390 . S
C643 C644 1.387 . S
C643 H646 0.950 . S
C644 C643 1.387 . S
C644 C647 1.387 . S
H645 C641 0.950 . S
H646 C643 0.950 . S
C647 C638 1.390 . S
C647 H640 0.950 . S
C647 C644 1.387 . S
C648 C649 1.387 . S
C648 H652 0.950 . S
C648 C657 1.390 . S
C649 C648 1.387 . S
C649 C651 1.387 . S
H650 C657 0.950 . S
C651 C649 1.387 . S
C651 C653 1.390 . S
C651 H655 0.950 . S
H652 C648 0.950 . S
C653 C651 1.390 . S
C653 C654 1.387 . S
C653 H656 0.950 . S
C654 C653 1.387 . S
C654 C657 1.387 . S
H655 C651 0.950 . S
H656 C653 0.950 . S
C657 C648 1.390 . S
C657 H650 0.950 . S
C657 C654 1.387 . S
C658 C659 1.387 . S
C658 H662 0.950 . S
C658 C667 1.390 . S
C659 C658 1.387 . S
C659 C661 1.387 . S
H660 C667 0.950 . S
C661 C659 1.387 . S
C661 C663 1.390 . S
C661 H665 0.950 . S
H662 C658 0.950 . S
C663 C661 1.390 . S
C663 C664 1.387 . S
C663 H666 0.950 . S
C664 C663 1.387 . S
C664 C667 1.387 . S
H665 C661 0.950 . S
H666 C663 0.950 . S
C667 C658 1.390 . S
C667 H660 0.950 . S
C667 C664 1.387 . S
C668 C669 1.387 . S
C668 H672 0.950 . S
C668 C677 1.390 . S
C669 C668 1.387 . S
C669 C671 1.387 . S
H670 C677 0.950 . S
C671 C669 1.387 . S
C671 C673 1.390 . S
C671 H675 0.950 . S
H672 C668 0.950 . S
C673 C671 1.390 . S
C673 C674 1.387 . S
C673 H676 0.950 . S
C674 C673 1.387 . S
C674 C677 1.387 . S
H675 C671 0.950 . S
H676 C673 0.950 . S
C677 C668 1.390 . S
C677 H670 0.950 . S
C677 C674 1.387 . S
C678 C679 1.387 . S
C678 H682 0.950 . S
C678 C687 1.390 . S
C679 C678 1.387 . S
C679 C681 1.387 . S
H680 C687 0.950 . S
C681 C679 1.387 . S
C681 C683 1.390 . S
C681 H685 0.950 . S
H682 C678 0.950 . S
C683 C681 1.390 . S
C683 C684 1.387 . S
C683 H686 0.950 . S
C684 C683 1.387 . S
C684 C687 1.387 . S
H685 C681 0.950 . S
H686 C683 0.950 . S
C687 C678 1.390 . S
C687 H680 0.950 . S
C687 C684 1.387 . S
C688 C689 1.387 . S
C688 H692 0.950 . S
C688 C697 1.390 . S
C689 C688 1.387 . S
C689 C691 1.387 . S
H690 C697 0.950 . S
C691 C689 1.387 . S
C691 C693 1.390 . S
C691 H695 0.950 . S
H692 C688 0.950 . S
C693 C691 1.390 . S
C693 C694 1.387 . S
C693 H696 0.950 . S
C694 C693 1.387 . S
C694 C697 1.387 . S
H695 C691 0.950 . S
H696 C693 0.950 . S
C697 C688 1.390 . S
C697 H690 0.950 . S
C697 C694 1.387 . S
C698 C699 1.387 . S
C698 H702 0.950 . S
C698 C707 1.390 . S
C699 C698 1.387 . S
C699 C701 1.387 . S
H700 C707 0.950 . S
C701 C699 1.387 . S
C701 C703 1.390 . S
C701 H705 0.950 . S
H702 C698 0.950 . S
C703 C701 1.390 . S
C703 C704 1.387 . S
C703 H706 0.950 . S
C704 C703 1.387 . S
C704 C707 1.387 . S
H705 C701 0.950 . S
H706 C703 0.950 . S
C707 C698 1.390 . S
C707 H700 0.950 . S
C707 C704 1.387 . S
C708 C709 1.387 . S
C708 H712 0.950 . S
C708 C717 1.390 . S
C709 C708 1.387 . S
C709 C711 1.387 . S
H710 C717 0.950 . S
C711 C709 1.387 . S
C711 C713 1.390 . S
C711 H715 0.950 . S
H712 C708 0.950 . S
C713 C711 1.390 . S
C713 C714 1.387 . S
C713 H716 0.950 . S
C714 C713 1.387 . S
C714 C717 1.387 . S
H715 C711 0.950 . S
H716 C713 0.950 . S
C717 C708 1.390 . S
C717 H710 0.950 . S
C717 C714 1.387 . S
C718 C719 1.387 . S
C718 H722 0.950 . S
C718 C727 1.390 . S
C719 C718 1.387 . S
C719 C721 1.387 . S
H720 C727 0.950 . S
C721 C719 1.387 . S
C721 C723 1.390 . S
C721 H725 0.950 . S
H722 C718 0.950 . S
C723 C721 1.390 . S
C723 C724 1.387 . S
C723 H726 0.950 . S
C724 C723 1.387 . S
C724 C727 1.387 . S
H725 C721 0.950 . S
H726 C723 0.950 . S
C727 C718 1.390 . S
C727 H720 0.950 . S
C727 C724 1.387 . S
C728 C729 1.387 . S
C728 H732 0.950 . S
C728 C737 1.390 . S
C729 C728 1.387 . S
C729 C731 1.387 . S
H730 C737 0.950 . S
C731 C729 1.387 . S
C731 C733 1.390 . S
C731 H735 0.950 . S
H732 C728 0.950 . S
C733 C731 1.390 . S
C733 C734 1.387 . S
C733 H736 0.950 . S
C734 C733 1.387 . S
C734 C737 1.387 . S
H735 C731 0.950 . S
H736 C733 0.950 . S
C737 C728 1.390 . S
C737 H730 0.950 . S
C737 C734 1.387 . S
C738 C739 1.387 . S
C738 H742 0.950 . S
C738 C747 1.390 . S
C739 C738 1.387 . S
C739 C741 1.387 . S
H740 C747 0.950 . S
C741 C739 1.387 . S
C741 C743 1.390 . S
C741 H745 0.950 . S
H742 C738 0.950 . S
C743 C741 1.390 . S
C743 C744 1.387 . S
C743 H746 0.950 . S
C744 C743 1.387 . S
C744 C747 1.387 . S
H745 C741 0.950 . S
H746 C743 0.950 . S
C747 C738 1.390 . S
C747 H740 0.950 . S
C747 C744 1.387 . S
C748 C749 1.387 . S
C748 H752 0.950 . S
C748 C757 1.390 . S
C749 C748 1.387 . S
C749 C751 1.387 . S
H750 C757 0.950 . S
C751 C749 1.387 . S
C751 C753 1.390 . S
C751 H755 0.950 . S
H752 C748 0.950 . S
C753 C751 1.390 . S
C753 C754 1.387 . S
C753 H756 0.950 . S
C754 C753 1.387 . S
C754 C757 1.387 . S
H755 C751 0.950 . S
H756 C753 0.950 . S
C757 C748 1.390 . S
C757 H750 0.950 . S
C757 C754 1.387 . S
C758 C759 1.387 . S
C758 H762 0.950 . S
C758 C767 1.390 . S
C759 C758 1.387 . S
C759 C761 1.387 . S
H760 C767 0.950 . S
C761 C759 1.387 . S
C761 C763 1.390 . S
C761 H765 0.950 . S
H762 C758 0.950 . S
C763 C761 1.390 . S
C763 C764 1.387 . S
C763 H766 0.950 . S
C764 C763 1.387 . S
C764 C767 1.387 . S
H765 C761 0.950 . S
H766 C763 0.950 . S
C767 C758 1.390 . S
C767 H760 0.950 . S
C767 C764 1.387 . S
C768 C769 1.387 . S
C768 H772 0.950 . S
C768 C777 1.390 1_455 S
C769 C768 1.387 . S
C769 C771 1.387 . S
H770 C777 0.950 . S
C771 C769 1.387 . S
C771 C773 1.390 1_455 S
C771 H775 0.950 . S
H772 C768 0.950 . S
C773 C771 1.390 1_655 S
C773 C774 1.387 . S
C773 H776 0.950 . S
C774 C773 1.387 . S
C774 C777 1.387 . S
H775 C771 0.950 . S
H776 C773 0.950 . S
C777 C768 1.390 1_655 S
C777 H770 0.950 . S
C777 C774 1.387 . S
C778 C779 1.387 . S
C778 H782 0.950 . S
C778 C787 1.390 . S
C779 C778 1.387 . S
C779 C781 1.387 . S
H780 C787 0.950 . S
C781 C779 1.387 . S
C781 C783 1.390 . S
C781 H785 0.950 . S
H782 C778 0.950 . S
C783 C781 1.390 . S
C783 C784 1.387 . S
C783 H786 0.950 . S
C784 C783 1.387 . S
C784 C787 1.387 . S
H785 C781 0.950 . S
H786 C783 0.950 . S
C787 C778 1.390 . S
C787 H780 0.950 . S
C787 C784 1.387 . S
C788 C789 1.387 . S
C788 H792 0.950 . S
C788 C797 1.390 1_545 S
C789 C788 1.387 . S
C789 C791 1.387 . S
H790 C797 0.950 . S
C791 C789 1.387 . S
C791 C793 1.390 1_545 S
C791 H795 0.950 . S
H792 C788 0.950 . S
C793 C791 1.390 1_565 S
C793 C794 1.387 . S
C793 H796 0.950 . S
C794 C793 1.387 . S
C794 C797 1.387 . S
H795 C791 0.950 . S
H796 C793 0.950 . S
C797 C788 1.390 1_565 S
C797 H790 0.950 . S
C797 C794 1.387 . S
C798 C799 1.387 1_565 S
C798 H802 0.950 . S
C798 C807 1.390 . S
C799 C798 1.387 1_545 S
C799 C801 1.387 1_556 S
H800 C807 0.950 . S
C801 C799 1.387 1_554 S
C801 C803 1.390 . S
C801 H805 0.950 . S
H802 C798 0.950 . S
C803 C801 1.390 . S
C803 C804 1.387 1_545 S
C803 H806 0.950 . S
C804 C803 1.387 1_565 S
C804 C807 1.387 1_554 S
H805 C801 0.950 . S
H806 C803 0.950 . S
C807 C798 1.390 . S
C807 H800 0.950 . S
C807 C804 1.387 1_556 S
C808 C809 1.387 . S
C808 H812 0.950 . S
C808 C817 1.390 1_455 S
C809 C808 1.387 . S
C809 C811 1.387 1_554 S
H810 C817 0.950 . S
C811 C809 1.387 1_556 S
C811 C813 1.390 1_455 S
C811 H815 0.950 . S
H812 C808 0.950 . S
C813 C811 1.390 1_655 S
C813 C814 1.387 . S
C813 H816 0.950 . S
C814 C813 1.387 . S
C814 C817 1.387 1_556 S
H815 C811 0.950 . S
H816 C813 0.950 . S
C817 C808 1.390 1_655 S
C817 H810 0.950 . S
C817 C814 1.387 1_554 S
C818 C819 1.387 . S
C818 H822 0.950 . S
C818 C827 1.390 . S
C819 C818 1.387 . S
C819 C821 1.387 1_554 S
H820 C827 0.950 . S
C821 C819 1.387 1_556 S
C821 C823 1.390 . S
C821 H825 0.950 . S
H822 C818 0.950 . S
C823 C821 1.390 . S
C823 C824 1.387 . S
C823 H826 0.950 . S
C824 C823 1.387 . S
C824 C827 1.387 1_556 S
H825 C821 0.950 . S
H826 C823 0.950 . S
C827 C818 1.390 . S
C827 H820 0.950 . S
C827 C824 1.387 1_554 S
C828 C829 1.387 . S
C828 H832 0.950 . S
C828 C837 1.390 . S
C829 C828 1.387 . S
C829 C831 1.387 . S
H830 C837 0.950 . S
C831 C829 1.387 . S
C831 C833 1.390 . S
C831 H835 0.950 . S
H832 C828 0.950 . S
C833 C831 1.390 . S
C833 C834 1.387 . S
C833 H836 0.950 . S
C834 C833 1.387 . S
C834 C837 1.387 . S
H835 C831 0.950 . S
H836 C833 0.950 . S
C837 C828 1.390 . S
C837 H830 0.950 . S
C837 C834 1.387 . S
C838 C839 1.387 . S
C838 H842 0.950 . S
C838 C847 1.390 . S
C839 C838 1.387 . S
C839 C841 1.387 . S
H840 C847 0.950 . S
C841 C839 1.387 . S
C841 C843 1.390 . S
C841 H845 0.950 . S
H842 C838 0.950 . S
C843 C841 1.390 . S
C843 C844 1.387 . S
C843 H846 0.950 1_554 S
C844 C843 1.387 . S
C844 C847 1.387 . S
H845 C841 0.950 . S
H846 C843 0.950 1_556 S
C847 C838 1.390 . S
C847 H840 0.950 . S
C847 C844 1.387 . S
C848 C849 1.387 . S
C848 H852 0.950 . S
C848 C857 1.390 . S
C849 C848 1.387 . S
C849 C851 1.387 . S
H850 C857 0.950 . S
C851 C849 1.387 . S
C851 C853 1.390 . S
C851 H855 0.950 . S
H852 C848 0.950 . S
C853 C851 1.390 . S
C853 C854 1.387 . S
C853 H856 0.950 1_554 S
C854 C853 1.387 . S
C854 C857 1.387 . S
H855 C851 0.950 . S
H856 C853 0.950 1_556 S
C857 C848 1.390 . S
C857 H850 0.950 . S
C857 C854 1.387 . S
C858 C859 1.387 . S
C858 H862 0.950 . S
C858 C867 1.390 . S
C859 C858 1.387 . S
C859 C861 1.387 . S
H860 C867 0.950 . S
C861 C859 1.387 . S
C861 C863 1.390 . S
C861 H865 0.950 . S
H862 C858 0.950 . S
C863 C861 1.390 . S
C863 C864 1.387 . S
C863 H866 0.950 . S
C864 C863 1.387 . S
C864 C867 1.387 . S
H865 C861 0.950 . S
H866 C863 0.950 . S
C867 C858 1.390 . S
C867 H860 0.950 . S
C867 C864 1.387 . S
C868 C869 1.387 . S
C868 H872 0.950 . S
C868 C877 1.390 . S
C869 C868 1.387 . S
C869 C871 1.387 . S
H870 C877 0.950 . S
C871 C869 1.387 . S
C871 C873 1.390 . S
C871 H875 0.950 . S
H872 C868 0.950 . S
C873 C871 1.390 . S
C873 C874 1.387 . S
C873 H876 0.950 . S
C874 C873 1.387 . S
C874 C877 1.387 . S
H875 C871 0.950 . S
H876 C873 0.950 . S
C877 C868 1.390 . S
C877 H870 0.950 . S
C877 C874 1.387 . S
C878 C879 1.387 . S
C878 H882 0.950 . S
C878 C887 1.390 . S
C879 C878 1.387 . S
C879 C881 1.387 . S
H880 C887 0.950 . S
C881 C879 1.387 . S
C881 C883 1.390 . S
C881 H885 0.950 . S
H882 C878 0.950 . S
C883 C881 1.390 . S
C883 C884 1.387 . S
C883 H886 0.950 . S
C884 C883 1.387 . S
C884 C887 1.387 . S
H885 C881 0.950 . S
H886 C883 0.950 . S
C887 C878 1.390 . S
C887 H880 0.950 . S
C887 C884 1.387 . S
C888 C889 1.387 . S
C888 H892 0.950 . S
C888 C897 1.390 . S
C889 C888 1.387 . S
C889 C891 1.387 . S
H890 C897 0.950 . S
C891 C889 1.387 . S
C891 C893 1.390 . S
C891 H895 0.950 1_556 S
H892 C888 0.950 . S
C893 C891 1.390 . S
C893 C894 1.387 . S
C893 H896 0.950 . S
C894 C893 1.387 . S
C894 C897 1.387 . S
H895 C891 0.950 1_554 S
H896 C893 0.950 . S
C897 C888 1.390 . S
C897 H890 0.950 . S
C897 C894 1.387 . S
C898 C899 1.387 . S
C898 H902 0.950 . S
C898 C907 1.390 . S
C899 C898 1.387 . S
C899 C901 1.387 . S
H900 C907 0.950 . S
C901 C899 1.387 . S
C901 C903 1.390 . S
C901 H905 0.950 . S
H902 C898 0.950 . S
C903 C901 1.390 . S
C903 C904 1.387 . S
C903 H906 0.950 1_556 S
C904 C903 1.387 . S
C904 C907 1.387 . S
H905 C901 0.950 . S
H906 C903 0.950 1_554 S
C907 C898 1.390 . S
C907 H900 0.950 . S
C907 C904 1.387 . S
C908 C909 1.387 . S
C908 H912 0.950 . S
C908 C917 1.390 . S
C909 C908 1.387 . S
C909 C911 1.387 . S
H910 C917 0.950 . S
C911 C909 1.387 . S
C911 C913 1.390 . S
C911 H915 0.950 . S
H912 C908 0.950 . S
C913 C911 1.390 . S
C913 C914 1.387 . S
C913 H916 0.950 . S
C914 C913 1.387 . S
C914 C917 1.387 . S
H915 C911 0.950 . S
H916 C913 0.950 . S
C917 C908 1.390 . S
C917 H910 0.950 . S
C917 C914 1.387 . S
C918 C919 1.387 . S
C918 H922 0.950 . S
C918 C927 1.390 . S
C919 C918 1.387 . S
C919 C921 1.387 . S
H920 C927 0.950 . S
C921 C919 1.387 . S
C921 C923 1.390 . S
C921 H925 0.950 . S
H922 C918 0.950 . S
C923 C921 1.390 . S
C923 C924 1.387 . S
C923 H926 0.950 . S
C924 C923 1.387 . S
C924 C927 1.387 . S
H925 C921 0.950 . S
H926 C923 0.950 . S
C927 C918 1.390 . S
C927 H920 0.950 . S
C927 C924 1.387 . S
C928 C929 1.387 . S
C928 H932 0.950 . S
C928 C937 1.390 . S
C929 C928 1.387 . S
C929 C931 1.387 . S
H930 C937 0.950 . S
C931 C929 1.387 . S
C931 C933 1.390 . S
C931 H935 0.950 . S
H932 C928 0.950 . S
C933 C931 1.390 . S
C933 C934 1.387 . S
C933 H936 0.950 . S
C934 C933 1.387 . S
C934 C937 1.387 . S
H935 C931 0.950 . S
H936 C933 0.950 . S
C937 C928 1.390 . S
C937 H930 0.950 . S
C937 C934 1.387 . S
C938 C939 1.387 . S
C938 H942 0.950 . S
C938 C947 1.390 . S
C939 C938 1.387 . S
C939 C941 1.387 . S
H940 C947 0.950 . S
C941 C939 1.387 . S
C941 C943 1.390 . S
C941 H945 0.950 . S
H942 C938 0.950 . S
C943 C941 1.390 . S
C943 C944 1.387 . S
C943 H946 0.950 . S
C944 C943 1.387 . S
C944 C947 1.387 . S
H945 C941 0.950 . S
H946 C943 0.950 . S
C947 C938 1.390 . S
C947 H940 0.950 . S
C947 C944 1.387 . S
C948 C949 1.387 . S
C948 H952 0.950 . S
C948 C957 1.390 . S
C949 C948 1.387 . S
C949 C951 1.387 . S
H950 C957 0.950 . S
C951 C949 1.387 . S
C951 C953 1.390 . S
C951 H955 0.950 . S
H952 C948 0.950 . S
C953 C951 1.390 . S
C953 C954 1.387 . S
C953 H956 0.950 . S
C954 C953 1.387 . S
C954 C957 1.387 . S
H955 C951 0.950 . S
H956 C953 0.950 . S
C957 C948 1.390 . S
C957 H950 0.950 . S
C957 C954 1.387 . S
C958 C959 1.387 . S
C958 H962 0.950 . S
C958 C967 1.390 1_565 S
C959 C958 1.387 . S
C959 C961 1.387 . S
H960 C967 0.950 . S
C961 C959 1.387 . S
C961 C963 1.390 . S
C961 H965 0.950 . S
H962 C958 0.950 . S
C963 C961 1.390 . S
C963 C964 1.387 1_565 S
C963 H966 0.963 . S
C964 C963 1.387 1_545 S
C964 C967 1.387 . S
H965 C961 0.950 . S
H966 C963 0.963 . S
C967 C958 1.390 1_545 S
C967 H960 0.950 . S
C967 C964 1.387 . S
C968 C969 1.387 . S
C968 H972 0.950 . S
C968 C977 1.390 1_455 S
C969 C968 1.387 . S
C969 C971 1.387 1_455 S
H970 C977 0.950 . S
C971 C969 1.387 1_655 S
C971 C973 1.390 . S
C971 H975 0.968 . S
H972 C968 0.950 . S
C973 C971 1.390 . S
C973 C974 1.387 . S
C973 H976 0.950 . S
C974 C973 1.387 . S
C974 C977 1.387 . S
H975 C971 0.968 . S
H976 C973 0.950 . S
C977 C968 1.390 1_655 S
C977 H970 0.950 . S
C977 C974 1.387 . S
C978 C979 1.387 . S
C978 H982 0.950 . S
C978 C987 1.390 . S
C979 C978 1.387 . S
C979 C981 1.387 . S
H980 C987 0.950 . S
C981 C979 1.387 . S
C981 C983 1.390 . S
C981 H985 0.950 . S
H982 C978 0.950 . S
C983 C981 1.390 . S
C983 C984 1.387 . S
C983 H986 0.950 . S
C984 C983 1.387 . S
C984 C987 1.387 . S
H985 C981 0.950 . S
H986 C983 0.950 . S
C987 C978 1.390 . S
C987 H980 0.950 . S
C987 C984 1.387 . S
C988 C989 1.386 1_545 S
C988 H992 0.949 1_545 S
C988 C997 1.392 . S
C989 C988 1.386 1_565 S
C989 C991 1.387 . S
H990 C997 0.950 . S
C991 C989 1.387 . S
C991 C993 1.390 1_565 S
C991 H995 0.950 . S
H992 C988 0.949 1_565 S
C993 C991 1.390 1_545 S
C993 C994 1.387 . S
C993 H996 0.950 . S
C994 C993 1.387 . S
C994 C997 1.387 . S
H995 C991 0.950 . S
H996 C993 0.950 . S
C997 C988 1.392 . S
C997 H990 0.950 . S
C997 C994 1.387 . S
C998 C999 1.387 . S
C998 H1002 0.950 . S
C998 C1007 1.390 1_455 S
C999 C998 1.387 . S
C999 C1001 1.387 . S
H1000 C1007 0.950 . S
C1001 C999 1.387 . S
C1001 C1003 1.390 . S
C1001 H1005 0.950 . S
H1002 C998 0.950 . S
C1003 C1001 1.390 . S
C1003 C1004 1.387 1_455 S
C1003 H1006 0.950 . S
C1004 C1003 1.387 1_655 S
C1004 C1007 1.387 . S
H1005 C1001 0.950 . S
H1006 C1003 0.950 . S
C1007 C998 1.390 1_655 S
C1007 H1000 0.950 . S
C1007 C1004 1.387 . S
C1008 C1009 1.387 . S
C1008 H1012 0.950 . S
C1008 C1017 1.390 . S
C1009 C1008 1.387 . S
C1009 C1011 1.387 . S
H1010 C1017 0.950 . S
C1011 C1009 1.387 . S
C1011 C1013 1.390 . S
C1011 H1015 0.950 . S
H1012 C1008 0.950 . S
C1013 C1011 1.390 . S
C1013 C1014 1.387 . S
C1013 H1016 0.950 . S
C1014 C1013 1.387 . S
C1014 C1017 1.387 . S
H1015 C1011 0.950 . S
H1016 C1013 0.950 . S
C1017 C1008 1.390 . S
C1017 H1010 0.950 . S
C1017 C1014 1.387 . S
C1018 C1019 1.387 . S
C1018 H1022 0.950 . S
C1018 C1027 1.390 . S
C1019 C1018 1.387 . S
C1019 C1021 1.387 . S
H1020 C1027 0.950 . S
C1021 C1019 1.387 . S
C1021 C1023 1.390 . S
C1021 H1025 0.950 . S
H1022 C1018 0.950 . S
C1023 C1021 1.390 . S
C1023 C1024 1.387 . S
C1023 H1026 0.950 . S
C1024 C1023 1.387 . S
C1024 C1027 1.387 . S
H1025 C1021 0.950 . S
H1026 C1023 0.950 . S
C1027 C1018 1.390 . S
C1027 H1020 0.950 . S
C1027 C1024 1.387 . S
C1028 C1029 1.387 . S
C1028 H1032 0.950 . S
C1028 C1037 1.390 . S
C1029 C1028 1.387 . S
C1029 C1031 1.387 . S
H1030 C1037 0.950 . S
C1031 C1029 1.387 . S
C1031 C1033 1.390 . S
C1031 H1035 0.950 . S
H1032 C1028 0.950 . S
C1033 C1031 1.390 . S
C1033 C1034 1.387 . S
C1033 H1036 0.950 . S
C1034 C1033 1.387 . S
C1034 C1037 1.387 . S
H1035 C1031 0.950 . S
H1036 C1033 0.950 . S
C1037 C1028 1.390 . S
C1037 H1030 0.950 . S
C1037 C1034 1.387 . S
C1038 C1039 1.387 . S
C1038 H1042 0.950 . S
C1038 C1047 1.390 . S
C1039 C1038 1.387 . S
C1039 C1041 1.387 . S
H1040 C1047 0.950 . S
C1041 C1039 1.387 . S
C1041 C1043 1.390 . S
C1041 H1045 0.950 . S
H1042 C1038 0.950 . S
C1043 C1041 1.390 . S
C1043 C1044 1.387 . S
C1043 H1046 0.950 . S
C1044 C1043 1.387 . S
C1044 C1047 1.387 . S
H1045 C1041 0.950 . S
H1046 C1043 0.950 . S
C1047 C1038 1.390 . S
C1047 H1040 0.950 . S
C1047 C1044 1.387 . S
C1048 C1049 1.387 . S
C1048 H1052 0.950 . S
C1048 C1057 1.390 . S
C1049 C1048 1.387 . S
C1049 C1051 1.387 . S
H1050 C1057 0.950 . S
C1051 C1049 1.387 . S
C1051 C1053 1.390 . S
C1051 H1055 0.950 . S
H1052 C1048 0.950 . S
C1053 C1051 1.390 . S
C1053 C1054 1.387 . S
C1053 H1056 0.950 . S
C1054 C1053 1.387 . S
C1054 C1057 1.387 . S
H1055 C1051 0.950 . S
H1056 C1053 0.950 . S
C1057 C1048 1.390 . S
C1057 H1050 0.950 . S
C1057 C1054 1.387 . S
C1058 C1059 1.387 . S
C1058 H1062 0.950 . S
C1058 C1067 1.390 . S
C1059 C1058 1.387 . S
C1059 C1061 1.387 . S
H1060 C1067 0.950 . S
C1061 C1059 1.387 . S
C1061 C1063 1.390 . S
C1061 H1065 0.950 . S
H1062 C1058 0.950 . S
C1063 C1061 1.390 . S
C1063 C1064 1.387 . S
C1063 H1066 0.950 . S
C1064 C1063 1.387 . S
C1064 C1067 1.387 . S
H1065 C1061 0.950 . S
H1066 C1063 0.950 . S
C1067 C1058 1.390 . S
C1067 H1060 0.950 . S
C1067 C1064 1.387 . S
C1068 C1069 1.387 . S
C1068 H1072 0.950 . S
C1068 C1077 1.390 . S
C1069 C1068 1.387 . S
C1069 C1071 1.387 . S
H1070 C1077 0.950 . S
C1071 C1069 1.387 . S
C1071 C1073 1.390 . S
C1071 H1075 0.950 . S
H1072 C1068 0.950 . S
C1073 C1071 1.390 . S
C1073 C1074 1.387 . S
C1073 H1076 0.950 . S
C1074 C1073 1.387 . S
C1074 C1077 1.387 . S
H1075 C1071 0.950 . S
H1076 C1073 0.950 . S
C1077 C1068 1.390 . S
C1077 H1070 0.950 . S
C1077 C1074 1.387 . S
C1078 C1079 1.387 . S
C1078 H1082 0.950 . S
C1078 C1087 1.390 . S
C1079 C1078 1.387 . S
C1079 C1081 1.387 . S
H1080 C1087 0.950 . S
C1081 C1079 1.387 . S
C1081 C1083 1.390 . S
C1081 H1085 0.950 . S
H1082 C1078 0.950 . S
C1083 C1081 1.390 . S
C1083 C1084 1.387 . S
C1083 H1086 0.950 . S
C1084 C1083 1.387 . S
C1084 C1087 1.387 . S
H1085 C1081 0.950 . S
H1086 C1083 0.950 . S
C1087 C1078 1.390 . S
C1087 H1080 0.950 . S
C1087 C1084 1.387 . S
C1088 C1089 1.387 . S
C1088 H1092 0.950 . S
C1088 C1097 1.390 . S
C1089 C1088 1.387 . S
C1089 C1091 1.387 . S
H1090 C1097 0.950 . S
C1091 C1089 1.387 . S
C1091 C1093 1.390 . S
C1091 H1095 0.950 . S
H1092 C1088 0.950 . S
C1093 C1091 1.390 . S
C1093 C1094 1.387 . S
C1093 H1096 0.950 . S
C1094 C1093 1.387 . S
C1094 C1097 1.387 . S
H1095 C1091 0.950 . S
H1096 C1093 0.950 . S
C1097 C1088 1.390 . S
C1097 H1090 0.950 . S
C1097 C1094 1.387 . S
C1098 C1099 1.387 . S
C1098 H1102 0.950 . S
C1098 C1107 1.390 . S
C1099 C1098 1.387 . S
C1099 C1101 1.387 . S
H1100 C1107 0.950 . S
C1101 C1099 1.387 . S
C1101 C1103 1.390 . S
C1101 H1105 0.950 . S
H1102 C1098 0.950 . S
C1103 C1101 1.390 . S
C1103 C1104 1.387 . S
C1103 H1106 0.950 . S
C1104 C1103 1.387 . S
C1104 C1107 1.387 . S
H1105 C1101 0.950 . S
H1106 C1103 0.950 . S
C1107 C1098 1.390 . S
C1107 H1100 0.950 . S
C1107 C1104 1.387 . S
C1108 C1109 1.387 . S
C1108 H1112 0.950 . S
C1108 C1117 1.390 . S
C1109 C1108 1.387 . S
C1109 C1111 1.387 . S
H1110 C1117 0.950 . S
C1111 C1109 1.387 . S
C1111 C1113 1.390 . S
C1111 H1115 0.950 . S
H1112 C1108 0.950 . S
C1113 C1111 1.390 . S
C1113 C1114 1.387 . S
C1113 H1116 0.950 . S
C1114 C1113 1.387 . S
C1114 C1117 1.387 . S
H1115 C1111 0.950 . S
H1116 C1113 0.950 . S
C1117 C1108 1.390 . S
C1117 H1110 0.950 . S
C1117 C1114 1.387 . S
C1118 C1119 1.387 . S
C1118 H1122 0.950 . S
C1118 C1127 1.390 . S
C1119 C1118 1.387 . S
C1119 C1121 1.387 . S
H1120 C1127 0.950 . S
C1121 C1119 1.387 . S
C1121 C1123 1.390 . S
C1121 H1125 0.950 . S
H1122 C1118 0.950 . S
C1123 C1121 1.390 . S
C1123 C1124 1.387 . S
C1123 H1126 0.950 . S
C1124 C1123 1.387 . S
C1124 C1127 1.387 . S
H1125 C1121 0.950 . S
H1126 C1123 0.950 . S
C1127 C1118 1.390 . S
C1127 H1120 0.950 . S
C1127 C1124 1.387 . S
C1128 C1129 1.387 1_455 S
C1128 H1132 0.950 . S
C1128 C1137 1.399 . S
C1129 C1128 1.387 1_655 S
C1129 C1131 1.387 . S
H1130 C1137 0.992 . S
C1131 C1129 1.387 . S
C1131 C1133 1.390 . S
C1131 H1135 0.950 . S
H1132 C1128 0.950 . S
C1133 C1131 1.390 . S
C1133 C1134 1.387 . S
C1133 H1136 0.950 . S
C1134 C1133 1.387 . S
C1134 C1137 1.339 1_655 S
H1135 C1131 0.950 . S
H1136 C1133 0.950 . S
C1137 C1128 1.399 . S
C1137 H1130 0.992 . S
C1137 C1134 1.339 1_455 S
C1138 C1139 1.387 . S
C1138 H1142 0.950 . S
C1138 C1147 1.390 . S
C1139 C1138 1.387 . S
C1139 C1141 1.387 . S
H1140 C1147 0.950 . S
C1141 C1139 1.387 . S
C1141 C1143 1.390 . S
C1141 H1145 0.950 . S
H1142 C1138 0.950 . S
C1143 C1141 1.390 . S
C1143 C1144 1.387 . S
C1143 H1146 0.950 . S
C1144 C1143 1.387 . S
C1144 C1147 1.387 . S
H1145 C1141 0.950 . S
H1146 C1143 0.950 . S
C1147 C1138 1.390 . S
C1147 H1140 0.950 . S
C1147 C1144 1.387 . S
C1148 C1149 1.379 1_545 S
C1148 H1152 0.965 . S
C1148 C1157 1.385 1_545 S
C1149 C1148 1.379 1_565 S
C1149 C1151 1.387 . S
H1150 C1157 0.950 1_545 S
C1151 C1149 1.387 . S
C1151 C1153 1.390 . S
C1151 H1155 0.950 . S
H1152 C1148 0.965 . S
C1153 C1151 1.390 . S
C1153 C1154 1.387 . S
C1153 H1156 0.950 . S
C1154 C1153 1.387 . S
C1154 C1157 1.387 . S
H1155 C1151 0.950 . S
H1156 C1153 0.950 . S
C1157 C1148 1.385 1_565 S
C1157 H1150 0.950 1_565 S
C1157 C1154 1.387 . S
C1158 C1159 1.364 1_565 S
C1158 H1162 0.969 . S
C1158 C1167 1.395 . S
C1159 C1158 1.364 1_545 S
C1159 C1161 1.387 . S
H1160 C1167 0.950 . S
C1161 C1159 1.387 . S
C1161 C1163 1.390 . S
C1161 H1165 0.950 . S
H1162 C1158 0.969 . S
C1163 C1161 1.390 . S
C1163 C1164 1.387 . S
C1163 H1166 0.950 . S
C1164 C1163 1.387 . S
C1164 C1167 1.387 1_545 S
H1165 C1161 0.950 . S
H1166 C1163 0.950 . S
C1167 C1158 1.395 . S
C1167 H1160 0.950 . S
C1167 C1164 1.387 1_565 S
C1168 C1169 1.387 . S
C1168 H1172 0.950 . S
C1168 C1177 1.390 . S
C1169 C1168 1.387 . S
C1169 C1171 1.387 . S
H1170 C1177 0.950 . S
C1171 C1169 1.387 . S
C1171 C1173 1.390 . S
C1171 H1175 0.950 . S
H1172 C1168 0.950 . S
C1173 C1171 1.390 . S
C1173 C1174 1.387 . S
C1173 H1176 0.950 . S
C1174 C1173 1.387 . S
C1174 C1177 1.387 . S
H1175 C1171 0.950 . S
H1176 C1173 0.950 . S
C1177 C1168 1.390 . S
C1177 H1170 0.950 . S
C1177 C1174 1.387 . S
C1178 C1179 1.387 . S
C1178 H1182 0.950 . S
C1178 C1187 1.390 . S
C1179 C1178 1.387 . S
C1179 C1181 1.387 . S
H1180 C1187 0.950 . S
C1181 C1179 1.387 . S
C1181 C1183 1.390 . S
C1181 H1185 0.950 . S
H1182 C1178 0.950 . S
C1183 C1181 1.390 . S
C1183 C1184 1.387 . S
C1183 H1186 0.950 . S
C1184 C1183 1.387 . S
C1184 C1187 1.387 . S
H1185 C1181 0.950 . S
H1186 C1183 0.950 . S
C1187 C1178 1.390 . S
C1187 H1180 0.950 . S
C1187 C1184 1.387 . S
C469 C212 1.621 . S
C474 C10 1.611 . S
C479 C225 1.624 . S
C484 C17 1.624 . S
C489 C205 1.613 . S
C494 C30 1.621 . S
C499 C342 1.598 1_554 S
C504 C43 1.591 . S
C509 C62 1.607 . S
C514 C322 1.596 1_554 S
C519 C75 1.595 . S
C524 C329 1.593 1_554 S
C529 C88 1.613 . S
C534 C452 1.622 . S
C539 C459 1.624 . S
C544 C95 1.624 . S
C549 C439 1.613 . S
C554 C108 1.622 . S
C559 C121 1.590 . S
C564 C270 1.597 1_556 S
C569 C244 1.595 1_556 S
C574 C134 1.606 . S
C579 C153 1.593 . S
C584 C257 1.592 1_556 S
C589 C374 1.563 . S
C594 C166 1.553 . S
C599 C179 1.553 . S
C604 C381 1.556 . S
C609 C361 1.539 . S
C614 C192 1.540 . S
C619 C420 1.542 . S
C624 C283 1.538 . S
C629 C394 1.554 . S
C634 C290 1.561 . S
C639 C309 1.556 . S
C644 C413 1.548 . S
C649 C238 1.395 . S
C654 C4 1.396 . S
C659 C251 1.511 . S
C664 C23 1.510 . S
C669 C264 1.810 . S
C674 C36 1.825 . S
C679 C49 1.403 . S
C684 C433 1.402 . S
C689 C56 1.851 . S
C694 C446 1.853 . S
C699 C69 1.520 . S
C704 C465 1.527 . S
C709 C82 1.394 . S
C714 C316 1.393 . S
C719 C335 1.509 . S
C724 C101 1.507 . S
C729 C348 1.810 . S
C734 C114 1.825 . S
C739 C199 1.402 . S
C744 C127 1.403 . S
C749 C140 1.855 . S
C754 C218 1.857 . S
C759 C147 1.518 . S
C764 C231 1.525 . S
C769 C160 1.412 . S
C774 C400 1.419 . S
C779 C407 1.475 . S
C784 C173 1.475 . S
C789 C426 1.674 . S
C794 C186 1.674 . S
C799 C355 1.475 . S
C804 C277 1.482 . S
C809 C296 1.764 . S
C814 C368 1.765 . S
C819 C303 1.570 . S
C824 C387 1.570 . S
C829 C356 1.479 . S
C834 C5 1.483 . S
C839 C16 1.485 . S
C844 C369 1.426 . S
C849 C29 1.426 . S
C854 C380 1.490 . S
C859 C161 1.454 . S
C864 C42 1.454 . S
C869 C57 1.436 . S
C874 C174 1.529 . S
C879 C70 1.428 . S
C884 C187 1.383 . S
C889 C278 1.480 . S
C894 C83 1.483 . S
C899 C94 1.484 . S
C904 C289 1.428 . S
C909 C304 1.489 . S
C914 C107 1.425 . S
C919 C120 1.460 . S
C924 C393 1.449 . S
C929 C408 1.528 . S
C934 C133 1.436 . S
C939 C419 1.382 . S
C944 C148 1.427 . S
C949 C317 1.485 . S
C954 C200 1.484 . S
C959 C328 1.538 . S
C964 C211 1.452 . S
C969 C341 1.452 . S
C974 C224 1.539 . S
C979 C239 1.485 . S
C984 C434 1.484 . S
C989 C447 1.450 . S
C994 C252 1.537 . S
C999 C458 1.538 . S
C1004 C265 1.455 . S
C1009 C3 1.156 1_556 S
C1014 C213 1.162 . S
C1019 C18 1.191 1_556 S
C1024 C226 1.191 . S
C1029 C31 1.177 1_556 S
C1034 C198 1.171 . S
C1039 C343 1.180 . S
C1044 C44 1.175 . S
C1049 C315 1.177 . S
C1054 C55 1.182 . S
C1059 C330 1.192 . S
C1064 C68 1.192 . S
C1069 C445 1.162 . S
C1074 C81 1.157 1_554 S
C1079 C460 1.194 . S
C1084 C96 1.196 1_554 S
C1089 C432 1.167 . S
C1094 C109 1.175 1_554 S
C1099 C122 1.179 . S
C1104 C263 1.184 . S
C1109 C135 1.184 . S
C1114 C237 1.176 . S
C1119 C146 1.188 . S
C1124 C250 1.188 . S
C1129 C367 1.213 . S
C1134 C159 1.214 . S
C1139 C382 1.234 . S
C1144 C172 1.239 . S
C1149 C185 1.242 . S
C1154 C354 1.235 . S
C1159 C276 1.231 . S
C1164 C421 1.243 . S
C1169 C395 1.210 . S
C1174 C291 1.214 . S
C1179 C406 1.237 . S
C1184 C302 1.235 . S
