# Generated by pormake.
# Topology ukv, (4)-cn, num edge types: 1
# Building blocks:
#     Node 0, Type 0, BuildingBlock: NAHDIM_clean_sbu_0, # of connection points: 4
#     Node 1, Type 0, BuildingBlock: NAHDIM_clean_sbu_0, # of connection points: 4
#     Node 2, Type 0, BuildingBlock: NAHDIM_clean_sbu_0, # of connection points: 4
#     Node 3, Type 0, BuildingBlock: NAHDIM_clean_sbu_0, # of connection points: 4
#     Node 4, Type 0, BuildingBlock: NAHDIM_clean_sbu_0, # of connection points: 4
#     Node 5, Type 0, BuildingBlock: NAHDIM_clean_sbu_0, # of connection points: 4
#     Node 6, Type 0, BuildingBlock: NAHDIM_clean_sbu_0, # of connection points: 4
#     Node 7, Type 0, BuildingBlock: NAHDIM_clean_sbu_0, # of connection points: 4
#     Node 8, Type 0, BuildingBlock: NAHDIM_clean_sbu_0, # of connection points: 4
#     Node 9, Type 0, BuildingBlock: NAHDIM_clean_sbu_0, # of connection points: 4
#     Node 10, Type 0, BuildingBlock: NAHDIM_clean_sbu_0, # of connection points: 4
#     Node 11, Type 0, BuildingBlock: NAHDIM_clean_sbu_0, # of connection points: 4
#     Node 12, Type 0, BuildingBlock: NAHDIM_clean_sbu_0, # of connection points: 4
#     Node 13, Type 0, BuildingBlock: NAHDIM_clean_sbu_0, # of connection points: 4
#     Node 14, Type 0, BuildingBlock: NAHDIM_clean_sbu_0, # of connection points: 4
#     Node 15, Type 0, BuildingBlock: NAHDIM_clean_sbu_0, # of connection points: 4
#     Node 16, Type 0, BuildingBlock: NAHDIM_clean_sbu_0, # of connection points: 4
#     Node 17, Type 0, BuildingBlock: NAHDIM_clean_sbu_0, # of connection points: 4
#     Node 18, Type 0, BuildingBlock: NAHDIM_clean_sbu_0, # of connection points: 4
#     Node 19, Type 0, BuildingBlock: NAHDIM_clean_sbu_0, # of connection points: 4
#     Node 20, Type 0, BuildingBlock: NAHDIM_clean_sbu_0, # of connection points: 4
#     Node 21, Type 0, BuildingBlock: NAHDIM_clean_sbu_0, # of connection points: 4
#     Node 22, Type 0, BuildingBlock: NAHDIM_clean_sbu_0, # of connection points: 4
#     Node 23, Type 0, BuildingBlock: NAHDIM_clean_sbu_0, # of connection points: 4
#     Node 24, Type 0, BuildingBlock: NAHDIM_clean_sbu_0, # of connection points: 4
#     Node 25, Type 0, BuildingBlock: NAHDIM_clean_sbu_0, # of connection points: 4
#     Node 26, Type 0, BuildingBlock: NAHDIM_clean_sbu_0, # of connection points: 4
#     Node 27, Type 0, BuildingBlock: NAHDIM_clean_sbu_0, # of connection points: 4
#     Node 28, Type 0, BuildingBlock: NAHDIM_clean_sbu_0, # of connection points: 4
#     Node 29, Type 0, BuildingBlock: NAHDIM_clean_sbu_0, # of connection points: 4
#     Node 30, Type 0, BuildingBlock: NAHDIM_clean_sbu_0, # of connection points: 4
#     Node 31, Type 0, BuildingBlock: NAHDIM_clean_sbu_0, # of connection points: 4
#     Node 32, Type 0, BuildingBlock: NAHDIM_clean_sbu_0, # of connection points: 4
#     Node 33, Type 0, BuildingBlock: NAHDIM_clean_sbu_0, # of connection points: 4
#     Node 34, Type 0, BuildingBlock: NAHDIM_clean_sbu_0, # of connection points: 4
#     Node 35, Type 0, BuildingBlock: NAHDIM_clean_sbu_0, # of connection points: 4
#     Edge 36, Type (0, 0), BuildingBlock: AJUNOK_clean_linker_0, # of connection points: 2
#     Edge 37, Type (0, 0), BuildingBlock: AJUNOK_clean_linker_0, # of connection points: 2
#     Edge 38, Type (0, 0), BuildingBlock: AJUNOK_clean_linker_0, # of connection points: 2
#     Edge 39, Type (0, 0), BuildingBlock: AJUNOK_clean_linker_0, # of connection points: 2
#     Edge 40, Type (0, 0), BuildingBlock: AJUNOK_clean_linker_0, # of connection points: 2
#     Edge 41, Type (0, 0), BuildingBlock: AJUNOK_clean_linker_0, # of connection points: 2
#     Edge 42, Type (0, 0), BuildingBlock: AJUNOK_clean_linker_0, # of connection points: 2
#     Edge 43, Type (0, 0), BuildingBlock: AJUNOK_clean_linker_0, # of connection points: 2
#     Edge 44, Type (0, 0), BuildingBlock: AJUNOK_clean_linker_0, # of connection points: 2
#     Edge 45, Type (0, 0), BuildingBlock: AJUNOK_clean_linker_0, # of connection points: 2
#     Edge 46, Type (0, 0), BuildingBlock: AJUNOK_clean_linker_0, # of connection points: 2
#     Edge 47, Type (0, 0), BuildingBlock: AJUNOK_clean_linker_0, # of connection points: 2
#     Edge 48, Type (0, 0), BuildingBlock: AJUNOK_clean_linker_0, # of connection points: 2
#     Edge 49, Type (0, 0), BuildingBlock: AJUNOK_clean_linker_0, # of connection points: 2
#     Edge 50, Type (0, 0), BuildingBlock: AJUNOK_clean_linker_0, # of connection points: 2
#     Edge 51, Type (0, 0), BuildingBlock: AJUNOK_clean_linker_0, # of connection points: 2
#     Edge 52, Type (0, 0), BuildingBlock: AJUNOK_clean_linker_0, # of connection points: 2
#     Edge 53, Type (0, 0), BuildingBlock: AJUNOK_clean_linker_0, # of connection points: 2
#     Edge 54, Type (0, 0), BuildingBlock: AJUNOK_clean_linker_0, # of connection points: 2
#     Edge 55, Type (0, 0), BuildingBlock: AJUNOK_clean_linker_0, # of connection points: 2
#     Edge 56, Type (0, 0), BuildingBlock: AJUNOK_clean_linker_0, # of connection points: 2
#     Edge 57, Type (0, 0), BuildingBlock: AJUNOK_clean_linker_0, # of connection points: 2
#     Edge 58, Type (0, 0), BuildingBlock: AJUNOK_clean_linker_0, # of connection points: 2
#     Edge 59, Type (0, 0), BuildingBlock: AJUNOK_clean_linker_0, # of connection points: 2
#     Edge 60, Type (0, 0), BuildingBlock: AJUNOK_clean_linker_0, # of connection points: 2
#     Edge 61, Type (0, 0), BuildingBlock: AJUNOK_clean_linker_0, # of connection points: 2
#     Edge 62, Type (0, 0), BuildingBlock: AJUNOK_clean_linker_0, # of connection points: 2
#     Edge 63, Type (0, 0), BuildingBlock: AJUNOK_clean_linker_0, # of connection points: 2
#     Edge 64, Type (0, 0), BuildingBlock: AJUNOK_clean_linker_0, # of connection points: 2
#     Edge 65, Type (0, 0), BuildingBlock: AJUNOK_clean_linker_0, # of connection points: 2
#     Edge 66, Type (0, 0), BuildingBlock: AJUNOK_clean_linker_0, # of connection points: 2
#     Edge 67, Type (0, 0), BuildingBlock: AJUNOK_clean_linker_0, # of connection points: 2
#     Edge 68, Type (0, 0), BuildingBlock: AJUNOK_clean_linker_0, # of connection points: 2
#     Edge 69, Type (0, 0), BuildingBlock: AJUNOK_clean_linker_0, # of connection points: 2
#     Edge 70, Type (0, 0), BuildingBlock: AJUNOK_clean_linker_0, # of connection points: 2
#     Edge 71, Type (0, 0), BuildingBlock: AJUNOK_clean_linker_0, # of connection points: 2
#     Edge 72, Type (0, 0), BuildingBlock: AJUNOK_clean_linker_0, # of connection points: 2
#     Edge 73, Type (0, 0), BuildingBlock: AJUNOK_clean_linker_0, # of connection points: 2
#     Edge 74, Type (0, 0), BuildingBlock: AJUNOK_clean_linker_0, # of connection points: 2
#     Edge 75, Type (0, 0), BuildingBlock: AJUNOK_clean_linker_0, # of connection points: 2
#     Edge 76, Type (0, 0), BuildingBlock: AJUNOK_clean_linker_0, # of connection points: 2
#     Edge 77, Type (0, 0), BuildingBlock: AJUNOK_clean_linker_0, # of connection points: 2
#     Edge 78, Type (0, 0), BuildingBlock: AJUNOK_clean_linker_0, # of connection points: 2
#     Edge 79, Type (0, 0), BuildingBlock: AJUNOK_clean_linker_0, # of connection points: 2
#     Edge 80, Type (0, 0), BuildingBlock: AJUNOK_clean_linker_0, # of connection points: 2
#     Edge 81, Type (0, 0), BuildingBlock: AJUNOK_clean_linker_0, # of connection points: 2
#     Edge 82, Type (0, 0), BuildingBlock: AJUNOK_clean_linker_0, # of connection points: 2
#     Edge 83, Type (0, 0), BuildingBlock: AJUNOK_clean_linker_0, # of connection points: 2
#     Edge 84, Type (0, 0), BuildingBlock: AJUNOK_clean_linker_0, # of connection points: 2
#     Edge 85, Type (0, 0), BuildingBlock: AJUNOK_clean_linker_0, # of connection points: 2
#     Edge 86, Type (0, 0), BuildingBlock: AJUNOK_clean_linker_0, # of connection points: 2
#     Edge 87, Type (0, 0), BuildingBlock: AJUNOK_clean_linker_0, # of connection points: 2
#     Edge 88, Type (0, 0), BuildingBlock: AJUNOK_clean_linker_0, # of connection points: 2
#     Edge 89, Type (0, 0), BuildingBlock: AJUNOK_clean_linker_0, # of connection points: 2
#     Edge 90, Type (0, 0), BuildingBlock: AJUNOK_clean_linker_0, # of connection points: 2
#     Edge 91, Type (0, 0), BuildingBlock: AJUNOK_clean_linker_0, # of connection points: 2
#     Edge 92, Type (0, 0), BuildingBlock: AJUNOK_clean_linker_0, # of connection points: 2
#     Edge 93, Type (0, 0), BuildingBlock: AJUNOK_clean_linker_0, # of connection points: 2
#     Edge 94, Type (0, 0), BuildingBlock: AJUNOK_clean_linker_0, # of connection points: 2
#     Edge 95, Type (0, 0), BuildingBlock: AJUNOK_clean_linker_0, # of connection points: 2
#     Edge 96, Type (0, 0), BuildingBlock: AJUNOK_clean_linker_0, # of connection points: 2
#     Edge 97, Type (0, 0), BuildingBlock: AJUNOK_clean_linker_0, # of connection points: 2
#     Edge 98, Type (0, 0), BuildingBlock: AJUNOK_clean_linker_0, # of connection points: 2
#     Edge 99, Type (0, 0), BuildingBlock: AJUNOK_clean_linker_0, # of connection points: 2
#     Edge 100, Type (0, 0), BuildingBlock: AJUNOK_clean_linker_0, # of connection points: 2
#     Edge 101, Type (0, 0), BuildingBlock: AJUNOK_clean_linker_0, # of connection points: 2
#     Edge 102, Type (0, 0), BuildingBlock: AJUNOK_clean_linker_0, # of connection points: 2
#     Edge 103, Type (0, 0), BuildingBlock: AJUNOK_clean_linker_0, # of connection points: 2
#     Edge 104, Type (0, 0), BuildingBlock: AJUNOK_clean_linker_0, # of connection points: 2
#     Edge 105, Type (0, 0), BuildingBlock: AJUNOK_clean_linker_0, # of connection points: 2
#     Edge 106, Type (0, 0), BuildingBlock: AJUNOK_clean_linker_0, # of connection points: 2
#     Edge 107, Type (0, 0), BuildingBlock: AJUNOK_clean_linker_0, # of connection points: 2
# Relax obj value: 0.247
# Max RMSD: 0.179
# Mean RMSD: 0.179
data_MOF--net-ukv--node1-NAHDIM_clean_sbu_0--edge1-AJUNOK_clean_linker_0
_symmetry_space_group_name_H-M    P1
_symmetry_Int_Tables_number       1
_symmetry_cell_setting            triclinic
loop_
_symmetry_equiv_pos_as_xyz
'x, y, z'
_cell_length_a     71.620705
_cell_length_b     71.598771
_cell_length_c     14.988448
_cell_angle_alpha  89.926423
_cell_angle_beta   90.011786
_cell_angle_gamma 120.01751
loop_
_atom_site_label
_atom_site_type_symbol
_atom_site_fract_x
_atom_site_fract_y
_atom_site_fract_z
_atom_type_partial_charge
C0 C 0.24566 0.05035 0.159 0.0
O1 O 0.25925 0.0698 0.18829 0.0
O2 O 0.27898 0.09371 0.99409 0.0
Zn3 Zn 0.24705 0.07643 0.01701 0.0
O4 O 0.23898 0.09378 0.09621 0.0
C5 C 0.2408 0.07603 0.82619 0.0
O6 O 0.25764 0.07339 0.82174 0.0
O7 O 0.23815 0.04838 0.08042 0.0
C8 C 0.23986 0.11092 0.0677 0.0
O9 O 0.24717 0.11779 0.98684 0.0
C10 C 0.29039 0.08558 0.96989 0.0
O11 O 0.2814 0.06451 0.96504 0.0
O12 O 0.23191 0.07425 0.90146 0.0
C13 C 0.95935 0.21313 0.16241 0.0
O14 O 0.94707 0.22192 0.16504 0.0
O15 O 0.91694 0.20388 0.00715 0.0
Zn16 Zn 0.92383 0.18223 0.0608 0.0
O17 O 0.90179 0.16296 0.15106 0.0
C18 C 0.89965 0.15324 0.93709 0.0
O19 O 0.88717 0.15892 0.97915 0.0
O20 O 0.95312 0.19593 0.11768 0.0
C21 C 0.90268 0.14622 0.17225 0.0
O22 O 0.91903 0.14435 0.14392 0.0
C23 C 0.90273 0.20792 0.03665 0.0
O24 O 0.89356 0.19989 0.11397 0.0
O25 O 0.91942 0.1621 0.9593 0.0
C26 C 0.80813 0.76953 0.15974 0.0
O27 O 0.81464 0.75733 0.19861 0.0
O28 O 0.80696 0.72888 0.98322 0.0
Zn29 Zn 0.82723 0.76021 0.01474 0.0
O30 O 0.85106 0.76306 0.096 0.0
C31 C 0.83324 0.76906 0.82517 0.0
O32 O 0.81241 0.75542 0.82024 0.0
O33 O 0.81136 0.77312 0.07645 0.0
C34 C 0.86914 0.76627 0.06684 0.0
O35 O 0.87254 0.76724 0.98049 0.0
C36 C 0.81448 0.71995 0.93273 0.0
O37 O 0.83499 0.73072 0.91113 0.0
O38 O 0.84171 0.77557 0.90151 0.0
C39 C 0.03524 0.24474 0.38805 0.0
O40 O 0.05063 0.26503 0.38591 0.0
O41 O 0.08325 0.27242 0.51856 0.0
Zn42 Zn 0.06636 0.24032 0.49329 0.0
O43 O 0.08371 0.2326 0.41147 0.0
C44 C 0.06485 0.23471 0.68174 0.0
O45 O 0.06213 0.25154 0.68098 0.0
O46 O 0.03802 0.23128 0.43312 0.0
C47 C 0.09593 0.22562 0.43874 0.0
O48 O 0.09801 0.22357 0.52468 0.0
C49 C 0.10138 0.27966 0.55743 0.0
O50 O 0.10839 0.26627 0.57483 0.0
O51 O 0.06335 0.22504 0.60886 0.0
C52 C 0.76537 0.80751 0.35841 0.0
O53 O 0.75323 0.81337 0.31462 0.0
O54 O 0.72351 0.80227 0.55245 0.0
Zn55 Zn 0.75265 0.82431 0.50492 0.0
O56 O 0.74951 0.84502 0.42435 0.0
C57 C 0.76453 0.83478 0.68821 0.0
O58 O 0.75227 0.81386 0.69939 0.0
O59 O 0.7676 0.8106 0.44219 0.0
C60 C 0.76607 0.86294 0.40466 0.0
O61 O 0.78506 0.867 0.43344 0.0
C62 C 0.70588 0.79664 0.51229 0.0
O63 O 0.70641 0.80401 0.43146 0.0
O64 O 0.76919 0.8422 0.60937 0.0
C65 C 0.20701 0.97626 0.39912 0.0
O66 O 0.21161 0.97776 0.48458 0.0
O67 O 0.18731 0.91513 0.47959 0.0
Zn68 Zn 0.1728 0.93146 0.43773 0.0
O69 O 0.14815 0.91215 0.3585 0.0
C70 C 0.16715 0.93576 0.6225 0.0
O71 O 0.18735 0.9404 0.62634 0.0
O72 O 0.19187 0.9586 0.36872 0.0
C73 C 0.13262 0.89448 0.38738 0.0
O74 O 0.13328 0.88832 0.46938 0.0
C75 C 0.20723 0.92113 0.48409 0.0
O76 O 0.22154 0.93984 0.45045 0.0
O77 O 0.15912 0.93551 0.54666 0.0
C78 C 0.74871 0.95494 0.86403 0.0
O79 O 0.72904 0.93875 0.85238 0.0
O80 O 0.71685 0.91085 0.00893 0.0
Zn81 Zn 0.74912 0.92501 0.9882 0.0
O82 O 0.75598 0.90606 0.91252 0.0
C83 C 0.75214 0.92025 0.17656 0.0
O84 O 0.73292 0.91835 0.1763 0.0
O85 O 0.76066 0.95333 0.92277 0.0
C86 C 0.7584 0.89109 0.94634 0.0
O87 O 0.75562 0.88735 0.03248 0.0
C88 C 0.70388 0.89132 0.98831 0.0
O89 O 0.71129 0.88041 0.94527 0.0
O90 O 0.76347 0.92672 0.10599 0.0
C91 C 0.02897 0.80067 0.89771 0.0
O92 O 0.02755 0.79629 0.98341 0.0
O93 O 0.0913 0.81622 0.95039 0.0
Zn94 Zn 0.07513 0.8322 0.92951 0.0
O95 O 0.0935 0.85775 0.85223 0.0
C96 C 0.07412 0.83712 0.12083 0.0
O97 O 0.07076 0.81734 0.12371 0.0
O98 O 0.04696 0.8147 0.86517 0.0
C99 C 0.11109 0.87328 0.88149 0.0
O100 O 0.11769 0.87198 0.96184 0.0
C101 C 0.08309 0.79657 0.97352 0.0
O102 O 0.06204 0.78457 0.97962 0.0
O103 O 0.07333 0.84499 0.0459 0.0
C104 C 0.19699 0.23028 0.90953 0.0
O105 O 0.20989 0.2446 0.96801 0.0
O106 O 0.1875 0.26733 0.0352 0.0
Zn107 Zn 0.16499 0.23826 0.99043 0.0
O108 O 0.14314 0.24212 0.92242 0.0
C109 C 0.15438 0.22597 0.17432 0.0
O110 O 0.17442 0.24105 0.18907 0.0
O111 O 0.17712 0.2246 0.90971 0.0
C112 C 0.12474 0.22567 0.90868 0.0
O113 O 0.12124 0.20659 0.93382 0.0
C114 C 0.19574 0.28404 0.98615 0.0
O115 O 0.19038 0.28206 0.90143 0.0
O116 O 0.14834 0.22005 0.09466 0.0
C117 C 0.954 0.76296 0.6631 0.0
O118 O 0.93495 0.74802 0.69146 0.0
O119 O 0.91443 0.72923 0.48071 0.0
Zn120 Zn 0.92743 0.76014 0.51951 0.0
O121 O 0.90705 0.76368 0.59952 0.0
C122 C 0.92927 0.76945 0.33296 0.0
O123 O 0.93513 0.75481 0.32646 0.0
O124 O 0.95545 0.77093 0.58571 0.0
C125 C 0.88879 0.76008 0.57154 0.0
O126 O 0.88234 0.75203 0.49134 0.0
C127 C 0.9238 0.71815 0.47776 0.0
O128 O 0.94331 0.72607 0.51062 0.0
O129 O 0.9288 0.77675 0.40962 0.0
C130 C 0.23302 0.19544 0.65472 0.0
O131 O 0.25008 0.1944 0.67947 0.0
O132 O 0.26902 0.19434 0.4799 0.0
Zn133 Zn 0.23828 0.17309 0.51403 0.0
O134 O 0.2368 0.15 0.5944 0.0
C135 C 0.23072 0.16532 0.32671 0.0
O136 O 0.2453 0.18588 0.32086 0.0
O137 O 0.22452 0.18758 0.5795 0.0
C138 C 0.23997 0.13512 0.56569 0.0
O139 O 0.24609 0.1357 0.4826 0.0
C140 C 0.28566 0.19644 0.51941 0.0
O141 O 0.28327 0.1849 0.59113 0.0
O142 O 0.22299 0.15751 0.40287 0.0
C143 C 0.78446 0.02968 0.6293 0.0
O144 O 0.77646 0.04266 0.63154 0.0
O145 O 0.80042 0.07905 0.50715 0.0
Zn146 Zn 0.81893 0.06631 0.54364 0.0
O147 O 0.83711 0.08408 0.64541 0.0
C148 C 0.83343 0.07474 0.36455 0.0
O149 O 0.81297 0.06801 0.34948 0.0
O150 O 0.80221 0.03575 0.58899 0.0
C151 C 0.85739 0.09191 0.65108 0.0
O152 O 0.86759 0.08794 0.58773 0.0
C153 C 0.81122 0.09913 0.48975 0.0
O154 O 0.8322 0.10928 0.50199 0.0
O155 O 0.83901 0.07157 0.44096 0.0
C156 C 0.91218 0.36861 0.43124 0.0
O157 O 0.93292 0.3811 0.44572 0.0
O158 O 0.95191 0.4133 0.30239 0.0
Zn159 Zn 0.92095 0.40505 0.3301 0.0
O160 O 0.92089 0.42431 0.42624 0.0
C161 C 0.92379 0.43319 0.20434 0.0
O162 O 0.9401 0.44381 0.25889 0.0
O163 O 0.90286 0.37471 0.37578 0.0
C164 C 0.90578 0.42851 0.43709 0.0
O165 O 0.88862 0.41905 0.38595 0.0
C166 C 0.9671 0.4271 0.35103 0.0
O167 O 0.96223 0.43257 0.42739 0.0
O168 O 0.91049 0.41339 0.22048 0.0
C169 C 0.62853 0.53512 0.49326 0.0
O170 O 0.61268 0.53927 0.50084 0.0
O171 O 0.59307 0.53082 0.31457 0.0
Zn172 Zn 0.59966 0.50847 0.36326 0.0
O173 O 0.57538 0.48987 0.44525 0.0
C174 C 0.60079 0.49783 0.18253 0.0
O175 O 0.61235 0.5189 0.1745 0.0
O176 O 0.6273 0.52199 0.43337 0.0
C177 C 0.56849 0.46987 0.45638 0.0
O178 O 0.57812 0.4608 0.4153 0.0
C179 C 0.57539 0.5231 0.27187 0.0
O180 O 0.56306 0.50205 0.26679 0.0
O181 O 0.59779 0.48974 0.26026 0.0
C182 C 0.46712 0.09227 0.49029 0.0
O183 O 0.46895 0.07707 0.53147 0.0
O184 O 0.45622 0.04619 0.3201 0.0
Zn185 Zn 0.48102 0.0757 0.35274 0.0
O186 O 0.50017 0.07276 0.44195 0.0
C187 C 0.50606 0.0737 0.22297 0.0
O188 O 0.49836 0.05567 0.26869 0.0
O189 O 0.47096 0.09495 0.40687 0.0
C190 C 0.51894 0.08829 0.45874 0.0
O191 O 0.52551 0.1071 0.4206 0.0
C192 C 0.45335 0.02962 0.36289 0.0
O193 O 0.46463 0.03227 0.43559 0.0
O194 O 0.50001 0.08709 0.24418 0.0
C195 C 0.70174 0.57883 0.73367 0.0
O196 O 0.70959 0.59959 0.74596 0.0
O197 O 0.74821 0.61881 0.84897 0.0
Zn198 Zn 0.74036 0.58774 0.82707 0.0
O199 O 0.763 0.58849 0.74679 0.0
C200 C 0.76337 0.58951 0.97241 0.0
O201 O 0.77526 0.60742 0.92761 0.0
O202 O 0.71152 0.5698 0.7674 0.0
C203 C 0.76719 0.57334 0.7372 0.0
O204 O 0.75499 0.55465 0.77627 0.0
C205 C 0.76059 0.63324 0.79387 0.0
O206 O 0.76476 0.62717 0.71738 0.0
O207 O 0.74467 0.5762 0.94295 0.0
C208 C 0.435 0.14123 0.68128 0.0
O209 O 0.42249 0.14646 0.63669 0.0
O210 O 0.39049 0.13817 0.81989 0.0
Zn211 Zn 0.42201 0.16018 0.80944 0.0
O212 O 0.4265 0.18331 0.72153 0.0
C213 C 0.41975 0.16718 -0.00121 0.0
O214 O 0.40595 0.14639 0.00295 0.0
O215 O 0.43805 0.14571 0.76407 0.0
C216 C 0.44061 0.20296 0.73469 0.0
O217 O 0.4525 0.20854 0.80708 0.0
C218 C 0.37754 0.14457 0.84299 0.0
O219 O 0.38498 0.1654 0.8509 0.0
O220 O 0.43085 0.17509 0.92833 0.0
C221 C 0.86746 0.29561 0.67127 0.0
O222 O 0.87325 0.28087 0.6725 0.0
O223 O 0.85695 0.25683 0.84608 0.0
Zn224 Zn 0.83673 0.26582 0.79313 0.0
O225 O 0.81515 0.24311 0.71212 0.0
C226 C 0.82594 0.26756 0.97409 0.0
O227 O 0.84677 0.27578 0.98615 0.0
O228 O 0.8523 0.29341 0.72226 0.0
C229 C 0.80198 0.22421 0.73982 0.0
O230 O 0.80389 0.21857 0.82127 0.0
C231 C 0.86146 0.24322 0.81349 0.0
O232 O 0.85356 0.23457 0.73538 0.0
O233 O 0.81897 0.26627 0.89514 0.0
C234 C 0.42407 0.29352 0.18614 0.0
O235 O 0.41228 0.27586 0.13999 0.0
O236 O 0.38667 0.25159 0.38374 0.0
Zn237 Zn 0.41516 0.2622 0.32225 0.0
O238 O 0.41241 0.2412 0.22824 0.0
C239 C 0.43304 0.2611 0.4928 0.0
O240 O 0.42031 0.26793 0.52342 0.0
O241 O 0.42724 0.29188 0.2686 0.0
C242 C 0.40748 0.22209 0.24954 0.0
O243 O 0.40199 0.21569 0.33241 0.0
C244 C 0.36895 0.24443 0.34226 0.0
O245 O 0.36916 0.24522 0.25466 0.0
O246 O 0.43522 0.26034 0.40923 0.0
C247 C 0.71192 0.13036 0.16546 0.0
O248 O 0.72851 0.12788 0.14783 0.0
O249 O 0.75507 0.14013 0.31068 0.0
Zn250 Zn 0.74211 0.15915 0.28898 0.0
O251 O 0.76062 0.18395 0.20714 0.0
C252 C 0.74281 0.16427 0.48035 0.0
O253 O 0.73938 0.14445 0.48178 0.0
O254 O 0.71324 0.14265 0.22927 0.0
C255 C 0.77406 0.20273 0.23531 0.0
O256 O 0.77758 0.20609 0.32132 0.0
C257 C 0.77406 0.14866 0.34208 0.0
O258 O 0.78506 0.16969 0.35251 0.0
O259 O 0.74157 0.17227 0.40638 0.0
C260 C 0.8649 0.57256 0.18018 0.0
O261 O 0.8594 0.58572 0.14307 0.0
O262 O 0.87751 0.61799 0.35446 0.0
Zn263 Zn 0.85291 0.5878 0.32966 0.0
O264 O 0.83106 0.58973 0.25284 0.0
C265 C 0.83324 0.58974 0.47946 0.0
O266 O 0.83986 0.60803 0.43683 0.0
O267 O 0.86361 0.5703 0.26467 0.0
C268 C 0.81198 0.5742 0.24136 0.0
O269 O 0.80594 0.5556 0.2804 0.0
C270 C 0.87943 0.63385 0.30893 0.0
O271 O 0.86721 0.62999 0.23823 0.0
O272 O 0.83731 0.57583 0.44601 0.0
C273 C 0.6361 0.08683 0.93976 0.0
O274 O 0.62619 0.06566 0.93788 0.0
O275 O 0.59225 0.04927 0.80564 0.0
Zn276 Zn 0.59764 0.07806 0.85171 0.0
O277 O 0.57681 0.07424 0.94898 0.0
C278 C 0.57008 0.07634 0.72715 0.0
O279 O 0.55977 0.05889 0.77627 0.0
O280 O 0.62753 0.09646 0.90077 0.0
C281 C 0.57273 0.08935 0.96338 0.0
O282 O 0.5831 0.1073 0.91722 0.0
C283 C 0.5791 0.03145 0.8422 0.0
O284 O 0.57138 0.03155 0.92157 0.0
O285 O 0.58938 0.09026 0.74783 0.0
C286 C 0.90705 0.5369 0.96463 0.0
O287 O 0.92303 0.53571 0.00184 0.0
O288 O 0.94904 0.54485 0.7795 0.0
Zn289 Zn 0.92074 0.52048 0.82609 0.0
O290 O 0.92584 0.50293 0.9172 0.0
C291 C 0.92088 0.49431 0.69921 0.0
O292 O 0.93945 0.5027 0.74113 0.0
O293 O 0.90248 0.53129 0.88339 0.0
C294 C 0.91082 0.48399 0.93594 0.0
O295 O 0.89186 0.47662 0.89814 0.0
C296 C 0.96695 0.54969 0.8156 0.0
O297 O 0.96683 0.54064 0.89206 0.0
O298 O 0.90743 0.50006 0.72289 0.0
C299 C 0.46675 0.37887 0.0222 0.0
O300 O 0.47341 0.39587 0.07371 0.0
O301 O 0.46947 0.42627 0.89539 0.0
Zn302 Zn 0.48783 0.41225 0.89471 0.0
O303 O 0.51381 0.42919 0.97322 0.0
C304 C 0.49966 0.4275 0.71471 0.0
O305 O 0.4888 0.43723 0.73446 0.0
O306 O 0.47099 0.38171 0.93929 0.0
C307 C 0.52811 0.44794 0.94795 0.0
O308 O 0.52485 0.45587 0.87439 0.0
C309 C 0.45152 0.41792 0.85456 0.0
O310 O 0.44392 0.3987 0.81901 0.0
O311 O 0.50006 0.41435 0.77081 0.0
C312 C 0.57074 0.69296 0.752 0.0
O313 O 0.58674 0.69717 0.69746 0.0
O314 O 0.60572 0.74453 0.64383 0.0
Zn315 Zn 0.57548 0.73371 0.68792 0.0
O316 O 0.57454 0.75542 0.76887 0.0
C317 C 0.56417 0.73287 0.50411 0.0
O318 O 0.57917 0.72771 0.49115 0.0
O319 O 0.56325 0.7057 0.7549 0.0
C320 C 0.57895 0.77382 0.73907 0.0
O321 O 0.58593 0.77912 0.65676 0.0
C322 C 0.62257 0.7522 0.69176 0.0
O323 O 0.62069 0.75269 0.77878 0.0
O324 O 0.55784 0.7329 0.58314 0.0
C325 C 0.29094 0.86219 0.80798 0.0
O326 O 0.27317 0.85692 0.85249 0.0
O327 O 0.25189 0.86739 0.63871 0.0
Zn328 Zn 0.26031 0.84495 0.66747 0.0
O329 O 0.23891 0.82153 0.74861 0.0
C330 C 0.25804 0.83717 0.47787 0.0
O331 O 0.26315 0.85749 0.4721 0.0
O332 O 0.28969 0.85867 0.72443 0.0
C333 C 0.22118 0.80647 0.71782 0.0
O334 O 0.21624 0.8072 0.63401 0.0
C335 C 0.23397 0.86572 0.66034 0.0
O336 O 0.22056 0.84941 0.71037 0.0
O337 O 0.25856 0.8295 0.55367 0.0
C338 C 0.12933 0.41493 0.8087 0.0
O339 O 0.1274 0.39624 0.82993 0.0
O340 O 0.14024 0.38101 0.66993 0.0
Zn341 Zn 0.15817 0.4135 0.6829 0.0
O342 O 0.1843 0.42126 0.75856 0.0
C343 C 0.16294 0.41488 0.49244 0.0
O344 O 0.14541 0.39585 0.49679 0.0
O345 O 0.14145 0.42551 0.7437 0.0
C346 C 0.20265 0.42643 0.72547 0.0
O347 O 0.2049 0.42658 0.63848 0.0
C348 C 0.14952 0.36985 0.66552 0.0
O349 O 0.17058 0.37959 0.67328 0.0
O350 O 0.16943 0.42642 0.5623 0.0
C351 C 0.37189 0.89726 0.00431 0.0
O352 O 0.39064 0.90894 0.96504 0.0
O353 O 0.41545 0.93527 0.17458 0.0
Zn354 Zn 0.40076 0.90376 0.14311 0.0
O355 O 0.41919 0.89845 0.05747 0.0
C356 C 0.40136 0.89791 0.33096 0.0
O357 O 0.39474 0.91201 0.3331 0.0
O358 O 0.37155 0.89295 0.08691 0.0
C359 C 0.43656 0.89936 0.08272 0.0
O360 O 0.4431 0.90497 0.16531 0.0
C361 C 0.40662 0.94675 0.1832 0.0
O362 O 0.3864 0.93892 0.15955 0.0
O363 O 0.40095 0.88907 0.25692 0.0
C364 C 0.0923 0.45451 0.03249 0.0
O365 O 0.07206 0.44381 0.0582 0.0
O366 O 0.05899 0.47177 0.13435 0.0
Zn367 Zn 0.09057 0.49115 0.10464 0.0
O368 O 0.09474 0.51454 0.01783 0.0
C369 C 0.09669 0.4971 0.29417 0.0
O370 O 0.08323 0.4762 0.29644 0.0
O371 O 0.10344 0.47458 0.04887 0.0
C372 C 0.09929 0.53332 0.04302 0.0
O373 O 0.10026 0.5376 0.12856 0.0
C374 C 0.05012 0.48035 0.17874 0.0
O375 O 0.06089 0.50128 0.19187 0.0
O376 O 0.10479 0.50587 0.21953 0.0
C377 C 0.53357 0.61535 0.97136 0.0
O378 O 0.53227 0.59789 0.93663 0.0
O379 O 0.52398 0.5688 0.10983 0.0
Zn380 Zn 0.50708 0.58421 0.09844 0.0
O381 O 0.48188 0.56732 0.01811 0.0
C382 C 0.49852 0.57881 0.28983 0.0
O383 O 0.51687 0.57895 0.2958 0.0
O384 O 0.52454 0.61388 0.0461 0.0
C385 C 0.467 0.54891 0.04367 0.0
O386 O 0.46964 0.5406 0.11754 0.0
C387 C 0.54329 0.57784 0.13785 0.0
O388 O 0.55325 0.5985 0.15717 0.0
O389 O 0.49307 0.58325 0.21567 0.0
C390 C 0.10213 0.63788 0.54076 0.0
O391 O 0.09025 0.6371 0.60901 0.0
O392 O 0.06186 0.58539 0.64345 0.0
Zn393 Zn 0.09133 0.59403 0.5947 0.0
O394 O 0.09026 0.57144 0.51275 0.0
C395 C 0.10291 0.59376 0.77739 0.0
O396 O 0.08928 0.60065 0.79181 0.0
O397 O 0.10501 0.62203 0.52638 0.0
C398 C 0.08582 0.553 0.54229 0.0
O399 O 0.07946 0.54793 0.62541 0.0
C400 C 0.04665 0.58742 0.61022 0.0
O401 O 0.04902 0.59598 0.53053 0.0
O402 O 0.10877 0.59332 0.69785 0.0
C403 C 0.35437 0.45621 0.57322 0.0
O404 O 0.35722 0.44453 0.6335 0.0
O405 O 0.40582 0.46788 0.66679 0.0
Zn406 Zn 0.39755 0.48971 0.62457 0.0
O407 O 0.41975 0.51052 0.53806 0.0
C408 C 0.39536 0.49887 0.80851 0.0
O409 O 0.3851 0.47776 0.81642 0.0
O410 O 0.36902 0.47568 0.5615 0.0
C411 C 0.4362 0.52813 0.56185 0.0
O412 O 0.43976 0.53303 0.64687 0.0
C413 C 0.42226 0.47487 0.71726 0.0
O414 O 0.43357 0.49564 0.73327 0.0
O415 O 0.39849 0.50699 0.73086 0.0
C416 C 0.53584 0.90285 0.52677 0.0
O417 O 0.5435 0.92377 0.52807 0.0
O418 O 0.525 0.93392 0.68171 0.0
Zn419 Zn 0.50389 0.90421 0.63594 0.0
O420 O 0.48226 0.90469 0.5522 0.0
C421 C 0.4929 0.89382 0.82017 0.0
O422 O 0.5135 0.90757 0.83219 0.0
O423 O 0.5189 0.89065 0.5713 0.0
C424 C 0.46754 0.90804 0.58171 0.0
O425 O 0.46796 0.9133 0.66589 0.0
C426 C 0.53061 0.95175 0.64305 0.0
O427 O 0.52281 0.95171 0.56367 0.0
O428 O 0.48616 0.88745 0.74148 0.0
C429 C 0.28183 0.41914 0.32641 0.0
O430 O 0.26272 0.40343 0.35012 0.0
O431 O 0.25092 0.38534 0.11843 0.0
Zn432 Zn 0.25833 0.41438 0.16782 0.0
O433 O 0.23304 0.41118 0.23762 0.0
C434 C 0.26269 0.42823 0.98536 0.0
O435 O 0.26907 0.41413 0.973 0.0
O436 O 0.28437 0.42689 0.248 0.0
C437 C 0.23156 0.42782 0.25361 0.0
O438 O 0.24696 0.44673 0.22606 0.0
C439 C 0.23847 0.36785 0.1588 0.0
O440 O 0.23152 0.36865 0.23902 0.0
O441 O 0.26062 0.43317 0.06464 0.0
C442 C 0.57337 0.86569 0.29239 0.0
O443 O 0.59369 0.87105 0.30134 0.0
O444 O 0.60592 0.85251 0.1574 0.0
Zn445 Zn 0.57387 0.83384 0.18068 0.0
O446 O 0.56859 0.80957 0.26376 0.0
C447 C 0.5693 0.82964 0.99078 0.0
O448 O 0.58376 0.85028 0.99238 0.0
O449 O 0.56141 0.85042 0.23975 0.0
C450 C 0.56402 0.79089 0.2371 0.0
O451 O 0.56339 0.787 0.15127 0.0
C452 C 0.61518 0.84379 0.11658 0.0
O453 O 0.60386 0.82318 0.09703 0.0
O454 O 0.56021 0.82044 0.0635 0.0
C455 C 0.13704 0.71252 0.30292 0.0
O456 O 0.13789 0.73022 0.33228 0.0
O457 O 0.13604 0.75038 0.13679 0.0
Zn458 Zn 0.15822 0.74145 0.16235 0.0
O459 O 0.18156 0.76318 0.2427 0.0
C460 C 0.16435 0.74197 0.97188 0.0
O461 O 0.14361 0.73522 0.96897 0.0
O462 O 0.1446 0.71278 0.22582 0.0
C463 C 0.19905 0.77885 0.21284 0.0
O464 O 0.20202 0.78166 0.12638 0.0
C465 C 0.1422 0.76831 0.09775 0.0
O466 O 0.16281 0.78075 0.08031 0.0
O467 O 0.17286 0.74234 0.04674 0.0
C468 C 0.21165 0.99338 0.24887 0.0
C469 C 0.21837 0.99512 0.33837 0.0
C470 C 0.221 0.01111 0.19087 0.0
C471 C 0.23752 0.0314 0.21964 0.0
H472 H 0.19871 0.97827 0.22337 0.0
H473 H 0.21483 0.00893 0.12339 0.0
S474 S 0.26225 0.04428 0.44559 0.0
N475 N 0.2435 0.01858 0.45155 0.0
N476 N 0.26112 0.05189 0.34272 0.0
C477 C 0.24495 0.03324 0.30815 0.0
C478 C 0.23538 0.01513 0.36737 0.0
C479 C 0.98665 0.20813 0.24638 0.0
C480 C 0.97904 0.22185 0.21792 0.0
C481 C 0.00456 0.2156 0.30282 0.0
C482 C 0.0158 0.23718 0.33172 0.0
H483 H 0.97851 0.19136 0.22619 0.0
H484 H 0.0098 0.2044 0.32286 0.0
S485 S 0.00262 0.27974 0.27519 0.0
N486 N 0.98414 0.25807 0.22269 0.0
N487 N 0.01809 0.27222 0.32744 0.0
C488 C 0.0085 0.25114 0.30313 0.0
C489 C 0.99004 0.24344 0.24667 0.0
C490 C 0.77639 0.79747 0.2161 0.0
C491 C 0.7764 0.79768 0.31006 0.0
C492 C 0.78673 0.78842 0.16823 0.0
C493 C 0.79737 0.77903 0.21226 0.0
H494 H 0.76842 0.80446 0.1788 0.0
H495 H 0.78624 0.7887 0.09602 0.0
S496 S 0.80229 0.77546 0.45776 0.0
N497 N 0.78813 0.78773 0.4455 0.0
N498 N 0.80746 0.77067 0.35571 0.0
C499 C 0.79751 0.77909 0.30627 0.0
C500 C 0.78708 0.78843 0.35508 0.0
C501 C 0.77952 0.98544 0.78391 0.0
C502 C 0.75737 0.97393 0.80416 0.0
C503 C 0.788 0.00295 0.72457 0.0
C504 C 0.77473 0.00991 0.68475 0.0
H505 H 0.79038 0.98073 0.81327 0.0
H506 H 0.80519 0.01143 0.71164 0.0
S507 S 0.71566 0.98528 0.71558 0.0
N508 N 0.72227 0.97056 0.77867 0.0
N509 N 0.73834 0.00385 0.66914 0.0
C510 C 0.75257 0.99857 0.70448 0.0
C511 C 0.74386 0.98049 0.76358 0.0
C512 C 0.01043 0.79898 0.75407 0.0
C513 C 0.00978 0.79011 0.83874 0.0
C514 C 0.99249 0.78986 0.69734 0.0
C515 C 0.97311 0.77143 0.72263 0.0
H516 H 0.02483 0.81336 0.73161 0.0
H517 H 0.99379 0.7976 0.63366 0.0
S518 S 0.96358 0.74075 0.93411 0.0
N519 N 0.98852 0.76105 0.94296 0.0
N520 N 0.95479 0.74381 0.83642 0.0
C521 C 0.97239 0.76202 0.80623 0.0
C522 C 0.99069 0.77138 0.86422 0.0
C523 C 0.23494 0.21557 0.79357 0.0
C524 C 0.22353 0.20467 0.71627 0.0
C525 C 0.22625 0.22381 0.85525 0.0
C526 C 0.20568 0.22134 0.84277 0.0
H527 H 0.25078 0.21777 0.807 0.0
H528 H 0.2357 0.23201 0.91369 0.0
S529 S 0.16926 0.19455 0.65029 0.0
N530 N 0.19065 0.19222 0.62975 0.0
N531 N 0.17423 0.20759 0.74594 0.0
C532 C 0.19409 0.2106 0.76544 0.0
C533 C 0.20304 0.20234 0.70212 0.0
C534 C 0.89956 0.32129 0.58223 0.0
C535 C 0.8782 0.31406 0.60905 0.0
C536 C 0.91023 0.33867 0.52317 0.0
C537 C 0.89978 0.34914 0.48692 0.0
H538 H 0.90828 0.31373 0.60833 0.0
H539 H 0.92684 0.34398 0.50604 0.0
S540 S 0.8435 0.33578 0.53267 0.0
N541 N 0.84675 0.31835 0.59336 0.0
N542 N 0.86667 0.35075 0.48069 0.0
C543 C 0.87823 0.34174 0.51141 0.0
C544 C 0.86749 0.32429 0.57306 0.0
C545 C 0.65135 0.56444 0.60028 0.0
C546 C 0.64724 0.54561 0.55451 0.0
C547 C 0.66882 0.57484 0.65883 0.0
C548 C 0.68272 0.56666 0.67525 0.0
H549 H 0.64115 0.57143 0.59002 0.0
H550 H 0.67144 0.58945 0.69148 0.0
S551 S 0.67873 0.51747 0.57409 0.0
N552 N 0.65836 0.51899 0.53046 0.0
N553 N 0.69108 0.53839 0.64156 0.0
C554 C 0.67863 0.54763 0.63105 0.0
C555 C 0.66097 0.53718 0.57031 0.0
C556 C 0.44384 0.12844 0.54106 0.0
C557 C 0.44456 0.12969 0.63495 0.0
C558 C 0.4516 0.11673 0.49473 0.0
C559 C 0.46018 0.10559 0.54043 0.0
H560 H 0.43705 0.13645 0.50264 0.0
H561 H 0.4504 0.11604 0.42262 0.0
S562 S 0.46696 0.10467 0.78595 0.0
N563 N 0.4555 0.11953 0.77177 0.0
N564 N 0.46998 0.0974 0.68492 0.0
C565 C 0.46147 0.10708 0.63424 0.0
C566 C 0.45373 0.11918 0.68142 0.0
C567 C 0.44385 0.33384 0.19431 0.0
C568 C 0.43419 0.31499 0.1422 0.0
C569 C 0.45406 0.35433 0.1548 0.0
C570 C 0.4552 0.35687 0.06143 0.0
H571 H 0.4436 0.33283 0.26646 0.0
H572 H 0.46133 0.36829 0.19817 0.0
S573 S 0.43223 0.31267 0.89444 0.0
N574 N 0.42621 0.30019 0.99177 0.0
N575 N 0.44545 0.33868 0.91766 0.0
C576 C 0.44546 0.33816 0.00834 0.0
C577 C 0.43494 0.31725 0.04863 0.0
C578 C 0.68731 0.10036 0.06482 0.0
C579 C 0.69248 0.11972 0.10857 0.0
C580 C 0.66918 0.09 0.00945 0.0
C581 C 0.65585 0.09889 0.99398 0.0
H582 H 0.69716 0.09295 0.07441 0.0
H583 H 0.66561 0.07491 0.97838 0.0
S584 S 0.66282 0.14973 0.0903 0.0
N585 N 0.68305 0.1476 0.13175 0.0
N586 N 0.64921 0.12837 0.02607 0.0
C587 C 0.66107 0.11847 0.03597 0.0
C588 C 0.6793 0.1288 0.09383 0.0
C589 C 0.8873 0.55497 0.16344 0.0
C590 C 0.87401 0.56197 0.12454 0.0
C591 C 0.89764 0.54667 0.11105 0.0
C592 C 0.89492 0.54478 0.01774 0.0
H593 H 0.89026 0.55648 0.23467 0.0
H594 H 0.90803 0.54187 0.14423 0.0
S595 S 0.86033 0.5592 0.884 0.0
N596 N 0.85766 0.56536 0.98754 0.0
N597 N 0.87698 0.54958 0.88923 0.0
C598 C 0.88104 0.55099 0.97829 0.0
C599 C 0.87065 0.55964 0.03163 0.0
C600 C 0.56504 0.65644 0.79047 0.0
C601 C 0.5617 0.67371 0.81081 0.0
C602 C 0.55619 0.63783 0.84369 0.0
C603 C 0.54388 0.63585 0.9201 0.0
H604 H 0.57423 0.65708 0.73199 0.0
H605 H 0.55893 0.62483 0.82419 0.0
S606 S 0.53153 0.67714 0.00579 0.0
N607 N 0.54594 0.68806 0.91488 0.0
N608 N 0.5295 0.65323 0.01519 0.0
C609 C 0.5409 0.65327 0.94261 0.0
C610 C 0.54972 0.67213 0.88785 0.0
C611 C 0.33168 0.88011 0.99703 0.0
C612 C 0.35159 0.88879 0.95245 0.0
C613 C 0.31226 0.87177 0.94966 0.0
C614 C 0.3119 0.87156 0.85567 0.0
H615 H 0.33104 0.87979 0.06926 0.0
H616 H 0.2974 0.86525 0.98739 0.0
S617 S 0.35963 0.89226 0.70665 0.0
N618 N 0.36975 0.89665 0.80842 0.0
N619 N 0.33329 0.88089 0.71964 0.0
C620 C 0.3317 0.8802 0.81012 0.0
C621 C 0.35151 0.88884 0.85839 0.0
C622 C 0.128 0.44693 0.86675 0.0
C623 C 0.11918 0.42443 0.86475 0.0
C624 C 0.11944 0.45648 0.92249 0.0
C625 C 0.10149 0.44389 0.9774 0.0
H626 H 0.14187 0.45734 0.826 0.0
H627 H 0.12683 0.47389 0.9215 0.0
S628 S 0.07213 0.38418 0.99562 0.0
N629 N 0.0914 0.38974 0.92211 0.0
N630 N 0.07508 0.40767 0.02584 0.0
C631 C 0.09237 0.42134 0.97546 0.0
C632 C 0.10128 0.41162 0.91949 0.0
C633 C 0.11011 0.67512 0.50028 0.0
C634 C 0.11133 0.65664 0.47881 0.0
C635 C 0.11835 0.69295 0.44277 0.0
C636 C 0.12807 0.69306 0.3609 0.0
H637 H 0.10278 0.67592 0.5623 0.0
H638 H 0.11704 0.70676 0.463 0.0
S639 S 0.13512 0.64857 0.27207 0.0
N640 N 0.12296 0.63949 0.36899 0.0
N641 N 0.13834 0.67295 0.26103 0.0
C642 C 0.12932 0.67465 0.33817 0.0
C643 C 0.12101 0.65649 0.39704 0.0
C644 C 0.3354 0.45749 0.43535 0.0
C645 C 0.33528 0.4465 0.51357 0.0
C646 C 0.31815 0.44845 0.37515 0.0
C647 C 0.29992 0.42813 0.39105 0.0
H648 H 0.34908 0.47314 0.41946 0.0
H649 H 0.3191 0.45756 0.31589 0.0
S650 S 0.29137 0.39272 0.58642 0.0
N651 N 0.31523 0.41418 0.60395 0.0
N652 N 0.28272 0.39723 0.49119 0.0
C653 C 0.29943 0.41702 0.46947 0.0
C654 C 0.31712 0.42617 0.53054 0.0
C655 C 0.53338 0.87261 0.4344 0.0
C656 C 0.54588 0.89362 0.46849 0.0
C657 C 0.54225 0.86393 0.37548 0.0
C658 C 0.56406 0.87577 0.34991 0.0
H659 H 0.51651 0.8629 0.45221 0.0
H660 H 0.53202 0.84766 0.35119 0.0
S661 S 0.60374 0.93142 0.42087 0.0
N662 N 0.58118 0.92609 0.47201 0.0
N663 N 0.59794 0.90957 0.36293 0.0
C664 C 0.57677 0.89673 0.38391 0.0
C665 C 0.56765 0.90571 0.44271 0.0
C666 C 0.24899 0.10691 0.61083 0.0
C667 C 0.23744 0.11771 0.6264 0.0
C668 C 0.24872 0.09213 0.67299 0.0
C669 C 0.23669 0.08741 0.75254 0.0
H670 H 0.25915 0.11067 0.55236 0.0
H671 H 0.25884 0.08516 0.66039 0.0
S672 S 0.20051 0.10852 0.81614 0.0
N673 N 0.21152 0.12072 0.72109 0.0
N674 N 0.21058 0.09267 0.83698 0.0
C675 C 0.22362 0.09677 0.76494 0.0
C676 C 0.22416 0.11204 0.70228 0.0
C677 C 0.85735 0.10861 0.79609 0.0
C678 C 0.86922 0.10641 0.72634 0.0
C679 C 0.86755 0.12339 0.8647 0.0
C680 C 0.8901 0.13662 0.86697 0.0
H681 H 0.8399 0.09911 0.79727 0.0
H682 H 0.85753 0.12459 0.91591 0.0
S683 S 0.92887 0.1365 0.7035 0.0
N684 N 0.90498 0.11812 0.66574 0.0
N685 N 0.92421 0.14603 0.79596 0.0
C686 C 0.90235 0.13413 0.7998 0.0
C687 C 0.8919 0.119 0.72917 0.0
C688 C 0.85244 0.75344 0.61821 0.0
C689 C 0.87495 0.76486 0.62912 0.0
C690 C 0.83894 0.7562 0.67795 0.0
C691 C 0.8475 0.7706 0.75032 0.0
H692 H 0.84511 0.74151 0.56587 0.0
H693 H 0.82167 0.74602 0.6701 0.0
S694 S 0.90565 0.80746 0.79693 0.0
N695 N 0.90536 0.79319 0.71002 0.0
N696 N 0.88011 0.79877 0.82093 0.0
C697 C 0.87008 0.78347 0.75697 0.0
C698 C 0.88378 0.78044 0.69696 0.0
C699 C 0.09108 0.2098 0.81771 0.0
C700 C 0.10774 0.22776 0.86162 0.0
C701 C 0.07612 0.21184 0.76454 0.0
C702 C 0.07702 0.23181 0.75476 0.0
H703 H 0.09017 0.19425 0.82076 0.0
H704 H 0.06435 0.19788 0.7276 0.0
S705 S 0.11593 0.28321 0.86505 0.0
N706 N 0.12314 0.26575 0.89848 0.0
N707 N 0.09484 0.26954 0.79964 0.0
C708 C 0.09268 0.24957 0.80341 0.0
C709 C 0.10813 0.24757 0.85639 0.0
C710 C 0.77385 0.87143 0.74085 0.0
C711 C 0.76712 0.84977 0.76151 0.0
C712 C 0.77165 0.88485 0.80237 0.0
C713 C 0.76299 0.8773 0.88763 0.0
H714 H 0.77973 0.87785 0.67481 0.0
H715 H 0.77619 0.90109 0.7818 0.0
S716 S 0.74616 0.82303 0.98035 0.0
N717 N 0.75371 0.82215 0.8771 0.0
N718 N 0.74989 0.84756 0.9935 0.0
C719 C 0.75783 0.85626 0.91201 0.0
C720 C 0.75986 0.84246 0.84879 0.0
C721 C 0.16075 0.9193 0.77461 0.0
C722 C 0.15241 0.92373 0.6974 0.0
C723 C 0.14716 0.90368 0.8364 0.0
C724 C 0.12474 0.89181 0.82295 0.0
H725 H 0.178 0.92703 0.78513 0.0
H726 H 0.15442 0.9001 0.8924 0.0
S727 S 0.09435 0.89994 0.64116 0.0
N728 N 0.11989 0.91709 0.61835 0.0
N729 N 0.0945 0.88754 0.73381 0.0
C730 C 0.11603 0.89725 0.7501 0.0
C731 C 0.12982 0.91331 0.68768 0.0
C732 C 0.74058 0.89278 0.29779 0.0
C733 C 0.75731 0.90852 0.24482 0.0
C734 C 0.74369 0.87832 0.34985 0.0
C735 C 0.76374 0.87922 0.35236 0.0
H736 H 0.72458 0.89084 0.29599 0.0
H737 H 0.73012 0.86614 0.38749 0.0
S738 S 0.8134 0.91866 0.23282 0.0
N739 N 0.79511 0.92503 0.20275 0.0
N740 N 0.80104 0.89804 0.30197 0.0
C741 C 0.78095 0.89558 0.30358 0.0
C742 C 0.77772 0.91018 0.24958 0.0
C743 C 0.0893 0.84387 0.27542 0.0
C744 C 0.08504 0.85191 0.19683 0.0
C745 C 0.10388 0.85781 0.33942 0.0
C746 C 0.11489 0.88028 0.3267 0.0
H747 H 0.08222 0.82666 0.28561 0.0
H748 H 0.10742 0.85086 0.39668 0.0
S749 S 0.1066 0.90977 0.14143 0.0
N750 N 0.09075 0.88406 0.11698 0.0
N751 N 0.1184 0.91009 0.23646 0.0
C752 C 0.10954 0.8886 0.25225 0.0
C753 C 0.09449 0.87446 0.18766 0.0
C754 C 0.1443 0.22634 0.33364 0.0
C755 C 0.1379 0.22113 0.24408 0.0
C756 C 0.13015 0.22652 0.39783 0.0
C757 C 0.10926 0.2219 0.3742 0.0
H758 H 0.16066 0.23128 0.35356 0.0
H759 H 0.13605 0.23153 0.46513 0.0
S760 S 0.08353 0.20447 0.1521 0.0
N761 N 0.10823 0.2088 0.13781 0.0
N762 N 0.082 0.20973 0.25816 0.0
C763 C 0.10218 0.21533 0.28652 0.0
C764 C 0.11639 0.21473 0.22153 0.0
C765 C 0.88639 0.77661 0.21673 0.0
C766 C 0.88618 0.76905 0.1301 0.0
C767 C 0.90152 0.77825 0.27991 0.0
C768 C 0.91678 0.77193 0.25961 0.0
H769 H 0.87456 0.78103 0.23647 0.0
H770 H 0.90047 0.78352 0.34649 0.0
S771 S 0.92397 0.75251 0.03998 0.0
N772 N 0.90344 0.75658 0.02501 0.0
N773 N 0.9316 0.75912 0.14466 0.0
C774 C 0.9173 0.76516 0.17205 0.0
C775 C 0.90207 0.76383 0.10712 0.0
C776 C 0.24275 0.14596 0.11121 0.0
C777 C 0.23422 0.1238 0.12735 0.0
C778 C 0.24008 0.15908 0.17314 0.0
C779 C 0.22862 0.15052 0.25317 0.0
H780 H 0.25252 0.15347 0.0526 0.0
H781 H 0.24804 0.17626 0.16011 0.0
S782 S 0.1996 0.09262 0.31834 0.0
N783 N 0.21142 0.0933 0.22294 0.0
N784 N 0.20604 0.11779 0.33863 0.0
C785 C 0.21837 0.12801 0.26608 0.0
C786 C 0.22132 0.11471 0.2035 0.0
C787 C 0.87119 0.09486 0.30731 0.0
C788 C 0.85017 0.09167 0.30737 0.0
C789 C 0.88805 0.11255 0.26333 0.0
C790 C 0.88463 0.128 0.21966 0.0
H791 H 0.8747 0.08374 0.3425 0.0
H792 H 0.90398 0.11432 0.26498 0.0
S793 S 0.83252 0.12717 0.20095 0.0
N794 N 0.82678 0.10538 0.25935 0.0
N795 N 0.85852 0.13879 0.17822 0.0
C796 C 0.86365 0.12496 0.21892 0.0
C797 C 0.8464 0.10673 0.26222 0.0
C798 C 0.90018 0.43853 0.09631 0.0
C799 C 0.92084 0.44489 0.12955 0.0
C800 C 0.8971 0.45111 0.03256 0.0
C801 C 0.91459 0.47042 -0.00022 0.0
H802 H 0.88622 0.42418 0.12193 0.0
H803 H 0.88081 0.44588 0.01047 0.0
S804 S 0.97231 0.4925 0.05747 0.0
N805 N 0.95929 0.4706 0.11928 0.0
N806 N 0.95355 0.49415 -0.00016 0.0
C807 C 0.93545 0.47637 0.02975 0.0
C808 C 0.93856 0.46362 0.09451 0.0
C809 C 0.57094 0.46265 0.12604 0.0
C810 C 0.58504 0.48486 0.11193 0.0
C811 C 0.55287 0.45081 0.07171 0.0
C812 C 0.54815 0.46061 0.00057 0.0
H813 H 0.57332 0.45448 0.182 0.0
H814 H 0.54226 0.43391 0.08707 0.0
S815 S 0.58085 0.5179 0.92998 0.0
N816 N 0.59376 0.51585 0.01725 0.0
N817 N 0.55986 0.49359 0.91519 0.0
C818 C 0.5627 0.48253 0.98262 0.0
C819 C 0.58114 0.49463 0.03805 0.0
C820 C 0.54397 0.06615 0.0715 0.0
C821 C 0.55573 0.08615 0.02812 0.0
C822 C 0.52774 0.06234 0.13259 0.0
C823 C 0.5225 0.07835 0.1534 0.0
H824 H 0.54729 0.05321 0.05849 0.0
H825 H 0.51935 0.04663 0.16423 0.0
S826 S 0.54813 0.13347 0.05719 0.0
N827 N 0.56078 0.12221 0.00905 0.0
N828 N 0.53018 0.11496 0.12471 0.0
C829 C 0.53391 0.09839 0.10991 0.0
C830 C 0.55055 0.10231 0.04723 0.0
C831 C 0.79114 0.60195 0.09067 0.0
C832 C 0.77298 0.58476 0.05011 0.0
C833 C 0.80305 0.59828 0.15475 0.0
C834 C 0.79734 0.57724 0.18117 0.0
H835 H 0.79667 0.61847 0.07089 0.0
H836 H 0.81722 0.61213 0.18203 0.0
S837 S 0.75003 0.52663 0.1008 0.0
N838 N 0.7489 0.54593 0.0449 0.0
N839 N 0.77136 0.53892 0.16631 0.0
C840 C 0.77851 0.55987 0.14486 0.0
C841 C 0.7663 0.56366 0.07913 0.0
C842 C 0.4121 0.17549 0.15215 0.0
C843 C 0.41781 0.18181 0.06293 0.0
C844 C 0.40854 0.18847 0.21196 0.0
C845 C 0.41024 0.20809 0.1843 0.0
H846 H 0.41041 0.16042 0.17595 0.0
H847 H 0.4045 0.18308 0.28042 0.0
S848 S 0.42252 0.23075 0.95499 0.0
N849 N 0.4236 0.20831 0.94836 0.0
N850 N 0.41678 0.23251 0.06001 0.0
C851 C 0.41547 0.21432 0.09463 0.0
C852 C 0.4193 0.20125 0.03417 0.0
C853 C 0.81875 0.25387 0.131 0.0
C854 C 0.81085 0.25358 0.04466 0.0
C855 C 0.80642 0.23778 0.19353 0.0
C856 C 0.78587 0.22063 0.17157 0.0
H857 H 0.83497 0.26609 0.14937 0.0
H858 H 0.81346 0.23828 0.25809 0.0
S859 S 0.75634 0.21392 0.9598 0.0
N860 N 0.77991 0.23594 0.9447 0.0
N861 N 0.75711 0.2055 0.06156 0.0
C862 C 0.77721 0.22081 0.08768 0.0
C863 C 0.78957 0.23738 0.02451 0.0
C864 C 0.44033 0.25207 0.64505 0.0
C865 C 0.43953 0.24884 0.55226 0.0
C866 C 0.44211 0.23784 0.70401 0.0
C867 C 0.44237 0.21954 0.67211 0.0
H868 H 0.43878 0.26523 0.67244 0.0
H869 H 0.44207 0.24052 0.77498 0.0
S870 S 0.44363 0.20514 0.43603 0.0
N871 N 0.44203 0.22734 0.43146 0.0
N872 N 0.44394 0.19996 0.5432 0.0
C873 C 0.4428 0.21672 0.57993 0.0
C874 C 0.44178 0.23158 0.51969 0.0
C875 C 0.7768 0.18655 0.68873 0.0
C876 C 0.78465 0.20881 0.68053 0.0
C877 C 0.76196 0.17193 0.62713 0.0
C878 C 0.75425 0.17904 0.55578 0.0
H879 H 0.78294 0.18048 0.74047 0.0
H880 H 0.75737 0.15509 0.63314 0.0
S881 S 0.76669 0.23537 0.51633 0.0
N882 N 0.78157 0.23702 0.6033 0.0
N883 N 0.75329 0.2096 0.48902 0.0
C884 C 0.76063 0.2011 0.55174 0.0
C885 C 0.77598 0.21598 0.61356 0.0
C886 C 0.78573 0.55993 0.63552 0.0
C887 C 0.78576 0.57705 0.68173 0.0
C888 C 0.80207 0.56384 0.57383 0.0
C889 C 0.81891 0.58496 0.55713 0.0
H890 H 0.77247 0.5436 0.64361 0.0
H891 H 0.80081 0.55044 0.53547 0.0
S892 S 0.82854 0.63469 0.674 0.0
N893 N 0.80564 0.61541 0.71588 0.0
N894 N 0.83626 0.6227 0.60078 0.0
C895 C 0.81998 0.60191 0.60825 0.0
C896 C 0.8034 0.59798 0.67036 0.0
C897 C 0.56343 0.10021 0.62561 0.0
C898 C 0.55868 0.07944 0.65186 0.0
C899 C 0.55079 0.10301 0.56135 0.0
C900 C 0.53306 0.08514 0.52136 0.0
H901 H 0.57644 0.11432 0.65728 0.0
H902 H 0.55455 0.11927 0.54497 0.0
S903 S 0.51614 0.02748 0.5576 0.0
N904 N 0.53657 0.04082 0.62646 0.0
N905 N 0.51299 0.04605 0.50571 0.0
C906 C 0.52894 0.06434 0.54378 0.0
C907 C 0.54172 0.06151 0.60905 0.0
C908 C 0.92889 0.45768 0.54277 0.0
C909 C 0.9086 0.44515 0.50271 0.0
C910 C 0.93256 0.47367 0.60453 0.0
C911 C 0.9161 0.47788 0.62964 0.0
H912 H 0.94225 0.45524 0.5263 0.0
H913 H 0.94856 0.48271 0.63309 0.0
S914 S 0.85996 0.44981 0.54412 0.0
N915 N 0.87171 0.43814 0.49169 0.0
N916 N 0.87866 0.46835 0.6091 0.0
C917 C 0.8957 0.46567 0.58975 0.0
C918 C 0.89194 0.44928 0.52608 0.0
C919 C 0.53631 0.46565 0.53722 0.0
C920 C 0.54968 0.4572 0.51506 0.0
C921 C 0.51935 0.45513 0.59769 0.0
C922 C 0.51519 0.43583 0.63966 0.0
H923 H 0.53915 0.48079 0.50886 0.0
H924 H 0.51005 0.4628 0.61422 0.0
S925 S 0.54409 0.40576 0.59784 0.0
N926 N 0.55656 0.42741 0.534 0.0
N927 N 0.52473 0.40769 0.64918 0.0
C928 C 0.52775 0.42659 0.61491 0.0
C929 C 0.54498 0.43725 0.55227 0.0
C930 C 0.56667 0.75863 0.28058 0.0
C931 C 0.56082 0.77411 0.30247 0.0
C932 C 0.56633 0.74427 0.34504 0.0
C933 C 0.55974 0.7446 0.43322 0.0
H934 H 0.57262 0.75833 0.21446 0.0
H935 H 0.57213 0.73344 0.32649 0.0
S936 S 0.5396 0.77995 0.51995 0.0
N937 N 0.54613 0.78754 0.41518 0.0
N938 N 0.54481 0.7602 0.53582 0.0
C939 C 0.55221 0.75892 0.45381 0.0
C940 C 0.55299 0.77381 0.38862 0.0
C941 C 0.23159 0.80022 0.42467 0.0
C942 C 0.24593 0.82208 0.40455 0.0
C943 C 0.21672 0.78635 0.36175 0.0
C944 C 0.21593 0.7936 0.27548 0.0
H945 H 0.23105 0.79392 0.49091 0.0
H946 H 0.20555 0.76987 0.38144 0.0
S947 S 0.25182 0.84852 0.18511 0.0
N948 N 0.25962 0.84983 0.28973 0.0
N949 N 0.232 0.82352 0.1703 0.0
C950 C 0.23108 0.815 0.25238 0.0
C951 C 0.24601 0.82929 0.31716 0.0
C952 C 0.17721 0.40254 0.36822 0.0
C953 C 0.17846 0.41966 0.41887 0.0
C954 C 0.19423 0.40552 0.31295 0.0
C955 C 0.21302 0.4258 0.30508 0.0
H956 H 0.16357 0.38637 0.37515 0.0
H957 H 0.19286 0.39164 0.27805 0.0
S958 S 0.22308 0.47651 0.41438 0.0
N959 N 0.19911 0.45806 0.45117 0.0
N960 N 0.23102 0.46376 0.34613 0.0
C961 C 0.21386 0.4434 0.35041 0.0
C962 C 0.19659 0.44031 0.40754 0.0
C963 C 0.44543 0.89224 0.44466 0.0
C964 C 0.44935 0.90438 0.52315 0.0
C965 C 0.42878 0.88887 0.38637 0.0
C966 C 0.41552 0.89781 0.40315 0.0
H967 H 0.45544 0.8854 0.42732 0.0
H968 H 0.42696 0.87991 0.32571 0.0
S969 S 0.41785 0.92936 0.60362 0.0
N970 N 0.43759 0.92406 0.61825 0.0
N971 N 0.40645 0.91804 0.50782 0.0
C972 C 0.41862 0.90918 0.48353 0.0
C973 C 0.4355 0.91243 0.54356 0.0
C974 C 0.10334 0.54682 0.41096 0.0
C975 C 0.08967 0.53837 0.4854 0.0
C976 C 0.1069 0.53351 0.35375 0.0
C977 C 0.09657 0.51105 0.36725 0.0
H978 H 0.11127 0.56391 0.39591 0.0
H979 H 0.11718 0.5409 0.29632 0.0
S980 S 0.06089 0.48112 0.55801 0.0
N981 N 0.06726 0.50642 0.57456 0.0
N982 N 0.07345 0.48119 0.46555 0.0
C983 C 0.08372 0.5025 0.44421 0.0
C984 C 0.08034 0.51619 0.50343 0.0
C985 C 0.4737 0.5548 0.51425 0.0
C986 C 0.45158 0.54271 0.49427 0.0
C987 C 0.48879 0.56728 0.44858 0.0
C988 C 0.48222 0.56854 0.36139 0.0
H989 H 0.47949 0.55392 0.58002 0.0
H990 H 0.50576 0.57556 0.46569 0.0
S991 S 0.42574 0.54162 0.27842 0.0
N992 N 0.42363 0.53379 0.38337 0.0
N993 N 0.45176 0.55777 0.26077 0.0
C994 C 0.45996 0.55747 0.34223 0.0
C995 C 0.4447 0.54438 0.40845 0.0
C996 C 0.09967 0.58145 0.9356 0.0
C997 C 0.10604 0.58088 0.84729 0.0
C998 C 0.09827 0.56647 -0.00065 0.0
C999 C 0.10281 0.55009 0.97678 0.0
H1000 H 0.09495 0.59308 0.95499 0.0
H1001 H 0.09269 0.56718 0.06577 0.0
S1002 S 0.12272 0.54295 0.75824 0.0
N1003 N 0.11919 0.56382 0.74353 0.0
N1004 N 0.11585 0.53532 0.86277 0.0
C1005 C 0.11026 0.54995 0.89023 0.0
C1006 C 0.11212 0.56547 0.82573 0.0
C1007 C 0.43356 0.51459 0.00385 0.0
C1008 C 0.44696 0.53692 0.991 0.0
C1009 C 0.41557 0.50253 0.94932 0.0
C1010 C 0.41026 0.51237 0.88011 0.0
H1011 H 0.43753 0.50615 0.05363 0.0
H1012 H 0.40662 0.48519 0.95817 0.0
S1013 S 0.43781 0.57101 0.83015 0.0
N1014 N 0.45205 0.56885 0.91196 0.0
N1015 N 0.41811 0.54624 0.81025 0.0
C1016 C 0.42249 0.53496 0.87163 0.0
C1017 C 0.44092 0.54721 0.92661 0.0
C1018 C 0.48492 0.89997 0.97626 0.0
C1019 C 0.47727 0.89111 0.8912 0.0
C1020 C 0.47144 0.90184 0.03894 0.0
C1021 C 0.44979 0.89511 0.01882 0.0
H1022 H 0.50173 0.90639 0.9935 0.0
H1023 H 0.47833 0.90946 0.10225 0.0
S1024 S 0.4209 0.86813 0.8103 0.0
N1025 N 0.44583 0.87332 0.79404 0.0
N1026 N 0.42068 0.8772 0.91122 0.0
C1027 C 0.44154 0.88502 0.93616 0.0
C1028 C 0.4552 0.88287 0.87266 0.0
C1029 C 0.22073 0.43727 0.87323 0.0
C1030 C 0.22065 0.43045 0.78538 0.0
C1031 C 0.23578 0.43843 0.93556 0.0
C1032 C 0.25112 0.43237 0.91298 0.0
H1033 H 0.20858 0.44107 0.895 0.0
H1034 H 0.2344 0.44279 0.00341 0.0
S1035 S 0.25956 0.41621 0.68813 0.0
N1036 N 0.23873 0.41992 0.67578 0.0
N1037 N 0.26684 0.42165 0.79374 0.0
C1038 C 0.25219 0.42698 0.82362 0.0
C1039 C 0.237 0.42611 0.75961 0.0
C1040 C 0.56057 0.77994 0.86733 0.0
C1041 C 0.5751 0.78848 0.79563 0.0
C1042 C 0.55742 0.79334 0.92561 0.0
C1043 C 0.56903 0.81594 0.91586 0.0
H1044 H 0.55174 0.76271 0.87961 0.0
H1045 H 0.54651 0.78587 0.98123 0.0
S1046 S 0.60733 0.84625 0.73269 0.0
N1047 N 0.59973 0.82076 0.71268 0.0
N1048 N 0.59421 0.84612 0.82345 0.0
C1049 C 0.5827 0.82464 0.84122 0.0
C1050 C 0.58569 0.81088 0.78099 0.0
C1051 C 0.21466 0.78372 0.85309 0.0
C1052 C 0.2065 0.78823 0.77586 0.0
C1053 C 0.20108 0.76743 0.91227 0.0
C1054 C 0.17866 0.75526 0.89787 0.0
H1055 H 0.23168 0.79307 0.86889 0.0
H1056 H 0.20822 0.76509 0.97189 0.0
S1057 S 0.14952 0.75914 0.70005 0.0
N1058 N 0.17489 0.7779 0.68336 0.0
N1059 N 0.14922 0.74754 0.79571 0.0
C1060 C 0.17044 0.75878 0.81816 0.0
C1061 C 0.18438 0.77523 0.75707 0.0
C1062 C 0.34208 0.13663 0.90659 0.0
C1063 C 0.35521 0.12893 0.87179 0.0
C1064 C 0.32137 0.1225 0.93909 0.0
C1065 C 0.3128 0.1 0.93823 0.0
H1066 H 0.34784 0.15378 0.9096 0.0
H1067 H 0.31201 0.12939 0.9649 0.0
S1068 S 0.34048 0.07141 0.85343 0.0
N1069 N 0.35807 0.09721 0.83787 0.0
N1070 N 0.31912 0.07064 0.89897 0.0
C1071 C 0.32571 0.09201 0.90338 0.0
C1072 C 0.34687 0.10646 0.87013 0.0
C1073 C 0.88367 0.22884 0.0157 0.0
C1074 C 0.89419 0.2186 0.97817 0.0
C1075 C 0.87379 0.2374 0.96165 0.0
C1076 C 0.87366 0.23565 0.86798 0.0
H1077 H 0.88284 0.23003 0.08749 0.0
H1078 H 0.86559 0.24482 0.99388 0.0
S1079 S 0.89931 0.21071 0.73628 0.0
N1080 N 0.90437 0.20769 0.84113 0.0
N1081 N 0.88546 0.22345 0.73993 0.0
C1082 C 0.88441 0.22577 0.82948 0.0
C1083 C 0.89478 0.21736 0.88443 0.0
C1084 C 0.76788 0.66275 0.90257 0.0
C1085 C 0.77323 0.6561 0.82282 0.0
C1086 C 0.78103 0.68357 0.9369 0.0
C1087 C 0.80022 0.6984 0.89361 0.0
H1088 H 0.75361 0.65166 0.93982 0.0
H1089 H 0.77642 0.68785 -0.0009 0.0
S1090 S 0.82087 0.68977 0.67948 0.0
N1091 N 0.79855 0.66671 0.69879 0.0
N1092 N 0.82327 0.70556 0.76396 0.0
C1093 C 0.80546 0.69223 0.81256 0.0
C1094 C 0.79196 0.67118 0.77693 0.0
C1095 C 0.11688 0.338 0.60101 0.0
C1096 C 0.13709 0.34659 0.64302 0.0
C1097 C 0.1055 0.31641 0.57336 0.0
C1098 C 0.11381 0.30249 0.58716 0.0
H1099 H 0.10995 0.34814 0.58755 0.0
H1100 H 0.09011 0.31066 0.54056 0.0
S1101 S 0.1655 0.31674 0.70005 0.0
N1102 N 0.16452 0.33928 0.70095 0.0
N1103 N 0.14323 0.29877 0.64949 0.0
C1104 C 0.13383 0.31079 0.63099 0.0
C1105 C 0.14543 0.3328 0.65876 0.0
C1106 C 0.66558 0.77541 0.51137 0.0
C1107 C 0.68498 0.78375 0.5594 0.0
C1108 C 0.64557 0.76473 0.55464 0.0
C1109 C 0.64407 0.76208 0.64806 0.0
H1110 H 0.66579 0.77739 0.43965 0.0
H1111 H 0.63118 0.75898 0.5143 0.0
S1112 S 0.69007 0.78012 0.80486 0.0
N1113 N 0.70142 0.78791 0.70576 0.0
N1114 N 0.66383 0.76796 0.78698 0.0
C1115 C 0.66333 0.76984 0.69687 0.0
C1116 C 0.68375 0.78062 0.65263 0.0
C1117 C 0.23409 0.90915 0.51321 0.0
C1118 C 0.21411 0.90749 0.53226 0.0
C1119 C 0.24058 0.89593 0.55643 0.0
C1120 C 0.22741 0.88066 0.62108 0.0
H1121 H 0.24463 0.92043 0.46314 0.0
H1122 H 0.25589 0.89749 0.53765 0.0
S1123 S 0.17452 0.87173 0.70225 0.0
N1124 N 0.18185 0.89052 0.62481 0.0
N1125 N 0.19405 0.86585 0.70637 0.0
C1126 C 0.2077 0.87941 0.64301 0.0
C1127 C 0.20105 0.89276 0.59853 0.0
C1128 C 0.66726 0.85857 0.99537 0.0
C1129 C 0.68111 0.88024 0.01913 0.0
C1130 C 0.6461 0.84706 0.02747 0.0
C1131 C 0.63778 0.85669 0.0848 0.0
H1132 H 0.67281 0.85023 0.95207 0.0
H1133 H 0.63622 0.83042 0.00684 0.0
S1134 S 0.66715 0.9132 0.16636 0.0
N1135 N 0.68481 0.91106 0.10281 0.0
N1136 N 0.64497 0.88937 0.16312 0.0
C1137 C 0.6513 0.87845 0.10836 0.0
C1138 C 0.67294 0.89022 0.07556 0.0
C1139 C 0.13415 0.79517 0.02777 0.0
C1140 C 0.1265 0.77473 0.06679 0.0
C1141 C 0.11998 0.8018 0.9965 0.0
C1142 C 0.09747 0.7883 0.00257 0.0
H1143 H 0.1513 0.8063 0.02147 0.0
H1144 H 0.12684 0.81781 0.96791 0.0
S1145 S 0.06899 0.73282 0.09668 0.0
N1146 N 0.09483 0.74073 0.10808 0.0
N1147 N 0.06815 0.7532 0.0492 0.0
C1148 C 0.08952 0.76766 0.04041 0.0
C1149 C 0.10402 0.7609 0.07262 0.0
C1150 C 0.22021 0.32768 0.16276 0.0
C1151 C 0.22994 0.34685 0.11266 0.0
C1152 C 0.21003 0.30749 0.12107 0.0
C1153 C 0.2089 0.30562 0.0274 0.0
H1154 H 0.22008 0.32823 0.23498 0.0
H1155 H 0.20236 0.29327 0.16304 0.0
S1156 S 0.23291 0.35097 0.86533 0.0
N1157 N 0.23876 0.36275 0.96403 0.0
N1158 N 0.21943 0.3248 0.88563 0.0
C1159 C 0.21922 0.32467 0.97633 0.0
C1160 C 0.22979 0.34528 0.01893 0.0
C1161 C 0.90676 0.6604 0.41568 0.0
C1162 C 0.89222 0.65608 0.3448 0.0
C1163 C 0.91729 0.68066 0.45734 0.0
C1164 C 0.91331 0.69718 0.4309 0.0
H1165 H 0.90981 0.64794 0.44022 0.0
H1166 H 0.92814 0.68319 0.51226 0.0
S1167 S 0.87805 0.69491 0.24463 0.0
N1168 N 0.87555 0.67071 0.2465 0.0
N1169 N 0.89494 0.70847 0.32603 0.0
C1170 C 0.89929 0.69332 0.3587 0.0
C1171 C 0.88887 0.67287 0.31525 0.0
C1172 C 0.30889 0.21703 0.38974 0.0
C1173 C 0.30726 0.21012 0.4789 0.0
C1174 C 0.32891 0.22847 0.34691 0.0
C1175 C 0.34818 0.23371 0.39161 0.0
H1176 H 0.29454 0.21308 0.35154 0.0
H1177 H 0.32919 0.23299 0.2777 0.0
S1178 S 0.35295 0.22061 0.62763 0.0
N1179 N 0.32679 0.21022 0.61184 0.0
N1180 N 0.36443 0.23186 0.53177 0.0
C1181 C 0.34687 0.22753 0.4818 0.0
C1182 C 0.32643 0.2157 0.52525 0.0
C1183 C 0.81348 0.13345 0.4397 0.0
C1184 C 0.80101 0.11095 0.45118 0.0
C1185 C 0.8047 0.14531 0.4028 0.0
C1186 C 0.78304 0.13522 0.37519 0.0
H1187 H 0.83025 0.14213 0.45982 0.0
H1188 H 0.81503 0.1626 0.39648 0.0
S1189 S 0.74353 0.07651 0.38751 0.0
N1190 N 0.76591 0.07889 0.42974 0.0
N1191 N 0.74934 0.10119 0.36007 0.0
C1192 C 0.7704 0.11265 0.38476 0.0
C1193 C 0.77937 0.10054 0.42293 0.0
C1194 C 0.99504 0.43285 0.23659 0.0
C1195 C 0.9891 0.44007 0.31309 0.0
C1196 C 0.01486 0.44586 0.19381 0.0
C1197 C 0.02931 0.46676 0.22486 0.0
H1198 H 0.98417 0.4171 0.20879 0.0
H1199 H 0.01869 0.43966 0.13495 0.0
S1200 S 0.02195 0.49312 0.42446 0.0
N1201 N -0.0002 0.46931 0.41989 0.0
N1202 N 0.03674 0.49377 0.33888 0.0
C1203 C 0.02376 0.47405 0.30213 0.0
C1204 C 0.00377 0.4607 0.34646 0.0
C1205 C 0.57006 0.5723 0.22413 0.0
C1206 C 0.55299 0.56447 0.16233 0.0
C1207 C 0.57767 0.55902 0.25734 0.0
C1208 C 0.56848 0.5374 0.23004 0.0
H1209 H 0.5771 0.58857 0.2498 0.0
H1210 H 0.59035 0.56556 0.30701 0.0
S1211 S 0.52571 0.51005 0.05902 0.0
N1212 N 0.52872 0.53439 0.06786 0.0
N1213 N 0.54304 0.50948 0.13 0.0
C1214 C 0.55222 0.52972 0.16454 0.0
C1215 C 0.54448 0.54324 0.13075 0.0
C1216 C 0.41398 0.98431 0.2118 0.0
C1217 C 0.41825 0.96759 0.23088 0.0
C1218 C 0.42508 0.00422 0.25606 0.0
C1219 C 0.44044 0.00791 0.32262 0.0
H1220 H 0.40231 0.98217 0.16098 0.0
H1221 H 0.42169 0.01686 0.23759 0.0
S1222 S 0.45631 0.96859 0.4018 0.0
N1223 N 0.43826 0.95564 0.32322 0.0
N1224 N 0.45867 0.9927 0.40768 0.0
C1225 C 0.44432 0.991 0.34428 0.0
C1226 C 0.43336 0.97095 0.29801 0.0
C1227 C 0.55849 0.99126 0.83235 0.0
C1228 C 0.56914 0.01134 0.78888 0.0
C1229 C 0.54666 0.97207 0.78422 0.0
C1230 C 0.54466 0.97222 0.69073 0.0
H1231 H 0.55896 0.99036 0.90442 0.0
H1232 H 0.53844 0.95706 0.82117 0.0
S1233 S 0.57011 0.02051 0.54434 0.0
N1234 N 0.57763 0.03016 0.64612 0.0
N1235 N 0.55507 0.99412 0.55607 0.0
C1236 C 0.55563 0.99214 0.64609 0.0
C1237 C 0.56798 0.01168 0.69501 0.0
C1238 C 0.02574 0.57344 0.75188 0.0
C1239 C 0.02644 0.57976 0.66233 0.0
C1240 C 0.00671 0.56476 0.80188 0.0
C1241 C 0.98742 0.5619 0.76467 0.0
H1242 H 0.03996 0.57481 0.78368 0.0
H1243 H 0.00706 0.55965 0.86963 0.0
S1244 S 0.98081 0.57729 0.5348 0.0
N1245 N 0.00636 0.58371 0.53992 0.0
N1246 N 0.9705 0.56733 0.63377 0.0
C1247 C 0.98803 0.56896 0.67623 0.0
C1248 C 0.00752 0.57788 0.62517 0.0
C1249 C 0.41978 0.43874 0.72711 0.0
C1250 C 0.42847 0.45995 0.7589 0.0
C1251 C 0.42652 0.42485 0.7617 0.0
C1252 C 0.44217 0.43162 0.82961 0.0
H1253 H 0.40816 0.43297 0.67319 0.0
H1254 H 0.41994 0.40897 0.73246 0.0
S1255 S 0.4677 0.48466 0.94471 0.0
N1256 N 0.45197 0.48635 0.86858 0.0
N1257 N 0.46456 0.46032 0.93349 0.0
C1258 C 0.4501 0.45242 0.86539 0.0
C1259 C 0.4433 0.46656 0.83001 0.0
loop_
_geom_bond_atom_site_label_1
_geom_bond_atom_site_label_2
_geom_bond_distance
_geom_bond_site_symmetry_2
_ccdc_geom_bond_type
C0 O1 1.160 . S
C0 O7 1.185 . S
O1 C0 1.160 . S
O2 Zn3 1.899 1_556 S
O2 C10 1.284 1_556 S
Zn3 O2 1.899 1_554 S
Zn3 O4 2.032 . S
Zn3 O7 2.086 . S
Zn3 O12 1.977 1_554 S
O4 Zn3 2.032 . S
O4 C8 1.278 . S
C5 O6 1.203 . S
C5 O12 1.267 . S
O6 C5 1.203 . S
O7 C0 1.185 . S
O7 Zn3 2.086 . S
C8 O4 1.278 . S
C8 O9 1.211 . S
O9 C8 1.211 . S
C10 O2 1.284 1_554 S
C10 O11 1.273 . S
O11 C10 1.273 . S
O12 Zn3 1.977 1_556 S
O12 C5 1.267 . S
C13 O14 1.160 . S
C13 O20 1.185 . S
O14 C13 1.160 . S
O15 Zn16 1.899 1_556 S
O15 C23 1.284 1_556 S
Zn16 O15 1.899 1_554 S
Zn16 O17 2.032 . S
Zn16 O20 2.086 . S
Zn16 O25 1.977 1_554 S
O17 Zn16 2.032 . S
O17 C21 1.278 . S
C18 O19 1.203 . S
C18 O25 1.267 . S
O19 C18 1.203 . S
O20 C13 1.185 . S
O20 Zn16 2.086 . S
C21 O17 1.278 . S
C21 O22 1.211 . S
O22 C21 1.211 . S
C23 O15 1.284 1_554 S
C23 O24 1.273 . S
O24 C23 1.273 . S
O25 Zn16 1.977 1_556 S
O25 C18 1.267 . S
C26 O27 1.160 . S
C26 O33 1.185 . S
O27 C26 1.160 . S
O28 Zn29 1.899 1_556 S
O28 C36 1.284 1_556 S
Zn29 O28 1.899 1_554 S
Zn29 O30 2.032 . S
Zn29 O33 2.086 . S
Zn29 O38 1.977 1_554 S
O30 Zn29 2.032 . S
O30 C34 1.278 . S
C31 O32 1.203 . S
C31 O38 1.267 . S
O32 C31 1.203 . S
O33 C26 1.185 . S
O33 Zn29 2.086 . S
C34 O30 1.278 . S
C34 O35 1.211 . S
O35 C34 1.211 . S
C36 O28 1.284 1_554 S
C36 O37 1.273 . S
O37 C36 1.273 . S
O38 Zn29 1.977 1_556 S
O38 C31 1.267 . S
C39 O40 1.160 . S
C39 O46 1.185 . S
O40 C39 1.160 . S
O41 Zn42 1.899 . S
O41 C49 1.284 . S
Zn42 O41 1.899 . S
Zn42 O43 2.032 . S
Zn42 O46 2.086 . S
Zn42 O51 1.977 . S
O43 Zn42 2.032 . S
O43 C47 1.278 . S
C44 O45 1.203 . S
C44 O51 1.267 . S
O45 C44 1.203 . S
O46 C39 1.185 . S
O46 Zn42 2.086 . S
C47 O43 1.278 . S
C47 O48 1.211 . S
O48 C47 1.211 . S
C49 O41 1.284 . S
C49 O50 1.273 . S
O50 C49 1.273 . S
O51 Zn42 1.977 . S
O51 C44 1.267 . S
C52 O53 1.160 . S
C52 O59 1.185 . S
O53 C52 1.160 . S
O54 Zn55 1.899 . S
O54 C62 1.284 . S
Zn55 O54 1.899 . S
Zn55 O56 2.032 . S
Zn55 O59 2.086 . S
Zn55 O64 1.977 . S
O56 Zn55 2.032 . S
O56 C60 1.278 . S
C57 O58 1.203 . S
C57 O64 1.267 . S
O58 C57 1.203 . S
O59 C52 1.185 . S
O59 Zn55 2.086 . S
C60 O56 1.278 . S
C60 O61 1.211 . S
O61 C60 1.211 . S
C62 O54 1.284 . S
C62 O63 1.273 . S
O63 C62 1.273 . S
O64 Zn55 1.977 . S
O64 C57 1.267 . S
C65 O66 1.160 . S
C65 O72 1.185 . S
O66 C65 1.160 . S
O67 Zn68 1.899 . S
O67 C75 1.284 . S
Zn68 O67 1.899 . S
Zn68 O69 2.032 . S
Zn68 O72 2.086 . S
Zn68 O77 1.977 . S
O69 Zn68 2.032 . S
O69 C73 1.278 . S
C70 O71 1.203 . S
C70 O77 1.267 . S
O71 C70 1.203 . S
O72 C65 1.185 . S
O72 Zn68 2.086 . S
C73 O69 1.278 . S
C73 O74 1.211 . S
O74 C73 1.211 . S
C75 O67 1.284 . S
C75 O76 1.273 . S
O76 C75 1.273 . S
O77 Zn68 1.977 . S
O77 C70 1.267 . S
C78 O79 1.160 . S
C78 O85 1.185 . S
O79 C78 1.160 . S
O80 Zn81 1.899 1_554 S
O80 C88 1.284 1_554 S
Zn81 O80 1.899 1_556 S
Zn81 O82 2.032 . S
Zn81 O85 2.086 . S
Zn81 O90 1.977 1_556 S
O82 Zn81 2.032 . S
O82 C86 1.278 . S
C83 O84 1.203 . S
C83 O90 1.267 . S
O84 C83 1.203 . S
O85 C78 1.185 . S
O85 Zn81 2.086 . S
C86 O82 1.278 . S
C86 O87 1.211 . S
O87 C86 1.211 . S
C88 O80 1.284 1_556 S
C88 O89 1.273 . S
O89 C88 1.273 . S
O90 Zn81 1.977 1_554 S
O90 C83 1.267 . S
C91 O92 1.160 . S
C91 O98 1.185 . S
O92 C91 1.160 . S
O93 Zn94 1.899 1_554 S
O93 C101 1.284 1_554 S
Zn94 O93 1.899 1_556 S
Zn94 O95 2.032 . S
Zn94 O98 2.086 . S
Zn94 O103 1.977 1_556 S
O95 Zn94 2.032 . S
O95 C99 1.278 . S
C96 O97 1.203 . S
C96 O103 1.267 . S
O97 C96 1.203 . S
O98 C91 1.185 . S
O98 Zn94 2.086 . S
C99 O95 1.278 . S
C99 O100 1.211 . S
O100 C99 1.211 . S
C101 O93 1.284 1_556 S
C101 O102 1.273 . S
O102 C101 1.273 . S
O103 Zn94 1.977 1_554 S
O103 C96 1.267 . S
C104 O105 1.160 . S
C104 O111 1.185 . S
O105 C104 1.160 . S
O106 Zn107 1.899 1_554 S
O106 C114 1.284 1_554 S
Zn107 O106 1.899 1_556 S
Zn107 O108 2.032 . S
Zn107 O111 2.086 . S
Zn107 O116 1.977 1_556 S
O108 Zn107 2.032 . S
O108 C112 1.278 . S
C109 O110 1.203 . S
C109 O116 1.267 . S
O110 C109 1.203 . S
O111 C104 1.185 . S
O111 Zn107 2.086 . S
C112 O108 1.278 . S
C112 O113 1.211 . S
O113 C112 1.211 . S
C114 O106 1.284 1_556 S
C114 O115 1.273 . S
O115 C114 1.273 . S
O116 Zn107 1.977 1_554 S
O116 C109 1.267 . S
C117 O118 1.160 . S
C117 O124 1.185 . S
O118 C117 1.160 . S
O119 Zn120 1.899 . S
O119 C127 1.284 . S
Zn120 O119 1.899 . S
Zn120 O121 2.032 . S
Zn120 O124 2.086 . S
Zn120 O129 1.977 . S
O121 Zn120 2.032 . S
O121 C125 1.278 . S
C122 O123 1.203 . S
C122 O129 1.267 . S
O123 C122 1.203 . S
O124 C117 1.185 . S
O124 Zn120 2.086 . S
C125 O121 1.278 . S
C125 O126 1.211 . S
O126 C125 1.211 . S
C127 O119 1.284 . S
C127 O128 1.273 . S
O128 C127 1.273 . S
O129 Zn120 1.977 . S
O129 C122 1.267 . S
C130 O131 1.160 . S
C130 O137 1.185 . S
O131 C130 1.160 . S
O132 Zn133 1.899 . S
O132 C140 1.284 . S
Zn133 O132 1.899 . S
Zn133 O134 2.032 . S
Zn133 O137 2.086 . S
Zn133 O142 1.977 . S
O134 Zn133 2.032 . S
O134 C138 1.278 . S
C135 O136 1.203 . S
C135 O142 1.267 . S
O136 C135 1.203 . S
O137 C130 1.185 . S
O137 Zn133 2.086 . S
C138 O134 1.278 . S
C138 O139 1.211 . S
O139 C138 1.211 . S
C140 O132 1.284 . S
C140 O141 1.273 . S
O141 C140 1.273 . S
O142 Zn133 1.977 . S
O142 C135 1.267 . S
C143 O144 1.160 . S
C143 O150 1.185 . S
O144 C143 1.160 . S
O145 Zn146 1.899 . S
O145 C153 1.284 . S
Zn146 O145 1.899 . S
Zn146 O147 2.032 . S
Zn146 O150 2.086 . S
Zn146 O155 1.977 . S
O147 Zn146 2.032 . S
O147 C151 1.278 . S
C148 O149 1.203 . S
C148 O155 1.267 . S
O149 C148 1.203 . S
O150 C143 1.185 . S
O150 Zn146 2.086 . S
C151 O147 1.278 . S
C151 O152 1.211 . S
O152 C151 1.211 . S
C153 O145 1.284 . S
C153 O154 1.273 . S
O154 C153 1.273 . S
O155 Zn146 1.977 . S
O155 C148 1.267 . S
C156 O157 1.160 . S
C156 O163 1.185 . S
O157 C156 1.160 . S
O158 Zn159 1.899 . S
O158 C166 1.284 . S
Zn159 O158 1.899 . S
Zn159 O160 2.032 . S
Zn159 O163 2.086 . S
Zn159 O168 1.977 . S
O160 Zn159 2.032 . S
O160 C164 1.278 . S
C161 O162 1.203 . S
C161 O168 1.267 . S
O162 C161 1.203 . S
O163 C156 1.185 . S
O163 Zn159 2.086 . S
C164 O160 1.278 . S
C164 O165 1.211 . S
O165 C164 1.211 . S
C166 O158 1.284 . S
C166 O167 1.273 . S
O167 C166 1.273 . S
O168 Zn159 1.977 . S
O168 C161 1.267 . S
C169 O170 1.160 . S
C169 O176 1.185 . S
O170 C169 1.160 . S
O171 Zn172 1.899 . S
O171 C179 1.284 . S
Zn172 O171 1.899 . S
Zn172 O173 2.032 . S
Zn172 O176 2.086 . S
Zn172 O181 1.977 . S
O173 Zn172 2.032 . S
O173 C177 1.278 . S
C174 O175 1.203 . S
C174 O181 1.267 . S
O175 C174 1.203 . S
O176 C169 1.185 . S
O176 Zn172 2.086 . S
C177 O173 1.278 . S
C177 O178 1.211 . S
O178 C177 1.211 . S
C179 O171 1.284 . S
C179 O180 1.273 . S
O180 C179 1.273 . S
O181 Zn172 1.977 . S
O181 C174 1.267 . S
C182 O183 1.160 . S
C182 O189 1.185 . S
O183 C182 1.160 . S
O184 Zn185 1.899 . S
O184 C192 1.284 . S
Zn185 O184 1.899 . S
Zn185 O186 2.032 . S
Zn185 O189 2.086 . S
Zn185 O194 1.977 . S
O186 Zn185 2.032 . S
O186 C190 1.278 . S
C187 O188 1.203 . S
C187 O194 1.267 . S
O188 C187 1.203 . S
O189 C182 1.185 . S
O189 Zn185 2.086 . S
C190 O186 1.278 . S
C190 O191 1.211 . S
O191 C190 1.211 . S
C192 O184 1.284 . S
C192 O193 1.273 . S
O193 C192 1.273 . S
O194 Zn185 1.977 . S
O194 C187 1.267 . S
C195 O196 1.160 . S
C195 O202 1.185 . S
O196 C195 1.160 . S
O197 Zn198 1.899 . S
O197 C205 1.284 . S
Zn198 O197 1.899 . S
Zn198 O199 2.032 . S
Zn198 O202 2.086 . S
Zn198 O207 1.977 . S
O199 Zn198 2.032 . S
O199 C203 1.278 . S
C200 O201 1.203 . S
C200 O207 1.267 . S
O201 C200 1.203 . S
O202 C195 1.185 . S
O202 Zn198 2.086 . S
C203 O199 1.278 . S
C203 O204 1.211 . S
O204 C203 1.211 . S
C205 O197 1.284 . S
C205 O206 1.273 . S
O206 C205 1.273 . S
O207 Zn198 1.977 . S
O207 C200 1.267 . S
C208 O209 1.160 . S
C208 O215 1.185 . S
O209 C208 1.160 . S
O210 Zn211 1.899 . S
O210 C218 1.284 . S
Zn211 O210 1.899 . S
Zn211 O212 2.032 . S
Zn211 O215 2.086 . S
Zn211 O220 1.977 . S
O212 Zn211 2.032 . S
O212 C216 1.278 . S
C213 O214 1.203 . S
C213 O220 1.267 . S
O214 C213 1.203 . S
O215 C208 1.185 . S
O215 Zn211 2.086 . S
C216 O212 1.278 . S
C216 O217 1.211 . S
O217 C216 1.211 . S
C218 O210 1.284 . S
C218 O219 1.273 . S
O219 C218 1.273 . S
O220 Zn211 1.977 . S
O220 C213 1.267 . S
C221 O222 1.160 . S
C221 O228 1.185 . S
O222 C221 1.160 . S
O223 Zn224 1.899 . S
O223 C231 1.284 . S
Zn224 O223 1.899 . S
Zn224 O225 2.032 . S
Zn224 O228 2.086 . S
Zn224 O233 1.977 . S
O225 Zn224 2.032 . S
O225 C229 1.278 . S
C226 O227 1.203 . S
C226 O233 1.267 . S
O227 C226 1.203 . S
O228 C221 1.185 . S
O228 Zn224 2.086 . S
C229 O225 1.278 . S
C229 O230 1.211 . S
O230 C229 1.211 . S
C231 O223 1.284 . S
C231 O232 1.273 . S
O232 C231 1.273 . S
O233 Zn224 1.977 . S
O233 C226 1.267 . S
C234 O235 1.160 . S
C234 O241 1.185 . S
O235 C234 1.160 . S
O236 Zn237 1.899 . S
O236 C244 1.284 . S
Zn237 O236 1.899 . S
Zn237 O238 2.032 . S
Zn237 O241 2.086 . S
Zn237 O246 1.977 . S
O238 Zn237 2.032 . S
O238 C242 1.278 . S
C239 O240 1.203 . S
C239 O246 1.267 . S
O240 C239 1.203 . S
O241 C234 1.185 . S
O241 Zn237 2.086 . S
C242 O238 1.278 . S
C242 O243 1.211 . S
O243 C242 1.211 . S
C244 O236 1.284 . S
C244 O245 1.273 . S
O245 C244 1.273 . S
O246 Zn237 1.977 . S
O246 C239 1.267 . S
C247 O248 1.160 . S
C247 O254 1.185 . S
O248 C247 1.160 . S
O249 Zn250 1.899 . S
O249 C257 1.284 . S
Zn250 O249 1.899 . S
Zn250 O251 2.032 . S
Zn250 O254 2.086 . S
Zn250 O259 1.977 . S
O251 Zn250 2.032 . S
O251 C255 1.278 . S
C252 O253 1.203 . S
C252 O259 1.267 . S
O253 C252 1.203 . S
O254 C247 1.185 . S
O254 Zn250 2.086 . S
C255 O251 1.278 . S
C255 O256 1.211 . S
O256 C255 1.211 . S
C257 O249 1.284 . S
C257 O258 1.273 . S
O258 C257 1.273 . S
O259 Zn250 1.977 . S
O259 C252 1.267 . S
C260 O261 1.160 . S
C260 O267 1.185 . S
O261 C260 1.160 . S
O262 Zn263 1.899 . S
O262 C270 1.284 . S
Zn263 O262 1.899 . S
Zn263 O264 2.032 . S
Zn263 O267 2.086 . S
Zn263 O272 1.977 . S
O264 Zn263 2.032 . S
O264 C268 1.278 . S
C265 O266 1.203 . S
C265 O272 1.267 . S
O266 C265 1.203 . S
O267 C260 1.185 . S
O267 Zn263 2.086 . S
C268 O264 1.278 . S
C268 O269 1.211 . S
O269 C268 1.211 . S
C270 O262 1.284 . S
C270 O271 1.273 . S
O271 C270 1.273 . S
O272 Zn263 1.977 . S
O272 C265 1.267 . S
C273 O274 1.160 . S
C273 O280 1.185 . S
O274 C273 1.160 . S
O275 Zn276 1.899 . S
O275 C283 1.284 . S
Zn276 O275 1.899 . S
Zn276 O277 2.032 . S
Zn276 O280 2.086 . S
Zn276 O285 1.977 . S
O277 Zn276 2.032 . S
O277 C281 1.278 . S
C278 O279 1.203 . S
C278 O285 1.267 . S
O279 C278 1.203 . S
O280 C273 1.185 . S
O280 Zn276 2.086 . S
C281 O277 1.278 . S
C281 O282 1.215 . S
O282 C281 1.215 . S
C283 O275 1.284 . S
C283 O284 1.273 . S
O284 C283 1.273 . S
O285 Zn276 1.977 . S
O285 C278 1.267 . S
C286 O287 1.160 . S
C286 O293 1.185 . S
O287 C286 1.160 . S
O288 Zn289 1.899 . S
O288 C296 1.284 . S
Zn289 O288 1.899 . S
Zn289 O290 2.032 . S
Zn289 O293 2.086 . S
Zn289 O298 1.977 . S
O290 Zn289 2.032 . S
O290 C294 1.278 . S
C291 O292 1.203 . S
C291 O298 1.267 . S
O292 C291 1.203 . S
O293 C286 1.185 . S
O293 Zn289 2.086 . S
C294 O290 1.278 . S
C294 O295 1.215 . S
O295 C294 1.215 . S
C296 O288 1.284 . S
C296 O297 1.273 . S
O297 C296 1.273 . S
O298 Zn289 1.977 . S
O298 C291 1.267 . S
C299 O300 1.160 . S
C299 O306 1.185 . S
O300 C299 1.160 . S
O301 Zn302 1.899 . S
O301 C309 1.284 . S
Zn302 O301 1.899 . S
Zn302 O303 2.032 . S
Zn302 O306 2.086 . S
Zn302 O311 1.977 . S
O303 Zn302 2.032 . S
O303 C307 1.278 . S
C304 O305 1.203 . S
C304 O311 1.267 . S
O305 C304 1.203 . S
O306 C299 1.185 . S
O306 Zn302 2.086 . S
C307 O303 1.278 . S
C307 O308 1.215 . S
O308 C307 1.215 . S
C309 O301 1.284 . S
C309 O310 1.273 . S
O310 C309 1.273 . S
O311 Zn302 1.977 . S
O311 C304 1.267 . S
C312 O313 1.160 . S
C312 O319 1.185 . S
O313 C312 1.160 . S
O314 Zn315 1.899 . S
O314 C322 1.284 . S
Zn315 O314 1.899 . S
Zn315 O316 2.032 . S
Zn315 O319 2.086 . S
Zn315 O324 1.977 . S
O316 Zn315 2.032 . S
O316 C320 1.278 . S
C317 O318 1.203 . S
C317 O324 1.267 . S
O318 C317 1.203 . S
O319 C312 1.185 . S
O319 Zn315 2.086 . S
C320 O316 1.278 . S
C320 O321 1.211 . S
O321 C320 1.211 . S
C322 O314 1.284 . S
C322 O323 1.273 . S
O323 C322 1.273 . S
O324 Zn315 1.977 . S
O324 C317 1.267 . S
C325 O326 1.160 . S
C325 O332 1.185 . S
O326 C325 1.160 . S
O327 Zn328 1.899 . S
O327 C335 1.284 . S
Zn328 O327 1.899 . S
Zn328 O329 2.032 . S
Zn328 O332 2.086 . S
Zn328 O337 1.977 . S
O329 Zn328 2.032 . S
O329 C333 1.278 . S
C330 O331 1.203 . S
C330 O337 1.267 . S
O331 C330 1.203 . S
O332 C325 1.185 . S
O332 Zn328 2.086 . S
C333 O329 1.278 . S
C333 O334 1.211 . S
O334 C333 1.211 . S
C335 O327 1.284 . S
C335 O336 1.273 . S
O336 C335 1.273 . S
O337 Zn328 1.977 . S
O337 C330 1.267 . S
C338 O339 1.160 . S
C338 O345 1.185 . S
O339 C338 1.160 . S
O340 Zn341 1.899 . S
O340 C348 1.284 . S
Zn341 O340 1.899 . S
Zn341 O342 2.032 . S
Zn341 O345 2.086 . S
Zn341 O350 1.977 . S
O342 Zn341 2.032 . S
O342 C346 1.278 . S
C343 O344 1.203 . S
C343 O350 1.267 . S
O344 C343 1.203 . S
O345 C338 1.185 . S
O345 Zn341 2.086 . S
C346 O342 1.278 . S
C346 O347 1.211 . S
O347 C346 1.211 . S
C348 O340 1.284 . S
C348 O349 1.273 . S
O349 C348 1.273 . S
O350 Zn341 1.977 . S
O350 C343 1.267 . S
C351 O352 1.160 . S
C351 O358 1.185 . S
O352 C351 1.160 . S
O353 Zn354 1.899 . S
O353 C361 1.284 . S
Zn354 O353 1.899 . S
Zn354 O355 2.032 . S
Zn354 O358 2.086 . S
Zn354 O363 1.977 . S
O355 Zn354 2.032 . S
O355 C359 1.278 . S
C356 O357 1.203 . S
C356 O363 1.267 . S
O357 C356 1.203 . S
O358 C351 1.185 . S
O358 Zn354 2.086 . S
C359 O355 1.278 . S
C359 O360 1.215 . S
O360 C359 1.215 . S
C361 O353 1.284 . S
C361 O362 1.273 . S
O362 C361 1.273 . S
O363 Zn354 1.977 . S
O363 C356 1.267 . S
C364 O365 1.160 . S
C364 O371 1.185 . S
O365 C364 1.160 . S
O366 Zn367 1.899 . S
O366 C374 1.284 . S
Zn367 O366 1.899 . S
Zn367 O368 2.032 . S
Zn367 O371 2.086 . S
Zn367 O376 1.977 . S
O368 Zn367 2.032 . S
O368 C372 1.278 . S
C369 O370 1.203 . S
C369 O376 1.267 . S
O370 C369 1.203 . S
O371 C364 1.185 . S
O371 Zn367 2.086 . S
C372 O368 1.278 . S
C372 O373 1.215 . S
O373 C372 1.215 . S
C374 O366 1.284 . S
C374 O375 1.273 . S
O375 C374 1.273 . S
O376 Zn367 1.977 . S
O376 C369 1.267 . S
C377 O378 1.160 . S
C377 O384 1.185 . S
O378 C377 1.160 . S
O379 Zn380 1.899 . S
O379 C387 1.284 . S
Zn380 O379 1.899 . S
Zn380 O381 2.032 . S
Zn380 O384 2.086 . S
Zn380 O389 1.977 . S
O381 Zn380 2.032 . S
O381 C385 1.278 . S
C382 O383 1.203 . S
C382 O389 1.267 . S
O383 C382 1.203 . S
O384 C377 1.185 . S
O384 Zn380 2.086 . S
C385 O381 1.278 . S
C385 O386 1.215 . S
O386 C385 1.215 . S
C387 O379 1.284 . S
C387 O388 1.273 . S
O388 C387 1.273 . S
O389 Zn380 1.977 . S
O389 C382 1.267 . S
C390 O391 1.160 . S
C390 O397 1.185 . S
O391 C390 1.160 . S
O392 Zn393 1.899 . S
O392 C400 1.284 . S
Zn393 O392 1.899 . S
Zn393 O394 2.032 . S
Zn393 O397 2.086 . S
Zn393 O402 1.977 . S
O394 Zn393 2.032 . S
O394 C398 1.278 . S
C395 O396 1.203 . S
C395 O402 1.267 . S
O396 C395 1.203 . S
O397 C390 1.185 . S
O397 Zn393 2.086 . S
C398 O394 1.278 . S
C398 O399 1.211 . S
O399 C398 1.211 . S
C400 O392 1.284 . S
C400 O401 1.273 . S
O401 C400 1.273 . S
O402 Zn393 1.977 . S
O402 C395 1.267 . S
C403 O404 1.160 . S
C403 O410 1.185 . S
O404 C403 1.160 . S
O405 Zn406 1.899 . S
O405 C413 1.284 . S
Zn406 O405 1.899 . S
Zn406 O407 2.032 . S
Zn406 O410 2.086 . S
Zn406 O415 1.977 . S
O407 Zn406 2.032 . S
O407 C411 1.278 . S
C408 O409 1.203 . S
C408 O415 1.267 . S
O409 C408 1.203 . S
O410 C403 1.185 . S
O410 Zn406 2.086 . S
C411 O407 1.278 . S
C411 O412 1.211 . S
O412 C411 1.211 . S
C413 O405 1.284 . S
C413 O414 1.273 . S
O414 C413 1.273 . S
O415 Zn406 1.977 . S
O415 C408 1.267 . S
C416 O417 1.160 . S
C416 O423 1.185 . S
O417 C416 1.160 . S
O418 Zn419 1.899 . S
O418 C426 1.284 . S
Zn419 O418 1.899 . S
Zn419 O420 2.032 . S
Zn419 O423 2.086 . S
Zn419 O428 1.977 . S
O420 Zn419 2.032 . S
O420 C424 1.278 . S
C421 O422 1.203 . S
C421 O428 1.267 . S
O422 C421 1.203 . S
O423 C416 1.185 . S
O423 Zn419 2.086 . S
C424 O420 1.278 . S
C424 O425 1.211 . S
O425 C424 1.211 . S
C426 O418 1.284 . S
C426 O427 1.273 . S
O427 C426 1.273 . S
O428 Zn419 1.977 . S
O428 C421 1.267 . S
C429 O430 1.160 . S
C429 O436 1.185 . S
O430 C429 1.160 . S
O431 Zn432 1.899 . S
O431 C439 1.284 . S
Zn432 O431 1.899 . S
Zn432 O433 2.032 . S
Zn432 O436 2.086 . S
Zn432 O441 1.977 . S
O433 Zn432 2.032 . S
O433 C437 1.278 . S
C434 O435 1.203 . S
C434 O441 1.267 . S
O435 C434 1.203 . S
O436 C429 1.185 . S
O436 Zn432 2.086 . S
C437 O433 1.278 . S
C437 O438 1.211 . S
O438 C437 1.211 . S
C439 O431 1.284 . S
C439 O440 1.273 . S
O440 C439 1.273 . S
O441 Zn432 1.977 . S
O441 C434 1.267 . S
C442 O443 1.160 . S
C442 O449 1.185 . S
O443 C442 1.160 . S
O444 Zn445 1.899 . S
O444 C452 1.284 . S
Zn445 O444 1.899 . S
Zn445 O446 2.032 . S
Zn445 O449 2.086 . S
Zn445 O454 1.977 . S
O446 Zn445 2.032 . S
O446 C450 1.278 . S
C447 O448 1.203 . S
C447 O454 1.267 . S
O448 C447 1.203 . S
O449 C442 1.185 . S
O449 Zn445 2.086 . S
C450 O446 1.278 . S
C450 O451 1.211 . S
O451 C450 1.211 . S
C452 O444 1.284 . S
C452 O453 1.273 . S
O453 C452 1.273 . S
O454 Zn445 1.977 . S
O454 C447 1.267 . S
C455 O456 1.160 . S
C455 O462 1.185 . S
O456 C455 1.160 . S
O457 Zn458 1.899 . S
O457 C465 1.284 . S
Zn458 O457 1.899 . S
Zn458 O459 2.032 . S
Zn458 O462 2.086 . S
Zn458 O467 1.977 . S
O459 Zn458 2.032 . S
O459 C463 1.278 . S
C460 O461 1.203 . S
C460 O467 1.267 . S
O461 C460 1.203 . S
O462 C455 1.185 . S
O462 Zn458 2.086 . S
C463 O459 1.278 . S
C463 O464 1.211 . S
O464 C463 1.211 . S
C465 O457 1.284 . S
C465 O466 1.273 . S
O466 C465 1.273 . S
O467 Zn458 1.977 . S
O467 C460 1.267 . S
C468 C469 1.369 . S
C468 C470 1.419 . S
C468 H472 0.930 . S
C469 C468 1.369 . S
C469 C478 1.429 1_565 S
C470 C468 1.419 . S
C470 C471 1.363 1_565 S
C470 H473 0.929 . S
C471 C470 1.363 1_545 S
C471 C477 1.428 . S
H472 C468 0.930 . S
H473 C470 0.929 . S
S474 N475 1.613 . S
S474 N476 1.610 . S
N475 S474 1.613 . S
N475 C478 1.350 . S
N476 S474 1.610 . S
N476 C477 1.351 . S
C477 C471 1.428 . S
C477 N476 1.351 . S
C477 C478 1.434 . S
C478 C469 1.429 1_545 S
C478 N475 1.350 . S
C478 C477 1.434 . S
C479 C480 1.369 1_455 S
C479 C481 1.419 . S
C479 H483 0.930 . S
C480 C479 1.369 1_655 S
C480 C489 1.429 . S
C481 C479 1.419 . S
C481 C482 1.363 . S
C481 H484 0.929 . S
C482 C481 1.363 . S
C482 C488 1.428 1_455 S
H483 C479 0.930 . S
H484 C481 0.929 . S
S485 N486 1.613 . S
S485 N487 1.610 . S
N486 S485 1.613 . S
N486 C489 1.350 . S
N487 S485 1.610 . S
N487 C488 1.351 . S
C488 C482 1.428 1_655 S
C488 N487 1.351 . S
C488 C489 1.434 . S
C489 C480 1.429 . S
C489 N486 1.350 . S
C489 C488 1.434 . S
C490 C491 1.369 . S
C490 C492 1.419 . S
C490 H494 0.930 . S
C491 C490 1.369 . S
C491 C500 1.429 . S
C492 C490 1.419 . S
C492 C493 1.363 . S
C492 H495 0.929 . S
C493 C492 1.363 . S
C493 C499 1.428 . S
H494 C490 0.930 . S
H495 C492 0.929 . S
S496 N497 1.613 . S
S496 N498 1.610 . S
N497 S496 1.613 . S
N497 C500 1.350 . S
N498 S496 1.610 . S
N498 C499 1.351 . S
C499 C493 1.428 . S
C499 N498 1.351 . S
C499 C500 1.434 . S
C500 C491 1.429 . S
C500 N497 1.350 . S
C500 C499 1.434 . S
C501 C502 1.369 1_545 S
C501 C503 1.419 . S
C501 H505 0.930 . S
C502 C501 1.369 1_565 S
C502 C511 1.429 . S
C503 C501 1.419 . S
C503 C504 1.363 . S
C503 H506 0.929 . S
C504 C503 1.363 . S
C504 C510 1.428 1_545 S
H505 C501 0.930 . S
H506 C503 0.929 . S
S507 N508 1.613 . S
S507 N509 1.610 . S
N508 S507 1.613 . S
N508 C511 1.350 . S
N509 S507 1.610 . S
N509 C510 1.351 . S
C510 C504 1.428 1_565 S
C510 N509 1.351 . S
C510 C511 1.434 . S
C511 C502 1.429 . S
C511 N508 1.350 . S
C511 C510 1.434 . S
C512 C513 1.369 . S
C512 C514 1.419 . S
C512 H516 0.930 . S
C513 C512 1.369 . S
C513 C522 1.429 1_455 S
C514 C512 1.419 . S
C514 C515 1.363 1_455 S
C514 H517 0.929 . S
C515 C514 1.363 1_655 S
C515 C521 1.428 . S
H516 C512 0.930 . S
H517 C514 0.929 . S
S518 N519 1.613 . S
S518 N520 1.610 . S
N519 S518 1.613 . S
N519 C522 1.350 . S
N520 S518 1.610 . S
N520 C521 1.351 . S
C521 C515 1.428 . S
C521 N520 1.351 . S
C521 C522 1.434 . S
C522 C513 1.429 1_655 S
C522 N519 1.350 . S
C522 C521 1.434 . S
C523 C524 1.369 . S
C523 C525 1.419 . S
C523 H527 0.930 . S
C524 C523 1.369 . S
C524 C533 1.429 . S
C525 C523 1.419 . S
C525 C526 1.363 . S
C525 H528 0.929 . S
C526 C525 1.363 . S
C526 C532 1.428 . S
H527 C523 0.930 . S
H528 C525 0.929 . S
S529 N530 1.613 . S
S529 N531 1.610 . S
N530 S529 1.613 . S
N530 C533 1.350 . S
N531 S529 1.610 . S
N531 C532 1.351 . S
C532 C526 1.428 . S
C532 N531 1.351 . S
C532 C533 1.434 . S
C533 C524 1.429 . S
C533 N530 1.350 . S
C533 C532 1.434 . S
C534 C535 1.369 . S
C534 C536 1.419 . S
C534 H538 0.930 . S
C535 C534 1.369 . S
C535 C544 1.429 . S
C536 C534 1.419 . S
C536 C537 1.363 . S
C536 H539 0.929 . S
C537 C536 1.363 . S
C537 C543 1.428 . S
H538 C534 0.930 . S
H539 C536 0.929 . S
S540 N541 1.613 . S
S540 N542 1.610 . S
N541 S540 1.613 . S
N541 C544 1.350 . S
N542 S540 1.610 . S
N542 C543 1.351 . S
C543 C537 1.428 . S
C543 N542 1.351 . S
C543 C544 1.434 . S
C544 C535 1.429 . S
C544 N541 1.350 . S
C544 C543 1.434 . S
C545 C546 1.369 . S
C545 C547 1.419 . S
C545 H549 0.930 . S
C546 C545 1.369 . S
C546 C555 1.429 . S
C547 C545 1.419 . S
C547 C548 1.363 . S
C547 H550 0.929 . S
C548 C547 1.363 . S
C548 C554 1.428 . S
H549 C545 0.930 . S
H550 C547 0.929 . S
S551 N552 1.613 . S
S551 N553 1.610 . S
N552 S551 1.613 . S
N552 C555 1.350 . S
N553 S551 1.610 . S
N553 C554 1.351 . S
C554 C548 1.428 . S
C554 N553 1.351 . S
C554 C555 1.434 . S
C555 C546 1.429 . S
C555 N552 1.350 . S
C555 C554 1.434 . S
C556 C557 1.369 . S
C556 C558 1.419 . S
C556 H560 0.930 . S
C557 C556 1.369 . S
C557 C566 1.429 . S
C558 C556 1.419 . S
C558 C559 1.363 . S
C558 H561 0.929 . S
C559 C558 1.363 . S
C559 C565 1.428 . S
H560 C556 0.930 . S
H561 C558 0.929 . S
S562 N563 1.613 . S
S562 N564 1.610 . S
N563 S562 1.613 . S
N563 C566 1.350 . S
N564 S562 1.610 . S
N564 C565 1.351 . S
C565 C559 1.428 . S
C565 N564 1.351 . S
C565 C566 1.434 . S
C566 C557 1.429 . S
C566 N563 1.350 . S
C566 C565 1.434 . S
C567 C568 1.369 . S
C567 C569 1.419 . S
C567 H571 0.930 . S
C568 C567 1.369 . S
C568 C577 1.429 . S
C569 C567 1.419 . S
C569 C570 1.363 . S
C569 H572 0.929 . S
C570 C569 1.363 . S
C570 C576 1.428 1_554 S
H571 C567 0.930 . S
H572 C569 0.929 . S
S573 N574 1.613 1_556 S
S573 N575 1.610 . S
N574 S573 1.613 1_554 S
N574 C577 1.350 . S
N575 S573 1.610 . S
N575 C576 1.351 . S
C576 C570 1.428 1_556 S
C576 N575 1.351 . S
C576 C577 1.434 1_556 S
C577 C568 1.429 . S
C577 N574 1.350 . S
C577 C576 1.434 1_554 S
C578 C579 1.369 . S
C578 C580 1.419 . S
C578 H582 0.930 . S
C579 C578 1.369 . S
C579 C588 1.429 . S
C580 C578 1.419 . S
C580 C581 1.363 . S
C580 H583 0.929 . S
C581 C580 1.363 . S
C581 C587 1.428 . S
H582 C578 0.930 . S
H583 C580 0.929 . S
S584 N585 1.613 . S
S584 N586 1.610 1_554 S
N585 S584 1.613 . S
N585 C588 1.350 . S
N586 S584 1.610 1_556 S
N586 C587 1.351 1_556 S
C587 C581 1.428 . S
C587 N586 1.351 1_554 S
C587 C588 1.434 . S
C588 C579 1.429 . S
C588 N585 1.350 . S
C588 C587 1.434 . S
C589 C590 1.369 . S
C589 C591 1.419 . S
C589 H593 0.930 . S
C590 C589 1.369 . S
C590 C599 1.429 . S
C591 C589 1.419 . S
C591 C592 1.363 . S
C591 H594 0.929 . S
C592 C591 1.363 . S
C592 C598 1.428 . S
H593 C589 0.930 . S
H594 C591 0.929 . S
S595 N596 1.613 1_556 S
S595 N597 1.610 . S
N596 S595 1.613 1_554 S
N596 C599 1.350 . S
N597 S595 1.610 . S
N597 C598 1.351 1_556 S
C598 C592 1.428 . S
C598 N597 1.351 1_554 S
C598 C599 1.434 . S
C599 C590 1.429 . S
C599 N596 1.350 . S
C599 C598 1.434 . S
C600 C601 1.369 . S
C600 C602 1.419 . S
C600 H604 0.930 . S
C601 C600 1.369 . S
C601 C610 1.429 . S
C602 C600 1.419 . S
C602 C603 1.363 . S
C602 H605 0.929 . S
C603 C602 1.363 . S
C603 C609 1.428 . S
H604 C600 0.930 . S
H605 C602 0.929 . S
S606 N607 1.613 . S
S606 N608 1.610 1_556 S
N607 S606 1.613 . S
N607 C610 1.350 . S
N608 S606 1.610 1_554 S
N608 C609 1.351 1_554 S
C609 C603 1.428 . S
C609 N608 1.351 1_556 S
C609 C610 1.434 . S
C610 C601 1.429 . S
C610 N607 1.350 . S
C610 C609 1.434 . S
C611 C612 1.369 . S
C611 C613 1.419 . S
C611 H615 0.930 1_556 S
C612 C611 1.369 . S
C612 C621 1.429 . S
C613 C611 1.419 . S
C613 C614 1.363 . S
C613 H616 0.929 . S
C614 C613 1.363 . S
C614 C620 1.428 . S
H615 C611 0.930 1_554 S
H616 C613 0.929 . S
S617 N618 1.613 . S
S617 N619 1.610 . S
N618 S617 1.613 . S
N618 C621 1.350 . S
N619 S617 1.610 . S
N619 C620 1.351 . S
C620 C614 1.428 . S
C620 N619 1.351 . S
C620 C621 1.434 . S
C621 C612 1.429 . S
C621 N618 1.350 . S
C621 C620 1.434 . S
C622 C623 1.369 . S
C622 C624 1.419 . S
C622 H626 0.930 . S
C623 C622 1.369 . S
C623 C632 1.429 . S
C624 C622 1.419 . S
C624 C625 1.363 . S
C624 H627 0.929 . S
C625 C624 1.363 . S
C625 C631 1.428 . S
H626 C622 0.930 . S
H627 C624 0.929 . S
S628 N629 1.613 . S
S628 N630 1.610 1_556 S
N629 S628 1.613 . S
N629 C632 1.350 . S
N630 S628 1.610 1_554 S
N630 C631 1.351 1_554 S
C631 C625 1.428 . S
C631 N630 1.351 1_556 S
C631 C632 1.434 . S
C632 C623 1.429 . S
C632 N629 1.350 . S
C632 C631 1.434 . S
C633 C634 1.369 . S
C633 C635 1.419 . S
C633 H637 0.930 . S
C634 C633 1.369 . S
C634 C643 1.429 . S
C635 C633 1.419 . S
C635 C636 1.363 . S
C635 H638 0.929 . S
C636 C635 1.363 . S
C636 C642 1.428 . S
H637 C633 0.930 . S
H638 C635 0.929 . S
S639 N640 1.613 . S
S639 N641 1.610 . S
N640 S639 1.613 . S
N640 C643 1.350 . S
N641 S639 1.610 . S
N641 C642 1.351 . S
C642 C636 1.428 . S
C642 N641 1.351 . S
C642 C643 1.434 . S
C643 C634 1.429 . S
C643 N640 1.350 . S
C643 C642 1.434 . S
C644 C645 1.369 . S
C644 C646 1.419 . S
C644 H648 0.930 . S
C645 C644 1.369 . S
C645 C654 1.429 . S
C646 C644 1.419 . S
C646 C647 1.363 . S
C646 H649 0.929 . S
C647 C646 1.363 . S
C647 C653 1.428 . S
H648 C644 0.930 . S
H649 C646 0.929 . S
S650 N651 1.613 . S
S650 N652 1.610 . S
N651 S650 1.613 . S
N651 C654 1.350 . S
N652 S650 1.610 . S
N652 C653 1.351 . S
C653 C647 1.428 . S
C653 N652 1.351 . S
C653 C654 1.434 . S
C654 C645 1.429 . S
C654 N651 1.350 . S
C654 C653 1.434 . S
C655 C656 1.369 . S
C655 C657 1.419 . S
C655 H659 0.930 . S
C656 C655 1.369 . S
C656 C665 1.429 . S
C657 C655 1.419 . S
C657 C658 1.363 . S
C657 H660 0.929 . S
C658 C657 1.363 . S
C658 C664 1.428 . S
H659 C655 0.930 . S
H660 C657 0.929 . S
S661 N662 1.613 . S
S661 N663 1.610 . S
N662 S661 1.613 . S
N662 C665 1.350 . S
N663 S661 1.610 . S
N663 C664 1.351 . S
C664 C658 1.428 . S
C664 N663 1.351 . S
C664 C665 1.434 . S
C665 C656 1.429 . S
C665 N662 1.350 . S
C665 C664 1.434 . S
C666 C667 1.369 . S
C666 C668 1.419 . S
C666 H670 0.930 . S
C667 C666 1.369 . S
C667 C676 1.429 . S
C668 C666 1.419 . S
C668 C669 1.363 . S
C668 H671 0.929 . S
C669 C668 1.363 . S
C669 C675 1.428 . S
H670 C666 0.930 . S
H671 C668 0.929 . S
S672 N673 1.613 . S
S672 N674 1.610 . S
N673 S672 1.613 . S
N673 C676 1.350 . S
N674 S672 1.610 . S
N674 C675 1.351 . S
C675 C669 1.428 . S
C675 N674 1.351 . S
C675 C676 1.434 . S
C676 C667 1.429 . S
C676 N673 1.350 . S
C676 C675 1.434 . S
C677 C678 1.369 . S
C677 C679 1.419 . S
C677 H681 0.930 . S
C678 C677 1.369 . S
C678 C687 1.429 . S
C679 C677 1.419 . S
C679 C680 1.363 . S
C679 H682 0.929 . S
C680 C679 1.363 . S
C680 C686 1.428 . S
H681 C677 0.930 . S
H682 C679 0.929 . S
S683 N684 1.613 . S
S683 N685 1.610 . S
N684 S683 1.613 . S
N684 C687 1.350 . S
N685 S683 1.610 . S
N685 C686 1.351 . S
C686 C680 1.428 . S
C686 N685 1.351 . S
C686 C687 1.434 . S
C687 C678 1.429 . S
C687 N684 1.350 . S
C687 C686 1.434 . S
C688 C689 1.369 . S
C688 C690 1.419 . S
C688 H692 0.930 . S
C689 C688 1.369 . S
C689 C698 1.429 . S
C690 C688 1.419 . S
C690 C691 1.363 . S
C690 H693 0.929 . S
C691 C690 1.363 . S
C691 C697 1.428 . S
H692 C688 0.930 . S
H693 C690 0.929 . S
S694 N695 1.613 . S
S694 N696 1.610 . S
N695 S694 1.613 . S
N695 C698 1.350 . S
N696 S694 1.610 . S
N696 C697 1.351 . S
C697 C691 1.428 . S
C697 N696 1.351 . S
C697 C698 1.434 . S
C698 C689 1.429 . S
C698 N695 1.350 . S
C698 C697 1.434 . S
C699 C700 1.369 . S
C699 C701 1.419 . S
C699 H703 0.930 . S
C700 C699 1.369 . S
C700 C709 1.429 . S
C701 C699 1.419 . S
C701 C702 1.363 . S
C701 H704 0.929 . S
C702 C701 1.363 . S
C702 C708 1.428 . S
H703 C699 0.930 . S
H704 C701 0.929 . S
S705 N706 1.613 . S
S705 N707 1.610 . S
N706 S705 1.613 . S
N706 C709 1.350 . S
N707 S705 1.610 . S
N707 C708 1.351 . S
C708 C702 1.428 . S
C708 N707 1.351 . S
C708 C709 1.434 . S
C709 C700 1.429 . S
C709 N706 1.350 . S
C709 C708 1.434 . S
C710 C711 1.369 . S
C710 C712 1.419 . S
C710 H714 0.930 . S
C711 C710 1.369 . S
C711 C720 1.429 . S
C712 C710 1.419 . S
C712 C713 1.363 . S
C712 H715 0.929 . S
C713 C712 1.363 . S
C713 C719 1.428 . S
H714 C710 0.930 . S
H715 C712 0.929 . S
S716 N717 1.613 . S
S716 N718 1.610 . S
N717 S716 1.613 . S
N717 C720 1.350 . S
N718 S716 1.610 . S
N718 C719 1.351 . S
C719 C713 1.428 . S
C719 N718 1.351 . S
C719 C720 1.434 . S
C720 C711 1.429 . S
C720 N717 1.350 . S
C720 C719 1.434 . S
C721 C722 1.369 . S
C721 C723 1.419 . S
C721 H725 0.930 . S
C722 C721 1.369 . S
C722 C731 1.429 . S
C723 C721 1.419 . S
C723 C724 1.363 . S
C723 H726 0.929 . S
C724 C723 1.363 . S
C724 C730 1.428 . S
H725 C721 0.930 . S
H726 C723 0.929 . S
S727 N728 1.613 . S
S727 N729 1.610 . S
N728 S727 1.613 . S
N728 C731 1.350 . S
N729 S727 1.610 . S
N729 C730 1.351 . S
C730 C724 1.428 . S
C730 N729 1.351 . S
C730 C731 1.434 . S
C731 C722 1.429 . S
C731 N728 1.350 . S
C731 C730 1.434 . S
C732 C733 1.369 . S
C732 C734 1.419 . S
C732 H736 0.930 . S
C733 C732 1.369 . S
C733 C742 1.429 . S
C734 C732 1.419 . S
C734 C735 1.363 . S
C734 H737 0.929 . S
C735 C734 1.363 . S
C735 C741 1.428 . S
H736 C732 0.930 . S
H737 C734 0.929 . S
S738 N739 1.613 . S
S738 N740 1.610 . S
N739 S738 1.613 . S
N739 C742 1.350 . S
N740 S738 1.610 . S
N740 C741 1.351 . S
C741 C735 1.428 . S
C741 N740 1.351 . S
C741 C742 1.434 . S
C742 C733 1.429 . S
C742 N739 1.350 . S
C742 C741 1.434 . S
C743 C744 1.369 . S
C743 C745 1.419 . S
C743 H747 0.930 . S
C744 C743 1.369 . S
C744 C753 1.429 . S
C745 C743 1.419 . S
C745 C746 1.363 . S
C745 H748 0.929 . S
C746 C745 1.363 . S
C746 C752 1.428 . S
H747 C743 0.930 . S
H748 C745 0.929 . S
S749 N750 1.613 . S
S749 N751 1.610 . S
N750 S749 1.613 . S
N750 C753 1.350 . S
N751 S749 1.610 . S
N751 C752 1.351 . S
C752 C746 1.428 . S
C752 N751 1.351 . S
C752 C753 1.434 . S
C753 C744 1.429 . S
C753 N750 1.350 . S
C753 C752 1.434 . S
C754 C755 1.369 . S
C754 C756 1.419 . S
C754 H758 0.930 . S
C755 C754 1.369 . S
C755 C764 1.429 . S
C756 C754 1.419 . S
C756 C757 1.363 . S
C756 H759 0.929 . S
C757 C756 1.363 . S
C757 C763 1.428 . S
H758 C754 0.930 . S
H759 C756 0.929 . S
S760 N761 1.613 . S
S760 N762 1.610 . S
N761 S760 1.613 . S
N761 C764 1.350 . S
N762 S760 1.610 . S
N762 C763 1.351 . S
C763 C757 1.428 . S
C763 N762 1.351 . S
C763 C764 1.434 . S
C764 C755 1.429 . S
C764 N761 1.350 . S
C764 C763 1.434 . S
C765 C766 1.369 . S
C765 C767 1.419 . S
C765 H769 0.930 . S
C766 C765 1.369 . S
C766 C775 1.429 . S
C767 C765 1.419 . S
C767 C768 1.363 . S
C767 H770 0.929 . S
C768 C767 1.363 . S
C768 C774 1.428 . S
H769 C765 0.930 . S
H770 C767 0.929 . S
S771 N772 1.613 . S
S771 N773 1.610 . S
N772 S771 1.613 . S
N772 C775 1.350 . S
N773 S771 1.610 . S
N773 C774 1.351 . S
C774 C768 1.428 . S
C774 N773 1.351 . S
C774 C775 1.434 . S
C775 C766 1.429 . S
C775 N772 1.350 . S
C775 C774 1.434 . S
C776 C777 1.369 . S
C776 C778 1.419 . S
C776 H780 0.930 . S
C777 C776 1.369 . S
C777 C786 1.429 . S
C778 C776 1.419 . S
C778 C779 1.363 . S
C778 H781 0.929 . S
C779 C778 1.363 . S
C779 C785 1.428 . S
H780 C776 0.930 . S
H781 C778 0.929 . S
S782 N783 1.613 . S
S782 N784 1.610 . S
N783 S782 1.613 . S
N783 C786 1.350 . S
N784 S782 1.610 . S
N784 C785 1.351 . S
C785 C779 1.428 . S
C785 N784 1.351 . S
C785 C786 1.434 . S
C786 C777 1.429 . S
C786 N783 1.350 . S
C786 C785 1.434 . S
C787 C788 1.369 . S
C787 C789 1.419 . S
C787 H791 0.930 . S
C788 C787 1.369 . S
C788 C797 1.429 . S
C789 C787 1.419 . S
C789 C790 1.363 . S
C789 H792 0.929 . S
C790 C789 1.363 . S
C790 C796 1.428 . S
H791 C787 0.930 . S
H792 C789 0.929 . S
S793 N794 1.613 . S
S793 N795 1.610 . S
N794 S793 1.613 . S
N794 C797 1.350 . S
N795 S793 1.610 . S
N795 C796 1.351 . S
C796 C790 1.428 . S
C796 N795 1.351 . S
C796 C797 1.434 . S
C797 C788 1.429 . S
C797 N794 1.350 . S
C797 C796 1.434 . S
C798 C799 1.369 . S
C798 C800 1.419 . S
C798 H802 0.930 . S
C799 C798 1.369 . S
C799 C808 1.429 . S
C800 C798 1.419 . S
C800 C801 1.363 . S
C800 H803 0.929 . S
C801 C800 1.363 . S
C801 C807 1.428 . S
H802 C798 0.930 . S
H803 C800 0.929 . S
S804 N805 1.613 . S
S804 N806 1.610 . S
N805 S804 1.613 . S
N805 C808 1.350 . S
N806 S804 1.610 . S
N806 C807 1.351 . S
C807 C801 1.428 . S
C807 N806 1.351 . S
C807 C808 1.434 . S
C808 C799 1.429 . S
C808 N805 1.350 . S
C808 C807 1.434 . S
C809 C810 1.369 . S
C809 C811 1.419 . S
C809 H813 0.930 . S
C810 C809 1.369 . S
C810 C819 1.429 . S
C811 C809 1.419 . S
C811 C812 1.363 . S
C811 H814 0.929 . S
C812 C811 1.363 . S
C812 C818 1.428 . S
H813 C809 0.930 . S
H814 C811 0.929 . S
S815 N816 1.613 1_556 S
S815 N817 1.610 . S
N816 S815 1.613 1_554 S
N816 C819 1.350 . S
N817 S815 1.610 . S
N817 C818 1.351 1_556 S
C818 C812 1.428 . S
C818 N817 1.351 1_554 S
C818 C819 1.434 . S
C819 C810 1.429 . S
C819 N816 1.350 . S
C819 C818 1.434 . S
C820 C821 1.369 . S
C820 C822 1.419 . S
C820 H824 0.930 . S
C821 C820 1.369 . S
C821 C830 1.429 . S
C822 C820 1.419 . S
C822 C823 1.363 . S
C822 H825 0.929 . S
C823 C822 1.363 . S
C823 C829 1.428 . S
H824 C820 0.930 . S
H825 C822 0.929 . S
S826 N827 1.613 . S
S826 N828 1.610 . S
N827 S826 1.613 . S
N827 C830 1.350 . S
N828 S826 1.610 . S
N828 C829 1.351 . S
C829 C823 1.428 . S
C829 N828 1.351 . S
C829 C830 1.434 . S
C830 C821 1.429 . S
C830 N827 1.350 . S
C830 C829 1.434 . S
C831 C832 1.369 1_554 S
C831 C833 1.419 . S
C831 H835 0.930 . S
C832 C831 1.369 1_556 S
C832 C841 1.429 . S
C833 C831 1.419 . S
C833 C834 1.363 . S
C833 H836 0.929 . S
C834 C833 1.363 . S
C834 C840 1.428 . S
H835 C831 0.930 . S
H836 C833 0.929 . S
S837 N838 1.613 . S
S837 N839 1.610 1_556 S
N838 S837 1.613 . S
N838 C841 1.350 . S
N839 S837 1.610 1_554 S
N839 C840 1.351 . S
C840 C834 1.428 . S
C840 N839 1.351 . S
C840 C841 1.434 1_554 S
C841 C832 1.429 . S
C841 N838 1.350 . S
C841 C840 1.434 1_556 S
C842 C843 1.369 1_554 S
C842 C844 1.419 . S
C842 H846 0.930 . S
C843 C842 1.369 1_556 S
C843 C852 1.429 . S
C844 C842 1.419 . S
C844 C845 1.363 . S
C844 H847 0.929 . S
C845 C844 1.363 . S
C845 C851 1.428 . S
H846 C842 0.930 . S
H847 C844 0.929 . S
S848 N849 1.613 . S
S848 N850 1.610 . S
N849 S848 1.613 . S
N849 C852 1.350 . S
N850 S848 1.610 . S
N850 C851 1.351 1_556 S
C851 C845 1.428 . S
C851 N850 1.351 1_554 S
C851 C852 1.434 1_554 S
C852 C843 1.429 . S
C852 N849 1.350 . S
C852 C851 1.434 1_556 S
C853 C854 1.369 1_554 S
C853 C855 1.419 . S
C853 H857 0.930 . S
C854 C853 1.369 1_556 S
C854 C863 1.429 . S
C855 C853 1.419 . S
C855 C856 1.363 . S
C855 H858 0.929 . S
C856 C855 1.363 . S
C856 C862 1.428 . S
H857 C853 0.930 . S
H858 C855 0.929 . S
S859 N860 1.613 . S
S859 N861 1.610 . S
N860 S859 1.613 . S
N860 C863 1.350 . S
N861 S859 1.610 . S
N861 C862 1.351 1_556 S
C862 C856 1.428 . S
C862 N861 1.351 1_554 S
C862 C863 1.434 1_554 S
C863 C854 1.429 . S
C863 N860 1.350 . S
C863 C862 1.434 1_556 S
C864 C865 1.369 . S
C864 C866 1.419 . S
C864 H868 0.930 . S
C865 C864 1.369 . S
C865 C874 1.429 . S
C866 C864 1.419 . S
C866 C867 1.363 . S
C866 H869 0.929 . S
C867 C866 1.363 . S
C867 C873 1.428 . S
H868 C864 0.930 . S
H869 C866 0.929 . S
S870 N871 1.613 . S
S870 N872 1.610 . S
N871 S870 1.613 . S
N871 C874 1.350 . S
N872 S870 1.610 . S
N872 C873 1.351 . S
C873 C867 1.428 . S
C873 N872 1.351 . S
C873 C874 1.434 . S
C874 C865 1.429 . S
C874 N871 1.350 . S
C874 C873 1.434 . S
C875 C876 1.369 . S
C875 C877 1.419 . S
C875 H879 0.930 . S
C876 C875 1.369 . S
C876 C885 1.429 . S
C877 C875 1.419 . S
C877 C878 1.363 . S
C877 H880 0.929 . S
C878 C877 1.363 . S
C878 C884 1.428 . S
H879 C875 0.930 . S
H880 C877 0.929 . S
S881 N882 1.613 . S
S881 N883 1.610 . S
N882 S881 1.613 . S
N882 C885 1.350 . S
N883 S881 1.610 . S
N883 C884 1.351 . S
C884 C878 1.428 . S
C884 N883 1.351 . S
C884 C885 1.434 . S
C885 C876 1.429 . S
C885 N882 1.350 . S
C885 C884 1.434 . S
C886 C887 1.369 . S
C886 C888 1.419 . S
C886 H890 0.930 . S
C887 C886 1.369 . S
C887 C896 1.429 . S
C888 C886 1.419 . S
C888 C889 1.363 . S
C888 H891 0.929 . S
C889 C888 1.363 . S
C889 C895 1.428 . S
H890 C886 0.930 . S
H891 C888 0.929 . S
S892 N893 1.613 . S
S892 N894 1.610 . S
N893 S892 1.613 . S
N893 C896 1.350 . S
N894 S892 1.610 . S
N894 C895 1.351 . S
C895 C889 1.428 . S
C895 N894 1.351 . S
C895 C896 1.434 . S
C896 C887 1.429 . S
C896 N893 1.350 . S
C896 C895 1.434 . S
C897 C898 1.369 . S
C897 C899 1.419 . S
C897 H901 0.930 . S
C898 C897 1.369 . S
C898 C907 1.429 . S
C899 C897 1.419 . S
C899 C900 1.363 . S
C899 H902 0.929 . S
C900 C899 1.363 . S
C900 C906 1.428 . S
H901 C897 0.930 . S
H902 C899 0.929 . S
S903 N904 1.613 . S
S903 N905 1.610 . S
N904 S903 1.613 . S
N904 C907 1.350 . S
N905 S903 1.610 . S
N905 C906 1.351 . S
C906 C900 1.428 . S
C906 N905 1.351 . S
C906 C907 1.434 . S
C907 C898 1.429 . S
C907 N904 1.350 . S
C907 C906 1.434 . S
C908 C909 1.369 . S
C908 C910 1.419 . S
C908 H912 0.930 . S
C909 C908 1.369 . S
C909 C918 1.429 . S
C910 C908 1.419 . S
C910 C911 1.363 . S
C910 H913 0.929 . S
C911 C910 1.363 . S
C911 C917 1.428 . S
H912 C908 0.930 . S
H913 C910 0.929 . S
S914 N915 1.613 . S
S914 N916 1.610 . S
N915 S914 1.613 . S
N915 C918 1.350 . S
N916 S914 1.610 . S
N916 C917 1.351 . S
C917 C911 1.428 . S
C917 N916 1.351 . S
C917 C918 1.434 . S
C918 C909 1.429 . S
C918 N915 1.350 . S
C918 C917 1.434 . S
C919 C920 1.369 . S
C919 C921 1.419 . S
C919 H923 0.930 . S
C920 C919 1.369 . S
C920 C929 1.429 . S
C921 C919 1.419 . S
C921 C922 1.363 . S
C921 H924 0.929 . S
C922 C921 1.363 . S
C922 C928 1.428 . S
H923 C919 0.930 . S
H924 C921 0.929 . S
S925 N926 1.613 . S
S925 N927 1.610 . S
N926 S925 1.613 . S
N926 C929 1.350 . S
N927 S925 1.610 . S
N927 C928 1.351 . S
C928 C922 1.428 . S
C928 N927 1.351 . S
C928 C929 1.434 . S
C929 C920 1.429 . S
C929 N926 1.350 . S
C929 C928 1.434 . S
C930 C931 1.369 . S
C930 C932 1.419 . S
C930 H934 0.930 . S
C931 C930 1.369 . S
C931 C940 1.429 . S
C932 C930 1.419 . S
C932 C933 1.363 . S
C932 H935 0.929 . S
C933 C932 1.363 . S
C933 C939 1.428 . S
H934 C930 0.930 . S
H935 C932 0.929 . S
S936 N937 1.613 . S
S936 N938 1.610 . S
N937 S936 1.613 . S
N937 C940 1.350 . S
N938 S936 1.610 . S
N938 C939 1.351 . S
C939 C933 1.428 . S
C939 N938 1.351 . S
C939 C940 1.434 . S
C940 C931 1.429 . S
C940 N937 1.350 . S
C940 C939 1.434 . S
C941 C942 1.369 . S
C941 C943 1.419 . S
C941 H945 0.930 . S
C942 C941 1.369 . S
C942 C951 1.429 . S
C943 C941 1.419 . S
C943 C944 1.363 . S
C943 H946 0.929 . S
C944 C943 1.363 . S
C944 C950 1.428 . S
H945 C941 0.930 . S
H946 C943 0.929 . S
S947 N948 1.613 . S
S947 N949 1.610 . S
N948 S947 1.613 . S
N948 C951 1.350 . S
N949 S947 1.610 . S
N949 C950 1.351 . S
C950 C944 1.428 . S
C950 N949 1.351 . S
C950 C951 1.434 . S
C951 C942 1.429 . S
C951 N948 1.350 . S
C951 C950 1.434 . S
C952 C953 1.369 . S
C952 C954 1.419 . S
C952 H956 0.930 . S
C953 C952 1.369 . S
C953 C962 1.429 . S
C954 C952 1.419 . S
C954 C955 1.363 . S
C954 H957 0.929 . S
C955 C954 1.363 . S
C955 C961 1.428 . S
H956 C952 0.930 . S
H957 C954 0.929 . S
S958 N959 1.613 . S
S958 N960 1.610 . S
N959 S958 1.613 . S
N959 C962 1.350 . S
N960 S958 1.610 . S
N960 C961 1.351 . S
C961 C955 1.428 . S
C961 N960 1.351 . S
C961 C962 1.434 . S
C962 C953 1.429 . S
C962 N959 1.350 . S
C962 C961 1.434 . S
C963 C964 1.369 . S
C963 C965 1.419 . S
C963 H967 0.930 . S
C964 C963 1.369 . S
C964 C973 1.429 . S
C965 C963 1.419 . S
C965 C966 1.363 . S
C965 H968 0.929 . S
C966 C965 1.363 . S
C966 C972 1.428 . S
H967 C963 0.930 . S
H968 C965 0.929 . S
S969 N970 1.613 . S
S969 N971 1.610 . S
N970 S969 1.613 . S
N970 C973 1.350 . S
N971 S969 1.610 . S
N971 C972 1.351 . S
C972 C966 1.428 . S
C972 N971 1.351 . S
C972 C973 1.434 . S
C973 C964 1.429 . S
C973 N970 1.350 . S
C973 C972 1.434 . S
C974 C975 1.369 . S
C974 C976 1.419 . S
C974 H978 0.930 . S
C975 C974 1.369 . S
C975 C984 1.429 . S
C976 C974 1.419 . S
C976 C977 1.363 . S
C976 H979 0.929 . S
C977 C976 1.363 . S
C977 C983 1.428 . S
H978 C974 0.930 . S
H979 C976 0.929 . S
S980 N981 1.613 . S
S980 N982 1.610 . S
N981 S980 1.613 . S
N981 C984 1.350 . S
N982 S980 1.610 . S
N982 C983 1.351 . S
C983 C977 1.428 . S
C983 N982 1.351 . S
C983 C984 1.434 . S
C984 C975 1.429 . S
C984 N981 1.350 . S
C984 C983 1.434 . S
C985 C986 1.369 . S
C985 C987 1.419 . S
C985 H989 0.930 . S
C986 C985 1.369 . S
C986 C995 1.429 . S
C987 C985 1.419 . S
C987 C988 1.363 . S
C987 H990 0.929 . S
C988 C987 1.363 . S
C988 C994 1.428 . S
H989 C985 0.930 . S
H990 C987 0.929 . S
S991 N992 1.613 . S
S991 N993 1.610 . S
N992 S991 1.613 . S
N992 C995 1.350 . S
N993 S991 1.610 . S
N993 C994 1.351 . S
C994 C988 1.428 . S
C994 N993 1.351 . S
C994 C995 1.434 . S
C995 C986 1.429 . S
C995 N992 1.350 . S
C995 C994 1.434 . S
C996 C997 1.369 . S
C996 C998 1.419 . S
C996 H1000 0.930 . S
C997 C996 1.369 . S
C997 C1006 1.429 . S
C998 C996 1.419 . S
C998 C999 1.363 . S
C998 H1001 0.929 1_556 S
C999 C998 1.363 . S
C999 C1005 1.428 . S
H1000 C996 0.930 . S
H1001 C998 0.929 1_554 S
S1002 N1003 1.613 . S
S1002 N1004 1.610 . S
N1003 S1002 1.613 . S
N1003 C1006 1.350 . S
N1004 S1002 1.610 . S
N1004 C1005 1.351 . S
C1005 C999 1.428 . S
C1005 N1004 1.351 . S
C1005 C1006 1.434 . S
C1006 C997 1.429 . S
C1006 N1003 1.350 . S
C1006 C1005 1.434 . S
C1007 C1008 1.369 . S
C1007 C1009 1.419 . S
C1007 H1011 0.930 . S
C1008 C1007 1.369 . S
C1008 C1017 1.429 . S
C1009 C1007 1.419 . S
C1009 C1010 1.363 . S
C1009 H1012 0.929 . S
C1010 C1009 1.363 . S
C1010 C1016 1.428 . S
H1011 C1007 0.930 . S
H1012 C1009 0.929 . S
S1013 N1014 1.613 . S
S1013 N1015 1.610 . S
N1014 S1013 1.613 . S
N1014 C1017 1.350 . S
N1015 S1013 1.610 . S
N1015 C1016 1.351 . S
C1016 C1010 1.428 . S
C1016 N1015 1.351 . S
C1016 C1017 1.434 . S
C1017 C1008 1.429 . S
C1017 N1014 1.350 . S
C1017 C1016 1.434 . S
C1018 C1019 1.369 . S
C1018 C1020 1.419 . S
C1018 H1022 0.930 . S
C1019 C1018 1.369 . S
C1019 C1028 1.429 . S
C1020 C1018 1.419 . S
C1020 C1021 1.363 . S
C1020 H1023 0.929 . S
C1021 C1020 1.363 . S
C1021 C1027 1.428 . S
H1022 C1018 0.930 . S
H1023 C1020 0.929 . S
S1024 N1025 1.613 . S
S1024 N1026 1.610 . S
N1025 S1024 1.613 . S
N1025 C1028 1.350 . S
N1026 S1024 1.610 . S
N1026 C1027 1.351 . S
C1027 C1021 1.428 . S
C1027 N1026 1.351 . S
C1027 C1028 1.434 . S
C1028 C1019 1.429 . S
C1028 N1025 1.350 . S
C1028 C1027 1.434 . S
C1029 C1030 1.369 . S
C1029 C1031 1.419 . S
C1029 H1033 0.930 . S
C1030 C1029 1.369 . S
C1030 C1039 1.429 . S
C1031 C1029 1.419 . S
C1031 C1032 1.363 1_556 S
C1031 H1034 0.929 1_556 S
C1032 C1031 1.363 1_554 S
C1032 C1038 1.428 1_554 S
H1033 C1029 0.930 . S
H1034 C1031 0.929 1_554 S
S1035 N1036 1.613 . S
S1035 N1037 1.610 . S
N1036 S1035 1.613 . S
N1036 C1039 1.350 . S
N1037 S1035 1.610 . S
N1037 C1038 1.351 . S
C1038 C1032 1.428 1_556 S
C1038 N1037 1.351 . S
C1038 C1039 1.434 . S
C1039 C1030 1.429 . S
C1039 N1036 1.350 . S
C1039 C1038 1.434 . S
C1040 C1041 1.369 . S
C1040 C1042 1.419 . S
C1040 H1044 0.930 . S
C1041 C1040 1.369 . S
C1041 C1050 1.429 . S
C1042 C1040 1.419 . S
C1042 C1043 1.363 1_556 S
C1042 H1045 0.929 1_556 S
C1043 C1042 1.363 1_554 S
C1043 C1049 1.428 1_554 S
H1044 C1040 0.930 . S
H1045 C1042 0.929 1_554 S
S1046 N1047 1.613 . S
S1046 N1048 1.610 . S
N1047 S1046 1.613 . S
N1047 C1050 1.350 . S
N1048 S1046 1.610 . S
N1048 C1049 1.351 . S
C1049 C1043 1.428 1_556 S
C1049 N1048 1.351 . S
C1049 C1050 1.434 . S
C1050 C1041 1.429 . S
C1050 N1047 1.350 . S
C1050 C1049 1.434 . S
C1051 C1052 1.369 . S
C1051 C1053 1.419 . S
C1051 H1055 0.930 . S
C1052 C1051 1.369 . S
C1052 C1061 1.429 . S
C1053 C1051 1.419 . S
C1053 C1054 1.363 1_556 S
C1053 H1056 0.929 . S
C1054 C1053 1.363 1_554 S
C1054 C1060 1.428 . S
H1055 C1051 0.930 . S
H1056 C1053 0.929 . S
S1057 N1058 1.613 . S
S1057 N1059 1.610 . S
N1058 S1057 1.613 . S
N1058 C1061 1.350 1_554 S
N1059 S1057 1.610 . S
N1059 C1060 1.351 . S
C1060 C1054 1.428 . S
C1060 N1059 1.351 . S
C1060 C1061 1.434 1_554 S
C1061 C1052 1.429 . S
C1061 N1058 1.350 1_556 S
C1061 C1060 1.434 1_556 S
C1062 C1063 1.369 . S
C1062 C1064 1.419 . S
C1062 H1066 0.930 . S
C1063 C1062 1.369 . S
C1063 C1072 1.429 . S
C1064 C1062 1.419 . S
C1064 C1065 1.363 . S
C1064 H1067 0.929 . S
C1065 C1064 1.363 . S
C1065 C1071 1.428 . S
H1066 C1062 0.930 . S
H1067 C1064 0.929 . S
S1068 N1069 1.613 1_554 S
S1068 N1070 1.610 . S
N1069 S1068 1.613 1_556 S
N1069 C1072 1.350 . S
N1070 S1068 1.610 . S
N1070 C1071 1.351 1_554 S
C1071 C1065 1.428 . S
C1071 N1070 1.351 1_556 S
C1071 C1072 1.434 . S
C1072 C1063 1.429 . S
C1072 N1069 1.350 . S
C1072 C1071 1.434 . S
C1073 C1074 1.369 . S
C1073 C1075 1.419 . S
C1073 H1077 0.930 . S
C1074 C1073 1.369 . S
C1074 C1083 1.429 . S
C1075 C1073 1.419 . S
C1075 C1076 1.363 . S
C1075 H1078 0.929 . S
C1076 C1075 1.363 . S
C1076 C1082 1.428 . S
H1077 C1073 0.930 . S
H1078 C1075 0.929 . S
S1079 N1080 1.613 . S
S1079 N1081 1.610 . S
N1080 S1079 1.613 . S
N1080 C1083 1.350 . S
N1081 S1079 1.610 . S
N1081 C1082 1.351 . S
C1082 C1076 1.428 . S
C1082 N1081 1.351 . S
C1082 C1083 1.434 . S
C1083 C1074 1.429 . S
C1083 N1080 1.350 . S
C1083 C1082 1.434 . S
C1084 C1085 1.369 . S
C1084 C1086 1.419 . S
C1084 H1088 0.930 . S
C1085 C1084 1.369 . S
C1085 C1094 1.429 . S
C1086 C1084 1.419 . S
C1086 C1087 1.363 . S
C1086 H1089 0.929 . S
C1087 C1086 1.363 . S
C1087 C1093 1.428 . S
H1088 C1084 0.930 . S
H1089 C1086 0.929 . S
S1090 N1091 1.613 . S
S1090 N1092 1.610 . S
N1091 S1090 1.613 . S
N1091 C1094 1.350 . S
N1092 S1090 1.610 . S
N1092 C1093 1.351 . S
C1093 C1087 1.428 . S
C1093 N1092 1.351 . S
C1093 C1094 1.434 . S
C1094 C1085 1.429 . S
C1094 N1091 1.350 . S
C1094 C1093 1.434 . S
C1095 C1096 1.369 . S
C1095 C1097 1.419 . S
C1095 H1099 0.930 . S
C1096 C1095 1.369 . S
C1096 C1105 1.429 . S
C1097 C1095 1.419 . S
C1097 C1098 1.363 . S
C1097 H1100 0.929 . S
C1098 C1097 1.363 . S
C1098 C1104 1.428 . S
H1099 C1095 0.930 . S
H1100 C1097 0.929 . S
S1101 N1102 1.613 . S
S1101 N1103 1.610 . S
N1102 S1101 1.613 . S
N1102 C1105 1.350 . S
N1103 S1101 1.610 . S
N1103 C1104 1.351 . S
C1104 C1098 1.428 . S
C1104 N1103 1.351 . S
C1104 C1105 1.434 . S
C1105 C1096 1.429 . S
C1105 N1102 1.350 . S
C1105 C1104 1.434 . S
C1106 C1107 1.369 . S
C1106 C1108 1.419 . S
C1106 H1110 0.930 . S
C1107 C1106 1.369 . S
C1107 C1116 1.429 . S
C1108 C1106 1.419 . S
C1108 C1109 1.363 . S
C1108 H1111 0.929 . S
C1109 C1108 1.363 . S
C1109 C1115 1.428 . S
H1110 C1106 0.930 . S
H1111 C1108 0.929 . S
S1112 N1113 1.613 . S
S1112 N1114 1.610 . S
N1113 S1112 1.613 . S
N1113 C1116 1.350 . S
N1114 S1112 1.610 . S
N1114 C1115 1.351 . S
C1115 C1109 1.428 . S
C1115 N1114 1.351 . S
C1115 C1116 1.434 . S
C1116 C1107 1.429 . S
C1116 N1113 1.350 . S
C1116 C1115 1.434 . S
C1117 C1118 1.369 . S
C1117 C1119 1.419 . S
C1117 H1121 0.930 . S
C1118 C1117 1.369 . S
C1118 C1127 1.429 . S
C1119 C1117 1.419 . S
C1119 C1120 1.363 . S
C1119 H1122 0.929 . S
C1120 C1119 1.363 . S
C1120 C1126 1.428 . S
H1121 C1117 0.930 . S
H1122 C1119 0.929 . S
S1123 N1124 1.613 . S
S1123 N1125 1.610 . S
N1124 S1123 1.613 . S
N1124 C1127 1.350 . S
N1125 S1123 1.610 . S
N1125 C1126 1.351 . S
C1126 C1120 1.428 . S
C1126 N1125 1.351 . S
C1126 C1127 1.434 . S
C1127 C1118 1.429 . S
C1127 N1124 1.350 . S
C1127 C1126 1.434 . S
C1128 C1129 1.369 . S
C1128 C1130 1.419 . S
C1128 H1132 0.930 . S
C1129 C1128 1.369 . S
C1129 C1138 1.429 . S
C1130 C1128 1.419 . S
C1130 C1131 1.363 . S
C1130 H1133 0.929 . S
C1131 C1130 1.363 . S
C1131 C1137 1.428 . S
H1132 C1128 0.930 . S
H1133 C1130 0.929 . S
S1134 N1135 1.613 . S
S1134 N1136 1.610 . S
N1135 S1134 1.613 . S
N1135 C1138 1.350 . S
N1136 S1134 1.610 . S
N1136 C1137 1.351 . S
C1137 C1131 1.428 . S
C1137 N1136 1.351 . S
C1137 C1138 1.434 . S
C1138 C1129 1.429 . S
C1138 N1135 1.350 . S
C1138 C1137 1.434 . S
C1139 C1140 1.369 . S
C1139 C1141 1.419 . S
C1139 H1143 0.930 . S
C1140 C1139 1.369 . S
C1140 C1149 1.429 . S
C1141 C1139 1.419 . S
C1141 C1142 1.363 . S
C1141 H1144 0.929 . S
C1142 C1141 1.363 . S
C1142 C1148 1.428 1_554 S
H1143 C1139 0.930 . S
H1144 C1141 0.929 . S
S1145 N1146 1.613 . S
S1145 N1147 1.610 . S
N1146 S1145 1.613 . S
N1146 C1149 1.350 1_556 S
N1147 S1145 1.610 . S
N1147 C1148 1.351 . S
C1148 C1142 1.428 1_556 S
C1148 N1147 1.351 . S
C1148 C1149 1.434 1_556 S
C1149 C1140 1.429 . S
C1149 N1146 1.350 1_554 S
C1149 C1148 1.434 1_554 S
C1150 C1151 1.369 . S
C1150 C1152 1.419 . S
C1150 H1154 0.930 . S
C1151 C1150 1.369 . S
C1151 C1160 1.429 . S
C1152 C1150 1.419 . S
C1152 C1153 1.363 . S
C1152 H1155 0.929 . S
C1153 C1152 1.363 . S
C1153 C1159 1.428 1_554 S
H1154 C1150 0.930 . S
H1155 C1152 0.929 . S
S1156 N1157 1.613 . S
S1156 N1158 1.610 . S
N1157 S1156 1.613 . S
N1157 C1160 1.350 1_556 S
N1158 S1156 1.610 . S
N1158 C1159 1.351 . S
C1159 C1153 1.428 1_556 S
C1159 N1158 1.351 . S
C1159 C1160 1.434 1_556 S
C1160 C1151 1.429 . S
C1160 N1157 1.350 1_554 S
C1160 C1159 1.434 1_554 S
C1161 C1162 1.369 . S
C1161 C1163 1.419 . S
C1161 H1165 0.930 . S
C1162 C1161 1.369 . S
C1162 C1171 1.429 . S
C1163 C1161 1.419 . S
C1163 C1164 1.363 . S
C1163 H1166 0.929 . S
C1164 C1163 1.363 . S
C1164 C1170 1.428 . S
H1165 C1161 0.930 . S
H1166 C1163 0.929 . S
S1167 N1168 1.613 . S
S1167 N1169 1.610 . S
N1168 S1167 1.613 . S
N1168 C1171 1.350 . S
N1169 S1167 1.610 . S
N1169 C1170 1.351 . S
C1170 C1164 1.428 . S
C1170 N1169 1.351 . S
C1170 C1171 1.434 . S
C1171 C1162 1.429 . S
C1171 N1168 1.350 . S
C1171 C1170 1.434 . S
C1172 C1173 1.369 . S
C1172 C1174 1.419 . S
C1172 H1176 0.930 . S
C1173 C1172 1.369 . S
C1173 C1182 1.429 . S
C1174 C1172 1.419 . S
C1174 C1175 1.363 . S
C1174 H1177 0.929 . S
C1175 C1174 1.363 . S
C1175 C1181 1.428 . S
H1176 C1172 0.930 . S
H1177 C1174 0.929 . S
S1178 N1179 1.613 . S
S1178 N1180 1.610 . S
N1179 S1178 1.613 . S
N1179 C1182 1.350 . S
N1180 S1178 1.610 . S
N1180 C1181 1.351 . S
C1181 C1175 1.428 . S
C1181 N1180 1.351 . S
C1181 C1182 1.434 . S
C1182 C1173 1.429 . S
C1182 N1179 1.350 . S
C1182 C1181 1.434 . S
C1183 C1184 1.369 . S
C1183 C1185 1.419 . S
C1183 H1187 0.930 . S
C1184 C1183 1.369 . S
C1184 C1193 1.429 . S
C1185 C1183 1.419 . S
C1185 C1186 1.363 . S
C1185 H1188 0.929 . S
C1186 C1185 1.363 . S
C1186 C1192 1.428 . S
H1187 C1183 0.930 . S
H1188 C1185 0.929 . S
S1189 N1190 1.613 . S
S1189 N1191 1.610 . S
N1190 S1189 1.613 . S
N1190 C1193 1.350 . S
N1191 S1189 1.610 . S
N1191 C1192 1.351 . S
C1192 C1186 1.428 . S
C1192 N1191 1.351 . S
C1192 C1193 1.434 . S
C1193 C1184 1.429 . S
C1193 N1190 1.350 . S
C1193 C1192 1.434 . S
C1194 C1195 1.369 . S
C1194 C1196 1.419 1_655 S
C1194 H1198 0.930 . S
C1195 C1194 1.369 . S
C1195 C1204 1.429 . S
C1196 C1194 1.419 1_455 S
C1196 C1197 1.363 . S
C1196 H1199 0.929 . S
C1197 C1196 1.363 . S
C1197 C1203 1.428 . S
H1198 C1194 0.930 . S
H1199 C1196 0.929 . S
S1200 N1201 1.613 . S
S1200 N1202 1.610 1_655 S
N1201 S1200 1.613 . S
N1201 C1204 1.350 . S
N1202 S1200 1.610 1_455 S
N1202 C1203 1.351 . S
C1203 C1197 1.428 . S
C1203 N1202 1.351 . S
C1203 C1204 1.434 1_455 S
C1204 C1195 1.429 . S
C1204 N1201 1.350 . S
C1204 C1203 1.434 1_655 S
C1205 C1206 1.369 . S
C1205 C1207 1.419 . S
C1205 H1209 0.930 . S
C1206 C1205 1.369 . S
C1206 C1215 1.429 . S
C1207 C1205 1.419 . S
C1207 C1208 1.363 . S
C1207 H1210 0.929 . S
C1208 C1207 1.363 . S
C1208 C1214 1.428 . S
H1209 C1205 0.930 . S
H1210 C1207 0.929 . S
S1211 N1212 1.613 . S
S1211 N1213 1.610 . S
N1212 S1211 1.613 . S
N1212 C1215 1.350 . S
N1213 S1211 1.610 . S
N1213 C1214 1.351 . S
C1214 C1208 1.428 . S
C1214 N1213 1.351 . S
C1214 C1215 1.434 . S
C1215 C1206 1.429 . S
C1215 N1212 1.350 . S
C1215 C1214 1.434 . S
C1216 C1217 1.369 . S
C1216 C1218 1.419 1_565 S
C1216 H1220 0.930 . S
C1217 C1216 1.369 . S
C1217 C1226 1.429 . S
C1218 C1216 1.419 1_545 S
C1218 C1219 1.363 . S
C1218 H1221 0.929 . S
C1219 C1218 1.363 . S
C1219 C1225 1.428 . S
H1220 C1216 0.930 . S
H1221 C1218 0.929 . S
S1222 N1223 1.613 . S
S1222 N1224 1.610 1_565 S
N1223 S1222 1.613 . S
N1223 C1226 1.350 . S
N1224 S1222 1.610 1_545 S
N1224 C1225 1.351 . S
C1225 C1219 1.428 . S
C1225 N1224 1.351 . S
C1225 C1226 1.434 1_545 S
C1226 C1217 1.429 . S
C1226 N1223 1.350 . S
C1226 C1225 1.434 1_565 S
C1227 C1228 1.412 . S
C1227 C1229 1.378 1_545 S
C1227 H1231 0.930 . S
C1228 C1227 1.412 . S
C1228 C1237 1.429 . S
C1229 C1227 1.378 1_565 S
C1229 C1230 1.363 . S
C1229 H1232 0.929 . S
C1230 C1229 1.363 . S
C1230 C1236 1.431 . S
H1231 C1227 0.930 . S
H1232 C1229 0.929 . S
S1233 N1234 1.613 . S
S1233 N1235 1.610 . S
N1234 S1233 1.613 . S
N1234 C1237 1.350 . S
N1235 S1233 1.610 . S
N1235 C1236 1.350 1_545 S
C1236 C1230 1.431 . S
C1236 N1235 1.350 1_565 S
C1236 C1237 1.431 1_565 S
C1237 C1228 1.429 . S
C1237 N1234 1.350 . S
C1237 C1236 1.431 1_545 S
C1238 C1239 1.369 . S
C1238 C1240 1.419 1_455 S
C1238 H1242 0.930 . S
C1239 C1238 1.369 . S
C1239 C1248 1.429 . S
C1240 C1238 1.419 1_655 S
C1240 C1241 1.363 . S
C1240 H1243 0.929 . S
C1241 C1240 1.363 . S
C1241 C1247 1.428 . S
H1242 C1238 0.930 . S
H1243 C1240 0.929 . S
S1244 N1245 1.613 1_655 S
S1244 N1246 1.610 . S
N1245 S1244 1.613 1_455 S
N1245 C1248 1.350 . S
N1246 S1244 1.610 . S
N1246 C1247 1.351 . S
C1247 C1241 1.428 . S
C1247 N1246 1.351 . S
C1247 C1248 1.434 1_655 S
C1248 C1239 1.429 . S
C1248 N1245 1.350 . S
C1248 C1247 1.434 1_455 S
C1249 C1250 1.369 . S
C1249 C1251 1.419 . S
C1249 H1253 0.930 . S
C1250 C1249 1.369 . S
C1250 C1259 1.429 . S
C1251 C1249 1.419 . S
C1251 C1252 1.363 . S
C1251 H1254 0.929 . S
C1252 C1251 1.363 . S
C1252 C1258 1.428 . S
H1253 C1249 0.930 . S
H1254 C1251 0.929 . S
S1255 N1256 1.613 . S
S1255 N1257 1.610 . S
N1256 S1255 1.613 . S
N1256 C1259 1.350 . S
N1257 S1255 1.610 . S
N1257 C1258 1.351 . S
C1258 C1252 1.428 . S
C1258 N1257 1.351 . S
C1258 C1259 1.434 . S
C1259 C1250 1.429 . S
C1259 N1256 1.350 . S
C1259 C1258 1.434 . S
C469 C65 1.472 . S
C471 C0 1.465 . S
C480 C13 1.465 . S
C482 C39 1.468 . S
C491 C52 1.475 . S
C493 C26 1.467 . S
C502 C78 1.464 . S
C504 C143 1.471 . S
C513 C91 1.468 . S
C515 C117 1.465 . S
C524 C130 1.475 . S
C526 C104 1.467 . S
C535 C221 1.469 . S
C537 C156 1.473 . S
C546 C169 1.474 . S
C548 C195 1.470 . S
C557 C208 1.473 . S
C559 C182 1.465 . S
C568 C234 1.466 . S
C570 C299 1.473 1_554 S
C579 C247 1.473 . S
C581 C273 1.472 1_554 S
C590 C260 1.464 . S
C592 C286 1.471 1_554 S
C601 C312 1.469 . S
C603 C377 1.473 1_556 S
C612 C351 1.466 1_556 S
C614 C325 1.474 . S
C623 C338 1.466 . S
C625 C364 1.467 1_556 S
C634 C390 1.471 . S
C636 C455 1.473 . S
C645 C403 1.466 . S
C647 C429 1.466 . S
C656 C416 1.464 . S
C658 C442 1.471 . S
C667 C138 1.210 . S
C669 C5 1.100 . S
C678 C151 1.196 . S
C680 C18 1.111 . S
C689 C125 1.201 . S
C691 C31 1.112 . S
C700 C112 1.197 . S
C702 C44 1.106 . S
C711 C57 1.096 . S
C713 C86 1.203 . S
C722 C70 1.097 . S
C724 C99 1.209 . S
C733 C83 1.112 . S
C735 C60 1.202 . S
C744 C96 1.095 . S
C746 C73 1.209 . S
C755 C109 1.110 . S
C757 C47 1.204 . S
C766 C34 1.196 . S
C768 C122 1.108 . S
C777 C8 1.206 . S
C779 C135 1.107 . S
C788 C148 1.094 . S
C790 C21 1.207 . S
C799 C161 1.094 . S
C801 C294 1.203 1_554 S
C810 C174 1.106 . S
C812 C307 1.194 1_554 S
C821 C281 1.200 1_554 S
C823 C187 1.109 . S
C832 C200 1.112 . S
C834 C268 1.203 . S
C843 C213 1.096 . S
C845 C242 1.209 . S
C854 C226 1.104 . S
C856 C255 1.207 . S
C865 C239 1.094 . S
C867 C216 1.208 . S
C876 C229 1.206 . S
C878 C252 1.106 . S
C887 C203 1.203 . S
C889 C265 1.100 . S
C898 C278 1.098 . S
C900 C190 1.203 . S
C909 C164 1.197 . S
C911 C291 1.112 . S
C920 C177 1.199 . S
C922 C304 1.104 . S
C931 C450 1.210 . S
C933 C317 1.099 . S
C942 C330 1.094 . S
C944 C463 1.207 . S
C953 C343 1.113 . S
C955 C437 1.203 . S
C964 C424 1.196 . S
C966 C356 1.110 . S
C975 C398 1.203 . S
C977 C369 1.098 . S
C986 C411 1.210 . S
C988 C382 1.101 . S
C997 C395 1.098 . S
C999 C372 1.204 1_556 S
C1008 C385 1.192 1_556 S
C1010 C408 1.112 . S
C1019 C421 1.108 . S
C1021 C359 1.200 1_556 S
C1030 C346 1.207 . S
C1032 C434 1.097 . S
C1041 C320 1.206 . S
C1043 C447 1.098 . S
C1052 C333 1.210 . S
C1054 C460 1.098 . S
C1063 C218 1.466 . S
C1065 C10 1.466 1_556 S
C1074 C23 1.467 1_556 S
C1076 C231 1.466 . S
C1085 C205 1.460 . S
C1087 C36 1.461 1_556 S
C1096 C348 1.460 . S
C1098 C49 1.461 . S
C1107 C62 1.466 . S
C1109 C322 1.466 . S
C1118 C75 1.462 . S
C1120 C335 1.463 . S
C1129 C88 1.466 1_554 S
C1131 C452 1.466 . S
C1140 C465 1.462 . S
C1142 C101 1.463 1_554 S
C1151 C439 1.462 . S
C1153 C114 1.463 1_554 S
C1162 C270 1.461 . S
C1164 C127 1.461 . S
C1173 C140 1.467 . S
C1175 C244 1.466 . S
C1184 C153 1.465 . S
C1186 C257 1.465 . S
C1195 C166 1.460 . S
C1197 C374 1.461 . S
C1206 C387 1.463 . S
C1208 C179 1.463 . S
C1217 C361 1.461 . S
C1219 C192 1.462 . S
C1228 C283 1.461 . S
C1230 C426 1.462 . S
C1239 C400 1.466 . S
C1241 C296 1.465 . S
C1250 C413 1.464 . S
C1252 C309 1.463 . S
