# Generated by pormake.
# Topology snw, (6)-cn, num edge types: 1
# Building blocks:
#     Node 0, Type 0, BuildingBlock: IZENUY_clean_sbu_0, # of connection points: 6
#     Node 1, Type 0, BuildingBlock: IZENUY_clean_sbu_0, # of connection points: 6
#     Node 2, Type 0, BuildingBlock: IZENUY_clean_sbu_0, # of connection points: 6
#     Node 3, Type 0, BuildingBlock: IZENUY_clean_sbu_0, # of connection points: 6
#     Node 4, Type 0, BuildingBlock: IZENUY_clean_sbu_0, # of connection points: 6
#     Node 5, Type 0, BuildingBlock: IZENUY_clean_sbu_0, # of connection points: 6
#     Node 6, Type 0, BuildingBlock: IZENUY_clean_sbu_0, # of connection points: 6
#     Node 7, Type 0, BuildingBlock: IZENUY_clean_sbu_0, # of connection points: 6
#     Edge 8, Type (0, 0), BuildingBlock: MIFKUJ_clean_linker_0, # of connection points: 2
#     Edge 9, Type (0, 0), BuildingBlock: MIFKUJ_clean_linker_0, # of connection points: 2
#     Edge 10, Type (0, 0), BuildingBlock: MIFKUJ_clean_linker_0, # of connection points: 2
#     Edge 11, Type (0, 0), BuildingBlock: MIFKUJ_clean_linker_0, # of connection points: 2
#     Edge 12, Type (0, 0), BuildingBlock: MIFKUJ_clean_linker_0, # of connection points: 2
#     Edge 13, Type (0, 0), BuildingBlock: MIFKUJ_clean_linker_0, # of connection points: 2
#     Edge 14, Type (0, 0), BuildingBlock: MIFKUJ_clean_linker_0, # of connection points: 2
#     Edge 15, Type (0, 0), BuildingBlock: MIFKUJ_clean_linker_0, # of connection points: 2
#     Edge 16, Type (0, 0), BuildingBlock: MIFKUJ_clean_linker_0, # of connection points: 2
#     Edge 17, Type (0, 0), BuildingBlock: MIFKUJ_clean_linker_0, # of connection points: 2
#     Edge 18, Type (0, 0), BuildingBlock: MIFKUJ_clean_linker_0, # of connection points: 2
#     Edge 19, Type (0, 0), BuildingBlock: MIFKUJ_clean_linker_0, # of connection points: 2
#     Edge 20, Type (0, 0), BuildingBlock: MIFKUJ_clean_linker_0, # of connection points: 2
#     Edge 21, Type (0, 0), BuildingBlock: MIFKUJ_clean_linker_0, # of connection points: 2
#     Edge 22, Type (0, 0), BuildingBlock: MIFKUJ_clean_linker_0, # of connection points: 2
#     Edge 23, Type (0, 0), BuildingBlock: MIFKUJ_clean_linker_0, # of connection points: 2
#     Edge 24, Type (0, 0), BuildingBlock: MIFKUJ_clean_linker_0, # of connection points: 2
#     Edge 25, Type (0, 0), BuildingBlock: MIFKUJ_clean_linker_0, # of connection points: 2
#     Edge 26, Type (0, 0), BuildingBlock: MIFKUJ_clean_linker_0, # of connection points: 2
#     Edge 27, Type (0, 0), BuildingBlock: MIFKUJ_clean_linker_0, # of connection points: 2
#     Edge 28, Type (0, 0), BuildingBlock: MIFKUJ_clean_linker_0, # of connection points: 2
#     Edge 29, Type (0, 0), BuildingBlock: MIFKUJ_clean_linker_0, # of connection points: 2
#     Edge 30, Type (0, 0), BuildingBlock: MIFKUJ_clean_linker_0, # of connection points: 2
#     Edge 31, Type (0, 0), BuildingBlock: MIFKUJ_clean_linker_0, # of connection points: 2
# Relax obj value: 0.015
# Max RMSD: 0.047
# Mean RMSD: 0.047
data_MOF--net-snw--node1-IZENUY_clean_sbu_0--edge1-MIFKUJ_clean_linker_0
_symmetry_space_group_name_H-M    P1
_symmetry_Int_Tables_number       1
_symmetry_cell_setting            triclinic
loop_
_symmetry_equiv_pos_as_xyz
'x, y, z'
_cell_length_a     26.081112
_cell_length_b     26.104459
_cell_length_c     96.415742
_cell_angle_alpha  90.060234
_cell_angle_beta   90.05847
_cell_angle_gamma 90.009949
loop_
_atom_site_label
_atom_site_type_symbol
_atom_site_fract_x
_atom_site_fract_y
_atom_site_fract_z
_atom_type_partial_charge
Fe0 Fe 0.01775 0.25855 0.11047 0.0
Fe1 Fe 0.07663 0.2619 0.08297 0.0
O2 O 0.01777 0.25843 0.09209 0.0
Fe3 Fe 0.95891 0.25468 0.08295 0.0
O4 O 0.93565 0.31337 0.09098 0.0
O5 O 0.95582 0.29107 0.11222 0.0
O6 O 0.04777 0.32091 0.11107 0.0
C7 C 0.09038 0.33108 0.10555 0.0
C8 C 0.94532 0.18573 0.1055 0.0
O9 O 0.10841 0.30299 0.09597 0.0
C10 C 0.01819 0.19085 0.06708 0.0
O11 O 0.07963 0.22608 0.11229 0.0
O12 O 0.09993 0.20341 0.09109 0.0
O13 O 0.92706 0.21392 0.09597 0.0
O14 O 0.98788 0.19613 0.11103 0.0
C15 C 0.01742 0.32524 0.06695 0.0
O16 O 0.0553 0.22187 0.06836 0.0
O17 O 0.97806 0.19606 0.07425 0.0
C18 C 0.10368 0.1972 0.10403 0.0
O19 O 0.0575 0.32026 0.07417 0.0
O20 O 0.98023 0.29436 0.06829 0.0
C21 C 0.93183 0.31982 0.1039 0.0
Fe22 Fe 0.01834 0.81341 0.33332 0.0
Fe23 Fe 0.02118 0.75418 0.36065 0.0
O24 O 0.01957 0.7542 0.3423 0.0
Fe25 Fe 0.01927 0.69519 0.33319 0.0
O26 O 0.05773 0.71882 0.31857 0.0
O27 O 0.07702 0.7985 0.32406 0.0
O28 O 0.05838 0.84718 0.3462 0.0
C29 C 0.08975 0.82979 0.3551 0.0
C30 C 0.95097 0.75054 0.31747 0.0
O31 O 0.08273 0.78664 0.36068 0.0
C32 C 0.95107 0.67892 0.35582 0.0
O33 O 0.95911 0.83265 0.34187 0.0
O34 O 0.9865 0.81455 0.36274 0.0
O35 O 0.95964 0.71052 0.32441 0.0
O36 O 0.97861 0.79009 0.31891 0.0
C37 C 0.08535 0.67073 0.35411 0.0
O38 O 0.95991 0.72174 0.36145 0.0
O39 O 0.98012 0.66167 0.34631 0.0
C40 C 0.95455 0.83623 0.35486 0.0
O41 O 0.05576 0.69373 0.36236 0.0
O42 O 0.07932 0.67496 0.34119 0.0
C43 C 0.08508 0.75857 0.31699 0.0
Fe44 Fe 0.58063 0.75807 0.58343 0.0
Fe45 Fe 0.46257 0.75371 0.58277 0.0
O46 O 0.52088 0.75676 0.59221 0.0
Fe47 Fe 0.51965 0.75866 0.61056 0.0
O48 O 0.55099 0.82066 0.6108 0.0
O49 O 0.6127 0.79848 0.59648 0.0
O50 O 0.56364 0.81651 0.5743 0.0
C51 C 0.52398 0.82227 0.56693 0.0
C52 C 0.60376 0.69398 0.60494 0.0
O53 O 0.48597 0.79231 0.56816 0.0
C54 C 0.44603 0.68676 0.60561 0.0
O55 O 0.55939 0.7181 0.56882 0.0
O56 O 0.48124 0.69423 0.57436 0.0
O57 O 0.58038 0.72467 0.61287 0.0
O58 O 0.60173 0.69948 0.59194 0.0
C59 C 0.43559 0.82113 0.60332 0.0
O60 O 0.42912 0.71427 0.59576 0.0
O61 O 0.48815 0.69707 0.61142 0.0
C62 C 0.52174 0.68789 0.56741 0.0
O63 O 0.43933 0.81325 0.59044 0.0
O64 O 0.45871 0.79261 0.61183 0.0
C65 C 0.59406 0.82902 0.60536 0.0
Fe66 Fe 0.52575 0.31738 0.83328 0.0
Fe67 Fe 0.52089 0.25828 0.86066 0.0
O68 O 0.52274 0.25839 0.84232 0.0
Fe69 Fe 0.52146 0.19947 0.83321 0.0
O70 O 0.5621 0.22175 0.81886 0.0
O71 O 0.58547 0.29962 0.82489 0.0
O72 O 0.56485 0.34979 0.8466 0.0
C73 C 0.5932 0.33178 0.85614 0.0
C74 C 0.45772 0.25726 0.81687 0.0
O75 O 0.58308 0.28911 0.86165 0.0
C76 C 0.44997 0.1846 0.85506 0.0
O77 O 0.46591 0.33953 0.841 0.0
O78 O 0.48755 0.31941 0.86225 0.0
O79 O 0.46324 0.21726 0.82407 0.0
O80 O 0.48766 0.29515 0.81837 0.0
C81 C 0.58441 0.17371 0.85473 0.0
O82 O 0.45856 0.22747 0.86066 0.0
O83 O 0.48021 0.16674 0.84595 0.0
C84 C 0.45832 0.34245 0.8539 0.0
O85 O 0.55387 0.19703 0.86268 0.0
O86 O 0.57988 0.17751 0.84173 0.0
C87 C 0.59221 0.25964 0.81774 0.0
Fe88 Fe 0.0814 0.75807 0.93894 0.0
Fe89 Fe 0.96326 0.75652 0.93872 0.0
O90 O 0.02252 0.75868 0.92975 0.0
Fe91 Fe 0.02309 0.76155 0.91143 0.0
O92 O 0.08358 0.72702 0.9094 0.0
O93 O 0.10184 0.69947 0.93028 0.0
O94 O 0.0579 0.71764 0.95318 0.0
C95 C 0.01921 0.68853 0.95423 0.0
C96 C 0.09836 0.83019 0.91744 0.0
O97 O 0.97959 0.69627 0.94701 0.0
C98 C 0.94006 0.82549 0.9183 0.0
O99 O 0.06492 0.8163 0.94824 0.0
O100 O 0.9861 0.7938 0.9537 0.0
O101 O 0.05535 0.82308 0.91176 0.0
O102 O 0.11554 0.79879 0.92634 0.0
C103 C 0.94804 0.6904 0.91563 0.0
O104 O 0.94234 0.81693 0.93115 0.0
O105 O 0.9628 0.79646 0.90984 0.0
C106 C 0.02475 0.82269 0.95534 0.0
O107 O 0.9303 0.71847 0.92526 0.0
O108 O 0.99081 0.7003 0.91013 0.0
C109 C 0.10549 0.69517 0.91728 0.0
Fe110 Fe 0.51864 0.69992 0.18898 0.0
Fe111 Fe 0.51877 0.81798 0.18918 0.0
O112 O 0.51855 0.75912 0.17997 0.0
Fe113 Fe 0.51825 0.75944 0.1616 0.0
O114 O 0.48215 0.69965 0.15973 0.0
O115 O 0.45873 0.68032 0.1809 0.0
O116 O 0.48003 0.72324 0.20365 0.0
C117 C 0.45185 0.76245 0.20511 0.0
C118 C 0.58674 0.68283 0.16633 0.0
O119 O 0.45959 0.80239 0.19806 0.0
C120 C 0.58455 0.84158 0.16811 0.0
O121 O 0.57818 0.71519 0.19778 0.0
O122 O 0.55791 0.79409 0.20368 0.0
O123 O 0.57884 0.72607 0.16092 0.0
O124 O 0.55769 0.66608 0.17588 0.0
C125 C 0.44996 0.83588 0.16669 0.0
O126 O 0.57839 0.83787 0.18103 0.0
O127 O 0.55421 0.81935 0.15984 0.0
C128 C 0.58619 0.75486 0.20494 0.0
O129 O 0.4792 0.8523 0.17626 0.0
O130 O 0.45768 0.7928 0.16116 0.0
C131 C 0.45192 0.67729 0.16798 0.0
Fe132 Fe 0.57878 0.25663 0.43896 0.0
Fe133 Fe 0.46064 0.2548 0.43916 0.0
O134 O 0.51949 0.25528 0.42995 0.0
Fe135 Fe 0.51901 0.25437 0.4116 0.0
O136 O 0.57899 0.2189 0.40983 0.0
O137 O 0.59948 0.19674 0.43104 0.0
O138 O 0.5559 0.21841 0.45371 0.0
C139 C 0.51742 0.1892 0.45516 0.0
C140 C 0.59466 0.32438 0.41631 0.0
O141 O 0.47735 0.19575 0.44801 0.0
C142 C 0.43739 0.32079 0.41805 0.0
O143 O 0.5624 0.31631 0.44757 0.0
O144 O 0.4843 0.29399 0.45367 0.0
O145 O 0.55176 0.31534 0.41079 0.0
O146 O 0.6121 0.29551 0.42579 0.0
C147 C 0.44333 0.18524 0.41697 0.0
O148 O 0.43985 0.31409 0.43099 0.0
O149 O 0.45902 0.28995 0.40982 0.0
C150 C 0.52278 0.32337 0.45483 0.0
O151 O 0.42643 0.21526 0.42626 0.0
O152 O 0.4862 0.19322 0.41134 0.0
C153 C 0.60171 0.18916 0.41813 0.0
Fe154 Fe 0.02008 0.19798 0.68882 0.0
Fe155 Fe 0.0259 0.31582 0.68896 0.0
O156 O 0.0216 0.25713 0.67978 0.0
Fe157 Fe 0.01861 0.25718 0.6614 0.0
O158 O 0.95613 0.22674 0.66161 0.0
O159 O 0.97841 0.16574 0.6761 0.0
O160 O 0.96227 0.21608 0.69808 0.0
C161 C 0.95694 0.25627 0.70524 0.0
C162 C 0.08241 0.17247 0.66712 0.0
O163 O 0.98703 0.29404 0.70373 0.0
C164 C 0.0924 0.32934 0.6659 0.0
O165 O 0.06093 0.21934 0.70324 0.0
O166 O 0.08526 0.29683 0.69735 0.0
O167 O 0.05137 0.19574 0.65927 0.0
O168 O 0.07814 0.17584 0.68014 0.0
C169 C 0.95899 0.34377 0.6684 0.0
O170 O 0.06599 0.34738 0.67581 0.0
O171 O 0.08057 0.28777 0.66004 0.0
C172 C 0.09139 0.25683 0.70447 0.0
O173 O 0.96663 0.33986 0.68128 0.0
O174 O 0.98587 0.31864 0.65992 0.0
C175 C 0.94779 0.1837 0.6671 0.0
H176 H 0.09425 0.39011 0.05863 0.0
H177 H 0.09247 0.45128 0.03948 0.0
H178 H 0.93532 0.41068 0.03083 0.0
H179 H 0.93705 0.34865 0.04978 0.0
H180 H 0.98837 0.4154 1.00741 0.0
H181 H 0.96693 0.52441 0.04695 0.0
H182 H 0.98811 0.5599 0.06997 0.0
H183 H 0.13369 0.61159 0.05463 0.0
H184 H 0.11369 0.57575 0.03157 0.0
H185 H 0.93972 0.6252 0.9617 0.0
H186 H 0.93783 0.5633 0.98071 0.0
H187 H 0.0953 0.59885 0.99049 0.0
H188 H 0.0973 0.66136 0.9717 0.0
H189 H 0.03912 0.59721 0.01345 0.0
H190 H 0.06131 0.48541 0.97412 0.0
H191 H 0.0401 0.44921 0.95118 0.0
H192 H 0.89196 0.40371 0.96616 0.0
H193 H 0.91216 0.44001 0.98918 0.0
C194 C 0.05917 0.39432 0.05271 0.0
C195 C 0.01578 0.36436 0.05578 0.0
C196 C 0.05816 0.4295 0.04178 0.0
C197 C 0.01359 0.43601 0.03377 0.0
C198 C 0.97017 0.40634 0.03684 0.0
C199 C 0.9712 0.37098 0.04773 0.0
C200 C 0.01255 0.47306 0.02204 0.0
C201 C 0.99875 0.45534 1.00878 0.0
C202 C 0.02702 0.52498 0.02373 0.0
C203 C 0.03899 0.54697 0.03756 0.0
C204 C 1.00361 0.54303 0.04851 0.0
C205 C 0.01538 0.56325 0.06157 0.0
C206 C 0.06226 0.58787 0.06377 0.0
C207 C 0.09741 0.59245 0.05292 0.0
C208 C 0.08586 0.57223 0.03984 0.0
C209 C 0.97409 0.61965 0.96783 0.0
C210 C 0.01864 0.64845 0.96516 0.0
C211 C 0.97299 0.58407 0.97868 0.0
C212 C 0.01654 0.57613 0.987 0.0
C213 C 0.06118 0.60438 0.98425 0.0
C214 C 0.06228 0.64003 0.97345 0.0
C215 C 0.01538 0.53945 0.99881 0.0
C216 C 0.02867 0.55728 0.01209 0.0
C217 C 1.00032 0.48769 0.99715 0.0
C218 C 0.98811 0.46576 0.98334 0.0
C219 C 0.0241 0.46795 0.9725 0.0
C220 C 0.01231 0.44731 0.9595 0.0
C221 C 0.96475 0.42411 0.95723 0.0
C222 C 0.92884 0.42155 0.96795 0.0
C223 C 0.94047 0.44209 0.98098 0.0
H224 H 0.95569 0.40815 0.94715 0.0
H225 H 0.07132 0.60348 0.07389 0.0
H226 H 0.63802 0.6716 0.21516 0.0
H227 H 0.70017 0.6698 0.23419 0.0
H228 H 0.68691 0.8336 0.23869 0.0
H229 H 0.62449 0.83583 0.21974 0.0
H230 H 0.78897 0.79769 0.2394 0.0
H231 H 0.6256 0.76052 0.26064 0.0
H232 H 0.54453 0.71295 0.26331 0.0
H233 H 0.62851 0.57407 0.27061 0.0
H234 H 0.71013 0.62071 0.26777 0.0
H235 H 0.90854 0.83257 0.30416 0.0
H236 H 0.84654 0.83178 0.28519 0.0
H237 H 0.84216 0.66662 0.28655 0.0
H238 H 0.90295 0.66724 0.3059 0.0
H239 H 0.74991 0.70079 0.28237 0.0
H240 H 0.91245 0.73435 0.26151 0.0
H241 H 0.99515 0.7785 0.25823 0.0
H242 H 0.91611 0.91896 0.24932 0.0
H243 H 0.83291 0.87581 0.25274 0.0
C244 C 0.64848 0.70732 0.22013 0.0
C245 C 0.62599 0.75386 0.21596 0.0
C246 C 0.68388 0.70616 0.23105 0.0
C247 C 0.69778 0.75151 0.23793 0.0
C248 C 0.6766 0.79816 0.23354 0.0
C249 C 0.6408 0.79931 0.22273 0.0
C250 C 0.73378 0.75026 0.24987 0.0
C251 C 0.78025 0.77702 0.24887 0.0
C252 C 0.72299 0.722 0.26204 0.0
C253 C 0.67395 0.69401 0.26384 0.0
C254 C 0.62678 0.71976 0.2627 0.0
C255 C 0.58072 0.69298 0.26426 0.0
C256 C 0.58136 0.64049 0.26709 0.0
C257 C 0.62807 0.61471 0.2684 0.0
C258 C 0.67423 0.64131 0.26682 0.0
C259 C 0.89427 0.79605 0.30047 0.0
C260 C 0.91109 0.74994 0.30648 0.0
C261 C 0.85897 0.79563 0.28955 0.0
C262 C 0.84048 0.74909 0.28418 0.0
C263 C 0.85603 0.70304 0.29044 0.0
C264 C 0.89086 0.70344 0.3015 0.0
C265 C 0.80529 0.74855 0.27199 0.0
C266 C 0.7589 0.7214 0.27291 0.0
C267 C 0.81649 0.77591 0.25966 0.0
C268 C 0.86645 0.80194 0.2575 0.0
C269 C 0.91271 0.77473 0.25894 0.0
C270 C 0.95967 0.79957 0.25704 0.0
C271 C 0.96088 0.85153 0.2536 0.0
C272 C 0.91512 0.87873 0.252 0.0
C273 C 0.86804 0.85409 0.25391 0.0
H274 H 0.99728 0.87069 0.25214 0.0
H275 H 0.54567 0.61982 0.2683 0.0
H276 H 0.44733 0.61799 0.56026 0.0
H277 H 0.44972 0.55549 0.54134 0.0
H278 H 0.60262 0.60471 0.53076 0.0
H279 H 0.60043 0.66752 0.5495 0.0
H280 H 0.54565 0.59717 0.50806 0.0
H281 H 0.57966 0.49317 0.54751 0.0
H282 H 0.56657 0.45398 0.57048 0.0
H283 H 0.42754 0.38358 0.55609 0.0
H284 H 0.43867 0.42393 0.5332 0.0
H285 H 0.60044 0.3898 0.46179 0.0
H286 H 0.60192 0.45155 0.48089 0.0
H287 H 0.44765 0.40862 0.49201 0.0
H288 H 0.44602 0.34641 0.47311 0.0
H289 H 0.50857 0.41238 0.51446 0.0
H290 H 0.47283 0.52283 0.47545 0.0
H291 H 0.4891 0.55939 0.45229 0.0
H292 H 0.63647 0.61312 0.46586 0.0
H293 H 0.62121 0.57654 0.48909 0.0
C294 C 0.48159 0.61538 0.55396 0.0
C295 C 0.52363 0.64797 0.55642 0.0
C296 C 0.48296 0.57947 0.54316 0.0
C297 C 0.52647 0.57518 0.53465 0.0
C298 C 0.56858 0.60736 0.53715 0.0
C299 C 0.56728 0.64319 0.54793 0.0
C300 C 0.52774 0.53812 0.52291 0.0
C301 C 0.53814 0.55665 0.50952 0.0
C302 C 0.51726 0.48529 0.52472 0.0
C303 C 0.50967 0.46223 0.53866 0.0
C304 C 0.5458 0.47008 0.5493 0.0
C305 C 0.53875 0.44761 0.56232 0.0
C306 C 0.4961 0.41654 0.56477 0.0
C307 C 0.4604 0.40792 0.55421 0.0
C308 C 0.46696 0.43074 0.54123 0.0
C309 C 0.5667 0.39365 0.46825 0.0
C310 C 0.52314 0.36297 0.46591 0.0
C311 C 0.56755 0.42913 0.47915 0.0
C312 C 0.52477 0.43496 0.48785 0.0
C313 C 0.48115 0.40473 0.48546 0.0
C314 C 0.48025 0.36926 0.47459 0.0
C315 C 0.52565 0.47162 0.49967 0.0
C316 C 0.51589 0.45296 0.51306 0.0
C317 C 0.53699 0.52421 0.49788 0.0
C318 C 0.54602 0.54665 0.48397 0.0
C319 C 0.50881 0.54223 0.47348 0.0
C320 C 0.51781 0.56302 0.46035 0.0
C321 C 0.56377 0.58858 0.45761 0.0
C322 C 0.60084 0.59341 0.46801 0.0
C323 C 0.592 0.57273 0.48116 0.0
H324 H 0.57065 0.60467 0.44744 0.0
H325 H 0.49082 0.39897 0.57483 0.0
H326 H 0.66046 0.33578 0.81094 0.0
H327 H 0.72339 0.33552 0.79214 0.0
H328 H 0.67783 0.18211 0.78095 0.0
H329 H 0.61535 0.18171 0.79979 0.0
H330 H 0.78048 0.19211 0.78017 0.0
H331 H 0.63515 0.28498 0.7626 0.0
H332 H 0.56884 0.3523 0.76287 0.0
H333 H 0.6856 0.4683 0.7626 0.0
H334 H 0.75265 0.40161 0.76252 0.0
H335 H 0.88923 0.18076 0.71284 0.0
H336 H 0.82814 0.18216 0.73205 0.0
H337 H 0.87569 0.33567 0.7425 0.0
H338 H 0.93641 0.33493 0.72323 0.0
H339 H 0.77303 0.32651 0.74387 0.0
H340 H 0.9184 0.23381 0.76111 0.0
H341 H 0.9848 0.16658 0.76086 0.0
H342 H 0.86826 0.05043 0.76183 0.0
H343 H 0.8011 0.117 0.76188 0.0
C344 C 0.66394 0.30186 0.80453 0.0
C345 C 0.63246 0.2589 0.80684 0.0
C346 C 0.69983 0.30187 0.79374 0.0
C347 C 0.70486 0.25905 0.785 0.0
C348 C 0.67457 0.21563 0.78753 0.0
C349 C 0.63871 0.21556 0.7983 0.0
C350 C 0.74103 0.25966 0.77307 0.0
C351 C 0.77846 0.22116 0.77215 0.0
C352 C 0.73915 0.29815 0.76274 0.0
C353 C 0.69891 0.33831 0.76269 0.0
C354 C 0.64669 0.32485 0.7627 0.0
C355 C 0.60897 0.36289 0.7628 0.0
C356 C 0.623 0.41455 0.76279 0.0
C357 C 0.67479 0.42827 0.76263 0.0
C358 C 0.71267 0.39037 0.76255 0.0
C359 C 0.88664 0.21493 0.71918 0.0
C360 C 0.91811 0.2576 0.71651 0.0
C361 C 0.85179 0.21557 0.73021 0.0
C362 C 0.84781 0.25876 0.73885 0.0
C363 C 0.87817 0.30187 0.736 0.0
C364 C 0.91302 0.30128 0.72499 0.0
C365 C 0.81239 0.25887 0.75094 0.0
C366 C 0.77511 0.2975 0.7519 0.0
C367 C 0.81442 0.22051 0.76131 0.0
C368 C 0.85472 0.18039 0.76136 0.0
C369 C 0.90692 0.19393 0.76116 0.0
C370 C 0.9447 0.15594 0.76107 0.0
C371 C 0.93076 0.10427 0.76129 0.0
C372 C 0.879 0.09048 0.76164 0.0
C373 C 0.84106 0.12832 0.76171 0.0
H374 H 0.96006 0.07491 0.76123 0.0
H375 H 0.59374 0.44394 0.76286 0.0
H376 H 0.37895 0.18966 0.81231 0.0
H377 H 0.31706 0.18997 0.79325 0.0
H378 H 0.38772 0.32604 0.77657 0.0
H379 H 0.44873 0.32683 0.79579 0.0
H380 H 0.28774 0.3344 0.77493 0.0
H381 H 0.40975 0.20376 0.76276 0.0
H382 H 0.46073 0.12539 0.76648 0.0
H383 H 0.32252 0.03752 0.77091 0.0
H384 H 0.27071 0.11552 0.7674 0.0
H385 H 0.17092 0.32409 0.70846 0.0
H386 H 0.23415 0.3239 0.72721 0.0
H387 H 0.16455 0.18803 0.74433 0.0
H388 H 0.10222 0.18712 0.72544 0.0
H389 H 0.26467 0.17987 0.74559 0.0
H390 H 0.14272 0.31075 0.75796 0.0
H391 H 0.09182 0.38915 0.7542 0.0
H392 H 0.2301 0.4766 0.74935 0.0
H393 H 0.28183 0.39856 0.7529 0.0
C394 C 0.38128 0.21971 0.8046 0.0
C395 C 0.41904 0.25805 0.80556 0.0
C396 C 0.34598 0.21971 0.79366 0.0
C397 C 0.3482 0.25753 0.7833 0.0
C398 C 0.38523 0.29638 0.78439 0.0
C399 C 0.42019 0.29671 0.7954 0.0
C400 C 0.31209 0.25668 0.77132 0.0
C401 C 0.28322 0.3008 0.76841 0.0
C402 C 0.30528 0.21256 0.76294 0.0
C403 C 0.33638 0.16556 0.76494 0.0
C404 C 0.39024 0.16778 0.76462 0.0
C405 C 0.41928 0.12342 0.76668 0.0
C406 C 0.39488 0.07653 0.76896 0.0
C407 C 0.34137 0.07388 0.76915 0.0
C408 C 0.31215 0.11813 0.76712 0.0
C409 C 0.16917 0.29406 0.71619 0.0
C410 C 0.13126 0.25579 0.71547 0.0
C411 C 0.20522 0.29414 0.72696 0.0
C412 C 0.20364 0.25646 0.73736 0.0
C413 C 0.16656 0.21759 0.73647 0.0
C414 C 0.13084 0.21718 0.72565 0.0
C415 C 0.24026 0.25756 0.74922 0.0
C416 C 0.26923 0.21348 0.75211 0.0
C417 C 0.24717 0.30172 0.75758 0.0
C418 C 0.21612 0.34874 0.75557 0.0
C419 C 0.16226 0.34665 0.75601 0.0
C420 C 0.13326 0.39102 0.75392 0.0
C421 C 0.15771 0.4378 0.7515 0.0
C422 C 0.21121 0.44033 0.75121 0.0
C423 C 0.24039 0.39606 0.75327 0.0
H424 H 0.13519 0.47211 0.74988 0.0
H425 H 0.41743 0.04223 0.77056 0.0
H426 H 0.41062 0.6804 0.21875 0.0
H427 H 0.34754 0.68143 0.23753 0.0
H428 H 0.34135 0.84629 0.23555 0.0
H429 H 0.40399 0.84568 0.21664 0.0
H430 H 0.353 0.80549 0.26299 0.0
H431 H 0.2458 0.7853 0.22274 0.0
H432 H 0.21877 0.74488 0.2008 0.0
H433 H 0.19478 0.60217 0.22193 0.0
H434 H 0.2224 0.64159 0.24398 0.0
H435 H 0.13658 0.84164 0.30656 0.0
H436 H 0.19816 0.84315 0.28749 0.0
H437 H 0.18467 0.67917 0.28318 0.0
H438 H 0.12193 0.67754 0.30197 0.0
H439 H 0.18335 0.72091 0.25864 0.0
H440 H 0.29103 0.73797 0.29863 0.0
H441 H 0.32048 0.77538 0.32074 0.0
H442 H 0.3467 0.91963 0.30059 0.0
H443 H 0.3167 0.88326 0.27838 0.0
C444 C 0.39575 0.7169 0.22227 0.0
C445 C 0.41236 0.76296 0.21618 0.0
C446 C 0.35964 0.71739 0.23298 0.0
C447 C 0.33976 0.76394 0.23791 0.0
C448 C 0.35631 0.80999 0.23191 0.0
C449 C 0.3919 0.80951 0.22105 0.0
C450 C 0.30194 0.76443 0.2494 0.0
C451 C 0.31558 0.78767 0.26201 0.0
C452 C 0.25377 0.73993 0.2482 0.0
C453 C 0.23666 0.71627 0.23499 0.0
C454 C 0.23516 0.74519 0.22269 0.0
C455 C 0.21966 0.72248 0.21023 0.0
C456 C 0.2052 0.67095 0.20996 0.0
C457 C 0.20605 0.64207 0.22216 0.0
C458 C 0.22158 0.66459 0.23464 0.0
C459 C 0.14688 0.80582 0.30161 0.0
C460 C 0.12429 0.75944 0.30583 0.0
C461 C 0.1823 0.80673 0.29072 0.0
C462 C 0.19664 0.76119 0.28396 0.0
C463 C 0.17425 0.71484 0.2882 0.0
C464 C 0.13846 0.71396 0.29899 0.0
C465 C 0.2343 0.76189 0.27235 0.0
C466 C 0.22068 0.73884 0.25969 0.0
C467 C 0.28276 0.78611 0.27355 0.0
C468 C 0.30113 0.80802 0.28687 0.0
C469 C 0.30272 0.77777 0.29893 0.0
C470 C 0.31956 0.79877 0.31148 0.0
C471 C 0.33532 0.84989 0.31208 0.0
C472 C 0.33441 0.88006 0.30011 0.0
C473 C 0.31753 0.85926 0.28754 0.0
H474 H 0.34833 0.86608 0.3218 0.0
H475 H 0.19324 0.65342 0.20031 0.0
H476 H 0.59626 0.16583 0.47278 0.0
H477 H 0.59659 0.10387 0.4917 0.0
H478 H 0.44068 0.06194 0.48199 0.0
H479 H 0.43969 0.12445 0.46308 0.0
H480 H 0.45452 0.07429 0.50977 0.0
H481 H 0.53841 0.98633 0.47279 0.0
H482 H 0.60186 0.97644 0.45411 0.0
H483 H 0.72425 0.98474 0.48384 0.0
H484 H 0.66146 0.99639 0.50271 0.0
H485 H 0.44523 0.84553 0.54928 0.0
H486 H 0.4447 0.90789 0.53047 0.0
H487 H 0.60024 0.95059 0.54035 0.0
H488 H 0.6014 0.88772 0.55919 0.0
H489 H 0.5865 0.93773 0.51247 0.0
H490 H 0.50197 0.02763 0.54936 0.0
H491 H 0.43793 0.03914 0.5679 0.0
H492 H 0.31629 0.02571 0.53807 0.0
H493 H 0.37962 0.01332 0.51937 0.0
C494 C 0.56198 0.14341 0.47461 0.0
C495 C 0.51794 0.15016 0.46636 0.0
C496 C 0.56232 0.10786 0.48543 0.0
C497 C 0.51881 0.07794 0.48821 0.0
C498 C 0.47469 0.08463 0.48004 0.0
C499 C 0.47429 0.12023 0.46919 0.0
C500 C 0.51948 0.03978 0.49964 0.0
C501 C 0.48293 0.04399 0.51026 0.0
C502 C 0.55728 1.00091 0.50044 0.0
C503 C 0.59518 0.99276 0.48916 0.0
C504 C 0.57886 0.98645 0.47535 0.0
C505 C 0.61474 0.98048 0.46472 0.0
C506 C 0.6671 0.97988 0.46777 0.0
C507 C 0.68367 0.98523 0.48149 0.0
C508 C 0.64794 0.99161 0.49216 0.0
C509 C 0.47938 0.86821 0.54752 0.0
C510 C 0.52338 0.86153 0.55579 0.0
C511 C 0.47891 0.90402 0.53676 0.0
C512 C 0.52228 0.93424 0.53406 0.0
C513 C 0.56634 0.92768 0.54225 0.0
C514 C 0.56684 0.89186 0.55305 0.0
C515 C 0.5216 0.97233 0.5226 0.0
C516 C 0.55813 0.96806 0.51198 0.0
C517 C 0.48372 0.01108 0.52178 0.0
C518 C 0.44555 0.01907 0.53298 0.0
C519 C 0.46156 0.02675 0.54677 0.0
C520 C 0.42539 0.03349 0.5573 0.0
C521 C 0.37308 0.03303 0.55417 0.0
C522 C 0.35683 0.02599 0.54049 0.0
C523 C 0.39285 0.01916 0.52991 0.0
H524 H 0.34513 0.03822 0.56234 0.0
H525 H 0.69482 0.97527 0.45952 0.0
H526 H 0.94422 0.12046 0.06014 0.0
H527 H 0.94647 0.05769 0.04132 0.0
H528 H 0.09845 0.10814 0.03021 0.0
H529 H 0.09634 0.17144 0.04887 0.0
H530 H 0.03938 0.09837 1.0076 0.0
H531 H 0.07971 0.9952 0.04724 0.0
H532 H 0.06694 0.96003 0.0707 0.0
H533 H 0.92335 0.89449 0.05799 0.0
H534 H 0.93492 0.92992 0.03448 0.0
H535 H 0.10058 0.89083 0.96249 0.0
H536 H 0.09997 0.95287 0.98151 0.0
H537 H 0.94731 0.90489 0.99272 0.0
H538 H 0.94771 0.84243 0.97386 0.0
H539 H 0.00763 0.9132 0.01532 0.0
H540 H 0.96717 0.01705 0.97572 0.0
H541 H 0.98013 0.05221 0.95226 0.0
H542 H 0.12436 0.11642 0.96493 0.0
H543 H 0.1126 0.08099 0.98844 0.0
C544 C 0.97825 0.11812 0.05374 0.0
C545 C 0.02009 0.15112 0.05604 0.0
C546 C 0.97954 0.08204 0.043 0.0
C547 C 0.0228 0.07791 0.0344 0.0
C548 C 0.06464 0.11065 0.0367 0.0
C549 C 0.0634 0.14673 0.04742 0.0
C550 C 0.02413 0.04008 0.02285 0.0
C551 C 0.03316 0.05778 1.00932 0.0
C552 C 0.01489 0.98725 0.02503 0.0
C553 C 0.00796 0.96564 0.03913 0.0
C554 C 0.04522 0.97363 0.04947 0.0
C555 C 0.03823 0.95359 0.06278 0.0
C556 C 0.9943 0.92516 0.06585 0.0
C557 C 0.95733 0.91658 0.0556 0.0
C558 C 0.96411 0.93659 0.04228 0.0
C559 C 0.06679 0.89351 0.96897 0.0
C560 C 0.02419 0.86155 0.96661 0.0
C561 C 0.06645 0.92916 0.97982 0.0
C562 C 0.02343 0.93381 0.9885 0.0
C563 C 0.98094 0.90195 0.98618 0.0
C564 C 0.9812 0.86636 0.97534 0.0
C565 C 0.02282 0.97152 1.00007 0.0
C566 C 0.01392 0.95379 0.01361 0.0
C567 C 0.03221 0.02432 0.9979 0.0
C568 C 0.03924 0.04592 0.9838 0.0
C569 C 1.00184 0.03832 0.97348 0.0
C570 C 0.00894 0.05836 0.96018 0.0
C571 C 0.05311 0.08641 0.9571 0.0
C572 C 0.0902 0.09461 0.96733 0.0
C573 C 0.08333 0.0746 0.98064 0.0
H574 H 0.05853 0.10189 0.94679 0.0
H575 H 0.98895 0.90968 0.07615 0.0
H576 H 0.41367 0.9269 0.17696 0.0
H577 H 0.35228 0.98522 0.16596 0.0
H578 H 0.33739 0.8814 0.13138 0.0
H579 H 0.39815 0.82277 0.14229 0.0
H580 H 0.35465 0.98404 0.12357 0.0
H581 H 0.24374 0.88653 0.15334 0.0
H582 H 0.21621 0.84943 0.17563 0.0
H583 H 0.2029 1.0002 0.19311 0.0
H584 H 0.23114 0.03819 0.17097 0.0
H585 H 0.14524 0.1131 0.0911 0.0
H586 H 0.20182 0.04838 0.10136 0.0
H587 H 0.20033 0.13088 0.14018 0.0
H588 H 0.14268 0.19423 0.1302 0.0
H589 H 0.19011 0.03488 0.14536 0.0
H590 H 0.30473 0.13332 0.11685 0.0
H591 H 0.33581 0.17286 0.09521 0.0
H592 H 0.34591 0.02454 0.07611 0.0
H593 H 0.31425 0.98416 0.09759 0.0
C594 C 0.3971 0.91634 0.16706 0.0
C595 C 0.41086 0.87018 0.16052 0.0
C596 C 0.362 0.94964 0.1608 0.0
C597 C 0.34034 0.93751 0.14787 0.0
C598 C 0.35378 0.89145 0.14135 0.0
C599 C 0.38835 0.85791 0.14765 0.0
C600 C 0.3043 0.9733 0.141 0.0
C601 C 0.3183 0.99471 0.12821 0.0
C602 C 0.25754 0.98791 0.14725 0.0
C603 C 0.24003 0.96518 0.16053 0.0
C604 C 0.23534 0.91176 0.16197 0.0
C605 C 0.21954 0.89057 0.17457 0.0
C606 C 0.20794 0.92243 0.18579 0.0
C607 C 0.21196 0.97557 0.18441 0.0
C608 C 0.22782 0.99695 0.17183 0.0
C609 C 0.15723 0.11745 0.1018 0.0
C610 C 0.13954 0.1588 0.10982 0.0
C611 C 0.18967 0.08054 0.10765 0.0
C612 C 0.20584 0.08495 0.12153 0.0
C613 C 0.18831 0.12641 0.12948 0.0
C614 C 0.15541 0.16275 0.12373 0.0
C615 C 0.24058 0.0464 0.12792 0.0
C616 C 0.22634 0.02428 0.14064 0.0
C617 C 0.28746 0.03161 0.12169 0.0
C618 C 0.30659 0.05579 0.10877 0.0
C619 C 0.31321 0.10918 0.108 0.0
C620 C 0.331 0.13173 0.09577 0.0
C621 C 0.34268 0.10125 0.08428 0.0
C622 C 0.33675 0.04811 0.08501 0.0
C623 C 0.31893 0.02537 0.09721 0.0
H624 H 0.35645 0.11878 0.07482 0.0
H625 H 0.19574 0.90595 0.19554 0.0
H626 H 0.19001 0.8077 0.36037 0.0
H627 H 0.25514 0.86527 0.37005 0.0
H628 H 0.14134 0.98492 0.37359 0.0
H629 H 0.07786 0.92878 0.3628 0.0
H630 H 0.22086 0.02746 0.36625 0.0
H631 H 0.18992 0.90318 0.40237 0.0
H632 H 0.18415 0.81613 0.4122 0.0
H633 H 0.34307 0.79036 0.40293 0.0
H634 H 0.34966 0.87714 0.39295 0.0
H635 H 0.33893 0.17904 0.41854 0.0
H636 H 0.28312 0.11496 0.40775 0.0
H637 H 0.41554 0.0352 0.39196 0.0
H638 H 0.4718 0.09975 0.40251 0.0
H639 H 0.33315 0.97124 0.40491 0.0
H640 H 0.36101 0.10195 0.37011 0.0
H641 H 0.36272 0.1911 0.36168 0.0
H642 H 0.20223 0.20668 0.37063 0.0
H643 H 0.19974 0.1178 0.3793 0.0
C644 C 0.17932 0.84647 0.36316 0.0
C645 C 0.1292 0.86404 0.36087 0.0
C646 C 0.21633 0.87925 0.36882 0.0
C647 C 0.20316 0.92938 0.37291 0.0
C648 C 0.15283 0.94667 0.37053 0.0
C649 C 0.11645 0.91457 0.36441 0.0
C650 C 0.24136 0.96421 0.37956 0.0
C651 C 0.24478 0.01503 0.37482 0.0
C652 C 0.27379 0.94824 0.39058 0.0
C653 C 0.27015 0.89646 0.39682 0.0
C654 C 0.22358 0.87887 0.4024 0.0
C655 C 0.22018 0.82961 0.408 0.0
C656 C 0.26321 0.79773 0.40817 0.0
C657 C 0.30979 0.81512 0.4028 0.0
C658 C 0.3134 0.86436 0.39718 0.0
C659 C 0.35625 0.14762 0.41289 0.0
C660 C 0.40976 0.14454 0.41132 0.0
C661 C 0.32431 0.11115 0.40671 0.0
C662 C 0.34531 0.07058 0.39904 0.0
C663 C 0.39872 0.06628 0.39786 0.0
C664 C 0.4307 0.10327 0.40383 0.0
C665 C 0.31122 0.03402 0.39175 0.0
C666 C 0.30893 0.98315 0.39634 0.0
C667 C 0.27898 0.05012 0.38082 0.0
C668 C 0.2803 0.10336 0.37546 0.0
C669 C 0.32617 0.12451 0.37038 0.0
C670 C 0.32726 0.17495 0.36553 0.0
C671 C 0.28262 0.20453 0.36562 0.0
C672 C 0.23676 0.18368 0.37054 0.0
C673 C 0.23549 0.13328 0.37541 0.0
H674 H 0.28355 0.24361 0.36189 0.0
H675 H 0.26046 0.75954 0.41247 0.0
H676 H 0.09368 0.1512 0.63964 0.0
H677 H 0.15486 0.09388 0.62868 0.0
H678 H 0.21915 0.05693 0.66866 0.0
H679 H 0.15764 0.115 0.67987 0.0
H680 H 0.29343 0.07545 0.64851 0.0
H681 H 0.14163 0.97342 0.65332 0.0
H682 H 0.04951 0.95391 0.65104 0.0
H683 H 0.06095 0.96543 0.60673 0.0
H684 H 0.15304 0.98581 0.60876 0.0
H685 H 0.4272 0.85174 0.63016 0.0
H686 H 0.36894 0.91454 0.63998 0.0
H687 H 0.30695 0.94494 0.59933 0.0
H688 H 0.36544 0.88106 0.58928 0.0
H689 H 0.23176 0.93176 0.61913 0.0
H690 H 0.38426 0.03096 0.61421 0.0
H691 H 0.47651 0.04983 0.61647 0.0
H692 H 0.46406 0.04365 0.66083 0.0
H693 H 0.37184 0.02389 0.65885 0.0
C694 C 0.12068 0.13098 0.64619 0.0
C695 C 0.12043 0.1375 0.66069 0.0
C696 C 0.15561 0.09805 0.63986 0.0
C697 C 0.19111 0.07067 0.64785 0.0
C698 C 0.19185 0.07763 0.66231 0.0
C699 C 0.15661 0.11063 0.6687 0.0
C700 C 0.22718 0.03481 0.64098 0.0
C701 C 0.28004 0.04358 0.64225 0.0
C702 C 0.20951 0.99422 0.63246 0.0
C703 C 0.15417 0.98165 0.6312 0.0
C704 C 0.12443 0.97222 0.6431 0.0
C705 C 0.07223 0.96093 0.64185 0.0
C706 C 0.04936 0.95856 0.62875 0.0
C707 C 0.0787 0.96734 0.61687 0.0
C708 C 0.13092 0.97873 0.61806 0.0
C709 C 0.40136 0.87171 0.62323 0.0
C710 C 0.40093 0.86115 0.6089 0.0
C711 C 0.36821 0.90792 0.62889 0.0
C712 C 0.33396 0.9348 0.62039 0.0
C713 C 0.33326 0.92464 0.60606 0.0
C714 C 0.36675 0.8883 0.60034 0.0
C715 C 0.29807 0.97224 0.6267 0.0
C716 C 0.2452 0.96376 0.62534 0.0
C717 C 0.31575 0.01311 0.63512 0.0
C718 C 0.37115 0.02551 0.63637 0.0
C719 C 0.40124 0.03323 0.62445 0.0
C720 C 0.45353 0.04415 0.62568 0.0
C721 C 0.47616 0.04782 0.63878 0.0
C722 C 0.44649 0.04074 0.65069 0.0
C723 C 0.39418 0.02973 0.64952 0.0
H724 H 0.51666 0.05625 0.63971 0.0
H725 H 0.00893 0.94981 0.62781 0.0
H726 H 0.07165 0.92609 0.90893 0.0
H727 H 0.12784 0.9919 0.89913 0.0
H728 H 0.25682 0.88892 0.90278 0.0
H729 H 0.20138 0.8249 0.91352 0.0
H730 H 0.28965 0.9752 0.90856 0.0
H731 H 0.18574 0.91534 0.87077 0.0
H732 H 0.10548 0.89524 0.85835 0.0
H733 H 0.06091 0.05344 0.86023 0.0
H734 H 0.14067 0.07438 0.87281 0.0
H735 H 0.44449 0.0803 0.85429 0.0
H736 H 0.38035 0.02532 0.8653 0.0
H737 H 0.29833 0.15869 0.87951 0.0
H738 H 0.36322 0.21427 0.86883 0.0
H739 H 0.24023 0.0635 0.86499 0.0
H740 H 0.35296 0.11843 0.9028 0.0
H741 H 0.43877 0.13168 0.91296 0.0
H742 H 0.47213 0.97157 0.90814 0.0
H743 H 0.38674 0.95756 0.89774 0.0
C744 C 0.11212 0.91789 0.90772 0.0
C745 C 0.13227 0.87055 0.91195 0.0
C746 C 0.14418 0.95528 0.902 0.0
C747 C 0.19659 0.94518 0.89986 0.0
C748 C 0.21667 0.89794 0.90429 0.0
C749 C 0.18496 0.86126 0.91041 0.0
C750 C 0.23066 0.98337 0.89297 0.0
C751 C 0.27867 0.99403 0.89898 0.0
C752 C 0.2167 0.00873 0.8805 0.0
C753 C 0.1689 0.99632 0.87286 0.0
C754 C 0.15867 0.94578 0.86861 0.0
C755 C 0.1133 0.93424 0.86153 0.0
C756 C 0.07805 0.97301 0.85854 0.0
C757 C 0.08821 0.02344 0.86257 0.0
C758 C 0.1335 0.03517 0.86967 0.0
C759 C 0.41257 0.09801 0.85964 0.0
C760 C 0.40896 0.15162 0.86074 0.0
C761 C 0.37606 0.06655 0.86592 0.0
C762 C 0.33486 0.08809 0.8732 0.0
C763 C 0.32996 0.14152 0.87391 0.0
C764 C 0.36708 0.1731 0.86786 0.0
C765 C 0.29843 0.05445 0.88059 0.0
C766 C 0.25041 0.04471 0.87464 0.0
C767 C 0.31281 0.02883 0.89288 0.0
C768 C 0.3637 0.03707 0.89937 0.0
C769 C 0.37876 0.08615 0.9038 0.0
C770 C 0.42729 0.09378 0.90962 0.0
C771 C 0.46094 0.05252 0.91116 0.0
C772 C 0.44605 1.0035 0.90693 0.0
C773 C 0.39758 0.99569 0.90108 0.0
H774 H 0.49851 0.05851 0.91566 0.0
H775 H 0.04293 0.964 0.85306 0.0
H776 H 0.86434 0.88002 0.93165 0.0
H777 H 0.80586 0.94297 0.92127 0.0
H778 H 0.88253 0.92592 0.88191 0.0
H779 H 0.94096 0.86377 0.89213 0.0
H780 H 0.86025 0.02552 0.88722 0.0
H781 H 0.77349 0.86267 0.88796 0.0
H782 H 0.73916 0.78447 0.89887 0.0
H783 H 0.64184 0.87582 0.92492 0.0
H784 H 0.6762 0.95465 0.9143 0.0
H785 H 0.66541 0.12448 0.84215 0.0
H786 H 0.72816 0.06743 0.85322 0.0
H787 H 0.65118 0.08643 0.89247 0.0
H788 H 0.58877 0.14277 0.88162 0.0
H789 H 0.67397 0.98686 0.88742 0.0
H790 H 0.75923 0.14988 0.88624 0.0
H791 H 0.79302 0.22792 0.87513 0.0
H792 H 0.89278 0.13648 0.84979 0.0
H793 H 0.85892 0.05777 0.86059 0.0
C794 C 0.86897 0.8901 0.92082 0.0
C795 C 0.90681 0.86642 0.91267 0.0
C796 C 0.8355 0.9259 0.9149 0.0
C797 C 0.83954 0.93859 0.90077 0.0
C798 C 0.87866 0.9166 0.89281 0.0
C799 C 0.91181 0.88079 0.89867 0.0
C800 C 0.8018 0.97292 0.89402 0.0
C801 C 0.81956 0.01689 0.88716 0.0
C802 C 0.74869 0.96191 0.89409 0.0
C803 C 0.72785 0.91457 0.90045 0.0
C804 C 0.74509 0.8661 0.8961 0.0
C805 C 0.72558 0.82166 0.90222 0.0
C806 C 0.68845 0.82518 0.91261 0.0
C807 C 0.67067 0.87316 0.91689 0.0
C808 C 0.69014 0.91773 0.91082 0.0
C809 C 0.66184 0.1163 0.85312 0.0
C810 C 0.62218 0.13828 0.86099 0.0
C811 C 0.69778 0.08394 0.85944 0.0
C812 C 0.69442 0.07303 0.87369 0.0
C813 C 0.65445 0.09433 0.88147 0.0
C814 C 0.6189 0.12674 0.87522 0.0
C815 C 0.73238 0.03952 0.88063 0.0
C816 C 0.71465 0.99562 0.88751 0.0
C817 C 0.78547 0.05062 0.88056 0.0
C818 C 0.80612 0.09789 0.87411 0.0
C819 C 0.78805 0.14637 0.87821 0.0
C820 C 0.80726 0.19074 0.87199 0.0
C821 C 0.84492 0.18715 0.86173 0.0
C822 C 0.86354 0.13919 0.85771 0.0
C823 C 0.84436 0.09469 0.86388 0.0
H824 H 0.85977 0.22154 0.85693 0.0
H825 H 0.67337 0.79073 0.91733 0.0
H826 H 0.87081 0.20984 0.64902 0.0
H827 H 0.80712 0.15278 0.63849 0.0
H828 H 0.86858 0.0256 0.66167 0.0
H829 H 0.93215 0.08205 0.67225 0.0
H830 H 0.85752 1.00498 0.63357 0.0
H831 H 0.75703 0.07644 0.67109 0.0
H832 H 0.71961 0.14739 0.68462 0.0
H833 H 0.63902 0.2 0.64849 0.0
H834 H 0.67641 0.12959 0.6347 0.0
H835 H 0.67746 0.81176 0.62115 0.0
H836 H 0.73367 0.87534 0.63193 0.0
H837 H 0.64326 0.99683 0.61382 0.0
H838 H 0.5848 0.93265 0.60385 0.0
H839 H 0.66908 0.02505 0.63805 0.0
H840 H 0.76572 0.95522 0.60035 0.0
H841 H 0.80355 0.88678 0.58598 0.0
H842 H 0.89284 0.83539 0.62071 0.0
H843 H 0.85522 0.90327 0.63534 0.0
C844 C 0.87053 0.1698 0.65195 0.0
C845 C 0.90672 0.15049 0.66144 0.0
C846 C 0.83404 0.13731 0.64595 0.0
C847 C 0.8332 0.08501 0.64932 0.0
C848 C 0.86871 0.06584 0.65892 0.0
C849 C 0.90488 0.09826 0.665 0.0
C850 C 0.79654 0.04963 0.64251 0.0
C851 C 0.81629 0.00898 0.63465 0.0
C852 C 0.74286 0.0561 0.64353 0.0
C853 C 0.71988 0.09803 0.65184 0.0
C854 C 0.7316 0.10334 0.66601 0.0
C855 C 0.71033 0.1434 0.67373 0.0
C856 C 0.67703 0.17822 0.66741 0.0
C857 C 0.66483 0.17299 0.65337 0.0
C858 C 0.68598 0.13297 0.6456 0.0
C859 C 0.66977 0.85211 0.61953 0.0
C860 C 0.6275 0.86773 0.61163 0.0
C861 C 0.70203 0.88845 0.62558 0.0
C862 C 0.69376 0.94106 0.62337 0.0
C863 C 0.65075 0.95657 0.61561 0.0
C864 C 0.61756 0.92008 0.60988 0.0
C865 C 0.72995 0.9796 0.6292 0.0
C866 C 0.71024 0.02103 0.63685 0.0
C867 C 0.78383 0.97436 0.6278 0.0
C868 C 0.80737 0.93414 0.61896 0.0
C869 C 0.7933 0.92922 0.60494 0.0
C870 C 0.81472 0.89054 0.59674 0.0
C871 C 0.85052 0.85672 0.60244 0.0
C872 C 0.86513 0.86164 0.61632 0.0
C873 C 0.84385 0.90027 0.62456 0.0
H874 H 0.86699 0.82676 0.59608 0.0
H875 H 0.66054 0.20914 0.67341 0.0
H876 H 0.87784 0.8904 0.3418 0.0
H877 H 0.81445 0.94702 0.35265 0.0
H878 H 0.87982 0.91543 0.39287 0.0
H879 H 0.94213 0.85838 0.38225 0.0
H880 H 0.77882 0.91422 0.39442 0.0
H881 H 0.90646 0.02701 0.37533 0.0
H882 H 0.96093 0.0631 0.35686 0.0
H883 H 0.82684 0.10705 0.3339 0.0
H884 H 0.77155 0.07058 0.35215 0.0
H885 H 0.67166 0.12759 0.43164 0.0
H886 H 0.72877 0.06373 0.42114 0.0
H887 H 0.6622 0.09411 0.38099 0.0
H888 H 0.60598 0.15794 0.39127 0.0
H889 H 0.76327 0.09521 0.37943 0.0
H890 H 0.63551 0.98394 0.39912 0.0
H891 H 0.58189 0.94618 0.41752 0.0
H892 H 0.71696 0.89955 0.43964 0.0
H893 H 0.77144 0.93768 0.42147 0.0
C894 C 0.87861 0.89549 0.35295 0.0
C895 C 0.91531 0.8701 0.36113 0.0
C896 C 0.84247 0.92794 0.35914 0.0
C897 C 0.84276 0.93589 0.37357 0.0
C898 C 0.87879 0.90989 0.38173 0.0
C899 C 0.9146 0.87739 0.3756 0.0
C900 C 0.80626 0.97183 0.38026 0.0
C901 C 0.77576 0.95396 0.39124 0.0
C902 C 0.80172 0.02344 0.37598 0.0
C903 C 0.83489 0.0456 0.36503 0.0
C904 C 0.8886 0.04404 0.36629 0.0
C905 C 0.91962 0.06461 0.35587 0.0
C906 C 0.89736 0.08723 0.3442 0.0
C907 C 0.84402 0.08944 0.34294 0.0
C908 C 0.81283 0.06886 0.35332 0.0
C909 C 0.66905 0.12039 0.4206 0.0
C910 C 0.63462 0.14825 0.41228 0.0
C911 C 0.70154 0.08377 0.41461 0.0
C912 C 0.69969 0.07412 0.40027 0.0
C913 C 0.66456 0.10113 0.39206 0.0
C914 C 0.63239 0.13766 0.39798 0.0
C915 C 0.73558 0.0376 0.39357 0.0
C916 C 0.76615 0.05544 0.3826 0.0
C917 C 0.74028 0.98606 0.39791 0.0
C918 C 0.70756 0.96408 0.40899 0.0
C919 C 0.65379 0.96611 0.40798 0.0
C920 C 0.62325 0.94452 0.41835 0.0
C921 C 0.64602 0.92044 0.42973 0.0
C922 C 0.69939 0.91814 0.43081 0.0
C923 C 0.73011 0.93974 0.42048 0.0
H924 H 0.62232 0.90342 0.4377 0.0
H925 H 0.92144 0.10314 0.33614 0.0
H926 H 0.59098 0.87847 0.14178 0.0
H927 H 0.65719 0.93298 0.13193 0.0
H928 H 0.73623 0.93543 0.17127 0.0
H929 H 0.66872 0.88175 0.1814 0.0
H930 H 0.73667 0.02762 0.16021 0.0
H931 H 0.77887 0.86098 0.14383 0.0
H932 H 0.76323 0.7767 0.13306 0.0
H933 H 0.72374 0.84985 0.09464 0.0
H934 H 0.7383 0.93466 0.10524 0.0
H935 H 0.96134 0.13402 0.12979 0.0
H936 H 0.90489 0.07137 0.14076 0.0
H937 H 0.80064 0.08143 0.10614 0.0
H938 H 0.85672 0.14457 0.09507 0.0
H939 H 0.81976 0.97921 0.11579 0.0
H940 H 0.77289 0.14635 0.13353 0.0
H941 H 0.79104 0.22944 0.1447 0.0
H942 H 0.84404 0.15193 0.18126 0.0
H943 H 0.827 0.06831 0.17021 0.0
C944 C 0.62243 0.89047 0.14838 0.0
C945 C 0.62474 0.87549 0.16237 0.0
C946 C 0.66047 0.92148 0.14269 0.0
C947 C 0.70234 0.93741 0.15076 0.0
C948 C 0.70442 0.92332 0.16482 0.0
C949 C 0.66588 0.89266 0.17059 0.0
C950 C 0.74329 0.96935 0.14446 0.0
C951 C 0.75549 0.01652 0.15064 0.0
C952 C 0.76752 0.95525 0.13186 0.0
C953 C 0.75934 0.90425 0.12537 0.0
C954 C 0.76654 0.85913 0.13311 0.0
C955 C 0.75789 0.81125 0.12703 0.0
C956 C 0.74243 0.80793 0.11318 0.0
C957 C 0.73571 0.85249 0.10537 0.0
C958 C 0.7442 0.90048 0.11141 0.0
C959 C 0.92666 0.12265 0.12442 0.0
C960 C 0.91331 0.14465 0.11159 0.0
C961 C 0.89442 0.08691 0.13074 0.0
C962 C 0.84847 0.0722 0.12431 0.0
C963 C 0.83597 0.09243 0.11126 0.0
C964 C 0.86793 0.12862 0.10499 0.0
C965 C 0.81233 0.03742 0.13147 0.0
C966 C 0.80117 0.98984 0.12544 0.0
C967 C 0.78954 0.05082 0.14428 0.0
C968 C 0.79919 0.10108 0.15099 0.0
C969 C 0.78881 0.14702 0.14391 0.0
C970 C 0.79884 0.19421 0.15022 0.0
C971 C 0.81881 0.19596 0.16367 0.0
C972 C 0.82865 0.15051 0.17084 0.0
C973 C 0.8188 0.10321 0.16456 0.0
H974 H 0.82655 0.23253 0.16854 0.0
H975 H 0.73572 0.77083 0.1085 0.0
H976 H 0.88115 0.39441 0.68207 0.0
H977 H 0.81881 0.45443 0.67195 0.0
H978 H 0.89073 0.43725 0.63196 0.0
H979 H 0.95251 0.37788 0.64184 0.0
H980 H 0.87066 0.53763 0.63805 0.0
H981 H 0.78282 0.37504 0.63852 0.0
H982 H 0.74823 0.29679 0.64937 0.0
H983 H 0.65258 0.38822 0.67584 0.0
H984 H 0.68714 0.46708 0.66528 0.0
H985 H 0.68119 0.63859 0.59265 0.0
H986 H 0.74007 0.57846 0.60401 0.0
H987 H 0.66154 0.6013 0.64287 0.0
H988 H 0.60279 0.66104 0.63168 0.0
H989 H 0.68419 0.49993 0.63829 0.0
H990 H 0.76997 0.66248 0.63738 0.0
H991 H 0.80428 0.74082 0.62651 0.0
H992 H 0.90397 0.64986 0.60103 0.0
H993 H 0.86966 0.5709 0.61159 0.0
C994 C 0.8837 0.40366 0.67114 0.0
C995 C 0.92166 0.38118 0.66277 0.0
C996 C 0.84803 0.43775 0.66537 0.0
C997 C 0.85009 0.45006 0.65118 0.0
C998 C 0.88849 0.42837 0.64292 0.0
C999 C 0.92365 0.39416 0.64861 0.0
C1000 C 0.81209 0.48496 0.64473 0.0
C1001 C 0.82993 0.52918 0.638 0.0
C1002 C 0.7589 0.47434 0.64488 0.0
C1003 C 0.73801 0.42697 0.65122 0.0
C1004 C 0.75475 0.37848 0.64674 0.0
C1005 C 0.73508 0.33401 0.65282 0.0
C1006 C 0.69835 0.33755 0.66331 0.0
C1007 C 0.68111 0.38556 0.66772 0.0
C1008 C 0.7007 0.43014 0.66169 0.0
C1009 C 0.67627 0.63047 0.60358 0.0
C1010 C 0.63766 0.65498 0.61129 0.0
C1011 C 0.71 0.59629 0.61007 0.0
C1012 C 0.70543 0.58588 0.62432 0.0
C1013 C 0.6658 0.60887 0.63189 0.0
C1014 C 0.63244 0.64324 0.62547 0.0
C1015 C 0.74285 0.55232 0.6315 0.0
C1016 C 0.7249 0.50845 0.63838 0.0
C1017 C 0.79597 0.56328 0.6315 0.0
C1018 C 0.81685 0.61073 0.62517 0.0
C1019 C 0.7989 0.65915 0.62937 0.0
C1020 C 0.81839 0.70367 0.62329 0.0
C1021 C 0.85619 0.7003 0.61307 0.0
C1022 C 0.87463 0.6524 0.60894 0.0
C1023 C 0.8552 0.60775 0.61497 0.0
H1024 H 0.87128 0.73479 0.60838 0.0
H1025 H 0.68315 0.30312 0.668 0.0
H1026 H 0.84741 0.66904 0.92124 0.0
H1027 H 0.7943 0.60157 0.91117 0.0
H1028 H 0.92308 0.54882 0.88701 0.0
H1029 H 0.97622 0.61706 0.89679 0.0
H1030 H 0.84193 0.55051 0.87139 0.0
H1031 H 0.88129 0.48383 0.91566 0.0
H1032 H 0.89014 0.48402 0.9411 0.0
H1033 H 0.72718 0.50031 0.94547 0.0
H1034 H 0.7174 0.50178 0.92003 0.0
H1035 H 0.66915 0.30293 0.87421 0.0
H1036 H 0.7369 0.35669 0.8841 0.0
H1037 H 0.67823 0.48689 0.86157 0.0
H1038 H 0.61159 0.4333 0.85137 0.0
H1039 H 0.73526 0.43578 0.90051 0.0
H1040 H 0.77151 0.5677 0.8527 0.0
H1041 H 0.77059 0.56119 0.82718 0.0
H1042 H 0.79785 0.39929 0.82985 0.0
H1043 H 0.79975 0.40493 0.85537 0.0
C1044 C 0.86456 0.643 0.91383 0.0
C1045 C 0.91611 0.64852 0.90983 0.0
C1046 C 0.83416 0.60425 0.90811 0.0
C1047 C 0.8548 0.56967 0.89844 0.0
C1048 C 0.90627 0.57503 0.89444 0.0
C1049 C 0.93663 0.61403 0.90007 0.0
C1050 C 0.82224 0.52877 0.89227 0.0
C1051 C 0.81875 0.52533 0.87777 0.0
C1052 C 0.79313 0.49475 0.90057 0.0
C1053 C 0.79866 0.49331 0.9159 0.0
C1054 C 0.84734 0.48784 0.92203 0.0
C1055 C 0.85253 0.4876 0.93646 0.0
C1056 C 0.80927 0.49206 0.9449 0.0
C1057 C 0.76068 0.49684 0.93892 0.0
C1058 C 0.75528 0.49744 0.92449 0.0
C1059 C 0.67087 0.34297 0.87131 0.0
C1060 C 0.63501 0.36377 0.86196 0.0
C1061 C 0.70956 0.37368 0.877 0.0
C1062 C 0.71311 0.42576 0.87348 0.0
C1063 C 0.67706 0.44661 0.86424 0.0
C1064 C 0.63877 0.41589 0.85844 0.0
C1065 C 0.75366 0.45881 0.87964 0.0
C1066 C 0.75871 0.46073 0.89414 0.0
C1067 C 0.78546 0.4903 0.87134 0.0
C1068 C 0.78534 0.48673 0.85597 0.0
C1069 C 0.77761 0.53077 0.84784 0.0
C1070 C 0.77686 0.52721 0.83337 0.0
C1071 C 0.78402 0.47984 0.8269 0.0
C1072 C 0.79215 0.43594 0.83488 0.0
C1073 C 0.79302 0.43929 0.84935 0.0
H1074 H 0.78334 0.47716 0.81569 0.0
H1075 H 0.81341 0.49178 0.95607 0.0
H1076 H 0.62152 0.59066 0.17614 0.0
H1077 H 0.68292 0.53264 0.16508 0.0
H1078 H 0.70134 0.63917 0.1313 0.0
H1079 H 0.64044 0.69758 0.14228 0.0
H1080 H 0.68334 0.53716 0.12273 0.0
H1081 H 0.79395 0.63063 0.15359 0.0
H1082 H 0.82101 0.66588 0.17617 0.0
H1083 H 0.83023 0.51389 0.19298 0.0
H1084 H 0.80247 0.47776 0.17054 0.0
H1085 H 0.89249 0.40491 0.09102 0.0
H1086 H 0.83619 0.47015 0.10114 0.0
H1087 H 0.83312 0.38601 0.13966 0.0
H1088 H 0.89057 0.3221 0.12981 0.0
H1089 H 0.84507 0.48151 0.14524 0.0
H1090 H 0.7303 0.38712 0.11567 0.0
H1091 H 0.69982 0.34936 0.0937 0.0
H1092 H 0.69453 0.49878 0.07517 0.0
H1093 H 0.72561 0.53737 0.09699 0.0
C1094 C 0.63884 0.60191 0.1664 0.0
C1095 C 0.62595 0.64874 0.1601 0.0
C1096 C 0.67397 0.56876 0.16011 0.0
C1097 C 0.69664 0.5817 0.14739 0.0
C1098 C 0.68415 0.62847 0.14111 0.0
C1099 C 0.64948 0.66188 0.14745 0.0
C1100 C 0.73264 0.54591 0.14049 0.0
C1101 C 0.71911 0.52547 0.12753 0.0
C1102 C 0.7786 0.52991 0.14694 0.0
C1103 C 0.79567 0.55153 0.16042 0.0
C1104 C 0.80134 0.60475 0.16213 0.0
C1105 C 0.81688 0.62488 0.1749 0.0
C1106 C 0.82721 0.59215 0.18602 0.0
C1107 C 0.82216 0.5392 0.18437 0.0
C1108 C 0.80657 0.51887 0.17162 0.0
C1109 C 0.87954 0.4003 0.10162 0.0
C1110 C 0.89596 0.35838 0.10961 0.0
C1111 C 0.84725 0.43751 0.10739 0.0
C1112 C 0.82993 0.43284 0.12115 0.0
C1113 C 0.84608 0.39071 0.12906 0.0
C1114 C 0.87886 0.35406 0.12338 0.0
C1115 C 0.79559 0.47192 0.12748 0.0
C1116 C 0.80944 0.49316 0.14036 0.0
C1117 C 0.74956 0.48816 0.12103 0.0
C1118 C 0.73082 0.46505 0.10791 0.0
C1119 C 0.72301 0.41187 0.10688 0.0
C1120 C 0.70556 0.39033 0.09446 0.0
C1121 C 0.69539 0.42163 0.08303 0.0
C1122 C 0.70251 0.47457 0.08402 0.0
C1123 C 0.72001 0.4963 0.09641 0.0
H1124 H 0.68188 0.40488 0.07343 0.0
H1125 H 0.83922 0.60782 0.1959 0.0
H1126 H 0.93874 0.57563 0.35245 0.0
H1127 H 0.87326 0.52092 0.36279 0.0
H1128 H 0.80439 0.65288 0.38229 0.0
H1129 H 0.87098 0.70764 0.37237 0.0
H1130 H 0.80628 0.57924 0.39998 0.0
H1131 H 0.7503 0.59346 0.3532 0.0
H1132 H 0.75762 0.59088 0.32771 0.0
H1133 H 0.79241 0.43023 0.32937 0.0
H1134 H 0.78603 0.432 0.35489 0.0
H1135 H 0.56959 0.39368 0.39612 0.0
H1136 H 0.62421 0.45987 0.38605 0.0
H1137 H 0.74803 0.41461 0.41309 0.0
H1138 H 0.69347 0.34882 0.42338 0.0
H1139 H 0.70964 0.45269 0.3718 0.0
H1140 H 0.82076 0.5188 0.42128 0.0
H1141 H 0.80461 0.52849 0.44636 0.0
H1142 H 0.64308 0.54191 0.43857 0.0
H1143 H 0.65829 0.53349 0.41346 0.0
C1144 C 0.9095 0.59309 0.35888 0.0
C1145 C 0.91002 0.64602 0.36157 0.0
C1146 C 0.87192 0.56175 0.36475 0.0
C1147 C 0.83336 0.5828 0.37318 0.0
C1148 C 0.83371 0.6357 0.37584 0.0
C1149 C 0.87172 0.66698 0.37013 0.0
C1150 C 0.79332 0.54941 0.37942 0.0
C1151 C 0.78509 0.55166 0.39381 0.0
C1152 C 0.76452 0.51432 0.37134 0.0
C1153 C 0.76806 0.51297 0.35597 0.0
C1154 C 0.75983 0.55765 0.34814 0.0
C1155 C 0.76378 0.55632 0.33368 0.0
C1156 C 0.77557 0.51044 0.32693 0.0
C1157 C 0.78331 0.46575 0.33461 0.0
C1158 C 0.77948 0.46688 0.34908 0.0
C1159 C 0.60837 0.39791 0.39999 0.0
C1160 C 0.62717 0.3658 0.41056 0.0
C1161 C 0.63958 0.43573 0.39419 0.0
C1162 C 0.69011 0.44242 0.39885 0.0
C1163 C 0.70892 0.41066 0.40945 0.0
C1164 C 0.6777 0.3729 0.4153 0.0
C1165 C 0.72369 0.48164 0.39238 0.0
C1166 C 0.73069 0.48044 0.37796 0.0
C1167 C 0.75006 0.5188 0.40037 0.0
C1168 C 0.74069 0.52496 0.41548 0.0
C1169 C 0.78182 0.52414 0.42491 0.0
C1170 C 0.77282 0.52943 0.43914 0.0
C1171 C 0.72283 0.53573 0.44406 0.0
C1172 C 0.68176 0.53699 0.43476 0.0
C1173 C 0.69056 0.53191 0.42052 0.0
H1174 H 0.7159 0.53971 0.45508 0.0
H1175 H 0.77861 0.5095 0.31573 0.0
H1176 H 0.35538 0.36993 0.42996 0.0
H1177 H 0.29831 0.43255 0.41886 0.0
H1178 H 0.39059 0.42739 0.3818 0.0
H1179 H 0.44721 0.36463 0.3927 0.0
H1180 H 0.35821 0.52818 0.38949 0.0
H1181 H 0.29102 0.35871 0.38214 0.0
H1182 H 0.26174 0.27339 0.38963 0.0
H1183 H 0.14124 0.34235 0.41351 0.0
H1184 H 0.17085 0.42832 0.40653 0.0
H1185 H 0.17233 0.63179 0.34187 0.0
H1186 H 0.23552 0.57374 0.35248 0.0
H1187 H 0.14577 0.56959 0.39001 0.0
H1188 H 0.08333 0.62739 0.37967 0.0
H1189 H 0.17844 0.4731 0.38144 0.0
H1190 H 0.24545 0.64168 0.38958 0.0
H1191 H 0.27448 0.72792 0.38278 0.0
H1192 H 0.39393 0.66186 0.35792 0.0
H1193 H 0.36481 0.57506 0.36431 0.0
C1194 C 0.36376 0.38264 0.41952 0.0
C1195 C 0.40531 0.36198 0.41213 0.0
C1196 C 0.33119 0.41828 0.41319 0.0
C1197 C 0.34016 0.43422 0.39949 0.0
C1198 C 0.38305 0.41554 0.39237 0.0
C1199 C 0.41509 0.37944 0.39859 0.0
C1200 C 0.30303 0.46761 0.3922 0.0
C1201 C 0.31906 0.51601 0.38759 0.0
C1202 C 0.25187 0.45175 0.38988 0.0
C1203 C 0.23355 0.40003 0.39394 0.0
C1204 C 0.2586 0.35576 0.3891 0.0
C1205 C 0.24189 0.30725 0.39323 0.0
C1206 C 0.19963 0.30242 0.40202 0.0
C1207 C 0.17401 0.34614 0.40671 0.0
C1208 C 0.1908 0.39479 0.40269 0.0
C1209 C 0.1661 0.61823 0.35235 0.0
C1210 C 0.12304 0.63433 0.35995 0.0
C1211 C 0.20219 0.5853 0.3584 0.0
C1212 C 0.19526 0.56761 0.37204 0.0
C1213 C 0.15176 0.58277 0.37948 0.0
C1214 C 0.11626 0.61605 0.37355 0.0
C1215 C 0.23345 0.53386 0.37879 0.0
C1216 C 0.21764 0.48527 0.3833 0.0
C1217 C 0.28467 0.54969 0.38106 0.0
C1218 C 0.30253 0.60182 0.37728 0.0
C1219 C 0.27759 0.64549 0.38255 0.0
C1220 C 0.29413 0.6945 0.3788 0.0
C1221 C 0.336 0.70038 0.36992 0.0
C1222 C 0.36145 0.65724 0.36478 0.0
C1223 C 0.34492 0.60812 0.36846 0.0
H1224 H 0.34877 0.73836 0.36704 0.0
H1225 H 0.18672 0.26481 0.40519 0.0
H1226 H 0.08204 0.37364 0.13135 0.0
H1227 H 0.14032 0.43435 0.14239 0.0
H1228 H 0.23018 0.4414 0.10486 0.0
H1229 H 0.17311 0.3788 0.09396 0.0
H1230 H 0.29109 0.43192 0.12556 0.0
H1231 H 0.14772 0.54164 0.11635 0.0
H1232 H 0.05709 0.5685 0.11681 0.0
H1233 H 0.06001 0.57056 0.16134 0.0
H1234 H 0.15051 0.54303 0.16115 0.0
H1235 H 0.43743 0.65116 0.14089 0.0
H1236 H 0.37263 0.59436 0.13117 0.0
H1237 H 0.30945 0.57007 0.17194 0.0
H1238 H 0.37463 0.62729 0.18189 0.0
H1239 H 0.23466 0.58786 0.15075 0.0
H1240 H 0.38108 0.48007 0.15916 0.0
H1241 H 0.47254 0.45667 0.1578 0.0
H1242 H 0.46386 0.45508 0.11332 0.0
H1243 H 0.3725 0.47924 0.11441 0.0
C1244 C 0.11389 0.38853 0.12539 0.0
C1245 C 0.123 0.3714 0.11177 0.0
C1246 C 0.14713 0.42347 0.1317 0.0
C1247 C 0.18942 0.44306 0.12442 0.0
C1248 C 0.19791 0.4268 0.11071 0.0
C1249 C 0.16519 0.39114 0.10447 0.0
C1250 C 0.22621 0.47854 0.13129 0.0
C1251 C 0.27864 0.46637 0.13089 0.0
C1252 C 0.21009 0.52289 0.13859 0.0
C1253 C 0.15576 0.53978 0.13873 0.0
C1254 C 0.12893 0.54747 0.12624 0.0
C1255 C 0.0776 0.56287 0.12645 0.0
C1256 C 0.05277 0.57109 0.1391 0.0
C1257 C 0.07928 0.5641 0.15155 0.0
C1258 C 0.13061 0.54865 0.1514 0.0
C1259 C 0.40981 0.63392 0.14785 0.0
C1260 C 0.41153 0.64349 0.16221 0.0
C1261 C 0.37281 0.60137 0.14225 0.0
C1262 C 0.33665 0.57766 0.15085 0.0
C1263 C 0.33722 0.58796 0.16515 0.0
C1264 C 0.37459 0.62042 0.17081 0.0
C1265 C 0.29911 0.54133 0.14481 0.0
C1266 C 0.24675 0.55329 0.14542 0.0
C1267 C 0.31525 0.49711 0.13754 0.0
C1268 C 0.37003 0.48187 0.13687 0.0
C1269 C 0.39876 0.47507 0.14909 0.0
C1270 C 0.45057 0.46162 0.14836 0.0
C1271 C 0.47403 0.4545 0.13548 0.0
C1272 C 0.44566 0.46065 0.1233 0.0
C1273 C 0.39384 0.47416 0.12396 0.0
H1274 H 0.51415 0.44412 0.13494 0.0
H1275 H 0.01302 0.58299 0.13924 0.0
H1276 H 0.16134 0.61957 0.93026 0.0
H1277 H 0.21842 0.55681 0.91931 0.0
H1278 H 0.18379 0.62059 0.87912 0.0
H1279 H 0.12633 0.68227 0.88983 0.0
H1280 H 0.18436 0.51944 0.8777 0.0
H1281 H 0.29549 0.64992 0.89619 0.0
H1282 H 0.33136 0.70581 0.91441 0.0
H1283 H 0.37931 0.57371 0.93753 0.0
H1284 H 0.34309 0.51699 0.91952 0.0
H1285 H 0.39769 0.413 0.84028 0.0
H1286 H 0.33471 0.47131 0.85075 0.0
H1287 H 0.36542 0.40609 0.89101 0.0
H1288 H 0.42819 0.34867 0.88079 0.0
H1289 H 0.3665 0.50802 0.89221 0.0
H1290 H 0.256 0.37752 0.87325 0.0
H1291 H 0.22087 0.32252 0.85473 0.0
H1292 H 0.17268 0.45572 0.8321 0.0
H1293 H 0.20818 0.51156 0.85041 0.0
C1294 C 0.16585 0.62011 0.9191 0.0
C1295 C 0.13955 0.65622 0.91096 0.0
C1296 C 0.19854 0.58433 0.91286 0.0
C1297 C 0.20578 0.58441 0.8984 0.0
C1298 C 0.1788 0.61976 0.89027 0.0
C1299 C 0.14609 0.65522 0.89646 0.0
C1300 C 0.24213 0.54848 0.89165 0.0
C1301 C 0.22432 0.51729 0.88078 0.0
C1302 C 0.29409 0.5452 0.89578 0.0
C1303 C 0.31611 0.57923 0.90658 0.0
C1304 C 0.31335 0.63279 0.90521 0.0
C1305 C 0.3338 0.66462 0.91549 0.0
C1306 C 0.35748 0.64332 0.92714 0.0
C1307 C 0.36089 0.59015 0.92851 0.0
C1308 C 0.34044 0.55815 0.91827 0.0
C1309 C 0.39077 0.411 0.85134 0.0
C1310 C 0.41827 0.37647 0.8597 0.0
C1311 C 0.35473 0.4442 0.85731 0.0
C1312 C 0.34538 0.44296 0.87167 0.0
C1313 C 0.37224 0.40797 0.87993 0.0
C1314 C 0.40814 0.37508 0.87403 0.0
C1315 C 0.3087 0.47877 0.87831 0.0
C1316 C 0.32651 0.51007 0.88914 0.0
C1317 C 0.25685 0.48224 0.87411 0.0
C1318 C 0.23521 0.44871 0.86314 0.0
C1319 C 0.23826 0.39509 0.86427 0.0
C1320 C 0.21822 0.36376 0.85382 0.0
C1321 C 0.19468 0.38562 0.84223 0.0
C1322 C 0.19099 0.43885 0.84108 0.0
C1323 C 0.21103 0.47035 0.8515 0.0
H1324 H 0.1792 0.3613 0.83414 0.0
H1325 H 0.37329 0.66803 0.93509 0.0
H1326 H 0.1724 0.37456 0.67917 0.0
H1327 H 0.23814 0.42998 0.66899 0.0
H1328 H 0.16549 0.41458 0.62888 0.0
H1329 H 0.10269 0.35575 0.6389 0.0
H1330 H 0.25853 0.41651 0.62442 0.0
H1331 H 0.15167 0.52469 0.65231 0.0
H1332 H 0.10746 0.55356 0.67353 0.0
H1333 H 0.25233 0.57092 0.6942 0.0
H1334 H 0.29738 0.54156 0.67315 0.0
H1335 H 0.35697 0.64782 0.59488 0.0
H1336 H 0.30086 0.58322 0.60523 0.0
H1337 H 0.40412 0.56907 0.63996 0.0
H1338 H 0.46059 0.63346 0.62973 0.0
H1339 H 0.29945 0.58178 0.64734 0.0
H1340 H 0.40329 0.47829 0.61627 0.0
H1341 H 0.43952 0.45849 0.59326 0.0
H1342 H 0.2878 0.44193 0.57652 0.0
H1343 H 0.25064 0.46246 0.59937 0.0
C1344 C 0.17105 0.38283 0.66816 0.0
C1345 C 0.1328 0.36124 0.65977 0.0
C1346 C 0.20823 0.41484 0.66235 0.0
C1347 C 0.20621 0.4278 0.64819 0.0
C1348 C 0.16814 0.40537 0.63981 0.0
C1349 C 0.13215 0.37189 0.64553 0.0
C1350 C 0.24315 0.46502 0.64209 0.0
C1351 C 0.26688 0.45283 0.62941 0.0
C1352 C 0.2548 0.51247 0.64856 0.0
C1353 C 0.22784 0.53043 0.6612 0.0
C1354 C 0.17407 0.53438 0.66141 0.0
C1355 C 0.14887 0.55086 0.6734 0.0
C1356 C 0.17706 0.56393 0.68522 0.0
C1357 C 0.23054 0.56071 0.68505 0.0
C1358 C 0.25593 0.54419 0.67309 0.0
C1359 C 0.36791 0.63082 0.60469 0.0
C1360 C 0.41324 0.6459 0.61148 0.0
C1361 C 0.33586 0.59385 0.61056 0.0
C1362 C 0.34852 0.57135 0.62333 0.0
C1363 C 0.39375 0.58607 0.63011 0.0
C1364 C 0.42603 0.62273 0.6242 0.0
C1365 C 0.314 0.53315 0.62975 0.0
C1366 C 0.29095 0.54525 0.64246 0.0
C1367 C 0.3017 0.48648 0.6231 0.0
C1368 C 0.32419 0.47228 0.60951 0.0
C1369 C 0.37766 0.47062 0.60767 0.0
C1370 C 0.39836 0.45926 0.59465 0.0
C1371 C 0.36595 0.44911 0.58343 0.0
C1372 C 0.31282 0.44987 0.58522 0.0
C1373 C 0.29193 0.4613 0.5982 0.0
H1374 H 0.38192 0.44071 0.57335 0.0
H1375 H 0.15748 0.57665 0.69449 0.0
loop_
_geom_bond_atom_site_label_1
_geom_bond_atom_site_label_2
_geom_bond_distance
_geom_bond_site_symmetry_2
_ccdc_geom_bond_type
Fe0 O2 1.918 . S
Fe0 O5 1.997 1_455 S
Fe0 O6 2.002 . S
Fe0 O11 1.976 . S
Fe0 O14 1.996 1_455 S
Fe1 O2 1.918 . S
Fe1 O9 1.997 . S
Fe1 O12 1.996 . S
Fe1 O16 1.976 . S
Fe1 O19 2.002 . S
O2 Fe0 1.918 . S
O2 Fe1 1.918 . S
O2 Fe3 1.918 1_455 S
Fe3 O2 1.918 1_655 S
Fe3 O4 2.002 . S
Fe3 O13 1.976 . S
Fe3 O17 1.996 . S
Fe3 O20 1.997 . S
O4 Fe3 2.002 . S
O4 C21 1.295 . S
O5 Fe0 1.997 1_655 S
O5 C21 1.235 . S
O6 Fe0 2.002 . S
O6 C7 1.295 . S
C7 O6 1.295 . S
C7 O9 1.235 . S
C8 O13 1.287 . S
C8 O14 1.255 . S
O9 Fe1 1.997 . S
O9 C7 1.235 . S
C10 O16 1.287 . S
C10 O17 1.255 1_455 S
O11 Fe0 1.976 . S
O11 C18 1.287 . S
O12 Fe1 1.996 . S
O12 C18 1.255 . S
O13 Fe3 1.976 . S
O13 C8 1.287 . S
O14 Fe0 1.996 1_655 S
O14 C8 1.255 . S
C15 O19 1.295 . S
C15 O20 1.235 1_455 S
O16 Fe1 1.976 . S
O16 C10 1.287 . S
O17 Fe3 1.996 . S
O17 C10 1.255 1_655 S
C18 O11 1.287 . S
C18 O12 1.255 . S
O19 Fe1 2.002 . S
O19 C15 1.295 . S
O20 Fe3 1.997 . S
O20 C15 1.235 1_655 S
C21 O4 1.295 . S
C21 O5 1.235 . S
Fe22 O24 1.918 . S
Fe22 O27 1.997 . S
Fe22 O28 2.002 . S
Fe22 O33 1.976 1_455 S
Fe22 O36 1.996 1_455 S
Fe23 O24 1.918 . S
Fe23 O31 1.997 . S
Fe23 O34 1.996 1_455 S
Fe23 O38 1.976 1_455 S
Fe23 O41 2.002 . S
O24 Fe22 1.918 . S
O24 Fe23 1.918 . S
O24 Fe25 1.918 . S
Fe25 O24 1.918 . S
Fe25 O26 2.002 . S
Fe25 O35 1.976 1_455 S
Fe25 O39 1.996 1_455 S
Fe25 O42 1.997 . S
O26 Fe25 2.002 . S
O26 C43 1.295 . S
O27 Fe22 1.997 . S
O27 C43 1.235 . S
O28 Fe22 2.002 . S
O28 C29 1.295 . S
C29 O28 1.295 . S
C29 O31 1.235 . S
C30 O35 1.287 . S
C30 O36 1.255 . S
O31 Fe23 1.997 . S
O31 C29 1.235 . S
C32 O38 1.287 . S
C32 O39 1.255 . S
O33 Fe22 1.976 1_655 S
O33 C40 1.287 . S
O34 Fe23 1.996 1_655 S
O34 C40 1.255 . S
O35 Fe25 1.976 1_655 S
O35 C30 1.287 . S
O36 Fe22 1.996 1_655 S
O36 C30 1.255 . S
C37 O41 1.295 . S
C37 O42 1.235 . S
O38 Fe23 1.976 1_655 S
O38 C32 1.287 . S
O39 Fe25 1.996 1_655 S
O39 C32 1.255 . S
C40 O33 1.287 . S
C40 O34 1.255 . S
O41 Fe23 2.002 . S
O41 C37 1.295 . S
O42 Fe25 1.997 . S
O42 C37 1.235 . S
C43 O26 1.295 . S
C43 O27 1.235 . S
Fe44 O46 1.918 . S
Fe44 O49 1.997 . S
Fe44 O50 2.002 . S
Fe44 O55 1.976 . S
Fe44 O58 1.996 . S
Fe45 O46 1.918 . S
Fe45 O53 1.997 . S
Fe45 O56 1.996 . S
Fe45 O60 1.976 . S
Fe45 O63 2.002 . S
O46 Fe44 1.918 . S
O46 Fe45 1.918 . S
O46 Fe47 1.918 . S
Fe47 O46 1.918 . S
Fe47 O48 2.002 . S
Fe47 O57 1.976 . S
Fe47 O61 1.996 . S
Fe47 O64 1.997 . S
O48 Fe47 2.002 . S
O48 C65 1.295 . S
O49 Fe44 1.997 . S
O49 C65 1.235 . S
O50 Fe44 2.002 . S
O50 C51 1.295 . S
C51 O50 1.295 . S
C51 O53 1.235 . S
C52 O57 1.287 . S
C52 O58 1.255 . S
O53 Fe45 1.997 . S
O53 C51 1.235 . S
C54 O60 1.287 . S
C54 O61 1.255 . S
O55 Fe44 1.976 . S
O55 C62 1.287 . S
O56 Fe45 1.996 . S
O56 C62 1.255 . S
O57 Fe47 1.976 . S
O57 C52 1.287 . S
O58 Fe44 1.996 . S
O58 C52 1.255 . S
C59 O63 1.295 . S
C59 O64 1.235 . S
O60 Fe45 1.976 . S
O60 C54 1.287 . S
O61 Fe47 1.996 . S
O61 C54 1.255 . S
C62 O55 1.287 . S
C62 O56 1.255 . S
O63 Fe45 2.002 . S
O63 C59 1.295 . S
O64 Fe47 1.997 . S
O64 C59 1.235 . S
C65 O48 1.295 . S
C65 O49 1.235 . S
Fe66 O68 1.918 . S
Fe66 O71 1.997 . S
Fe66 O72 2.002 . S
Fe66 O77 1.976 . S
Fe66 O80 1.996 . S
Fe67 O68 1.918 . S
Fe67 O75 1.997 . S
Fe67 O78 1.996 . S
Fe67 O82 1.976 . S
Fe67 O85 2.002 . S
O68 Fe66 1.918 . S
O68 Fe67 1.918 . S
O68 Fe69 1.918 . S
Fe69 O68 1.918 . S
Fe69 O70 2.002 . S
Fe69 O79 1.976 . S
Fe69 O83 1.996 . S
Fe69 O86 1.997 . S
O70 Fe69 2.002 . S
O70 C87 1.295 . S
O71 Fe66 1.997 . S
O71 C87 1.235 . S
O72 Fe66 2.002 . S
O72 C73 1.295 . S
C73 O72 1.295 . S
C73 O75 1.235 . S
C74 O79 1.287 . S
C74 O80 1.255 . S
O75 Fe67 1.997 . S
O75 C73 1.235 . S
C76 O82 1.287 . S
C76 O83 1.255 . S
O77 Fe66 1.976 . S
O77 C84 1.287 . S
O78 Fe67 1.996 . S
O78 C84 1.255 . S
O79 Fe69 1.976 . S
O79 C74 1.287 . S
O80 Fe66 1.996 . S
O80 C74 1.255 . S
C81 O85 1.295 . S
C81 O86 1.235 . S
O82 Fe67 1.976 . S
O82 C76 1.287 . S
O83 Fe69 1.996 . S
O83 C76 1.255 . S
C84 O77 1.287 . S
C84 O78 1.255 . S
O85 Fe67 2.002 . S
O85 C81 1.295 . S
O86 Fe69 1.997 . S
O86 C81 1.235 . S
C87 O70 1.295 . S
C87 O71 1.235 . S
Fe88 O90 1.918 . S
Fe88 O93 1.997 . S
Fe88 O94 2.002 . S
Fe88 O99 1.976 . S
Fe88 O102 1.996 . S
Fe89 O90 1.918 1_655 S
Fe89 O97 1.997 . S
Fe89 O100 1.996 . S
Fe89 O104 1.976 . S
Fe89 O107 2.002 . S
O90 Fe88 1.918 . S
O90 Fe89 1.918 1_455 S
O90 Fe91 1.918 . S
Fe91 O90 1.918 . S
Fe91 O92 2.002 . S
Fe91 O101 1.976 . S
Fe91 O105 1.996 1_455 S
Fe91 O108 1.997 1_455 S
O92 Fe91 2.002 . S
O92 C109 1.295 . S
O93 Fe88 1.997 . S
O93 C109 1.235 . S
O94 Fe88 2.002 . S
O94 C95 1.295 . S
C95 O94 1.295 . S
C95 O97 1.235 1_455 S
C96 O101 1.287 . S
C96 O102 1.255 . S
O97 Fe89 1.997 . S
O97 C95 1.235 1_655 S
C98 O104 1.287 . S
C98 O105 1.255 . S
O99 Fe88 1.976 . S
O99 C106 1.287 . S
O100 Fe89 1.996 . S
O100 C106 1.255 1_655 S
O101 Fe91 1.976 . S
O101 C96 1.287 . S
O102 Fe88 1.996 . S
O102 C96 1.255 . S
C103 O107 1.295 . S
C103 O108 1.235 . S
O104 Fe89 1.976 . S
O104 C98 1.287 . S
O105 Fe91 1.996 1_655 S
O105 C98 1.255 . S
C106 O99 1.287 . S
C106 O100 1.255 1_455 S
O107 Fe89 2.002 . S
O107 C103 1.295 . S
O108 Fe91 1.997 1_655 S
O108 C103 1.235 . S
C109 O92 1.295 . S
C109 O93 1.235 . S
Fe110 O112 1.918 . S
Fe110 O115 1.997 . S
Fe110 O116 2.002 . S
Fe110 O121 1.976 . S
Fe110 O124 1.996 . S
Fe111 O112 1.918 . S
Fe111 O119 1.997 . S
Fe111 O122 1.996 . S
Fe111 O126 1.976 . S
Fe111 O129 2.002 . S
O112 Fe110 1.918 . S
O112 Fe111 1.918 . S
O112 Fe113 1.918 . S
Fe113 O112 1.918 . S
Fe113 O114 2.002 . S
Fe113 O123 1.976 . S
Fe113 O127 1.996 . S
Fe113 O130 1.997 . S
O114 Fe113 2.002 . S
O114 C131 1.295 . S
O115 Fe110 1.997 . S
O115 C131 1.235 . S
O116 Fe110 2.002 . S
O116 C117 1.295 . S
C117 O116 1.295 . S
C117 O119 1.235 . S
C118 O123 1.287 . S
C118 O124 1.255 . S
O119 Fe111 1.997 . S
O119 C117 1.235 . S
C120 O126 1.287 . S
C120 O127 1.255 . S
O121 Fe110 1.976 . S
O121 C128 1.287 . S
O122 Fe111 1.996 . S
O122 C128 1.255 . S
O123 Fe113 1.976 . S
O123 C118 1.287 . S
O124 Fe110 1.996 . S
O124 C118 1.255 . S
C125 O129 1.295 . S
C125 O130 1.235 . S
O126 Fe111 1.976 . S
O126 C120 1.287 . S
O127 Fe113 1.996 . S
O127 C120 1.255 . S
C128 O121 1.287 . S
C128 O122 1.255 . S
O129 Fe111 2.002 . S
O129 C125 1.295 . S
O130 Fe113 1.997 . S
O130 C125 1.235 . S
C131 O114 1.295 . S
C131 O115 1.235 . S
Fe132 O134 1.918 . S
Fe132 O137 1.997 . S
Fe132 O138 2.002 . S
Fe132 O143 1.976 . S
Fe132 O146 1.996 . S
Fe133 O134 1.918 . S
Fe133 O141 1.997 . S
Fe133 O144 1.996 . S
Fe133 O148 1.976 . S
Fe133 O151 2.002 . S
O134 Fe132 1.918 . S
O134 Fe133 1.918 . S
O134 Fe135 1.918 . S
Fe135 O134 1.918 . S
Fe135 O136 2.002 . S
Fe135 O145 1.976 . S
Fe135 O149 1.996 . S
Fe135 O152 1.997 . S
O136 Fe135 2.002 . S
O136 C153 1.295 . S
O137 Fe132 1.997 . S
O137 C153 1.235 . S
O138 Fe132 2.002 . S
O138 C139 1.295 . S
C139 O138 1.295 . S
C139 O141 1.235 . S
C140 O145 1.287 . S
C140 O146 1.255 . S
O141 Fe133 1.997 . S
O141 C139 1.235 . S
C142 O148 1.287 . S
C142 O149 1.255 . S
O143 Fe132 1.976 . S
O143 C150 1.287 . S
O144 Fe133 1.996 . S
O144 C150 1.255 . S
O145 Fe135 1.976 . S
O145 C140 1.287 . S
O146 Fe132 1.996 . S
O146 C140 1.255 . S
C147 O151 1.295 . S
C147 O152 1.235 . S
O148 Fe133 1.976 . S
O148 C142 1.287 . S
O149 Fe135 1.996 . S
O149 C142 1.255 . S
C150 O143 1.287 . S
C150 O144 1.255 . S
O151 Fe133 2.002 . S
O151 C147 1.295 . S
O152 Fe135 1.997 . S
O152 C147 1.235 . S
C153 O136 1.295 . S
C153 O137 1.235 . S
Fe154 O156 1.918 . S
Fe154 O159 1.997 1_455 S
Fe154 O160 2.002 1_455 S
Fe154 O165 1.976 . S
Fe154 O168 1.996 . S
Fe155 O156 1.918 . S
Fe155 O163 1.997 1_455 S
Fe155 O166 1.996 . S
Fe155 O170 1.976 . S
Fe155 O173 2.002 1_455 S
O156 Fe154 1.918 . S
O156 Fe155 1.918 . S
O156 Fe157 1.918 . S
Fe157 O156 1.918 . S
Fe157 O158 2.002 1_455 S
Fe157 O167 1.976 . S
Fe157 O171 1.996 . S
Fe157 O174 1.997 1_455 S
O158 Fe157 2.002 1_655 S
O158 C175 1.295 . S
O159 Fe154 1.997 1_655 S
O159 C175 1.235 . S
O160 Fe154 2.002 1_655 S
O160 C161 1.295 . S
C161 O160 1.295 . S
C161 O163 1.235 . S
C162 O167 1.287 . S
C162 O168 1.255 . S
O163 Fe155 1.997 1_655 S
O163 C161 1.235 . S
C164 O170 1.287 . S
C164 O171 1.255 . S
O165 Fe154 1.976 . S
O165 C172 1.287 . S
O166 Fe155 1.996 . S
O166 C172 1.255 . S
O167 Fe157 1.976 . S
O167 C162 1.287 . S
O168 Fe154 1.996 . S
O168 C162 1.255 . S
C169 O173 1.295 . S
C169 O174 1.235 . S
O170 Fe155 1.976 . S
O170 C164 1.287 . S
O171 Fe157 1.996 . S
O171 C164 1.255 . S
C172 O165 1.287 . S
C172 O166 1.255 . S
O173 Fe155 2.002 1_655 S
O173 C169 1.295 . S
O174 Fe157 1.997 1_655 S
O174 C169 1.235 . S
C175 O158 1.295 . S
C175 O159 1.235 . S
H176 C194 0.951 . S
H177 C196 0.951 . S
H178 C198 0.950 . S
H179 C199 0.950 . S
H180 C201 0.950 . S
H181 C204 0.950 . S
H182 C205 0.950 . S
H183 C207 0.950 . S
H184 C208 0.950 . S
H185 C209 0.951 . S
H186 C211 0.951 . S
H187 C213 0.950 . S
H188 C214 0.950 . S
H189 C216 0.950 . S
H190 C219 0.950 . S
H191 C220 0.950 . S
H192 C222 0.950 . S
H193 C223 0.950 . S
C194 H176 0.951 . S
C194 C195 1.366 . S
C194 C196 1.388 . S
C195 C194 1.366 . S
C195 C199 1.385 1_455 S
C196 H177 0.951 . S
C196 C194 1.388 . S
C196 C197 1.366 . S
C197 C196 1.366 . S
C197 C198 1.414 1_455 S
C197 C200 1.499 . S
C198 H178 0.950 . S
C198 C197 1.414 1_655 S
C198 C199 1.374 . S
C199 H179 0.950 . S
C199 C195 1.385 1_655 S
C199 C198 1.374 . S
C200 C197 1.499 . S
C200 C201 1.373 1_455 S
C200 C202 1.389 . S
C201 H180 0.950 . S
C201 C200 1.373 1_655 S
C201 C217 1.377 1_554 S
C202 C200 1.389 . S
C202 C203 1.524 . S
C202 C216 1.377 1_554 S
C203 C202 1.524 . S
C203 C204 1.397 . S
C203 C208 1.363 . S
C204 H181 0.950 . S
C204 C203 1.397 . S
C204 C205 1.334 . S
C205 H182 0.950 . S
C205 C204 1.334 . S
C205 C206 1.287 . S
C206 C205 1.287 . S
C206 C207 1.524 . S
C206 H225 0.913 . S
C207 H183 0.950 . S
C207 C206 1.524 . S
C207 C208 1.415 . S
C208 H184 0.950 . S
C208 C203 1.363 . S
C208 C207 1.415 . S
C209 H185 0.951 . S
C209 C210 1.366 1_655 S
C209 C211 1.388 . S
C210 C209 1.366 1_455 S
C210 C214 1.385 . S
C211 H186 0.951 . S
C211 C209 1.388 . S
C211 C212 1.366 1_655 S
C212 C211 1.366 1_455 S
C212 C213 1.414 . S
C212 C215 1.499 . S
C213 H187 0.950 . S
C213 C212 1.414 . S
C213 C214 1.374 . S
C214 H188 0.950 . S
C214 C210 1.385 . S
C214 C213 1.374 . S
C215 C212 1.499 . S
C215 C216 1.373 . S
C215 C217 1.389 1_455 S
C216 H189 0.950 . S
C216 C202 1.377 1_556 S
C216 C215 1.373 . S
C217 C201 1.377 1_556 S
C217 C215 1.389 1_655 S
C217 C218 1.524 . S
C218 C217 1.524 . S
C218 C219 1.397 . S
C218 C223 1.363 . S
C219 H190 0.950 . S
C219 C218 1.397 . S
C219 C220 1.334 . S
C220 H191 0.950 . S
C220 C219 1.334 . S
C220 C221 1.287 . S
C221 C220 1.287 . S
C221 C222 1.524 . S
C221 H224 0.999 . S
C222 H192 0.950 . S
C222 C221 1.524 . S
C222 C223 1.415 . S
C223 H193 0.950 . S
C223 C218 1.363 . S
C223 C222 1.415 . S
H224 C221 0.999 . S
H225 C206 0.913 . S
H226 C244 0.951 . S
H227 C246 0.951 . S
H228 C248 0.950 . S
H229 C249 0.950 . S
H230 C251 0.950 . S
H231 C254 0.950 . S
H232 C255 0.950 . S
H233 C257 0.950 . S
H234 C258 0.950 . S
H235 C259 0.951 . S
H236 C261 0.951 . S
H237 C263 0.950 . S
H238 C264 0.950 . S
H239 C266 0.950 . S
H240 C269 0.950 . S
H241 C270 0.950 . S
H242 C272 0.950 . S
H243 C273 0.950 . S
C244 H226 0.951 . S
C244 C245 1.366 . S
C244 C246 1.388 . S
C245 C244 1.366 . S
C245 C249 1.385 . S
C246 H227 0.951 . S
C246 C244 1.388 . S
C246 C247 1.366 . S
C247 C246 1.366 . S
C247 C248 1.414 . S
C247 C250 1.499 . S
C248 H228 0.950 . S
C248 C247 1.414 . S
C248 C249 1.374 . S
C249 H229 0.950 . S
C249 C245 1.385 . S
C249 C248 1.374 . S
C250 C247 1.499 . S
C250 C251 1.373 . S
C250 C252 1.389 . S
C251 H230 0.950 . S
C251 C250 1.373 . S
C251 C267 1.377 . S
C252 C250 1.389 . S
C252 C253 1.524 . S
C252 C266 1.377 . S
C253 C252 1.524 . S
C253 C254 1.397 . S
C253 C258 1.363 . S
C254 H231 0.950 . S
C254 C253 1.397 . S
C254 C255 1.334 . S
C255 H232 0.950 . S
C255 C254 1.334 . S
C255 C256 1.287 . S
C256 C255 1.287 . S
C256 C257 1.524 . S
C256 H275 0.913 . S
C257 H233 0.950 . S
C257 C256 1.524 . S
C257 C258 1.415 . S
C258 H234 0.950 . S
C258 C253 1.363 . S
C258 C257 1.415 . S
C259 H235 0.951 . S
C259 C260 1.366 . S
C259 C261 1.388 . S
C260 C259 1.366 . S
C260 C264 1.385 . S
C261 H236 0.951 . S
C261 C259 1.388 . S
C261 C262 1.366 . S
C262 C261 1.366 . S
C262 C263 1.414 . S
C262 C265 1.499 . S
C263 H237 0.950 . S
C263 C262 1.414 . S
C263 C264 1.374 . S
C264 H238 0.950 . S
C264 C260 1.385 . S
C264 C263 1.374 . S
C265 C262 1.499 . S
C265 C266 1.373 . S
C265 C267 1.389 . S
C266 H239 0.950 . S
C266 C252 1.377 . S
C266 C265 1.373 . S
C267 C251 1.377 . S
C267 C265 1.389 . S
C267 C268 1.524 . S
C268 C267 1.524 . S
C268 C269 1.397 . S
C268 C273 1.363 . S
C269 H240 0.950 . S
C269 C268 1.397 . S
C269 C270 1.334 . S
C270 H241 0.950 . S
C270 C269 1.334 . S
C270 C271 1.287 . S
C271 C270 1.287 . S
C271 C272 1.524 . S
C271 H274 0.999 . S
C272 H242 0.950 . S
C272 C271 1.524 . S
C272 C273 1.415 . S
C273 H243 0.950 . S
C273 C268 1.363 . S
C273 C272 1.415 . S
H274 C271 0.999 . S
H275 C256 0.913 . S
H276 C294 0.951 . S
H277 C296 0.951 . S
H278 C298 0.950 . S
H279 C299 0.950 . S
H280 C301 0.950 . S
H281 C304 0.950 . S
H282 C305 0.950 . S
H283 C307 0.950 . S
H284 C308 0.950 . S
H285 C309 0.951 . S
H286 C311 0.951 . S
H287 C313 0.950 . S
H288 C314 0.950 . S
H289 C316 0.950 . S
H290 C319 0.950 . S
H291 C320 0.950 . S
H292 C322 0.950 . S
H293 C323 0.950 . S
C294 H276 0.951 . S
C294 C295 1.366 . S
C294 C296 1.388 . S
C295 C294 1.366 . S
C295 C299 1.385 . S
C296 H277 0.951 . S
C296 C294 1.388 . S
C296 C297 1.366 . S
C297 C296 1.366 . S
C297 C298 1.414 . S
C297 C300 1.499 . S
C298 H278 0.950 . S
C298 C297 1.414 . S
C298 C299 1.374 . S
C299 H279 0.950 . S
C299 C295 1.385 . S
C299 C298 1.374 . S
C300 C297 1.499 . S
C300 C301 1.373 . S
C300 C302 1.389 . S
C301 H280 0.950 . S
C301 C300 1.373 . S
C301 C317 1.377 . S
C302 C300 1.389 . S
C302 C303 1.524 . S
C302 C316 1.377 . S
C303 C302 1.524 . S
C303 C304 1.397 . S
C303 C308 1.363 . S
C304 H281 0.950 . S
C304 C303 1.397 . S
C304 C305 1.334 . S
C305 H282 0.950 . S
C305 C304 1.334 . S
C305 C306 1.287 . S
C306 C305 1.287 . S
C306 C307 1.524 . S
C306 H325 0.913 . S
C307 H283 0.950 . S
C307 C306 1.524 . S
C307 C308 1.415 . S
C308 H284 0.950 . S
C308 C303 1.363 . S
C308 C307 1.415 . S
C309 H285 0.951 . S
C309 C310 1.366 . S
C309 C311 1.388 . S
C310 C309 1.366 . S
C310 C314 1.385 . S
C311 H286 0.951 . S
C311 C309 1.388 . S
C311 C312 1.366 . S
C312 C311 1.366 . S
C312 C313 1.414 . S
C312 C315 1.499 . S
C313 H287 0.950 . S
C313 C312 1.414 . S
C313 C314 1.374 . S
C314 H288 0.950 . S
C314 C310 1.385 . S
C314 C313 1.374 . S
C315 C312 1.499 . S
C315 C316 1.373 . S
C315 C317 1.389 . S
C316 H289 0.950 . S
C316 C302 1.377 . S
C316 C315 1.373 . S
C317 C301 1.377 . S
C317 C315 1.389 . S
C317 C318 1.524 . S
C318 C317 1.524 . S
C318 C319 1.397 . S
C318 C323 1.363 . S
C319 H290 0.950 . S
C319 C318 1.397 . S
C319 C320 1.334 . S
C320 H291 0.950 . S
C320 C319 1.334 . S
C320 C321 1.287 . S
C321 C320 1.287 . S
C321 C322 1.524 . S
C321 H324 0.999 . S
C322 H292 0.950 . S
C322 C321 1.524 . S
C322 C323 1.415 . S
C323 H293 0.950 . S
C323 C318 1.363 . S
C323 C322 1.415 . S
H324 C321 0.999 . S
H325 C306 0.913 . S
H326 C344 0.951 . S
H327 C346 0.951 . S
H328 C348 0.950 . S
H329 C349 0.950 . S
H330 C351 0.950 . S
H331 C354 0.950 . S
H332 C355 0.950 . S
H333 C357 0.950 . S
H334 C358 0.950 . S
H335 C359 0.951 . S
H336 C361 0.951 . S
H337 C363 0.950 . S
H338 C364 0.950 . S
H339 C366 0.950 . S
H340 C369 0.950 . S
H341 C370 0.950 . S
H342 C372 0.950 . S
H343 C373 0.950 . S
C344 H326 0.951 . S
C344 C345 1.366 . S
C344 C346 1.388 . S
C345 C344 1.366 . S
C345 C349 1.385 . S
C346 H327 0.951 . S
C346 C344 1.388 . S
C346 C347 1.366 . S
C347 C346 1.366 . S
C347 C348 1.414 . S
C347 C350 1.499 . S
C348 H328 0.950 . S
C348 C347 1.414 . S
C348 C349 1.374 . S
C349 H329 0.950 . S
C349 C345 1.385 . S
C349 C348 1.374 . S
C350 C347 1.499 . S
C350 C351 1.373 . S
C350 C352 1.389 . S
C351 H330 0.950 . S
C351 C350 1.373 . S
C351 C367 1.377 . S
C352 C350 1.389 . S
C352 C353 1.524 . S
C352 C366 1.377 . S
C353 C352 1.524 . S
C353 C354 1.397 . S
C353 C358 1.363 . S
C354 H331 0.950 . S
C354 C353 1.397 . S
C354 C355 1.334 . S
C355 H332 0.950 . S
C355 C354 1.334 . S
C355 C356 1.287 . S
C356 C355 1.287 . S
C356 C357 1.524 . S
C356 H375 0.913 . S
C357 H333 0.950 . S
C357 C356 1.524 . S
C357 C358 1.415 . S
C358 H334 0.950 . S
C358 C353 1.363 . S
C358 C357 1.415 . S
C359 H335 0.951 . S
C359 C360 1.366 . S
C359 C361 1.388 . S
C360 C359 1.366 . S
C360 C364 1.385 . S
C361 H336 0.951 . S
C361 C359 1.388 . S
C361 C362 1.366 . S
C362 C361 1.366 . S
C362 C363 1.414 . S
C362 C365 1.499 . S
C363 H337 0.950 . S
C363 C362 1.414 . S
C363 C364 1.374 . S
C364 H338 0.950 . S
C364 C360 1.385 . S
C364 C363 1.374 . S
C365 C362 1.499 . S
C365 C366 1.373 . S
C365 C367 1.389 . S
C366 H339 0.950 . S
C366 C352 1.377 . S
C366 C365 1.373 . S
C367 C351 1.377 . S
C367 C365 1.389 . S
C367 C368 1.524 . S
C368 C367 1.524 . S
C368 C369 1.397 . S
C368 C373 1.363 . S
C369 H340 0.950 . S
C369 C368 1.397 . S
C369 C370 1.334 . S
C370 H341 0.950 . S
C370 C369 1.334 . S
C370 C371 1.287 . S
C371 C370 1.287 . S
C371 C372 1.524 . S
C371 H374 0.999 . S
C372 H342 0.950 . S
C372 C371 1.524 . S
C372 C373 1.415 . S
C373 H343 0.950 . S
C373 C368 1.363 . S
C373 C372 1.415 . S
H374 C371 0.999 . S
H375 C356 0.913 . S
H376 C394 0.951 . S
H377 C396 0.951 . S
H378 C398 0.950 . S
H379 C399 0.950 . S
H380 C401 0.950 . S
H381 C404 0.950 . S
H382 C405 0.950 . S
H383 C407 0.950 . S
H384 C408 0.950 . S
H385 C409 0.951 . S
H386 C411 0.951 . S
H387 C413 0.950 . S
H388 C414 0.950 . S
H389 C416 0.950 . S
H390 C419 0.950 . S
H391 C420 0.950 . S
H392 C422 0.950 . S
H393 C423 0.950 . S
C394 H376 0.951 . S
C394 C395 1.366 . S
C394 C396 1.388 . S
C395 C394 1.366 . S
C395 C399 1.385 . S
C396 H377 0.951 . S
C396 C394 1.388 . S
C396 C397 1.366 . S
C397 C396 1.366 . S
C397 C398 1.414 . S
C397 C400 1.499 . S
C398 H378 0.950 . S
C398 C397 1.414 . S
C398 C399 1.374 . S
C399 H379 0.950 . S
C399 C395 1.385 . S
C399 C398 1.374 . S
C400 C397 1.499 . S
C400 C401 1.373 . S
C400 C402 1.389 . S
C401 H380 0.950 . S
C401 C400 1.373 . S
C401 C417 1.377 . S
C402 C400 1.389 . S
C402 C403 1.524 . S
C402 C416 1.377 . S
C403 C402 1.524 . S
C403 C404 1.397 . S
C403 C408 1.363 . S
C404 H381 0.950 . S
C404 C403 1.397 . S
C404 C405 1.334 . S
C405 H382 0.950 . S
C405 C404 1.334 . S
C405 C406 1.287 . S
C406 C405 1.287 . S
C406 C407 1.524 . S
C406 H425 0.913 . S
C407 H383 0.950 . S
C407 C406 1.524 . S
C407 C408 1.415 . S
C408 H384 0.950 . S
C408 C403 1.363 . S
C408 C407 1.415 . S
C409 H385 0.951 . S
C409 C410 1.366 . S
C409 C411 1.388 . S
C410 C409 1.366 . S
C410 C414 1.385 . S
C411 H386 0.951 . S
C411 C409 1.388 . S
C411 C412 1.366 . S
C412 C411 1.366 . S
C412 C413 1.414 . S
C412 C415 1.499 . S
C413 H387 0.950 . S
C413 C412 1.414 . S
C413 C414 1.374 . S
C414 H388 0.950 . S
C414 C410 1.385 . S
C414 C413 1.374 . S
C415 C412 1.499 . S
C415 C416 1.373 . S
C415 C417 1.389 . S
C416 H389 0.950 . S
C416 C402 1.377 . S
C416 C415 1.373 . S
C417 C401 1.377 . S
C417 C415 1.389 . S
C417 C418 1.524 . S
C418 C417 1.524 . S
C418 C419 1.397 . S
C418 C423 1.363 . S
C419 H390 0.950 . S
C419 C418 1.397 . S
C419 C420 1.334 . S
C420 H391 0.950 . S
C420 C419 1.334 . S
C420 C421 1.287 . S
C421 C420 1.287 . S
C421 C422 1.524 . S
C421 H424 0.999 . S
C422 H392 0.950 . S
C422 C421 1.524 . S
C422 C423 1.415 . S
C423 H393 0.950 . S
C423 C418 1.363 . S
C423 C422 1.415 . S
H424 C421 0.999 . S
H425 C406 0.913 . S
H426 C444 0.951 . S
H427 C446 0.951 . S
H428 C448 0.950 . S
H429 C449 0.950 . S
H430 C451 0.950 . S
H431 C454 0.950 . S
H432 C455 0.950 . S
H433 C457 0.950 . S
H434 C458 0.950 . S
H435 C459 0.951 . S
H436 C461 0.951 . S
H437 C463 0.950 . S
H438 C464 0.950 . S
H439 C466 0.950 . S
H440 C469 0.950 . S
H441 C470 0.950 . S
H442 C472 0.950 . S
H443 C473 0.950 . S
C444 H426 0.951 . S
C444 C445 1.366 . S
C444 C446 1.388 . S
C445 C444 1.366 . S
C445 C449 1.385 . S
C446 H427 0.951 . S
C446 C444 1.388 . S
C446 C447 1.366 . S
C447 C446 1.366 . S
C447 C448 1.414 . S
C447 C450 1.499 . S
C448 H428 0.950 . S
C448 C447 1.414 . S
C448 C449 1.374 . S
C449 H429 0.950 . S
C449 C445 1.385 . S
C449 C448 1.374 . S
C450 C447 1.499 . S
C450 C451 1.373 . S
C450 C452 1.389 . S
C451 H430 0.950 . S
C451 C450 1.373 . S
C451 C467 1.377 . S
C452 C450 1.389 . S
C452 C453 1.524 . S
C452 C466 1.377 . S
C453 C452 1.524 . S
C453 C454 1.397 . S
C453 C458 1.363 . S
C454 H431 0.950 . S
C454 C453 1.397 . S
C454 C455 1.334 . S
C455 H432 0.950 . S
C455 C454 1.334 . S
C455 C456 1.287 . S
C456 C455 1.287 . S
C456 C457 1.524 . S
C456 H475 0.913 . S
C457 H433 0.950 . S
C457 C456 1.524 . S
C457 C458 1.415 . S
C458 H434 0.950 . S
C458 C453 1.363 . S
C458 C457 1.415 . S
C459 H435 0.951 . S
C459 C460 1.366 . S
C459 C461 1.388 . S
C460 C459 1.366 . S
C460 C464 1.385 . S
C461 H436 0.951 . S
C461 C459 1.388 . S
C461 C462 1.366 . S
C462 C461 1.366 . S
C462 C463 1.414 . S
C462 C465 1.499 . S
C463 H437 0.950 . S
C463 C462 1.414 . S
C463 C464 1.374 . S
C464 H438 0.950 . S
C464 C460 1.385 . S
C464 C463 1.374 . S
C465 C462 1.499 . S
C465 C466 1.373 . S
C465 C467 1.389 . S
C466 H439 0.950 . S
C466 C452 1.377 . S
C466 C465 1.373 . S
C467 C451 1.377 . S
C467 C465 1.389 . S
C467 C468 1.524 . S
C468 C467 1.524 . S
C468 C469 1.397 . S
C468 C473 1.363 . S
C469 H440 0.950 . S
C469 C468 1.397 . S
C469 C470 1.334 . S
C470 H441 0.950 . S
C470 C469 1.334 . S
C470 C471 1.287 . S
C471 C470 1.287 . S
C471 C472 1.524 . S
C471 H474 0.999 . S
C472 H442 0.950 . S
C472 C471 1.524 . S
C472 C473 1.415 . S
C473 H443 0.950 . S
C473 C468 1.363 . S
C473 C472 1.415 . S
H474 C471 0.999 . S
H475 C456 0.913 . S
H476 C494 0.951 . S
H477 C496 0.951 . S
H478 C498 0.950 . S
H479 C499 0.950 . S
H480 C501 0.950 . S
H481 C504 0.950 . S
H482 C505 0.950 . S
H483 C507 0.950 . S
H484 C508 0.950 . S
H485 C509 0.951 . S
H486 C511 0.951 . S
H487 C513 0.950 . S
H488 C514 0.950 . S
H489 C516 0.950 . S
H490 C519 0.950 . S
H491 C520 0.950 . S
H492 C522 0.950 . S
H493 C523 0.950 . S
C494 H476 0.951 . S
C494 C495 1.366 . S
C494 C496 1.388 . S
C495 C494 1.366 . S
C495 C499 1.385 . S
C496 H477 0.951 . S
C496 C494 1.388 . S
C496 C497 1.366 . S
C497 C496 1.366 . S
C497 C498 1.414 . S
C497 C500 1.499 . S
C498 H478 0.950 . S
C498 C497 1.414 . S
C498 C499 1.374 . S
C499 H479 0.950 . S
C499 C495 1.385 . S
C499 C498 1.374 . S
C500 C497 1.499 . S
C500 C501 1.373 . S
C500 C502 1.389 . S
C501 H480 0.950 . S
C501 C500 1.373 . S
C501 C517 1.377 1_545 S
C502 C500 1.389 . S
C502 C503 1.524 . S
C502 C516 1.377 1_545 S
C503 C502 1.524 . S
C503 C504 1.397 . S
C503 C508 1.363 . S
C504 H481 0.950 . S
C504 C503 1.397 . S
C504 C505 1.334 . S
C505 H482 0.950 . S
C505 C504 1.334 . S
C505 C506 1.287 . S
C506 C505 1.287 . S
C506 C507 1.524 . S
C506 H525 0.913 . S
C507 H483 0.950 . S
C507 C506 1.524 . S
C507 C508 1.415 . S
C508 H484 0.950 . S
C508 C503 1.363 . S
C508 C507 1.415 . S
C509 H485 0.951 . S
C509 C510 1.366 . S
C509 C511 1.388 . S
C510 C509 1.366 . S
C510 C514 1.385 . S
C511 H486 0.951 . S
C511 C509 1.388 . S
C511 C512 1.366 . S
C512 C511 1.366 . S
C512 C513 1.414 . S
C512 C515 1.499 . S
C513 H487 0.950 . S
C513 C512 1.414 . S
C513 C514 1.374 . S
C514 H488 0.950 . S
C514 C510 1.385 . S
C514 C513 1.374 . S
C515 C512 1.499 . S
C515 C516 1.373 . S
C515 C517 1.389 . S
C516 H489 0.950 . S
C516 C502 1.377 1_565 S
C516 C515 1.373 . S
C517 C501 1.377 1_565 S
C517 C515 1.389 . S
C517 C518 1.524 . S
C518 C517 1.524 . S
C518 C519 1.397 . S
C518 C523 1.363 . S
C519 H490 0.950 . S
C519 C518 1.397 . S
C519 C520 1.334 . S
C520 H491 0.950 . S
C520 C519 1.334 . S
C520 C521 1.287 . S
C521 C520 1.287 . S
C521 C522 1.524 . S
C521 H524 0.999 . S
C522 H492 0.950 . S
C522 C521 1.524 . S
C522 C523 1.415 . S
C523 H493 0.950 . S
C523 C518 1.363 . S
C523 C522 1.415 . S
H524 C521 0.999 . S
H525 C506 0.913 . S
H526 C544 0.951 . S
H527 C546 0.951 . S
H528 C548 0.950 . S
H529 C549 0.950 . S
H530 C551 0.950 1_655 S
H531 C554 0.950 1_545 S
H532 C555 0.950 . S
H533 C557 0.950 . S
H534 C558 0.950 1_655 S
H535 C559 0.951 . S
H536 C561 0.951 . S
H537 C563 0.950 . S
H538 C564 0.950 . S
H539 C566 0.950 . S
H540 C569 0.950 1_565 S
H541 C570 0.950 . S
H542 C572 0.950 . S
H543 C573 0.950 . S
C544 H526 0.951 . S
C544 C545 1.366 1_655 S
C544 C546 1.388 . S
C545 C544 1.366 1_455 S
C545 C549 1.385 . S
C546 H527 0.951 . S
C546 C544 1.388 . S
C546 C547 1.366 1_655 S
C547 C546 1.366 1_455 S
C547 C548 1.414 . S
C547 C550 1.499 . S
C548 H528 0.950 . S
C548 C547 1.414 . S
C548 C549 1.374 . S
C549 H529 0.950 . S
C549 C545 1.385 . S
C549 C548 1.374 . S
C550 C547 1.499 . S
C550 C551 1.373 1_554 S
C550 C552 1.389 1_545 S
C551 H530 0.950 1_455 S
C551 C550 1.373 1_556 S
C551 C567 1.375 1_455 S
C552 C550 1.389 1_565 S
C552 C553 1.524 . S
C552 C566 1.377 . S
C553 C552 1.524 . S
C553 C554 1.397 . S
C553 C558 1.363 . S
C554 H531 0.950 1_565 S
C554 C553 1.397 . S
C554 C555 1.334 . S
C555 H532 0.950 . S
C555 C554 1.334 . S
C555 C556 1.287 . S
C556 C555 1.287 . S
C556 C557 1.524 . S
C556 H575 0.913 . S
C557 H533 0.950 . S
C557 C556 1.524 . S
C557 C558 1.415 . S
C558 H534 0.950 1_455 S
C558 C553 1.363 . S
C558 C557 1.415 . S
C559 H535 0.951 . S
C559 C560 1.366 . S
C559 C561 1.388 . S
C560 C559 1.366 . S
C560 C564 1.385 1_455 S
C561 H536 0.951 . S
C561 C559 1.388 . S
C561 C562 1.366 . S
C562 C561 1.366 . S
C562 C563 1.414 1_455 S
C562 C565 1.499 . S
C563 H537 0.950 . S
C563 C562 1.414 1_655 S
C563 C564 1.374 . S
C564 H538 0.950 . S
C564 C560 1.385 1_655 S
C564 C563 1.374 . S
C565 C562 1.499 . S
C565 C566 1.373 1_556 S
C565 C567 1.386 1_465 S
C566 H539 0.950 . S
C566 C552 1.377 . S
C566 C565 1.373 1_554 S
C567 C551 1.375 1_655 S
C567 C565 1.386 1_645 S
C567 C568 1.531 . S
C568 C567 1.531 . S
C568 C569 1.397 . S
C568 C573 1.363 1_655 S
C569 H540 0.950 1_545 S
C569 C568 1.397 . S
C569 C570 1.334 . S
C570 H541 0.950 . S
C570 C569 1.334 . S
C570 C571 1.287 . S
C571 C570 1.287 . S
C571 C572 1.524 . S
C571 H574 0.999 . S
C572 H542 0.950 . S
C572 C571 1.524 . S
C572 C573 1.415 1_655 S
C573 H543 0.950 . S
C573 C568 1.363 1_455 S
C573 C572 1.415 1_455 S
H574 C571 0.999 . S
H575 C556 0.913 . S
H576 C594 0.951 . S
H577 C596 0.951 . S
H578 C598 0.950 . S
H579 C599 0.950 . S
H580 C601 0.950 . S
H581 C604 0.950 . S
H582 C605 0.950 . S
H583 C607 0.950 . S
H584 C608 0.950 . S
H585 C609 0.951 . S
H586 C611 0.951 . S
H587 C613 0.950 . S
H588 C614 0.950 . S
H589 C616 0.950 . S
H590 C619 0.950 . S
H591 C620 0.950 . S
H592 C622 0.962 . S
H593 C623 0.950 . S
C594 H576 0.951 . S
C594 C595 1.366 . S
C594 C596 1.388 . S
C595 C594 1.366 . S
C595 C599 1.385 . S
C596 H577 0.951 . S
C596 C594 1.388 . S
C596 C597 1.366 . S
C597 C596 1.366 . S
C597 C598 1.414 . S
C597 C600 1.499 . S
C598 H578 0.950 . S
C598 C597 1.414 . S
C598 C599 1.374 . S
C599 H579 0.950 . S
C599 C595 1.385 . S
C599 C598 1.374 . S
C600 C597 1.499 . S
C600 C601 1.373 . S
C600 C602 1.389 . S
C601 H580 0.950 . S
C601 C600 1.373 . S
C601 C617 1.377 1_565 S
C602 C600 1.389 . S
C602 C603 1.524 . S
C602 C616 1.377 1_565 S
C603 C602 1.524 . S
C603 C604 1.397 . S
C603 C608 1.363 1_565 S
C604 H581 0.950 . S
C604 C603 1.397 . S
C604 C605 1.334 . S
C605 H582 0.950 . S
C605 C604 1.334 . S
C605 C606 1.287 . S
C606 C605 1.287 . S
C606 C607 1.524 1_565 S
C606 H625 0.913 . S
C607 H583 0.950 . S
C607 C606 1.524 1_545 S
C607 C608 1.415 . S
C608 H584 0.950 . S
C608 C603 1.363 1_545 S
C608 C607 1.415 . S
C609 H585 0.951 . S
C609 C610 1.366 . S
C609 C611 1.388 . S
C610 C609 1.366 . S
C610 C614 1.385 . S
C611 H586 0.951 . S
C611 C609 1.388 . S
C611 C612 1.366 . S
C612 C611 1.366 . S
C612 C613 1.414 . S
C612 C615 1.499 . S
C613 H587 0.950 . S
C613 C612 1.414 . S
C613 C614 1.374 . S
C614 H588 0.950 . S
C614 C610 1.385 . S
C614 C613 1.374 . S
C615 C612 1.499 . S
C615 C616 1.373 . S
C615 C617 1.389 . S
C616 H589 0.950 . S
C616 C602 1.377 1_545 S
C616 C615 1.373 . S
C617 C601 1.377 1_545 S
C617 C615 1.389 . S
C617 C618 1.524 . S
C618 C617 1.524 . S
C618 C619 1.397 . S
C618 C623 1.363 1_545 S
C619 H590 0.950 . S
C619 C618 1.397 . S
C619 C620 1.334 . S
C620 H591 0.950 . S
C620 C619 1.334 . S
C620 C621 1.287 . S
C621 C620 1.287 . S
C621 C622 1.507 1_545 S
C621 H624 0.999 . S
C622 H592 0.962 . S
C622 C621 1.507 1_565 S
C622 C623 1.418 . S
C623 H593 0.950 . S
C623 C618 1.363 1_565 S
C623 C622 1.418 . S
H624 C621 0.999 . S
H625 C606 0.913 . S
H626 C644 0.951 . S
H627 C646 0.951 . S
H628 C648 0.950 . S
H629 C649 0.950 . S
H630 C651 0.950 . S
H631 C654 0.950 . S
H632 C655 0.950 . S
H633 C657 0.950 . S
H634 C658 0.950 . S
H635 C659 0.951 . S
H636 C661 0.951 . S
H637 C663 0.950 . S
H638 C664 0.950 . S
H639 C666 0.950 . S
H640 C669 0.950 . S
H641 C670 0.950 . S
H642 C672 0.950 . S
H643 C673 0.950 . S
C644 H626 0.951 . S
C644 C645 1.366 . S
C644 C646 1.388 . S
C645 C644 1.366 . S
C645 C649 1.385 . S
C646 H627 0.951 . S
C646 C644 1.388 . S
C646 C647 1.366 . S
C647 C646 1.366 . S
C647 C648 1.414 . S
C647 C650 1.499 . S
C648 H628 0.950 . S
C648 C647 1.414 . S
C648 C649 1.374 . S
C649 H629 0.950 . S
C649 C645 1.385 . S
C649 C648 1.374 . S
C650 C647 1.499 . S
C650 C651 1.373 1_565 S
C650 C652 1.389 . S
C651 H630 0.950 . S
C651 C650 1.373 1_545 S
C651 C667 1.377 . S
C652 C650 1.389 . S
C652 C653 1.524 . S
C652 C666 1.377 . S
C653 C652 1.524 . S
C653 C654 1.397 . S
C653 C658 1.363 . S
C654 H631 0.950 . S
C654 C653 1.397 . S
C654 C655 1.334 . S
C655 H632 0.950 . S
C655 C654 1.334 . S
C655 C656 1.287 . S
C656 C655 1.287 . S
C656 C657 1.524 . S
C656 H675 0.913 . S
C657 H633 0.950 . S
C657 C656 1.524 . S
C657 C658 1.415 . S
C658 H634 0.950 . S
C658 C653 1.363 . S
C658 C657 1.415 . S
C659 H635 0.951 . S
C659 C660 1.366 . S
C659 C661 1.388 . S
C660 C659 1.366 . S
C660 C664 1.385 . S
C661 H636 0.951 . S
C661 C659 1.388 . S
C661 C662 1.366 . S
C662 C661 1.366 . S
C662 C663 1.414 . S
C662 C665 1.499 . S
C663 H637 0.950 . S
C663 C662 1.414 . S
C663 C664 1.374 . S
C664 H638 0.950 . S
C664 C660 1.385 . S
C664 C663 1.374 . S
C665 C662 1.499 . S
C665 C666 1.373 1_545 S
C665 C667 1.389 . S
C666 H639 0.950 . S
C666 C652 1.377 . S
C666 C665 1.373 1_565 S
C667 C651 1.377 . S
C667 C665 1.389 . S
C667 C668 1.524 . S
C668 C667 1.524 . S
C668 C669 1.397 . S
C668 C673 1.363 . S
C669 H640 0.950 . S
C669 C668 1.397 . S
C669 C670 1.334 . S
C670 H641 0.950 . S
C670 C669 1.334 . S
C670 C671 1.287 . S
C671 C670 1.287 . S
C671 C672 1.524 . S
C671 H674 0.999 . S
C672 H642 0.950 . S
C672 C671 1.524 . S
C672 C673 1.415 . S
C673 H643 0.950 . S
C673 C668 1.363 . S
C673 C672 1.415 . S
H674 C671 0.999 . S
H675 C656 0.913 . S
H676 C694 0.951 . S
H677 C696 0.951 . S
H678 C698 0.950 . S
H679 C699 0.950 . S
H680 C701 0.950 . S
H681 C704 0.950 . S
H682 C705 0.950 . S
H683 C707 0.950 . S
H684 C708 0.950 . S
H685 C709 0.951 . S
H686 C711 0.951 . S
H687 C713 0.950 . S
H688 C714 0.950 . S
H689 C716 0.950 . S
H690 C719 0.950 1_565 S
H691 C720 0.950 . S
H692 C722 0.950 . S
H693 C723 0.950 . S
C694 H676 0.951 . S
C694 C695 1.366 . S
C694 C696 1.388 . S
C695 C694 1.366 . S
C695 C699 1.385 . S
C696 H677 0.951 . S
C696 C694 1.388 . S
C696 C697 1.366 . S
C697 C696 1.366 . S
C697 C698 1.414 . S
C697 C700 1.499 . S
C698 H678 0.950 . S
C698 C697 1.414 . S
C698 C699 1.374 . S
C699 H679 0.950 . S
C699 C695 1.385 . S
C699 C698 1.374 . S
C700 C697 1.499 . S
C700 C701 1.373 . S
C700 C702 1.389 1_545 S
C701 H680 0.950 . S
C701 C700 1.373 . S
C701 C717 1.377 . S
C702 C700 1.389 1_565 S
C702 C703 1.524 . S
C702 C716 1.377 . S
C703 C702 1.524 . S
C703 C704 1.397 . S
C703 C708 1.363 . S
C704 H681 0.950 . S
C704 C703 1.397 . S
C704 C705 1.334 . S
C705 H682 0.950 . S
C705 C704 1.334 . S
C705 C706 1.287 . S
C706 C705 1.287 . S
C706 C707 1.524 . S
C706 H725 0.913 . S
C707 H683 0.950 . S
C707 C706 1.524 . S
C707 C708 1.415 . S
C708 H684 0.950 . S
C708 C703 1.363 . S
C708 C707 1.415 . S
C709 H685 0.951 . S
C709 C710 1.366 . S
C709 C711 1.388 . S
C710 C709 1.366 . S
C710 C714 1.385 . S
C711 H686 0.951 . S
C711 C709 1.388 . S
C711 C712 1.366 . S
C712 C711 1.366 . S
C712 C713 1.414 . S
C712 C715 1.499 . S
C713 H687 0.950 . S
C713 C712 1.414 . S
C713 C714 1.374 . S
C714 H688 0.950 . S
C714 C710 1.385 . S
C714 C713 1.374 . S
C715 C712 1.499 . S
C715 C716 1.373 . S
C715 C717 1.389 1_565 S
C716 H689 0.950 . S
C716 C702 1.377 . S
C716 C715 1.373 . S
C717 C701 1.377 . S
C717 C715 1.389 1_545 S
C717 C718 1.524 . S
C718 C717 1.524 . S
C718 C719 1.397 . S
C718 C723 1.363 . S
C719 H690 0.950 1_545 S
C719 C718 1.397 . S
C719 C720 1.334 . S
C720 H691 0.950 . S
C720 C719 1.334 . S
C720 C721 1.287 . S
C721 C720 1.287 . S
C721 C722 1.524 . S
C721 H724 0.999 . S
C722 H692 0.950 . S
C722 C721 1.524 . S
C722 C723 1.415 . S
C723 H693 0.950 . S
C723 C718 1.363 . S
C723 C722 1.415 . S
H724 C721 0.999 . S
H725 C706 0.913 . S
H726 C744 0.951 . S
H727 C746 0.951 . S
H728 C748 0.950 . S
H729 C749 0.950 . S
H730 C751 0.950 . S
H731 C754 0.950 . S
H732 C755 0.950 . S
H733 C757 0.950 . S
H734 C758 0.950 . S
H735 C759 0.951 . S
H736 C761 0.951 . S
H737 C763 0.950 . S
H738 C764 0.950 . S
H739 C766 0.950 . S
H740 C769 0.950 . S
H741 C770 0.950 . S
H742 C772 0.950 . S
H743 C773 0.950 . S
C744 H726 0.951 . S
C744 C745 1.366 . S
C744 C746 1.388 . S
C745 C744 1.366 . S
C745 C749 1.385 . S
C746 H727 0.951 . S
C746 C744 1.388 . S
C746 C747 1.366 . S
C747 C746 1.366 . S
C747 C748 1.414 . S
C747 C750 1.499 . S
C748 H728 0.950 . S
C748 C747 1.414 . S
C748 C749 1.374 . S
C749 H729 0.950 . S
C749 C745 1.385 . S
C749 C748 1.374 . S
C750 C747 1.499 . S
C750 C751 1.373 . S
C750 C752 1.389 . S
C751 H730 0.950 . S
C751 C750 1.373 . S
C751 C767 1.377 . S
C752 C750 1.389 . S
C752 C753 1.524 . S
C752 C766 1.377 1_565 S
C753 C752 1.524 . S
C753 C754 1.397 . S
C753 C758 1.363 1_565 S
C754 H731 0.950 . S
C754 C753 1.397 . S
C754 C755 1.334 . S
C755 H732 0.950 . S
C755 C754 1.334 . S
C755 C756 1.287 . S
C756 C755 1.287 . S
C756 C757 1.524 1_565 S
C756 H775 0.913 . S
C757 H733 0.950 . S
C757 C756 1.524 1_545 S
C757 C758 1.415 . S
C758 H734 0.950 . S
C758 C753 1.363 1_545 S
C758 C757 1.415 . S
C759 H735 0.951 . S
C759 C760 1.366 . S
C759 C761 1.388 . S
C760 C759 1.366 . S
C760 C764 1.385 . S
C761 H736 0.951 . S
C761 C759 1.388 . S
C761 C762 1.366 . S
C762 C761 1.366 . S
C762 C763 1.414 . S
C762 C765 1.499 . S
C763 H737 0.950 . S
C763 C762 1.414 . S
C763 C764 1.374 . S
C764 H738 0.950 . S
C764 C760 1.385 . S
C764 C763 1.374 . S
C765 C762 1.499 . S
C765 C766 1.373 . S
C765 C767 1.389 1_545 S
C766 H739 0.950 . S
C766 C752 1.377 1_545 S
C766 C765 1.373 . S
C767 C751 1.377 . S
C767 C765 1.389 1_565 S
C767 C768 1.524 . S
C768 C767 1.524 . S
C768 C769 1.397 1_565 S
C768 C773 1.363 . S
C769 H740 0.950 . S
C769 C768 1.397 1_545 S
C769 C770 1.334 . S
C770 H741 0.950 . S
C770 C769 1.334 . S
C770 C771 1.287 1_545 S
C771 C770 1.287 1_565 S
C771 C772 1.524 . S
C771 H774 0.999 . S
C772 H742 0.950 . S
C772 C771 1.524 . S
C772 C773 1.415 . S
C773 H743 0.950 . S
C773 C768 1.363 . S
C773 C772 1.415 . S
H774 C771 0.999 . S
H775 C756 0.913 . S
H776 C794 0.951 . S
H777 C796 0.951 . S
H778 C798 0.950 . S
H779 C799 0.950 . S
H780 C801 0.950 . S
H781 C804 0.950 . S
H782 C805 0.950 . S
H783 C807 0.950 . S
H784 C808 0.950 . S
H785 C809 0.951 . S
H786 C811 0.951 . S
H787 C813 0.950 . S
H788 C814 0.950 . S
H789 C816 0.950 . S
H790 C819 0.950 . S
H791 C820 0.950 . S
H792 C822 0.950 . S
H793 C823 0.950 . S
C794 H776 0.951 . S
C794 C795 1.366 . S
C794 C796 1.388 . S
C795 C794 1.366 . S
C795 C799 1.385 . S
C796 H777 0.951 . S
C796 C794 1.388 . S
C796 C797 1.366 . S
C797 C796 1.366 . S
C797 C798 1.414 . S
C797 C800 1.499 . S
C798 H778 0.950 . S
C798 C797 1.414 . S
C798 C799 1.374 . S
C799 H779 0.950 . S
C799 C795 1.385 . S
C799 C798 1.374 . S
C800 C797 1.499 . S
C800 C801 1.373 1_565 S
C800 C802 1.389 . S
C801 H780 0.950 . S
C801 C800 1.373 1_545 S
C801 C817 1.377 . S
C802 C800 1.389 . S
C802 C803 1.524 . S
C802 C816 1.377 . S
C803 C802 1.524 . S
C803 C804 1.397 . S
C803 C808 1.363 . S
C804 H781 0.950 . S
C804 C803 1.397 . S
C804 C805 1.334 . S
C805 H782 0.950 . S
C805 C804 1.334 . S
C805 C806 1.287 . S
C806 C805 1.287 . S
C806 C807 1.524 . S
C806 H825 0.913 . S
C807 H783 0.950 . S
C807 C806 1.524 . S
C807 C808 1.415 . S
C808 H784 0.950 . S
C808 C803 1.363 . S
C808 C807 1.415 . S
C809 H785 0.951 . S
C809 C810 1.366 . S
C809 C811 1.388 . S
C810 C809 1.366 . S
C810 C814 1.385 . S
C811 H786 0.951 . S
C811 C809 1.388 . S
C811 C812 1.366 . S
C812 C811 1.366 . S
C812 C813 1.414 . S
C812 C815 1.499 . S
C813 H787 0.950 . S
C813 C812 1.414 . S
C813 C814 1.374 . S
C814 H788 0.950 . S
C814 C810 1.385 . S
C814 C813 1.374 . S
C815 C812 1.499 . S
C815 C816 1.373 1_545 S
C815 C817 1.389 . S
C816 H789 0.950 . S
C816 C802 1.377 . S
C816 C815 1.373 1_565 S
C817 C801 1.377 . S
C817 C815 1.389 . S
C817 C818 1.524 . S
C818 C817 1.524 . S
C818 C819 1.397 . S
C818 C823 1.363 . S
C819 H790 0.950 . S
C819 C818 1.397 . S
C819 C820 1.334 . S
C820 H791 0.950 . S
C820 C819 1.334 . S
C820 C821 1.287 . S
C821 C820 1.287 . S
C821 C822 1.524 . S
C821 H824 0.999 . S
C822 H792 0.950 . S
C822 C821 1.524 . S
C822 C823 1.415 . S
C823 H793 0.950 . S
C823 C818 1.363 . S
C823 C822 1.415 . S
H824 C821 0.999 . S
H825 C806 0.913 . S
H826 C844 0.951 . S
H827 C846 0.951 . S
H828 C848 0.950 . S
H829 C849 0.950 . S
H830 C851 0.950 . S
H831 C854 0.950 . S
H832 C855 0.950 . S
H833 C857 0.950 . S
H834 C858 0.950 . S
H835 C859 0.951 . S
H836 C861 0.951 . S
H837 C863 0.950 . S
H838 C864 0.950 . S
H839 C866 0.950 . S
H840 C869 0.950 . S
H841 C870 0.950 . S
H842 C872 0.950 . S
H843 C873 0.950 . S
C844 H826 0.951 . S
C844 C845 1.366 . S
C844 C846 1.388 . S
C845 C844 1.366 . S
C845 C849 1.385 . S
C846 H827 0.951 . S
C846 C844 1.388 . S
C846 C847 1.366 . S
C847 C846 1.366 . S
C847 C848 1.414 . S
C847 C850 1.499 . S
C848 H828 0.950 . S
C848 C847 1.414 . S
C848 C849 1.374 . S
C849 H829 0.950 . S
C849 C845 1.385 . S
C849 C848 1.374 . S
C850 C847 1.499 . S
C850 C851 1.373 1_545 S
C850 C852 1.389 . S
C851 H830 0.950 . S
C851 C850 1.373 1_565 S
C851 C867 1.377 . S
C852 C850 1.389 . S
C852 C853 1.524 . S
C852 C866 1.377 . S
C853 C852 1.524 . S
C853 C854 1.397 . S
C853 C858 1.363 . S
C854 H831 0.950 . S
C854 C853 1.397 . S
C854 C855 1.334 . S
C855 H832 0.950 . S
C855 C854 1.334 . S
C855 C856 1.287 . S
C856 C855 1.287 . S
C856 C857 1.524 . S
C856 H875 0.913 . S
C857 H833 0.950 . S
C857 C856 1.524 . S
C857 C858 1.415 . S
C858 H834 0.950 . S
C858 C853 1.363 . S
C858 C857 1.415 . S
C859 H835 0.951 . S
C859 C860 1.366 . S
C859 C861 1.388 . S
C860 C859 1.366 . S
C860 C864 1.385 . S
C861 H836 0.951 . S
C861 C859 1.388 . S
C861 C862 1.366 . S
C862 C861 1.366 . S
C862 C863 1.414 . S
C862 C865 1.499 . S
C863 H837 0.950 . S
C863 C862 1.414 . S
C863 C864 1.374 . S
C864 H838 0.950 . S
C864 C860 1.385 . S
C864 C863 1.374 . S
C865 C862 1.499 . S
C865 C866 1.373 1_565 S
C865 C867 1.389 . S
C866 H839 0.950 . S
C866 C852 1.377 . S
C866 C865 1.373 1_545 S
C867 C851 1.377 . S
C867 C865 1.389 . S
C867 C868 1.524 . S
C868 C867 1.524 . S
C868 C869 1.397 . S
C868 C873 1.363 . S
C869 H840 0.950 . S
C869 C868 1.397 . S
C869 C870 1.334 . S
C870 H841 0.950 . S
C870 C869 1.334 . S
C870 C871 1.287 . S
C871 C870 1.287 . S
C871 C872 1.524 . S
C871 H874 0.999 . S
C872 H842 0.950 . S
C872 C871 1.524 . S
C872 C873 1.415 . S
C873 H843 0.950 . S
C873 C868 1.363 . S
C873 C872 1.415 . S
H874 C871 0.999 . S
H875 C856 0.913 . S
H876 C894 0.951 . S
H877 C896 0.951 . S
H878 C898 0.950 . S
H879 C899 0.950 . S
H880 C901 0.950 . S
H881 C904 0.950 1_545 S
H882 C905 0.950 . S
H883 C907 0.950 . S
H884 C908 0.950 . S
H885 C909 0.951 . S
H886 C911 0.951 . S
H887 C913 0.950 . S
H888 C914 0.950 . S
H889 C916 0.950 . S
H890 C919 0.950 . S
H891 C920 0.950 . S
H892 C922 0.950 . S
H893 C923 0.950 . S
C894 H876 0.951 . S
C894 C895 1.366 . S
C894 C896 1.388 . S
C895 C894 1.366 . S
C895 C899 1.385 . S
C896 H877 0.951 . S
C896 C894 1.388 . S
C896 C897 1.366 . S
C897 C896 1.366 . S
C897 C898 1.414 . S
C897 C900 1.499 . S
C898 H878 0.950 . S
C898 C897 1.414 . S
C898 C899 1.374 . S
C899 H879 0.950 . S
C899 C895 1.385 . S
C899 C898 1.374 . S
C900 C897 1.499 . S
C900 C901 1.373 . S
C900 C902 1.389 . S
C901 H880 0.950 . S
C901 C900 1.373 . S
C901 C917 1.377 1_565 S
C902 C900 1.389 . S
C902 C903 1.524 . S
C902 C916 1.377 1_565 S
C903 C902 1.524 . S
C903 C904 1.397 . S
C903 C908 1.363 . S
C904 H881 0.950 1_565 S
C904 C903 1.397 . S
C904 C905 1.334 . S
C905 H882 0.950 . S
C905 C904 1.334 . S
C905 C906 1.287 . S
C906 C905 1.287 . S
C906 C907 1.524 . S
C906 H925 0.913 . S
C907 H883 0.950 . S
C907 C906 1.524 . S
C907 C908 1.415 . S
C908 H884 0.950 . S
C908 C903 1.363 . S
C908 C907 1.415 . S
C909 H885 0.951 . S
C909 C910 1.366 . S
C909 C911 1.388 . S
C910 C909 1.366 . S
C910 C914 1.385 . S
C911 H886 0.951 . S
C911 C909 1.388 . S
C911 C912 1.366 . S
C912 C911 1.366 . S
C912 C913 1.414 . S
C912 C915 1.499 . S
C913 H887 0.950 . S
C913 C912 1.414 . S
C913 C914 1.374 . S
C914 H888 0.950 . S
C914 C910 1.385 . S
C914 C913 1.374 . S
C915 C912 1.499 . S
C915 C916 1.373 . S
C915 C917 1.389 . S
C916 H889 0.950 . S
C916 C902 1.377 1_545 S
C916 C915 1.373 . S
C917 C901 1.377 1_545 S
C917 C915 1.389 . S
C917 C918 1.524 . S
C918 C917 1.524 . S
C918 C919 1.397 . S
C918 C923 1.363 . S
C919 H890 0.950 . S
C919 C918 1.397 . S
C919 C920 1.334 . S
C920 H891 0.950 . S
C920 C919 1.334 . S
C920 C921 1.287 . S
C921 C920 1.287 . S
C921 C922 1.524 . S
C921 H924 0.999 . S
C922 H892 0.950 . S
C922 C921 1.524 . S
C922 C923 1.415 . S
C923 H893 0.950 . S
C923 C918 1.363 . S
C923 C922 1.415 . S
H924 C921 0.999 . S
H925 C906 0.913 . S
H926 C944 0.951 . S
H927 C946 0.951 . S
H928 C948 0.950 . S
H929 C949 0.950 . S
H930 C951 0.950 . S
H931 C954 0.950 . S
H932 C955 0.950 . S
H933 C957 0.950 . S
H934 C958 0.950 . S
H935 C959 0.951 . S
H936 C961 0.951 . S
H937 C963 0.950 . S
H938 C964 0.950 . S
H939 C966 0.950 . S
H940 C969 0.950 . S
H941 C970 0.950 . S
H942 C972 0.950 . S
H943 C973 0.950 . S
C944 H926 0.951 . S
C944 C945 1.366 . S
C944 C946 1.388 . S
C945 C944 1.366 . S
C945 C949 1.385 . S
C946 H927 0.951 . S
C946 C944 1.388 . S
C946 C947 1.366 . S
C947 C946 1.366 . S
C947 C948 1.414 . S
C947 C950 1.499 . S
C948 H928 0.950 . S
C948 C947 1.414 . S
C948 C949 1.374 . S
C949 H929 0.950 . S
C949 C945 1.385 . S
C949 C948 1.374 . S
C950 C947 1.499 . S
C950 C951 1.373 . S
C950 C952 1.400 . S
C951 H930 0.950 . S
C951 C950 1.373 . S
C951 C967 1.377 1_565 S
C952 C950 1.400 . S
C952 C953 1.528 . S
C952 C966 1.363 1_565 S
C953 C952 1.528 . S
C953 C954 1.397 . S
C953 C958 1.363 1_565 S
C954 H931 0.950 . S
C954 C953 1.397 . S
C954 C955 1.334 . S
C955 H932 0.950 . S
C955 C954 1.334 . S
C955 C956 1.287 . S
C956 C955 1.287 . S
C956 C957 1.524 1_565 S
C956 H975 0.913 . S
C957 H933 0.950 . S
C957 C956 1.524 1_545 S
C957 C958 1.415 . S
C958 H934 0.950 . S
C958 C953 1.363 1_545 S
C958 C957 1.415 . S
C959 H935 0.951 . S
C959 C960 1.366 . S
C959 C961 1.388 . S
C960 C959 1.366 . S
C960 C964 1.385 . S
C961 H936 0.951 . S
C961 C959 1.388 . S
C961 C962 1.366 . S
C962 C961 1.366 . S
C962 C963 1.414 . S
C962 C965 1.499 . S
C963 H937 0.950 . S
C963 C962 1.414 . S
C963 C964 1.374 . S
C964 H938 0.950 . S
C964 C960 1.385 . S
C964 C963 1.374 . S
C965 C962 1.499 . S
C965 C966 1.373 . S
C965 C967 1.389 . S
C966 H939 0.950 . S
C966 C952 1.363 1_545 S
C966 C965 1.373 . S
C967 C951 1.377 1_545 S
C967 C965 1.389 . S
C967 C968 1.524 . S
C968 C967 1.524 . S
C968 C969 1.397 . S
C968 C973 1.363 1_545 S
C969 H940 0.950 . S
C969 C968 1.397 . S
C969 C970 1.334 . S
C970 H941 0.950 . S
C970 C969 1.334 . S
C970 C971 1.287 . S
C971 C970 1.287 . S
C971 C972 1.524 1_545 S
C971 H974 0.999 . S
C972 H942 0.950 . S
C972 C971 1.524 1_565 S
C972 C973 1.415 . S
C973 H943 0.950 . S
C973 C968 1.363 1_565 S
C973 C972 1.415 . S
H974 C971 0.999 . S
H975 C956 0.913 . S
H976 C994 0.951 . S
H977 C996 0.951 . S
H978 C998 0.950 . S
H979 C999 0.950 . S
H980 C1001 0.950 . S
H981 C1004 0.950 . S
H982 C1005 0.950 . S
H983 C1007 0.950 . S
H984 C1008 0.950 . S
H985 C1009 0.951 . S
H986 C1011 0.951 . S
H987 C1013 0.950 . S
H988 C1014 0.950 . S
H989 C1016 0.950 . S
H990 C1019 0.950 . S
H991 C1020 0.950 . S
H992 C1022 0.950 . S
H993 C1023 0.950 . S
C994 H976 0.951 . S
C994 C995 1.366 . S
C994 C996 1.388 . S
C995 C994 1.366 . S
C995 C999 1.385 . S
C996 H977 0.951 . S
C996 C994 1.388 . S
C996 C997 1.366 . S
C997 C996 1.366 . S
C997 C998 1.414 . S
C997 C1000 1.499 . S
C998 H978 0.950 . S
C998 C997 1.414 . S
C998 C999 1.374 . S
C999 H979 0.950 . S
C999 C995 1.385 . S
C999 C998 1.374 . S
C1000 C997 1.499 . S
C1000 C1001 1.373 . S
C1000 C1002 1.389 . S
C1001 H980 0.950 . S
C1001 C1000 1.373 . S
C1001 C1017 1.377 . S
C1002 C1000 1.389 . S
C1002 C1003 1.524 . S
C1002 C1016 1.377 . S
C1003 C1002 1.524 . S
C1003 C1004 1.397 . S
C1003 C1008 1.363 . S
C1004 H981 0.950 . S
C1004 C1003 1.397 . S
C1004 C1005 1.334 . S
C1005 H982 0.950 . S
C1005 C1004 1.334 . S
C1005 C1006 1.287 . S
C1006 C1005 1.287 . S
C1006 C1007 1.524 . S
C1006 H1025 0.913 . S
C1007 H983 0.950 . S
C1007 C1006 1.524 . S
C1007 C1008 1.415 . S
C1008 H984 0.950 . S
C1008 C1003 1.363 . S
C1008 C1007 1.415 . S
C1009 H985 0.951 . S
C1009 C1010 1.366 . S
C1009 C1011 1.388 . S
C1010 C1009 1.366 . S
C1010 C1014 1.385 . S
C1011 H986 0.951 . S
C1011 C1009 1.388 . S
C1011 C1012 1.366 . S
C1012 C1011 1.366 . S
C1012 C1013 1.414 . S
C1012 C1015 1.499 . S
C1013 H987 0.950 . S
C1013 C1012 1.414 . S
C1013 C1014 1.374 . S
C1014 H988 0.950 . S
C1014 C1010 1.385 . S
C1014 C1013 1.374 . S
C1015 C1012 1.499 . S
C1015 C1016 1.373 . S
C1015 C1017 1.389 . S
C1016 H989 0.950 . S
C1016 C1002 1.377 . S
C1016 C1015 1.373 . S
C1017 C1001 1.377 . S
C1017 C1015 1.389 . S
C1017 C1018 1.524 . S
C1018 C1017 1.524 . S
C1018 C1019 1.397 . S
C1018 C1023 1.363 . S
C1019 H990 0.950 . S
C1019 C1018 1.397 . S
C1019 C1020 1.334 . S
C1020 H991 0.950 . S
C1020 C1019 1.334 . S
C1020 C1021 1.287 . S
C1021 C1020 1.287 . S
C1021 C1022 1.524 . S
C1021 H1024 0.999 . S
C1022 H992 0.950 . S
C1022 C1021 1.524 . S
C1022 C1023 1.415 . S
C1023 H993 0.950 . S
C1023 C1018 1.363 . S
C1023 C1022 1.415 . S
H1024 C1021 0.999 . S
H1025 C1006 0.913 . S
H1026 C1044 0.951 . S
H1027 C1046 0.951 . S
H1028 C1048 0.950 . S
H1029 C1049 0.950 . S
H1030 C1051 0.950 . S
H1031 C1054 0.950 . S
H1032 C1055 0.950 . S
H1033 C1057 0.950 . S
H1034 C1058 0.950 . S
H1035 C1059 0.951 . S
H1036 C1061 0.951 . S
H1037 C1063 0.950 . S
H1038 C1064 0.950 . S
H1039 C1066 0.950 . S
H1040 C1069 0.950 . S
H1041 C1070 0.950 . S
H1042 C1072 0.950 . S
H1043 C1073 0.950 . S
C1044 H1026 0.951 . S
C1044 C1045 1.366 . S
C1044 C1046 1.388 . S
C1045 C1044 1.366 . S
C1045 C1049 1.385 . S
C1046 H1027 0.951 . S
C1046 C1044 1.388 . S
C1046 C1047 1.366 . S
C1047 C1046 1.366 . S
C1047 C1048 1.414 . S
C1047 C1050 1.499 . S
C1048 H1028 0.950 . S
C1048 C1047 1.414 . S
C1048 C1049 1.374 . S
C1049 H1029 0.950 . S
C1049 C1045 1.385 . S
C1049 C1048 1.374 . S
C1050 C1047 1.499 . S
C1050 C1051 1.373 . S
C1050 C1052 1.389 . S
C1051 H1030 0.950 . S
C1051 C1050 1.373 . S
C1051 C1067 1.377 . S
C1052 C1050 1.389 . S
C1052 C1053 1.524 . S
C1052 C1066 1.377 . S
C1053 C1052 1.524 . S
C1053 C1054 1.397 . S
C1053 C1058 1.363 . S
C1054 H1031 0.950 . S
C1054 C1053 1.397 . S
C1054 C1055 1.334 . S
C1055 H1032 0.950 . S
C1055 C1054 1.334 . S
C1055 C1056 1.287 . S
C1056 C1055 1.287 . S
C1056 C1057 1.524 . S
C1056 H1075 0.913 . S
C1057 H1033 0.950 . S
C1057 C1056 1.524 . S
C1057 C1058 1.415 . S
C1058 H1034 0.950 . S
C1058 C1053 1.363 . S
C1058 C1057 1.415 . S
C1059 H1035 0.951 . S
C1059 C1060 1.366 . S
C1059 C1061 1.388 . S
C1060 C1059 1.366 . S
C1060 C1064 1.385 . S
C1061 H1036 0.951 . S
C1061 C1059 1.388 . S
C1061 C1062 1.366 . S
C1062 C1061 1.366 . S
C1062 C1063 1.414 . S
C1062 C1065 1.499 . S
C1063 H1037 0.950 . S
C1063 C1062 1.414 . S
C1063 C1064 1.374 . S
C1064 H1038 0.950 . S
C1064 C1060 1.385 . S
C1064 C1063 1.374 . S
C1065 C1062 1.499 . S
C1065 C1066 1.373 . S
C1065 C1067 1.389 . S
C1066 H1039 0.950 . S
C1066 C1052 1.377 . S
C1066 C1065 1.373 . S
C1067 C1051 1.377 . S
C1067 C1065 1.389 . S
C1067 C1068 1.524 . S
C1068 C1067 1.524 . S
C1068 C1069 1.397 . S
C1068 C1073 1.363 . S
C1069 H1040 0.950 . S
C1069 C1068 1.397 . S
C1069 C1070 1.334 . S
C1070 H1041 0.950 . S
C1070 C1069 1.334 . S
C1070 C1071 1.287 . S
C1071 C1070 1.287 . S
C1071 C1072 1.524 . S
C1071 H1074 0.999 . S
C1072 H1042 0.950 . S
C1072 C1071 1.524 . S
C1072 C1073 1.415 . S
C1073 H1043 0.950 . S
C1073 C1068 1.363 . S
C1073 C1072 1.415 . S
H1074 C1071 0.999 . S
H1075 C1056 0.913 . S
H1076 C1094 0.951 . S
H1077 C1096 0.951 . S
H1078 C1098 0.950 . S
H1079 C1099 0.950 . S
H1080 C1101 0.950 . S
H1081 C1104 0.950 . S
H1082 C1105 0.950 . S
H1083 C1107 0.950 . S
H1084 C1108 0.950 . S
H1085 C1109 0.951 . S
H1086 C1111 0.951 . S
H1087 C1113 0.950 . S
H1088 C1114 0.950 . S
H1089 C1116 0.950 . S
H1090 C1119 0.950 . S
H1091 C1120 0.950 . S
H1092 C1122 0.950 . S
H1093 C1123 0.950 . S
C1094 H1076 0.951 . S
C1094 C1095 1.366 . S
C1094 C1096 1.388 . S
C1095 C1094 1.366 . S
C1095 C1099 1.385 . S
C1096 H1077 0.951 . S
C1096 C1094 1.388 . S
C1096 C1097 1.366 . S
C1097 C1096 1.366 . S
C1097 C1098 1.414 . S
C1097 C1100 1.499 . S
C1098 H1078 0.950 . S
C1098 C1097 1.414 . S
C1098 C1099 1.374 . S
C1099 H1079 0.950 . S
C1099 C1095 1.385 . S
C1099 C1098 1.374 . S
C1100 C1097 1.499 . S
C1100 C1101 1.373 . S
C1100 C1102 1.389 . S
C1101 H1080 0.950 . S
C1101 C1100 1.373 . S
C1101 C1117 1.377 . S
C1102 C1100 1.389 . S
C1102 C1103 1.524 . S
C1102 C1116 1.377 . S
C1103 C1102 1.524 . S
C1103 C1104 1.397 . S
C1103 C1108 1.363 . S
C1104 H1081 0.950 . S
C1104 C1103 1.397 . S
C1104 C1105 1.334 . S
C1105 H1082 0.950 . S
C1105 C1104 1.334 . S
C1105 C1106 1.287 . S
C1106 C1105 1.287 . S
C1106 C1107 1.524 . S
C1106 H1125 0.913 . S
C1107 H1083 0.950 . S
C1107 C1106 1.524 . S
C1107 C1108 1.415 . S
C1108 H1084 0.950 . S
C1108 C1103 1.363 . S
C1108 C1107 1.415 . S
C1109 H1085 0.951 . S
C1109 C1110 1.366 . S
C1109 C1111 1.388 . S
C1110 C1109 1.366 . S
C1110 C1114 1.385 . S
C1111 H1086 0.951 . S
C1111 C1109 1.388 . S
C1111 C1112 1.366 . S
C1112 C1111 1.366 . S
C1112 C1113 1.414 . S
C1112 C1115 1.499 . S
C1113 H1087 0.950 . S
C1113 C1112 1.414 . S
C1113 C1114 1.374 . S
C1114 H1088 0.950 . S
C1114 C1110 1.385 . S
C1114 C1113 1.374 . S
C1115 C1112 1.499 . S
C1115 C1116 1.373 . S
C1115 C1117 1.389 . S
C1116 H1089 0.950 . S
C1116 C1102 1.377 . S
C1116 C1115 1.373 . S
C1117 C1101 1.377 . S
C1117 C1115 1.389 . S
C1117 C1118 1.524 . S
C1118 C1117 1.524 . S
C1118 C1119 1.397 . S
C1118 C1123 1.363 . S
C1119 H1090 0.950 . S
C1119 C1118 1.397 . S
C1119 C1120 1.334 . S
C1120 H1091 0.950 . S
C1120 C1119 1.334 . S
C1120 C1121 1.287 . S
C1121 C1120 1.287 . S
C1121 C1122 1.524 . S
C1121 H1124 0.999 . S
C1122 H1092 0.950 . S
C1122 C1121 1.524 . S
C1122 C1123 1.415 . S
C1123 H1093 0.950 . S
C1123 C1118 1.363 . S
C1123 C1122 1.415 . S
H1124 C1121 0.999 . S
H1125 C1106 0.913 . S
H1126 C1144 0.951 . S
H1127 C1146 0.951 . S
H1128 C1148 0.950 . S
H1129 C1149 0.950 . S
H1130 C1151 0.950 . S
H1131 C1154 0.950 . S
H1132 C1155 0.950 . S
H1133 C1157 0.950 . S
H1134 C1158 0.950 . S
H1135 C1159 0.951 . S
H1136 C1161 0.951 . S
H1137 C1163 0.950 . S
H1138 C1164 0.950 . S
H1139 C1166 0.950 . S
H1140 C1169 0.950 . S
H1141 C1170 0.950 . S
H1142 C1172 0.950 . S
H1143 C1173 0.950 . S
C1144 H1126 0.951 . S
C1144 C1145 1.366 . S
C1144 C1146 1.388 . S
C1145 C1144 1.366 . S
C1145 C1149 1.385 . S
C1146 H1127 0.951 . S
C1146 C1144 1.388 . S
C1146 C1147 1.366 . S
C1147 C1146 1.366 . S
C1147 C1148 1.414 . S
C1147 C1150 1.499 . S
C1148 H1128 0.950 . S
C1148 C1147 1.414 . S
C1148 C1149 1.374 . S
C1149 H1129 0.950 . S
C1149 C1145 1.385 . S
C1149 C1148 1.374 . S
C1150 C1147 1.499 . S
C1150 C1151 1.373 . S
C1150 C1152 1.389 . S
C1151 H1130 0.950 . S
C1151 C1150 1.373 . S
C1151 C1167 1.377 . S
C1152 C1150 1.389 . S
C1152 C1153 1.524 . S
C1152 C1166 1.377 . S
C1153 C1152 1.524 . S
C1153 C1154 1.397 . S
C1153 C1158 1.363 . S
C1154 H1131 0.950 . S
C1154 C1153 1.397 . S
C1154 C1155 1.334 . S
C1155 H1132 0.950 . S
C1155 C1154 1.334 . S
C1155 C1156 1.287 . S
C1156 C1155 1.287 . S
C1156 C1157 1.524 . S
C1156 H1175 0.913 . S
C1157 H1133 0.950 . S
C1157 C1156 1.524 . S
C1157 C1158 1.415 . S
C1158 H1134 0.950 . S
C1158 C1153 1.363 . S
C1158 C1157 1.415 . S
C1159 H1135 0.951 . S
C1159 C1160 1.366 . S
C1159 C1161 1.388 . S
C1160 C1159 1.366 . S
C1160 C1164 1.385 . S
C1161 H1136 0.951 . S
C1161 C1159 1.388 . S
C1161 C1162 1.366 . S
C1162 C1161 1.366 . S
C1162 C1163 1.414 . S
C1162 C1165 1.499 . S
C1163 H1137 0.950 . S
C1163 C1162 1.414 . S
C1163 C1164 1.374 . S
C1164 H1138 0.950 . S
C1164 C1160 1.385 . S
C1164 C1163 1.374 . S
C1165 C1162 1.499 . S
C1165 C1166 1.373 . S
C1165 C1167 1.389 . S
C1166 H1139 0.950 . S
C1166 C1152 1.377 . S
C1166 C1165 1.373 . S
C1167 C1151 1.377 . S
C1167 C1165 1.389 . S
C1167 C1168 1.524 . S
C1168 C1167 1.524 . S
C1168 C1169 1.397 . S
C1168 C1173 1.363 . S
C1169 H1140 0.950 . S
C1169 C1168 1.397 . S
C1169 C1170 1.334 . S
C1170 H1141 0.950 . S
C1170 C1169 1.334 . S
C1170 C1171 1.287 . S
C1171 C1170 1.287 . S
C1171 C1172 1.524 . S
C1171 H1174 0.999 . S
C1172 H1142 0.950 . S
C1172 C1171 1.524 . S
C1172 C1173 1.415 . S
C1173 H1143 0.950 . S
C1173 C1168 1.363 . S
C1173 C1172 1.415 . S
H1174 C1171 0.999 . S
H1175 C1156 0.913 . S
H1176 C1194 0.951 . S
H1177 C1196 0.951 . S
H1178 C1198 0.950 . S
H1179 C1199 0.950 . S
H1180 C1201 0.950 . S
H1181 C1204 0.950 . S
H1182 C1205 0.950 . S
H1183 C1207 0.950 . S
H1184 C1208 0.950 . S
H1185 C1209 0.951 . S
H1186 C1211 0.951 . S
H1187 C1213 0.950 . S
H1188 C1214 0.950 . S
H1189 C1216 0.950 . S
H1190 C1219 0.950 . S
H1191 C1220 0.950 . S
H1192 C1222 0.950 . S
H1193 C1223 0.950 . S
C1194 H1176 0.951 . S
C1194 C1195 1.366 . S
C1194 C1196 1.388 . S
C1195 C1194 1.366 . S
C1195 C1199 1.385 . S
C1196 H1177 0.951 . S
C1196 C1194 1.388 . S
C1196 C1197 1.366 . S
C1197 C1196 1.366 . S
C1197 C1198 1.414 . S
C1197 C1200 1.499 . S
C1198 H1178 0.950 . S
C1198 C1197 1.414 . S
C1198 C1199 1.374 . S
C1199 H1179 0.950 . S
C1199 C1195 1.385 . S
C1199 C1198 1.374 . S
C1200 C1197 1.499 . S
C1200 C1201 1.373 . S
C1200 C1202 1.389 . S
C1201 H1180 0.950 . S
C1201 C1200 1.373 . S
C1201 C1217 1.377 . S
C1202 C1200 1.389 . S
C1202 C1203 1.524 . S
C1202 C1216 1.377 . S
C1203 C1202 1.524 . S
C1203 C1204 1.397 . S
C1203 C1208 1.363 . S
C1204 H1181 0.950 . S
C1204 C1203 1.397 . S
C1204 C1205 1.334 . S
C1205 H1182 0.950 . S
C1205 C1204 1.334 . S
C1205 C1206 1.287 . S
C1206 C1205 1.287 . S
C1206 C1207 1.524 . S
C1206 H1225 0.913 . S
C1207 H1183 0.950 . S
C1207 C1206 1.524 . S
C1207 C1208 1.415 . S
C1208 H1184 0.950 . S
C1208 C1203 1.363 . S
C1208 C1207 1.415 . S
C1209 H1185 0.951 . S
C1209 C1210 1.366 . S
C1209 C1211 1.388 . S
C1210 C1209 1.366 . S
C1210 C1214 1.385 . S
C1211 H1186 0.951 . S
C1211 C1209 1.388 . S
C1211 C1212 1.366 . S
C1212 C1211 1.366 . S
C1212 C1213 1.414 . S
C1212 C1215 1.499 . S
C1213 H1187 0.950 . S
C1213 C1212 1.414 . S
C1213 C1214 1.374 . S
C1214 H1188 0.950 . S
C1214 C1210 1.385 . S
C1214 C1213 1.374 . S
C1215 C1212 1.499 . S
C1215 C1216 1.373 . S
C1215 C1217 1.389 . S
C1216 H1189 0.950 . S
C1216 C1202 1.377 . S
C1216 C1215 1.373 . S
C1217 C1201 1.377 . S
C1217 C1215 1.389 . S
C1217 C1218 1.524 . S
C1218 C1217 1.524 . S
C1218 C1219 1.397 . S
C1218 C1223 1.363 . S
C1219 H1190 0.950 . S
C1219 C1218 1.397 . S
C1219 C1220 1.334 . S
C1220 H1191 0.950 . S
C1220 C1219 1.334 . S
C1220 C1221 1.287 . S
C1221 C1220 1.287 . S
C1221 C1222 1.524 . S
C1221 H1224 0.999 . S
C1222 H1192 0.950 . S
C1222 C1221 1.524 . S
C1222 C1223 1.415 . S
C1223 H1193 0.950 . S
C1223 C1218 1.363 . S
C1223 C1222 1.415 . S
H1224 C1221 0.999 . S
H1225 C1206 0.913 . S
H1226 C1244 0.951 . S
H1227 C1246 0.951 . S
H1228 C1248 0.950 . S
H1229 C1249 0.950 . S
H1230 C1251 0.950 . S
H1231 C1254 0.950 . S
H1232 C1255 0.950 . S
H1233 C1257 0.950 . S
H1234 C1258 0.950 . S
H1235 C1259 0.951 . S
H1236 C1261 0.951 . S
H1237 C1263 0.950 . S
H1238 C1264 0.950 . S
H1239 C1266 0.950 . S
H1240 C1269 0.950 . S
H1241 C1270 0.950 . S
H1242 C1272 0.950 . S
H1243 C1273 0.950 . S
C1244 H1226 0.951 . S
C1244 C1245 1.366 . S
C1244 C1246 1.388 . S
C1245 C1244 1.366 . S
C1245 C1249 1.385 . S
C1246 H1227 0.951 . S
C1246 C1244 1.388 . S
C1246 C1247 1.366 . S
C1247 C1246 1.366 . S
C1247 C1248 1.414 . S
C1247 C1250 1.499 . S
C1248 H1228 0.950 . S
C1248 C1247 1.414 . S
C1248 C1249 1.374 . S
C1249 H1229 0.950 . S
C1249 C1245 1.385 . S
C1249 C1248 1.374 . S
C1250 C1247 1.499 . S
C1250 C1251 1.373 . S
C1250 C1252 1.389 . S
C1251 H1230 0.950 . S
C1251 C1250 1.373 . S
C1251 C1267 1.377 . S
C1252 C1250 1.389 . S
C1252 C1253 1.524 . S
C1252 C1266 1.377 . S
C1253 C1252 1.524 . S
C1253 C1254 1.397 . S
C1253 C1258 1.363 . S
C1254 H1231 0.950 . S
C1254 C1253 1.397 . S
C1254 C1255 1.334 . S
C1255 H1232 0.950 . S
C1255 C1254 1.334 . S
C1255 C1256 1.287 . S
C1256 C1255 1.287 . S
C1256 C1257 1.524 . S
C1256 H1275 0.913 . S
C1257 H1233 0.950 . S
C1257 C1256 1.524 . S
C1257 C1258 1.415 . S
C1258 H1234 0.950 . S
C1258 C1253 1.363 . S
C1258 C1257 1.415 . S
C1259 H1235 0.951 . S
C1259 C1260 1.366 . S
C1259 C1261 1.388 . S
C1260 C1259 1.366 . S
C1260 C1264 1.385 . S
C1261 H1236 0.951 . S
C1261 C1259 1.388 . S
C1261 C1262 1.366 . S
C1262 C1261 1.366 . S
C1262 C1263 1.414 . S
C1262 C1265 1.499 . S
C1263 H1237 0.950 . S
C1263 C1262 1.414 . S
C1263 C1264 1.374 . S
C1264 H1238 0.950 . S
C1264 C1260 1.385 . S
C1264 C1263 1.374 . S
C1265 C1262 1.499 . S
C1265 C1266 1.373 . S
C1265 C1267 1.389 . S
C1266 H1239 0.950 . S
C1266 C1252 1.377 . S
C1266 C1265 1.373 . S
C1267 C1251 1.377 . S
C1267 C1265 1.389 . S
C1267 C1268 1.524 . S
C1268 C1267 1.524 . S
C1268 C1269 1.397 . S
C1268 C1273 1.363 . S
C1269 H1240 0.950 . S
C1269 C1268 1.397 . S
C1269 C1270 1.334 . S
C1270 H1241 0.950 . S
C1270 C1269 1.334 . S
C1270 C1271 1.287 . S
C1271 C1270 1.287 . S
C1271 C1272 1.524 . S
C1271 H1274 0.999 . S
C1272 H1242 0.950 . S
C1272 C1271 1.524 . S
C1272 C1273 1.415 . S
C1273 H1243 0.950 . S
C1273 C1268 1.363 . S
C1273 C1272 1.415 . S
H1274 C1271 0.999 . S
H1275 C1256 0.913 . S
H1276 C1294 0.951 . S
H1277 C1296 0.951 . S
H1278 C1298 0.950 . S
H1279 C1299 0.950 . S
H1280 C1301 0.950 . S
H1281 C1304 0.950 . S
H1282 C1305 0.950 . S
H1283 C1307 0.950 . S
H1284 C1308 0.950 . S
H1285 C1309 0.951 . S
H1286 C1311 0.951 . S
H1287 C1313 0.950 . S
H1288 C1314 0.950 . S
H1289 C1316 0.950 . S
H1290 C1319 0.950 . S
H1291 C1320 0.950 . S
H1292 C1322 0.950 . S
H1293 C1323 0.950 . S
C1294 H1276 0.951 . S
C1294 C1295 1.366 . S
C1294 C1296 1.388 . S
C1295 C1294 1.366 . S
C1295 C1299 1.385 . S
C1296 H1277 0.951 . S
C1296 C1294 1.388 . S
C1296 C1297 1.366 . S
C1297 C1296 1.366 . S
C1297 C1298 1.414 . S
C1297 C1300 1.499 . S
C1298 H1278 0.950 . S
C1298 C1297 1.414 . S
C1298 C1299 1.374 . S
C1299 H1279 0.950 . S
C1299 C1295 1.385 . S
C1299 C1298 1.374 . S
C1300 C1297 1.499 . S
C1300 C1301 1.373 . S
C1300 C1302 1.389 . S
C1301 H1280 0.950 . S
C1301 C1300 1.373 . S
C1301 C1317 1.377 . S
C1302 C1300 1.389 . S
C1302 C1303 1.524 . S
C1302 C1316 1.377 . S
C1303 C1302 1.524 . S
C1303 C1304 1.397 . S
C1303 C1308 1.363 . S
C1304 H1281 0.950 . S
C1304 C1303 1.397 . S
C1304 C1305 1.334 . S
C1305 H1282 0.950 . S
C1305 C1304 1.334 . S
C1305 C1306 1.287 . S
C1306 C1305 1.287 . S
C1306 C1307 1.524 . S
C1306 H1325 0.913 . S
C1307 H1283 0.950 . S
C1307 C1306 1.524 . S
C1307 C1308 1.415 . S
C1308 H1284 0.950 . S
C1308 C1303 1.363 . S
C1308 C1307 1.415 . S
C1309 H1285 0.951 . S
C1309 C1310 1.366 . S
C1309 C1311 1.388 . S
C1310 C1309 1.366 . S
C1310 C1314 1.385 . S
C1311 H1286 0.951 . S
C1311 C1309 1.388 . S
C1311 C1312 1.366 . S
C1312 C1311 1.366 . S
C1312 C1313 1.414 . S
C1312 C1315 1.499 . S
C1313 H1287 0.950 . S
C1313 C1312 1.414 . S
C1313 C1314 1.374 . S
C1314 H1288 0.950 . S
C1314 C1310 1.385 . S
C1314 C1313 1.374 . S
C1315 C1312 1.499 . S
C1315 C1316 1.373 . S
C1315 C1317 1.389 . S
C1316 H1289 0.950 . S
C1316 C1302 1.377 . S
C1316 C1315 1.373 . S
C1317 C1301 1.377 . S
C1317 C1315 1.389 . S
C1317 C1318 1.524 . S
C1318 C1317 1.524 . S
C1318 C1319 1.397 . S
C1318 C1323 1.363 . S
C1319 H1290 0.950 . S
C1319 C1318 1.397 . S
C1319 C1320 1.334 . S
C1320 H1291 0.950 . S
C1320 C1319 1.334 . S
C1320 C1321 1.287 . S
C1321 C1320 1.287 . S
C1321 C1322 1.524 . S
C1321 H1324 0.999 . S
C1322 H1292 0.950 . S
C1322 C1321 1.524 . S
C1322 C1323 1.415 . S
C1323 H1293 0.950 . S
C1323 C1318 1.363 . S
C1323 C1322 1.415 . S
H1324 C1321 0.999 . S
H1325 C1306 0.913 . S
H1326 C1344 0.951 . S
H1327 C1346 0.951 . S
H1328 C1348 0.950 . S
H1329 C1349 0.950 . S
H1330 C1351 0.950 . S
H1331 C1354 0.950 . S
H1332 C1355 0.950 . S
H1333 C1357 0.950 . S
H1334 C1358 0.950 . S
H1335 C1359 0.951 . S
H1336 C1361 0.951 . S
H1337 C1363 0.950 . S
H1338 C1364 0.950 . S
H1339 C1366 0.950 . S
H1340 C1369 0.950 . S
H1341 C1370 0.950 . S
H1342 C1372 0.950 . S
H1343 C1373 0.950 . S
C1344 H1326 0.951 . S
C1344 C1345 1.366 . S
C1344 C1346 1.388 . S
C1345 C1344 1.366 . S
C1345 C1349 1.385 . S
C1346 H1327 0.951 . S
C1346 C1344 1.388 . S
C1346 C1347 1.366 . S
C1347 C1346 1.366 . S
C1347 C1348 1.414 . S
C1347 C1350 1.499 . S
C1348 H1328 0.950 . S
C1348 C1347 1.414 . S
C1348 C1349 1.374 . S
C1349 H1329 0.950 . S
C1349 C1345 1.385 . S
C1349 C1348 1.374 . S
C1350 C1347 1.499 . S
C1350 C1351 1.373 . S
C1350 C1352 1.389 . S
C1351 H1330 0.950 . S
C1351 C1350 1.373 . S
C1351 C1367 1.377 . S
C1352 C1350 1.389 . S
C1352 C1353 1.524 . S
C1352 C1366 1.377 . S
C1353 C1352 1.524 . S
C1353 C1354 1.397 . S
C1353 C1358 1.363 . S
C1354 H1331 0.950 . S
C1354 C1353 1.397 . S
C1354 C1355 1.334 . S
C1355 H1332 0.950 . S
C1355 C1354 1.334 . S
C1355 C1356 1.287 . S
C1356 C1355 1.287 . S
C1356 C1357 1.524 . S
C1356 H1375 0.913 . S
C1357 H1333 0.950 . S
C1357 C1356 1.524 . S
C1357 C1358 1.415 . S
C1358 H1334 0.950 . S
C1358 C1353 1.363 . S
C1358 C1357 1.415 . S
C1359 H1335 0.951 . S
C1359 C1360 1.366 . S
C1359 C1361 1.388 . S
C1360 C1359 1.366 . S
C1360 C1364 1.385 . S
C1361 H1336 0.951 . S
C1361 C1359 1.388 . S
C1361 C1362 1.366 . S
C1362 C1361 1.366 . S
C1362 C1363 1.414 . S
C1362 C1365 1.499 . S
C1363 H1337 0.950 . S
C1363 C1362 1.414 . S
C1363 C1364 1.374 . S
C1364 H1338 0.950 . S
C1364 C1360 1.385 . S
C1364 C1363 1.374 . S
C1365 C1362 1.499 . S
C1365 C1366 1.373 . S
C1365 C1367 1.389 . S
C1366 H1339 0.950 . S
C1366 C1352 1.377 . S
C1366 C1365 1.373 . S
C1367 C1351 1.377 . S
C1367 C1365 1.389 . S
C1367 C1368 1.524 . S
C1368 C1367 1.524 . S
C1368 C1369 1.397 . S
C1368 C1373 1.363 . S
C1369 H1340 0.950 . S
C1369 C1368 1.397 . S
C1369 C1370 1.334 . S
C1370 H1341 0.950 . S
C1370 C1369 1.334 . S
C1370 C1371 1.287 . S
C1371 C1370 1.287 . S
C1371 C1372 1.524 . S
C1371 H1374 0.999 . S
C1372 H1342 0.950 . S
C1372 C1371 1.524 . S
C1372 C1373 1.415 . S
C1373 H1343 0.950 . S
C1373 C1368 1.363 . S
C1373 C1372 1.415 . S
H1374 C1371 0.999 . S
H1375 C1356 0.913 . S
C195 C15 1.663 . S
C210 C95 1.663 . S
C245 C128 1.546 . S
C260 C30 1.546 . S
C295 C62 1.546 . S
C310 C150 1.546 . S
C345 C87 1.663 . S
C360 C161 1.663 . S
C395 C74 1.546 . S
C410 C172 1.547 . S
C445 C117 1.663 . S
C460 C43 1.663 . S
C495 C139 1.663 . S
C510 C51 1.663 . S
C545 C10 1.546 . S
C560 C106 1.546 . S
C595 C125 1.362 . S
C610 C18 1.370 . S
C645 C29 1.432 . S
C660 C147 1.432 . S
C695 C162 1.370 . S
C710 C59 1.362 . S
C745 C96 1.299 . S
C760 C76 1.299 . S
C795 C98 1.368 . S
C810 C81 1.361 . S
C845 C175 1.430 . S
C860 C65 1.431 . S
C895 C40 1.368 . S
C910 C153 1.361 . S
C945 C120 1.297 . S
C960 C8 1.297 . S
C995 C169 1.362 . S
C1010 C52 1.370 . S
C1045 C103 1.432 . S
C1060 C73 1.432 . S
C1095 C118 1.370 . S
C1110 C21 1.362 . S
C1145 C32 1.299 . S
C1160 C140 1.299 . S
C1195 C142 1.368 . S
C1210 C37 1.361 . S
C1245 C7 1.431 . S
C1260 C131 1.431 . S
C1295 C109 1.361 . S
C1310 C84 1.368 . S
C1345 C164 1.297 . S
C1360 C54 1.297 . S
