# Generated by pormake.
# Topology qtz-x, (6)-cn, num edge types: 1
# Building blocks:
#     Node 0, Type 0, BuildingBlock: VOLQOD_clean_sbu_1, # of connection points: 6
#     Node 1, Type 0, BuildingBlock: VOLQOD_clean_sbu_1, # of connection points: 6
#     Node 2, Type 0, BuildingBlock: VOLQOD_clean_sbu_1, # of connection points: 6
#     Edge 3, Type (0, 0), BuildingBlock: ZUJKAS_clean_linker_0, # of connection points: 2
#     Edge 4, Type (0, 0), BuildingBlock: ZUJKAS_clean_linker_0, # of connection points: 2
#     Edge 5, Type (0, 0), BuildingBlock: ZUJKAS_clean_linker_0, # of connection points: 2
#     Edge 6, Type (0, 0), BuildingBlock: ZUJKAS_clean_linker_0, # of connection points: 2
#     Edge 7, Type (0, 0), BuildingBlock: ZUJKAS_clean_linker_0, # of connection points: 2
#     Edge 8, Type (0, 0), BuildingBlock: ZUJKAS_clean_linker_0, # of connection points: 2
#     Edge 9, Type (0, 0), BuildingBlock: ZUJKAS_clean_linker_0, # of connection points: 2
#     Edge 10, Type (0, 0), BuildingBlock: ZUJKAS_clean_linker_0, # of connection points: 2
#     Edge 11, Type (0, 0), BuildingBlock: ZUJKAS_clean_linker_0, # of connection points: 2
# Relax obj value: 0.240
# Max RMSD: 0.198
# Mean RMSD: 0.198
data_MOF--net-qtz-x--node1-VOLQOD_clean_sbu_1--edge1-ZUJKAS_clean_linker_0
_symmetry_space_group_name_H-M    P1
_symmetry_Int_Tables_number       1
_symmetry_cell_setting            triclinic
loop_
_symmetry_equiv_pos_as_xyz
'x, y, z'
_cell_length_a     21.859391
_cell_length_b     21.830114
_cell_length_c     49.708471
_cell_angle_alpha  90.399773
_cell_angle_beta   89.62838
_cell_angle_gamma 120.07632
loop_
_atom_site_label
_atom_site_type_symbol
_atom_site_fract_x
_atom_site_fract_y
_atom_site_fract_z
_atom_type_partial_charge
O0 O 0.0522 0.69505 0.14279 0.0
Zn1 Zn 0.07987 0.62058 0.13765 0.0
O2 O 0.99864 0.52571 0.14006 0.0
Zn3 Zn 0.99469 0.46995 0.10905 0.0
Zn4 Zn 0.91346 0.53283 0.1434 0.0
Zn5 Zn 1.00769 0.47721 0.17063 0.0
O6 O 1.01068 0.38897 0.11803 0.0
O7 O 0.98773 0.3789 0.16176 0.0
O8 O 0.12169 0.6366 0.10075 0.0
O9 O 0.06294 0.53187 0.08046 0.0
O10 O 0.89746 0.42394 0.0941 0.0
O11 O 0.84016 0.46892 0.11637 0.0
O12 O 0.87324 0.50574 0.18075 0.0
O13 O 0.15547 0.63433 0.16399 0.0
O14 O 0.94365 0.47322 0.20025 0.0
O15 O 0.10673 0.52941 0.18402 0.0
C16 C 0.9929 0.69261 0.14089 0.0
C17 C 0.9982 0.35469 0.13992 0.0
C18 C 0.84202 0.42756 0.09857 0.0
C19 C 0.10981 0.59734 0.08015 0.0
C20 C 0.89238 0.48524 0.20133 0.0
C21 C 0.15894 0.59122 0.1802 0.0
O22 O 0.93532 0.63373 0.13885 0.0
O23 O 0.63515 0.92838 0.47116 0.0
Zn24 Zn 0.53349 0.90332 0.46733 0.0
O25 O 0.52377 0.98729 0.47056 0.0
Zn26 Zn 0.47615 0.99598 0.43942 0.0
Zn27 Zn 0.61772 0.07077 0.47411 0.0
Zn28 Zn 0.46532 0.97936 0.50116 0.0
O29 O 0.37754 0.97728 0.44738 0.0
O30 O 0.38258 0.99127 0.49164 0.0
O31 O 0.50567 0.86122 0.4303 0.0
O32 O 0.47362 0.93139 0.4102 0.0
O33 O 0.52933 0.09473 0.42558 0.0
O34 O 0.63216 0.1453 0.44707 0.0
O35 O 0.6289 0.11414 0.51073 0.0
O36 O 0.47462 0.83042 0.49531 0.0
O37 O 0.52317 0.04963 0.52965 0.0
O38 O 0.4244 0.88342 0.517 0.0
C39 C 0.69345 0.98682 0.47079 0.0
C40 C 0.35095 0.98345 0.46939 0.0
C41 C 0.5904 0.14765 0.42989 0.0
C42 C 0.48578 0.88012 0.4095 0.0
C43 C 0.58714 0.09973 0.53066 0.0
C44 C 0.43257 0.83032 0.51321 0.0
O45 O 0.69481 0.04586 0.47043 0.0
O46 O 0.71799 0.64852 0.8186 0.0
Zn47 Zn 0.64059 0.54602 0.81556 0.0
O48 O 0.54822 0.5392 0.81214 0.0
Zn49 Zn 0.49909 0.48239 0.78136 0.0
Zn50 Zn 0.55967 0.63342 0.809 0.0
Zn51 Zn 0.48839 0.49034 0.84231 0.0
O52 O 0.41766 0.3861 0.79081 0.0
O53 O 0.39363 0.40871 0.83178 0.0
O54 O 0.66346 0.50808 0.78216 0.0
O55 O 0.56699 0.47294 0.7573 0.0
O56 O 0.45765 0.52973 0.76055 0.0
O57 O 0.50953 0.64026 0.77608 0.0
O58 O 0.51885 0.65601 0.8415 0.0
O59 O 0.6416 0.48929 0.8474 0.0
O60 O 0.47512 0.55746 0.86562 0.0
O61 O 0.53288 0.44713 0.86379 0.0
C62 C 0.71933 0.70642 0.81356 0.0
C63 C 0.37699 0.36848 0.81123 0.0
C64 C 0.46769 0.59226 0.75982 0.0
C65 C 0.6293 0.48361 0.76037 0.0
C66 C 0.48862 0.62091 0.86262 0.0
C67 C 0.59274 0.45079 0.86399 0.0
O68 O 0.66301 0.70752 0.80802 0.0
H69 H 0.10495 0.8278 0.13815 0.0
H70 H 0.10205 0.93812 0.13835 0.0
H71 H 0.87462 0.82025 0.14449 0.0
H72 H 0.87676 0.70928 0.14369 0.0
H73 H 0.91991 0.92525 0.1075 0.0
H74 H 0.06738 0.03138 0.20265 0.0
H75 H 0.11478 1.00951 0.17846 0.0
H76 H 0.03274 0.94061 0.1922 0.0
C77 C 0.05424 0.82518 0.13965 0.0
C78 C 0.99109 0.75959 0.14107 0.0
C79 C 0.05275 0.88841 0.13991 0.0
C80 C 0.98824 0.88748 0.14197 0.0
C81 C 0.92503 0.82217 0.14306 0.0
H82 H 0.95409 0.25824 0.18075 0.0
H83 H 0.94786 0.14338 0.18077 0.0
C84 C 0.92639 0.75881 0.14261 0.0
C85 C 0.98671 0.95464 0.14244 0.0
H86 H 0.0514 0.11224 0.17575 0.0
C87 C 0.9483 0.96601 0.12251 0.0
C88 C 0.02283 1.00728 0.16229 0.0
C89 C 0.06115 0.99642 0.18527 0.0
C90 C 0.94632 0.02926 0.12153 0.0
C91 C 0.98522 0.08324 0.14063 0.0
C92 C 0.02233 0.0712 0.16091 0.0
C93 C 0.98775 0.15243 0.14017 0.0
C94 C 0.90163 0.03706 0.10032 0.0
C95 C 1.01293 0.19609 0.11742 0.0
C96 C 1.01605 0.26164 0.11725 0.0
C97 C 0.99505 0.28528 0.14 0.0
C98 C 0.97076 0.24178 0.16289 0.0
C99 C 0.96712 0.17604 0.16295 0.0
H100 H 0.85972 0.98474 0.09276 0.0
H101 H 0.87623 0.06665 0.10823 0.0
H102 H 0.93568 0.06671 0.083 0.0
H103 H 0.0309 0.17982 0.09987 0.0
H104 H 0.03557 0.29404 0.09938 0.0
H105 H 0.25814 0.94895 0.4275 0.0
H106 H 0.14582 0.94806 0.4274 0.0
H107 H 0.17743 0.01603 0.51034 0.0
H108 H 0.28868 0.01522 0.51088 0.0
H109 H 0.04433 0.91085 0.50173 0.0
H110 H 0.11902 0.11785 0.42407 0.0
H111 H 0.12773 0.04429 0.41285 0.0
H112 H 0.18281 0.10009 0.43966 0.0
C113 C 0.2413 0.96387 0.44571 0.0
C114 C 0.28265 0.98248 0.46916 0.0
C115 C 0.17725 0.96376 0.44556 0.0
C116 C 0.15385 0.9833 0.46871 0.0
C117 C 0.1946 1.00109 0.49221 0.0
H118 H 0.82791 0.09922 0.47645 0.0
H119 H 0.93863 0.09698 0.47649 0.0
C120 C 0.25826 1.00063 0.49246 0.0
C121 C 0.08633 0.98408 0.46872 0.0
H122 H 0.99847 0.05628 0.43765 0.0
C123 C 0.03435 0.94278 0.48776 0.0
C124 C 0.07377 0.02653 0.45073 0.0
C125 C 0.12901 0.07525 0.43084 0.0
C126 C 0.96994 0.94228 0.48919 0.0
C127 C 0.95643 0.98288 0.4706 0.0
C128 C 1.00865 0.02468 0.45171 0.0
C129 C 0.88893 0.98367 0.47067 0.0
C130 C 0.91775 0.89952 0.51099 0.0
C131 C 0.82424 0.92082 0.46707 0.0
C132 C 0.76079 0.9218 0.46725 0.0
C133 C 0.76083 0.98588 0.47066 0.0
C134 C 0.82587 0.04894 0.47381 0.0
C135 C 0.88926 0.04779 0.47382 0.0
H136 H 0.94384 0.88852 0.52789 0.0
H137 H 0.89071 0.92732 0.5191 0.0
H138 H 0.87709 0.84794 0.5025 0.0
H139 H 0.82279 0.87098 0.46393 0.0
H140 H 0.71178 0.87234 0.4645 0.0
H141 H 0.85271 0.72511 0.81769 0.0
H142 H 0.96514 0.83678 0.8174 0.0
H143 H 0.85345 0.9521 0.81047 0.0
H144 H 0.74096 0.84087 0.81011 0.0
H145 H 0.9632 0.99968 0.77552 0.0
H146 H 0.05176 0.98017 0.87782 0.0
H147 H 0.03206 0.9056 0.85666 0.0
H148 H 0.96254 0.92272 0.86632 0.0
C149 C 0.85198 0.77422 0.81624 0.0
C150 C 0.7877 0.77395 0.814 0.0
C151 C 0.91634 0.83805 0.81623 0.0
C152 C 0.91764 0.90283 0.81435 0.0
C153 C 0.85366 0.90272 0.81204 0.0
H154 H 0.27076 0.32029 0.84865 0.0
H155 H 0.15952 0.20768 0.84861 0.0
C156 C 0.78936 0.83901 0.81186 0.0
C157 C 0.98562 0.97081 0.81402 0.0
H158 H 0.13575 0.07302 0.85016 0.0
C159 C 1.00089 0.01582 0.79187 0.0
C160 C 0.0343 0.99215 0.83552 0.0
C161 C 0.0192 0.94801 0.86055 0.0
C162 C 0.06373 0.08139 0.79052 0.0
C163 C 0.11339 0.10172 0.81162 0.0
C164 C 0.0979 0.05698 0.83388 0.0
C165 C 0.18101 0.17 0.81135 0.0
C166 C 0.07547 0.12892 0.7668 0.0
C167 C 0.23037 0.18594 0.79053 0.0
C168 C 0.29386 0.25058 0.79037 0.0
C169 C 0.30956 0.30012 0.81122 0.0
C170 C 0.26038 0.28345 0.83225 0.0
C171 C 0.19676 0.21904 0.83229 0.0
H172 H 0.02507 0.11468 0.7565 0.0
H173 H 0.10112 0.1853 0.77313 0.0
H174 H 0.11056 0.12328 0.752 0.0
H175 H 0.22005 0.14817 0.7745 0.0
H176 H 0.33082 0.2614 0.774 0.0
H177 H 0.47001 0.73596 0.85924 0.0
H178 H 0.42391 0.78146 0.89456 0.0
H179 H 0.41371 0.62421 0.94938 0.0
H180 H 0.4592 0.57882 0.91459 0.0
H181 H 0.29133 0.69809 0.91857 0.0
H182 H 0.49886 0.8029 -0.00396 0.0
H183 H 0.51673 0.79236 0.96125 0.0
H184 H 0.48348 0.71866 -0.0159 0.0
C185 C 0.45911 0.7121 0.87901 0.0
C186 C 0.46762 0.6535 0.88414 0.0
C187 C 0.43301 0.73821 0.8991 0.0
C188 C 0.4167 0.70696 0.92464 0.0
C189 C 0.42761 0.65019 0.92998 0.0
H190 H 0.10248 0.53042 0.03264 0.0
H191 H 0.17722 0.58038 -0.0069 0.0
C192 C 0.4528 0.62371 0.90996 0.0
C193 C 0.37944 0.72586 0.94495 0.0
H194 H 0.37641 0.74519 0.01284 0.0
C195 C 0.31063 0.71089 0.93906 0.0
C196 C 0.4052 0.7442 0.97149 0.0
C197 C 0.48049 0.76622 -0.0215 0.0
C198 C 0.26405 0.70509 0.95968 0.0
C199 C 0.28698 0.71343 -0.01333 0.0
C200 C 0.35835 0.73724 -0.00784 0.0
C201 C 0.23636 0.68676 0.00934 0.0
C202 C 0.18962 0.68596 0.95249 0.0
C203 C 0.24562 0.72969 0.0318 0.0
C204 C 0.20349 0.70096 0.05465 0.0
C205 C 0.1518 0.62863 0.05548 0.0
C206 C 0.14169 0.58625 0.03269 0.0
C207 C 0.18384 0.615 0.00991 0.0
H208 H 0.18834 0.70831 0.93263 0.0
H209 H 0.1563 0.62752 0.95099 0.0
H210 H 0.16627 0.70539 0.96789 0.0
H211 H 0.28648 0.78497 0.03185 0.0
H212 H 0.21248 0.73518 0.07184 0.0
H213 H 0.72575 0.24841 0.41768 0.0
H214 H 0.7629 0.3403 0.38369 0.0
H215 H 0.54555 0.28402 0.3713 0.0
H216 H 0.50786 0.18994 0.40456 0.0
H217 H 0.60079 0.27527 0.32675 0.0
H218 H 0.78997 0.53204 0.37146 0.0
H219 H 0.81523 0.46862 0.38053 0.0
H220 H 0.73143 0.45688 0.39191 0.0
C221 C 0.6861 0.25691 0.40824 0.0
C222 C 0.61394 0.21141 0.41339 0.0
C223 C 0.70743 0.31011 0.38902 0.0
C224 C 0.65707 0.31974 0.37513 0.0
C225 C 0.58531 0.27773 0.38182 0.0
H226 H 0.77477 0.49661 0.21138 0.0
H227 H 0.70993 0.47367 0.254 0.0
C228 C 0.56387 0.22376 0.40069 0.0
C229 C 0.67817 0.36294 0.35037 0.0
H230 H 0.8138 0.5143 0.324 0.0
C231 C 0.64576 0.32863 0.3262 0.0
C232 C 0.73641 0.43271 0.34963 0.0
C233 C 0.76957 0.47476 0.37488 0.0
C234 C 0.67475 0.35903 0.30128 0.0
C235 C 0.73745 0.42555 0.30063 0.0
C236 C 0.76601 0.46289 0.32467 0.0
C237 C 0.78058 0.44993 0.27596 0.0
C238 C 0.64195 0.31696 0.27593 0.0
C239 C 0.84233 0.44561 0.27456 0.0
C240 C 0.8791 0.45817 0.25039 0.0
C241 C 0.85484 0.47549 0.22714 0.0
C242 C 0.79442 0.48269 0.22888 0.0
C243 C 0.75746 0.46991 0.25317 0.0
H244 H 0.59603 0.26372 0.28018 0.0
H245 H 0.62365 0.34599 0.2631 0.0
H246 H 0.68177 0.31032 0.26427 0.0
H247 H 0.86062 0.42983 0.29197 0.0
H248 H 0.9258 0.45291 0.24988 0.0
H249 H 0.33813 0.5064 0.7384 0.0
H250 H 0.2904 0.52633 0.69709 0.0
H251 H 0.47492 0.73422 0.69022 0.0
H252 H 0.52089 0.71586 0.73225 0.0
H253 H 0.35958 0.73388 0.67312 0.0
H254 H 0.37108 0.50642 0.62726 0.0
H255 H 0.31236 0.48517 0.65547 0.0
H256 H 0.40615 0.54041 0.66017 0.0
C257 C 0.3676 0.55691 0.72831 0.0
C258 C 0.43355 0.60937 0.73815 0.0
C259 C 0.34058 0.56796 0.70467 0.0
C260 C 0.38024 0.6307 0.69016 0.0
C261 C 0.4437 0.68511 0.70104 0.0
H262 H 0.48843 0.75405 0.53354 0.0
H263 H 0.45245 0.6874 0.57545 0.0
C264 C 0.46995 0.67473 0.72503 0.0
C265 C 0.35971 0.63826 0.66265 0.0
H266 H 0.34508 0.57465 0.59866 0.0
C267 C 0.35528 0.69861 0.65683 0.0
C268 C 0.35433 0.5919 0.64152 0.0
C269 C 0.36174 0.52764 0.64626 0.0
C270 C 0.35094 0.71697 0.63026 0.0
C271 C 0.34786 0.67179 0.60903 0.0
C272 C 0.347 0.60872 0.61502 0.0
C273 C 0.358 0.69513 0.58069 0.0
C274 C 0.35557 0.78737 0.62523 0.0
C275 C 0.31421 0.71705 0.5688 0.0
C276 C 0.33568 0.75663 0.54518 0.0
C277 C 0.39989 0.7725 0.53277 0.0
C278 C 0.43875 0.74251 0.54276 0.0
C279 C 0.41821 0.70451 0.56674 0.0
H280 H 0.37128 0.8213 0.64354 0.0
H281 H 0.3945 0.81685 0.60907 0.0
H282 H 0.30316 0.7783 0.61881 0.0
H283 H 0.26627 0.70814 0.57878 0.0
H284 H 0.30437 0.77851 0.53754 0.0
H285 H 0.71641 0.48581 0.88916 0.0
H286 H 0.73068 0.4285 0.92866 0.0
H287 H 0.51092 0.26555 0.92411 0.0
H288 H 0.49576 0.32498 0.8854 0.0
H289 H 0.53535 0.31542 0.97132 0.0
H290 H 0.75002 0.26357 0.94704 0.0
H291 H 0.78055 0.35394 0.93866 0.0
H292 H 0.7055 0.28405 0.92117 0.0
C293 C 0.67173 0.43685 0.89622 0.0
C294 C 0.60495 0.41015 0.88454 0.0
C295 C 0.67997 0.40357 0.91863 0.0
C296 C 0.62203 0.34196 0.92917 0.0
C297 C 0.55632 0.31285 0.91633 0.0
H298 H 0.79841 0.29765 0.077 0.0
H299 H 0.71709 0.24352 0.03931 0.0
C300 C 0.54774 0.34693 0.89431 0.0
C301 C 0.62793 0.3154 0.95577 0.0
H302 H 0.74831 0.30158 -0.00581 0.0
C303 C 0.58074 0.31007 -0.0238 0.0
C304 C 0.68509 0.30531 0.9622 0.0
C305 C 0.73244 0.30117 0.94093 0.0
C306 C 0.59441 0.30394 0.00323 0.0
C307 C 0.65811 0.30599 0.00993 0.0
C308 C 0.70029 0.30206 -0.01073 0.0
C309 C 0.68875 0.32526 0.03726 0.0
C310 C 0.54205 0.29867 0.02429 0.0
C311 C 0.6969 0.38711 0.04961 0.0
C312 C 0.74204 0.41715 0.07152 0.0
C313 C 0.78124 0.3869 0.08082 0.0
C314 C 0.76905 0.32222 0.06991 0.0
C315 C 0.72259 0.29124 0.04844 0.0
H316 H 0.48712 0.26512 0.01688 0.0
H317 H 0.54796 0.2761 0.04339 0.0
H318 H 0.54974 0.35215 0.02833 0.0
H319 H 0.67324 0.41572 0.041 0.0
H320 H 0.75105 0.46731 0.0795 0.0
H321 H 0.20866 0.50882 0.20019 0.0
H322 H 0.30153 0.54304 0.23388 0.0
H323 H 0.34313 0.75818 0.2314 0.0
H324 H 0.25284 0.725 0.19685 0.0
H325 H 0.4637 0.75134 0.24151 0.0
H326 H 0.24079 0.56702 0.30804 0.0
H327 H 0.25923 0.52885 0.27924 0.0
H328 H 0.22571 0.58834 0.27471 0.0
C329 C 0.23886 0.56374 0.20644 0.0
C330 C 0.22278 0.61412 0.19645 0.0
C331 C 0.29172 0.58311 0.22565 0.0
C332 C 0.32759 0.65257 0.23566 0.0
C333 C 0.31574 0.70413 0.224 0.0
H334 H 0.471 0.92219 0.35976 0.0
H335 H 0.45369 0.85982 0.3173 0.0
C336 C 0.26398 0.68514 0.20436 0.0
C337 C 0.36919 0.67017 0.26068 0.0
H338 H 0.34565 0.64818 0.32853 0.0
C339 C 0.43862 0.72767 0.26053 0.0
C340 C 0.33651 0.63863 0.28546 0.0
C341 C 0.2614 0.5776 0.28708 0.0
C342 C 0.47393 0.75837 0.28463 0.0
C343 C 0.43852 0.73095 0.3093 0.0
C344 C 0.37233 0.66902 0.30947 0.0
C345 C 0.46124 0.77286 0.33436 0.0
C346 C 0.54706 0.82237 0.28351 0.0
C347 C 0.4702 0.74403 0.35812 0.0
C348 C 0.47955 0.77943 0.38262 0.0
C349 C 0.47877 0.84348 0.38368 0.0
C350 C 0.47131 0.87273 0.3597 0.0
C351 C 0.4626 0.83772 0.3353 0.0
H352 H 0.57616 0.82071 0.26536 0.0
H353 H 0.54274 0.87081 0.28227 0.0
H354 H 0.57809 0.82634 0.3017 0.0
H355 H 0.46797 0.69332 0.35779 0.0
H356 H 0.4854 0.7557 0.40077 0.0
H357 H 0.67945 0.39213 0.75954 0.0
H358 H 0.70392 0.34308 0.71906 0.0
H359 H 0.67678 0.49032 0.67007 0.0
H360 H 0.64837 0.53617 0.71033 0.0
H361 H 0.58697 0.36093 0.65681 0.0
H362 H 0.8509 0.3852 0.66212 0.0
H363 H 0.8003 0.34724 0.69216 0.0
H364 H 0.82595 0.43681 0.68327 0.0
C365 C 0.68116 0.41531 0.74015 0.0
C366 C 0.66166 0.46716 0.73773 0.0
C367 C 0.69568 0.38778 0.71706 0.0
C368 C 0.69247 0.41326 0.69152 0.0
C369 C 0.67951 0.46989 0.68956 0.0
H370 H 0.70627 0.22938 0.53662 0.0
H371 H 0.73994 0.30723 0.5761 0.0
C372 C 0.66324 0.49597 0.71247 0.0
C373 C 0.688 0.37239 0.66704 0.0
H374 H 0.76625 0.29412 0.6324 0.0
C375 C 0.62693 0.34748 0.65129 0.0
C376 C 0.73998 0.35473 0.6598 0.0
C377 C 0.80829 0.38304 0.6751 0.0
C378 C 0.61545 0.30408 0.62893 0.0
C379 C 0.66531 0.28301 0.62262 0.0
C380 C 0.72764 0.30956 0.63769 0.0
C381 C 0.65203 0.23263 0.60051 0.0
C382 C 0.54971 0.28093 0.61233 0.0
C383 C 0.59292 0.16435 0.60166 0.0
C384 C 0.57296 0.1203 0.57914 0.0
C385 C 0.61249 0.14354 0.55522 0.0
C386 C 0.6745 0.21024 0.55472 0.0
C387 C 0.69402 0.25464 0.57725 0.0
H388 H 0.52765 0.31658 0.61535 0.0
H389 H 0.56078 0.27961 0.59056 0.0
H390 H 0.50868 0.22686 0.61848 0.0
H391 H 0.56059 0.14624 0.61967 0.0
H392 H 0.52564 0.06873 0.58029 0.0
loop_
_geom_bond_atom_site_label_1
_geom_bond_atom_site_label_2
_geom_bond_distance
_geom_bond_site_symmetry_2
_ccdc_geom_bond_type
O0 Zn1 1.953 . S
O0 C16 1.225 . S
Zn1 O0 1.953 . S
Zn1 O2 1.949 . S
Zn1 O8 1.919 . S
Zn1 O13 1.924 . S
O2 Zn1 1.949 . S
O2 Zn3 1.923 1_455 S
O2 Zn4 1.950 1_455 S
O2 Zn5 1.945 . S
Zn3 O2 1.923 1_655 S
Zn3 O6 1.933 . S
Zn3 O9 1.941 1_655 S
Zn3 O10 1.965 . S
Zn4 O2 1.950 1_655 S
Zn4 O11 1.938 . S
Zn4 O12 1.906 . S
Zn4 O22 1.953 . S
Zn5 O2 1.945 . S
Zn5 O7 1.932 . S
Zn5 O14 1.977 1_455 S
Zn5 O15 1.910 . S
O6 Zn3 1.933 . S
O6 C17 1.226 1_655 S
O7 Zn5 1.932 . S
O7 C17 1.307 . S
O8 Zn1 1.919 . S
O8 C19 1.253 . S
O9 Zn3 1.941 1_455 S
O9 C19 1.283 . S
O10 Zn3 1.965 . S
O10 C18 1.303 . S
O11 Zn4 1.938 . S
O11 C18 1.247 . S
O12 Zn4 1.906 . S
O12 C20 1.304 . S
O13 Zn1 1.924 . S
O13 C21 1.311 . S
O14 Zn5 1.977 1_655 S
O14 C20 1.272 . S
O15 Zn5 1.910 . S
O15 C21 1.231 . S
C16 O0 1.225 . S
C16 O22 1.298 1_455 S
C17 O6 1.226 1_455 S
C17 O7 1.307 . S
C18 O10 1.303 . S
C18 O11 1.247 . S
C19 O8 1.253 . S
C19 O9 1.283 . S
C20 O12 1.304 . S
C20 O14 1.272 . S
C21 O13 1.311 . S
C21 O15 1.231 . S
O22 Zn4 1.953 . S
O22 C16 1.298 1_655 S
O23 Zn24 1.953 . S
O23 C39 1.225 1_565 S
Zn24 O23 1.953 . S
Zn24 O25 1.949 1_565 S
Zn24 O31 1.919 . S
Zn24 O36 1.924 . S
O25 Zn24 1.949 1_545 S
O25 Zn26 1.923 . S
O25 Zn27 1.950 . S
O25 Zn28 1.945 1_545 S
Zn26 O25 1.923 . S
Zn26 O29 1.933 . S
Zn26 O32 1.941 1_545 S
Zn26 O33 1.965 . S
Zn27 O25 1.950 . S
Zn27 O34 1.938 . S
Zn27 O35 1.906 . S
Zn27 O45 1.953 . S
Zn28 O25 1.945 1_565 S
Zn28 O30 1.932 . S
Zn28 O37 1.977 1_565 S
Zn28 O38 1.910 . S
O29 Zn26 1.933 . S
O29 C40 1.226 . S
O30 Zn28 1.932 . S
O30 C40 1.307 1_565 S
O31 Zn24 1.919 . S
O31 C42 1.253 . S
O32 Zn26 1.941 1_565 S
O32 C42 1.283 . S
O33 Zn26 1.965 . S
O33 C41 1.303 . S
O34 Zn27 1.938 . S
O34 C41 1.247 . S
O35 Zn27 1.906 . S
O35 C43 1.304 . S
O36 Zn24 1.924 . S
O36 C44 1.311 . S
O37 Zn28 1.977 1_545 S
O37 C43 1.272 . S
O38 Zn28 1.910 . S
O38 C44 1.231 . S
C39 O23 1.225 1_545 S
C39 O45 1.298 . S
C40 O29 1.226 . S
C40 O30 1.307 1_545 S
C41 O33 1.303 . S
C41 O34 1.247 . S
C42 O31 1.253 . S
C42 O32 1.283 . S
C43 O35 1.304 . S
C43 O37 1.272 . S
C44 O36 1.311 . S
C44 O38 1.231 . S
O45 Zn27 1.953 . S
O45 C39 1.298 . S
O46 Zn47 1.953 . S
O46 C62 1.225 . S
Zn47 O46 1.953 . S
Zn47 O48 1.949 . S
Zn47 O54 1.919 . S
Zn47 O59 1.924 . S
O48 Zn47 1.949 . S
O48 Zn49 1.923 . S
O48 Zn50 1.950 . S
O48 Zn51 1.945 . S
Zn49 O48 1.923 . S
Zn49 O52 1.933 . S
Zn49 O55 1.941 . S
Zn49 O56 1.965 . S
Zn50 O48 1.950 . S
Zn50 O57 1.938 . S
Zn50 O58 1.906 . S
Zn50 O68 1.953 . S
Zn51 O48 1.945 . S
Zn51 O53 1.932 . S
Zn51 O60 1.977 . S
Zn51 O61 1.910 . S
O52 Zn49 1.933 . S
O52 C63 1.226 . S
O53 Zn51 1.932 . S
O53 C63 1.307 . S
O54 Zn47 1.919 . S
O54 C65 1.253 . S
O55 Zn49 1.941 . S
O55 C65 1.283 . S
O56 Zn49 1.965 . S
O56 C64 1.303 . S
O57 Zn50 1.938 . S
O57 C64 1.247 . S
O58 Zn50 1.906 . S
O58 C66 1.304 . S
O59 Zn47 1.924 . S
O59 C67 1.311 . S
O60 Zn51 1.977 . S
O60 C66 1.272 . S
O61 Zn51 1.910 . S
O61 C67 1.231 . S
C62 O46 1.225 . S
C62 O68 1.298 . S
C63 O52 1.226 . S
C63 O53 1.307 . S
C64 O56 1.303 . S
C64 O57 1.247 . S
C65 O54 1.253 . S
C65 O55 1.283 . S
C66 O58 1.304 . S
C66 O60 1.272 . S
C67 O59 1.311 . S
C67 O61 1.231 . S
O68 Zn50 1.953 . S
O68 C62 1.298 . S
H69 C77 0.929 . S
H70 C79 0.930 . S
H71 C81 0.930 . S
H72 C84 0.929 . S
H73 C87 0.930 . S
H74 C89 0.960 . S
H75 C89 0.960 1_565 S
H76 C89 0.960 1_565 S
C77 H69 0.929 . S
C77 C78 1.377 1_655 S
C77 C79 1.384 . S
C78 C77 1.377 1_455 S
C78 C84 1.390 . S
C79 H70 0.930 . S
C79 C77 1.384 . S
C79 C80 1.372 1_655 S
C80 C79 1.372 1_455 S
C80 C81 1.400 . S
C80 C85 1.490 . S
C81 H71 0.930 . S
C81 C80 1.400 . S
C81 C84 1.386 . S
H82 C98 0.930 . S
H83 C99 0.931 . S
C84 H72 0.929 . S
C84 C78 1.390 . S
C84 C81 1.386 . S
C85 C80 1.490 . S
C85 C87 1.395 1_455 S
C85 C88 1.403 1_565 S
H86 C92 0.930 . S
C87 H73 0.930 . S
C87 C85 1.395 1_655 S
C87 C90 1.403 . S
C88 C85 1.403 1_545 S
C88 C89 1.524 . S
C88 C92 1.400 . S
C89 H74 0.960 . S
C89 H75 0.960 1_545 S
C89 H76 0.960 1_545 S
C89 C88 1.524 . S
C90 C87 1.403 . S
C90 C91 1.392 1_565 S
C90 C94 1.495 . S
C91 C90 1.392 1_545 S
C91 C92 1.385 1_655 S
C91 C93 1.478 . S
C92 H86 0.930 . S
C92 C88 1.400 . S
C92 C91 1.385 1_455 S
C93 C91 1.478 . S
C93 C95 1.381 . S
C93 C99 1.383 1_655 S
C94 C90 1.495 . S
C94 H100 0.959 . S
C94 H101 0.961 1_565 S
C94 H102 0.960 1_565 S
C95 C93 1.381 . S
C95 C96 1.394 . S
C95 H103 0.930 . S
C96 C95 1.394 . S
C96 C97 1.383 1_655 S
C96 H104 0.929 . S
C97 C96 1.383 1_455 S
C97 C98 1.377 . S
C98 H82 0.930 . S
C98 C97 1.377 . S
C98 C99 1.379 . S
C99 H83 0.931 . S
C99 C93 1.383 1_455 S
C99 C98 1.379 . S
H100 C94 0.959 . S
H101 C94 0.961 1_545 S
H102 C94 0.960 1_545 S
H103 C95 0.930 . S
H104 C96 0.929 . S
H105 C113 0.929 . S
H106 C115 0.930 . S
H107 C117 0.930 . S
H108 C120 0.929 . S
H109 C123 0.920 1_455 S
H110 C125 0.960 . S
H111 C125 0.960 . S
H112 C125 0.960 . S
C113 H105 0.929 . S
C113 C114 1.378 1_565 S
C113 C115 1.384 . S
C114 C113 1.378 1_545 S
C114 C120 1.389 . S
C115 H106 0.930 . S
C115 C113 1.384 . S
C115 C116 1.372 . S
C116 C115 1.372 . S
C116 C117 1.400 1_565 S
C116 C121 1.490 . S
C117 H107 0.930 . S
C117 C116 1.400 1_545 S
C117 C120 1.386 . S
H118 C134 0.930 . S
H119 C135 0.931 . S
C120 H108 0.929 . S
C120 C114 1.389 . S
C120 C117 1.386 . S
C121 C116 1.490 . S
C121 C123 1.386 1_455 S
C121 C124 1.403 1_565 S
H122 C128 0.930 . S
C123 H109 0.920 1_655 S
C123 C121 1.386 1_655 S
C123 C126 1.422 . S
C124 C121 1.403 1_545 S
C124 C125 1.524 . S
C124 C128 1.400 1_455 S
C125 H110 0.960 . S
C125 H111 0.960 . S
C125 H112 0.960 . S
C125 C124 1.524 . S
C126 C123 1.422 . S
C126 C127 1.392 . S
C126 C130 1.495 . S
C127 C126 1.392 . S
C127 C128 1.385 1_565 S
C127 C129 1.478 . S
C128 H122 0.930 . S
C128 C124 1.400 1_655 S
C128 C127 1.385 1_545 S
C129 C127 1.478 . S
C129 C131 1.381 . S
C129 C135 1.383 1_565 S
C130 C126 1.495 . S
C130 H136 0.959 . S
C130 H137 0.961 . S
C130 H138 0.960 . S
C131 C129 1.381 . S
C131 C132 1.394 . S
C131 H139 0.930 . S
C132 C131 1.394 . S
C132 C133 1.383 . S
C132 H140 0.929 . S
C133 C132 1.383 . S
C133 C134 1.377 1_565 S
C134 H118 0.930 . S
C134 C133 1.377 1_545 S
C134 C135 1.379 . S
C135 H119 0.931 . S
C135 C129 1.383 1_545 S
C135 C134 1.379 . S
H136 C130 0.959 . S
H137 C130 0.961 . S
H138 C130 0.960 . S
H139 C131 0.930 . S
H140 C132 0.929 . S
H141 C149 0.929 . S
H142 C151 0.930 . S
H143 C153 0.930 . S
H144 C156 0.929 . S
H145 C159 0.929 1_565 S
H146 C161 0.960 . S
H147 C161 0.960 1_655 S
H148 C161 0.960 1_655 S
C149 H141 0.929 . S
C149 C150 1.377 . S
C149 C151 1.384 . S
C150 C149 1.377 . S
C150 C156 1.390 . S
C151 H142 0.930 . S
C151 C149 1.384 . S
C151 C152 1.372 . S
C152 C151 1.372 . S
C152 C153 1.400 . S
C152 C157 1.490 . S
C153 H143 0.930 . S
C153 C152 1.400 . S
C153 C156 1.386 . S
H154 C170 0.930 . S
H155 C171 0.931 . S
C156 H144 0.929 . S
C156 C150 1.390 . S
C156 C153 1.386 . S
C157 C152 1.490 . S
C157 C159 1.396 1_565 S
C157 C160 1.403 1_655 S
H158 C164 0.930 . S
C159 H145 0.929 1_545 S
C159 C157 1.396 1_545 S
C159 C162 1.406 . S
C160 C157 1.403 1_455 S
C160 C161 1.524 . S
C160 C164 1.400 1_565 S
C161 H146 0.960 . S
C161 H147 0.960 1_455 S
C161 H148 0.960 1_455 S
C161 C160 1.524 . S
C162 C159 1.406 . S
C162 C163 1.384 1_655 S
C162 C166 1.500 . S
C163 C162 1.384 1_455 S
C163 C164 1.385 . S
C163 C165 1.478 . S
C164 H158 0.930 . S
C164 C160 1.400 1_545 S
C164 C163 1.385 . S
C165 C163 1.478 . S
C165 C167 1.381 . S
C165 C171 1.383 . S
C166 C162 1.500 . S
C166 H172 0.959 . S
C166 H173 0.961 1_655 S
C166 H174 0.960 1_655 S
C167 C165 1.381 . S
C167 C168 1.394 . S
C167 H175 0.930 . S
C168 C167 1.394 . S
C168 C169 1.383 . S
C168 H176 0.929 . S
C169 C168 1.383 . S
C169 C170 1.377 . S
C170 H154 0.930 . S
C170 C169 1.377 . S
C170 C171 1.379 . S
C171 H155 0.931 . S
C171 C165 1.383 . S
C171 C170 1.379 . S
H172 C166 0.959 . S
H173 C166 0.961 1_455 S
H174 C166 0.960 1_455 S
H175 C167 0.930 . S
H176 C168 0.929 . S
H177 C185 0.929 . S
H178 C187 0.930 . S
H179 C189 0.930 . S
H180 C192 0.929 . S
H181 C195 0.930 . S
H182 C197 0.960 1_554 S
H183 C197 0.960 . S
H184 C197 0.960 . S
C185 H177 0.929 . S
C185 C186 1.377 . S
C185 C187 1.384 . S
C186 C185 1.377 . S
C186 C192 1.390 . S
C187 H178 0.930 . S
C187 C185 1.384 . S
C187 C188 1.372 . S
C188 C187 1.372 . S
C188 C189 1.400 . S
C188 C193 1.490 . S
C189 H179 0.930 . S
C189 C188 1.400 . S
C189 C192 1.386 . S
H190 C206 0.930 . S
H191 C207 0.931 . S
C192 H180 0.929 . S
C192 C186 1.390 . S
C192 C189 1.386 . S
C193 C188 1.490 . S
C193 C195 1.395 . S
C193 C196 1.403 . S
H194 C200 0.930 . S
C195 H181 0.930 . S
C195 C193 1.395 . S
C195 C198 1.403 1_556 S
C196 C193 1.403 . S
C196 C197 1.524 . S
C196 C200 1.400 1_556 S
C197 H182 0.960 1_556 S
C197 H183 0.960 . S
C197 H184 0.960 . S
C197 C196 1.524 . S
C198 C195 1.403 1_554 S
C198 C199 1.392 . S
C198 C202 1.495 . S
C199 C198 1.392 . S
C199 C200 1.385 . S
C199 C201 1.478 . S
C200 H194 0.930 . S
C200 C196 1.400 1_554 S
C200 C199 1.385 . S
C201 C199 1.478 . S
C201 C203 1.381 . S
C201 C207 1.383 . S
C202 C198 1.495 . S
C202 H208 0.959 1_554 S
C202 H209 0.961 . S
C202 H210 0.960 . S
C203 C201 1.381 . S
C203 C204 1.394 . S
C203 H211 0.930 . S
C204 C203 1.394 . S
C204 C205 1.383 . S
C204 H212 0.929 . S
C205 C204 1.383 . S
C205 C206 1.377 . S
C206 H190 0.930 . S
C206 C205 1.377 . S
C206 C207 1.379 . S
C207 H191 0.931 . S
C207 C201 1.383 . S
C207 C206 1.379 . S
H208 C202 0.959 1_556 S
H209 C202 0.961 . S
H210 C202 0.960 . S
H211 C203 0.930 . S
H212 C204 0.929 . S
H213 C221 0.929 . S
H214 C223 0.930 . S
H215 C225 0.930 . S
H216 C228 0.929 . S
H217 C231 0.930 . S
H218 C233 0.960 . S
H219 C233 0.960 . S
H220 C233 0.960 . S
C221 H213 0.929 . S
C221 C222 1.377 . S
C221 C223 1.384 . S
C222 C221 1.377 . S
C222 C228 1.390 . S
C223 H214 0.930 . S
C223 C221 1.384 . S
C223 C224 1.372 . S
C224 C223 1.372 . S
C224 C225 1.400 . S
C224 C229 1.490 . S
C225 H215 0.930 . S
C225 C224 1.400 . S
C225 C228 1.386 . S
H226 C242 0.930 . S
H227 C243 0.931 . S
C228 H216 0.929 . S
C228 C222 1.390 . S
C228 C225 1.386 . S
C229 C224 1.490 . S
C229 C231 1.395 . S
C229 C232 1.403 . S
H230 C236 0.930 . S
C231 H217 0.930 . S
C231 C229 1.395 . S
C231 C234 1.403 . S
C232 C229 1.403 . S
C232 C233 1.524 . S
C232 C236 1.400 . S
C233 H218 0.960 . S
C233 H219 0.960 . S
C233 H220 0.960 . S
C233 C232 1.524 . S
C234 C231 1.403 . S
C234 C235 1.392 . S
C234 C238 1.495 . S
C235 C234 1.392 . S
C235 C236 1.385 . S
C235 C237 1.478 . S
C236 H230 0.930 . S
C236 C232 1.400 . S
C236 C235 1.385 . S
C237 C235 1.478 . S
C237 C239 1.381 . S
C237 C243 1.383 . S
C238 C234 1.495 . S
C238 H244 0.959 . S
C238 H245 0.961 . S
C238 H246 0.960 . S
C239 C237 1.381 . S
C239 C240 1.394 . S
C239 H247 0.930 . S
C240 C239 1.394 . S
C240 C241 1.383 . S
C240 H248 0.929 . S
C241 C240 1.383 . S
C241 C242 1.377 . S
C242 H226 0.930 . S
C242 C241 1.377 . S
C242 C243 1.379 . S
C243 H227 0.931 . S
C243 C237 1.383 . S
C243 C242 1.379 . S
H244 C238 0.959 . S
H245 C238 0.961 . S
H246 C238 0.960 . S
H247 C239 0.930 . S
H248 C240 0.929 . S
H249 C257 0.929 . S
H250 C259 0.930 . S
H251 C261 0.930 . S
H252 C264 0.929 . S
H253 C267 0.930 . S
H254 C269 0.960 . S
H255 C269 0.960 . S
H256 C269 0.960 . S
C257 H249 0.929 . S
C257 C258 1.377 . S
C257 C259 1.384 . S
C258 C257 1.377 . S
C258 C264 1.390 . S
C259 H250 0.930 . S
C259 C257 1.384 . S
C259 C260 1.372 . S
C260 C259 1.372 . S
C260 C261 1.400 . S
C260 C265 1.490 . S
C261 H251 0.930 . S
C261 C260 1.400 . S
C261 C264 1.386 . S
H262 C278 0.930 . S
H263 C279 0.931 . S
C264 H252 0.929 . S
C264 C258 1.390 . S
C264 C261 1.386 . S
C265 C260 1.490 . S
C265 C267 1.395 . S
C265 C268 1.403 . S
H266 C272 0.930 . S
C267 H253 0.930 . S
C267 C265 1.395 . S
C267 C270 1.403 . S
C268 C265 1.403 . S
C268 C269 1.524 . S
C268 C272 1.400 . S
C269 H254 0.960 . S
C269 H255 0.960 . S
C269 H256 0.960 . S
C269 C268 1.524 . S
C270 C267 1.403 . S
C270 C271 1.392 . S
C270 C274 1.495 . S
C271 C270 1.392 . S
C271 C272 1.385 . S
C271 C273 1.478 . S
C272 H266 0.930 . S
C272 C268 1.400 . S
C272 C271 1.385 . S
C273 C271 1.478 . S
C273 C275 1.381 . S
C273 C279 1.383 . S
C274 C270 1.495 . S
C274 H280 0.959 . S
C274 H281 0.961 . S
C274 H282 0.960 . S
C275 C273 1.381 . S
C275 C276 1.394 . S
C275 H283 0.930 . S
C276 C275 1.394 . S
C276 C277 1.383 . S
C276 H284 0.929 . S
C277 C276 1.383 . S
C277 C278 1.377 . S
C278 H262 0.930 . S
C278 C277 1.377 . S
C278 C279 1.379 . S
C279 H263 0.931 . S
C279 C273 1.383 . S
C279 C278 1.379 . S
H280 C274 0.959 . S
H281 C274 0.961 . S
H282 C274 0.960 . S
H283 C275 0.930 . S
H284 C276 0.929 . S
H285 C293 0.929 . S
H286 C295 0.930 . S
H287 C297 0.930 . S
H288 C300 0.929 . S
H289 C303 0.930 . S
H290 C305 0.960 . S
H291 C305 0.960 . S
H292 C305 0.960 . S
C293 H285 0.929 . S
C293 C294 1.377 . S
C293 C295 1.384 . S
C294 C293 1.377 . S
C294 C300 1.390 . S
C295 H286 0.930 . S
C295 C293 1.384 . S
C295 C296 1.372 . S
C296 C295 1.372 . S
C296 C297 1.400 . S
C296 C301 1.490 . S
C297 H287 0.930 . S
C297 C296 1.400 . S
C297 C300 1.386 . S
H298 C314 0.930 . S
H299 C315 0.931 . S
C300 H288 0.929 . S
C300 C294 1.390 . S
C300 C297 1.386 . S
C301 C296 1.490 . S
C301 C303 1.395 . S
C301 C304 1.403 . S
H302 C308 0.930 . S
C303 H289 0.930 . S
C303 C301 1.395 . S
C303 C306 1.403 1_556 S
C304 C301 1.403 . S
C304 C305 1.524 . S
C304 C308 1.400 1_556 S
C305 H290 0.960 . S
C305 H291 0.960 . S
C305 H292 0.960 . S
C305 C304 1.524 . S
C306 C303 1.403 1_554 S
C306 C307 1.392 . S
C306 C310 1.495 . S
C307 C306 1.392 . S
C307 C308 1.385 . S
C307 C309 1.478 . S
C308 H302 0.930 . S
C308 C304 1.400 1_554 S
C308 C307 1.385 . S
C309 C307 1.478 . S
C309 C311 1.381 . S
C309 C315 1.383 . S
C310 C306 1.495 . S
C310 H316 0.959 . S
C310 H317 0.961 . S
C310 H318 0.960 . S
C311 C309 1.381 . S
C311 C312 1.394 . S
C311 H319 0.930 . S
C312 C311 1.394 . S
C312 C313 1.383 . S
C312 H320 0.929 . S
C313 C312 1.383 . S
C313 C314 1.377 . S
C314 H298 0.930 . S
C314 C313 1.377 . S
C314 C315 1.379 . S
C315 H299 0.931 . S
C315 C309 1.383 . S
C315 C314 1.379 . S
H316 C310 0.959 . S
H317 C310 0.961 . S
H318 C310 0.960 . S
H319 C311 0.930 . S
H320 C312 0.929 . S
H321 C329 0.929 . S
H322 C331 0.930 . S
H323 C333 0.930 . S
H324 C336 0.929 . S
H325 C339 0.930 . S
H326 C341 0.960 . S
H327 C341 0.960 . S
H328 C341 0.960 . S
C329 H321 0.929 . S
C329 C330 1.377 . S
C329 C331 1.384 . S
C330 C329 1.377 . S
C330 C336 1.390 . S
C331 H322 0.930 . S
C331 C329 1.384 . S
C331 C332 1.372 . S
C332 C331 1.372 . S
C332 C333 1.400 . S
C332 C337 1.490 . S
C333 H323 0.930 . S
C333 C332 1.400 . S
C333 C336 1.386 . S
H334 C350 0.930 . S
H335 C351 0.931 . S
C336 H324 0.929 . S
C336 C330 1.390 . S
C336 C333 1.386 . S
C337 C332 1.490 . S
C337 C339 1.395 . S
C337 C340 1.403 . S
H338 C344 0.930 . S
C339 H325 0.930 . S
C339 C337 1.395 . S
C339 C342 1.403 . S
C340 C337 1.403 . S
C340 C341 1.524 . S
C340 C344 1.400 . S
C341 H326 0.960 . S
C341 H327 0.960 . S
C341 H328 0.960 . S
C341 C340 1.524 . S
C342 C339 1.403 . S
C342 C343 1.392 . S
C342 C346 1.495 . S
C343 C342 1.392 . S
C343 C344 1.385 . S
C343 C345 1.478 . S
C344 H338 0.930 . S
C344 C340 1.400 . S
C344 C343 1.385 . S
C345 C343 1.478 . S
C345 C347 1.381 . S
C345 C351 1.383 . S
C346 C342 1.495 . S
C346 H352 0.959 . S
C346 H353 0.961 . S
C346 H354 0.960 . S
C347 C345 1.381 . S
C347 C348 1.394 . S
C347 H355 0.930 . S
C348 C347 1.394 . S
C348 C349 1.383 . S
C348 H356 0.929 . S
C349 C348 1.383 . S
C349 C350 1.377 . S
C350 H334 0.930 . S
C350 C349 1.377 . S
C350 C351 1.379 . S
C351 H335 0.931 . S
C351 C345 1.383 . S
C351 C350 1.379 . S
H352 C346 0.959 . S
H353 C346 0.961 . S
H354 C346 0.960 . S
H355 C347 0.930 . S
H356 C348 0.929 . S
H357 C365 0.929 . S
H358 C367 0.930 . S
H359 C369 0.930 . S
H360 C372 0.929 . S
H361 C375 0.930 . S
H362 C377 0.960 . S
H363 C377 0.960 . S
H364 C377 0.960 . S
C365 H357 0.929 . S
C365 C366 1.377 . S
C365 C367 1.384 . S
C366 C365 1.377 . S
C366 C372 1.390 . S
C367 H358 0.930 . S
C367 C365 1.384 . S
C367 C368 1.372 . S
C368 C367 1.372 . S
C368 C369 1.400 . S
C368 C373 1.490 . S
C369 H359 0.930 . S
C369 C368 1.400 . S
C369 C372 1.386 . S
H370 C386 0.930 . S
H371 C387 0.931 . S
C372 H360 0.929 . S
C372 C366 1.390 . S
C372 C369 1.386 . S
C373 C368 1.490 . S
C373 C375 1.395 . S
C373 C376 1.403 . S
H374 C380 0.930 . S
C375 H361 0.930 . S
C375 C373 1.395 . S
C375 C378 1.403 . S
C376 C373 1.403 . S
C376 C377 1.524 . S
C376 C380 1.400 . S
C377 H362 0.960 . S
C377 H363 0.960 . S
C377 H364 0.960 . S
C377 C376 1.524 . S
C378 C375 1.403 . S
C378 C379 1.392 . S
C378 C382 1.495 . S
C379 C378 1.392 . S
C379 C380 1.385 . S
C379 C381 1.478 . S
C380 H374 0.930 . S
C380 C376 1.400 . S
C380 C379 1.385 . S
C381 C379 1.478 . S
C381 C383 1.381 . S
C381 C387 1.383 . S
C382 C378 1.495 . S
C382 H388 0.959 . S
C382 H389 0.961 . S
C382 H390 0.960 . S
C383 C381 1.381 . S
C383 C384 1.394 . S
C383 H391 0.930 . S
C384 C383 1.394 . S
C384 C385 1.383 . S
C384 H392 0.929 . S
C385 C384 1.383 . S
C385 C386 1.377 . S
C386 H370 0.930 . S
C386 C385 1.377 . S
C386 C387 1.379 . S
C387 H371 0.931 . S
C387 C381 1.383 . S
C387 C386 1.379 . S
H388 C382 0.959 . S
H389 C382 0.961 . S
H390 C382 0.960 . S
H391 C383 0.930 . S
H392 C384 0.929 . S
C78 C16 1.946 . S
C97 C17 1.938 . S
C114 C40 1.945 . S
C133 C39 1.941 1_565 S
C150 C62 1.946 . S
C169 C63 1.938 . S
C186 C66 0.657 . S
C205 C19 0.620 . S
C222 C41 0.698 . S
C241 C20 0.753 . S
C258 C64 0.672 . S
C277 C44 0.651 . S
C294 C67 0.674 . S
C313 C18 0.668 . S
C330 C21 0.626 . S
C349 C42 0.589 . S
C366 C65 0.671 . S
C385 C43 0.656 . S
