# Generated by pormake.
# Topology uot, (4)-cn, num edge types: 1
# Building blocks:
#     Node 0, Type 0, BuildingBlock: ICAMEG_clean_sbu_1, # of connection points: 4
#     Node 1, Type 0, BuildingBlock: ICAMEG_clean_sbu_1, # of connection points: 4
#     Node 2, Type 0, BuildingBlock: ICAMEG_clean_sbu_1, # of connection points: 4
#     Node 3, Type 0, BuildingBlock: ICAMEG_clean_sbu_1, # of connection points: 4
#     Node 4, Type 0, BuildingBlock: ICAMEG_clean_sbu_1, # of connection points: 4
#     Node 5, Type 0, BuildingBlock: ICAMEG_clean_sbu_1, # of connection points: 4
#     Node 6, Type 0, BuildingBlock: ICAMEG_clean_sbu_1, # of connection points: 4
#     Node 7, Type 0, BuildingBlock: ICAMEG_clean_sbu_1, # of connection points: 4
#     Node 8, Type 0, BuildingBlock: ICAMEG_clean_sbu_1, # of connection points: 4
#     Node 9, Type 0, BuildingBlock: ICAMEG_clean_sbu_1, # of connection points: 4
#     Node 10, Type 0, BuildingBlock: ICAMEG_clean_sbu_1, # of connection points: 4
#     Node 11, Type 0, BuildingBlock: ICAMEG_clean_sbu_1, # of connection points: 4
#     Node 12, Type 0, BuildingBlock: ICAMEG_clean_sbu_1, # of connection points: 4
#     Node 13, Type 0, BuildingBlock: ICAMEG_clean_sbu_1, # of connection points: 4
#     Node 14, Type 0, BuildingBlock: ICAMEG_clean_sbu_1, # of connection points: 4
#     Node 15, Type 0, BuildingBlock: ICAMEG_clean_sbu_1, # of connection points: 4
#     Edge 16, Type (0, 0), BuildingBlock: KIFKEQ_clean_linker_1, # of connection points: 2
#     Edge 17, Type (0, 0), BuildingBlock: KIFKEQ_clean_linker_1, # of connection points: 2
#     Edge 18, Type (0, 0), BuildingBlock: KIFKEQ_clean_linker_1, # of connection points: 2
#     Edge 19, Type (0, 0), BuildingBlock: KIFKEQ_clean_linker_1, # of connection points: 2
#     Edge 20, Type (0, 0), BuildingBlock: KIFKEQ_clean_linker_1, # of connection points: 2
#     Edge 21, Type (0, 0), BuildingBlock: KIFKEQ_clean_linker_1, # of connection points: 2
#     Edge 22, Type (0, 0), BuildingBlock: KIFKEQ_clean_linker_1, # of connection points: 2
#     Edge 23, Type (0, 0), BuildingBlock: KIFKEQ_clean_linker_1, # of connection points: 2
#     Edge 24, Type (0, 0), BuildingBlock: KIFKEQ_clean_linker_1, # of connection points: 2
#     Edge 25, Type (0, 0), BuildingBlock: KIFKEQ_clean_linker_1, # of connection points: 2
#     Edge 26, Type (0, 0), BuildingBlock: KIFKEQ_clean_linker_1, # of connection points: 2
#     Edge 27, Type (0, 0), BuildingBlock: KIFKEQ_clean_linker_1, # of connection points: 2
#     Edge 28, Type (0, 0), BuildingBlock: KIFKEQ_clean_linker_1, # of connection points: 2
#     Edge 29, Type (0, 0), BuildingBlock: KIFKEQ_clean_linker_1, # of connection points: 2
#     Edge 30, Type (0, 0), BuildingBlock: KIFKEQ_clean_linker_1, # of connection points: 2
#     Edge 31, Type (0, 0), BuildingBlock: KIFKEQ_clean_linker_1, # of connection points: 2
#     Edge 32, Type (0, 0), BuildingBlock: KIFKEQ_clean_linker_1, # of connection points: 2
#     Edge 33, Type (0, 0), BuildingBlock: KIFKEQ_clean_linker_1, # of connection points: 2
#     Edge 34, Type (0, 0), BuildingBlock: KIFKEQ_clean_linker_1, # of connection points: 2
#     Edge 35, Type (0, 0), BuildingBlock: KIFKEQ_clean_linker_1, # of connection points: 2
#     Edge 36, Type (0, 0), BuildingBlock: KIFKEQ_clean_linker_1, # of connection points: 2
#     Edge 37, Type (0, 0), BuildingBlock: KIFKEQ_clean_linker_1, # of connection points: 2
#     Edge 38, Type (0, 0), BuildingBlock: KIFKEQ_clean_linker_1, # of connection points: 2
#     Edge 39, Type (0, 0), BuildingBlock: KIFKEQ_clean_linker_1, # of connection points: 2
#     Edge 40, Type (0, 0), BuildingBlock: KIFKEQ_clean_linker_1, # of connection points: 2
#     Edge 41, Type (0, 0), BuildingBlock: KIFKEQ_clean_linker_1, # of connection points: 2
#     Edge 42, Type (0, 0), BuildingBlock: KIFKEQ_clean_linker_1, # of connection points: 2
#     Edge 43, Type (0, 0), BuildingBlock: KIFKEQ_clean_linker_1, # of connection points: 2
#     Edge 44, Type (0, 0), BuildingBlock: KIFKEQ_clean_linker_1, # of connection points: 2
#     Edge 45, Type (0, 0), BuildingBlock: KIFKEQ_clean_linker_1, # of connection points: 2
#     Edge 46, Type (0, 0), BuildingBlock: KIFKEQ_clean_linker_1, # of connection points: 2
#     Edge 47, Type (0, 0), BuildingBlock: KIFKEQ_clean_linker_1, # of connection points: 2
# Relax obj value: 0.031
# Max RMSD: 0.052
# Mean RMSD: 0.052
data_MOF--net-uot--node1-ICAMEG_clean_sbu_1--edge1-KIFKEQ_clean_linker_1
_symmetry_space_group_name_H-M    P1
_symmetry_Int_Tables_number       1
_symmetry_cell_setting            triclinic
loop_
_symmetry_equiv_pos_as_xyz
'x, y, z'
_cell_length_a     47.460835
_cell_length_b     47.479304
_cell_length_c     46.972161
_cell_angle_alpha  89.969837
_cell_angle_beta   90.045413
_cell_angle_gamma 90.077076
loop_
_atom_site_label
_atom_site_type_symbol
_atom_site_fract_x
_atom_site_fract_y
_atom_site_fract_z
_atom_type_partial_charge
Co0 Co 0.15447 0.43713 0.36323 0.0
Co1 Co 0.20532 0.43442 0.31089 0.0
O2 O 0.19263 0.42935 0.3501 0.0
C3 C 0.18785 0.47241 0.4035 0.0
O4 O 0.19944 0.48518 0.38164 0.0
C5 C 0.22026 0.37463 0.32295 0.0
O6 O 0.19411 0.37021 0.33092 0.0
O7 O 0.17221 0.41298 0.29557 0.0
O8 O 0.13812 0.42132 0.32757 0.0
H9 H 0.19423 0.45826 0.20726 0.0
H10 H 0.19399 0.40468 0.39943 0.0
O11 O 0.16992 0.4528 0.39965 0.0
H12 H 0.11281 0.34162 0.38377 0.0
H13 H 0.07734 0.44173 0.43665 0.0
H14 H 0.10267 0.45998 0.33652 0.0
H15 H 0.11332 0.38948 0.3634 0.0
H16 H 0.1252 0.43137 0.41915 0.0
O17 O 0.22782 0.3988 0.31392 0.0
H18 H 0.17837 0.4524 0.25691 0.0
H19 H 0.26036 0.42604 0.28145 0.0
H20 H 0.05451 0.47044 0.35307 0.0
H21 H 0.19426 0.35705 0.42044 0.0
H22 H 0.04158 0.46132 0.40348 0.0
H23 H 0.15349 0.32513 0.41257 0.0
O24 O 0.1551 0.47531 0.34534 0.0
H25 H 0.28655 0.45193 0.37731 0.0
H26 H 0.2329 0.48886 0.29554 0.0
H27 H 0.2727 0.51638 0.31472 0.0
H28 H 0.29988 0.49789 0.35587 0.0
H29 H 0.2464 0.42526 0.35761 0.0
H30 H 0.27705 0.4314 0.23202 0.0
H31 H 0.2439 0.44771 0.19455 0.0
O32 O 0.18363 0.47037 0.30743 0.0
C33 C 0.14656 0.41172 0.30372 0.0
C34 C 0.2089 0.45122 0.22341 0.0
C35 C 0.25537 0.4361 0.2373 0.0
N36 N 0.21846 0.43908 0.27208 0.0
C37 C 0.20006 0.44794 0.25158 0.0
C38 C 0.24578 0.43303 0.26524 0.0
C39 C 0.23676 0.44527 0.21629 0.0
C40 C 0.17608 0.39098 0.39609 0.0
N41 N 0.15364 0.39987 0.38023 0.0
C42 C 0.17639 0.36401 0.40796 0.0
C43 C 0.15353 0.34609 0.40351 0.0
C44 C 0.13071 0.35532 0.38734 0.0
C45 C 0.13115 0.38242 0.37576 0.0
C46 C 0.08271 0.44577 0.41463 0.0
C47 C 0.09717 0.45581 0.35844 0.0
C48 C 0.1098 0.44001 0.40461 0.0
N49 N 0.11668 0.44492 0.37679 0.0
C50 C 0.06988 0.46184 0.36771 0.0
C51 C 0.06265 0.45674 0.396 0.0
C52 C 0.16619 0.48453 0.32236 0.0
C53 C 0.27488 0.46021 0.35936 0.0
C54 C 0.24447 0.48079 0.31357 0.0
C55 C 0.26708 0.4964 0.32427 0.0
C56 C 0.28233 0.486 0.34734 0.0
N57 N 0.23729 0.45551 0.32545 0.0
C58 C 0.25216 0.44517 0.34807 0.0
Co59 Co 0.43698 0.85481 0.64466 0.0
Co60 Co 0.43593 0.80246 0.69601 0.0
O61 O 0.43017 0.81598 0.65694 0.0
C62 C 0.47003 0.82126 0.60216 0.0
O63 O 0.47841 0.80405 0.62234 0.0
C64 C 0.37634 0.78715 0.68334 0.0
O65 O 0.37301 0.81229 0.6722 0.0
O66 O 0.41474 0.83506 0.71256 0.0
O67 O 0.42052 0.86959 0.68051 0.0
H68 H 0.46217 0.81177 0.79923 0.0
H69 H 0.40615 0.81532 0.60707 0.0
O70 O 0.45354 0.8416 0.60787 0.0
H71 H 0.34022 0.89362 0.62441 0.0
H72 H 0.43888 0.93467 0.57399 0.0
H73 H 0.45859 0.90626 0.67301 0.0
H74 H 0.38795 0.89428 0.64514 0.0
H75 H 0.42981 0.88598 0.58986 0.0
O76 O 0.40005 0.78006 0.69387 0.0
H77 H 0.45513 0.82849 0.75001 0.0
H78 H 0.42846 0.74683 0.72466 0.0
H79 H 0.46773 0.95524 0.65811 0.0
H80 H 0.35871 0.8139 0.58563 0.0
H81 H 0.45789 0.96971 0.60827 0.0
H82 H 0.32534 0.85321 0.59436 0.0
O83 O 0.4752 0.85479 0.66251 0.0
H84 H 0.45126 0.72206 0.62827 0.0
H85 H 0.49092 0.77498 0.70922 0.0
H86 H 0.51781 0.73548 0.68874 0.0
H87 H 0.49794 0.70867 0.64799 0.0
H88 H 0.42526 0.76192 0.64922 0.0
H89 H 0.43498 0.72928 0.77366 0.0
H90 H 0.45205 0.76183 0.81132 0.0
O91 O 0.47198 0.82418 0.69897 0.0
C92 C 0.41204 0.86061 0.70456 0.0
C93 C 0.4548 0.79736 0.78299 0.0
C94 C 0.43949 0.75108 0.76865 0.0
N95 N 0.44156 0.78862 0.73446 0.0
C96 C 0.45085 0.80669 0.75507 0.0
C97 C 0.43577 0.76115 0.74096 0.0
C98 C 0.44908 0.76935 0.78976 0.0
C99 C 0.39183 0.83261 0.61077 0.0
N100 N 0.39981 0.85486 0.62739 0.0
C101 C 0.36496 0.83165 0.59865 0.0
C102 C 0.34623 0.85368 0.6036 0.0
C103 C 0.35455 0.87634 0.62048 0.0
C104 C 0.38157 0.87656 0.63229 0.0
C105 C 0.44326 0.92862 0.59577 0.0
C106 C 0.45414 0.91242 0.65131 0.0
C107 C 0.43826 0.90105 0.60485 0.0
N108 N 0.44364 0.89328 0.63235 0.0
C109 C 0.45941 0.94017 0.64299 0.0
C110 C 0.4539 0.94828 0.61501 0.0
C111 C 0.48529 0.84278 0.68463 0.0
C112 C 0.46013 0.73356 0.64604 0.0
C113 C 0.48226 0.76357 0.69136 0.0
C114 C 0.49751 0.74114 0.67992 0.0
C115 C 0.48634 0.72608 0.65708 0.0
N116 N 0.45658 0.77079 0.6804 0.0
C117 C 0.44546 0.75609 0.65805 0.0
Co118 Co 0.85771 0.56737 0.36271 0.0
Co119 Co 0.80389 0.57702 0.31415 0.0
O120 O 0.81956 0.5795 0.35267 0.0
C121 C 0.82241 0.53634 0.40502 0.0
O122 O 0.80418 0.53017 0.38492 0.0
C123 C 0.78516 0.63526 0.30273 0.0
O124 O 0.79999 0.63358 0.27919 0.0
O125 O 0.83768 0.59639 0.29778 0.0
O126 O 0.87292 0.58328 0.32669 0.0
H127 H 0.80704 0.55774 0.20902 0.0
H128 H 0.82432 0.60166 0.40304 0.0
O129 O 0.84399 0.55128 0.39947 0.0
H130 H 0.91022 0.65719 0.38435 0.0
H131 H 0.93972 0.55266 0.42923 0.0
H132 H 0.90446 0.54023 0.33125 0.0
H133 H 0.90333 0.61084 0.36175 0.0
H134 H 0.89198 0.5685 0.41608 0.0
O135 O 0.78498 0.61461 0.32018 0.0
H136 H 0.82642 0.561 0.25764 0.0
H137 H 0.74697 0.58786 0.289 0.0
H138 H 0.95243 0.52432 0.34342 0.0
H139 H 0.83045 0.64781 0.42637 0.0
H140 H 0.97034 0.53048 0.39273 0.0
H141 H 0.87364 0.67593 0.41702 0.0
O142 O 0.8519 0.53015 0.34385 0.0
H143 H 0.72485 0.56435 0.38416 0.0
H144 H 0.77245 0.52422 0.30022 0.0
H145 H 0.73192 0.49923 0.32121 0.0
H146 H 0.70777 0.51934 0.36344 0.0
H147 H 0.76569 0.5885 0.3627 0.0
H148 H 0.72672 0.58491 0.2407 0.0
H149 H 0.75685 0.56976 0.20031 0.0
O150 O 0.82237 0.53977 0.30776 0.0
C151 C 0.86378 0.59514 0.30419 0.0
C152 C 0.79369 0.56435 0.22645 0.0
C153 C 0.74861 0.57959 0.24423 0.0
N154 N 0.78785 0.57455 0.27614 0.0
C155 C 0.80455 0.56622 0.25403 0.0
C156 C 0.76019 0.5812 0.27153 0.0
C157 C 0.76553 0.5711 0.22157 0.0
C158 C 0.84322 0.61373 0.39898 0.0
N159 N 0.86345 0.60356 0.38105 0.0
C160 C 0.84655 0.63987 0.4122 0.0
C161 C 0.87078 0.65564 0.40692 0.0
C162 C 0.89129 0.64515 0.38857 0.0
C163 C 0.88723 0.61894 0.37572 0.0
C164 C 0.93216 0.54987 0.40767 0.0
C165 C 0.91215 0.54312 0.35272 0.0
C166 C 0.90511 0.55872 0.40011 0.0
N167 N 0.89548 0.55539 0.37289 0.0
C168 C 0.93931 0.53401 0.35949 0.0
C169 C 0.94934 0.53745 0.38717 0.0
C170 C 0.83899 0.52323 0.32104 0.0
C171 C 0.73514 0.55543 0.3657 0.0
C172 C 0.76217 0.53305 0.31868 0.0
C173 C 0.73916 0.51884 0.33042 0.0
C174 C 0.7256 0.53015 0.3541 0.0
N175 N 0.77136 0.55789 0.33013 0.0
C176 C 0.75819 0.56908 0.35337 0.0
Co177 Co 0.56837 0.15542 0.6525 0.0
Co178 Co 0.57555 0.20812 0.70158 0.0
O179 O 0.57938 0.19387 0.66268 0.0
C180 C 0.54073 0.18977 0.60721 0.0
O181 O 0.53143 0.20697 0.62695 0.0
C182 C 0.63452 0.22381 0.68663 0.0
O183 O 0.63819 0.19825 0.67664 0.0
O184 O 0.59832 0.17612 0.71645 0.0
O185 O 0.58062 0.14059 0.69052 0.0
H186 H 0.55708 0.1997 0.80655 0.0
H187 H 0.60624 0.18732 0.61408 0.0
O188 O 0.55589 0.16869 0.61401 0.0
H189 H 0.65985 0.10278 0.64198 0.0
H190 H 0.55943 0.07241 0.58636 0.0
H191 H 0.53792 0.10928 0.68201 0.0
H192 H 0.61156 0.11027 0.65974 0.0
H193 H 0.57429 0.1203 0.60016 0.0
O194 O 0.61075 0.23104 0.69687 0.0
H195 H 0.56104 0.18241 0.75721 0.0
H196 H 0.58341 0.26437 0.72878 0.0
H197 H 0.52287 0.06121 0.66918 0.0
H198 H 0.65438 0.18051 0.59556 0.0
H199 H 0.53361 0.04247 0.62104 0.0
H200 H 0.68155 0.13802 0.60959 0.0
O201 O 0.52987 0.16183 0.66781 0.0
H202 H 0.55448 0.28767 0.63434 0.0
H203 H 0.52061 0.23425 0.71764 0.0
H204 H 0.49176 0.27305 0.69851 0.0
H205 H 0.5087 0.30011 0.65659 0.0
H206 H 0.58254 0.2485 0.65401 0.0
H207 H 0.57993 0.2825 0.77785 0.0
H208 H 0.56658 0.25008 0.81712 0.0
O209 O 0.53997 0.18588 0.70758 0.0
C210 C 0.59456 0.14995 0.71174 0.0
C211 C 0.56284 0.21405 0.78961 0.0
C212 C 0.5757 0.26051 0.7735 0.0
N213 N 0.57227 0.22239 0.74011 0.0
C214 C 0.56505 0.2044 0.76162 0.0
C215 C 0.5777 0.25011 0.74577 0.0
C216 C 0.5682 0.24231 0.79553 0.0
C217 C 0.61784 0.16865 0.62005 0.0
N218 N 0.60606 0.14917 0.63787 0.0
C219 C 0.64513 0.16496 0.6096 0.0
C220 C 0.66037 0.14114 0.61751 0.0
C221 C 0.64822 0.12137 0.6357 0.0
C222 C 0.6209 0.12577 0.64576 0.0
C223 C 0.55467 0.08032 0.60742 0.0
C224 C 0.54283 0.10123 0.66108 0.0
C225 C 0.56297 0.10744 0.61533 0.0
N226 N 0.55714 0.11752 0.64194 0.0
C227 C 0.53419 0.07401 0.65391 0.0
C228 C 0.54019 0.06353 0.62689 0.0
C229 C 0.5231 0.17139 0.69222 0.0
C230 C 0.54691 0.27608 0.65265 0.0
C231 C 0.52807 0.24583 0.69932 0.0
C232 C 0.51168 0.26784 0.68863 0.0
C233 C 0.5212 0.28302 0.66512 0.0
N234 N 0.55328 0.23918 0.68699 0.0
C235 C 0.56275 0.25396 0.66394 0.0
Co236 Co 0.15482 0.57102 0.64848 0.0
Co237 Co 0.20656 0.57929 0.69834 0.0
O238 O 0.19309 0.5818 0.65919 0.0
C239 C 0.18865 0.5393 0.60597 0.0
O240 O 0.20247 0.52762 0.62713 0.0
C241 C 0.2232 0.63813 0.68328 0.0
O242 O 0.19684 0.64339 0.67665 0.0
O243 O 0.17453 0.60299 0.71173 0.0
O244 O 0.13927 0.5849 0.68559 0.0
H245 H 0.19654 0.56508 0.80386 0.0
H246 H 0.18863 0.60725 0.61005 0.0
O247 O 0.16925 0.55715 0.61091 0.0
H248 H 0.10383 0.6627 0.63291 0.0
H249 H 0.07377 0.56065 0.58004 0.0
H250 H 0.10725 0.54263 0.67776 0.0
H251 H 0.11001 0.61489 0.65247 0.0
H252 H 0.12154 0.57514 0.59475 0.0
O253 O 0.23034 0.61376 0.69208 0.0
H254 H 0.1799 0.56745 0.75416 0.0
H255 H 0.26254 0.58763 0.72604 0.0
H256 H 0.05926 0.52799 0.66402 0.0
H257 H 0.18319 0.6549 0.58983 0.0
H258 H 0.04223 0.53699 0.61483 0.0
H259 H 0.14056 0.68298 0.60129 0.0
O260 O 0.1601 0.53301 0.66566 0.0
H261 H 0.28632 0.55364 0.63307 0.0
H262 H 0.23158 0.52478 0.71741 0.0
H263 H 0.27003 0.49438 0.70016 0.0
H264 H 0.29774 0.5088 0.65773 0.0
H265 H 0.24752 0.58331 0.6509 0.0
H266 H 0.28003 0.58571 0.77547 0.0
H267 H 0.24695 0.57425 0.81477 0.0
O268 O 0.1836 0.54439 0.70549 0.0
C269 C 0.14838 0.59937 0.70657 0.0
C270 C 0.21118 0.57001 0.78691 0.0
C271 C 0.25803 0.58162 0.77098 0.0
N272 N 0.22027 0.57744 0.73721 0.0
C273 C 0.2019 0.57131 0.75872 0.0
C274 C 0.24799 0.58274 0.74304 0.0
C275 C 0.23946 0.57518 0.79302 0.0
C276 C 0.16992 0.61926 0.61494 0.0
N277 N 0.1496 0.60824 0.63228 0.0
C278 C 0.167 0.64626 0.60351 0.0
C279 C 0.14309 0.66202 0.60998 0.0
C280 C 0.12248 0.65066 0.62773 0.0
C281 C 0.12613 0.6236 0.63879 0.0
C282 C 0.08092 0.55668 0.60155 0.0
C283 C 0.09992 0.5468 0.65638 0.0
C284 C 0.10796 0.56479 0.60999 0.0
N285 N 0.11707 0.55997 0.63718 0.0
C286 C 0.07276 0.53838 0.6487 0.0
C287 C 0.06323 0.54341 0.62109 0.0
C288 C 0.16918 0.5271 0.69054 0.0
C289 C 0.27445 0.54718 0.65163 0.0
C290 C 0.24349 0.53117 0.69888 0.0
C291 C 0.26528 0.51389 0.68925 0.0
C292 C 0.28082 0.522 0.66545 0.0
N293 N 0.23741 0.55588 0.68525 0.0
C294 C 0.25252 0.56394 0.66188 0.0
Co295 Co 0.57637 0.8522 0.35678 0.0
Co296 Co 0.57286 0.79767 0.30779 0.0
O297 O 0.58112 0.81271 0.34582 0.0
C298 C 0.54282 0.821 0.40047 0.0
O299 O 0.53323 0.8042 0.38048 0.0
C300 C 0.63251 0.78187 0.31857 0.0
O301 O 0.63629 0.80684 0.32992 0.0
O302 O 0.59359 0.82915 0.28867 0.0
O303 O 0.5929 0.86494 0.32005 0.0
H304 H 0.54055 0.80312 0.20605 0.0
H305 H 0.60621 0.81316 0.3957 0.0
O306 O 0.55998 0.84072 0.39431 0.0
H307 H 0.67526 0.88745 0.37271 0.0
H308 H 0.5793 0.9342 0.42474 0.0
H309 H 0.55658 0.90358 0.32707 0.0
H310 H 0.62716 0.88918 0.35292 0.0
H311 H 0.58592 0.8847 0.41035 0.0
O312 O 0.60849 0.7749 0.30867 0.0
H313 H 0.55088 0.82177 0.25394 0.0
H314 H 0.57777 0.74083 0.2812 0.0
H315 H 0.54984 0.95334 0.34049 0.0
H316 H 0.65402 0.81076 0.41621 0.0
H317 H 0.56121 0.96892 0.38965 0.0
H318 H 0.68895 0.84805 0.40465 0.0
O319 O 0.53775 0.85336 0.33981 0.0
H320 H 0.56009 0.72036 0.37974 0.0
H321 H 0.51657 0.77091 0.29926 0.0
H322 H 0.49018 0.73284 0.32307 0.0
H323 H 0.51198 0.70724 0.36361 0.0
H324 H 0.5856 0.75877 0.35547 0.0
H325 H 0.56797 0.72136 0.23352 0.0
H326 H 0.54912 0.75258 0.19559 0.0
O327 O 0.5372 0.81986 0.30597 0.0
C328 C 0.59898 0.85448 0.29589 0.0
C329 C 0.54868 0.78929 0.22242 0.0
C330 C 0.56411 0.74341 0.23783 0.0
N331 N 0.56474 0.78237 0.27039 0.0
C332 C 0.5545 0.79971 0.2496 0.0
C333 C 0.56969 0.75457 0.26476 0.0
C334 C 0.55352 0.76094 0.21656 0.0
C335 C 0.62121 0.82961 0.39082 0.0
N336 N 0.61387 0.85132 0.37322 0.0
C337 C 0.64828 0.82808 0.40239 0.0
C338 C 0.66789 0.84898 0.39585 0.0
C339 C 0.66023 0.87108 0.37792 0.0
C340 C 0.63298 0.8719 0.36671 0.0
C341 C 0.57428 0.92767 0.40325 0.0
C342 C 0.56171 0.91024 0.34846 0.0
C343 C 0.57791 0.89965 0.395 0.0
N344 N 0.57172 0.89128 0.36787 0.0
C345 C 0.55779 0.93843 0.35595 0.0
C346 C 0.56415 0.94715 0.38355 0.0
C347 C 0.52574 0.84018 0.31942 0.0
C348 C 0.55038 0.73133 0.36207 0.0
C349 C 0.52612 0.75998 0.31697 0.0
C350 C 0.51112 0.73837 0.33032 0.0
C351 C 0.52338 0.724 0.35304 0.0
N352 N 0.5526 0.76704 0.32595 0.0
C353 C 0.56477 0.75302 0.34818 0.0
Co354 Co 0.85587 0.4357 0.65135 0.0
Co355 Co 0.80214 0.43298 0.70004 0.0
O356 O 0.81723 0.42637 0.662 0.0
C357 C 0.82209 0.46282 0.60577 0.0
O358 O 0.80593 0.47356 0.62565 0.0
C359 C 0.78735 0.37279 0.68969 0.0
O360 O 0.81396 0.36771 0.68406 0.0
O361 O 0.83408 0.41179 0.71772 0.0
O362 O 0.87023 0.42483 0.6898 0.0
H363 H 0.80728 0.46006 0.8033 0.0
H364 H 0.82238 0.39717 0.61498 0.0
O365 O 0.84267 0.44696 0.61251 0.0
H366 H 0.90524 0.3421 0.64512 0.0
H367 H 0.93859 0.43897 0.58436 0.0
H368 H 0.90345 0.46534 0.67942 0.0
H369 H 0.89955 0.39144 0.66045 0.0
H370 H 0.89025 0.42658 0.59905 0.0
O371 O 0.77951 0.39745 0.69684 0.0
H372 H 0.82604 0.45241 0.75496 0.0
H373 H 0.74533 0.42598 0.72629 0.0
H374 H 0.952 0.47794 0.66572 0.0
H375 H 0.82735 0.34795 0.59896 0.0
H376 H 0.96986 0.46476 0.61786 0.0
H377 H 0.86899 0.32006 0.6141 0.0
O378 O 0.851 0.47502 0.66499 0.0
H379 H 0.72457 0.44844 0.62885 0.0
H380 H 0.77468 0.48836 0.71151 0.0
H381 H 0.73625 0.51538 0.68915 0.0
H382 H 0.71085 0.49539 0.64753 0.0
H383 H 0.76336 0.42229 0.65168 0.0
H384 H 0.72575 0.43311 0.77438 0.0
H385 H 0.75679 0.45038 0.81325 0.0
O386 O 0.82397 0.46908 0.70378 0.0
C387 C 0.86039 0.41395 0.71254 0.0
C388 C 0.79352 0.45261 0.78652 0.0
C389 C 0.74777 0.43744 0.77029 0.0
N390 N 0.78676 0.43895 0.73779 0.0
C391 C 0.80401 0.44831 0.75909 0.0
C392 C 0.759 0.43338 0.74313 0.0
C393 C 0.7652 0.44714 0.79209 0.0
C394 C 0.84068 0.38523 0.62145 0.0
N395 N 0.86073 0.39721 0.63848 0.0
C396 C 0.84333 0.35735 0.6124 0.0
C397 C 0.86668 0.3417 0.62094 0.0
C398 C 0.88702 0.35405 0.63836 0.0
C399 C 0.88365 0.38197 0.64702 0.0
C400 C 0.93107 0.4448 0.60529 0.0
C401 C 0.91112 0.45936 0.65864 0.0
C402 C 0.90369 0.4379 0.6137 0.0
N403 N 0.89409 0.44508 0.64014 0.0
C404 C 0.93861 0.46663 0.65097 0.0
C405 C 0.94861 0.45925 0.6241 0.0
C406 C 0.8401 0.48404 0.68807 0.0
C407 C 0.73544 0.45735 0.647 0.0
C408 C 0.76388 0.47961 0.6933 0.0
C409 C 0.74205 0.49495 0.68079 0.0
C410 C 0.72778 0.48371 0.65746 0.0
N411 N 0.77128 0.45378 0.68292 0.0
C412 C 0.75736 0.4426 0.66008 0.0
Co413 Co 0.4377 0.15683 0.36207 0.0
Co414 Co 0.43059 0.2088 0.3114 0.0
O415 O 0.42761 0.19529 0.35079 0.0
C416 C 0.4693 0.19133 0.40502 0.0
O417 O 0.47738 0.20882 0.38495 0.0
C418 C 0.3717 0.22447 0.32705 0.0
O419 O 0.3684 0.19947 0.33854 0.0
O420 O 0.40818 0.17615 0.29691 0.0
O421 O 0.42217 0.14132 0.32586 0.0
H422 H 0.44856 0.19881 0.20649 0.0
H423 H 0.40403 0.19247 0.40091 0.0
O424 O 0.45333 0.17058 0.39911 0.0
H425 H 0.3447 0.10928 0.38172 0.0
H426 H 0.44653 0.07569 0.43067 0.0
H427 H 0.46385 0.1083 0.33253 0.0
H428 H 0.39206 0.11334 0.36063 0.0
H429 H 0.43324 0.12375 0.41601 0.0
O430 O 0.39517 0.23132 0.31585 0.0
H431 H 0.44506 0.18234 0.25616 0.0
H432 H 0.4219 0.26446 0.28317 0.0
H433 H 0.47724 0.05999 0.34621 0.0
H434 H 0.35689 0.18915 0.42275 0.0
H435 H 0.46861 0.0434 0.39561 0.0
H436 H 0.32683 0.14737 0.4131 0.0
O437 O 0.47564 0.16064 0.34406 0.0
H438 H 0.45115 0.28972 0.37711 0.0
H439 H 0.48504 0.23556 0.29443 0.0
H440 H 0.51354 0.27508 0.31268 0.0
H441 H 0.49659 0.30251 0.35428 0.0
H442 H 0.42344 0.24983 0.35833 0.0
H443 H 0.42492 0.28178 0.23375 0.0
H444 H 0.43843 0.24887 0.19501 0.0
O445 O 0.46614 0.1871 0.30566 0.0
C446 C 0.40966 0.15013 0.30356 0.0
C447 C 0.44271 0.21337 0.22318 0.0
C448 C 0.42941 0.25993 0.23848 0.0
N449 N 0.43343 0.22244 0.27256 0.0
C450 C 0.44076 0.20418 0.25136 0.0
C451 C 0.42766 0.24998 0.26641 0.0
C452 C 0.437 0.24145 0.21676 0.0
C453 C 0.39116 0.17412 0.3968 0.0
N454 N 0.40079 0.15313 0.37947 0.0
C455 C 0.36445 0.1724 0.40915 0.0
C456 C 0.34758 0.14897 0.40369 0.0
C457 C 0.35757 0.12762 0.38605 0.0
C458 C 0.38437 0.13008 0.37404 0.0
C459 C 0.45039 0.08267 0.40908 0.0
C460 C 0.45991 0.10121 0.35404 0.0
C461 C 0.443 0.1099 0.40068 0.0
N462 N 0.44769 0.11882 0.37342 0.0
C463 C 0.46759 0.07384 0.36167 0.0
C464 C 0.46276 0.06456 0.38939 0.0
C465 C 0.4825 0.17124 0.32006 0.0
C466 C 0.45873 0.27797 0.35893 0.0
C467 C 0.47758 0.2473 0.31262 0.0
C468 C 0.49377 0.26972 0.32281 0.0
C469 C 0.48424 0.28511 0.34614 0.0
N470 N 0.45256 0.24045 0.32526 0.0
C471 C 0.44308 0.25544 0.34814 0.0
Co472 Co 0.65452 0.93715 0.85788 0.0
Co473 Co 0.70789 0.93461 0.80841 0.0
O474 O 0.69329 0.92811 0.84688 0.0
C475 C 0.6882 0.96521 0.90337 0.0
O476 O 0.70482 0.97552 0.8836 0.0
C477 C 0.72419 0.87516 0.82089 0.0
O478 O 0.69947 0.87119 0.83274 0.0
O479 O 0.67585 0.91308 0.79136 0.0
O480 O 0.63989 0.92553 0.81969 0.0
H481 H 0.70048 0.96139 0.70519 0.0
H482 H 0.68826 0.89992 0.89533 0.0
O483 O 0.66772 0.9492 0.89655 0.0
H484 H 0.60633 0.84292 0.86597 0.0
H485 H 0.57216 0.94004 0.92536 0.0
H486 H 0.60645 0.96586 0.82978 0.0
H487 H 0.61153 0.89194 0.84942 0.0
H488 H 0.62051 0.92808 0.91051 0.0
O489 O 0.73065 0.89908 0.81048 0.0
H490 H 0.68277 0.95366 0.75393 0.0
H491 H 0.76431 0.9284 0.78105 0.0
H492 H 0.55788 0.978 0.84364 0.0
H493 H 0.6837 0.85108 0.91267 0.0
H494 H 0.54044 0.9651 0.89177 0.0
H495 H 0.64254 0.8222 0.8979 0.0
O496 O 0.65879 0.97639 0.84368 0.0
H497 H 0.78647 0.95029 0.87835 0.0
H498 H 0.73514 0.99011 0.79645 0.0
H499 H 0.77387 0.01724 0.81823 0.0
H500 H 0.79988 0.9973 0.85947 0.0
H501 H 0.74737 0.92401 0.85607 0.0
H502 H 0.78284 0.93561 0.73255 0.0
H503 H 0.75085 0.95232 0.69424 0.0
O504 O 0.68596 0.97057 0.80501 0.0
C505 C 0.64959 0.9147 0.79689 0.0
C506 C 0.71464 0.95417 0.72171 0.0
C507 C 0.76086 0.93967 0.73706 0.0
N508 N 0.72251 0.94076 0.77035 0.0
C509 C 0.70475 0.94983 0.74937 0.0
C510 C 0.75023 0.93555 0.76447 0.0
C511 C 0.7429 0.94906 0.71558 0.0
C512 C 0.67015 0.88758 0.88905 0.0
N513 N 0.65016 0.8988 0.87146 0.0
C514 C 0.66774 0.85989 0.89883 0.0
C515 C 0.64467 0.84369 0.8905 0.0
C516 C 0.62436 0.85529 0.87255 0.0
C517 C 0.62747 0.88303 0.86317 0.0
C518 C 0.5795 0.94575 0.90432 0.0
C519 C 0.59897 0.96001 0.85068 0.0
C520 C 0.60689 0.9391 0.89582 0.0
N521 N 0.61627 0.94615 0.86924 0.0
C522 C 0.57146 0.96701 0.85845 0.0
C523 C 0.5617 0.95979 0.88546 0.0
C524 C 0.66963 0.9854 0.82055 0.0
C525 C 0.77533 0.95918 0.86037 0.0
C526 C 0.74621 0.98138 0.81449 0.0
C527 C 0.76821 0.99679 0.82667 0.0
C528 C 0.78282 0.98558 0.84979 0.0
N529 N 0.73899 0.95551 0.82498 0.0
C530 C 0.75324 0.94436 0.84761 0.0
Co531 Co 0.93745 0.35584 0.14648 0.0
Co532 Co 0.93049 0.30231 0.19536 0.0
O533 O 0.92762 0.31707 0.15654 0.0
C534 C 0.96955 0.32273 0.10311 0.0
O535 O 0.97791 0.3052 0.12302 0.0
C536 C 0.87097 0.2871 0.18097 0.0
O537 O 0.86592 0.31365 0.17505 0.0
O538 O 0.90785 0.33436 0.21088 0.0
O539 O 0.92161 0.37015 0.18297 0.0
H540 H 0.94785 0.30843 0.30072 0.0
H541 H 0.90393 0.32055 0.10705 0.0
O542 O 0.95331 0.34316 0.10922 0.0
H543 H 0.8444 0.40321 0.12711 0.0
H544 H 0.94643 0.43875 0.08009 0.0
H545 H 0.96298 0.40384 0.17757 0.0
H546 H 0.89178 0.39915 0.14822 0.0
H547 H 0.93326 0.39023 0.09337 0.0
O548 O 0.89538 0.27948 0.18922 0.0
H549 H 0.94464 0.32674 0.25168 0.0
H550 H 0.92144 0.24567 0.22141 0.0
H551 H 0.97623 0.45259 0.16527 0.0
H552 H 0.85676 0.32385 0.08521 0.0
H553 H 0.968 0.47033 0.11622 0.0
H554 H 0.82661 0.36539 0.09528 0.0
O555 O 0.9753 0.35189 0.1647 0.0
H556 H 0.95236 0.22397 0.12698 0.0
H557 H 0.98489 0.27542 0.21206 0.0
H558 H 0.01386 0.23683 0.19279 0.0
H559 H 0.9976 0.21076 0.14998 0.0
H560 H 0.92418 0.26292 0.14679 0.0
H561 H 0.92419 0.22653 0.27016 0.0
H562 H 0.93758 0.25798 0.31021 0.0
O563 O 0.96588 0.32419 0.20226 0.0
C564 C 0.90913 0.36059 0.20497 0.0
C565 C 0.94207 0.2945 0.28344 0.0
C566 C 0.92875 0.24854 0.26629 0.0
N567 N 0.93304 0.28726 0.23368 0.0
C568 C 0.94028 0.30473 0.25561 0.0
C569 C 0.92716 0.25952 0.23874 0.0
C570 C 0.93627 0.2662 0.28875 0.0
C571 C 0.89099 0.33876 0.1114 0.0
N572 N 0.9006 0.35962 0.12894 0.0
C573 C 0.86428 0.34048 0.09903 0.0
C574 C 0.84736 0.36377 0.10471 0.0
C575 C 0.85731 0.38499 0.12259 0.0
C576 C 0.88412 0.38252 0.13461 0.0
C577 C 0.95012 0.43127 0.10154 0.0
C578 C 0.9592 0.41144 0.15621 0.0
C579 C 0.94279 0.40378 0.10916 0.0
N580 N 0.94727 0.39423 0.13624 0.0
C581 C 0.9668 0.43905 0.14936 0.0
C582 C 0.9622 0.44899 0.12182 0.0
C583 C 0.98217 0.34065 0.18842 0.0
C584 C 0.95964 0.23513 0.14568 0.0
C585 C 0.97774 0.26429 0.19334 0.0
C586 C 0.99419 0.24239 0.18258 0.0
C587 C 0.98504 0.22775 0.15857 0.0
N588 N 0.95283 0.27139 0.1806 0.0
C589 C 0.94373 0.25714 0.15706 0.0
Co590 Co 0.35475 0.07095 0.85752 0.0
Co591 Co 0.29874 0.07385 0.81073 0.0
O592 O 0.31522 0.07912 0.84861 0.0
C593 C 0.32339 0.03906 0.90202 0.0
O594 O 0.30583 0.03034 0.88229 0.0
C595 C 0.28347 0.13309 0.82461 0.0
O596 O 0.30928 0.13708 0.83386 0.0
O597 O 0.32955 0.09622 0.79274 0.0
O598 O 0.36728 0.08626 0.81997 0.0
H599 H 0.30092 0.05045 0.70647 0.0
H600 H 0.32049 0.10391 0.89831 0.0
O601 O 0.34362 0.05552 0.89559 0.0
H602 H 0.39874 0.16667 0.87079 0.0
H603 H 0.43982 0.06709 0.92153 0.0
H604 H 0.40278 0.0466 0.82562 0.0
H605 H 0.3955 0.11857 0.85128 0.0
H606 H 0.3904 0.07776 0.90942 0.0
O607 O 0.27594 0.10906 0.81523 0.0
H608 H 0.32115 0.05697 0.7544 0.0
H609 H 0.24089 0.08022 0.78661 0.0
H610 H 0.4524 0.03578 0.83676 0.0
H611 H 0.3231 0.15176 0.91858 0.0
H612 H 0.47122 0.04603 0.88502 0.0
H613 H 0.36239 0.18353 0.90475 0.0
O614 O 0.3517 0.03246 0.8407 0.0
H615 H 0.22357 0.05527 0.88361 0.0
H616 H 0.27195 0.01814 0.79872 0.0
H617 H 0.2346 0.9899 0.8215 0.0
H618 H 0.21009 0.00848 0.86424 0.0
H619 H 0.26126 0.08268 0.86031 0.0
H620 H 0.21984 0.07421 0.73897 0.0
H621 H 0.24991 0.0591 0.69851 0.0
O622 O 0.32076 0.03848 0.80506 0.0
C623 C 0.3559 0.09692 0.7979 0.0
C624 C 0.28759 0.05697 0.72394 0.0
C625 C 0.24209 0.07034 0.74217 0.0
N626 N 0.28219 0.0688 0.77331 0.0
C627 C 0.29891 0.06063 0.75114 0.0
C628 C 0.25414 0.07378 0.76908 0.0
C629 C 0.25897 0.06185 0.71948 0.0
C630 C 0.33782 0.11751 0.89243 0.0
N631 N 0.35788 0.1084 0.87376 0.0
C632 C 0.33911 0.14462 0.90388 0.0
C633 C 0.36114 0.16245 0.89607 0.0
C634 C 0.38153 0.15301 0.87701 0.0
C635 C 0.37955 0.12577 0.86598 0.0
C636 C 0.43188 0.06256 0.90042 0.0
C637 C 0.41086 0.05125 0.84662 0.0
C638 C 0.4039 0.06849 0.89345 0.0
N639 N 0.39376 0.06294 0.86679 0.0
C640 C 0.43895 0.04502 0.85283 0.0
C641 C 0.44949 0.05075 0.87992 0.0
C642 C 0.33894 0.02377 0.81845 0.0
C643 C 0.23405 0.04698 0.86496 0.0
C644 C 0.2615 0.0263 0.81739 0.0
C645 C 0.24029 0.01026 0.83015 0.0
C646 C 0.22653 0.02071 0.85411 0.0
N647 N 0.26874 0.05206 0.82815 0.0
C648 C 0.25533 0.06245 0.85162 0.0
Co649 Co 0.07004 0.65153 0.15086 0.0
Co650 Co 0.07871 0.70699 0.19642 0.0
O651 O 0.08203 0.69017 0.15864 0.0
C652 C 0.04211 0.68383 0.1047 0.0
O653 O 0.03358 0.7019 0.12399 0.0
C654 C 0.1388 0.72053 0.1826 0.0
O655 O 0.14383 0.69359 0.17884 0.0
O656 O 0.10062 0.67532 0.21353 0.0
O657 O 0.08225 0.63874 0.18957 0.0
H658 H 0.06013 0.7064 0.30171 0.0
H659 H 0.10839 0.68061 0.11071 0.0
O660 O 0.05736 0.66295 0.11188 0.0
H661 H 0.1603 0.59647 0.14283 0.0
H662 H 0.05872 0.5652 0.08965 0.0
H663 H 0.03892 0.60776 0.18325 0.0
H664 H 0.11221 0.60585 0.16025 0.0
H665 H 0.07466 0.61347 0.10057 0.0
O666 O 0.11425 0.72889 0.18956 0.0
H667 H 0.0636 0.68561 0.25375 0.0
H668 H 0.08844 0.7647 0.21962 0.0
H669 H 0.0228 0.55936 0.17332 0.0
H670 H 0.15637 0.67193 0.09258 0.0
H671 H 0.03268 0.53776 0.12622 0.0
H672 H 0.18267 0.62962 0.1087 0.0
O673 O 0.03182 0.65956 0.16612 0.0
H674 H 0.059 0.78235 0.12395 0.0
H675 H 0.02453 0.73545 0.21093 0.0
H676 H 0.99646 0.77356 0.18935 0.0
H677 H 0.0137 0.79734 0.14558 0.0
H678 H 0.08628 0.74392 0.14607 0.0
H679 H 0.08545 0.78629 0.26727 0.0
H680 H 0.0711 0.7571 0.30871 0.0
O681 O 0.04271 0.68606 0.20406 0.0
C682 C 0.09609 0.649 0.21042 0.0
C683 C 0.06633 0.71936 0.28381 0.0
C684 C 0.08058 0.76419 0.26448 0.0
N685 N 0.07602 0.72396 0.23387 0.0
C686 C 0.06827 0.70772 0.25659 0.0
C687 C 0.0823 0.75183 0.23757 0.0
C688 C 0.07251 0.7478 0.28772 0.0
C689 C 0.11963 0.66204 0.11763 0.0
N690 N 0.10746 0.64369 0.13637 0.0
C691 C 0.14682 0.65728 0.10738 0.0
C692 C 0.16158 0.63356 0.11646 0.0
C693 C 0.14904 0.61496 0.13562 0.0
C694 C 0.12183 0.62041 0.14545 0.0
C695 C 0.05434 0.57435 0.11027 0.0
C696 C 0.04348 0.59845 0.16278 0.0
C697 C 0.06326 0.6017 0.11656 0.0
N698 N 0.05792 0.61335 0.1426 0.0
C699 C 0.03422 0.57106 0.15724 0.0
C700 C 0.03974 0.55897 0.1308 0.0
C701 C 0.02544 0.67091 0.18984 0.0
C702 C 0.0513 0.7722 0.14307 0.0
C703 C 0.03212 0.74559 0.19181 0.0
C704 C 0.01617 0.76722 0.17973 0.0
C705 C 0.02587 0.78057 0.15519 0.0
N706 N 0.05707 0.73752 0.17981 0.0
C707 C 0.06671 0.75051 0.15575 0.0
Co708 Co 0.65281 0.06959 0.14755 0.0
Co709 Co 0.70425 0.07666 0.19866 0.0
O710 O 0.69122 0.07949 0.1591 0.0
C711 C 0.68749 0.03795 0.10498 0.0
O712 O 0.70469 0.02987 0.1253 0.0
C713 C 0.72072 0.13511 0.18231 0.0
O714 O 0.69549 0.1385 0.17136 0.0
O715 O 0.67184 0.09962 0.2125 0.0
O716 O 0.63708 0.08499 0.18375 0.0
H717 H 0.69309 0.06035 0.30376 0.0
H718 H 0.68882 0.10332 0.10901 0.0
O719 O 0.66678 0.05403 0.11057 0.0
H720 H 0.60575 0.1627 0.12786 0.0
H721 H 0.57212 0.061 0.07832 0.0
H722 H 0.60397 0.04341 0.17668 0.0
H723 H 0.60947 0.11525 0.14884 0.0
H724 H 0.62015 0.07418 0.09335 0.0
O725 O 0.72745 0.11174 0.19379 0.0
H726 H 0.67705 0.06343 0.2539 0.0
H727 H 0.75984 0.08487 0.22722 0.0
H728 H 0.55566 0.03014 0.16262 0.0
H729 H 0.68583 0.15054 0.08728 0.0
H730 H 0.53946 0.03891 0.11311 0.0
H731 H 0.64411 0.18062 0.09677 0.0
O732 O 0.6565 0.03166 0.16547 0.0
H733 H 0.78567 0.05413 0.1343 0.0
H734 H 0.72962 0.02192 0.21649 0.0
H735 H 0.76885 0.99259 0.19912 0.0
H736 H 0.79722 0.0087 0.15777 0.0
H737 H 0.74607 0.08268 0.1522 0.0
H738 H 0.77673 0.08224 0.27682 0.0
H739 H 0.74326 0.0698 0.31548 0.0
O740 O 0.68175 0.04144 0.20469 0.0
C741 C 0.64582 0.0978 0.20593 0.0
C742 C 0.70789 0.0657 0.28709 0.0
C743 C 0.75483 0.07803 0.27198 0.0
N744 N 0.71752 0.07412 0.23765 0.0
C745 C 0.69895 0.06741 0.25881 0.0
C746 C 0.74513 0.07955 0.24394 0.0
C747 C 0.73604 0.07104 0.29366 0.0
C748 C 0.67049 0.1162 0.11304 0.0
N749 N 0.64935 0.10653 0.1302 0.0
C750 C 0.66896 0.14295 0.10076 0.0
C751 C 0.64556 0.15984 0.10613 0.0
C752 C 0.62405 0.14981 0.1236 0.0
C753 C 0.62633 0.12296 0.13554 0.0
C754 C 0.57892 0.05709 0.09996 0.0
C755 C 0.59703 0.04742 0.15513 0.0
C756 C 0.60613 0.06443 0.10857 0.0
N757 N 0.61483 0.05966 0.1359 0.0
C758 C 0.56968 0.0398 0.14728 0.0
C759 C 0.56061 0.04471 0.11949 0.0
C760 C 0.66626 0.02499 0.18989 0.0
C761 C 0.77351 0.04693 0.15238 0.0
C762 C 0.74179 0.02902 0.19841 0.0
C763 C 0.76403 0.01236 0.18872 0.0
C764 C 0.77995 0.02142 0.16554 0.0
N765 N 0.73564 0.05405 0.18543 0.0
C766 C 0.75114 0.06305 0.16267 0.0
Co767 Co 0.07744 0.35662 0.85851 0.0
Co768 Co 0.07482 0.30125 0.81071 0.0
O769 O 0.08269 0.31707 0.84836 0.0
C770 C 0.04406 0.32566 0.90217 0.0
O771 O 0.03458 0.30901 0.882 0.0
C772 C 0.13476 0.28575 0.82069 0.0
O773 O 0.14002 0.31226 0.82665 0.0
O774 O 0.09613 0.33217 0.79126 0.0
O775 O 0.09375 0.36889 0.82148 0.0
H776 H 0.04461 0.30419 0.70821 0.0
H777 H 0.1081 0.31838 0.89759 0.0
O778 O 0.06125 0.34543 0.89623 0.0
H779 H 0.17583 0.39358 0.87359 0.0
H780 H 0.07914 0.43971 0.9251 0.0
H781 H 0.05701 0.40723 0.8279 0.0
H782 H 0.12757 0.39439 0.8541 0.0
H783 H 0.08643 0.39006 0.91154 0.0
O784 O 0.11002 0.2781 0.81346 0.0
H785 H 0.05412 0.32405 0.75578 0.0
H786 H 0.07991 0.2437 0.78578 0.0
H787 H 0.04961 0.45711 0.84049 0.0
H788 H 0.15609 0.31687 0.91776 0.0
H789 H 0.06068 0.47363 0.88941 0.0
H790 H 0.19034 0.35463 0.90571 0.0
O791 O 0.03881 0.35691 0.84162 0.0
H792 H 0.05985 0.22582 0.8843 0.0
H793 H 0.01852 0.27468 0.80162 0.0
H794 H 0.99131 0.23741 0.82577 0.0
H795 H 0.01201 0.21265 0.86741 0.0
H796 H 0.08618 0.26344 0.8597 0.0
H797 H 0.07091 0.22302 0.73847 0.0
H798 H 0.05303 0.25332 0.69932 0.0
O799 O 0.03935 0.32367 0.80753 0.0
C800 C 0.10067 0.35787 0.7978 0.0
C801 C 0.05232 0.29075 0.72512 0.0
C802 C 0.06712 0.2452 0.74209 0.0
N803 N 0.06737 0.28502 0.77357 0.0
C804 C 0.05767 0.30186 0.75211 0.0
C805 C 0.07225 0.25705 0.76881 0.0
C806 C 0.05708 0.26222 0.72014 0.0
C807 C 0.12282 0.33501 0.89245 0.0
N808 N 0.11501 0.35651 0.87481 0.0
C809 C 0.14999 0.33399 0.90385 0.0
C810 C 0.16921 0.35517 0.89705 0.0
C811 C 0.16108 0.37702 0.87902 0.0
C812 C 0.13375 0.37734 0.86801 0.0
C813 C 0.07427 0.43277 0.90371 0.0
C814 C 0.06203 0.4143 0.84918 0.0
C815 C 0.07828 0.40467 0.89593 0.0
N816 N 0.07227 0.3958 0.86892 0.0
C817 C 0.05773 0.44255 0.85621 0.0
C818 C 0.06392 0.4518 0.88367 0.0
C819 C 0.02734 0.34371 0.82093 0.0
C820 C 0.05062 0.23643 0.86616 0.0
C821 C 0.02758 0.26416 0.81983 0.0
C822 C 0.01212 0.24298 0.83336 0.0
C823 C 0.02376 0.22908 0.8567 0.0
N824 N 0.05389 0.27127 0.82924 0.0
C825 C 0.06547 0.25768 0.85208 0.0
Co826 Co 0.35645 0.94138 0.15077 0.0
Co827 Co 0.30248 0.93221 0.19813 0.0
O828 O 0.31806 0.92899 0.1597 0.0
C829 C 0.32284 0.96845 0.10465 0.0
O830 O 0.3048 0.97716 0.1239 0.0
C831 C 0.28842 0.87275 0.18258 0.0
O832 O 0.31425 0.86936 0.1732 0.0
O833 O 0.33486 0.9105 0.21404 0.0
O834 O 0.37048 0.92942 0.18915 0.0
H835 H 0.30712 0.951 0.30329 0.0
H836 H 0.32692 0.90273 0.11123 0.0
O837 O 0.344 0.95366 0.11197 0.0
H838 H 0.41223 0.85166 0.14157 0.0
H839 H 0.44119 0.95311 0.08735 0.0
H840 H 0.40066 0.97324 0.18179 0.0
H841 H 0.40273 0.89961 0.15924 0.0
H842 H 0.39337 0.93673 0.09958 0.0
O843 O 0.2807 0.89638 0.19271 0.0
H844 H 0.32604 0.94745 0.25454 0.0
H845 H 0.24563 0.92268 0.22358 0.0
H846 H 0.44864 0.98981 0.17054 0.0
H847 H 0.33575 0.85491 0.0928 0.0
H848 H 0.46921 0.97977 0.12301 0.0
H849 H 0.37863 0.82902 0.10804 0.0
O850 O 0.34841 0.97963 0.16607 0.0
H851 H 0.22455 0.95085 0.12821 0.0
H852 H 0.27392 0.98615 0.21346 0.0
H853 H 0.23483 0.01374 0.19305 0.0
H854 H 0.20981 0.99608 0.15015 0.0
H855 H 0.26396 0.92406 0.14917 0.0
H856 H 0.2259 0.92571 0.27204 0.0
H857 H 0.25671 0.94007 0.31229 0.0
O858 O 0.32329 0.96841 0.20483 0.0
C859 C 0.36104 0.91523 0.21016 0.0
C860 C 0.29347 0.94478 0.28592 0.0
C861 C 0.2479 0.93055 0.26839 0.0
N862 N 0.28694 0.935 0.23621 0.0
C863 C 0.30405 0.94278 0.25826 0.0
C864 C 0.25921 0.92879 0.24101 0.0
C865 C 0.26519 0.93862 0.29096 0.0
C866 C 0.34575 0.89169 0.11774 0.0
N867 N 0.36433 0.90399 0.13618 0.0
C868 C 0.35059 0.86458 0.10733 0.0
C869 C 0.37463 0.85005 0.11593 0.0
C870 C 0.39348 0.86273 0.13476 0.0
C871 C 0.38794 0.88986 0.14475 0.0
C872 C 0.43248 0.95758 0.10815 0.0
C873 C 0.40952 0.96862 0.16113 0.0
C874 C 0.40538 0.94841 0.11518 0.0
N875 N 0.3943 0.95385 0.14145 0.0
C876 C 0.43668 0.97813 0.15485 0.0
C877 C 0.44819 0.97252 0.12817 0.0
C878 C 0.33767 0.9859 0.19012 0.0
C879 C 0.23524 0.95873 0.14695 0.0
C880 C 0.26324 0.97838 0.19471 0.0
C881 C 0.24106 0.99406 0.1833 0.0
C882 C 0.22701 0.98413 0.15924 0.0
N883 N 0.27116 0.95347 0.18256 0.0
C884 C 0.2575 0.9436 0.15897 0.0
Co885 Co 0.93841 0.64919 0.85847 0.0
Co886 Co 0.93171 0.70587 0.81311 0.0
O887 O 0.92699 0.6879 0.85025 0.0
C888 C 0.96721 0.68193 0.90379 0.0
O889 O 0.97539 0.69985 0.88416 0.0
C890 C 0.87419 0.72623 0.80064 0.0
O891 O 0.87665 0.71293 0.77626 0.0
O892 O 0.91226 0.67364 0.79401 0.0
O893 O 0.92547 0.6363 0.82022 0.0
H894 H 0.9558 0.70886 0.70901 0.0
H895 H 0.90128 0.67936 0.89891 0.0
O896 O 0.95187 0.66091 0.8971 0.0
H897 H 0.84734 0.59564 0.86883 0.0
H898 H 0.94894 0.56362 0.92096 0.0
H899 H 0.96758 0.60416 0.82616 0.0
H900 H 0.89515 0.60426 0.85019 0.0
H901 H 0.93397 0.61206 0.90953 0.0
O902 O 0.89425 0.72522 0.81877 0.0
H903 H 0.94991 0.68655 0.75607 0.0
H904 H 0.92294 0.76437 0.79122 0.0
H905 H 0.98269 0.55557 0.83658 0.0
H906 H 0.8536 0.67142 0.91828 0.0
H907 H 0.9734 0.53499 0.8843 0.0
H908 H 0.8263 0.62931 0.90321 0.0
O909 O 0.97662 0.65611 0.84267 0.0
H910 H 0.94313 0.77985 0.88873 0.0
H911 H 0.98566 0.73694 0.80344 0.0
H912 H 0.01065 0.77536 0.82815 0.0
H913 H 0.98935 0.79714 0.8711 0.0
H914 H 0.919 0.74113 0.86356 0.0
H915 H 0.92848 0.78752 0.74452 0.0
H916 H 0.94503 0.75971 0.70301 0.0
O917 O 0.96902 0.68681 0.80707 0.0
C918 C 0.91421 0.64718 0.79819 0.0
C919 C 0.9486 0.72121 0.72694 0.0
C920 C 0.93327 0.76536 0.74686 0.0
N921 N 0.93617 0.72415 0.77637 0.0
C922 C 0.94525 0.7087 0.75364 0.0
C923 C 0.93018 0.75215 0.77325 0.0
C924 C 0.94255 0.74974 0.72359 0.0
C925 C 0.88958 0.6609 0.8924 0.0
N926 N 0.90103 0.64223 0.87359 0.0
C927 C 0.86257 0.65656 0.90337 0.0
C928 C 0.84725 0.63294 0.89488 0.0
C929 C 0.85904 0.61405 0.87558 0.0
C930 C 0.88609 0.61908 0.86505 0.0
C931 C 0.95308 0.57234 0.90008 0.0
C932 C 0.96329 0.5953 0.8469 0.0
C933 C 0.94472 0.59978 0.89351 0.0
N934 N 0.94977 0.61089 0.86715 0.0
C935 C 0.97197 0.5678 0.85271 0.0
C936 C 0.96679 0.55628 0.8795 0.0
C937 C 0.9847 0.66947 0.82056 0.0
C938 C 0.95258 0.77059 0.86999 0.0
C939 C 0.97631 0.74619 0.82218 0.0
C940 C 0.99052 0.76801 0.83604 0.0
C941 C 0.97854 0.78025 0.86011 0.0
N942 N 0.95082 0.73686 0.83197 0.0
C943 C 0.93896 0.74875 0.85557 0.0
H944 H 0.27724 0.37989 0.31902 0.0
H945 H 0.21171 0.31788 0.33142 0.0
H946 H 0.31262 0.34321 0.32126 0.0
H947 H 0.24732 0.28065 0.33255 0.0
H948 H 0.3228 0.22424 0.35856 0.0
H949 H 0.28558 0.25993 0.35867 0.0
H950 H 0.33025 0.30627 0.29353 0.0
H951 H 0.36753 0.2715 0.29426 0.0
C952 C 0.27033 0.35833 0.32197 0.0
C953 C 0.24157 0.35183 0.32477 0.0
C954 C 0.29069 0.33717 0.3231 0.0
C955 C 0.28294 0.30877 0.32667 0.0
C956 C 0.25415 0.30227 0.32997 0.0
C957 C 0.23369 0.32359 0.32914 0.0
C958 C 0.32456 0.24208 0.34429 0.0
C959 C 0.34828 0.24514 0.32662 0.0
C960 C 0.30317 0.26249 0.34424 0.0
C961 C 0.30495 0.28627 0.32634 0.0
C962 C 0.32839 0.28876 0.30819 0.0
C963 C 0.34979 0.26863 0.30847 0.0
H964 H 0.32696 0.78892 0.65279 0.0
H965 H 0.37263 0.73839 0.71375 0.0
H966 H 0.28964 0.75338 0.65135 0.0
H967 H 0.33515 0.70359 0.71318 0.0
H968 H 0.28022 0.63177 0.68534 0.0
H969 H 0.31623 0.66808 0.68421 0.0
H970 H 0.25177 0.73191 0.67688 0.0
H971 H 0.21559 0.6952 0.6769 0.0
C972 C 0.3289 0.77039 0.6661 0.0
C973 C 0.35287 0.76644 0.68325 0.0
C974 C 0.30744 0.75003 0.66537 0.0
C975 C 0.30937 0.72536 0.68195 0.0
C976 C 0.33313 0.72187 0.69955 0.0
C977 C 0.35462 0.742 0.70005 0.0
C978 C 0.27366 0.65354 0.68339 0.0
C979 C 0.24496 0.66056 0.6814 0.0
C980 C 0.29438 0.67447 0.68295 0.0
C981 C 0.28704 0.70311 0.68086 0.0
C982 C 0.25831 0.71012 0.67829 0.0
C983 C 0.23752 0.68907 0.67844 0.0
H984 H 0.68 0.77996 0.35179 0.0
H985 H 0.6381 0.73761 0.28221 0.0
H986 H 0.71848 0.74547 0.34943 0.0
H987 H 0.67672 0.70377 0.27954 0.0
H988 H 0.76725 0.67258 0.26254 0.0
H989 H 0.73129 0.70891 0.26737 0.0
H990 H 0.72202 0.6885 0.35636 0.0
H991 H 0.75777 0.65148 0.35154 0.0
C992 C 0.6791 0.76343 0.33593 0.0
C993 C 0.65608 0.76151 0.31714 0.0
C994 C 0.701 0.74366 0.3347 0.0
C995 C 0.70055 0.72208 0.31424 0.0
C996 C 0.67765 0.72033 0.29538 0.0
C997 C 0.65552 0.73964 0.29699 0.0
C998 C 0.75783 0.67596 0.28326 0.0
C999 C 0.76536 0.65908 0.30666 0.0
C1000 C 0.73714 0.69669 0.28594 0.0
C1001 C 0.72386 0.7014 0.31219 0.0
C1002 C 0.73206 0.68533 0.33592 0.0
C1003 C 0.75243 0.66414 0.33312 0.0
H1004 H 0.68497 0.22121 0.6579 0.0
H1005 H 0.63713 0.27337 0.71557 0.0
H1006 H 0.72254 0.25661 0.65726 0.0
H1007 H 0.6747 0.30793 0.7158 0.0
H1008 H 0.73039 0.37893 0.68852 0.0
H1009 H 0.6946 0.34253 0.68628 0.0
H1010 H 0.75942 0.27869 0.68457 0.0
H1011 H 0.79553 0.31554 0.68572 0.0
C1012 C 0.68256 0.2401 0.67058 0.0
C1013 C 0.65793 0.24455 0.68658 0.0
C1014 C 0.70415 0.26033 0.67034 0.0
C1015 C 0.70163 0.28536 0.68625 0.0
C1016 C 0.67719 0.28935 0.70268 0.0
C1017 C 0.65561 0.26936 0.70269 0.0
C1018 C 0.7371 0.35714 0.68764 0.0
C1019 C 0.76587 0.35015 0.68759 0.0
C1020 C 0.7165 0.33618 0.68652 0.0
C1021 C 0.72399 0.30753 0.68569 0.0
C1022 C 0.75282 0.30051 0.68502 0.0
C1023 C 0.77354 0.32161 0.68584 0.0
H1024 H 0.76781 0.87048 0.78371 0.0
H1025 H 0.72753 0.82735 0.85376 0.0
H1026 H 0.80233 0.83269 0.78014 0.0
H1027 H 0.76274 0.78954 0.85041 0.0
H1028 H 0.85738 0.75174 0.85035 0.0
H1029 H 0.81939 0.78627 0.85639 0.0
H1030 H 0.79885 0.779 0.76721 0.0
H1031 H 0.83621 0.74437 0.76116 0.0
C1032 C 0.76636 0.85295 0.79842 0.0
C1033 C 0.74487 0.85187 0.81898 0.0
C1034 C 0.78608 0.83127 0.79627 0.0
C1035 C 0.78514 0.80819 0.81494 0.0
C1036 C 0.76393 0.80716 0.8358 0.0
C1037 C 0.74375 0.82868 0.8376 0.0
C1038 C 0.84452 0.75727 0.83213 0.0
C1039 C 0.8499 0.74534 0.80526 0.0
C1040 C 0.82274 0.77692 0.83563 0.0
C1041 C 0.80632 0.78536 0.81222 0.0
C1042 C 0.81132 0.77299 0.78556 0.0
C1043 C 0.83268 0.75306 0.78216 0.0
H1044 H 0.77038 0.13827 0.21131 0.0
H1045 H 0.7188 0.1845 0.15166 0.0
H1046 H 0.8054 0.17547 0.21012 0.0
H1047 H 0.75458 0.22161 0.14965 0.0
H1048 H 0.81378 0.29522 0.17558 0.0
H1049 H 0.77681 0.25925 0.17543 0.0
H1050 H 0.84038 0.19432 0.18033 0.0
H1051 H 0.87693 0.23006 0.18153 0.0
C1052 C 0.76658 0.15632 0.19773 0.0
C1053 C 0.74177 0.15829 0.18149 0.0
C1054 C 0.78685 0.17766 0.19689 0.0
C1055 C 0.78312 0.20154 0.17952 0.0
C1056 C 0.75813 0.2037 0.16347 0.0
C1057 C 0.73765 0.18235 0.1645 0.0
C1058 C 0.81979 0.27324 0.17654 0.0
C1059 C 0.84831 0.26557 0.17888 0.0
C1060 C 0.7986 0.25258 0.17632 0.0
C1061 C 0.80547 0.22377 0.17823 0.0
C1062 C 0.83411 0.21623 0.17961 0.0
C1063 C 0.85517 0.2368 0.1801 0.0
H1064 H 0.12843 0.22879 0.82144 0.0
H1065 H 0.19201 0.29389 0.82477 0.0
H1066 H 0.16474 0.19301 0.8238 0.0
H1067 H 0.22876 0.25782 0.82597 0.0
H1068 H 0.28614 0.18375 0.85293 0.0
H1069 H 0.25075 0.22122 0.85324 0.0
H1070 H 0.19944 0.17289 0.79489 0.0
H1071 H 0.23397 0.13538 0.79551 0.0
C1072 C 0.15024 0.23549 0.82243 0.0
C1073 C 0.15731 0.26423 0.82265 0.0
C1074 C 0.17116 0.2149 0.82362 0.0
C1075 C 0.19984 0.22239 0.82466 0.0
C1076 C 0.20693 0.25121 0.8254 0.0
C1077 C 0.18587 0.27191 0.82453 0.0
C1078 C 0.26725 0.18122 0.84021 0.0
C1079 C 0.26277 0.15647 0.82442 0.0
C1080 C 0.24702 0.20275 0.84026 0.0
C1081 C 0.22199 0.20006 0.82431 0.0
C1082 C 0.218 0.1755 0.80805 0.0
C1083 C 0.23796 0.15397 0.80826 0.0
H1084 H 0.23737 0.87043 0.2088 0.0
H1085 H 0.29252 0.82177 0.15478 0.0
H1086 H 0.20273 0.833 0.20753 0.0
H1087 H 0.25708 0.78422 0.15273 0.0
H1088 H 0.19616 0.7119 0.18075 0.0
H1089 H 0.23327 0.7478 0.17988 0.0
H1090 H 0.16977 0.81285 0.17593 0.0
H1091 H 0.13307 0.77733 0.17779 0.0
C1092 C 0.24206 0.85179 0.19642 0.0
C1093 C 0.26773 0.84924 0.18174 0.0
C1094 C 0.22201 0.83029 0.19553 0.0
C1095 C 0.22682 0.80563 0.17968 0.0
C1096 C 0.2527 0.80282 0.16528 0.0
C1097 C 0.27297 0.82439 0.16635 0.0
C1098 C 0.19022 0.73389 0.17956 0.0
C1099 C 0.16165 0.74173 0.17972 0.0
C1100 C 0.21148 0.75448 0.17894 0.0
C1101 C 0.2046 0.78333 0.17827 0.0
C1102 C 0.17597 0.79095 0.17726 0.0
C1103 C 0.15485 0.77049 0.17814 0.0
H1104 H 0.19345 0.51728 0.28312 0.0
H1105 H 0.11922 0.51522 0.33634 0.0
H1106 H 0.17705 0.56078 0.26126 0.0
H1107 H 0.10257 0.55863 0.31382 0.0
H1108 H 0.0694 0.60206 0.2288 0.0
H1109 H 0.08717 0.56587 0.26092 0.0
H1110 H 0.16378 0.61357 0.2727 0.0
H1111 H 0.14559 0.65041 0.24072 0.0
C1112 C 0.17385 0.52628 0.29051 0.0
C1113 C 0.15762 0.51261 0.31146 0.0
C1114 C 0.16456 0.55133 0.27805 0.0
C1115 C 0.13857 0.56306 0.28585 0.0
C1116 C 0.12271 0.54998 0.30742 0.0
C1117 C 0.13227 0.52516 0.32031 0.0
C1118 C 0.08989 0.60503 0.23853 0.0
C1119 C 0.10623 0.62893 0.23216 0.0
C1120 C 0.09995 0.58442 0.25709 0.0
C1121 C 0.12681 0.58694 0.26931 0.0
C1122 C 0.14297 0.61117 0.26354 0.0
C1123 C 0.13258 0.63222 0.24537 0.0
H1124 H 0.51293 0.89248 0.67413 0.0
H1125 H 0.52071 0.81419 0.72043 0.0
H1126 H 0.55571 0.90994 0.69733 0.0
H1127 H 0.56373 0.83148 0.74291 0.0
H1128 H 0.65299 0.86842 0.76197 0.0
H1129 H 0.61591 0.85008 0.73027 0.0
H1130 H 0.5627 0.92033 0.75248 0.0
H1131 H 0.59911 0.93812 0.78442 0.0
C1132 C 0.52402 0.87875 0.68873 0.0
C1133 C 0.51322 0.85197 0.69552 0.0
C1134 C 0.54848 0.88879 0.70203 0.0
C1135 C 0.56299 0.87202 0.72187 0.0
C1136 C 0.5531 0.84472 0.72751 0.0
C1137 C 0.52835 0.83491 0.7147 0.0
C1138 C 0.63346 0.88001 0.75977 0.0
C1139 C 0.62881 0.90455 0.77578 0.0
C1140 C 0.61229 0.86953 0.74175 0.0
C1141 C 0.58653 0.8839 0.73888 0.0
C1142 C 0.58243 0.90899 0.75407 0.0
C1143 C 0.6032 0.91903 0.77252 0.0
H1144 H 0.90051 0.41623 0.19419 0.0
H1145 H 0.88878 0.3533 0.25975 0.0
H1146 H 0.88024 0.45162 0.22484 0.0
H1147 H 0.86883 0.38974 0.29112 0.0
H1148 H 0.87521 0.48167 0.33967 0.0
H1149 H 0.88912 0.43896 0.31394 0.0
H1150 H 0.83036 0.45927 0.24695 0.0
H1151 H 0.81626 0.50152 0.2723 0.0
C1152 C 0.89336 0.40974 0.21505 0.0
C1153 C 0.89595 0.38163 0.22423 0.0
C1154 C 0.88173 0.43019 0.23266 0.0
C1155 C 0.87273 0.42337 0.26022 0.0
C1156 C 0.87556 0.39546 0.26986 0.0
C1157 C 0.88683 0.37465 0.25188 0.0
C1158 C 0.86485 0.47675 0.31973 0.0
C1159 C 0.84487 0.49534 0.30793 0.0
C1160 C 0.87274 0.45222 0.30512 0.0
C1161 C 0.86094 0.446 0.27841 0.0
C1162 C 0.83992 0.46371 0.26742 0.0
C1163 C 0.8319 0.48798 0.28202 0.0
H1164 H 0.48077 0.1399 0.66784 0.0
H1165 H 0.5023 0.18526 0.74465 0.0
H1166 H 0.43672 0.1246 0.68979 0.0
H1167 H 0.45895 0.16935 0.76669 0.0
H1168 H 0.37126 0.15182 0.79625 0.0
H1169 H 0.40879 0.17277 0.76735 0.0
H1170 H 0.42231 0.09229 0.72653 0.0
H1171 H 0.38428 0.07188 0.75502 0.0
C1172 C 0.47608 0.14678 0.6893 0.0
C1173 C 0.49523 0.16377 0.70445 0.0
C1174 C 0.45088 0.13785 0.70196 0.0
C1175 C 0.44423 0.14566 0.73007 0.0
C1176 C 0.46305 0.16327 0.74487 0.0
C1177 C 0.48813 0.17225 0.73223 0.0
C1178 C 0.38184 0.13898 0.78048 0.0
C1179 C 0.37485 0.11048 0.7774 0.0
C1180 C 0.40352 0.15079 0.76417 0.0
C1181 C 0.41878 0.13419 0.74469 0.0
C1182 C 0.41084 0.10583 0.74098 0.0
C1183 C 0.38914 0.09408 0.75728 0.0
H1184 H 0.14538 0.48053 0.66495 0.0
H1185 H 0.17552 0.51137 0.746 0.0
H1186 H 0.13215 0.43599 0.68745 0.0
H1187 H 0.16124 0.46792 0.76852 0.0
H1188 H 0.15153 0.38269 0.80356 0.0
H1189 H 0.17105 0.42059 0.77462 0.0
H1190 H 0.09889 0.41535 0.7185 0.0
H1191 H 0.08045 0.37618 0.74685 0.0
C1192 C 0.14916 0.47785 0.68754 0.0
C1193 C 0.16162 0.49958 0.70359 0.0
C1194 C 0.14143 0.45234 0.7005 0.0
C1195 C 0.14573 0.44806 0.72988 0.0
C1196 C 0.15823 0.46989 0.74577 0.0
C1197 C 0.16623 0.49511 0.73281 0.0
C1198 C 0.14034 0.38923 0.78456 0.0
C1199 C 0.11467 0.37657 0.77723 0.0
C1200 C 0.15126 0.4112 0.76814 0.0
C1201 C 0.1363 0.42165 0.74445 0.0
C1202 C 0.11119 0.40787 0.73638 0.0
C1203 C 0.10056 0.38542 0.75257 0.0
H1204 H 0.41166 0.93851 0.22314 0.0
H1205 H 0.35779 0.86811 0.24408 0.0
H1206 H 0.4481 0.92003 0.25443 0.0
H1207 H 0.39483 0.84925 0.27536 0.0
H1208 H 0.488 0.81174 0.28595 0.0
H1209 H 0.44504 0.8299 0.26427 0.0
H1210 H 0.4573 0.90923 0.30733 0.0
H1211 H 0.50023 0.89103 0.32946 0.0
C1212 C 0.40754 0.91913 0.2346 0.0
C1213 C 0.38191 0.90465 0.23101 0.0
C1214 C 0.42835 0.90869 0.25272 0.0
C1215 C 0.42428 0.88325 0.26738 0.0
C1216 C 0.39848 0.86892 0.26426 0.0
C1217 C 0.37731 0.87972 0.24648 0.0
C1218 C 0.48133 0.83288 0.29128 0.0
C1219 C 0.49774 0.84997 0.30935 0.0
C1220 C 0.45659 0.84321 0.27894 0.0
C1221 C 0.44789 0.87099 0.28403 0.0
C1222 C 0.46362 0.88775 0.30295 0.0
C1223 C 0.48815 0.87728 0.31568 0.0
H1224 H 0.88468 0.51663 0.67084 0.0
H1225 H 0.81451 0.51548 0.72951 0.0
H1226 H 0.90205 0.55981 0.69312 0.0
H1227 H 0.83156 0.55908 0.75098 0.0
H1228 H 0.86458 0.6502 0.76853 0.0
H1229 H 0.84461 0.61379 0.73707 0.0
H1230 H 0.91981 0.56387 0.74775 0.0
H1231 H 0.93925 0.59956 0.77962 0.0
C1232 C 0.8726 0.52584 0.68801 0.0
C1233 C 0.84831 0.51237 0.69853 0.0
C1234 C 0.88257 0.55056 0.70071 0.0
C1235 C 0.86808 0.5627 0.72367 0.0
C1236 C 0.84293 0.55026 0.7331 0.0
C1237 C 0.83328 0.52521 0.72085 0.0
C1238 C 0.87691 0.63162 0.76372 0.0
C1239 C 0.90335 0.62753 0.77651 0.0
C1240 C 0.8655 0.61084 0.74588 0.0
C1241 C 0.88078 0.58617 0.73998 0.0
C1242 C 0.90774 0.58282 0.75175 0.0
C1243 C 0.91877 0.60313 0.77009 0.0
H1244 H 0.65201 0.11883 0.26049 0.0
H1245 H 0.58999 0.10467 0.19448 0.0
H1246 H 0.61488 0.13839 0.29121 0.0
H1247 H 0.55378 0.12446 0.22463 0.0
H1248 H 0.504 0.19068 0.26992 0.0
H1249 H 0.54572 0.17476 0.24501 0.0
H1250 H 0.56569 0.11885 0.31453 0.0
H1251 H 0.52335 0.13468 0.33995 0.0
C1252 C 0.63066 0.12008 0.25241 0.0
C1253 C 0.62415 0.11048 0.2248 0.0
C1254 C 0.60946 0.1311 0.27005 0.0
C1255 C 0.58158 0.13314 0.26014 0.0
C1256 C 0.57517 0.12351 0.23267 0.0
C1257 C 0.59606 0.11217 0.21535 0.0
C1258 C 0.51728 0.17523 0.28028 0.0
C1259 C 0.50998 0.16373 0.30691 0.0
C1260 C 0.54126 0.16614 0.26589 0.0
C1261 C 0.55876 0.14544 0.27773 0.0
C1262 C 0.55254 0.13494 0.30501 0.0
C1263 C 0.52826 0.14393 0.31946 0.0
H1264 H 0.62426 0.01729 0.83678 0.0
H1265 H 0.69539 0.01706 0.77932 0.0
H1266 H 0.60665 0.06008 0.81393 0.0
H1267 H 0.67814 0.0603 0.75733 0.0
H1268 H 0.64424 0.15211 0.74146 0.0
H1269 H 0.66425 0.11499 0.77197 0.0
H1270 H 0.59004 0.06415 0.75837 0.0
H1271 H 0.57051 0.10056 0.72741 0.0
C1272 C 0.63648 0.02662 0.81975 0.0
C1273 C 0.66117 0.01354 0.80978 0.0
C1274 C 0.62637 0.0511 0.80671 0.0
C1275 C 0.6411 0.0634 0.78395 0.0
C1276 C 0.66656 0.05133 0.77502 0.0
C1277 C 0.67635 0.0265 0.7876 0.0
C1278 C 0.63217 0.1331 0.74529 0.0
C1279 C 0.60593 0.12909 0.73202 0.0
C1280 C 0.6436 0.11193 0.76262 0.0
C1281 C 0.62855 0.08688 0.76756 0.0
C1282 C 0.60191 0.08339 0.7551 0.0
C1283 C 0.59085 0.10413 0.73726 0.0
H1284 H 0.09243 0.39832 0.31744 0.0
H1285 H 0.15089 0.39708 0.24687 0.0
H1286 H 0.05587 0.37937 0.28715 0.0
H1287 H 0.11347 0.378 0.21613 0.0
H1288 H 0.02198 0.37934 0.17054 0.0
H1289 H 0.06438 0.39447 0.19631 0.0
H1290 H 0.04674 0.3336 0.26219 0.0
H1291 H 0.00475 0.31864 0.23701 0.0
C1292 C 0.09768 0.39378 0.2955 0.0
C1293 C 0.12487 0.39901 0.28478 0.0
C1294 C 0.07658 0.38282 0.2781 0.0
C1295 C 0.08183 0.37696 0.24932 0.0
C1296 C 0.10886 0.38234 0.23827 0.0
C1297 C 0.13028 0.39308 0.25591 0.0
C1298 C 0.02739 0.36892 0.19031 0.0
C1299 C 0.00966 0.34798 0.20179 0.0
C1300 C 0.05173 0.37751 0.20498 0.0
C1301 C 0.05868 0.36542 0.23141 0.0
C1302 C 0.04172 0.3436 0.24208 0.0
C1303 C 0.0176 0.335 0.22752 0.0
H1304 H 0.38098 0.98712 0.83517 0.0
H1305 H 0.31398 0.99719 0.77351 0.0
H1306 H 0.39643 0.94437 0.81036 0.0
H1307 H 0.32934 0.95487 0.74925 0.0
H1308 H 0.39462 0.91347 0.69083 0.0
H1309 H 0.37494 0.94916 0.72145 0.0
H1310 H 0.38071 0.89284 0.79333 0.0
H1311 H 0.40043 0.85613 0.76216 0.0
C1312 C 0.36924 0.98002 0.81673 0.0
C1313 C 0.34644 0.9959 0.80618 0.0
C1314 C 0.37801 0.95548 0.80265 0.0
C1315 C 0.36423 0.9465 0.77775 0.0
C1316 C 0.34056 0.96149 0.76821 0.0
C1317 C 0.33178 0.98581 0.78221 0.0
C1318 C 0.39145 0.90825 0.71301 0.0
C1319 C 0.39886 0.88163 0.72385 0.0
C1320 C 0.38009 0.92886 0.73061 0.0
C1321 C 0.37604 0.92372 0.75971 0.0
C1322 C 0.38359 0.89729 0.77091 0.0
C1323 C 0.39469 0.87628 0.75305 0.0
H1324 H 0.85651 0.61741 0.25022 0.0
H1325 H 0.91985 0.60187 0.31463 0.0
H1326 H 0.89286 0.6387 0.21966 0.0
H1327 H 0.95523 0.62337 0.28468 0.0
H1328 H 0.00491 0.69015 0.24051 0.0
H1329 H 0.96316 0.67417 0.2657 0.0
H1330 H 0.9412 0.62047 0.19502 0.0
H1331 H 0.98335 0.63629 0.16946 0.0
C1332 C 0.87797 0.61868 0.25797 0.0
C1333 C 0.88508 0.6082 0.2851 0.0
C1334 C 0.89872 0.63076 0.24045 0.0
C1335 C 0.92671 0.63298 0.25003 0.0
C1336 C 0.93372 0.62239 0.27697 0.0
C1337 C 0.9133 0.61001 0.29415 0.0
C1338 C 0.9911 0.67524 0.23 0.0
C1339 C 0.99781 0.66421 0.20306 0.0
C1340 C 0.96714 0.66611 0.24451 0.0
C1341 C 0.94915 0.64592 0.23239 0.0
C1342 C 0.95471 0.63616 0.20475 0.0
C1343 C 0.97891 0.64514 0.19022 0.0
H1344 H 0.67301 0.00855 0.24502 0.0
H1345 H 0.64171 0.97895 0.16396 0.0
H1346 H 0.65889 0.96491 0.26714 0.0
H1347 H 0.62868 0.9341 0.18603 0.0
H1348 H 0.57813 0.87319 0.24535 0.0
H1349 H 0.59608 0.91271 0.21719 0.0
H1350 H 0.66884 0.9177 0.27255 0.0
H1351 H 0.64974 0.87955 0.3014 0.0
C1352 C 0.6635 0.99251 0.23173 0.0
C1353 C 0.65854 0.99738 0.20263 0.0
C1354 C 0.65559 0.96717 0.24445 0.0
C1355 C 0.64289 0.94556 0.22843 0.0
C1356 C 0.63816 0.95026 0.19917 0.0
C1357 C 0.64577 0.97594 0.18645 0.0
C1358 C 0.59825 0.88248 0.25095 0.0
C1359 C 0.61264 0.87351 0.27541 0.0
C1360 C 0.6086 0.90513 0.23486 0.0
C1361 C 0.63374 0.91894 0.2428 0.0
C1362 C 0.649 0.90833 0.26621 0.0
C1363 C 0.63833 0.8862 0.28258 0.0
H1364 H 0.90981 0.43903 0.72582 0.0
H1365 H 0.85806 0.36719 0.74698 0.0
H1366 H 0.94689 0.42169 0.75708 0.0
H1367 H 0.89577 0.34938 0.77819 0.0
H1368 H 0.99062 0.3148 0.7867 0.0
H1369 H 0.94683 0.33178 0.76574 0.0
H1370 H 0.95659 0.41069 0.8102 0.0
H1371 H 1.00031 0.39363 0.83169 0.0
C1372 C 0.9063 0.4196 0.7374 0.0
C1373 C 0.88115 0.40434 0.73387 0.0
C1374 C 0.92746 0.4098 0.75547 0.0
C1375 C 0.9242 0.38423 0.77008 0.0
C1376 C 0.89878 0.36918 0.76713 0.0
C1377 C 0.87722 0.37937 0.74943 0.0
C1378 C 0.98325 0.33558 0.79249 0.0
C1379 C 0.99915 0.35289 0.8108 0.0
C1380 C 0.95803 0.34521 0.78058 0.0
C1381 C 0.94835 0.37253 0.78633 0.0
C1382 C 0.96365 0.38953 0.80537 0.0
C1383 C 0.98865 0.37972 0.8177 0.0
H1384 H 0.38802 0.15635 0.24918 0.0
H1385 H 0.40268 0.09434 0.31504 0.0
H1386 H 0.36787 0.11925 0.21871 0.0
H1387 H 0.38234 0.05821 0.28518 0.0
H1388 H 0.31766 0.0067 0.24031 0.0
H1389 H 0.33254 0.04897 0.26519 0.0
H1390 H 0.38696 0.07094 0.19508 0.0
H1391 H 0.37215 0.02823 0.16976 0.0
C1392 C 0.38673 0.13502 0.25728 0.0
C1393 C 0.39667 0.12851 0.28478 0.0
C1394 C 0.37535 0.11384 0.2398 0.0
C1395 C 0.37328 0.08597 0.24977 0.0
C1396 C 0.38322 0.07958 0.27713 0.0
C1397 C 0.39491 0.10044 0.29427 0.0
C1398 C 0.33251 0.0206 0.22984 0.0
C1399 C 0.34398 0.01374 0.20311 0.0
C1400 C 0.34101 0.04486 0.24418 0.0
C1401 C 0.36108 0.06305 0.23217 0.0
C1402 C 0.37135 0.05729 0.20474 0.0
C1403 C 0.36294 0.03278 0.19034 0.0
H1404 H 0.09833 0.57601 0.72094 0.0
H1405 H 0.15054 0.64893 0.73671 0.0
H1406 H 0.06207 0.59514 0.75217 0.0
H1407 H 0.11348 0.66857 0.76758 0.0
H1408 H 0.01402 0.69798 0.77913 0.0
H1409 H 0.05691 0.68266 0.75474 0.0
H1410 H 0.06104 0.60947 0.80893 0.0
H1411 H 0.01879 0.62491 0.83396 0.0
C1412 C 0.10203 0.59617 0.73109 0.0
C1413 C 0.12722 0.61104 0.72637 0.0
C1414 C 0.08134 0.607 0.74906 0.0
C1415 C 0.08509 0.63323 0.76226 0.0
C1416 C 0.11021 0.64825 0.75762 0.0
C1417 C 0.13135 0.63702 0.7401 0.0
C1418 C 0.02438 0.67894 0.78631 0.0
C1419 C 0.01275 0.66258 0.8084 0.0
C1420 C 0.04898 0.67028 0.77239 0.0
C1421 C 0.0621 0.64488 0.77996 0.0
C1422 C 0.05122 0.62913 0.80272 0.0
C1423 C 0.027 0.63803 0.81702 0.0
H1424 H 0.17341 0.56698 0.55749 0.0
H1425 H 0.21587 0.49199 0.587 0.0
H1426 H 0.17824 0.55093 0.50842 0.0
H1427 H 0.22047 0.47584 0.53771 0.0
H1428 H 0.17876 0.44318 0.45255 0.0
H1429 H 0.18383 0.45992 0.50135 0.0
H1430 H 0.21488 0.53969 0.47024 0.0
H1431 H 0.21004 0.52284 0.42117 0.0
C1432 C 0.18404 0.54719 0.55348 0.0
C1433 C 0.1941 0.53066 0.57616 0.0
C1434 C 0.18697 0.53811 0.52534 0.0
C1435 C 0.19968 0.51212 0.51923 0.0
C1436 C 0.21044 0.49591 0.54183 0.0
C1437 C 0.2079 0.5052 0.57001 0.0
C1438 C 0.18702 0.46418 0.45608 0.0
C1439 C 0.19385 0.48176 0.43298 0.0
C1440 C 0.19009 0.47369 0.48406 0.0
C1441 C 0.19969 0.50113 0.48961 0.0
C1442 C 0.20728 0.51848 0.46656 0.0
C1443 C 0.20463 0.5088 0.4385 0.0
H1444 H 0.51176 0.77814 0.42482 0.0
H1445 H 0.55224 0.85751 0.44406 0.0
H1446 H 0.49464 0.77549 0.47417 0.0
H1447 H 0.53515 0.8548 0.49266 0.0
H1448 H 0.46639 0.86017 0.55994 0.0
H1449 H 0.48426 0.85734 0.5117 0.0
H1450 H 0.51526 0.77348 0.52804 0.0
H1451 H 0.49731 0.77627 0.57715 0.0
C1452 C 0.5171 0.7949 0.43951 0.0
C1453 C 0.53318 0.81814 0.43039 0.0
C1454 C 0.50747 0.79327 0.46774 0.0
C1455 C 0.51345 0.81503 0.48711 0.0
C1456 C 0.53 0.83786 0.4781 0.0
C1457 C 0.53984 0.83934 0.4502 0.0
C1458 C 0.47686 0.84099 0.55342 0.0
C1459 C 0.48051 0.81847 0.57254 0.0
C1460 C 0.4872 0.83946 0.52573 0.0
C1461 C 0.50128 0.81528 0.5162 0.0
C1462 C 0.5044 0.79235 0.53491 0.0
C1463 C 0.4943 0.79402 0.56298 0.0
H1464 H 0.86269 0.5341 0.44595 0.0
H1465 H 0.77553 0.51251 0.43019 0.0
H1466 H 0.8593 0.51461 0.49351 0.0
H1467 H 0.77219 0.49294 0.47864 0.0
H1468 H 0.78058 0.49586 0.58202 0.0
H1469 H 0.77765 0.51221 0.5325 0.0
H1470 H 0.85182 0.46393 0.51187 0.0
H1471 H 0.85482 0.44754 0.56077 0.0
C1472 C 0.8427 0.52531 0.45265 0.0
C1473 C 0.81937 0.52481 0.43417 0.0
C1474 C 0.84085 0.51399 0.47991 0.0
C1475 C 0.81557 0.50208 0.48964 0.0
C1476 C 0.79193 0.50203 0.47157 0.0
C1477 C 0.79389 0.51308 0.44389 0.0
C1478 C 0.79604 0.48849 0.56681 0.0
C1479 C 0.81815 0.47069 0.57547 0.0
C1480 C 0.79424 0.49772 0.53849 0.0
C1481 C 0.81467 0.48952 0.51852 0.0
C1482 C 0.83598 0.47082 0.52694 0.0
C1483 C 0.83765 0.46143 0.555 0.0
H1484 H 0.49685 0.23627 0.4301 0.0
H1485 H 0.46557 0.15241 0.44727 0.0
H1486 H 0.51518 0.23885 0.4791 0.0
H1487 H 0.48387 0.15502 0.49535 0.0
H1488 H 0.5514 0.15413 0.56314 0.0
H1489 H 0.53495 0.15741 0.5143 0.0
H1490 H 0.49472 0.23668 0.53303 0.0
H1491 H 0.51113 0.23344 0.58258 0.0
C1492 C 0.49382 0.21849 0.44423 0.0
C1493 C 0.47983 0.19411 0.43467 0.0
C1494 C 0.50418 0.22003 0.47224 0.0
C1495 C 0.50112 0.19703 0.49088 0.0
C1496 C 0.48682 0.17294 0.48136 0.0
C1497 C 0.47621 0.17154 0.45375 0.0
C1498 C 0.53924 0.17243 0.557 0.0
C1499 C 0.53234 0.19338 0.57696 0.0
C1500 C 0.52978 0.17425 0.52895 0.0
C1501 C 0.51339 0.19717 0.51996 0.0
C1502 C 0.50741 0.21882 0.53944 0.0
C1503 C 0.51666 0.21686 0.56778 0.0
H1504 H 0.64859 0.04047 0.06259 0.0
H1505 H 0.73295 0.01108 0.08038 0.0
H1506 H 0.6517 0.02176 0.01467 0.0
H1507 H 0.73605 0.99238 0.03159 0.0
H1508 H 0.73107 0.99596 0.92806 0.0
H1509 H 0.73369 0.01268 0.97751 0.0
H1510 H 0.6553 0.97045 0.99612 0.0
H1511 H 0.65266 0.95364 0.94737 0.0
C1512 C 0.66793 0.03018 0.05627 0.0
C1513 C 0.69051 0.0272 0.07546 0.0
C1514 C 0.66962 0.01933 0.02877 0.0
C1515 C 0.69402 0.00546 0.0195 0.0
C1516 C 0.717 1.00303 0.03826 0.0
C1517 C 0.71517 0.0136 0.06615 0.0
C1518 C 0.71457 0.99003 0.94281 0.0
C1519 C 0.69152 0.97368 0.93362 0.0
C1520 C 0.71617 0.99948 0.9711 0.0
C1521 C 0.69457 0.99303 0.99051 0.0
C1522 C 0.67209 0.97597 0.98152 0.0
C1523 C 0.67065 0.9663 0.95353 0.0
H1524 H 0.05132 0.3627 0.94573 0.0
H1525 H 0.01458 0.28161 0.92613 0.0
H1526 H 0.03366 0.35929 0.99415 0.0
H1527 H 0.99696 0.27824 0.97522 0.0
H1528 H 0.99873 0.27895 0.07812 0.0
H1529 H 0.01715 0.27709 0.02918 0.0
H1530 H 0.98239 0.35941 0.01266 0.0
H1531 H 0.96398 0.36132 0.06073 0.0
C1532 C 0.03964 0.34402 0.95177 0.0
C1533 C 0.03417 0.32252 0.93194 0.0
C1534 C 0.02947 0.34213 0.97954 0.0
C1535 C 0.01383 0.31859 0.98835 0.0
C1536 C 0.00906 0.29657 0.96894 0.0
C1537 C 0.01897 0.29861 0.94086 0.0
C1538 C 0.99494 0.29654 0.06394 0.0
C1539 C 0.98001 0.32033 0.07345 0.0
C1540 C 0.00535 0.2954 0.03597 0.0
C1541 C 1.00135 0.31822 0.01729 0.0
C1542 C 0.98604 0.34167 0.0267 0.0
C1543 C 0.9754 0.34266 0.05431 0.0
H1544 H 0.36224 0.04422 0.94432 0.0
H1545 H 0.27901 0.01116 0.92726 0.0
H1546 H 0.35966 0.02652 0.99277 0.0
H1547 H 0.27648 0.99347 0.97638 0.0
H1548 H 0.27907 0.99677 0.07874 0.0
H1549 H 0.27695 0.01346 0.02926 0.0
H1550 H 0.35845 0.97662 0.01315 0.0
H1551 H 0.36064 0.9599 0.06195 0.0
C1552 C 0.34328 0.0333 0.95091 0.0
C1553 C 0.32088 0.02897 0.9318 0.0
C1554 C 0.34189 0.02305 0.9787 0.0
C1555 C 0.31797 0.00846 0.98827 0.0
C1556 C 0.29515 0.00471 0.96953 0.0
C1557 C 0.29668 0.0147 0.94142 0.0
C1558 C 0.29641 0.99208 0.06454 0.0
C1559 C 0.32012 0.9772 0.07442 0.0
C1560 C 0.29512 1.00152 0.03624 0.0
C1561 C 0.31766 0.99655 0.0175 0.0
C1562 C 0.34093 0.98107 0.02722 0.0
C1563 C 0.3421 0.97141 0.05523 0.0
H1564 H 0.99504 0.72651 0.92858 0.0
H1565 H 0.96199 0.64347 0.94648 0.0
H1566 H 0.01357 0.72916 0.97734 0.0
H1567 H 0.98051 0.64619 0.99464 0.0
H1568 H 0.0489 0.6453 0.06234 0.0
H1569 H 0.03064 0.64706 0.01404 0.0
H1570 H 0.99524 0.72917 0.03029 0.0
H1571 H 0.0135 0.72748 0.07919 0.0
C1572 C 0.99162 0.70893 0.94288 0.0
C1573 C 0.97719 0.68471 0.93356 0.0
C1574 C 1.00211 0.71052 0.97077 0.0
C1575 C 0.99868 0.68777 0.98962 0.0
C1576 C 0.98377 0.66389 0.98044 0.0
C1577 C 0.97305 0.66242 0.95284 0.0
C1578 C 0.03739 0.66387 0.05572 0.0
C1579 C 0.03249 0.68618 0.07476 0.0
C1580 C 0.02683 0.66479 0.02803 0.0
C1581 C 0.01132 0.68813 0.01852 0.0
C1582 C 0.00719 0.71094 0.03711 0.0
C1583 C 0.01753 0.7099 0.06508 0.0
loop_
_geom_bond_atom_site_label_1
_geom_bond_atom_site_label_2
_geom_bond_distance
_geom_bond_site_symmetry_2
_ccdc_geom_bond_type
Co0 O2 2.143 . S
Co0 O8 2.074 . S
Co0 O11 2.093 . S
Co0 O24 2.097 . S
Co0 N41 2.151 . S
Co0 N49 2.214 . S
Co1 O2 2.160 . S
Co1 O7 2.058 . S
Co1 O17 2.057 . S
Co1 O32 2.037 . S
Co1 N36 2.145 . S
Co1 N57 2.257 . S
O2 Co0 2.143 . S
O2 Co1 2.160 . S
C3 O4 1.278 . S
C3 O11 1.224 . S
O4 C3 1.278 . S
C5 O6 1.245 . S
C5 O17 1.232 . S
O6 C5 1.245 . S
O7 Co1 2.058 . S
O7 C33 1.269 . S
O8 Co0 2.074 . S
O8 C33 1.257 . S
H9 C34 0.930 . S
H10 C40 0.930 . S
O11 Co0 2.093 . S
O11 C3 1.224 . S
H12 C44 0.929 . S
H13 C46 0.930 . S
H14 C47 0.930 . S
H15 C45 0.929 . S
H16 C48 0.928 . S
O17 Co1 2.057 . S
O17 C5 1.232 . S
H18 C37 0.929 . S
H19 C38 0.929 . S
H20 C50 0.931 . S
H21 C42 0.929 . S
H22 C51 0.930 . S
H23 C43 0.931 . S
O24 Co0 2.097 . S
O24 C52 1.214 . S
H25 C53 0.929 . S
H26 C54 0.929 . S
H27 C55 0.930 . S
H28 C56 0.929 . S
H29 C58 0.930 . S
H30 C35 0.930 . S
H31 C39 0.930 . S
O32 Co1 2.037 . S
O32 C52 1.234 . S
C33 O7 1.269 . S
C33 O8 1.257 . S
C34 H9 0.930 . S
C34 C37 1.388 . S
C34 C39 1.418 . S
C35 H30 0.930 . S
C35 C38 1.404 . S
C35 C39 1.353 . S
N36 Co1 2.145 . S
N36 C37 1.397 . S
N36 C38 1.334 . S
C37 H18 0.929 . S
C37 C34 1.388 . S
C37 N36 1.397 . S
C38 H19 0.929 . S
C38 C35 1.404 . S
C38 N36 1.334 . S
C39 H31 0.930 . S
C39 C34 1.418 . S
C39 C35 1.353 . S
C40 H10 0.930 . S
C40 N41 1.330 . S
C40 C42 1.446 . S
N41 Co0 2.151 . S
N41 C40 1.330 . S
N41 C45 1.418 . S
C42 H21 0.929 . S
C42 C40 1.446 . S
C42 C43 1.332 . S
C43 H23 0.931 . S
C43 C42 1.332 . S
C43 C44 1.267 . S
C44 H12 0.929 . S
C44 C43 1.267 . S
C44 C45 1.251 . S
C45 H15 0.929 . S
C45 N41 1.418 . S
C45 C44 1.251 . S
C46 H13 0.930 . S
C46 C48 1.406 . S
C46 C51 1.261 . S
C47 H14 0.930 . S
C47 N49 1.325 . S
C47 C50 1.357 . S
C48 H16 0.928 . S
C48 C46 1.406 . S
C48 N49 1.261 . S
N49 Co0 2.214 . S
N49 C47 1.325 . S
N49 C48 1.261 . S
C50 H20 0.931 . S
C50 C47 1.357 . S
C50 C51 1.312 . S
C51 H22 0.930 . S
C51 C46 1.261 . S
C51 C50 1.312 . S
C52 O24 1.214 . S
C52 O32 1.234 . S
C53 H25 0.929 . S
C53 C56 1.391 . S
C53 C58 1.391 . S
C54 H26 0.929 . S
C54 C55 1.390 . S
C54 N57 1.391 . S
C55 H27 0.930 . S
C55 C54 1.390 . S
C55 C56 1.392 . S
C56 H28 0.929 . S
C56 C53 1.391 . S
C56 C55 1.392 . S
N57 Co1 2.257 . S
N57 C54 1.391 . S
N57 C58 1.388 . S
C58 H29 0.930 . S
C58 C53 1.391 . S
C58 N57 1.388 . S
Co59 O61 2.143 . S
Co59 O67 2.074 . S
Co59 O70 2.093 . S
Co59 O83 2.097 . S
Co59 N100 2.151 . S
Co59 N108 2.214 . S
Co60 O61 2.160 . S
Co60 O66 2.058 . S
Co60 O76 2.057 . S
Co60 O91 2.037 . S
Co60 N95 2.145 . S
Co60 N116 2.257 . S
O61 Co59 2.143 . S
O61 Co60 2.160 . S
C62 O63 1.278 . S
C62 O70 1.224 . S
O63 C62 1.278 . S
C64 O65 1.245 . S
C64 O76 1.232 . S
O65 C64 1.245 . S
O66 Co60 2.058 . S
O66 C92 1.269 . S
O67 Co59 2.074 . S
O67 C92 1.257 . S
H68 C93 0.930 . S
H69 C99 0.930 . S
O70 Co59 2.093 . S
O70 C62 1.224 . S
H71 C103 0.929 . S
H72 C105 0.930 . S
H73 C106 0.930 . S
H74 C104 0.929 . S
H75 C107 0.928 . S
O76 Co60 2.057 . S
O76 C64 1.232 . S
H77 C96 0.929 . S
H78 C97 0.929 . S
H79 C109 0.931 . S
H80 C101 0.929 . S
H81 C110 0.930 . S
H82 C102 0.931 . S
O83 Co59 2.097 . S
O83 C111 1.214 . S
H84 C112 0.929 . S
H85 C113 0.929 . S
H86 C114 0.930 . S
H87 C115 0.929 . S
H88 C117 0.930 . S
H89 C94 0.930 . S
H90 C98 0.930 . S
O91 Co60 2.037 . S
O91 C111 1.234 . S
C92 O66 1.269 . S
C92 O67 1.257 . S
C93 H68 0.930 . S
C93 C96 1.388 . S
C93 C98 1.418 . S
C94 H89 0.930 . S
C94 C97 1.404 . S
C94 C98 1.353 . S
N95 Co60 2.145 . S
N95 C96 1.397 . S
N95 C97 1.334 . S
C96 H77 0.929 . S
C96 C93 1.388 . S
C96 N95 1.397 . S
C97 H78 0.929 . S
C97 C94 1.404 . S
C97 N95 1.334 . S
C98 H90 0.930 . S
C98 C93 1.418 . S
C98 C94 1.353 . S
C99 H69 0.930 . S
C99 N100 1.330 . S
C99 C101 1.446 . S
N100 Co59 2.151 . S
N100 C99 1.330 . S
N100 C104 1.418 . S
C101 H80 0.929 . S
C101 C99 1.446 . S
C101 C102 1.332 . S
C102 H82 0.931 . S
C102 C101 1.332 . S
C102 C103 1.267 . S
C103 H71 0.929 . S
C103 C102 1.267 . S
C103 C104 1.251 . S
C104 H74 0.929 . S
C104 N100 1.418 . S
C104 C103 1.251 . S
C105 H72 0.930 . S
C105 C107 1.406 . S
C105 C110 1.261 . S
C106 H73 0.930 . S
C106 N108 1.325 . S
C106 C109 1.357 . S
C107 H75 0.928 . S
C107 C105 1.406 . S
C107 N108 1.261 . S
N108 Co59 2.214 . S
N108 C106 1.325 . S
N108 C107 1.261 . S
C109 H79 0.931 . S
C109 C106 1.357 . S
C109 C110 1.312 . S
C110 H81 0.930 . S
C110 C105 1.261 . S
C110 C109 1.312 . S
C111 O83 1.214 . S
C111 O91 1.234 . S
C112 H84 0.929 . S
C112 C115 1.391 . S
C112 C117 1.391 . S
C113 H85 0.929 . S
C113 C114 1.390 . S
C113 N116 1.391 . S
C114 H86 0.930 . S
C114 C113 1.390 . S
C114 C115 1.392 . S
C115 H87 0.929 . S
C115 C112 1.391 . S
C115 C114 1.392 . S
N116 Co60 2.257 . S
N116 C113 1.391 . S
N116 C117 1.388 . S
C117 H88 0.930 . S
C117 C112 1.391 . S
C117 N116 1.388 . S
Co118 O120 2.143 . S
Co118 O126 2.074 . S
Co118 O129 2.093 . S
Co118 O142 2.097 . S
Co118 N159 2.151 . S
Co118 N167 2.214 . S
Co119 O120 2.160 . S
Co119 O125 2.058 . S
Co119 O135 2.057 . S
Co119 O150 2.037 . S
Co119 N154 2.145 . S
Co119 N175 2.257 . S
O120 Co118 2.143 . S
O120 Co119 2.160 . S
C121 O122 1.278 . S
C121 O129 1.224 . S
O122 C121 1.278 . S
C123 O124 1.245 . S
C123 O135 1.232 . S
O124 C123 1.245 . S
O125 Co119 2.058 . S
O125 C151 1.269 . S
O126 Co118 2.074 . S
O126 C151 1.257 . S
H127 C152 0.930 . S
H128 C158 0.930 . S
O129 Co118 2.093 . S
O129 C121 1.224 . S
H130 C162 0.929 . S
H131 C164 0.930 . S
H132 C165 0.930 . S
H133 C163 0.929 . S
H134 C166 0.928 . S
O135 Co119 2.057 . S
O135 C123 1.232 . S
H136 C155 0.929 . S
H137 C156 0.929 . S
H138 C168 0.931 . S
H139 C160 0.929 . S
H140 C169 0.930 . S
H141 C161 0.931 . S
O142 Co118 2.097 . S
O142 C170 1.214 . S
H143 C171 0.929 . S
H144 C172 0.929 . S
H145 C173 0.930 . S
H146 C174 0.929 . S
H147 C176 0.930 . S
H148 C153 0.930 . S
H149 C157 0.930 . S
O150 Co119 2.037 . S
O150 C170 1.234 . S
C151 O125 1.269 . S
C151 O126 1.257 . S
C152 H127 0.930 . S
C152 C155 1.388 . S
C152 C157 1.418 . S
C153 H148 0.930 . S
C153 C156 1.404 . S
C153 C157 1.353 . S
N154 Co119 2.145 . S
N154 C155 1.397 . S
N154 C156 1.334 . S
C155 H136 0.929 . S
C155 C152 1.388 . S
C155 N154 1.397 . S
C156 H137 0.929 . S
C156 C153 1.404 . S
C156 N154 1.334 . S
C157 H149 0.930 . S
C157 C152 1.418 . S
C157 C153 1.353 . S
C158 H128 0.930 . S
C158 N159 1.330 . S
C158 C160 1.446 . S
N159 Co118 2.151 . S
N159 C158 1.330 . S
N159 C163 1.418 . S
C160 H139 0.929 . S
C160 C158 1.446 . S
C160 C161 1.332 . S
C161 H141 0.931 . S
C161 C160 1.332 . S
C161 C162 1.267 . S
C162 H130 0.929 . S
C162 C161 1.267 . S
C162 C163 1.251 . S
C163 H133 0.929 . S
C163 N159 1.418 . S
C163 C162 1.251 . S
C164 H131 0.930 . S
C164 C166 1.406 . S
C164 C169 1.261 . S
C165 H132 0.930 . S
C165 N167 1.325 . S
C165 C168 1.357 . S
C166 H134 0.928 . S
C166 C164 1.406 . S
C166 N167 1.261 . S
N167 Co118 2.214 . S
N167 C165 1.325 . S
N167 C166 1.261 . S
C168 H138 0.931 . S
C168 C165 1.357 . S
C168 C169 1.312 . S
C169 H140 0.930 . S
C169 C164 1.261 . S
C169 C168 1.312 . S
C170 O142 1.214 . S
C170 O150 1.234 . S
C171 H143 0.929 . S
C171 C174 1.391 . S
C171 C176 1.391 . S
C172 H144 0.929 . S
C172 C173 1.390 . S
C172 N175 1.391 . S
C173 H145 0.930 . S
C173 C172 1.390 . S
C173 C174 1.392 . S
C174 H146 0.929 . S
C174 C171 1.391 . S
C174 C173 1.392 . S
N175 Co119 2.257 . S
N175 C172 1.391 . S
N175 C176 1.388 . S
C176 H147 0.930 . S
C176 C171 1.391 . S
C176 N175 1.388 . S
Co177 O179 2.143 . S
Co177 O185 2.074 . S
Co177 O188 2.093 . S
Co177 O201 2.097 . S
Co177 N218 2.151 . S
Co177 N226 2.214 . S
Co178 O179 2.160 . S
Co178 O184 2.058 . S
Co178 O194 2.057 . S
Co178 O209 2.037 . S
Co178 N213 2.145 . S
Co178 N234 2.257 . S
O179 Co177 2.143 . S
O179 Co178 2.160 . S
C180 O181 1.278 . S
C180 O188 1.224 . S
O181 C180 1.278 . S
C182 O183 1.245 . S
C182 O194 1.232 . S
O183 C182 1.245 . S
O184 Co178 2.058 . S
O184 C210 1.269 . S
O185 Co177 2.074 . S
O185 C210 1.257 . S
H186 C211 0.930 . S
H187 C217 0.930 . S
O188 Co177 2.093 . S
O188 C180 1.224 . S
H189 C221 0.929 . S
H190 C223 0.930 . S
H191 C224 0.930 . S
H192 C222 0.929 . S
H193 C225 0.928 . S
O194 Co178 2.057 . S
O194 C182 1.232 . S
H195 C214 0.929 . S
H196 C215 0.929 . S
H197 C227 0.931 . S
H198 C219 0.929 . S
H199 C228 0.930 . S
H200 C220 0.931 . S
O201 Co177 2.097 . S
O201 C229 1.214 . S
H202 C230 0.929 . S
H203 C231 0.929 . S
H204 C232 0.930 . S
H205 C233 0.929 . S
H206 C235 0.930 . S
H207 C212 0.930 . S
H208 C216 0.930 . S
O209 Co178 2.037 . S
O209 C229 1.234 . S
C210 O184 1.269 . S
C210 O185 1.257 . S
C211 H186 0.930 . S
C211 C214 1.388 . S
C211 C216 1.418 . S
C212 H207 0.930 . S
C212 C215 1.404 . S
C212 C216 1.353 . S
N213 Co178 2.145 . S
N213 C214 1.397 . S
N213 C215 1.334 . S
C214 H195 0.929 . S
C214 C211 1.388 . S
C214 N213 1.397 . S
C215 H196 0.929 . S
C215 C212 1.404 . S
C215 N213 1.334 . S
C216 H208 0.930 . S
C216 C211 1.418 . S
C216 C212 1.353 . S
C217 H187 0.930 . S
C217 N218 1.330 . S
C217 C219 1.446 . S
N218 Co177 2.151 . S
N218 C217 1.330 . S
N218 C222 1.418 . S
C219 H198 0.929 . S
C219 C217 1.446 . S
C219 C220 1.332 . S
C220 H200 0.931 . S
C220 C219 1.332 . S
C220 C221 1.267 . S
C221 H189 0.929 . S
C221 C220 1.267 . S
C221 C222 1.251 . S
C222 H192 0.929 . S
C222 N218 1.418 . S
C222 C221 1.251 . S
C223 H190 0.930 . S
C223 C225 1.406 . S
C223 C228 1.261 . S
C224 H191 0.930 . S
C224 N226 1.325 . S
C224 C227 1.357 . S
C225 H193 0.928 . S
C225 C223 1.406 . S
C225 N226 1.261 . S
N226 Co177 2.214 . S
N226 C224 1.325 . S
N226 C225 1.261 . S
C227 H197 0.931 . S
C227 C224 1.357 . S
C227 C228 1.312 . S
C228 H199 0.930 . S
C228 C223 1.261 . S
C228 C227 1.312 . S
C229 O201 1.214 . S
C229 O209 1.234 . S
C230 H202 0.929 . S
C230 C233 1.391 . S
C230 C235 1.391 . S
C231 H203 0.929 . S
C231 C232 1.390 . S
C231 N234 1.391 . S
C232 H204 0.930 . S
C232 C231 1.390 . S
C232 C233 1.392 . S
C233 H205 0.929 . S
C233 C230 1.391 . S
C233 C232 1.392 . S
N234 Co178 2.257 . S
N234 C231 1.391 . S
N234 C235 1.388 . S
C235 H206 0.930 . S
C235 C230 1.391 . S
C235 N234 1.388 . S
Co236 O238 2.143 . S
Co236 O244 2.074 . S
Co236 O247 2.093 . S
Co236 O260 2.097 . S
Co236 N277 2.151 . S
Co236 N285 2.214 . S
Co237 O238 2.160 . S
Co237 O243 2.058 . S
Co237 O253 2.057 . S
Co237 O268 2.037 . S
Co237 N272 2.145 . S
Co237 N293 2.257 . S
O238 Co236 2.143 . S
O238 Co237 2.160 . S
C239 O240 1.278 . S
C239 O247 1.224 . S
O240 C239 1.278 . S
C241 O242 1.245 . S
C241 O253 1.232 . S
O242 C241 1.245 . S
O243 Co237 2.058 . S
O243 C269 1.269 . S
O244 Co236 2.074 . S
O244 C269 1.257 . S
H245 C270 0.930 . S
H246 C276 0.930 . S
O247 Co236 2.093 . S
O247 C239 1.224 . S
H248 C280 0.929 . S
H249 C282 0.930 . S
H250 C283 0.930 . S
H251 C281 0.929 . S
H252 C284 0.928 . S
O253 Co237 2.057 . S
O253 C241 1.232 . S
H254 C273 0.929 . S
H255 C274 0.929 . S
H256 C286 0.931 . S
H257 C278 0.929 . S
H258 C287 0.930 . S
H259 C279 0.931 . S
O260 Co236 2.097 . S
O260 C288 1.214 . S
H261 C289 0.929 . S
H262 C290 0.929 . S
H263 C291 0.930 . S
H264 C292 0.929 . S
H265 C294 0.930 . S
H266 C271 0.930 . S
H267 C275 0.930 . S
O268 Co237 2.037 . S
O268 C288 1.234 . S
C269 O243 1.269 . S
C269 O244 1.257 . S
C270 H245 0.930 . S
C270 C273 1.388 . S
C270 C275 1.418 . S
C271 H266 0.930 . S
C271 C274 1.404 . S
C271 C275 1.353 . S
N272 Co237 2.145 . S
N272 C273 1.397 . S
N272 C274 1.334 . S
C273 H254 0.929 . S
C273 C270 1.388 . S
C273 N272 1.397 . S
C274 H255 0.929 . S
C274 C271 1.404 . S
C274 N272 1.334 . S
C275 H267 0.930 . S
C275 C270 1.418 . S
C275 C271 1.353 . S
C276 H246 0.930 . S
C276 N277 1.330 . S
C276 C278 1.446 . S
N277 Co236 2.151 . S
N277 C276 1.330 . S
N277 C281 1.418 . S
C278 H257 0.929 . S
C278 C276 1.446 . S
C278 C279 1.332 . S
C279 H259 0.931 . S
C279 C278 1.332 . S
C279 C280 1.267 . S
C280 H248 0.929 . S
C280 C279 1.267 . S
C280 C281 1.251 . S
C281 H251 0.929 . S
C281 N277 1.418 . S
C281 C280 1.251 . S
C282 H249 0.930 . S
C282 C284 1.406 . S
C282 C287 1.261 . S
C283 H250 0.930 . S
C283 N285 1.325 . S
C283 C286 1.357 . S
C284 H252 0.928 . S
C284 C282 1.406 . S
C284 N285 1.261 . S
N285 Co236 2.214 . S
N285 C283 1.325 . S
N285 C284 1.261 . S
C286 H256 0.931 . S
C286 C283 1.357 . S
C286 C287 1.312 . S
C287 H258 0.930 . S
C287 C282 1.261 . S
C287 C286 1.312 . S
C288 O260 1.214 . S
C288 O268 1.234 . S
C289 H261 0.929 . S
C289 C292 1.391 . S
C289 C294 1.391 . S
C290 H262 0.929 . S
C290 C291 1.390 . S
C290 N293 1.391 . S
C291 H263 0.930 . S
C291 C290 1.390 . S
C291 C292 1.392 . S
C292 H264 0.929 . S
C292 C289 1.391 . S
C292 C291 1.392 . S
N293 Co237 2.257 . S
N293 C290 1.391 . S
N293 C294 1.388 . S
C294 H265 0.930 . S
C294 C289 1.391 . S
C294 N293 1.388 . S
Co295 O297 2.143 . S
Co295 O303 2.074 . S
Co295 O306 2.093 . S
Co295 O319 2.097 . S
Co295 N336 2.151 . S
Co295 N344 2.214 . S
Co296 O297 2.160 . S
Co296 O302 2.058 . S
Co296 O312 2.057 . S
Co296 O327 2.037 . S
Co296 N331 2.145 . S
Co296 N352 2.257 . S
O297 Co295 2.143 . S
O297 Co296 2.160 . S
C298 O299 1.278 . S
C298 O306 1.224 . S
O299 C298 1.278 . S
C300 O301 1.245 . S
C300 O312 1.232 . S
O301 C300 1.245 . S
O302 Co296 2.058 . S
O302 C328 1.269 . S
O303 Co295 2.074 . S
O303 C328 1.257 . S
H304 C329 0.930 . S
H305 C335 0.930 . S
O306 Co295 2.093 . S
O306 C298 1.224 . S
H307 C339 0.929 . S
H308 C341 0.930 . S
H309 C342 0.930 . S
H310 C340 0.929 . S
H311 C343 0.928 . S
O312 Co296 2.057 . S
O312 C300 1.232 . S
H313 C332 0.929 . S
H314 C333 0.929 . S
H315 C345 0.931 . S
H316 C337 0.929 . S
H317 C346 0.930 . S
H318 C338 0.931 . S
O319 Co295 2.097 . S
O319 C347 1.214 . S
H320 C348 0.929 . S
H321 C349 0.929 . S
H322 C350 0.930 . S
H323 C351 0.929 . S
H324 C353 0.930 . S
H325 C330 0.930 . S
H326 C334 0.930 . S
O327 Co296 2.037 . S
O327 C347 1.234 . S
C328 O302 1.269 . S
C328 O303 1.257 . S
C329 H304 0.930 . S
C329 C332 1.388 . S
C329 C334 1.418 . S
C330 H325 0.930 . S
C330 C333 1.404 . S
C330 C334 1.353 . S
N331 Co296 2.145 . S
N331 C332 1.397 . S
N331 C333 1.334 . S
C332 H313 0.929 . S
C332 C329 1.388 . S
C332 N331 1.397 . S
C333 H314 0.929 . S
C333 C330 1.404 . S
C333 N331 1.334 . S
C334 H326 0.930 . S
C334 C329 1.418 . S
C334 C330 1.353 . S
C335 H305 0.930 . S
C335 N336 1.330 . S
C335 C337 1.446 . S
N336 Co295 2.151 . S
N336 C335 1.330 . S
N336 C340 1.418 . S
C337 H316 0.929 . S
C337 C335 1.446 . S
C337 C338 1.332 . S
C338 H318 0.931 . S
C338 C337 1.332 . S
C338 C339 1.267 . S
C339 H307 0.929 . S
C339 C338 1.267 . S
C339 C340 1.251 . S
C340 H310 0.929 . S
C340 N336 1.418 . S
C340 C339 1.251 . S
C341 H308 0.930 . S
C341 C343 1.406 . S
C341 C346 1.261 . S
C342 H309 0.930 . S
C342 N344 1.325 . S
C342 C345 1.357 . S
C343 H311 0.928 . S
C343 C341 1.406 . S
C343 N344 1.261 . S
N344 Co295 2.214 . S
N344 C342 1.325 . S
N344 C343 1.261 . S
C345 H315 0.931 . S
C345 C342 1.357 . S
C345 C346 1.312 . S
C346 H317 0.930 . S
C346 C341 1.261 . S
C346 C345 1.312 . S
C347 O319 1.214 . S
C347 O327 1.234 . S
C348 H320 0.929 . S
C348 C351 1.391 . S
C348 C353 1.391 . S
C349 H321 0.929 . S
C349 C350 1.390 . S
C349 N352 1.391 . S
C350 H322 0.930 . S
C350 C349 1.390 . S
C350 C351 1.392 . S
C351 H323 0.929 . S
C351 C348 1.391 . S
C351 C350 1.392 . S
N352 Co296 2.257 . S
N352 C349 1.391 . S
N352 C353 1.388 . S
C353 H324 0.930 . S
C353 C348 1.391 . S
C353 N352 1.388 . S
Co354 O356 2.143 . S
Co354 O362 2.074 . S
Co354 O365 2.093 . S
Co354 O378 2.097 . S
Co354 N395 2.151 . S
Co354 N403 2.214 . S
Co355 O356 2.160 . S
Co355 O361 2.058 . S
Co355 O371 2.057 . S
Co355 O386 2.037 . S
Co355 N390 2.145 . S
Co355 N411 2.257 . S
O356 Co354 2.143 . S
O356 Co355 2.160 . S
C357 O358 1.278 . S
C357 O365 1.224 . S
O358 C357 1.278 . S
C359 O360 1.245 . S
C359 O371 1.232 . S
O360 C359 1.245 . S
O361 Co355 2.058 . S
O361 C387 1.269 . S
O362 Co354 2.074 . S
O362 C387 1.257 . S
H363 C388 0.930 . S
H364 C394 0.930 . S
O365 Co354 2.093 . S
O365 C357 1.224 . S
H366 C398 0.929 . S
H367 C400 0.930 . S
H368 C401 0.930 . S
H369 C399 0.929 . S
H370 C402 0.928 . S
O371 Co355 2.057 . S
O371 C359 1.232 . S
H372 C391 0.929 . S
H373 C392 0.929 . S
H374 C404 0.931 . S
H375 C396 0.929 . S
H376 C405 0.930 . S
H377 C397 0.931 . S
O378 Co354 2.097 . S
O378 C406 1.214 . S
H379 C407 0.929 . S
H380 C408 0.929 . S
H381 C409 0.930 . S
H382 C410 0.929 . S
H383 C412 0.930 . S
H384 C389 0.930 . S
H385 C393 0.930 . S
O386 Co355 2.037 . S
O386 C406 1.234 . S
C387 O361 1.269 . S
C387 O362 1.257 . S
C388 H363 0.930 . S
C388 C391 1.388 . S
C388 C393 1.418 . S
C389 H384 0.930 . S
C389 C392 1.404 . S
C389 C393 1.353 . S
N390 Co355 2.145 . S
N390 C391 1.397 . S
N390 C392 1.334 . S
C391 H372 0.929 . S
C391 C388 1.388 . S
C391 N390 1.397 . S
C392 H373 0.929 . S
C392 C389 1.404 . S
C392 N390 1.334 . S
C393 H385 0.930 . S
C393 C388 1.418 . S
C393 C389 1.353 . S
C394 H364 0.930 . S
C394 N395 1.330 . S
C394 C396 1.446 . S
N395 Co354 2.151 . S
N395 C394 1.330 . S
N395 C399 1.418 . S
C396 H375 0.929 . S
C396 C394 1.446 . S
C396 C397 1.332 . S
C397 H377 0.931 . S
C397 C396 1.332 . S
C397 C398 1.267 . S
C398 H366 0.929 . S
C398 C397 1.267 . S
C398 C399 1.251 . S
C399 H369 0.929 . S
C399 N395 1.418 . S
C399 C398 1.251 . S
C400 H367 0.930 . S
C400 C402 1.406 . S
C400 C405 1.261 . S
C401 H368 0.930 . S
C401 N403 1.325 . S
C401 C404 1.357 . S
C402 H370 0.928 . S
C402 C400 1.406 . S
C402 N403 1.261 . S
N403 Co354 2.214 . S
N403 C401 1.325 . S
N403 C402 1.261 . S
C404 H374 0.931 . S
C404 C401 1.357 . S
C404 C405 1.312 . S
C405 H376 0.930 . S
C405 C400 1.261 . S
C405 C404 1.312 . S
C406 O378 1.214 . S
C406 O386 1.234 . S
C407 H379 0.929 . S
C407 C410 1.391 . S
C407 C412 1.391 . S
C408 H380 0.929 . S
C408 C409 1.390 . S
C408 N411 1.391 . S
C409 H381 0.930 . S
C409 C408 1.390 . S
C409 C410 1.392 . S
C410 H382 0.929 . S
C410 C407 1.391 . S
C410 C409 1.392 . S
N411 Co355 2.257 . S
N411 C408 1.391 . S
N411 C412 1.388 . S
C412 H383 0.930 . S
C412 C407 1.391 . S
C412 N411 1.388 . S
Co413 O415 2.143 . S
Co413 O421 2.074 . S
Co413 O424 2.093 . S
Co413 O437 2.097 . S
Co413 N454 2.151 . S
Co413 N462 2.214 . S
Co414 O415 2.160 . S
Co414 O420 2.058 . S
Co414 O430 2.057 . S
Co414 O445 2.037 . S
Co414 N449 2.145 . S
Co414 N470 2.257 . S
O415 Co413 2.143 . S
O415 Co414 2.160 . S
C416 O417 1.278 . S
C416 O424 1.224 . S
O417 C416 1.278 . S
C418 O419 1.245 . S
C418 O430 1.232 . S
O419 C418 1.245 . S
O420 Co414 2.058 . S
O420 C446 1.269 . S
O421 Co413 2.074 . S
O421 C446 1.257 . S
H422 C447 0.930 . S
H423 C453 0.930 . S
O424 Co413 2.093 . S
O424 C416 1.224 . S
H425 C457 0.929 . S
H426 C459 0.930 . S
H427 C460 0.930 . S
H428 C458 0.929 . S
H429 C461 0.928 . S
O430 Co414 2.057 . S
O430 C418 1.232 . S
H431 C450 0.929 . S
H432 C451 0.929 . S
H433 C463 0.931 . S
H434 C455 0.929 . S
H435 C464 0.930 . S
H436 C456 0.931 . S
O437 Co413 2.097 . S
O437 C465 1.214 . S
H438 C466 0.929 . S
H439 C467 0.929 . S
H440 C468 0.930 . S
H441 C469 0.929 . S
H442 C471 0.930 . S
H443 C448 0.930 . S
H444 C452 0.930 . S
O445 Co414 2.037 . S
O445 C465 1.234 . S
C446 O420 1.269 . S
C446 O421 1.257 . S
C447 H422 0.930 . S
C447 C450 1.388 . S
C447 C452 1.418 . S
C448 H443 0.930 . S
C448 C451 1.404 . S
C448 C452 1.353 . S
N449 Co414 2.145 . S
N449 C450 1.397 . S
N449 C451 1.334 . S
C450 H431 0.929 . S
C450 C447 1.388 . S
C450 N449 1.397 . S
C451 H432 0.929 . S
C451 C448 1.404 . S
C451 N449 1.334 . S
C452 H444 0.930 . S
C452 C447 1.418 . S
C452 C448 1.353 . S
C453 H423 0.930 . S
C453 N454 1.330 . S
C453 C455 1.446 . S
N454 Co413 2.151 . S
N454 C453 1.330 . S
N454 C458 1.418 . S
C455 H434 0.929 . S
C455 C453 1.446 . S
C455 C456 1.332 . S
C456 H436 0.931 . S
C456 C455 1.332 . S
C456 C457 1.267 . S
C457 H425 0.929 . S
C457 C456 1.267 . S
C457 C458 1.251 . S
C458 H428 0.929 . S
C458 N454 1.418 . S
C458 C457 1.251 . S
C459 H426 0.930 . S
C459 C461 1.406 . S
C459 C464 1.261 . S
C460 H427 0.930 . S
C460 N462 1.325 . S
C460 C463 1.357 . S
C461 H429 0.928 . S
C461 C459 1.406 . S
C461 N462 1.261 . S
N462 Co413 2.214 . S
N462 C460 1.325 . S
N462 C461 1.261 . S
C463 H433 0.931 . S
C463 C460 1.357 . S
C463 C464 1.312 . S
C464 H435 0.930 . S
C464 C459 1.261 . S
C464 C463 1.312 . S
C465 O437 1.214 . S
C465 O445 1.234 . S
C466 H438 0.929 . S
C466 C469 1.391 . S
C466 C471 1.391 . S
C467 H439 0.929 . S
C467 C468 1.390 . S
C467 N470 1.391 . S
C468 H440 0.930 . S
C468 C467 1.390 . S
C468 C469 1.392 . S
C469 H441 0.929 . S
C469 C466 1.391 . S
C469 C468 1.392 . S
N470 Co414 2.257 . S
N470 C467 1.391 . S
N470 C471 1.388 . S
C471 H442 0.930 . S
C471 C466 1.391 . S
C471 N470 1.388 . S
Co472 O474 2.143 . S
Co472 O480 2.074 . S
Co472 O483 2.093 . S
Co472 O496 2.097 . S
Co472 N513 2.151 . S
Co472 N521 2.214 . S
Co473 O474 2.160 . S
Co473 O479 2.058 . S
Co473 O489 2.057 . S
Co473 O504 2.037 . S
Co473 N508 2.145 . S
Co473 N529 2.257 . S
O474 Co472 2.143 . S
O474 Co473 2.160 . S
C475 O476 1.278 . S
C475 O483 1.224 . S
O476 C475 1.278 . S
C477 O478 1.245 . S
C477 O489 1.232 . S
O478 C477 1.245 . S
O479 Co473 2.058 . S
O479 C505 1.269 . S
O480 Co472 2.074 . S
O480 C505 1.257 . S
H481 C506 0.930 . S
H482 C512 0.930 . S
O483 Co472 2.093 . S
O483 C475 1.224 . S
H484 C516 0.929 . S
H485 C518 0.930 . S
H486 C519 0.930 . S
H487 C517 0.929 . S
H488 C520 0.928 . S
O489 Co473 2.057 . S
O489 C477 1.232 . S
H490 C509 0.929 . S
H491 C510 0.929 . S
H492 C522 0.931 . S
H493 C514 0.929 . S
H494 C523 0.930 . S
H495 C515 0.931 . S
O496 Co472 2.097 . S
O496 C524 1.214 . S
H497 C525 0.929 . S
H498 C526 0.929 . S
H499 C527 0.930 . S
H500 C528 0.929 . S
H501 C530 0.930 . S
H502 C507 0.930 . S
H503 C511 0.930 . S
O504 Co473 2.037 . S
O504 C524 1.234 . S
C505 O479 1.269 . S
C505 O480 1.257 . S
C506 H481 0.930 . S
C506 C509 1.388 . S
C506 C511 1.418 . S
C507 H502 0.930 . S
C507 C510 1.404 . S
C507 C511 1.353 . S
N508 Co473 2.145 . S
N508 C509 1.397 . S
N508 C510 1.334 . S
C509 H490 0.929 . S
C509 C506 1.388 . S
C509 N508 1.397 . S
C510 H491 0.929 . S
C510 C507 1.404 . S
C510 N508 1.334 . S
C511 H503 0.930 . S
C511 C506 1.418 . S
C511 C507 1.353 . S
C512 H482 0.930 . S
C512 N513 1.330 . S
C512 C514 1.446 . S
N513 Co472 2.151 . S
N513 C512 1.330 . S
N513 C517 1.418 . S
C514 H493 0.929 . S
C514 C512 1.446 . S
C514 C515 1.332 . S
C515 H495 0.931 . S
C515 C514 1.332 . S
C515 C516 1.267 . S
C516 H484 0.929 . S
C516 C515 1.267 . S
C516 C517 1.251 . S
C517 H487 0.929 . S
C517 N513 1.418 . S
C517 C516 1.251 . S
C518 H485 0.930 . S
C518 C520 1.406 . S
C518 C523 1.261 . S
C519 H486 0.930 . S
C519 N521 1.325 . S
C519 C522 1.357 . S
C520 H488 0.928 . S
C520 C518 1.406 . S
C520 N521 1.261 . S
N521 Co472 2.214 . S
N521 C519 1.325 . S
N521 C520 1.261 . S
C522 H492 0.931 . S
C522 C519 1.357 . S
C522 C523 1.312 . S
C523 H494 0.930 . S
C523 C518 1.261 . S
C523 C522 1.312 . S
C524 O496 1.214 . S
C524 O504 1.234 . S
C525 H497 0.929 . S
C525 C528 1.391 1_565 S
C525 C530 1.391 . S
C526 H498 0.929 . S
C526 C527 1.390 1_565 S
C526 N529 1.391 . S
C527 H499 0.930 . S
C527 C526 1.390 1_545 S
C527 C528 1.392 . S
C528 H500 0.929 . S
C528 C525 1.391 1_545 S
C528 C527 1.392 . S
N529 Co473 2.257 . S
N529 C526 1.391 . S
N529 C530 1.388 . S
C530 H501 0.930 . S
C530 C525 1.391 . S
C530 N529 1.388 . S
Co531 O533 2.143 . S
Co531 O539 2.074 . S
Co531 O542 2.093 . S
Co531 O555 2.097 . S
Co531 N572 2.151 . S
Co531 N580 2.214 . S
Co532 O533 2.160 . S
Co532 O538 2.058 . S
Co532 O548 2.057 . S
Co532 O563 2.037 . S
Co532 N567 2.145 . S
Co532 N588 2.257 . S
O533 Co531 2.143 . S
O533 Co532 2.160 . S
C534 O535 1.278 . S
C534 O542 1.224 . S
O535 C534 1.278 . S
C536 O537 1.245 . S
C536 O548 1.232 . S
O537 C536 1.245 . S
O538 Co532 2.058 . S
O538 C564 1.269 . S
O539 Co531 2.074 . S
O539 C564 1.257 . S
H540 C565 0.930 . S
H541 C571 0.930 . S
O542 Co531 2.093 . S
O542 C534 1.224 . S
H543 C575 0.929 . S
H544 C577 0.930 . S
H545 C578 0.930 . S
H546 C576 0.929 . S
H547 C579 0.928 . S
O548 Co532 2.057 . S
O548 C536 1.232 . S
H549 C568 0.929 . S
H550 C569 0.929 . S
H551 C581 0.931 . S
H552 C573 0.929 . S
H553 C582 0.930 . S
H554 C574 0.931 . S
O555 Co531 2.097 . S
O555 C583 1.214 . S
H556 C584 0.929 . S
H557 C585 0.929 . S
H558 C586 0.930 . S
H559 C587 0.929 . S
H560 C589 0.930 . S
H561 C566 0.930 . S
H562 C570 0.930 . S
O563 Co532 2.037 . S
O563 C583 1.234 . S
C564 O538 1.269 . S
C564 O539 1.257 . S
C565 H540 0.930 . S
C565 C568 1.388 . S
C565 C570 1.418 . S
C566 H561 0.930 . S
C566 C569 1.404 . S
C566 C570 1.353 . S
N567 Co532 2.145 . S
N567 C568 1.397 . S
N567 C569 1.334 . S
C568 H549 0.929 . S
C568 C565 1.388 . S
C568 N567 1.397 . S
C569 H550 0.929 . S
C569 C566 1.404 . S
C569 N567 1.334 . S
C570 H562 0.930 . S
C570 C565 1.418 . S
C570 C566 1.353 . S
C571 H541 0.930 . S
C571 N572 1.330 . S
C571 C573 1.446 . S
N572 Co531 2.151 . S
N572 C571 1.330 . S
N572 C576 1.418 . S
C573 H552 0.929 . S
C573 C571 1.446 . S
C573 C574 1.332 . S
C574 H554 0.931 . S
C574 C573 1.332 . S
C574 C575 1.267 . S
C575 H543 0.929 . S
C575 C574 1.267 . S
C575 C576 1.251 . S
C576 H546 0.929 . S
C576 N572 1.418 . S
C576 C575 1.251 . S
C577 H544 0.930 . S
C577 C579 1.406 . S
C577 C582 1.261 . S
C578 H545 0.930 . S
C578 N580 1.325 . S
C578 C581 1.357 . S
C579 H547 0.928 . S
C579 C577 1.406 . S
C579 N580 1.261 . S
N580 Co531 2.214 . S
N580 C578 1.325 . S
N580 C579 1.261 . S
C581 H551 0.931 . S
C581 C578 1.357 . S
C581 C582 1.312 . S
C582 H553 0.930 . S
C582 C577 1.261 . S
C582 C581 1.312 . S
C583 O555 1.214 . S
C583 O563 1.234 . S
C584 H556 0.929 . S
C584 C587 1.391 1_655 S
C584 C589 1.391 . S
C585 H557 0.929 . S
C585 C586 1.390 1_655 S
C585 N588 1.391 . S
C586 H558 0.930 . S
C586 C585 1.390 1_455 S
C586 C587 1.392 . S
C587 H559 0.929 . S
C587 C584 1.391 1_455 S
C587 C586 1.392 . S
N588 Co532 2.257 . S
N588 C585 1.391 . S
N588 C589 1.388 . S
C589 H560 0.930 . S
C589 C584 1.391 . S
C589 N588 1.388 . S
Co590 O592 2.143 . S
Co590 O598 2.074 . S
Co590 O601 2.093 . S
Co590 O614 2.097 . S
Co590 N631 2.151 . S
Co590 N639 2.214 . S
Co591 O592 2.160 . S
Co591 O597 2.058 . S
Co591 O607 2.057 . S
Co591 O622 2.037 . S
Co591 N626 2.145 . S
Co591 N647 2.257 . S
O592 Co590 2.143 . S
O592 Co591 2.160 . S
C593 O594 1.278 . S
C593 O601 1.224 . S
O594 C593 1.278 . S
C595 O596 1.245 . S
C595 O607 1.232 . S
O596 C595 1.245 . S
O597 Co591 2.058 . S
O597 C623 1.269 . S
O598 Co590 2.074 . S
O598 C623 1.257 . S
H599 C624 0.930 . S
H600 C630 0.930 . S
O601 Co590 2.093 . S
O601 C593 1.224 . S
H602 C634 0.929 . S
H603 C636 0.930 . S
H604 C637 0.930 . S
H605 C635 0.929 . S
H606 C638 0.928 . S
O607 Co591 2.057 . S
O607 C595 1.232 . S
H608 C627 0.929 . S
H609 C628 0.929 . S
H610 C640 0.931 . S
H611 C632 0.929 . S
H612 C641 0.930 . S
H613 C633 0.931 . S
O614 Co590 2.097 . S
O614 C642 1.214 . S
H615 C643 0.929 . S
H616 C644 0.929 . S
H617 C645 0.930 . S
H618 C646 0.929 . S
H619 C648 0.930 . S
H620 C625 0.930 . S
H621 C629 0.930 . S
O622 Co591 2.037 . S
O622 C642 1.234 . S
C623 O597 1.269 . S
C623 O598 1.257 . S
C624 H599 0.930 . S
C624 C627 1.388 . S
C624 C629 1.418 . S
C625 H620 0.930 . S
C625 C628 1.404 . S
C625 C629 1.353 . S
N626 Co591 2.145 . S
N626 C627 1.397 . S
N626 C628 1.334 . S
C627 H608 0.929 . S
C627 C624 1.388 . S
C627 N626 1.397 . S
C628 H609 0.929 . S
C628 C625 1.404 . S
C628 N626 1.334 . S
C629 H621 0.930 . S
C629 C624 1.418 . S
C629 C625 1.353 . S
C630 H600 0.930 . S
C630 N631 1.330 . S
C630 C632 1.446 . S
N631 Co590 2.151 . S
N631 C630 1.330 . S
N631 C635 1.418 . S
C632 H611 0.929 . S
C632 C630 1.446 . S
C632 C633 1.332 . S
C633 H613 0.931 . S
C633 C632 1.332 . S
C633 C634 1.267 . S
C634 H602 0.929 . S
C634 C633 1.267 . S
C634 C635 1.251 . S
C635 H605 0.929 . S
C635 N631 1.418 . S
C635 C634 1.251 . S
C636 H603 0.930 . S
C636 C638 1.406 . S
C636 C641 1.261 . S
C637 H604 0.930 . S
C637 N639 1.325 . S
C637 C640 1.357 . S
C638 H606 0.928 . S
C638 C636 1.406 . S
C638 N639 1.261 . S
N639 Co590 2.214 . S
N639 C637 1.325 . S
N639 C638 1.261 . S
C640 H610 0.931 . S
C640 C637 1.357 . S
C640 C641 1.312 . S
C641 H612 0.930 . S
C641 C636 1.261 . S
C641 C640 1.312 . S
C642 O614 1.214 . S
C642 O622 1.234 . S
C643 H615 0.929 . S
C643 C646 1.391 1_545 S
C643 C648 1.391 . S
C644 H616 0.929 . S
C644 C645 1.390 1_545 S
C644 N647 1.391 . S
C645 H617 0.930 . S
C645 C644 1.390 1_565 S
C645 C646 1.392 . S
C646 H618 0.929 . S
C646 C643 1.391 1_565 S
C646 C645 1.392 . S
N647 Co591 2.257 . S
N647 C644 1.391 . S
N647 C648 1.388 . S
C648 H619 0.930 . S
C648 C643 1.391 . S
C648 N647 1.388 . S
Co649 O651 2.143 . S
Co649 O657 2.074 . S
Co649 O660 2.093 . S
Co649 O673 2.097 . S
Co649 N690 2.151 . S
Co649 N698 2.214 . S
Co650 O651 2.160 . S
Co650 O656 2.058 . S
Co650 O666 2.057 . S
Co650 O681 2.037 . S
Co650 N685 2.145 . S
Co650 N706 2.257 . S
O651 Co649 2.143 . S
O651 Co650 2.160 . S
C652 O653 1.278 . S
C652 O660 1.224 . S
O653 C652 1.278 . S
C654 O655 1.245 . S
C654 O666 1.232 . S
O655 C654 1.245 . S
O656 Co650 2.058 . S
O656 C682 1.269 . S
O657 Co649 2.074 . S
O657 C682 1.257 . S
H658 C683 0.930 . S
H659 C689 0.930 . S
O660 Co649 2.093 . S
O660 C652 1.224 . S
H661 C693 0.929 . S
H662 C695 0.930 . S
H663 C696 0.930 . S
H664 C694 0.929 . S
H665 C697 0.928 . S
O666 Co650 2.057 . S
O666 C654 1.232 . S
H667 C686 0.929 . S
H668 C687 0.929 . S
H669 C699 0.931 . S
H670 C691 0.929 . S
H671 C700 0.930 . S
H672 C692 0.931 . S
O673 Co649 2.097 . S
O673 C701 1.214 . S
H674 C702 0.929 . S
H675 C703 0.929 . S
H676 C704 0.930 . S
H677 C705 0.929 . S
H678 C707 0.930 . S
H679 C684 0.930 . S
H680 C688 0.930 . S
O681 Co650 2.037 . S
O681 C701 1.234 . S
C682 O656 1.269 . S
C682 O657 1.257 . S
C683 H658 0.930 . S
C683 C686 1.388 . S
C683 C688 1.418 . S
C684 H679 0.930 . S
C684 C687 1.404 . S
C684 C688 1.353 . S
N685 Co650 2.145 . S
N685 C686 1.397 . S
N685 C687 1.334 . S
C686 H667 0.929 . S
C686 C683 1.388 . S
C686 N685 1.397 . S
C687 H668 0.929 . S
C687 C684 1.404 . S
C687 N685 1.334 . S
C688 H680 0.930 . S
C688 C683 1.418 . S
C688 C684 1.353 . S
C689 H659 0.930 . S
C689 N690 1.330 . S
C689 C691 1.446 . S
N690 Co649 2.151 . S
N690 C689 1.330 . S
N690 C694 1.418 . S
C691 H670 0.929 . S
C691 C689 1.446 . S
C691 C692 1.332 . S
C692 H672 0.931 . S
C692 C691 1.332 . S
C692 C693 1.267 . S
C693 H661 0.929 . S
C693 C692 1.267 . S
C693 C694 1.251 . S
C694 H664 0.929 . S
C694 N690 1.418 . S
C694 C693 1.251 . S
C695 H662 0.930 . S
C695 C697 1.406 . S
C695 C700 1.261 . S
C696 H663 0.930 . S
C696 N698 1.325 . S
C696 C699 1.357 . S
C697 H665 0.928 . S
C697 C695 1.406 . S
C697 N698 1.261 . S
N698 Co649 2.214 . S
N698 C696 1.325 . S
N698 C697 1.261 . S
C699 H669 0.931 . S
C699 C696 1.357 . S
C699 C700 1.312 . S
C700 H671 0.930 . S
C700 C695 1.261 . S
C700 C699 1.312 . S
C701 O673 1.214 . S
C701 O681 1.234 . S
C702 H674 0.929 . S
C702 C705 1.391 1_455 S
C702 C707 1.391 . S
C703 H675 0.929 . S
C703 C704 1.390 1_455 S
C703 N706 1.391 . S
C704 H676 0.930 . S
C704 C703 1.390 1_655 S
C704 C705 1.392 . S
C705 H677 0.929 . S
C705 C702 1.391 1_655 S
C705 C704 1.392 . S
N706 Co650 2.257 . S
N706 C703 1.391 . S
N706 C707 1.388 . S
C707 H678 0.930 . S
C707 C702 1.391 . S
C707 N706 1.388 . S
Co708 O710 2.143 . S
Co708 O716 2.074 . S
Co708 O719 2.093 . S
Co708 O732 2.097 . S
Co708 N749 2.151 . S
Co708 N757 2.214 . S
Co709 O710 2.160 . S
Co709 O715 2.058 . S
Co709 O725 2.057 . S
Co709 O740 2.037 . S
Co709 N744 2.145 . S
Co709 N765 2.257 . S
O710 Co708 2.143 . S
O710 Co709 2.160 . S
C711 O712 1.278 . S
C711 O719 1.224 . S
O712 C711 1.278 . S
C713 O714 1.245 . S
C713 O725 1.232 . S
O714 C713 1.245 . S
O715 Co709 2.058 . S
O715 C741 1.269 . S
O716 Co708 2.074 . S
O716 C741 1.257 . S
H717 C742 0.930 . S
H718 C748 0.930 . S
O719 Co708 2.093 . S
O719 C711 1.224 . S
H720 C752 0.929 . S
H721 C754 0.930 . S
H722 C755 0.930 . S
H723 C753 0.929 . S
H724 C756 0.928 . S
O725 Co709 2.057 . S
O725 C713 1.232 . S
H726 C745 0.929 . S
H727 C746 0.929 . S
H728 C758 0.931 . S
H729 C750 0.929 . S
H730 C759 0.930 . S
H731 C751 0.931 . S
O732 Co708 2.097 . S
O732 C760 1.214 . S
H733 C761 0.929 . S
H734 C762 0.929 . S
H735 C763 0.930 . S
H736 C764 0.929 . S
H737 C766 0.930 . S
H738 C743 0.930 . S
H739 C747 0.930 . S
O740 Co709 2.037 . S
O740 C760 1.234 . S
C741 O715 1.269 . S
C741 O716 1.257 . S
C742 H717 0.930 . S
C742 C745 1.388 . S
C742 C747 1.418 . S
C743 H738 0.930 . S
C743 C746 1.404 . S
C743 C747 1.353 . S
N744 Co709 2.145 . S
N744 C745 1.397 . S
N744 C746 1.334 . S
C745 H726 0.929 . S
C745 C742 1.388 . S
C745 N744 1.397 . S
C746 H727 0.929 . S
C746 C743 1.404 . S
C746 N744 1.334 . S
C747 H739 0.930 . S
C747 C742 1.418 . S
C747 C743 1.353 . S
C748 H718 0.930 . S
C748 N749 1.330 . S
C748 C750 1.446 . S
N749 Co708 2.151 . S
N749 C748 1.330 . S
N749 C753 1.418 . S
C750 H729 0.929 . S
C750 C748 1.446 . S
C750 C751 1.332 . S
C751 H731 0.931 . S
C751 C750 1.332 . S
C751 C752 1.267 . S
C752 H720 0.929 . S
C752 C751 1.267 . S
C752 C753 1.251 . S
C753 H723 0.929 . S
C753 N749 1.418 . S
C753 C752 1.251 . S
C754 H721 0.930 . S
C754 C756 1.406 . S
C754 C759 1.261 . S
C755 H722 0.930 . S
C755 N757 1.325 . S
C755 C758 1.357 . S
C756 H724 0.928 . S
C756 C754 1.406 . S
C756 N757 1.261 . S
N757 Co708 2.214 . S
N757 C755 1.325 . S
N757 C756 1.261 . S
C758 H728 0.931 . S
C758 C755 1.357 . S
C758 C759 1.312 . S
C759 H730 0.930 . S
C759 C754 1.261 . S
C759 C758 1.312 . S
C760 O732 1.214 . S
C760 O740 1.234 . S
C761 H733 0.929 . S
C761 C764 1.391 1_545 S
C761 C766 1.391 . S
C762 H734 0.929 . S
C762 C763 1.390 1_545 S
C762 N765 1.391 . S
C763 H735 0.930 . S
C763 C762 1.390 1_565 S
C763 C764 1.392 . S
C764 H736 0.929 . S
C764 C761 1.391 1_565 S
C764 C763 1.392 . S
N765 Co709 2.257 . S
N765 C762 1.391 . S
N765 C766 1.388 . S
C766 H737 0.930 . S
C766 C761 1.391 . S
C766 N765 1.388 . S
Co767 O769 2.143 . S
Co767 O775 2.074 . S
Co767 O778 2.093 . S
Co767 O791 2.097 . S
Co767 N808 2.151 . S
Co767 N816 2.214 . S
Co768 O769 2.160 . S
Co768 O774 2.058 . S
Co768 O784 2.057 . S
Co768 O799 2.037 . S
Co768 N803 2.145 . S
Co768 N824 2.257 . S
O769 Co767 2.143 . S
O769 Co768 2.160 . S
C770 O771 1.278 . S
C770 O778 1.224 . S
O771 C770 1.278 . S
C772 O773 1.245 . S
C772 O784 1.232 . S
O773 C772 1.245 . S
O774 Co768 2.058 . S
O774 C800 1.269 . S
O775 Co767 2.074 . S
O775 C800 1.257 . S
H776 C801 0.930 . S
H777 C807 0.930 . S
O778 Co767 2.093 . S
O778 C770 1.224 . S
H779 C811 0.929 . S
H780 C813 0.930 . S
H781 C814 0.930 . S
H782 C812 0.929 . S
H783 C815 0.928 . S
O784 Co768 2.057 . S
O784 C772 1.232 . S
H785 C804 0.929 . S
H786 C805 0.929 . S
H787 C817 0.931 . S
H788 C809 0.929 . S
H789 C818 0.930 . S
H790 C810 0.931 . S
O791 Co767 2.097 . S
O791 C819 1.214 . S
H792 C820 0.929 . S
H793 C821 0.929 . S
H794 C822 0.930 . S
H795 C823 0.929 . S
H796 C825 0.930 . S
H797 C802 0.930 . S
H798 C806 0.930 . S
O799 Co768 2.037 . S
O799 C819 1.234 . S
C800 O774 1.269 . S
C800 O775 1.257 . S
C801 H776 0.930 . S
C801 C804 1.388 . S
C801 C806 1.418 . S
C802 H797 0.930 . S
C802 C805 1.404 . S
C802 C806 1.353 . S
N803 Co768 2.145 . S
N803 C804 1.397 . S
N803 C805 1.334 . S
C804 H785 0.929 . S
C804 C801 1.388 . S
C804 N803 1.397 . S
C805 H786 0.929 . S
C805 C802 1.404 . S
C805 N803 1.334 . S
C806 H798 0.930 . S
C806 C801 1.418 . S
C806 C802 1.353 . S
C807 H777 0.930 . S
C807 N808 1.330 . S
C807 C809 1.446 . S
N808 Co767 2.151 . S
N808 C807 1.330 . S
N808 C812 1.418 . S
C809 H788 0.929 . S
C809 C807 1.446 . S
C809 C810 1.332 . S
C810 H790 0.931 . S
C810 C809 1.332 . S
C810 C811 1.267 . S
C811 H779 0.929 . S
C811 C810 1.267 . S
C811 C812 1.251 . S
C812 H782 0.929 . S
C812 N808 1.418 . S
C812 C811 1.251 . S
C813 H780 0.930 . S
C813 C815 1.406 . S
C813 C818 1.261 . S
C814 H781 0.930 . S
C814 N816 1.325 . S
C814 C817 1.357 . S
C815 H783 0.928 . S
C815 C813 1.406 . S
C815 N816 1.261 . S
N816 Co767 2.214 . S
N816 C814 1.325 . S
N816 C815 1.261 . S
C817 H787 0.931 . S
C817 C814 1.357 . S
C817 C818 1.312 . S
C818 H789 0.930 . S
C818 C813 1.261 . S
C818 C817 1.312 . S
C819 O791 1.214 . S
C819 O799 1.234 . S
C820 H792 0.929 . S
C820 C823 1.391 1_455 S
C820 C825 1.391 . S
C821 H793 0.929 . S
C821 C822 1.390 1_455 S
C821 N824 1.391 . S
C822 H794 0.930 . S
C822 C821 1.390 1_655 S
C822 C823 1.392 . S
C823 H795 0.929 . S
C823 C820 1.391 1_655 S
C823 C822 1.392 . S
N824 Co768 2.257 . S
N824 C821 1.391 . S
N824 C825 1.388 . S
C825 H796 0.930 . S
C825 C820 1.391 . S
C825 N824 1.388 . S
Co826 O828 2.143 . S
Co826 O834 2.074 . S
Co826 O837 2.093 . S
Co826 O850 2.097 . S
Co826 N867 2.151 . S
Co826 N875 2.214 . S
Co827 O828 2.160 . S
Co827 O833 2.058 . S
Co827 O843 2.057 . S
Co827 O858 2.037 . S
Co827 N862 2.145 . S
Co827 N883 2.257 . S
O828 Co826 2.143 . S
O828 Co827 2.160 . S
C829 O830 1.278 . S
C829 O837 1.224 . S
O830 C829 1.278 . S
C831 O832 1.245 . S
C831 O843 1.232 . S
O832 C831 1.245 . S
O833 Co827 2.058 . S
O833 C859 1.269 . S
O834 Co826 2.074 . S
O834 C859 1.257 . S
H835 C860 0.930 . S
H836 C866 0.930 . S
O837 Co826 2.093 . S
O837 C829 1.224 . S
H838 C870 0.929 . S
H839 C872 0.930 . S
H840 C873 0.930 . S
H841 C871 0.929 . S
H842 C874 0.928 . S
O843 Co827 2.057 . S
O843 C831 1.232 . S
H844 C863 0.929 . S
H845 C864 0.929 . S
H846 C876 0.931 . S
H847 C868 0.929 . S
H848 C877 0.930 . S
H849 C869 0.931 . S
O850 Co826 2.097 . S
O850 C878 1.214 . S
H851 C879 0.929 . S
H852 C880 0.929 . S
H853 C881 0.930 . S
H854 C882 0.929 . S
H855 C884 0.930 . S
H856 C861 0.930 . S
H857 C865 0.930 . S
O858 Co827 2.037 . S
O858 C878 1.234 . S
C859 O833 1.269 . S
C859 O834 1.257 . S
C860 H835 0.930 . S
C860 C863 1.388 . S
C860 C865 1.418 . S
C861 H856 0.930 . S
C861 C864 1.404 . S
C861 C865 1.353 . S
N862 Co827 2.145 . S
N862 C863 1.397 . S
N862 C864 1.334 . S
C863 H844 0.929 . S
C863 C860 1.388 . S
C863 N862 1.397 . S
C864 H845 0.929 . S
C864 C861 1.404 . S
C864 N862 1.334 . S
C865 H857 0.930 . S
C865 C860 1.418 . S
C865 C861 1.353 . S
C866 H836 0.930 . S
C866 N867 1.330 . S
C866 C868 1.446 . S
N867 Co826 2.151 . S
N867 C866 1.330 . S
N867 C871 1.418 . S
C868 H847 0.929 . S
C868 C866 1.446 . S
C868 C869 1.332 . S
C869 H849 0.931 . S
C869 C868 1.332 . S
C869 C870 1.267 . S
C870 H838 0.929 . S
C870 C869 1.267 . S
C870 C871 1.251 . S
C871 H841 0.929 . S
C871 N867 1.418 . S
C871 C870 1.251 . S
C872 H839 0.930 . S
C872 C874 1.406 . S
C872 C877 1.261 . S
C873 H840 0.930 . S
C873 N875 1.325 . S
C873 C876 1.357 . S
C874 H842 0.928 . S
C874 C872 1.406 . S
C874 N875 1.261 . S
N875 Co826 2.214 . S
N875 C873 1.325 . S
N875 C874 1.261 . S
C876 H846 0.931 . S
C876 C873 1.357 . S
C876 C877 1.312 . S
C877 H848 0.930 . S
C877 C872 1.261 . S
C877 C876 1.312 . S
C878 O850 1.214 . S
C878 O858 1.234 . S
C879 H851 0.929 . S
C879 C882 1.391 1_565 S
C879 C884 1.391 . S
C880 H852 0.929 . S
C880 C881 1.390 1_565 S
C880 N883 1.391 . S
C881 H853 0.930 . S
C881 C880 1.390 1_545 S
C881 C882 1.392 . S
C882 H854 0.929 . S
C882 C879 1.391 1_545 S
C882 C881 1.392 . S
N883 Co827 2.257 . S
N883 C880 1.391 . S
N883 C884 1.388 . S
C884 H855 0.930 . S
C884 C879 1.391 . S
C884 N883 1.388 . S
Co885 O887 2.143 . S
Co885 O893 2.074 . S
Co885 O896 2.093 . S
Co885 O909 2.097 . S
Co885 N926 2.151 . S
Co885 N934 2.214 . S
Co886 O887 2.160 . S
Co886 O892 2.058 . S
Co886 O902 2.057 . S
Co886 O917 2.037 . S
Co886 N921 2.145 . S
Co886 N942 2.257 . S
O887 Co885 2.143 . S
O887 Co886 2.160 . S
C888 O889 1.278 . S
C888 O896 1.224 . S
O889 C888 1.278 . S
C890 O891 1.245 . S
C890 O902 1.232 . S
O891 C890 1.245 . S
O892 Co886 2.058 . S
O892 C918 1.269 . S
O893 Co885 2.074 . S
O893 C918 1.257 . S
H894 C919 0.930 . S
H895 C925 0.930 . S
O896 Co885 2.093 . S
O896 C888 1.224 . S
H897 C929 0.929 . S
H898 C931 0.930 . S
H899 C932 0.930 . S
H900 C930 0.929 . S
H901 C933 0.928 . S
O902 Co886 2.057 . S
O902 C890 1.232 . S
H903 C922 0.929 . S
H904 C923 0.929 . S
H905 C935 0.931 . S
H906 C927 0.929 . S
H907 C936 0.930 . S
H908 C928 0.931 . S
O909 Co885 2.097 . S
O909 C937 1.214 . S
H910 C938 0.929 . S
H911 C939 0.929 . S
H912 C940 0.930 . S
H913 C941 0.929 . S
H914 C943 0.930 . S
H915 C920 0.930 . S
H916 C924 0.930 . S
O917 Co886 2.037 . S
O917 C937 1.234 . S
C918 O892 1.269 . S
C918 O893 1.257 . S
C919 H894 0.930 . S
C919 C922 1.388 . S
C919 C924 1.418 . S
C920 H915 0.930 . S
C920 C923 1.404 . S
C920 C924 1.353 . S
N921 Co886 2.145 . S
N921 C922 1.397 . S
N921 C923 1.334 . S
C922 H903 0.929 . S
C922 C919 1.388 . S
C922 N921 1.397 . S
C923 H904 0.929 . S
C923 C920 1.404 . S
C923 N921 1.334 . S
C924 H916 0.930 . S
C924 C919 1.418 . S
C924 C920 1.353 . S
C925 H895 0.930 . S
C925 N926 1.330 . S
C925 C927 1.446 . S
N926 Co885 2.151 . S
N926 C925 1.330 . S
N926 C930 1.418 . S
C927 H906 0.929 . S
C927 C925 1.446 . S
C927 C928 1.332 . S
C928 H908 0.931 . S
C928 C927 1.332 . S
C928 C929 1.267 . S
C929 H897 0.929 . S
C929 C928 1.267 . S
C929 C930 1.251 . S
C930 H900 0.929 . S
C930 N926 1.418 . S
C930 C929 1.251 . S
C931 H898 0.930 . S
C931 C933 1.406 . S
C931 C936 1.261 . S
C932 H899 0.930 . S
C932 N934 1.325 . S
C932 C935 1.357 . S
C933 H901 0.928 . S
C933 C931 1.406 . S
C933 N934 1.261 . S
N934 Co885 2.214 . S
N934 C932 1.325 . S
N934 C933 1.261 . S
C935 H905 0.931 . S
C935 C932 1.357 . S
C935 C936 1.312 . S
C936 H907 0.930 . S
C936 C931 1.261 . S
C936 C935 1.312 . S
C937 O909 1.214 . S
C937 O917 1.234 . S
C938 H910 0.929 . S
C938 C941 1.391 1_655 S
C938 C943 1.391 . S
C939 H911 0.929 . S
C939 C940 1.390 1_655 S
C939 N942 1.391 . S
C940 H912 0.930 . S
C940 C939 1.390 1_455 S
C940 C941 1.392 . S
C941 H913 0.929 . S
C941 C938 1.391 1_455 S
C941 C940 1.392 . S
N942 Co886 2.257 . S
N942 C939 1.391 . S
N942 C943 1.388 . S
C943 H914 0.930 . S
C943 C938 1.391 . S
C943 N942 1.388 . S
H944 C952 0.950 . S
H945 C957 0.950 . S
H946 C954 0.950 . S
H947 C956 0.950 . S
H948 C958 0.950 . S
H949 C960 0.950 . S
H950 C962 0.950 . S
H951 C963 0.950 . S
C952 H944 0.950 . S
C952 C953 1.386 . S
C952 C954 1.391 . S
C953 C952 1.386 . S
C953 C957 1.393 . S
C954 H946 0.950 . S
C954 C952 1.391 . S
C954 C955 1.400 . S
C955 C954 1.400 . S
C955 C956 1.398 . S
C955 C961 1.491 . S
C956 H947 0.950 . S
C956 C955 1.398 . S
C956 C957 1.391 . S
C957 H945 0.950 . S
C957 C953 1.393 . S
C957 C956 1.391 . S
C958 H948 0.950 . S
C958 C959 1.386 . S
C958 C960 1.391 . S
C959 C958 1.386 . S
C959 C963 1.393 . S
C960 H949 0.950 . S
C960 C958 1.391 . S
C960 C961 1.400 . S
C961 C955 1.491 . S
C961 C960 1.400 . S
C961 C962 1.398 . S
C962 H950 0.950 . S
C962 C961 1.398 . S
C962 C963 1.391 . S
C963 H951 0.950 . S
C963 C959 1.393 . S
C963 C962 1.391 . S
H964 C972 0.950 . S
H965 C977 0.950 . S
H966 C974 0.950 . S
H967 C976 0.950 . S
H968 C978 0.950 . S
H969 C980 0.950 . S
H970 C982 0.950 . S
H971 C983 0.950 . S
C972 H964 0.950 . S
C972 C973 1.386 . S
C972 C974 1.391 . S
C973 C972 1.386 . S
C973 C977 1.393 . S
C974 H966 0.950 . S
C974 C972 1.391 . S
C974 C975 1.400 . S
C975 C974 1.400 . S
C975 C976 1.398 . S
C975 C981 1.491 . S
C976 H967 0.950 . S
C976 C975 1.398 . S
C976 C977 1.391 . S
C977 H965 0.950 . S
C977 C973 1.393 . S
C977 C976 1.391 . S
C978 H968 0.950 . S
C978 C979 1.386 . S
C978 C980 1.391 . S
C979 C978 1.386 . S
C979 C983 1.393 . S
C980 H969 0.950 . S
C980 C978 1.391 . S
C980 C981 1.400 . S
C981 C975 1.491 . S
C981 C980 1.400 . S
C981 C982 1.398 . S
C982 H970 0.950 . S
C982 C981 1.398 . S
C982 C983 1.391 . S
C983 H971 0.950 . S
C983 C979 1.393 . S
C983 C982 1.391 . S
H984 C992 0.950 . S
H985 C997 0.950 . S
H986 C994 0.950 . S
H987 C996 0.950 . S
H988 C998 0.950 . S
H989 C1000 0.950 . S
H990 C1002 0.950 . S
H991 C1003 0.950 . S
C992 H984 0.950 . S
C992 C993 1.386 . S
C992 C994 1.391 . S
C993 C992 1.386 . S
C993 C997 1.393 . S
C994 H986 0.950 . S
C994 C992 1.391 . S
C994 C995 1.400 . S
C995 C994 1.400 . S
C995 C996 1.398 . S
C995 C1001 1.491 . S
C996 H987 0.950 . S
C996 C995 1.398 . S
C996 C997 1.391 . S
C997 H985 0.950 . S
C997 C993 1.393 . S
C997 C996 1.391 . S
C998 H988 0.950 . S
C998 C999 1.386 . S
C998 C1000 1.391 . S
C999 C998 1.386 . S
C999 C1003 1.393 . S
C1000 H989 0.950 . S
C1000 C998 1.391 . S
C1000 C1001 1.400 . S
C1001 C995 1.491 . S
C1001 C1000 1.400 . S
C1001 C1002 1.398 . S
C1002 H990 0.950 . S
C1002 C1001 1.398 . S
C1002 C1003 1.391 . S
C1003 H991 0.950 . S
C1003 C999 1.393 . S
C1003 C1002 1.391 . S
H1004 C1012 0.950 . S
H1005 C1017 0.950 . S
H1006 C1014 0.950 . S
H1007 C1016 0.950 . S
H1008 C1018 0.950 . S
H1009 C1020 0.950 . S
H1010 C1022 0.950 . S
H1011 C1023 0.950 . S
C1012 H1004 0.950 . S
C1012 C1013 1.386 . S
C1012 C1014 1.391 . S
C1013 C1012 1.386 . S
C1013 C1017 1.393 . S
C1014 H1006 0.950 . S
C1014 C1012 1.391 . S
C1014 C1015 1.400 . S
C1015 C1014 1.400 . S
C1015 C1016 1.398 . S
C1015 C1021 1.491 . S
C1016 H1007 0.950 . S
C1016 C1015 1.398 . S
C1016 C1017 1.391 . S
C1017 H1005 0.950 . S
C1017 C1013 1.393 . S
C1017 C1016 1.391 . S
C1018 H1008 0.950 . S
C1018 C1019 1.386 . S
C1018 C1020 1.391 . S
C1019 C1018 1.386 . S
C1019 C1023 1.393 . S
C1020 H1009 0.950 . S
C1020 C1018 1.391 . S
C1020 C1021 1.400 . S
C1021 C1015 1.491 . S
C1021 C1020 1.400 . S
C1021 C1022 1.398 . S
C1022 H1010 0.950 . S
C1022 C1021 1.398 . S
C1022 C1023 1.391 . S
C1023 H1011 0.950 . S
C1023 C1019 1.393 . S
C1023 C1022 1.391 . S
H1024 C1032 0.950 . S
H1025 C1037 0.950 . S
H1026 C1034 0.950 . S
H1027 C1036 0.950 . S
H1028 C1038 0.950 . S
H1029 C1040 0.950 . S
H1030 C1042 0.950 . S
H1031 C1043 0.950 . S
C1032 H1024 0.950 . S
C1032 C1033 1.386 . S
C1032 C1034 1.391 . S
C1033 C1032 1.386 . S
C1033 C1037 1.393 . S
C1034 H1026 0.950 . S
C1034 C1032 1.391 . S
C1034 C1035 1.400 . S
C1035 C1034 1.400 . S
C1035 C1036 1.398 . S
C1035 C1041 1.491 . S
C1036 H1027 0.950 . S
C1036 C1035 1.398 . S
C1036 C1037 1.391 . S
C1037 H1025 0.950 . S
C1037 C1033 1.393 . S
C1037 C1036 1.391 . S
C1038 H1028 0.950 . S
C1038 C1039 1.386 . S
C1038 C1040 1.391 . S
C1039 C1038 1.386 . S
C1039 C1043 1.393 . S
C1040 H1029 0.950 . S
C1040 C1038 1.391 . S
C1040 C1041 1.400 . S
C1041 C1035 1.491 . S
C1041 C1040 1.400 . S
C1041 C1042 1.398 . S
C1042 H1030 0.950 . S
C1042 C1041 1.398 . S
C1042 C1043 1.391 . S
C1043 H1031 0.950 . S
C1043 C1039 1.393 . S
C1043 C1042 1.391 . S
H1044 C1052 0.950 . S
H1045 C1057 0.950 . S
H1046 C1054 0.950 . S
H1047 C1056 0.950 . S
H1048 C1058 0.950 . S
H1049 C1060 0.950 . S
H1050 C1062 0.950 . S
H1051 C1063 0.950 . S
C1052 H1044 0.950 . S
C1052 C1053 1.386 . S
C1052 C1054 1.391 . S
C1053 C1052 1.386 . S
C1053 C1057 1.393 . S
C1054 H1046 0.950 . S
C1054 C1052 1.391 . S
C1054 C1055 1.400 . S
C1055 C1054 1.400 . S
C1055 C1056 1.398 . S
C1055 C1061 1.491 . S
C1056 H1047 0.950 . S
C1056 C1055 1.398 . S
C1056 C1057 1.391 . S
C1057 H1045 0.950 . S
C1057 C1053 1.393 . S
C1057 C1056 1.391 . S
C1058 H1048 0.950 . S
C1058 C1059 1.386 . S
C1058 C1060 1.391 . S
C1059 C1058 1.386 . S
C1059 C1063 1.393 . S
C1060 H1049 0.950 . S
C1060 C1058 1.391 . S
C1060 C1061 1.400 . S
C1061 C1055 1.491 . S
C1061 C1060 1.400 . S
C1061 C1062 1.398 . S
C1062 H1050 0.950 . S
C1062 C1061 1.398 . S
C1062 C1063 1.391 . S
C1063 H1051 0.950 . S
C1063 C1059 1.393 . S
C1063 C1062 1.391 . S
H1064 C1072 0.950 . S
H1065 C1077 0.950 . S
H1066 C1074 0.950 . S
H1067 C1076 0.950 . S
H1068 C1078 0.950 . S
H1069 C1080 0.950 . S
H1070 C1082 0.950 . S
H1071 C1083 0.950 . S
C1072 H1064 0.950 . S
C1072 C1073 1.386 . S
C1072 C1074 1.391 . S
C1073 C1072 1.386 . S
C1073 C1077 1.393 . S
C1074 H1066 0.950 . S
C1074 C1072 1.391 . S
C1074 C1075 1.400 . S
C1075 C1074 1.400 . S
C1075 C1076 1.398 . S
C1075 C1081 1.491 . S
C1076 H1067 0.950 . S
C1076 C1075 1.398 . S
C1076 C1077 1.391 . S
C1077 H1065 0.950 . S
C1077 C1073 1.393 . S
C1077 C1076 1.391 . S
C1078 H1068 0.950 . S
C1078 C1079 1.386 . S
C1078 C1080 1.391 . S
C1079 C1078 1.386 . S
C1079 C1083 1.393 . S
C1080 H1069 0.950 . S
C1080 C1078 1.391 . S
C1080 C1081 1.400 . S
C1081 C1075 1.491 . S
C1081 C1080 1.400 . S
C1081 C1082 1.398 . S
C1082 H1070 0.950 . S
C1082 C1081 1.398 . S
C1082 C1083 1.391 . S
C1083 H1071 0.950 . S
C1083 C1079 1.393 . S
C1083 C1082 1.391 . S
H1084 C1092 0.950 . S
H1085 C1097 0.950 . S
H1086 C1094 0.950 . S
H1087 C1096 0.950 . S
H1088 C1098 0.950 . S
H1089 C1100 0.950 . S
H1090 C1102 0.950 . S
H1091 C1103 0.950 . S
C1092 H1084 0.950 . S
C1092 C1093 1.386 . S
C1092 C1094 1.391 . S
C1093 C1092 1.386 . S
C1093 C1097 1.393 . S
C1094 H1086 0.950 . S
C1094 C1092 1.391 . S
C1094 C1095 1.400 . S
C1095 C1094 1.400 . S
C1095 C1096 1.398 . S
C1095 C1101 1.491 . S
C1096 H1087 0.950 . S
C1096 C1095 1.398 . S
C1096 C1097 1.391 . S
C1097 H1085 0.950 . S
C1097 C1093 1.393 . S
C1097 C1096 1.391 . S
C1098 H1088 0.950 . S
C1098 C1099 1.386 . S
C1098 C1100 1.391 . S
C1099 C1098 1.386 . S
C1099 C1103 1.393 . S
C1100 H1089 0.950 . S
C1100 C1098 1.391 . S
C1100 C1101 1.400 . S
C1101 C1095 1.491 . S
C1101 C1100 1.400 . S
C1101 C1102 1.398 . S
C1102 H1090 0.950 . S
C1102 C1101 1.398 . S
C1102 C1103 1.391 . S
C1103 H1091 0.950 . S
C1103 C1099 1.393 . S
C1103 C1102 1.391 . S
H1104 C1112 0.950 . S
H1105 C1117 0.950 . S
H1106 C1114 0.950 . S
H1107 C1116 0.950 . S
H1108 C1118 0.950 . S
H1109 C1120 0.950 . S
H1110 C1122 0.950 . S
H1111 C1123 0.950 . S
C1112 H1104 0.950 . S
C1112 C1113 1.386 . S
C1112 C1114 1.391 . S
C1113 C1112 1.386 . S
C1113 C1117 1.393 . S
C1114 H1106 0.950 . S
C1114 C1112 1.391 . S
C1114 C1115 1.400 . S
C1115 C1114 1.400 . S
C1115 C1116 1.398 . S
C1115 C1121 1.491 . S
C1116 H1107 0.950 . S
C1116 C1115 1.398 . S
C1116 C1117 1.391 . S
C1117 H1105 0.950 . S
C1117 C1113 1.393 . S
C1117 C1116 1.391 . S
C1118 H1108 0.950 . S
C1118 C1119 1.386 . S
C1118 C1120 1.391 . S
C1119 C1118 1.386 . S
C1119 C1123 1.393 . S
C1120 H1109 0.950 . S
C1120 C1118 1.391 . S
C1120 C1121 1.400 . S
C1121 C1115 1.491 . S
C1121 C1120 1.400 . S
C1121 C1122 1.398 . S
C1122 H1110 0.950 . S
C1122 C1121 1.398 . S
C1122 C1123 1.391 . S
C1123 H1111 0.950 . S
C1123 C1119 1.393 . S
C1123 C1122 1.391 . S
H1124 C1132 0.950 . S
H1125 C1137 0.950 . S
H1126 C1134 0.950 . S
H1127 C1136 0.950 . S
H1128 C1138 0.950 . S
H1129 C1140 0.950 . S
H1130 C1142 0.950 . S
H1131 C1143 0.950 . S
C1132 H1124 0.950 . S
C1132 C1133 1.386 . S
C1132 C1134 1.391 . S
C1133 C1132 1.386 . S
C1133 C1137 1.393 . S
C1134 H1126 0.950 . S
C1134 C1132 1.391 . S
C1134 C1135 1.400 . S
C1135 C1134 1.400 . S
C1135 C1136 1.398 . S
C1135 C1141 1.491 . S
C1136 H1127 0.950 . S
C1136 C1135 1.398 . S
C1136 C1137 1.391 . S
C1137 H1125 0.950 . S
C1137 C1133 1.393 . S
C1137 C1136 1.391 . S
C1138 H1128 0.950 . S
C1138 C1139 1.386 . S
C1138 C1140 1.391 . S
C1139 C1138 1.386 . S
C1139 C1143 1.393 . S
C1140 H1129 0.950 . S
C1140 C1138 1.391 . S
C1140 C1141 1.400 . S
C1141 C1135 1.491 . S
C1141 C1140 1.400 . S
C1141 C1142 1.398 . S
C1142 H1130 0.950 . S
C1142 C1141 1.398 . S
C1142 C1143 1.391 . S
C1143 H1131 0.950 . S
C1143 C1139 1.393 . S
C1143 C1142 1.391 . S
H1144 C1152 0.950 . S
H1145 C1157 0.950 . S
H1146 C1154 0.950 . S
H1147 C1156 0.950 . S
H1148 C1158 0.950 . S
H1149 C1160 0.950 . S
H1150 C1162 0.950 . S
H1151 C1163 0.950 . S
C1152 H1144 0.950 . S
C1152 C1153 1.386 . S
C1152 C1154 1.391 . S
C1153 C1152 1.386 . S
C1153 C1157 1.393 . S
C1154 H1146 0.950 . S
C1154 C1152 1.391 . S
C1154 C1155 1.400 . S
C1155 C1154 1.400 . S
C1155 C1156 1.398 . S
C1155 C1161 1.491 . S
C1156 H1147 0.950 . S
C1156 C1155 1.398 . S
C1156 C1157 1.391 . S
C1157 H1145 0.950 . S
C1157 C1153 1.393 . S
C1157 C1156 1.391 . S
C1158 H1148 0.950 . S
C1158 C1159 1.386 . S
C1158 C1160 1.391 . S
C1159 C1158 1.386 . S
C1159 C1163 1.393 . S
C1160 H1149 0.950 . S
C1160 C1158 1.391 . S
C1160 C1161 1.400 . S
C1161 C1155 1.491 . S
C1161 C1160 1.400 . S
C1161 C1162 1.398 . S
C1162 H1150 0.950 . S
C1162 C1161 1.398 . S
C1162 C1163 1.391 . S
C1163 H1151 0.950 . S
C1163 C1159 1.393 . S
C1163 C1162 1.391 . S
H1164 C1172 0.950 . S
H1165 C1177 0.950 . S
H1166 C1174 0.950 . S
H1167 C1176 0.950 . S
H1168 C1178 0.950 . S
H1169 C1180 0.950 . S
H1170 C1182 0.950 . S
H1171 C1183 0.950 . S
C1172 H1164 0.950 . S
C1172 C1173 1.386 . S
C1172 C1174 1.391 . S
C1173 C1172 1.386 . S
C1173 C1177 1.393 . S
C1174 H1166 0.950 . S
C1174 C1172 1.391 . S
C1174 C1175 1.400 . S
C1175 C1174 1.400 . S
C1175 C1176 1.398 . S
C1175 C1181 1.491 . S
C1176 H1167 0.950 . S
C1176 C1175 1.398 . S
C1176 C1177 1.391 . S
C1177 H1165 0.950 . S
C1177 C1173 1.393 . S
C1177 C1176 1.391 . S
C1178 H1168 0.950 . S
C1178 C1179 1.386 . S
C1178 C1180 1.391 . S
C1179 C1178 1.386 . S
C1179 C1183 1.393 . S
C1180 H1169 0.950 . S
C1180 C1178 1.391 . S
C1180 C1181 1.400 . S
C1181 C1175 1.491 . S
C1181 C1180 1.400 . S
C1181 C1182 1.398 . S
C1182 H1170 0.950 . S
C1182 C1181 1.398 . S
C1182 C1183 1.391 . S
C1183 H1171 0.950 . S
C1183 C1179 1.393 . S
C1183 C1182 1.391 . S
H1184 C1192 0.950 . S
H1185 C1197 0.950 . S
H1186 C1194 0.950 . S
H1187 C1196 0.950 . S
H1188 C1198 0.950 . S
H1189 C1200 0.950 . S
H1190 C1202 0.950 . S
H1191 C1203 0.950 . S
C1192 H1184 0.950 . S
C1192 C1193 1.386 . S
C1192 C1194 1.391 . S
C1193 C1192 1.386 . S
C1193 C1197 1.393 . S
C1194 H1186 0.950 . S
C1194 C1192 1.391 . S
C1194 C1195 1.400 . S
C1195 C1194 1.400 . S
C1195 C1196 1.398 . S
C1195 C1201 1.491 . S
C1196 H1187 0.950 . S
C1196 C1195 1.398 . S
C1196 C1197 1.391 . S
C1197 H1185 0.950 . S
C1197 C1193 1.393 . S
C1197 C1196 1.391 . S
C1198 H1188 0.950 . S
C1198 C1199 1.386 . S
C1198 C1200 1.391 . S
C1199 C1198 1.386 . S
C1199 C1203 1.393 . S
C1200 H1189 0.950 . S
C1200 C1198 1.391 . S
C1200 C1201 1.400 . S
C1201 C1195 1.491 . S
C1201 C1200 1.400 . S
C1201 C1202 1.398 . S
C1202 H1190 0.950 . S
C1202 C1201 1.398 . S
C1202 C1203 1.391 . S
C1203 H1191 0.950 . S
C1203 C1199 1.393 . S
C1203 C1202 1.391 . S
H1204 C1212 0.950 . S
H1205 C1217 0.950 . S
H1206 C1214 0.950 . S
H1207 C1216 0.950 . S
H1208 C1218 0.950 . S
H1209 C1220 0.950 . S
H1210 C1222 0.950 . S
H1211 C1223 0.950 . S
C1212 H1204 0.950 . S
C1212 C1213 1.386 . S
C1212 C1214 1.391 . S
C1213 C1212 1.386 . S
C1213 C1217 1.393 . S
C1214 H1206 0.950 . S
C1214 C1212 1.391 . S
C1214 C1215 1.400 . S
C1215 C1214 1.400 . S
C1215 C1216 1.398 . S
C1215 C1221 1.491 . S
C1216 H1207 0.950 . S
C1216 C1215 1.398 . S
C1216 C1217 1.391 . S
C1217 H1205 0.950 . S
C1217 C1213 1.393 . S
C1217 C1216 1.391 . S
C1218 H1208 0.950 . S
C1218 C1219 1.386 . S
C1218 C1220 1.391 . S
C1219 C1218 1.386 . S
C1219 C1223 1.393 . S
C1220 H1209 0.950 . S
C1220 C1218 1.391 . S
C1220 C1221 1.400 . S
C1221 C1215 1.491 . S
C1221 C1220 1.400 . S
C1221 C1222 1.398 . S
C1222 H1210 0.950 . S
C1222 C1221 1.398 . S
C1222 C1223 1.391 . S
C1223 H1211 0.950 . S
C1223 C1219 1.393 . S
C1223 C1222 1.391 . S
H1224 C1232 0.950 . S
H1225 C1237 0.950 . S
H1226 C1234 0.950 . S
H1227 C1236 0.950 . S
H1228 C1238 0.950 . S
H1229 C1240 0.950 . S
H1230 C1242 0.950 . S
H1231 C1243 0.950 . S
C1232 H1224 0.950 . S
C1232 C1233 1.386 . S
C1232 C1234 1.391 . S
C1233 C1232 1.386 . S
C1233 C1237 1.393 . S
C1234 H1226 0.950 . S
C1234 C1232 1.391 . S
C1234 C1235 1.400 . S
C1235 C1234 1.400 . S
C1235 C1236 1.398 . S
C1235 C1241 1.491 . S
C1236 H1227 0.950 . S
C1236 C1235 1.398 . S
C1236 C1237 1.391 . S
C1237 H1225 0.950 . S
C1237 C1233 1.393 . S
C1237 C1236 1.391 . S
C1238 H1228 0.950 . S
C1238 C1239 1.386 . S
C1238 C1240 1.391 . S
C1239 C1238 1.386 . S
C1239 C1243 1.393 . S
C1240 H1229 0.950 . S
C1240 C1238 1.391 . S
C1240 C1241 1.400 . S
C1241 C1235 1.491 . S
C1241 C1240 1.400 . S
C1241 C1242 1.398 . S
C1242 H1230 0.950 . S
C1242 C1241 1.398 . S
C1242 C1243 1.391 . S
C1243 H1231 0.950 . S
C1243 C1239 1.393 . S
C1243 C1242 1.391 . S
H1244 C1252 0.950 . S
H1245 C1257 0.950 . S
H1246 C1254 0.950 . S
H1247 C1256 0.950 . S
H1248 C1258 0.950 . S
H1249 C1260 0.950 . S
H1250 C1262 0.950 . S
H1251 C1263 0.950 . S
C1252 H1244 0.950 . S
C1252 C1253 1.386 . S
C1252 C1254 1.391 . S
C1253 C1252 1.386 . S
C1253 C1257 1.393 . S
C1254 H1246 0.950 . S
C1254 C1252 1.391 . S
C1254 C1255 1.400 . S
C1255 C1254 1.400 . S
C1255 C1256 1.398 . S
C1255 C1261 1.491 . S
C1256 H1247 0.950 . S
C1256 C1255 1.398 . S
C1256 C1257 1.391 . S
C1257 H1245 0.950 . S
C1257 C1253 1.393 . S
C1257 C1256 1.391 . S
C1258 H1248 0.950 . S
C1258 C1259 1.386 . S
C1258 C1260 1.391 . S
C1259 C1258 1.386 . S
C1259 C1263 1.393 . S
C1260 H1249 0.950 . S
C1260 C1258 1.391 . S
C1260 C1261 1.400 . S
C1261 C1255 1.491 . S
C1261 C1260 1.400 . S
C1261 C1262 1.398 . S
C1262 H1250 0.950 . S
C1262 C1261 1.398 . S
C1262 C1263 1.391 . S
C1263 H1251 0.950 . S
C1263 C1259 1.393 . S
C1263 C1262 1.391 . S
H1264 C1272 0.950 . S
H1265 C1277 0.950 . S
H1266 C1274 0.950 . S
H1267 C1276 0.950 . S
H1268 C1278 0.950 . S
H1269 C1280 0.950 . S
H1270 C1282 0.950 . S
H1271 C1283 0.950 . S
C1272 H1264 0.950 . S
C1272 C1273 1.386 . S
C1272 C1274 1.391 . S
C1273 C1272 1.386 . S
C1273 C1277 1.393 . S
C1274 H1266 0.950 . S
C1274 C1272 1.391 . S
C1274 C1275 1.400 . S
C1275 C1274 1.400 . S
C1275 C1276 1.398 . S
C1275 C1281 1.491 . S
C1276 H1267 0.950 . S
C1276 C1275 1.398 . S
C1276 C1277 1.391 . S
C1277 H1265 0.950 . S
C1277 C1273 1.393 . S
C1277 C1276 1.391 . S
C1278 H1268 0.950 . S
C1278 C1279 1.386 . S
C1278 C1280 1.391 . S
C1279 C1278 1.386 . S
C1279 C1283 1.393 . S
C1280 H1269 0.950 . S
C1280 C1278 1.391 . S
C1280 C1281 1.400 . S
C1281 C1275 1.491 . S
C1281 C1280 1.400 . S
C1281 C1282 1.398 . S
C1282 H1270 0.950 . S
C1282 C1281 1.398 . S
C1282 C1283 1.391 . S
C1283 H1271 0.950 . S
C1283 C1279 1.393 . S
C1283 C1282 1.391 . S
H1284 C1292 0.950 . S
H1285 C1297 0.950 . S
H1286 C1294 0.950 . S
H1287 C1296 0.950 . S
H1288 C1298 0.950 . S
H1289 C1300 0.950 . S
H1290 C1302 0.950 . S
H1291 C1303 0.950 . S
C1292 H1284 0.950 . S
C1292 C1293 1.386 . S
C1292 C1294 1.391 . S
C1293 C1292 1.386 . S
C1293 C1297 1.393 . S
C1294 H1286 0.950 . S
C1294 C1292 1.391 . S
C1294 C1295 1.400 . S
C1295 C1294 1.400 . S
C1295 C1296 1.398 . S
C1295 C1301 1.491 . S
C1296 H1287 0.950 . S
C1296 C1295 1.398 . S
C1296 C1297 1.391 . S
C1297 H1285 0.950 . S
C1297 C1293 1.393 . S
C1297 C1296 1.391 . S
C1298 H1288 0.950 . S
C1298 C1299 1.386 . S
C1298 C1300 1.391 . S
C1299 C1298 1.386 . S
C1299 C1303 1.393 . S
C1300 H1289 0.950 . S
C1300 C1298 1.391 . S
C1300 C1301 1.400 . S
C1301 C1295 1.491 . S
C1301 C1300 1.400 . S
C1301 C1302 1.398 . S
C1302 H1290 0.950 . S
C1302 C1301 1.398 . S
C1302 C1303 1.391 . S
C1303 H1291 0.950 . S
C1303 C1299 1.393 . S
C1303 C1302 1.391 . S
H1304 C1312 0.950 . S
H1305 C1317 0.950 1_545 S
H1306 C1314 0.950 . S
H1307 C1316 0.950 . S
H1308 C1318 0.950 . S
H1309 C1320 0.950 . S
H1310 C1322 0.950 . S
H1311 C1323 0.950 . S
C1312 H1304 0.950 . S
C1312 C1313 1.386 . S
C1312 C1314 1.391 . S
C1313 C1312 1.386 . S
C1313 C1317 1.393 . S
C1314 H1306 0.950 . S
C1314 C1312 1.391 . S
C1314 C1315 1.400 . S
C1315 C1314 1.400 . S
C1315 C1316 1.398 . S
C1315 C1321 1.491 . S
C1316 H1307 0.950 . S
C1316 C1315 1.398 . S
C1316 C1317 1.391 . S
C1317 H1305 0.950 1_565 S
C1317 C1313 1.393 . S
C1317 C1316 1.391 . S
C1318 H1308 0.950 . S
C1318 C1319 1.386 . S
C1318 C1320 1.391 . S
C1319 C1318 1.386 . S
C1319 C1323 1.393 . S
C1320 H1309 0.950 . S
C1320 C1318 1.391 . S
C1320 C1321 1.400 . S
C1321 C1315 1.491 . S
C1321 C1320 1.400 . S
C1321 C1322 1.398 . S
C1322 H1310 0.950 . S
C1322 C1321 1.398 . S
C1322 C1323 1.391 . S
C1323 H1311 0.950 . S
C1323 C1319 1.393 . S
C1323 C1322 1.391 . S
H1324 C1332 0.950 . S
H1325 C1337 0.950 . S
H1326 C1334 0.950 . S
H1327 C1336 0.950 . S
H1328 C1338 0.950 1_455 S
H1329 C1340 0.950 . S
H1330 C1342 0.950 . S
H1331 C1343 0.950 . S
C1332 H1324 0.950 . S
C1332 C1333 1.386 . S
C1332 C1334 1.391 . S
C1333 C1332 1.386 . S
C1333 C1337 1.393 . S
C1334 H1326 0.950 . S
C1334 C1332 1.391 . S
C1334 C1335 1.400 . S
C1335 C1334 1.400 . S
C1335 C1336 1.398 . S
C1335 C1341 1.491 . S
C1336 H1327 0.950 . S
C1336 C1335 1.398 . S
C1336 C1337 1.391 . S
C1337 H1325 0.950 . S
C1337 C1333 1.393 . S
C1337 C1336 1.391 . S
C1338 H1328 0.950 1_655 S
C1338 C1339 1.386 . S
C1338 C1340 1.391 . S
C1339 C1338 1.386 . S
C1339 C1343 1.393 . S
C1340 H1329 0.950 . S
C1340 C1338 1.391 . S
C1340 C1341 1.400 . S
C1341 C1335 1.491 . S
C1341 C1340 1.400 . S
C1341 C1342 1.398 . S
C1342 H1330 0.950 . S
C1342 C1341 1.398 . S
C1342 C1343 1.391 . S
C1343 H1331 0.950 . S
C1343 C1339 1.393 . S
C1343 C1342 1.391 . S
H1344 C1352 0.950 . S
H1345 C1357 0.950 . S
H1346 C1354 0.950 . S
H1347 C1356 0.950 . S
H1348 C1358 0.950 . S
H1349 C1360 0.950 . S
H1350 C1362 0.950 . S
H1351 C1363 0.950 . S
C1352 H1344 0.950 . S
C1352 C1353 1.386 . S
C1352 C1354 1.391 . S
C1353 C1352 1.386 . S
C1353 C1357 1.393 . S
C1354 H1346 0.950 . S
C1354 C1352 1.391 . S
C1354 C1355 1.400 . S
C1355 C1354 1.400 . S
C1355 C1356 1.398 . S
C1355 C1361 1.491 . S
C1356 H1347 0.950 . S
C1356 C1355 1.398 . S
C1356 C1357 1.391 . S
C1357 H1345 0.950 . S
C1357 C1353 1.393 . S
C1357 C1356 1.391 . S
C1358 H1348 0.950 . S
C1358 C1359 1.386 . S
C1358 C1360 1.391 . S
C1359 C1358 1.386 . S
C1359 C1363 1.393 . S
C1360 H1349 0.950 . S
C1360 C1358 1.391 . S
C1360 C1361 1.400 . S
C1361 C1355 1.491 . S
C1361 C1360 1.400 . S
C1361 C1362 1.398 . S
C1362 H1350 0.950 . S
C1362 C1361 1.398 . S
C1362 C1363 1.391 . S
C1363 H1351 0.950 . S
C1363 C1359 1.393 . S
C1363 C1362 1.391 . S
H1364 C1372 0.950 . S
H1365 C1377 0.950 . S
H1366 C1374 0.950 . S
H1367 C1376 0.950 . S
H1368 C1378 0.950 . S
H1369 C1380 0.950 . S
H1370 C1382 0.950 . S
H1371 C1383 0.950 . S
C1372 H1364 0.950 . S
C1372 C1373 1.386 . S
C1372 C1374 1.391 . S
C1373 C1372 1.386 . S
C1373 C1377 1.393 . S
C1374 H1366 0.950 . S
C1374 C1372 1.391 . S
C1374 C1375 1.400 . S
C1375 C1374 1.400 . S
C1375 C1376 1.398 . S
C1375 C1381 1.491 . S
C1376 H1367 0.950 . S
C1376 C1375 1.398 . S
C1376 C1377 1.391 . S
C1377 H1365 0.950 . S
C1377 C1373 1.393 . S
C1377 C1376 1.391 . S
C1378 H1368 0.950 . S
C1378 C1379 1.386 . S
C1378 C1380 1.391 . S
C1379 C1378 1.386 . S
C1379 C1383 1.393 . S
C1380 H1369 0.950 . S
C1380 C1378 1.391 . S
C1380 C1381 1.400 . S
C1381 C1375 1.491 . S
C1381 C1380 1.400 . S
C1381 C1382 1.398 . S
C1382 H1370 0.950 . S
C1382 C1381 1.398 . S
C1382 C1383 1.391 . S
C1383 H1371 0.950 . S
C1383 C1379 1.393 . S
C1383 C1382 1.391 . S
H1384 C1392 0.950 . S
H1385 C1397 0.950 . S
H1386 C1394 0.950 . S
H1387 C1396 0.950 . S
H1388 C1398 0.950 1_565 S
H1389 C1400 0.950 . S
H1390 C1402 0.950 . S
H1391 C1403 0.950 . S
C1392 H1384 0.950 . S
C1392 C1393 1.386 . S
C1392 C1394 1.391 . S
C1393 C1392 1.386 . S
C1393 C1397 1.393 . S
C1394 H1386 0.950 . S
C1394 C1392 1.391 . S
C1394 C1395 1.400 . S
C1395 C1394 1.400 . S
C1395 C1396 1.398 . S
C1395 C1401 1.491 . S
C1396 H1387 0.950 . S
C1396 C1395 1.398 . S
C1396 C1397 1.391 . S
C1397 H1385 0.950 . S
C1397 C1393 1.393 . S
C1397 C1396 1.391 . S
C1398 H1388 0.950 1_545 S
C1398 C1399 1.386 . S
C1398 C1400 1.391 . S
C1399 C1398 1.386 . S
C1399 C1403 1.393 . S
C1400 H1389 0.950 . S
C1400 C1398 1.391 . S
C1400 C1401 1.400 . S
C1401 C1395 1.491 . S
C1401 C1400 1.400 . S
C1401 C1402 1.398 . S
C1402 H1390 0.950 . S
C1402 C1401 1.398 . S
C1402 C1403 1.391 . S
C1403 H1391 0.950 . S
C1403 C1399 1.393 . S
C1403 C1402 1.391 . S
H1404 C1412 0.950 . S
H1405 C1417 0.950 . S
H1406 C1414 0.950 . S
H1407 C1416 0.950 . S
H1408 C1418 0.950 . S
H1409 C1420 0.950 . S
H1410 C1422 0.950 . S
H1411 C1423 0.950 . S
C1412 H1404 0.950 . S
C1412 C1413 1.386 . S
C1412 C1414 1.391 . S
C1413 C1412 1.386 . S
C1413 C1417 1.393 . S
C1414 H1406 0.950 . S
C1414 C1412 1.391 . S
C1414 C1415 1.400 . S
C1415 C1414 1.400 . S
C1415 C1416 1.398 . S
C1415 C1421 1.491 . S
C1416 H1407 0.950 . S
C1416 C1415 1.398 . S
C1416 C1417 1.391 . S
C1417 H1405 0.950 . S
C1417 C1413 1.393 . S
C1417 C1416 1.391 . S
C1418 H1408 0.950 . S
C1418 C1419 1.386 . S
C1418 C1420 1.391 . S
C1419 C1418 1.386 . S
C1419 C1423 1.393 . S
C1420 H1409 0.950 . S
C1420 C1418 1.391 . S
C1420 C1421 1.400 . S
C1421 C1415 1.491 . S
C1421 C1420 1.400 . S
C1421 C1422 1.398 . S
C1422 H1410 0.950 . S
C1422 C1421 1.398 . S
C1422 C1423 1.391 . S
C1423 H1411 0.950 . S
C1423 C1419 1.393 . S
C1423 C1422 1.391 . S
H1424 C1432 0.950 . S
H1425 C1437 0.950 . S
H1426 C1434 0.950 . S
H1427 C1436 0.950 . S
H1428 C1438 0.950 . S
H1429 C1440 0.950 . S
H1430 C1442 0.950 . S
H1431 C1443 0.950 . S
C1432 H1424 0.950 . S
C1432 C1433 1.386 . S
C1432 C1434 1.391 . S
C1433 C1432 1.386 . S
C1433 C1437 1.393 . S
C1434 H1426 0.950 . S
C1434 C1432 1.391 . S
C1434 C1435 1.400 . S
C1435 C1434 1.400 . S
C1435 C1436 1.398 . S
C1435 C1441 1.491 . S
C1436 H1427 0.950 . S
C1436 C1435 1.398 . S
C1436 C1437 1.391 . S
C1437 H1425 0.950 . S
C1437 C1433 1.393 . S
C1437 C1436 1.391 . S
C1438 H1428 0.950 . S
C1438 C1439 1.386 . S
C1438 C1440 1.391 . S
C1439 C1438 1.386 . S
C1439 C1443 1.393 . S
C1440 H1429 0.950 . S
C1440 C1438 1.391 . S
C1440 C1441 1.400 . S
C1441 C1435 1.491 . S
C1441 C1440 1.400 . S
C1441 C1442 1.398 . S
C1442 H1430 0.950 . S
C1442 C1441 1.398 . S
C1442 C1443 1.391 . S
C1443 H1431 0.950 . S
C1443 C1439 1.393 . S
C1443 C1442 1.391 . S
H1444 C1452 0.950 . S
H1445 C1457 0.950 . S
H1446 C1454 0.950 . S
H1447 C1456 0.950 . S
H1448 C1458 0.950 . S
H1449 C1460 0.950 . S
H1450 C1462 0.950 . S
H1451 C1463 0.950 . S
C1452 H1444 0.950 . S
C1452 C1453 1.386 . S
C1452 C1454 1.391 . S
C1453 C1452 1.386 . S
C1453 C1457 1.393 . S
C1454 H1446 0.950 . S
C1454 C1452 1.391 . S
C1454 C1455 1.400 . S
C1455 C1454 1.400 . S
C1455 C1456 1.398 . S
C1455 C1461 1.491 . S
C1456 H1447 0.950 . S
C1456 C1455 1.398 . S
C1456 C1457 1.391 . S
C1457 H1445 0.950 . S
C1457 C1453 1.393 . S
C1457 C1456 1.391 . S
C1458 H1448 0.950 . S
C1458 C1459 1.386 . S
C1458 C1460 1.391 . S
C1459 C1458 1.386 . S
C1459 C1463 1.393 . S
C1460 H1449 0.950 . S
C1460 C1458 1.391 . S
C1460 C1461 1.400 . S
C1461 C1455 1.491 . S
C1461 C1460 1.400 . S
C1461 C1462 1.398 . S
C1462 H1450 0.950 . S
C1462 C1461 1.398 . S
C1462 C1463 1.391 . S
C1463 H1451 0.950 . S
C1463 C1459 1.393 . S
C1463 C1462 1.391 . S
H1464 C1472 0.950 . S
H1465 C1477 0.950 . S
H1466 C1474 0.950 . S
H1467 C1476 0.950 . S
H1468 C1478 0.950 . S
H1469 C1480 0.950 . S
H1470 C1482 0.950 . S
H1471 C1483 0.950 . S
C1472 H1464 0.950 . S
C1472 C1473 1.386 . S
C1472 C1474 1.391 . S
C1473 C1472 1.386 . S
C1473 C1477 1.393 . S
C1474 H1466 0.950 . S
C1474 C1472 1.391 . S
C1474 C1475 1.400 . S
C1475 C1474 1.400 . S
C1475 C1476 1.398 . S
C1475 C1481 1.491 . S
C1476 H1467 0.950 . S
C1476 C1475 1.398 . S
C1476 C1477 1.391 . S
C1477 H1465 0.950 . S
C1477 C1473 1.393 . S
C1477 C1476 1.391 . S
C1478 H1468 0.950 . S
C1478 C1479 1.386 . S
C1478 C1480 1.391 . S
C1479 C1478 1.386 . S
C1479 C1483 1.393 . S
C1480 H1469 0.950 . S
C1480 C1478 1.391 . S
C1480 C1481 1.400 . S
C1481 C1475 1.491 . S
C1481 C1480 1.400 . S
C1481 C1482 1.398 . S
C1482 H1470 0.950 . S
C1482 C1481 1.398 . S
C1482 C1483 1.391 . S
C1483 H1471 0.950 . S
C1483 C1479 1.393 . S
C1483 C1482 1.391 . S
H1484 C1492 0.950 . S
H1485 C1497 0.950 . S
H1486 C1494 0.950 . S
H1487 C1496 0.950 . S
H1488 C1498 0.950 . S
H1489 C1500 0.950 . S
H1490 C1502 0.950 . S
H1491 C1503 0.950 . S
C1492 H1484 0.950 . S
C1492 C1493 1.386 . S
C1492 C1494 1.391 . S
C1493 C1492 1.386 . S
C1493 C1497 1.393 . S
C1494 H1486 0.950 . S
C1494 C1492 1.391 . S
C1494 C1495 1.400 . S
C1495 C1494 1.400 . S
C1495 C1496 1.398 . S
C1495 C1501 1.491 . S
C1496 H1487 0.950 . S
C1496 C1495 1.398 . S
C1496 C1497 1.391 . S
C1497 H1485 0.950 . S
C1497 C1493 1.393 . S
C1497 C1496 1.391 . S
C1498 H1488 0.950 . S
C1498 C1499 1.386 . S
C1498 C1500 1.391 . S
C1499 C1498 1.386 . S
C1499 C1503 1.393 . S
C1500 H1489 0.950 . S
C1500 C1498 1.391 . S
C1500 C1501 1.400 . S
C1501 C1495 1.491 . S
C1501 C1500 1.400 . S
C1501 C1502 1.398 . S
C1502 H1490 0.950 . S
C1502 C1501 1.398 . S
C1502 C1503 1.391 . S
C1503 H1491 0.950 . S
C1503 C1499 1.393 . S
C1503 C1502 1.391 . S
H1504 C1512 0.950 . S
H1505 C1517 0.950 . S
H1506 C1514 0.950 . S
H1507 C1516 0.950 . S
H1508 C1518 0.950 . S
H1509 C1520 0.950 . S
H1510 C1522 0.950 . S
H1511 C1523 0.950 . S
C1512 H1504 0.950 . S
C1512 C1513 1.386 . S
C1512 C1514 1.391 1_545 S
C1513 C1512 1.386 . S
C1513 C1517 1.393 . S
C1514 H1506 0.950 . S
C1514 C1512 1.391 1_565 S
C1514 C1515 1.400 1_565 S
C1515 C1514 1.400 1_545 S
C1515 C1516 1.398 . S
C1515 C1521 1.491 1_544 S
C1516 H1507 0.950 . S
C1516 C1515 1.398 . S
C1516 C1517 1.391 . S
C1517 H1505 0.950 . S
C1517 C1513 1.393 . S
C1517 C1516 1.391 . S
C1518 H1508 0.950 . S
C1518 C1519 1.386 . S
C1518 C1520 1.391 1_565 S
C1519 C1518 1.386 . S
C1519 C1523 1.393 . S
C1520 H1509 0.950 . S
C1520 C1518 1.391 1_545 S
C1520 C1521 1.400 1_545 S
C1521 C1515 1.491 1_566 S
C1521 C1520 1.400 1_565 S
C1521 C1522 1.398 . S
C1522 H1510 0.950 . S
C1522 C1521 1.398 . S
C1522 C1523 1.391 . S
C1523 H1511 0.950 . S
C1523 C1519 1.393 . S
C1523 C1522 1.391 . S
H1524 C1532 0.950 . S
H1525 C1537 0.950 . S
H1526 C1534 0.950 . S
H1527 C1536 0.950 . S
H1528 C1538 0.950 . S
H1529 C1540 0.950 . S
H1530 C1542 0.950 . S
H1531 C1543 0.950 . S
C1532 H1524 0.950 . S
C1532 C1533 1.386 1_655 S
C1532 C1534 1.391 . S
C1533 C1532 1.386 1_455 S
C1533 C1537 1.393 . S
C1534 H1526 0.950 . S
C1534 C1532 1.391 . S
C1534 C1535 1.400 1_655 S
C1535 C1534 1.400 1_455 S
C1535 C1536 1.398 . S
C1535 C1541 1.491 1_456 S
C1536 H1527 0.950 . S
C1536 C1535 1.398 . S
C1536 C1537 1.391 . S
C1537 H1525 0.950 . S
C1537 C1533 1.393 . S
C1537 C1536 1.391 . S
C1538 H1528 0.950 . S
C1538 C1539 1.386 1_455 S
C1538 C1540 1.391 . S
C1539 C1538 1.386 1_655 S
C1539 C1543 1.393 . S
C1540 H1529 0.950 . S
C1540 C1538 1.391 . S
C1540 C1541 1.400 1_455 S
C1541 C1535 1.491 1_654 S
C1541 C1540 1.400 1_655 S
C1541 C1542 1.398 . S
C1542 H1530 0.950 . S
C1542 C1541 1.398 . S
C1542 C1543 1.391 . S
C1543 H1531 0.950 . S
C1543 C1539 1.393 . S
C1543 C1542 1.391 . S
H1544 C1552 0.950 . S
H1545 C1557 0.950 . S
H1546 C1554 0.950 . S
H1547 C1556 0.950 . S
H1548 C1558 0.950 . S
H1549 C1560 0.950 . S
H1550 C1562 0.950 . S
H1551 C1563 0.950 . S
C1552 H1544 0.950 . S
C1552 C1553 1.386 1_565 S
C1552 C1554 1.391 . S
C1553 C1552 1.386 1_545 S
C1553 C1557 1.393 . S
C1554 H1546 0.950 . S
C1554 C1552 1.391 . S
C1554 C1555 1.400 1_565 S
C1555 C1554 1.400 1_545 S
C1555 C1556 1.398 . S
C1555 C1561 1.491 1_546 S
C1556 H1547 0.950 . S
C1556 C1555 1.398 . S
C1556 C1557 1.391 . S
C1557 H1545 0.950 . S
C1557 C1553 1.393 . S
C1557 C1556 1.391 . S
C1558 H1548 0.950 . S
C1558 C1559 1.386 1_545 S
C1558 C1560 1.391 . S
C1559 C1558 1.386 1_565 S
C1559 C1563 1.393 . S
C1560 H1549 0.950 . S
C1560 C1558 1.391 . S
C1560 C1561 1.400 1_545 S
C1561 C1555 1.491 1_564 S
C1561 C1560 1.400 1_565 S
C1561 C1562 1.398 . S
C1562 H1550 0.950 . S
C1562 C1561 1.398 . S
C1562 C1563 1.391 . S
C1563 H1551 0.950 . S
C1563 C1559 1.393 . S
C1563 C1562 1.391 . S
H1564 C1572 0.950 . S
H1565 C1577 0.950 . S
H1566 C1574 0.950 . S
H1567 C1576 0.950 . S
H1568 C1578 0.950 . S
H1569 C1580 0.950 . S
H1570 C1582 0.950 . S
H1571 C1583 0.950 . S
C1572 H1564 0.950 . S
C1572 C1573 1.386 . S
C1572 C1574 1.391 . S
C1573 C1572 1.386 . S
C1573 C1577 1.393 . S
C1574 H1566 0.950 . S
C1574 C1572 1.391 . S
C1574 C1575 1.400 . S
C1575 C1574 1.400 . S
C1575 C1576 1.398 . S
C1575 C1581 1.491 1_656 S
C1576 H1567 0.950 . S
C1576 C1575 1.398 . S
C1576 C1577 1.391 . S
C1577 H1565 0.950 . S
C1577 C1573 1.393 . S
C1577 C1576 1.391 . S
C1578 H1568 0.950 . S
C1578 C1579 1.386 . S
C1578 C1580 1.391 . S
C1579 C1578 1.386 . S
C1579 C1583 1.393 . S
C1580 H1569 0.950 . S
C1580 C1578 1.391 . S
C1580 C1581 1.400 . S
C1581 C1575 1.491 1_454 S
C1581 C1580 1.400 . S
C1581 C1582 1.398 . S
C1582 H1570 0.950 . S
C1582 C1581 1.398 . S
C1582 C1583 1.391 . S
C1583 H1571 0.950 . S
C1583 C1579 1.393 . S
C1583 C1582 1.391 . S
C953 C5 1.370 . S
C959 C418 1.365 . S
C973 C64 1.369 . S
C979 C241 1.366 . S
C993 C300 1.369 . S
C999 C123 1.366 . S
C1013 C182 1.370 . S
C1019 C359 1.365 . S
C1033 C477 1.369 . S
C1039 C890 1.365 . S
C1053 C713 1.370 . S
C1059 C536 1.364 . S
C1073 C772 1.364 . S
C1079 C595 1.370 . S
C1093 C831 1.366 . S
C1099 C654 1.368 . S
C1113 C52 1.525 . S
C1119 C682 1.527 . S
C1133 C111 1.525 . S
C1139 C505 1.527 . S
C1153 C564 1.522 . S
C1159 C170 1.523 . S
C1173 C229 1.523 . S
C1179 C623 1.527 . S
C1193 C288 1.526 . S
C1199 C800 1.520 . S
C1213 C859 1.527 . S
C1219 C347 1.524 . S
C1233 C406 1.525 . S
C1239 C918 1.520 . S
C1253 C741 1.523 . S
C1259 C465 1.522 . S
C1273 C524 1.526 1_545 S
C1279 C210 1.520 . S
C1293 C33 1.526 . S
C1299 C583 1.526 1_455 S
C1313 C642 1.528 1_565 S
C1319 C92 1.522 . S
C1333 C151 1.525 . S
C1339 C701 1.522 1_655 S
C1353 C760 1.522 1_565 S
C1359 C328 1.526 . S
C1373 C387 1.527 . S
C1379 C819 1.525 1_655 S
C1393 C446 1.524 . S
C1399 C878 1.527 1_545 S
C1413 C269 1.527 . S
C1419 C937 1.526 1_455 S
C1433 C239 1.638 . S
C1439 C3 1.629 . S
C1453 C298 1.637 . S
C1459 C62 1.633 . S
C1473 C121 1.629 . S
C1479 C357 1.638 . S
C1493 C416 1.633 . S
C1499 C180 1.637 . S
C1513 C711 1.634 . S
C1519 C475 1.637 . S
C1533 C770 1.637 . S
C1539 C534 1.628 . S
C1553 C593 1.629 . S
C1559 C829 1.638 . S
C1573 C888 1.635 . S
C1579 C652 1.635 . S
