# Generated by pormake.
# Topology fnk, (5)-cn, num edge types: 1
# Building blocks:
#     Node 0, Type 0, BuildingBlock: XOMCOT_clean_sbu_0, # of connection points: 5
#     Node 1, Type 0, BuildingBlock: XOMCOT_clean_sbu_0, # of connection points: 5
#     Node 2, Type 0, BuildingBlock: XOMCOT_clean_sbu_0, # of connection points: 5
#     Node 3, Type 0, BuildingBlock: XOMCOT_clean_sbu_0, # of connection points: 5
#     Node 4, Type 0, BuildingBlock: XOMCOT_clean_sbu_0, # of connection points: 5
#     Node 5, Type 0, BuildingBlock: XOMCOT_clean_sbu_0, # of connection points: 5
#     Node 6, Type 0, BuildingBlock: XOMCOT_clean_sbu_0, # of connection points: 5
#     Node 7, Type 0, BuildingBlock: XOMCOT_clean_sbu_0, # of connection points: 5
#     Node 8, Type 0, BuildingBlock: XOMCOT_clean_sbu_0, # of connection points: 5
#     Node 9, Type 0, BuildingBlock: XOMCOT_clean_sbu_0, # of connection points: 5
#     Node 10, Type 0, BuildingBlock: XOMCOT_clean_sbu_0, # of connection points: 5
#     Node 11, Type 0, BuildingBlock: XOMCOT_clean_sbu_0, # of connection points: 5
#     Node 12, Type 0, BuildingBlock: XOMCOT_clean_sbu_0, # of connection points: 5
#     Node 13, Type 0, BuildingBlock: XOMCOT_clean_sbu_0, # of connection points: 5
#     Node 14, Type 0, BuildingBlock: XOMCOT_clean_sbu_0, # of connection points: 5
#     Node 15, Type 0, BuildingBlock: XOMCOT_clean_sbu_0, # of connection points: 5
#     Edge 16, Type (0, 0), BuildingBlock: TEMPAE_clean_linker_10, # of connection points: 2
#     Edge 17, Type (0, 0), BuildingBlock: TEMPAE_clean_linker_10, # of connection points: 2
#     Edge 18, Type (0, 0), BuildingBlock: TEMPAE_clean_linker_10, # of connection points: 2
#     Edge 19, Type (0, 0), BuildingBlock: TEMPAE_clean_linker_10, # of connection points: 2
#     Edge 20, Type (0, 0), BuildingBlock: TEMPAE_clean_linker_10, # of connection points: 2
#     Edge 21, Type (0, 0), BuildingBlock: TEMPAE_clean_linker_10, # of connection points: 2
#     Edge 22, Type (0, 0), BuildingBlock: TEMPAE_clean_linker_10, # of connection points: 2
#     Edge 23, Type (0, 0), BuildingBlock: TEMPAE_clean_linker_10, # of connection points: 2
#     Edge 24, Type (0, 0), BuildingBlock: TEMPAE_clean_linker_10, # of connection points: 2
#     Edge 25, Type (0, 0), BuildingBlock: TEMPAE_clean_linker_10, # of connection points: 2
#     Edge 26, Type (0, 0), BuildingBlock: TEMPAE_clean_linker_10, # of connection points: 2
#     Edge 27, Type (0, 0), BuildingBlock: TEMPAE_clean_linker_10, # of connection points: 2
#     Edge 28, Type (0, 0), BuildingBlock: TEMPAE_clean_linker_10, # of connection points: 2
#     Edge 29, Type (0, 0), BuildingBlock: TEMPAE_clean_linker_10, # of connection points: 2
#     Edge 30, Type (0, 0), BuildingBlock: TEMPAE_clean_linker_10, # of connection points: 2
#     Edge 31, Type (0, 0), BuildingBlock: TEMPAE_clean_linker_10, # of connection points: 2
#     Edge 32, Type (0, 0), BuildingBlock: TEMPAE_clean_linker_10, # of connection points: 2
#     Edge 33, Type (0, 0), BuildingBlock: TEMPAE_clean_linker_10, # of connection points: 2
#     Edge 34, Type (0, 0), BuildingBlock: TEMPAE_clean_linker_10, # of connection points: 2
#     Edge 35, Type (0, 0), BuildingBlock: TEMPAE_clean_linker_10, # of connection points: 2
#     Edge 36, Type (0, 0), BuildingBlock: TEMPAE_clean_linker_10, # of connection points: 2
#     Edge 37, Type (0, 0), BuildingBlock: TEMPAE_clean_linker_10, # of connection points: 2
#     Edge 38, Type (0, 0), BuildingBlock: TEMPAE_clean_linker_10, # of connection points: 2
#     Edge 39, Type (0, 0), BuildingBlock: TEMPAE_clean_linker_10, # of connection points: 2
#     Edge 40, Type (0, 0), BuildingBlock: TEMPAE_clean_linker_10, # of connection points: 2
#     Edge 41, Type (0, 0), BuildingBlock: TEMPAE_clean_linker_10, # of connection points: 2
#     Edge 42, Type (0, 0), BuildingBlock: TEMPAE_clean_linker_10, # of connection points: 2
#     Edge 43, Type (0, 0), BuildingBlock: TEMPAE_clean_linker_10, # of connection points: 2
#     Edge 44, Type (0, 0), BuildingBlock: TEMPAE_clean_linker_10, # of connection points: 2
#     Edge 45, Type (0, 0), BuildingBlock: TEMPAE_clean_linker_10, # of connection points: 2
#     Edge 46, Type (0, 0), BuildingBlock: TEMPAE_clean_linker_10, # of connection points: 2
#     Edge 47, Type (0, 0), BuildingBlock: TEMPAE_clean_linker_10, # of connection points: 2
#     Edge 48, Type (0, 0), BuildingBlock: TEMPAE_clean_linker_10, # of connection points: 2
#     Edge 49, Type (0, 0), BuildingBlock: TEMPAE_clean_linker_10, # of connection points: 2
#     Edge 50, Type (0, 0), BuildingBlock: TEMPAE_clean_linker_10, # of connection points: 2
#     Edge 51, Type (0, 0), BuildingBlock: TEMPAE_clean_linker_10, # of connection points: 2
#     Edge 52, Type (0, 0), BuildingBlock: TEMPAE_clean_linker_10, # of connection points: 2
#     Edge 53, Type (0, 0), BuildingBlock: TEMPAE_clean_linker_10, # of connection points: 2
#     Edge 54, Type (0, 0), BuildingBlock: TEMPAE_clean_linker_10, # of connection points: 2
#     Edge 55, Type (0, 0), BuildingBlock: TEMPAE_clean_linker_10, # of connection points: 2
# Relax obj value: 0.408
# Max RMSD: 0.217
# Mean RMSD: 0.210
data_MOF--net-fnk--node1-XOMCOT_clean_sbu_0--edge1-TEMPAE_clean_linker_10
_symmetry_space_group_name_H-M    P1
_symmetry_Int_Tables_number       1
_symmetry_cell_setting            triclinic
loop_
_symmetry_equiv_pos_as_xyz
'x, y, z'
_cell_length_a     46.532315
_cell_length_b     46.538777
_cell_length_c     51.556445
_cell_angle_alpha  90.081376
_cell_angle_beta   90.535912
_cell_angle_gamma 89.838201
loop_
_atom_site_label
_atom_site_type_symbol
_atom_site_fract_x
_atom_site_fract_y
_atom_site_fract_z
_atom_type_partial_charge
Co0 Co 0.11227 0.36279 0.18728 0.0
C1 C 0.15669 0.32048 0.20696 0.0
C2 C 0.13617 0.34504 0.23685 0.0
C3 C 0.15673 0.32805 0.2482 0.0
N4 N 0.13609 0.34054 0.21099 0.0
N5 N 0.16978 0.31278 0.22947 0.0
H6 H 0.16314 0.31277 0.18812 0.0
H7 H 0.12296 0.36061 0.24681 0.0
C8 C 0.15985 0.40148 0.20553 0.0
O9 O 0.17831 0.38023 0.20349 0.0
N10 N 0.08803 0.38524 0.16478 0.0
C11 C 0.07472 0.37681 0.14278 0.0
C12 C 0.0572 0.39888 0.13437 0.0
C13 C 0.07853 0.41197 0.16957 0.0
N14 N 0.05956 0.42093 0.15133 0.0
C15 C 0.13322 0.3286 0.14524 0.0
C16 C 0.15632 0.37414 0.1182 0.0
C17 C 0.15086 0.34843 0.1048 0.0
C18 C 0.1404 0.32504 0.11905 0.0
C19 C 0.14874 0.37685 0.14428 0.0
N20 N 0.13636 0.35458 0.15731 0.0
H21 H 0.12283 0.3111 0.15517 0.0
H22 H 0.15023 0.39789 0.15293 0.0
H23 H 0.07691 0.35584 0.13395 0.0
H24 H 0.0851 0.42432 0.18638 0.0
O25 O 0.08497 0.33109 0.18484 0.0
O26 O 0.08379 0.3662 0.21377 0.0
O27 O 0.13406 0.39866 0.19728 0.0
C28 C 0.07211 0.34307 0.20447 0.0
H29 H 0.16206 0.32736 0.26868 0.0
H30 H 0.04302 0.39823 0.11763 0.0
H31 H 0.16474 0.3927 0.1082 0.0
H32 H 0.13565 0.30478 0.10961 0.0
Co33 Co 0.64577 0.07461 0.19859 0.0
C34 C 0.68446 0.11879 0.22216 0.0
C35 C 0.65786 0.09792 0.25012 0.0
C36 C 0.67338 0.11894 0.26255 0.0
N37 N 0.6646 0.09796 0.22475 0.0
N38 N 0.69 0.1322 0.24494 0.0
H39 H 0.69393 0.12481 0.20397 0.0
H40 H 0.64162 0.08451 0.25878 0.0
C41 C 0.60414 0.12089 0.21371 0.0
O42 O 0.62517 0.13961 0.21291 0.0
N43 N 0.62727 0.05099 0.17283 0.0
C44 C 0.64012 0.03556 0.154 0.0
C45 C 0.61923 0.02158 0.13973 0.0
C46 C 0.59895 0.04667 0.16961 0.0
N47 N 0.59352 0.02901 0.14948 0.0
C48 C 0.68262 0.09811 0.15986 0.0
C49 C 0.63893 0.12365 0.13136 0.0
C50 C 0.6657 0.11974 0.11968 0.0
C51 C 0.68804 0.1077 0.13463 0.0
C52 C 0.63434 0.11358 0.15644 0.0
N53 N 0.65583 0.10043 0.17033 0.0
H54 H 0.69949 0.08695 0.17032 0.0
H55 H 0.61256 0.11378 0.16324 0.0
H56 H 0.66307 0.03432 0.15103 0.0
H57 H 0.58261 0.05536 0.18221 0.0
O58 O 0.67893 0.04873 0.19872 0.0
O59 O 0.64064 0.04476 0.22369 0.0
O60 O 0.6082 0.09503 0.20611 0.0
C61 C 0.66533 0.03461 0.21662 0.0
H62 H 0.67128 0.12504 0.28271 0.0
H63 H 0.62257 0.00688 0.12374 0.0
H64 H 0.6208 0.13209 0.12043 0.0
H65 H 0.70913 0.10433 0.12643 0.0
Co66 Co 0.88981 0.65744 0.18787 0.0
C67 C 0.84098 0.69663 0.20367 0.0
C68 C 0.85758 0.66994 0.2343 0.0
C69 C 0.83593 0.68648 0.24411 0.0
N70 N 0.86103 0.67625 0.20901 0.0
N71 N 0.82551 0.70333 0.22498 0.0
H72 H 0.83755 0.70629 0.18486 0.0
H73 H 0.86961 0.65378 0.24488 0.0
C74 C 0.84418 0.61318 0.19806 0.0
O75 O 0.8237 0.63212 0.19378 0.0
N76 N 0.91874 0.63853 0.16771 0.0
C77 C 0.93445 0.65004 0.14854 0.0
C78 C 0.95372 0.62964 0.14008 0.0
C79 C 0.92847 0.61152 0.17075 0.0
N80 N 0.94977 0.60551 0.15404 0.0
C81 C 0.87061 0.69151 0.14425 0.0
C82 C 0.85339 0.64501 0.11455 0.0
C83 C 0.85624 0.67171 0.10244 0.0
C84 C 0.86392 0.69546 0.11781 0.0
C85 C 0.86009 0.64201 0.14082 0.0
N86 N 0.86911 0.66492 0.15539 0.0
H87 H 0.87886 0.70946 0.15534 0.0
H88 H 0.86057 0.62053 0.14851 0.0
H89 H 0.93224 0.67179 0.14144 0.0
H90 H 0.92073 0.59685 0.18535 0.0
O91 O 0.91498 0.69119 0.19058 0.0
O92 O 0.91421 0.65448 0.21773 0.0
O93 O 0.87039 0.61952 0.19386 0.0
C94 C 0.92557 0.67875 0.2113 0.0
H95 H 0.82782 0.68552 0.2637 0.0
H96 H 0.96933 0.63228 0.12484 0.0
H97 H 0.84759 0.62609 0.10341 0.0
H98 H 0.8667 0.71644 0.10914 0.0
Co99 Co 0.34854 0.88403 0.192 0.0
C100 C 0.39243 0.92514 0.17525 0.0
C101 C 0.36842 0.94058 0.20789 0.0
C102 C 0.38946 0.96022 0.20243 0.0
N103 N 0.37042 0.91872 0.19088 0.0
N104 N 0.40441 0.95042 0.18195 0.0
H105 H 0.40048 0.91093 0.16033 0.0
H106 H 0.35356 0.94145 0.22384 0.0
C107 C 0.2996 0.90709 0.21974 0.0
O108 O 0.30308 0.88482 0.23508 0.0
N109 N 0.32552 0.84957 0.19327 0.0
C110 C 0.30218 0.84446 0.17831 0.0
C111 C 0.28847 0.8205 0.18739 0.0
C112 C 0.32555 0.8287 0.21142 0.0
N113 N 0.30306 0.81071 0.20832 0.0
C114 C 0.3548 0.86454 0.13997 0.0
C115 C 0.32648 0.90958 0.1158 0.0
C116 C 0.33867 0.88788 0.1003 0.0
C117 C 0.3531 0.86523 0.11294 0.0
C118 C 0.32915 0.90834 0.14288 0.0
N119 N 0.34298 0.88585 0.1546 0.0
H120 H 0.36588 0.84685 0.14927 0.0
H121 H 0.32039 0.92566 0.15434 0.0
H122 H 0.29455 0.8582 0.1628 0.0
H123 H 0.34085 0.82737 0.22727 0.0
O124 O 0.38388 0.86178 0.19314 0.0
O125 O 0.36169 0.87894 0.2276 0.0
O126 O 0.31358 0.90809 0.1986 0.0
C127 C 0.38385 0.86557 0.21813 0.0
H128 H 0.39411 0.97968 0.2132 0.0
H129 H 0.26823 0.81213 0.18019 0.0
H130 H 0.31488 0.92741 0.10719 0.0
H131 H 0.36357 0.8483 0.10212 0.0
Co132 Co 0.13014 0.62207 0.32981 0.0
C133 C 0.1826 0.65755 0.32022 0.0
C134 C 0.1793 0.62061 0.29551 0.0
C135 C 0.20326 0.63567 0.28862 0.0
N136 N 0.1668 0.63368 0.3159 0.0
N137 N 0.20528 0.65889 0.30409 0.0
H138 H 0.17697 0.67442 0.33361 0.0
H139 H 0.17077 0.60205 0.28546 0.0
C140 C 0.16579 0.5678 0.32886 0.0
O141 O 0.18804 0.58171 0.33841 0.0
N142 N 0.0934 0.61008 0.34225 0.0
C143 C 0.07757 0.62094 0.36172 0.0
C144 C 0.05158 0.60668 0.362 0.0
C145 C 0.07703 0.58999 0.33079 0.0
N146 N 0.05137 0.58751 0.34234 0.0
C147 C 0.14813 0.6511 0.37679 0.0
C148 C 0.14981 0.60271 0.40778 0.0
C149 C 0.15447 0.62957 0.41943 0.0
C150 C 0.15391 0.65396 0.40344 0.0
C151 C 0.14417 0.60079 0.38115 0.0
N152 N 0.14384 0.62471 0.36577 0.0
H153 H 0.1455 0.67031 0.36535 0.0
H154 H 0.13847 0.58005 0.37335 0.0
H155 H 0.08424 0.63818 0.37449 0.0
H156 H 0.08385 0.57741 0.31426 0.0
O157 O 0.11445 0.66066 0.3246 0.0
O158 O 0.11384 0.62556 0.29564 0.0
O159 O 0.14149 0.58034 0.32636 0.0
C160 C 0.10633 0.65156 0.30171 0.0
H161 H 0.21687 0.63118 0.27217 0.0
H162 H 0.03406 0.61041 0.37527 0.0
H163 H 0.14979 0.58324 0.41927 0.0
H164 H 0.15647 0.67526 0.41162 0.0
Co165 Co 0.3681 0.11981 0.32577 0.0
C166 C 0.3331 0.16558 0.29972 0.0
C167 C 0.36707 0.14929 0.27602 0.0
C168 C 0.35106 0.16825 0.26149 0.0
N169 N 0.35618 0.14793 0.30015 0.0
N170 N 0.32963 0.1784 0.27635 0.0
H171 H 0.31863 0.16845 0.31571 0.0
H172 H 0.38488 0.13647 0.26916 0.0
C173 C 0.42115 0.15361 0.31308 0.0
O174 O 0.40602 0.17749 0.31283 0.0
N175 N 0.37986 0.09098 0.35029 0.0
C176 C 0.36709 0.08352 0.37264 0.0
C177 C 0.38102 0.0597 0.38256 0.0
C178 C 0.40091 0.07167 0.34666 0.0
N179 N 0.40204 0.05226 0.366 0.0
C180 C 0.33676 0.15164 0.36435 0.0
C181 C 0.38427 0.16492 0.39457 0.0
C182 C 0.35691 0.16918 0.40514 0.0
C183 C 0.33294 0.16324 0.38924 0.0
C184 C 0.38715 0.15347 0.36966 0.0
N185 N 0.36363 0.14649 0.35486 0.0
H186 H 0.31801 0.1446 0.35366 0.0
H187 H 0.40848 0.1477 0.36363 0.0
H188 H 0.3485 0.09406 0.38077 0.0
H189 H 0.41485 0.07164 0.32997 0.0
O190 O 0.32994 0.1023 0.32425 0.0
O191 O 0.3669 0.09106 0.29936 0.0
O192 O 0.40974 0.13002 0.32019 0.0
C193 C 0.34061 0.08607 0.30601 0.0
H194 H 0.35413 0.17309 0.24118 0.0
H195 H 0.37557 0.04824 0.40008 0.0
H196 H 0.40352 0.16821 0.40614 0.0
H197 H 0.31132 0.16615 0.39637 0.0
Co198 Co 0.85661 0.37055 0.29665 0.0
C199 C 0.81314 0.32544 0.28787 0.0
C200 C 0.79718 0.36625 0.27509 0.0
C201 C 0.777 0.34565 0.26915 0.0
N202 N 0.81973 0.35368 0.28734 0.0
N203 N 0.78723 0.32004 0.2771 0.0
H204 H 0.82724 0.3089 0.29546 0.0
H205 H 0.7958 0.3884 0.2692 0.0
C206 C 0.82346 0.42765 0.29487 0.0
O207 O 0.80699 0.42151 0.31464 0.0
N208 N 0.89359 0.38677 0.30522 0.0
C209 C 0.91341 0.37514 0.3213 0.0
C210 C 0.93605 0.39387 0.32364 0.0
C211 C 0.90443 0.41221 0.29778 0.0
N212 N 0.93023 0.41721 0.309 0.0
C213 C 0.83482 0.35173 0.34616 0.0
C214 C 0.84912 0.40126 0.37301 0.0
C215 C 0.83797 0.37797 0.38668 0.0
C216 C 0.83031 0.35312 0.37297 0.0
C217 C 0.85267 0.39924 0.34621 0.0
N218 N 0.84563 0.37468 0.33298 0.0
H219 H 0.83073 0.33173 0.33633 0.0
H220 H 0.8619 0.4173 0.33618 0.0
H221 H 0.91106 0.35495 0.33141 0.0
H222 H 0.89341 0.42711 0.28502 0.0
O223 O 0.87475 0.33285 0.29765 0.0
O224 O 0.87074 0.36076 0.26301 0.0
O225 O 0.84228 0.4099 0.28676 0.0
C226 C 0.88095 0.33738 0.27335 0.0
H227 H 0.75712 0.34899 0.25848 0.0
H228 H 0.95458 0.39123 0.33627 0.0
H229 H 0.8555 0.42073 0.38305 0.0
H230 H 0.82218 0.33448 0.38306 0.0
Co231 Co 0.61358 0.85022 0.33836 0.0
C232 C 0.57036 0.89313 0.35623 0.0
C233 C 0.61352 0.90616 0.36492 0.0
C234 C 0.59518 0.92732 0.37322 0.0
N235 N 0.59803 0.88472 0.35408 0.0
N236 N 0.56807 0.91913 0.36762 0.0
H237 H 0.5522 0.88108 0.34894 0.0
H238 H 0.63665 0.90679 0.36649 0.0
C239 C 0.67529 0.86751 0.32441 0.0
O240 O 0.68586 0.84138 0.32587 0.0
N241 N 0.62925 0.81586 0.32261 0.0
C242 C 0.63086 0.78937 0.33294 0.0
C243 C 0.64489 0.77163 0.31591 0.0
C244 C 0.6413 0.81357 0.29895 0.0
N245 N 0.65181 0.78685 0.29457 0.0
C246 C 0.60947 0.82169 0.38742 0.0
C247 C 0.65676 0.84662 0.41092 0.0
C248 C 0.63836 0.82999 0.42624 0.0
C249 C 0.61497 0.81667 0.41375 0.0
C250 C 0.65095 0.85045 0.38445 0.0
N251 N 0.62714 0.83861 0.37297 0.0
H252 H 0.59048 0.81231 0.37881 0.0
H253 H 0.6649 0.86453 0.37398 0.0
H254 H 0.62324 0.78326 0.35182 0.0
H255 H 0.64358 0.83156 0.28589 0.0
O256 O 0.57563 0.83247 0.33762 0.0
O257 O 0.59367 0.85897 0.30626 0.0
O258 O 0.64917 0.8729 0.3301 0.0
C259 C 0.57218 0.84411 0.31481 0.0
H260 H 0.60138 0.9473 0.38242 0.0
H261 H 0.65105 0.74962 0.31983 0.0
H262 H 0.67482 0.85795 0.41941 0.0
H263 H 0.60042 0.80293 0.42426 0.0
Co264 Co 0.86766 0.61018 0.82712 0.0
C265 C 0.83139 0.65639 0.8035 0.0
C266 C 0.8634 0.64025 0.77759 0.0
C267 C 0.84701 0.66019 0.76451 0.0
N268 N 0.85387 0.63812 0.80215 0.0
N269 N 0.82684 0.67022 0.7808 0.0
H270 H 0.81836 0.65942 0.82045 0.0
H271 H 0.88084 0.62773 0.76962 0.0
C272 C 0.91748 0.64843 0.81489 0.0
O273 O 0.9003 0.67087 0.81542 0.0
N274 N 0.88119 0.58173 0.85121 0.0
C275 C 0.86811 0.57207 0.8727 0.0
C276 C 0.8844 0.55002 0.88303 0.0
C277 C 0.90485 0.56555 0.84853 0.0
N278 N 0.90731 0.54592 0.86763 0.0
C279 C 0.83378 0.63817 0.8664 0.0
C280 C 0.87995 0.65586 0.89644 0.0
C281 C 0.85233 0.65789 0.90699 0.0
C282 C 0.82898 0.64956 0.89122 0.0
C283 C 0.8838 0.64455 0.87159 0.0
N284 N 0.86095 0.63561 0.85678 0.0
H285 H 0.81571 0.62963 0.85563 0.0
H286 H 0.90554 0.64072 0.8655 0.0
H287 H 0.84784 0.57996 0.87998 0.0
H288 H 0.91976 0.56794 0.83269 0.0
O289 O 0.83084 0.59003 0.82454 0.0
O290 O 0.86887 0.5821 0.80001 0.0
O291 O 0.90843 0.62379 0.82195 0.0
C292 C 0.84274 0.57538 0.80585 0.0
H293 H 0.84914 0.66609 0.74432 0.0
H294 H 0.8793 0.53739 0.89999 0.0
H295 H 0.89884 0.66099 0.90794 0.0
H296 H 0.80719 0.65066 0.89834 0.0
Co297 Co 0.36048 0.87927 0.81352 0.0
C298 C 0.31533 0.83849 0.79634 0.0
C299 C 0.29699 0.87859 0.80834 0.0
C300 C 0.2752 0.86116 0.79935 0.0
N301 N 0.32226 0.86447 0.80623 0.0
N302 N 0.28689 0.83604 0.79187 0.0
H303 H 0.33062 0.82171 0.79198 0.0
H304 H 0.29428 0.89997 0.81594 0.0
C305 C 0.33492 0.94052 0.81012 0.0
O306 O 0.32522 0.94126 0.83392 0.0
N307 N 0.3987 0.89393 0.81978 0.0
C308 C 0.41881 0.88279 0.83585 0.0
C309 C 0.44317 0.89933 0.83435 0.0
C310 C 0.41114 0.91668 0.8084 0.0
N311 N 0.43825 0.9207 0.81716 0.0
C312 C 0.33577 0.86527 0.86283 0.0
C313 C 0.35937 0.9106 0.89038 0.0
C314 C 0.34378 0.88974 0.90376 0.0
C315 C 0.33151 0.86709 0.88963 0.0
C316 C 0.3626 0.90833 0.86352 0.0
N317 N 0.35085 0.88589 0.84993 0.0
H318 H 0.32778 0.84661 0.8526 0.0
H319 H 0.37494 0.9246 0.85373 0.0
H320 H 0.41572 0.8643 0.8482 0.0
H321 H 0.40051 0.93011 0.79413 0.0
O322 O 0.37629 0.84076 0.81659 0.0
O323 O 0.37316 0.86618 0.78029 0.0
O324 O 0.34767 0.9184 0.80113 0.0
C325 C 0.38248 0.84321 0.79203 0.0
H326 H 0.25251 0.86636 0.79868 0.0
H327 H 0.46254 0.89654 0.84587 0.0
H328 H 0.36922 0.9284 0.90065 0.0
H329 H 0.3198 0.85024 0.89939 0.0
Co330 Co 0.11823 0.35673 0.81876 0.0
C331 C 0.08319 0.39849 0.84749 0.0
C332 C 0.1102 0.41911 0.81958 0.0
C333 C 0.094 0.43976 0.83165 0.0
N334 N 0.10345 0.39335 0.82962 0.0
N335 N 0.07698 0.42676 0.84913 0.0
H336 H 0.07273 0.3818 0.85851 0.0
H337 H 0.12499 0.42259 0.80387 0.0
C338 C 0.18065 0.38011 0.81209 0.0
O339 O 0.19344 0.36652 0.8313 0.0
N340 N 0.13324 0.32001 0.80688 0.0
C341 C 0.12063 0.29397 0.80836 0.0
C342 C 0.13721 0.27415 0.79538 0.0
C343 C 0.15679 0.31569 0.79228 0.0
N344 N 0.15988 0.28795 0.78521 0.0
C345 C 0.12348 0.32619 0.86716 0.0
C346 C 0.1521 0.36898 0.8941 0.0
C347 C 0.14299 0.34464 0.90779 0.0
C348 C 0.12884 0.3229 0.89378 0.0
C349 C 0.14626 0.37143 0.86748 0.0
N350 N 0.13227 0.35011 0.85418 0.0
H351 H 0.11091 0.31005 0.85735 0.0
H352 H 0.15178 0.39123 0.85785 0.0
H353 H 0.10036 0.28958 0.8176 0.0
H354 H 0.17137 0.33237 0.78652 0.0
O355 O 0.07965 0.34064 0.82127 0.0
O356 O 0.09788 0.36109 0.78636 0.0
O357 O 0.15394 0.37692 0.80717 0.0
C358 C 0.07592 0.34924 0.79738 0.0
H359 H 0.09347 0.46237 0.82673 0.0
H360 H 0.13256 0.25151 0.79308 0.0
H361 H 0.1624 0.38672 0.90409 0.0
H362 H 0.12129 0.30372 0.9034 0.0
Co363 Co 0.63547 0.13704 0.83342 0.0
C364 C 0.68322 0.17017 0.8103 0.0
C365 C 0.69791 0.14438 0.84215 0.0
C366 C 0.72118 0.15832 0.8319 0.0
N367 N 0.67402 0.15184 0.82865 0.0
N368 N 0.71182 0.17452 0.81192 0.0
H369 H 0.66959 0.17968 0.79554 0.0
H370 H 0.69856 0.13002 0.85855 0.0
C371 C 0.66645 0.07789 0.83315 0.0
O372 O 0.67943 0.08019 0.85575 0.0
N373 N 0.5974 0.122 0.83795 0.0
C374 C 0.57718 0.13209 0.85414 0.0
C375 C 0.55336 0.11475 0.85209 0.0
C376 C 0.58565 0.09914 0.82594 0.0
N377 N 0.55881 0.09412 0.83438 0.0
C378 C 0.65121 0.15754 0.88375 0.0
C379 C 0.63954 0.10769 0.91076 0.0
C380 C 0.64994 0.13167 0.9245 0.0
C381 C 0.65556 0.15689 0.91059 0.0
C382 C 0.63554 0.10925 0.88386 0.0
N383 N 0.64223 0.13368 0.87061 0.0
H384 H 0.65516 0.17727 0.87334 0.0
H385 H 0.62697 0.09083 0.87364 0.0
H386 H 0.57984 0.15039 0.86688 0.0
H387 H 0.5968 0.08588 0.81198 0.0
O388 O 0.61875 0.17549 0.83222 0.0
O389 O 0.62525 0.14676 0.79843 0.0
O390 O 0.64976 0.09748 0.82451 0.0
C391 C 0.61492 0.17069 0.80746 0.0
H392 H 0.74319 0.15692 0.83877 0.0
H393 H 0.5337 0.1169 0.863 0.0
H394 H 0.63471 0.0878 0.92066 0.0
H395 H 0.66278 0.1762 0.9204 0.0
Co396 Co 0.85158 0.38245 0.67442 0.0
C397 C 0.89719 0.42072 0.65728 0.0
C398 C 0.87099 0.44077 0.68627 0.0
C399 C 0.89314 0.45903 0.68038 0.0
N400 N 0.87362 0.41693 0.67169 0.0
N401 N 0.90963 0.44626 0.66227 0.0
H402 H 0.90572 0.40455 0.64433 0.0
H403 H 0.85526 0.4439 0.70128 0.0
C404 C 0.80304 0.40485 0.70289 0.0
O405 O 0.80602 0.38149 0.71692 0.0
N406 N 0.82883 0.34787 0.67678 0.0
C407 C 0.80549 0.34176 0.6621 0.0
C408 C 0.79339 0.3168 0.67096 0.0
C409 C 0.83048 0.32663 0.69451 0.0
N410 N 0.80903 0.30746 0.69141 0.0
C411 C 0.85699 0.36165 0.62278 0.0
C412 C 0.8261 0.40472 0.59822 0.0
C413 C 0.83828 0.38276 0.58302 0.0
C414 C 0.8541 0.36118 0.59583 0.0
C415 C 0.83002 0.40469 0.62522 0.0
N416 N 0.84503 0.38311 0.63714 0.0
H417 H 0.86898 0.34466 0.63223 0.0
H418 H 0.8211 0.42212 0.63644 0.0
H419 H 0.79695 0.35522 0.64678 0.0
H420 H 0.84619 0.32574 0.71006 0.0
O421 O 0.887 0.36016 0.67563 0.0
O422 O 0.86537 0.3786 0.70986 0.0
O423 O 0.81679 0.40678 0.68164 0.0
C424 C 0.88737 0.3649 0.70052 0.0
H425 H 0.89792 0.47914 0.69005 0.0
H426 H 0.77354 0.30732 0.66401 0.0
H427 H 0.81351 0.42178 0.58947 0.0
H428 H 0.86466 0.34416 0.5852 0.0
Co429 Co 0.60979 0.85877 0.7045 0.0
C430 C 0.65557 0.81914 0.7245 0.0
C431 C 0.63769 0.84622 0.75401 0.0
C432 C 0.65881 0.82957 0.76512 0.0
N433 N 0.63573 0.83984 0.72853 0.0
N434 N 0.67008 0.81265 0.74656 0.0
H435 H 0.66002 0.8096 0.70586 0.0
H436 H 0.62503 0.8624 0.76378 0.0
C437 C 0.6547 0.90225 0.71977 0.0
O438 O 0.67524 0.88292 0.71819 0.0
N439 N 0.58359 0.87773 0.68113 0.0
C440 C 0.56958 0.86607 0.66074 0.0
C441 C 0.55242 0.88689 0.64962 0.0
C442 C 0.57483 0.90521 0.68231 0.0
N443 N 0.55577 0.91148 0.66324 0.0
C444 C 0.62956 0.82317 0.66316 0.0
C445 C 0.65562 0.86643 0.63543 0.0
C446 C 0.6493 0.84051 0.62259 0.0
C447 C 0.63711 0.81832 0.63729 0.0
C448 C 0.64694 0.87068 0.66105 0.0
N449 N 0.63338 0.84944 0.67449 0.0
H450 H 0.61848 0.80637 0.67342 0.0
H451 H 0.64913 0.89197 0.66898 0.0
H452 H 0.5714 0.84392 0.6546 0.0
H453 H 0.58235 0.92027 0.69682 0.0
O454 O 0.58425 0.82553 0.70512 0.0
O455 O 0.58231 0.86285 0.73166 0.0
O456 O 0.62932 0.8965 0.71176 0.0
C457 C 0.5715 0.83851 0.72429 0.0
H458 H 0.66533 0.82989 0.78532 0.0
H459 H 0.53811 0.88391 0.63318 0.0
H460 H 0.66574 0.88407 0.62541 0.0
H461 H 0.63143 0.79794 0.62856 0.0
Co462 Co 0.1451 0.59296 0.69758 0.0
C463 C 0.17639 0.64485 0.71825 0.0
C464 C 0.15335 0.62147 0.74722 0.0
C465 C 0.16562 0.64494 0.75876 0.0
N466 N 0.16001 0.62125 0.72182 0.0
N467 N 0.17985 0.65986 0.74057 0.0
H468 H 0.18439 0.65176 0.69971 0.0
H469 H 0.13969 0.60607 0.75673 0.0
C470 C 0.09763 0.63481 0.70815 0.0
O471 O 0.11599 0.65597 0.70566 0.0
N472 N 0.13025 0.56429 0.67438 0.0
C473 C 0.14264 0.55343 0.65294 0.0
C474 C 0.12479 0.53267 0.64265 0.0
C475 C 0.10555 0.54994 0.67717 0.0
N476 N 0.10169 0.53049 0.65811 0.0
C477 C 0.18012 0.61796 0.65786 0.0
C478 C 0.13455 0.63367 0.62606 0.0
C479 C 0.16224 0.63351 0.6156 0.0
C480 C 0.18535 0.62637 0.63217 0.0
C481 C 0.13025 0.62499 0.65164 0.0
N482 N 0.15276 0.61672 0.66719 0.0
H483 H 0.19792 0.61059 0.66974 0.0
H484 H 0.10838 0.62229 0.65781 0.0
H485 H 0.16321 0.55998 0.64543 0.0
H486 H 0.0906 0.55387 0.69275 0.0
O487 O 0.18097 0.5709 0.70059 0.0
O488 O 0.14279 0.56596 0.72536 0.0
O489 O 0.10506 0.60908 0.70258 0.0
C490 C 0.16862 0.55772 0.71985 0.0
H491 H 0.16392 0.65062 0.77905 0.0
H492 H 0.12861 0.51993 0.62544 0.0
H493 H 0.1159 0.63819 0.614 0.0
H494 H 0.20716 0.62604 0.62506 0.0
Co495 Co 0.40242 0.15553 0.68372 0.0
C496 C 0.35456 0.19419 0.70176 0.0
C497 C 0.37731 0.17328 0.73286 0.0
C498 C 0.35595 0.18976 0.74332 0.0
N499 N 0.37676 0.17611 0.7068 0.0
N500 N 0.34162 0.20282 0.72384 0.0
H501 H 0.34733 0.20027 0.68257 0.0
H502 H 0.3916 0.15936 0.74372 0.0
C503 C 0.35477 0.1142 0.69665 0.0
O504 O 0.33533 0.13462 0.69487 0.0
N505 N 0.4282 0.13496 0.66154 0.0
C506 C 0.44302 0.14515 0.64121 0.0
C507 C 0.46 0.12329 0.63168 0.0
C508 C 0.43619 0.10739 0.6642 0.0
N509 N 0.45544 0.09964 0.64615 0.0
C510 C 0.38306 0.19234 0.6422 0.0
C511 C 0.36047 0.14831 0.61232 0.0
C512 C 0.36502 0.17503 0.60065 0.0
C513 C 0.37535 0.19762 0.6162 0.0
C514 C 0.36827 0.14398 0.6382 0.0
N515 N 0.38013 0.16558 0.65274 0.0
H516 H 0.39316 0.20925 0.65337 0.0
H517 H 0.36721 0.12235 0.64551 0.0
H518 H 0.44185 0.16698 0.6341 0.0
H519 H 0.42889 0.09356 0.67962 0.0
O520 O 0.43001 0.18735 0.6857 0.0
O521 O 0.42878 0.14977 0.71181 0.0
O522 O 0.3807 0.11895 0.69011 0.0
C523 C 0.44124 0.1735 0.70539 0.0
H524 H 0.35045 0.19094 0.76366 0.0
H525 H 0.47462 0.12467 0.61552 0.0
H526 H 0.35252 0.1303 0.60104 0.0
H527 H 0.37938 0.21856 0.60788 0.0
C528 C 0.99488 0.5792 0.14674 0.0
C529 C 0.96547 0.57903 0.15222 0.0
C530 C 0.01067 0.55354 0.14599 0.0
C531 C 0.99652 0.52715 0.15048 0.0
C532 C 0.96669 0.52683 0.15556 0.0
C533 C 0.95155 0.55284 0.15652 0.0
C534 C 0.04257 0.55469 0.14097 0.0
C535 C 0.95083 0.49905 0.16015 0.0
C536 C 0.03226 0.45843 0.12776 0.0
C537 C 0.04393 0.44772 0.15101 0.0
C538 C 0.0167 0.48426 0.12729 0.0
C539 C 0.01305 0.49991 0.15058 0.0
C540 C 0.02492 0.48943 0.17407 0.0
C541 C 0.04002 0.46336 0.17404 0.0
C542 C 0.00407 0.49476 0.10192 0.0
C543 C 0.02156 0.50565 0.1993 0.0
H544 H 0.00567 0.59951 0.14375 0.0
H545 H 0.92872 0.55274 0.16045 0.0
H546 H 0.05454 0.54585 0.1579 0.0
H547 H 0.04797 0.54116 0.12396 0.0
H548 H 0.05018 0.57692 0.13735 0.0
H549 H 0.92743 0.5025 0.16297 0.0
H550 H 0.95386 0.4843 0.14346 0.0
H551 H 0.95973 0.48814 0.17759 0.0
H552 H 0.03545 0.44674 0.10985 0.0
H553 H 0.04837 0.45511 0.19221 0.0
H554 H 0.01289 0.51621 0.09716 0.0
H555 H 0.98044 0.49723 0.10367 0.0
H556 H 0.00859 0.47987 0.08559 0.0
H557 H 0.0299 0.52783 0.19726 0.0
H558 H 0.03304 0.49507 0.2157 0.0
H559 H 0.99846 0.50741 0.20423 0.0
C560 C 0.56221 0.98763 0.14236 0.0
C561 C 0.56601 0.0174 0.14301 0.0
C562 C 0.53458 0.97586 0.14325 0.0
C563 C 0.51051 0.99452 0.14426 0.0
C564 C 0.51429 0.02453 0.14178 0.0
C565 C 0.54216 0.03567 0.14157 0.0
C566 C 0.53146 0.94376 0.14625 0.0
C567 C 0.48913 0.04508 0.14213 0.0
C568 C 0.43595 0.96188 0.14545 0.0
C569 C 0.43053 0.96209 0.17212 0.0
C570 C 0.4618 0.97281 0.13582 0.0
C571 C 0.4827 0.98341 0.15346 0.0
C572 C 0.47727 0.98342 0.18045 0.0
C573 C 0.45109 0.97299 0.18939 0.0
C574 C 0.4667 0.9732 0.10692 0.0
C575 C 0.49922 0.99417 0.19996 0.0
H576 H 0.58086 0.97369 0.14363 0.0
H577 H 0.54541 0.05873 0.14184 0.0
H578 H 0.52697 0.93872 0.16685 0.0
H579 H 0.51319 0.93559 0.13445 0.0
H580 H 0.55131 0.93212 0.14055 0.0
H581 H 0.49502 0.06649 0.13434 0.0
H582 H 0.47078 0.03647 0.13067 0.0
H583 H 0.48185 0.04799 0.1624 0.0
H584 H 0.41979 0.95349 0.13222 0.0
H585 H 0.44693 0.97264 0.21004 0.0
H586 H 0.48595 0.96021 0.10212 0.0
H587 H 0.47092 0.9955 0.10043 0.0
H588 H 0.448 0.96465 0.09583 0.0
H589 H 0.51976 0.98229 0.1977 0.0
H590 H 0.49192 0.99165 0.22028 0.0
H591 H 0.5037 0.01724 0.19652 0.0
C592 C 0.97598 0.44312 0.31267 0.0
C593 C 0.94614 0.44361 0.309 0.0
C594 C 0.99144 0.46862 0.31601 0.0
C595 C 0.97662 0.49523 0.31567 0.0
C596 C 0.94665 0.49598 0.31086 0.0
C597 C 0.93176 0.4701 0.30743 0.0
C598 C 0.02347 0.467 0.32095 0.0
C599 C 0.93023 0.52401 0.31001 0.0
C600 C 0.01378 0.55335 0.35464 0.0
C601 C 0.02934 0.56737 0.33537 0.0
C602 C 0.9954 0.53056 0.34831 0.0
C603 C 0.99241 0.52193 0.32205 0.0
C604 C 0.00661 0.53728 0.30234 0.0
C605 C 0.02505 0.55981 0.30928 0.0
C606 C 0.98042 0.51471 0.36983 0.0
C607 C 0.00351 0.52903 0.27411 0.0
H608 H 0.98714 0.42267 0.31343 0.0
H609 H 0.90865 0.47057 0.30471 0.0
H610 H 0.03503 0.48073 0.30693 0.0
H611 H 0.02848 0.47527 0.34068 0.0
H612 H 0.0319 0.44471 0.31939 0.0
H613 H 0.90662 0.52064 0.30917 0.0
H614 H 0.93537 0.53733 0.32729 0.0
H615 H 0.93667 0.5364 0.29265 0.0
H616 H 0.01721 0.55919 0.37478 0.0
H617 H 0.0367 0.57111 0.29435 0.0
H618 H 0.9891 0.49252 0.37124 0.0
H619 H 0.95708 0.513 0.36552 0.0
H620 H 0.9833 0.52544 0.38894 0.0
H621 H 0.01399 0.50792 0.27076 0.0
H622 H 0.01343 0.54508 0.26103 0.0
H623 H 0.98049 0.5267 0.26874 0.0
C624 C 0.54368 0.96601 0.36948 0.0
C625 C 0.54233 0.93596 0.37048 0.0
C626 C 0.51871 0.98275 0.3704 0.0
C627 C 0.49171 0.96908 0.37239 0.0
C628 C 0.49014 0.9388 0.37406 0.0
C629 C 0.51554 0.92256 0.37306 0.0
C630 C 0.5212 0.01504 0.36835 0.0
C631 C 0.46167 0.92354 0.37618 0.0
C632 C 0.43234 0.0199 0.39231 0.0
C633 C 0.42165 0.0285 0.36805 0.0
C634 C 0.45412 -0.00089 0.3942 0.0
C635 C 0.46523 0.98674 0.37128 0.0
C636 C 0.45314 0.99399 0.34687 0.0
C637 C 0.43149 0.01485 0.34557 0.0
C638 C 0.46641 0.99169 0.42056 0.0
C639 C 0.46421 0.981 0.322 0.0
H640 H 0.56422 0.97649 0.36705 0.0
H641 H 0.51443 0.89935 0.37416 0.0
H642 H 0.51036 0.02256 0.35032 0.0
H643 H 0.51029 0.02553 0.38491 0.0
H644 H 0.54391 0.02233 0.36805 0.0
H645 H 0.46436 0.9002 0.38002 0.0
H646 H 0.44866 0.93315 0.39192 0.0
H647 H 0.4493 0.92616 0.35783 0.0
H648 H 0.4247 0.03045 0.40968 0.0
H649 H 0.42265 0.02098 0.32686 0.0
H650 H 0.48833 0.00081 0.42249 0.0
H651 H 0.46834 0.96805 0.42281 0.0
H652 H 0.45304 0.00029 0.43655 0.0
H653 H 0.48633 0.9888 0.31842 0.0
H654 H 0.45052 0.9867 0.30498 0.0
H655 H 0.4653 0.95726 0.32355 0.0
C656 C 0.9387 0.51502 0.89458 0.0
C657 C 0.92941 0.52449 0.87009 0.0
C658 C 0.96198 0.49592 0.89702 0.0
C659 C 0.97619 0.48645 0.87442 0.0
C660 C 0.96596 0.49491 0.84963 0.0
C661 C 0.94261 0.5137 0.84781 0.0
C662 C 0.97203 0.48689 0.9237 0.0
C663 C 0.98036 0.48507 0.82497 0.0
C664 C 0.05457 0.46921 0.86873 0.0
C665 C 0.05335 0.43998 0.86237 0.0
C666 C 0.02971 0.48429 0.8755 0.0
C667 C 0.00314 0.4696 0.8761 0.0
C668 C 0.0024 0.43944 0.8728 0.0
C669 C 0.0276 0.42492 0.86583 0.0
C670 C 0.03144 0.51645 0.8791 0.0
C671 C 0.97457 0.42294 0.87388 0.0
H672 H 0.92847 0.52333 0.91183 0.0
H673 H 0.93489 0.5203 0.82885 0.0
H674 H 0.97699 0.46356 0.92417 0.0
H675 H 0.99209 0.49852 0.9288 0.0
H676 H 0.95576 0.49174 0.93873 0.0
H677 H 0.96908 0.49298 0.80727 0.0
H678 H 0.00285 0.49294 0.82463 0.0
H679 H 0.98114 0.46126 0.82419 0.0
H680 H 0.07466 0.48067 0.86677 0.0
H681 H 0.02651 0.40228 0.86108 0.0
H682 H 0.01847 0.52343 0.89592 0.0
H683 H 0.02252 0.52726 0.8616 0.0
H684 H 0.05392 0.52383 0.88205 0.0
H685 H 0.96058 0.43125 0.88952 0.0
H686 H 0.97841 0.39963 0.87708 0.0
H687 H 0.96278 0.42552 0.85521 0.0
C688 C 0.44467 0.97183 0.80615 0.0
C689 C 0.4566 0.94493 0.8123 0.0
C690 C 0.46178 0.99655 0.80559 0.0
C691 C 0.49151 0.99424 0.81121 0.0
C692 C 0.50405 0.96689 0.81545 0.0
C693 C 0.48641 0.94253 0.81591 0.0
C694 C 0.44777 0.02534 0.80051 0.0
C695 C 0.53572 0.96355 0.82145 0.0
C696 C 0.54084 0.05842 0.80285 0.0
C697 C 0.54112 0.06984 0.82804 0.0
C698 C 0.52444 0.03399 0.79681 0.0
C699 C 0.50847 0.02054 0.81659 0.0
C700 C 0.50871 0.03208 0.84203 0.0
C701 C 0.52487 0.05671 0.84736 0.0
C702 C 0.52438 0.02248 0.76942 0.0
C703 C 0.49215 0.0182 0.86373 0.0
H704 H 0.42168 0.97393 0.80329 0.0
H705 H 0.49583 0.92171 0.82003 0.0
H706 H 0.45155 0.04002 0.81717 0.0
H707 H 0.45749 0.03542 0.7832 0.0
H708 H 0.42422 0.02353 0.79729 0.0
H709 H 0.5427 0.9407 0.82094 0.0
H710 H 0.54878 0.97591 0.80749 0.0
H711 H 0.54035 0.97227 0.84109 0.0
H712 H 0.55331 0.06876 0.78789 0.0
H713 H 0.52547 0.06528 0.8669 0.0
H714 H 0.502 0.02065 0.762 0.0
H715 H 0.53387 0.0006 0.76913 0.0
H716 H 0.53673 0.03635 0.75603 0.0
H717 H 0.46892 0.01764 0.85873 0.0
H718 H 0.49486 0.02976 0.88246 0.0
H719 H 0.49942 0.99565 0.86638 0.0
C720 C 0.94363 0.48491 0.65285 0.0
C721 C 0.93754 0.45555 0.65428 0.0
C722 C 0.97178 0.49448 0.64938 0.0
C723 C 0.99426 0.47408 0.64724 0.0
C724 C 0.98798 0.44439 0.64675 0.0
C725 C 0.9596 0.43544 0.65035 0.0
C726 C 0.97767 0.52639 0.64993 0.0
C727 C 0.01139 0.42202 0.64446 0.0
C728 C 0.0659 0.50669 0.63006 0.0
C729 C 0.07716 0.51226 0.65484 0.0
C730 C 0.0395 0.49256 0.62704 0.0
C731 C 0.02434 0.48396 0.64936 0.0
C732 C 0.03669 0.48772 0.67431 0.0
C733 C 0.063 0.50186 0.67671 0.0
C734 C 0.02709 0.4884 0.60015 0.0
C735 C 0.02134 0.47842 0.6986 0.0
H736 H 0.92646 0.50039 0.65547 0.0
H737 H 0.95505 0.41269 0.65167 0.0
H738 H 0.98935 0.53196 0.66812 0.0
H739 H 0.99156 0.53257 0.6335 0.0
H740 H 0.9576 0.53934 0.64898 0.0
H741 H 0.00259 0.40073 0.63876 0.0
H742 H 0.02768 0.42858 0.63007 0.0
H743 H 0.02249 0.41962 0.66348 0.0
H744 H 0.07693 0.51475 0.61316 0.0
H745 H 0.07216 0.50559 0.69582 0.0
H746 H 0.00886 0.5035 0.59715 0.0
H747 H 0.01857 0.46629 0.59783 0.0
H748 H 0.04326 0.49236 0.58486 0.0
H749 H 0.0016 0.49155 0.70107 0.0
H750 H 0.03496 0.48086 0.71627 0.0
H751 H 0.01461 0.45564 0.69698 0.0
C752 C 0.49853 0.07039 0.63795 0.0
C753 C 0.46941 0.07222 0.64435 0.0
C754 C 0.51312 0.04402 0.63906 0.0
C755 C 0.49802 0.01901 0.64647 0.0
C756 C 0.4683 0.02057 0.6518 0.0
C757 C 0.45438 0.04722 0.65077 0.0
C758 C 0.54493 0.04316 0.63357 0.0
C759 C 0.45142 0.99429 0.65949 0.0
C760 C 0.53071 0.94564 0.63416 0.0
C761 C 0.54159 0.93861 0.65883 0.0
C762 C 0.51661 0.97186 0.62974 0.0
C763 C 0.51363 0.99159 0.65043 0.0
C764 C 0.52484 0.98483 0.67528 0.0
C765 C 0.53846 0.95834 0.67921 0.0
C766 C 0.50468 0.97836 0.60304 0.0
C767 C 0.52212 0.00539 0.69785 0.0
H768 H 0.51017 0.08979 0.63323 0.0
H769 H 0.43174 0.04865 0.65535 0.0
H770 H 0.55691 0.03767 0.65162 0.0
H771 H 0.54977 0.02621 0.6191 0.0
H772 H 0.553 0.06404 0.62623 0.0
H773 H 0.42804 -0.00118 0.66103 0.0
H774 H 0.4546 0.9768 0.64515 0.0
H775 H 0.45931 0.98627 0.67853 0.0
H776 H 0.53337 0.93074 0.61821 0.0
H777 H 0.54625 0.95296 0.69845 0.0
H778 H 0.51412 -0.00145 0.59558 0.0
H779 H 0.48109 0.98169 0.60408 0.0
H780 H 0.50906 0.96082 0.58897 0.0
H781 H 0.53053 0.02685 0.69253 0.0
H782 H 0.5339 -0.00229 0.71536 0.0
H783 H 0.49914 0.00816 0.70286 0.0
C784 C 0.1969 0.26874 0.21868 0.0
C785 C 0.19403 0.29397 0.23327 0.0
C786 C 0.21923 0.24913 0.22405 0.0
C787 C 0.23914 0.25518 0.2443 0.0
C788 C 0.23686 0.28115 0.2584 0.0
C789 C 0.21436 0.30018 0.25271 0.0
C790 C 0.22106 0.22164 0.20859 0.0
C791 C 0.25783 0.28859 0.27993 0.0
C792 C 0.27939 0.19536 0.27911 0.0
C793 C 0.30674 0.1973 0.26807 0.0
C794 C 0.25694 0.21353 0.271 0.0
C795 C 0.26198 0.23417 0.25141 0.0
C796 C 0.28942 0.23599 0.23996 0.0
C797 C 0.31146 0.21756 0.24844 0.0
C798 C 0.22793 0.21094 0.28367 0.0
C799 C 0.29569 0.25787 0.21917 0.0
H800 H 0.18113 0.26391 0.20372 0.0
H801 H 0.21253 0.31999 0.26363 0.0
H802 H 0.24277 0.21929 0.20012 0.0
H803 H 0.21772 0.20298 0.22158 0.0
H804 H 0.20482 0.22082 0.19268 0.0
H805 H 0.25364 0.31016 0.28837 0.0
H806 H 0.25647 0.27238 0.29563 0.0
H807 H 0.28015 0.28808 0.27256 0.0
H808 H 0.27543 0.17943 0.29393 0.0
H809 H 0.3326 0.21937 0.24002 0.0
H810 H 0.21096 0.20774 0.2687 0.0
H811 H 0.2228 0.23114 0.29412 0.0
H812 H 0.22712 0.19284 0.29766 0.0
H813 H 0.27981 0.256 0.20308 0.0
H814 H 0.31762 0.25534 0.21113 0.0
H815 H 0.29364 0.27986 0.22729 0.0
C816 C 0.79161 0.26848 0.2671 0.0
C817 C 0.77438 0.29239 0.27279 0.0
C818 C 0.77932 0.24151 0.2623 0.0
C819 C 0.74913 0.23839 0.26352 0.0
C820 C 0.73165 0.26242 0.2695 0.0
C821 C 0.74451 0.28921 0.27389 0.0
C822 C 0.79858 0.21645 0.2556 0.0
C823 C 0.69939 0.25981 0.27129 0.0
C824 C 0.71192 0.17694 0.2287 0.0
C825 C 0.70688 0.15775 0.24913 0.0
C826 C 0.72638 0.20292 0.23298 0.0
C827 C 0.73571 0.21007 0.25837 0.0
C828 C 0.73133 0.19058 0.27897 0.0
C829 C 0.71716 0.16458 0.27406 0.0
C830 C 0.73096 0.22308 0.21047 0.0
C831 C 0.74094 0.19754 0.30632 0.0
H832 H 0.81468 0.27103 0.26582 0.0
H833 H 0.73127 0.30767 0.27851 0.0
H834 H 0.79552 0.19875 0.26968 0.0
H835 H 0.79273 0.20797 0.23614 0.0
H836 H 0.82167 0.22246 0.2556 0.0
H837 H 0.68895 0.28047 0.2766 0.0
H838 H 0.69035 0.25247 0.25243 0.0
H839 H 0.69375 0.24343 0.286 0.0
H840 H 0.70379 0.17218 0.20944 0.0
H841 H 0.71385 0.1497 0.28987 0.0
H842 H 0.75397 0.22907 0.20924 0.0
H843 H 0.71857 0.24318 0.21354 0.0
H844 H 0.72414 0.21349 0.19166 0.0
H845 H 0.7643 0.20221 0.3068 0.0
H846 H 0.73658 0.17973 0.32004 0.0
H847 H 0.72967 0.21711 0.31322 0.0
C848 C 0.67731 0.74847 0.27088 0.0
C849 C 0.67164 0.77781 0.27466 0.0
C850 C 0.7012 0.73926 0.25672 0.0
C851 C 0.71955 0.75988 0.2454 0.0
C852 C 0.71189 0.78932 0.2463 0.0
C853 C 0.68814 0.79797 0.26108 0.0
C854 C 0.70833 0.70758 0.25615 0.0
C855 C 0.73002 0.81206 0.23364 0.0
C856 C 0.797 0.73652 0.25131 0.0
C857 C 0.80143 0.72262 0.22755 0.0
C858 C 0.77105 0.75044 0.25665 0.0
C859 C 0.74898 0.7509 0.23757 0.0
C860 C 0.75433 0.73938 0.2126 0.0
C861 C 0.78055 0.72514 0.20789 0.0
C862 C 0.76656 0.7628 0.28344 0.0
C863 C 0.73184 0.74062 0.19139 0.0
H864 H 0.66402 0.7326 0.28027 0.0
H865 H 0.68378 0.82067 0.2632 0.0
H866 H 0.71358 0.7006 0.23618 0.0
H867 H 0.72755 0.70347 0.26853 0.0
H868 H 0.69038 0.69417 0.26335 0.0
H869 H 0.71663 0.83078 0.22772 0.0
H870 H 0.74638 0.81983 0.24777 0.0
H871 H 0.74134 0.80363 0.21637 0.0
H872 H 0.81347 0.73528 0.26626 0.0
H873 H 0.78398 0.71459 0.18943 0.0
H874 H 0.74942 0.75065 0.29344 0.0
H875 H 0.75942 0.7855 0.28206 0.0
H876 H 0.78639 0.7619 0.29559 0.0
H877 H 0.71528 0.72401 0.19492 0.0
H878 H 0.74127 0.73661 0.17199 0.0
H879 H 0.72088 0.76184 0.19122 0.0
C880 C 0.25251 0.67765 0.29237 0.0
C881 C 0.22398 0.68274 0.29952 0.0
C882 C 0.2692 0.69954 0.28168 0.0
C883 C 0.25677 0.72697 0.27769 0.0
C884 C 0.22884 0.73289 0.28706 0.0
C885 C 0.21278 0.71063 0.29804 0.0
C886 C 0.29914 0.69256 0.27252 0.0
C887 C 0.21482 0.76187 0.28314 0.0
C888 C 0.30029 0.78967 0.25226 0.0
C889 C 0.29379 0.7884 0.22563 0.0
C890 C 0.28906 0.76937 0.26953 0.0
C891 C 0.27071 0.74758 0.2599 0.0
C892 C 0.26478 0.74571 0.23296 0.0
C893 C 0.27655 0.76602 0.21618 0.0
C894 C 0.29612 0.77175 0.29808 0.0
C895 C 0.24539 0.72266 0.22188 0.0
H896 H 0.26114 0.65605 0.29384 0.0
H897 H 0.19064 0.71447 0.30343 0.0
H898 H 0.29887 0.69003 0.25111 0.0
H899 H 0.31421 0.71026 0.27733 0.0
H900 H 0.30745 0.67232 0.28123 0.0
H901 H 0.19499 0.76426 0.29479 0.0
H902 H 0.22988 0.77941 0.28839 0.0
H903 H 0.20903 0.76452 0.26234 0.0
H904 H 0.31334 0.80705 0.2598 0.0
H905 H 0.27193 0.76462 0.1956 0.0
H906 H 0.30319 0.75064 0.30586 0.0
H907 H 0.27658 0.77818 0.30884 0.0
H908 H 0.31321 0.78783 0.30203 0.0
H909 H 0.25398 0.70109 0.22686 0.0
H910 H 0.24316 0.72414 0.20045 0.0
H911 H 0.2237 0.72445 0.2305 0.0
C912 C 0.71464 0.79736 0.76868 0.0
C913 C 0.69333 0.79248 0.74979 0.0
C914 C 0.73682 0.77747 0.77289 0.0
C915 C 0.7377 0.75206 0.75784 0.0
C916 C 0.71659 0.74722 0.73838 0.0
C917 C 0.69464 0.76756 0.73455 0.0
C918 C 0.75909 0.78349 0.79369 0.0
C919 C 0.71689 0.72032 0.72198 0.0
C920 C 0.80862 0.71182 0.75603 0.0
C921 C 0.80434 0.69048 0.77476 0.0
C922 C 0.78694 0.73177 0.74999 0.0
C923 C 0.76037 0.73029 0.76302 0.0
C924 C 0.75578 0.70862 0.78175 0.0
C925 C 0.77784 0.68898 0.7874 0.0
C926 C 0.79263 0.75469 0.72999 0.0
C927 C 0.72766 0.70635 0.79599 0.0
H928 H 0.71404 0.81686 0.78014 0.0
H929 H 0.67808 0.76362 0.72008 0.0
H930 H 0.75839 0.7665 0.80875 0.0
H931 H 0.78093 0.78306 0.78524 0.0
H932 H 0.75575 0.80465 0.80321 0.0
H933 H 0.69952 0.72028 0.70706 0.0
H934 H 0.73787 0.71809 0.71213 0.0
H935 H 0.71428 0.70117 0.73454 0.0
H936 H 0.82916 0.71326 0.74642 0.0
H937 H 0.77421 0.67222 0.80154 0.0
H938 H 0.79142 0.77624 0.73915 0.0
H939 H 0.77593 0.75398 0.7145 0.0
H940 H 0.81407 0.75222 0.72094 0.0
H941 H 0.72381 0.72627 0.80729 0.0
H942 H 0.72727 0.68776 0.80947 0.0
H943 H 0.70962 0.70415 0.78191 0.0
C944 C 0.21691 0.69528 0.72832 0.0
C945 C 0.19434 0.68688 0.74447 0.0
C946 C 0.23223 0.72073 0.73323 0.0
C947 C 0.22498 0.73784 0.75494 0.0
C948 C 0.20167 0.72995 0.77077 0.0
C949 C 0.18648 0.70479 0.76516 0.0
C950 C 0.25666 0.72884 0.71566 0.0
C951 C 0.19334 0.74755 0.79421 0.0
C952 C 0.28102 0.78375 0.78858 0.0
C953 C 0.27223 0.81144 0.78145 0.0
C954 C 0.26635 0.7595 0.77939 0.0
C955 C 0.24264 0.76311 0.76229 0.0
C956 C 0.23433 0.79101 0.75425 0.0
C957 C 0.24907 0.81493 0.76418 0.0
C958 C 0.27549 0.73012 0.78884 0.0
C959 C 0.20951 0.79562 0.73564 0.0
H960 H 0.22314 0.6816 0.71232 0.0
H961 H 0.16852 0.69905 0.77726 0.0
H962 H 0.25445 0.75156 0.70942 0.0
H963 H 0.27735 0.72693 0.72639 0.0
H964 H 0.25764 0.71494 0.69815 0.0
H965 H 0.17423 0.73874 0.80418 0.0
H966 H 0.21153 0.74819 0.80827 0.0
H967 H 0.18861 0.77002 0.78842 0.0
H968 H 0.29881 0.78114 0.80209 0.0
H969 H 0.24263 0.83639 0.75839 0.0
H970 H 0.2794 0.71562 0.77215 0.0
H971 H 0.258 0.72051 0.80043 0.0
H972 H 0.29528 0.73094 0.80103 0.0
H973 H 0.21201 0.78178 0.71826 0.0
H974 H 0.20767 0.81836 0.72929 0.0
H975 H 0.18912 0.78939 0.74505 0.0
C976 C 0.31281 0.2372 0.74861 0.0
C977 C 0.3158 0.21948 0.72682 0.0
C978 C 0.28635 0.24974 0.75467 0.0
C979 C 0.26221 0.24442 0.73849 0.0
C980 C 0.26547 0.22801 0.71553 0.0
C981 C 0.29235 0.2157 0.70992 0.0
C982 C 0.28393 0.26735 0.7792 0.0
C983 C 0.24026 0.22207 0.69772 0.0
C984 C 0.19241 0.2475 0.77553 0.0
C985 C 0.18334 0.27576 0.77077 0.0
C986 C 0.21724 0.23646 0.7639 0.0
C987 C 0.23335 0.25409 0.74707 0.0
C988 C 0.22341 0.28206 0.74102 0.0
C989 C 0.19852 0.29257 0.75296 0.0
C990 C 0.22714 0.20649 0.77086 0.0
C991 C 0.23983 0.3014 0.72297 0.0
H992 H 0.3311 0.24041 0.76144 0.0
H993 H 0.2946 0.20183 0.69316 0.0
H994 H 0.27379 0.28845 0.77494 0.0
H995 H 0.26995 0.25606 0.79319 0.0
H996 H 0.30516 0.27114 0.78861 0.0
H997 H 0.2471 0.21246 0.67902 0.0
H998 H 0.22536 0.20693 0.7073 0.0
H999 H 0.22808 0.24212 0.69368 0.0
H1000 H 0.18089 0.23446 0.78933 0.0
H1001 H 0.19125 0.31419 0.7487 0.0
H1002 H 0.24723 0.20771 0.78257 0.0
H1003 H 0.23202 0.19403 0.75307 0.0
H1004 H 0.21083 0.19461 0.78219 0.0
H1005 H 0.26021 0.30814 0.73248 0.0
H1006 H 0.22741 0.321 0.71769 0.0
H1007 H 0.24554 0.28974 0.70496 0.0
C1008 C 0.80521 0.28844 0.73574 0.0
C1009 C 0.80098 0.28502 0.70896 0.0
C1010 C 0.79361 0.26882 0.75333 0.0
C1011 C 0.77755 0.24523 0.7438 0.0
C1012 C 0.77473 0.2407 0.71676 0.0
C1013 C 0.78642 0.26076 0.69964 0.0
C1014 C 0.79696 0.27438 0.78206 0.0
C1015 C 0.758 0.21559 0.70591 0.0
C1016 C 0.75712 0.18503 0.7895 0.0
C1017 C 0.72872 0.19252 0.79543 0.0
C1018 C 0.77347 0.20206 0.77279 0.0
C1019 C 0.76108 0.22716 0.76198 0.0
C1020 C 0.73256 0.23503 0.76821 0.0
C1021 C 0.71672 0.21755 0.78483 0.0
C1022 C 0.80378 0.19301 0.7664 0.0
C1023 C 0.7187 0.26184 0.75722 0.0
H1024 H 0.81618 0.30733 0.74304 0.0
H1025 H 0.78352 0.25795 0.67891 0.0
H1026 H 0.77592 0.28088 0.79018 0.0
H1027 H 0.80389 0.25455 0.79229 0.0
H1028 H 0.81278 0.29165 0.78626 0.0
H1029 H 0.76055 0.21338 0.68459 0.0
H1030 H 0.76499 0.19529 0.71531 0.0
H1031 H 0.73482 0.21851 0.71009 0.0
H1032 H 0.76632 0.16552 0.79749 0.0
H1033 H 0.69494 0.2236 0.78974 0.0
H1034 H 0.81902 0.21052 0.77132 0.0
H1035 H 0.80554 0.18896 0.74526 0.0
H1036 H 0.81047 0.17327 0.77697 0.0
H1037 H 0.73174 0.28096 0.76241 0.0
H1038 H 0.69651 0.26514 0.76443 0.0
H1039 H 0.71787 0.26051 0.73574 0.0
C1040 C 0.16297 0.32252 0.06305 0.0
C1041 C 0.15289 0.3472 0.07583 0.0
C1042 C 0.16319 0.32085 0.03572 0.0
C1043 C 0.1529 0.34431 0.02072 0.0
C1044 C 0.14304 0.36936 0.03351 0.0
C1045 C 0.14313 0.37048 0.06077 0.0
C1046 C 0.17403 0.29379 0.0229 0.0
C1047 C 0.13169 0.39483 0.01841 0.0
C1048 C 0.17159 0.35263 0.94909 0.0
C1049 C 0.14642 0.34289 0.93668 0.0
C1050 C 0.17435 0.35247 0.97633 0.0
C1051 C 0.15135 0.34246 0.9917 0.0
C1052 C 0.12612 0.33211 0.97929 0.0
C1053 C 0.12397 0.33245 0.95205 0.0
C1054 C 0.20168 0.36356 0.98871 0.0
C1055 C 0.10098 0.32143 0.99483 0.0
H1056 H 0.17069 0.30447 0.07442 0.0
H1057 H 0.13467 0.38943 0.0703 0.0
H1058 H 0.15637 0.28363 0.01159 0.0
H1059 H 0.19134 0.29906 0.00905 0.0
H1060 H 0.18244 0.27795 0.03718 0.0
H1061 H 0.12574 0.41309 0.03119 0.0
H1062 H 0.14804 0.40231 1.00446 0.0
H1063 H 0.11243 0.38839 0.00697 0.0
H1064 H 0.1892 0.36045 0.93746 0.0
H1065 H 0.10424 0.3253 0.9428 0.0
H1066 H 0.21078 0.34725 1.00216 0.0
H1067 H 0.19691 0.38303 1.00036 0.0
H1068 H 0.21818 0.36908 0.97411 0.0
H1069 H 0.10812 0.30436 0.00846 0.0
H1070 H 0.08349 0.31274 0.98231 0.0
H1071 H 0.09212 0.33927 0.00665 0.0
C1072 C 0.67854 0.1437 0.96472 0.0
C1073 C 0.65441 0.13065 0.95318 0.0
C1074 C 0.6828 0.14329 0.99176 0.0
C1075 C 0.66248 0.12947 0.00772 0.0
C1076 C 0.63815 0.11616 0.9962 0.0
C1077 C 0.63442 0.11691 0.96913 0.0
C1078 C 0.70906 0.15762 1.00325 0.0
C1079 C 0.61591 0.10126 0.01252 0.0
C1080 C 0.68202 0.10378 0.07568 0.0
C1081 C 0.66872 0.12461 0.09125 0.0
C1082 C 0.68109 0.10565 0.04848 0.0
C1083 C 0.66647 0.1289 0.03648 0.0
C1084 C 0.65417 0.1507 0.05208 0.0
C1085 C 0.65544 0.14829 0.07924 0.0
C1086 C 0.69454 0.08198 0.03259 0.0
C1087 C 0.63858 0.17595 0.04008 0.0
H1088 H 0.6943 0.15404 0.95256 0.0
H1089 H 0.61551 0.10713 0.96048 0.0
H1090 H 0.70249 0.17456 0.01716 0.0
H1091 H 0.72208 0.14168 0.01425 0.0
H1092 H 0.72281 0.1675 0.9882 0.0
H1093 H 0.59836 0.09173 1.00059 0.0
H1094 H 0.6262 0.08394 0.02413 0.0
H1095 H 0.60636 0.11677 0.02637 0.0
H1096 H 0.69195 0.08517 0.08471 0.0
H1097 H 0.64536 0.16463 0.09112 0.0
H1098 H 0.70883 0.09118 0.01765 0.0
H1099 H 0.67745 0.06979 0.02226 0.0
H1100 H 0.7072 0.06674 0.04473 0.0
H1101 H 0.65239 0.18662 0.02557 0.0
H1102 H 0.63203 0.1921 0.05479 0.0
H1103 H 0.61904 0.16831 0.0297 0.0
C1104 C 0.82846 0.65114 0.95036 0.0
C1105 C 0.84862 0.66563 0.93504 0.0
C1106 C 0.82745 0.65523 0.9774 0.0
C1107 C 0.84732 0.67397 0.98967 0.0
C1108 C 0.86674 0.68975 0.97425 0.0
C1109 C 0.867 0.68556 0.9472 0.0
C1110 C 0.80614 0.63821 0.99299 0.0
C1111 C 0.8884 0.70985 0.98645 0.0
C1112 C 0.83709 0.69417 0.0611 0.0
C1113 C 0.85434 0.67356 0.07359 0.0
C1114 C 0.83452 0.6947 0.03379 0.0
C1115 C 0.84998 0.67449 0.01866 0.0
C1116 C 0.86799 0.65417 0.03128 0.0
C1117 C 0.8698 0.65387 0.05847 0.0
C1118 C 0.81484 0.71647 0.02114 0.0
C1119 C 0.88528 0.63253 0.01606 0.0
H1120 H 0.81432 0.63544 0.94146 0.0
H1121 H 0.88227 0.69739 0.93564 0.0
H1122 H 0.81768 0.62145 1.00432 0.0
H1123 H 0.79496 0.65236 0.00703 0.0
H1124 H 0.78979 0.62753 0.98047 0.0
H1125 H 0.90003 0.72266 0.97174 0.0
H1126 H 0.8777 0.72478 1.00011 0.0
H1127 H 0.90438 0.69722 0.9978 0.0
H1128 H 0.82507 0.70938 0.0727 0.0
H1129 H 0.88354 0.63819 0.068 0.0
H1130 H 0.7975 0.70522 0.01028 0.0
H1131 H 0.8269 0.72947 0.0069 0.0
H1132 H 0.80488 0.73117 0.0355 0.0
H1133 H 0.87064 0.61846 1.00468 0.0
H1134 H 0.89896 0.61879 0.02876 0.0
H1135 H 0.8993 0.64377 1.00206 0.0
C1136 C 0.36681 0.89213 0.94771 0.0
C1137 C 0.34175 0.89074 0.93247 0.0
C1138 C 0.36549 0.89204 0.97493 0.0
C1139 C 0.3384 0.89127 0.98724 0.0
C1140 C 0.31298 0.89046 0.97188 0.0
C1141 C 0.31498 0.8898 0.94467 0.0
C1142 C 0.39314 0.89217 0.99051 0.0
C1143 C 0.28368 0.89034 0.9842 0.0
C1144 C 0.33572 0.86345 0.05659 0.0
C1145 C 0.33699 0.88895 0.07125 0.0
C1146 C 0.33608 0.86392 0.02934 0.0
C1147 C 0.33682 0.89057 0.01617 0.0
C1148 C 0.33702 0.91642 0.03068 0.0
C1149 C 0.33749 0.91531 0.05796 0.0
C1150 C 0.33631 0.83581 0.01466 0.0
C1151 C 0.33721 0.94531 0.01739 0.0
H1152 H 0.38753 0.89257 0.93828 0.0
H1153 H 0.2956 0.88888 0.93286 0.0
H1154 H 0.39376 0.91116 1.00351 0.0
H1155 H 0.39425 0.87278 1.00298 0.0
H1156 H 0.41243 0.89258 0.97799 0.0
H1157 H 0.26603 0.89108 0.96956 0.0
H1158 H 0.28112 0.87072 0.99613 0.0
H1159 H 0.28149 0.90908 0.99738 0.0
H1160 H 0.33455 0.84293 0.06639 0.0
H1161 H 0.33889 0.93521 0.06882 0.0
H1162 H 0.35589 0.83443 1.00258 0.0
H1163 H 0.31751 0.83467 1.00133 0.0
H1164 H 0.33586 0.8169 0.02778 0.0
H1165 H 0.3576 0.94802 0.0067 0.0
H1166 H 0.33501 0.96338 0.03133 0.0
H1167 H 0.31941 0.9466 1.00296 0.0
C1168 C 0.17805 0.65106 0.45934 0.0
C1169 C 0.15793 0.63212 0.44823 0.0
C1170 C 0.18129 0.65344 0.48648 0.0
C1171 C 0.16388 0.63665 0.503 0.0
C1172 C 0.14344 0.61767 0.49188 0.0
C1173 C 0.14073 0.61564 0.46476 0.0
C1174 C 0.20343 0.67383 0.4975 0.0
C1175 C 0.12422 0.59953 0.50866 0.0
C1176 C 0.18445 0.61926 0.57304 0.0
C1177 C 0.16611 0.63751 0.58701 0.0
C1178 C 0.185 0.61973 0.54574 0.0
C1179 C 0.16669 0.63883 0.53192 0.0
C1180 C 0.14922 0.6583 0.54591 0.0
C1181 C 0.1492 0.65746 0.5732 0.0
C1182 C 0.20408 0.5987 0.53166 0.0
C1183 C 0.12946 0.67911 0.53205 0.0
H1184 H 0.19157 0.66375 0.44678 0.0
H1185 H 0.12472 0.60138 0.45647 0.0
H1186 H 0.19289 0.68987 0.51024 0.0
H1187 H 0.21914 0.66182 0.50966 0.0
H1188 H 0.21525 0.68542 0.48211 0.0
H1189 H 0.10947 0.58577 0.49704 0.0
H1190 H 0.13747 0.5855 0.52144 0.0
H1191 H 0.11116 0.61356 0.5214 0.0
H1192 H 0.19736 0.60351 0.58337 0.0
H1193 H 0.13527 0.67196 0.58374 0.0
H1194 H 0.21665 0.60989 0.51656 0.0
H1195 H 0.19061 0.58235 0.5217 0.0
H1196 H 0.21922 0.58748 0.54503 0.0
H1197 H 0.14146 0.6914 0.51727 0.0
H1198 H 0.11917 0.69451 0.5456 0.0
H1199 H 0.11232 0.66702 0.5217 0.0
C1200 C 0.33254 0.16316 0.44835 0.0
C1201 C 0.35385 0.17637 0.43337 0.0
C1202 C 0.33207 0.16622 0.47552 0.0
C1203 C 0.35365 0.18255 0.48824 0.0
C1204 C 0.37429 0.19719 0.4732 0.0
C1205 C 0.37399 0.19413 0.44603 0.0
C1206 C 0.30941 0.15054 0.49071 0.0
C1207 C 0.39779 0.21472 0.48588 0.0
C1208 C 0.34658 0.20045 0.56048 0.0
C1209 C 0.36217 0.17789 0.57194 0.0
C1210 C 0.34344 0.20231 0.53326 0.0
C1211 C 0.3567 0.18145 0.51718 0.0
C1212 C 0.37296 0.15903 0.52876 0.0
C1213 C 0.37533 0.15745 0.55588 0.0
C1214 C 0.3256 0.22629 0.52173 0.0
C1215 C 0.38791 0.13659 0.51249 0.0
H1216 H 0.31701 0.14912 0.43907 0.0
H1217 H 0.3902 0.20499 0.43475 0.0
H1218 H 0.31943 0.13219 0.50116 0.0
H1219 H 0.29982 0.16495 0.50547 0.0
H1220 H 0.29196 0.14212 0.47799 0.0
H1221 H 0.41035 0.22713 0.47153 0.0
H1222 H 0.38863 0.22987 0.50024 0.0
H1223 H 0.41271 0.20019 0.49653 0.0
H1224 H 0.33634 0.21626 0.57281 0.0
H1225 H 0.38783 0.14024 0.56461 0.0
H1226 H 0.30729 0.21714 0.51055 0.0
H1227 H 0.33864 0.23895 0.50797 0.0
H1228 H 0.31702 0.24102 0.53679 0.0
H1229 H 0.37185 0.12452 0.50079 0.0
H1230 H 0.40037 0.12103 0.52446 0.0
H1231 H 0.40276 0.1471 0.49874 0.0
C1232 C 0.80985 0.37725 0.42788 0.0
C1233 C 0.83635 0.37895 0.41534 0.0
C1234 C 0.80827 0.37864 0.4551 0.0
C1235 C 0.8339 0.38094 0.47005 0.0
C1236 C 0.86074 0.38227 0.45735 0.0
C1237 C 0.86159 0.38165 0.43013 0.0
C1238 C 0.77922 0.37789 0.46785 0.0
C1239 C 0.88862 0.38397 0.4725 0.0
C1240 C 0.83414 0.40817 0.5398 0.0
C1241 C 0.83517 0.38244 0.55404 0.0
C1242 C 0.83259 0.40799 0.51253 0.0
C1243 C 0.83287 0.38149 0.499 0.0
C1244 C 0.8335 0.35547 0.51315 0.0
C1245 C 0.83417 0.35625 0.5404 0.0
C1246 C 0.83129 0.43623 0.49817 0.0
C1247 C 0.8343 0.32673 0.49952 0.0
H1248 H 0.79035 0.3753 0.41633 0.0
H1249 H 0.88208 0.38278 0.42034 0.0
H1250 H 0.77772 0.35886 0.48068 0.0
H1251 H 0.77641 0.39721 0.48022 0.0
H1252 H 0.76132 0.37707 0.45346 0.0
H1253 H 0.90768 0.38421 0.45969 0.0
H1254 H 0.88891 0.40366 0.48463 0.0
H1255 H 0.89049 0.36532 0.48581 0.0
H1256 H 0.83525 0.42858 0.54985 0.0
H1257 H 0.83411 0.33617 0.55098 0.0
H1258 H 0.81323 0.43612 0.48396 0.0
H1259 H 0.85137 0.43932 0.4871 0.0
H1260 H 0.82853 0.45481 0.51148 0.0
H1261 H 0.81537 0.32446 0.48646 0.0
H1262 H 0.83457 0.30843 0.51333 0.0
H1263 H 0.85375 0.32534 0.48727 0.0
C1264 C 0.61848 0.82604 0.47153 0.0
C1265 C 0.64239 0.82822 0.45515 0.0
C1266 C 0.6216 0.82602 0.49866 0.0
C1267 C 0.64923 0.82917 0.51001 0.0
C1268 C 0.67353 0.83105 0.49377 0.0
C1269 C 0.66988 0.83013 0.46664 0.0
C1270 C 0.59512 0.82342 0.51521 0.0
C1271 C 0.70332 0.83504 0.50505 0.0
C1272 C 0.64836 0.8619 0.57761 0.0
C1273 C 0.65244 0.8378 0.5937 0.0
C1274 C 0.6487 0.85954 0.55046 0.0
C1275 C 0.65228 0.83225 0.53878 0.0
C1276 C 0.65695 0.80787 0.5547 0.0
C1277 C 0.65738 0.81098 0.58188 0.0
C1278 C 0.64423 0.88623 0.53425 0.0
C1279 C 0.66035 0.77829 0.54305 0.0
H1280 H 0.59702 0.8252 0.46327 0.0
H1281 H 0.68868 0.83123 0.45447 0.0
H1282 H 0.59824 0.8064 0.53004 0.0
H1283 H 0.59132 0.84391 0.52567 0.0
H1284 H 0.5756 0.81829 0.50354 0.0
H1285 H 0.72014 0.83506 0.4899 0.0
H1286 H 0.70435 0.85573 0.51574 0.0
H1287 H 0.70828 0.81774 0.51918 0.0
H1288 H 0.64381 0.88269 0.5861 0.0
H1289 H 0.66112 0.79221 0.59384 0.0
H1290 H 0.6231 0.88515 0.52417 0.0
H1291 H 0.66097 0.88769 0.51913 0.0
H1292 H 0.64484 0.90616 0.54614 0.0
H1293 H 0.64023 0.7722 0.53272 0.0
H1294 H 0.66521 0.76171 0.55795 0.0
H1295 H 0.67779 0.77823 0.52854 0.0
C1296 C 0.19378 0.53693 0.29865 0.0
C1297 C 0.1699 0.5405 0.31471 0.0
C1298 C 0.19508 0.51413 0.28076 0.0
C1299 C 0.17235 0.49395 0.27954 0.0
C1300 C 0.14903 0.49655 0.2969 0.0
C1301 C 0.14783 0.52011 0.31393 0.0
C1302 C 0.21983 0.51273 0.26208 0.0
C1303 C 0.12477 0.47506 0.29683 0.0
C1304 C 0.15377 0.4531 0.21769 0.0
C1305 C 0.16665 0.42634 0.22235 0.0
C1306 C 0.1567 0.47575 0.23557 0.0
C1307 C 0.17197 0.47115 0.25915 0.0
C1308 C 0.18549 0.4443 0.26369 0.0
C1309 C 0.18303 0.42235 0.24504 0.0
C1310 C 0.14268 0.50431 0.22957 0.0
C1311 C 0.20115 0.43818 0.28887 0.0
H1312 H 0.21055 0.55306 0.29881 0.0
H1313 H 0.12925 0.523 0.32622 0.0
H1314 H 0.22978 0.49105 0.2623 0.0
H1315 H 0.21172 0.51661 0.24207 0.0
H1316 H 0.23666 0.5289 0.26663 0.0
H1317 H 0.11005 0.47826 0.31345 0.0
H1318 H 0.11208 0.4771 0.27861 0.0
H1319 H 0.13344 0.45283 0.29758 0.0
H1320 H 0.14099 0.45616 0.2002 0.0
H1321 H 0.19253 0.40148 0.24895 0.0
H1322 H 0.15825 0.52204 0.23263 0.0
H1323 H 0.12449 0.50801 0.24293 0.0
H1324 H 0.13437 0.50535 0.20932 0.0
H1325 H 0.21763 0.45484 0.29273 0.0
H1326 H 0.21178 0.41678 0.28884 0.0
H1327 H 0.18569 0.43895 0.30512 0.0
C1328 C 0.57678 0.14982 0.24604 0.0
C1329 C 0.57687 0.12867 0.22662 0.0
C1330 C 0.55202 0.15537 0.26065 0.0
C1331 C 0.52646 0.13994 0.25527 0.0
C1332 C 0.52614 0.11926 0.23503 0.0
C1333 C 0.55147 0.11358 0.22121 0.0
C1334 C 0.55354 0.17701 0.28247 0.0
C1335 C 0.49917 0.10284 0.2282 0.0
C1336 C 0.46949 0.13102 0.30721 0.0
C1337 C 0.44959 0.15247 0.30043 0.0
C1338 C 0.49498 0.12727 0.29316 0.0
C1339 C 0.50031 0.14485 0.2713 0.0
C1340 C 0.48043 0.16679 0.26458 0.0
C1341 C 0.4555 0.17058 0.27944 0.0
C1342 C 0.51595 0.10414 0.30144 0.0
C1343 C 0.4849 0.1855 0.24107 0.0
H1344 H 0.59645 0.16125 0.2506 0.0
H1345 H 0.55143 0.09723 0.2062 0.0
H1346 H 0.53693 0.19389 0.27967 0.0
H1347 H 0.549 0.16621 0.30117 0.0
H1348 H 0.57492 0.18749 0.28394 0.0
H1349 H 0.50194 0.08903 0.21079 0.0
H1350 H 0.49296 0.08901 0.24471 0.0
H1351 H 0.48114 0.118 0.22453 0.0
H1352 H 0.46494 0.1169 0.32337 0.0
H1353 H 0.43993 0.18684 0.27381 0.0
H1354 H 0.53775 0.11339 0.304 0.0
H1355 H 0.51736 0.08744 0.28613 0.0
H1356 H 0.50959 0.09365 0.31985 0.0
H1357 H 0.50589 0.19665 0.24251 0.0
H1358 H 0.46767 0.20188 0.23869 0.0
H1359 H 0.48543 0.17192 0.22337 0.0
C1360 C 0.82405 0.4548 0.25347 0.0
C1361 C 0.81978 0.45475 0.28035 0.0
C1362 C 0.82427 0.48051 0.23937 0.0
C1363 C 0.82087 0.50695 0.25258 0.0
C1364 C 0.81542 0.50698 0.27962 0.0
C1365 C 0.8146 0.48075 0.29318 0.0
C1366 C 0.82959 0.4794 0.21053 0.0
C1367 C 0.81233 0.53474 0.2945 0.0
C1368 C 0.86022 0.56973 0.22258 0.0
C1369 C 0.83778 0.58543 0.21088 0.0
C1370 C 0.85483 0.54458 0.23659 0.0
C1371 C 0.82632 0.53437 0.23859 0.0
C1372 C 0.80356 0.54978 0.22651 0.0
C1373 C 0.80952 0.57533 0.213 0.0
C1374 C 0.87974 0.52898 0.24933 0.0
C1375 C 0.77299 0.53917 0.22774 0.0
H1376 H 0.8278 0.43463 0.24347 0.0
H1377 H 0.81151 0.48072 0.314 0.0
H1378 H 0.81392 0.49324 0.20001 0.0
H1379 H 0.85138 0.48775 0.20641 0.0
H1380 H 0.82804 0.4572 0.2027 0.0
H1381 H 0.80523 0.53112 0.31474 0.0
H1382 H 0.83332 0.54599 0.29506 0.0
H1383 H 0.7967 0.5492 0.28467 0.0
H1384 H 0.88212 0.57744 0.22132 0.0
H1385 H 0.79208 0.58734 0.20405 0.0
H1386 H 0.88278 0.50771 0.23999 0.0
H1387 H 0.87514 0.52507 0.27009 0.0
H1388 H 0.90019 0.54113 0.24797 0.0
H1389 H 0.77154 0.51735 0.21912 0.0
H1390 H 0.75773 0.55357 0.2173 0.0
H1391 H 0.7662 0.53742 0.24824 0.0
C1392 C 0.53932 0.8631 0.28023 0.0
C1393 C 0.5442 0.8438 0.3007 0.0
C1394 C 0.51242 0.86494 0.26775 0.0
C1395 C 0.48982 0.84665 0.27556 0.0
C1396 C 0.49474 0.82668 0.29588 0.0
C1397 C 0.5218 0.82568 0.30838 0.0
C1398 C 0.50805 0.88689 0.24649 0.0
C1399 C 0.47137 0.80653 0.30452 0.0
C1400 C 0.4141 0.87199 0.25814 0.0
C1401 C 0.40915 0.85786 0.23446 0.0
C1402 C 0.43991 0.86794 0.27212 0.0
C1403 C 0.46106 0.84882 0.26248 0.0
C1404 C 0.45551 0.83344 0.23922 0.0
C1405 C 0.4298 0.8384 0.22535 0.0
C1406 C 0.44513 0.88524 0.29652 0.0
C1407 C 0.47721 0.81251 0.22848 0.0
H1408 H 0.55639 0.8774 0.27431 0.0
H1409 H 0.52538 0.81076 0.32422 0.0
H1410 H 0.50157 0.87604 0.22819 0.0
H1411 H 0.49042 0.90184 0.25177 0.0
H1412 H 0.52773 0.89966 0.24284 0.0
H1413 H 0.47893 0.79148 0.31984 0.0
H1414 H 0.45295 0.81906 0.31211 0.0
H1415 H 0.46329 0.79384 0.28774 0.0
H1416 H 0.39836 0.88729 0.26516 0.0
H1417 H 0.42607 0.82738 0.20709 0.0
H1418 H 0.46311 0.90044 0.2934 0.0
H1419 H 0.45155 0.87092 0.31277 0.0
H1420 H 0.42588 0.89775 0.30237 0.0
H1421 H 0.49654 0.82434 0.22205 0.0
H1422 H 0.4685 0.80015 0.21174 0.0
H1423 H 0.48425 0.79719 0.24376 0.0
C1424 C 0.84618 0.52915 0.78252 0.0
C1425 C 0.82872 0.55116 0.79222 0.0
C1426 C 0.83469 0.50664 0.76779 0.0
C1427 C 0.80485 0.50622 0.76213 0.0
C1428 C 0.78688 0.52819 0.77217 0.0
C1429 C 0.79904 0.5504 0.78737 0.0
C1430 C 0.85476 0.48354 0.75792 0.0
C1431 C 0.75511 0.52884 0.76612 0.0
C1432 C 0.79587 0.45833 0.7037 0.0
C1433 C 0.79288 0.43154 0.71583 0.0
C1434 C 0.79613 0.48385 0.71834 0.0
C1435 C 0.79331 0.48244 0.74566 0.0
C1436 C 0.78615 0.45595 0.75736 0.0
C1437 C 0.78581 0.43083 0.74226 0.0
C1438 C 0.80289 0.51177 0.70493 0.0
C1439 C 0.78263 0.4534 0.78633 0.0
H1440 H 0.86913 0.52956 0.78643 0.0
H1441 H 0.78557 0.56759 0.79465 0.0
H1442 H 0.84691 0.46197 0.76357 0.0
H1443 H 0.85542 0.48422 0.73643 0.0
H1444 H 0.87705 0.48609 0.76548 0.0
H1445 H 0.74353 0.54474 0.77829 0.0
H1446 H 0.75183 0.53467 0.74544 0.0
H1447 H 0.74541 0.50735 0.76898 0.0
H1448 H 0.80069 0.45925 0.68319 0.0
H1449 H 0.78272 0.41034 0.75179 0.0
H1450 H 0.82615 0.51645 0.70726 0.0
H1451 H 0.79073 0.52985 0.71364 0.0
H1452 H 0.79784 0.5107 0.68384 0.0
H1453 H 0.80418 0.45335 0.79576 0.0
H1454 H 0.77147 0.43321 0.7917 0.0
H1455 H 0.77043 0.4719 0.7942 0.0
C1456 C 0.53179 0.80211 0.72842 0.0
C1457 C 0.54438 0.82827 0.73576 0.0
C1458 C 0.50437 0.79444 0.73745 0.0
C1459 C 0.48905 0.81384 0.75347 0.0
C1460 C 0.50233 0.83968 0.76177 0.0
C1461 C 0.52987 0.84631 0.75308 0.0
C1462 C 0.49158 0.76621 0.72887 0.0
C1463 C 0.48688 0.86129 0.7787 0.0
C1464 C 0.41036 0.82953 0.75319 0.0
C1465 C 0.40427 0.82491 0.77942 0.0
C1466 C 0.43722 0.82218 0.74307 0.0
C1467 C 0.45818 0.80955 0.75957 0.0
C1468 C 0.45023 0.80026 0.78464 0.0
C1469 C 0.4233 0.80833 0.79446 0.0
C1470 C 0.44447 0.83182 0.71597 0.0
C1471 C 0.4714 0.78505 0.80219 0.0
H1472 H 0.54301 0.78793 0.71521 0.0
H1473 H 0.53949 0.86649 0.75904 0.0
H1474 H 0.47601 0.75782 0.74314 0.0
H1475 H 0.48017 0.76926 0.71008 0.0
H1476 H 0.50866 0.74985 0.72584 0.0
H1477 H 0.50034 0.88032 0.78334 0.0
H1478 H 0.46699 0.86888 0.76878 0.0
H1479 H 0.48045 0.85114 0.7972 0.0
H1480 H 0.39535 0.84166 0.74125 0.0
H1481 H 0.4185 0.80413 0.81464 0.0
H1482 H 0.45643 0.81479 0.70556 0.0
H1483 H 0.45848 0.85107 0.71707 0.0
H1484 H 0.42493 0.83744 0.70449 0.0
H1485 H 0.48516 0.7701 0.79096 0.0
H1486 H 0.46027 0.77284 0.81762 0.0
H1487 H 0.48561 0.80112 0.81168 0.0
C1488 C 0.18733 0.40434 0.77006 0.0
C1489 C 0.19575 0.4015 0.79611 0.0
C1490 C 0.19229 0.4298 0.75641 0.0
C1491 C 0.2062 0.45295 0.76912 0.0
C1492 C 0.21857 0.44853 0.79407 0.0
C1493 C 0.21298 0.42278 0.80748 0.0
C1494 C 0.17906 0.43318 0.72973 0.0
C1495 C 0.23484 0.47216 0.80772 0.0
C1496 C 0.20768 0.52055 0.72728 0.0
C1497 C 0.1817 0.53352 0.73451 0.0
C1498 C 0.21751 0.49534 0.73979 0.0
C1499 C 0.20058 0.48266 0.75945 0.0
C1500 C 0.17524 0.49676 0.76769 0.0
C1501 C 0.16637 0.52201 0.75534 0.0
C1502 C 0.24516 0.48168 0.73097 0.0
C1503 C 0.15607 0.48407 0.78825 0.0
H1504 H 0.17444 0.38761 0.76108 0.0
H1505 H 0.21972 0.42057 0.82757 0.0
H1506 H 0.15968 0.44707 0.73099 0.0
H1507 H 0.19432 0.4437 0.71641 0.0
H1508 H 0.17256 0.4122 0.72123 0.0
H1509 H 0.24901 0.46347 0.82332 0.0
H1510 H 0.24807 0.48445 0.7938 0.0
H1511 H 0.21937 0.48732 0.81667 0.0
H1512 H 0.21983 0.52949 0.71139 0.0
H1513 H 0.14649 0.53206 0.7614 0.0
H1514 H 0.24046 0.46636 0.715 0.0
H1515 H 0.25597 0.46971 0.74692 0.0
H1516 H 0.26018 0.49812 0.72341 0.0
H1517 H 0.1468 0.46361 0.781 0.0
H1518 H 0.13807 0.49863 0.79351 0.0
H1519 H 0.16861 0.47919 0.8061 0.0
C1520 C 0.4799 0.16311 0.7374 0.0
C1521 C 0.46753 0.18251 0.71969 0.0
C1522 C 0.50524 0.16953 0.75089 0.0
C1523 C 0.5187 0.19642 0.74701 0.0
C1524 C 0.50596 0.21664 0.72978 0.0
C1525 C 0.48061 0.2093 0.71602 0.0
C1526 C 0.51799 0.147 0.76882 0.0
C1527 C 0.5193 0.24569 0.72535 0.0
C1528 C 0.57208 0.20269 0.80185 0.0
C1529 C 0.59537 0.18801 0.79094 0.0
C1530 C 0.54782 0.20975 0.78659 0.0
C1531 C 0.54697 0.20162 0.76007 0.0
C1532 C 0.57217 0.19079 0.74837 0.0
C1533 C 0.59611 0.18413 0.76397 0.0
C1534 C 0.52182 0.22247 0.79957 0.0
C1535 C 0.57256 0.18234 0.72011 0.0
H1536 H 0.47006 0.14231 0.74043 0.0
H1537 H 0.47112 0.22445 0.70246 0.0
H1538 H 0.53981 0.14091 0.76222 0.0
H1539 H 0.52013 0.15572 0.78877 0.0
H1540 H 0.50473 0.12721 0.76964 0.0
H1541 H 0.50317 0.26145 0.71807 0.0
H1542 H 0.5293 0.25424 0.74339 0.0
H1543 H 0.53637 0.24368 0.71059 0.0
H1544 H 0.57147 0.20602 0.82265 0.0
H1545 H 0.61436 0.1733 0.75537 0.0
H1546 H 0.50663 0.205 0.80448 0.0
H1547 H 0.51047 0.23767 0.78641 0.0
H1548 H 0.52779 0.23386 0.81779 0.0
H1549 H 0.56075 0.16182 0.71752 0.0
H1550 H 0.59482 0.17928 0.71298 0.0
H1551 H 0.56167 0.19882 0.70799 0.0
C1552 C 0.66966 0.05505 0.78969 0.0
C1553 C 0.67046 0.05213 0.81676 0.0
C1554 C 0.67025 0.03095 0.77338 0.0
C1555 C 0.67093 0.00313 0.7844 0.0
C1556 C 0.67268 4e-05 0.81175 0.0
C1557 C 0.67279 0.02467 0.82765 0.0
C1558 C 0.66896 0.03528 0.74436 0.0
C1559 C 0.67287 0.97074 0.82424 0.0
C1560 C 0.63559 0.94445 0.74417 0.0
C1561 C 0.65937 0.92919 0.73465 0.0
C1562 C 0.63913 0.96822 0.76061 0.0
C1563 C 0.66718 0.97749 0.76735 0.0
C1564 C 0.69131 0.96269 0.7573 0.0
C1565 C 0.68712 0.9385 0.74129 0.0
C1566 C 0.61275 0.98314 0.77111 0.0
C1567 C 0.72152 0.97239 0.76353 0.0
H1568 H 0.66814 0.07632 0.78121 0.0
H1569 H 0.67321 0.02239 0.84857 0.0
H1570 H 0.68578 0.02223 0.73473 0.0
H1571 H 0.64785 0.02795 0.73674 0.0
H1572 H 0.67185 0.05816 0.73888 0.0
H1573 H 0.67644 0.97193 0.84555 0.0
H1574 H 0.65197 0.96 0.82047 0.0
H1575 H 0.68985 0.95703 0.81566 0.0
H1576 H 0.61402 0.93729 0.73945 0.0
H1577 H 0.70558 0.92682 0.73406 0.0
H1578 H 0.61233 0.00591 0.76477 0.0
H1579 H 0.61343 0.98312 0.79263 0.0
H1580 H 0.59246 0.97275 0.76458 0.0
H1581 H 0.72435 0.99509 0.75752 0.0
H1582 H 0.73798 0.959 0.75371 0.0
H1583 H 0.72541 0.97144 0.78477 0.0
C1584 C 0.9676 0.63096 0.80708 0.0
C1585 C 0.94518 0.65005 0.80104 0.0
C1586 C 0.99261 0.62992 0.79199 0.0
C1587 C 0.99483 0.64771 0.76979 0.0
C1588 C 0.9723 0.66719 0.76376 0.0
C1589 C 0.94796 0.66843 0.77968 0.0
C1590 C 0.01646 0.60945 0.79959 0.0
C1591 C 0.97338 0.6859 0.73989 0.0
C1592 C 0.06865 0.66122 0.74101 0.0
C1593 C 0.07022 0.63983 0.72186 0.0
C1594 C 0.04428 0.66403 0.75671 0.0
C1595 C 0.0205 0.64557 0.75268 0.0
C1596 C 0.02155 0.62465 0.73268 0.0
C1597 C 0.0466 0.6217 0.71781 0.0
C1598 C 0.04444 0.68603 0.77828 0.0
C1599 C 0.99637 0.60509 0.72721 0.0
H1600 H 0.96545 0.61663 0.82351 0.0
H1601 H 0.93042 0.6828 0.7746 0.0
H1602 H 0.01892 0.59271 0.78443 0.0
H1603 H 0.03718 0.62114 0.80104 0.0
H1604 H 0.01234 0.59868 0.8184 0.0
H1605 H 0.95424 0.7001 0.73803 0.0
H1606 H 0.99292 0.69948 0.74036 0.0
H1607 H 0.97467 0.67218 0.72231 0.0
H1608 H 0.08705 0.67495 0.74456 0.0
H1609 H 0.04777 0.6051 0.70307 0.0
H1610 H 0.04215 0.67505 0.79724 0.0
H1611 H 0.02589 0.70087 0.77607 0.0
H1612 H 0.06451 0.6989 0.77872 0.0
H1613 H 0.99278 0.59082 0.74408 0.0
H1614 H -0.00024 0.5915 0.70977 0.0
H1615 H 0.9765 0.61798 0.72432 0.0
C1616 C 0.32031 0.08085 0.71877 0.0
C1617 C 0.34811 0.08675 0.70994 0.0
C1618 C 0.31488 0.05657 0.73421 0.0
C1619 C 0.33787 0.03807 0.74131 0.0
C1620 C 0.36576 0.04345 0.73179 0.0
C1621 C 0.37045 0.06747 0.71604 0.0
C1622 C 0.28471 0.05108 0.74343 0.0
C1623 C 0.39092 0.02423 0.73873 0.0
C1624 C 0.33522 0.99364 0.80311 0.0
C1625 C 0.33196 0.96586 0.79309 0.0
C1626 C 0.33631 0.01753 0.78649 0.0
C1627 C 0.33323 0.01353 0.75932 0.0
C1628 C 0.32832 0.98563 0.74931 0.0
C1629 C 0.3282 0.96208 0.76628 0.0
C1630 C 0.3425 0.04679 0.79787 0.0
C1631 C 0.32424 0.98047 0.7206 0.0
H1632 H 0.30289 0.09552 0.71412 0.0
H1633 H 0.39202 0.07166 0.70929 0.0
H1634 H 0.27824 0.02872 0.73875 0.0
H1635 H 0.28388 0.05347 0.76482 0.0
H1636 H 0.26885 0.0661 0.73456 0.0
H1637 H 0.41174 0.03314 0.73214 0.0
H1638 H 0.39211 0.02095 0.76 0.0
H1639 H 0.38794 0.00282 0.72966 0.0
H1640 H 0.33846 0.99653 0.8238 0.0
H1641 H 0.32549 0.94057 0.75853 0.0
H1642 H 0.32645 0.06271 0.79085 0.0
H1643 H 0.36393 0.05415 0.79137 0.0
H1644 H 0.34237 0.04664 0.81942 0.0
H1645 H 0.30848 0.99598 0.71236 0.0
H1646 H 0.31672 0.95831 0.71636 0.0
H1647 H 0.3449 0.98384 0.7105 0.0
C1648 C 0.9337 0.33843 0.70824 0.0
C1649 C 0.9128 0.35787 0.7169 0.0
C1650 C 0.95937 0.33405 0.72237 0.0
C1651 C 0.9646 0.35005 0.74534 0.0
C1652 C 0.94319 0.36914 0.75451 0.0
C1653 C 0.91745 0.37256 0.74034 0.0
C1654 C 0.98134 0.31306 0.71219 0.0
C1655 C 0.94809 0.38716 0.77853 0.0
C1656 C 0.02561 0.33006 0.7922 0.0
C1657 C 0.04766 0.34819 0.78383 0.0
C1658 C 0.99861 0.3299 0.77953 0.0
C1659 C 0.99337 0.34883 0.75846 0.0
C1660 C 0.01559 0.36726 0.75008 0.0
C1661 C 0.04247 0.36646 0.76264 0.0
C1662 C 0.97569 0.30953 0.7887 0.0
C1663 C 0.01084 0.3883 0.72811 0.0
H1664 H 0.9302 0.32696 0.69017 0.0
H1665 H 0.9015 0.38783 0.74703 0.0
H1666 H 0.0004 0.32494 0.70522 0.0
H1667 H 0.98876 0.29849 0.72791 0.0
H1668 H 0.9727 0.29989 0.69592 0.0
H1669 H 0.92865 0.3996 0.78402 0.0
H1670 H 0.95459 0.37338 0.79511 0.0
H1671 H 0.9659 0.40247 0.77511 0.0
H1672 H 0.02951 0.31589 0.80853 0.0
H1673 H 0.05929 0.38078 0.75622 0.0
H1674 H 0.96803 0.29603 0.77229 0.0
H1675 H 0.95692 0.32187 0.79584 0.0
H1676 H 0.98354 0.29524 0.80451 0.0
H1677 H 0.00484 0.37662 0.7101 0.0
H1678 H 0.0302 0.40145 0.72419 0.0
H1679 H 0.99277 0.40298 0.73278 0.0
C1680 C 0.29001 0.95993 0.21646 0.0
C1681 C 0.28837 0.93436 0.23077 0.0
C1682 C 0.28958 0.98675 0.22896 0.0
C1683 C 0.28763 0.98791 0.25634 0.0
C1684 C 0.28153 0.96248 0.27026 0.0
C1685 C 0.28183 0.93595 0.25726 0.0
C1686 C 0.29504 0.01343 0.21321 0.0
C1687 C 0.27881 0.96271 0.2994 0.0
C1688 C 0.3424 0.03777 0.2866 0.0
C1689 C 0.32562 0.061 0.29484 0.0
C1690 C 0.33003 0.01382 0.27469 0.0
C1691 C 0.29993 0.01307 0.27043 0.0
C1692 C 0.28261 0.03624 0.27915 0.0
C1693 C 0.29571 0.05999 0.29152 0.0
C1694 C 0.34954 0.98971 0.26596 0.0
C1695 C 0.25056 0.03649 0.2746 0.0
H1696 H 0.29434 0.95901 0.19584 0.0
H1697 H 0.27981 0.91638 0.26846 0.0
H1698 H 0.28264 0.03195 0.22083 0.0
H1699 H 0.31821 0.01893 0.21447 0.0
H1700 H 0.28933 0.01019 0.19244 0.0
H1701 H 0.26792 0.94308 0.30654 0.0
H1702 H 0.30061 0.96359 0.3083 0.0
H1703 H 0.26673 0.98188 0.30607 0.0
H1704 H 0.36552 0.03829 0.28948 0.0
H1705 H 0.28274 0.07804 0.29782 0.0
H1706 H 0.34973 0.98903 0.24448 0.0
H1707 H 0.34157 0.96868 0.27296 0.0
H1708 H 0.37203 0.99246 0.27296 0.0
H1709 H 0.24608 0.04174 0.25397 0.0
H1710 H 0.23965 0.05275 0.28688 0.0
H1711 H 0.2411 0.01508 0.27846 0.0
C1712 C 0.02933 0.3504 0.23211 0.0
C1713 C 0.04443 0.33277 0.21485 0.0
C1714 C 0.00193 0.343 0.2407 0.0
C1715 C 0.98932 0.31687 0.23228 0.0
C1716 C 0.00504 0.29815 0.21593 0.0
C1717 C 0.03233 0.30653 0.20707 0.0
C1718 C 0.98599 0.36388 0.25797 0.0
C1719 C 0.99282 0.26977 0.20706 0.0
C1720 C 0.92463 0.30601 0.27428 0.0
C1721 C 0.9041 0.32158 0.25996 0.0
C1722 C 0.95198 0.3005 0.26397 0.0
C1723 C 0.95881 0.3112 0.23907 0.0
C1724 C 0.93678 0.32311 0.22329 0.0
C1725 C 0.90958 0.32796 0.2339 0.0
C1726 C 0.9745 0.28633 0.28088 0.0
C1727 C 0.94289 0.33443 0.19648 0.0
H1728 H 0.03851 0.3707 0.23828 0.0
H1729 H 0.04399 0.2927 0.19387 0.0
H1730 H 0.96592 0.37114 0.24816 0.0
H1731 H 0.9798 0.35322 0.2763 0.0
H1732 H -0.001 0.38315 0.2629 0.0
H1733 H 0.01016 0.2544 0.20184 0.0
H1734 H 0.97924 0.25991 0.22221 0.0
H1735 H 0.97922 0.27324 0.18955 0.0
H1736 H 0.92044 0.30062 0.29434 0.0
H1737 H 0.89354 0.33944 0.22254 0.0
H1738 H 0.98795 0.30311 0.29026 0.0
H1739 H 0.98884 0.27244 0.26916 0.0
H1740 H 0.96458 0.2732 0.29637 0.0
H1741 H 0.95537 0.35466 0.19815 0.0
H1742 H 0.92282 0.339 0.18538 0.0
H1743 H 0.956 0.31886 0.18537 0.0
C1744 C 0.68778 0.91888 0.32025 0.0
C1745 C 0.69109 0.89066 0.31134 0.0
C1746 C 0.6926 0.94229 0.3038 0.0
C1747 C 0.70018 0.9372 0.27765 0.0
C1748 C 0.70723 0.9089 0.26966 0.0
C1749 C 0.70279 0.88585 0.28677 0.0
C1750 C 0.68578 0.97213 0.31351 0.0
C1751 C 0.71583 0.90236 0.24215 0.0
C1752 C 0.65643 0.98632 0.23442 0.0
C1753 C 0.67622 0.00778 0.2283 0.0
C1754 C 0.66467 0.96221 0.24886 0.0
C1755 C 0.69338 0.95978 0.25803 0.0
C1756 C 0.71392 0.98065 0.25071 0.0
C1757 C 0.7051 0.00444 0.23566 0.0
C1758 C 0.64211 0.94018 0.25556 0.0
C1759 C 0.74467 0.97884 0.26005 0.0
H1760 H 0.67905 0.9226 0.3394 0.0
H1761 H 0.70551 0.86401 0.27988 0.0
H1762 H 0.70142 0.98795 0.30602 0.0
H1763 H 0.66408 0.97855 0.30645 0.0
H1764 H 0.6859 0.97315 0.33504 0.0
H1765 H 0.72951 0.88279 0.24131 0.0
H1766 H 0.69619 0.89832 0.23034 0.0
H1767 H 0.72757 0.92052 0.23329 0.0
H1768 H 0.63416 0.98878 0.22841 0.0
H1769 H 0.72036 0.02115 0.23096 0.0
H1770 H 0.6376 0.94111 0.27664 0.0
H1771 H 0.64996 0.91821 0.2511 0.0
H1772 H 0.62161 0.94379 0.24481 0.0
H1773 H 0.74585 0.98565 0.28066 0.0
H1774 H 0.75898 0.99298 0.24862 0.0
H1775 H 0.75281 0.95644 0.25897 0.0
C1776 C 0.95655 0.67693 0.25048 0.0
C1777 C 0.95122 0.68882 0.22591 0.0
C1778 C 0.98366 0.67875 0.26232 0.0
C1779 C 0.00602 0.69354 0.2496 0.0
C1780 C -0.00015 0.70851 0.22622 0.0
C1781 C 0.97248 0.70572 0.21441 0.0
C1782 C 0.98901 0.66222 0.28714 0.0
C1783 C 0.02265 0.72564 0.21263 0.0
C1784 C 0.07231 0.69286 0.29311 0.0
C1785 C 0.08547 0.66729 0.28495 0.0
C1786 C 0.048 0.70386 0.27988 0.0
C1787 C 0.03624 0.68843 0.25855 0.0
C1788 C 0.05107 0.66408 0.24895 0.0
C1789 C 0.07564 0.6541 0.26205 0.0
C1790 C 0.03372 0.73071 0.28995 0.0
C1791 C 0.03939 0.64669 0.22645 0.0
H1792 H 0.94001 0.66429 0.25972 0.0
H1793 H 0.96846 0.71512 0.19549 0.0
H1794 H 0.0038 0.64397 0.28329 0.0
H1795 H -0.00056 0.67614 0.3019 0.0
H1796 H 0.96889 0.65351 0.29544 0.0
H1797 H 0.01292 0.74237 0.19992 0.0
H1798 H 0.0374 0.73609 0.22678 0.0
H1799 H 0.03559 0.71109 0.20029 0.0
H1800 H 0.07997 0.70344 0.31059 0.0
H1801 H 0.08589 0.63456 0.2553 0.0
H1802 H 0.01598 0.72472 0.30309 0.0
H1803 H 0.02439 0.7436 0.27383 0.0
H1804 H 0.04912 0.74425 0.30109 0.0
H1805 H 0.01909 0.63609 0.23224 0.0
H1806 H 0.05469 0.62981 0.22002 0.0
H1807 H 0.03437 0.66081 0.20971 0.0
loop_
_geom_bond_atom_site_label_1
_geom_bond_atom_site_label_2
_geom_bond_distance
_geom_bond_site_symmetry_2
_ccdc_geom_bond_type
Co0 N4 2.148 . S
Co0 N10 2.128 . S
Co0 N20 2.194 . S
Co0 O25 2.351 . S
Co0 O26 2.155 . S
Co0 O27 2.096 . S
C1 N4 1.301 . S
C1 N5 1.328 . S
C1 H6 0.930 . S
C2 C3 1.333 . S
C2 N4 1.317 . S
C2 H7 0.930 . S
C3 C2 1.333 . S
C3 N5 1.350 . S
C3 H29 0.931 . S
N4 Co0 2.148 . S
N4 C1 1.301 . S
N4 C2 1.317 . S
N5 C1 1.328 . S
N5 C3 1.350 . S
H6 C1 0.930 . S
H7 C2 0.930 . S
C8 O9 1.224 . S
C8 O27 1.247 . S
O9 C8 1.224 . S
N10 Co0 2.128 . S
N10 C11 1.355 . S
N10 C13 1.311 . S
C11 N10 1.355 . S
C11 C12 1.363 . S
C11 H23 0.929 . S
C12 C11 1.363 . S
C12 N14 1.375 . S
C12 H30 0.931 . S
C13 N10 1.311 . S
C13 N14 1.347 . S
C13 H24 0.929 . S
N14 C12 1.375 . S
N14 C13 1.347 . S
C15 C18 1.365 . S
C15 N20 1.328 . S
C15 H21 0.929 . S
C16 C17 1.362 . S
C16 C19 1.378 . S
C16 H31 0.929 . S
C17 C16 1.362 . S
C17 C18 1.366 . S
C18 C15 1.365 . S
C18 C17 1.366 . S
C18 H32 0.930 . S
C19 C16 1.378 . S
C19 N20 1.315 . S
C19 H22 0.930 . S
N20 Co0 2.194 . S
N20 C15 1.328 . S
N20 C19 1.315 . S
H21 C15 0.929 . S
H22 C19 0.930 . S
H23 C11 0.929 . S
H24 C13 0.929 . S
O25 Co0 2.351 . S
O25 C28 1.244 . S
O26 Co0 2.155 . S
O26 C28 1.240 . S
O27 Co0 2.096 . S
O27 C8 1.247 . S
C28 O25 1.244 . S
C28 O26 1.240 . S
H29 C3 0.931 . S
H30 C12 0.931 . S
H31 C16 0.929 . S
H32 C18 0.930 . S
Co33 N37 2.148 . S
Co33 N43 2.128 . S
Co33 N53 2.194 . S
Co33 O58 2.351 . S
Co33 O59 2.155 . S
Co33 O60 2.096 . S
C34 N37 1.301 . S
C34 N38 1.328 . S
C34 H39 0.930 . S
C35 C36 1.333 . S
C35 N37 1.317 . S
C35 H40 0.930 . S
C36 C35 1.333 . S
C36 N38 1.350 . S
C36 H62 0.931 . S
N37 Co33 2.148 . S
N37 C34 1.301 . S
N37 C35 1.317 . S
N38 C34 1.328 . S
N38 C36 1.350 . S
H39 C34 0.930 . S
H40 C35 0.930 . S
C41 O42 1.224 . S
C41 O60 1.247 . S
O42 C41 1.224 . S
N43 Co33 2.128 . S
N43 C44 1.355 . S
N43 C46 1.311 . S
C44 N43 1.355 . S
C44 C45 1.363 . S
C44 H56 0.929 . S
C45 C44 1.363 . S
C45 N47 1.375 . S
C45 H63 0.931 . S
C46 N43 1.311 . S
C46 N47 1.347 . S
C46 H57 0.929 . S
N47 C45 1.375 . S
N47 C46 1.347 . S
C48 C51 1.365 . S
C48 N53 1.328 . S
C48 H54 0.929 . S
C49 C50 1.362 . S
C49 C52 1.378 . S
C49 H64 0.929 . S
C50 C49 1.362 . S
C50 C51 1.366 . S
C51 C48 1.365 . S
C51 C50 1.366 . S
C51 H65 0.930 . S
C52 C49 1.378 . S
C52 N53 1.315 . S
C52 H55 0.930 . S
N53 Co33 2.194 . S
N53 C48 1.328 . S
N53 C52 1.315 . S
H54 C48 0.929 . S
H55 C52 0.930 . S
H56 C44 0.929 . S
H57 C46 0.929 . S
O58 Co33 2.351 . S
O58 C61 1.244 . S
O59 Co33 2.155 . S
O59 C61 1.240 . S
O60 Co33 2.096 . S
O60 C41 1.247 . S
C61 O58 1.244 . S
C61 O59 1.240 . S
H62 C36 0.931 . S
H63 C45 0.931 . S
H64 C49 0.929 . S
H65 C51 0.930 . S
Co66 N70 2.148 . S
Co66 N76 2.128 . S
Co66 N86 2.194 . S
Co66 O91 2.351 . S
Co66 O92 2.155 . S
Co66 O93 2.096 . S
C67 N70 1.301 . S
C67 N71 1.328 . S
C67 H72 0.930 . S
C68 C69 1.333 . S
C68 N70 1.317 . S
C68 H73 0.930 . S
C69 C68 1.333 . S
C69 N71 1.350 . S
C69 H95 0.931 . S
N70 Co66 2.148 . S
N70 C67 1.301 . S
N70 C68 1.317 . S
N71 C67 1.328 . S
N71 C69 1.350 . S
H72 C67 0.930 . S
H73 C68 0.930 . S
C74 O75 1.224 . S
C74 O93 1.247 . S
O75 C74 1.224 . S
N76 Co66 2.128 . S
N76 C77 1.355 . S
N76 C79 1.311 . S
C77 N76 1.355 . S
C77 C78 1.363 . S
C77 H89 0.929 . S
C78 C77 1.363 . S
C78 N80 1.375 . S
C78 H96 0.931 . S
C79 N76 1.311 . S
C79 N80 1.347 . S
C79 H90 0.929 . S
N80 C78 1.375 . S
N80 C79 1.347 . S
C81 C84 1.365 . S
C81 N86 1.328 . S
C81 H87 0.929 . S
C82 C83 1.362 . S
C82 C85 1.378 . S
C82 H97 0.929 . S
C83 C82 1.362 . S
C83 C84 1.366 . S
C84 C81 1.365 . S
C84 C83 1.366 . S
C84 H98 0.930 . S
C85 C82 1.378 . S
C85 N86 1.315 . S
C85 H88 0.930 . S
N86 Co66 2.194 . S
N86 C81 1.328 . S
N86 C85 1.315 . S
H87 C81 0.929 . S
H88 C85 0.930 . S
H89 C77 0.929 . S
H90 C79 0.929 . S
O91 Co66 2.351 . S
O91 C94 1.244 . S
O92 Co66 2.155 . S
O92 C94 1.240 . S
O93 Co66 2.096 . S
O93 C74 1.247 . S
C94 O91 1.244 . S
C94 O92 1.240 . S
H95 C69 0.931 . S
H96 C78 0.931 . S
H97 C82 0.929 . S
H98 C84 0.930 . S
Co99 N103 2.148 . S
Co99 N109 2.128 . S
Co99 N119 2.194 . S
Co99 O124 2.351 . S
Co99 O125 2.155 . S
Co99 O126 2.096 . S
C100 N103 1.301 . S
C100 N104 1.328 . S
C100 H105 0.930 . S
C101 C102 1.333 . S
C101 N103 1.317 . S
C101 H106 0.930 . S
C102 C101 1.333 . S
C102 N104 1.350 . S
C102 H128 0.931 . S
N103 Co99 2.148 . S
N103 C100 1.301 . S
N103 C101 1.317 . S
N104 C100 1.328 . S
N104 C102 1.350 . S
H105 C100 0.930 . S
H106 C101 0.930 . S
C107 O108 1.224 . S
C107 O126 1.247 . S
O108 C107 1.224 . S
N109 Co99 2.128 . S
N109 C110 1.355 . S
N109 C112 1.311 . S
C110 N109 1.355 . S
C110 C111 1.363 . S
C110 H122 0.929 . S
C111 C110 1.363 . S
C111 N113 1.375 . S
C111 H129 0.931 . S
C112 N109 1.311 . S
C112 N113 1.347 . S
C112 H123 0.929 . S
N113 C111 1.375 . S
N113 C112 1.347 . S
C114 C117 1.365 . S
C114 N119 1.328 . S
C114 H120 0.929 . S
C115 C116 1.362 . S
C115 C118 1.378 . S
C115 H130 0.929 . S
C116 C115 1.362 . S
C116 C117 1.366 . S
C117 C114 1.365 . S
C117 C116 1.366 . S
C117 H131 0.930 . S
C118 C115 1.378 . S
C118 N119 1.315 . S
C118 H121 0.930 . S
N119 Co99 2.194 . S
N119 C114 1.328 . S
N119 C118 1.315 . S
H120 C114 0.929 . S
H121 C118 0.930 . S
H122 C110 0.929 . S
H123 C112 0.929 . S
O124 Co99 2.351 . S
O124 C127 1.244 . S
O125 Co99 2.155 . S
O125 C127 1.240 . S
O126 Co99 2.096 . S
O126 C107 1.247 . S
C127 O124 1.244 . S
C127 O125 1.240 . S
H128 C102 0.931 . S
H129 C111 0.931 . S
H130 C115 0.929 . S
H131 C117 0.930 . S
Co132 N136 2.148 . S
Co132 N142 2.128 . S
Co132 N152 2.194 . S
Co132 O157 2.351 . S
Co132 O158 2.155 . S
Co132 O159 2.096 . S
C133 N136 1.301 . S
C133 N137 1.328 . S
C133 H138 0.930 . S
C134 C135 1.333 . S
C134 N136 1.317 . S
C134 H139 0.930 . S
C135 C134 1.333 . S
C135 N137 1.350 . S
C135 H161 0.931 . S
N136 Co132 2.148 . S
N136 C133 1.301 . S
N136 C134 1.317 . S
N137 C133 1.328 . S
N137 C135 1.350 . S
H138 C133 0.930 . S
H139 C134 0.930 . S
C140 O141 1.224 . S
C140 O159 1.247 . S
O141 C140 1.224 . S
N142 Co132 2.128 . S
N142 C143 1.355 . S
N142 C145 1.311 . S
C143 N142 1.355 . S
C143 C144 1.363 . S
C143 H155 0.929 . S
C144 C143 1.363 . S
C144 N146 1.375 . S
C144 H162 0.931 . S
C145 N142 1.311 . S
C145 N146 1.347 . S
C145 H156 0.929 . S
N146 C144 1.375 . S
N146 C145 1.347 . S
C147 C150 1.365 . S
C147 N152 1.328 . S
C147 H153 0.929 . S
C148 C149 1.362 . S
C148 C151 1.378 . S
C148 H163 0.929 . S
C149 C148 1.362 . S
C149 C150 1.366 . S
C150 C147 1.365 . S
C150 C149 1.366 . S
C150 H164 0.930 . S
C151 C148 1.378 . S
C151 N152 1.315 . S
C151 H154 0.930 . S
N152 Co132 2.194 . S
N152 C147 1.328 . S
N152 C151 1.315 . S
H153 C147 0.929 . S
H154 C151 0.930 . S
H155 C143 0.929 . S
H156 C145 0.929 . S
O157 Co132 2.351 . S
O157 C160 1.244 . S
O158 Co132 2.155 . S
O158 C160 1.240 . S
O159 Co132 2.096 . S
O159 C140 1.247 . S
C160 O157 1.244 . S
C160 O158 1.240 . S
H161 C135 0.931 . S
H162 C144 0.931 . S
H163 C148 0.929 . S
H164 C150 0.930 . S
Co165 N169 2.148 . S
Co165 N175 2.128 . S
Co165 N185 2.194 . S
Co165 O190 2.351 . S
Co165 O191 2.155 . S
Co165 O192 2.096 . S
C166 N169 1.301 . S
C166 N170 1.328 . S
C166 H171 0.930 . S
C167 C168 1.333 . S
C167 N169 1.317 . S
C167 H172 0.930 . S
C168 C167 1.333 . S
C168 N170 1.350 . S
C168 H194 0.931 . S
N169 Co165 2.148 . S
N169 C166 1.301 . S
N169 C167 1.317 . S
N170 C166 1.328 . S
N170 C168 1.350 . S
H171 C166 0.930 . S
H172 C167 0.930 . S
C173 O174 1.224 . S
C173 O192 1.247 . S
O174 C173 1.224 . S
N175 Co165 2.128 . S
N175 C176 1.355 . S
N175 C178 1.311 . S
C176 N175 1.355 . S
C176 C177 1.363 . S
C176 H188 0.929 . S
C177 C176 1.363 . S
C177 N179 1.375 . S
C177 H195 0.931 . S
C178 N175 1.311 . S
C178 N179 1.347 . S
C178 H189 0.929 . S
N179 C177 1.375 . S
N179 C178 1.347 . S
C180 C183 1.365 . S
C180 N185 1.328 . S
C180 H186 0.929 . S
C181 C182 1.362 . S
C181 C184 1.378 . S
C181 H196 0.929 . S
C182 C181 1.362 . S
C182 C183 1.366 . S
C183 C180 1.365 . S
C183 C182 1.366 . S
C183 H197 0.930 . S
C184 C181 1.378 . S
C184 N185 1.315 . S
C184 H187 0.930 . S
N185 Co165 2.194 . S
N185 C180 1.328 . S
N185 C184 1.315 . S
H186 C180 0.929 . S
H187 C184 0.930 . S
H188 C176 0.929 . S
H189 C178 0.929 . S
O190 Co165 2.351 . S
O190 C193 1.244 . S
O191 Co165 2.155 . S
O191 C193 1.240 . S
O192 Co165 2.096 . S
O192 C173 1.247 . S
C193 O190 1.244 . S
C193 O191 1.240 . S
H194 C168 0.931 . S
H195 C177 0.931 . S
H196 C181 0.929 . S
H197 C183 0.930 . S
Co198 N202 2.148 . S
Co198 N208 2.128 . S
Co198 N218 2.194 . S
Co198 O223 2.351 . S
Co198 O224 2.155 . S
Co198 O225 2.096 . S
C199 N202 1.301 . S
C199 N203 1.328 . S
C199 H204 0.930 . S
C200 C201 1.333 . S
C200 N202 1.317 . S
C200 H205 0.930 . S
C201 C200 1.333 . S
C201 N203 1.350 . S
C201 H227 0.931 . S
N202 Co198 2.148 . S
N202 C199 1.301 . S
N202 C200 1.317 . S
N203 C199 1.328 . S
N203 C201 1.350 . S
H204 C199 0.930 . S
H205 C200 0.930 . S
C206 O207 1.224 . S
C206 O225 1.247 . S
O207 C206 1.224 . S
N208 Co198 2.128 . S
N208 C209 1.355 . S
N208 C211 1.311 . S
C209 N208 1.355 . S
C209 C210 1.363 . S
C209 H221 0.929 . S
C210 C209 1.363 . S
C210 N212 1.375 . S
C210 H228 0.931 . S
C211 N208 1.311 . S
C211 N212 1.347 . S
C211 H222 0.929 . S
N212 C210 1.375 . S
N212 C211 1.347 . S
C213 C216 1.365 . S
C213 N218 1.328 . S
C213 H219 0.929 . S
C214 C215 1.362 . S
C214 C217 1.378 . S
C214 H229 0.929 . S
C215 C214 1.362 . S
C215 C216 1.366 . S
C216 C213 1.365 . S
C216 C215 1.366 . S
C216 H230 0.930 . S
C217 C214 1.378 . S
C217 N218 1.315 . S
C217 H220 0.930 . S
N218 Co198 2.194 . S
N218 C213 1.328 . S
N218 C217 1.315 . S
H219 C213 0.929 . S
H220 C217 0.930 . S
H221 C209 0.929 . S
H222 C211 0.929 . S
O223 Co198 2.351 . S
O223 C226 1.244 . S
O224 Co198 2.155 . S
O224 C226 1.240 . S
O225 Co198 2.096 . S
O225 C206 1.247 . S
C226 O223 1.244 . S
C226 O224 1.240 . S
H227 C201 0.931 . S
H228 C210 0.931 . S
H229 C214 0.929 . S
H230 C216 0.930 . S
Co231 N235 2.148 . S
Co231 N241 2.128 . S
Co231 N251 2.194 . S
Co231 O256 2.351 . S
Co231 O257 2.155 . S
Co231 O258 2.096 . S
C232 N235 1.301 . S
C232 N236 1.328 . S
C232 H237 0.930 . S
C233 C234 1.333 . S
C233 N235 1.317 . S
C233 H238 0.930 . S
C234 C233 1.333 . S
C234 N236 1.350 . S
C234 H260 0.931 . S
N235 Co231 2.148 . S
N235 C232 1.301 . S
N235 C233 1.317 . S
N236 C232 1.328 . S
N236 C234 1.350 . S
H237 C232 0.930 . S
H238 C233 0.930 . S
C239 O240 1.224 . S
C239 O258 1.247 . S
O240 C239 1.224 . S
N241 Co231 2.128 . S
N241 C242 1.355 . S
N241 C244 1.311 . S
C242 N241 1.355 . S
C242 C243 1.363 . S
C242 H254 0.929 . S
C243 C242 1.363 . S
C243 N245 1.375 . S
C243 H261 0.931 . S
C244 N241 1.311 . S
C244 N245 1.347 . S
C244 H255 0.929 . S
N245 C243 1.375 . S
N245 C244 1.347 . S
C246 C249 1.365 . S
C246 N251 1.328 . S
C246 H252 0.929 . S
C247 C248 1.362 . S
C247 C250 1.378 . S
C247 H262 0.929 . S
C248 C247 1.362 . S
C248 C249 1.366 . S
C249 C246 1.365 . S
C249 C248 1.366 . S
C249 H263 0.930 . S
C250 C247 1.378 . S
C250 N251 1.315 . S
C250 H253 0.930 . S
N251 Co231 2.194 . S
N251 C246 1.328 . S
N251 C250 1.315 . S
H252 C246 0.929 . S
H253 C250 0.930 . S
H254 C242 0.929 . S
H255 C244 0.929 . S
O256 Co231 2.351 . S
O256 C259 1.244 . S
O257 Co231 2.155 . S
O257 C259 1.240 . S
O258 Co231 2.096 . S
O258 C239 1.247 . S
C259 O256 1.244 . S
C259 O257 1.240 . S
H260 C234 0.931 . S
H261 C243 0.931 . S
H262 C247 0.929 . S
H263 C249 0.930 . S
Co264 N268 2.148 . S
Co264 N274 2.128 . S
Co264 N284 2.194 . S
Co264 O289 2.351 . S
Co264 O290 2.155 . S
Co264 O291 2.096 . S
C265 N268 1.301 . S
C265 N269 1.328 . S
C265 H270 0.930 . S
C266 C267 1.333 . S
C266 N268 1.317 . S
C266 H271 0.930 . S
C267 C266 1.333 . S
C267 N269 1.350 . S
C267 H293 0.931 . S
N268 Co264 2.148 . S
N268 C265 1.301 . S
N268 C266 1.317 . S
N269 C265 1.328 . S
N269 C267 1.350 . S
H270 C265 0.930 . S
H271 C266 0.930 . S
C272 O273 1.224 . S
C272 O291 1.247 . S
O273 C272 1.224 . S
N274 Co264 2.128 . S
N274 C275 1.355 . S
N274 C277 1.311 . S
C275 N274 1.355 . S
C275 C276 1.363 . S
C275 H287 0.929 . S
C276 C275 1.363 . S
C276 N278 1.375 . S
C276 H294 0.931 . S
C277 N274 1.311 . S
C277 N278 1.347 . S
C277 H288 0.929 . S
N278 C276 1.375 . S
N278 C277 1.347 . S
C279 C282 1.365 . S
C279 N284 1.328 . S
C279 H285 0.929 . S
C280 C281 1.362 . S
C280 C283 1.378 . S
C280 H295 0.929 . S
C281 C280 1.362 . S
C281 C282 1.366 . S
C282 C279 1.365 . S
C282 C281 1.366 . S
C282 H296 0.930 . S
C283 C280 1.378 . S
C283 N284 1.315 . S
C283 H286 0.930 . S
N284 Co264 2.194 . S
N284 C279 1.328 . S
N284 C283 1.315 . S
H285 C279 0.929 . S
H286 C283 0.930 . S
H287 C275 0.929 . S
H288 C277 0.929 . S
O289 Co264 2.351 . S
O289 C292 1.244 . S
O290 Co264 2.155 . S
O290 C292 1.240 . S
O291 Co264 2.096 . S
O291 C272 1.247 . S
C292 O289 1.244 . S
C292 O290 1.240 . S
H293 C267 0.931 . S
H294 C276 0.931 . S
H295 C280 0.929 . S
H296 C282 0.930 . S
Co297 N301 2.148 . S
Co297 N307 2.128 . S
Co297 N317 2.194 . S
Co297 O322 2.351 . S
Co297 O323 2.155 . S
Co297 O324 2.096 . S
C298 N301 1.301 . S
C298 N302 1.328 . S
C298 H303 0.930 . S
C299 C300 1.333 . S
C299 N301 1.317 . S
C299 H304 0.930 . S
C300 C299 1.333 . S
C300 N302 1.350 . S
C300 H326 0.931 . S
N301 Co297 2.148 . S
N301 C298 1.301 . S
N301 C299 1.317 . S
N302 C298 1.328 . S
N302 C300 1.350 . S
H303 C298 0.930 . S
H304 C299 0.930 . S
C305 O306 1.224 . S
C305 O324 1.247 . S
O306 C305 1.224 . S
N307 Co297 2.128 . S
N307 C308 1.355 . S
N307 C310 1.311 . S
C308 N307 1.355 . S
C308 C309 1.363 . S
C308 H320 0.929 . S
C309 C308 1.363 . S
C309 N311 1.375 . S
C309 H327 0.931 . S
C310 N307 1.311 . S
C310 N311 1.347 . S
C310 H321 0.929 . S
N311 C309 1.375 . S
N311 C310 1.347 . S
C312 C315 1.365 . S
C312 N317 1.328 . S
C312 H318 0.929 . S
C313 C314 1.362 . S
C313 C316 1.378 . S
C313 H328 0.929 . S
C314 C313 1.362 . S
C314 C315 1.366 . S
C315 C312 1.365 . S
C315 C314 1.366 . S
C315 H329 0.930 . S
C316 C313 1.378 . S
C316 N317 1.315 . S
C316 H319 0.930 . S
N317 Co297 2.194 . S
N317 C312 1.328 . S
N317 C316 1.315 . S
H318 C312 0.929 . S
H319 C316 0.930 . S
H320 C308 0.929 . S
H321 C310 0.929 . S
O322 Co297 2.351 . S
O322 C325 1.244 . S
O323 Co297 2.155 . S
O323 C325 1.240 . S
O324 Co297 2.096 . S
O324 C305 1.247 . S
C325 O322 1.244 . S
C325 O323 1.240 . S
H326 C300 0.931 . S
H327 C309 0.931 . S
H328 C313 0.929 . S
H329 C315 0.930 . S
Co330 N334 2.148 . S
Co330 N340 2.128 . S
Co330 N350 2.194 . S
Co330 O355 2.351 . S
Co330 O356 2.155 . S
Co330 O357 2.096 . S
C331 N334 1.301 . S
C331 N335 1.328 . S
C331 H336 0.930 . S
C332 C333 1.333 . S
C332 N334 1.317 . S
C332 H337 0.930 . S
C333 C332 1.333 . S
C333 N335 1.350 . S
C333 H359 0.931 . S
N334 Co330 2.148 . S
N334 C331 1.301 . S
N334 C332 1.317 . S
N335 C331 1.328 . S
N335 C333 1.350 . S
H336 C331 0.930 . S
H337 C332 0.930 . S
C338 O339 1.224 . S
C338 O357 1.247 . S
O339 C338 1.224 . S
N340 Co330 2.128 . S
N340 C341 1.355 . S
N340 C343 1.311 . S
C341 N340 1.355 . S
C341 C342 1.363 . S
C341 H353 0.929 . S
C342 C341 1.363 . S
C342 N344 1.375 . S
C342 H360 0.931 . S
C343 N340 1.311 . S
C343 N344 1.347 . S
C343 H354 0.929 . S
N344 C342 1.375 . S
N344 C343 1.347 . S
C345 C348 1.365 . S
C345 N350 1.328 . S
C345 H351 0.929 . S
C346 C347 1.362 . S
C346 C349 1.378 . S
C346 H361 0.929 . S
C347 C346 1.362 . S
C347 C348 1.366 . S
C348 C345 1.365 . S
C348 C347 1.366 . S
C348 H362 0.930 . S
C349 C346 1.378 . S
C349 N350 1.315 . S
C349 H352 0.930 . S
N350 Co330 2.194 . S
N350 C345 1.328 . S
N350 C349 1.315 . S
H351 C345 0.929 . S
H352 C349 0.930 . S
H353 C341 0.929 . S
H354 C343 0.929 . S
O355 Co330 2.351 . S
O355 C358 1.244 . S
O356 Co330 2.155 . S
O356 C358 1.240 . S
O357 Co330 2.096 . S
O357 C338 1.247 . S
C358 O355 1.244 . S
C358 O356 1.240 . S
H359 C333 0.931 . S
H360 C342 0.931 . S
H361 C346 0.929 . S
H362 C348 0.930 . S
Co363 N367 2.148 . S
Co363 N373 2.128 . S
Co363 N383 2.194 . S
Co363 O388 2.351 . S
Co363 O389 2.155 . S
Co363 O390 2.096 . S
C364 N367 1.301 . S
C364 N368 1.328 . S
C364 H369 0.930 . S
C365 C366 1.333 . S
C365 N367 1.317 . S
C365 H370 0.930 . S
C366 C365 1.333 . S
C366 N368 1.350 . S
C366 H392 0.931 . S
N367 Co363 2.148 . S
N367 C364 1.301 . S
N367 C365 1.317 . S
N368 C364 1.328 . S
N368 C366 1.350 . S
H369 C364 0.930 . S
H370 C365 0.930 . S
C371 O372 1.224 . S
C371 O390 1.247 . S
O372 C371 1.224 . S
N373 Co363 2.128 . S
N373 C374 1.355 . S
N373 C376 1.311 . S
C374 N373 1.355 . S
C374 C375 1.363 . S
C374 H386 0.929 . S
C375 C374 1.363 . S
C375 N377 1.375 . S
C375 H393 0.931 . S
C376 N373 1.311 . S
C376 N377 1.347 . S
C376 H387 0.929 . S
N377 C375 1.375 . S
N377 C376 1.347 . S
C378 C381 1.365 . S
C378 N383 1.328 . S
C378 H384 0.929 . S
C379 C380 1.362 . S
C379 C382 1.378 . S
C379 H394 0.929 . S
C380 C379 1.362 . S
C380 C381 1.366 . S
C381 C378 1.365 . S
C381 C380 1.366 . S
C381 H395 0.930 . S
C382 C379 1.378 . S
C382 N383 1.315 . S
C382 H385 0.930 . S
N383 Co363 2.194 . S
N383 C378 1.328 . S
N383 C382 1.315 . S
H384 C378 0.929 . S
H385 C382 0.930 . S
H386 C374 0.929 . S
H387 C376 0.929 . S
O388 Co363 2.351 . S
O388 C391 1.244 . S
O389 Co363 2.155 . S
O389 C391 1.240 . S
O390 Co363 2.096 . S
O390 C371 1.247 . S
C391 O388 1.244 . S
C391 O389 1.240 . S
H392 C366 0.931 . S
H393 C375 0.931 . S
H394 C379 0.929 . S
H395 C381 0.930 . S
Co396 N400 2.148 . S
Co396 N406 2.128 . S
Co396 N416 2.194 . S
Co396 O421 2.351 . S
Co396 O422 2.155 . S
Co396 O423 2.096 . S
C397 N400 1.301 . S
C397 N401 1.328 . S
C397 H402 0.930 . S
C398 C399 1.333 . S
C398 N400 1.317 . S
C398 H403 0.930 . S
C399 C398 1.333 . S
C399 N401 1.350 . S
C399 H425 0.931 . S
N400 Co396 2.148 . S
N400 C397 1.301 . S
N400 C398 1.317 . S
N401 C397 1.328 . S
N401 C399 1.350 . S
H402 C397 0.930 . S
H403 C398 0.930 . S
C404 O405 1.224 . S
C404 O423 1.247 . S
O405 C404 1.224 . S
N406 Co396 2.128 . S
N406 C407 1.355 . S
N406 C409 1.311 . S
C407 N406 1.355 . S
C407 C408 1.363 . S
C407 H419 0.929 . S
C408 C407 1.363 . S
C408 N410 1.375 . S
C408 H426 0.931 . S
C409 N406 1.311 . S
C409 N410 1.347 . S
C409 H420 0.929 . S
N410 C408 1.375 . S
N410 C409 1.347 . S
C411 C414 1.365 . S
C411 N416 1.328 . S
C411 H417 0.929 . S
C412 C413 1.362 . S
C412 C415 1.378 . S
C412 H427 0.929 . S
C413 C412 1.362 . S
C413 C414 1.366 . S
C414 C411 1.365 . S
C414 C413 1.366 . S
C414 H428 0.930 . S
C415 C412 1.378 . S
C415 N416 1.315 . S
C415 H418 0.930 . S
N416 Co396 2.194 . S
N416 C411 1.328 . S
N416 C415 1.315 . S
H417 C411 0.929 . S
H418 C415 0.930 . S
H419 C407 0.929 . S
H420 C409 0.929 . S
O421 Co396 2.351 . S
O421 C424 1.244 . S
O422 Co396 2.155 . S
O422 C424 1.240 . S
O423 Co396 2.096 . S
O423 C404 1.247 . S
C424 O421 1.244 . S
C424 O422 1.240 . S
H425 C399 0.931 . S
H426 C408 0.931 . S
H427 C412 0.929 . S
H428 C414 0.930 . S
Co429 N433 2.148 . S
Co429 N439 2.128 . S
Co429 N449 2.194 . S
Co429 O454 2.351 . S
Co429 O455 2.155 . S
Co429 O456 2.096 . S
C430 N433 1.301 . S
C430 N434 1.328 . S
C430 H435 0.930 . S
C431 C432 1.333 . S
C431 N433 1.317 . S
C431 H436 0.930 . S
C432 C431 1.333 . S
C432 N434 1.350 . S
C432 H458 0.931 . S
N433 Co429 2.148 . S
N433 C430 1.301 . S
N433 C431 1.317 . S
N434 C430 1.328 . S
N434 C432 1.350 . S
H435 C430 0.930 . S
H436 C431 0.930 . S
C437 O438 1.224 . S
C437 O456 1.247 . S
O438 C437 1.224 . S
N439 Co429 2.128 . S
N439 C440 1.355 . S
N439 C442 1.311 . S
C440 N439 1.355 . S
C440 C441 1.363 . S
C440 H452 0.929 . S
C441 C440 1.363 . S
C441 N443 1.375 . S
C441 H459 0.931 . S
C442 N439 1.311 . S
C442 N443 1.347 . S
C442 H453 0.929 . S
N443 C441 1.375 . S
N443 C442 1.347 . S
C444 C447 1.365 . S
C444 N449 1.328 . S
C444 H450 0.929 . S
C445 C446 1.362 . S
C445 C448 1.378 . S
C445 H460 0.929 . S
C446 C445 1.362 . S
C446 C447 1.366 . S
C447 C444 1.365 . S
C447 C446 1.366 . S
C447 H461 0.930 . S
C448 C445 1.378 . S
C448 N449 1.315 . S
C448 H451 0.930 . S
N449 Co429 2.194 . S
N449 C444 1.328 . S
N449 C448 1.315 . S
H450 C444 0.929 . S
H451 C448 0.930 . S
H452 C440 0.929 . S
H453 C442 0.929 . S
O454 Co429 2.351 . S
O454 C457 1.244 . S
O455 Co429 2.155 . S
O455 C457 1.240 . S
O456 Co429 2.096 . S
O456 C437 1.247 . S
C457 O454 1.244 . S
C457 O455 1.240 . S
H458 C432 0.931 . S
H459 C441 0.931 . S
H460 C445 0.929 . S
H461 C447 0.930 . S
Co462 N466 2.148 . S
Co462 N472 2.128 . S
Co462 N482 2.194 . S
Co462 O487 2.351 . S
Co462 O488 2.155 . S
Co462 O489 2.096 . S
C463 N466 1.301 . S
C463 N467 1.328 . S
C463 H468 0.930 . S
C464 C465 1.333 . S
C464 N466 1.317 . S
C464 H469 0.930 . S
C465 C464 1.333 . S
C465 N467 1.350 . S
C465 H491 0.931 . S
N466 Co462 2.148 . S
N466 C463 1.301 . S
N466 C464 1.317 . S
N467 C463 1.328 . S
N467 C465 1.350 . S
H468 C463 0.930 . S
H469 C464 0.930 . S
C470 O471 1.224 . S
C470 O489 1.247 . S
O471 C470 1.224 . S
N472 Co462 2.128 . S
N472 C473 1.355 . S
N472 C475 1.311 . S
C473 N472 1.355 . S
C473 C474 1.363 . S
C473 H485 0.929 . S
C474 C473 1.363 . S
C474 N476 1.375 . S
C474 H492 0.931 . S
C475 N472 1.311 . S
C475 N476 1.347 . S
C475 H486 0.929 . S
N476 C474 1.375 . S
N476 C475 1.347 . S
C477 C480 1.365 . S
C477 N482 1.328 . S
C477 H483 0.929 . S
C478 C479 1.362 . S
C478 C481 1.378 . S
C478 H493 0.929 . S
C479 C478 1.362 . S
C479 C480 1.366 . S
C480 C477 1.365 . S
C480 C479 1.366 . S
C480 H494 0.930 . S
C481 C478 1.378 . S
C481 N482 1.315 . S
C481 H484 0.930 . S
N482 Co462 2.194 . S
N482 C477 1.328 . S
N482 C481 1.315 . S
H483 C477 0.929 . S
H484 C481 0.930 . S
H485 C473 0.929 . S
H486 C475 0.929 . S
O487 Co462 2.351 . S
O487 C490 1.244 . S
O488 Co462 2.155 . S
O488 C490 1.240 . S
O489 Co462 2.096 . S
O489 C470 1.247 . S
C490 O487 1.244 . S
C490 O488 1.240 . S
H491 C465 0.931 . S
H492 C474 0.931 . S
H493 C478 0.929 . S
H494 C480 0.930 . S
Co495 N499 2.148 . S
Co495 N505 2.128 . S
Co495 N515 2.194 . S
Co495 O520 2.351 . S
Co495 O521 2.155 . S
Co495 O522 2.096 . S
C496 N499 1.301 . S
C496 N500 1.328 . S
C496 H501 0.930 . S
C497 C498 1.333 . S
C497 N499 1.317 . S
C497 H502 0.930 . S
C498 C497 1.333 . S
C498 N500 1.350 . S
C498 H524 0.931 . S
N499 Co495 2.148 . S
N499 C496 1.301 . S
N499 C497 1.317 . S
N500 C496 1.328 . S
N500 C498 1.350 . S
H501 C496 0.930 . S
H502 C497 0.930 . S
C503 O504 1.224 . S
C503 O522 1.247 . S
O504 C503 1.224 . S
N505 Co495 2.128 . S
N505 C506 1.355 . S
N505 C508 1.311 . S
C506 N505 1.355 . S
C506 C507 1.363 . S
C506 H518 0.929 . S
C507 C506 1.363 . S
C507 N509 1.375 . S
C507 H525 0.931 . S
C508 N505 1.311 . S
C508 N509 1.347 . S
C508 H519 0.929 . S
N509 C507 1.375 . S
N509 C508 1.347 . S
C510 C513 1.365 . S
C510 N515 1.328 . S
C510 H516 0.929 . S
C511 C512 1.362 . S
C511 C514 1.378 . S
C511 H526 0.929 . S
C512 C511 1.362 . S
C512 C513 1.366 . S
C513 C510 1.365 . S
C513 C512 1.366 . S
C513 H527 0.930 . S
C514 C511 1.378 . S
C514 N515 1.315 . S
C514 H517 0.930 . S
N515 Co495 2.194 . S
N515 C510 1.328 . S
N515 C514 1.315 . S
H516 C510 0.929 . S
H517 C514 0.930 . S
H518 C506 0.929 . S
H519 C508 0.929 . S
O520 Co495 2.351 . S
O520 C523 1.244 . S
O521 Co495 2.155 . S
O521 C523 1.240 . S
O522 Co495 2.096 . S
O522 C503 1.247 . S
C523 O520 1.244 . S
C523 O521 1.240 . S
H524 C498 0.931 . S
H525 C507 0.931 . S
H526 C511 0.929 . S
H527 C513 0.930 . S
C528 C529 1.391 . S
C528 C530 1.394 1_655 S
C528 H544 0.931 . S
C529 C528 1.391 . S
C529 C533 1.376 . S
C530 C528 1.394 1_455 S
C530 C531 1.369 1_455 S
C530 C534 1.531 . S
C531 C530 1.369 1_655 S
C531 C532 1.410 . S
C531 C539 1.503 1_655 S
C532 C531 1.410 . S
C532 C533 1.392 . S
C532 C535 1.511 . S
C533 C529 1.376 . S
C533 C532 1.392 . S
C533 H545 0.929 . S
C534 C530 1.531 . S
C534 H546 0.960 . S
C534 H547 0.962 . S
C534 H548 0.960 . S
C535 C532 1.511 . S
C535 H549 0.961 . S
C535 H550 0.961 . S
C535 H551 0.961 . S
C536 C537 1.370 . S
C536 C538 1.363 . S
C536 H552 0.931 . S
C537 C536 1.370 . S
C537 C541 1.408 . S
C538 C536 1.363 . S
C538 C539 1.370 . S
C538 C542 1.524 . S
C539 C531 1.503 1_455 S
C539 C538 1.370 . S
C539 C540 1.403 . S
C540 C539 1.403 . S
C540 C541 1.404 . S
C540 C543 1.539 . S
C541 C537 1.408 . S
C541 C540 1.404 . S
C541 H553 0.930 . S
C542 C538 1.524 . S
C542 H554 0.956 . S
C542 H555 0.961 1_455 S
C542 H556 0.961 . S
C543 C540 1.539 . S
C543 H557 0.958 . S
C543 H558 0.966 . S
C543 H559 0.960 1_455 S
H544 C528 0.931 . S
H545 C533 0.929 . S
H546 C534 0.960 . S
H547 C534 0.962 . S
H548 C534 0.960 . S
H549 C535 0.961 . S
H550 C535 0.961 . S
H551 C535 0.961 . S
H552 C536 0.931 . S
H553 C541 0.930 . S
H554 C542 0.956 . S
H555 C542 0.961 1_655 S
H556 C542 0.961 . S
H557 C543 0.958 . S
H558 C543 0.966 . S
H559 C543 0.960 1_655 S
C560 C561 1.391 . S
C560 C562 1.394 1_545 S
C560 H576 0.931 . S
C561 C560 1.391 . S
C561 C565 1.376 . S
C562 C560 1.394 1_565 S
C562 C563 1.369 1_565 S
C562 C566 1.531 . S
C563 C562 1.369 1_545 S
C563 C564 1.410 . S
C563 C571 1.503 1_545 S
C564 C563 1.410 . S
C564 C565 1.392 . S
C564 C567 1.511 . S
C565 C561 1.376 . S
C565 C564 1.392 . S
C565 H577 0.929 . S
C566 C562 1.531 . S
C566 H578 0.960 . S
C566 H579 0.962 . S
C566 H580 0.960 . S
C567 C564 1.511 . S
C567 H581 0.961 . S
C567 H582 0.961 . S
C567 H583 0.961 . S
C568 C569 1.370 . S
C568 C570 1.363 . S
C568 H584 0.931 . S
C569 C568 1.370 . S
C569 C573 1.408 . S
C570 C568 1.363 . S
C570 C571 1.370 . S
C570 C574 1.524 . S
C571 C563 1.503 1_565 S
C571 C570 1.370 . S
C571 C572 1.403 . S
C572 C571 1.403 . S
C572 C573 1.404 . S
C572 C575 1.539 1_565 S
C573 C569 1.408 . S
C573 C572 1.404 . S
C573 H585 0.930 . S
C574 C570 1.524 . S
C574 H586 0.956 . S
C574 H587 0.961 . S
C574 H588 0.961 . S
C575 C572 1.539 1_545 S
C575 H589 0.958 1_545 S
C575 H590 0.961 . S
C575 H591 0.960 . S
H576 C560 0.931 . S
H577 C565 0.929 . S
H578 C566 0.960 . S
H579 C566 0.962 . S
H580 C566 0.960 . S
H581 C567 0.961 . S
H582 C567 0.961 . S
H583 C567 0.961 . S
H584 C568 0.931 . S
H585 C573 0.930 . S
H586 C574 0.956 . S
H587 C574 0.961 . S
H588 C574 0.961 . S
H589 C575 0.958 1_565 S
H590 C575 0.961 . S
H591 C575 0.960 . S
C592 C593 1.391 . S
C592 C594 1.394 . S
C592 H608 0.931 . S
C593 C592 1.391 . S
C593 C597 1.376 . S
C594 C592 1.394 . S
C594 C595 1.369 . S
C594 C598 1.531 1_655 S
C595 C594 1.369 . S
C595 C596 1.410 . S
C595 C603 1.503 1_655 S
C596 C595 1.410 . S
C596 C597 1.392 . S
C596 C599 1.511 . S
C597 C593 1.376 . S
C597 C596 1.392 . S
C597 H609 0.929 . S
C598 C594 1.531 1_455 S
C598 H610 0.960 . S
C598 H611 0.962 . S
C598 H612 0.960 . S
C599 C596 1.511 . S
C599 H613 0.961 . S
C599 H614 0.961 . S
C599 H615 0.961 . S
C600 C601 1.370 . S
C600 C602 1.363 . S
C600 H616 0.931 . S
C601 C600 1.370 . S
C601 C605 1.408 . S
C602 C600 1.363 . S
C602 C603 1.370 . S
C602 C606 1.524 . S
C603 C595 1.503 1_455 S
C603 C602 1.370 . S
C603 C604 1.403 . S
C604 C603 1.403 . S
C604 C605 1.404 . S
C604 C607 1.539 1_455 S
C605 C601 1.408 . S
C605 C604 1.404 . S
C605 H617 0.930 . S
C606 C602 1.524 . S
C606 H618 0.956 . S
C606 H619 0.961 . S
C606 H620 0.961 . S
C607 C604 1.539 1_655 S
C607 H621 0.958 . S
C607 H622 0.961 . S
C607 H623 0.960 . S
H608 C592 0.931 . S
H609 C597 0.929 . S
H610 C598 0.960 . S
H611 C598 0.962 . S
H612 C598 0.960 . S
H613 C599 0.961 . S
H614 C599 0.961 . S
H615 C599 0.961 . S
H616 C600 0.931 . S
H617 C605 0.930 . S
H618 C606 0.956 . S
H619 C606 0.961 . S
H620 C606 0.961 . S
H621 C607 0.958 . S
H622 C607 0.961 . S
H623 C607 0.960 . S
C624 C625 1.391 . S
C624 C626 1.394 . S
C624 H640 0.931 . S
C625 C624 1.391 . S
C625 C629 1.376 . S
C626 C624 1.394 . S
C626 C627 1.369 . S
C626 C630 1.531 1_565 S
C627 C626 1.369 . S
C627 C628 1.410 . S
C627 C635 1.503 1_565 S
C628 C627 1.410 . S
C628 C629 1.392 . S
C628 C631 1.511 . S
C629 C625 1.376 . S
C629 C628 1.392 . S
C629 H641 0.929 . S
C630 C626 1.531 1_545 S
C630 H642 0.960 . S
C630 H643 0.962 . S
C630 H644 0.960 . S
C631 C628 1.511 . S
C631 H645 0.961 . S
C631 H646 0.961 . S
C631 H647 0.961 . S
C632 C633 1.370 . S
C632 C634 1.363 . S
C632 H648 0.931 . S
C633 C632 1.370 . S
C633 C637 1.408 . S
C634 C632 1.363 . S
C634 C635 1.370 . S
C634 C638 1.524 . S
C635 C627 1.503 1_545 S
C635 C634 1.370 . S
C635 C636 1.403 1_545 S
C636 C635 1.403 1_565 S
C636 C637 1.404 1_565 S
C636 C639 1.539 . S
C637 C633 1.408 . S
C637 C636 1.404 1_545 S
C637 H649 0.930 . S
C638 C634 1.524 . S
C638 H650 0.956 . S
C638 H651 0.961 . S
C638 H652 0.961 . S
C639 C636 1.539 . S
C639 H653 0.958 . S
C639 H654 0.961 . S
C639 H655 0.960 . S
H640 C624 0.931 . S
H641 C629 0.929 . S
H642 C630 0.960 . S
H643 C630 0.962 . S
H644 C630 0.960 . S
H645 C631 0.961 . S
H646 C631 0.961 . S
H647 C631 0.961 . S
H648 C632 0.931 . S
H649 C637 0.930 . S
H650 C638 0.956 . S
H651 C638 0.961 . S
H652 C638 0.961 . S
H653 C639 0.958 . S
H654 C639 0.961 . S
H655 C639 0.960 . S
C656 C657 1.391 . S
C656 C658 1.394 . S
C656 H672 0.931 . S
C657 C656 1.391 . S
C657 C661 1.376 . S
C658 C656 1.394 . S
C658 C659 1.369 . S
C658 C662 1.531 1_655 S
C659 C658 1.369 . S
C659 C660 1.410 . S
C659 C667 1.503 1_655 S
C660 C659 1.410 . S
C660 C661 1.392 . S
C660 C663 1.511 . S
C661 C657 1.376 . S
C661 C660 1.392 . S
C661 H673 0.929 . S
C662 C658 1.531 1_455 S
C662 H674 0.960 . S
C662 H675 0.962 . S
C662 H676 0.959 1_455 S
C663 C660 1.511 . S
C663 H677 0.961 . S
C663 H678 0.961 . S
C663 H679 0.961 . S
C664 C665 1.370 . S
C664 C666 1.363 . S
C664 H680 0.931 . S
C665 C664 1.370 . S
C665 C669 1.408 . S
C666 C664 1.363 . S
C666 C667 1.370 . S
C666 C670 1.524 . S
C667 C659 1.503 1_455 S
C667 C666 1.370 . S
C667 C668 1.403 . S
C668 C667 1.403 . S
C668 C669 1.404 . S
C668 C671 1.539 1_455 S
C669 C665 1.408 . S
C669 C668 1.404 . S
C669 H681 0.930 . S
C670 C666 1.524 . S
C670 H682 0.956 . S
C670 H683 0.961 . S
C670 H684 0.961 . S
C671 C668 1.539 1_655 S
C671 H685 0.958 . S
C671 H686 0.961 . S
C671 H687 0.960 . S
H672 C656 0.931 . S
H673 C661 0.929 . S
H674 C662 0.960 . S
H675 C662 0.962 . S
H676 C662 0.959 1_655 S
H677 C663 0.961 . S
H678 C663 0.961 . S
H679 C663 0.961 . S
H680 C664 0.931 . S
H681 C669 0.930 . S
H682 C670 0.956 . S
H683 C670 0.961 . S
H684 C670 0.961 . S
H685 C671 0.958 . S
H686 C671 0.961 . S
H687 C671 0.960 . S
C688 C689 1.391 . S
C688 C690 1.394 . S
C688 H704 0.931 . S
C689 C688 1.391 . S
C689 C693 1.376 . S
C690 C688 1.394 . S
C690 C691 1.369 . S
C690 C694 1.531 1_565 S
C691 C690 1.369 . S
C691 C692 1.410 . S
C691 C699 1.503 1_565 S
C692 C691 1.410 . S
C692 C693 1.392 . S
C692 C695 1.511 . S
C693 C689 1.376 . S
C693 C692 1.392 . S
C693 H705 0.929 . S
C694 C690 1.531 1_545 S
C694 H706 0.960 . S
C694 H707 0.962 . S
C694 H708 0.960 . S
C695 C692 1.511 . S
C695 H709 0.961 . S
C695 H710 0.961 . S
C695 H711 0.961 . S
C696 C697 1.370 . S
C696 C698 1.363 . S
C696 H712 0.931 . S
C697 C696 1.370 . S
C697 C701 1.408 . S
C698 C696 1.363 . S
C698 C699 1.370 . S
C698 C702 1.524 . S
C699 C691 1.503 1_545 S
C699 C698 1.370 . S
C699 C700 1.403 . S
C700 C699 1.403 . S
C700 C701 1.404 . S
C700 C703 1.539 . S
C701 C697 1.408 . S
C701 C700 1.404 . S
C701 H713 0.930 . S
C702 C698 1.524 . S
C702 H714 0.956 . S
C702 H715 0.961 1_545 S
C702 H716 0.961 . S
C703 C700 1.539 . S
C703 H717 0.958 . S
C703 H718 0.961 . S
C703 H719 0.960 1_545 S
H704 C688 0.931 . S
H705 C693 0.929 . S
H706 C694 0.960 . S
H707 C694 0.962 . S
H708 C694 0.960 . S
H709 C695 0.961 . S
H710 C695 0.961 . S
H711 C695 0.961 . S
H712 C696 0.931 . S
H713 C701 0.930 . S
H714 C702 0.956 . S
H715 C702 0.961 1_565 S
H716 C702 0.961 . S
H717 C703 0.958 . S
H718 C703 0.961 . S
H719 C703 0.960 1_565 S
C720 C721 1.391 . S
C720 C722 1.394 . S
C720 H736 0.931 . S
C721 C720 1.391 . S
C721 C725 1.376 . S
C722 C720 1.394 . S
C722 C723 1.369 . S
C722 C726 1.531 . S
C723 C722 1.369 . S
C723 C724 1.410 . S
C723 C731 1.503 1_655 S
C724 C723 1.410 . S
C724 C725 1.392 . S
C724 C727 1.511 1_655 S
C725 C721 1.376 . S
C725 C724 1.392 . S
C725 H737 0.929 . S
C726 C722 1.531 . S
C726 H738 0.960 . S
C726 H739 0.962 . S
C726 H740 0.960 . S
C727 C724 1.511 1_455 S
C727 H741 0.961 . S
C727 H742 0.961 . S
C727 H743 0.961 . S
C728 C729 1.370 . S
C728 C730 1.363 . S
C728 H744 0.931 . S
C729 C728 1.370 . S
C729 C733 1.408 . S
C730 C728 1.363 . S
C730 C731 1.370 . S
C730 C734 1.524 . S
C731 C723 1.503 1_455 S
C731 C730 1.370 . S
C731 C732 1.403 . S
C732 C731 1.403 . S
C732 C733 1.404 . S
C732 C735 1.539 . S
C733 C729 1.408 . S
C733 C732 1.404 . S
C733 H745 0.930 . S
C734 C730 1.524 . S
C734 H746 0.956 . S
C734 H747 0.961 . S
C734 H748 0.961 . S
C735 C732 1.539 . S
C735 H749 0.958 1_455 S
C735 H750 0.961 . S
C735 H751 0.960 1_455 S
H736 C720 0.931 . S
H737 C725 0.929 . S
H738 C726 0.960 . S
H739 C726 0.962 . S
H740 C726 0.960 . S
H741 C727 0.961 . S
H742 C727 0.961 . S
H743 C727 0.961 . S
H744 C728 0.931 . S
H745 C733 0.930 . S
H746 C734 0.956 . S
H747 C734 0.961 . S
H748 C734 0.961 . S
H749 C735 0.958 1_655 S
H750 C735 0.961 . S
H751 C735 0.960 1_655 S
C752 C753 1.391 . S
C752 C754 1.394 . S
C752 H768 0.931 . S
C753 C752 1.391 . S
C753 C757 1.376 . S
C754 C752 1.394 . S
C754 C755 1.369 . S
C754 C758 1.531 . S
C755 C754 1.369 . S
C755 C756 1.410 . S
C755 C763 1.503 1_545 S
C756 C755 1.410 . S
C756 C757 1.392 . S
C756 C759 1.511 1_545 S
C757 C753 1.376 . S
C757 C756 1.392 . S
C757 H769 0.929 . S
C758 C754 1.531 . S
C758 H770 0.960 . S
C758 H771 0.962 . S
C758 H772 0.960 . S
C759 C756 1.511 1_565 S
C759 H773 0.961 . S
C759 H774 0.961 . S
C759 H775 0.961 . S
C760 C761 1.370 . S
C760 C762 1.363 . S
C760 H776 0.931 . S
C761 C760 1.370 . S
C761 C765 1.408 . S
C762 C760 1.363 . S
C762 C763 1.370 . S
C762 C766 1.524 1_565 S
C763 C755 1.503 1_565 S
C763 C762 1.370 . S
C763 C764 1.403 . S
C764 C763 1.403 . S
C764 C765 1.404 . S
C764 C767 1.539 . S
C765 C761 1.408 . S
C765 C764 1.404 . S
C765 H777 0.930 . S
C766 C762 1.524 1_545 S
C766 H778 0.956 . S
C766 H779 0.961 . S
C766 H780 0.961 . S
C767 C764 1.539 . S
C767 H781 0.958 . S
C767 H782 0.961 . S
C767 H783 0.960 . S
H768 C752 0.931 . S
H769 C757 0.929 . S
H770 C758 0.960 . S
H771 C758 0.962 . S
H772 C758 0.960 . S
H773 C759 0.961 . S
H774 C759 0.961 . S
H775 C759 0.961 . S
H776 C760 0.931 . S
H777 C765 0.930 . S
H778 C766 0.956 . S
H779 C766 0.961 . S
H780 C766 0.961 . S
H781 C767 0.958 . S
H782 C767 0.961 . S
H783 C767 0.960 . S
C784 C785 1.391 . S
C784 C786 1.394 . S
C784 H800 0.931 . S
C785 C784 1.391 . S
C785 C789 1.376 . S
C786 C784 1.394 . S
C786 C787 1.369 . S
C786 C790 1.531 . S
C787 C786 1.369 . S
C787 C788 1.410 . S
C787 C795 1.503 . S
C788 C787 1.410 . S
C788 C789 1.392 . S
C788 C791 1.511 . S
C789 C785 1.376 . S
C789 C788 1.392 . S
C789 H801 0.929 . S
C790 C786 1.531 . S
C790 H802 0.960 . S
C790 H803 0.962 . S
C790 H804 0.960 . S
C791 C788 1.511 . S
C791 H805 0.961 . S
C791 H806 0.961 . S
C791 H807 0.961 . S
C792 C793 1.370 . S
C792 C794 1.363 . S
C792 H808 0.931 . S
C793 C792 1.370 . S
C793 C797 1.408 . S
C794 C792 1.363 . S
C794 C795 1.370 . S
C794 C798 1.524 . S
C795 C787 1.503 . S
C795 C794 1.370 . S
C795 C796 1.403 . S
C796 C795 1.403 . S
C796 C797 1.404 . S
C796 C799 1.539 . S
C797 C793 1.408 . S
C797 C796 1.404 . S
C797 H809 0.930 . S
C798 C794 1.524 . S
C798 H810 0.956 . S
C798 H811 0.961 . S
C798 H812 0.961 . S
C799 C796 1.539 . S
C799 H813 0.958 . S
C799 H814 0.961 . S
C799 H815 0.960 . S
H800 C784 0.931 . S
H801 C789 0.929 . S
H802 C790 0.960 . S
H803 C790 0.962 . S
H804 C790 0.960 . S
H805 C791 0.961 . S
H806 C791 0.961 . S
H807 C791 0.961 . S
H808 C792 0.931 . S
H809 C797 0.930 . S
H810 C798 0.956 . S
H811 C798 0.961 . S
H812 C798 0.961 . S
H813 C799 0.958 . S
H814 C799 0.961 . S
H815 C799 0.960 . S
C816 C817 1.391 . S
C816 C818 1.394 . S
C816 H832 0.931 . S
C817 C816 1.391 . S
C817 C821 1.376 . S
C818 C816 1.394 . S
C818 C819 1.369 . S
C818 C822 1.531 . S
C819 C818 1.369 . S
C819 C820 1.410 . S
C819 C827 1.503 . S
C820 C819 1.410 . S
C820 C821 1.392 . S
C820 C823 1.511 . S
C821 C817 1.376 . S
C821 C820 1.392 . S
C821 H833 0.929 . S
C822 C818 1.531 . S
C822 H834 0.960 . S
C822 H835 0.962 . S
C822 H836 0.960 . S
C823 C820 1.511 . S
C823 H837 0.961 . S
C823 H838 0.961 . S
C823 H839 0.961 . S
C824 C825 1.370 . S
C824 C826 1.363 . S
C824 H840 0.931 . S
C825 C824 1.370 . S
C825 C829 1.408 . S
C826 C824 1.363 . S
C826 C827 1.370 . S
C826 C830 1.524 . S
C827 C819 1.503 . S
C827 C826 1.370 . S
C827 C828 1.403 . S
C828 C827 1.403 . S
C828 C829 1.404 . S
C828 C831 1.539 . S
C829 C825 1.408 . S
C829 C828 1.404 . S
C829 H841 0.930 . S
C830 C826 1.524 . S
C830 H842 0.956 . S
C830 H843 0.961 . S
C830 H844 0.961 . S
C831 C828 1.539 . S
C831 H845 0.958 . S
C831 H846 0.961 . S
C831 H847 0.960 . S
H832 C816 0.931 . S
H833 C821 0.929 . S
H834 C822 0.960 . S
H835 C822 0.962 . S
H836 C822 0.960 . S
H837 C823 0.961 . S
H838 C823 0.961 . S
H839 C823 0.961 . S
H840 C824 0.931 . S
H841 C829 0.930 . S
H842 C830 0.956 . S
H843 C830 0.961 . S
H844 C830 0.961 . S
H845 C831 0.958 . S
H846 C831 0.961 . S
H847 C831 0.960 . S
C848 C849 1.391 . S
C848 C850 1.394 . S
C848 H864 0.931 . S
C849 C848 1.391 . S
C849 C853 1.376 . S
C850 C848 1.394 . S
C850 C851 1.369 . S
C850 C854 1.531 . S
C851 C850 1.369 . S
C851 C852 1.410 . S
C851 C859 1.503 . S
C852 C851 1.410 . S
C852 C853 1.392 . S
C852 C855 1.511 . S
C853 C849 1.376 . S
C853 C852 1.392 . S
C853 H865 0.929 . S
C854 C850 1.531 . S
C854 H866 0.960 . S
C854 H867 0.962 . S
C854 H868 0.960 . S
C855 C852 1.511 . S
C855 H869 0.961 . S
C855 H870 0.961 . S
C855 H871 0.961 . S
C856 C857 1.370 . S
C856 C858 1.363 . S
C856 H872 0.931 . S
C857 C856 1.370 . S
C857 C861 1.408 . S
C858 C856 1.363 . S
C858 C859 1.370 . S
C858 C862 1.524 . S
C859 C851 1.503 . S
C859 C858 1.370 . S
C859 C860 1.403 . S
C860 C859 1.403 . S
C860 C861 1.404 . S
C860 C863 1.539 . S
C861 C857 1.408 . S
C861 C860 1.404 . S
C861 H873 0.930 . S
C862 C858 1.524 . S
C862 H874 0.956 . S
C862 H875 0.961 . S
C862 H876 0.961 . S
C863 C860 1.539 . S
C863 H877 0.958 . S
C863 H878 0.961 . S
C863 H879 0.960 . S
H864 C848 0.931 . S
H865 C853 0.929 . S
H866 C854 0.960 . S
H867 C854 0.962 . S
H868 C854 0.960 . S
H869 C855 0.961 . S
H870 C855 0.961 . S
H871 C855 0.961 . S
H872 C856 0.931 . S
H873 C861 0.930 . S
H874 C862 0.956 . S
H875 C862 0.961 . S
H876 C862 0.961 . S
H877 C863 0.958 . S
H878 C863 0.961 . S
H879 C863 0.960 . S
C880 C881 1.391 . S
C880 C882 1.394 . S
C880 H896 0.931 . S
C881 C880 1.391 . S
C881 C885 1.376 . S
C882 C880 1.394 . S
C882 C883 1.369 . S
C882 C886 1.531 . S
C883 C882 1.369 . S
C883 C884 1.410 . S
C883 C891 1.503 . S
C884 C883 1.410 . S
C884 C885 1.392 . S
C884 C887 1.511 . S
C885 C881 1.376 . S
C885 C884 1.392 . S
C885 H897 0.929 . S
C886 C882 1.531 . S
C886 H898 0.960 . S
C886 H899 0.962 . S
C886 H900 0.960 . S
C887 C884 1.511 . S
C887 H901 0.961 . S
C887 H902 0.961 . S
C887 H903 0.961 . S
C888 C889 1.370 . S
C888 C890 1.363 . S
C888 H904 0.931 . S
C889 C888 1.370 . S
C889 C893 1.408 . S
C890 C888 1.363 . S
C890 C891 1.370 . S
C890 C894 1.524 . S
C891 C883 1.503 . S
C891 C890 1.370 . S
C891 C892 1.403 . S
C892 C891 1.403 . S
C892 C893 1.404 . S
C892 C895 1.539 . S
C893 C889 1.408 . S
C893 C892 1.404 . S
C893 H905 0.930 . S
C894 C890 1.524 . S
C894 H906 0.956 . S
C894 H907 0.961 . S
C894 H908 0.961 . S
C895 C892 1.539 . S
C895 H909 0.958 . S
C895 H910 0.961 . S
C895 H911 0.960 . S
H896 C880 0.931 . S
H897 C885 0.929 . S
H898 C886 0.960 . S
H899 C886 0.962 . S
H900 C886 0.960 . S
H901 C887 0.961 . S
H902 C887 0.961 . S
H903 C887 0.961 . S
H904 C888 0.931 . S
H905 C893 0.930 . S
H906 C894 0.956 . S
H907 C894 0.961 . S
H908 C894 0.961 . S
H909 C895 0.958 . S
H910 C895 0.961 . S
H911 C895 0.960 . S
C912 C913 1.391 . S
C912 C914 1.394 . S
C912 H928 0.931 . S
C913 C912 1.391 . S
C913 C917 1.376 . S
C914 C912 1.394 . S
C914 C915 1.369 . S
C914 C918 1.531 . S
C915 C914 1.369 . S
C915 C916 1.410 . S
C915 C923 1.503 . S
C916 C915 1.410 . S
C916 C917 1.392 . S
C916 C919 1.511 . S
C917 C913 1.376 . S
C917 C916 1.392 . S
C917 H929 0.929 . S
C918 C914 1.531 . S
C918 H930 0.960 . S
C918 H931 0.962 . S
C918 H932 0.960 . S
C919 C916 1.511 . S
C919 H933 0.961 . S
C919 H934 0.961 . S
C919 H935 0.961 . S
C920 C921 1.370 . S
C920 C922 1.363 . S
C920 H936 0.931 . S
C921 C920 1.370 . S
C921 C925 1.408 . S
C922 C920 1.363 . S
C922 C923 1.370 . S
C922 C926 1.524 . S
C923 C915 1.503 . S
C923 C922 1.370 . S
C923 C924 1.403 . S
C924 C923 1.403 . S
C924 C925 1.404 . S
C924 C927 1.539 . S
C925 C921 1.408 . S
C925 C924 1.404 . S
C925 H937 0.930 . S
C926 C922 1.524 . S
C926 H938 0.956 . S
C926 H939 0.961 . S
C926 H940 0.961 . S
C927 C924 1.539 . S
C927 H941 0.958 . S
C927 H942 0.961 . S
C927 H943 0.960 . S
H928 C912 0.931 . S
H929 C917 0.929 . S
H930 C918 0.960 . S
H931 C918 0.962 . S
H932 C918 0.960 . S
H933 C919 0.961 . S
H934 C919 0.961 . S
H935 C919 0.961 . S
H936 C920 0.931 . S
H937 C925 0.930 . S
H938 C926 0.956 . S
H939 C926 0.961 . S
H940 C926 0.961 . S
H941 C927 0.958 . S
H942 C927 0.961 . S
H943 C927 0.960 . S
C944 C945 1.391 . S
C944 C946 1.394 . S
C944 H960 0.931 . S
C945 C944 1.391 . S
C945 C949 1.376 . S
C946 C944 1.394 . S
C946 C947 1.369 . S
C946 C950 1.531 . S
C947 C946 1.369 . S
C947 C948 1.410 . S
C947 C955 1.503 . S
C948 C947 1.410 . S
C948 C949 1.392 . S
C948 C951 1.511 . S
C949 C945 1.376 . S
C949 C948 1.392 . S
C949 H961 0.929 . S
C950 C946 1.531 . S
C950 H962 0.960 . S
C950 H963 0.962 . S
C950 H964 0.960 . S
C951 C948 1.511 . S
C951 H965 0.961 . S
C951 H966 0.961 . S
C951 H967 0.961 . S
C952 C953 1.370 . S
C952 C954 1.363 . S
C952 H968 0.931 . S
C953 C952 1.370 . S
C953 C957 1.408 . S
C954 C952 1.363 . S
C954 C955 1.370 . S
C954 C958 1.524 . S
C955 C947 1.503 . S
C955 C954 1.370 . S
C955 C956 1.403 . S
C956 C955 1.403 . S
C956 C957 1.404 . S
C956 C959 1.539 . S
C957 C953 1.408 . S
C957 C956 1.404 . S
C957 H969 0.930 . S
C958 C954 1.524 . S
C958 H970 0.956 . S
C958 H971 0.961 . S
C958 H972 0.961 . S
C959 C956 1.539 . S
C959 H973 0.958 . S
C959 H974 0.961 . S
C959 H975 0.960 . S
H960 C944 0.931 . S
H961 C949 0.929 . S
H962 C950 0.960 . S
H963 C950 0.962 . S
H964 C950 0.960 . S
H965 C951 0.961 . S
H966 C951 0.961 . S
H967 C951 0.961 . S
H968 C952 0.931 . S
H969 C957 0.930 . S
H970 C958 0.956 . S
H971 C958 0.961 . S
H972 C958 0.961 . S
H973 C959 0.958 . S
H974 C959 0.961 . S
H975 C959 0.960 . S
C976 C977 1.391 . S
C976 C978 1.394 . S
C976 H992 0.931 . S
C977 C976 1.391 . S
C977 C981 1.376 . S
C978 C976 1.394 . S
C978 C979 1.369 . S
C978 C982 1.531 . S
C979 C978 1.369 . S
C979 C980 1.410 . S
C979 C987 1.503 . S
C980 C979 1.410 . S
C980 C981 1.392 . S
C980 C983 1.511 . S
C981 C977 1.376 . S
C981 C980 1.392 . S
C981 H993 0.929 . S
C982 C978 1.531 . S
C982 H994 0.960 . S
C982 H995 0.962 . S
C982 H996 0.960 . S
C983 C980 1.511 . S
C983 H997 0.961 . S
C983 H998 0.961 . S
C983 H999 0.961 . S
C984 C985 1.370 . S
C984 C986 1.363 . S
C984 H1000 0.931 . S
C985 C984 1.370 . S
C985 C989 1.408 . S
C986 C984 1.363 . S
C986 C987 1.370 . S
C986 C990 1.524 . S
C987 C979 1.503 . S
C987 C986 1.370 . S
C987 C988 1.403 . S
C988 C987 1.403 . S
C988 C989 1.404 . S
C988 C991 1.539 . S
C989 C985 1.408 . S
C989 C988 1.404 . S
C989 H1001 0.930 . S
C990 C986 1.524 . S
C990 H1002 0.956 . S
C990 H1003 0.961 . S
C990 H1004 0.961 . S
C991 C988 1.539 . S
C991 H1005 0.958 . S
C991 H1006 0.961 . S
C991 H1007 0.960 . S
H992 C976 0.931 . S
H993 C981 0.929 . S
H994 C982 0.960 . S
H995 C982 0.962 . S
H996 C982 0.960 . S
H997 C983 0.961 . S
H998 C983 0.961 . S
H999 C983 0.961 . S
H1000 C984 0.931 . S
H1001 C989 0.930 . S
H1002 C990 0.956 . S
H1003 C990 0.961 . S
H1004 C990 0.961 . S
H1005 C991 0.958 . S
H1006 C991 0.961 . S
H1007 C991 0.960 . S
C1008 C1009 1.391 . S
C1008 C1010 1.394 . S
C1008 H1024 0.931 . S
C1009 C1008 1.391 . S
C1009 C1013 1.376 . S
C1010 C1008 1.394 . S
C1010 C1011 1.369 . S
C1010 C1014 1.531 . S
C1011 C1010 1.369 . S
C1011 C1012 1.410 . S
C1011 C1019 1.503 . S
C1012 C1011 1.410 . S
C1012 C1013 1.392 . S
C1012 C1015 1.511 . S
C1013 C1009 1.376 . S
C1013 C1012 1.392 . S
C1013 H1025 0.929 . S
C1014 C1010 1.531 . S
C1014 H1026 0.960 . S
C1014 H1027 0.962 . S
C1014 H1028 0.960 . S
C1015 C1012 1.511 . S
C1015 H1029 0.961 . S
C1015 H1030 0.961 . S
C1015 H1031 0.961 . S
C1016 C1017 1.370 . S
C1016 C1018 1.363 . S
C1016 H1032 0.931 . S
C1017 C1016 1.370 . S
C1017 C1021 1.408 . S
C1018 C1016 1.363 . S
C1018 C1019 1.370 . S
C1018 C1022 1.524 . S
C1019 C1011 1.503 . S
C1019 C1018 1.370 . S
C1019 C1020 1.403 . S
C1020 C1019 1.403 . S
C1020 C1021 1.404 . S
C1020 C1023 1.539 . S
C1021 C1017 1.408 . S
C1021 C1020 1.404 . S
C1021 H1033 0.930 . S
C1022 C1018 1.524 . S
C1022 H1034 0.956 . S
C1022 H1035 0.961 . S
C1022 H1036 0.961 . S
C1023 C1020 1.539 . S
C1023 H1037 0.958 . S
C1023 H1038 0.961 . S
C1023 H1039 0.960 . S
H1024 C1008 0.931 . S
H1025 C1013 0.929 . S
H1026 C1014 0.960 . S
H1027 C1014 0.962 . S
H1028 C1014 0.960 . S
H1029 C1015 0.961 . S
H1030 C1015 0.961 . S
H1031 C1015 0.961 . S
H1032 C1016 0.931 . S
H1033 C1021 0.930 . S
H1034 C1022 0.956 . S
H1035 C1022 0.961 . S
H1036 C1022 0.961 . S
H1037 C1023 0.958 . S
H1038 C1023 0.961 . S
H1039 C1023 0.960 . S
C1040 C1041 1.391 . S
C1040 C1042 1.394 . S
C1040 H1056 0.931 . S
C1041 C1040 1.391 . S
C1041 C1045 1.376 . S
C1042 C1040 1.394 . S
C1042 C1043 1.369 . S
C1042 C1046 1.531 . S
C1043 C1042 1.369 . S
C1043 C1044 1.410 . S
C1043 C1051 1.503 1_554 S
C1044 C1043 1.410 . S
C1044 C1045 1.392 . S
C1044 C1047 1.511 . S
C1045 C1041 1.376 . S
C1045 C1044 1.392 . S
C1045 H1057 0.929 . S
C1046 C1042 1.531 . S
C1046 H1058 0.960 1_554 S
C1046 H1059 0.962 . S
C1046 H1060 0.960 . S
C1047 C1044 1.511 . S
C1047 H1061 0.961 . S
C1047 H1062 0.961 . S
C1047 H1063 0.961 . S
C1048 C1049 1.370 . S
C1048 C1050 1.363 . S
C1048 H1064 0.931 . S
C1049 C1048 1.370 . S
C1049 C1053 1.408 . S
C1050 C1048 1.363 . S
C1050 C1051 1.370 . S
C1050 C1054 1.524 . S
C1051 C1043 1.503 1_556 S
C1051 C1050 1.370 . S
C1051 C1052 1.403 . S
C1052 C1051 1.403 . S
C1052 C1053 1.404 . S
C1052 C1055 1.539 . S
C1053 C1049 1.408 . S
C1053 C1052 1.404 . S
C1053 H1065 0.930 . S
C1054 C1050 1.524 . S
C1054 H1066 0.956 1_556 S
C1054 H1067 0.961 1_556 S
C1054 H1068 0.961 . S
C1055 C1052 1.539 . S
C1055 H1069 0.958 . S
C1055 H1070 0.961 . S
C1055 H1071 0.960 . S
H1056 C1040 0.931 . S
H1057 C1045 0.929 . S
H1058 C1046 0.960 1_556 S
H1059 C1046 0.962 . S
H1060 C1046 0.960 . S
H1061 C1047 0.961 . S
H1062 C1047 0.961 . S
H1063 C1047 0.961 . S
H1064 C1048 0.931 . S
H1065 C1053 0.930 . S
H1066 C1054 0.956 1_554 S
H1067 C1054 0.961 1_554 S
H1068 C1054 0.961 . S
H1069 C1055 0.958 . S
H1070 C1055 0.961 . S
H1071 C1055 0.960 . S
C1072 C1073 1.391 . S
C1072 C1074 1.394 . S
C1072 H1088 0.931 . S
C1073 C1072 1.391 . S
C1073 C1077 1.376 . S
C1074 C1072 1.394 . S
C1074 C1075 1.369 . S
C1074 C1078 1.531 . S
C1075 C1074 1.369 . S
C1075 C1076 1.410 . S
C1075 C1083 1.503 1_556 S
C1076 C1075 1.410 . S
C1076 C1077 1.392 . S
C1076 C1079 1.511 . S
C1077 C1073 1.376 . S
C1077 C1076 1.392 . S
C1077 H1089 0.929 . S
C1078 C1074 1.531 . S
C1078 H1090 0.960 1_556 S
C1078 H1091 0.962 . S
C1078 H1092 0.960 . S
C1079 C1076 1.511 . S
C1079 H1093 0.961 . S
C1079 H1094 0.961 1_556 S
C1079 H1095 0.961 . S
C1080 C1081 1.370 . S
C1080 C1082 1.363 . S
C1080 H1096 0.931 . S
C1081 C1080 1.370 . S
C1081 C1085 1.408 . S
C1082 C1080 1.363 . S
C1082 C1083 1.370 . S
C1082 C1086 1.524 . S
C1083 C1075 1.503 1_554 S
C1083 C1082 1.370 . S
C1083 C1084 1.403 . S
C1084 C1083 1.403 . S
C1084 C1085 1.404 . S
C1084 C1087 1.539 . S
C1085 C1081 1.408 . S
C1085 C1084 1.404 . S
C1085 H1097 0.930 . S
C1086 C1082 1.524 . S
C1086 H1098 0.956 1_554 S
C1086 H1099 0.961 1_554 S
C1086 H1100 0.961 . S
C1087 C1084 1.539 . S
C1087 H1101 0.958 . S
C1087 H1102 0.961 . S
C1087 H1103 0.960 . S
H1088 C1072 0.931 . S
H1089 C1077 0.929 . S
H1090 C1078 0.960 1_554 S
H1091 C1078 0.962 . S
H1092 C1078 0.960 . S
H1093 C1079 0.961 . S
H1094 C1079 0.961 1_554 S
H1095 C1079 0.961 . S
H1096 C1080 0.931 . S
H1097 C1085 0.930 . S
H1098 C1086 0.956 1_556 S
H1099 C1086 0.961 1_556 S
H1100 C1086 0.961 . S
H1101 C1087 0.958 . S
H1102 C1087 0.961 . S
H1103 C1087 0.960 . S
C1104 C1105 1.391 . S
C1104 C1106 1.394 . S
C1104 H1120 0.931 . S
C1105 C1104 1.391 . S
C1105 C1109 1.376 . S
C1106 C1104 1.394 . S
C1106 C1107 1.369 . S
C1106 C1110 1.531 . S
C1107 C1106 1.369 . S
C1107 C1108 1.410 . S
C1107 C1115 1.503 1_556 S
C1108 C1107 1.410 . S
C1108 C1109 1.392 . S
C1108 C1111 1.511 . S
C1109 C1105 1.376 . S
C1109 C1108 1.392 . S
C1109 H1121 0.929 . S
C1110 C1106 1.531 . S
C1110 H1122 0.960 1_556 S
C1110 H1123 0.963 1_556 S
C1110 H1124 0.960 . S
C1111 C1108 1.511 . S
C1111 H1125 0.961 . S
C1111 H1126 0.961 . S
C1111 H1127 0.961 . S
C1112 C1113 1.370 . S
C1112 C1114 1.363 . S
C1112 H1128 0.931 . S
C1113 C1112 1.370 . S
C1113 C1117 1.408 . S
C1114 C1112 1.363 . S
C1114 C1115 1.370 . S
C1114 C1118 1.524 . S
C1115 C1107 1.503 1_554 S
C1115 C1114 1.370 . S
C1115 C1116 1.403 . S
C1116 C1115 1.403 . S
C1116 C1117 1.404 . S
C1116 C1119 1.539 . S
C1117 C1113 1.408 . S
C1117 C1116 1.404 . S
C1117 H1129 0.930 . S
C1118 C1114 1.524 . S
C1118 H1130 0.958 . S
C1118 H1131 0.961 1_554 S
C1118 H1132 0.961 . S
C1119 C1116 1.539 . S
C1119 H1133 0.958 . S
C1119 H1134 0.961 . S
C1119 H1135 0.960 . S
H1120 C1104 0.931 . S
H1121 C1109 0.929 . S
H1122 C1110 0.960 1_554 S
H1123 C1110 0.963 1_554 S
H1124 C1110 0.960 . S
H1125 C1111 0.961 . S
H1126 C1111 0.961 . S
H1127 C1111 0.961 . S
H1128 C1112 0.931 . S
H1129 C1117 0.930 . S
H1130 C1118 0.958 . S
H1131 C1118 0.961 1_556 S
H1132 C1118 0.961 . S
H1133 C1119 0.958 . S
H1134 C1119 0.961 . S
H1135 C1119 0.960 . S
C1136 C1137 1.391 . S
C1136 C1138 1.394 . S
C1136 H1152 0.931 . S
C1137 C1136 1.391 . S
C1137 C1141 1.376 . S
C1138 C1136 1.394 . S
C1138 C1139 1.369 . S
C1138 C1142 1.531 . S
C1139 C1138 1.369 . S
C1139 C1140 1.410 . S
C1139 C1147 1.503 1_556 S
C1140 C1139 1.410 . S
C1140 C1141 1.392 . S
C1140 C1143 1.511 . S
C1141 C1137 1.376 . S
C1141 C1140 1.392 . S
C1141 H1153 0.929 . S
C1142 C1138 1.531 . S
C1142 H1154 0.960 . S
C1142 H1155 0.962 . S
C1142 H1156 0.960 . S
C1143 C1140 1.511 . S
C1143 H1157 0.961 . S
C1143 H1158 0.961 1_556 S
C1143 H1159 0.961 . S
C1144 C1145 1.370 . S
C1144 C1146 1.363 . S
C1144 H1160 0.931 . S
C1145 C1144 1.370 . S
C1145 C1149 1.408 . S
C1146 C1144 1.363 . S
C1146 C1147 1.370 . S
C1146 C1150 1.524 . S
C1147 C1139 1.503 1_554 S
C1147 C1146 1.370 . S
C1147 C1148 1.403 . S
C1148 C1147 1.403 . S
C1148 C1149 1.404 . S
C1148 C1151 1.539 . S
C1149 C1145 1.408 . S
C1149 C1148 1.404 . S
C1149 H1161 0.930 . S
C1150 C1146 1.524 . S
C1150 H1162 0.956 . S
C1150 H1163 0.961 . S
C1150 H1164 0.961 . S
C1151 C1148 1.539 . S
C1151 H1165 0.958 . S
C1151 H1166 0.961 . S
C1151 H1167 0.960 1_554 S
H1152 C1136 0.931 . S
H1153 C1141 0.929 . S
H1154 C1142 0.960 . S
H1155 C1142 0.962 . S
H1156 C1142 0.960 . S
H1157 C1143 0.961 . S
H1158 C1143 0.961 1_554 S
H1159 C1143 0.961 . S
H1160 C1144 0.931 . S
H1161 C1149 0.930 . S
H1162 C1150 0.956 . S
H1163 C1150 0.961 . S
H1164 C1150 0.961 . S
H1165 C1151 0.958 . S
H1166 C1151 0.961 . S
H1167 C1151 0.960 1_556 S
C1168 C1169 1.391 . S
C1168 C1170 1.394 . S
C1168 H1184 0.931 . S
C1169 C1168 1.391 . S
C1169 C1173 1.376 . S
C1170 C1168 1.394 . S
C1170 C1171 1.369 . S
C1170 C1174 1.531 . S
C1171 C1170 1.369 . S
C1171 C1172 1.410 . S
C1171 C1179 1.503 . S
C1172 C1171 1.410 . S
C1172 C1173 1.392 . S
C1172 C1175 1.511 . S
C1173 C1169 1.376 . S
C1173 C1172 1.392 . S
C1173 H1185 0.929 . S
C1174 C1170 1.531 . S
C1174 H1186 0.960 . S
C1174 H1187 0.962 . S
C1174 H1188 0.960 . S
C1175 C1172 1.511 . S
C1175 H1189 0.961 . S
C1175 H1190 0.961 . S
C1175 H1191 0.961 . S
C1176 C1177 1.370 . S
C1176 C1178 1.363 . S
C1176 H1192 0.931 . S
C1177 C1176 1.370 . S
C1177 C1181 1.408 . S
C1178 C1176 1.363 . S
C1178 C1179 1.370 . S
C1178 C1182 1.524 . S
C1179 C1171 1.503 . S
C1179 C1178 1.370 . S
C1179 C1180 1.403 . S
C1180 C1179 1.403 . S
C1180 C1181 1.404 . S
C1180 C1183 1.539 . S
C1181 C1177 1.408 . S
C1181 C1180 1.404 . S
C1181 H1193 0.930 . S
C1182 C1178 1.524 . S
C1182 H1194 0.956 . S
C1182 H1195 0.961 . S
C1182 H1196 0.961 . S
C1183 C1180 1.539 . S
C1183 H1197 0.958 . S
C1183 H1198 0.961 . S
C1183 H1199 0.960 . S
H1184 C1168 0.931 . S
H1185 C1173 0.929 . S
H1186 C1174 0.960 . S
H1187 C1174 0.962 . S
H1188 C1174 0.960 . S
H1189 C1175 0.961 . S
H1190 C1175 0.961 . S
H1191 C1175 0.961 . S
H1192 C1176 0.931 . S
H1193 C1181 0.930 . S
H1194 C1182 0.956 . S
H1195 C1182 0.961 . S
H1196 C1182 0.961 . S
H1197 C1183 0.958 . S
H1198 C1183 0.961 . S
H1199 C1183 0.960 . S
C1200 C1201 1.391 . S
C1200 C1202 1.394 . S
C1200 H1216 0.931 . S
C1201 C1200 1.391 . S
C1201 C1205 1.376 . S
C1202 C1200 1.394 . S
C1202 C1203 1.369 . S
C1202 C1206 1.531 . S
C1203 C1202 1.369 . S
C1203 C1204 1.410 . S
C1203 C1211 1.503 . S
C1204 C1203 1.410 . S
C1204 C1205 1.392 . S
C1204 C1207 1.511 . S
C1205 C1201 1.376 . S
C1205 C1204 1.392 . S
C1205 H1217 0.929 . S
C1206 C1202 1.531 . S
C1206 H1218 0.960 . S
C1206 H1219 0.962 . S
C1206 H1220 0.960 . S
C1207 C1204 1.511 . S
C1207 H1221 0.961 . S
C1207 H1222 0.961 . S
C1207 H1223 0.961 . S
C1208 C1209 1.370 . S
C1208 C1210 1.363 . S
C1208 H1224 0.931 . S
C1209 C1208 1.370 . S
C1209 C1213 1.408 . S
C1210 C1208 1.363 . S
C1210 C1211 1.370 . S
C1210 C1214 1.524 . S
C1211 C1203 1.503 . S
C1211 C1210 1.370 . S
C1211 C1212 1.403 . S
C1212 C1211 1.403 . S
C1212 C1213 1.404 . S
C1212 C1215 1.539 . S
C1213 C1209 1.408 . S
C1213 C1212 1.404 . S
C1213 H1225 0.930 . S
C1214 C1210 1.524 . S
C1214 H1226 0.956 . S
C1214 H1227 0.961 . S
C1214 H1228 0.961 . S
C1215 C1212 1.539 . S
C1215 H1229 0.958 . S
C1215 H1230 0.961 . S
C1215 H1231 0.960 . S
H1216 C1200 0.931 . S
H1217 C1205 0.929 . S
H1218 C1206 0.960 . S
H1219 C1206 0.962 . S
H1220 C1206 0.960 . S
H1221 C1207 0.961 . S
H1222 C1207 0.961 . S
H1223 C1207 0.961 . S
H1224 C1208 0.931 . S
H1225 C1213 0.930 . S
H1226 C1214 0.956 . S
H1227 C1214 0.961 . S
H1228 C1214 0.961 . S
H1229 C1215 0.958 . S
H1230 C1215 0.961 . S
H1231 C1215 0.960 . S
C1232 C1233 1.391 . S
C1232 C1234 1.394 . S
C1232 H1248 0.931 . S
C1233 C1232 1.391 . S
C1233 C1237 1.376 . S
C1234 C1232 1.394 . S
C1234 C1235 1.369 . S
C1234 C1238 1.531 . S
C1235 C1234 1.369 . S
C1235 C1236 1.410 . S
C1235 C1243 1.503 . S
C1236 C1235 1.410 . S
C1236 C1237 1.392 . S
C1236 C1239 1.511 . S
C1237 C1233 1.376 . S
C1237 C1236 1.392 . S
C1237 H1249 0.929 . S
C1238 C1234 1.531 . S
C1238 H1250 0.960 . S
C1238 H1251 0.962 . S
C1238 H1252 0.960 . S
C1239 C1236 1.511 . S
C1239 H1253 0.961 . S
C1239 H1254 0.961 . S
C1239 H1255 0.961 . S
C1240 C1241 1.370 . S
C1240 C1242 1.363 . S
C1240 H1256 0.931 . S
C1241 C1240 1.370 . S
C1241 C1245 1.408 . S
C1242 C1240 1.363 . S
C1242 C1243 1.370 . S
C1242 C1246 1.524 . S
C1243 C1235 1.503 . S
C1243 C1242 1.370 . S
C1243 C1244 1.403 . S
C1244 C1243 1.403 . S
C1244 C1245 1.404 . S
C1244 C1247 1.539 . S
C1245 C1241 1.408 . S
C1245 C1244 1.404 . S
C1245 H1257 0.930 . S
C1246 C1242 1.524 . S
C1246 H1258 0.956 . S
C1246 H1259 0.961 . S
C1246 H1260 0.961 . S
C1247 C1244 1.539 . S
C1247 H1261 0.958 . S
C1247 H1262 0.961 . S
C1247 H1263 0.960 . S
H1248 C1232 0.931 . S
H1249 C1237 0.929 . S
H1250 C1238 0.960 . S
H1251 C1238 0.962 . S
H1252 C1238 0.960 . S
H1253 C1239 0.961 . S
H1254 C1239 0.961 . S
H1255 C1239 0.961 . S
H1256 C1240 0.931 . S
H1257 C1245 0.930 . S
H1258 C1246 0.956 . S
H1259 C1246 0.961 . S
H1260 C1246 0.961 . S
H1261 C1247 0.958 . S
H1262 C1247 0.961 . S
H1263 C1247 0.960 . S
C1264 C1265 1.391 . S
C1264 C1266 1.394 . S
C1264 H1280 0.931 . S
C1265 C1264 1.391 . S
C1265 C1269 1.376 . S
C1266 C1264 1.394 . S
C1266 C1267 1.369 . S
C1266 C1270 1.531 . S
C1267 C1266 1.369 . S
C1267 C1268 1.410 . S
C1267 C1275 1.503 . S
C1268 C1267 1.410 . S
C1268 C1269 1.392 . S
C1268 C1271 1.511 . S
C1269 C1265 1.376 . S
C1269 C1268 1.392 . S
C1269 H1281 0.929 . S
C1270 C1266 1.531 . S
C1270 H1282 0.960 . S
C1270 H1283 0.962 . S
C1270 H1284 0.960 . S
C1271 C1268 1.511 . S
C1271 H1285 0.961 . S
C1271 H1286 0.961 . S
C1271 H1287 0.961 . S
C1272 C1273 1.370 . S
C1272 C1274 1.363 . S
C1272 H1288 0.931 . S
C1273 C1272 1.370 . S
C1273 C1277 1.408 . S
C1274 C1272 1.363 . S
C1274 C1275 1.370 . S
C1274 C1278 1.524 . S
C1275 C1267 1.503 . S
C1275 C1274 1.370 . S
C1275 C1276 1.403 . S
C1276 C1275 1.403 . S
C1276 C1277 1.404 . S
C1276 C1279 1.539 . S
C1277 C1273 1.408 . S
C1277 C1276 1.404 . S
C1277 H1289 0.930 . S
C1278 C1274 1.524 . S
C1278 H1290 0.956 . S
C1278 H1291 0.961 . S
C1278 H1292 0.961 . S
C1279 C1276 1.539 . S
C1279 H1293 0.958 . S
C1279 H1294 0.961 . S
C1279 H1295 0.960 . S
H1280 C1264 0.931 . S
H1281 C1269 0.929 . S
H1282 C1270 0.960 . S
H1283 C1270 0.962 . S
H1284 C1270 0.960 . S
H1285 C1271 0.961 . S
H1286 C1271 0.961 . S
H1287 C1271 0.961 . S
H1288 C1272 0.931 . S
H1289 C1277 0.930 . S
H1290 C1278 0.956 . S
H1291 C1278 0.961 . S
H1292 C1278 0.961 . S
H1293 C1279 0.958 . S
H1294 C1279 0.961 . S
H1295 C1279 0.960 . S
C1296 C1297 1.391 . S
C1296 C1298 1.394 . S
C1296 H1312 0.931 . S
C1297 C1296 1.391 . S
C1297 C1301 1.376 . S
C1298 C1296 1.394 . S
C1298 C1299 1.369 . S
C1298 C1302 1.531 . S
C1299 C1298 1.369 . S
C1299 C1300 1.410 . S
C1299 C1307 1.503 . S
C1300 C1299 1.410 . S
C1300 C1301 1.392 . S
C1300 C1303 1.511 . S
C1301 C1297 1.376 . S
C1301 C1300 1.392 . S
C1301 H1313 0.929 . S
C1302 C1298 1.531 . S
C1302 H1314 0.960 . S
C1302 H1315 0.962 . S
C1302 H1316 0.960 . S
C1303 C1300 1.511 . S
C1303 H1317 0.961 . S
C1303 H1318 0.961 . S
C1303 H1319 0.961 . S
C1304 C1305 1.370 . S
C1304 C1306 1.363 . S
C1304 H1320 0.931 . S
C1305 C1304 1.370 . S
C1305 C1309 1.408 . S
C1306 C1304 1.363 . S
C1306 C1307 1.370 . S
C1306 C1310 1.524 . S
C1307 C1299 1.503 . S
C1307 C1306 1.370 . S
C1307 C1308 1.403 . S
C1308 C1307 1.403 . S
C1308 C1309 1.404 . S
C1308 C1311 1.539 . S
C1309 C1305 1.408 . S
C1309 C1308 1.404 . S
C1309 H1321 0.930 . S
C1310 C1306 1.524 . S
C1310 H1322 0.956 . S
C1310 H1323 0.961 . S
C1310 H1324 0.961 . S
C1311 C1308 1.539 . S
C1311 H1325 0.958 . S
C1311 H1326 0.961 . S
C1311 H1327 0.960 . S
H1312 C1296 0.931 . S
H1313 C1301 0.929 . S
H1314 C1302 0.960 . S
H1315 C1302 0.962 . S
H1316 C1302 0.960 . S
H1317 C1303 0.961 . S
H1318 C1303 0.961 . S
H1319 C1303 0.961 . S
H1320 C1304 0.931 . S
H1321 C1309 0.930 . S
H1322 C1310 0.956 . S
H1323 C1310 0.961 . S
H1324 C1310 0.961 . S
H1325 C1311 0.958 . S
H1326 C1311 0.961 . S
H1327 C1311 0.960 . S
C1328 C1329 1.391 . S
C1328 C1330 1.394 . S
C1328 H1344 0.931 . S
C1329 C1328 1.391 . S
C1329 C1333 1.376 . S
C1330 C1328 1.394 . S
C1330 C1331 1.369 . S
C1330 C1334 1.531 . S
C1331 C1330 1.369 . S
C1331 C1332 1.410 . S
C1331 C1339 1.503 . S
C1332 C1331 1.410 . S
C1332 C1333 1.392 . S
C1332 C1335 1.511 . S
C1333 C1329 1.376 . S
C1333 C1332 1.392 . S
C1333 H1345 0.929 . S
C1334 C1330 1.531 . S
C1334 H1346 0.960 . S
C1334 H1347 0.962 . S
C1334 H1348 0.960 . S
C1335 C1332 1.511 . S
C1335 H1349 0.961 . S
C1335 H1350 0.961 . S
C1335 H1351 0.961 . S
C1336 C1337 1.370 . S
C1336 C1338 1.363 . S
C1336 H1352 0.931 . S
C1337 C1336 1.370 . S
C1337 C1341 1.408 . S
C1338 C1336 1.363 . S
C1338 C1339 1.370 . S
C1338 C1342 1.524 . S
C1339 C1331 1.503 . S
C1339 C1338 1.370 . S
C1339 C1340 1.403 . S
C1340 C1339 1.403 . S
C1340 C1341 1.404 . S
C1340 C1343 1.539 . S
C1341 C1337 1.408 . S
C1341 C1340 1.404 . S
C1341 H1353 0.930 . S
C1342 C1338 1.524 . S
C1342 H1354 0.956 . S
C1342 H1355 0.961 . S
C1342 H1356 0.961 . S
C1343 C1340 1.539 . S
C1343 H1357 0.958 . S
C1343 H1358 0.961 . S
C1343 H1359 0.960 . S
H1344 C1328 0.931 . S
H1345 C1333 0.929 . S
H1346 C1334 0.960 . S
H1347 C1334 0.962 . S
H1348 C1334 0.960 . S
H1349 C1335 0.961 . S
H1350 C1335 0.961 . S
H1351 C1335 0.961 . S
H1352 C1336 0.931 . S
H1353 C1341 0.930 . S
H1354 C1342 0.956 . S
H1355 C1342 0.961 . S
H1356 C1342 0.961 . S
H1357 C1343 0.958 . S
H1358 C1343 0.961 . S
H1359 C1343 0.960 . S
C1360 C1361 1.391 . S
C1360 C1362 1.394 . S
C1360 H1376 0.931 . S
C1361 C1360 1.391 . S
C1361 C1365 1.376 . S
C1362 C1360 1.394 . S
C1362 C1363 1.369 . S
C1362 C1366 1.531 . S
C1363 C1362 1.369 . S
C1363 C1364 1.410 . S
C1363 C1371 1.503 . S
C1364 C1363 1.410 . S
C1364 C1365 1.392 . S
C1364 C1367 1.511 . S
C1365 C1361 1.376 . S
C1365 C1364 1.392 . S
C1365 H1377 0.929 . S
C1366 C1362 1.531 . S
C1366 H1378 0.960 . S
C1366 H1379 0.962 . S
C1366 H1380 0.960 . S
C1367 C1364 1.511 . S
C1367 H1381 0.961 . S
C1367 H1382 0.961 . S
C1367 H1383 0.961 . S
C1368 C1369 1.370 . S
C1368 C1370 1.363 . S
C1368 H1384 0.931 . S
C1369 C1368 1.370 . S
C1369 C1373 1.408 . S
C1370 C1368 1.363 . S
C1370 C1371 1.370 . S
C1370 C1374 1.524 . S
C1371 C1363 1.503 . S
C1371 C1370 1.370 . S
C1371 C1372 1.403 . S
C1372 C1371 1.403 . S
C1372 C1373 1.404 . S
C1372 C1375 1.539 . S
C1373 C1369 1.408 . S
C1373 C1372 1.404 . S
C1373 H1385 0.930 . S
C1374 C1370 1.524 . S
C1374 H1386 0.956 . S
C1374 H1387 0.961 . S
C1374 H1388 0.961 . S
C1375 C1372 1.539 . S
C1375 H1389 0.958 . S
C1375 H1390 0.961 . S
C1375 H1391 0.960 . S
H1376 C1360 0.931 . S
H1377 C1365 0.929 . S
H1378 C1366 0.960 . S
H1379 C1366 0.962 . S
H1380 C1366 0.960 . S
H1381 C1367 0.961 . S
H1382 C1367 0.961 . S
H1383 C1367 0.961 . S
H1384 C1368 0.931 . S
H1385 C1373 0.930 . S
H1386 C1374 0.956 . S
H1387 C1374 0.961 . S
H1388 C1374 0.961 . S
H1389 C1375 0.958 . S
H1390 C1375 0.961 . S
H1391 C1375 0.960 . S
C1392 C1393 1.391 . S
C1392 C1394 1.394 . S
C1392 H1408 0.931 . S
C1393 C1392 1.391 . S
C1393 C1397 1.376 . S
C1394 C1392 1.394 . S
C1394 C1395 1.369 . S
C1394 C1398 1.531 . S
C1395 C1394 1.369 . S
C1395 C1396 1.410 . S
C1395 C1403 1.503 . S
C1396 C1395 1.410 . S
C1396 C1397 1.392 . S
C1396 C1399 1.511 . S
C1397 C1393 1.376 . S
C1397 C1396 1.392 . S
C1397 H1409 0.929 . S
C1398 C1394 1.531 . S
C1398 H1410 0.960 . S
C1398 H1411 0.962 . S
C1398 H1412 0.960 . S
C1399 C1396 1.511 . S
C1399 H1413 0.961 . S
C1399 H1414 0.961 . S
C1399 H1415 0.961 . S
C1400 C1401 1.370 . S
C1400 C1402 1.363 . S
C1400 H1416 0.931 . S
C1401 C1400 1.370 . S
C1401 C1405 1.408 . S
C1402 C1400 1.363 . S
C1402 C1403 1.370 . S
C1402 C1406 1.524 . S
C1403 C1395 1.503 . S
C1403 C1402 1.370 . S
C1403 C1404 1.403 . S
C1404 C1403 1.403 . S
C1404 C1405 1.404 . S
C1404 C1407 1.539 . S
C1405 C1401 1.408 . S
C1405 C1404 1.404 . S
C1405 H1417 0.930 . S
C1406 C1402 1.524 . S
C1406 H1418 0.956 . S
C1406 H1419 0.961 . S
C1406 H1420 0.961 . S
C1407 C1404 1.539 . S
C1407 H1421 0.958 . S
C1407 H1422 0.961 . S
C1407 H1423 0.960 . S
H1408 C1392 0.931 . S
H1409 C1397 0.929 . S
H1410 C1398 0.960 . S
H1411 C1398 0.962 . S
H1412 C1398 0.960 . S
H1413 C1399 0.961 . S
H1414 C1399 0.961 . S
H1415 C1399 0.961 . S
H1416 C1400 0.931 . S
H1417 C1405 0.930 . S
H1418 C1406 0.956 . S
H1419 C1406 0.961 . S
H1420 C1406 0.961 . S
H1421 C1407 0.958 . S
H1422 C1407 0.961 . S
H1423 C1407 0.960 . S
C1424 C1425 1.391 . S
C1424 C1426 1.394 . S
C1424 H1440 0.931 . S
C1425 C1424 1.391 . S
C1425 C1429 1.376 . S
C1426 C1424 1.394 . S
C1426 C1427 1.369 . S
C1426 C1430 1.531 . S
C1427 C1426 1.369 . S
C1427 C1428 1.410 . S
C1427 C1435 1.503 . S
C1428 C1427 1.410 . S
C1428 C1429 1.392 . S
C1428 C1431 1.511 . S
C1429 C1425 1.376 . S
C1429 C1428 1.392 . S
C1429 H1441 0.929 . S
C1430 C1426 1.531 . S
C1430 H1442 0.960 . S
C1430 H1443 0.962 . S
C1430 H1444 0.960 . S
C1431 C1428 1.511 . S
C1431 H1445 0.961 . S
C1431 H1446 0.961 . S
C1431 H1447 0.961 . S
C1432 C1433 1.370 . S
C1432 C1434 1.363 . S
C1432 H1448 0.931 . S
C1433 C1432 1.370 . S
C1433 C1437 1.408 . S
C1434 C1432 1.363 . S
C1434 C1435 1.370 . S
C1434 C1438 1.524 . S
C1435 C1427 1.503 . S
C1435 C1434 1.370 . S
C1435 C1436 1.403 . S
C1436 C1435 1.403 . S
C1436 C1437 1.404 . S
C1436 C1439 1.539 . S
C1437 C1433 1.408 . S
C1437 C1436 1.404 . S
C1437 H1449 0.930 . S
C1438 C1434 1.524 . S
C1438 H1450 0.956 . S
C1438 H1451 0.961 . S
C1438 H1452 0.961 . S
C1439 C1436 1.539 . S
C1439 H1453 0.958 . S
C1439 H1454 0.961 . S
C1439 H1455 0.960 . S
H1440 C1424 0.931 . S
H1441 C1429 0.929 . S
H1442 C1430 0.960 . S
H1443 C1430 0.962 . S
H1444 C1430 0.960 . S
H1445 C1431 0.961 . S
H1446 C1431 0.961 . S
H1447 C1431 0.961 . S
H1448 C1432 0.931 . S
H1449 C1437 0.930 . S
H1450 C1438 0.956 . S
H1451 C1438 0.961 . S
H1452 C1438 0.961 . S
H1453 C1439 0.958 . S
H1454 C1439 0.961 . S
H1455 C1439 0.960 . S
C1456 C1457 1.391 . S
C1456 C1458 1.394 . S
C1456 H1472 0.931 . S
C1457 C1456 1.391 . S
C1457 C1461 1.376 . S
C1458 C1456 1.394 . S
C1458 C1459 1.369 . S
C1458 C1462 1.531 . S
C1459 C1458 1.369 . S
C1459 C1460 1.410 . S
C1459 C1467 1.503 . S
C1460 C1459 1.410 . S
C1460 C1461 1.392 . S
C1460 C1463 1.511 . S
C1461 C1457 1.376 . S
C1461 C1460 1.392 . S
C1461 H1473 0.929 . S
C1462 C1458 1.531 . S
C1462 H1474 0.960 . S
C1462 H1475 0.962 . S
C1462 H1476 0.960 . S
C1463 C1460 1.511 . S
C1463 H1477 0.961 . S
C1463 H1478 0.961 . S
C1463 H1479 0.961 . S
C1464 C1465 1.370 . S
C1464 C1466 1.363 . S
C1464 H1480 0.931 . S
C1465 C1464 1.370 . S
C1465 C1469 1.408 . S
C1466 C1464 1.363 . S
C1466 C1467 1.370 . S
C1466 C1470 1.524 . S
C1467 C1459 1.503 . S
C1467 C1466 1.370 . S
C1467 C1468 1.403 . S
C1468 C1467 1.403 . S
C1468 C1469 1.404 . S
C1468 C1471 1.539 . S
C1469 C1465 1.408 . S
C1469 C1468 1.404 . S
C1469 H1481 0.930 . S
C1470 C1466 1.524 . S
C1470 H1482 0.956 . S
C1470 H1483 0.961 . S
C1470 H1484 0.961 . S
C1471 C1468 1.539 . S
C1471 H1485 0.958 . S
C1471 H1486 0.961 . S
C1471 H1487 0.960 . S
H1472 C1456 0.931 . S
H1473 C1461 0.929 . S
H1474 C1462 0.960 . S
H1475 C1462 0.962 . S
H1476 C1462 0.960 . S
H1477 C1463 0.961 . S
H1478 C1463 0.961 . S
H1479 C1463 0.961 . S
H1480 C1464 0.931 . S
H1481 C1469 0.930 . S
H1482 C1470 0.956 . S
H1483 C1470 0.961 . S
H1484 C1470 0.961 . S
H1485 C1471 0.958 . S
H1486 C1471 0.961 . S
H1487 C1471 0.960 . S
C1488 C1489 1.391 . S
C1488 C1490 1.394 . S
C1488 H1504 0.931 . S
C1489 C1488 1.391 . S
C1489 C1493 1.376 . S
C1490 C1488 1.394 . S
C1490 C1491 1.369 . S
C1490 C1494 1.531 . S
C1491 C1490 1.369 . S
C1491 C1492 1.410 . S
C1491 C1499 1.503 . S
C1492 C1491 1.410 . S
C1492 C1493 1.392 . S
C1492 C1495 1.511 . S
C1493 C1489 1.376 . S
C1493 C1492 1.392 . S
C1493 H1505 0.929 . S
C1494 C1490 1.531 . S
C1494 H1506 0.960 . S
C1494 H1507 0.962 . S
C1494 H1508 0.960 . S
C1495 C1492 1.511 . S
C1495 H1509 0.961 . S
C1495 H1510 0.961 . S
C1495 H1511 0.961 . S
C1496 C1497 1.370 . S
C1496 C1498 1.363 . S
C1496 H1512 0.931 . S
C1497 C1496 1.370 . S
C1497 C1501 1.408 . S
C1498 C1496 1.363 . S
C1498 C1499 1.370 . S
C1498 C1502 1.524 . S
C1499 C1491 1.503 . S
C1499 C1498 1.370 . S
C1499 C1500 1.403 . S
C1500 C1499 1.403 . S
C1500 C1501 1.404 . S
C1500 C1503 1.539 . S
C1501 C1497 1.408 . S
C1501 C1500 1.404 . S
C1501 H1513 0.930 . S
C1502 C1498 1.524 . S
C1502 H1514 0.956 . S
C1502 H1515 0.961 . S
C1502 H1516 0.961 . S
C1503 C1500 1.539 . S
C1503 H1517 0.958 . S
C1503 H1518 0.961 . S
C1503 H1519 0.960 . S
H1504 C1488 0.931 . S
H1505 C1493 0.929 . S
H1506 C1494 0.960 . S
H1507 C1494 0.962 . S
H1508 C1494 0.960 . S
H1509 C1495 0.961 . S
H1510 C1495 0.961 . S
H1511 C1495 0.961 . S
H1512 C1496 0.931 . S
H1513 C1501 0.930 . S
H1514 C1502 0.956 . S
H1515 C1502 0.961 . S
H1516 C1502 0.961 . S
H1517 C1503 0.958 . S
H1518 C1503 0.961 . S
H1519 C1503 0.960 . S
C1520 C1521 1.391 . S
C1520 C1522 1.394 . S
C1520 H1536 0.931 . S
C1521 C1520 1.391 . S
C1521 C1525 1.376 . S
C1522 C1520 1.394 . S
C1522 C1523 1.369 . S
C1522 C1526 1.531 . S
C1523 C1522 1.369 . S
C1523 C1524 1.410 . S
C1523 C1531 1.503 . S
C1524 C1523 1.410 . S
C1524 C1525 1.392 . S
C1524 C1527 1.511 . S
C1525 C1521 1.376 . S
C1525 C1524 1.392 . S
C1525 H1537 0.929 . S
C1526 C1522 1.531 . S
C1526 H1538 0.960 . S
C1526 H1539 0.962 . S
C1526 H1540 0.960 . S
C1527 C1524 1.511 . S
C1527 H1541 0.961 . S
C1527 H1542 0.961 . S
C1527 H1543 0.961 . S
C1528 C1529 1.370 . S
C1528 C1530 1.363 . S
C1528 H1544 0.931 . S
C1529 C1528 1.370 . S
C1529 C1533 1.408 . S
C1530 C1528 1.363 . S
C1530 C1531 1.370 . S
C1530 C1534 1.524 . S
C1531 C1523 1.503 . S
C1531 C1530 1.370 . S
C1531 C1532 1.403 . S
C1532 C1531 1.403 . S
C1532 C1533 1.404 . S
C1532 C1535 1.539 . S
C1533 C1529 1.408 . S
C1533 C1532 1.404 . S
C1533 H1545 0.930 . S
C1534 C1530 1.524 . S
C1534 H1546 0.956 . S
C1534 H1547 0.961 . S
C1534 H1548 0.961 . S
C1535 C1532 1.539 . S
C1535 H1549 0.958 . S
C1535 H1550 0.961 . S
C1535 H1551 0.960 . S
H1536 C1520 0.931 . S
H1537 C1525 0.929 . S
H1538 C1526 0.960 . S
H1539 C1526 0.962 . S
H1540 C1526 0.960 . S
H1541 C1527 0.961 . S
H1542 C1527 0.961 . S
H1543 C1527 0.961 . S
H1544 C1528 0.931 . S
H1545 C1533 0.930 . S
H1546 C1534 0.956 . S
H1547 C1534 0.961 . S
H1548 C1534 0.961 . S
H1549 C1535 0.958 . S
H1550 C1535 0.961 . S
H1551 C1535 0.960 . S
C1552 C1553 1.391 . S
C1552 C1554 1.394 . S
C1552 H1568 0.931 . S
C1553 C1552 1.391 . S
C1553 C1557 1.376 . S
C1554 C1552 1.394 . S
C1554 C1555 1.369 . S
C1554 C1558 1.531 . S
C1555 C1554 1.369 . S
C1555 C1556 1.410 . S
C1555 C1563 1.503 1_545 S
C1556 C1555 1.410 . S
C1556 C1557 1.392 . S
C1556 C1559 1.511 1_545 S
C1557 C1553 1.376 . S
C1557 C1556 1.392 . S
C1557 H1569 0.929 . S
C1558 C1554 1.531 . S
C1558 H1570 0.960 . S
C1558 H1571 0.962 . S
C1558 H1572 0.960 . S
C1559 C1556 1.511 1_565 S
C1559 H1573 0.961 . S
C1559 H1574 0.961 . S
C1559 H1575 0.961 . S
C1560 C1561 1.370 . S
C1560 C1562 1.363 . S
C1560 H1576 0.931 . S
C1561 C1560 1.370 . S
C1561 C1565 1.408 . S
C1562 C1560 1.363 . S
C1562 C1563 1.370 . S
C1562 C1566 1.524 . S
C1563 C1555 1.503 1_565 S
C1563 C1562 1.370 . S
C1563 C1564 1.403 . S
C1564 C1563 1.403 . S
C1564 C1565 1.404 . S
C1564 C1567 1.539 1_565 S
C1565 C1561 1.408 . S
C1565 C1564 1.404 . S
C1565 H1577 0.930 . S
C1566 C1562 1.524 . S
C1566 H1578 0.956 . S
C1566 H1579 0.961 . S
C1566 H1580 0.961 . S
C1567 C1564 1.539 1_545 S
C1567 H1581 0.958 . S
C1567 H1582 0.961 1_545 S
C1567 H1583 0.960 . S
H1568 C1552 0.931 . S
H1569 C1557 0.929 . S
H1570 C1558 0.960 . S
H1571 C1558 0.962 . S
H1572 C1558 0.960 . S
H1573 C1559 0.961 . S
H1574 C1559 0.961 . S
H1575 C1559 0.961 . S
H1576 C1560 0.931 . S
H1577 C1565 0.930 . S
H1578 C1566 0.956 . S
H1579 C1566 0.961 . S
H1580 C1566 0.961 . S
H1581 C1567 0.958 . S
H1582 C1567 0.961 1_565 S
H1583 C1567 0.960 . S
C1584 C1585 1.391 . S
C1584 C1586 1.394 . S
C1584 H1600 0.931 . S
C1585 C1584 1.391 . S
C1585 C1589 1.376 . S
C1586 C1584 1.394 . S
C1586 C1587 1.369 . S
C1586 C1590 1.531 1_655 S
C1587 C1586 1.369 . S
C1587 C1588 1.410 . S
C1587 C1595 1.503 1_655 S
C1588 C1587 1.410 . S
C1588 C1589 1.392 . S
C1588 C1591 1.511 . S
C1589 C1585 1.376 . S
C1589 C1588 1.392 . S
C1589 H1601 0.929 . S
C1590 C1586 1.531 1_455 S
C1590 H1602 0.960 . S
C1590 H1603 0.962 . S
C1590 H1604 0.960 . S
C1591 C1588 1.511 . S
C1591 H1605 0.961 . S
C1591 H1606 0.961 . S
C1591 H1607 0.961 . S
C1592 C1593 1.370 . S
C1592 C1594 1.363 . S
C1592 H1608 0.931 . S
C1593 C1592 1.370 . S
C1593 C1597 1.408 . S
C1594 C1592 1.363 . S
C1594 C1595 1.370 . S
C1594 C1598 1.524 . S
C1595 C1587 1.503 1_455 S
C1595 C1594 1.370 . S
C1595 C1596 1.403 . S
C1596 C1595 1.403 . S
C1596 C1597 1.404 . S
C1596 C1599 1.539 . S
C1597 C1593 1.408 . S
C1597 C1596 1.404 . S
C1597 H1609 0.930 . S
C1598 C1594 1.524 . S
C1598 H1610 0.956 . S
C1598 H1611 0.961 1_455 S
C1598 H1612 0.961 . S
C1599 C1596 1.539 . S
C1599 H1613 0.958 . S
C1599 H1614 0.961 . S
C1599 H1615 0.960 1_455 S
H1600 C1584 0.931 . S
H1601 C1589 0.929 . S
H1602 C1590 0.960 . S
H1603 C1590 0.962 . S
H1604 C1590 0.960 . S
H1605 C1591 0.961 . S
H1606 C1591 0.961 . S
H1607 C1591 0.961 . S
H1608 C1592 0.931 . S
H1609 C1597 0.930 . S
H1610 C1598 0.956 . S
H1611 C1598 0.961 1_655 S
H1612 C1598 0.961 . S
H1613 C1599 0.958 . S
H1614 C1599 0.961 . S
H1615 C1599 0.960 1_655 S
C1616 C1617 1.391 . S
C1616 C1618 1.394 . S
C1616 H1632 0.931 . S
C1617 C1616 1.391 . S
C1617 C1621 1.376 . S
C1618 C1616 1.394 . S
C1618 C1619 1.369 . S
C1618 C1622 1.531 1_545 S
C1619 C1618 1.369 . S
C1619 C1620 1.410 . S
C1619 C1627 1.503 1_545 S
C1620 C1619 1.410 . S
C1620 C1621 1.392 . S
C1620 C1623 1.511 . S
C1621 C1617 1.376 . S
C1621 C1620 1.392 . S
C1621 H1633 0.929 . S
C1622 C1618 1.531 1_565 S
C1622 H1634 0.960 . S
C1622 H1635 0.962 . S
C1622 H1636 0.960 . S
C1623 C1620 1.511 . S
C1623 H1637 0.961 . S
C1623 H1638 0.961 . S
C1623 H1639 0.961 . S
C1624 C1625 1.370 . S
C1624 C1626 1.363 . S
C1624 H1640 0.931 . S
C1625 C1624 1.370 . S
C1625 C1629 1.408 . S
C1626 C1624 1.363 . S
C1626 C1627 1.370 . S
C1626 C1630 1.524 1_565 S
C1627 C1619 1.503 1_565 S
C1627 C1626 1.370 . S
C1627 C1628 1.403 . S
C1628 C1627 1.403 . S
C1628 C1629 1.404 . S
C1628 C1631 1.539 . S
C1629 C1625 1.408 . S
C1629 C1628 1.404 . S
C1629 H1641 0.930 . S
C1630 C1626 1.524 1_545 S
C1630 H1642 0.956 . S
C1630 H1643 0.961 . S
C1630 H1644 0.961 . S
C1631 C1628 1.539 . S
C1631 H1645 0.958 . S
C1631 H1646 0.961 . S
C1631 H1647 0.960 . S
H1632 C1616 0.931 . S
H1633 C1621 0.929 . S
H1634 C1622 0.960 . S
H1635 C1622 0.962 . S
H1636 C1622 0.960 . S
H1637 C1623 0.961 . S
H1638 C1623 0.961 . S
H1639 C1623 0.961 . S
H1640 C1624 0.931 . S
H1641 C1629 0.930 . S
H1642 C1630 0.956 . S
H1643 C1630 0.961 . S
H1644 C1630 0.961 . S
H1645 C1631 0.958 . S
H1646 C1631 0.961 . S
H1647 C1631 0.960 . S
C1648 C1649 1.391 . S
C1648 C1650 1.394 . S
C1648 H1664 0.931 . S
C1649 C1648 1.391 . S
C1649 C1653 1.376 . S
C1650 C1648 1.394 . S
C1650 C1651 1.369 . S
C1650 C1654 1.531 1_655 S
C1651 C1650 1.369 . S
C1651 C1652 1.410 . S
C1651 C1659 1.503 1_655 S
C1652 C1651 1.410 . S
C1652 C1653 1.392 . S
C1652 C1655 1.511 . S
C1653 C1649 1.376 . S
C1653 C1652 1.392 . S
C1653 H1665 0.929 . S
C1654 C1650 1.531 1_455 S
C1654 H1666 0.960 . S
C1654 H1667 0.962 . S
C1654 H1668 0.960 . S
C1655 C1652 1.511 . S
C1655 H1669 0.961 . S
C1655 H1670 0.961 . S
C1655 H1671 0.961 . S
C1656 C1657 1.370 . S
C1656 C1658 1.363 . S
C1656 H1672 0.931 . S
C1657 C1656 1.370 . S
C1657 C1661 1.408 . S
C1658 C1656 1.363 . S
C1658 C1659 1.370 . S
C1658 C1662 1.524 . S
C1659 C1651 1.503 1_455 S
C1659 C1658 1.370 . S
C1659 C1660 1.403 . S
C1660 C1659 1.403 . S
C1660 C1661 1.404 . S
C1660 C1663 1.528 1_455 S
C1661 C1657 1.408 . S
C1661 C1660 1.404 . S
C1661 H1673 0.930 . S
C1662 C1658 1.524 . S
C1662 H1674 0.956 . S
C1662 H1675 0.961 . S
C1662 H1676 0.961 . S
C1663 C1660 1.528 1_655 S
C1663 H1677 0.954 1_655 S
C1663 H1678 0.960 1_655 S
C1663 H1679 0.976 . S
H1664 C1648 0.931 . S
H1665 C1653 0.929 . S
H1666 C1654 0.960 . S
H1667 C1654 0.962 . S
H1668 C1654 0.960 . S
H1669 C1655 0.961 . S
H1670 C1655 0.961 . S
H1671 C1655 0.961 . S
H1672 C1656 0.931 . S
H1673 C1661 0.930 . S
H1674 C1662 0.956 . S
H1675 C1662 0.961 . S
H1676 C1662 0.961 . S
H1677 C1663 0.954 1_455 S
H1678 C1663 0.960 1_455 S
H1679 C1663 0.976 . S
C1680 C1681 1.391 . S
C1680 C1682 1.394 . S
C1680 H1696 0.931 . S
C1681 C1680 1.391 . S
C1681 C1685 1.376 . S
C1682 C1680 1.394 . S
C1682 C1683 1.369 . S
C1682 C1686 1.531 1_565 S
C1683 C1682 1.369 . S
C1683 C1684 1.410 . S
C1683 C1691 1.503 1_565 S
C1684 C1683 1.410 . S
C1684 C1685 1.392 . S
C1684 C1687 1.511 . S
C1685 C1681 1.376 . S
C1685 C1684 1.392 . S
C1685 H1697 0.929 . S
C1686 C1682 1.531 1_545 S
C1686 H1698 0.960 . S
C1686 H1699 0.962 . S
C1686 H1700 0.960 . S
C1687 C1684 1.511 . S
C1687 H1701 0.961 . S
C1687 H1702 0.961 . S
C1687 H1703 0.961 . S
C1688 C1689 1.370 . S
C1688 C1690 1.363 . S
C1688 H1704 0.931 . S
C1689 C1688 1.370 . S
C1689 C1693 1.408 . S
C1690 C1688 1.363 . S
C1690 C1691 1.370 . S
C1690 C1694 1.524 1_545 S
C1691 C1683 1.503 1_545 S
C1691 C1690 1.370 . S
C1691 C1692 1.403 . S
C1692 C1691 1.403 . S
C1692 C1693 1.404 . S
C1692 C1695 1.539 . S
C1693 C1689 1.408 . S
C1693 C1692 1.404 . S
C1693 H1705 0.930 . S
C1694 C1690 1.524 1_565 S
C1694 H1706 0.956 . S
C1694 H1707 0.961 . S
C1694 H1708 0.960 1_565 S
C1695 C1692 1.539 . S
C1695 H1709 0.958 . S
C1695 H1710 0.961 . S
C1695 H1711 0.960 . S
H1696 C1680 0.931 . S
H1697 C1685 0.929 . S
H1698 C1686 0.960 . S
H1699 C1686 0.962 . S
H1700 C1686 0.960 . S
H1701 C1687 0.961 . S
H1702 C1687 0.961 . S
H1703 C1687 0.961 . S
H1704 C1688 0.931 . S
H1705 C1693 0.930 . S
H1706 C1694 0.956 . S
H1707 C1694 0.961 . S
H1708 C1694 0.960 1_545 S
H1709 C1695 0.958 . S
H1710 C1695 0.961 . S
H1711 C1695 0.960 . S
C1712 C1713 1.391 . S
C1712 C1714 1.394 . S
C1712 H1728 0.931 . S
C1713 C1712 1.391 . S
C1713 C1717 1.376 . S
C1714 C1712 1.394 . S
C1714 C1715 1.369 . S
C1714 C1718 1.531 . S
C1715 C1714 1.369 . S
C1715 C1716 1.410 . S
C1715 C1723 1.503 1_455 S
C1716 C1715 1.410 . S
C1716 C1717 1.392 . S
C1716 C1719 1.511 1_455 S
C1717 C1713 1.376 . S
C1717 C1716 1.392 . S
C1717 H1729 0.929 . S
C1718 C1714 1.531 . S
C1718 H1730 0.960 . S
C1718 H1731 0.962 . S
C1718 H1732 0.960 . S
C1719 C1716 1.511 1_655 S
C1719 H1733 0.961 . S
C1719 H1734 0.961 . S
C1719 H1735 0.961 . S
C1720 C1721 1.370 . S
C1720 C1722 1.363 . S
C1720 H1736 0.931 . S
C1721 C1720 1.370 . S
C1721 C1725 1.408 . S
C1722 C1720 1.363 . S
C1722 C1723 1.370 . S
C1722 C1726 1.524 1_655 S
C1723 C1715 1.503 1_655 S
C1723 C1722 1.370 . S
C1723 C1724 1.403 . S
C1724 C1723 1.403 . S
C1724 C1725 1.404 . S
C1724 C1727 1.539 . S
C1725 C1721 1.408 . S
C1725 C1724 1.404 . S
C1725 H1737 0.930 . S
C1726 C1722 1.524 1_455 S
C1726 H1738 0.956 . S
C1726 H1739 0.961 . S
C1726 H1740 0.961 1_455 S
C1727 C1724 1.539 . S
C1727 H1741 0.958 . S
C1727 H1742 0.961 . S
C1727 H1743 0.960 . S
H1728 C1712 0.931 . S
H1729 C1717 0.929 . S
H1730 C1718 0.960 . S
H1731 C1718 0.962 . S
H1732 C1718 0.960 . S
H1733 C1719 0.961 . S
H1734 C1719 0.961 . S
H1735 C1719 0.961 . S
H1736 C1720 0.931 . S
H1737 C1725 0.930 . S
H1738 C1726 0.956 . S
H1739 C1726 0.961 . S
H1740 C1726 0.961 1_655 S
H1741 C1727 0.958 . S
H1742 C1727 0.961 . S
H1743 C1727 0.960 . S
C1744 C1745 1.391 . S
C1744 C1746 1.394 . S
C1744 H1760 0.931 . S
C1745 C1744 1.391 . S
C1745 C1749 1.376 . S
C1746 C1744 1.394 . S
C1746 C1747 1.369 . S
C1746 C1750 1.531 1_565 S
C1747 C1746 1.369 . S
C1747 C1748 1.410 . S
C1747 C1755 1.503 1_565 S
C1748 C1747 1.410 . S
C1748 C1749 1.392 . S
C1748 C1751 1.511 . S
C1749 C1745 1.376 . S
C1749 C1748 1.392 . S
C1749 H1761 0.929 . S
C1750 C1746 1.531 1_545 S
C1750 H1762 0.960 . S
C1750 H1763 0.962 . S
C1750 H1764 0.972 . S
C1751 C1748 1.511 . S
C1751 H1765 0.961 . S
C1751 H1766 0.961 . S
C1751 H1767 0.961 . S
C1752 C1753 1.370 . S
C1752 C1754 1.363 . S
C1752 H1768 0.931 . S
C1753 C1752 1.370 . S
C1753 C1757 1.408 . S
C1754 C1752 1.363 . S
C1754 C1755 1.370 . S
C1754 C1758 1.524 . S
C1755 C1747 1.503 1_545 S
C1755 C1754 1.370 . S
C1755 C1756 1.403 . S
C1756 C1755 1.403 . S
C1756 C1757 1.404 . S
C1756 C1759 1.539 1_545 S
C1757 C1753 1.408 . S
C1757 C1756 1.404 . S
C1757 H1769 0.930 . S
C1758 C1754 1.524 . S
C1758 H1770 0.956 . S
C1758 H1771 0.961 . S
C1758 H1772 0.961 . S
C1759 C1756 1.539 1_565 S
C1759 H1773 0.958 . S
C1759 H1774 0.961 . S
C1759 H1775 0.960 . S
H1760 C1744 0.931 . S
H1761 C1749 0.929 . S
H1762 C1750 0.960 . S
H1763 C1750 0.962 . S
H1764 C1750 0.972 . S
H1765 C1751 0.961 . S
H1766 C1751 0.961 . S
H1767 C1751 0.961 . S
H1768 C1752 0.931 . S
H1769 C1757 0.930 . S
H1770 C1758 0.956 . S
H1771 C1758 0.961 . S
H1772 C1758 0.961 . S
H1773 C1759 0.958 . S
H1774 C1759 0.961 . S
H1775 C1759 0.960 . S
C1776 C1777 1.391 . S
C1776 C1778 1.394 . S
C1776 H1792 0.931 . S
C1777 C1776 1.391 . S
C1777 C1781 1.376 . S
C1778 C1776 1.394 . S
C1778 C1779 1.369 . S
C1778 C1782 1.531 . S
C1779 C1778 1.369 . S
C1779 C1780 1.410 . S
C1779 C1787 1.503 1_655 S
C1780 C1779 1.410 . S
C1780 C1781 1.392 . S
C1780 C1783 1.511 . S
C1781 C1777 1.376 . S
C1781 C1780 1.392 . S
C1781 H1793 0.929 . S
C1782 C1778 1.531 . S
C1782 H1794 0.960 1_655 S
C1782 H1795 0.962 . S
C1782 H1796 0.960 . S
C1783 C1780 1.511 . S
C1783 H1797 0.961 . S
C1783 H1798 0.961 1_655 S
C1783 H1799 0.961 1_655 S
C1784 C1785 1.370 . S
C1784 C1786 1.363 . S
C1784 H1800 0.931 . S
C1785 C1784 1.370 . S
C1785 C1789 1.408 . S
C1786 C1784 1.363 . S
C1786 C1787 1.370 . S
C1786 C1790 1.524 1_455 S
C1787 C1779 1.503 1_455 S
C1787 C1786 1.370 . S
C1787 C1788 1.403 . S
C1788 C1787 1.403 . S
C1788 C1789 1.404 . S
C1788 C1791 1.539 . S
C1789 C1785 1.408 . S
C1789 C1788 1.404 . S
C1789 H1801 0.930 . S
C1790 C1786 1.524 1_655 S
C1790 H1802 0.956 . S
C1790 H1803 0.961 . S
C1790 H1804 0.961 . S
C1791 C1788 1.539 . S
C1791 H1805 0.958 . S
C1791 H1806 0.961 . S
C1791 H1807 0.960 . S
H1792 C1776 0.931 . S
H1793 C1781 0.929 . S
H1794 C1782 0.960 1_455 S
H1795 C1782 0.962 . S
H1796 C1782 0.960 . S
H1797 C1783 0.961 . S
H1798 C1783 0.961 1_455 S
H1799 C1783 0.961 1_455 S
H1800 C1784 0.931 . S
H1801 C1789 0.930 . S
H1802 C1790 0.956 . S
H1803 C1790 0.961 . S
H1804 C1790 0.961 . S
H1805 C1791 0.958 . S
H1806 C1791 0.961 . S
H1807 C1791 0.960 . S
C529 N80 0.577 . S
C537 N14 0.567 . S
C561 N47 0.583 . S
C569 N104 0.560 . S
C593 N212 0.595 . S
C601 N146 0.560 . S
C625 N236 0.578 . S
C633 N179 0.553 . S
C657 N278 0.544 . S
C665 N335 0.622 . S
C689 N311 0.574 . S
C697 N377 0.576 . S
C721 N401 0.516 . S
C729 N476 0.570 . S
C753 N509 0.595 . S
C761 N443 0.560 . S
C785 N5 1.421 . S
C793 N170 1.391 . S
C817 N203 1.445 . S
C825 N38 1.402 . S
C849 N245 1.403 . S
C857 N71 1.386 . S
C881 N137 1.364 . S
C889 N113 1.432 . S
C913 N434 1.434 . S
C921 N269 1.416 . S
C945 N467 1.411 . S
C953 N302 1.399 . S
C977 N500 1.409 . S
C985 N344 1.424 . S
C1009 N410 1.437 . S
C1017 N368 1.400 . S
C1041 C17 1.436 . S
C1049 C347 1.412 . S
C1073 C380 1.474 . S
C1081 C50 1.465 . S
C1105 C281 1.457 . S
C1113 C83 1.461 . S
C1137 C314 1.436 . S
C1145 C116 1.429 . S
C1169 C149 1.470 . S
C1177 C479 1.464 . S
C1201 C182 1.454 . S
C1209 C512 1.462 . S
C1233 C215 1.453 . S
C1241 C413 1.422 . S
C1265 C248 1.438 . S
C1273 C446 1.450 . S
C1297 C140 1.432 . S
C1305 C8 1.423 . S
C1329 C41 1.549 . S
C1337 C173 1.542 . S
C1361 C206 1.420 . S
C1369 C74 1.425 . S
C1393 C259 1.365 . S
C1401 C127 1.353 . S
C1425 C292 0.779 . S
C1433 C404 0.755 . S
C1457 C457 0.748 . S
C1465 C325 0.704 . S
C1489 C338 0.707 . S
C1497 C490 0.728 . S
C1521 C523 0.632 . S
C1529 C391 0.680 . S
C1553 C371 1.440 . S
C1561 C437 1.427 . S
C1585 C272 1.508 . S
C1593 C470 1.525 . S
C1617 C503 1.402 . S
C1625 C305 1.410 . S
C1649 C424 1.312 . S
C1657 C358 1.335 . S
C1681 C107 0.801 . S
C1689 C193 0.774 . S
C1713 C28 0.598 . S
C1721 C226 0.645 . S
C1745 C239 0.792 . S
C1753 C61 0.765 . S
C1777 C94 0.710 . S
C1785 C160 0.713 . S
