# Generated by pormake.
# Topology bcg, (8)-cn, num edge types: 1
# Building blocks:
#     Node 0, Type 0, BuildingBlock: EBIMEJ_clean_sbu_0, # of connection points: 8
#     Node 1, Type 0, BuildingBlock: EBIMEJ_clean_sbu_0, # of connection points: 8
#     Node 2, Type 0, BuildingBlock: EBIMEJ_clean_sbu_0, # of connection points: 8
#     Node 3, Type 0, BuildingBlock: EBIMEJ_clean_sbu_0, # of connection points: 8
#     Edge 4, Type (0, 0), BuildingBlock: UVAHIK_clean_linker_0, # of connection points: 2
#     Edge 5, Type (0, 0), BuildingBlock: UVAHIK_clean_linker_0, # of connection points: 2
#     Edge 6, Type (0, 0), BuildingBlock: UVAHIK_clean_linker_0, # of connection points: 2
#     Edge 7, Type (0, 0), BuildingBlock: UVAHIK_clean_linker_0, # of connection points: 2
#     Edge 8, Type (0, 0), BuildingBlock: UVAHIK_clean_linker_0, # of connection points: 2
#     Edge 9, Type (0, 0), BuildingBlock: UVAHIK_clean_linker_0, # of connection points: 2
#     Edge 10, Type (0, 0), BuildingBlock: UVAHIK_clean_linker_0, # of connection points: 2
#     Edge 11, Type (0, 0), BuildingBlock: UVAHIK_clean_linker_0, # of connection points: 2
#     Edge 12, Type (0, 0), BuildingBlock: UVAHIK_clean_linker_0, # of connection points: 2
#     Edge 13, Type (0, 0), BuildingBlock: UVAHIK_clean_linker_0, # of connection points: 2
#     Edge 14, Type (0, 0), BuildingBlock: UVAHIK_clean_linker_0, # of connection points: 2
#     Edge 15, Type (0, 0), BuildingBlock: UVAHIK_clean_linker_0, # of connection points: 2
#     Edge 16, Type (0, 0), BuildingBlock: UVAHIK_clean_linker_0, # of connection points: 2
#     Edge 17, Type (0, 0), BuildingBlock: UVAHIK_clean_linker_0, # of connection points: 2
#     Edge 18, Type (0, 0), BuildingBlock: UVAHIK_clean_linker_0, # of connection points: 2
#     Edge 19, Type (0, 0), BuildingBlock: UVAHIK_clean_linker_0, # of connection points: 2
# Relax obj value: 0.042
# Max RMSD: 0.091
# Mean RMSD: 0.091
data_MOF--net-bcg--node1-EBIMEJ_clean_sbu_0--edge1-UVAHIK_clean_linker_0
_symmetry_space_group_name_H-M    P1
_symmetry_Int_Tables_number       1
_symmetry_cell_setting            triclinic
loop_
_symmetry_equiv_pos_as_xyz
'x, y, z'
_cell_length_a     20.894251
_cell_length_b     35.773923
_cell_length_c     42.494357
_cell_angle_alpha  81.929036
_cell_angle_beta   90.033134
_cell_angle_gamma 90.043013
loop_
_atom_site_label
_atom_site_type_symbol
_atom_site_fract_x
_atom_site_fract_y
_atom_site_fract_z
_atom_type_partial_charge
Co0 Co 0.18133 0.24805 0.9506 0.0
Co1 Co 0.30834 0.24999 0.99519 0.0
Co2 Co 0.17932 0.25723 0.02424 0.0
H3 H 0.19573 0.25921 0.98752 0.0
O4 O 0.22688 0.27461 0.98227 0.0
H5 H 0.29175 0.24817 0.03191 0.0
O6 O 0.26074 0.23268 0.03715 0.0
Co7 Co 0.30555 0.25965 0.06879 0.0
O8 O 0.39331 0.23901 0.05963 0.0
O9 O 0.38889 0.22509 1.00986 0.0
O10 O 0.22626 0.26432 0.09586 0.0
O11 O 0.14296 0.24678 0.06807 0.0
O12 O 0.10795 0.23181 0.92276 0.0
O13 O 0.18348 0.26379 0.9019 0.0
O14 O 0.30292 0.3132 0.0475 0.0
O15 O 0.34433 0.30098 1.002 0.0
C16 C 0.06912 0.28174 0.98358 0.0
C17 C 0.31972 0.25352 0.92532 0.0
C18 C 0.355 0.25999 0.12232 0.0
C19 C 0.15448 0.1834 0.99749 0.0
C20 C 0.41799 0.22546 0.03617 0.0
C21 C 0.16739 0.2554 0.09368 0.0
C22 C 0.1318 0.24751 0.89714 0.0
C23 C 0.33217 0.32399 0.02171 0.0
O24 O 0.09341 0.26819 0.96005 0.0
O25 O 0.09869 0.28219 1.00974 0.0
O26 O 0.34501 0.26031 0.95134 0.0
O27 O 0.26039 0.24577 0.92297 0.0
O28 O 0.37875 0.27587 0.09673 0.0
O29 O 0.30344 0.24362 0.11749 0.0
O30 O 0.18289 0.1943 0.97147 0.0
O31 O 0.14332 0.20624 0.01745 0.0
Co32 Co 0.68146 0.75238 0.95074 0.0
Co33 Co 0.80744 0.74788 0.9965 0.0
Co34 Co 0.67862 0.75932 0.02473 0.0
H35 H 0.6961 0.76175 0.98815 0.0
O36 O 0.72903 0.77592 0.98347 0.0
H37 H 0.78996 0.74527 0.03311 0.0
O38 O 0.75696 0.73116 0.03774 0.0
Co39 Co 0.8047 0.7543 0.07065 0.0
O40 O 0.89371 0.73672 0.05996 0.0
O41 O 0.88544 0.71997 0.0113 0.0
O42 O 0.72709 0.74217 0.09926 0.0
O43 O 0.63984 0.74896 0.06813 0.0
O44 O 0.68101 0.73066 0.90816 0.0
O45 O 0.61459 0.77126 0.91645 0.0
O46 O 0.80755 0.80858 0.05094 0.0
O47 O 0.84745 0.79725 1.00483 0.0
C48 C 0.56936 0.785 0.98445 0.0
C49 C 0.81986 0.76265 0.92569 0.0
C50 C 0.85193 0.75793 0.12406 0.0
C51 C 0.64957 0.68736 0.99634 0.0
C52 C 0.91684 0.72205 0.0367 0.0
C53 C 0.66645 0.7424 0.09545 0.0
C54 C 0.63421 0.75032 0.89712 0.0
C55 C 0.83711 0.81963 0.02526 0.0
O56 O 0.59253 0.7701 0.96133 0.0
O57 O 0.60067 0.78725 1.00985 0.0
O58 O 0.84634 0.7584 0.95311 0.0
O59 O 0.75932 0.76153 0.92192 0.0
O60 O 0.79807 0.77102 0.11521 0.0
O61 O 0.87872 0.74276 0.10265 0.0
O62 O 0.6798 0.69826 0.97084 0.0
O63 O 0.6384 0.70995 0.0165 0.0
Co64 Co 0.18051 0.75667 0.57012 0.0
Co65 Co 0.30821 0.75686 0.52567 0.0
Co66 Co 0.17965 0.75003 0.49577 0.0
H67 H 0.19548 0.74705 0.53272 0.0
O68 O 0.22675 0.73169 0.53774 0.0
H69 H 0.29242 0.75946 0.48887 0.0
O70 O 0.26136 0.77489 0.48362 0.0
Co71 Co 0.30759 0.74878 0.45193 0.0
O72 O 0.39591 0.76742 0.46246 0.0
O73 O 0.38901 0.7822 0.51185 0.0
O74 O 0.22959 0.74946 0.42329 0.0
O75 O 0.14373 0.76145 0.45179 0.0
O76 O 0.10766 0.77291 0.5982 0.0
O77 O 0.18245 0.74003 0.61872 0.0
O78 O 0.30496 0.69484 0.47231 0.0
O79 O 0.34483 0.70625 0.51837 0.0
C80 C 0.07038 0.72204 0.53625 0.0
C81 C 0.31867 0.75247 0.59549 0.0
C82 C 0.35772 0.74794 0.39868 0.0
C83 C 0.15162 0.82259 0.52442 0.0
C84 C 0.4197 0.78103 0.48611 0.0
C85 C 0.17007 0.75659 0.42551 0.0
C86 C 0.1312 0.75658 0.62369 0.0
C87 C 0.33345 0.68364 0.49825 0.0
O88 O 0.09481 0.73372 0.56063 0.0
O89 O 0.09885 0.72471 0.50953 0.0
O90 O 0.34405 0.74566 0.56955 0.0
O91 O 0.25934 0.76014 0.59777 0.0
O92 O 0.37486 0.72731 0.42364 0.0
O93 O 0.31236 0.76924 0.404 0.0
O94 O 0.1778 0.81091 0.55088 0.0
O95 O 0.14366 0.8008 0.50327 0.0
Co96 Co 0.68139 0.2548 0.56931 0.0
Co97 Co 0.80829 0.25885 0.52417 0.0
Co98 Co 0.67977 0.24871 0.49508 0.0
H99 H 0.6965 0.24577 0.53183 0.0
O100 O 0.72903 0.23131 0.53655 0.0
H101 H 0.79152 0.26231 0.48736 0.0
O102 O 0.75876 0.27663 0.48281 0.0
Co103 Co 0.80683 0.2543 0.44957 0.0
O104 O 0.89484 0.27314 0.46037 0.0
O105 O 0.8871 0.28645 0.51016 0.0
O106 O 0.72923 0.26392 0.4206 0.0
O107 O 0.64184 0.25983 0.45153 0.0
O108 O 0.6829 0.27509 0.61255 0.0
O109 O 0.61203 0.2377 0.60285 0.0
O110 O 0.81237 0.19976 0.4679 0.0
O111 O 0.84731 0.20933 0.51551 0.0
C112 C 0.56971 0.22272 0.53465 0.0
C113 C 0.81927 0.24327 0.59498 0.0
C114 C 0.8541 0.25275 0.3959 0.0
C115 C 0.65046 0.32032 0.52399 0.0
C116 C 0.91796 0.28642 0.48432 0.0
C117 C 0.66863 0.2647 0.4242 0.0
C118 C 0.63381 0.2571 0.62287 0.0
C119 C 0.83963 0.18792 0.49406 0.0
O120 O 0.59272 0.23706 0.55814 0.0
O121 O 0.60124 0.22097 0.50925 0.0
O122 O 0.84623 0.24735 0.5677 0.0
O123 O 0.75871 0.245 0.59846 0.0
O124 O 0.81217 0.23011 0.40826 0.0
O125 O 0.86876 0.27641 0.41393 0.0
O126 O 0.67986 0.30911 0.54969 0.0
O127 O 0.63988 0.29802 0.50353 0.0
C128 C 0.51578 0.20305 0.0112 0.0
C129 C 0.48677 0.21662 0.03719 0.0
C130 C 0.58151 0.20677 1.00657 0.0
C131 C 0.73342 0.23482 0.04093 0.0
H132 H 0.76052 0.28781 0.95575 0.0
C133 C 0.97176 0.30414 1.00895 0.0
C134 C 0.00034 0.29058 0.98284 0.0
C135 C 0.90605 0.3006 0.01374 0.0
C136 C 0.75358 0.27303 0.97955 0.0
H137 H 0.50475 0.23918 0.08127 0.0
H138 H 0.61927 0.24591 0.07296 0.0
H139 H 0.65584 0.26078 0.97053 0.0
H140 H 0.98164 0.26815 0.93877 0.0
H141 H 0.86718 0.26172 0.94736 0.0
H142 H 0.83118 0.24704 0.04994 0.0
C143 C 0.5913 0.23282 0.05601 0.0
C144 C 0.69407 0.25718 0.98792 0.0
C145 C 0.52556 0.22899 0.06073 0.0
C146 C 0.96117 0.27833 0.95939 0.0
C147 C 0.89546 0.27469 0.96427 0.0
C148 C 0.79295 0.25066 0.03255 0.0
C149 C 0.61897 0.22398 0.02789 0.0
C150 C 0.68356 0.23786 0.01865 0.0
C151 C 0.86817 0.28357 0.99247 0.0
C152 C 0.80348 0.26992 1.0018 0.0
H153 H 0.48728 0.19253 0.99302 0.0
H154 H 0.60231 0.1987 0.98516 0.0
H155 H 0.72647 0.22003 0.06473 0.0
H156 H 0.00058 0.31456 0.02707 0.0
H157 H 0.88558 0.30869 0.03521 0.0
C158 C 0.01465 0.7031 1.0094 0.0
C159 C 0.98606 0.71428 0.03652 0.0
C160 C 0.08025 0.70757 1.00449 0.0
C161 C 0.23272 0.73267 0.04032 0.0
H162 H 0.26069 0.79031 0.95698 0.0
C163 C 0.47131 0.80404 0.0115 0.0
C164 C 0.50016 0.79284 0.98445 0.0
C165 C 0.40568 0.79954 0.01627 0.0
C166 C 0.25353 0.77421 0.98027 0.0
H167 H 0.00502 0.73358 0.08191 0.0
H168 H 0.11909 0.74159 0.07315 0.0
H169 H 0.15573 0.76288 0.9705 0.0
H170 H 0.4817 0.7736 0.93899 0.0
H171 H 0.36751 0.76551 0.94752 0.0
H172 H 0.3305 0.74402 0.0501 0.0
C173 C 0.09089 0.72978 0.05554 0.0
C174 C 0.19382 0.75815 0.98791 0.0
C175 C 0.02533 0.72524 0.06051 0.0
C176 C 0.46114 0.78191 0.96036 0.0
C177 C 0.39553 0.77733 0.96518 0.0
C178 C 0.29242 0.74874 0.03268 0.0
C179 C 0.11811 0.72312 0.02666 0.0
C180 C 0.18293 0.73721 0.01799 0.0
C181 C 0.36806 0.78395 0.99402 0.0
C182 C 0.30329 0.76971 1.00262 0.0
H183 H 0.9859 0.69381 0.99073 0.0
H184 H 0.10063 0.70121 0.98241 0.0
H185 H 0.22557 0.71657 0.06361 0.0
H186 H 0.49987 0.81331 0.03024 0.0
H187 H 0.38508 0.80588 0.0383 0.0
C188 C 0.518 0.79954 0.51325 0.0
C189 C 0.48891 0.78872 0.48609 0.0
C190 C 0.58352 0.79464 0.51804 0.0
C191 C 0.73499 0.76892 0.48204 0.0
H192 H 0.76191 0.71011 0.565 0.0
C193 C 0.97373 0.6994 0.51039 0.0
C194 C 0.00219 0.71168 0.53712 0.0
C195 C 0.90782 0.70224 0.50603 0.0
C196 C 0.75497 0.72647 0.5418 0.0
H197 H 0.50682 0.76986 0.44045 0.0
H198 H 0.62092 0.76112 0.449 0.0
H199 H 0.65728 0.73805 0.55149 0.0
H200 H 0.98338 0.73066 0.58261 0.0
H201 H 0.86857 0.73591 0.57477 0.0
H202 H 0.83267 0.75748 0.47236 0.0
C203 C 0.59314 0.77292 0.46674 0.0
C204 C 0.69551 0.74284 0.53418 0.0
C205 C 0.52763 0.77789 0.46189 0.0
C206 C 0.96296 0.72155 0.5615 0.0
C207 C 0.89703 0.72451 0.55706 0.0
C208 C 0.79441 0.75256 0.48965 0.0
C209 C 0.62073 0.77905 0.49569 0.0
C210 C 0.68512 0.76431 0.50428 0.0
C211 C 0.8697 0.71728 0.52834 0.0
C212 C 0.80489 0.7312 0.51959 0.0
H213 H 0.48963 0.80878 0.53205 0.0
H214 H 0.60429 0.80062 0.54016 0.0
H215 H 0.72817 0.78542 0.45888 0.0
H216 H 0.00266 0.69077 0.49153 0.0
H217 H 0.88735 0.69543 0.4841 0.0
C218 C 0.01541 0.30539 0.51194 0.0
C219 C 0.98685 0.29514 0.48443 0.0
C220 C 0.08113 0.30134 0.51656 0.0
C221 C 0.23378 0.27841 0.47986 0.0
H222 H 0.26099 0.21667 0.5615 0.0
C223 C 0.47162 0.20537 0.50665 0.0
C224 C 0.50046 0.21504 0.5343 0.0
C225 C 0.40607 0.21031 0.50188 0.0
C226 C 0.25406 0.23393 0.5387 0.0
H227 H 0.00574 0.27834 0.43811 0.0
H228 H 0.12015 0.271 0.44639 0.0
H229 H 0.15629 0.24476 0.54876 0.0
H230 H 0.48199 0.23188 0.58065 0.0
H231 H 0.36793 0.24069 0.57215 0.0
H232 H 0.33156 0.26752 0.46979 0.0
C233 C 0.09184 0.28172 0.46451 0.0
C234 C 0.19449 0.25036 0.53151 0.0
C235 C 0.02612 0.28585 0.45982 0.0
C236 C 0.46145 0.22478 0.55883 0.0
C237 C 0.39592 0.22977 0.55401 0.0
C238 C 0.29336 0.26197 0.48705 0.0
C239 C 0.11909 0.28715 0.49373 0.0
C240 C 0.18387 0.27277 0.50205 0.0
C241 C 0.36854 0.22478 0.52473 0.0
C242 C 0.30394 0.23952 0.51649 0.0
H243 H 0.98661 0.31346 0.53108 0.0
H244 H 0.10154 0.30677 0.53893 0.0
H245 H 0.2268 0.29562 0.45703 0.0
H246 H 0.50016 0.19704 0.48752 0.0
H247 H 0.38552 0.20522 0.47946 0.0
C248 C 0.63237 0.62394 0.97849 0.0
C249 C 0.62084 0.64879 1.0008 0.0
C250 C 0.6015 0.58891 0.98093 0.0
C251 C 0.45805 0.53806 0.01604 0.0
H252 H 0.54668 0.44966 0.99501 0.0
C253 C 0.3473 0.38807 0.03859 0.0
C254 C 0.35939 0.36294 0.01658 0.0
C255 C 0.3776 0.4233 0.03585 0.0
C256 C 0.52086 0.47415 1.00054 0.0
H257 H 0.56837 0.65548 0.04368 0.0
H258 H 0.51505 0.59415 0.04813 0.0
H259 H 0.60418 0.50922 0.99328 0.0
H260 H 0.412 0.35602 0.9738 0.0
H261 H 0.46422 0.4177 0.96877 0.0
H262 H 0.37473 0.50298 0.02332 0.0
C263 C 0.54746 0.60208 0.02844 0.0
C264 C 0.55396 0.50838 0.99962 0.0
C265 C 0.57852 0.63717 0.02605 0.0
C266 C 0.40142 0.37454 0.99121 0.0
C267 C 0.43188 0.40983 0.98849 0.0
C268 C 0.42494 0.50383 0.01695 0.0
C269 C 0.55805 0.57761 1.00572 0.0
C270 C 0.52306 0.54085 1.00736 0.0
C271 C 0.42099 0.43453 0.01101 0.0
C272 C 0.45585 0.47135 1.00922 0.0
H273 H 0.66444 0.63182 0.95864 0.0
H274 H 0.61043 0.57112 0.96278 0.0
H275 H 0.43227 0.56255 0.02161 0.0
H276 H 0.31544 0.38023 0.05853 0.0
H277 H 0.36842 0.44125 0.05385 0.0
C278 C 0.57968 0.37057 0.49428 0.0
C279 C 0.62195 0.35892 0.51956 0.0
C280 C 0.54874 0.40566 0.49189 0.0
C281 C 0.502 0.47974 0.54084 0.0
H282 H 0.47309 0.54045 0.45916 0.0
C283 C 0.40295 0.63308 0.52847 0.0
C284 C 0.36084 0.64476 0.50313 0.0
C285 C 0.43353 0.59786 0.53102 0.0
C286 C 0.47999 0.52367 0.48217 0.0
H287 H 0.66606 0.37594 0.56159 0.0
H288 H 0.61323 0.43703 0.55708 0.0
H289 H 0.53003 0.48067 0.46175 0.0
H290 H 0.31647 0.6276 0.46121 0.0
H291 H 0.36865 0.56631 0.46599 0.0
H292 H 0.452 0.52277 0.56127 0.0
C293 C 0.60283 0.41877 0.53944 0.0
C294 C 0.51279 0.48931 0.48365 0.0
C295 C 0.63364 0.38374 0.54187 0.0
C296 C 0.34876 0.61978 0.48098 0.0
C297 C 0.37921 0.58464 0.48356 0.0
C298 C 0.46921 0.51412 0.53937 0.0
C299 C 0.55928 0.43008 0.51467 0.0
C300 C 0.52434 0.46683 0.51301 0.0
C301 C 0.42277 0.57336 0.50832 0.0
C302 C 0.45765 0.53658 0.51001 0.0
H303 H 0.56917 0.3522 0.47674 0.0
H304 H 0.51514 0.41317 0.47263 0.0
H305 H 0.50892 0.46297 0.56386 0.0
H306 H 0.41377 0.65156 0.54589 0.0
H307 H 0.46711 0.59035 0.55028 0.0
C308 C 0.13895 0.1193 0.98067 0.0
C309 C 0.12717 0.14446 1.0027 0.0
C310 C 0.10851 0.08411 0.9835 0.0
C311 C 0.01915 0.01375 0.03977 0.0
H312 H 0.95731 0.97986 0.96247 0.0
C313 C 0.85469 0.88306 0.04308 0.0
C314 C 0.86588 0.8582 0.02075 0.0
C315 C 0.8856 0.9181 0.04053 0.0
C316 C 0.97484 0.98861 0.98429 0.0
H317 H 0.07481 0.15151 0.04552 0.0
H318 H 0.02151 0.09018 0.05038 0.0
H319 H 0.0142 0.03973 0.95954 0.0
H320 H 0.91794 0.85145 0.97776 0.0
H321 H 0.97215 0.91243 0.97343 0.0
H322 H 0.9798 0.96262 0.06452 0.0
C323 C 0.05484 0.09761 0.031 0.0
C324 C 0.00761 0.02304 0.98261 0.0
C325 C 0.08539 0.13289 0.02819 0.0
C326 C 0.90782 0.86983 0.99534 0.0
C327 C 0.93885 0.90494 0.99281 0.0
C328 C 0.9864 0.97931 0.04145 0.0
C329 C 0.06526 0.07295 1.00841 0.0
C330 C 0.03033 0.03612 0.01033 0.0
C331 C 0.92877 0.9294 0.01559 0.0
C332 C 0.9637 0.96622 0.01373 0.0
H333 H 0.17099 0.12701 0.96079 0.0
H334 H 0.11883 0.06567 0.96601 0.0
H335 H 0.03665 0.02254 0.06158 0.0
H336 H 0.82256 0.87528 0.06292 0.0
H337 H 0.87555 0.93637 0.05818 0.0
C338 C 0.8979 0.13397 0.52689 0.0
C339 C 0.86832 0.14935 0.49822 0.0
C340 C 0.92823 0.09864 0.52973 0.0
C341 C 0.00086 0.03127 0.48086 0.0
H342 H 0.98616 0.95976 0.55794 0.0
C343 C 0.09442 0.87655 0.49095 0.0
C344 C 0.12391 0.86143 0.51972 0.0
C345 C 0.06429 0.91198 0.48783 0.0
C346 C 0.99143 0.97955 0.53635 0.0
H347 H 0.84718 0.13897 0.45013 0.0
H348 H 0.89938 0.07774 0.45519 0.0
H349 H 0.93127 0.02039 0.55409 0.0
H350 H 0.14532 0.87243 0.56762 0.0
H351 H 0.09349 0.93374 0.56206 0.0
H352 H 0.061 0.99039 0.46313 0.0
C353 C 0.8998 0.09308 0.47543 0.0
C354 C 0.95989 0.01439 0.53416 0.0
C355 C 0.86924 0.12818 0.47265 0.0
C356 C 0.12333 0.88299 0.54504 0.0
C357 C 0.09296 0.91815 0.54198 0.0
C358 C 0.03239 0.99641 0.48305 0.0
C359 C 0.93018 0.07789 0.5039 0.0
C360 C 0.96413 0.04076 0.50638 0.0
C361 C 0.06244 0.93303 0.51347 0.0
C362 C 0.02824 0.97008 0.51085 0.0
H363 H 0.89835 0.14942 0.54706 0.0
H364 H 0.95149 0.08799 0.55196 0.0
H365 H 0.00613 0.05107 0.45928 0.0
H366 H 0.09371 0.86079 0.47097 0.0
H367 H 0.04097 0.92243 0.46556 0.0
C368 C 0.56398 0.25832 0.39556 0.0
C369 C 0.62864 0.26948 0.3949 0.0
C370 C 0.52908 0.25922 0.3672 0.0
C371 C 0.52815 0.30142 0.28229 0.0
H372 H 0.43114 0.21256 0.26899 0.0
C373 C 0.44317 0.27812 0.15724 0.0
C374 C 0.38315 0.26132 0.15418 0.0
C375 C 0.46935 0.28002 0.18732 0.0
C376 C 0.45716 0.23787 0.27239 0.0
H377 H 0.7064 0.29152 0.36379 0.0
H378 H 0.64564 0.29349 0.31483 0.0
H379 H 0.48117 0.21569 0.32051 0.0
H380 H 0.30334 0.23339 0.18025 0.0
H381 H 0.34851 0.23712 0.23277 0.0
H382 H 0.50442 0.32371 0.23435 0.0
C383 C 0.62177 0.28402 0.33715 0.0
C384 C 0.48586 0.23964 0.302 0.0
C385 C 0.65674 0.28271 0.36532 0.0
C386 C 0.3499 0.24634 0.18185 0.0
C387 C 0.37598 0.24835 0.21198 0.0
C388 C 0.49922 0.29976 0.2528 0.0
C389 C 0.55778 0.27183 0.33763 0.0
C390 C 0.52251 0.27121 0.30716 0.0
C391 C 0.43604 0.26534 0.21516 0.0
C392 C 0.46409 0.26774 0.24723 0.0
H393 H 0.54091 0.24777 0.41787 0.0
H394 H 0.47971 0.24989 0.3684 0.0
H395 H 0.5552 0.32641 0.2856 0.0
H396 H 0.47007 0.28976 0.13636 0.0
H397 H 0.51618 0.29267 0.18869 0.0
C398 C 0.65155 0.7183 0.15313 0.0
C399 C 0.62647 0.73746 0.12466 0.0
C400 C 0.61865 0.71776 0.1818 0.0
C401 C 0.46159 0.73933 0.21757 0.0
H402 H 0.56804 0.74545 0.29147 0.0
C403 C 0.36044 0.76832 0.33967 0.0
C404 C 0.38622 0.74666 0.3669 0.0
C405 C 0.38727 0.76687 0.30962 0.0
C406 C 0.53754 0.74338 0.27117 0.0
H407 H 0.54601 0.7703 0.10391 0.0
H408 H 0.48913 0.77033 0.15419 0.0
H409 H 0.61782 0.74311 0.24017 0.0
H410 H 0.4599 0.70626 0.38396 0.0
H411 H 0.50682 0.70376 0.33166 0.0
H412 H 0.38122 0.74053 0.24887 0.0
C413 C 0.53375 0.75496 0.15429 0.0
C414 C 0.56612 0.74186 0.24163 0.0
C415 C 0.56637 0.75498 0.12539 0.0
C416 C 0.43919 0.72344 0.36345 0.0
C417 C 0.46623 0.72215 0.33349 0.0
C418 C 0.43293 0.74121 0.24718 0.0
C419 C 0.56017 0.73701 0.18305 0.0
C420 C 0.52871 0.73937 0.2144 0.0
C421 C 0.44075 0.7439 0.30618 0.0
C422 C 0.47063 0.7429 0.27441 0.0
H423 H 0.69747 0.7042 0.15338 0.0
H424 H 0.63978 0.7026 0.20312 0.0
H425 H 0.43105 0.73714 0.19733 0.0
H426 H 0.31948 0.78642 0.34157 0.0
H427 H 0.36682 0.78423 0.28916 0.0
C428 C 0.33506 0.76907 0.65015 0.0
C429 C 0.35861 0.75218 0.6245 0.0
C430 C 0.37119 0.76913 0.67775 0.0
C431 C 0.49604 0.71865 0.72635 0.0
H432 H 0.5062 0.8111 0.76408 0.0
C433 C 0.63536 0.72839 0.84355 0.0
C434 C 0.60705 0.74999 0.86498 0.0
C435 C 0.61001 0.72869 0.81297 0.0
C436 C 0.50331 0.78491 0.75411 0.0
H437 H 0.43891 0.72182 0.60802 0.0
H438 H 0.50201 0.72139 0.6569 0.0
H439 H 0.45406 0.81155 0.71276 0.0
H440 H 0.52971 0.78849 0.87139 0.0
H441 H 0.48481 0.78857 0.81846 0.0
H442 H 0.5436 0.69171 0.76818 0.0
C443 C 0.45541 0.73476 0.65527 0.0
C444 C 0.4737 0.78525 0.72458 0.0
C445 C 0.41944 0.73516 0.62728 0.0
C446 C 0.55276 0.7717 0.85533 0.0
C447 C 0.52733 0.77194 0.82486 0.0
C448 C 0.52533 0.71822 0.7561 0.0
C449 C 0.43169 0.75198 0.68071 0.0
C450 C 0.4688 0.75203 0.71059 0.0
C451 C 0.55574 0.7506 0.80317 0.0
C452 C 0.5284 0.75126 0.77061 0.0
H453 H 0.28853 0.78254 0.64896 0.0
H454 H 0.35123 0.78221 0.69705 0.0
H455 H 0.49252 0.69255 0.71626 0.0
H456 H 0.67744 0.71148 0.85032 0.0
H457 H 0.63356 0.71221 0.79687 0.0
C458 C 0.42141 0.26975 0.8938 0.0
C459 C 0.35956 0.25397 0.89622 0.0
C460 C 0.45718 0.27022 0.86572 0.0
C461 C 0.47017 0.2218 0.79465 0.0
H462 H 0.55001 0.31387 0.7539 0.0
C463 C 0.54972 0.23779 0.66386 0.0
C464 C 0.60656 0.25743 0.65501 0.0
C465 C 0.52431 0.23741 0.69435 0.0
C466 C 0.52885 0.28774 0.76516 0.0
H467 H 0.28748 0.22595 0.87091 0.0
H468 H 0.34949 0.22661 0.82271 0.0
H469 H 0.49929 0.3127 0.80592 0.0
H470 H 0.68145 0.29212 0.67116 0.0
H471 H 0.63752 0.29113 0.72463 0.0
H472 H 0.49927 0.1967 0.75418 0.0
C473 C 0.37058 0.23855 0.84237 0.0
C474 C 0.4998 0.28711 0.79499 0.0
C475 C 0.33479 0.23845 0.87007 0.0
C476 C 0.63737 0.27686 0.67728 0.0
C477 C 0.61202 0.27641 0.70788 0.0
C478 C 0.49942 0.22235 0.76502 0.0
C479 C 0.43217 0.25438 0.83978 0.0
C480 C 0.46902 0.25432 0.80977 0.0
C481 C 0.55526 0.25651 0.71688 0.0
C482 C 0.52808 0.25551 0.74952 0.0
H483 H 0.44191 0.282 0.91342 0.0
H484 H 0.50463 0.28254 0.86443 0.0
H485 H 0.44788 0.19589 0.80567 0.0
H486 H 0.5247 0.22271 0.64717 0.0
H487 H 0.4799 0.22239 0.70013 0.0
C488 C 0.15953 0.74832 0.36827 0.0
C489 C 0.13141 0.75878 0.39584 0.0
C490 C 0.12522 0.75042 0.33996 0.0
C491 C 0.96223 0.75498 0.30572 0.0
H492 H 0.05561 0.78705 0.22771 0.0
C493 C 0.84481 0.77385 0.17968 0.0
C494 C 0.88003 0.75954 0.15583 0.0
C495 C 0.87197 0.77542 0.20966 0.0
C496 C 0.0289 0.77778 0.24924 0.0
H497 H 0.04406 0.77918 0.41507 0.0
H498 H 0.9839 0.78336 0.36506 0.0
H499 H 0.10822 0.78782 0.27864 0.0
H500 H 0.97083 0.73525 0.14476 0.0
H501 H 0.01819 0.73804 0.19685 0.0
H502 H 0.88274 0.74503 0.27591 0.0
C503 C 0.03277 0.77322 0.36569 0.0
C504 C 0.05908 0.77819 0.27851 0.0
C505 C 0.06731 0.77099 0.39432 0.0
C506 C 0.94265 0.74663 0.16259 0.0
C507 C 0.96987 0.74841 0.1924 0.0
C508 C 0.93178 0.75478 0.27629 0.0
C509 C 0.06166 0.76328 0.33807 0.0
C510 C 0.0267 0.76604 0.30716 0.0
C511 C 0.93506 0.76301 0.21627 0.0
C512 C 0.96525 0.7655 0.2477 0.0
H513 H 0.20842 0.73824 0.36841 0.0
H514 H 0.14865 0.74153 0.31952 0.0
H515 H 0.93593 0.74524 0.32727 0.0
H516 H 0.7963 0.78387 0.17517 0.0
H517 H 0.84402 0.78699 0.22745 0.0
C518 C 0.85906 0.22674 0.34408 0.0
C519 C 0.88119 0.2525 0.36373 0.0
C520 C 0.88427 0.22694 0.3135 0.0
C521 C 0.97639 0.28765 0.25079 0.0
H522 H 0.00904 0.19345 0.21826 0.0
C523 C 0.14676 0.27649 0.14638 0.0
C524 C 0.12701 0.25553 0.12244 0.0
C525 C 0.11081 0.27637 0.17406 0.0
C526 C -0.00065 0.21999 0.22686 0.0
H527 H 0.94744 0.29842 0.3669 0.0
H528 H 0.99224 0.29842 0.31398 0.0
H529 H 0.959 0.19245 0.27038 0.0
H530 H 0.05371 0.21788 0.10898 0.0
H531 H 0.99116 0.21706 0.15807 0.0
H532 H 0.01871 0.31503 0.20771 0.0
C533 C 0.95453 0.27848 0.32177 0.0
C534 C 0.97062 0.21947 0.25673 0.0
C535 C 0.92921 0.27833 0.35226 0.0
C536 C 0.07006 0.23444 0.1269 0.0
C537 C 0.0345 0.23381 0.15502 0.0
C538 C 0.00557 0.28812 0.22113 0.0
C539 C 0.93229 0.25289 0.30187 0.0
C540 C 0.95956 0.2533 0.26931 0.0
C541 C 0.05452 0.25489 0.17884 0.0
C542 C 0.01816 0.25429 0.20901 0.0
H543 H 0.82191 0.20656 0.35226 0.0
H544 H 0.86543 0.20709 0.29882 0.0
H545 H 0.96724 0.31433 0.25923 0.0
H546 H 0.19024 0.29316 0.14377 0.0
H547 H 0.12786 0.29259 0.19208 0.0
C548 C 0.13756 0.26039 0.83761 0.0
C549 C 0.1037 0.24611 0.86528 0.0
C550 C 0.11154 0.25834 0.80749 0.0
C551 C 0.98648 0.20803 0.76685 0.0
H552 H 0.00839 0.29105 0.69853 0.0
C553 C 0.83019 0.22602 0.65396 0.0
C554 C 0.85898 0.23833 0.62437 0.0
C555 C 0.86498 0.2246 0.68218 0.0
C556 C 0.0026 0.26739 0.71722 0.0
H557 H 0.01576 0.21892 0.88312 0.0
H558 H 0.9697 0.21601 0.83077 0.0
H559 H 0.05823 0.29413 0.7501 0.0
H560 H 0.94772 0.25832 0.60144 0.0
H561 H 0.00866 0.256 0.65103 0.0
H562 H 0.92956 0.18175 0.73417 0.0
C563 C 0.01697 0.22809 0.83214 0.0
C564 C 0.03119 0.26913 0.74685 0.0
C565 C 0.04313 0.22999 0.86222 0.0
C566 C 0.92412 0.24848 0.62376 0.0
C567 C 0.95888 0.24746 0.65218 0.0
C568 C 0.95764 0.20642 0.73734 0.0
C569 C 0.0509 0.24206 0.8043 0.0
C570 C 0.02289 0.23965 0.77222 0.0
C571 C 0.92951 0.23575 0.68175 0.0
C572 C 0.96468 0.23625 0.71225 0.0
H573 H 0.18455 0.2728 0.83921 0.0
H574 H 0.1395 0.26898 0.7867 0.0
H575 H 0.98019 0.18436 0.78547 0.0
H576 H 0.78014 0.21802 0.65546 0.0
H577 H 0.84061 0.21586 0.7045 0.0
C578 C 0.04381 0.77494 0.65889 0.0
C579 C 0.10347 0.75787 0.65564 0.0
C580 C 0.01815 0.77691 0.68904 0.0
C581 C 0.03097 0.73476 0.77411 0.0
H582 H 0.93452 0.82375 0.78741 0.0
C583 C 0.92464 0.75587 0.8973 0.0
C584 C 0.86008 0.76717 0.89649 0.0
C585 C 0.95966 0.75657 0.869 0.0
C586 C 0.96114 0.79863 0.78408 0.0
H587 H 0.18319 0.72952 0.68146 0.0
H588 H 0.13895 0.73338 0.73413 0.0
H589 H 0.98476 0.82081 0.73611 0.0
H590 H 0.78259 0.7892 0.86519 0.0
H591 H 0.84351 0.79085 0.81636 0.0
H592 H 0.00705 0.71271 0.82228 0.0
C593 C 0.11134 0.74476 0.71342 0.0
C594 C 0.98975 0.79684 0.75456 0.0
C595 C 0.13688 0.74267 0.68321 0.0
C596 C 0.83218 0.7803 0.86683 0.0
C597 C 0.86724 0.78142 0.83874 0.0
C598 C 0.0026 0.73667 0.80376 0.0
C599 C 0.05166 0.76205 0.71678 0.0
C600 C 0.02421 0.76463 0.74894 0.0
C601 C 0.93114 0.76913 0.83936 0.0
C602 C 0.96646 0.7684 0.80893 0.0
H603 H 0.0168 0.78676 0.63808 0.0
H604 H 0.97158 0.78979 0.69056 0.0
H605 H 0.05653 0.70933 0.77068 0.0
H606 H 0.94753 0.74537 0.91968 0.0
H607 H 0.00895 0.74713 0.87029 0.0
loop_
_geom_bond_atom_site_label_1
_geom_bond_atom_site_label_2
_geom_bond_distance
_geom_bond_site_symmetry_2
_ccdc_geom_bond_type
Co0 H3 2.400 . S
Co0 O4 2.009 . S
Co0 O12 2.115 . S
Co0 O13 2.315 . S
Co0 O24 2.053 . S
Co0 O27 2.094 . S
Co0 O30 2.122 . S
Co1 O4 2.126 . S
Co1 H5 2.388 1_556 S
Co1 O6 2.053 1_556 S
Co1 O9 2.047 . S
Co1 O15 2.113 . S
Co1 O26 2.063 . S
Co2 H3 2.388 1_554 S
Co2 O4 2.053 1_554 S
Co2 O6 2.126 . S
Co2 O11 2.063 . S
Co2 O25 2.047 . S
Co2 O31 2.113 . S
H3 Co0 2.400 . S
H3 Co2 2.388 1_556 S
H3 O4 0.760 . S
O4 Co0 2.009 . S
O4 Co1 2.126 . S
O4 Co2 2.053 1_556 S
O4 H3 0.760 . S
H5 Co1 2.388 1_554 S
H5 O6 0.760 . S
H5 Co7 2.400 . S
O6 Co1 2.053 1_554 S
O6 Co2 2.126 . S
O6 H5 0.760 . S
O6 Co7 2.009 . S
Co7 H5 2.400 . S
Co7 O6 2.009 . S
Co7 O8 2.053 . S
Co7 O10 2.094 . S
Co7 O14 2.122 . S
Co7 O28 2.115 . S
Co7 O29 2.315 . S
O8 Co7 2.053 . S
O8 C20 1.259 . S
O9 Co1 2.047 . S
O9 C20 1.257 1_556 S
O10 Co7 2.094 . S
O10 C21 1.253 . S
O11 Co2 2.063 . S
O11 C21 1.268 . S
O12 Co0 2.115 . S
O12 C22 1.281 . S
O13 Co0 2.315 . S
O13 C22 1.252 . S
O14 Co7 2.122 . S
O14 C23 1.272 . S
O15 Co1 2.113 . S
O15 C23 1.245 1_556 S
C16 O24 1.259 . S
C16 O25 1.257 1_556 S
C17 O26 1.268 . S
C17 O27 1.253 . S
C18 O28 1.281 . S
C18 O29 1.252 . S
C19 O30 1.272 . S
C19 O31 1.245 1_556 S
C20 O8 1.259 . S
C20 O9 1.257 1_554 S
C21 O10 1.253 . S
C21 O11 1.268 . S
C22 O12 1.281 . S
C22 O13 1.252 . S
C23 O14 1.272 . S
C23 O15 1.245 1_554 S
O24 Co0 2.053 . S
O24 C16 1.259 . S
O25 Co2 2.047 . S
O25 C16 1.257 1_554 S
O26 Co1 2.063 . S
O26 C17 1.268 . S
O27 Co0 2.094 . S
O27 C17 1.253 . S
O28 Co7 2.115 . S
O28 C18 1.281 . S
O29 Co7 2.315 . S
O29 C18 1.252 . S
O30 Co0 2.122 . S
O30 C19 1.272 . S
O31 Co2 2.113 . S
O31 C19 1.245 1_554 S
Co32 H35 2.400 . S
Co32 O36 2.009 . S
Co32 O44 2.115 . S
Co32 O45 2.315 . S
Co32 O56 2.053 . S
Co32 O59 2.094 . S
Co32 O62 2.122 . S
Co33 O36 2.126 . S
Co33 H37 2.388 1_556 S
Co33 O38 2.053 1_556 S
Co33 O41 2.047 . S
Co33 O47 2.113 . S
Co33 O58 2.063 . S
Co34 H35 2.388 1_554 S
Co34 O36 2.053 1_554 S
Co34 O38 2.126 . S
Co34 O43 2.063 . S
Co34 O57 2.047 . S
Co34 O63 2.113 . S
H35 Co32 2.400 . S
H35 Co34 2.388 1_556 S
H35 O36 0.760 . S
O36 Co32 2.009 . S
O36 Co33 2.126 . S
O36 Co34 2.053 1_556 S
O36 H35 0.760 . S
H37 Co33 2.388 1_554 S
H37 O38 0.760 . S
H37 Co39 2.400 . S
O38 Co33 2.053 1_554 S
O38 Co34 2.126 . S
O38 H37 0.760 . S
O38 Co39 2.009 . S
Co39 H37 2.400 . S
Co39 O38 2.009 . S
Co39 O40 2.053 . S
Co39 O42 2.094 . S
Co39 O46 2.122 . S
Co39 O60 2.115 . S
Co39 O61 2.315 . S
O40 Co39 2.053 . S
O40 C52 1.259 . S
O41 Co33 2.047 . S
O41 C52 1.257 1_556 S
O42 Co39 2.094 . S
O42 C53 1.253 . S
O43 Co34 2.063 . S
O43 C53 1.268 . S
O44 Co32 2.115 . S
O44 C54 1.281 . S
O45 Co32 2.315 . S
O45 C54 1.252 . S
O46 Co39 2.122 . S
O46 C55 1.272 . S
O47 Co33 2.113 . S
O47 C55 1.245 1_556 S
C48 O56 1.259 . S
C48 O57 1.257 1_556 S
C49 O58 1.268 . S
C49 O59 1.253 . S
C50 O60 1.281 . S
C50 O61 1.252 . S
C51 O62 1.272 . S
C51 O63 1.245 1_556 S
C52 O40 1.259 . S
C52 O41 1.257 1_554 S
C53 O42 1.253 . S
C53 O43 1.268 . S
C54 O44 1.281 . S
C54 O45 1.252 . S
C55 O46 1.272 . S
C55 O47 1.245 1_554 S
O56 Co32 2.053 . S
O56 C48 1.259 . S
O57 Co34 2.047 . S
O57 C48 1.257 1_554 S
O58 Co33 2.063 . S
O58 C49 1.268 . S
O59 Co32 2.094 . S
O59 C49 1.253 . S
O60 Co39 2.115 . S
O60 C50 1.281 . S
O61 Co39 2.315 . S
O61 C50 1.252 . S
O62 Co32 2.122 . S
O62 C51 1.272 . S
O63 Co34 2.113 . S
O63 C51 1.245 1_554 S
Co64 H67 2.400 . S
Co64 O68 2.009 . S
Co64 O76 2.115 . S
Co64 O77 2.315 . S
Co64 O88 2.053 . S
Co64 O91 2.094 . S
Co64 O94 2.122 . S
Co65 O68 2.126 . S
Co65 H69 2.388 . S
Co65 O70 2.053 . S
Co65 O73 2.047 . S
Co65 O79 2.113 . S
Co65 O90 2.063 . S
Co66 H67 2.388 . S
Co66 O68 2.053 . S
Co66 O70 2.126 . S
Co66 O75 2.063 . S
Co66 O89 2.047 . S
Co66 O95 2.113 . S
H67 Co64 2.400 . S
H67 Co66 2.388 . S
H67 O68 0.760 . S
O68 Co64 2.009 . S
O68 Co65 2.126 . S
O68 Co66 2.053 . S
O68 H67 0.760 . S
H69 Co65 2.388 . S
H69 O70 0.760 . S
H69 Co71 2.400 . S
O70 Co65 2.053 . S
O70 Co66 2.126 . S
O70 H69 0.760 . S
O70 Co71 2.009 . S
Co71 H69 2.400 . S
Co71 O70 2.009 . S
Co71 O72 2.053 . S
Co71 O74 2.094 . S
Co71 O78 2.122 . S
Co71 O92 2.115 . S
Co71 O93 2.315 . S
O72 Co71 2.053 . S
O72 C84 1.259 . S
O73 Co65 2.047 . S
O73 C84 1.257 . S
O74 Co71 2.094 . S
O74 C85 1.253 . S
O75 Co66 2.063 . S
O75 C85 1.268 . S
O76 Co64 2.115 . S
O76 C86 1.281 . S
O77 Co64 2.315 . S
O77 C86 1.252 . S
O78 Co71 2.122 . S
O78 C87 1.272 . S
O79 Co65 2.113 . S
O79 C87 1.245 . S
C80 O88 1.259 . S
C80 O89 1.257 . S
C81 O90 1.268 . S
C81 O91 1.253 . S
C82 O92 1.281 . S
C82 O93 1.252 . S
C83 O94 1.272 . S
C83 O95 1.245 . S
C84 O72 1.259 . S
C84 O73 1.257 . S
C85 O74 1.253 . S
C85 O75 1.268 . S
C86 O76 1.281 . S
C86 O77 1.252 . S
C87 O78 1.272 . S
C87 O79 1.245 . S
O88 Co64 2.053 . S
O88 C80 1.259 . S
O89 Co66 2.047 . S
O89 C80 1.257 . S
O90 Co65 2.063 . S
O90 C81 1.268 . S
O91 Co64 2.094 . S
O91 C81 1.253 . S
O92 Co71 2.115 . S
O92 C82 1.281 . S
O93 Co71 2.315 . S
O93 C82 1.252 . S
O94 Co64 2.122 . S
O94 C83 1.272 . S
O95 Co66 2.113 . S
O95 C83 1.245 . S
Co96 H99 2.400 . S
Co96 O100 2.009 . S
Co96 O108 2.115 . S
Co96 O109 2.315 . S
Co96 O120 2.053 . S
Co96 O123 2.094 . S
Co96 O126 2.122 . S
Co97 O100 2.126 . S
Co97 H101 2.388 . S
Co97 O102 2.053 . S
Co97 O105 2.047 . S
Co97 O111 2.113 . S
Co97 O122 2.063 . S
Co98 H99 2.388 . S
Co98 O100 2.053 . S
Co98 O102 2.126 . S
Co98 O107 2.063 . S
Co98 O121 2.047 . S
Co98 O127 2.113 . S
H99 Co96 2.400 . S
H99 Co98 2.388 . S
H99 O100 0.760 . S
O100 Co96 2.009 . S
O100 Co97 2.126 . S
O100 Co98 2.053 . S
O100 H99 0.760 . S
H101 Co97 2.388 . S
H101 O102 0.760 . S
H101 Co103 2.400 . S
O102 Co97 2.053 . S
O102 Co98 2.126 . S
O102 H101 0.760 . S
O102 Co103 2.009 . S
Co103 H101 2.400 . S
Co103 O102 2.009 . S
Co103 O104 2.053 . S
Co103 O106 2.094 . S
Co103 O110 2.122 . S
Co103 O124 2.115 . S
Co103 O125 2.315 . S
O104 Co103 2.053 . S
O104 C116 1.259 . S
O105 Co97 2.047 . S
O105 C116 1.257 . S
O106 Co103 2.094 . S
O106 C117 1.253 . S
O107 Co98 2.063 . S
O107 C117 1.268 . S
O108 Co96 2.115 . S
O108 C118 1.281 . S
O109 Co96 2.315 . S
O109 C118 1.252 . S
O110 Co103 2.122 . S
O110 C119 1.272 . S
O111 Co97 2.113 . S
O111 C119 1.245 . S
C112 O120 1.259 . S
C112 O121 1.257 . S
C113 O122 1.268 . S
C113 O123 1.253 . S
C114 O124 1.281 . S
C114 O125 1.252 . S
C115 O126 1.272 . S
C115 O127 1.245 . S
C116 O104 1.259 . S
C116 O105 1.257 . S
C117 O106 1.253 . S
C117 O107 1.268 . S
C118 O108 1.281 . S
C118 O109 1.252 . S
C119 O110 1.272 . S
C119 O111 1.245 . S
O120 Co96 2.053 . S
O120 C112 1.259 . S
O121 Co98 2.047 . S
O121 C112 1.257 . S
O122 Co97 2.063 . S
O122 C113 1.268 . S
O123 Co96 2.094 . S
O123 C113 1.253 . S
O124 Co103 2.115 . S
O124 C114 1.281 . S
O125 Co103 2.315 . S
O125 C114 1.252 . S
O126 Co96 2.122 . S
O126 C115 1.272 . S
O127 Co98 2.113 . S
O127 C115 1.245 . S
C128 C129 1.349 1_556 S
C128 C130 1.327 . S
C128 H153 0.950 . S
C129 C128 1.349 1_554 S
C129 C145 1.349 . S
C130 C128 1.327 . S
C130 C149 1.429 1_556 S
C130 H154 0.950 . S
C131 C148 1.574 . S
C131 C150 1.368 . S
C131 H155 0.949 . S
H132 C136 0.949 . S
C133 C134 1.349 1_654 S
C133 C135 1.327 . S
C133 H156 0.950 1_655 S
C134 C133 1.349 1_456 S
C134 C146 1.349 1_455 S
C135 C133 1.327 . S
C135 C151 1.429 1_554 S
C135 H157 0.950 . S
C136 H132 0.949 . S
C136 C144 1.574 . S
C136 C152 1.368 . S
H137 C145 0.950 . S
H138 C143 0.950 . S
H139 C144 0.949 . S
H140 C146 0.950 1_455 S
H141 C147 0.950 . S
H142 C148 0.949 . S
C143 H138 0.950 . S
C143 C145 1.327 . S
C143 C149 1.429 . S
C144 C136 1.574 . S
C144 H139 0.949 . S
C144 C150 1.368 1_556 S
C145 C129 1.349 . S
C145 H137 0.950 . S
C145 C143 1.327 . S
C146 C134 1.349 1_655 S
C146 H140 0.950 1_655 S
C146 C147 1.327 . S
C147 H141 0.950 . S
C147 C146 1.327 . S
C147 C151 1.429 . S
C148 C131 1.574 . S
C148 H142 0.949 . S
C148 C152 1.368 1_554 S
C149 C130 1.429 1_554 S
C149 C143 1.429 . S
C149 C150 1.523 . S
C150 C131 1.368 . S
C150 C144 1.368 1_554 S
C150 C149 1.523 . S
C151 C135 1.429 1_556 S
C151 C147 1.429 . S
C151 C152 1.523 . S
C152 C136 1.368 . S
C152 C148 1.368 1_556 S
C152 C151 1.523 . S
H153 C128 0.950 . S
H154 C130 0.950 . S
H155 C131 0.949 . S
H156 C133 0.950 1_455 S
H157 C135 0.950 . S
C158 C159 1.328 1_456 S
C158 C160 1.332 . S
C158 H183 0.967 1_455 S
C159 C158 1.328 1_654 S
C159 C175 1.349 1_655 S
C160 C158 1.332 . S
C160 C179 1.429 1_556 S
C160 H184 0.950 . S
C161 C178 1.574 . S
C161 C180 1.368 . S
C161 H185 0.949 . S
H162 C166 0.949 . S
C163 C164 1.349 1_554 S
C163 C165 1.327 . S
C163 H186 0.950 . S
C164 C163 1.349 1_556 S
C164 C176 1.349 . S
C165 C163 1.327 . S
C165 C181 1.429 1_554 S
C165 H187 0.950 . S
C166 H162 0.949 . S
C166 C174 1.574 . S
C166 C182 1.368 . S
H167 C175 0.950 1_655 S
H168 C173 0.950 . S
H169 C174 0.949 . S
H170 C176 0.950 . S
H171 C177 0.950 . S
H172 C178 0.949 . S
C173 H168 0.950 . S
C173 C175 1.327 . S
C173 C179 1.429 . S
C174 C166 1.574 . S
C174 H169 0.949 . S
C174 C180 1.368 1_556 S
C175 C159 1.349 1_455 S
C175 H167 0.950 1_455 S
C175 C173 1.327 . S
C176 C164 1.349 . S
C176 H170 0.950 . S
C176 C177 1.327 . S
C177 H171 0.950 . S
C177 C176 1.327 . S
C177 C181 1.429 . S
C178 C161 1.574 . S
C178 H172 0.949 . S
C178 C182 1.368 1_554 S
C179 C160 1.429 1_554 S
C179 C173 1.429 . S
C179 C180 1.523 . S
C180 C161 1.368 . S
C180 C174 1.368 1_554 S
C180 C179 1.523 . S
C181 C165 1.429 1_556 S
C181 C177 1.429 . S
C181 C182 1.523 . S
C182 C166 1.368 . S
C182 C178 1.368 1_556 S
C182 C181 1.523 . S
H183 C158 0.967 1_655 S
H184 C160 0.950 . S
H185 C161 0.949 . S
H186 C163 0.950 . S
H187 C165 0.950 . S
C188 C189 1.349 . S
C188 C190 1.327 . S
C188 H213 0.950 . S
C189 C188 1.349 . S
C189 C205 1.349 . S
C190 C188 1.327 . S
C190 C209 1.429 . S
C190 H214 0.950 . S
C191 C208 1.574 . S
C191 C210 1.368 . S
C191 H215 0.949 . S
H192 C196 0.949 . S
C193 C194 1.349 1_655 S
C193 C195 1.327 . S
C193 H216 0.950 1_655 S
C194 C193 1.349 1_455 S
C194 C206 1.349 1_455 S
C195 C193 1.327 . S
C195 C211 1.429 . S
C195 H217 0.950 . S
C196 H192 0.949 . S
C196 C204 1.574 . S
C196 C212 1.368 . S
H197 C205 0.950 . S
H198 C203 0.950 . S
H199 C204 0.949 . S
H200 C206 0.950 1_455 S
H201 C207 0.950 . S
H202 C208 0.949 . S
C203 H198 0.950 . S
C203 C205 1.327 . S
C203 C209 1.429 . S
C204 C196 1.574 . S
C204 H199 0.949 . S
C204 C210 1.368 . S
C205 C189 1.349 . S
C205 H197 0.950 . S
C205 C203 1.327 . S
C206 C194 1.349 1_655 S
C206 H200 0.950 1_655 S
C206 C207 1.327 . S
C207 H201 0.950 . S
C207 C206 1.327 . S
C207 C211 1.429 . S
C208 C191 1.574 . S
C208 H202 0.949 . S
C208 C212 1.368 . S
C209 C190 1.429 . S
C209 C203 1.429 . S
C209 C210 1.523 . S
C210 C191 1.368 . S
C210 C204 1.368 . S
C210 C209 1.523 . S
C211 C195 1.429 . S
C211 C207 1.429 . S
C211 C212 1.523 . S
C212 C196 1.368 . S
C212 C208 1.368 . S
C212 C211 1.523 . S
H213 C188 0.950 . S
H214 C190 0.950 . S
H215 C191 0.949 . S
H216 C193 0.950 1_455 S
H217 C195 0.950 . S
C218 C219 1.349 1_455 S
C218 C220 1.327 . S
C218 H243 0.950 1_455 S
C219 C218 1.349 1_655 S
C219 C235 1.349 1_655 S
C220 C218 1.327 . S
C220 C239 1.429 . S
C220 H244 0.950 . S
C221 C238 1.574 . S
C221 C240 1.368 . S
C221 H245 0.949 . S
H222 C226 0.949 . S
C223 C224 1.349 . S
C223 C225 1.327 . S
C223 H246 0.950 . S
C224 C223 1.349 . S
C224 C236 1.349 . S
C225 C223 1.327 . S
C225 C241 1.429 . S
C225 H247 0.950 . S
C226 H222 0.949 . S
C226 C234 1.574 . S
C226 C242 1.368 . S
H227 C235 0.950 1_655 S
H228 C233 0.950 . S
H229 C234 0.949 . S
H230 C236 0.950 . S
H231 C237 0.950 . S
H232 C238 0.949 . S
C233 H228 0.950 . S
C233 C235 1.327 . S
C233 C239 1.429 . S
C234 C226 1.574 . S
C234 H229 0.949 . S
C234 C240 1.368 . S
C235 C219 1.349 1_455 S
C235 H227 0.950 1_455 S
C235 C233 1.327 . S
C236 C224 1.349 . S
C236 H230 0.950 . S
C236 C237 1.327 . S
C237 H231 0.950 . S
C237 C236 1.327 . S
C237 C241 1.429 . S
C238 C221 1.574 . S
C238 H232 0.949 . S
C238 C242 1.368 . S
C239 C220 1.429 . S
C239 C233 1.429 . S
C239 C240 1.523 . S
C240 C221 1.368 . S
C240 C234 1.368 . S
C240 C239 1.523 . S
C241 C225 1.429 . S
C241 C237 1.429 . S
C241 C242 1.523 . S
C242 C226 1.368 . S
C242 C238 1.368 . S
C242 C241 1.523 . S
H243 C218 0.950 1_655 S
H244 C220 0.950 . S
H245 C221 0.949 . S
H246 C223 0.950 . S
H247 C225 0.950 . S
C248 C249 1.349 1_556 S
C248 C250 1.327 . S
C248 H273 0.950 . S
C249 C248 1.349 1_554 S
C249 C265 1.349 . S
C250 C248 1.327 . S
C250 C269 1.411 1_556 S
C250 H274 0.950 . S
C251 C268 1.574 . S
C251 C270 1.378 . S
C251 H275 0.949 . S
H252 C256 0.949 . S
C253 C254 1.349 1_554 S
C253 C255 1.327 . S
C253 H276 0.950 . S
C254 C253 1.349 1_556 S
C254 C266 1.349 . S
C255 C253 1.327 . S
C255 C271 1.415 1_554 S
C255 H277 0.950 . S
C256 H252 0.949 . S
C256 C264 1.574 . S
C256 C272 1.373 . S
H257 C265 0.950 . S
H258 C263 0.950 . S
H259 C264 0.949 . S
H260 C266 0.950 . S
H261 C267 0.950 . S
H262 C268 0.949 . S
C263 H258 0.950 . S
C263 C265 1.327 . S
C263 C269 1.453 . S
C264 C256 1.574 . S
C264 H259 0.949 . S
C264 C270 1.357 1_556 S
C265 C249 1.349 . S
C265 H257 0.950 . S
C265 C263 1.327 . S
C266 C254 1.349 . S
C266 H260 0.950 . S
C266 C267 1.327 . S
C267 H261 0.950 . S
C267 C266 1.327 . S
C267 C271 1.447 . S
C268 C251 1.574 . S
C268 H262 0.949 . S
C268 C272 1.363 1_554 S
C269 C250 1.411 1_554 S
C269 C263 1.453 . S
C269 C270 1.520 . S
C270 C251 1.378 . S
C270 C264 1.357 1_554 S
C270 C269 1.520 . S
C271 C255 1.415 1_556 S
C271 C267 1.447 . S
C271 C272 1.520 . S
C272 C256 1.373 . S
C272 C268 1.363 1_556 S
C272 C271 1.520 . S
H273 C248 0.950 . S
H274 C250 0.950 . S
H275 C251 0.949 . S
H276 C253 0.950 . S
H277 C255 0.950 . S
C278 C279 1.349 . S
C278 C280 1.327 . S
C278 H303 0.950 . S
C279 C278 1.349 . S
C279 C295 1.349 . S
C280 C278 1.327 . S
C280 C299 1.429 . S
C280 H304 0.950 . S
C281 C298 1.574 . S
C281 C300 1.368 . S
C281 H305 0.949 . S
H282 C286 0.949 . S
C283 C284 1.349 . S
C283 C285 1.327 . S
C283 H306 0.950 . S
C284 C283 1.349 . S
C284 C296 1.349 . S
C285 C283 1.327 . S
C285 C301 1.429 . S
C285 H307 0.950 . S
C286 H282 0.949 . S
C286 C294 1.574 . S
C286 C302 1.368 . S
H287 C295 0.950 . S
H288 C293 0.950 . S
H289 C294 0.949 . S
H290 C296 0.950 . S
H291 C297 0.950 . S
H292 C298 0.949 . S
C293 H288 0.950 . S
C293 C295 1.327 . S
C293 C299 1.429 . S
C294 C286 1.574 . S
C294 H289 0.949 . S
C294 C300 1.368 . S
C295 C279 1.349 . S
C295 H287 0.950 . S
C295 C293 1.327 . S
C296 C284 1.349 . S
C296 H290 0.950 . S
C296 C297 1.327 . S
C297 H291 0.950 . S
C297 C296 1.327 . S
C297 C301 1.429 . S
C298 C281 1.574 . S
C298 H292 0.949 . S
C298 C302 1.368 . S
C299 C280 1.429 . S
C299 C293 1.429 . S
C299 C300 1.523 . S
C300 C281 1.368 . S
C300 C294 1.368 . S
C300 C299 1.523 . S
C301 C285 1.429 . S
C301 C297 1.429 . S
C301 C302 1.523 . S
C302 C286 1.368 . S
C302 C298 1.368 . S
C302 C301 1.523 . S
H303 C278 0.950 . S
H304 C280 0.950 . S
H305 C281 0.949 . S
H306 C283 0.950 . S
H307 C285 0.950 . S
C308 C309 1.349 1_556 S
C308 C310 1.327 . S
C308 H333 0.950 . S
C309 C308 1.349 1_554 S
C309 C325 1.349 . S
C310 C308 1.327 . S
C310 C329 1.404 1_556 S
C310 H334 0.950 . S
C311 C328 1.574 1_545 S
C311 C330 1.381 1_655 S
C311 H335 0.949 . S
H312 C316 0.949 . S
C313 C314 1.349 1_554 S
C313 C315 1.327 . S
C313 H336 0.950 . S
C314 C313 1.349 1_556 S
C314 C326 1.349 . S
C315 C313 1.327 . S
C315 C331 1.410 1_554 S
C315 H337 0.950 . S
C316 H312 0.949 . S
C316 C324 1.574 1_565 S
C316 C332 1.375 1_455 S
H317 C325 0.950 . S
H318 C323 0.950 . S
H319 C324 0.949 . S
H320 C326 0.950 . S
H321 C327 0.950 . S
H322 C328 0.949 . S
C323 H318 0.950 . S
C323 C325 1.327 . S
C323 C329 1.459 . S
C324 C316 1.574 1_545 S
C324 H319 0.949 . S
C324 C330 1.354 1_556 S
C325 C309 1.349 . S
C325 H317 0.950 . S
C325 C323 1.327 . S
C326 C314 1.349 . S
C326 H320 0.950 . S
C326 C327 1.327 . S
C327 H321 0.950 . S
C327 C326 1.327 . S
C327 C331 1.451 . S
C328 C311 1.574 1_565 S
C328 H322 0.949 . S
C328 C332 1.361 1_554 S
C329 C310 1.404 1_554 S
C329 C323 1.459 . S
C329 C330 1.520 . S
C330 C311 1.381 1_455 S
C330 C324 1.354 1_554 S
C330 C329 1.520 . S
C331 C315 1.410 1_556 S
C331 C327 1.451 . S
C331 C332 1.520 . S
C332 C316 1.375 1_655 S
C332 C328 1.361 1_556 S
C332 C331 1.520 . S
H333 C308 0.950 . S
H334 C310 0.950 . S
H335 C311 0.949 . S
H336 C313 0.950 . S
H337 C315 0.950 . S
C338 C339 1.349 . S
C338 C340 1.327 . S
C338 H363 0.950 . S
C339 C338 1.349 . S
C339 C355 1.349 . S
C340 C338 1.327 . S
C340 C359 1.429 . S
C340 H364 0.950 . S
C341 C358 1.574 1_545 S
C341 C360 1.368 1_455 S
C341 H365 0.949 . S
H342 C346 0.949 . S
C343 C344 1.349 . S
C343 C345 1.327 . S
C343 H366 0.950 . S
C344 C343 1.349 . S
C344 C356 1.349 . S
C345 C343 1.327 . S
C345 C361 1.429 . S
C345 H367 0.950 . S
C346 H342 0.949 . S
C346 C354 1.574 1_565 S
C346 C362 1.368 1_655 S
H347 C355 0.950 . S
H348 C353 0.950 . S
H349 C354 0.949 . S
H350 C356 0.950 . S
H351 C357 0.950 . S
H352 C358 0.949 . S
C353 H348 0.950 . S
C353 C355 1.327 . S
C353 C359 1.429 . S
C354 C346 1.574 1_545 S
C354 H349 0.949 . S
C354 C360 1.368 . S
C355 C339 1.349 . S
C355 H347 0.950 . S
C355 C353 1.327 . S
C356 C344 1.349 . S
C356 H350 0.950 . S
C356 C357 1.327 . S
C357 H351 0.950 . S
C357 C356 1.327 . S
C357 C361 1.429 . S
C358 C341 1.574 1_565 S
C358 H352 0.949 . S
C358 C362 1.368 . S
C359 C340 1.429 . S
C359 C353 1.429 . S
C359 C360 1.523 . S
C360 C341 1.368 1_655 S
C360 C354 1.368 . S
C360 C359 1.523 . S
C361 C345 1.429 . S
C361 C357 1.429 . S
C361 C362 1.523 . S
C362 C346 1.368 1_455 S
C362 C358 1.368 . S
C362 C361 1.523 . S
H363 C338 0.950 . S
H364 C340 0.950 . S
H365 C341 0.949 . S
H366 C343 0.950 . S
H367 C345 0.950 . S
C368 C369 1.349 . S
C368 C370 1.327 . S
C368 H393 0.950 . S
C369 C368 1.349 . S
C369 C385 1.349 . S
C370 C368 1.327 . S
C370 C389 1.429 . S
C370 H394 0.950 . S
C371 C388 1.574 . S
C371 C390 1.368 . S
C371 H395 0.949 . S
H372 C376 0.949 . S
C373 C374 1.349 . S
C373 C375 1.327 . S
C373 H396 0.950 . S
C374 C373 1.349 . S
C374 C386 1.349 . S
C375 C373 1.327 . S
C375 C391 1.429 . S
C375 H397 0.950 . S
C376 H372 0.949 . S
C376 C384 1.574 . S
C376 C392 1.368 . S
H377 C385 0.950 . S
H378 C383 0.950 . S
H379 C384 0.949 . S
H380 C386 0.950 . S
H381 C387 0.950 . S
H382 C388 0.949 . S
C383 H378 0.950 . S
C383 C385 1.327 . S
C383 C389 1.429 . S
C384 C376 1.574 . S
C384 H379 0.949 . S
C384 C390 1.368 . S
C385 C369 1.349 . S
C385 H377 0.950 . S
C385 C383 1.327 . S
C386 C374 1.349 . S
C386 H380 0.950 . S
C386 C387 1.327 . S
C387 H381 0.950 . S
C387 C386 1.327 . S
C387 C391 1.429 . S
C388 C371 1.574 . S
C388 H382 0.949 . S
C388 C392 1.368 . S
C389 C370 1.429 . S
C389 C383 1.429 . S
C389 C390 1.523 . S
C390 C371 1.368 . S
C390 C384 1.368 . S
C390 C389 1.523 . S
C391 C375 1.429 . S
C391 C387 1.429 . S
C391 C392 1.523 . S
C392 C376 1.368 . S
C392 C388 1.368 . S
C392 C391 1.523 . S
H393 C368 0.950 . S
H394 C370 0.950 . S
H395 C371 0.949 . S
H396 C373 0.950 . S
H397 C375 0.950 . S
C398 C399 1.349 . S
C398 C400 1.327 . S
C398 H423 0.950 . S
C399 C398 1.349 . S
C399 C415 1.349 . S
C400 C398 1.327 . S
C400 C419 1.429 . S
C400 H424 0.950 . S
C401 C418 1.574 . S
C401 C420 1.368 . S
C401 H425 0.949 . S
H402 C406 0.949 . S
C403 C404 1.349 . S
C403 C405 1.327 . S
C403 H426 0.950 . S
C404 C403 1.349 . S
C404 C416 1.349 . S
C405 C403 1.327 . S
C405 C421 1.429 . S
C405 H427 0.950 . S
C406 H402 0.949 . S
C406 C414 1.574 . S
C406 C422 1.368 . S
H407 C415 0.950 . S
H408 C413 0.950 . S
H409 C414 0.949 . S
H410 C416 0.950 . S
H411 C417 0.950 . S
H412 C418 0.949 . S
C413 H408 0.950 . S
C413 C415 1.327 . S
C413 C419 1.429 . S
C414 C406 1.574 . S
C414 H409 0.949 . S
C414 C420 1.368 . S
C415 C399 1.349 . S
C415 H407 0.950 . S
C415 C413 1.327 . S
C416 C404 1.349 . S
C416 H410 0.950 . S
C416 C417 1.327 . S
C417 H411 0.950 . S
C417 C416 1.327 . S
C417 C421 1.429 . S
C418 C401 1.574 . S
C418 H412 0.949 . S
C418 C422 1.368 . S
C419 C400 1.429 . S
C419 C413 1.429 . S
C419 C420 1.523 . S
C420 C401 1.368 . S
C420 C414 1.368 . S
C420 C419 1.523 . S
C421 C405 1.429 . S
C421 C417 1.429 . S
C421 C422 1.523 . S
C422 C406 1.368 . S
C422 C418 1.368 . S
C422 C421 1.523 . S
H423 C398 0.950 . S
H424 C400 0.950 . S
H425 C401 0.949 . S
H426 C403 0.950 . S
H427 C405 0.950 . S
C428 C429 1.349 . S
C428 C430 1.327 . S
C428 H453 0.950 . S
C429 C428 1.349 . S
C429 C445 1.349 . S
C430 C428 1.327 . S
C430 C449 1.429 . S
C430 H454 0.950 . S
C431 C448 1.574 . S
C431 C450 1.368 . S
C431 H455 0.949 . S
H432 C436 0.949 . S
C433 C434 1.349 . S
C433 C435 1.327 . S
C433 H456 0.950 . S
C434 C433 1.349 . S
C434 C446 1.349 . S
C435 C433 1.327 . S
C435 C451 1.429 . S
C435 H457 0.950 . S
C436 H432 0.949 . S
C436 C444 1.574 . S
C436 C452 1.368 . S
H437 C445 0.950 . S
H438 C443 0.950 . S
H439 C444 0.949 . S
H440 C446 0.950 . S
H441 C447 0.950 . S
H442 C448 0.949 . S
C443 H438 0.950 . S
C443 C445 1.327 . S
C443 C449 1.429 . S
C444 C436 1.574 . S
C444 H439 0.949 . S
C444 C450 1.368 . S
C445 C429 1.349 . S
C445 H437 0.950 . S
C445 C443 1.327 . S
C446 C434 1.349 . S
C446 H440 0.950 . S
C446 C447 1.327 . S
C447 H441 0.950 . S
C447 C446 1.327 . S
C447 C451 1.429 . S
C448 C431 1.574 . S
C448 H442 0.949 . S
C448 C452 1.368 . S
C449 C430 1.429 . S
C449 C443 1.429 . S
C449 C450 1.523 . S
C450 C431 1.368 . S
C450 C444 1.368 . S
C450 C449 1.523 . S
C451 C435 1.429 . S
C451 C447 1.429 . S
C451 C452 1.523 . S
C452 C436 1.368 . S
C452 C448 1.368 . S
C452 C451 1.523 . S
H453 C428 0.950 . S
H454 C430 0.950 . S
H455 C431 0.949 . S
H456 C433 0.950 . S
H457 C435 0.950 . S
C458 C459 1.349 . S
C458 C460 1.327 . S
C458 H483 0.950 . S
C459 C458 1.349 . S
C459 C475 1.349 . S
C460 C458 1.327 . S
C460 C479 1.429 . S
C460 H484 0.950 . S
C461 C478 1.574 . S
C461 C480 1.368 . S
C461 H485 0.949 . S
H462 C466 0.949 . S
C463 C464 1.349 . S
C463 C465 1.327 . S
C463 H486 0.950 . S
C464 C463 1.349 . S
C464 C476 1.349 . S
C465 C463 1.327 . S
C465 C481 1.429 . S
C465 H487 0.950 . S
C466 H462 0.949 . S
C466 C474 1.574 . S
C466 C482 1.368 . S
H467 C475 0.950 . S
H468 C473 0.950 . S
H469 C474 0.949 . S
H470 C476 0.950 . S
H471 C477 0.950 . S
H472 C478 0.949 . S
C473 H468 0.950 . S
C473 C475 1.327 . S
C473 C479 1.429 . S
C474 C466 1.574 . S
C474 H469 0.949 . S
C474 C480 1.368 . S
C475 C459 1.349 . S
C475 H467 0.950 . S
C475 C473 1.327 . S
C476 C464 1.349 . S
C476 H470 0.950 . S
C476 C477 1.327 . S
C477 H471 0.950 . S
C477 C476 1.327 . S
C477 C481 1.429 . S
C478 C461 1.574 . S
C478 H472 0.949 . S
C478 C482 1.368 . S
C479 C460 1.429 . S
C479 C473 1.429 . S
C479 C480 1.523 . S
C480 C461 1.368 . S
C480 C474 1.368 . S
C480 C479 1.523 . S
C481 C465 1.429 . S
C481 C477 1.429 . S
C481 C482 1.523 . S
C482 C466 1.368 . S
C482 C478 1.368 . S
C482 C481 1.523 . S
H483 C458 0.950 . S
H484 C460 0.950 . S
H485 C461 0.949 . S
H486 C463 0.950 . S
H487 C465 0.950 . S
C488 C489 1.349 . S
C488 C490 1.327 . S
C488 H513 0.950 . S
C489 C488 1.349 . S
C489 C505 1.349 . S
C490 C488 1.327 . S
C490 C509 1.429 . S
C490 H514 0.950 . S
C491 C508 1.574 . S
C491 C510 1.368 1_655 S
C491 H515 0.949 . S
H492 C496 0.949 . S
C493 C494 1.349 . S
C493 C495 1.327 . S
C493 H516 0.950 . S
C494 C493 1.349 . S
C494 C506 1.349 . S
C495 C493 1.327 . S
C495 C511 1.429 . S
C495 H517 0.950 . S
C496 H492 0.949 . S
C496 C504 1.574 . S
C496 C512 1.368 1_455 S
H497 C505 0.950 . S
H498 C503 0.950 . S
H499 C504 0.949 . S
H500 C506 0.950 . S
H501 C507 0.950 1_455 S
H502 C508 0.949 . S
C503 H498 0.950 . S
C503 C505 1.327 . S
C503 C509 1.429 . S
C504 C496 1.574 . S
C504 H499 0.949 . S
C504 C510 1.368 . S
C505 C489 1.349 . S
C505 H497 0.950 . S
C505 C503 1.327 . S
C506 C494 1.349 . S
C506 H500 0.950 . S
C506 C507 1.327 . S
C507 H501 0.950 1_655 S
C507 C506 1.327 . S
C507 C511 1.429 . S
C508 C491 1.574 . S
C508 H502 0.949 . S
C508 C512 1.368 . S
C509 C490 1.429 . S
C509 C503 1.429 . S
C509 C510 1.523 . S
C510 C491 1.368 1_455 S
C510 C504 1.368 . S
C510 C509 1.523 . S
C511 C495 1.429 . S
C511 C507 1.429 . S
C511 C512 1.523 . S
C512 C496 1.368 1_655 S
C512 C508 1.368 . S
C512 C511 1.523 . S
H513 C488 0.950 . S
H514 C490 0.950 . S
H515 C491 0.949 . S
H516 C493 0.950 . S
H517 C495 0.950 . S
C518 C519 1.349 . S
C518 C520 1.327 . S
C518 H543 0.950 . S
C519 C518 1.349 . S
C519 C535 1.349 . S
C520 C518 1.327 . S
C520 C539 1.429 . S
C520 H544 0.950 . S
C521 C538 1.574 . S
C521 C540 1.368 1_455 S
C521 H545 0.949 1_455 S
H522 C526 0.949 . S
C523 C524 1.349 . S
C523 C525 1.327 . S
C523 H546 0.950 . S
C524 C523 1.349 . S
C524 C536 1.349 . S
C525 C523 1.327 . S
C525 C541 1.429 . S
C525 H547 0.950 . S
C526 H522 0.949 . S
C526 C534 1.574 . S
C526 C542 1.368 . S
H527 C535 0.950 . S
H528 C533 0.950 . S
H529 C534 0.946 1_655 S
H530 C536 0.950 . S
H531 C537 0.950 . S
H532 C538 0.949 . S
C533 H528 0.950 . S
C533 C535 1.327 . S
C533 C539 1.429 . S
C534 C526 1.574 . S
C534 H529 0.946 1_455 S
C534 C540 1.368 1_455 S
C535 C519 1.349 . S
C535 H527 0.950 . S
C535 C533 1.327 . S
C536 C524 1.349 . S
C536 H530 0.950 . S
C536 C537 1.327 . S
C537 H531 0.950 . S
C537 C536 1.327 . S
C537 C541 1.429 . S
C538 C521 1.574 . S
C538 H532 0.949 . S
C538 C542 1.368 . S
C539 C520 1.429 . S
C539 C533 1.429 . S
C539 C540 1.523 . S
C540 C521 1.368 1_655 S
C540 C534 1.368 1_655 S
C540 C539 1.523 . S
C541 C525 1.429 . S
C541 C537 1.429 . S
C541 C542 1.523 . S
C542 C526 1.368 . S
C542 C538 1.368 . S
C542 C541 1.523 . S
H543 C518 0.950 . S
H544 C520 0.950 . S
H545 C521 0.949 1_655 S
H546 C523 0.950 . S
H547 C525 0.950 . S
C548 C549 1.349 . S
C548 C550 1.327 . S
C548 H573 0.950 . S
C549 C548 1.349 . S
C549 C565 1.349 . S
C550 C548 1.327 . S
C550 C569 1.429 . S
C550 H574 0.950 . S
C551 C568 1.574 . S
C551 C570 1.368 1_655 S
C551 H575 0.949 . S
H552 C556 0.949 . S
C553 C554 1.349 . S
C553 C555 1.327 . S
C553 H576 0.950 . S
C554 C553 1.349 . S
C554 C566 1.349 . S
C555 C553 1.327 . S
C555 C571 1.429 . S
C555 H577 0.950 . S
C556 H552 0.949 . S
C556 C564 1.574 1_655 S
C556 C572 1.368 . S
H557 C565 0.950 . S
H558 C563 0.950 1_655 S
H559 C564 0.949 . S
H560 C566 0.950 . S
H561 C567 0.950 . S
H562 C568 0.949 . S
C563 H558 0.950 1_455 S
C563 C565 1.327 . S
C563 C569 1.429 . S
C564 C556 1.574 1_455 S
C564 H559 0.949 . S
C564 C570 1.368 . S
C565 C549 1.349 . S
C565 H557 0.950 . S
C565 C563 1.327 . S
C566 C554 1.349 . S
C566 H560 0.950 . S
C566 C567 1.327 . S
C567 H561 0.950 . S
C567 C566 1.327 . S
C567 C571 1.429 . S
C568 C551 1.574 . S
C568 H562 0.949 . S
C568 C572 1.368 . S
C569 C550 1.429 . S
C569 C563 1.429 . S
C569 C570 1.523 . S
C570 C551 1.368 1_455 S
C570 C564 1.368 . S
C570 C569 1.523 . S
C571 C555 1.429 . S
C571 C567 1.429 . S
C571 C572 1.523 . S
C572 C556 1.368 . S
C572 C568 1.368 . S
C572 C571 1.523 . S
H573 C548 0.950 . S
H574 C550 0.950 . S
H575 C551 0.949 . S
H576 C553 0.950 . S
H577 C555 0.950 . S
C578 C579 1.349 . S
C578 C580 1.327 . S
C578 H603 0.950 . S
C579 C578 1.349 . S
C579 C595 1.349 . S
C580 C578 1.327 . S
C580 C599 1.429 . S
C580 H604 0.950 1_455 S
C581 C598 1.574 1_455 S
C581 C600 1.368 . S
C581 H605 0.949 . S
H582 C586 0.949 . S
C583 C584 1.349 . S
C583 C585 1.327 . S
C583 H606 0.950 . S
C584 C583 1.349 . S
C584 C596 1.349 . S
C585 C583 1.327 . S
C585 C601 1.429 . S
C585 H607 0.950 . S
C586 H582 0.949 . S
C586 C594 1.574 . S
C586 C602 1.368 . S
H587 C595 0.950 . S
H588 C593 0.950 . S
H589 C594 0.949 . S
H590 C596 0.950 . S
H591 C597 0.950 . S
H592 C598 0.949 . S
C593 H588 0.950 . S
C593 C595 1.327 . S
C593 C599 1.429 . S
C594 C586 1.574 . S
C594 H589 0.949 . S
C594 C600 1.368 1_655 S
C595 C579 1.349 . S
C595 H587 0.950 . S
C595 C593 1.327 . S
C596 C584 1.349 . S
C596 H590 0.950 . S
C596 C597 1.327 . S
C597 H591 0.950 . S
C597 C596 1.327 . S
C597 C601 1.429 . S
C598 C581 1.574 1_655 S
C598 H592 0.949 . S
C598 C602 1.368 . S
C599 C580 1.429 . S
C599 C593 1.429 . S
C599 C600 1.523 . S
C600 C581 1.368 . S
C600 C594 1.368 1_455 S
C600 C599 1.523 . S
C601 C585 1.429 . S
C601 C597 1.429 . S
C601 C602 1.523 . S
C602 C586 1.368 . S
C602 C598 1.368 . S
C602 C601 1.523 . S
H603 C578 0.950 . S
H604 C580 0.950 1_655 S
H605 C581 0.949 . S
H606 C583 0.950 . S
H607 C585 0.950 . S
C129 C20 0.710 . S
C134 C16 0.710 . S
C159 C52 0.710 . S
C164 C48 0.710 . S
C189 C84 0.710 . S
C194 C80 0.710 . S
C219 C116 0.710 . S
C224 C112 0.710 . S
C249 C51 1.456 1_554 S
C254 C23 1.456 1_556 S
C279 C115 1.456 . S
C284 C87 1.456 . S
C309 C19 1.456 1_554 S
C314 C55 1.456 1_556 S
C339 C119 1.456 . S
C344 C83 1.456 . S
C369 C117 1.772 . S
C374 C18 1.743 . S
C399 C53 1.772 . S
C404 C82 1.743 . S
C429 C81 1.772 . S
C434 C54 1.751 . S
C459 C17 1.772 . S
C464 C118 1.751 . S
C489 C85 1.772 . S
C494 C50 1.743 . S
C519 C114 1.747 . S
C524 C21 1.768 . S
C549 C22 1.747 . S
C554 C113 1.776 . S
C579 C86 1.747 . S
C584 C49 1.776 . S
