# Generated by pormake.
# Topology uom, (4)-cn, num edge types: 1
# Building blocks:
#     Node 0, Type 0, BuildingBlock: MUDLON_clean_sbu_0, # of connection points: 4
#     Node 1, Type 0, BuildingBlock: MUDLON_clean_sbu_0, # of connection points: 4
#     Node 2, Type 0, BuildingBlock: MUDLON_clean_sbu_0, # of connection points: 4
#     Node 3, Type 0, BuildingBlock: MUDLON_clean_sbu_0, # of connection points: 4
#     Node 4, Type 0, BuildingBlock: MUDLON_clean_sbu_0, # of connection points: 4
#     Node 5, Type 0, BuildingBlock: MUDLON_clean_sbu_0, # of connection points: 4
#     Edge 6, Type (0, 0), BuildingBlock: XUDNAN_clean_linker_2, # of connection points: 2
#     Edge 7, Type (0, 0), BuildingBlock: XUDNAN_clean_linker_2, # of connection points: 2
#     Edge 8, Type (0, 0), BuildingBlock: XUDNAN_clean_linker_2, # of connection points: 2
#     Edge 9, Type (0, 0), BuildingBlock: XUDNAN_clean_linker_2, # of connection points: 2
#     Edge 10, Type (0, 0), BuildingBlock: XUDNAN_clean_linker_2, # of connection points: 2
#     Edge 11, Type (0, 0), BuildingBlock: XUDNAN_clean_linker_2, # of connection points: 2
#     Edge 12, Type (0, 0), BuildingBlock: XUDNAN_clean_linker_2, # of connection points: 2
#     Edge 13, Type (0, 0), BuildingBlock: XUDNAN_clean_linker_2, # of connection points: 2
#     Edge 14, Type (0, 0), BuildingBlock: XUDNAN_clean_linker_2, # of connection points: 2
#     Edge 15, Type (0, 0), BuildingBlock: XUDNAN_clean_linker_2, # of connection points: 2
#     Edge 16, Type (0, 0), BuildingBlock: XUDNAN_clean_linker_2, # of connection points: 2
#     Edge 17, Type (0, 0), BuildingBlock: XUDNAN_clean_linker_2, # of connection points: 2
# Relax obj value: 0.094
# Max RMSD: 0.085
# Mean RMSD: 0.085
data_MOF--net-uom--node1-MUDLON_clean_sbu_0--edge1-XUDNAN_clean_linker_2
_symmetry_space_group_name_H-M    P1
_symmetry_Int_Tables_number       1
_symmetry_cell_setting            triclinic
loop_
_symmetry_equiv_pos_as_xyz
'x, y, z'
_cell_length_a     29.611861
_cell_length_b     29.781745
_cell_length_c     40.59268
_cell_angle_alpha  90.684819
_cell_angle_beta   89.064594
_cell_angle_gamma 119.15444
loop_
_atom_site_label
_atom_site_type_symbol
_atom_site_fract_x
_atom_site_fract_y
_atom_site_fract_z
_atom_type_partial_charge
Mg0 Mg 0.24927 0.9984 0.07744 0.0
C1 C 0.28977 0.04475 0.14239 0.0
O2 O 0.29619 0.00418 0.1399 0.0
C3 C 0.21501 0.9697 1.01052 0.0
O4 O 0.22229 0.93343 1.02328 0.0
C5 C 0.31715 0.94275 0.0703 0.0
O6 O 0.27359 0.89902 0.07167 0.0
O7 O 0.31598 0.9849 0.07202 0.0
O8 O 0.2699 0.05537 0.11801 0.0
O9 O 0.1728 0.9347 0.08904 0.0
C10 C 0.14552 0.93873 0.1122 0.0
O11 O 0.16861 0.97263 0.1357 0.0
O12 O 0.22777 0.01026 0.02772 0.0
Mg13 Mg 0.32075 0.29635 0.4062 0.0
C14 C 0.28478 0.30763 0.47181 0.0
O15 O 0.26768 0.32885 0.45073 0.0
C16 C 0.32878 0.25226 0.34284 0.0
O17 O 0.31144 0.28421 0.33627 0.0
C18 C 0.41293 0.39815 0.41557 0.0
O19 O 0.41404 0.3719 0.44104 0.0
O20 O 0.37557 0.37652 0.39557 0.0
O21 O 0.31214 0.28825 0.46058 0.0
O22 O 0.24121 0.26806 0.39205 0.0
C23 C 0.21726 0.21938 0.39511 0.0
O24 O 0.24307 0.1968 0.40535 0.0
O25 O 0.34024 0.24913 0.37268 0.0
Mg26 Mg 0.07115 0.30167 0.74686 0.0
C27 C 0.02352 0.2657 0.81291 0.0
O28 O 0.98469 0.24697 0.79232 0.0
C29 C 0.13086 0.32415 0.68578 0.0
O30 O 0.08388 0.3141 0.67812 0.0
C31 C 0.067 0.39878 0.73741 0.0
O32 O 0.11579 0.41501 0.74424 0.0
O33 O 0.03652 0.35041 0.73557 0.0
O34 O 0.06909 0.29382 0.80119 0.0
O35 O 0.03436 0.22182 0.73055 0.0
C36 C 0.06053 0.20267 0.74286 0.0
O37 O 0.098 0.23129 0.76315 0.0
O38 O 0.14176 0.32666 0.7163 0.0
Mg39 Mg 0.78557 0.02603 0.06701 0.0
C40 C 0.81763 0.04164 0.13837 0.0
O41 O 0.85311 0.03227 0.12534 0.0
C42 C 0.88103 0.11376 0.03109 0.0
O43 O 0.90529 0.11122 0.05722 0.0
C44 C 0.68088 0.01794 0.06195 0.0
O45 O 0.70955 0.06534 0.07252 0.0
O46 O 0.70269 0.99082 0.05589 0.0
O47 O 0.78796 0.04844 0.1191 0.0
O48 O 0.81441 0.9708 0.06954 0.0
C49 C 0.8504 0.97195 0.05132 0.0
O50 O 0.86656 1.00259 0.02569 0.0
O51 O 0.83207 0.08522 0.02976 0.0
Mg52 Mg 0.7653 0.86181 0.42292 0.0
C53 C 0.79642 0.88295 0.49532 0.0
O54 O 0.84078 0.91446 0.48121 0.0
C55 C 0.7548 0.89306 0.35926 0.0
O56 O 0.77863 0.86563 0.35762 0.0
C57 C 0.71101 0.74546 0.4269 0.0
O58 O 0.71976 0.75629 0.45839 0.0
O59 O 0.73015 0.78203 0.4062 0.0
O60 O 0.75639 0.85967 0.47736 0.0
O61 O 0.84686 0.91269 0.4121 0.0
C62 C 0.85538 0.95899 0.41275 0.0
O63 O 0.81771 0.96774 0.42219 0.0
O64 O 0.73591 0.89642 0.38713 0.0
Mg65 Mg 0.97941 0.78374 0.73757 0.0
C66 C 0.02557 0.81074 0.80638 0.0
O67 O 0.04095 0.7781 0.79662 0.0
C68 C 0.91256 0.81956 0.70513 0.0
O69 O 0.95075 0.86277 0.71626 0.0
C70 C 0.01905 0.70441 0.73219 0.0
O71 O 0.06459 0.74594 0.73064 0.0
O72 O 0.9787 0.70931 0.73489 0.0
O73 O 0.99592 0.81847 0.7876 0.0
O74 O 0.03713 0.84298 0.70603 0.0
C75 C 0.07292 0.88243 0.71993 0.0
O76 O 0.08965 0.87636 0.7484 0.0
O77 O 0.91007 0.77738 0.71381 0.0
H78 H 0.27017 0.12361 0.16251 0.0
H79 H 0.34026 0.03309 0.19423 0.0
H80 H 0.35979 0.07718 0.24791 0.0
H81 H 0.36103 0.2427 0.20433 0.0
H82 H 0.31203 0.25957 0.21557 0.0
H83 H 0.30495 0.22217 0.17887 0.0
H84 H 0.21569 0.15141 0.2001 0.0
H85 H 0.22259 0.18854 0.23687 0.0
H86 H 0.2108 0.12338 0.24002 0.0
H87 H 0.36875 0.12843 0.29976 0.0
H88 H 0.36789 0.18498 0.34478 0.0
H89 H 0.29362 0.24325 0.2797 0.0
C90 C 0.29009 0.11348 0.18061 0.0
C91 C 0.30359 0.0747 0.17389 0.0
C92 C 0.3293 0.06247 0.19854 0.0
C93 C 0.3407 0.08737 0.22927 0.0
C94 C 0.3264 0.12484 0.2353 0.0
C95 C 0.30188 0.13811 0.21165 0.0
C96 C 0.28991 0.17913 0.22485 0.0
C97 C 0.31871 0.22884 0.2047 0.0
C98 C 0.23127 0.15942 0.2255 0.0
C99 C 0.31117 0.1864 0.25952 0.0
C100 C 0.33206 0.15473 0.26509 0.0
C101 C 0.3528 0.15372 0.29559 0.0
C102 C 0.35215 0.18594 0.32107 0.0
C103 C 0.33106 0.2189 0.31591 0.0
C104 C 0.31052 0.21895 0.28455 0.0
H105 H 0.20723 0.32165 0.49746 0.0
H106 H 0.33063 0.29247 0.52684 0.0
H107 H 0.30821 0.29714 0.58571 0.0
H108 H 0.2215 0.41143 0.56043 0.0
H109 H 0.15295 0.38771 0.56511 0.0
H110 H 0.17922 0.38189 0.52599 0.0
H111 H 0.11721 0.28344 0.52594 0.0
H112 H 0.09035 0.28905 0.56487 0.0
H113 H 0.11652 0.24584 0.56061 0.0
H114 H 0.27084 0.30744 0.64275 0.0
H115 H 0.21954 0.31474 0.6896 0.0
H116 H 0.12167 0.33586 0.62029 0.0
C117 C 0.2298 0.31625 0.51616 0.0
C118 C 0.271 0.307 0.50742 0.0
C119 C 0.29885 0.29951 0.53286 0.0
C120 C 0.28648 0.30237 0.56637 0.0
C121 C 0.24588 0.31231 0.57403 0.0
C122 C 0.21774 0.31852 0.54939 0.0
C123 C 0.17507 0.32743 0.56337 0.0
C124 C 0.18268 0.38026 0.55311 0.0
C125 C 0.12164 0.28385 0.5531 0.0
C126 C 0.18351 0.32584 0.59987 0.0
C127 C 0.22454 0.31731 0.60585 0.0
C128 C 0.2387 0.3141 0.63812 0.0
C129 C 0.20957 0.31865 0.66465 0.0
C130 C 0.16658 0.32605 0.65876 0.0
C131 C 0.15426 0.33031 0.62584 0.0
H132 H 0.84599 0.11703 0.96886 0.0
H133 H 0.98509 0.18176 0.02753 0.0
H134 H 0.03672 0.22994 0.97907 0.0
H135 H 0.90293 0.09924 0.89564 0.0
H136 H 0.86613 0.11578 0.86818 0.0
H137 H 0.83976 0.08875 0.90794 0.0
H138 H 0.82709 0.16703 0.92196 0.0
H139 H 0.85326 0.19422 0.88216 0.0
H140 H 0.88149 0.23104 0.91903 0.0
H141 H 0.07432 0.26887 0.92261 0.0
H142 H 0.09325 0.29485 0.86398 0.0
H143 H 0.92968 0.20441 0.8427 0.0
C144 C 0.88719 0.14184 0.97169 0.0
C145 C 0.91125 0.14561 1.00225 0.0
C146 C 0.9655 0.17816 1.00455 0.0
C147 C 0.99529 0.20577 0.97708 0.0
C148 C 0.97049 0.20066 0.94724 0.0
C149 C 0.91759 0.1696 0.94445 0.0
C150 C 0.9005 0.16949 0.90941 0.0
C151 C 0.87589 0.11509 0.89442 0.0
C152 C 0.86339 0.19178 0.90807 0.0
C153 C 0.95198 0.20498 0.89288 0.0
C154 C 0.99198 0.22277 0.91505 0.0
C155 C 0.04315 0.25532 0.90512 0.0
C156 C 0.05361 0.26991 0.87173 0.0
C157 C 0.01313 0.25195 0.84856 0.0
C158 C 0.96171 0.21918 0.85961 0.0
H159 H 0.86462 0.01104 0.18322 0.0
H160 H 0.74175 0.04965 0.17462 0.0
H161 H 0.71481 0.022 0.23237 0.0
H162 H 0.79247 0.89761 0.22567 0.0
H163 H 0.84475 0.90421 0.25106 0.0
H164 H 0.85843 0.93392 0.21118 0.0
H165 H 0.91899 0.02261 0.23761 0.0
H166 H 0.90588 0.99305 0.27764 0.0
H167 H 0.89478 0.04649 0.27055 0.0
H168 H 0.69775 0.98261 0.29138 0.0
H169 H 0.69241 0.93538 0.34286 0.0
H170 H 0.82446 0.92087 0.30923 0.0
C171 C 0.83282 0.01503 0.19359 0.0
C172 C 0.80567 0.03305 0.17431 0.0
C173 C 0.76359 0.0365 0.18891 0.0
C174 C 0.74793 0.02075 0.22173 0.0
C175 C 0.77472 1.00163 0.23969 0.0
C176 C 0.8165 0.99909 0.22596 0.0
C177 C 0.83665 0.97351 0.24893 0.0
C178 C 0.83281 0.92442 0.23327 0.0
C179 C 0.89237 0.01117 0.2593 0.0
C180 C 0.7992 0.96099 0.27755 0.0
C181 C 0.76405 0.97797 0.27229 0.0
C182 C 0.72535 0.96943 0.29566 0.0
C183 C 0.7225 0.94259 0.32483 0.0
C184 C 0.75757 0.9239 0.32997 0.0
C185 C 0.79653 0.93399 0.30602 0.0
H186 H 0.93518 0.89997 0.6643 0.0
H187 H 0.81807 0.74243 0.68347 0.0
H188 H 0.76918 0.74486 0.63503 0.0
H189 H 0.85167 0.9478 0.63235 0.0
H190 H 0.89828 0.98613 0.6012 0.0
H191 H 0.91984 0.97384 0.63962 0.0
H192 H 0.97068 0.93635 0.60798 0.0
H193 H 0.94964 0.94878 0.56951 0.0
H194 H 0.93735 0.88476 0.57886 0.0
H195 H 0.73584 0.76405 0.58176 0.0
H196 H 0.72603 0.79434 0.52713 0.0
H197 H 0.86846 0.93723 0.54212 0.0
C198 C 0.8986 0.86629 0.6589 0.0
C199 C 0.87999 0.82125 0.67812 0.0
C200 C 0.83279 0.77754 0.66937 0.0
C201 C 0.80474 0.77867 0.64193 0.0
C202 C 0.82469 0.82362 0.62323 0.0
C203 C 0.87087 0.86646 0.63133 0.0
C204 C 0.88713 0.90819 0.60562 0.0
C205 C 0.88933 0.95686 0.6206 0.0
C206 C 0.93926 0.92019 0.58955 0.0
C207 C 0.84313 0.88218 0.58151 0.0
C208 C 0.80695 0.83376 0.59226 0.0
C209 C 0.76383 0.80204 0.57331 0.0
C210 C 0.75839 0.81969 0.54234 0.0
C211 C 0.79631 0.86828 0.5303 0.0
C212 C 0.83855 0.90006 0.55063 0.0
H213 H 0.19976 0.8942 0.96665 0.0
H214 H 0.16628 0.01934 0.98234 0.0
H215 H 0.11291 0.99287 0.93174 0.0
H216 H 0.20828 0.89986 0.87783 0.0
H217 H 0.17851 0.83099 0.87357 0.0
H218 H 0.21535 0.86222 0.90973 0.0
H219 H 0.13628 0.80375 0.94652 0.0
H220 H 0.09897 0.77275 0.91048 0.0
H221 H 0.0754 0.80216 0.94016 0.0
H222 H 0.06 0.94847 0.8787 0.0
H223 H 0.01719 0.89429 0.82978 0.0
H224 H 0.08591 0.79868 0.85175 0.0
C225 C 0.18178 0.91664 0.9594 0.0
C226 C 0.18761 0.95917 0.97847 0.0
C227 C 0.16303 0.98706 0.96796 0.0
C228 C 0.13235 0.97202 0.93934 0.0
C229 C 0.12678 0.92912 0.92147 0.0
C230 C 0.15128 0.9022 0.9312 0.0
C231 C 0.13892 0.85692 0.90866 0.0
C232 C 0.18819 0.86288 0.89143 0.0
C233 C 0.11071 0.80589 0.92759 0.0
C234 C 0.10341 0.8621 0.88452 0.0
C235 C 0.09662 0.90385 0.89208 0.0
C236 C 0.06519 0.91574 0.87278 0.0
C237 C 0.04076 0.88455 0.84508 0.0
C238 C 0.04778 0.84187 0.83689 0.0
C239 C 0.07939 0.83076 0.8572 0.0
H240 H 0.10192 0.942 0.05448 0.0
H241 H 0.0666 0.90232 0.15752 0.0
H242 H 0.9791 0.89172 0.14995 0.0
H243 H 0.05074 0.02213 0.05358 0.0
H244 H 0.02624 0.00792 1.01221 0.0
H245 H 0.08016 0.9995 1.02318 0.0
H246 H 0.03112 0.90475 1.00395 0.0
H247 H 0.97683 0.91271 0.99259 0.0
H248 H 0.96763 0.86234 1.0206 0.0
H249 H 0.90083 0.89727 0.13321 0.0
H250 H 0.84106 0.92396 0.11028 0.0
H251 H 0.93009 0.96665 1.01894 0.0
C252 C 0.07479 0.92858 0.07503 0.0
C253 C 0.09022 0.92121 0.10638 0.0
C254 C 0.05488 0.90675 0.13317 0.0
C255 C 1.00518 0.9007 0.12905 0.0
C256 C 0.99171 0.91002 0.09806 0.0
C257 C 0.02561 0.92379 0.07149 0.0
C258 C 1.00527 0.93971 0.04233 0.0
C259 C 0.04283 0.99562 0.03227 0.0
C260 C 0.99456 0.90264 1.01314 0.0
C261 C 0.95542 0.93437 0.05696 0.0
C262 C 0.9477 0.91597 0.08884 0.0
C263 C 0.9061 0.91096 0.10811 0.0
C264 C 0.87224 0.92624 0.09481 0.0
C265 C 0.8806 0.94728 0.0627 0.0
C266 C 0.92218 0.95018 0.04338 0.0
H267 H 0.94921 0.96153 0.4054 0.0
H268 H 0.87502 0.05588 0.39882 0.0
H269 H 0.95918 0.13172 0.38687 0.0
H270 H 0.05698 0.05047 0.44759 0.0
H271 H 0.10266 0.03583 0.42697 0.0
H272 H 0.03581 0.98739 0.43029 0.0
H273 H 0.03167 0.97568 0.36681 0.0
H274 H 0.09871 0.02423 0.36329 0.0
H275 H 0.05026 0.03069 0.34075 0.0
H276 H 0.05194 0.19913 0.38154 0.0
H277 H 0.1471 0.25292 0.38436 0.0
H278 H 0.16068 0.11501 0.39438 0.0
C279 C 0.95064 0.99794 0.40075 0.0
C280 C 0.90568 1.00283 0.4031 0.0
C281 C 0.90909 0.05126 0.39734 0.0
C282 C 0.95666 0.09458 0.39028 0.0
C283 C 1.00052 0.08886 0.38888 0.0
C284 C 0.99798 0.04176 0.3938 0.0
C285 C 0.0514 0.04698 0.39368 0.0
C286 C 0.06233 0.02914 0.42659 0.0
C287 C 0.05841 0.01766 0.36438 0.0
C288 C 0.08421 0.10453 0.38933 0.0
C289 C 0.0542 0.12794 0.38598 0.0
C290 C 0.07598 0.18123 0.38364 0.0
C291 C 0.12997 0.21147 0.38528 0.0
C292 C 0.16119 0.18816 0.3896 0.0
C293 C 0.13786 0.134 0.39096 0.0
H294 H 0.09525 0.14704 0.77553 0.0
H295 H 0.01318 0.14468 0.68742 0.0
H296 H 0.01411 0.0653 0.66877 0.0
H297 H 0.17869 0.10641 0.7386 0.0
H298 H 0.17608 0.06773 0.77317 0.0
H299 H 0.16763 0.12313 0.77964 0.0
H300 H 0.07921 0.0666 0.80872 0.0
H301 H 0.0881 0.01138 0.80311 0.0
H302 H 0.03065 0.0102 0.78799 0.0
H303 H 0.02657 0.98634 0.65994 0.0
H304 H 0.03865 0.91013 0.66507 0.0
H305 H 0.11435 0.96836 0.75881 0.0
C306 C 0.07715 0.12981 0.75235 0.0
C307 C 0.05423 0.15204 0.73285 0.0
C308 C 0.03063 0.12801 0.70283 0.0
C309 C 0.03148 0.0833 0.69194 0.0
C310 C 0.05598 0.06335 0.71144 0.0
C311 C 0.07765 0.0856 0.74126 0.0
C312 C 0.10056 0.05659 0.75826 0.0
C313 C 0.15922 0.0905 0.76266 0.0
C314 C 0.07297 0.0349 0.79146 0.0
C315 C 0.08859 0.0143 0.73338 0.0
C316 C 0.06314 0.01879 0.70641 0.0
C317 C 0.04653 0.98262 0.68094 0.0
C318 C 0.05397 0.93966 0.68395 0.0
C319 C 0.07746 0.93311 0.71236 0.0
C320 C 0.09672 0.97218 0.73661 0.0
H321 H 0.6254 0.06894 0.07035 0.0
H322 H 0.60693 0.91802 0.04822 0.0
H323 H 0.5119 0.88219 0.04721 0.0
H324 H 0.51638 0.02738 0.1241 0.0
H325 H 0.49937 0.0744 0.11018 0.0
H326 H 0.56568 0.08815 0.1081 0.0
H327 H 0.56893 0.10631 0.0456 0.0
H328 H 0.50268 0.09283 0.04751 0.0
H329 H 0.52164 0.05814 1.01888 0.0
H330 H 0.41775 0.86245 0.05104 0.0
H331 H 0.33389 0.86124 0.05703 0.0
H332 H 0.415 0.02567 0.0757 0.0
C333 C 0.60154 0.02837 0.06505 0.0
C334 C 0.62386 0.99632 0.05934 0.0
C335 C 0.59092 0.94344 0.05256 0.0
C336 C 0.53683 0.92272 0.05201 0.0
C337 C 0.51618 0.95539 0.05812 0.0
C338 C 0.54765 0.00718 0.06429 0.0
C339 C 0.51605 0.03414 0.07035 0.0
C340 C 0.52491 0.05737 0.10526 0.0
C341 C 0.52804 0.07528 0.04401 0.0
C342 C 0.46174 0.98943 0.06684 0.0
C343 C 0.46252 0.94426 0.05987 0.0
C344 C 0.41684 0.89771 0.0563 0.0
C345 C 0.36931 0.89738 0.05982 0.0
C346 C 0.36762 0.94334 0.06672 0.0
C347 C 0.41473 0.98987 0.0702 0.0
H348 H 0.66408 0.65874 0.46481 0.0
H349 H 0.667 0.71413 0.36594 0.0
H350 H 0.59192 0.63042 0.35149 0.0
H351 H 0.62514 0.5251 0.44117 0.0
H352 H 0.58503 0.49957 0.47746 0.0
H353 H 0.64152 0.56228 0.47876 0.0
H354 H 0.58456 0.60126 0.49916 0.0
H355 H 0.52783 0.53888 0.49745 0.0
H356 H 0.52997 0.59181 0.47506 0.0
H357 H 0.51069 0.54294 0.34974 0.0
H358 H 0.43577 0.45644 0.35935 0.0
H359 H 0.48804 0.45894 0.45895 0.0
C360 C 0.64966 0.65303 0.4399 0.0
C361 C 0.67153 0.69308 0.41652 0.0
C362 C 0.65116 0.68398 0.38425 0.0
C363 C 0.60833 0.6366 0.37584 0.0
C364 C 0.58666 0.59853 0.39986 0.0
C365 C 0.60721 0.60601 0.43106 0.0
C366 C 0.57606 0.55964 0.4527 0.0
C367 C 0.6089 0.5352 0.46312 0.0
C368 C 0.55326 0.57377 0.48286 0.0
C369 C 0.53418 0.52524 0.42903 0.0
C370 C 0.54077 0.54824 0.39867 0.0
C371 C 0.50554 0.52434 0.37331 0.0
C372 C 0.46294 0.47537 0.37904 0.0
C373 C 0.45615 0.45081 0.40982 0.0
C374 C 0.49231 0.47642 0.43504 0.0
H375 H 0.09793 0.68081 0.7345 0.0
H376 H 0.93096 0.61014 0.72822 0.0
H377 H 0.92452 0.52413 0.72714 0.0
H378 H 0.11363 0.59148 0.68108 0.0
H379 H 0.16436 0.59203 0.70532 0.0
H380 H 0.15563 0.64779 0.70476 0.0
H381 H 0.14724 0.64533 0.76844 0.0
H382 H 0.15606 0.58965 0.76919 0.0
H383 H 0.09957 0.58728 0.78831 0.0
H384 H 0.93688 0.44475 0.72711 0.0
H385 H 0.9668 0.38034 0.73007 0.0
H386 H 0.12526 0.50386 0.73714 0.0
C387 C 0.05995 0.64734 0.73273 0.0
C388 C 0.01494 0.65247 0.73132 0.0
C389 C 0.96605 0.6074 0.72931 0.0
C390 C 0.962 0.55829 0.72862 0.0
C391 C 1.00717 0.55467 0.73007 0.0
C392 C 0.0552 0.59809 0.7322 0.0
C393 C 0.09778 0.58393 0.73429 0.0
C394 C 0.13504 0.60506 0.70459 0.0
C395 C 0.12686 0.60265 0.76701 0.0
C396 C 0.06633 0.52577 0.73304 0.0
C397 C 0.01414 0.50947 0.73045 0.0
C398 C 0.9777 0.45722 0.72911 0.0
C399 C 0.99505 0.42085 0.73074 0.0
C400 C 0.04838 0.43681 0.73383 0.0
C401 C 0.08421 0.49012 0.73477 0.0
loop_
_geom_bond_atom_site_label_1
_geom_bond_atom_site_label_2
_geom_bond_distance
_geom_bond_site_symmetry_2
_ccdc_geom_bond_type
Mg0 O7 2.141 . S
Mg0 O8 2.048 . S
Mg0 O9 2.048 . S
Mg0 O12 2.141 1_554 S
C1 O2 1.313 . S
C1 O8 1.195 . S
O2 C1 1.313 . S
C3 O4 1.245 1_556 S
C3 O12 1.289 1_565 S
O4 C3 1.245 1_554 S
C5 O6 1.245 1_545 S
C5 O7 1.289 . S
O6 C5 1.245 1_565 S
O7 Mg0 2.141 . S
O7 C5 1.289 . S
O8 Mg0 2.048 . S
O8 C1 1.195 . S
O9 Mg0 2.048 . S
O9 C10 1.195 . S
C10 O9 1.195 . S
C10 O11 1.313 1_545 S
O11 C10 1.313 1_565 S
O12 Mg0 2.141 1_556 S
O12 C3 1.289 1_545 S
Mg13 O20 2.141 . S
Mg13 O21 2.048 . S
Mg13 O22 2.048 . S
Mg13 O25 2.141 . S
C14 O15 1.313 . S
C14 O21 1.195 . S
O15 C14 1.313 . S
C16 O17 1.245 . S
C16 O25 1.289 . S
O17 C16 1.245 . S
C18 O19 1.245 . S
C18 O20 1.289 . S
O19 C18 1.245 . S
O20 Mg13 2.141 . S
O20 C18 1.289 . S
O21 Mg13 2.048 . S
O21 C14 1.195 . S
O22 Mg13 2.048 . S
O22 C23 1.195 . S
C23 O22 1.195 . S
C23 O24 1.313 . S
O24 C23 1.313 . S
O25 Mg13 2.141 . S
O25 C16 1.289 . S
Mg26 O33 2.141 . S
Mg26 O34 2.048 1_455 S
Mg26 O35 2.048 . S
Mg26 O38 2.141 . S
C27 O28 1.313 . S
C27 O34 1.195 1_455 S
O28 C27 1.313 . S
C29 O30 1.245 . S
C29 O38 1.289 . S
O30 C29 1.245 . S
C31 O32 1.245 . S
C31 O33 1.289 . S
O32 C31 1.245 . S
O33 Mg26 2.141 . S
O33 C31 1.289 . S
O34 Mg26 2.048 1_655 S
O34 C27 1.195 1_655 S
O35 Mg26 2.048 . S
O35 C36 1.195 . S
C36 O35 1.195 . S
C36 O37 1.313 . S
O37 C36 1.313 . S
O38 Mg26 2.141 . S
O38 C29 1.289 . S
Mg39 O46 2.141 . S
Mg39 O47 2.048 . S
Mg39 O48 2.048 . S
Mg39 O51 2.141 1_554 S
C40 O41 1.313 . S
C40 O47 1.195 . S
O41 C40 1.313 . S
C42 O43 1.245 1_556 S
C42 O51 1.289 . S
O43 C42 1.245 1_554 S
C44 O45 1.245 . S
C44 O46 1.289 . S
O45 C44 1.245 . S
O46 Mg39 2.141 . S
O46 C44 1.289 . S
O47 Mg39 2.048 . S
O47 C40 1.195 . S
O48 Mg39 2.048 . S
O48 C49 1.195 . S
C49 O48 1.195 . S
C49 O50 1.313 . S
O50 C49 1.313 . S
O51 Mg39 2.141 1_556 S
O51 C42 1.289 . S
Mg52 O59 2.141 . S
Mg52 O60 2.048 . S
Mg52 O61 2.048 . S
Mg52 O64 2.141 . S
C53 O54 1.313 . S
C53 O60 1.195 . S
O54 C53 1.313 . S
C55 O56 1.245 . S
C55 O64 1.289 . S
O56 C55 1.245 . S
C57 O58 1.245 . S
C57 O59 1.289 . S
O58 C57 1.245 . S
O59 Mg52 2.141 . S
O59 C57 1.289 . S
O60 Mg52 2.048 . S
O60 C53 1.195 . S
O61 Mg52 2.048 . S
O61 C62 1.195 . S
C62 O61 1.195 . S
C62 O63 1.313 . S
O63 C62 1.313 . S
O64 Mg52 2.141 . S
O64 C55 1.289 . S
Mg65 O72 2.141 . S
Mg65 O73 2.048 . S
Mg65 O74 2.048 . S
Mg65 O77 2.141 . S
C66 O67 1.313 . S
C66 O73 1.195 . S
O67 C66 1.313 . S
C68 O69 1.245 . S
C68 O77 1.289 1_655 S
O69 C68 1.245 . S
C70 O71 1.245 1_455 S
C70 O72 1.289 . S
O71 C70 1.245 1_655 S
O72 Mg65 2.141 . S
O72 C70 1.289 . S
O73 Mg65 2.048 . S
O73 C66 1.195 . S
O74 Mg65 2.048 . S
O74 C75 1.195 . S
C75 O74 1.195 . S
C75 O76 1.313 1_455 S
O76 C75 1.313 1_655 S
O77 Mg65 2.141 . S
O77 C68 1.289 1_455 S
H78 C90 0.930 . S
H79 C92 0.930 . S
H80 C93 0.930 . S
H81 C97 0.959 . S
H82 C97 0.959 . S
H83 C97 0.961 . S
H84 C98 0.960 . S
H85 C98 0.961 . S
H86 C98 0.959 . S
H87 C101 0.929 . S
H88 C102 0.931 . S
H89 C104 0.930 . S
C90 H78 0.930 . S
C90 C91 1.399 . S
C90 C95 1.399 . S
C91 C90 1.399 . S
C91 C92 1.376 . S
C92 H79 0.930 . S
C92 C91 1.376 . S
C92 C93 1.388 . S
C93 H80 0.930 . S
C93 C92 1.388 . S
C93 C94 1.390 . S
C94 C93 1.390 . S
C94 C95 1.394 . S
C94 C100 1.465 . S
C95 C90 1.399 . S
C95 C94 1.394 . S
C95 C96 1.516 . S
C96 C95 1.516 . S
C96 C97 1.502 . S
C96 C98 1.561 . S
C96 C99 1.526 . S
C97 H81 0.959 . S
C97 H82 0.959 . S
C97 H83 0.961 . S
C97 C96 1.502 . S
C98 H84 0.960 . S
C98 H85 0.961 . S
C98 H86 0.959 . S
C98 C96 1.561 . S
C99 C96 1.526 . S
C99 C100 1.396 . S
C99 C104 1.390 . S
C100 C94 1.465 . S
C100 C99 1.396 . S
C100 C101 1.399 . S
C101 H87 0.929 . S
C101 C100 1.399 . S
C101 C102 1.385 . S
C102 H88 0.931 . S
C102 C101 1.385 . S
C102 C103 1.389 . S
C103 C102 1.389 . S
C103 C104 1.387 . S
C104 H89 0.930 . S
C104 C99 1.390 . S
C104 C103 1.387 . S
H105 C117 0.930 . S
H106 C119 0.930 . S
H107 C120 0.930 . S
H108 C124 0.959 . S
H109 C124 0.959 . S
H110 C124 0.961 . S
H111 C125 0.960 . S
H112 C125 0.961 . S
H113 C125 0.959 . S
H114 C128 0.929 . S
H115 C129 0.931 . S
H116 C131 0.930 . S
C117 H105 0.930 . S
C117 C118 1.399 . S
C117 C122 1.399 . S
C118 C117 1.399 . S
C118 C119 1.376 . S
C119 H106 0.930 . S
C119 C118 1.376 . S
C119 C120 1.388 . S
C120 H107 0.930 . S
C120 C119 1.388 . S
C120 C121 1.390 . S
C121 C120 1.390 . S
C121 C122 1.394 . S
C121 C127 1.465 . S
C122 C117 1.399 . S
C122 C121 1.394 . S
C122 C123 1.516 . S
C123 C122 1.516 . S
C123 C124 1.502 . S
C123 C125 1.561 . S
C123 C126 1.526 . S
C124 H108 0.959 . S
C124 H109 0.959 . S
C124 H110 0.961 . S
C124 C123 1.502 . S
C125 H111 0.960 . S
C125 H112 0.961 . S
C125 H113 0.959 . S
C125 C123 1.561 . S
C126 C123 1.526 . S
C126 C127 1.396 . S
C126 C131 1.390 . S
C127 C121 1.465 . S
C127 C126 1.396 . S
C127 C128 1.399 . S
C128 H114 0.929 . S
C128 C127 1.399 . S
C128 C129 1.385 . S
C129 H115 0.931 . S
C129 C128 1.385 . S
C129 C130 1.389 . S
C130 C129 1.389 . S
C130 C131 1.387 . S
C131 H116 0.930 . S
C131 C126 1.390 . S
C131 C130 1.387 . S
H132 C144 0.930 . S
H133 C146 0.930 . S
H134 C147 0.930 . S
H135 C151 0.959 . S
H136 C151 0.959 . S
H137 C151 0.961 . S
H138 C152 0.960 . S
H139 C152 0.961 . S
H140 C152 0.959 . S
H141 C155 0.929 . S
H142 C156 0.931 . S
H143 C158 0.930 . S
C144 H132 0.930 . S
C144 C145 1.399 . S
C144 C149 1.399 . S
C145 C144 1.399 . S
C145 C146 1.376 . S
C146 H133 0.930 . S
C146 C145 1.376 . S
C146 C147 1.388 . S
C147 H134 0.930 . S
C147 C146 1.388 . S
C147 C148 1.390 . S
C148 C147 1.390 . S
C148 C149 1.394 . S
C148 C154 1.465 . S
C149 C144 1.399 . S
C149 C148 1.394 . S
C149 C150 1.516 . S
C150 C149 1.516 . S
C150 C151 1.502 . S
C150 C152 1.561 . S
C150 C153 1.526 . S
C151 H135 0.959 . S
C151 H136 0.959 . S
C151 H137 0.961 . S
C151 C150 1.502 . S
C152 H138 0.960 . S
C152 H139 0.961 . S
C152 H140 0.959 . S
C152 C150 1.561 . S
C153 C150 1.526 . S
C153 C154 1.396 . S
C153 C158 1.390 . S
C154 C148 1.465 . S
C154 C153 1.396 . S
C154 C155 1.399 . S
C155 H141 0.929 . S
C155 C154 1.399 . S
C155 C156 1.385 . S
C156 H142 0.931 . S
C156 C155 1.385 . S
C156 C157 1.389 . S
C157 C156 1.389 . S
C157 C158 1.387 . S
C158 H143 0.930 . S
C158 C153 1.390 . S
C158 C157 1.387 . S
H159 C171 0.930 1_545 S
H160 C173 0.930 . S
H161 C174 0.930 . S
H162 C178 0.959 . S
H163 C178 0.959 . S
H164 C178 0.961 1_545 S
H165 C179 0.960 . S
H166 C179 0.961 . S
H167 C179 0.959 . S
H168 C182 0.929 . S
H169 C183 0.931 . S
H170 C185 0.930 . S
C171 H159 0.930 1_565 S
C171 C172 1.399 . S
C171 C176 1.399 . S
C172 C171 1.399 . S
C172 C173 1.376 . S
C173 H160 0.930 . S
C173 C172 1.376 . S
C173 C174 1.388 . S
C174 H161 0.930 . S
C174 C173 1.388 . S
C174 C175 1.390 . S
C175 C174 1.390 . S
C175 C176 1.394 . S
C175 C181 1.465 . S
C176 C171 1.399 . S
C176 C175 1.394 . S
C176 C177 1.516 . S
C177 C176 1.516 . S
C177 C178 1.502 . S
C177 C179 1.561 1_565 S
C177 C180 1.526 . S
C178 H162 0.959 . S
C178 H163 0.959 . S
C178 H164 0.961 1_565 S
C178 C177 1.502 . S
C179 H165 0.960 . S
C179 H166 0.961 . S
C179 H167 0.959 . S
C179 C177 1.561 1_545 S
C180 C177 1.526 . S
C180 C181 1.396 . S
C180 C185 1.390 . S
C181 C175 1.465 . S
C181 C180 1.396 . S
C181 C182 1.399 . S
C182 H168 0.929 . S
C182 C181 1.399 . S
C182 C183 1.385 . S
C183 H169 0.931 . S
C183 C182 1.385 . S
C183 C184 1.389 . S
C184 C183 1.389 . S
C184 C185 1.387 . S
C185 H170 0.930 . S
C185 C180 1.390 . S
C185 C184 1.387 . S
H186 C198 0.930 . S
H187 C200 0.930 . S
H188 C201 0.930 . S
H189 C205 0.959 . S
H190 C205 0.959 . S
H191 C205 0.961 . S
H192 C206 0.960 . S
H193 C206 0.961 . S
H194 C206 0.959 . S
H195 C209 0.929 . S
H196 C210 0.931 . S
H197 C212 0.930 . S
C198 H186 0.930 . S
C198 C199 1.399 . S
C198 C203 1.399 . S
C199 C198 1.399 . S
C199 C200 1.376 . S
C200 H187 0.930 . S
C200 C199 1.376 . S
C200 C201 1.388 . S
C201 H188 0.930 . S
C201 C200 1.388 . S
C201 C202 1.390 . S
C202 C201 1.390 . S
C202 C203 1.394 . S
C202 C208 1.465 . S
C203 C198 1.399 . S
C203 C202 1.394 . S
C203 C204 1.516 . S
C204 C203 1.516 . S
C204 C205 1.502 . S
C204 C206 1.561 . S
C204 C207 1.526 . S
C205 H189 0.959 . S
C205 H190 0.959 . S
C205 H191 0.961 . S
C205 C204 1.502 . S
C206 H192 0.960 . S
C206 H193 0.961 . S
C206 H194 0.959 . S
C206 C204 1.561 . S
C207 C204 1.526 . S
C207 C208 1.396 . S
C207 C212 1.390 . S
C208 C202 1.465 . S
C208 C207 1.396 . S
C208 C209 1.399 . S
C209 H195 0.929 . S
C209 C208 1.399 . S
C209 C210 1.385 . S
C210 H196 0.931 . S
C210 C209 1.385 . S
C210 C211 1.389 . S
C211 C210 1.389 . S
C211 C212 1.387 . S
C212 H197 0.930 . S
C212 C207 1.390 . S
C212 C211 1.387 . S
H213 C225 0.930 . S
H214 C227 0.930 1_545 S
H215 C228 0.930 . S
H216 C232 0.959 . S
H217 C232 0.959 . S
H218 C232 0.961 . S
H219 C233 0.960 . S
H220 C233 0.961 . S
H221 C233 0.959 . S
H222 C236 0.929 . S
H223 C237 0.931 . S
H224 C239 0.930 . S
C225 H213 0.930 . S
C225 C226 1.399 . S
C225 C230 1.399 . S
C226 C225 1.399 . S
C226 C227 1.376 . S
C227 H214 0.930 1_565 S
C227 C226 1.376 . S
C227 C228 1.388 . S
C228 H215 0.930 . S
C228 C227 1.388 . S
C228 C229 1.390 . S
C229 C228 1.390 . S
C229 C230 1.394 . S
C229 C235 1.465 . S
C230 C225 1.399 . S
C230 C229 1.394 . S
C230 C231 1.516 . S
C231 C230 1.516 . S
C231 C232 1.502 . S
C231 C233 1.561 . S
C231 C234 1.526 . S
C232 H216 0.959 . S
C232 H217 0.959 . S
C232 H218 0.961 . S
C232 C231 1.502 . S
C233 H219 0.960 . S
C233 H220 0.961 . S
C233 H221 0.959 . S
C233 C231 1.561 . S
C234 C231 1.526 . S
C234 C235 1.396 . S
C234 C239 1.390 . S
C235 C229 1.465 . S
C235 C234 1.396 . S
C235 C236 1.399 . S
C236 H222 0.929 . S
C236 C235 1.399 . S
C236 C237 1.385 . S
C237 H223 0.931 . S
C237 C236 1.385 . S
C237 C238 1.389 . S
C238 C237 1.389 . S
C238 C239 1.387 . S
C239 H224 0.930 . S
C239 C234 1.390 . S
C239 C238 1.387 . S
H240 C252 0.930 . S
H241 C254 0.930 1_565 S
H242 C255 0.930 1_565 S
H243 C259 0.959 . S
H244 C259 0.959 1_556 S
H245 C259 0.961 1_556 S
H246 C260 0.960 . S
H247 C260 0.961 . S
H248 C260 0.959 1_665 S
H249 C263 0.929 1_565 S
H250 C264 0.931 . S
H251 C266 0.930 . S
C252 H240 0.930 . S
C252 C253 1.399 . S
C252 C257 1.399 . S
C253 C252 1.399 . S
C253 C254 1.376 . S
C254 H241 0.930 1_545 S
C254 C253 1.376 . S
C254 C255 1.388 . S
C255 H242 0.930 1_545 S
C255 C254 1.388 . S
C255 C256 1.390 . S
C256 C255 1.390 . S
C256 C257 1.394 . S
C256 C262 1.465 1_455 S
C257 C252 1.399 . S
C257 C256 1.394 . S
C257 C258 1.516 . S
C258 C257 1.516 . S
C258 C259 1.502 . S
C258 C260 1.561 1_554 S
C258 C261 1.526 1_455 S
C259 H243 0.959 . S
C259 H244 0.959 1_554 S
C259 H245 0.961 1_554 S
C259 C258 1.502 . S
C260 H246 0.960 . S
C260 H247 0.961 . S
C260 H248 0.959 1_445 S
C260 C258 1.561 1_556 S
C261 C258 1.526 1_655 S
C261 C262 1.396 . S
C261 C266 1.390 . S
C262 C256 1.465 1_655 S
C262 C261 1.396 . S
C262 C263 1.399 . S
C263 H249 0.929 1_545 S
C263 C262 1.399 . S
C263 C264 1.385 . S
C264 H250 0.931 . S
C264 C263 1.385 . S
C264 C265 1.389 . S
C265 C264 1.389 . S
C265 C266 1.387 . S
C266 H251 0.930 . S
C266 C261 1.390 . S
C266 C265 1.387 . S
H267 C279 0.930 . S
H268 C281 0.930 . S
H269 C282 0.930 . S
H270 C286 0.959 1_565 S
H271 C286 0.959 . S
H272 C286 0.961 1_565 S
H273 C287 0.960 1_655 S
H274 C287 0.961 . S
H275 C287 0.959 . S
H276 C290 0.929 . S
H277 C291 0.931 . S
H278 C293 0.930 . S
C279 H267 0.930 . S
C279 C280 1.399 . S
C279 C284 1.399 1_565 S
C280 C279 1.399 . S
C280 C281 1.376 . S
C281 H268 0.930 . S
C281 C280 1.376 . S
C281 C282 1.388 1_565 S
C282 H269 0.930 . S
C282 C281 1.388 1_545 S
C282 C283 1.390 . S
C283 C282 1.390 . S
C283 C284 1.394 . S
C283 C289 1.465 1_655 S
C284 C279 1.399 1_545 S
C284 C283 1.394 . S
C284 C285 1.516 1_655 S
C285 C284 1.516 1_455 S
C285 C286 1.502 . S
C285 C287 1.561 . S
C285 C288 1.526 . S
C286 H270 0.959 1_545 S
C286 H271 0.959 . S
C286 H272 0.961 1_545 S
C286 C285 1.502 . S
C287 H273 0.960 1_455 S
C287 H274 0.961 . S
C287 H275 0.959 . S
C287 C285 1.561 . S
C288 C285 1.526 . S
C288 C289 1.396 . S
C288 C293 1.390 . S
C289 C283 1.465 1_455 S
C289 C288 1.396 . S
C289 C290 1.399 . S
C290 H276 0.929 . S
C290 C289 1.399 . S
C290 C291 1.385 . S
C291 H277 0.931 . S
C291 C290 1.385 . S
C291 C292 1.389 . S
C292 C291 1.389 . S
C292 C293 1.387 . S
C293 H278 0.930 . S
C293 C288 1.390 . S
C293 C292 1.387 . S
H294 C306 0.930 . S
H295 C308 0.930 . S
H296 C309 0.930 . S
H297 C313 0.959 . S
H298 C313 0.959 . S
H299 C313 0.961 . S
H300 C314 0.960 . S
H301 C314 0.961 1_565 S
H302 C314 0.959 . S
H303 C317 0.929 . S
H304 C318 0.931 . S
H305 C320 0.930 . S
C306 H294 0.930 . S
C306 C307 1.399 . S
C306 C311 1.399 . S
C307 C306 1.399 . S
C307 C308 1.376 . S
C308 H295 0.930 . S
C308 C307 1.376 . S
C308 C309 1.388 . S
C309 H296 0.930 . S
C309 C308 1.388 . S
C309 C310 1.390 . S
C310 C309 1.390 . S
C310 C311 1.394 . S
C310 C316 1.465 . S
C311 C306 1.399 . S
C311 C310 1.394 . S
C311 C312 1.516 . S
C312 C311 1.516 . S
C312 C313 1.502 . S
C312 C314 1.561 1_455 S
C312 C315 1.526 . S
C313 H297 0.959 . S
C313 H298 0.959 . S
C313 H299 0.961 . S
C313 C312 1.502 . S
C314 H300 0.960 . S
C314 H301 0.961 1_545 S
C314 H302 0.959 . S
C314 C312 1.561 1_655 S
C315 C312 1.526 . S
C315 C316 1.396 . S
C315 C320 1.390 1_545 S
C316 C310 1.465 . S
C316 C315 1.396 . S
C316 C317 1.399 1_545 S
C317 H303 0.929 . S
C317 C316 1.399 1_565 S
C317 C318 1.385 . S
C318 H304 0.931 . S
C318 C317 1.385 . S
C318 C319 1.389 . S
C319 C318 1.389 . S
C319 C320 1.387 . S
C320 H305 0.930 . S
C320 C315 1.390 1_565 S
C320 C319 1.387 . S
H321 C333 0.930 . S
H322 C335 0.930 . S
H323 C336 0.930 . S
H324 C340 0.959 . S
H325 C340 0.959 1_556 S
H326 C340 0.961 1_556 S
H327 C341 0.960 . S
H328 C341 0.961 . S
H329 C341 0.959 1_565 S
H330 C344 0.929 1_565 S
H331 C345 0.931 1_565 S
H332 C347 0.930 . S
C333 H321 0.930 . S
C333 C334 1.399 . S
C333 C338 1.399 . S
C334 C333 1.399 . S
C334 C335 1.376 . S
C335 H322 0.930 . S
C335 C334 1.376 . S
C335 C336 1.388 . S
C336 H323 0.930 . S
C336 C335 1.388 . S
C336 C337 1.390 . S
C337 C336 1.390 . S
C337 C338 1.394 . S
C337 C343 1.465 . S
C338 C333 1.399 . S
C338 C337 1.394 . S
C338 C339 1.516 . S
C339 C338 1.516 . S
C339 C340 1.502 . S
C339 C341 1.561 1_554 S
C339 C342 1.526 . S
C340 H324 0.959 . S
C340 H325 0.959 1_554 S
C340 H326 0.961 1_554 S
C340 C339 1.502 . S
C341 H327 0.960 . S
C341 H328 0.961 . S
C341 H329 0.959 1_545 S
C341 C339 1.561 1_556 S
C342 C339 1.526 . S
C342 C343 1.396 . S
C342 C347 1.390 . S
C343 C337 1.465 . S
C343 C342 1.396 . S
C343 C344 1.399 . S
C344 H330 0.929 1_545 S
C344 C343 1.399 . S
C344 C345 1.385 . S
C345 H331 0.931 1_545 S
C345 C344 1.385 . S
C345 C346 1.389 . S
C346 C345 1.389 . S
C346 C347 1.387 . S
C347 H332 0.930 . S
C347 C342 1.390 . S
C347 C346 1.387 . S
H348 C360 0.930 . S
H349 C362 0.930 . S
H350 C363 0.930 . S
H351 C367 0.959 . S
H352 C367 0.959 . S
H353 C367 0.961 . S
H354 C368 0.960 . S
H355 C368 0.961 . S
H356 C368 0.959 . S
H357 C371 0.929 . S
H358 C372 0.931 . S
H359 C374 0.930 . S
C360 H348 0.930 . S
C360 C361 1.399 . S
C360 C365 1.399 . S
C361 C360 1.399 . S
C361 C362 1.376 . S
C362 H349 0.930 . S
C362 C361 1.376 . S
C362 C363 1.388 . S
C363 H350 0.930 . S
C363 C362 1.388 . S
C363 C364 1.390 . S
C364 C363 1.390 . S
C364 C365 1.394 . S
C364 C370 1.465 . S
C365 C360 1.399 . S
C365 C364 1.394 . S
C365 C366 1.516 . S
C366 C365 1.516 . S
C366 C367 1.502 . S
C366 C368 1.561 . S
C366 C369 1.526 . S
C367 H351 0.959 . S
C367 H352 0.959 . S
C367 H353 0.961 . S
C367 C366 1.502 . S
C368 H354 0.960 . S
C368 H355 0.961 . S
C368 H356 0.959 . S
C368 C366 1.561 . S
C369 C366 1.526 . S
C369 C370 1.396 . S
C369 C374 1.390 . S
C370 C364 1.465 . S
C370 C369 1.396 . S
C370 C371 1.399 . S
C371 H357 0.929 . S
C371 C370 1.399 . S
C371 C372 1.385 . S
C372 H358 0.931 . S
C372 C371 1.385 . S
C372 C373 1.389 . S
C373 C372 1.389 . S
C373 C374 1.387 . S
C374 H359 0.930 . S
C374 C369 1.390 . S
C374 C373 1.387 . S
H375 C387 0.930 . S
H376 C389 0.930 . S
H377 C390 0.930 . S
H378 C394 0.959 . S
H379 C394 0.959 . S
H380 C394 0.961 . S
H381 C395 0.960 . S
H382 C395 0.961 . S
H383 C395 0.959 1_655 S
H384 C398 0.929 . S
H385 C399 0.931 1_655 S
H386 C401 0.930 . S
C387 H375 0.930 . S
C387 C388 1.399 . S
C387 C392 1.399 . S
C388 C387 1.399 . S
C388 C389 1.376 1_455 S
C389 H376 0.930 . S
C389 C388 1.376 1_655 S
C389 C390 1.388 . S
C390 H377 0.930 . S
C390 C389 1.388 . S
C390 C391 1.390 1_655 S
C391 C390 1.390 1_455 S
C391 C392 1.394 . S
C391 C397 1.465 . S
C392 C387 1.399 . S
C392 C391 1.394 . S
C392 C393 1.516 . S
C393 C392 1.516 . S
C393 C394 1.502 . S
C393 C395 1.561 . S
C393 C396 1.526 . S
C394 H378 0.959 . S
C394 H379 0.959 . S
C394 H380 0.961 . S
C394 C393 1.502 . S
C395 H381 0.960 . S
C395 H382 0.961 . S
C395 H383 0.959 1_455 S
C395 C393 1.561 . S
C396 C393 1.526 . S
C396 C397 1.396 . S
C396 C401 1.390 . S
C397 C391 1.465 . S
C397 C396 1.396 . S
C397 C398 1.399 1_455 S
C398 H384 0.929 . S
C398 C397 1.399 1_655 S
C398 C399 1.385 1_655 S
C399 H385 0.931 1_455 S
C399 C398 1.385 1_455 S
C399 C400 1.389 . S
C400 C399 1.389 . S
C400 C401 1.387 . S
C401 H386 0.930 . S
C401 C396 1.390 . S
C401 C400 1.387 . S
C91 C1 1.685 . S
C103 C16 1.684 . S
C118 C14 1.721 . S
C130 C29 1.691 . S
C145 C42 1.691 . S
C157 C27 1.721 1_655 S
C172 C40 1.724 1_565 S
C184 C55 1.711 . S
C199 C68 1.719 . S
C211 C53 1.718 . S
C226 C3 1.719 . S
C238 C66 1.702 . S
C253 C10 0.982 . S
C265 C49 0.986 . S
C280 C62 0.981 . S
C292 C23 0.984 . S
C307 C36 1.009 . S
C319 C75 1.007 . S
C334 C44 1.447 . S
C346 C5 1.433 . S
C361 C57 1.436 . S
C373 C18 1.450 . S
C388 C70 1.435 . S
C400 C31 1.451 . S
