# Generated by pormake.
# Topology nbo, (4)-cn, num edge types: 1
# Building blocks:
#     Node 0, Type 0, BuildingBlock: KOZSID_clean_sbu_0, # of connection points: 4
#     Node 1, Type 0, BuildingBlock: KOZSID_clean_sbu_0, # of connection points: 4
#     Node 2, Type 0, BuildingBlock: KOZSID_clean_sbu_0, # of connection points: 4
#     Node 3, Type 0, BuildingBlock: KOZSID_clean_sbu_0, # of connection points: 4
#     Node 4, Type 0, BuildingBlock: KOZSID_clean_sbu_0, # of connection points: 4
#     Node 5, Type 0, BuildingBlock: KOZSID_clean_sbu_0, # of connection points: 4
#     Edge 6, Type (0, 0), BuildingBlock: UKIBIB_clean_linker_0, # of connection points: 2
#     Edge 7, Type (0, 0), BuildingBlock: UKIBIB_clean_linker_0, # of connection points: 2
#     Edge 8, Type (0, 0), BuildingBlock: UKIBIB_clean_linker_0, # of connection points: 2
#     Edge 9, Type (0, 0), BuildingBlock: UKIBIB_clean_linker_0, # of connection points: 2
#     Edge 10, Type (0, 0), BuildingBlock: UKIBIB_clean_linker_0, # of connection points: 2
#     Edge 11, Type (0, 0), BuildingBlock: UKIBIB_clean_linker_0, # of connection points: 2
#     Edge 12, Type (0, 0), BuildingBlock: UKIBIB_clean_linker_0, # of connection points: 2
#     Edge 13, Type (0, 0), BuildingBlock: UKIBIB_clean_linker_0, # of connection points: 2
#     Edge 14, Type (0, 0), BuildingBlock: UKIBIB_clean_linker_0, # of connection points: 2
#     Edge 15, Type (0, 0), BuildingBlock: UKIBIB_clean_linker_0, # of connection points: 2
#     Edge 16, Type (0, 0), BuildingBlock: UKIBIB_clean_linker_0, # of connection points: 2
#     Edge 17, Type (0, 0), BuildingBlock: UKIBIB_clean_linker_0, # of connection points: 2
# Relax obj value: 0.000
# Max RMSD: 0.000
# Mean RMSD: 0.000
data_MOF--net-nbo--node1-KOZSID_clean_sbu_0--edge1-UKIBIB_clean_linker_0
_symmetry_space_group_name_H-M    P1
_symmetry_Int_Tables_number       1
_symmetry_cell_setting            triclinic
loop_
_symmetry_equiv_pos_as_xyz
'x, y, z'
_cell_length_a     43.914
_cell_length_b     50.567
_cell_length_c     47.241
_cell_angle_alpha  107.2
_cell_angle_beta   10707.197
_cell_angle_gamma 107.2
loop_
_atom_site_label
_atom_site_type_symbol
_atom_site_fract_x
_atom_site_fract_y
_atom_site_fract_z
_atom_type_partial_charge
C0 C 0.78157 0.94316 0.43143 0.0
C1 C 0.76308 0.93866 0.40329 0.0
C2 C 0.78181 0.93373 0.38209 0.0
C3 C 0.8121 0.93524 0.39672 0.0
N4 N 0.81156 0.94092 0.42695 0.0
Co5 Co -0.15206 -0.04903 0.45932 0.0
N6 N -0.12334 0.9457 0.42769 0.0
C7 C -0.13146 0.93799 0.39715 0.0
C8 C -0.10396 0.93429 0.38241 0.0
C9 C -0.07997 0.93932 0.40394 0.0
C10 C -0.09171 0.94643 0.43219 0.0
N11 N -0.11467 -0.03899 0.4917 0.0
C12 C -0.08466 -0.04123 0.48722 0.0
C13 C -0.06618 -0.03672 0.51535 0.0
C14 C -0.08492 -0.03179 0.53656 0.0
C15 C -0.1152 -0.03331 0.52193 0.0
N16 N 0.82025 -0.04377 0.49096 0.0
C17 C -0.17266 -0.03606 0.5215 0.0
C18 C 0.80087 -0.03235 0.53623 0.0
C19 C 0.77688 -0.03738 0.51471 0.0
C20 C 0.78861 -0.04449 0.48646 0.0
N21 N 0.84243 0.90394 0.45707 0.0
C22 C 0.84784 0.85062 0.45902 0.0
C23 C -0.15698 0.87078 0.48414 0.0
C24 C -0.15958 0.89677 0.48202 0.0
C25 C 0.84978 0.85791 0.4329 0.0
C26 C 0.84702 0.88448 0.43307 0.0
N27 N -0.14552 -0.00201 0.46158 0.0
C28 C -0.15288 0.04403 0.48575 0.0
C29 C -0.15076 0.05131 0.45963 0.0
C30 C 0.85388 0.03115 0.43451 0.0
C31 C -0.14454 0.00517 0.43662 0.0
C32 C -0.15012 0.01746 0.48558 0.0
H33 H 0.85963 -0.0084 0.41918 0.0
H34 H -0.15157 0.01284 0.50361 0.0
H35 H -0.16273 0.91033 0.49947 0.0
H36 H 0.84847 0.8891 0.41504 0.0
C37 C 0.83855 0.93309 0.3821 0.0
C38 C 0.77074 -0.05028 0.45896 0.0
C39 C -0.07384 -0.04805 0.45969 0.0
C40 C -0.14164 -0.03116 0.53655 0.0
H41 H 0.7417 0.93914 0.40035 0.0
H42 H 0.77616 0.92993 0.36127 0.0
H43 H -0.1032 0.92922 0.3615 0.0
H44 H -0.05901 0.93839 0.40107 0.0
H45 H -0.04479 -0.03721 0.5183 0.0
H46 H -0.07925 -0.028 0.55738 0.0
H47 H 0.8001 -0.02728 0.55715 0.0
H48 H 0.75592 -0.03646 0.51757 0.0
H49 H -0.15844 0.86677 0.50254 0.0
H50 H 0.85304 0.84479 0.41515 0.0
H51 H -0.15613 0.05715 0.50349 0.0
H52 H 0.85534 0.03516 0.41611 0.0
C53 C 0.51165 0.00507 0.06529 0.0
C54 C 0.53676 0.01006 0.08902 0.0
C55 C 0.56491 0.01841 0.07902 0.0
C56 C 0.5577 0.01859 0.04905 0.0
N57 N 0.52496 0.01046 0.04096 0.0
Co58 Co 0.50055 0.00136 9e-05 0.0
N59 N 0.23847 -0.08904 0.90313 0.0
C60 C 0.57343 0.02116 9e-05 0.0
C61 C 0.29277 -0.07224 0.89939 0.0
C62 C 0.27635 -0.07673 0.87284 0.0
C63 C 0.24256 -0.08715 0.87486 0.0
N64 N 0.17191 0.89143 0.87763 0.0
C65 C 0.18522 0.89683 0.85329 0.0
C66 C 0.1601 0.89183 0.82957 0.0
C67 C 0.13195 0.88349 0.83956 0.0
C68 C 0.13916 0.88332 0.86953 0.0
N69 N 0.45839 0.99093 0.01546 0.0
C70 C 0.42768 0.98155 9e-05 0.0
C71 C 0.40409 0.97413 0.01919 0.0
C72 C 0.42051 0.97862 0.04575 0.0
C73 C 0.4543 0.98904 0.04372 0.0
N74 N 0.5012 0.04796 0.00611 0.0
C75 C 0.50057 0.10163 0.00109 0.0
C76 C 0.1681 -0.02171 0.91587 0.0
C77 C 0.47395 0.05306 9e-05 0.0
C78 C 0.52934 0.0966 0.00667 0.0
C79 C 0.52838 0.06975 0.00897 0.0
N80 N 0.19565 0.85393 0.91247 0.0
C81 C 0.16753 0.80529 0.91191 0.0
C82 C 0.19618 0.80023 0.91782 0.0
C83 C 0.52876 0.92361 0.00272 0.0
C84 C 0.52716 0.94965 9e-05 0.0
C85 C 0.16849 0.83215 0.90961 0.0
H86 H 0.54692 0.9649 0.00214 0.0
H87 H 0.14863 0.8352 0.90575 0.0
H88 H 0.14995 -0.063 0.91644 0.0
H89 H 0.54824 0.06669 0.01283 0.0
C90 C 0.58095 0.02435 0.03061 0.0
C91 C 0.4789 -0.00494 0.06674 0.0
C92 C 0.21796 -0.09341 0.85183 0.0
C93 C 0.11592 0.87754 0.88797 0.0
H94 H 0.53389 0.0078 0.10809 0.0
H95 H 0.58577 0.02332 0.08974 0.0
H96 H 0.31554 -0.06545 0.90464 0.0
H97 H 0.28535 -0.0736 0.85576 0.0
H98 H 0.16298 0.8941 0.81048 0.0
H99 H 0.11109 0.87857 0.82885 0.0
H100 H 0.38132 0.96735 0.01394 0.0
H101 H 0.41151 0.97549 0.06282 0.0
H102 H 0.14785 -0.0193 0.91191 0.0
H103 H 0.5494 0.11142 0.0089 0.0
H104 H 0.14747 0.79047 0.90968 0.0
H105 H 0.54902 0.92119 0.00667 0.0
C106 C 0.07309 0.52856 0.01102 0.0
C107 C 0.09843 0.55638 0.01848 0.0
C108 C 0.08436 0.57717 0.02561 0.0
C109 C 0.05024 0.56263 0.02254 0.0
N110 N 0.04369 0.53283 0.0137 0.0
Co111 Co 7e-05 0.50137 9e-05 0.0
N112 N 0.97993 0.53259 0.00893 0.0
C113 C -0.00646 0.5625 0.0198 0.0
C114 C 0.97022 0.5769 0.02503 0.0
C115 C 0.94151 0.5558 0.01776 0.0
C116 C 0.94721 0.52814 0.00774 0.0
N117 N 0.65323 0.36909 0.9049 0.0
C118 C 0.62383 0.37335 0.90758 0.0
C119 C 0.5985 0.34554 0.90012 0.0
C120 C 0.61257 0.32474 0.89299 0.0
C121 C 0.64668 0.33929 0.89605 0.0
N122 N -0.28301 0.36932 0.90967 0.0
C123 C -0.29765 0.33942 0.89879 0.0
C124 C -0.27331 0.32501 0.89357 0.0
C125 C -0.24459 0.34611 0.90083 0.0
C126 C -0.25028 0.37377 0.91087 0.0
N127 N -0.00811 0.49854 0.04679 0.0
C128 C -0.03129 0.49082 0.09897 0.0
C129 C 0.97249 0.46773 0.07645 0.0
C130 C -0.01684 0.47266 0.05115 0.0
C131 C -0.02331 0.51788 0.09463 0.0
C132 C -0.01195 0.52058 0.06849 0.0
N133 N 0.70503 0.40338 0.87182 0.0
C134 C 0.72023 0.38403 0.82397 0.0
C135 C 0.72838 0.41109 0.81963 0.0
C136 C -0.27557 0.43418 0.84215 0.0
C137 C -0.28726 0.42925 0.86745 0.0
C138 C 0.70888 0.38134 0.8501 0.0
H139 H -0.28966 0.44534 0.88266 0.0
H140 H 0.70349 0.3627 0.85269 0.0
H141 H 0.98658 0.45657 0.03595 0.0
H142 H -0.00657 0.53923 0.06591 0.0
C143 C 0.02741 0.5771 0.02622 0.0
C144 C 0.07799 0.5016 0.00135 0.0
C145 C 0.61873 0.40024 0.91782 0.0
C146 C 0.66951 0.32482 0.89237 0.0
H147 H 0.12084 0.55939 0.01832 0.0
H148 H 0.09493 0.5977 0.03159 0.0
H149 H 0.97398 0.5974 0.03226 0.0
H150 H 0.92109 0.55858 0.01898 0.0
H151 H 0.57608 0.34253 0.90028 0.0
H152 H 0.602 0.30421 0.88701 0.0
H153 H -0.27706 0.30452 0.88633 0.0
H154 H -0.22417 0.34334 0.89961 0.0
H155 H 0.96721 0.44878 0.0784 0.0
H156 H -0.02559 0.53432 0.10943 0.0
H157 H 0.72252 0.36759 0.80916 0.0
H158 H -0.27029 0.45313 0.8402 0.0
C159 C 0.25432 0.39065 0.89034 0.0
C160 C 0.26376 0.37729 0.86221 0.0
C161 C 0.23822 0.36876 0.841 0.0
C162 C 0.21263 0.37653 0.85563 0.0
N163 N 0.22289 0.39004 0.88586 0.0
Co164 Co 0.50057 0.50136 9e-05 0.0
N165 N 0.15803 0.38574 0.8866 0.0
C166 C 0.15612 0.37406 0.85606 0.0
C167 C 0.1241 0.3684 0.84133 0.0
C168 C 0.10703 0.37704 0.86285 0.0
C169 C 0.12785 0.38788 0.8911 0.0
N170 N 0.47401 0.51185 0.0327 0.0
C171 C 0.44257 0.51124 0.02822 0.0
C172 C 0.43313 0.5246 0.05636 0.0
C173 C 0.45868 0.53314 0.07755 0.0
C174 C 0.48427 0.52536 0.06292 0.0
N175 N 0.53887 0.51615 0.03195 0.0
C176 C 0.54077 0.52784 0.06251 0.0
C177 C 0.57279 0.53349 0.07723 0.0
C178 C 0.58987 0.52485 0.05571 0.0
C179 C 0.56905 0.51402 0.02745 0.0
N180 N 0.20171 0.44615 0.91598 0.0
C181 C 0.50116 0.60148 9e-05 0.0
C182 C 0.51389 0.59727 0.02513 0.0
C183 C 0.51569 0.56995 0.02302 0.0
C184 C 0.18659 0.47685 0.89181 0.0
C185 C 0.1894 0.45038 0.89198 0.0
N186 N 0.4952 0.45575 0.00258 0.0
C187 C 0.51031 0.42505 0.02675 0.0
C188 C 0.49997 0.40123 9e-05 0.0
C189 C 0.183 0.30462 0.89343 0.0
C190 C 0.1812 0.33195 0.89554 0.0
C191 C 0.50751 0.45152 0.02657 0.0
H192 H 0.17232 0.33443 0.8781 0.0
H193 H 0.51475 0.46758 0.04461 0.0
H194 H 0.52458 0.56747 0.04046 0.0
H195 H 0.18215 0.43431 0.87395 0.0
C196 C 0.18149 0.36939 0.84101 0.0
C197 C 0.27401 0.40132 0.91782 0.0
C198 C 0.4231 0.50065 9e-05 0.0
C199 C 0.51541 0.53251 0.07755 0.0
H200 H 0.28421 0.37494 0.85927 0.0
H201 H 0.23718 0.35933 0.82018 0.0
H202 H 0.11661 0.3602 0.82041 0.0
H203 H 0.08516 0.37615 0.85999 0.0
H204 H 0.41269 0.52695 0.0593 0.0
H205 H 0.45972 0.54256 0.09837 0.0
H206 H 0.58029 0.5417 0.09814 0.0
H207 H 0.61175 0.52574 0.05857 0.0
H208 H 0.52128 0.61296 0.04354 0.0
H209 H 0.17763 0.4787 0.87407 0.0
H210 H 0.51928 0.4232 0.04449 0.0
H211 H 0.17563 0.28893 0.87502 0.0
C212 C -0.14036 0.45471 0.52427 0.0
C213 C -0.11524 0.45969 0.54799 0.0
C214 C -0.08709 0.46804 0.538 0.0
C215 C -0.0943 0.46822 0.50802 0.0
N216 N -0.12704 0.46011 0.49993 0.0
Co217 Co -0.15206 0.45097 0.45931 0.0
N218 N -0.10945 0.46137 0.44418 0.0
C219 C -0.07874 0.47074 0.45956 0.0
C220 C -0.05516 0.47816 0.44044 0.0
C221 C -0.07157 0.47368 0.4139 0.0
C222 C -0.10536 0.46325 0.41592 0.0
N223 N 0.82398 0.44183 0.41868 0.0
C224 C 0.83729 0.44723 0.39435 0.0
C225 C 0.81217 0.44224 0.37063 0.0
C226 C 0.78402 0.43389 0.38062 0.0
C227 C 0.79123 0.43372 0.41059 0.0
N228 N 0.80638 0.44057 0.47443 0.0
C229 C 0.77568 0.43119 0.45905 0.0
C230 C 0.75209 0.42378 0.47817 0.0
C231 C 0.76851 0.42825 0.50472 0.0
C232 C 0.80229 0.43868 0.5027 0.0
N233 N -0.1508 0.4976 0.46509 0.0
C234 C -0.15231 0.55127 0.46007 0.0
C235 C 0.82017 0.52869 0.45693 0.0
C236 C 0.82176 0.50264 0.45964 0.0
C237 C -0.12267 0.54623 0.46565 0.0
C238 C -0.12363 0.51939 0.46794 0.0
N239 N 0.84773 0.40433 0.45352 0.0
C240 C 0.8196 0.3557 0.45297 0.0
C241 C -0.15181 0.35067 0.45855 0.0
C242 C -0.12324 0.37325 0.46168 0.0
C243 C -0.12482 0.3993 0.45898 0.0
C244 C 0.82057 0.38255 0.45067 0.0
H245 H -0.10508 0.41453 0.46111 0.0
H246 H 0.80071 0.38561 0.4468 0.0
H247 H 0.80202 0.4874 0.4575 0.0
H248 H -0.10377 0.51633 0.47181 0.0
C249 C -0.07106 0.47398 0.48959 0.0
C250 C -0.17311 0.4447 0.52572 0.0
C251 C -0.13006 0.45724 0.3929 0.0
C252 C 0.76799 0.42794 0.42903 0.0
H253 H -0.11811 0.45744 0.56707 0.0
H254 H -0.06623 0.47295 0.54871 0.0
H255 H -0.03239 0.48495 0.4457 0.0
H256 H -0.06257 0.4768 0.39681 0.0
H257 H 0.81505 0.4445 0.35154 0.0
H258 H 0.76317 0.42898 0.36991 0.0
H259 H 0.72931 0.41698 0.47292 0.0
H260 H 0.7595 0.42514 0.5218 0.0
H261 H 0.79992 0.53111 0.45297 0.0
H262 H -0.10261 0.56106 0.46788 0.0
H263 H 0.79954 0.34088 0.45073 0.0
H264 H -0.10298 0.37082 0.46564 0.0
C265 C 0.42104 -0.02182 0.46998 0.0
C266 C 0.44637 0.006 0.47744 0.0
C267 C 0.4323 0.0268 0.48457 0.0
C268 C 0.39818 0.01224 0.48151 0.0
N269 N 0.39163 -0.01756 0.47266 0.0
Co270 Co 0.34844 -0.04904 0.45931 0.0
N271 N 0.32787 -0.01778 0.46789 0.0
C272 C 0.3423 0.01211 0.47877 0.0
C273 C 0.31817 0.02652 0.48399 0.0
C274 C 0.28945 0.00542 0.47673 0.0
C275 C 0.29514 -0.02223 0.4667 0.0
N276 N 0.30526 0.91948 0.44595 0.0
C277 C 0.27585 0.92374 0.44863 0.0
C278 C 0.25052 0.89592 0.44117 0.0
C279 C 0.26459 0.87513 0.43405 0.0
C280 C 0.2987 0.88968 0.4371 0.0
N281 N 0.36901 0.91971 0.45072 0.0
C282 C 0.35458 0.88981 0.43985 0.0
C283 C 0.37872 0.8754 0.43462 0.0
C284 C 0.40744 0.8965 0.44188 0.0
C285 C 0.40175 0.92416 0.45191 0.0
N286 N 0.33983 -0.05184 0.50575 0.0
C287 C 0.31665 -0.05956 0.55794 0.0
C288 C 0.32044 0.91735 0.53541 0.0
C289 C 0.33199 0.92228 0.51011 0.0
C290 C 0.32463 -0.0325 0.55359 0.0
C291 C 0.33599 -0.0298 0.52746 0.0
N292 N 0.35705 0.95458 0.41286 0.0
C293 C 0.37225 0.93442 0.36502 0.0
C294 C 0.38023 -0.03851 0.36068 0.0
C295 C 0.37645 -0.01543 0.3832 0.0
C296 C 0.3649 -0.02035 0.4085 0.0
C297 C 0.3609 0.93172 0.39115 0.0
H298 H 0.36236 -0.00427 0.4237 0.0
H299 H 0.35551 0.91308 0.39374 0.0
H300 H 0.33453 0.90619 0.49491 0.0
H301 H 0.34137 -0.01116 0.52487 0.0
C302 C 0.37536 0.02672 0.48519 0.0
C303 C 0.42594 -0.04877 0.46031 0.0
C304 C 0.27095 -0.0493 0.45831 0.0
C305 C 0.32153 0.8752 0.43342 0.0
H306 H 0.46878 0.00901 0.47729 0.0
H307 H 0.44287 0.04733 0.49055 0.0
H308 H 0.32193 0.04701 0.49123 0.0
H309 H 0.26904 0.00819 0.47795 0.0
H310 H 0.2281 0.89291 0.44132 0.0
H311 H 0.25402 0.85459 0.42806 0.0
H312 H 0.37496 0.8549 0.42738 0.0
H313 H 0.42785 0.89373 0.44066 0.0
H314 H 0.31516 0.89841 0.53737 0.0
H315 H 0.32234 -0.01606 0.5684 0.0
H316 H 0.37453 0.91798 0.35021 0.0
H317 H 0.38173 0.00351 0.38125 0.0
C318 C -0.1341 0.10441 0.48173 0.0
C319 C -0.15206 0.08068 0.45932 0.0
C320 C -0.1341 0.13101 0.48173 0.0
C321 C 0.83103 0.29753 0.4369 0.0
C322 C -0.15206 0.32126 0.45931 0.0
C323 C 0.83101 0.27093 0.43691 0.0
H324 H 0.81883 0.06638 0.42128 0.0
H325 H 0.8189 0.1115 0.42137 0.0
H326 H -0.12192 0.33555 0.49735 0.0
H327 H -0.12199 0.29043 0.49726 0.0
C328 C 0.83101 0.08307 0.43692 0.0
C329 C 0.83101 0.10967 0.43692 0.0
C330 C -0.13409 0.31887 0.48171 0.0
C331 C -0.13409 0.29227 0.48172 0.0
C332 C -0.15206 0.1335 0.45932 0.0
C333 C -0.15206 0.16289 0.45931 0.0
C334 C -0.15206 0.18632 0.45932 0.0
C335 C -0.15206 0.26843 0.4593 0.0
C336 C -0.15205 0.23906 0.45936 0.0
C337 C -0.15206 0.21561 0.45929 0.0
H338 H -0.12192 0.10262 0.49736 0.0
H339 H -0.12199 0.14765 0.49727 0.0
H340 H 0.81885 0.29931 0.42127 0.0
H341 H 0.81892 0.25428 0.42136 0.0
C342 C 0.72456 -0.04522 0.48482 0.0
C343 C 0.73697 -0.04903 0.45932 0.0
C344 C 0.69393 -0.04522 0.48482 0.0
C345 C 0.47233 0.94715 0.43382 0.0
C346 C 0.45992 -0.04904 0.45931 0.0
C347 C 0.50296 0.94715 0.43382 0.0
H348 H 0.72809 0.9445 0.41604 0.0
H349 H 0.6762 0.94451 0.41614 0.0
H350 H 0.4688 -0.04257 0.5026 0.0
H351 H 0.5207 -0.04258 0.50249 0.0
C352 C 0.71929 0.94716 0.43382 0.0
C353 C 0.68866 0.94716 0.43382 0.0
C354 C 0.47761 -0.04523 0.4848 0.0
C355 C 0.50824 -0.04523 0.4848 0.0
C356 C 0.67614 -0.04903 0.45932 0.0
C357 C 0.64229 -0.04903 0.45932 0.0
C358 C 0.61532 -0.04903 0.45932 0.0
C359 C 0.52075 -0.04904 0.45931 0.0
C360 C 0.5546 -0.04904 0.45932 0.0
C361 C 0.58157 -0.04903 0.45932 0.0
H362 H 0.73704 -0.04256 0.5026 0.0
H363 H 0.68512 -0.04258 0.5025 0.0
H364 H 0.45985 0.94449 0.41602 0.0
H365 H 0.51177 0.94451 0.41613 0.0
C366 C -0.12405 0.60302 0.46737 0.0
C367 C -0.15206 0.58067 0.45931 0.0
C368 C -0.12405 0.62962 0.46737 0.0
C369 C 0.82096 0.7989 0.45126 0.0
C370 C -0.15206 0.82126 0.45932 0.0
C371 C 0.82096 0.77231 0.45126 0.0
H372 H 0.80179 0.56872 0.44561 0.0
H373 H 0.8019 0.61384 0.44565 0.0
H374 H -0.10488 0.8332 0.47302 0.0
H375 H -0.10499 0.7881 0.47298 0.0
C376 C 0.82097 0.58445 0.45125 0.0
C377 C 0.82097 0.61104 0.45125 0.0
C378 C -0.12406 0.81748 0.46739 0.0
C379 C -0.12406 0.79089 0.46738 0.0
C380 C -0.15206 0.6335 0.45933 0.0
C381 C -0.15206 0.66288 0.45929 0.0
C382 C -0.15206 0.68632 0.45933 0.0
C383 C -0.15206 0.76843 0.4593 0.0
C384 C -0.15205 0.73906 0.45934 0.0
C385 C -0.15206 0.71561 0.4593 0.0
H386 H -0.10487 0.60027 0.47301 0.0
H387 H -0.10497 0.64531 0.47297 0.0
H388 H 0.80178 0.80166 0.44562 0.0
H389 H 0.8019 0.75663 0.44566 0.0
C390 C 0.23088 -0.02525 0.47558 0.0
C391 C 0.23696 -0.04904 0.45931 0.0
C392 C 0.20025 -0.02525 0.47558 0.0
C393 C -0.03399 0.92717 0.44305 0.0
C394 C -0.04007 -0.04903 0.45932 0.0
C395 C -0.00336 0.92717 0.44305 0.0
H396 H 0.21734 0.91056 0.43169 0.0
H397 H 0.16548 0.91065 0.43175 0.0
H398 H -0.02045 -0.00864 0.48695 0.0
H399 H 0.03141 -0.00873 0.48688 0.0
C400 C 0.21296 0.92716 0.44304 0.0
C401 C 0.18233 0.92716 0.44304 0.0
C402 C -0.01607 -0.02524 0.47559 0.0
C403 C 0.01456 -0.02524 0.47559 0.0
C404 C 0.17614 -0.04904 0.45932 0.0
C405 C 0.14229 -0.04904 0.45932 0.0
C406 C 0.11532 -0.04903 0.45932 0.0
C407 C 0.02075 -0.04903 0.45932 0.0
C408 C 0.0546 -0.04903 0.45932 0.0
C409 C 0.08157 -0.04903 0.45932 0.0
H410 H 0.24777 -0.00863 0.48694 0.0
H411 H 0.19583 -0.00874 0.48687 0.0
H412 H -0.05088 0.91057 0.4317 0.0
H413 H 0.00106 0.91066 0.43176 0.0
C414 C 0.39978 0.94424 0.31315 0.0
C415 C 0.39066 -0.03505 0.33186 0.0
C416 C 0.40844 0.94711 0.28701 0.0
C417 C 0.45984 0.0116 0.11417 0.0
C418 C 0.46896 -0.00911 0.09546 0.0
C419 C 0.45119 0.00873 0.1403 0.0
H420 H 0.38364 0.00291 0.33808 0.0
H421 H 0.39834 0.00768 0.29376 0.0
H422 H 0.47598 0.95292 0.08924 0.0
H423 H 0.4613 0.94816 0.13356 0.0
C424 C 0.39005 -0.01153 0.3249 0.0
C425 C 0.39871 -0.00866 0.29876 0.0
C426 C 0.46958 0.96737 0.10242 0.0
C427 C 0.46092 0.9645 0.12855 0.0
C428 C 0.40786 -0.02935 0.27995 0.0
C429 C 0.41742 -0.02618 0.25108 0.0
C430 C 0.42504 -0.02367 0.22806 0.0
C431 C 0.45177 -0.01481 0.14736 0.0
C432 C 0.4422 -0.01798 0.17625 0.0
C433 C 0.43458 -0.0205 0.19926 0.0
H434 H 0.40017 0.92782 0.31812 0.0
H435 H 0.41483 0.93277 0.27386 0.0
H436 H 0.45945 0.02802 0.1092 0.0
H437 H 0.4448 0.02307 0.15347 0.0
C438 C -0.02549 0.50741 0.15352 0.0
C439 C -0.04223 0.48735 0.12778 0.0
C440 C -0.03413 0.50454 0.17965 0.0
C441 C 0.86374 0.44135 0.33845 0.0
C442 C -0.12054 0.46141 0.36418 0.0
C443 C 0.8724 0.44421 0.31232 0.0
H444 H 0.92224 0.45048 0.10965 0.0
H445 H 0.90766 0.44572 0.15399 0.0
H446 H -0.08398 0.49827 0.38232 0.0
H447 H -0.0694 0.50305 0.33798 0.0
C448 C 0.93354 0.46448 0.12773 0.0
C449 C 0.92488 0.46161 0.15386 0.0
C450 C -0.09528 0.48429 0.36424 0.0
C451 C -0.08662 0.48715 0.3381 0.0
C452 C -0.05943 0.48165 0.17969 0.0
C453 C -0.06899 0.47848 0.20857 0.0
C454 C -0.07662 0.47596 0.23159 0.0
C455 C -0.10335 0.46711 0.31228 0.0
C456 C -0.09378 0.47027 0.2834 0.0
C457 C -0.08616 0.4728 0.26038 0.0
H458 H -0.00817 0.52339 0.15344 0.0
H459 H -0.02293 0.51844 0.19768 0.0
H460 H 0.84644 0.42537 0.33853 0.0
H461 H 0.86119 0.43032 0.29429 0.0
C462 C 0.27517 0.92607 0.58882 0.0
C463 C 0.30622 -0.06303 0.58674 0.0
C464 C 0.26651 0.9232 0.61496 0.0
C465 C 0.25896 -0.0781 0.82106 0.0
C466 C 0.2279 -0.08899 0.82313 0.0
C467 C 0.26761 -0.07522 0.79492 0.0
H468 H 0.35048 -0.04734 0.60877 0.0
H469 H 0.33569 -0.05224 0.65301 0.0
H470 H 0.18365 0.89532 0.8011 0.0
H471 H 0.19843 0.90022 0.75686 0.0
C472 C 0.32877 -0.05495 0.61034 0.0
C473 C 0.3201 -0.05782 0.63647 0.0
C474 C 0.20536 0.90293 0.79953 0.0
C475 C 0.21401 0.9058 0.7734 0.0
C476 C 0.28903 -0.06873 0.63864 0.0
C477 C 0.27946 -0.0719 0.66753 0.0
C478 C 0.27183 -0.07443 0.69054 0.0
C479 C 0.2451 -0.08329 0.77123 0.0
C480 C 0.25467 -0.08012 0.74235 0.0
C481 C 0.26229 -0.0776 0.71933 0.0
H482 H 0.25947 0.92045 0.57224 0.0
H483 H 0.24491 0.91563 0.61656 0.0
H484 H 0.27465 -0.07247 0.83764 0.0
H485 H 0.28922 -0.06765 0.79331 0.0
C486 C 0.80534 0.41395 0.5569 0.0
C487 C -0.18357 0.44053 0.55443 0.0
C488 C 0.79669 0.41108 0.58303 0.0
C489 C -0.24975 0.44115 0.78834 0.0
C490 C -0.26188 0.41457 0.79082 0.0
C491 C -0.24109 0.44402 0.76221 0.0
H492 H -0.1718 0.48285 0.57579 0.0
H493 H -0.1865 0.47789 0.62003 0.0
H494 H 0.7274 0.37224 0.76945 0.0
H495 H 0.7421 0.37721 0.72521 0.0
C496 C -0.17994 0.46428 0.57763 0.0
C497 C -0.1886 0.46141 0.60377 0.0
C498 C 0.73554 0.3908 0.76762 0.0
C499 C 0.7442 0.39367 0.74148 0.0
C500 C -0.20076 0.43483 0.60633 0.0
C501 C -0.21033 0.43165 0.63522 0.0
C502 C -0.21795 0.42912 0.65823 0.0
C503 C -0.24468 0.42026 0.73892 0.0
C504 C -0.23512 0.42343 0.71003 0.0
C505 C -0.22749 0.42596 0.68702 0.0
H506 H 0.80322 0.39738 0.54059 0.0
H507 H 0.78858 0.39262 0.58491 0.0
H508 H -0.24762 0.45772 0.80466 0.0
H509 H -0.23299 0.46247 0.76033 0.0
C510 C -0.17924 0.39808 0.89304 0.0
C511 C 0.11206 0.50137 9e-05 0.0
C512 C -0.14861 0.39808 0.89303 0.0
C513 C 0.37615 0.50384 0.02554 0.0
C514 C 0.38909 0.50136 9e-05 0.0
C515 C 0.34552 0.50384 0.02555 0.0
H516 H 0.12009 0.50558 0.04315 0.0
H517 H 0.17198 0.50557 0.04305 0.0
H518 H 0.07683 0.39632 0.87542 0.0
H519 H 0.02493 0.39633 0.87553 0.0
C520 C 0.1292 0.50384 0.02555 0.0
C521 C 0.15982 0.50383 0.02555 0.0
C522 C 0.06771 0.39807 0.89302 0.0
C523 C 0.03709 0.39807 0.89302 0.0
C524 C 0.17288 0.50136 9e-05 0.0
C525 C 0.20673 0.50136 9e-05 0.0
C526 C 0.2337 0.50136 9e-05 0.0
C527 C 0.32827 0.50136 9e-05 0.0
C528 C 0.29442 0.50136 9e-05 0.0
C529 C 0.26745 0.50136 9e-05 0.0
H530 H -0.1914 0.39633 0.87543 0.0
H531 H -0.13948 0.39634 0.87553 0.0
H532 H 0.38831 0.50557 0.04314 0.0
H533 H 0.33639 0.50557 0.04304 0.0
C534 C 0.48631 0.36048 0.02042 0.0
C535 C 0.50056 0.37165 9e-05 0.0
C536 C 0.48631 0.33388 0.02042 0.0
C537 C 0.21056 0.04142 0.89815 0.0
C538 C 0.50055 0.13106 9e-05 0.0
C539 C 0.21057 0.06801 0.89815 0.0
H540 H 0.22047 0.26378 0.88412 0.0
H541 H 0.2204 0.21872 0.8842 0.0
H542 H 0.47641 0.13812 0.03446 0.0
H543 H 0.47648 0.18318 0.03438 0.0
C544 C 0.21057 0.25588 0.89814 0.0
C545 C 0.21057 0.22929 0.89814 0.0
C546 C 0.4863 0.14602 0.02043 0.0
C547 C 0.48631 0.17262 0.02043 0.0
C548 C 0.50056 0.31883 9e-05 0.0
C549 C 0.50056 0.28943 9e-05 0.0
C550 C 0.50056 0.26601 9e-05 0.0
C551 C 0.50056 0.18388 9e-05 0.0
C552 C 0.50056 0.21328 9e-05 0.0
C553 C 0.50056 0.2367 9e-05 0.0
H554 H 0.47643 0.37105 0.03445 0.0
H555 H 0.47649 0.32597 0.03437 0.0
H556 H 0.22044 0.03084 0.88413 0.0
H557 H 0.2204 0.07592 0.88421 0.0
C558 C 0.87384 0.49742 0.02324 0.0
C559 C 0.8891 0.50137 9e-05 0.0
C560 C 0.84321 0.49742 0.02324 0.0
C561 C 0.32307 0.40448 0.89533 0.0
C562 C 0.61205 0.50136 9e-05 0.0
C563 C 0.3537 0.40448 0.89533 0.0
H564 H 0.58076 0.40723 0.87937 0.0
H565 H 0.52885 0.40722 0.87945 0.0
H566 H 0.61616 0.49468 0.03921 0.0
H567 H 0.66806 0.4947 0.03912 0.0
C568 C 0.57002 0.40449 0.89535 0.0
C569 C 0.53939 0.40449 0.89535 0.0
C570 C 0.62688 0.49741 0.02323 0.0
C571 C 0.65751 0.49741 0.02323 0.0
C572 C 0.82827 0.50136 9e-05 0.0
C573 C 0.79442 0.50136 9e-05 0.0
C574 C 0.76745 0.50136 9e-05 0.0
C575 C 0.67288 0.50136 9e-05 0.0
C576 C 0.70673 0.50136 9e-05 0.0
C577 C 0.7337 0.50136 9e-05 0.0
H578 H 0.88438 0.49468 0.03923 0.0
H579 H 0.83249 0.49469 0.03913 0.0
H580 H 0.31252 0.40722 0.87935 0.0
H581 H 0.36442 0.40721 0.87945 0.0
C582 C 0.2196 0.54626 0.90725 0.0
C583 C 0.50057 0.63106 9e-05 0.0
C584 C 0.2196 0.57286 0.90725 0.0
C585 C 0.47728 0.85564 0.01132 0.0
C586 C 0.50055 0.87165 9e-05 0.0
C587 C 0.47728 0.82904 0.01132 0.0
H588 H 0.4611 0.6299 0.01898 0.0
H589 H 0.4612 0.67499 0.01894 0.0
H590 H 0.23578 0.772 0.89959 0.0
H591 H 0.23568 0.72691 0.89964 0.0
C592 C 0.47729 0.64118 0.01131 0.0
C593 C 0.47729 0.66778 0.01131 0.0
C594 C 0.21959 0.76071 0.90726 0.0
C595 C 0.21959 0.73411 0.90726 0.0
C596 C 0.50056 0.68388 9e-05 0.0
C597 C 0.50056 0.71328 9e-05 0.0
C598 C 0.50056 0.7367 9e-05 0.0
C599 C 0.50056 0.81883 9e-05 0.0
C600 C 0.50056 0.78943 9e-05 0.0
C601 C 0.50056 0.76601 9e-05 0.0
H602 H 0.23579 0.53906 0.89958 0.0
H603 H 0.2357 0.58412 0.89963 0.0
H604 H 0.46109 0.86284 0.01899 0.0
H605 H 0.46118 0.81777 0.01895 0.0
loop_
_geom_bond_atom_site_label_1
_geom_bond_atom_site_label_2
_geom_bond_distance
_geom_bond_site_symmetry_2
_ccdc_geom_bond_type
C0 C1 1.443 . S
C0 N4 1.376 . S
C0 C38 1.388 1_565 S
C1 C0 1.443 . S
C1 C2 1.340 . S
C1 H41 0.951 . S
C2 C1 1.340 . S
C2 C3 1.439 . S
C2 H42 0.950 . S
C3 C2 1.439 . S
C3 N4 1.374 . S
C3 C37 1.395 . S
N4 C0 1.376 . S
N4 C3 1.374 . S
N4 Co5 1.993 1_665 S
Co5 N4 1.993 1_445 S
Co5 N6 2.010 1_545 S
Co5 N11 2.024 . S
Co5 N16 1.979 1_455 S
Co5 N21 2.287 1_445 S
Co5 N27 2.278 . S
N6 Co5 2.010 1_565 S
N6 C7 1.377 . S
N6 C10 1.383 . S
C7 N6 1.377 . S
C7 C8 1.454 . S
C7 C37 1.383 1_455 S
C8 C7 1.454 . S
C8 C9 1.339 . S
C8 H43 0.949 . S
C9 C8 1.339 . S
C9 C10 1.439 . S
C9 H44 0.950 . S
C10 N6 1.383 . S
C10 C9 1.439 . S
C10 C39 1.392 1_565 S
N11 Co5 2.024 . S
N11 C12 1.376 . S
N11 C15 1.374 . S
C12 N11 1.376 . S
C12 C13 1.443 . S
C12 C39 1.389 . S
C13 C12 1.443 . S
C13 C14 1.340 . S
C13 H45 0.951 . S
C14 C13 1.340 . S
C14 C15 1.439 . S
C14 H46 0.950 . S
C15 N11 1.374 . S
C15 C14 1.439 . S
C15 C40 1.395 . S
N16 Co5 1.979 1_655 S
N16 C17 1.372 1_655 S
N16 C20 1.383 . S
C17 N16 1.372 1_455 S
C17 C18 1.414 1_455 S
C17 C40 1.422 . S
C18 C17 1.414 1_655 S
C18 C19 1.339 . S
C18 H47 0.949 . S
C19 C18 1.339 . S
C19 C20 1.439 . S
C19 H48 0.950 . S
C20 N16 1.383 . S
C20 C19 1.439 . S
C20 C38 1.389 . S
N21 Co5 2.287 1_665 S
N21 C24 1.332 1_655 S
N21 C26 1.332 . S
C22 C23 1.389 1_655 S
C22 C25 1.388 . S
C23 C22 1.389 1_455 S
C23 C24 1.384 . S
C23 H49 0.950 . S
C24 N21 1.332 1_455 S
C24 C23 1.384 . S
C24 H35 0.949 . S
C25 C22 1.388 . S
C25 C26 1.382 . S
C25 H50 0.950 . S
C26 N21 1.332 . S
C26 C25 1.382 . S
C26 H36 0.948 . S
N27 Co5 2.278 . S
N27 C31 1.332 . S
N27 C32 1.332 . S
C28 C29 1.388 . S
C28 C32 1.382 . S
C28 H51 0.950 . S
C29 C28 1.388 . S
C29 C30 1.386 1_455 S
C30 C29 1.386 1_655 S
C30 C31 1.368 1_655 S
C30 H52 0.950 . S
C31 N27 1.332 . S
C31 C30 1.368 1_455 S
C31 H33 0.968 1_455 S
C32 N27 1.332 . S
C32 C28 1.382 . S
C32 H34 0.948 . S
H33 C31 0.968 1_655 S
H34 C32 0.948 . S
H35 C24 0.949 . S
H36 C26 0.948 . S
C37 C3 1.395 . S
C37 C7 1.383 1_655 S
C38 C0 1.388 1_545 S
C38 C20 1.389 . S
C39 C10 1.392 1_545 S
C39 C12 1.389 . S
C40 C15 1.395 . S
C40 C17 1.422 . S
H41 C1 0.951 . S
H42 C2 0.950 . S
H43 C8 0.949 . S
H44 C9 0.950 . S
H45 C13 0.951 . S
H46 C14 0.950 . S
H47 C18 0.949 . S
H48 C19 0.950 . S
H49 C23 0.950 . S
H50 C25 0.950 . S
H51 C28 0.950 . S
H52 C30 0.950 . S
C53 C54 1.443 . S
C53 N57 1.376 . S
C53 C91 1.389 . S
C54 C53 1.443 . S
C54 C55 1.340 . S
C54 H94 0.951 . S
C55 C54 1.340 . S
C55 C56 1.439 . S
C55 H95 0.950 . S
C56 C55 1.439 . S
C56 N57 1.374 . S
C56 C90 1.395 . S
N57 C53 1.376 . S
N57 C56 1.374 . S
N57 Co58 2.017 . S
Co58 N57 2.017 . S
Co58 N59 1.986 1_554 S
Co58 N64 2.000 1_544 S
Co58 N69 2.003 1_545 S
Co58 N74 2.280 . S
Co58 N80 2.285 1_544 S
N59 Co58 1.986 1_556 S
N59 C60 1.373 1_556 S
N59 C63 1.383 . S
C60 N59 1.373 1_554 S
C60 C61 1.423 1_554 S
C60 C90 1.414 . S
C61 C60 1.423 1_556 S
C61 C62 1.339 . S
C61 H96 0.949 . S
C62 C61 1.339 . S
C62 C63 1.439 . S
C62 H97 0.950 . S
C63 N59 1.383 . S
C63 C62 1.439 . S
C63 C92 1.389 . S
N64 Co58 2.000 1_566 S
N64 C65 1.376 . S
N64 C68 1.374 . S
C65 N64 1.376 . S
C65 C66 1.443 . S
C65 C92 1.388 1_565 S
C66 C65 1.443 . S
C66 C67 1.340 . S
C66 H98 0.951 . S
C67 C66 1.340 . S
C67 C68 1.439 . S
C67 H99 0.950 . S
C68 N64 1.374 . S
C68 C67 1.439 . S
C68 C93 1.395 . S
N69 Co58 2.003 1_565 S
N69 C70 1.376 . S
N69 C73 1.383 . S
C70 N69 1.376 . S
C70 C71 1.446 . S
C70 C93 1.392 1_554 S
C71 C70 1.446 . S
C71 C72 1.339 . S
C71 H100 0.949 . S
C72 C71 1.339 . S
C72 C73 1.439 . S
C72 H101 0.950 . S
C73 N69 1.383 . S
C73 C72 1.439 . S
C73 C91 1.392 1_565 S
N74 Co58 2.280 . S
N74 C77 1.332 . S
N74 C79 1.332 . S
C75 C76 1.386 1_554 S
C75 C78 1.388 . S
C76 C75 1.386 1_556 S
C76 C77 1.371 1_556 S
C76 H102 0.950 . S
C77 N74 1.332 . S
C77 C76 1.371 1_554 S
C77 H88 0.964 1_554 S
C78 C75 1.388 . S
C78 C79 1.382 . S
C78 H103 0.950 . S
C79 N74 1.332 . S
C79 C78 1.382 . S
C79 H89 0.948 . S
N80 Co58 2.285 1_566 S
N80 C84 1.332 1_556 S
N80 C85 1.332 . S
C81 C82 1.388 . S
C81 C85 1.382 . S
C81 H104 0.950 . S
C82 C81 1.388 . S
C82 C83 1.393 1_556 S
C83 C82 1.393 1_554 S
C83 C84 1.380 . S
C83 H105 0.950 . S
C84 N80 1.332 1_554 S
C84 C83 1.380 . S
C84 H86 0.953 . S
C85 N80 1.332 . S
C85 C81 1.382 . S
C85 H87 0.948 . S
H86 C84 0.953 . S
H87 C85 0.948 . S
H88 C77 0.964 1_556 S
H89 C79 0.948 . S
C90 C56 1.395 . S
C90 C60 1.414 . S
C91 C53 1.389 . S
C91 C73 1.392 1_545 S
C92 C63 1.389 . S
C92 C65 1.388 1_545 S
C93 C68 1.395 . S
C93 C70 1.392 1_556 S
H94 C54 0.951 . S
H95 C55 0.950 . S
H96 C61 0.949 . S
H97 C62 0.950 . S
H98 C66 0.951 . S
H99 C67 0.950 . S
H100 C71 0.949 . S
H101 C72 0.950 . S
H102 C76 0.950 . S
H103 C78 0.950 . S
H104 C81 0.950 . S
H105 C83 0.950 . S
C106 C107 1.443 . S
C106 N110 1.376 . S
C106 C144 1.389 . S
C107 C106 1.443 . S
C107 C108 1.340 . S
C107 H147 0.951 . S
C108 C107 1.340 . S
C108 C109 1.439 . S
C108 H148 0.950 . S
C109 C108 1.439 . S
C109 N110 1.374 . S
C109 C143 1.395 . S
N110 C106 1.376 . S
N110 C109 1.374 . S
N110 Co111 2.021 . S
Co111 N110 2.021 . S
Co111 N112 1.980 1_455 S
Co111 N117 1.995 1_454 S
Co111 N122 2.009 1_554 S
Co111 N127 2.291 . S
Co111 N133 2.274 1_454 S
N112 Co111 1.980 1_655 S
N112 C113 1.372 1_655 S
N112 C116 1.383 . S
C113 N112 1.372 1_455 S
C113 C114 1.414 1_455 S
C113 C143 1.423 . S
C114 C113 1.414 1_655 S
C114 C115 1.339 . S
C114 H149 0.949 . S
C115 C114 1.339 . S
C115 C116 1.439 . S
C115 H150 0.950 . S
C116 N112 1.383 . S
C116 C115 1.439 . S
C116 C145 1.399 1_554 S
N117 Co111 1.995 1_656 S
N117 C118 1.376 . S
N117 C121 1.374 . S
C118 N117 1.376 . S
C118 C119 1.443 . S
C118 C145 1.391 . S
C119 C118 1.443 . S
C119 C120 1.340 . S
C119 H151 0.951 . S
C120 C119 1.340 . S
C120 C121 1.439 . S
C120 H152 0.950 . S
C121 N117 1.374 . S
C121 C120 1.439 . S
C121 C146 1.395 . S
N122 Co111 2.009 1_556 S
N122 C123 1.377 . S
N122 C126 1.383 . S
C123 N122 1.377 . S
C123 C124 1.454 . S
C123 C146 1.383 1_455 S
C124 C123 1.454 . S
C124 C125 1.339 . S
C124 H153 0.949 . S
C125 C124 1.339 . S
C125 C126 1.439 . S
C125 H154 0.950 . S
C126 N122 1.383 . S
C126 C125 1.439 . S
C126 C144 1.392 1_556 S
N127 Co111 2.291 . S
N127 C130 1.332 . S
N127 C132 1.332 . S
C128 C129 1.386 1_455 S
C128 C131 1.388 . S
C129 C128 1.386 1_655 S
C129 C130 1.368 1_655 S
C129 H155 0.950 . S
C130 N127 1.332 . S
C130 C129 1.368 1_455 S
C130 H141 0.968 1_455 S
C131 C128 1.388 . S
C131 C132 1.382 . S
C131 H156 0.950 . S
C132 N127 1.332 . S
C132 C131 1.382 . S
C132 H142 0.948 . S
N133 Co111 2.274 1_656 S
N133 C137 1.332 1_655 S
N133 C138 1.332 . S
C134 C135 1.388 . S
C134 C138 1.382 . S
C134 H157 0.950 . S
C135 C134 1.388 . S
C135 C136 1.389 1_655 S
C136 C135 1.389 1_455 S
C136 C137 1.384 . S
C136 H158 0.950 . S
C137 N133 1.332 1_455 S
C137 C136 1.384 . S
C137 H139 0.949 . S
C138 N133 1.332 . S
C138 C134 1.382 . S
C138 H140 0.948 . S
H139 C137 0.949 . S
H140 C138 0.948 . S
H141 C130 0.968 1_655 S
H142 C132 0.948 . S
C143 C109 1.395 . S
C143 C113 1.423 . S
C144 C106 1.389 . S
C144 C126 1.392 1_554 S
C145 C116 1.399 1_556 S
C145 C118 1.391 . S
C146 C121 1.395 . S
C146 C123 1.383 1_655 S
H147 C107 0.951 . S
H148 C108 0.950 . S
H149 C114 0.949 . S
H150 C115 0.950 . S
H151 C119 0.951 . S
H152 C120 0.950 . S
H153 C124 0.949 . S
H154 C125 0.950 . S
H155 C129 0.950 . S
H156 C131 0.950 . S
H157 C134 0.950 . S
H158 C136 0.950 . S
C159 C160 1.443 . S
C159 N163 1.376 . S
C159 C197 1.387 . S
C160 C159 1.443 . S
C160 C161 1.340 . S
C160 H200 0.951 . S
C161 C160 1.340 . S
C161 C162 1.439 . S
C161 H201 0.950 . S
C162 C161 1.439 . S
C162 N163 1.374 . S
C162 C196 1.395 . S
N163 C159 1.376 . S
N163 C162 1.374 . S
N163 Co164 1.998 1_556 S
Co164 N163 1.998 1_554 S
Co164 N165 1.990 1_554 S
Co164 N170 2.018 . S
Co164 N175 1.999 . S
Co164 N180 2.278 1_554 S
Co164 N186 2.287 . S
N165 Co164 1.990 1_556 S
N165 C166 1.376 . S
N165 C169 1.383 . S
C166 N165 1.376 . S
C166 C167 1.446 . S
C166 C196 1.391 . S
C167 C166 1.446 . S
C167 C168 1.339 . S
C167 H202 0.949 . S
C168 C167 1.339 . S
C168 C169 1.439 . S
C168 H203 0.950 . S
C169 N165 1.383 . S
C169 C168 1.439 . S
C169 C198 1.366 1_556 S
N170 Co164 2.018 . S
N170 C171 1.376 . S
N170 C174 1.374 . S
C171 N170 1.376 . S
C171 C172 1.443 . S
C171 C198 1.407 . S
C172 C171 1.443 . S
C172 C173 1.340 . S
C172 H204 0.951 . S
C173 C172 1.340 . S
C173 C174 1.439 . S
C173 H205 0.950 . S
C174 N170 1.374 . S
C174 C173 1.439 . S
C174 C199 1.395 . S
N175 Co164 1.999 . S
N175 C176 1.376 . S
N175 C179 1.383 . S
C176 N175 1.376 . S
C176 C177 1.446 . S
C176 C199 1.391 . S
C177 C176 1.446 . S
C177 C178 1.339 . S
C177 H206 0.949 . S
C178 C177 1.339 . S
C178 C179 1.439 . S
C178 H207 0.950 . S
C179 N175 1.383 . S
C179 C178 1.439 . S
C179 C197 1.394 1_554 S
N180 Co164 2.278 1_556 S
N180 C183 1.332 1_556 S
N180 C185 1.332 . S
C181 C182 1.383 . S
C181 C184 1.390 1_554 S
C182 C181 1.383 . S
C182 C183 1.382 . S
C182 H208 0.950 . S
C183 N180 1.332 1_554 S
C183 C182 1.382 . S
C183 H194 0.952 . S
C184 C181 1.390 1_556 S
C184 C185 1.382 . S
C184 H209 0.950 . S
C185 N180 1.332 . S
C185 C184 1.382 . S
C185 H195 0.948 . S
N186 Co164 2.287 . S
N186 C190 1.332 1_554 S
N186 C191 1.332 . S
C187 C188 1.402 . S
C187 C191 1.382 . S
C187 H210 0.950 . S
C188 C187 1.402 . S
C188 C189 1.365 1_554 S
C189 C188 1.365 1_556 S
C189 C190 1.382 . S
C189 H211 0.950 . S
C190 N186 1.332 1_556 S
C190 C189 1.382 . S
C190 H192 0.952 . S
C191 N186 1.332 . S
C191 C187 1.382 . S
C191 H193 0.948 . S
H192 C190 0.952 . S
H193 C191 0.948 . S
H194 C183 0.952 . S
H195 C185 0.948 . S
C196 C162 1.395 . S
C196 C166 1.391 . S
C197 C159 1.387 . S
C197 C179 1.394 1_556 S
C198 C169 1.366 1_554 S
C198 C171 1.407 . S
C199 C174 1.395 . S
C199 C176 1.391 . S
H200 C160 0.951 . S
H201 C161 0.950 . S
H202 C167 0.949 . S
H203 C168 0.950 . S
H204 C172 0.951 . S
H205 C173 0.950 . S
H206 C177 0.949 . S
H207 C178 0.950 . S
H208 C182 0.950 . S
H209 C184 0.950 . S
H210 C187 0.950 . S
H211 C189 0.950 . S
C212 C213 1.443 . S
C212 N216 1.376 . S
C212 C250 1.389 . S
C213 C212 1.443 . S
C213 C214 1.340 . S
C213 H253 0.951 . S
C214 C213 1.340 . S
C214 C215 1.439 . S
C214 H254 0.950 . S
C215 C214 1.439 . S
C215 N216 1.374 . S
C215 C249 1.395 . S
N216 C212 1.376 . S
N216 C215 1.374 . S
N216 Co217 2.018 . S
Co217 N216 2.018 . S
Co217 N218 2.015 . S
Co217 N223 1.999 1_455 S
Co217 N228 1.975 1_455 S
Co217 N233 2.276 . S
Co217 N239 2.289 1_455 S
N218 Co217 2.015 . S
N218 C219 1.376 . S
N218 C222 1.383 . S
C219 N218 1.376 . S
C219 C220 1.446 . S
C219 C249 1.391 . S
C220 C219 1.446 . S
C220 C221 1.339 . S
C220 H255 0.949 . S
C221 C220 1.339 . S
C221 C222 1.439 . S
C221 H256 0.950 . S
C222 N218 1.383 . S
C222 C221 1.439 . S
C222 C251 1.395 . S
N223 Co217 1.999 1_655 S
N223 C224 1.376 . S
N223 C227 1.374 . S
C224 N223 1.376 . S
C224 C225 1.443 . S
C224 C251 1.385 1_655 S
C225 C224 1.443 . S
C225 C226 1.340 . S
C225 H257 0.951 . S
C226 C225 1.340 . S
C226 C227 1.439 . S
C226 H258 0.950 . S
C227 N223 1.374 . S
C227 C226 1.439 . S
C227 C252 1.395 . S
N228 Co217 1.975 1_655 S
N228 C229 1.376 . S
N228 C232 1.383 . S
C229 N228 1.376 . S
C229 C230 1.446 . S
C229 C252 1.391 . S
C230 C229 1.446 . S
C230 C231 1.339 . S
C230 H259 0.949 . S
C231 C230 1.339 . S
C231 C232 1.439 . S
C231 H260 0.950 . S
C232 N228 1.383 . S
C232 C231 1.439 . S
C232 C250 1.392 1_655 S
N233 Co217 2.276 . S
N233 C236 1.332 1_455 S
N233 C238 1.332 . S
C234 C235 1.361 1_455 S
C234 C237 1.425 . S
C235 C234 1.361 1_655 S
C235 C236 1.382 . S
C235 H261 0.950 . S
C236 N233 1.332 1_655 S
C236 C235 1.382 . S
C236 H247 0.952 . S
C237 C234 1.425 . S
C237 C238 1.382 . S
C237 H262 0.950 . S
C238 N233 1.332 . S
C238 C237 1.382 . S
C238 H248 0.948 . S
N239 Co217 2.289 1_655 S
N239 C243 1.332 1_655 S
N239 C244 1.332 . S
C240 C241 1.381 1_655 S
C240 C244 1.382 . S
C240 H263 0.950 . S
C241 C240 1.381 1_455 S
C241 C242 1.390 . S
C242 C241 1.390 . S
C242 C243 1.382 . S
C242 H264 0.950 . S
C243 N239 1.332 1_455 S
C243 C242 1.382 . S
C243 H245 0.952 . S
C244 N239 1.332 . S
C244 C240 1.382 . S
C244 H246 0.948 . S
H245 C243 0.952 . S
H246 C244 0.948 . S
H247 C236 0.952 . S
H248 C238 0.948 . S
C249 C215 1.395 . S
C249 C219 1.391 . S
C250 C212 1.389 . S
C250 C232 1.392 1_455 S
C251 C222 1.395 . S
C251 C224 1.385 1_455 S
C252 C227 1.395 . S
C252 C229 1.391 . S
H253 C213 0.951 . S
H254 C214 0.950 . S
H255 C220 0.949 . S
H256 C221 0.950 . S
H257 C225 0.951 . S
H258 C226 0.950 . S
H259 C230 0.949 . S
H260 C231 0.950 . S
H261 C235 0.950 . S
H262 C237 0.950 . S
H263 C240 0.950 . S
H264 C242 0.950 . S
C265 C266 1.443 . S
C265 N269 1.376 . S
C265 C303 1.389 . S
C266 C265 1.443 . S
C266 C267 1.340 . S
C266 H306 0.951 . S
C267 C266 1.340 . S
C267 C268 1.439 . S
C267 H307 0.950 . S
C268 C267 1.439 . S
C268 N269 1.374 . S
C268 C302 1.395 . S
N269 C265 1.376 . S
N269 C268 1.374 . S
N269 Co270 2.008 . S
Co270 N269 2.008 . S
Co270 N271 1.995 . S
Co270 N276 2.008 1_545 S
Co270 N281 1.995 1_545 S
Co270 N286 2.282 . S
Co270 N292 2.295 1_545 S
N271 Co270 1.995 . S
N271 C272 1.376 . S
N271 C275 1.383 . S
C272 N271 1.376 . S
C272 C273 1.446 . S
C272 C302 1.391 . S
C273 C272 1.446 . S
C273 C274 1.339 . S
C273 H308 0.949 . S
C274 C273 1.339 . S
C274 C275 1.439 . S
C274 H309 0.950 . S
C275 N271 1.383 . S
C275 C274 1.439 . S
C275 C304 1.392 . S
N276 Co270 2.008 1_565 S
N276 C277 1.376 . S
N276 C280 1.374 . S
C277 N276 1.376 . S
C277 C278 1.443 . S
C277 C304 1.389 1_565 S
C278 C277 1.443 . S
C278 C279 1.340 . S
C278 H310 0.951 . S
C279 C278 1.340 . S
C279 C280 1.439 . S
C279 H311 0.950 . S
C280 N276 1.374 . S
C280 C279 1.439 . S
C280 C305 1.395 . S
N281 Co270 1.995 1_565 S
N281 C282 1.376 . S
N281 C285 1.383 . S
C282 N281 1.376 . S
C282 C283 1.446 . S
C282 C305 1.391 . S
C283 C282 1.446 . S
C283 C284 1.339 . S
C283 H312 0.949 . S
C284 C283 1.339 . S
C284 C285 1.439 . S
C284 H313 0.950 . S
C285 N281 1.383 . S
C285 C284 1.439 . S
C285 C303 1.392 1_565 S
N286 Co270 2.282 . S
N286 C289 1.332 1_545 S
N286 C291 1.332 . S
C287 C288 1.386 1_545 S
C287 C290 1.388 . S
C288 C287 1.386 1_565 S
C288 C289 1.382 . S
C288 H314 0.950 . S
C289 N286 1.332 1_565 S
C289 C288 1.382 . S
C289 H300 0.952 . S
C290 C287 1.388 . S
C290 C291 1.382 . S
C290 H315 0.950 . S
C291 N286 1.332 . S
C291 C290 1.382 . S
C291 H301 0.948 . S
N292 Co270 2.295 1_565 S
N292 C296 1.293 1_565 S
N292 C297 1.359 . S
C293 C294 1.388 1_565 S
C293 C297 1.382 . S
C293 H316 0.950 . S
C294 C293 1.388 1_545 S
C294 C295 1.386 . S
C295 C294 1.386 . S
C295 C296 1.382 . S
C295 H317 0.950 . S
C296 N292 1.293 1_545 S
C296 C295 1.382 . S
C296 H298 0.952 . S
C297 N292 1.359 . S
C297 C293 1.382 . S
C297 H299 0.948 . S
H298 C296 0.952 . S
H299 C297 0.948 . S
H300 C289 0.952 . S
H301 C291 0.948 . S
C302 C268 1.395 . S
C302 C272 1.391 . S
C303 C265 1.389 . S
C303 C285 1.392 1_545 S
C304 C275 1.392 . S
C304 C277 1.389 1_545 S
C305 C280 1.395 . S
C305 C282 1.391 . S
H306 C266 0.951 . S
H307 C267 0.950 . S
H308 C273 0.949 . S
H309 C274 0.950 . S
H310 C278 0.951 . S
H311 C279 0.950 . S
H312 C283 0.949 . S
H313 C284 0.950 . S
H314 C288 0.950 . S
H315 C290 0.950 . S
H316 C293 0.950 . S
H317 C295 0.950 . S
C318 C319 1.338 . S
C318 C320 1.345 . S
C318 H338 0.932 . S
C319 C318 1.338 . S
C319 C328 1.319 1_455 S
C320 C318 1.345 . S
C320 C332 1.347 . S
C320 H339 0.928 . S
C321 C322 1.326 1_655 S
C321 C323 1.345 . S
C321 H340 0.932 . S
C322 C321 1.326 1_455 S
C322 C330 1.345 . S
C323 C321 1.345 . S
C323 C335 1.321 1_655 S
C323 H341 0.928 . S
H324 C328 0.932 . S
H325 C329 0.928 . S
H326 C330 0.932 . S
H327 C331 0.928 . S
C328 C319 1.319 1_655 S
C328 H324 0.932 . S
C328 C329 1.345 . S
C329 H325 0.928 . S
C329 C328 1.345 . S
C329 C332 1.328 1_655 S
C330 C322 1.345 . S
C330 H326 0.932 . S
C330 C331 1.345 . S
C331 H327 0.928 . S
C331 C330 1.345 . S
C331 C335 1.340 . S
C332 C320 1.347 . S
C332 C329 1.328 1_455 S
C332 C333 1.487 . S
C333 C332 1.487 . S
C333 C334 1.185 . S
C334 C333 1.185 . S
C334 C337 1.482 . S
C335 C323 1.321 1_455 S
C335 C331 1.340 . S
C335 C336 1.487 . S
C336 C335 1.487 . S
C336 C337 1.185 . S
C337 C334 1.482 . S
C337 C336 1.185 . S
H338 C318 0.932 . S
H339 C320 0.928 . S
H340 C321 0.932 . S
H341 C323 0.928 . S
C342 C343 1.332 . S
C342 C344 1.345 . S
C342 H362 0.932 . S
C343 C342 1.332 . S
C343 C352 1.332 1_545 S
C344 C342 1.345 . S
C344 C356 1.334 . S
C344 H363 0.928 . S
C345 C346 1.332 1_565 S
C345 C347 1.345 . S
C345 H364 0.932 . S
C346 C345 1.332 1_545 S
C346 C354 1.332 . S
C347 C345 1.345 . S
C347 C359 1.334 1_565 S
C347 H365 0.928 . S
H348 C352 0.932 . S
H349 C353 0.928 . S
H350 C354 0.932 . S
H351 C355 0.928 . S
C352 C343 1.332 1_565 S
C352 H348 0.932 . S
C352 C353 1.345 . S
C353 H349 0.928 . S
C353 C352 1.345 . S
C353 C356 1.334 1_565 S
C354 C346 1.332 . S
C354 H350 0.932 . S
C354 C355 1.345 . S
C355 H351 0.928 . S
C355 C354 1.345 . S
C355 C359 1.334 . S
C356 C344 1.334 . S
C356 C353 1.334 1_545 S
C356 C357 1.487 . S
C357 C356 1.487 . S
C357 C358 1.185 . S
C358 C357 1.185 . S
C358 C361 1.482 . S
C359 C347 1.334 1_545 S
C359 C355 1.334 . S
C359 C360 1.487 . S
C360 C359 1.487 . S
C360 C361 1.185 . S
C361 C358 1.482 . S
C361 C360 1.185 . S
H362 C342 0.932 . S
H363 C344 0.928 . S
H364 C345 0.932 . S
H365 C347 0.928 . S
C366 C367 1.346 . S
C366 C368 1.345 . S
C366 H386 0.932 . S
C367 C366 1.346 . S
C367 C376 1.310 1_455 S
C368 C366 1.345 . S
C368 C380 1.355 . S
C368 H387 0.928 . S
C369 C370 1.317 1_655 S
C369 C371 1.345 . S
C369 H388 0.932 . S
C370 C369 1.317 1_455 S
C370 C378 1.353 . S
C371 C369 1.345 . S
C371 C383 1.313 1_655 S
C371 H389 0.928 . S
H372 C376 0.932 . S
H373 C377 0.928 . S
H374 C378 0.932 . S
H375 C379 0.928 . S
C376 C367 1.310 1_655 S
C376 H372 0.932 . S
C376 C377 1.345 . S
C377 H373 0.928 . S
C377 C376 1.345 . S
C377 C380 1.320 1_655 S
C378 C370 1.353 . S
C378 H374 0.932 . S
C378 C379 1.345 . S
C379 H375 0.928 . S
C379 C378 1.345 . S
C379 C383 1.349 . S
C380 C368 1.355 . S
C380 C377 1.320 1_455 S
C380 C381 1.487 . S
C381 C380 1.487 . S
C381 C382 1.184 . S
C382 C381 1.184 . S
C382 C385 1.482 . S
C383 C371 1.313 1_455 S
C383 C379 1.349 . S
C383 C384 1.487 . S
C384 C383 1.487 . S
C384 C385 1.184 . S
C385 C382 1.482 . S
C385 C384 1.184 . S
H386 C366 0.932 . S
H387 C368 0.928 . S
H388 C369 0.932 . S
H389 C371 0.928 . S
C390 C391 1.332 . S
C390 C392 1.345 . S
C390 H410 0.932 . S
C391 C390 1.332 . S
C391 C400 1.332 1_545 S
C392 C390 1.345 . S
C392 C404 1.334 . S
C392 H411 0.928 . S
C393 C394 1.332 1_565 S
C393 C395 1.345 . S
C393 H412 0.932 . S
C394 C393 1.332 1_545 S
C394 C402 1.332 . S
C395 C393 1.345 . S
C395 C407 1.334 1_565 S
C395 H413 0.928 . S
H396 C400 0.932 . S
H397 C401 0.928 . S
H398 C402 0.932 . S
H399 C403 0.928 . S
C400 C391 1.332 1_565 S
C400 H396 0.932 . S
C400 C401 1.345 . S
C401 H397 0.928 . S
C401 C400 1.345 . S
C401 C404 1.334 1_565 S
C402 C394 1.332 . S
C402 H398 0.932 . S
C402 C403 1.345 . S
C403 H399 0.928 . S
C403 C402 1.345 . S
C403 C407 1.334 . S
C404 C392 1.334 . S
C404 C401 1.334 1_545 S
C404 C405 1.487 . S
C405 C404 1.487 . S
C405 C406 1.185 . S
C406 C405 1.185 . S
C406 C409 1.482 . S
C407 C395 1.334 1_545 S
C407 C403 1.334 . S
C407 C408 1.487 . S
C408 C407 1.487 . S
C408 C409 1.185 . S
C409 C406 1.482 . S
C409 C408 1.185 . S
H410 C390 0.932 . S
H411 C392 0.928 . S
H412 C393 0.932 . S
H413 C395 0.928 . S
C414 C415 1.332 1_565 S
C414 C416 1.345 . S
C414 H434 0.932 . S
C415 C414 1.332 1_545 S
C415 C424 1.332 . S
C416 C414 1.345 . S
C416 C428 1.334 1_565 S
C416 H435 0.928 . S
C417 C418 1.332 . S
C417 C419 1.345 . S
C417 H436 0.932 . S
C418 C417 1.332 . S
C418 C426 1.332 1_545 S
C419 C417 1.345 . S
C419 C431 1.334 . S
C419 H437 0.928 . S
H420 C424 0.932 . S
H421 C425 0.928 . S
H422 C426 0.932 . S
H423 C427 0.928 . S
C424 C415 1.332 . S
C424 H420 0.932 . S
C424 C425 1.345 . S
C425 H421 0.928 . S
C425 C424 1.345 . S
C425 C428 1.334 . S
C426 C418 1.332 1_565 S
C426 H422 0.932 . S
C426 C427 1.345 . S
C427 H423 0.928 . S
C427 C426 1.345 . S
C427 C431 1.334 1_565 S
C428 C416 1.334 1_545 S
C428 C425 1.334 . S
C428 C429 1.487 . S
C429 C428 1.487 . S
C429 C430 1.185 . S
C430 C429 1.185 . S
C430 C433 1.482 . S
C431 C419 1.334 . S
C431 C427 1.334 1_545 S
C431 C432 1.487 . S
C432 C431 1.487 . S
C432 C433 1.185 . S
C433 C430 1.482 . S
C433 C432 1.185 . S
H434 C414 0.932 . S
H435 C416 0.928 . S
H436 C417 0.932 . S
H437 C419 0.928 . S
C438 C439 1.338 . S
C438 C440 1.345 . S
C438 H458 0.932 . S
C439 C438 1.338 . S
C439 C448 1.319 1_455 S
C440 C438 1.345 . S
C440 C452 1.347 . S
C440 H459 0.928 . S
C441 C442 1.326 1_655 S
C441 C443 1.345 . S
C441 H460 0.932 . S
C442 C441 1.326 1_455 S
C442 C450 1.345 . S
C443 C441 1.345 . S
C443 C455 1.321 1_655 S
C443 H461 0.928 . S
H444 C448 0.932 . S
H445 C449 0.928 . S
H446 C450 0.932 . S
H447 C451 0.928 . S
C448 C439 1.319 1_655 S
C448 H444 0.932 . S
C448 C449 1.345 . S
C449 H445 0.928 . S
C449 C448 1.345 . S
C449 C452 1.328 1_655 S
C450 C442 1.345 . S
C450 H446 0.932 . S
C450 C451 1.345 . S
C451 H447 0.928 . S
C451 C450 1.345 . S
C451 C455 1.340 . S
C452 C440 1.347 . S
C452 C449 1.328 1_455 S
C452 C453 1.487 . S
C453 C452 1.487 . S
C453 C454 1.185 . S
C454 C453 1.185 . S
C454 C457 1.482 . S
C455 C443 1.321 1_455 S
C455 C451 1.340 . S
C455 C456 1.487 . S
C456 C455 1.487 . S
C456 C457 1.185 . S
C457 C454 1.482 . S
C457 C456 1.185 . S
H458 C438 0.932 . S
H459 C440 0.928 . S
H460 C441 0.932 . S
H461 C443 0.928 . S
C462 C463 1.332 1_565 S
C462 C464 1.345 . S
C462 H482 0.932 . S
C463 C462 1.332 1_545 S
C463 C472 1.332 . S
C464 C462 1.345 . S
C464 C476 1.334 1_565 S
C464 H483 0.928 . S
C465 C466 1.332 . S
C465 C467 1.345 . S
C465 H484 0.932 . S
C466 C465 1.332 . S
C466 C474 1.332 1_545 S
C467 C465 1.345 . S
C467 C479 1.334 . S
C467 H485 0.928 . S
H468 C472 0.932 . S
H469 C473 0.928 . S
H470 C474 0.932 . S
H471 C475 0.928 . S
C472 C463 1.332 . S
C472 H468 0.932 . S
C472 C473 1.345 . S
C473 H469 0.928 . S
C473 C472 1.345 . S
C473 C476 1.334 . S
C474 C466 1.332 1_565 S
C474 H470 0.932 . S
C474 C475 1.345 . S
C475 H471 0.928 . S
C475 C474 1.345 . S
C475 C479 1.334 1_565 S
C476 C464 1.334 1_545 S
C476 C473 1.334 . S
C476 C477 1.487 . S
C477 C476 1.487 . S
C477 C478 1.185 . S
C478 C477 1.185 . S
C478 C481 1.482 . S
C479 C467 1.334 . S
C479 C475 1.334 1_545 S
C479 C480 1.487 . S
C480 C479 1.487 . S
C480 C481 1.185 . S
C481 C478 1.482 . S
C481 C480 1.185 . S
H482 C462 0.932 . S
H483 C464 0.928 . S
H484 C465 0.932 . S
H485 C467 0.928 . S
C486 C487 1.330 1_655 S
C486 C488 1.345 . S
C486 H506 0.932 . S
C487 C486 1.330 1_455 S
C487 C496 1.327 . S
C488 C486 1.345 . S
C488 C500 1.339 1_655 S
C488 H507 0.928 . S
C489 C490 1.334 . S
C489 C491 1.345 . S
C489 H508 0.932 . S
C490 C489 1.334 . S
C490 C498 1.336 1_455 S
C491 C489 1.345 . S
C491 C503 1.329 . S
C491 H509 0.928 . S
H492 C496 0.932 . S
H493 C497 0.928 . S
H494 C498 0.932 . S
H495 C499 0.928 . S
C496 C487 1.327 . S
C496 H492 0.932 . S
C496 C497 1.345 . S
C497 H493 0.928 . S
C497 C496 1.345 . S
C497 C500 1.336 . S
C498 C490 1.336 1_655 S
C498 H494 0.932 . S
C498 C499 1.345 . S
C499 H495 0.928 . S
C499 C498 1.345 . S
C499 C503 1.332 1_655 S
C500 C488 1.339 1_455 S
C500 C497 1.336 . S
C500 C501 1.487 . S
C501 C500 1.487 . S
C501 C502 1.185 . S
C502 C501 1.185 . S
C502 C505 1.482 . S
C503 C491 1.329 . S
C503 C499 1.332 1_455 S
C503 C504 1.487 . S
C504 C503 1.487 . S
C504 C505 1.184 . S
C505 C502 1.482 . S
C505 C504 1.184 . S
H506 C486 0.932 . S
H507 C488 0.928 . S
H508 C489 0.932 . S
H509 C491 0.928 . S
C510 C511 1.319 1_556 S
C510 C512 1.345 . S
C510 H530 0.932 . S
C511 C510 1.319 1_554 S
C511 C520 1.340 . S
C512 C510 1.345 . S
C512 C524 1.326 1_556 S
C512 H531 0.928 . S
C513 C514 1.343 . S
C513 C515 1.345 . S
C513 H532 0.932 . S
C514 C513 1.343 . S
C514 C522 1.324 1_554 S
C515 C513 1.345 . S
C515 C527 1.342 . S
C515 H533 0.928 . S
H516 C520 0.932 . S
H517 C521 0.928 . S
H518 C522 0.932 . S
H519 C523 0.928 . S
C520 C511 1.340 . S
C520 H516 0.932 . S
C520 C521 1.345 . S
C521 H517 0.928 . S
C521 C520 1.345 . S
C521 C524 1.346 . S
C522 C514 1.324 1_556 S
C522 H518 0.932 . S
C522 C523 1.345 . S
C523 H519 0.928 . S
C523 C522 1.345 . S
C523 C527 1.322 1_556 S
C524 C512 1.326 1_554 S
C524 C521 1.346 . S
C524 C525 1.487 . S
C525 C524 1.487 . S
C525 C526 1.184 . S
C526 C525 1.184 . S
C526 C529 1.482 . S
C527 C515 1.342 . S
C527 C523 1.322 1_554 S
C527 C528 1.487 . S
C528 C527 1.487 . S
C528 C529 1.184 . S
C529 C526 1.482 . S
C529 C528 1.184 . S
H530 C510 0.932 . S
H531 C512 0.928 . S
H532 C513 0.932 . S
H533 C515 0.928 . S
C534 C535 1.343 . S
C534 C536 1.345 . S
C534 H554 0.932 . S
C535 C534 1.343 . S
C535 C544 1.324 1_554 S
C536 C534 1.345 . S
C536 C548 1.342 . S
C536 H555 0.928 . S
C537 C538 1.320 1_556 S
C537 C539 1.345 . S
C537 H556 0.932 . S
C538 C537 1.320 1_554 S
C538 C546 1.340 . S
C539 C537 1.345 . S
C539 C551 1.326 1_556 S
C539 H557 0.928 . S
H540 C544 0.932 . S
H541 C545 0.928 . S
H542 C546 0.932 . S
H543 C547 0.928 . S
C544 C535 1.324 1_556 S
C544 H540 0.932 . S
C544 C545 1.345 . S
C545 H541 0.928 . S
C545 C544 1.345 . S
C545 C548 1.323 1_556 S
C546 C538 1.340 . S
C546 H542 0.932 . S
C546 C547 1.345 . S
C547 H543 0.928 . S
C547 C546 1.345 . S
C547 C551 1.346 . S
C548 C536 1.342 . S
C548 C545 1.323 1_554 S
C548 C549 1.487 . S
C549 C548 1.487 . S
C549 C550 1.184 . S
C550 C549 1.184 . S
C550 C553 1.482 . S
C551 C539 1.326 1_554 S
C551 C547 1.346 . S
C551 C552 1.487 . S
C552 C551 1.487 . S
C552 C553 1.184 . S
C553 C550 1.482 . S
C553 C552 1.184 . S
H554 C534 0.932 . S
H555 C536 0.928 . S
H556 C537 0.932 . S
H557 C539 0.928 . S
C558 C559 1.344 . S
C558 C560 1.345 . S
C558 H578 0.932 . S
C559 C558 1.344 . S
C559 C568 1.323 1_554 S
C560 C558 1.345 . S
C560 C572 1.343 . S
C560 H579 0.928 . S
C561 C562 1.320 1_556 S
C561 C563 1.345 . S
C561 H580 0.932 . S
C562 C561 1.320 1_554 S
C562 C570 1.340 . S
C563 C561 1.345 . S
C563 C575 1.326 1_556 S
C563 H581 0.928 . S
H564 C568 0.932 . S
H565 C569 0.928 . S
H566 C570 0.932 . S
H567 C571 0.928 . S
C568 C559 1.323 1_556 S
C568 H564 0.932 . S
C568 C569 1.345 . S
C569 H565 0.928 . S
C569 C568 1.345 . S
C569 C572 1.322 1_556 S
C570 C562 1.340 . S
C570 H566 0.932 . S
C570 C571 1.345 . S
C571 H567 0.928 . S
C571 C570 1.345 . S
C571 C575 1.346 . S
C572 C560 1.343 . S
C572 C569 1.322 1_554 S
C572 C573 1.487 . S
C573 C572 1.487 . S
C573 C574 1.185 . S
C574 C573 1.185 . S
C574 C577 1.482 . S
C575 C563 1.326 1_554 S
C575 C571 1.346 . S
C575 C576 1.487 . S
C576 C575 1.487 . S
C576 C577 1.185 . S
C577 C574 1.482 . S
C577 C576 1.185 . S
H578 C558 0.932 . S
H579 C560 0.928 . S
H580 C561 0.932 . S
H581 C563 0.928 . S
C582 C583 1.322 1_556 S
C582 C584 1.345 . S
C582 H602 0.932 . S
C583 C582 1.322 1_554 S
C583 C592 1.337 . S
C584 C582 1.345 . S
C584 C596 1.328 1_556 S
C584 H603 0.928 . S
C585 C586 1.341 . S
C585 C587 1.345 . S
C585 H604 0.932 . S
C586 C585 1.341 . S
C586 C594 1.326 1_554 S
C587 C585 1.345 . S
C587 C599 1.340 . S
C587 H605 0.928 . S
H588 C592 0.932 . S
H589 C593 0.928 . S
H590 C594 0.932 . S
H591 C595 0.928 . S
C592 C583 1.337 . S
C592 H588 0.932 . S
C592 C593 1.345 . S
C593 H589 0.928 . S
C593 C592 1.345 . S
C593 C596 1.343 . S
C594 C586 1.326 1_556 S
C594 H590 0.932 . S
C594 C595 1.345 . S
C595 H591 0.928 . S
C595 C594 1.345 . S
C595 C599 1.324 1_556 S
C596 C584 1.328 1_554 S
C596 C593 1.343 . S
C596 C597 1.487 . S
C597 C596 1.487 . S
C597 C598 1.185 . S
C598 C597 1.185 . S
C598 C601 1.482 . S
C599 C587 1.340 . S
C599 C595 1.324 1_554 S
C599 C600 1.487 . S
C600 C599 1.487 . S
C600 C601 1.185 . S
C601 C598 1.482 . S
C601 C600 1.185 . S
H602 C582 0.932 . S
H603 C584 0.928 . S
H604 C585 0.932 . S
H605 C587 0.928 . S
C319 C29 1.507 . S
C322 C241 1.495 . S
C343 C38 1.504 . S
C346 C303 1.499 . S
C367 C234 1.495 . S
C370 C22 1.490 1_455 S
C391 C304 1.499 . S
C394 C39 1.499 . S
C415 C294 1.500 . S
C418 C91 1.499 . S
C439 C128 1.507 . S
C442 C251 1.494 . S
C463 C287 1.499 . S
C466 C92 1.503 . S
C487 C250 1.506 . S
C490 C135 1.490 1_455 S
C511 C144 1.503 . S
C514 C198 1.504 . S
C535 C188 1.504 . S
C538 C75 1.503 . S
C559 C145 1.486 1_554 S
C562 C197 1.502 1_554 S
C583 C181 1.504 . S
C586 C82 1.490 1_554 S
