# Generated by pormake.
# Topology uoj, (4)-cn, num edge types: 1
# Building blocks:
#     Node 0, Type 0, BuildingBlock: CEKHIL_clean_sbu_0, # of connection points: 4
#     Node 1, Type 0, BuildingBlock: CEKHIL_clean_sbu_0, # of connection points: 4
#     Node 2, Type 0, BuildingBlock: CEKHIL_clean_sbu_0, # of connection points: 4
#     Node 3, Type 0, BuildingBlock: CEKHIL_clean_sbu_0, # of connection points: 4
#     Node 4, Type 0, BuildingBlock: CEKHIL_clean_sbu_0, # of connection points: 4
#     Node 5, Type 0, BuildingBlock: CEKHIL_clean_sbu_0, # of connection points: 4
#     Node 6, Type 0, BuildingBlock: CEKHIL_clean_sbu_0, # of connection points: 4
#     Node 7, Type 0, BuildingBlock: CEKHIL_clean_sbu_0, # of connection points: 4
#     Edge 8, Type (0, 0), BuildingBlock: OJICUG_clean_linker_0, # of connection points: 2
#     Edge 9, Type (0, 0), BuildingBlock: OJICUG_clean_linker_0, # of connection points: 2
#     Edge 10, Type (0, 0), BuildingBlock: OJICUG_clean_linker_0, # of connection points: 2
#     Edge 11, Type (0, 0), BuildingBlock: OJICUG_clean_linker_0, # of connection points: 2
#     Edge 12, Type (0, 0), BuildingBlock: OJICUG_clean_linker_0, # of connection points: 2
#     Edge 13, Type (0, 0), BuildingBlock: OJICUG_clean_linker_0, # of connection points: 2
#     Edge 14, Type (0, 0), BuildingBlock: OJICUG_clean_linker_0, # of connection points: 2
#     Edge 15, Type (0, 0), BuildingBlock: OJICUG_clean_linker_0, # of connection points: 2
#     Edge 16, Type (0, 0), BuildingBlock: OJICUG_clean_linker_0, # of connection points: 2
#     Edge 17, Type (0, 0), BuildingBlock: OJICUG_clean_linker_0, # of connection points: 2
#     Edge 18, Type (0, 0), BuildingBlock: OJICUG_clean_linker_0, # of connection points: 2
#     Edge 19, Type (0, 0), BuildingBlock: OJICUG_clean_linker_0, # of connection points: 2
#     Edge 20, Type (0, 0), BuildingBlock: OJICUG_clean_linker_0, # of connection points: 2
#     Edge 21, Type (0, 0), BuildingBlock: OJICUG_clean_linker_0, # of connection points: 2
#     Edge 22, Type (0, 0), BuildingBlock: OJICUG_clean_linker_0, # of connection points: 2
#     Edge 23, Type (0, 0), BuildingBlock: OJICUG_clean_linker_0, # of connection points: 2
# Relax obj value: 0.110
# Max RMSD: 0.136
# Mean RMSD: 0.133
data_MOF--net-uoj--node1-CEKHIL_clean_sbu_0--edge1-OJICUG_clean_linker_0
_symmetry_space_group_name_H-M    P1
_symmetry_Int_Tables_number       1
_symmetry_cell_setting            triclinic
loop_
_symmetry_equiv_pos_as_xyz
'x, y, z'
_cell_length_a     24.147908
_cell_length_b     23.850765
_cell_length_c     25.814519
_cell_angle_alpha  89.97942
_cell_angle_beta   89.996681
_cell_angle_gamma 88.723412
loop_
_atom_site_label
_atom_site_type_symbol
_atom_site_fract_x
_atom_site_fract_y
_atom_site_fract_z
_atom_type_partial_charge
Co0 Co 0.0677 0.28171 0.40978 0.0
O1 O 0.1206 0.31587 0.36525 0.0
O2 O 0.03583 0.2928 0.34137 0.0
C3 C 0.12544 0.21739 0.44497 0.0
O4 O 0.00265 0.24556 0.44699 0.0
Co5 Co 0.0895 0.28963 0.52948 0.0
O6 O 0.02612 0.23858 0.53134 0.0
C7 C 0.04784 0.38804 0.47208 0.0
C8 C 0.08281 0.31553 0.32968 0.0
C9 C 0.99304 0.22953 0.49385 0.0
O10 O 0.04049 0.35801 0.43148 0.0
O11 O 0.07112 0.36975 0.51347 0.0
O12 O 0.10267 0.20733 0.40033 0.0
O13 O 0.11746 0.26721 0.46275 0.0
Co14 Co 0.27999 0.93101 0.58092 0.0
O15 O 0.20873 0.90253 0.59537 0.0
O16 O 0.25211 0.89163 0.52035 0.0
C17 C 0.32046 0.90339 0.65559 0.0
O18 O 0.3553 0.95529 0.55488 0.0
Co19 Co 0.31743 0.02739 0.65385 0.0
O20 O 0.38409 0.02285 0.6094 0.0
C21 C 0.23635 0.0518 0.5725 0.0
C22 C 0.20784 0.88411 0.54825 0.0
C23 C 0.39071 0.99158 0.5697 0.0
O24 O 0.24452 0.00229 0.55425 0.0
O25 O 0.25737 0.06835 0.61517 0.0
O26 O 0.31657 0.86841 0.61723 0.0
O27 O 0.29412 0.95058 0.6496 0.0
Co28 Co 0.93177 0.71705 0.40856 0.0
O29 O 0.87816 0.6801 0.36688 0.0
O30 O 0.9608 0.70573 0.33911 0.0
C31 C 0.87378 0.78017 0.44515 0.0
O32 O 0.99698 0.75647 0.44216 0.0
Co33 Co 0.91676 0.71145 0.52924 0.0
O34 O 0.97526 0.76813 0.52652 0.0
C35 C 0.95901 0.61307 0.47212 0.0
C36 C 0.91421 0.68111 0.32975 0.0
C37 C 0.00647 0.77674 0.48754 0.0
O38 O 0.96272 0.6422 0.43046 0.0
O39 O 0.93771 0.6317 0.51428 0.0
O40 O 0.89381 0.79 0.39931 0.0
O41 O 0.88425 0.73095 0.46345 0.0
Co42 Co 0.72365 0.06592 0.58697 0.0
O43 O 0.79333 0.09784 0.60195 0.0
O44 O 0.74997 0.10733 0.52683 0.0
C45 C 0.68231 0.09152 0.66201 0.0
O46 O 0.64964 0.03876 0.56026 0.0
Co47 Co 0.68845 0.96797 0.65913 0.0
O48 O 0.62215 0.97004 0.61412 0.0
C49 C 0.76981 0.94617 0.57706 0.0
C50 C 0.79308 0.11786 0.55537 0.0
C51 C 0.61518 0.00121 0.57439 0.0
O52 O 0.76186 -0.00381 0.55982 0.0
O53 O 0.74851 0.92855 0.61924 0.0
O54 O 0.68448 0.12668 0.62365 0.0
O55 O 0.71018 0.04527 0.6557 0.0
Co56 Co 0.42716 0.78376 0.92521 0.0
O57 O 0.37222 0.82401 0.88559 0.0
O58 O 0.45791 0.80499 0.85886 0.0
C59 C 0.3728 0.71268 0.94841 0.0
O60 O 0.49432 0.74193 0.95534 0.0
Co61 Co 0.41116 0.77405 0.04239 0.0
O62 O 0.47199 0.71748 0.03656 0.0
C63 C 0.45164 0.87938 0.00088 0.0
C64 C 0.40926 0.82733 0.84947 0.0
C65 C 0.50447 0.71514 0.99769 0.0
O66 O 0.45192 0.85585 0.95624 0.0
O67 O 0.43386 0.85503 0.04162 0.0
O68 O 0.39768 0.71341 0.90392 0.0
O69 O 0.37647 0.75805 0.976 0.0
Co70 Co 0.79151 0.56178 0.06764 0.0
O71 O 0.83265 0.62048 0.09983 0.0
O72 O 0.81979 0.53648 0.13391 0.0
C73 C 0.71653 0.61295 0.04513 0.0
O74 O 0.74988 0.49202 0.0458 0.0
Co75 Co 0.77123 0.56879 0.94963 0.0
O76 O 0.71575 0.5115 0.96655 0.0
C77 C 0.87884 0.52738 0.98633 0.0
C78 C 0.84045 0.58623 0.13828 0.0
C79 C 0.71815 0.48108 0.00717 0.0
O80 O 0.8601 0.53251 0.03263 0.0
O81 O 0.85129 0.54302 0.9463 0.0
O82 O 0.72266 0.59433 0.09205 0.0
O83 O 0.75958 0.60732 0.01526 0.0
Co84 Co 0.56615 0.20177 0.93312 0.0
O85 O 0.62495 0.16569 0.89475 0.0
O86 O 0.53992 0.18171 0.86488 0.0
C87 C 0.61347 0.27495 0.96233 0.0
O88 O 0.49585 0.23967 0.96112 0.0
Co89 Co 0.57514 0.2081 0.05203 0.0
O90 O 0.51499 0.26509 0.04289 0.0
C91 C 0.54144 0.10267 0.00521 0.0
C92 C 0.5899 0.16207 0.8569 0.0
C93 C 0.48419 0.2671 0.00279 0.0
O94 O 0.5432 0.1273 0.96102 0.0
O95 O 0.55526 0.12662 0.0475 0.0
O96 O 0.59311 0.27475 0.91582 0.0
O97 O 0.61153 0.22785 0.98744 0.0
Co98 Co 0.19657 0.42616 0.06014 0.0
O99 O 0.16435 0.36638 0.09889 0.0
O100 O 0.1678 0.45463 0.12533 0.0
C101 C 0.27569 0.38129 0.03881 0.0
O102 O 0.22854 0.49817 0.0303 0.0
Co103 Co 0.21155 0.40837 0.94273 0.0
O104 O 0.25524 0.47708 0.94899 0.0
C105 C 0.1016 0.43792 0.98128 0.0
C106 C 0.15301 0.40332 0.13431 0.0
C107 C 0.2528 0.51058 0.98744 0.0
O108 O 0.12331 0.4419 0.02641 0.0
O109 O 0.12906 0.42269 0.94114 0.0
O110 O 0.2697 0.4051 0.08372 0.0
O111 O 0.23121 0.3787 0.01074 0.0
C112 C 0.09409 0.33862 0.18539 0.0
C113 C 0.12776 0.38602 0.1836 0.0
H114 H 0.05185 0.27972 0.23356 0.0
C115 C 0.14162 0.41297 0.22988 0.0
H116 H 0.0827 0.31724 0.15006 0.0
C117 C 0.12527 0.39065 0.27736 0.0
C118 C 0.09345 0.34203 0.27927 0.0
H119 H 0.16764 0.44939 0.22954 0.0
H120 H 0.13857 0.41072 0.31276 0.0
C121 C 0.07632 0.31724 0.23294 0.0
C122 C 0.38929 0.84492 0.70555 0.0
C123 C 0.34925 0.88859 0.70416 0.0
H124 H 0.44149 0.79226 0.75332 0.0
C125 C 0.33423 0.91593 0.75035 0.0
H126 H 0.40182 0.8235 0.67031 0.0
C127 C 0.35598 0.89742 0.79756 0.0
C128 C 0.39432 0.85238 0.79923 0.0
H129 H 0.30356 0.94979 0.75034 0.0
H130 H 0.34161 0.9173 0.83298 0.0
C131 C 0.41227 0.82739 0.75281 0.0
C132 C 0.87009 0.60478 0.2804 0.0
C133 C 0.90232 0.65312 0.28028 0.0
H134 H 0.82669 0.54459 0.23531 0.0
C135 C 0.91923 0.6758 0.2329 0.0
H136 H 0.85705 0.58618 0.31659 0.0
C137 C 0.90086 0.65259 0.18628 0.0
C138 C 0.8667 0.6055 0.18652 0.0
H139 H 0.94412 0.71301 0.23193 0.0
H140 H 0.91213 0.67237 0.15011 0.0
C141 C 0.85304 0.58074 0.23394 0.0
C142 C 0.58773 0.16255 0.76009 0.0
C143 C 0.60786 0.13921 0.80652 0.0
H144 H 0.59658 0.16633 0.67741 0.0
C145 C 0.64947 0.09723 0.8047 0.0
H146 H 0.55588 0.19526 0.76065 0.0
C147 C 0.67174 0.07985 0.75731 0.0
C148 C 0.65394 0.10537 0.71105 0.0
H149 H 0.66554 0.07857 0.84006 0.0
H150 H 0.70463 0.0482 0.75713 0.0
C151 C 0.61119 0.14629 0.71266 0.0
C152 C 0.20034 0.14899 0.5568 0.0
C153 C 0.20486 0.0929 0.54073 0.0
H154 H 0.17274 0.23202 0.53873 0.0
C155 C 0.18218 0.07756 0.49261 0.0
H156 H 0.21743 0.16242 0.59344 0.0
C157 C 0.15631 0.11788 0.46095 0.0
C158 C 0.15283 0.17401 0.47696 0.0
H159 H 0.18498 0.03461 0.47906 0.0
H160 H 0.13931 0.10519 0.42406 0.0
C161 C 0.17481 0.18904 0.52524 0.0
C162 C 0.15434 0.829 0.48163 0.0
C163 C 0.15646 0.85948 0.52819 0.0
H164 H 0.10445 0.77849 0.43153 0.0
C165 C 0.10787 0.86671 0.55752 0.0
H166 H 0.19111 0.82329 0.45803 0.0
C167 C 0.05898 0.84215 0.54234 0.0
C168 C 0.05698 0.80911 0.49745 0.0
H169 H 0.1075 0.89092 0.59303 0.0
H170 H 0.02288 0.84802 0.56685 0.0
C171 C 0.10477 0.80378 0.46635 0.0
C172 C 0.82027 0.92044 0.49499 0.0
C173 C 0.8004 0.9053 0.54426 0.0
H174 H 0.85885 0.89243 0.42438 0.0
C175 C 0.80576 0.84922 0.5603 0.0
H176 H 0.81662 0.96333 0.48138 0.0
C177 C 0.82911 0.80898 0.52758 0.0
C178 C 0.84814 0.82376 0.47814 0.0
H179 H 0.79083 0.83589 0.5978 0.0
H180 H 0.83182 0.76603 0.54113 0.0
C181 C 0.844 0.8799 0.46215 0.0
C182 C 0.88026 0.16587 0.57428 0.0
C183 C 0.84146 0.14935 0.53721 0.0
H184 H 0.95724 0.20304 0.58996 0.0
C185 C 0.85185 0.16034 0.48458 0.0
H186 H 0.87357 0.15861 0.61522 0.0
C187 C 0.90112 0.18646 0.46959 0.0
C188 C 0.94043 0.20172 0.50712 0.0
H189 H 0.82265 0.14782 0.45515 0.0
H190 H 0.90861 0.19416 0.42887 0.0
C191 C 0.92878 0.19142 0.55958 0.0
C192 C 0.28922 0.58381 0.92937 0.0
C193 C 0.27846 0.56599 0.98016 0.0
H194 H 0.32638 0.64365 0.88025 0.0
C195 C 0.29488 0.60009 0.02178 0.0
H196 H 0.27623 0.55959 0.8962 0.0
C197 C 0.32407 0.64964 0.01233 0.0
C198 C 0.33706 0.66517 0.96125 0.0
H199 H 0.28693 0.58756 0.06136 0.0
H200 H 0.33819 0.6744 0.0447 0.0
C201 C 0.3181 0.63236 0.92013 0.0
C202 C 0.6552 0.66768 0.9831 0.0
C203 C 0.66194 0.6347 0.02784 0.0
H204 H 0.5994 0.71948 0.93799 0.0
C205 C 0.61556 0.62385 0.05871 0.0
H206 H 0.69032 0.67627 0.95846 0.0
C207 C 0.56413 0.64778 0.04702 0.0
C208 C 0.55754 0.68361 0.00421 0.0
H209 H 0.61907 0.59764 0.0929 0.0
H210 H 0.52981 0.63941 0.07271 0.0
C211 C 0.60322 0.69217 0.97138 0.0
C212 C 0.63735 0.42866 0.97607 0.0
C213 C 0.68532 0.42957 0.00668 0.0
H214 H 0.57685 0.37885 0.93901 0.0
C215 C 0.70466 0.37947 0.02999 0.0
H216 H 0.62082 0.46673 0.95842 0.0
C217 C 0.67905 0.32849 0.01881 0.0
C218 C 0.63418 0.32752 0.98419 0.0
H219 H 0.74159 0.3791 0.0538 0.0
H220 H 0.69653 0.28976 0.03427 0.0
C221 C 0.61219 0.37828 0.9649 0.0
C222 C 0.4267 0.34123 0.04547 0.0
C223 C 0.43217 0.30071 0.0063 0.0
H224 H 0.37344 0.39865 0.0856 0.0
C225 C 0.38667 0.29074 0.97372 0.0
H226 H 0.46115 0.35079 0.07063 0.0
C227 C 0.33565 0.31855 0.98245 0.0
C228 C 0.32983 0.35661 0.02373 0.0
H229 H 0.3898 0.25988 0.94304 0.0
H230 H 0.30047 0.3087 0.95836 0.0
C231 C 0.37628 0.36879 0.05403 0.0
C232 C 0.99195 0.52762 0.42477 0.0
C233 C 0.98183 0.55558 0.4718 0.0
H234 H 0.02091 0.45226 0.38798 0.0
C235 C 0.99435 0.52841 0.51873 0.0
H236 H 0.98254 0.54761 0.38801 0.0
C237 C 0.0167 0.47423 0.5187 0.0
C238 C 0.02631 0.44601 0.47175 0.0
H239 H 0.98733 0.54912 0.55557 0.0
H240 H 0.02565 0.45422 0.55553 0.0
C241 C 0.01374 0.47308 0.42475 0.0
C242 C 0.52934 0.04725 0.54158 0.0
C243 C 0.56103 -0.00202 0.54886 0.0
H244 H 0.44749 0.08351 0.54169 0.0
C245 C 0.53524 0.94579 0.54573 0.0
H246 H 0.54834 0.08791 0.54388 0.0
C247 C 0.47761 0.9432 0.5436 0.0
C248 C 0.44561 0.99285 0.54555 0.0
H249 H 0.55918 0.90721 0.55089 0.0
H250 H 0.45838 0.90282 0.54774 0.0
C251 C 0.47166 0.0447 0.54039 0.0
C252 C 0.51267 0.01655 0.95894 0.0
C253 C 0.52044 0.04471 0.00607 0.0
H254 H 0.48474 0.94381 0.92045 0.0
C255 C 0.50543 0.01789 0.05246 0.0
H256 H 0.52381 0.03555 0.92237 0.0
C257 C 0.48249 0.96426 0.05137 0.0
C258 C 0.47443 0.93658 0.0039 0.0
H259 H 0.51065 0.03857 0.08942 0.0
H260 H 0.47124 0.94455 0.08756 0.0
C261 C 0.49004 0.96353 0.95787 0.0
C262 C 0.00881 0.44592 0.02092 0.0
C263 C 0.04235 0.45349 0.97728 0.0
H264 H 0.93155 0.4627 0.05758 0.0
C265 C 0.0202 0.48154 0.93377 0.0
H266 H 0.02445 0.42373 0.05473 0.0
C267 C 0.96617 0.50465 0.93545 0.0
C268 C 0.93403 0.49985 0.98067 0.0
H269 H 0.04544 0.48806 0.89971 0.0
H270 H 0.95046 0.52795 0.90236 0.0
C271 C 0.95551 0.46869 0.0226 0.0
loop_
_geom_bond_atom_site_label_1
_geom_bond_atom_site_label_2
_geom_bond_distance
_geom_bond_site_symmetry_2
_ccdc_geom_bond_type
Co0 O1 2.216 . S
Co0 O2 2.091 . S
Co0 O4 2.004 . S
Co0 O10 2.021 . S
Co0 O12 2.137 . S
Co0 O13 2.244 . S
O1 Co0 2.216 . S
O1 C8 1.247 . S
O2 Co0 2.091 . S
O2 C8 1.261 . S
C3 O12 1.247 . S
C3 O13 1.272 . S
O4 Co0 2.004 . S
O4 C9 1.259 1_455 S
Co5 O6 2.061 . S
Co5 O11 2.052 . S
Co5 O13 2.135 . S
O6 Co5 2.061 . S
O6 C9 1.235 1_455 S
C7 O10 1.238 . S
C7 O11 1.241 . S
C8 O1 1.247 . S
C8 O2 1.261 . S
C9 O4 1.259 1_655 S
C9 O6 1.235 1_655 S
O10 Co0 2.021 . S
O10 C7 1.238 . S
O11 Co5 2.052 . S
O11 C7 1.241 . S
O12 Co0 2.137 . S
O12 C3 1.247 . S
O13 Co0 2.244 . S
O13 C3 1.272 . S
O13 Co5 2.135 . S
Co14 O15 2.216 . S
Co14 O16 2.091 . S
Co14 O18 2.004 . S
Co14 O24 2.021 . S
Co14 O26 2.137 . S
Co14 O27 2.244 . S
O15 Co14 2.216 . S
O15 C22 1.247 . S
O16 Co14 2.091 . S
O16 C22 1.261 . S
C17 O26 1.247 . S
C17 O27 1.272 . S
O18 Co14 2.004 . S
O18 C23 1.259 . S
Co19 O20 2.061 1_545 S
Co19 O25 2.052 . S
Co19 O27 2.135 1_545 S
O20 Co19 2.061 1_565 S
O20 C23 1.235 . S
C21 O24 1.238 1_545 S
C21 O25 1.241 . S
C22 O15 1.247 . S
C22 O16 1.261 . S
C23 O18 1.259 . S
C23 O20 1.235 . S
O24 Co14 2.021 . S
O24 C21 1.238 1_565 S
O25 Co19 2.052 . S
O25 C21 1.241 . S
O26 Co14 2.137 . S
O26 C17 1.247 . S
O27 Co14 2.244 . S
O27 C17 1.272 . S
O27 Co19 2.135 1_565 S
Co28 O29 2.216 . S
Co28 O30 2.091 . S
Co28 O32 2.004 . S
Co28 O38 2.021 . S
Co28 O40 2.137 . S
Co28 O41 2.244 . S
O29 Co28 2.216 . S
O29 C36 1.247 . S
O30 Co28 2.091 . S
O30 C36 1.261 . S
C31 O40 1.247 . S
C31 O41 1.272 . S
O32 Co28 2.004 . S
O32 C37 1.259 1_655 S
Co33 O34 2.061 . S
Co33 O39 2.052 . S
Co33 O41 2.135 . S
O34 Co33 2.061 . S
O34 C37 1.235 1_655 S
C35 O38 1.238 . S
C35 O39 1.241 . S
C36 O29 1.247 . S
C36 O30 1.261 . S
C37 O32 1.259 1_455 S
C37 O34 1.235 1_455 S
O38 Co28 2.021 . S
O38 C35 1.238 . S
O39 Co33 2.052 . S
O39 C35 1.241 . S
O40 Co28 2.137 . S
O40 C31 1.247 . S
O41 Co28 2.244 . S
O41 C31 1.272 . S
O41 Co33 2.135 . S
Co42 O43 2.216 . S
Co42 O44 2.091 . S
Co42 O46 2.004 . S
Co42 O52 2.021 . S
Co42 O54 2.137 . S
Co42 O55 2.244 . S
O43 Co42 2.216 . S
O43 C50 1.247 . S
O44 Co42 2.091 . S
O44 C50 1.261 . S
C45 O54 1.247 . S
C45 O55 1.272 . S
O46 Co42 2.004 . S
O46 C51 1.259 . S
Co47 O48 2.061 1_565 S
Co47 O53 2.052 . S
Co47 O55 2.135 1_565 S
O48 Co47 2.061 1_545 S
O48 C51 1.235 . S
C49 O52 1.238 1_565 S
C49 O53 1.241 . S
C50 O43 1.247 . S
C50 O44 1.261 . S
C51 O46 1.259 . S
C51 O48 1.235 . S
O52 Co42 2.021 . S
O52 C49 1.238 1_545 S
O53 Co47 2.052 . S
O53 C49 1.241 . S
O54 Co42 2.137 . S
O54 C45 1.247 . S
O55 Co42 2.244 . S
O55 C45 1.272 . S
O55 Co47 2.135 1_545 S
Co56 O57 2.216 . S
Co56 O58 2.091 . S
Co56 O60 2.004 . S
Co56 O66 2.021 . S
Co56 O68 2.137 . S
Co56 O69 2.244 1_556 S
O57 Co56 2.216 . S
O57 C64 1.247 . S
O58 Co56 2.091 . S
O58 C64 1.261 . S
C59 O68 1.247 . S
C59 O69 1.272 1_556 S
O60 Co56 2.004 . S
O60 C65 1.259 . S
Co61 O62 2.061 . S
Co61 O67 2.052 . S
Co61 O69 2.135 . S
O62 Co61 2.061 . S
O62 C65 1.235 1_554 S
C63 O66 1.238 . S
C63 O67 1.241 1_556 S
C64 O57 1.247 . S
C64 O58 1.261 . S
C65 O60 1.259 . S
C65 O62 1.235 1_556 S
O66 Co56 2.021 . S
O66 C63 1.238 . S
O67 Co61 2.052 . S
O67 C63 1.241 1_554 S
O68 Co56 2.137 . S
O68 C59 1.247 . S
O69 Co56 2.244 1_554 S
O69 C59 1.272 1_554 S
O69 Co61 2.135 . S
Co70 O71 2.216 . S
Co70 O72 2.091 . S
Co70 O74 2.004 . S
Co70 O80 2.021 . S
Co70 O82 2.137 . S
Co70 O83 2.244 1_554 S
O71 Co70 2.216 . S
O71 C78 1.247 . S
O72 Co70 2.091 . S
O72 C78 1.261 . S
C73 O82 1.247 . S
C73 O83 1.272 1_554 S
O74 Co70 2.004 . S
O74 C79 1.259 . S
Co75 O76 2.061 . S
Co75 O81 2.052 . S
Co75 O83 2.135 . S
O76 Co75 2.061 . S
O76 C79 1.235 1_556 S
C77 O80 1.238 . S
C77 O81 1.241 1_554 S
C78 O71 1.247 . S
C78 O72 1.261 . S
C79 O74 1.259 . S
C79 O76 1.235 1_554 S
O80 Co70 2.021 . S
O80 C77 1.238 . S
O81 Co75 2.052 . S
O81 C77 1.241 1_556 S
O82 Co70 2.137 . S
O82 C73 1.247 . S
O83 Co70 2.244 1_556 S
O83 C73 1.272 1_556 S
O83 Co75 2.135 . S
Co84 O85 2.216 . S
Co84 O86 2.091 . S
Co84 O88 2.004 . S
Co84 O94 2.021 . S
Co84 O96 2.137 . S
Co84 O97 2.244 1_556 S
O85 Co84 2.216 . S
O85 C92 1.247 . S
O86 Co84 2.091 . S
O86 C92 1.261 . S
C87 O96 1.247 . S
C87 O97 1.272 1_556 S
O88 Co84 2.004 . S
O88 C93 1.259 . S
Co89 O90 2.061 . S
Co89 O95 2.052 . S
Co89 O97 2.135 . S
O90 Co89 2.061 . S
O90 C93 1.235 1_554 S
C91 O94 1.238 . S
C91 O95 1.241 1_556 S
C92 O85 1.247 . S
C92 O86 1.261 . S
C93 O88 1.259 . S
C93 O90 1.235 1_556 S
O94 Co84 2.021 . S
O94 C91 1.238 . S
O95 Co89 2.052 . S
O95 C91 1.241 1_554 S
O96 Co84 2.137 . S
O96 C87 1.247 . S
O97 Co84 2.244 1_554 S
O97 C87 1.272 1_554 S
O97 Co89 2.135 . S
Co98 O99 2.216 . S
Co98 O100 2.091 . S
Co98 O102 2.004 . S
Co98 O108 2.021 . S
Co98 O110 2.137 . S
Co98 O111 2.244 1_554 S
O99 Co98 2.216 . S
O99 C106 1.247 . S
O100 Co98 2.091 . S
O100 C106 1.261 . S
C101 O110 1.247 . S
C101 O111 1.272 1_554 S
O102 Co98 2.004 . S
O102 C107 1.259 . S
Co103 O104 2.061 . S
Co103 O109 2.052 . S
Co103 O111 2.135 . S
O104 Co103 2.061 . S
O104 C107 1.235 1_556 S
C105 O108 1.238 . S
C105 O109 1.241 1_554 S
C106 O99 1.247 . S
C106 O100 1.261 . S
C107 O102 1.259 . S
C107 O104 1.235 1_554 S
O108 Co98 2.021 . S
O108 C105 1.238 . S
O109 Co103 2.052 . S
O109 C105 1.241 1_556 S
O110 Co98 2.137 . S
O110 C101 1.247 . S
O111 Co98 2.244 1_556 S
O111 C101 1.272 1_556 S
O111 Co103 2.135 . S
C112 C113 1.387 . S
C112 H116 0.950 . S
C112 C121 1.390 . S
C113 C112 1.387 . S
C113 C115 1.387 . S
H114 C121 0.950 . S
C115 C113 1.387 . S
C115 C117 1.390 . S
C115 H119 0.950 . S
H116 C112 0.950 . S
C117 C115 1.390 . S
C117 C118 1.387 . S
C117 H120 0.950 . S
C118 C117 1.387 . S
C118 C121 1.387 . S
H119 C115 0.950 . S
H120 C117 0.950 . S
C121 C112 1.390 . S
C121 H114 0.950 . S
C121 C118 1.387 . S
C122 C123 1.387 . S
C122 H126 0.950 . S
C122 C131 1.390 . S
C123 C122 1.387 . S
C123 C125 1.387 . S
H124 C131 0.950 . S
C125 C123 1.387 . S
C125 C127 1.390 . S
C125 H129 0.950 . S
H126 C122 0.950 . S
C127 C125 1.390 . S
C127 C128 1.387 . S
C127 H130 0.950 . S
C128 C127 1.387 . S
C128 C131 1.387 . S
H129 C125 0.950 . S
H130 C127 0.950 . S
C131 C122 1.390 . S
C131 H124 0.950 . S
C131 C128 1.387 . S
C132 C133 1.387 . S
C132 H136 0.950 . S
C132 C141 1.390 . S
C133 C132 1.387 . S
C133 C135 1.387 . S
H134 C141 0.950 . S
C135 C133 1.387 . S
C135 C137 1.390 . S
C135 H139 0.950 . S
H136 C132 0.950 . S
C137 C135 1.390 . S
C137 C138 1.387 . S
C137 H140 0.950 . S
C138 C137 1.387 . S
C138 C141 1.387 . S
H139 C135 0.950 . S
H140 C137 0.950 . S
C141 C132 1.390 . S
C141 H134 0.950 . S
C141 C138 1.387 . S
C142 C143 1.387 . S
C142 H146 0.950 . S
C142 C151 1.390 . S
C143 C142 1.387 . S
C143 C145 1.387 . S
H144 C151 0.950 . S
C145 C143 1.387 . S
C145 C147 1.390 . S
C145 H149 0.950 . S
H146 C142 0.950 . S
C147 C145 1.390 . S
C147 C148 1.387 . S
C147 H150 0.950 . S
C148 C147 1.387 . S
C148 C151 1.387 . S
H149 C145 0.950 . S
H150 C147 0.950 . S
C151 C142 1.390 . S
C151 H144 0.950 . S
C151 C148 1.387 . S
C152 C153 1.387 . S
C152 H156 0.950 . S
C152 C161 1.390 . S
C153 C152 1.387 . S
C153 C155 1.387 . S
H154 C161 0.950 . S
C155 C153 1.387 . S
C155 C157 1.390 . S
C155 H159 0.950 . S
H156 C152 0.950 . S
C157 C155 1.390 . S
C157 C158 1.387 . S
C157 H160 0.950 . S
C158 C157 1.387 . S
C158 C161 1.387 . S
H159 C155 0.950 . S
H160 C157 0.950 . S
C161 C152 1.390 . S
C161 H154 0.950 . S
C161 C158 1.387 . S
C162 C163 1.387 . S
C162 H166 0.950 . S
C162 C171 1.390 . S
C163 C162 1.387 . S
C163 C165 1.387 . S
H164 C171 0.950 . S
C165 C163 1.387 . S
C165 C167 1.390 . S
C165 H169 0.950 . S
H166 C162 0.950 . S
C167 C165 1.390 . S
C167 C168 1.387 . S
C167 H170 0.950 . S
C168 C167 1.387 . S
C168 C171 1.387 . S
H169 C165 0.950 . S
H170 C167 0.950 . S
C171 C162 1.390 . S
C171 H164 0.950 . S
C171 C168 1.387 . S
C172 C173 1.387 . S
C172 H176 0.950 . S
C172 C181 1.390 . S
C173 C172 1.387 . S
C173 C175 1.387 . S
H174 C181 0.950 . S
C175 C173 1.387 . S
C175 C177 1.390 . S
C175 H179 0.950 . S
H176 C172 0.950 . S
C177 C175 1.390 . S
C177 C178 1.387 . S
C177 H180 0.950 . S
C178 C177 1.387 . S
C178 C181 1.387 . S
H179 C175 0.950 . S
H180 C177 0.950 . S
C181 C172 1.390 . S
C181 H174 0.950 . S
C181 C178 1.387 . S
C182 C183 1.387 . S
C182 H186 0.950 . S
C182 C191 1.390 . S
C183 C182 1.387 . S
C183 C185 1.387 . S
H184 C191 0.950 . S
C185 C183 1.387 . S
C185 C187 1.390 . S
C185 H189 0.950 . S
H186 C182 0.950 . S
C187 C185 1.390 . S
C187 C188 1.387 . S
C187 H190 0.950 . S
C188 C187 1.387 . S
C188 C191 1.387 . S
H189 C185 0.950 . S
H190 C187 0.950 . S
C191 C182 1.390 . S
C191 H184 0.950 . S
C191 C188 1.387 . S
C192 C193 1.387 1_556 S
C192 H196 0.950 . S
C192 C201 1.390 . S
C193 C192 1.387 1_554 S
C193 C195 1.387 . S
H194 C201 0.950 . S
C195 C193 1.387 . S
C195 C197 1.390 . S
C195 H199 0.950 . S
H196 C192 0.950 . S
C197 C195 1.390 . S
C197 C198 1.381 1_554 S
C197 H200 0.950 . S
C198 C197 1.381 1_556 S
C198 C201 1.394 . S
H199 C195 0.950 . S
H200 C197 0.950 . S
C201 C192 1.390 . S
C201 H194 0.950 . S
C201 C198 1.394 . S
C202 C203 1.405 . S
C202 H206 0.950 . S
C202 C211 1.390 . S
C203 C202 1.405 . S
C203 C205 1.371 1_556 S
H204 C211 0.950 . S
C205 C203 1.371 1_554 S
C205 C207 1.390 . S
C205 H209 0.950 . S
H206 C202 0.950 . S
C207 C205 1.390 . S
C207 C208 1.387 1_554 S
C207 H210 0.950 . S
C208 C207 1.387 1_556 S
C208 C211 1.387 . S
H209 C205 0.950 . S
H210 C207 0.950 . S
C211 C202 1.390 . S
C211 H204 0.950 . S
C211 C208 1.387 . S
C212 C213 1.387 1_556 S
C212 H216 0.950 . S
C212 C221 1.390 . S
C213 C212 1.387 1_554 S
C213 C215 1.387 . S
H214 C221 0.950 . S
C215 C213 1.387 . S
C215 C217 1.390 . S
C215 H219 0.950 . S
H216 C212 0.950 . S
C217 C215 1.390 . S
C217 C218 1.381 1_554 S
C217 H220 0.950 . S
C218 C217 1.381 1_556 S
C218 C221 1.394 . S
H219 C215 0.950 . S
H220 C217 0.950 . S
C221 C212 1.390 . S
C221 H214 0.950 . S
C221 C218 1.394 . S
C222 C223 1.387 1_554 S
C222 H226 0.950 . S
C222 C231 1.390 . S
C223 C222 1.387 1_556 S
C223 C225 1.387 . S
H224 C231 0.950 . S
C225 C223 1.387 . S
C225 C227 1.390 . S
C225 H229 0.950 . S
H226 C222 0.950 . S
C227 C225 1.390 . S
C227 C228 1.404 . S
C227 H230 0.950 . S
C228 C227 1.404 . S
C228 C231 1.372 1_556 S
H229 C225 0.950 . S
H230 C227 0.950 . S
C231 C222 1.390 . S
C231 H224 0.950 . S
C231 C228 1.372 1_554 S
C232 C233 1.387 . S
C232 H236 0.950 . S
C232 C241 1.390 1_655 S
C233 C232 1.387 . S
C233 C235 1.387 . S
H234 C241 0.950 . S
C235 C233 1.387 . S
C235 C237 1.390 1_655 S
C235 H239 0.950 . S
H236 C232 0.950 . S
C237 C235 1.390 1_455 S
C237 C238 1.387 . S
C237 H240 0.950 . S
C238 C237 1.387 . S
C238 C241 1.387 . S
H239 C235 0.950 . S
H240 C237 0.950 . S
C241 C232 1.390 1_455 S
C241 H234 0.950 . S
C241 C238 1.387 . S
C242 C243 1.387 . S
C242 H246 0.950 . S
C242 C251 1.390 1_545 S
C243 C242 1.387 . S
C243 C245 1.387 . S
H244 C251 0.950 . S
C245 C243 1.387 . S
C245 C247 1.390 1_545 S
C245 H249 0.950 . S
H246 C242 0.950 . S
C247 C245 1.390 1_565 S
C247 C248 1.387 . S
C247 H250 0.950 . S
C248 C247 1.387 . S
C248 C251 1.387 . S
H249 C245 0.950 . S
H250 C247 0.950 . S
C251 C242 1.390 1_565 S
C251 H244 0.950 . S
C251 C248 1.387 . S
C252 C253 1.387 . S
C252 H256 0.950 . S
C252 C261 1.390 1_545 S
C253 C252 1.387 . S
C253 C255 1.387 1_556 S
H254 C261 0.950 . S
C255 C253 1.387 1_554 S
C255 C257 1.390 1_545 S
C255 H259 0.950 . S
H256 C252 0.950 . S
C257 C255 1.390 1_565 S
C257 C258 1.387 1_554 S
C257 H260 0.950 . S
C258 C257 1.387 1_556 S
C258 C261 1.387 . S
H259 C255 0.950 . S
H260 C257 0.950 . S
C261 C252 1.390 1_565 S
C261 H254 0.950 . S
C261 C258 1.387 . S
C262 C263 1.387 . S
C262 H266 0.950 . S
C262 C271 1.390 1_455 S
C263 C262 1.387 . S
C263 C265 1.387 1_554 S
H264 C271 0.950 . S
C265 C263 1.387 1_556 S
C265 C267 1.390 1_455 S
C265 H269 0.950 . S
H266 C262 0.950 . S
C267 C265 1.390 1_655 S
C267 C268 1.387 1_556 S
C267 H270 0.950 . S
C268 C267 1.387 1_554 S
C268 C271 1.387 . S
H269 C265 0.950 . S
H270 C267 0.950 . S
C271 C262 1.390 1_655 S
C271 H264 0.950 . S
C271 C268 1.387 . S
C113 C106 1.554 . S
C118 C8 1.552 . S
C123 C17 1.542 . S
C128 C64 1.535 . S
C133 C36 1.551 . S
C138 C78 1.554 . S
C143 C92 1.534 . S
C148 C45 1.542 . S
C153 C21 1.439 . S
C158 C3 1.436 . S
C163 C22 1.478 . S
C168 C37 1.509 . S
C173 C49 1.436 . S
C178 C31 1.434 . S
C183 C50 1.479 . S
C188 C9 1.510 . S
C193 C107 1.571 . S
C198 C59 1.497 . S
C203 C73 1.472 1_556 S
C208 C65 1.542 . S
C213 C79 1.571 . S
C218 C87 1.497 . S
C223 C93 1.542 . S
C228 C101 1.470 1_556 S
C233 C35 1.261 . S
C238 C7 1.261 . S
C243 C51 1.158 . S
C248 C23 1.158 . S
C253 C91 1.271 . S
C258 C63 1.271 . S
C263 C105 1.290 . S
C268 C77 1.290 . S
