# Generated by pormake.
# Topology wme, (6)-cn, num edge types: 1
# Building blocks:
#     Node 0, Type 0, BuildingBlock: MIDCAF_clean_sbu_0, # of connection points: 6
#     Node 1, Type 0, BuildingBlock: MIDCAF_clean_sbu_0, # of connection points: 6
#     Node 2, Type 0, BuildingBlock: MIDCAF_clean_sbu_0, # of connection points: 6
#     Node 3, Type 0, BuildingBlock: MIDCAF_clean_sbu_0, # of connection points: 6
#     Node 4, Type 0, BuildingBlock: MIDCAF_clean_sbu_0, # of connection points: 6
#     Node 5, Type 0, BuildingBlock: MIDCAF_clean_sbu_0, # of connection points: 6
#     Node 6, Type 0, BuildingBlock: MIDCAF_clean_sbu_0, # of connection points: 6
#     Node 7, Type 0, BuildingBlock: MIDCAF_clean_sbu_0, # of connection points: 6
#     Node 8, Type 0, BuildingBlock: MIDCAF_clean_sbu_0, # of connection points: 6
#     Node 9, Type 0, BuildingBlock: MIDCAF_clean_sbu_0, # of connection points: 6
#     Node 10, Type 0, BuildingBlock: MIDCAF_clean_sbu_0, # of connection points: 6
#     Node 11, Type 0, BuildingBlock: MIDCAF_clean_sbu_0, # of connection points: 6
#     Edge 12, Type (0, 0), BuildingBlock: AJUNOK_clean_linker_0, # of connection points: 2
#     Edge 13, Type (0, 0), BuildingBlock: AJUNOK_clean_linker_0, # of connection points: 2
#     Edge 14, Type (0, 0), BuildingBlock: AJUNOK_clean_linker_0, # of connection points: 2
#     Edge 15, Type (0, 0), BuildingBlock: AJUNOK_clean_linker_0, # of connection points: 2
#     Edge 16, Type (0, 0), BuildingBlock: AJUNOK_clean_linker_0, # of connection points: 2
#     Edge 17, Type (0, 0), BuildingBlock: AJUNOK_clean_linker_0, # of connection points: 2
#     Edge 18, Type (0, 0), BuildingBlock: AJUNOK_clean_linker_0, # of connection points: 2
#     Edge 19, Type (0, 0), BuildingBlock: AJUNOK_clean_linker_0, # of connection points: 2
#     Edge 20, Type (0, 0), BuildingBlock: AJUNOK_clean_linker_0, # of connection points: 2
#     Edge 21, Type (0, 0), BuildingBlock: AJUNOK_clean_linker_0, # of connection points: 2
#     Edge 22, Type (0, 0), BuildingBlock: AJUNOK_clean_linker_0, # of connection points: 2
#     Edge 23, Type (0, 0), BuildingBlock: AJUNOK_clean_linker_0, # of connection points: 2
#     Edge 24, Type (0, 0), BuildingBlock: AJUNOK_clean_linker_0, # of connection points: 2
#     Edge 25, Type (0, 0), BuildingBlock: AJUNOK_clean_linker_0, # of connection points: 2
#     Edge 26, Type (0, 0), BuildingBlock: AJUNOK_clean_linker_0, # of connection points: 2
#     Edge 27, Type (0, 0), BuildingBlock: AJUNOK_clean_linker_0, # of connection points: 2
#     Edge 28, Type (0, 0), BuildingBlock: AJUNOK_clean_linker_0, # of connection points: 2
#     Edge 29, Type (0, 0), BuildingBlock: AJUNOK_clean_linker_0, # of connection points: 2
#     Edge 30, Type (0, 0), BuildingBlock: AJUNOK_clean_linker_0, # of connection points: 2
#     Edge 31, Type (0, 0), BuildingBlock: AJUNOK_clean_linker_0, # of connection points: 2
#     Edge 32, Type (0, 0), BuildingBlock: AJUNOK_clean_linker_0, # of connection points: 2
#     Edge 33, Type (0, 0), BuildingBlock: AJUNOK_clean_linker_0, # of connection points: 2
#     Edge 34, Type (0, 0), BuildingBlock: AJUNOK_clean_linker_0, # of connection points: 2
#     Edge 35, Type (0, 0), BuildingBlock: AJUNOK_clean_linker_0, # of connection points: 2
#     Edge 36, Type (0, 0), BuildingBlock: AJUNOK_clean_linker_0, # of connection points: 2
#     Edge 37, Type (0, 0), BuildingBlock: AJUNOK_clean_linker_0, # of connection points: 2
#     Edge 38, Type (0, 0), BuildingBlock: AJUNOK_clean_linker_0, # of connection points: 2
#     Edge 39, Type (0, 0), BuildingBlock: AJUNOK_clean_linker_0, # of connection points: 2
#     Edge 40, Type (0, 0), BuildingBlock: AJUNOK_clean_linker_0, # of connection points: 2
#     Edge 41, Type (0, 0), BuildingBlock: AJUNOK_clean_linker_0, # of connection points: 2
#     Edge 42, Type (0, 0), BuildingBlock: AJUNOK_clean_linker_0, # of connection points: 2
#     Edge 43, Type (0, 0), BuildingBlock: AJUNOK_clean_linker_0, # of connection points: 2
#     Edge 44, Type (0, 0), BuildingBlock: AJUNOK_clean_linker_0, # of connection points: 2
#     Edge 45, Type (0, 0), BuildingBlock: AJUNOK_clean_linker_0, # of connection points: 2
#     Edge 46, Type (0, 0), BuildingBlock: AJUNOK_clean_linker_0, # of connection points: 2
#     Edge 47, Type (0, 0), BuildingBlock: AJUNOK_clean_linker_0, # of connection points: 2
# Relax obj value: 0.386
# Max RMSD: 0.269
# Mean RMSD: 0.269
data_MOF--net-wme--node1-MIDCAF_clean_sbu_0--edge1-AJUNOK_clean_linker_0
_symmetry_space_group_name_H-M    P1
_symmetry_Int_Tables_number       1
_symmetry_cell_setting            triclinic
loop_
_symmetry_equiv_pos_as_xyz
'x, y, z'
_cell_length_a     21.847499
_cell_length_b     21.91754
_cell_length_c     43.796306
_cell_angle_alpha  90.447597
_cell_angle_beta   89.969988
_cell_angle_gamma 119.90096
loop_
_atom_site_label
_atom_site_type_symbol
_atom_site_fract_x
_atom_site_fract_y
_atom_site_fract_z
_atom_type_partial_charge
Zn0 Zn 0.11663 0.22187 0.1793 0.0
Zn1 Zn 0.19629 0.385 0.09553 0.0
Zn2 Zn 0.15438 0.30734 0.13702 0.0
C3 C 0.09231 0.39656 0.12802 0.0
C4 C 0.30806 0.4311 0.13442 0.0
O5 O 0.17101 0.22289 0.12116 0.0
O6 O 0.1738 0.17787 0.16557 0.0
C7 C -0.00913 0.20639 0.15597 0.0
O8 O 0.07139 0.33148 0.13269 0.0
O9 O 0.15039 0.43467 0.11479 0.0
O10 O 0.29892 0.42035 0.10596 0.0
O11 O 0.25384 0.4013 0.15205 0.0
O12 O 0.01172 0.17204 0.17171 0.0
O13 O 0.03716 0.26365 0.14287 0.0
O14 O 0.21351 0.37287 0.17715 0.0
O15 O 0.15 0.2943 0.21196 0.0
C16 C 0.19407 0.35692 0.20508 0.0
O17 O 0.1798 0.26466 0.09485 0.0
O18 O 0.15318 0.31935 0.05988 0.0
C19 C 0.18293 0.18088 0.137 0.0
C20 C 0.16771 0.27213 0.06664 0.0
Zn21 Zn 0.81906 0.25059 0.58519 0.0
Zn22 Zn 0.8918 0.13556 0.65571 0.0
Zn23 Zn 0.84925 0.19532 0.62414 0.0
C24 C 0.87201 0.2252 0.6946 0.0
C25 C 0.76592 0.02829 0.63256 0.0
O26 O 0.91199 0.21678 0.58046 0.0
O27 O 0.83016 0.20483 0.54756 0.0
C28 C 0.88183 0.34449 0.62621 0.0
O29 O 0.86257 0.24862 0.6692 0.0
O30 O 0.88198 0.1733 0.69457 0.0
O31 O 0.82086 0.03632 0.64574 0.0
O32 O 0.76251 0.08256 0.62389 0.0
O33 O 0.90711 0.33691 0.60154 0.0
O34 O 0.85014 0.28968 0.64299 0.0
O35 O 0.73619 0.12607 0.61796 0.0
O36 O 0.72471 0.21694 0.60566 0.0
C37 C 0.69813 0.15568 0.61651 0.0
O38 O 0.95188 0.2134 0.60402 0.0
O39 O -0.01066 0.17513 0.6421 0.0
C40 C 0.88876 0.20848 0.55268 0.0
C41 C 0.00108 0.20653 0.61699 0.0
Zn42 Zn 0.74272 0.9265 0.12584 0.0
Zn43 Zn 0.52531 0.79228 0.08824 0.0
Zn44 Zn 0.62548 0.86134 0.11743 0.0
C45 C 0.52251 0.69601 0.12897 0.0
C46 C 0.50804 0.89543 0.12234 0.0
O47 O 0.66358 0.96852 0.13861 0.0
O48 O 0.7342 -0.00095 0.10023 0.0
C49 C 0.71984 0.7965 0.11147 0.0
O50 O 0.58107 0.7514 0.13679 0.0
O51 O 0.48646 0.69896 0.10716 0.0
O52 O 0.48276 0.85 0.10114 0.0
O53 O 0.56622 0.90926 0.13521 0.0
O54 O 0.76115 0.85866 0.10293 0.0
O55 O 0.66348 0.78413 0.12614 0.0
O56 O 0.6349 0.80323 0.15533 0.0
O57 O 0.71328 0.90674 0.17313 0.0
C58 C 0.66572 0.84374 0.17847 0.0
O59 O 0.65777 0.88195 0.06973 0.0
O60 O 0.5608 0.80657 0.04612 0.0
C61 C 0.7121 0.01824 0.12273 0.0
C62 C 0.62403 0.85573 0.04482 0.0
Zn63 Zn 0.78039 0.72406 0.65899 0.0
Zn64 Zn 0.67054 0.54454 0.57066 0.0
Zn65 Zn 0.72974 0.64813 0.62151 0.0
C66 C 0.77418 0.53964 0.61318 0.0
C67 C 0.60058 0.51453 0.62205 0.0
O68 O 0.6656 0.69965 0.62718 0.0
O69 O 0.7525 0.7934 0.64884 0.0
C70 C 0.87806 0.7264 0.61361 0.0
O71 O 0.74502 0.55827 0.63432 0.0
O72 O 0.76418 0.54968 0.5855 0.0
O73 O 0.59537 0.54559 0.59893 0.0
O74 O 0.66206 0.54006 0.63377 0.0
O75 O 0.87027 0.73394 0.6418 0.0
O76 O 0.8247 0.7021 0.59569 0.0
O77 O 0.75043 0.59756 0.66153 0.0
O78 O 0.73895 0.66474 0.69555 0.0
C79 C 0.7474 0.61303 0.68969 0.0
O80 O 0.76387 0.67934 0.57465 0.0
O81 O 0.64953 0.62436 0.57067 0.0
C82 C 0.69278 0.76381 0.63605 0.0
C83 C 0.70872 0.66571 0.55913 0.0
Zn84 Zn 0.03006 0.80429 0.15414 0.0
Zn85 Zn 0.12998 0.7196 0.09147 0.0
Zn86 Zn 0.07911 0.75991 0.12427 0.0
C87 C 0.24148 0.82937 0.1204 0.0
C88 C 0.0498 0.61418 0.13212 0.0
O89 O -0.02626 0.73661 0.10647 0.0
O90 O 0.93356 0.71981 0.1531 0.0
C91 C 0.1198 0.90974 0.11794 0.0
O92 O 0.19219 0.84525 0.12185 0.0
O93 O 0.22669 0.76927 0.11054 0.0
O94 O 0.06044 0.62065 0.1037 0.0
O95 O 0.06897 0.66966 0.14847 0.0
O96 O 0.05554 0.88396 0.12492 0.0
O97 O 0.14979 0.87298 0.1225 0.0
O98 O 0.0787 0.71868 0.17047 0.0
O99 O 0.09315 0.81844 0.18911 0.0
C100 C 0.09787 0.76384 0.19249 0.0
O101 O 0.01558 0.72452 0.08173 0.0
O102 O 0.10791 0.75207 0.05281 0.0
C103 C 0.92078 0.71444 0.12484 0.0
C104 C 0.04333 0.73387 0.05496 0.0
Zn105 Zn 0.18937 0.04668 0.66099 0.0
Zn106 Zn 0.36108 0.08045 0.59072 0.0
Zn107 Zn 0.28739 0.07726 0.62862 0.0
C108 C 0.40439 0.21708 0.60744 0.0
C109 C 0.40426 0.04085 0.6372 0.0
O110 O 0.19553 -0.02422 0.61487 0.0
O111 O 0.13233 0.94197 0.65691 0.0
C112 C 0.20587 0.1552 0.621 0.0
O113 O 0.33853 0.1874 0.61438 0.0
O114 O 0.42973 0.179 0.59933 0.0
O115 O 0.37884 0.00965 0.61204 0.0
O116 O 0.37698 0.07535 0.64938 0.0
O117 O 0.15982 0.10403 0.63616 0.0
O118 O 0.26853 0.16445 0.61858 0.0
O119 O 0.32829 0.07642 0.6754 0.0
O120 O 0.2442 0.08648 0.69871 0.0
C121 C 0.30259 0.08788 0.69984 0.0
O122 O 0.23669 -0.00186 0.59029 0.0
O123 O 0.30588 0.05693 0.55207 0.0
C124 C 0.14369 0.92825 0.6302 0.0
C125 C 0.2486 0.00631 0.56133 0.0
Zn126 Zn 0.60543 0.8222 0.41648 0.0
Zn127 Zn 0.71022 0.77076 0.34233 0.0
Zn128 Zn 0.64383 0.78203 0.37679 0.0
C129 C 0.61888 0.74927 0.30406 0.0
C130 C 0.75402 0.91327 0.36622 0.0
O131 O 0.63632 0.71658 0.41746 0.0
O132 O 0.66728 0.81003 0.44667 0.0
C133 C 0.50841 0.68071 0.40289 0.0
O134 O 0.61288 0.78215 0.32733 0.0
O135 O 0.64937 0.71378 0.3078 0.0
O136 O 0.74884 0.88174 0.34102 0.0
O137 O 0.73067 0.87593 0.39011 0.0
O138 O 0.50664 0.73571 0.41037 0.0
O139 O 0.5673 0.68544 0.39579 0.0
O140 O 0.58687 0.8361 0.36188 0.0
O141 O 0.62155 0.91334 0.39913 0.0
C142 C 0.58976 0.8912 0.37382 0.0
O143 O 0.75076 0.81349 0.39621 0.0
O144 O 0.75301 0.72961 0.37007 0.0
C145 C 0.66112 0.74977 0.44305 0.0
C146 C 0.77557 0.77204 0.39237 0.0
Zn147 Zn 0.89556 0.73672 0.84369 0.0
Zn148 Zn 0.77533 0.53974 0.89991 0.0
Zn149 Zn 0.85721 0.643 0.87295 0.0
C150 C 0.67717 0.55542 0.87889 0.0
C151 C 0.86304 0.50613 0.8805 0.0
O152 O 0.95553 0.73692 0.89106 0.0
O153 O -0.00197 0.76538 0.84503 0.0
C154 C 0.80464 0.74593 0.88402 0.0
O155 O 0.73666 0.60982 0.87085 0.0
O156 O 0.67749 0.50964 0.89585 0.0
O157 O 0.79796 0.47683 0.8754 0.0
O158 O 0.89565 0.57125 0.88747 0.0
O159 O 0.86184 0.78796 0.87104 0.0
O160 O 0.78336 0.6797 0.88322 0.0
O161 O 0.86522 0.60764 0.82701 0.0
O162 O 0.83953 0.68391 0.80764 0.0
C163 C 0.84528 0.62974 0.8043 0.0
O164 O 0.91855 0.66704 0.91445 0.0
O165 O 0.82672 0.58715 0.9397 0.0
C166 C 0.00835 0.77363 0.87347 0.0
C167 C 0.88891 0.63953 0.93994 0.0
Zn168 Zn 0.13231 0.88846 0.3561 0.0
Zn169 Zn 0.2212 0.78332 0.4122 0.0
Zn170 Zn 0.18786 0.84713 0.38381 0.0
C171 C 0.13132 0.68474 0.37621 0.0
C172 C 0.33575 0.88324 0.37732 0.0
O173 O 0.26898 0.95957 0.37712 0.0
O174 O 0.18014 -0.02029 0.37807 0.0
C175 C 0.03963 0.81975 0.39833 0.0
O176 O 0.15527 0.74277 0.36137 0.0
O177 O 0.14113 0.68727 0.40462 0.0
O178 O 0.30755 0.82004 0.38597 0.0
O179 O 0.30166 0.91668 0.38019 0.0
O180 O 0.03568 0.82026 0.3696 0.0
O181 O 0.09983 0.84037 0.41113 0.0
O182 O 0.1537 0.78721 0.33997 0.0
O183 O 0.16542 0.879 0.31506 0.0
C184 C 0.16008 0.81899 0.31459 0.0
O185 O 0.14931 0.84307 0.43137 0.0
O186 O 0.22848 0.82342 0.45296 0.0
C187 C 0.24544 0.00256 0.38092 0.0
C188 C 0.18179 0.84092 0.45555 0.0
Zn189 Zn 0.22886 0.18958 0.85085 0.0
Zn190 Zn 0.38958 0.25306 0.92428 0.0
Zn191 Zn 0.30488 0.20949 0.88787 0.0
C192 C 0.41579 0.1617 0.88903 0.0
C193 C 0.41329 0.36675 0.88806 0.0
O194 O 0.20285 0.19665 0.9037 0.0
O195 O 0.2062 0.26278 0.86602 0.0
C196 C 0.21069 0.06003 0.87801 0.0
O197 O 0.353 0.14341 0.87952 0.0
O198 O 0.44596 0.21153 0.90812 0.0
O199 O 0.42319 0.35438 0.9152 0.0
O200 O 0.37227 0.31503 0.87082 0.0
O201 O 0.17292 0.08572 0.86924 0.0
O202 O 0.27827 0.10065 0.87709 0.0
O203 O 0.31976 0.14935 0.84774 0.0
O204 O 0.29452 0.20931 0.81533 0.0
C205 C 0.3215 0.17103 0.8202 0.0
O206 O 0.24695 0.19673 0.93215 0.0
O207 O 0.33543 0.2155 0.96197 0.0
C208 C 0.17587 0.22941 0.88987 0.0
C209 C 0.27189 0.20033 0.95923 0.0
Zn210 Zn 0.10646 0.23342 0.33736 0.0
Zn211 Zn 0.09646 0.38065 0.43441 0.0
Zn212 Zn 0.12464 0.29622 0.38258 0.0
C213 C 0.23391 0.43934 0.40819 0.0
C214 C 0.08219 0.411 0.37338 0.0
O215 O 0.01255 0.22641 0.38755 0.0
O216 O 0.00255 0.18218 0.3413 0.0
C217 C 0.20488 0.21422 0.36971 0.0
O218 O 0.20031 0.4064 0.38392 0.0
O219 O 0.20097 0.43287 0.43278 0.0
O220 O 0.0413 0.37994 0.39558 0.0
O221 O 0.13131 0.39607 0.36726 0.0
O222 O 0.16574 0.19069 0.34637 0.0
O223 O 0.19788 0.25646 0.38778 0.0
O224 O 0.16569 0.37761 0.34487 0.0
O225 O 0.14709 0.30477 0.30626 0.0
C226 C 0.17134 0.36664 0.3162 0.0
O227 O 0.04131 0.24756 0.41821 0.0
O228 O 0.12627 0.31092 0.44896 0.0
C229 C -0.02601 0.1868 0.36563 0.0
C230 C 0.06514 0.25981 0.44564 0.0
Zn231 Zn 0.74901 0.02195 0.83557 0.0
Zn232 Zn 0.66435 0.11317 0.8984 0.0
Zn233 Zn 0.74018 0.08491 0.87371 0.0
C234 C 0.80534 0.23869 0.88984 0.0
C235 C 0.57905 0.04184 0.84091 0.0
O236 O 0.74035 -0.00864 0.89024 0.0
O237 O 0.6758 0.92675 0.85189 0.0
C238 C 0.88354 0.12139 0.86258 0.0
O239 O 0.81787 0.1962 0.8743 0.0
O240 O 0.74564 0.21574 0.9025 0.0
O241 O 0.63705 0.05907 0.85387 0.0
O242 O 0.63849 0.05785 0.85307 0.0
O243 O 0.8508 0.05857 0.85255 0.0
O244 O 0.85011 0.15589 0.86369 0.0
O245 O 0.80452 0.16297 0.83816 0.0
O246 O 0.73573 0.08325 0.80447 0.0
C247 C 0.7791 0.14717 0.81083 0.0
O248 O 0.7384 0.0382 0.91697 0.0
O249 O 0.65279 0.05263 0.93568 0.0
C250 C 0.7024 0.93028 0.87803 0.0
C251 C 0.69566 0.02992 0.93863 0.0
C252 C 0.21454 0.02897 0.13164 0.0
C253 C 0.16008 -0.01492 0.11146 0.0
C254 C 0.22931 0.09807 0.13712 0.0
C255 C 0.19081 0.12482 0.12213 0.0
H256 H 0.23893 0.00727 0.14621 0.0
H257 H 0.2654 0.12789 0.15548 0.0
S258 S 0.0566 0.03522 0.06122 0.0
N259 N 0.07862 -0.02342 0.07186 0.0
N260 N 0.1059 0.10621 0.08209 0.0
C261 C 0.14457 0.08479 0.09839 0.0
C262 C 0.12937 0.01459 0.09301 0.0
C263 C 0.18587 0.25596 0.62215 0.0
C264 C 0.18293 0.19962 0.6055 0.0
C265 C 0.12995 0.27008 0.62056 0.0
C266 C 0.0696 0.22742 0.60269 0.0
H267 H 0.22537 0.28164 0.63989 0.0
H268 H 0.12867 0.30635 0.63717 0.0
S269 S 0.04873 0.08933 0.54779 0.0
N270 N 0.12527 0.11433 0.56473 0.0
N271 N 0.0192 0.13945 0.56244 0.0
C272 C 0.0732 0.18091 0.58163 0.0
C273 C 0.13046 0.16719 0.58296 0.0
C274 C 0.79331 0.08502 0.16556 0.0
C275 C 0.7669 0.08608 0.13641 0.0
C276 C 0.86531 0.12878 0.1727 0.0
C277 C 0.91332 0.1765 0.15127 0.0
H278 H 0.76061 0.04437 0.1816 0.0
H279 H 0.88445 0.12132 0.19437 0.0
S280 S 0.8669 0.21122 0.07445 0.0
N281 N 0.79162 0.14782 0.08814 0.0
N282 N 0.92615 0.23034 0.10168 0.0
C283 C 0.88544 0.18513 0.1238 0.0
C284 C 0.81225 0.14034 0.11649 0.0
C285 C 0.65132 0.84284 0.65369 0.0
C286 C 0.66343 0.80958 0.62869 0.0
C287 C 0.6741 0.9151 0.65315 0.0
C288 C 0.70821 0.95563 0.62736 0.0
H289 H 0.63539 0.81606 0.67541 0.0
H290 H 0.67398 0.94094 0.67433 0.0
S291 S 0.73168 0.88874 0.55308 0.0
N292 N 0.69558 0.81872 0.57522 0.0
N293 N 0.73769 0.95443 0.57411 0.0
C294 C 0.70812 0.9203 0.60052 0.0
C295 C 0.68511 0.84675 0.60112 0.0
C296 C 0.84768 0.73884 0.08865 0.0
C297 C 0.85148 0.70557 0.11524 0.0
C298 C 0.79607 0.75853 0.08548 0.0
C299 C 0.74727 0.74693 0.10899 0.0
H300 H 0.88933 0.75724 0.0718 0.0
H301 H 0.79976 0.79045 0.06603 0.0
S302 S 0.72213 0.64336 0.17888 0.0
N303 N 0.79112 0.64624 0.16196 0.0
N304 N 0.69633 0.68652 0.15641 0.0
C305 C 0.74364 0.70429 0.13336 0.0
C306 C 0.79546 0.68294 0.13639 0.0
C307 C -0.02001 0.81679 0.5857 0.0
C308 C 0.95077 0.75511 0.6031 0.0
C309 C 0.04916 0.87114 0.59155 0.0
C310 C 0.0895 0.8644 0.61493 0.0
H311 H 0.94639 0.82761 0.5712 0.0
H312 H 0.06726 0.92157 0.58072 0.0
S313 S 0.04374 0.70441 0.65917 0.0
N314 N -0.02688 0.68294 0.63804 0.0
N315 N 0.10197 0.78626 0.65003 0.0
C316 C 0.06503 0.79872 0.62842 0.0
C317 C -0.00422 0.74306 0.62183 0.0
C318 C 0.96188 0.85962 0.41937 0.0
C319 C -0.02382 0.80417 0.41546 0.0
C320 C 0.89276 0.84757 0.4165 0.0
C321 C 0.83701 0.77981 0.40953 0.0
H322 H 0.00495 0.91358 0.42002 0.0
H323 H 0.88481 0.89254 0.41557 0.0
S324 S 0.84529 0.61499 0.40745 0.0
N325 N 0.92813 0.67808 0.41203 0.0
N326 N 0.79785 0.65468 0.40709 0.0
C327 C 0.84934 0.72278 0.41127 0.0
C328 C 0.91946 0.73521 0.41419 0.0
C329 C 0.13363 0.86569 0.86457 0.0
C330 C 0.07407 0.83743 0.88385 0.0
C331 C 0.18494 0.93744 0.86585 0.0
C332 C 0.17649 -0.01618 0.88525 0.0
H333 H 0.13774 0.83338 0.84674 0.0
H334 H 0.2285 0.95711 0.85019 0.0
S335 S 0.05136 0.9305 0.95004 0.0
N336 N 0.02467 0.85713 0.93013 0.0
N337 N 0.12014 -0.00748 0.9316 0.0
C338 C 0.12486 0.95421 0.90815 0.0
C339 C 0.07367 0.88069 0.90758 0.0
C340 C 0.27861 0.16467 0.35091 0.0
C341 C 0.25346 0.1868 0.37587 0.0
C342 C 0.2982 0.11311 0.3544 0.0
C343 C 0.28943 0.07964 0.38259 0.0
H344 H 0.2756 0.18133 0.328 0.0
H345 H 0.30659 0.09017 0.33392 0.0
S346 S 0.25759 0.14158 0.45666 0.0
N347 N 0.24566 0.18969 0.43107 0.0
N348 N 0.27928 0.09006 0.43732 0.0
C349 C 0.28 0.11258 0.40847 0.0
C350 C 0.26137 0.16618 0.40511 0.0
C351 C 0.07539 0.25093 0.88144 0.0
C352 C 0.09978 0.20635 0.89234 0.0
C353 C 0.00448 0.22414 0.87288 0.0
C354 C 0.95616 0.15168 0.87443 0.0
H355 H 0.1124 0.30613 0.87756 0.0
H356 H -0.01153 0.25961 0.86344 0.0
S357 S -0.01092 0.0145 0.90584 0.0
N358 N 0.06661 0.08727 0.90757 0.0
N359 N 0.93405 0.03768 0.89165 0.0
C360 C -0.02177 0.10775 0.88762 0.0
C361 C 0.04986 0.13489 0.89661 0.0
C362 C 0.88181 0.09328 0.39681 0.0
C363 C 0.89994 0.13326 0.3701 0.0
C364 C 0.82985 0.02216 0.39615 0.0
C365 C 0.79484 -0.00991 0.36868 0.0
H366 H 0.9137 0.11437 0.41704 0.0
H367 H 0.82199 -0.00894 0.41642 0.0
S368 S 0.80543 0.08011 0.29608 0.0
N369 N 0.86576 0.14201 0.31832 0.0
N370 N 0.76807 0.00785 0.31677 0.0
C371 C 0.80418 0.03265 0.34343 0.0
C372 C 0.85642 0.10495 0.34432 0.0
C373 C 0.78761 0.83482 0.91162 0.0
C374 C 0.75866 0.77384 0.89328 0.0
C375 C 0.76138 0.88144 0.9102 0.0
C376 C 0.70663 0.8692 0.88971 0.0
H377 H 0.8354 0.8503 0.92465 0.0
H378 H 0.78985 0.93104 0.92246 0.0
S379 S 0.60198 0.70812 0.84287 0.0
N380 N 0.66463 0.69739 0.85852 0.0
N381 N 0.61384 0.78383 0.85637 0.0
C382 C 0.67048 0.8032 0.87499 0.0
C383 C 0.69724 0.75579 0.8765 0.0
C384 C -0.01318 0.48518 0.12865 0.0
C385 C 0.0332 0.54643 0.14527 0.0
C386 C -0.00116 0.42819 0.12678 0.0
C387 C 0.05702 0.43158 0.14174 0.0
H388 H 0.94786 0.4856 0.11347 0.0
H389 H -0.03123 0.38639 0.11042 0.0
S390 S 0.18102 0.57116 0.19473 0.0
N391 N 0.1284 0.59973 0.18242 0.0
N392 N 0.15199 0.49324 0.17847 0.0
C393 C 0.09569 0.48687 0.16252 0.0
C394 C 0.08303 0.54435 0.16464 0.0
C395 C 0.5785 0.04975 0.62426 0.0
C396 C 0.62562 0.1218 0.62887 0.0
C397 C 0.50638 0.02071 0.63096 0.0
C398 C 0.47936 0.06252 0.64296 0.0
H399 H 0.59632 0.01689 0.61331 0.0
H400 H 0.47062 0.96656 0.62431 0.0
S401 S 0.58536 0.25084 0.66572 0.0
N402 N 0.64321 0.23174 0.65076 0.0
N403 N 0.50858 0.17715 0.66401 0.0
C404 C 0.52791 0.13266 0.65112 0.0
C405 C 0.60082 0.16243 0.64372 0.0
C406 C 0.43657 0.60993 0.16437 0.0
C407 C 0.49387 0.62818 0.1446 0.0
C408 C 0.37881 0.54096 0.1648 0.0
C409 C 0.37708 0.4889 0.14526 0.0
H410 H 0.43156 0.65094 0.1761 0.0
H411 H 0.33193 0.53119 0.17725 0.0
S412 S 0.52466 0.50525 0.09758 0.0
N413 N 0.55335 0.58532 0.11149 0.0
N414 N 0.44512 0.4557 0.1121 0.0
C415 C 0.43937 0.50385 0.12976 0.0
C416 C 0.49809 0.57376 0.12957 0.0
C417 C 0.81076 0.4559 0.59377 0.0
C418 C 0.80515 0.49324 0.61888 0.0
C419 C 0.83532 0.4087 0.59696 0.0
C420 C 0.85692 0.3964 0.6254 0.0
H421 H 0.79453 0.46161 0.57111 0.0
H422 H 0.83625 0.38067 0.57663 0.0
S423 S 0.86076 0.48495 0.69822 0.0
N424 N 0.82843 0.51779 0.67322 0.0
N425 N 0.87494 0.42783 0.67915 0.0
C426 C 0.85324 0.43373 0.65084 0.0
C427 C 0.82768 0.48256 0.64758 0.0
C428 C 0.41395 0.87885 0.15691 0.0
C429 C 0.46072 0.92005 0.13383 0.0
C430 C 0.34167 0.85661 0.15477 0.0
C431 C 0.31475 0.87775 0.13038 0.0
H432 H 0.4305 0.85343 0.17348 0.0
H433 H 0.30574 0.81587 0.17009 0.0
S434 S 0.41959 0.00331 0.06986 0.0
N435 N 0.47824 -0.00593 0.0901 0.0
N436 N 0.34272 0.9544 0.08674 0.0
C437 C 0.36296 0.92914 0.11057 0.0
C438 C 0.43637 0.9508 0.11248 0.0
C439 C 0.48261 0.40908 0.63168 0.0
C440 C 0.55304 0.43807 0.62208 0.0
C441 C 0.43347 0.33745 0.62654 0.0
C442 C 0.45323 0.29359 0.61088 0.0
H443 H 0.4653 0.44214 0.64283 0.0
H444 H 0.38005 0.31649 0.63485 0.0
S445 S 0.62988 0.34749 0.57799 0.0
N446 N 0.63849 0.4189 0.59473 0.0
N447 N 0.54739 0.28649 0.58401 0.0
C448 C 0.52328 0.32316 0.60045 0.0
C449 C 0.5729 0.39488 0.60632 0.0
C450 C 0.46419 0.95989 0.38509 0.0
C451 C 0.40842 0.91491 0.36576 0.0
C452 C 0.52861 0.96008 0.38439 0.0
C453 C 0.53846 0.91404 0.36478 0.0
H454 H 0.45517 -0.01192 0.40336 0.0
H455 H 0.56736 -0.00977 0.40186 0.0
S456 S 0.41459 0.80241 0.30372 0.0
N457 N 0.37237 0.83683 0.32175 0.0
N458 N 0.49211 0.83519 0.32085 0.0
C459 C 0.48689 0.87766 0.34218 0.0
C460 C 0.42203 0.87859 0.34262 0.0
C461 C 0.56573 0.54648 0.89429 0.0
C462 C 0.60707 0.54395 0.87027 0.0
C463 C 0.4948 0.49393 0.89719 0.0
C464 C 0.46346 0.43756 0.87611 0.0
H465 H 0.591 0.58186 0.91346 0.0
H466 H 0.46804 0.49167 0.91835 0.0
S467 S 0.54062 0.42553 0.80286 0.0
N468 N 0.60564 0.49457 0.82035 0.0
N469 N 0.47169 0.39611 0.82565 0.0
C470 C 0.49942 0.44402 0.84874 0.0
C471 C 0.57185 0.49748 0.84586 0.0
C472 C 0.0426 0.55959 0.36912 0.0
C473 C 0.10836 0.61672 0.3611 0.0
C474 C 0.03161 0.49086 0.36926 0.0
C475 C 0.0867 0.47724 0.36217 0.0
H476 H 0.00196 0.5689 0.37843 0.0
H477 H -0.01817 0.4493 0.37793 0.0
S478 S 0.2646 0.60896 0.33393 0.0
N479 N 0.22499 0.65495 0.3409 0.0
N480 N 0.20595 0.52661 0.34192 0.0
C481 C 0.14976 0.53321 0.35037 0.0
C482 C 0.16017 0.60293 0.34968 0.0
C483 C 0.46376 0.03241 0.85379 0.0
C484 C 0.53753 0.07372 0.85151 0.0
C485 C 0.42358 0.06105 0.86555 0.0
C486 C 0.45653 0.1317 0.8753 0.0
H487 H 0.43728 -0.02268 0.8472 0.0
H488 H 0.36697 0.02748 0.86773 0.0
S489 S 0.64596 0.26559 0.8666 0.0
N490 N 0.63998 0.19131 0.85448 0.0
N491 N 0.56544 0.24481 0.87722 0.0
C492 C 0.52974 0.17448 0.8711 0.0
C493 C 0.57013 0.1456 0.85897 0.0
C494 C 0.34091 0.5206 0.3787 0.0
C495 C 0.30859 0.49349 0.40693 0.0
C496 C 0.40826 0.57985 0.37752 0.0
C497 C 0.44477 0.61255 0.4045 0.0
H498 H 0.31297 0.49823 0.35748 0.0
H499 H 0.43042 0.60219 0.3555 0.0
S500 S 0.39105 0.55207 0.48364 0.0
N501 N 0.32386 0.49602 0.46226 0.0
N502 N 0.4501 0.60873 0.45969 0.0
C503 C 0.41609 0.58253 0.43266 0.0
C504 C 0.34794 0.52216 0.43396 0.0
C505 C 0.87801 0.42619 0.91397 0.0
C506 C 0.89186 0.45936 0.88546 0.0
C507 C 0.85842 0.35494 0.91602 0.0
C508 C 0.85399 0.3156 0.88974 0.0
H509 H 0.87163 0.45196 0.93396 0.0
H510 H 0.8393 0.32875 0.9377 0.0
S511 S 0.90414 0.38481 0.81132 0.0
N512 N 0.91374 0.45266 0.83174 0.0
N513 N 0.87962 0.31947 0.83562 0.0
C514 C 0.87955 0.35172 0.86215 0.0
C515 C 0.89828 0.42389 0.86003 0.0
C516 C 0.15357 0.42508 0.27343 0.0
C517 C 0.20263 0.42235 0.29326 0.0
C518 C 0.15841 0.41755 0.24183 0.0
C519 C 0.21389 0.41012 0.22944 0.0
H520 H 0.10419 0.41794 0.28242 0.0
H521 H 0.11269 0.40553 0.2279 0.0
S522 S 0.37158 0.43468 0.2711 0.0
N523 N 0.32007 0.43809 0.2979 0.0
N524 N 0.32971 0.4244 0.23838 0.0
C525 C 0.27135 0.42532 0.24839 0.0
C526 C 0.26619 0.43296 0.28055 0.0
C527 C 0.78748 0.2207 0.73267 0.0
C528 C 0.85846 0.24573 0.72489 0.0
C529 C 0.76286 0.19577 0.76221 0.0
C530 C 0.80872 0.19668 0.78504 0.0
H531 H 0.74897 0.21067 0.7149 0.0
H532 H 0.70651 0.16941 0.76635 0.0
S533 S 0.0017 0.27022 0.77767 0.0
N534 N -0.02398 0.28063 0.74358 0.0
N535 N 0.92991 0.2339 0.79894 0.0
C536 C 0.88115 0.23012 0.7786 0.0
C537 C 0.90609 0.25545 0.74859 0.0
C538 C 0.62558 0.74799 0.21755 0.0
C539 C 0.64476 0.81756 0.21019 0.0
C540 C 0.61071 0.72407 0.24782 0.0
C541 C 0.61242 0.76807 0.27195 0.0
H542 H 0.62489 0.71257 0.20005 0.0
H543 H 0.60114 0.67159 0.25258 0.0
S544 S 0.64124 0.9488 0.263 0.0
N545 N 0.65227 0.92604 0.22829 0.0
N546 N 0.62375 0.88128 0.28506 0.0
C547 C 0.62468 0.83552 0.26425 0.0
C548 C 0.64112 0.86025 0.23346 0.0
C549 C 0.85181 0.6494 0.72165 0.0
C550 C 0.7835 0.59605 0.7136 0.0
C551 C 0.8788 0.65228 0.75083 0.0
C552 C 0.838 0.60233 0.77295 0.0
H553 H 0.88119 0.69355 0.70655 0.0
H554 H 0.92745 0.69922 0.75739 0.0
S555 S 0.67118 0.43634 0.75816 0.0
N556 N 0.68587 0.48095 0.72616 0.0
N557 N 0.73674 0.48652 0.78171 0.0
C558 C 0.77558 0.54223 0.76335 0.0
C559 C 0.74789 0.53928 0.73343 0.0
C560 C 0.08077 0.71055 0.24387 0.0
C561 C 0.12672 0.75657 0.22164 0.0
C562 C 0.09627 0.72549 0.27518 0.0
C563 C 0.15778 0.7869 0.2847 0.0
H564 H 0.02923 0.66789 0.23721 0.0
H565 H 0.05642 0.69356 0.29175 0.0
S566 S 0.30035 0.91607 0.2353 0.0
N567 N 0.24031 0.85942 0.21128 0.0
N568 N 0.26947 0.88708 0.26979 0.0
C569 C 0.20772 0.82787 0.26267 0.0
C570 C 0.19216 0.81271 0.23111 0.0
C571 C 0.38488 0.19057 0.77057 0.0
C572 C 0.34045 0.14309 0.79292 0.0
C573 C 0.38241 0.16927 0.73989 0.0
C574 C 0.33521 0.09973 0.73048 0.0
H575 H 0.41652 0.24605 0.77618 0.0
H576 H 0.41111 0.20925 0.72293 0.0
S577 S 0.21142 0.95436 0.78 0.0
N578 N 0.25097 0.02299 0.80324 0.0
N579 N 0.2483 -0.01756 0.74632 0.0
C580 C 0.29639 0.0505 0.75315 0.0
C581 C 0.29823 0.07233 0.78417 0.0
C582 C 0.27316 0.21995 0.01568 0.0
C583 C 0.23477 0.20116 0.98785 0.0
C584 C 0.24826 0.23736 0.04193 0.0
C585 C 0.1839 0.2368 0.04158 0.0
H586 H 0.32523 0.22557 0.01694 0.0
H587 H 0.28199 0.25607 0.06197 0.0
S588 S 0.05466 0.17514 0.97789 0.0
N589 N 0.12289 0.17124 0.96389 0.0
N590 N 0.07646 0.20472 0.01329 0.0
C591 C 0.14187 0.21207 0.01511 0.0
C592 C 0.16708 0.19387 0.98829 0.0
C593 C 0.02305 0.29924 0.49065 0.0
C594 C 0.01743 0.24328 0.47234 0.0
C595 C -0.01731 0.287 0.51711 0.0
C596 C 0.93516 0.21838 0.52649 0.0
H597 H 0.05912 0.35337 0.48462 0.0
H598 H -0.01207 0.33168 0.5301 0.0
S599 S 0.90581 0.05356 0.48931 0.0
N600 N -0.03401 0.11662 0.46781 0.0
N601 N 0.88622 0.09352 0.51658 0.0
C602 C 0.92945 0.16183 0.50895 0.0
C603 C -0.02827 0.17431 0.48217 0.0
C604 C 0.71399 0.958 0.01433 0.0
C605 C 0.65137 0.89202 0.01523 0.0
C606 C 0.73067 0.00173 0.9887 0.0
C607 C 0.68495 -0.01907 0.96343 0.0
H608 H 0.74821 -0.02211 0.03416 0.0
H609 H 0.77746 0.0534 0.98931 0.0
S610 S 0.52093 0.81032 0.95194 0.0
N611 N 0.54865 0.80516 0.98636 0.0
N612 N 0.57959 0.8885 0.93904 0.0
C613 C 0.62535 0.91363 0.96302 0.0
C614 C 0.60877 0.86872 0.9887 0.0
C615 C 0.7536 0.75 0.51581 0.0
C616 C 0.71037 0.68143 0.52632 0.0
C617 C 0.74066 0.77016 0.48729 0.0
C618 C 0.68495 0.72208 0.46824 0.0
H619 H 0.79354 0.7896 0.53065 0.0
H620 H 0.77186 0.82496 0.48091 0.0
S621 S 0.56734 0.53232 0.48267 0.0
N622 N 0.61732 0.56237 0.51357 0.0
N623 N 0.59415 0.60054 0.45984 0.0
C624 C 0.64694 0.65154 0.47699 0.0
C625 C 0.65936 0.63116 0.50615 0.0
C626 C -0.00158 0.71705 0.97045 0.0
C627 C 0.92614 0.66672 0.96965 0.0
C628 C 0.03485 0.74104 0.99827 0.0
C629 C 0.00067 0.71552 0.02649 0.0
H630 H 0.02769 0.73692 0.94945 0.0
H631 H 0.09088 0.7787 0.99758 0.0
S632 S 0.81144 0.58408 0.03719 0.0
N633 N 0.82092 0.59395 0.99986 0.0
N634 N 0.89029 0.63701 0.05181 0.0
C635 C 0.92817 0.66624 0.02608 0.0
C636 C 0.89079 0.64222 0.99778 0.0
C637 C 0.20256 0.8521 0.51142 0.0
C638 C 0.17333 0.86668 0.4857 0.0
C639 C 0.21888 0.89302 0.53796 0.0
C640 C 0.20625 0.94956 0.53967 0.0
H641 H 0.21881 0.81282 0.51016 0.0
H642 H 0.24786 0.88474 0.556 0.0
S643 S 0.10878 -0.00572 0.4834 0.0
N644 N 0.1165 0.9305 0.46678 0.0
N645 N 0.14836 0.00822 0.51697 0.0
C646 C 0.16833 0.95866 0.51605 0.0
C647 C 0.15108 0.91656 0.48895 0.0
loop_
_geom_bond_atom_site_label_1
_geom_bond_atom_site_label_2
_geom_bond_distance
_geom_bond_site_symmetry_2
_ccdc_geom_bond_type
Zn0 O6 1.920 . S
Zn0 O12 1.898 . S
Zn0 O15 1.905 . S
Zn1 O9 1.905 . S
Zn1 O10 1.898 . S
Zn1 O18 1.920 . S
Zn2 O5 2.080 . S
Zn2 O8 2.114 . S
Zn2 O11 2.120 . S
Zn2 O13 2.120 . S
Zn2 O14 2.114 . S
Zn2 O17 2.080 . S
C3 O8 1.166 . S
C3 O9 1.182 . S
C4 O10 1.167 . S
C4 O11 1.299 . S
O5 Zn2 2.080 . S
O5 C19 1.305 . S
O6 Zn0 1.920 . S
O6 C19 1.234 . S
C7 O12 1.167 . S
C7 O13 1.299 . S
O8 Zn2 2.114 . S
O8 C3 1.166 . S
O9 Zn1 1.905 . S
O9 C3 1.182 . S
O10 Zn1 1.898 . S
O10 C4 1.167 . S
O11 Zn2 2.120 . S
O11 C4 1.299 . S
O12 Zn0 1.898 . S
O12 C7 1.167 . S
O13 Zn2 2.120 . S
O13 C7 1.299 . S
O14 Zn2 2.114 . S
O14 C16 1.166 . S
O15 Zn0 1.905 . S
O15 C16 1.182 . S
C16 O14 1.166 . S
C16 O15 1.182 . S
O17 Zn2 2.080 . S
O17 C20 1.305 . S
O18 Zn1 1.920 . S
O18 C20 1.234 . S
C19 O5 1.305 . S
C19 O6 1.234 . S
C20 O17 1.305 . S
C20 O18 1.234 . S
Zn21 O27 1.920 . S
Zn21 O33 1.898 . S
Zn21 O36 1.905 . S
Zn22 O30 1.905 . S
Zn22 O31 1.898 . S
Zn22 O39 1.920 1_655 S
Zn23 O26 2.080 . S
Zn23 O29 2.114 . S
Zn23 O32 2.120 . S
Zn23 O34 2.120 . S
Zn23 O35 2.114 . S
Zn23 O38 2.080 . S
C24 O29 1.166 . S
C24 O30 1.182 . S
C25 O31 1.167 . S
C25 O32 1.299 . S
O26 Zn23 2.080 . S
O26 C40 1.305 . S
O27 Zn21 1.920 . S
O27 C40 1.234 . S
C28 O33 1.167 . S
C28 O34 1.299 . S
O29 Zn23 2.114 . S
O29 C24 1.166 . S
O30 Zn22 1.905 . S
O30 C24 1.182 . S
O31 Zn22 1.898 . S
O31 C25 1.167 . S
O32 Zn23 2.120 . S
O32 C25 1.299 . S
O33 Zn21 1.898 . S
O33 C28 1.167 . S
O34 Zn23 2.120 . S
O34 C28 1.299 . S
O35 Zn23 2.114 . S
O35 C37 1.166 . S
O36 Zn21 1.905 . S
O36 C37 1.182 . S
C37 O35 1.166 . S
C37 O36 1.182 . S
O38 Zn23 2.080 . S
O38 C41 1.305 1_655 S
O39 Zn22 1.920 1_455 S
O39 C41 1.234 . S
C40 O26 1.305 . S
C40 O27 1.234 . S
C41 O38 1.305 1_455 S
C41 O39 1.234 . S
Zn42 O48 1.920 1_565 S
Zn42 O54 1.898 . S
Zn42 O57 1.905 . S
Zn43 O51 1.905 . S
Zn43 O52 1.898 . S
Zn43 O60 1.920 . S
Zn44 O47 2.080 . S
Zn44 O50 2.114 . S
Zn44 O53 2.120 . S
Zn44 O55 2.120 . S
Zn44 O56 2.114 . S
Zn44 O59 2.080 . S
C45 O50 1.166 . S
C45 O51 1.182 . S
C46 O52 1.167 . S
C46 O53 1.299 . S
O47 Zn44 2.080 . S
O47 C61 1.305 1_565 S
O48 Zn42 1.920 1_545 S
O48 C61 1.234 . S
C49 O54 1.167 . S
C49 O55 1.299 . S
O50 Zn44 2.114 . S
O50 C45 1.166 . S
O51 Zn43 1.905 . S
O51 C45 1.182 . S
O52 Zn43 1.898 . S
O52 C46 1.167 . S
O53 Zn44 2.120 . S
O53 C46 1.299 . S
O54 Zn42 1.898 . S
O54 C49 1.167 . S
O55 Zn44 2.120 . S
O55 C49 1.299 . S
O56 Zn44 2.114 . S
O56 C58 1.166 . S
O57 Zn42 1.905 . S
O57 C58 1.182 . S
C58 O56 1.166 . S
C58 O57 1.182 . S
O59 Zn44 2.080 . S
O59 C62 1.305 . S
O60 Zn43 1.920 . S
O60 C62 1.234 . S
C61 O47 1.305 1_545 S
C61 O48 1.234 . S
C62 O59 1.305 . S
C62 O60 1.234 . S
Zn63 O69 1.920 . S
Zn63 O75 1.898 . S
Zn63 O78 1.905 . S
Zn64 O72 1.905 . S
Zn64 O73 1.898 . S
Zn64 O81 1.920 . S
Zn65 O68 2.080 . S
Zn65 O71 2.114 . S
Zn65 O74 2.120 . S
Zn65 O76 2.120 . S
Zn65 O77 2.114 . S
Zn65 O80 2.080 . S
C66 O71 1.166 . S
C66 O72 1.182 . S
C67 O73 1.167 . S
C67 O74 1.299 . S
O68 Zn65 2.080 . S
O68 C82 1.305 . S
O69 Zn63 1.920 . S
O69 C82 1.234 . S
C70 O75 1.167 . S
C70 O76 1.299 . S
O71 Zn65 2.114 . S
O71 C66 1.166 . S
O72 Zn64 1.905 . S
O72 C66 1.182 . S
O73 Zn64 1.898 . S
O73 C67 1.167 . S
O74 Zn65 2.120 . S
O74 C67 1.299 . S
O75 Zn63 1.898 . S
O75 C70 1.167 . S
O76 Zn65 2.120 . S
O76 C70 1.299 . S
O77 Zn65 2.114 . S
O77 C79 1.166 . S
O78 Zn63 1.905 . S
O78 C79 1.182 . S
C79 O77 1.166 . S
C79 O78 1.182 . S
O80 Zn65 2.080 . S
O80 C83 1.305 . S
O81 Zn64 1.920 . S
O81 C83 1.234 . S
C82 O68 1.305 . S
C82 O69 1.234 . S
C83 O80 1.305 . S
C83 O81 1.234 . S
Zn84 O90 1.920 1_455 S
Zn84 O96 1.898 . S
Zn84 O99 1.905 . S
Zn85 O93 1.905 . S
Zn85 O94 1.898 . S
Zn85 O102 1.920 . S
Zn86 O89 2.080 . S
Zn86 O92 2.114 . S
Zn86 O95 2.120 . S
Zn86 O97 2.120 . S
Zn86 O98 2.114 . S
Zn86 O101 2.080 . S
C87 O92 1.166 . S
C87 O93 1.182 . S
C88 O94 1.167 . S
C88 O95 1.299 . S
O89 Zn86 2.080 . S
O89 C103 1.305 1_455 S
O90 Zn84 1.920 1_655 S
O90 C103 1.234 . S
C91 O96 1.167 . S
C91 O97 1.299 . S
O92 Zn86 2.114 . S
O92 C87 1.166 . S
O93 Zn85 1.905 . S
O93 C87 1.182 . S
O94 Zn85 1.898 . S
O94 C88 1.167 . S
O95 Zn86 2.120 . S
O95 C88 1.299 . S
O96 Zn84 1.898 . S
O96 C91 1.167 . S
O97 Zn86 2.120 . S
O97 C91 1.299 . S
O98 Zn86 2.114 . S
O98 C100 1.166 . S
O99 Zn84 1.905 . S
O99 C100 1.182 . S
C100 O98 1.166 . S
C100 O99 1.182 . S
O101 Zn86 2.080 . S
O101 C104 1.305 . S
O102 Zn85 1.920 . S
O102 C104 1.234 . S
C103 O89 1.305 1_655 S
C103 O90 1.234 . S
C104 O101 1.305 . S
C104 O102 1.234 . S
Zn105 O111 1.920 1_545 S
Zn105 O117 1.898 . S
Zn105 O120 1.905 . S
Zn106 O114 1.905 . S
Zn106 O115 1.898 . S
Zn106 O123 1.920 . S
Zn107 O110 2.080 . S
Zn107 O113 2.114 . S
Zn107 O116 2.120 . S
Zn107 O118 2.120 . S
Zn107 O119 2.114 . S
Zn107 O122 2.080 . S
C108 O113 1.166 . S
C108 O114 1.182 . S
C109 O115 1.167 . S
C109 O116 1.299 . S
O110 Zn107 2.080 . S
O110 C124 1.305 1_545 S
O111 Zn105 1.920 1_565 S
O111 C124 1.234 . S
C112 O117 1.167 . S
C112 O118 1.299 . S
O113 Zn107 2.114 . S
O113 C108 1.166 . S
O114 Zn106 1.905 . S
O114 C108 1.182 . S
O115 Zn106 1.898 . S
O115 C109 1.167 . S
O116 Zn107 2.120 . S
O116 C109 1.299 . S
O117 Zn105 1.898 . S
O117 C112 1.167 . S
O118 Zn107 2.120 . S
O118 C112 1.299 . S
O119 Zn107 2.114 . S
O119 C121 1.166 . S
O120 Zn105 1.905 . S
O120 C121 1.182 . S
C121 O119 1.166 . S
C121 O120 1.182 . S
O122 Zn107 2.080 . S
O122 C125 1.305 . S
O123 Zn106 1.920 . S
O123 C125 1.234 . S
C124 O110 1.305 1_565 S
C124 O111 1.234 . S
C125 O122 1.305 . S
C125 O123 1.234 . S
Zn126 O132 1.920 . S
Zn126 O138 1.898 . S
Zn126 O141 1.905 . S
Zn127 O135 1.905 . S
Zn127 O136 1.898 . S
Zn127 O144 1.920 . S
Zn128 O131 2.080 . S
Zn128 O134 2.114 . S
Zn128 O137 2.120 . S
Zn128 O139 2.120 . S
Zn128 O140 2.114 . S
Zn128 O143 2.080 . S
C129 O134 1.166 . S
C129 O135 1.182 . S
C130 O136 1.167 . S
C130 O137 1.299 . S
O131 Zn128 2.080 . S
O131 C145 1.305 . S
O132 Zn126 1.920 . S
O132 C145 1.234 . S
C133 O138 1.167 . S
C133 O139 1.299 . S
O134 Zn128 2.114 . S
O134 C129 1.166 . S
O135 Zn127 1.905 . S
O135 C129 1.182 . S
O136 Zn127 1.898 . S
O136 C130 1.167 . S
O137 Zn128 2.120 . S
O137 C130 1.299 . S
O138 Zn126 1.898 . S
O138 C133 1.167 . S
O139 Zn128 2.120 . S
O139 C133 1.299 . S
O140 Zn128 2.114 . S
O140 C142 1.166 . S
O141 Zn126 1.905 . S
O141 C142 1.182 . S
C142 O140 1.166 . S
C142 O141 1.182 . S
O143 Zn128 2.080 . S
O143 C146 1.305 . S
O144 Zn127 1.920 . S
O144 C146 1.234 . S
C145 O131 1.305 . S
C145 O132 1.234 . S
C146 O143 1.305 . S
C146 O144 1.234 . S
Zn147 O153 1.920 1_655 S
Zn147 O159 1.898 . S
Zn147 O162 1.905 . S
Zn148 O156 1.905 . S
Zn148 O157 1.898 . S
Zn148 O165 1.920 . S
Zn149 O152 2.080 . S
Zn149 O155 2.114 . S
Zn149 O158 2.120 . S
Zn149 O160 2.120 . S
Zn149 O161 2.114 . S
Zn149 O164 2.080 . S
C150 O155 1.166 . S
C150 O156 1.182 . S
C151 O157 1.167 . S
C151 O158 1.299 . S
O152 Zn149 2.080 . S
O152 C166 1.305 1_655 S
O153 Zn147 1.920 1_455 S
O153 C166 1.234 . S
C154 O159 1.167 . S
C154 O160 1.299 . S
O155 Zn149 2.114 . S
O155 C150 1.166 . S
O156 Zn148 1.905 . S
O156 C150 1.182 . S
O157 Zn148 1.898 . S
O157 C151 1.167 . S
O158 Zn149 2.120 . S
O158 C151 1.299 . S
O159 Zn147 1.898 . S
O159 C154 1.167 . S
O160 Zn149 2.120 . S
O160 C154 1.299 . S
O161 Zn149 2.114 . S
O161 C163 1.166 . S
O162 Zn147 1.905 . S
O162 C163 1.182 . S
C163 O161 1.166 . S
C163 O162 1.182 . S
O164 Zn149 2.080 . S
O164 C167 1.305 . S
O165 Zn148 1.920 . S
O165 C167 1.234 . S
C166 O152 1.305 1_455 S
C166 O153 1.234 . S
C167 O164 1.305 . S
C167 O165 1.234 . S
Zn168 O174 1.920 1_565 S
Zn168 O180 1.898 . S
Zn168 O183 1.905 . S
Zn169 O177 1.905 . S
Zn169 O178 1.898 . S
Zn169 O186 1.920 . S
Zn170 O173 2.080 . S
Zn170 O176 2.114 . S
Zn170 O179 2.120 . S
Zn170 O181 2.120 . S
Zn170 O182 2.114 . S
Zn170 O185 2.080 . S
C171 O176 1.166 . S
C171 O177 1.182 . S
C172 O178 1.167 . S
C172 O179 1.299 . S
O173 Zn170 2.080 . S
O173 C187 1.305 1_565 S
O174 Zn168 1.920 1_545 S
O174 C187 1.234 . S
C175 O180 1.167 . S
C175 O181 1.299 . S
O176 Zn170 2.114 . S
O176 C171 1.166 . S
O177 Zn169 1.905 . S
O177 C171 1.182 . S
O178 Zn169 1.898 . S
O178 C172 1.167 . S
O179 Zn170 2.120 . S
O179 C172 1.299 . S
O180 Zn168 1.898 . S
O180 C175 1.167 . S
O181 Zn170 2.120 . S
O181 C175 1.299 . S
O182 Zn170 2.114 . S
O182 C184 1.166 . S
O183 Zn168 1.905 . S
O183 C184 1.182 . S
C184 O182 1.166 . S
C184 O183 1.182 . S
O185 Zn170 2.080 . S
O185 C188 1.305 . S
O186 Zn169 1.920 . S
O186 C188 1.234 . S
C187 O173 1.305 1_545 S
C187 O174 1.234 . S
C188 O185 1.305 . S
C188 O186 1.234 . S
Zn189 O195 1.920 . S
Zn189 O201 1.898 . S
Zn189 O204 1.905 . S
Zn190 O198 1.905 . S
Zn190 O199 1.898 . S
Zn190 O207 1.920 . S
Zn191 O194 2.080 . S
Zn191 O197 2.114 . S
Zn191 O200 2.120 . S
Zn191 O202 2.120 . S
Zn191 O203 2.114 . S
Zn191 O206 2.080 . S
C192 O197 1.166 . S
C192 O198 1.182 . S
C193 O199 1.167 . S
C193 O200 1.299 . S
O194 Zn191 2.080 . S
O194 C208 1.305 . S
O195 Zn189 1.920 . S
O195 C208 1.234 . S
C196 O201 1.167 . S
C196 O202 1.299 . S
O197 Zn191 2.114 . S
O197 C192 1.166 . S
O198 Zn190 1.905 . S
O198 C192 1.182 . S
O199 Zn190 1.898 . S
O199 C193 1.167 . S
O200 Zn191 2.120 . S
O200 C193 1.299 . S
O201 Zn189 1.898 . S
O201 C196 1.167 . S
O202 Zn191 2.120 . S
O202 C196 1.299 . S
O203 Zn191 2.114 . S
O203 C205 1.166 . S
O204 Zn189 1.905 . S
O204 C205 1.182 . S
C205 O203 1.166 . S
C205 O204 1.182 . S
O206 Zn191 2.080 . S
O206 C209 1.305 . S
O207 Zn190 1.920 . S
O207 C209 1.234 . S
C208 O194 1.305 . S
C208 O195 1.234 . S
C209 O206 1.305 . S
C209 O207 1.234 . S
Zn210 O216 1.920 1_455 S
Zn210 O222 1.898 . S
Zn210 O225 1.905 . S
Zn211 O219 1.905 . S
Zn211 O220 1.898 . S
Zn211 O228 1.920 . S
Zn212 O215 2.080 . S
Zn212 O218 2.114 . S
Zn212 O221 2.120 . S
Zn212 O223 2.120 . S
Zn212 O224 2.114 . S
Zn212 O227 2.080 . S
C213 O218 1.166 . S
C213 O219 1.182 . S
C214 O220 1.167 . S
C214 O221 1.299 . S
O215 Zn212 2.080 . S
O215 C229 1.305 1_455 S
O216 Zn210 1.920 1_655 S
O216 C229 1.234 . S
C217 O222 1.167 . S
C217 O223 1.299 . S
O218 Zn212 2.114 . S
O218 C213 1.166 . S
O219 Zn211 1.905 . S
O219 C213 1.182 . S
O220 Zn211 1.898 . S
O220 C214 1.167 . S
O221 Zn212 2.120 . S
O221 C214 1.299 . S
O222 Zn210 1.898 . S
O222 C217 1.167 . S
O223 Zn212 2.120 . S
O223 C217 1.299 . S
O224 Zn212 2.114 . S
O224 C226 1.166 . S
O225 Zn210 1.905 . S
O225 C226 1.182 . S
C226 O224 1.166 . S
C226 O225 1.182 . S
O227 Zn212 2.080 . S
O227 C230 1.305 . S
O228 Zn211 1.920 . S
O228 C230 1.234 . S
C229 O215 1.305 1_655 S
C229 O216 1.234 . S
C230 O227 1.305 . S
C230 O228 1.234 . S
Zn231 O237 1.920 1_545 S
Zn231 O243 1.898 . S
Zn231 O246 1.905 . S
Zn232 O240 1.905 . S
Zn232 O241 1.898 . S
Zn232 O249 1.920 . S
Zn233 O236 2.080 . S
Zn233 O239 2.114 . S
Zn233 O242 2.120 . S
Zn233 O244 2.120 . S
Zn233 O245 2.114 . S
Zn233 O248 2.080 . S
C234 O239 1.166 . S
C234 O240 1.182 . S
C235 O241 1.167 . S
C235 O242 1.299 . S
O236 Zn233 2.080 . S
O236 C250 1.305 1_545 S
O237 Zn231 1.920 1_565 S
O237 C250 1.234 . S
C238 O243 1.167 . S
C238 O244 1.299 . S
O239 Zn233 2.114 . S
O239 C234 1.166 . S
O240 Zn232 1.905 . S
O240 C234 1.182 . S
O241 Zn232 1.898 . S
O241 C235 1.167 . S
O242 Zn233 2.120 . S
O242 C235 1.299 . S
O243 Zn231 1.898 . S
O243 C238 1.167 . S
O244 Zn233 2.120 . S
O244 C238 1.299 . S
O245 Zn233 2.114 . S
O245 C247 1.166 . S
O246 Zn231 1.905 . S
O246 C247 1.182 . S
C247 O245 1.166 . S
C247 O246 1.182 . S
O248 Zn233 2.080 . S
O248 C251 1.305 . S
O249 Zn232 1.920 . S
O249 C251 1.234 . S
C250 O236 1.305 1_565 S
C250 O237 1.234 . S
C251 O248 1.305 . S
C251 O249 1.234 . S
C252 C253 1.369 . S
C252 C254 1.419 . S
C252 H256 0.930 . S
C253 C252 1.369 . S
C253 C262 1.429 . S
C254 C252 1.419 . S
C254 C255 1.363 . S
C254 H257 0.929 . S
C255 C254 1.363 . S
C255 C261 1.428 . S
H256 C252 0.930 . S
H257 C254 0.929 . S
S258 N259 1.613 1_545 S
S258 N260 1.610 . S
N259 S258 1.613 1_565 S
N259 C262 1.350 1_565 S
N260 S258 1.610 . S
N260 C261 1.351 . S
C261 C255 1.428 . S
C261 N260 1.351 . S
C261 C262 1.434 . S
C262 C253 1.429 . S
C262 N259 1.350 1_545 S
C262 C261 1.434 . S
C263 C264 1.369 . S
C263 C265 1.419 . S
C263 H267 0.930 . S
C264 C263 1.369 . S
C264 C273 1.429 . S
C265 C263 1.419 . S
C265 C266 1.363 . S
C265 H268 0.929 . S
C266 C265 1.363 . S
C266 C272 1.428 . S
H267 C263 0.930 . S
H268 C265 0.929 . S
S269 N270 1.613 . S
S269 N271 1.610 . S
N270 S269 1.613 . S
N270 C273 1.350 . S
N271 S269 1.610 . S
N271 C272 1.351 . S
C272 C266 1.428 . S
C272 N271 1.351 . S
C272 C273 1.434 . S
C273 C264 1.429 . S
C273 N270 1.350 . S
C273 C272 1.434 . S
C274 C275 1.369 . S
C274 C276 1.419 . S
C274 H278 0.930 . S
C275 C274 1.369 . S
C275 C284 1.429 . S
C276 C274 1.419 . S
C276 C277 1.363 . S
C276 H279 0.929 . S
C277 C276 1.363 . S
C277 C283 1.428 . S
H278 C274 0.930 . S
H279 C276 0.929 . S
S280 N281 1.613 . S
S280 N282 1.610 . S
N281 S280 1.613 . S
N281 C284 1.350 . S
N282 S280 1.610 . S
N282 C283 1.351 . S
C283 C277 1.428 . S
C283 N282 1.351 . S
C283 C284 1.434 . S
C284 C275 1.429 . S
C284 N281 1.350 . S
C284 C283 1.434 . S
C285 C286 1.369 . S
C285 C287 1.419 . S
C285 H289 0.930 . S
C286 C285 1.369 . S
C286 C295 1.429 . S
C287 C285 1.419 . S
C287 C288 1.363 . S
C287 H290 0.929 . S
C288 C287 1.363 . S
C288 C294 1.428 . S
H289 C285 0.930 . S
H290 C287 0.929 . S
S291 N292 1.613 . S
S291 N293 1.610 1_565 S
N292 S291 1.613 . S
N292 C295 1.350 . S
N293 S291 1.610 1_545 S
N293 C294 1.351 1_545 S
C294 C288 1.428 . S
C294 N293 1.351 1_565 S
C294 C295 1.434 . S
C295 C286 1.429 . S
C295 N292 1.350 . S
C295 C294 1.434 . S
C296 C297 1.369 . S
C296 C298 1.419 . S
C296 H300 0.930 . S
C297 C296 1.369 . S
C297 C306 1.429 . S
C298 C296 1.419 . S
C298 C299 1.363 . S
C298 H301 0.929 . S
C299 C298 1.363 . S
C299 C305 1.428 . S
H300 C296 0.930 . S
H301 C298 0.929 . S
S302 N303 1.613 . S
S302 N304 1.610 . S
N303 S302 1.613 . S
N303 C306 1.350 . S
N304 S302 1.610 . S
N304 C305 1.351 . S
C305 C299 1.428 . S
C305 N304 1.351 . S
C305 C306 1.434 . S
C306 C297 1.429 . S
C306 N303 1.350 . S
C306 C305 1.434 . S
C307 C308 1.369 . S
C307 C309 1.419 . S
C307 H311 0.930 . S
C308 C307 1.369 . S
C308 C317 1.429 . S
C309 C307 1.419 . S
C309 C310 1.363 . S
C309 H312 0.929 . S
C310 C309 1.363 . S
C310 C316 1.428 . S
H311 C307 0.930 . S
H312 C309 0.929 . S
S313 N314 1.613 . S
S313 N315 1.610 . S
N314 S313 1.613 . S
N314 C317 1.350 . S
N315 S313 1.610 . S
N315 C316 1.351 . S
C316 C310 1.428 . S
C316 N315 1.351 . S
C316 C317 1.434 . S
C317 C308 1.429 . S
C317 N314 1.350 . S
C317 C316 1.434 . S
C318 C319 1.369 . S
C318 C320 1.419 . S
C318 H322 0.930 1_655 S
C319 C318 1.369 . S
C319 C328 1.429 . S
C320 C318 1.419 . S
C320 C321 1.363 . S
C320 H323 0.929 . S
C321 C320 1.363 . S
C321 C327 1.428 . S
H322 C318 0.930 1_455 S
H323 C320 0.929 . S
S324 N325 1.613 . S
S324 N326 1.610 . S
N325 S324 1.613 . S
N325 C328 1.350 . S
N326 S324 1.610 . S
N326 C327 1.351 . S
C327 C321 1.428 . S
C327 N326 1.351 . S
C327 C328 1.434 . S
C328 C319 1.429 . S
C328 N325 1.350 . S
C328 C327 1.434 . S
C329 C330 1.369 . S
C329 C331 1.419 . S
C329 H333 0.930 . S
C330 C329 1.369 . S
C330 C339 1.429 . S
C331 C329 1.419 . S
C331 C332 1.363 . S
C331 H334 0.929 . S
C332 C331 1.363 . S
C332 C338 1.428 . S
H333 C329 0.930 . S
H334 C331 0.929 . S
S335 N336 1.613 . S
S335 N337 1.610 1_565 S
N336 S335 1.613 . S
N336 C339 1.350 . S
N337 S335 1.610 1_545 S
N337 C338 1.351 1_545 S
C338 C332 1.428 . S
C338 N337 1.351 1_565 S
C338 C339 1.434 . S
C339 C330 1.429 . S
C339 N336 1.350 . S
C339 C338 1.434 . S
C340 C341 1.369 . S
C340 C342 1.419 . S
C340 H344 0.930 . S
C341 C340 1.369 . S
C341 C350 1.429 . S
C342 C340 1.419 . S
C342 C343 1.363 . S
C342 H345 0.929 . S
C343 C342 1.363 . S
C343 C349 1.428 . S
H344 C340 0.930 . S
H345 C342 0.929 . S
S346 N347 1.613 . S
S346 N348 1.610 . S
N347 S346 1.613 . S
N347 C350 1.350 . S
N348 S346 1.610 . S
N348 C349 1.351 . S
C349 C343 1.428 . S
C349 N348 1.351 . S
C349 C350 1.434 . S
C350 C341 1.429 . S
C350 N347 1.350 . S
C350 C349 1.434 . S
C351 C352 1.369 . S
C351 C353 1.419 . S
C351 H355 0.930 . S
C352 C351 1.369 . S
C352 C361 1.429 . S
C353 C351 1.419 . S
C353 C354 1.363 . S
C353 H356 0.929 . S
C354 C353 1.363 . S
C354 C360 1.428 . S
H355 C351 0.930 . S
H356 C353 0.929 . S
S357 N358 1.613 . S
S357 N359 1.610 1_455 S
N358 S357 1.613 . S
N358 C361 1.350 . S
N359 S357 1.610 1_655 S
N359 C360 1.351 1_655 S
C360 C354 1.428 . S
C360 N359 1.351 1_455 S
C360 C361 1.434 . S
C361 C352 1.429 . S
C361 N358 1.350 . S
C361 C360 1.434 . S
C362 C363 1.369 . S
C362 C364 1.419 . S
C362 H366 0.930 . S
C363 C362 1.369 . S
C363 C372 1.429 . S
C364 C362 1.419 . S
C364 C365 1.363 . S
C364 H367 0.929 . S
C365 C364 1.363 . S
C365 C371 1.428 . S
H366 C362 0.930 . S
H367 C364 0.929 . S
S368 N369 1.613 . S
S368 N370 1.610 1_545 S
N369 S368 1.613 . S
N369 C372 1.350 . S
N370 S368 1.610 1_565 S
N370 C371 1.351 1_565 S
C371 C365 1.428 . S
C371 N370 1.351 1_545 S
C371 C372 1.434 . S
C372 C363 1.429 . S
C372 N369 1.350 . S
C372 C371 1.434 . S
C373 C374 1.369 . S
C373 C375 1.419 . S
C373 H377 0.930 . S
C374 C373 1.369 . S
C374 C383 1.429 . S
C375 C373 1.419 . S
C375 C376 1.363 . S
C375 H378 0.929 . S
C376 C375 1.363 . S
C376 C382 1.428 . S
H377 C373 0.930 . S
H378 C375 0.929 . S
S379 N380 1.613 . S
S379 N381 1.610 . S
N380 S379 1.613 . S
N380 C383 1.350 . S
N381 S379 1.610 . S
N381 C382 1.351 . S
C382 C376 1.428 . S
C382 N381 1.351 . S
C382 C383 1.434 . S
C383 C374 1.429 . S
C383 N380 1.350 . S
C383 C382 1.434 . S
C384 C385 1.369 . S
C384 C386 1.419 . S
C384 H388 0.930 . S
C385 C384 1.369 . S
C385 C394 1.429 . S
C386 C384 1.419 . S
C386 C387 1.363 . S
C386 H389 0.929 . S
C387 C386 1.363 . S
C387 C393 1.428 . S
H388 C384 0.930 . S
H389 C386 0.929 . S
S390 N391 1.613 . S
S390 N392 1.610 . S
N391 S390 1.613 . S
N391 C394 1.350 . S
N392 S390 1.610 . S
N392 C393 1.351 . S
C393 C387 1.428 . S
C393 N392 1.351 . S
C393 C394 1.434 . S
C394 C385 1.429 . S
C394 N391 1.350 . S
C394 C393 1.434 . S
C395 C396 1.369 . S
C395 C397 1.419 . S
C395 H399 0.930 . S
C396 C395 1.369 . S
C396 C405 1.429 . S
C397 C395 1.419 . S
C397 C398 1.363 . S
C397 H400 0.929 . S
C398 C397 1.363 . S
C398 C404 1.428 . S
H399 C395 0.930 . S
H400 C397 0.929 . S
S401 N402 1.613 . S
S401 N403 1.610 . S
N402 S401 1.613 . S
N402 C405 1.350 . S
N403 S401 1.610 . S
N403 C404 1.351 . S
C404 C398 1.428 . S
C404 N403 1.351 . S
C404 C405 1.434 . S
C405 C396 1.429 . S
C405 N402 1.350 . S
C405 C404 1.434 . S
C406 C407 1.369 . S
C406 C408 1.419 . S
C406 H410 0.930 . S
C407 C406 1.369 . S
C407 C416 1.429 . S
C408 C406 1.419 . S
C408 C409 1.363 . S
C408 H411 0.929 . S
C409 C408 1.363 . S
C409 C415 1.428 . S
H410 C406 0.930 . S
H411 C408 0.929 . S
S412 N413 1.613 . S
S412 N414 1.610 . S
N413 S412 1.613 . S
N413 C416 1.350 . S
N414 S412 1.610 . S
N414 C415 1.351 . S
C415 C409 1.428 . S
C415 N414 1.351 . S
C415 C416 1.434 . S
C416 C407 1.429 . S
C416 N413 1.350 . S
C416 C415 1.434 . S
C417 C418 1.369 . S
C417 C419 1.419 . S
C417 H421 0.930 . S
C418 C417 1.369 . S
C418 C427 1.429 . S
C419 C417 1.419 . S
C419 C420 1.363 . S
C419 H422 0.929 . S
C420 C419 1.363 . S
C420 C426 1.428 . S
H421 C417 0.930 . S
H422 C419 0.929 . S
S423 N424 1.613 1_455 S
S423 N425 1.610 1_455 S
N424 S423 1.613 1_655 S
N424 C427 1.350 . S
N425 S423 1.610 1_655 S
N425 C426 1.351 . S
C426 C420 1.428 . S
C426 N425 1.351 . S
C426 C427 1.434 . S
C427 C418 1.429 . S
C427 N424 1.350 . S
C427 C426 1.434 . S
C428 C429 1.369 . S
C428 C430 1.419 . S
C428 H432 0.930 . S
C429 C428 1.369 . S
C429 C438 1.429 . S
C430 C428 1.419 . S
C430 C431 1.363 . S
C430 H433 0.929 . S
C431 C430 1.363 . S
C431 C437 1.428 . S
H432 C428 0.930 . S
H433 C430 0.929 . S
S434 N435 1.613 . S
S434 N436 1.610 1_545 S
N435 S434 1.613 . S
N435 C438 1.350 1_545 S
N436 S434 1.610 1_565 S
N436 C437 1.351 . S
C437 C431 1.428 . S
C437 N436 1.351 . S
C437 C438 1.434 . S
C438 C429 1.429 . S
C438 N435 1.350 1_565 S
C438 C437 1.434 . S
C439 C440 1.369 . S
C439 C441 1.419 . S
C439 H443 0.930 . S
C440 C439 1.369 . S
C440 C449 1.429 . S
C441 C439 1.419 . S
C441 C442 1.363 . S
C441 H444 0.929 . S
C442 C441 1.363 . S
C442 C448 1.428 . S
H443 C439 0.930 . S
H444 C441 0.929 . S
S445 N446 1.613 . S
S445 N447 1.610 . S
N446 S445 1.613 . S
N446 C449 1.350 . S
N447 S445 1.610 . S
N447 C448 1.351 . S
C448 C442 1.428 . S
C448 N447 1.351 . S
C448 C449 1.434 . S
C449 C440 1.429 . S
C449 N446 1.350 . S
C449 C448 1.434 . S
C450 C451 1.369 . S
C450 C452 1.419 . S
C450 H454 0.930 . S
C451 C450 1.369 . S
C451 C460 1.429 . S
C452 C450 1.419 . S
C452 C453 1.363 . S
C452 H455 0.929 . S
C453 C452 1.363 . S
C453 C459 1.428 . S
H454 C450 0.930 . S
H455 C452 0.929 . S
S456 N457 1.613 . S
S456 N458 1.610 . S
N457 S456 1.613 . S
N457 C460 1.350 . S
N458 S456 1.610 . S
N458 C459 1.351 . S
C459 C453 1.428 . S
C459 N458 1.351 . S
C459 C460 1.434 . S
C460 C451 1.429 . S
C460 N457 1.350 . S
C460 C459 1.434 . S
C461 C462 1.369 . S
C461 C463 1.419 . S
C461 H465 0.930 . S
C462 C461 1.369 . S
C462 C471 1.429 . S
C463 C461 1.419 . S
C463 C464 1.363 . S
C463 H466 0.929 . S
C464 C463 1.363 . S
C464 C470 1.428 . S
H465 C461 0.930 . S
H466 C463 0.929 . S
S467 N468 1.613 . S
S467 N469 1.610 . S
N468 S467 1.613 . S
N468 C471 1.350 . S
N469 S467 1.610 . S
N469 C470 1.351 . S
C470 C464 1.428 . S
C470 N469 1.351 . S
C470 C471 1.434 . S
C471 C462 1.429 . S
C471 N468 1.350 . S
C471 C470 1.434 . S
C472 C473 1.369 . S
C472 C474 1.419 . S
C472 H476 0.930 . S
C473 C472 1.369 . S
C473 C482 1.429 . S
C474 C472 1.419 . S
C474 C475 1.363 . S
C474 H477 0.929 . S
C475 C474 1.363 . S
C475 C481 1.428 . S
H476 C472 0.930 . S
H477 C474 0.929 . S
S478 N479 1.613 . S
S478 N480 1.610 . S
N479 S478 1.613 . S
N479 C482 1.350 . S
N480 S478 1.610 . S
N480 C481 1.351 . S
C481 C475 1.428 . S
C481 N480 1.351 . S
C481 C482 1.434 . S
C482 C473 1.429 . S
C482 N479 1.350 . S
C482 C481 1.434 . S
C483 C484 1.369 . S
C483 C485 1.419 . S
C483 H487 0.930 . S
C484 C483 1.369 . S
C484 C493 1.429 . S
C485 C483 1.419 . S
C485 C486 1.363 . S
C485 H488 0.929 . S
C486 C485 1.363 . S
C486 C492 1.428 . S
H487 C483 0.930 . S
H488 C485 0.929 . S
S489 N490 1.613 . S
S489 N491 1.610 . S
N490 S489 1.613 . S
N490 C493 1.350 . S
N491 S489 1.610 . S
N491 C492 1.351 . S
C492 C486 1.428 . S
C492 N491 1.351 . S
C492 C493 1.434 . S
C493 C484 1.429 . S
C493 N490 1.350 . S
C493 C492 1.434 . S
C494 C495 1.369 . S
C494 C496 1.419 . S
C494 H498 0.930 . S
C495 C494 1.369 . S
C495 C504 1.429 . S
C496 C494 1.419 . S
C496 C497 1.363 . S
C496 H499 0.929 . S
C497 C496 1.363 . S
C497 C503 1.428 . S
H498 C494 0.930 . S
H499 C496 0.929 . S
S500 N501 1.613 . S
S500 N502 1.610 . S
N501 S500 1.613 . S
N501 C504 1.350 . S
N502 S500 1.610 . S
N502 C503 1.351 . S
C503 C497 1.428 . S
C503 N502 1.351 . S
C503 C504 1.434 . S
C504 C495 1.429 . S
C504 N501 1.350 . S
C504 C503 1.434 . S
C505 C506 1.369 . S
C505 C507 1.419 . S
C505 H509 0.930 . S
C506 C505 1.369 . S
C506 C515 1.429 . S
C507 C505 1.419 . S
C507 C508 1.363 . S
C507 H510 0.929 . S
C508 C507 1.363 . S
C508 C514 1.428 . S
H509 C505 0.930 . S
H510 C507 0.929 . S
S511 N512 1.613 . S
S511 N513 1.610 . S
N512 S511 1.613 . S
N512 C515 1.350 . S
N513 S511 1.610 . S
N513 C514 1.351 . S
C514 C508 1.428 . S
C514 N513 1.351 . S
C514 C515 1.434 . S
C515 C506 1.429 . S
C515 N512 1.350 . S
C515 C514 1.434 . S
C516 C517 1.369 . S
C516 C518 1.419 . S
C516 H520 0.930 . S
C517 C516 1.369 . S
C517 C526 1.429 . S
C518 C516 1.419 . S
C518 C519 1.363 . S
C518 H521 0.929 . S
C519 C518 1.363 . S
C519 C525 1.428 . S
H520 C516 0.930 . S
H521 C518 0.929 . S
S522 N523 1.613 . S
S522 N524 1.610 . S
N523 S522 1.613 . S
N523 C526 1.350 . S
N524 S522 1.610 . S
N524 C525 1.351 . S
C525 C519 1.428 . S
C525 N524 1.351 . S
C525 C526 1.434 . S
C526 C517 1.429 . S
C526 N523 1.350 . S
C526 C525 1.434 . S
C527 C528 1.369 . S
C527 C529 1.419 . S
C527 H531 0.930 . S
C528 C527 1.369 . S
C528 C537 1.429 . S
C529 C527 1.419 . S
C529 C530 1.363 . S
C529 H532 0.929 . S
C530 C529 1.363 . S
C530 C536 1.428 . S
H531 C527 0.930 . S
H532 C529 0.929 . S
S533 N534 1.613 . S
S533 N535 1.610 . S
N534 S533 1.613 . S
N534 C537 1.350 . S
N535 S533 1.610 . S
N535 C536 1.351 . S
C536 C530 1.428 . S
C536 N535 1.351 . S
C536 C537 1.434 . S
C537 C528 1.429 . S
C537 N534 1.350 . S
C537 C536 1.434 . S
C538 C539 1.369 . S
C538 C540 1.419 . S
C538 H542 0.930 . S
C539 C538 1.369 . S
C539 C548 1.429 . S
C540 C538 1.419 . S
C540 C541 1.363 . S
C540 H543 0.929 . S
C541 C540 1.363 . S
C541 C547 1.428 . S
H542 C538 0.930 . S
H543 C540 0.929 . S
S544 N545 1.613 . S
S544 N546 1.610 . S
N545 S544 1.613 . S
N545 C548 1.350 . S
N546 S544 1.610 . S
N546 C547 1.351 . S
C547 C541 1.428 . S
C547 N546 1.351 . S
C547 C548 1.434 . S
C548 C539 1.429 . S
C548 N545 1.350 . S
C548 C547 1.434 . S
C549 C550 1.369 . S
C549 C551 1.419 . S
C549 H553 0.930 . S
C550 C549 1.369 . S
C550 C559 1.429 . S
C551 C549 1.419 . S
C551 C552 1.363 . S
C551 H554 0.929 . S
C552 C551 1.363 . S
C552 C558 1.428 . S
H553 C549 0.930 . S
H554 C551 0.929 . S
S555 N556 1.613 . S
S555 N557 1.610 . S
N556 S555 1.613 . S
N556 C559 1.350 . S
N557 S555 1.610 . S
N557 C558 1.351 . S
C558 C552 1.428 . S
C558 N557 1.351 . S
C558 C559 1.434 . S
C559 C550 1.429 . S
C559 N556 1.350 . S
C559 C558 1.434 . S
C560 C561 1.369 . S
C560 C562 1.419 . S
C560 H564 0.930 . S
C561 C560 1.369 . S
C561 C570 1.429 . S
C562 C560 1.419 . S
C562 C563 1.363 . S
C562 H565 0.929 . S
C563 C562 1.363 . S
C563 C569 1.428 . S
H564 C560 0.930 . S
H565 C562 0.929 . S
S566 N567 1.613 . S
S566 N568 1.610 . S
N567 S566 1.613 . S
N567 C570 1.350 . S
N568 S566 1.610 . S
N568 C569 1.351 . S
C569 C563 1.428 . S
C569 N568 1.351 . S
C569 C570 1.434 . S
C570 C561 1.429 . S
C570 N567 1.350 . S
C570 C569 1.434 . S
C571 C572 1.369 . S
C571 C573 1.419 . S
C571 H575 0.930 . S
C572 C571 1.369 . S
C572 C581 1.429 . S
C573 C571 1.419 . S
C573 C574 1.363 . S
C573 H576 0.929 . S
C574 C573 1.363 . S
C574 C580 1.428 . S
H575 C571 0.930 . S
H576 C573 0.929 . S
S577 N578 1.613 . S
S577 N579 1.610 . S
N578 S577 1.613 . S
N578 C581 1.350 . S
N579 S577 1.610 . S
N579 C580 1.351 . S
C580 C574 1.428 . S
C580 N579 1.351 . S
C580 C581 1.434 . S
C581 C572 1.429 . S
C581 N578 1.350 . S
C581 C580 1.434 . S
C582 C583 1.369 . S
C582 C584 1.419 1_556 S
C582 H586 0.930 . S
C583 C582 1.369 . S
C583 C592 1.429 . S
C584 C582 1.419 1_554 S
C584 C585 1.363 . S
C584 H587 0.929 . S
C585 C584 1.363 . S
C585 C591 1.428 . S
H586 C582 0.930 . S
H587 C584 0.929 . S
S588 N589 1.613 . S
S588 N590 1.610 1_556 S
N589 S588 1.613 . S
N589 C592 1.350 . S
N590 S588 1.610 1_554 S
N590 C591 1.351 . S
C591 C585 1.428 . S
C591 N590 1.351 . S
C591 C592 1.434 1_554 S
C592 C583 1.429 . S
C592 N589 1.350 . S
C592 C591 1.434 1_556 S
C593 C594 1.369 . S
C593 C595 1.419 1_455 S
C593 H597 0.930 . S
C594 C593 1.369 . S
C594 C603 1.429 . S
C595 C593 1.419 1_655 S
C595 C596 1.363 . S
C595 H598 0.929 . S
C596 C595 1.363 . S
C596 C602 1.428 . S
H597 C593 0.930 . S
H598 C595 0.929 . S
S599 N600 1.613 . S
S599 N601 1.610 1_455 S
N600 S599 1.613 . S
N600 C603 1.350 . S
N601 S599 1.610 1_655 S
N601 C602 1.351 . S
C602 C596 1.428 . S
C602 N601 1.351 . S
C602 C603 1.434 1_655 S
C603 C594 1.429 . S
C603 N600 1.350 . S
C603 C602 1.434 1_455 S
C604 C605 1.369 1_545 S
C604 C606 1.419 1_554 S
C604 H608 0.930 . S
C605 C604 1.369 1_565 S
C605 C614 1.429 . S
C606 C604 1.419 1_556 S
C606 C607 1.363 . S
C606 H609 0.929 . S
C607 C606 1.363 . S
C607 C613 1.428 1_545 S
H608 C604 0.930 . S
H609 C606 0.929 . S
S610 N611 1.613 1_556 S
S610 N612 1.610 . S
N611 S610 1.613 1_554 S
N611 C614 1.350 . S
N612 S610 1.610 . S
N612 C613 1.351 . S
C613 C607 1.428 1_565 S
C613 N612 1.351 . S
C613 C614 1.434 1_556 S
C614 C605 1.429 . S
C614 N611 1.350 . S
C614 C613 1.434 1_554 S
C615 C616 1.369 . S
C615 C617 1.419 . S
C615 H619 0.930 . S
C616 C615 1.369 . S
C616 C625 1.429 . S
C617 C615 1.419 . S
C617 C618 1.363 . S
C617 H620 0.929 . S
C618 C617 1.363 . S
C618 C624 1.428 . S
H619 C615 0.930 . S
H620 C617 0.929 . S
S621 N622 1.613 . S
S621 N623 1.610 . S
N622 S621 1.613 . S
N622 C625 1.350 . S
N623 S621 1.610 . S
N623 C624 1.351 . S
C624 C618 1.428 . S
C624 N623 1.351 . S
C624 C625 1.434 . S
C625 C616 1.429 . S
C625 N622 1.350 . S
C625 C624 1.434 . S
C626 C627 1.369 1_455 S
C626 C628 1.419 1_556 S
C626 H630 0.930 . S
C627 C626 1.369 1_655 S
C627 C636 1.429 . S
C628 C626 1.419 1_554 S
C628 C629 1.363 . S
C628 H631 0.929 . S
C629 C628 1.363 . S
C629 C635 1.428 1_455 S
H630 C626 0.930 . S
H631 C628 0.929 . S
S632 N633 1.613 1_554 S
S632 N634 1.610 . S
N633 S632 1.613 1_556 S
N633 C636 1.350 . S
N634 S632 1.610 . S
N634 C635 1.351 . S
C635 C629 1.428 1_655 S
C635 N634 1.351 . S
C635 C636 1.434 1_554 S
C636 C627 1.429 . S
C636 N633 1.350 . S
C636 C635 1.434 1_556 S
C637 C638 1.369 . S
C637 C639 1.419 1_565 S
C637 H641 0.930 . S
C638 C637 1.369 . S
C638 C647 1.429 . S
C639 C637 1.419 1_545 S
C639 C640 1.363 . S
C639 H642 0.929 . S
C640 C639 1.363 . S
C640 C646 1.428 . S
H641 C637 0.930 . S
H642 C639 0.929 . S
S643 N644 1.613 1_545 S
S643 N645 1.610 . S
N644 S643 1.613 1_565 S
N644 C647 1.350 . S
N645 S643 1.610 . S
N645 C646 1.351 . S
C646 C640 1.428 . S
C646 N645 1.351 . S
C646 C647 1.434 1_545 S
C647 C638 1.429 . S
C647 N644 1.350 . S
C647 C646 1.434 1_565 S
C253 C91 1.008 1_545 S
C255 C19 0.984 . S
C264 C112 1.008 . S
C266 C41 0.985 . S
C275 C61 0.991 . S
C277 C7 1.013 1_655 S
C286 C82 0.986 . S
C288 C25 1.010 1_565 S
C297 C103 0.979 . S
C299 C49 1.007 . S
C308 C70 1.004 1_455 S
C310 C124 0.979 . S
C319 C175 1.020 1_655 S
C321 C146 0.992 . S
C330 C166 0.985 . S
C332 C196 1.009 1_565 S
C341 C217 1.021 . S
C343 C187 0.994 . S
C352 C208 0.974 . S
C354 C238 1.002 1_455 S
C363 C229 0.975 . S
C365 C130 1.004 1_545 S
C374 C154 1.010 . S
C376 C250 0.983 . S
C385 C88 0.969 . S
C387 C3 1.228 . S
C396 C37 1.226 . S
C398 C109 0.970 . S
C407 C45 1.242 . S
C409 C4 0.976 . S
C418 C66 1.242 . S
C420 C28 0.981 . S
C429 C46 0.976 . S
C431 C87 1.240 . S
C440 C67 0.961 . S
C442 C108 1.229 . S
C451 C172 0.977 . S
C453 C142 1.229 . S
C462 C150 1.236 . S
C464 C193 0.984 . S
C473 C171 1.226 . S
C475 C214 0.969 . S
C484 C235 0.960 . S
C486 C192 1.232 . S
C495 C213 1.228 . S
C497 C133 0.964 . S
C506 C151 0.985 . S
C508 C234 1.233 . S
C517 C226 1.433 . S
C519 C16 1.435 . S
C528 C24 1.421 . S
C530 C247 1.424 . S
C539 C58 1.428 . S
C541 C129 1.423 . S
C550 C79 1.437 . S
C552 C163 1.433 . S
C561 C100 1.422 . S
C563 C184 1.429 . S
C572 C205 1.421 . S
C574 C121 1.428 . S
C583 C209 1.407 . S
C585 C20 1.404 . S
C594 C230 1.407 . S
C596 C40 1.404 . S
C605 C62 1.396 . S
C607 C251 1.402 . S
C616 C83 1.396 . S
C618 C145 1.400 . S
C627 C167 1.402 . S
C629 C104 1.406 . S
C638 C188 1.407 . S
C640 C125 1.404 . S
