# Generated by pormake.
# Topology wka, (5)-cn, num edge types: 1
# Building blocks:
#     Node 0, Type 0, BuildingBlock: XOMCOT_clean_sbu_1, # of connection points: 5
#     Node 1, Type 0, BuildingBlock: XOMCOT_clean_sbu_1, # of connection points: 5
#     Node 2, Type 0, BuildingBlock: XOMCOT_clean_sbu_1, # of connection points: 5
#     Node 3, Type 0, BuildingBlock: XOMCOT_clean_sbu_1, # of connection points: 5
#     Node 4, Type 0, BuildingBlock: XOMCOT_clean_sbu_1, # of connection points: 5
#     Node 5, Type 0, BuildingBlock: XOMCOT_clean_sbu_1, # of connection points: 5
#     Node 6, Type 0, BuildingBlock: XOMCOT_clean_sbu_1, # of connection points: 5
#     Node 7, Type 0, BuildingBlock: XOMCOT_clean_sbu_1, # of connection points: 5
#     Node 8, Type 0, BuildingBlock: XOMCOT_clean_sbu_1, # of connection points: 5
#     Node 9, Type 0, BuildingBlock: XOMCOT_clean_sbu_1, # of connection points: 5
#     Node 10, Type 0, BuildingBlock: XOMCOT_clean_sbu_1, # of connection points: 5
#     Node 11, Type 0, BuildingBlock: XOMCOT_clean_sbu_1, # of connection points: 5
#     Edge 12, Type (0, 0), BuildingBlock: AJUNOK_clean_linker_0, # of connection points: 2
#     Edge 13, Type (0, 0), BuildingBlock: AJUNOK_clean_linker_0, # of connection points: 2
#     Edge 14, Type (0, 0), BuildingBlock: AJUNOK_clean_linker_0, # of connection points: 2
#     Edge 15, Type (0, 0), BuildingBlock: AJUNOK_clean_linker_0, # of connection points: 2
#     Edge 16, Type (0, 0), BuildingBlock: AJUNOK_clean_linker_0, # of connection points: 2
#     Edge 17, Type (0, 0), BuildingBlock: AJUNOK_clean_linker_0, # of connection points: 2
#     Edge 18, Type (0, 0), BuildingBlock: AJUNOK_clean_linker_0, # of connection points: 2
#     Edge 19, Type (0, 0), BuildingBlock: AJUNOK_clean_linker_0, # of connection points: 2
#     Edge 20, Type (0, 0), BuildingBlock: AJUNOK_clean_linker_0, # of connection points: 2
#     Edge 21, Type (0, 0), BuildingBlock: AJUNOK_clean_linker_0, # of connection points: 2
#     Edge 22, Type (0, 0), BuildingBlock: AJUNOK_clean_linker_0, # of connection points: 2
#     Edge 23, Type (0, 0), BuildingBlock: AJUNOK_clean_linker_0, # of connection points: 2
#     Edge 24, Type (0, 0), BuildingBlock: AJUNOK_clean_linker_0, # of connection points: 2
#     Edge 25, Type (0, 0), BuildingBlock: AJUNOK_clean_linker_0, # of connection points: 2
#     Edge 26, Type (0, 0), BuildingBlock: AJUNOK_clean_linker_0, # of connection points: 2
#     Edge 27, Type (0, 0), BuildingBlock: AJUNOK_clean_linker_0, # of connection points: 2
#     Edge 28, Type (0, 0), BuildingBlock: AJUNOK_clean_linker_0, # of connection points: 2
#     Edge 29, Type (0, 0), BuildingBlock: AJUNOK_clean_linker_0, # of connection points: 2
#     Edge 30, Type (0, 0), BuildingBlock: AJUNOK_clean_linker_0, # of connection points: 2
#     Edge 31, Type (0, 0), BuildingBlock: AJUNOK_clean_linker_0, # of connection points: 2
#     Edge 32, Type (0, 0), BuildingBlock: AJUNOK_clean_linker_0, # of connection points: 2
#     Edge 33, Type (0, 0), BuildingBlock: AJUNOK_clean_linker_0, # of connection points: 2
#     Edge 34, Type (0, 0), BuildingBlock: AJUNOK_clean_linker_0, # of connection points: 2
#     Edge 35, Type (0, 0), BuildingBlock: AJUNOK_clean_linker_0, # of connection points: 2
#     Edge 36, Type (0, 0), BuildingBlock: AJUNOK_clean_linker_0, # of connection points: 2
#     Edge 37, Type (0, 0), BuildingBlock: AJUNOK_clean_linker_0, # of connection points: 2
#     Edge 38, Type (0, 0), BuildingBlock: AJUNOK_clean_linker_0, # of connection points: 2
#     Edge 39, Type (0, 0), BuildingBlock: AJUNOK_clean_linker_0, # of connection points: 2
#     Edge 40, Type (0, 0), BuildingBlock: AJUNOK_clean_linker_0, # of connection points: 2
#     Edge 41, Type (0, 0), BuildingBlock: AJUNOK_clean_linker_0, # of connection points: 2
# Relax obj value: 0.241
# Max RMSD: 0.188
# Mean RMSD: 0.188
data_MOF--net-wka--node1-XOMCOT_clean_sbu_1--edge1-AJUNOK_clean_linker_0
_symmetry_space_group_name_H-M    P1
_symmetry_Int_Tables_number       1
_symmetry_cell_setting            triclinic
loop_
_symmetry_equiv_pos_as_xyz
'x, y, z'
_cell_length_a     50.029225
_cell_length_b     50.010504
_cell_length_c     13.145573
_cell_angle_alpha  89.826279
_cell_angle_beta   89.892152
_cell_angle_gamma 120.07745
loop_
_atom_site_label
_atom_site_type_symbol
_atom_site_fract_x
_atom_site_fract_y
_atom_site_fract_z
_atom_type_partial_charge
C0 C 0.1727 0.43627 0.93768 0.0
C1 C 0.17539 0.43799 0.83295 0.0
N2 N 0.14813 0.43212 0.79402 0.0
N3 N 0.14362 0.4286 0.96403 0.0
C4 C 0.12945 0.42667 0.87454 0.0
H5 H 0.19019 0.43832 0.99036 0.0
Co6 Co 0.12409 0.41501 0.09047 0.0
C7 C 0.05889 0.3687 0.02253 0.0
O8 O 0.04645 0.3747 0.10102 0.0
N9 N 0.1047 0.4008 0.21792 0.0
C10 C 0.08724 0.36916 0.35191 0.0
C11 C 0.08866 0.37087 0.24739 0.0
C12 C 0.11269 0.41677 0.30628 0.0
N13 N 0.10243 0.39809 0.3886 0.0
O14 O 0.143 0.38919 0.10912 0.0
H15 H 0.08146 0.35143 0.1969 0.0
H16 H 0.12908 0.4412 0.31132 0.0
O17 O 0.08833 0.38189 0.01605 0.0
C18 C 0.16532 0.40302 0.17218 0.0
O19 O 0.17227 0.43069 0.20326 0.0
N20 N 0.10939 0.4434 0.08047 0.0
C21 C 0.09825 0.49296 0.08942 0.0
C22 C 0.07942 0.46686 0.03057 0.0
C23 C 0.08537 0.44225 0.02691 0.0
C24 C 0.12884 0.46951 0.13277 0.0
C25 C 0.1234 0.4942 0.14008 0.0
H26 H 0.07108 0.42309 0.97846 0.0
H27 H 0.14906 0.47128 0.16877 0.0
H28 H 0.10509 0.41864 0.86717 0.0
H29 H 0.19521 0.44158 0.78876 0.0
H30 H 0.0782 0.34831 0.39746 0.0
H31 H 0.06035 0.46554 0.98754 0.0
H32 H 0.13924 0.51449 0.18292 0.0
C33 C 0.72476 0.15583 0.15278 0.0
C34 C 0.72751 0.15937 0.04844 0.0
N35 N 0.73281 0.13745 0.01016 0.0
N36 N 0.72794 0.13156 0.17963 0.0
C37 C 0.73352 0.12142 0.09152 0.0
H38 H 0.71863 0.16864 0.20477 0.0
Co39 Co 0.71936 0.11164 0.30542 0.0
C40 C 0.6877 0.04609 0.22684 0.0
O41 O 0.66468 0.03802 0.29091 0.0
N42 N 0.71183 0.09221 0.43312 0.0
C43 C 0.7105 0.06426 0.56762 0.0
C44 C 0.70991 0.06536 0.46289 0.0
C45 C 0.71459 0.10724 0.52101 0.0
N46 N 0.71353 0.09078 0.60345 0.0
O47 O 0.7632 0.12614 0.32526 0.0
H48 H 0.71037 0.04853 0.41291 0.0
H49 H 0.71988 0.13099 0.52484 0.0
O50 O 0.71154 0.07314 0.23331 0.0
C51 C 0.7749 0.15286 0.36655 0.0
O52 O 0.75725 0.16518 0.37744 0.0
N53 N 0.67721 0.10154 0.2926 0.0
C54 C 0.61907 0.09703 0.28117 0.0
C55 C 0.62938 0.0853 0.20311 0.0
C56 C 0.65893 0.08854 0.20901 0.0
C57 C 0.66761 0.11394 0.36663 0.0
C58 C 0.63859 0.11137 0.36365 0.0
H59 H 0.66748 0.08169 0.14463 0.0
H60 H 0.68302 0.12763 0.42605 0.0
H61 H 0.73543 0.10095 0.08555 0.0
H62 H 0.72408 0.17565 1.00395 0.0
H63 H 0.71 0.04598 0.61342 0.0
H64 H 0.61539 0.0751 0.1361 0.0
H65 H 0.6319 0.12157 0.424 0.0
C66 C 0.60405 0.7509 0.2743 0.0
C67 C 0.60227 0.75233 0.16984 0.0
N68 N 0.60798 0.73101 0.12931 0.0
N69 N 0.61142 0.72915 0.29908 0.0
C70 C 0.61309 0.71717 0.20872 0.0
H71 H 0.60183 0.76605 0.32771 0.0
Co72 Co 0.62357 0.72125 0.4255 0.0
C73 C 0.66637 0.6978 0.35499 0.0
O74 O 0.65845 0.67846 0.43209 0.0
N75 N 0.63624 0.71416 0.55279 0.0
C76 C 0.66755 0.72555 0.68601 0.0
C77 C 0.66583 0.72498 0.58151 0.0
C78 C 0.62052 0.7085 0.64167 0.0
N79 N 0.63901 0.71535 0.72341 0.0
O80 O 0.65123 0.76564 0.4481 0.0
H81 H 0.68547 0.7352 0.53049 0.0
H82 H 0.59688 0.70341 0.64722 0.0
O83 O 0.65556 0.71623 0.35035 0.0
C84 C 0.63507 0.77302 0.50503 0.0
O85 O 0.60595 0.75213 0.52016 0.0
N86 N 0.59307 0.67892 0.41361 0.0
C87 C 0.53875 0.62112 0.41531 0.0
C88 C 0.56469 0.62581 0.35911 0.0
C89 C 0.59165 0.65506 0.35837 0.0
C90 C 0.5678 0.67456 0.46683 0.0
C91 C 0.54093 0.6459 0.47115 0.0
H92 H 0.61045 0.65836 0.3101 0.0
H93 H 0.56822 0.69379 0.50515 0.0
H94 H 0.62024 0.70019 0.19999 0.0
H95 H 0.59852 0.76867 0.12693 0.0
H96 H 0.68847 0.73536 0.73084 0.0
H97 H 0.56377 0.6074 0.31333 0.0
H98 H 0.52174 0.6434 0.51667 0.0
C99 C 0.8727 0.59147 0.44445 0.0
C100 C 0.87081 0.58974 0.3398 0.0
N101 N 0.89881 0.59721 0.30306 0.0
N102 N 0.90192 0.60034 0.47318 0.0
C103 C 0.91694 0.6031 0.38479 0.0
H104 H 0.85395 0.58735 0.49479 0.0
Co105 Co 0.92149 0.61047 0.60052 0.0
C106 C 0.98337 0.66993 0.53672 0.0
O107 O 0.99355 0.68332 0.62513 0.0
N108 N 0.94147 0.62028 0.72659 0.0
C109 C 0.97302 0.62856 0.85749 0.0
C110 C 0.97041 0.62728 0.75265 0.0
C111 C 0.9271 0.61692 0.81621 0.0
N112 N 0.94561 0.62236 0.89641 0.0
O113 O 0.90272 0.63612 0.63291 0.0
H114 H 0.9881 0.62996 0.69936 0.0
H115 H 0.90288 0.60836 0.82423 0.0
O116 O 0.95787 0.64433 0.53112 0.0
C117 C 0.8764 0.61799 0.67475 0.0
O118 O 0.86716 0.58832 0.67733 0.0
N119 N 0.93528 0.58242 0.57861 0.0
C120 C 0.94377 0.53135 0.56738 0.0
C121 C 0.96524 0.55976 0.52225 0.0
C122 C 0.96072 0.58531 0.52957 0.0
C123 C 0.91472 0.55531 0.62397 0.0
C124 C 0.91861 0.52972 0.62013 0.0
H125 H 0.9773 0.60701 0.49487 0.0
H126 H 0.89501 0.55363 0.6638 0.0
H127 H 0.94131 0.61091 0.37929 0.0
H128 H 0.85066 0.58413 0.29434 0.0
H129 H 0.99306 0.63287 0.90144 0.0
H130 H 0.98486 0.56204 0.47987 0.0
H131 H 0.90178 0.50862 0.65793 0.0
C132 C 0.33104 0.8751 0.62048 0.0
C133 C 0.32962 0.87223 0.51642 0.0
N134 N 0.31429 0.88593 0.47901 0.0
N135 N 0.31736 0.89124 0.64883 0.0
C136 C 0.30651 0.89653 0.56177 0.0
H137 H 0.34366 0.8683 0.67082 0.0
Co138 Co 0.32069 0.91029 0.77337 0.0
C139 C 0.32089 0.96718 0.67558 0.0
O140 O 0.29726 0.96574 0.72427 0.0
N141 N 0.32404 0.92884 0.8972 0.0
C142 C 0.34076 0.95797 0.03542 0.0
C143 C 0.34133 0.95814 0.93017 0.0
C144 C 0.31306 0.91159 0.98198 0.0
N145 N 0.32334 0.92844 0.06724 0.0
O146 O 0.27609 0.89337 0.77808 0.0
H147 H 0.35519 0.97789 0.88169 0.0
H148 H 0.29903 0.88675 0.98104 0.0
O149 O 0.32939 0.94758 0.69621 0.0
C150 C 0.26449 0.86533 0.80869 0.0
O151 O 0.2829 0.85381 0.81749 0.0
N152 N 0.36299 0.92313 0.77845 0.0
C153 C 0.42174 0.92993 0.79325 0.0
C154 C 0.41648 0.94926 0.72874 0.0
C155 C 0.38675 0.94545 0.7222 0.0
C156 C 0.36818 0.90526 0.84484 0.0
C157 C 0.39733 0.90839 0.85393 0.0
H158 H 0.38286 0.95976 0.66989 0.0
H159 H 0.34914 0.88758 0.8885 0.0
H160 H 0.29493 0.90985 0.55878 0.0
H161 H 0.34175 0.86341 0.47227 0.0
H162 H 0.35381 0.97766 0.08446 0.0
H163 H 0.43482 0.96622 0.68077 0.0
H164 H 0.40053 0.89338 0.90592 0.0
C165 C 0.45752 0.30697 0.78263 0.0
C166 C 0.45813 0.30395 0.67842 0.0
N167 N 0.43111 0.29926 0.6401 0.0
N168 N 0.43039 0.30453 0.80948 0.0
C169 C 0.41466 0.29909 0.72149 0.0
H170 H 0.47641 0.31276 0.83442 0.0
Co171 Co 0.41933 0.31355 0.93514 0.0
C172 C 0.38521 0.34437 0.84777 0.0
O173 O 0.40225 0.3696 0.90032 0.0
N174 N 0.40769 0.32134 0.06222 0.0
C175 C 0.38332 0.32591 0.19741 0.0
C176 C 0.38492 0.32667 0.09254 0.0
C177 C 0.41889 0.31671 0.14963 0.0
N178 N 0.40485 0.31967 0.23247 0.0
O179 O 0.39036 0.26956 0.95846 0.0
H180 H 0.36919 0.32924 0.04295 0.0
H181 H 0.4363 0.30995 0.15255 0.0
O182 O 0.3878 0.3204 0.86313 0.0
C183 C 0.40544 0.25747 0.99699 0.0
O184 O 0.43558 0.27472 1.00414 0.0
N185 N 0.45107 0.35602 0.9195 0.0
C186 C 0.5031 0.4156 0.90559 0.0
C187 C 0.48297 0.40265 0.82283 0.0
C188 C 0.45746 0.37256 0.83074 0.0
C189 C 0.47142 0.36806 0.9983 0.0
C190 C 0.49692 0.39778 0.99391 0.0
H191 H 0.44333 0.36222 0.76459 0.0
H192 H 0.46917 0.35433 0.06403 0.0
H193 H 0.39258 0.2978 0.7155 0.0
H194 H 0.47763 0.30679 0.63402 0.0
H195 H 0.36716 0.32893 0.24394 0.0
H196 H 0.48763 0.41507 0.75138 0.0
H197 H 0.51229 0.4064 0.05866 0.0
C198 C 0.58285 0.87238 0.91547 0.0
C199 C 0.58263 0.86872 0.01964 0.0
N200 N 0.61104 0.88878 0.05462 0.0
N201 N 0.61117 0.89492 0.88632 0.0
C202 C 0.62795 0.90369 0.97236 0.0
H203 H 0.56312 0.86117 0.86549 0.0
Co204 Co 0.62355 0.91463 0.76099 0.0
C205 C 0.65715 0.98005 0.83874 0.0
O206 O 0.64253 0.98782 0.77257 0.0
N207 N 0.63652 0.93329 0.63372 0.0
C208 C 0.66393 0.95881 0.49736 0.0
C209 C 0.66142 0.95976 0.60163 0.0
C210 C 0.62514 0.91645 0.54854 0.0
N211 N 0.64114 0.93126 0.46451 0.0
O212 O 0.65238 0.89943 0.74498 0.0
H213 H 0.6781 0.97771 0.65025 0.0
H214 H 0.6057 0.89322 0.54916 0.0
O215 O 0.65415 0.95306 0.83385 0.0
C216 C 0.63652 0.872 0.70971 0.0
O217 O 0.60647 0.85992 0.70223 0.0
N218 N 0.59205 0.92581 0.77053 0.0
C219 C 0.539 0.93133 0.783 0.0
C220 C 0.55981 0.94051 0.86426 0.0
C221 C 0.58591 0.93698 0.85725 0.0
C222 C 0.57156 0.91661 0.69188 0.0
C223 C 0.54547 0.91975 0.69563 0.0
H224 H 0.60039 0.94193 0.92335 0.0
H225 H 0.57398 0.90498 0.62736 0.0
H226 H 0.65173 0.92214 0.9765 0.0
H227 H 0.56263 0.85444 0.06664 0.0
H228 H 0.68199 0.97639 0.45019 0.0
H229 H 0.55515 0.9488 0.93431 0.0
H230 H 0.52969 0.91192 0.63181 0.0
C231 C 0.71445 0.56846 0.05525 0.0
C232 C 0.71482 0.56638 0.15986 0.0
N233 N 0.72591 0.59492 0.1984 0.0
N234 N 0.72472 0.59812 0.0283 0.0
C235 C 0.73279 0.61373 0.11716 0.0
H236 H 0.70543 0.54923 1.0032 0.0
Co237 Co 0.72142 0.61404 0.90253 0.0
C238 C 0.70503 0.66363 0.97839 0.0
O239 O 0.6943 0.66833 0.89322 0.0
N240 N 0.71882 0.63015 0.77613 0.0
C241 C 0.73396 0.6619 0.64241 0.0
C242 C 0.73353 0.66012 0.74712 0.0
C243 C 0.71084 0.6143 0.68774 0.0
N244 N 0.71976 0.63295 0.6053 0.0
O245 O 0.76628 0.64013 0.8966 0.0
H246 H 0.74591 0.67941 0.79804 0.0
H247 H 0.7022 0.58978 0.68308 0.0
O248 O 0.71508 0.64457 0.98017 0.0
C249 C 0.77548 0.62634 0.83576 0.0
O250 O 0.75469 0.5998 0.79718 0.0
N251 N 0.67857 0.58527 0.90099 0.0
C252 C 0.61927 0.5333 0.89282 0.0
C253 C 0.62432 0.56046 0.94142 0.0
C254 C 0.65434 0.58629 0.94527 0.0
C255 C 0.67373 0.55914 0.85283 0.0
C256 C 0.64446 0.53314 0.84715 0.0
H257 H 0.65789 0.60635 0.98671 0.0
H258 H 0.69316 0.55806 0.82155 0.0
H259 H 0.74143 0.63827 0.1234 0.0
H260 H 0.70621 0.54535 0.20412 0.0
H261 H 0.74579 0.68281 0.59723 0.0
H262 H 0.60555 0.56128 0.97964 0.0
H263 H 0.64171 0.5127 0.80935 0.0
C264 C 0.17039 0.74309 0.24598 0.0
C265 C 0.17224 0.74299 0.35069 0.0
N266 N 0.14681 0.7179 0.38665 0.0
N267 N 0.14346 0.71854 0.21616 0.0
C268 C 0.13008 0.70336 0.30383 0.0
H269 H 0.1864 0.76147 0.19644 0.0
Co270 Co 0.12305 0.71197 0.09055 0.0
C271 C 0.0586 0.69795 0.16867 0.0
O272 O 0.04327 0.68119 0.08992 0.0
N273 N 0.10295 0.70593 0.96457 0.0
C274 C 0.08334 0.71721 0.83031 0.0
C275 C 0.08585 0.7185 0.93452 0.0
C276 C 0.11105 0.69775 0.87657 0.0
N277 N 0.09956 0.7045 0.79347 0.0
O278 O 0.14266 0.75676 0.0658 0.0
H279 H 0.07851 0.73091 0.98369 0.0
H280 H 0.12822 0.69069 0.87269 0.0
O281 O 0.08809 0.71032 0.17082 0.0
C282 C 0.16512 0.76326 1.00435 0.0
O283 O 0.17188 0.74153 0.98561 0.0
N284 N 0.10784 0.66904 0.10338 0.0
C285 C 0.09718 0.6085 0.0999 0.0
C286 C 0.07589 0.61516 0.14631 0.0
C287 C 0.08155 0.64568 0.14679 0.0
C288 C 0.12888 0.66281 0.06013 0.0
C289 C 0.12389 0.63281 0.05636 0.0
H290 H 0.06514 0.65021 0.18443 0.0
H291 H 0.1499 0.68148 0.02799 0.0
H292 H 0.10695 0.68378 0.3083 0.0
H293 H 0.1896 0.76125 0.3972 0.0
H294 H 0.07267 0.72736 0.78477 0.0
H295 H 0.05506 0.59697 0.18152 0.0
H296 H 0.14113 0.62873 0.02125 0.0
C297 C 0.46134 0.1581 0.39754 0.0
C298 C 0.46348 0.16112 0.50204 0.0
N299 N 0.43588 0.14055 0.5418 0.0
N300 N 0.4326 0.13554 0.37298 0.0
C301 C 0.41751 0.12607 0.46242 0.0
H302 H 0.48015 0.16964 0.34374 0.0
Co303 Co 0.41955 0.11599 0.24844 0.0
C304 C 0.38168 0.04952 0.32422 0.0
O305 O 0.39548 0.04056 0.25875 0.0
N306 N 0.40661 0.09747 0.12118 0.0
C307 C 0.38085 0.0707 0.9848 0.0
C308 C 0.3815 0.07117 0.08961 0.0
C309 C 0.41975 0.11308 0.03445 0.0
N310 N 0.40505 0.09721 0.95088 0.0
O311 O 0.39134 0.13195 0.23262 0.0
H312 H 0.36352 0.05428 0.1382 0.0
H313 H 0.43908 0.13641 0.03216 0.0
O314 O 0.38775 0.07769 0.32173 0.0
C315 C 0.40624 0.15862 0.19025 0.0
O316 O 0.43612 0.1708 0.17631 0.0
N317 N 0.45027 0.10405 0.25738 0.0
C318 C 0.50307 0.09804 0.26477 0.0
C319 C 0.48002 0.08429 0.33964 0.0
C320 C 0.45411 0.08823 0.33599 0.0
C321 C 0.47315 0.1182 0.18639 0.0
C322 C 0.49923 0.11499 0.18732 0.0
H323 H 0.43796 0.0797 0.39866 0.0
H324 H 0.47241 0.13381 0.13176 0.0
H325 H 0.3941 0.10733 0.47094 0.0
H326 H 0.48422 0.17527 0.54544 0.0
H327 H 0.36303 0.05313 0.93757 0.0
H328 H 0.48275 0.07197 0.40299 0.0
H329 H 0.51692 0.12674 0.12976 0.0
C330 C 0.3144 0.45559 0.55681 0.0
C331 C 0.31112 0.45632 0.66089 0.0
N332 N 0.30805 0.43005 0.70083 0.0
N333 N 0.3137 0.42913 0.53178 0.0
C334 C 0.30943 0.4141 0.62086 0.0
H335 H 0.31866 0.47384 0.50351 0.0
Co336 Co 0.32184 0.41812 0.4049 0.0
C337 C 0.32159 0.36195 0.50263 0.0
O338 O 0.29232 0.34244 0.48421 0.0
N339 N 0.32944 0.40718 0.27802 0.0
C340 C 0.33972 0.38714 0.14286 0.0
C341 C 0.34055 0.38878 0.24783 0.0
C342 C 0.32224 0.41644 0.19128 0.0
N343 N 0.32831 0.40478 0.10856 0.0
O344 O 0.27833 0.38726 0.38911 0.0
H345 H 0.34853 0.37713 0.29812 0.0
H346 H 0.31237 0.43134 0.18845 0.0
O347 O 0.33353 0.39 0.4721 0.0
C348 C 0.26545 0.40185 0.35281 0.0
O349 O 0.28203 0.43206 0.34468 0.0
N350 N 0.36311 0.45078 0.41276 0.0
C351 C 0.4213 0.5044 0.4144 0.0
C352 C 0.41263 0.4821 0.4919 0.0
C353 C 0.38317 0.45549 0.49024 0.0
C354 C 0.37118 0.47253 0.33827 0.0
C355 C 0.40029 0.49887 0.33592 0.0
H356 H 0.37604 0.43945 0.55328 0.0
H357 H 0.35466 0.47006 0.28127 0.0
H358 H 0.30966 0.39289 0.62891 0.0
H359 H 0.31234 0.4753 0.704 0.0
H360 H 0.34708 0.37431 0.0956 0.0
H361 H 0.42795 0.48576 0.55504 0.0
H362 H 0.40597 0.51519 0.27397 0.0
C363 C 0.88502 0.32095 0.73004 0.0
C364 C 0.88154 0.31882 0.83399 0.0
N365 N 0.89517 0.30337 0.87126 0.0
N366 N 0.90149 0.30767 0.70164 0.0
C367 C 0.90641 0.29631 0.78831 0.0
H368 H 0.87846 0.33383 0.67975 0.0
Co369 Co 0.92056 0.31153 0.57676 0.0
C370 C 0.98135 0.31624 0.6592 0.0
O371 O 0.98619 0.30015 0.59037 0.0
N372 N 0.93893 0.31517 0.45171 0.0
C373 C 0.96732 0.3317 0.31096 0.0
C374 C 0.96794 0.33305 0.41605 0.0
C375 C 0.92137 0.30329 0.36848 0.0
N376 N 0.93779 0.31331 0.28182 0.0
O377 O 0.90401 0.26693 0.57204 0.0
H378 H 0.98773 0.34785 0.46239 0.0
H379 H 0.89656 0.28908 0.37148 0.0
O380 O 0.95787 0.31979 0.65139 0.0
C381 C 0.87562 0.25362 0.54515 0.0
O382 O 0.86233 0.27048 0.537 0.0
N383 N 0.93382 0.35414 0.57343 0.0
C384 C 0.94411 0.4145 0.55837 0.0
C385 C 0.95807 0.40629 0.63586 0.0
C386 C 0.95274 0.37595 0.6418 0.0
C387 C 0.92027 0.36179 0.49773 0.0
C388 C 0.92553 0.39179 0.48769 0.0
H389 H 0.96269 0.36978 0.70388 0.0
H390 H 0.90453 0.34423 0.44592 0.0
H391 H 0.91993 0.28494 0.79074 0.0
H392 H 0.87237 0.33061 0.87814 0.0
H393 H 0.98662 0.3449 0.26002 0.0
H394 H 0.97181 0.42267 0.69412 0.0
H395 H 0.91432 0.39689 0.4264 0.0
C396 C 0.09447 0.56373 1.00555 0.0
C397 C 0.09267 0.57676 0.09838 0.0
C398 C 0.09454 0.53568 1.00283 0.0
C399 C 0.09337 0.51993 0.093 0.0
H400 H 0.09667 0.57577 0.9346 0.0
H401 H 0.09697 0.52701 0.93002 0.0
S402 S 0.08663 0.54324 0.35513 0.0
N403 N 0.08803 0.57088 0.28215 0.0
N404 N 0.08863 0.51843 0.2772 0.0
C405 C 0.09048 0.53213 0.18599 0.0
C406 C 0.08995 0.56044 0.18865 0.0
C407 C 0.53289 0.06967 0.26822 0.0
C408 C 0.53253 0.09763 0.2714 0.0
C409 C 0.56099 0.06948 0.26854 0.0
C410 C 0.58952 0.09723 0.27376 0.0
H411 H 0.51138 0.0479 0.26395 0.0
H412 H 0.5604 0.04754 0.26639 0.0
S413 S 0.60097 0.17641 0.28438 0.0
N414 N 0.56311 0.15361 0.28046 0.0
N415 N 0.61558 0.15325 0.2814 0.0
C416 C 0.58933 0.12522 0.27728 0.0
C417 C 0.56093 0.12542 0.27611 0.0
C418 C 0.47935 0.53489 0.43263 0.0
C419 C 0.45117 0.53423 0.41707 0.0
C420 C 0.50773 0.56293 0.42995 0.0
C421 C 0.50888 0.5913 0.41248 0.0
H422 H 0.4795 0.51356 0.44555 0.0
H423 H 0.52885 0.56244 0.44309 0.0
S424 S 0.4416 0.60215 0.3682 0.0
N425 N 0.42629 0.56463 0.38658 0.0
N426 N 0.47928 0.61674 0.37691 0.0
C427 C 0.48083 0.59083 0.3965 0.0
C428 C 0.4521 0.5625 0.40011 0.0
C429 C 0.91887 0.44653 0.53713 0.0
C430 C 0.94591 0.44527 0.55602 0.0
C431 C 0.91895 0.47452 0.53716 0.0
C432 C 0.94595 0.50274 0.55768 0.0
H433 H 0.89707 0.42555 0.52434 0.0
H434 H 0.89736 0.47392 0.52229 0.0
S435 S 0.0235 0.51275 0.60686 0.0
N436 N 1.00106 0.47517 0.59001 0.0
N437 N 1.0009 0.52785 0.59442 0.0
C438 C 0.97343 0.5021 0.57457 0.0
C439 C 0.97343 0.4734 0.57345 0.0
C440 C 0.47984 0.95786 0.8083 0.0
C441 C 0.45167 0.93031 0.79234 0.0
C442 C 0.50811 0.95806 0.80854 0.0
C443 C 0.5091 0.93081 0.79112 0.0
H444 H 0.47998 0.97931 0.82131 0.0
H445 H 0.52935 0.97972 0.82014 0.0
S446 S 0.44194 0.8528 0.74502 0.0
N447 N 0.42673 0.87523 0.75819 0.0
N448 N 0.47952 0.8756 0.7594 0.0
C449 C 0.48109 0.90319 0.77566 0.0
C450 C 0.45248 0.90295 0.77597 0.0
C451 C 0.58783 0.47669 0.92836 0.0
C452 C 0.58888 0.50409 0.89645 0.0
C453 C 0.56013 0.4484 0.92955 0.0
C454 C 0.53213 0.44611 0.89871 0.0
H455 H 0.60869 0.47713 0.95315 0.0
H456 H 0.5607 0.42802 0.95451 0.0
S457 S 0.52219 0.51085 0.80752 0.0
N458 N 0.55949 0.52717 0.83225 0.0
N459 N 0.50713 0.47377 0.83518 0.0
C460 C 0.53275 0.47325 0.86611 0.0
C461 C 0.56112 0.50228 0.86539 0.0
C462 C 1.01059 0.35195 0.92111 0.0
C463 C 0.03947 0.3537 0.93048 0.0
C464 C 0.99269 0.34057 0.83277 0.0
C465 C 1.00209 0.32935 0.75002 0.0
H466 H 1.00187 0.36016 0.98169 0.0
H467 H 0.97101 0.3404 0.83023 0.0
S468 S 0.07658 0.33002 0.7329 0.0
N469 N 0.07745 0.34451 0.84638 0.0
N470 N 0.04322 0.322 0.68203 0.0
C471 C 0.03105 0.33107 0.75779 0.0
C472 C 0.04976 0.34341 0.84735 0.0
C473 C 0.64608 1.00438 0.98593 0.0
C474 C 0.66679 0.99735 0.93666 0.0
C475 C 0.65285 0.01901 0.08085 0.0
C476 C 0.68129 0.02869 0.12935 0.0
H477 H 0.62403 0.99805 0.95168 0.0
H478 H 0.63579 0.02346 0.11538 0.0
S479 S 0.74439 0.01735 0.03081 0.0
N480 N 0.71707 1.00117 0.94375 0.0
N481 N 0.73087 0.03097 0.1192 0.0
C482 C 0.70269 0.02261 0.08 0.0
C483 C 0.69518 1.00638 0.98463 0.0
C484 C 0.6833 0.66556 0.25645 0.0
C485 C 0.68069 0.69236 0.2623 0.0
C486 C 0.69221 0.65711 0.16593 0.0
C487 C 0.69918 0.67509 0.0766 0.0
H488 H 0.67718 0.6501 0.32118 0.0
H489 H 0.69209 0.63543 0.16503 0.0
S490 S 0.70036 0.74961 0.0538 0.0
N491 N 0.68892 0.73843 0.17203 0.0
N492 N 0.7055 0.72243 1.00246 0.0
C493 C 0.69807 0.70264 0.08236 0.0
C494 C 0.68902 0.71133 0.1748 0.0
C495 C 0.03502 0.69054 0.4496 0.0
C496 C 1.00356 0.6818 0.44453 0.0
C497 C 0.05334 0.69777 0.36087 0.0
C498 C 0.04093 0.69627 0.26329 0.0
H499 H 0.04526 0.69053 0.52215 0.0
H500 H 0.07702 0.70336 0.36902 0.0
S501 S 0.96255 0.68357 0.21275 0.0
N502 N 0.96262 0.67808 0.33663 0.0
N503 N 0.99677 0.69127 0.17042 0.0
C504 C 1.01023 0.69009 0.25864 0.0
C505 C 0.99164 0.68287 0.34887 0.0
C506 C 0.36799 1.00292 0.43278 0.0
C507 C 0.36423 0.0285 0.4118 0.0
C508 C 0.35426 0.98382 0.51802 0.0
C509 C 0.33562 0.98888 0.58689 0.0
H510 H 0.38217 0.99768 0.38371 0.0
H511 H 0.35795 0.96445 0.52839 0.0
S512 S 0.31736 0.05213 0.56638 0.0
N513 N 0.33959 0.05736 0.46655 0.0
N514 N 0.31388 0.02155 0.62694 0.0
C515 C 0.3312 0.01412 0.56638 0.0
C516 C 0.34542 0.03382 0.47922 0.0
C517 C 0.33764 0.32633 0.73757 0.0
C518 C 0.36929 0.34665 0.75484 0.0
C519 C 0.32247 0.33032 0.65302 0.0
C520 C 0.33856 0.3543 0.58112 0.0
H521 H 0.32426 0.30808 0.7919 0.0
H522 H 0.29775 0.3152 0.6463 0.0
S523 S 0.4229 0.40999 0.58222 0.0
N524 N 0.41658 0.38994 0.68828 0.0
N525 N 0.38899 0.39538 0.52607 0.0
C526 C 0.37066 0.37308 0.59394 0.0
C527 C 0.38575 0.36982 0.68154 0.0
C528 C 0.18653 0.39058 0.32384 0.0
C529 C 0.183 0.3893 0.2173 0.0
C530 C 0.21121 0.3894 0.37043 0.0
C531 C 0.23352 0.38702 0.31235 0.0
H532 H 0.1718 0.39557 0.37093 0.0
H533 H 0.21471 0.39385 0.45135 0.0
S534 S 0.23322 0.37974 0.03147 0.0
N535 N 0.20235 0.38264 0.05584 0.0
N536 N 0.24883 0.38055 0.14295 0.0
C537 C 0.22865 0.38283 0.20654 0.0
C538 C 0.20336 0.38393 0.15903 0.0
C539 C 0.83155 0.19067 0.35584 0.0
C540 C 0.80598 0.16947 0.41415 0.0
C541 C 0.85715 0.21611 0.40169 0.0
C542 C 0.85798 0.22139 0.50735 0.0
H543 H 0.8304 0.18947 0.27356 0.0
H544 H 0.8748 0.23343 0.3527 0.0
S545 S 0.7985 0.17104 0.69451 0.0
N546 N 0.78473 0.15392 0.58424 0.0
N547 N 0.83234 0.20176 0.66917 0.0
C548 C 0.83391 0.19887 0.56692 0.0
C549 C 0.80805 0.17294 0.52063 0.0
C550 C 0.63754 0.82344 0.7197 0.0
C551 C 0.64957 0.85271 0.6745 0.0
C552 C 0.63641 0.79864 0.66672 0.0
C553 C 0.64739 0.80185 0.56608 0.0
H554 H 0.62597 0.81882 0.79285 0.0
H555 H 0.6242 0.77597 0.70194 0.0
S556 S 0.68576 0.87498 0.4186 0.0
N557 N 0.67629 0.88464 0.52748 0.0
N558 N 0.67426 0.83775 0.42766 0.0
C559 C 0.66243 0.83171 0.52343 0.0
C560 C 0.66352 0.85721 0.57782 0.0
C561 C 0.82449 0.652 0.73296 0.0
C562 C 0.80821 0.63501 0.82018 0.0
C563 C 0.84908 0.64917 0.69082 0.0
C564 C 0.85739 0.62838 0.73257 0.0
H565 H 0.81647 0.66547 0.69209 0.0
H566 H 0.85958 0.66106 0.62021 0.0
S567 S 0.82233 0.5795 0.96327 0.0
N568 N 0.80363 0.59865 0.9501 0.0
N569 N 0.84785 0.59169 0.86978 0.0
C570 C 0.84222 0.61267 0.82308 0.0
C571 C 0.81819 0.61642 0.86715 0.0
C572 C 0.22386 0.8474 0.945 0.0
C573 C 0.23209 0.8454 0.84354 0.0
C574 C 0.19942 0.82158 0.99548 0.0
C575 C 0.18272 0.79286 0.94626 0.0
H576 H 0.23828 0.86802 0.98874 0.0
H577 H 0.19568 0.82332 0.07579 0.0
S578 S 0.19378 0.77652 0.67887 0.0
N579 N 0.22001 0.8132 0.69462 0.0
N580 N 0.17466 0.76507 0.7876 0.0
C581 C 0.18925 0.79155 0.84256 0.0
C582 C 0.21376 0.81768 0.79173 0.0
C583 C 0.38947 0.17652 0.03939 0.0
C584 C 0.39155 0.17546 0.14611 0.0
C585 C 0.38936 0.20154 0.98983 0.0
C586 C 0.39095 0.22632 0.0453 0.0
H587 H 0.39102 0.15942 0.99349 0.0
H588 H 0.39119 0.20298 0.90762 0.0
S589 S 0.39303 0.23273 0.32655 0.0
N590 N 0.39239 0.19989 0.30547 0.0
N591 N 0.39148 0.24643 0.21353 0.0
C592 C 0.38994 0.22391 0.15226 0.0
C593 C 0.39036 0.1986 0.20241 0.0
C594 C 0.12898 0.39332 0.53952 0.0
C595 C 0.1136 0.40683 0.49073 0.0
C596 C 0.14141 0.40266 0.63716 0.0
C597 C 0.13809 0.42517 0.69024 0.0
H598 H 0.13162 0.37562 0.50146 0.0
H599 H 0.15287 0.39158 0.67279 0.0
S600 S 0.09886 0.46665 0.59747 0.0
N601 N 0.09574 0.44372 0.50233 0.0
N602 N 0.11779 0.46022 0.68832 0.0
C603 C 0.12238 0.43848 0.64296 0.0
C604 C 0.11049 0.4296 0.54247 0.0
C605 C 0.70995 0.13087 0.83923 0.0
C606 C 0.73008 0.12753 0.90583 0.0
C607 C 0.70438 0.11839 0.74116 0.0
C608 C 0.71835 0.10175 0.70642 0.0
H609 H 0.69772 0.14246 0.86377 0.0
H610 H 0.68869 0.12142 0.69227 0.0
S611 S 0.77547 0.08925 0.84576 0.0
N612 N 0.76619 0.10866 0.92594 0.0
N613 N 0.75469 0.0843 0.74275 0.0
C614 C 0.73882 0.09854 0.77118 0.0
C615 C 0.745 0.11174 0.87044 0.0
C616 C 0.60806 0.69452 0.88001 0.0
C617 C 0.63128 0.71959 0.82517 0.0
C618 C 0.60012 0.69845 0.97923 0.0
C619 C 0.61426 0.7278 0.02471 0.0
H620 H 0.59649 0.67171 0.84649 0.0
H621 H 0.58288 0.67851 0.02097 0.0
S622 S 0.67606 0.80081 0.91211 0.0
N623 N 0.6686 0.77455 0.82384 0.0
N624 N 0.65235 0.78223 0.00762 0.0
C625 C 0.63691 0.75313 0.96951 0.0
C626 C 0.64579 0.74894 0.87035 0.0
C627 C 0.94346 0.60129 0.06809 0.0
C628 C 0.93555 0.61799 1.00059 0.0
C629 C 0.93067 0.59384 0.16621 0.0
C630 C 0.90935 0.60257 0.19936 0.0
H631 H 0.959 0.59334 0.04401 0.0
H632 H 0.93733 0.58103 0.21661 0.0
S633 S 0.88544 0.65114 0.05721 0.0
N634 N 0.90818 0.64625 0.97756 0.0
N635 N 0.88345 0.63143 0.16074 0.0
C636 C 0.90177 0.61978 0.13315 0.0
C637 C 0.91519 0.62783 0.03423 0.0
C638 C 0.31279 0.92169 0.35075 0.0
C639 C 0.31346 0.89445 0.37416 0.0
C640 C 0.31617 0.93271 0.25073 0.0
C641 C 0.31972 0.91664 0.16954 0.0
H642 H 0.31035 0.93521 0.40991 0.0
H643 H 0.31593 0.95394 0.2367 0.0
S644 S 0.32025 0.84269 0.18701 0.0
N645 N 0.3152 0.85027 0.30523 0.0
N646 N 0.32304 0.87162 0.11823 0.0
C647 C 0.31945 0.88886 0.1909 0.0
C648 C 0.31584 0.87756 0.29276 0.0
C649 C 0.44792 0.32108 0.46732 0.0
C650 C 0.42406 0.30216 0.5355 0.0
C651 C 0.44138 0.32696 0.36893 0.0
C652 C 0.4108 0.31465 0.33554 0.0
H653 H 0.47182 0.33214 0.49071 0.0
H654 H 0.46039 0.34163 0.31875 0.0
S655 S 0.34 0.26106 0.47864 0.0
N656 N 0.36851 0.26867 0.55779 0.0
N657 N 0.3565 0.28123 0.37452 0.0
C658 C 0.38672 0.29546 0.40176 0.0
C659 C 0.3933 0.28878 0.50115 0.0
C660 C 0.63416 0.9305 0.18047 0.0
C661 C 0.61941 0.8988 0.15757 0.0
C662 C 0.64171 0.9409 0.28056 0.0
C663 C 0.63485 0.91999 0.3615 0.0
H664 H 0.6392 0.94734 0.12068 0.0
H665 H 0.6522 0.96543 0.29486 0.0
S666 S 0.59925 0.83464 0.33838 0.0
N667 N 0.59997 0.84678 0.22091 0.0
N668 N 0.61448 0.86594 0.40975 0.0
C669 C 0.62084 0.88815 0.33877 0.0
C670 C 0.61301 0.87766 0.23659 0.0
C671 C 0.74849 0.63118 0.34169 0.0
C672 C 0.72445 0.60343 0.30209 0.0
C673 C 0.74663 0.64106 0.43996 0.0
C674 C 0.72049 0.62365 0.50197 0.0
H675 H 0.76896 0.64524 0.29631 0.0
H676 H 0.76605 0.66215 0.46823 0.0
S677 S 0.64974 0.55118 0.42948 0.0
N678 N 0.67274 0.55992 0.32956 0.0
N679 N 0.66919 0.57853 0.51385 0.0
C680 C 0.69599 0.59625 0.46227 0.0
C681 C 0.69797 0.58612 0.36251 0.0
C682 C 0.12827 0.73575 0.53003 0.0
C683 C 0.13472 0.71378 0.48844 0.0
C684 C 0.11583 0.73202 0.62819 0.0
C685 C 0.10979 0.70635 0.68931 0.0
H686 H 0.13293 0.75599 0.48602 0.0
H687 H 0.11203 0.75003 0.65765 0.0
S688 S 0.1204 0.64105 0.61104 0.0
N689 N 0.13233 0.66456 0.51154 0.0
N690 N 0.10959 0.65768 0.69762 0.0
C691 C 0.11551 0.68383 0.64723 0.0
C692 C 0.12774 0.68747 0.54635 0.0
C693 C 0.43185 0.14996 0.72298 0.0
C694 C 0.42936 0.12988 0.6449 0.0
C695 C 0.42378 0.13911 0.82309 0.0
C696 C 0.4129 0.10785 0.8477 0.0
H697 H 0.43954 0.17395 0.70598 0.0
H698 H 0.42578 0.15522 0.88132 0.0
S699 S 0.40737 0.04757 0.67225 0.0
N700 N 0.41861 0.07839 0.59945 0.0
N701 N 0.4034 0.058 0.78778 0.0
C702 C 0.41138 0.08789 0.7705 0.0
C703 C 0.41966 0.09893 0.66895 0.0
C704 C 0.32819 0.4473 0.87407 0.0
C705 C 0.31043 0.42319 0.80596 0.0
C706 C 0.33416 0.44104 0.97264 0.0
C707 C 0.32315 0.41055 1.00584 0.0
H708 H 0.33834 0.47117 0.8503 0.0
H709 H 0.34795 0.46015 0.02305 0.0
S710 S 0.27252 0.33913 0.86368 0.0
N711 N 0.27898 0.36739 0.78411 0.0
N712 N 0.29198 0.35607 0.96784 0.0
C713 C 0.3049 0.38625 0.9402 0.0
C714 C 0.29803 0.39247 0.84073 0.0
C715 C 0.941 0.30407 0.09968 0.0
C716 C 0.92553 0.30879 0.18035 0.0
C717 C 0.92981 0.30026 1.0001 0.0
C718 C 0.90318 0.30198 0.97635 0.0
H719 H 0.96193 0.30332 0.11383 0.0
H720 H 0.94284 0.29676 0.94157 0.0
S721 S 0.85232 0.31058 0.1637 0.0
N722 N 0.8811 0.31309 0.23204 0.0
N723 N 0.85956 0.3049 0.04571 0.0
C724 C 0.8866 0.30506 0.05779 0.0
C725 C 0.89798 0.30889 0.15934 0.0
loop_
_geom_bond_atom_site_label_1
_geom_bond_atom_site_label_2
_geom_bond_distance
_geom_bond_site_symmetry_2
_ccdc_geom_bond_type
C0 C1 1.351 . S
C0 N3 1.368 . S
C0 H5 0.931 . S
C1 C0 1.351 . S
C1 N2 1.373 . S
C1 H29 0.930 . S
N2 C1 1.373 . S
N2 C4 1.340 . S
N3 C0 1.368 . S
N3 C4 1.321 . S
N3 Co6 2.135 1_556 S
C4 N2 1.340 . S
C4 N3 1.321 . S
C4 H28 0.930 . S
H5 C0 0.931 . S
Co6 N3 2.135 1_554 S
Co6 N9 2.121 . S
Co6 O14 2.055 . S
Co6 O17 2.039 . S
Co6 N20 2.140 . S
C7 O8 1.227 . S
C7 O17 1.265 1_556 S
O8 C7 1.227 . S
N9 Co6 2.121 . S
N9 C11 1.375 . S
N9 C12 1.313 . S
C10 C11 1.338 . S
C10 N13 1.377 . S
C10 H30 0.930 . S
C11 N9 1.375 . S
C11 C10 1.338 . S
C11 H15 0.931 . S
C12 N9 1.313 . S
C12 N13 1.344 . S
C12 H16 0.930 . S
N13 C10 1.377 . S
N13 C12 1.344 . S
O14 Co6 2.055 . S
O14 C18 1.253 . S
H15 C11 0.931 . S
H16 C12 0.930 . S
O17 Co6 2.039 . S
O17 C7 1.265 1_554 S
C18 O14 1.253 . S
C18 O19 1.227 . S
O19 C18 1.227 . S
N20 Co6 2.140 . S
N20 C23 1.346 1_554 S
N20 C24 1.345 . S
C21 C22 1.387 1_554 S
C21 C25 1.391 . S
C22 C21 1.387 1_556 S
C22 C23 1.369 . S
C22 H31 0.929 . S
C23 N20 1.346 1_556 S
C23 C22 1.369 . S
C23 H26 0.928 . S
C24 N20 1.345 . S
C24 C25 1.371 . S
C24 H27 0.931 . S
C25 C21 1.391 . S
C25 C24 1.371 . S
C25 H32 0.930 . S
H26 C23 0.928 . S
H27 C24 0.931 . S
H28 C4 0.930 . S
H29 C1 0.930 . S
H30 C10 0.930 . S
H31 C22 0.929 . S
H32 C25 0.930 . S
C33 C34 1.351 1_554 S
C33 N36 1.368 . S
C33 H38 0.931 . S
C34 C33 1.351 1_556 S
C34 N35 1.373 . S
C34 H62 0.930 . S
N35 C34 1.373 . S
N35 C37 1.340 . S
N36 C33 1.368 . S
N36 C37 1.321 1_554 S
N36 Co39 2.135 . S
C37 N35 1.340 . S
C37 N36 1.321 1_556 S
C37 H61 0.930 . S
H38 C33 0.931 . S
Co39 N36 2.135 . S
Co39 N42 2.121 . S
Co39 O47 2.055 . S
Co39 O50 2.039 . S
Co39 N53 2.140 . S
C40 O41 1.227 . S
C40 O50 1.265 . S
O41 C40 1.227 . S
N42 Co39 2.121 . S
N42 C44 1.375 . S
N42 C45 1.313 . S
C43 C44 1.338 . S
C43 N46 1.377 . S
C43 H63 0.930 . S
C44 N42 1.375 . S
C44 C43 1.338 . S
C44 H48 0.931 . S
C45 N42 1.313 . S
C45 N46 1.344 . S
C45 H49 0.930 . S
N46 C43 1.377 . S
N46 C45 1.344 . S
O47 Co39 2.055 . S
O47 C51 1.253 . S
H48 C44 0.931 . S
H49 C45 0.930 . S
O50 Co39 2.039 . S
O50 C40 1.265 . S
C51 O47 1.253 . S
C51 O52 1.227 . S
O52 C51 1.227 . S
N53 Co39 2.140 . S
N53 C56 1.346 . S
N53 C57 1.345 . S
C54 C55 1.387 . S
C54 C58 1.391 . S
C55 C54 1.387 . S
C55 C56 1.369 . S
C55 H64 0.929 . S
C56 N53 1.346 . S
C56 C55 1.369 . S
C56 H59 0.928 . S
C57 N53 1.345 . S
C57 C58 1.371 . S
C57 H60 0.931 . S
C58 C54 1.391 . S
C58 C57 1.371 . S
C58 H65 0.930 . S
H59 C56 0.928 . S
H60 C57 0.931 . S
H61 C37 0.930 . S
H62 C34 0.930 . S
H63 C43 0.930 . S
H64 C55 0.929 . S
H65 C58 0.930 . S
C66 C67 1.351 . S
C66 N69 1.368 . S
C66 H71 0.931 . S
C67 C66 1.351 . S
C67 N68 1.373 . S
C67 H95 0.930 . S
N68 C67 1.373 . S
N68 C70 1.340 . S
N69 C66 1.368 . S
N69 C70 1.321 . S
N69 Co72 2.135 . S
C70 N68 1.340 . S
C70 N69 1.321 . S
C70 H94 0.930 . S
H71 C66 0.931 . S
Co72 N69 2.135 . S
Co72 N75 2.121 . S
Co72 O80 2.055 . S
Co72 O83 2.039 . S
Co72 N86 2.140 . S
C73 O74 1.227 . S
C73 O83 1.265 . S
O74 C73 1.227 . S
N75 Co72 2.121 . S
N75 C77 1.375 . S
N75 C78 1.313 . S
C76 C77 1.338 . S
C76 N79 1.377 . S
C76 H96 0.930 . S
C77 N75 1.375 . S
C77 C76 1.338 . S
C77 H81 0.931 . S
C78 N75 1.313 . S
C78 N79 1.344 . S
C78 H82 0.930 . S
N79 C76 1.377 . S
N79 C78 1.344 . S
O80 Co72 2.055 . S
O80 C84 1.253 . S
H81 C77 0.931 . S
H82 C78 0.930 . S
O83 Co72 2.039 . S
O83 C73 1.265 . S
C84 O80 1.253 . S
C84 O85 1.227 . S
O85 C84 1.227 . S
N86 Co72 2.140 . S
N86 C89 1.346 . S
N86 C90 1.345 . S
C87 C88 1.387 . S
C87 C91 1.391 . S
C88 C87 1.387 . S
C88 C89 1.369 . S
C88 H97 0.929 . S
C89 N86 1.346 . S
C89 C88 1.369 . S
C89 H92 0.928 . S
C90 N86 1.345 . S
C90 C91 1.371 . S
C90 H93 0.931 . S
C91 C87 1.391 . S
C91 C90 1.371 . S
C91 H98 0.930 . S
H92 C89 0.928 . S
H93 C90 0.931 . S
H94 C70 0.930 . S
H95 C67 0.930 . S
H96 C76 0.930 . S
H97 C88 0.929 . S
H98 C91 0.930 . S
C99 C100 1.351 . S
C99 N102 1.368 . S
C99 H104 0.931 . S
C100 C99 1.351 . S
C100 N101 1.373 . S
C100 H128 0.930 . S
N101 C100 1.373 . S
N101 C103 1.340 . S
N102 C99 1.368 . S
N102 C103 1.321 . S
N102 Co105 2.135 . S
C103 N101 1.340 . S
C103 N102 1.321 . S
C103 H127 0.930 . S
H104 C99 0.931 . S
Co105 N102 2.135 . S
Co105 N108 2.121 . S
Co105 O113 2.055 . S
Co105 O116 2.039 . S
Co105 N119 2.140 . S
C106 O107 1.227 . S
C106 O116 1.265 . S
O107 C106 1.227 . S
N108 Co105 2.121 . S
N108 C110 1.375 . S
N108 C111 1.313 . S
C109 C110 1.338 . S
C109 N112 1.377 . S
C109 H129 0.930 . S
C110 N108 1.375 . S
C110 C109 1.338 . S
C110 H114 0.931 . S
C111 N108 1.313 . S
C111 N112 1.344 . S
C111 H115 0.930 . S
N112 C109 1.377 . S
N112 C111 1.344 . S
O113 Co105 2.055 . S
O113 C117 1.253 . S
H114 C110 0.931 . S
H115 C111 0.930 . S
O116 Co105 2.039 . S
O116 C106 1.265 . S
C117 O113 1.253 . S
C117 O118 1.227 . S
O118 C117 1.227 . S
N119 Co105 2.140 . S
N119 C122 1.346 . S
N119 C123 1.345 . S
C120 C121 1.387 . S
C120 C124 1.391 . S
C121 C120 1.387 . S
C121 C122 1.369 . S
C121 H130 0.929 . S
C122 N119 1.346 . S
C122 C121 1.369 . S
C122 H125 0.928 . S
C123 N119 1.345 . S
C123 C124 1.371 . S
C123 H126 0.931 . S
C124 C120 1.391 . S
C124 C123 1.371 . S
C124 H131 0.930 . S
H125 C122 0.928 . S
H126 C123 0.931 . S
H127 C103 0.930 . S
H128 C100 0.930 . S
H129 C109 0.930 . S
H130 C121 0.929 . S
H131 C124 0.930 . S
C132 C133 1.351 . S
C132 N135 1.368 . S
C132 H137 0.931 . S
C133 C132 1.351 . S
C133 N134 1.373 . S
C133 H161 0.930 . S
N134 C133 1.373 . S
N134 C136 1.340 . S
N135 C132 1.368 . S
N135 C136 1.321 . S
N135 Co138 2.135 . S
C136 N134 1.340 . S
C136 N135 1.321 . S
C136 H160 0.930 . S
H137 C132 0.931 . S
Co138 N135 2.135 . S
Co138 N141 2.121 . S
Co138 O146 2.055 . S
Co138 O149 2.039 . S
Co138 N152 2.140 . S
C139 O140 1.227 . S
C139 O149 1.265 . S
O140 C139 1.227 . S
N141 Co138 2.121 . S
N141 C143 1.375 . S
N141 C144 1.313 . S
C142 C143 1.338 . S
C142 N145 1.377 1_556 S
C142 H162 0.930 1_556 S
C143 N141 1.375 . S
C143 C142 1.338 . S
C143 H147 0.931 . S
C144 N141 1.313 . S
C144 N145 1.344 1_556 S
C144 H148 0.930 . S
N145 C142 1.377 1_554 S
N145 C144 1.344 1_554 S
O146 Co138 2.055 . S
O146 C150 1.253 . S
H147 C143 0.931 . S
H148 C144 0.930 . S
O149 Co138 2.039 . S
O149 C139 1.265 . S
C150 O146 1.253 . S
C150 O151 1.227 . S
O151 C150 1.227 . S
N152 Co138 2.140 . S
N152 C155 1.346 . S
N152 C156 1.345 . S
C153 C154 1.387 . S
C153 C157 1.391 . S
C154 C153 1.387 . S
C154 C155 1.369 . S
C154 H163 0.929 . S
C155 N152 1.346 . S
C155 C154 1.369 . S
C155 H158 0.928 . S
C156 N152 1.345 . S
C156 C157 1.371 . S
C156 H159 0.931 . S
C157 C153 1.391 . S
C157 C156 1.371 . S
C157 H164 0.930 . S
H158 C155 0.928 . S
H159 C156 0.931 . S
H160 C136 0.930 . S
H161 C133 0.930 . S
H162 C142 0.930 1_554 S
H163 C154 0.929 . S
H164 C157 0.930 . S
C165 C166 1.351 . S
C165 N168 1.368 . S
C165 H170 0.931 . S
C166 C165 1.351 . S
C166 N167 1.373 . S
C166 H194 0.930 . S
N167 C166 1.373 . S
N167 C169 1.340 . S
N168 C165 1.368 . S
N168 C169 1.321 . S
N168 Co171 2.135 . S
C169 N167 1.340 . S
C169 N168 1.321 . S
C169 H193 0.930 . S
H170 C165 0.931 . S
Co171 N168 2.135 . S
Co171 N174 2.121 1_556 S
Co171 O179 2.055 . S
Co171 O182 2.039 . S
Co171 N185 2.140 . S
C172 O173 1.227 . S
C172 O182 1.265 . S
O173 C172 1.227 . S
N174 Co171 2.121 1_554 S
N174 C176 1.375 . S
N174 C177 1.313 . S
C175 C176 1.338 . S
C175 N178 1.377 . S
C175 H195 0.930 . S
C176 N174 1.375 . S
C176 C175 1.338 . S
C176 H180 0.931 . S
C177 N174 1.313 . S
C177 N178 1.344 . S
C177 H181 0.930 . S
N178 C175 1.377 . S
N178 C177 1.344 . S
O179 Co171 2.055 . S
O179 C183 1.253 . S
H180 C176 0.931 . S
H181 C177 0.930 . S
O182 Co171 2.039 . S
O182 C172 1.265 . S
C183 O179 1.253 . S
C183 O184 1.227 . S
O184 C183 1.227 . S
N185 Co171 2.140 . S
N185 C188 1.346 . S
N185 C189 1.345 . S
C186 C187 1.387 . S
C186 C190 1.391 . S
C187 C186 1.387 . S
C187 C188 1.369 . S
C187 H196 0.929 . S
C188 N185 1.346 . S
C188 C187 1.369 . S
C188 H191 0.928 . S
C189 N185 1.345 . S
C189 C190 1.371 . S
C189 H192 0.931 1_556 S
C190 C186 1.391 . S
C190 C189 1.371 . S
C190 H197 0.930 1_556 S
H191 C188 0.928 . S
H192 C189 0.931 1_554 S
H193 C169 0.930 . S
H194 C166 0.930 . S
H195 C175 0.930 . S
H196 C187 0.929 . S
H197 C190 0.930 1_554 S
C198 C199 1.351 1_556 S
C198 N201 1.368 . S
C198 H203 0.931 . S
C199 C198 1.351 1_554 S
C199 N200 1.373 . S
C199 H227 0.930 . S
N200 C199 1.373 . S
N200 C202 1.340 . S
N201 C198 1.368 . S
N201 C202 1.321 1_556 S
N201 Co204 2.135 . S
C202 N200 1.340 . S
C202 N201 1.321 1_554 S
C202 H226 0.930 . S
H203 C198 0.931 . S
Co204 N201 2.135 . S
Co204 N207 2.121 . S
Co204 O212 2.055 . S
Co204 O215 2.039 . S
Co204 N218 2.140 . S
C205 O206 1.227 . S
C205 O215 1.265 . S
O206 C205 1.227 . S
N207 Co204 2.121 . S
N207 C209 1.375 . S
N207 C210 1.313 . S
C208 C209 1.338 . S
C208 N211 1.377 . S
C208 H228 0.930 . S
C209 N207 1.375 . S
C209 C208 1.338 . S
C209 H213 0.931 . S
C210 N207 1.313 . S
C210 N211 1.344 . S
C210 H214 0.930 . S
N211 C208 1.377 . S
N211 C210 1.344 . S
O212 Co204 2.055 . S
O212 C216 1.253 . S
H213 C209 0.931 . S
H214 C210 0.930 . S
O215 Co204 2.039 . S
O215 C205 1.265 . S
C216 O212 1.253 . S
C216 O217 1.227 . S
O217 C216 1.227 . S
N218 Co204 2.140 . S
N218 C221 1.346 . S
N218 C222 1.345 . S
C219 C220 1.387 . S
C219 C223 1.391 . S
C220 C219 1.387 . S
C220 C221 1.369 . S
C220 H229 0.929 . S
C221 N218 1.346 . S
C221 C220 1.369 . S
C221 H224 0.928 . S
C222 N218 1.345 . S
C222 C223 1.371 . S
C222 H225 0.931 . S
C223 C219 1.391 . S
C223 C222 1.371 . S
C223 H230 0.930 . S
H224 C221 0.928 . S
H225 C222 0.931 . S
H226 C202 0.930 . S
H227 C199 0.930 . S
H228 C208 0.930 . S
H229 C220 0.929 . S
H230 C223 0.930 . S
C231 C232 1.351 . S
C231 N234 1.368 . S
C231 H236 0.931 . S
C232 C231 1.351 . S
C232 N233 1.373 . S
C232 H260 0.930 . S
N233 C232 1.373 . S
N233 C235 1.340 . S
N234 C231 1.368 . S
N234 C235 1.321 . S
N234 Co237 2.135 1_554 S
C235 N233 1.340 . S
C235 N234 1.321 . S
C235 H259 0.930 . S
H236 C231 0.931 . S
Co237 N234 2.135 1_556 S
Co237 N240 2.121 . S
Co237 O245 2.055 . S
Co237 O248 2.039 . S
Co237 N251 2.140 . S
C238 O239 1.227 . S
C238 O248 1.265 1_554 S
O239 C238 1.227 . S
N240 Co237 2.121 . S
N240 C242 1.375 . S
N240 C243 1.313 . S
C241 C242 1.338 . S
C241 N244 1.377 . S
C241 H261 0.930 . S
C242 N240 1.375 . S
C242 C241 1.338 . S
C242 H246 0.931 . S
C243 N240 1.313 . S
C243 N244 1.344 . S
C243 H247 0.930 . S
N244 C241 1.377 . S
N244 C243 1.344 . S
O245 Co237 2.055 . S
O245 C249 1.253 . S
H246 C242 0.931 . S
H247 C243 0.930 . S
O248 Co237 2.039 . S
O248 C238 1.265 1_556 S
C249 O245 1.253 . S
C249 O250 1.227 . S
O250 C249 1.227 . S
N251 Co237 2.140 . S
N251 C254 1.346 1_556 S
N251 C255 1.345 . S
C252 C253 1.387 1_556 S
C252 C256 1.391 . S
C253 C252 1.387 1_554 S
C253 C254 1.369 . S
C253 H262 0.929 . S
C254 N251 1.346 1_554 S
C254 C253 1.369 . S
C254 H257 0.928 . S
C255 N251 1.345 . S
C255 C256 1.371 . S
C255 H258 0.931 . S
C256 C252 1.391 . S
C256 C255 1.371 . S
C256 H263 0.930 . S
H257 C254 0.928 . S
H258 C255 0.931 . S
H259 C235 0.930 . S
H260 C232 0.930 . S
H261 C241 0.930 . S
H262 C253 0.929 . S
H263 C256 0.930 . S
C264 C265 1.351 . S
C264 N267 1.368 . S
C264 H269 0.931 . S
C265 C264 1.351 . S
C265 N266 1.373 . S
C265 H293 0.930 . S
N266 C265 1.373 . S
N266 C268 1.340 . S
N267 C264 1.368 . S
N267 C268 1.321 . S
N267 Co270 2.135 . S
C268 N266 1.340 . S
C268 N267 1.321 . S
C268 H292 0.930 . S
H269 C264 0.931 . S
Co270 N267 2.135 . S
Co270 N273 2.121 1_554 S
Co270 O278 2.055 . S
Co270 O281 2.039 . S
Co270 N284 2.140 . S
C271 O272 1.227 . S
C271 O281 1.265 . S
O272 C271 1.227 . S
N273 Co270 2.121 1_556 S
N273 C275 1.375 . S
N273 C276 1.313 . S
C274 C275 1.338 . S
C274 N277 1.377 . S
C274 H294 0.930 . S
C275 N273 1.375 . S
C275 C274 1.338 . S
C275 H279 0.931 . S
C276 N273 1.313 . S
C276 N277 1.344 . S
C276 H280 0.930 . S
N277 C274 1.377 . S
N277 C276 1.344 . S
O278 Co270 2.055 . S
O278 C282 1.253 . S
H279 C275 0.931 . S
H280 C276 0.930 . S
O281 Co270 2.039 . S
O281 C271 1.265 . S
C282 O278 1.253 . S
C282 O283 1.227 . S
O283 C282 1.227 . S
N284 Co270 2.140 . S
N284 C287 1.346 . S
N284 C288 1.345 . S
C285 C286 1.387 . S
C285 C289 1.391 . S
C286 C285 1.387 . S
C286 C287 1.369 . S
C286 H295 0.929 . S
C287 N284 1.346 . S
C287 C286 1.369 . S
C287 H290 0.928 . S
C288 N284 1.345 . S
C288 C289 1.371 . S
C288 H291 0.931 1_554 S
C289 C285 1.391 . S
C289 C288 1.371 . S
C289 H296 0.930 1_554 S
H290 C287 0.928 . S
H291 C288 0.931 1_556 S
H292 C268 0.930 . S
H293 C265 0.930 . S
H294 C274 0.930 . S
H295 C286 0.929 . S
H296 C289 0.930 1_556 S
C297 C298 1.351 . S
C297 N300 1.368 . S
C297 H302 0.931 . S
C298 C297 1.351 . S
C298 N299 1.373 . S
C298 H326 0.930 . S
N299 C298 1.373 . S
N299 C301 1.340 . S
N300 C297 1.368 . S
N300 C301 1.321 . S
N300 Co303 2.135 . S
C301 N299 1.340 . S
C301 N300 1.321 . S
C301 H325 0.930 . S
H302 C297 0.931 . S
Co303 N300 2.135 . S
Co303 N306 2.121 . S
Co303 O311 2.055 . S
Co303 O314 2.039 . S
Co303 N317 2.140 . S
C304 O305 1.227 . S
C304 O314 1.265 . S
O305 C304 1.227 . S
N306 Co303 2.121 . S
N306 C308 1.375 . S
N306 C309 1.313 . S
C307 C308 1.338 . S
C307 N310 1.377 1_554 S
C307 H327 0.930 1_554 S
C308 N306 1.375 . S
C308 C307 1.338 . S
C308 H312 0.931 . S
C309 N306 1.313 . S
C309 N310 1.344 1_554 S
C309 H313 0.930 . S
N310 C307 1.377 1_556 S
N310 C309 1.344 1_556 S
O311 Co303 2.055 . S
O311 C315 1.253 . S
H312 C308 0.931 . S
H313 C309 0.930 . S
O314 Co303 2.039 . S
O314 C304 1.265 . S
C315 O311 1.253 . S
C315 O316 1.227 . S
O316 C315 1.227 . S
N317 Co303 2.140 . S
N317 C320 1.346 . S
N317 C321 1.345 . S
C318 C319 1.387 . S
C318 C322 1.391 . S
C319 C318 1.387 . S
C319 C320 1.369 . S
C319 H328 0.929 . S
C320 N317 1.346 . S
C320 C319 1.369 . S
C320 H323 0.928 . S
C321 N317 1.345 . S
C321 C322 1.371 . S
C321 H324 0.931 . S
C322 C318 1.391 . S
C322 C321 1.371 . S
C322 H329 0.930 . S
H323 C320 0.928 . S
H324 C321 0.931 . S
H325 C301 0.930 . S
H326 C298 0.930 . S
H327 C307 0.930 1_556 S
H328 C319 0.929 . S
H329 C322 0.930 . S
C330 C331 1.351 . S
C330 N333 1.368 . S
C330 H335 0.931 . S
C331 C330 1.351 . S
C331 N332 1.373 . S
C331 H359 0.930 . S
N332 C331 1.373 . S
N332 C334 1.340 . S
N333 C330 1.368 . S
N333 C334 1.321 . S
N333 Co336 2.135 . S
C334 N332 1.340 . S
C334 N333 1.321 . S
C334 H358 0.930 . S
H335 C330 0.931 . S
Co336 N333 2.135 . S
Co336 N339 2.121 . S
Co336 O344 2.055 . S
Co336 O347 2.039 . S
Co336 N350 2.140 . S
C337 O338 1.227 . S
C337 O347 1.265 . S
O338 C337 1.227 . S
N339 Co336 2.121 . S
N339 C341 1.375 . S
N339 C342 1.313 . S
C340 C341 1.338 . S
C340 N343 1.377 . S
C340 H360 0.930 . S
C341 N339 1.375 . S
C341 C340 1.338 . S
C341 H345 0.931 . S
C342 N339 1.313 . S
C342 N343 1.344 . S
C342 H346 0.930 . S
N343 C340 1.377 . S
N343 C342 1.344 . S
O344 Co336 2.055 . S
O344 C348 1.253 . S
H345 C341 0.931 . S
H346 C342 0.930 . S
O347 Co336 2.039 . S
O347 C337 1.265 . S
C348 O344 1.253 . S
C348 O349 1.227 . S
O349 C348 1.227 . S
N350 Co336 2.140 . S
N350 C353 1.346 . S
N350 C354 1.345 . S
C351 C352 1.387 . S
C351 C355 1.391 . S
C352 C351 1.387 . S
C352 C353 1.369 . S
C352 H361 0.929 . S
C353 N350 1.346 . S
C353 C352 1.369 . S
C353 H356 0.928 . S
C354 N350 1.345 . S
C354 C355 1.371 . S
C354 H357 0.931 . S
C355 C351 1.391 . S
C355 C354 1.371 . S
C355 H362 0.930 . S
H356 C353 0.928 . S
H357 C354 0.931 . S
H358 C334 0.930 . S
H359 C331 0.930 . S
H360 C340 0.930 . S
H361 C352 0.929 . S
H362 C355 0.930 . S
C363 C364 1.351 . S
C363 N366 1.368 . S
C363 H368 0.931 . S
C364 C363 1.351 . S
C364 N365 1.373 . S
C364 H392 0.930 . S
N365 C364 1.373 . S
N365 C367 1.340 . S
N366 C363 1.368 . S
N366 C367 1.321 . S
N366 Co369 2.135 . S
C367 N365 1.340 . S
C367 N366 1.321 . S
C367 H391 0.930 . S
H368 C363 0.931 . S
Co369 N366 2.135 . S
Co369 N372 2.121 . S
Co369 O377 2.055 . S
Co369 O380 2.039 . S
Co369 N383 2.140 . S
C370 O371 1.227 . S
C370 O380 1.265 . S
O371 C370 1.227 . S
N372 Co369 2.121 . S
N372 C374 1.375 . S
N372 C375 1.313 . S
C373 C374 1.338 . S
C373 N376 1.377 . S
C373 H393 0.930 . S
C374 N372 1.375 . S
C374 C373 1.338 . S
C374 H378 0.931 . S
C375 N372 1.313 . S
C375 N376 1.344 . S
C375 H379 0.930 . S
N376 C373 1.377 . S
N376 C375 1.344 . S
O377 Co369 2.055 . S
O377 C381 1.253 . S
H378 C374 0.931 . S
H379 C375 0.930 . S
O380 Co369 2.039 . S
O380 C370 1.265 . S
C381 O377 1.253 . S
C381 O382 1.227 . S
O382 C381 1.227 . S
N383 Co369 2.140 . S
N383 C386 1.346 . S
N383 C387 1.345 . S
C384 C385 1.387 . S
C384 C388 1.391 . S
C385 C384 1.387 . S
C385 C386 1.369 . S
C385 H394 0.929 . S
C386 N383 1.346 . S
C386 C385 1.369 . S
C386 H389 0.928 . S
C387 N383 1.345 . S
C387 C388 1.371 . S
C387 H390 0.931 . S
C388 C384 1.391 . S
C388 C387 1.371 . S
C388 H395 0.930 . S
H389 C386 0.928 . S
H390 C387 0.931 . S
H391 C367 0.930 . S
H392 C364 0.930 . S
H393 C373 0.930 . S
H394 C385 0.929 . S
H395 C388 0.930 . S
C396 C397 1.369 . S
C396 C398 1.419 . S
C396 H400 0.930 1_554 S
C397 C396 1.369 . S
C397 C406 1.429 . S
C398 C396 1.419 . S
C398 C399 1.368 . S
C398 H401 0.923 1_554 S
C399 C398 1.368 . S
C399 C405 1.428 . S
H400 C396 0.930 1_556 S
H401 C398 0.923 1_556 S
S402 N403 1.613 . S
S402 N404 1.610 . S
N403 S402 1.613 . S
N403 C406 1.350 . S
N404 S402 1.610 . S
N404 C405 1.351 . S
C405 C399 1.428 . S
C405 N404 1.351 . S
C405 C406 1.434 . S
C406 C397 1.429 . S
C406 N403 1.350 . S
C406 C405 1.434 . S
C407 C408 1.369 . S
C407 C409 1.419 . S
C407 H411 0.930 . S
C408 C407 1.369 . S
C408 C417 1.429 . S
C409 C407 1.419 . S
C409 C410 1.363 . S
C409 H412 0.929 . S
C410 C409 1.363 . S
C410 C416 1.428 . S
H411 C407 0.930 . S
H412 C409 0.929 . S
S413 N414 1.613 . S
S413 N415 1.610 . S
N414 S413 1.613 . S
N414 C417 1.350 . S
N415 S413 1.610 . S
N415 C416 1.351 . S
C416 C410 1.428 . S
C416 N415 1.351 . S
C416 C417 1.434 . S
C417 C408 1.429 . S
C417 N414 1.350 . S
C417 C416 1.434 . S
C418 C419 1.369 . S
C418 C420 1.419 . S
C418 H422 0.930 . S
C419 C418 1.369 . S
C419 C428 1.429 . S
C420 C418 1.419 . S
C420 C421 1.363 . S
C420 H423 0.929 . S
C421 C420 1.363 . S
C421 C427 1.428 . S
H422 C418 0.930 . S
H423 C420 0.929 . S
S424 N425 1.613 . S
S424 N426 1.610 . S
N425 S424 1.613 . S
N425 C428 1.350 . S
N426 S424 1.610 . S
N426 C427 1.351 . S
C427 C421 1.428 . S
C427 N426 1.351 . S
C427 C428 1.434 . S
C428 C419 1.429 . S
C428 N425 1.350 . S
C428 C427 1.434 . S
C429 C430 1.369 . S
C429 C431 1.419 . S
C429 H433 0.930 . S
C430 C429 1.369 . S
C430 C439 1.429 . S
C431 C429 1.419 . S
C431 C432 1.363 . S
C431 H434 0.929 . S
C432 C431 1.363 . S
C432 C438 1.428 . S
H433 C429 0.930 . S
H434 C431 0.929 . S
S435 N436 1.613 . S
S435 N437 1.610 . S
N436 S435 1.613 . S
N436 C439 1.350 . S
N437 S435 1.610 . S
N437 C438 1.351 . S
C438 C432 1.428 . S
C438 N437 1.351 . S
C438 C439 1.434 . S
C439 C430 1.429 . S
C439 N436 1.350 . S
C439 C438 1.434 . S
C440 C441 1.369 . S
C440 C442 1.419 . S
C440 H444 0.930 . S
C441 C440 1.369 . S
C441 C450 1.429 . S
C442 C440 1.419 . S
C442 C443 1.363 . S
C442 H445 0.929 . S
C443 C442 1.363 . S
C443 C449 1.428 . S
H444 C440 0.930 . S
H445 C442 0.929 . S
S446 N447 1.613 . S
S446 N448 1.610 . S
N447 S446 1.613 . S
N447 C450 1.350 . S
N448 S446 1.610 . S
N448 C449 1.351 . S
C449 C443 1.428 . S
C449 N448 1.351 . S
C449 C450 1.434 . S
C450 C441 1.429 . S
C450 N447 1.350 . S
C450 C449 1.434 . S
C451 C452 1.369 . S
C451 C453 1.419 . S
C451 H455 0.930 . S
C452 C451 1.369 . S
C452 C461 1.429 . S
C453 C451 1.419 . S
C453 C454 1.363 . S
C453 H456 0.929 . S
C454 C453 1.363 . S
C454 C460 1.428 . S
H455 C451 0.930 . S
H456 C453 0.929 . S
S457 N458 1.613 . S
S457 N459 1.609 1_554 S
N458 S457 1.613 . S
N458 C461 1.350 1_554 S
N459 S457 1.609 1_556 S
N459 C460 1.352 . S
C460 C454 1.428 . S
C460 N459 1.352 . S
C460 C461 1.434 . S
C461 C452 1.429 . S
C461 N458 1.350 1_556 S
C461 C460 1.434 . S
C462 C463 1.369 1_655 S
C462 C464 1.419 . S
C462 H466 0.930 . S
C463 C462 1.369 1_455 S
C463 C472 1.429 . S
C464 C462 1.419 . S
C464 C465 1.363 . S
C464 H467 0.929 . S
C465 C464 1.363 . S
C465 C471 1.428 1_655 S
H466 C462 0.930 . S
H467 C464 0.929 . S
S468 N469 1.613 . S
S468 N470 1.610 . S
N469 S468 1.613 . S
N469 C472 1.350 . S
N470 S468 1.610 . S
N470 C471 1.351 . S
C471 C465 1.428 1_455 S
C471 N470 1.351 . S
C471 C472 1.434 . S
C472 C463 1.429 . S
C472 N469 1.350 . S
C472 C471 1.434 . S
C473 C474 1.369 . S
C473 C475 1.419 1_566 S
C473 H477 0.930 . S
C474 C473 1.369 . S
C474 C483 1.429 . S
C475 C473 1.419 1_544 S
C475 C476 1.363 . S
C475 H478 0.929 . S
C476 C475 1.363 . S
C476 C482 1.428 . S
H477 C473 0.930 . S
H478 C475 0.929 . S
S479 N480 1.606 1_544 S
S479 N481 1.638 . S
N480 S479 1.606 1_566 S
N480 C483 1.350 . S
N481 S479 1.638 . S
N481 C482 1.351 . S
C482 C476 1.428 . S
C482 N481 1.351 . S
C482 C483 1.434 1_544 S
C483 C474 1.429 . S
C483 N480 1.350 . S
C483 C482 1.434 1_566 S
C484 C485 1.369 . S
C484 C486 1.419 . S
C484 H488 0.930 . S
C485 C484 1.369 . S
C485 C494 1.429 . S
C486 C484 1.419 . S
C486 C487 1.363 . S
C486 H489 0.929 . S
C487 C486 1.363 . S
C487 C493 1.428 . S
H488 C484 0.930 . S
H489 C486 0.929 . S
S490 N491 1.613 . S
S490 N492 1.610 1_554 S
N491 S490 1.613 . S
N491 C494 1.350 . S
N492 S490 1.610 1_556 S
N492 C493 1.351 1_556 S
C493 C487 1.428 . S
C493 N492 1.351 1_554 S
C493 C494 1.434 . S
C494 C485 1.429 . S
C494 N491 1.350 . S
C494 C493 1.434 . S
C495 C496 1.369 1_455 S
C495 C497 1.419 . S
C495 H499 0.930 . S
C496 C495 1.369 1_655 S
C496 C505 1.429 . S
C497 C495 1.419 . S
C497 C498 1.363 . S
C497 H500 0.929 . S
C498 C497 1.363 . S
C498 C504 1.428 1_455 S
H499 C495 0.930 . S
H500 C497 0.929 . S
S501 N502 1.613 . S
S501 N503 1.610 . S
N502 S501 1.613 . S
N502 C505 1.350 . S
N503 S501 1.610 . S
N503 C504 1.351 . S
C504 C498 1.428 1_655 S
C504 N503 1.351 . S
C504 C505 1.434 . S
C505 C496 1.429 . S
C505 N502 1.350 . S
C505 C504 1.434 . S
C506 C507 1.369 1_565 S
C506 C508 1.419 . S
C506 H510 0.930 . S
C507 C506 1.369 1_545 S
C507 C516 1.429 . S
C508 C506 1.419 . S
C508 C509 1.363 . S
C508 H511 0.929 . S
C509 C508 1.363 . S
C509 C515 1.428 1_565 S
H510 C506 0.930 . S
H511 C508 0.929 . S
S512 N513 1.613 . S
S512 N514 1.610 . S
N513 S512 1.613 . S
N513 C516 1.350 . S
N514 S512 1.610 . S
N514 C515 1.351 . S
C515 C509 1.428 1_545 S
C515 N514 1.351 . S
C515 C516 1.434 . S
C516 C507 1.429 . S
C516 N513 1.350 . S
C516 C515 1.434 . S
C517 C518 1.369 . S
C517 C519 1.419 . S
C517 H521 0.930 . S
C518 C517 1.369 . S
C518 C527 1.429 . S
C519 C517 1.419 . S
C519 C520 1.363 . S
C519 H522 0.929 . S
C520 C519 1.363 . S
C520 C526 1.428 . S
H521 C517 0.930 . S
H522 C519 0.929 . S
S523 N524 1.613 . S
S523 N525 1.610 . S
N524 S523 1.613 . S
N524 C527 1.350 . S
N525 S523 1.610 . S
N525 C526 1.351 . S
C526 C520 1.428 . S
C526 N525 1.351 . S
C526 C527 1.434 . S
C527 C518 1.429 . S
C527 N524 1.350 . S
C527 C526 1.434 . S
C528 C529 1.369 . S
C528 C530 1.419 . S
C528 H532 0.930 . S
C529 C528 1.369 . S
C529 C538 1.429 . S
C530 C528 1.419 . S
C530 C531 1.363 . S
C530 H533 0.929 . S
C531 C530 1.363 . S
C531 C537 1.428 . S
H532 C528 0.930 . S
H533 C530 0.929 . S
S534 N535 1.613 . S
S534 N536 1.610 . S
N535 S534 1.613 . S
N535 C538 1.350 . S
N536 S534 1.610 . S
N536 C537 1.351 . S
C537 C531 1.428 . S
C537 N536 1.351 . S
C537 C538 1.434 . S
C538 C529 1.429 . S
C538 N535 1.350 . S
C538 C537 1.434 . S
C539 C540 1.369 . S
C539 C541 1.419 . S
C539 H543 0.930 . S
C540 C539 1.369 . S
C540 C549 1.429 . S
C541 C539 1.419 . S
C541 C542 1.363 . S
C541 H544 0.929 . S
C542 C541 1.363 . S
C542 C548 1.428 . S
H543 C539 0.930 . S
H544 C541 0.929 . S
S545 N546 1.613 . S
S545 N547 1.610 . S
N546 S545 1.613 . S
N546 C549 1.350 . S
N547 S545 1.610 . S
N547 C548 1.351 . S
C548 C542 1.428 . S
C548 N547 1.351 . S
C548 C549 1.434 . S
C549 C540 1.429 . S
C549 N546 1.350 . S
C549 C548 1.434 . S
C550 C551 1.369 . S
C550 C552 1.419 . S
C550 H554 0.930 . S
C551 C550 1.369 . S
C551 C560 1.429 . S
C552 C550 1.419 . S
C552 C553 1.363 . S
C552 H555 0.929 . S
C553 C552 1.363 . S
C553 C559 1.428 . S
H554 C550 0.930 . S
H555 C552 0.929 . S
S556 N557 1.613 . S
S556 N558 1.610 . S
N557 S556 1.613 . S
N557 C560 1.350 . S
N558 S556 1.610 . S
N558 C559 1.351 . S
C559 C553 1.428 . S
C559 N558 1.351 . S
C559 C560 1.434 . S
C560 C551 1.429 . S
C560 N557 1.350 . S
C560 C559 1.434 . S
C561 C562 1.369 . S
C561 C563 1.419 . S
C561 H565 0.930 . S
C562 C561 1.369 . S
C562 C571 1.429 . S
C563 C561 1.419 . S
C563 C564 1.363 . S
C563 H566 0.929 . S
C564 C563 1.363 . S
C564 C570 1.428 . S
H565 C561 0.930 . S
H566 C563 0.929 . S
S567 N568 1.613 . S
S567 N569 1.610 . S
N568 S567 1.613 . S
N568 C571 1.350 . S
N569 S567 1.610 . S
N569 C570 1.351 . S
C570 C564 1.428 . S
C570 N569 1.351 . S
C570 C571 1.434 . S
C571 C562 1.429 . S
C571 N568 1.350 . S
C571 C570 1.434 . S
C572 C573 1.369 . S
C572 C574 1.419 . S
C572 H576 0.930 . S
C573 C572 1.369 . S
C573 C582 1.429 . S
C574 C572 1.419 . S
C574 C575 1.363 . S
C574 H577 0.929 1_556 S
C575 C574 1.363 . S
C575 C581 1.428 . S
H576 C572 0.930 . S
H577 C574 0.929 1_554 S
S578 N579 1.613 . S
S578 N580 1.610 . S
N579 S578 1.613 . S
N579 C582 1.350 . S
N580 S578 1.610 . S
N580 C581 1.351 . S
C581 C575 1.428 . S
C581 N580 1.351 . S
C581 C582 1.434 . S
C582 C573 1.429 . S
C582 N579 1.350 . S
C582 C581 1.434 . S
C583 C584 1.369 . S
C583 C585 1.419 1_554 S
C583 H587 0.930 . S
C584 C583 1.369 . S
C584 C593 1.429 . S
C585 C583 1.419 1_556 S
C585 C586 1.363 1_556 S
C585 H588 0.929 . S
C586 C585 1.363 1_554 S
C586 C592 1.428 . S
H587 C583 0.930 . S
H588 C585 0.929 . S
S589 N590 1.613 . S
S589 N591 1.610 . S
N590 S589 1.613 . S
N590 C593 1.350 . S
N591 S589 1.610 . S
N591 C592 1.351 . S
C592 C586 1.428 . S
C592 N591 1.351 . S
C592 C593 1.434 . S
C593 C584 1.429 . S
C593 N590 1.350 . S
C593 C592 1.434 . S
C594 C595 1.369 . S
C594 C596 1.419 . S
C594 H598 0.930 . S
C595 C594 1.369 . S
C595 C604 1.429 . S
C596 C594 1.419 . S
C596 C597 1.363 . S
C596 H599 0.929 . S
C597 C596 1.363 . S
C597 C603 1.428 . S
H598 C594 0.930 . S
H599 C596 0.929 . S
S600 N601 1.613 . S
S600 N602 1.610 . S
N601 S600 1.613 . S
N601 C604 1.350 . S
N602 S600 1.610 . S
N602 C603 1.351 . S
C603 C597 1.428 . S
C603 N602 1.351 . S
C603 C604 1.434 . S
C604 C595 1.429 . S
C604 N601 1.350 . S
C604 C603 1.434 . S
C605 C606 1.369 . S
C605 C607 1.419 . S
C605 H609 0.930 . S
C606 C605 1.369 . S
C606 C615 1.429 . S
C607 C605 1.419 . S
C607 C608 1.363 . S
C607 H610 0.929 . S
C608 C607 1.363 . S
C608 C614 1.428 . S
H609 C605 0.930 . S
H610 C607 0.929 . S
S611 N612 1.613 . S
S611 N613 1.610 . S
N612 S611 1.613 . S
N612 C615 1.350 . S
N613 S611 1.610 . S
N613 C614 1.351 . S
C614 C608 1.428 . S
C614 N613 1.351 . S
C614 C615 1.434 . S
C615 C606 1.429 . S
C615 N612 1.350 . S
C615 C614 1.434 . S
C616 C617 1.369 . S
C616 C618 1.419 . S
C616 H620 0.930 . S
C617 C616 1.369 . S
C617 C626 1.429 . S
C618 C616 1.419 . S
C618 C619 1.363 . S
C618 H621 0.929 . S
C619 C618 1.363 . S
C619 C625 1.428 . S
H620 C616 0.930 . S
H621 C618 0.929 . S
S622 N623 1.613 . S
S622 N624 1.610 . S
N623 S622 1.613 . S
N623 C626 1.350 . S
N624 S622 1.610 . S
N624 C625 1.351 . S
C625 C619 1.428 . S
C625 N624 1.351 . S
C625 C626 1.434 . S
C626 C617 1.429 . S
C626 N623 1.350 . S
C626 C625 1.434 . S
C627 C628 1.369 . S
C627 C629 1.419 1_556 S
C627 H631 0.930 . S
C628 C627 1.369 . S
C628 C637 1.429 1_556 S
C629 C627 1.419 1_554 S
C629 C630 1.363 . S
C629 H632 0.929 . S
C630 C629 1.363 . S
C630 C636 1.428 . S
H631 C627 0.930 . S
H632 C629 0.929 . S
S633 N634 1.613 . S
S633 N635 1.610 . S
N634 S633 1.613 . S
N634 C637 1.350 . S
N635 S633 1.610 . S
N635 C636 1.351 . S
C636 C630 1.428 . S
C636 N635 1.351 . S
C636 C637 1.434 . S
C637 C628 1.429 1_554 S
C637 N634 1.350 . S
C637 C636 1.434 . S
C638 C639 1.369 . S
C638 C640 1.419 . S
C638 H642 0.930 . S
C639 C638 1.369 . S
C639 C648 1.429 . S
C640 C638 1.419 . S
C640 C641 1.363 . S
C640 H643 0.929 . S
C641 C640 1.363 . S
C641 C647 1.428 . S
H642 C638 0.930 . S
H643 C640 0.929 . S
S644 N645 1.613 . S
S644 N646 1.610 . S
N645 S644 1.613 . S
N645 C648 1.350 . S
N646 S644 1.610 . S
N646 C647 1.351 . S
C647 C641 1.428 . S
C647 N646 1.351 . S
C647 C648 1.434 . S
C648 C639 1.429 . S
C648 N645 1.350 . S
C648 C647 1.434 . S
C649 C650 1.369 . S
C649 C651 1.419 . S
C649 H653 0.930 . S
C650 C649 1.369 . S
C650 C659 1.429 . S
C651 C649 1.419 . S
C651 C652 1.363 . S
C651 H654 0.929 . S
C652 C651 1.363 . S
C652 C658 1.428 . S
H653 C649 0.930 . S
H654 C651 0.929 . S
S655 N656 1.613 . S
S655 N657 1.610 . S
N656 S655 1.613 . S
N656 C659 1.350 . S
N657 S655 1.610 . S
N657 C658 1.351 . S
C658 C652 1.428 . S
C658 N657 1.351 . S
C658 C659 1.434 . S
C659 C650 1.429 . S
C659 N656 1.350 . S
C659 C658 1.434 . S
C660 C661 1.369 . S
C660 C662 1.419 . S
C660 H664 0.930 . S
C661 C660 1.369 . S
C661 C670 1.429 . S
C662 C660 1.419 . S
C662 C663 1.363 . S
C662 H665 0.929 . S
C663 C662 1.363 . S
C663 C669 1.428 . S
H664 C660 0.930 . S
H665 C662 0.929 . S
S666 N667 1.613 . S
S666 N668 1.610 . S
N667 S666 1.613 . S
N667 C670 1.350 . S
N668 S666 1.610 . S
N668 C669 1.351 . S
C669 C663 1.428 . S
C669 N668 1.351 . S
C669 C670 1.434 . S
C670 C661 1.429 . S
C670 N667 1.350 . S
C670 C669 1.434 . S
C671 C672 1.369 . S
C671 C673 1.419 . S
C671 H675 0.930 . S
C672 C671 1.369 . S
C672 C681 1.429 . S
C673 C671 1.419 . S
C673 C674 1.363 . S
C673 H676 0.929 . S
C674 C673 1.363 . S
C674 C680 1.428 . S
H675 C671 0.930 . S
H676 C673 0.929 . S
S677 N678 1.613 . S
S677 N679 1.610 . S
N678 S677 1.613 . S
N678 C681 1.350 . S
N679 S677 1.610 . S
N679 C680 1.351 . S
C680 C674 1.428 . S
C680 N679 1.351 . S
C680 C681 1.434 . S
C681 C672 1.429 . S
C681 N678 1.350 . S
C681 C680 1.434 . S
C682 C683 1.369 . S
C682 C684 1.419 . S
C682 H686 0.930 . S
C683 C682 1.369 . S
C683 C692 1.429 . S
C684 C682 1.419 . S
C684 C685 1.363 . S
C684 H687 0.929 . S
C685 C684 1.363 . S
C685 C691 1.428 . S
H686 C682 0.930 . S
H687 C684 0.929 . S
S688 N689 1.613 . S
S688 N690 1.610 . S
N689 S688 1.613 . S
N689 C692 1.350 . S
N690 S688 1.610 . S
N690 C691 1.351 . S
C691 C685 1.428 . S
C691 N690 1.351 . S
C691 C692 1.434 . S
C692 C683 1.429 . S
C692 N689 1.350 . S
C692 C691 1.434 . S
C693 C694 1.369 . S
C693 C695 1.419 . S
C693 H697 0.930 . S
C694 C693 1.369 . S
C694 C703 1.429 . S
C695 C693 1.419 . S
C695 C696 1.363 . S
C695 H698 0.929 . S
C696 C695 1.363 . S
C696 C702 1.428 . S
H697 C693 0.930 . S
H698 C695 0.929 . S
S699 N700 1.613 . S
S699 N701 1.610 . S
N700 S699 1.613 . S
N700 C703 1.350 . S
N701 S699 1.610 . S
N701 C702 1.351 . S
C702 C696 1.428 . S
C702 N701 1.351 . S
C702 C703 1.434 . S
C703 C694 1.429 . S
C703 N700 1.350 . S
C703 C702 1.434 . S
C704 C705 1.369 . S
C704 C706 1.419 1_556 S
C704 H708 0.930 . S
C705 C704 1.369 . S
C705 C714 1.429 . S
C706 C704 1.419 1_554 S
C706 C707 1.363 . S
C706 H709 0.929 . S
C707 C706 1.363 . S
C707 C713 1.428 1_554 S
H708 C704 0.930 . S
H709 C706 0.929 . S
S710 N711 1.613 . S
S710 N712 1.610 . S
N711 S710 1.613 . S
N711 C714 1.350 . S
N712 S710 1.610 . S
N712 C713 1.351 . S
C713 C707 1.428 1_556 S
C713 N712 1.351 . S
C713 C714 1.434 . S
C714 C705 1.429 . S
C714 N711 1.350 . S
C714 C713 1.434 . S
C715 C716 1.369 . S
C715 C717 1.419 . S
C715 H719 0.930 . S
C716 C715 1.369 . S
C716 C725 1.429 . S
C717 C715 1.419 . S
C717 C718 1.363 . S
C717 H720 0.929 1_554 S
C718 C717 1.363 . S
C718 C724 1.428 . S
H719 C715 0.930 . S
H720 C717 0.929 1_556 S
S721 N722 1.613 . S
S721 N723 1.610 . S
N722 S721 1.613 . S
N722 C725 1.350 . S
N723 S721 1.610 . S
N723 C724 1.351 . S
C724 C718 1.428 . S
C724 N723 1.351 . S
C724 C725 1.434 . S
C725 C716 1.429 . S
C725 N722 1.350 . S
C725 C724 1.434 . S
C397 C285 1.595 . S
C399 C21 1.594 . S
C408 C318 1.595 . S
C410 C54 1.594 . S
C419 C351 1.595 . S
C421 C87 1.595 . S
C430 C384 1.593 . S
C432 C120 1.594 . S
C441 C153 1.595 . S
C443 C219 1.594 . S
C452 C252 1.594 . S
C454 C186 1.593 . S
C463 C7 1.407 . S
C465 C370 1.418 . S
C474 C205 1.415 . S
C476 C40 1.418 . S
C485 C73 1.408 . S
C487 C238 1.419 . S
C496 C106 1.407 . S
C498 C271 1.417 . S
C507 C304 1.410 . S
C509 C139 1.419 . S
C518 C172 1.413 . S
C520 C337 1.409 . S
C529 C18 1.487 . S
C531 C348 1.479 . S
C540 C51 1.481 . S
C542 C381 1.485 . S
C551 C216 1.479 . S
C553 C84 1.486 . S
C562 C249 1.487 . S
C564 C117 1.479 . S
C573 C150 1.486 . S
C575 C282 1.479 1_556 S
C584 C315 1.486 . S
C586 C183 1.481 1_554 S
C595 N13 1.253 . S
C597 N2 1.259 . S
C606 N35 1.254 . S
C608 N46 1.259 . S
C617 N79 1.259 . S
C619 N68 1.255 1_556 S
C628 N112 1.259 . S
C630 N101 1.254 . S
C639 N134 1.259 . S
C641 N145 1.255 . S
C650 N167 1.256 . S
C652 N178 1.257 . S
C661 N200 1.259 . S
C663 N211 1.255 . S
C672 N233 1.259 . S
C674 N244 1.254 . S
C683 N266 1.255 . S
C685 N277 1.257 . S
C694 N299 1.255 . S
C696 N310 1.257 . S
C705 N332 1.253 . S
C707 N343 1.259 . S
C716 N376 1.255 . S
C718 N365 1.258 1_554 S
