# Generated by pormake.
# Topology fee, (5)-cn, num edge types: 1
# Building blocks:
#     Node 0, Type 0, BuildingBlock: BEQFEK_clean_sbu_0, # of connection points: 5
#     Node 1, Type 0, BuildingBlock: BEQFEK_clean_sbu_0, # of connection points: 5
#     Node 2, Type 0, BuildingBlock: BEQFEK_clean_sbu_0, # of connection points: 5
#     Node 3, Type 0, BuildingBlock: BEQFEK_clean_sbu_0, # of connection points: 5
#     Edge 4, Type (0, 0), BuildingBlock: TEMPAE_clean_linker_10, # of connection points: 2
#     Edge 5, Type (0, 0), BuildingBlock: TEMPAE_clean_linker_10, # of connection points: 2
#     Edge 6, Type (0, 0), BuildingBlock: TEMPAE_clean_linker_10, # of connection points: 2
#     Edge 7, Type (0, 0), BuildingBlock: TEMPAE_clean_linker_10, # of connection points: 2
#     Edge 8, Type (0, 0), BuildingBlock: TEMPAE_clean_linker_10, # of connection points: 2
#     Edge 9, Type (0, 0), BuildingBlock: TEMPAE_clean_linker_10, # of connection points: 2
#     Edge 10, Type (0, 0), BuildingBlock: TEMPAE_clean_linker_10, # of connection points: 2
#     Edge 11, Type (0, 0), BuildingBlock: TEMPAE_clean_linker_10, # of connection points: 2
#     Edge 12, Type (0, 0), BuildingBlock: TEMPAE_clean_linker_10, # of connection points: 2
#     Edge 13, Type (0, 0), BuildingBlock: TEMPAE_clean_linker_10, # of connection points: 2
# Relax obj value: 0.038
# Max RMSD: 0.132
# Mean RMSD: 0.102
data_MOF--net-fee--node1-BEQFEK_clean_sbu_0--edge1-TEMPAE_clean_linker_10
_symmetry_space_group_name_H-M    P1
_symmetry_Int_Tables_number       1
_symmetry_cell_setting            triclinic
loop_
_symmetry_equiv_pos_as_xyz
'x, y, z'
_cell_length_a     38.679362
_cell_length_b     38.60074
_cell_length_c     19.71143
_cell_angle_alpha  89.880277
_cell_angle_beta   88.03379
_cell_angle_gamma 96.000452
loop_
_atom_site_label
_atom_site_type_symbol
_atom_site_fract_x
_atom_site_fract_y
_atom_site_fract_z
_atom_type_partial_charge
Co0 Co 0.22731 0.48769 0.16296 0.0
Co1 Co 0.22325 0.48643 0.00429 0.0
C2 C 0.26783 0.54205 0.0738 0.0
O3 O 0.25747 0.52961 0.13174 0.0
O4 O 0.25752 0.5277 0.01882 0.0
C5 C 0.21946 0.51725 0.29561 0.0
O6 O 0.21675 0.54616 0.26181 0.0
C7 C 0.21843 0.50299 0.85803 0.0
C8 C 0.18987 0.45405 0.82286 0.0
C9 C 0.20455 0.48656 0.80092 0.0
N10 N 0.2121 0.48107 0.91122 0.0
N11 N 0.1952 0.45187 0.88968 0.0
C12 C 0.23548 0.53944 0.86325 0.0
H13 H 0.2641 0.53887 0.86342 0.0
H14 H 0.22715 0.55119 0.91166 0.0
H15 H 0.22893 0.55575 0.82005 0.0
C16 C 0.15064 0.48628 0.15173 0.0
N17 N 0.18311 0.48691 0.12432 0.0
N18 N 0.18182 0.48899 0.05783 0.0
C19 C 0.14861 0.4908 0.0409 0.0
C20 C 0.12765 0.48871 0.0997 0.0
C21 C 0.14176 0.48168 0.22591 0.0
H22 H 0.15926 0.46436 0.24912 0.0
H23 H 0.14536 0.50742 0.25107 0.0
H24 H 0.11437 0.47043 0.23462 0.0
O25 O 0.25014 0.44562 0.13858 0.0
O26 O 0.24466 0.44371 0.02688 0.0
H27 H 0.13364 0.47196 0.94319 0.0
H28 H 0.11272 0.50929 0.97083 0.0
C29 C 0.13749 0.49714 0.97031 0.0
H30 H 0.15776 0.51457 0.94245 0.0
H31 H 0.18707 0.43047 0.92088 0.0
O32 O 0.22346 0.48946 0.26312 0.0
C33 C 0.25452 0.43097 0.0816 0.0
Co34 Co 0.46735 0.21894 0.14271 0.0
Co35 Co 0.47732 0.21558 0.98373 0.0
C36 C 0.41695 0.24688 0.05217 0.0
O37 O 0.42599 0.23902 0.11126 0.0
O38 O 0.43475 0.24017 0.99902 0.0
C39 C 0.43677 0.20747 0.27944 0.0
O40 O 0.40699 0.2001 0.24984 0.0
C41 C 0.46113 0.20432 0.83928 0.0
C42 C 0.51337 0.19891 0.79417 0.0
C43 C 0.47881 0.19907 0.77823 0.0
N44 N 0.48425 0.20703 0.88895 0.0
N45 N 0.51543 0.20397 0.86147 0.0
C46 C 0.42288 0.2056 0.85093 0.0
H47 H 0.41442 0.19377 0.90093 0.0
H48 H 0.40802 0.19179 0.8101 0.0
H49 H 0.41727 0.23322 0.85157 0.0
C50 C 0.47219 0.14305 0.12817 0.0
N51 N 0.47112 0.17506 0.10155 0.0
N52 N 0.47518 0.1735 0.03506 0.0
C53 C 0.4794 0.14045 0.01729 0.0
C54 C 0.47766 0.12001 0.07577 0.0
C55 C 0.46705 0.13478 0.20229 0.0
H56 H 0.44171 0.14288 0.2204 0.0
H57 H 0.467 0.10659 0.21307 0.0
H58 H 0.4878 0.14978 0.23081 0.0
O59 O 0.50941 0.25193 0.12107 0.0
O60 O 0.51811 0.2469 0.00975 0.0
H61 H 0.49189 0.10168 0.94269 0.0
H62 H 0.46824 0.13621 0.91185 0.0
C63 C 0.48865 0.12977 0.94653 0.0
H64 H 0.51355 0.1446 0.92976 0.0
H65 H 0.53819 0.20547 0.88873 0.0
O66 O 0.46439 0.21512 0.2433 0.0
C67 C 0.52708 0.25986 0.06651 0.0
Co68 Co 0.77503 0.50527 0.01252 0.0
Co69 Co 0.76755 0.49653 0.1704 0.0
C70 C 0.74435 0.55829 0.10098 0.0
O71 O 0.75518 0.54775 0.04379 0.0
O72 O 0.74655 0.5408 0.15532 0.0
C73 C 0.7671 0.52711 0.87779 0.0
O74 O 0.74056 0.54077 0.90648 0.0
C75 C 0.76933 0.50702 0.31895 0.0
C76 C 0.7736 0.45308 0.35335 0.0
C77 C 0.77176 0.48669 0.37646 0.0
N78 N 0.77015 0.48628 0.26433 0.0
N79 N 0.77265 0.45413 0.2853 0.0
C80 C 0.76395 0.54482 0.31542 0.0
H81 H 0.74071 0.54796 0.28549 0.0
H82 H 0.78671 0.55931 0.2886 0.0
H83 H 0.76007 0.55612 0.36641 0.0
C84 C 0.84865 0.49818 0.04141 0.0
N85 N 0.81515 0.49926 0.06135 0.0
N86 N 0.81243 0.49772 0.128 0.0
C87 C 0.84428 0.49626 0.15281 0.0
C88 C 0.86833 0.4963 0.09877 0.0
C89 C 0.86104 0.49766 0.96867 0.0
H90 H 0.84207 0.48097 0.93889 0.0
H91 H 0.86281 0.52449 0.94759 0.0
H92 H 0.88688 0.48772 0.96329 0.0
O93 O 0.73935 0.46464 0.02308 0.0
O94 O 0.73658 0.45734 0.1349 0.0
H95 H 0.84439 0.47126 0.24961 0.0
H96 H 0.87969 0.50524 0.23534 0.0
C97 C 0.85177 0.49741 0.22684 0.0
H98 H 0.83615 0.51626 0.25276 0.0
H99 H 0.7736 0.43284 0.25299 0.0
O100 O 0.78647 0.5108 0.91448 0.0
C101 C 0.72718 0.44804 0.07595 0.0
Co102 Co 0.52627 0.76855 0.16093 0.0
Co103 Co 0.52247 0.77123 0.002 0.0
C104 C 0.57954 0.73927 0.07031 0.0
O105 O 0.56773 0.7472 0.12862 0.0
O106 O 0.56443 0.7462 0.01611 0.0
C107 C 0.55664 0.7811 0.29152 0.0
O108 O 0.58592 0.78825 0.25607 0.0
C109 C 0.5397 0.78158 0.85499 0.0
C110 C 0.48782 0.78901 0.81717 0.0
C111 C 0.52223 0.78783 0.79652 0.0
N112 N 0.51658 0.77941 0.9078 0.0
N113 N 0.48562 0.78359 0.88462 0.0
C114 C 0.57777 0.77911 0.86137 0.0
H115 H 0.58652 0.79022 0.91054 0.0
H116 H 0.59299 0.79292 0.81884 0.0
H117 H 0.58255 0.75126 0.86047 0.0
C118 C 0.52356 0.8447 0.14306 0.0
N119 N 0.52492 0.81241 0.11803 0.0
N120 N 0.5241 0.81369 0.05135 0.0
C121 C 0.52206 0.84688 0.03179 0.0
C122 C 0.52163 0.86768 0.08928 0.0
C123 C 0.52503 0.85323 0.21702 0.0
H124 H 0.55016 0.84669 0.23615 0.0
H125 H 0.523 0.88121 0.22689 0.0
H126 H 0.50387 0.83712 0.24543 0.0
O127 O 0.48382 0.73651 0.1429 0.0
O128 O 0.48055 0.74087 0.03103 0.0
H129 H 0.49159 0.84509 0.94351 0.0
H130 H 0.51688 0.88609 0.95408 0.0
C131 C 0.51697 0.8576 0.96003 0.0
H132 H 0.53778 0.84856 0.9265 0.0
H133 H 0.46294 0.78289 0.91507 0.0
O134 O 0.52855 0.77313 0.26083 0.0
C135 C 0.46851 0.72871 0.08797 0.0
C136 C 0.2366 0.51493 0.69967 0.0
C137 C 0.20571 0.49882 0.72982 0.0
C138 C 0.23913 0.52196 0.62963 0.0
C139 C 0.21003 0.51269 0.58923 0.0
C140 C 0.17829 0.498 0.62021 0.0
C141 C 0.17663 0.49095 0.69008 0.0
C142 C 0.2735 0.53736 0.59834 0.0
C143 C 0.14657 0.48809 0.57907 0.0
C144 C 0.20871 0.54576 0.40751 0.0
C145 C 0.21771 0.51673 0.37075 0.0
C146 C 0.20649 0.54509 0.47883 0.0
C147 C 0.21368 0.51479 0.51398 0.0
C148 C 0.22328 0.48565 0.47712 0.0
C149 C 0.22503 0.48692 0.40604 0.0
C150 C 0.19593 0.57654 0.51652 0.0
C151 C 0.23136 0.45289 0.51275 0.0
H152 H 0.25934 0.52033 0.73005 0.0
H153 H 0.15273 0.47849 0.71351 0.0
H154 H 0.28503 0.51736 0.56702 0.0
H155 H 0.26971 0.55944 0.56423 0.0
H156 H 0.29231 0.54667 0.63735 0.0
H157 H 0.123 0.48048 0.6117 0.0
H158 H 0.1414 0.51008 0.54588 0.0
H159 H 0.15128 0.46586 0.54564 0.0
H160 H 0.203 0.56889 0.38059 0.0
H161 H 0.23219 0.46444 0.37809 0.0
H162 H 0.21591 0.58555 0.55343 0.0
H163 H 0.17123 0.56942 0.54593 0.0
H164 H 0.19232 0.59848 0.48181 0.0
H165 H 0.25227 0.4592 0.54929 0.0
H166 H 0.23973 0.43305 0.47672 0.0
H167 H 0.20802 0.4413 0.54219 0.0
C168 C 0.47801 0.17253 0.66338 0.0
C169 C 0.46565 0.19665 0.70872 0.0
C170 C 0.46948 0.17247 0.59479 0.0
C171 C 0.4488 0.19776 0.57067 0.0
C172 C 0.43531 0.22148 0.61678 0.0
C173 C 0.44377 0.22051 0.68549 0.0
C174 C 0.48389 0.14634 0.54759 0.0
C175 C 0.41366 0.24918 0.59289 0.0
C176 C 0.46705 0.22376 0.38621 0.0
C177 C 0.4387 0.20594 0.35421 0.0
C178 C 0.47001 0.22208 0.45679 0.0
C179 C 0.44435 0.20148 0.49637 0.0
C180 C 0.41549 0.1836 0.46448 0.0
C181 C 0.41283 0.18632 0.39372 0.0
C182 C 0.50089 0.24205 0.48889 0.0
C183 C 0.38796 0.16091 0.50486 0.0
H184 H 0.49495 0.15407 0.68143 0.0
H185 H 0.43479 0.23967 0.72018 0.0
H186 H 0.46295 0.13336 0.51657 0.0
H187 H 0.50372 0.15993 0.51208 0.0
H188 H 0.49618 0.12608 0.57551 0.0
H189 H 0.40233 0.26333 0.63587 0.0
H190 H 0.43013 0.26831 0.56045 0.0
H191 H 0.39224 0.23753 0.56151 0.0
H192 H 0.48697 0.23922 0.35599 0.0
H193 H 0.39094 0.17236 0.36916 0.0
H194 H 0.51714 0.22361 0.51253 0.0
H195 H 0.49194 0.25906 0.52977 0.0
H196 H 0.51742 0.25846 0.4515 0.0
H197 H 0.39985 0.13922 0.52893 0.0
H198 H 0.36652 0.14973 0.47285 0.0
H199 H 0.37682 0.17615 0.54632 0.0
C200 C 0.79767 0.50922 0.77179 0.0
C201 C 0.77206 0.52751 0.8031 0.0
C202 C 0.7999 0.50592 0.701 0.0
C203 C 0.776 0.52137 0.66074 0.0
C204 C 0.75138 0.5415 0.69177 0.0
C205 C 0.74968 0.54431 0.76267 0.0
C206 C 0.82661 0.48435 0.66964 0.0
C207 C 0.72564 0.55855 0.65038 0.0
C208 C 0.79286 0.52643 0.4698 0.0
C209 C 0.77189 0.49697 0.4484 0.0
C210 C 0.79427 0.53505 0.53888 0.0
C211 C 0.77441 0.51348 0.58722 0.0
C212 C 0.75317 0.48373 0.56562 0.0
C213 C 0.75235 0.47574 0.49643 0.0
C214 C 0.8174 0.5668 0.56024 0.0
C215 C 0.73154 0.46012 0.61565 0.0
H216 H 0.81524 0.49638 0.80267 0.0
H217 H 0.73003 0.55878 0.78644 0.0
H218 H 0.81329 0.46004 0.64869 0.0
H219 H 0.84108 0.49869 0.6269 0.0
H220 H 0.84554 0.47721 0.70703 0.0
H221 H 0.71069 0.57626 0.68134 0.0
H222 H 0.73921 0.57363 0.60756 0.0
H223 H 0.70701 0.53819 0.62827 0.0
H224 H 0.80881 0.54223 0.43273 0.0
H225 H 0.73631 0.45282 0.47974 0.0
H226 H 0.83791 0.55883 0.59317 0.0
H227 H 0.80205 0.58437 0.59054 0.0
H228 H 0.8301 0.5816 0.51611 0.0
H229 H 0.74869 0.44897 0.65205 0.0
H230 H 0.71598 0.43836 0.59031 0.0
H231 H 0.71355 0.47528 0.64547 0.0
C232 C 0.55608 0.76634 0.69774 0.0
C233 C 0.53534 0.7908 0.72534 0.0
C234 C 0.56375 0.76568 0.62758 0.0
C235 C 0.5506 0.7903 0.58455 0.0
C236 C 0.53138 0.8163 0.61298 0.0
C237 C 0.52363 0.81595 0.68296 0.0
C238 C 0.58392 0.73727 0.59911 0.0
C239 C 0.51742 0.8434 0.56907 0.0
C240 C 0.58324 0.80129 0.40063 0.0
C241 C 0.55603 0.7827 0.3665 0.0
C242 C 0.58214 0.80374 0.4718 0.0
C243 C 0.55347 0.78668 0.50951 0.0
C244 C 0.5264 0.76716 0.47527 0.0
C245 C 0.52786 0.76569 0.40422 0.0
C246 C 0.61117 0.82525 0.50652 0.0
C247 C 0.49561 0.74814 0.51366 0.0
H248 H 0.56459 0.74647 0.73033 0.0
H249 H 0.50761 0.8349 0.70447 0.0
H250 H 0.56627 0.71861 0.57037 0.0
H251 H 0.60491 0.7483 0.56315 0.0
H252 H 0.59565 0.72272 0.6396 0.0
H253 H 0.50668 0.86417 0.59969 0.0
H254 H 0.5382 0.85561 0.53385 0.0
H255 H 0.49645 0.83079 0.53768 0.0
H256 H 0.60502 0.81458 0.37164 0.0
H257 H 0.50692 0.751 0.37815 0.0
H258 H 0.62244 0.80935 0.54539 0.0
H259 H 0.60071 0.84738 0.53326 0.0
H260 H 0.63229 0.83575 0.47017 0.0
H261 H 0.50467 0.73051 0.55228 0.0
H262 H 0.4778 0.7325 0.47967 0.0
H263 H 0.48067 0.76714 0.54098 0.0
C264 C 0.92925 0.51849 0.0636 0.0
C265 C 0.90631 0.49504 0.1019 0.0
C266 C 0.96532 0.51736 0.0656 0.0
C267 C 0.97866 0.49247 0.10764 0.0
C268 C 0.95556 0.46906 0.14721 0.0
C269 C 0.91959 0.47047 0.14345 0.0
C270 C 0.98913 0.54257 0.02225 0.0
C271 C 0.96884 0.44235 0.193 0.0
C272 C 0.06858 0.46743 0.06102 0.0
C273 C 0.08939 0.48843 0.10472 0.0
C274 C 0.03244 0.46827 0.06189 0.0
C275 C 0.01674 0.49027 0.10839 0.0
C276 C 0.03755 0.51078 0.15411 0.0
C277 C 0.07375 0.50976 0.15143 0.0
C278 C 0.01116 0.44613 0.01214 0.0
C279 C 0.02165 0.53423 0.20492 0.0
H280 H 0.91894 0.53781 0.03222 0.0
H281 H 0.90178 0.45213 0.1726 0.0
H282 H 0.0075 0.55844 0.05467 0.0
H283 H 0.0049 0.52798 0.98644 0.0
H284 H 0.97458 0.56039 0.99257 0.0
H285 H 0.9475 0.42712 0.22274 0.0
H286 H 0.98306 0.42402 0.16225 0.0
H287 H 0.98749 0.45536 0.22879 0.0
H288 H 0.08065 0.45049 0.02568 0.0
H289 H 0.0899 0.52622 0.18485 0.0
H290 H 0.99754 0.46303 0.9787 0.0
H291 H 0.99093 0.42849 0.03976 0.0
H292 H 0.02736 0.43014 0.97985 0.0
H293 H 0.00941 0.55476 0.17786 0.0
H294 H 0.0412 0.54698 0.23939 0.0
H295 H 0.00085 0.51907 0.23599 0.0
C296 C 0.53792 0.92934 0.05287 0.0
C297 C 0.51657 0.90508 0.09244 0.0
C298 C 0.53171 0.96447 0.05128 0.0
C299 C 0.5042 0.97568 0.09208 0.0
C300 C 0.48339 0.95145 0.13417 0.0
C301 C 0.48951 0.91628 0.13301 0.0
C302 C 0.554 0.98939 0.00469 0.0
C303 C 0.45442 0.96259 0.1797 0.0
C304 C 0.50802 0.07268 0.12632 0.0
C305 C 0.48363 0.0829 0.08143 0.0
C306 C 0.51435 0.03768 0.13162 0.0
C307 C 0.49667 0.0126 0.08937 0.0
C308 C 0.47211 0.02286 0.04368 0.0
C309 C 0.46548 0.05787 0.04111 0.0
C310 C 0.54005 0.02758 0.18217 0.0
C311 C 0.45328 0.997 0.99676 0.0
H312 H 0.5591 0.92063 0.02213 0.0
H313 H 0.47279 0.89739 0.16313 0.0
H314 H 0.5374 0.00114 0.96802 0.0
H315 H 0.56711 0.01099 0.0344 0.0
H316 H 0.57415 0.9764 0.97584 0.0
H317 H 0.4424 0.94104 0.21296 0.0
H318 H 0.46444 0.98462 0.21209 0.0
H319 H 0.4339 0.97189 0.14845 0.0
H320 H 0.52234 0.09215 0.15698 0.0
H321 H 0.44631 0.06579 0.00701 0.0
H322 H 0.56246 0.01742 0.1551 0.0
H323 H 0.52768 0.00641 0.21585 0.0
H324 H 0.54999 0.04988 0.21409 0.0
H325 H 0.47241 0.98431 0.96471 0.0
H326 H 0.43563 0.00941 0.96307 0.0
H327 H 0.43773 0.97619 0.02678 0.0
C328 C 0.35897 0.26263 0.09295 0.0
C329 C 0.38734 0.26769 0.04657 0.0
C330 C 0.33332 0.28578 0.09531 0.0
C331 C 0.33697 0.31537 0.0521 0.0
C332 C 0.3648 0.31972 0.00314 0.0
C333 C 0.38937 0.29542 0.00021 0.0
C334 C 0.30327 0.27948 0.14628 0.0
C335 C 0.37012 0.35135 0.95727 0.0
C336 C 0.26485 0.37375 0.03022 0.0
C337 C 0.27355 0.39986 0.07784 0.0
C338 C 0.28436 0.34518 0.02316 0.0
C339 C 0.314 0.34358 0.06277 0.0
C340 C 0.32267 0.36981 0.11131 0.0
C341 C 0.30193 0.39733 0.11908 0.0
C342 C 0.27355 0.31701 0.97285 0.0
C343 C 0.35458 0.36954 0.15332 0.0
H344 H 0.35731 0.24099 0.12849 0.0
H345 H 0.41148 0.29948 0.96472 0.0
H346 H 0.30682 0.2984 0.18838 0.0
H347 H 0.27841 0.28346 0.12239 0.0
H348 H 0.30119 0.25276 0.16812 0.0
H349 H 0.39164 0.34966 0.91901 0.0
H350 H 0.346 0.35475 0.93034 0.0
H351 H 0.37626 0.37501 0.98834 0.0
H352 H 0.24272 0.37566 0.99861 0.0
H353 H 0.30883 0.41773 0.15541 0.0
H354 H 0.27184 0.29103 0.99771 0.0
H355 H 0.29339 0.31716 0.93086 0.0
H356 H 0.24805 0.32044 0.95085 0.0
H357 H 0.35294 0.34531 0.18409 0.0
H358 H 0.35792 0.39218 0.18806 0.0
H359 H 0.37813 0.36994 0.11941 0.0
C360 C 0.67402 0.41947 0.02312 0.0
C361 C 0.70039 0.41827 0.06971 0.0
C362 C 0.64635 0.39291 0.02161 0.0
C363 C 0.64583 0.36399 0.06615 0.0
C364 C 0.6733 0.36198 0.11117 0.0
C365 C 0.69994 0.38952 0.11331 0.0
C366 C 0.61702 0.39647 0.97429 0.0
C367 C 0.67429 0.33102 0.15775 0.0
C368 C 0.55917 0.31306 0.11476 0.0
C369 C 0.55808 0.28555 0.06841 0.0
C370 C 0.58749 0.33893 0.11418 0.0
C371 C 0.61584 0.33655 0.06757 0.0
C372 C 0.61529 0.30822 0.02199 0.0
C373 C 0.58611 0.28334 0.0222 0.0
C374 C 0.58671 0.36923 0.16237 0.0
C375 C 0.6455 0.30419 0.97309 0.0
H376 H 0.67424 0.44194 0.98992 0.0
H377 H 0.72052 0.38857 0.14908 0.0
H378 H 0.61362 0.37357 0.9404 0.0
H379 H 0.59229 0.39724 0.00425 0.0
H380 H 0.62155 0.42041 0.94246 0.0
H381 H 0.69895 0.33209 0.18533 0.0
H382 H 0.65231 0.32995 0.1956 0.0
H383 H 0.67123 0.3065 0.12825 0.0
H384 H 0.53733 0.31495 0.15006 0.0
H385 H 0.58536 0.26191 0.98661 0.0
H386 H 0.58917 0.39406 0.13325 0.0
H387 H 0.60911 0.3702 0.19622 0.0
H388 H 0.56236 0.36761 0.19431 0.0
H389 H 0.649 0.32649 0.93707 0.0
H390 H 0.64176 0.2797 0.9435 0.0
H391 H 0.66989 0.30436 0.00121 0.0
C392 C 0.61018 0.69074 0.02249 0.0
C393 C 0.60962 0.71879 0.06724 0.0
C394 C 0.63512 0.66702 0.0279 0.0
C395 C 0.66066 0.67227 0.0778 0.0
C396 C 0.66165 0.70203 0.11974 0.0
C397 C 0.63569 0.72461 0.11481 0.0
C398 C 0.63276 0.63522 0.98312 0.0
C399 C 0.68927 0.70928 0.17165 0.0
C400 C 0.69625 0.59124 0.14428 0.0
C401 C 0.72595 0.58986 0.10217 0.0
C402 C 0.67506 0.61834 0.13766 0.0
C403 C 0.68454 0.64522 0.08936 0.0
C404 C 0.71576 0.64507 0.04983 0.0
C405 C 0.73577 0.617 0.05581 0.0
C406 C 0.64159 0.61718 0.17978 0.0
C407 C 0.72744 0.67394 -0.00023 0.0
H408 H 0.5898 0.68608 0.98616 0.0
H409 H 0.63533 0.74649 0.14918 0.0
H410 H 0.65801 0.6331 0.95591 0.0
H411 H 0.62687 0.61145 0.01498 0.0
H412 H 0.61226 0.63572 0.94511 0.0
H413 H 0.68928 0.73581 0.19341 0.0
H414 H 0.68472 0.69003 0.21368 0.0
H415 H 0.7154 0.70656 0.14854 0.0
H416 H 0.68848 0.57006 0.17963 0.0
H417 H 0.75889 0.61599 0.02345 0.0
H418 H 0.61915 0.61512 0.14589 0.0
H419 H 0.64078 0.64159 0.20906 0.0
H420 H 0.63833 0.59483 0.21584 0.0
H421 H 0.70975 0.67262 0.95656 0.0
H422 H 0.75437 0.67222 0.9795 0.0
H423 H 0.72626 0.69972 0.02403 0.0
C424 C 0.43385 0.6746 0.13107 0.0
C425 C 0.43669 0.70413 0.08915 0.0
C426 C 0.40521 0.64922 0.12743 0.0
C427 C 0.37829 0.65426 0.08255 0.0
C428 C 0.38041 0.68484 0.04223 0.0
C429 C 0.40995 0.70911 0.04507 0.0
C430 C 0.40434 0.6165 0.16985 0.0
C431 C 0.35167 0.69175 0.99568 0.0
C432 C 0.32189 0.57424 0.02365 0.0
C433 C 0.29408 0.5726 0.07129 0.0
C434 C 0.34945 0.60086 0.02645 0.0
C435 C 0.34841 0.62704 0.07658 0.0
C436 C 0.31942 0.62641 0.12255 0.0
C437 C 0.29289 0.59878 0.12019 0.0
C438 C 0.38035 0.60011 0.97773 0.0
C439 C 0.31672 0.65454 0.17501 0.0
H440 H 0.45476 0.67063 0.1646 0.0
H441 H 0.41213 0.73213 0.01293 0.0
H442 H 0.38068 0.61363 0.2036 0.0
H443 H 0.40312 0.59338 0.13629 0.0
H444 H 0.42751 0.61645 0.20164 0.0
H445 H 0.35611 0.71801 0.97179 0.0
H446 H 0.34963 0.67198 0.95489 0.0
H447 H 0.32633 0.68952 0.02435 0.0
H448 H 0.32292 0.55375 0.98631 0.0
H449 H 0.27121 0.59753 0.15681 0.0
H450 H 0.40412 0.59767 0.00659 0.0
H451 H 0.38476 0.62483 0.94848 0.0
H452 H 0.37696 0.57814 0.94142 0.0
H453 H 0.33725 0.6533 0.21259 0.0
H454 H 0.29102 0.65201 0.20254 0.0
H455 H 0.32095 0.68063 0.15051 0.0
loop_
_geom_bond_atom_site_label_1
_geom_bond_atom_site_label_2
_geom_bond_distance
_geom_bond_site_symmetry_2
_ccdc_geom_bond_type
Co0 O3 1.970 . S
Co0 N17 1.989 . S
Co0 O25 1.967 . S
Co0 O32 1.920 . S
Co1 O4 1.966 . S
Co1 N10 2.022 1_554 S
Co1 N18 1.993 . S
Co1 O26 1.941 . S
C2 O3 1.258 . S
C2 O4 1.263 . S
O3 Co0 1.970 . S
O3 C2 1.258 . S
O4 Co1 1.966 . S
O4 C2 1.263 . S
C5 O6 1.235 . S
C5 O32 1.289 . S
O6 C5 1.235 . S
C7 C9 1.400 . S
C7 N10 1.351 . S
C7 C12 1.501 . S
C8 C9 1.387 . S
C8 N11 1.341 . S
C9 C7 1.400 . S
C9 C8 1.387 . S
N10 Co1 2.022 1_556 S
N10 C7 1.351 . S
N10 N11 1.365 . S
N11 C8 1.341 . S
N11 N10 1.365 . S
N11 H31 0.862 . S
C12 C7 1.501 . S
C12 H13 0.961 . S
C12 H14 0.961 . S
C12 H15 0.960 . S
H13 C12 0.961 . S
H14 C12 0.961 . S
H15 C12 0.960 . S
C16 N17 1.342 . S
C16 C20 1.401 . S
C16 C21 1.499 . S
N17 Co0 1.989 . S
N17 C16 1.342 . S
N17 N18 1.388 . S
N18 Co1 1.993 . S
N18 N17 1.388 . S
N18 C19 1.346 . S
C19 N18 1.346 . S
C19 C20 1.396 . S
C19 C29 1.510 1_554 S
C20 C16 1.401 . S
C20 C19 1.396 . S
C21 C16 1.499 . S
C21 H22 0.959 . S
C21 H23 0.960 . S
C21 H24 0.961 . S
H22 C21 0.959 . S
H23 C21 0.960 . S
H24 C21 0.961 . S
O25 Co0 1.967 . S
O25 C33 1.258 . S
O26 Co1 1.941 . S
O26 C33 1.266 . S
H27 C29 0.959 . S
H28 C29 0.961 . S
C29 C19 1.510 1_556 S
C29 H27 0.959 . S
C29 H28 0.961 . S
C29 H30 0.960 . S
H30 C29 0.960 . S
H31 N11 0.862 . S
O32 Co0 1.920 . S
O32 C5 1.289 . S
C33 O25 1.258 . S
C33 O26 1.266 . S
Co34 O37 1.970 . S
Co34 N51 1.989 . S
Co34 O59 1.967 . S
Co34 O66 1.920 . S
Co35 O38 1.966 1_556 S
Co35 N44 2.022 . S
Co35 N52 1.993 1_556 S
Co35 O60 1.941 1_556 S
C36 O37 1.258 . S
C36 O38 1.263 . S
O37 Co34 1.970 . S
O37 C36 1.258 . S
O38 Co35 1.966 1_554 S
O38 C36 1.263 . S
C39 O40 1.235 . S
C39 O66 1.289 . S
O40 C39 1.235 . S
C41 C43 1.400 . S
C41 N44 1.351 . S
C41 C46 1.501 . S
C42 C43 1.387 . S
C42 N45 1.341 . S
C43 C41 1.400 . S
C43 C42 1.387 . S
N44 Co35 2.022 . S
N44 C41 1.351 . S
N44 N45 1.365 . S
N45 C42 1.341 . S
N45 N44 1.365 . S
N45 H65 0.862 . S
C46 C41 1.501 . S
C46 H47 0.961 . S
C46 H48 0.961 . S
C46 H49 0.960 . S
H47 C46 0.961 . S
H48 C46 0.961 . S
H49 C46 0.960 . S
C50 N51 1.342 . S
C50 C54 1.401 . S
C50 C55 1.499 . S
N51 Co34 1.989 . S
N51 C50 1.342 . S
N51 N52 1.388 . S
N52 Co35 1.993 1_554 S
N52 N51 1.388 . S
N52 C53 1.346 . S
C53 N52 1.346 . S
C53 C54 1.396 . S
C53 C63 1.510 1_554 S
C54 C50 1.401 . S
C54 C53 1.396 . S
C55 C50 1.499 . S
C55 H56 0.959 . S
C55 H57 0.960 . S
C55 H58 0.961 . S
H56 C55 0.959 . S
H57 C55 0.960 . S
H58 C55 0.961 . S
O59 Co34 1.967 . S
O59 C67 1.258 . S
O60 Co35 1.941 1_554 S
O60 C67 1.266 . S
H61 C63 0.959 . S
H62 C63 0.961 . S
C63 C53 1.510 1_556 S
C63 H61 0.959 . S
C63 H62 0.961 . S
C63 H64 0.960 . S
H64 C63 0.960 . S
H65 N45 0.862 . S
O66 Co34 1.920 . S
O66 C39 1.289 . S
C67 O59 1.258 . S
C67 O60 1.266 . S
Co68 O71 1.970 . S
Co68 N85 1.989 . S
Co68 O93 1.967 . S
Co68 O100 1.920 1_554 S
Co69 O72 1.966 . S
Co69 N78 2.022 . S
Co69 N86 1.993 . S
Co69 O94 1.941 . S
C70 O71 1.258 . S
C70 O72 1.263 . S
O71 Co68 1.970 . S
O71 C70 1.258 . S
O72 Co69 1.966 . S
O72 C70 1.263 . S
C73 O74 1.235 . S
C73 O100 1.289 . S
O74 C73 1.235 . S
C75 C77 1.400 . S
C75 N78 1.351 . S
C75 C80 1.501 . S
C76 C77 1.387 . S
C76 N79 1.341 . S
C77 C75 1.400 . S
C77 C76 1.387 . S
N78 Co69 2.022 . S
N78 C75 1.351 . S
N78 N79 1.365 . S
N79 C76 1.341 . S
N79 N78 1.365 . S
N79 H99 0.862 . S
C80 C75 1.501 . S
C80 H81 0.961 . S
C80 H82 0.961 . S
C80 H83 0.960 . S
H81 C80 0.961 . S
H82 C80 0.961 . S
H83 C80 0.960 . S
C84 N85 1.342 . S
C84 C88 1.401 . S
C84 C89 1.499 1_554 S
N85 Co68 1.989 . S
N85 C84 1.342 . S
N85 N86 1.388 . S
N86 Co69 1.993 . S
N86 N85 1.388 . S
N86 C87 1.346 . S
C87 N86 1.346 . S
C87 C88 1.396 . S
C87 C97 1.510 . S
C88 C84 1.401 . S
C88 C87 1.396 . S
C89 C84 1.499 1_556 S
C89 H90 0.959 . S
C89 H91 0.960 . S
C89 H92 0.961 . S
H90 C89 0.959 . S
H91 C89 0.960 . S
H92 C89 0.961 . S
O93 Co68 1.967 . S
O93 C101 1.258 . S
O94 Co69 1.941 . S
O94 C101 1.266 . S
H95 C97 0.959 . S
H96 C97 0.961 . S
C97 C87 1.510 . S
C97 H95 0.959 . S
C97 H96 0.961 . S
C97 H98 0.960 . S
H98 C97 0.960 . S
H99 N79 0.862 . S
O100 Co68 1.920 1_556 S
O100 C73 1.289 . S
C101 O93 1.258 . S
C101 O94 1.266 . S
Co102 O105 1.970 . S
Co102 N119 1.989 . S
Co102 O127 1.967 . S
Co102 O134 1.920 . S
Co103 O106 1.966 1_556 S
Co103 N112 2.022 . S
Co103 N120 1.993 1_556 S
Co103 O128 1.941 1_556 S
C104 O105 1.258 . S
C104 O106 1.263 . S
O105 Co102 1.970 . S
O105 C104 1.258 . S
O106 Co103 1.966 1_554 S
O106 C104 1.263 . S
C107 O108 1.235 . S
C107 O134 1.289 . S
O108 C107 1.235 . S
C109 C111 1.400 . S
C109 N112 1.351 . S
C109 C114 1.501 . S
C110 C111 1.387 . S
C110 N113 1.341 . S
C111 C109 1.400 . S
C111 C110 1.387 . S
N112 Co103 2.022 . S
N112 C109 1.351 . S
N112 N113 1.365 . S
N113 C110 1.341 . S
N113 N112 1.365 . S
N113 H133 0.862 . S
C114 C109 1.501 . S
C114 H115 0.961 . S
C114 H116 0.961 . S
C114 H117 0.960 . S
H115 C114 0.961 . S
H116 C114 0.961 . S
H117 C114 0.960 . S
C118 N119 1.342 . S
C118 C122 1.401 . S
C118 C123 1.499 . S
N119 Co102 1.989 . S
N119 C118 1.342 . S
N119 N120 1.388 . S
N120 Co103 1.993 1_554 S
N120 N119 1.388 . S
N120 C121 1.346 . S
C121 N120 1.346 . S
C121 C122 1.396 . S
C121 C131 1.510 1_554 S
C122 C118 1.401 . S
C122 C121 1.396 . S
C123 C118 1.499 . S
C123 H124 0.959 . S
C123 H125 0.960 . S
C123 H126 0.961 . S
H124 C123 0.959 . S
H125 C123 0.960 . S
H126 C123 0.961 . S
O127 Co102 1.967 . S
O127 C135 1.258 . S
O128 Co103 1.941 1_554 S
O128 C135 1.266 . S
H129 C131 0.959 . S
H130 C131 0.961 . S
C131 C121 1.510 1_556 S
C131 H129 0.959 . S
C131 H130 0.961 . S
C131 H132 0.960 . S
H132 C131 0.960 . S
H133 N113 0.862 . S
O134 Co102 1.920 . S
O134 C107 1.289 . S
C135 O127 1.258 . S
C135 O128 1.266 . S
C136 C137 1.391 . S
C136 C138 1.394 . S
C136 H152 0.931 . S
C137 C136 1.391 . S
C137 C141 1.376 . S
C138 C136 1.394 . S
C138 C139 1.369 . S
C138 C142 1.531 . S
C139 C138 1.369 . S
C139 C140 1.410 . S
C139 C147 1.503 . S
C140 C139 1.410 . S
C140 C141 1.392 . S
C140 C143 1.511 . S
C141 C137 1.376 . S
C141 C140 1.392 . S
C141 H153 0.929 . S
C142 C138 1.531 . S
C142 H154 0.960 . S
C142 H155 0.962 . S
C142 H156 0.960 . S
C143 C140 1.511 . S
C143 H157 0.961 . S
C143 H158 0.961 . S
C143 H159 0.961 . S
C144 C145 1.370 . S
C144 C146 1.363 . S
C144 H160 0.931 . S
C145 C144 1.370 . S
C145 C149 1.408 . S
C146 C144 1.363 . S
C146 C147 1.370 . S
C146 C150 1.524 . S
C147 C139 1.503 . S
C147 C146 1.370 . S
C147 C148 1.403 . S
C148 C147 1.403 . S
C148 C149 1.404 . S
C148 C151 1.539 . S
C149 C145 1.408 . S
C149 C148 1.404 . S
C149 H161 0.930 . S
C150 C146 1.524 . S
C150 H162 0.956 . S
C150 H163 0.961 . S
C150 H164 0.961 . S
C151 C148 1.539 . S
C151 H165 0.958 . S
C151 H166 0.961 . S
C151 H167 0.960 . S
H152 C136 0.931 . S
H153 C141 0.929 . S
H154 C142 0.960 . S
H155 C142 0.962 . S
H156 C142 0.960 . S
H157 C143 0.961 . S
H158 C143 0.961 . S
H159 C143 0.961 . S
H160 C144 0.931 . S
H161 C149 0.930 . S
H162 C150 0.956 . S
H163 C150 0.961 . S
H164 C150 0.961 . S
H165 C151 0.958 . S
H166 C151 0.961 . S
H167 C151 0.960 . S
C168 C169 1.391 . S
C168 C170 1.394 . S
C168 H184 0.931 . S
C169 C168 1.391 . S
C169 C173 1.376 . S
C170 C168 1.394 . S
C170 C171 1.369 . S
C170 C174 1.531 . S
C171 C170 1.369 . S
C171 C172 1.410 . S
C171 C179 1.503 . S
C172 C171 1.410 . S
C172 C173 1.392 . S
C172 C175 1.511 . S
C173 C169 1.376 . S
C173 C172 1.392 . S
C173 H185 0.929 . S
C174 C170 1.531 . S
C174 H186 0.960 . S
C174 H187 0.962 . S
C174 H188 0.960 . S
C175 C172 1.511 . S
C175 H189 0.961 . S
C175 H190 0.961 . S
C175 H191 0.961 . S
C176 C177 1.370 . S
C176 C178 1.363 . S
C176 H192 0.931 . S
C177 C176 1.370 . S
C177 C181 1.408 . S
C178 C176 1.363 . S
C178 C179 1.370 . S
C178 C182 1.524 . S
C179 C171 1.503 . S
C179 C178 1.370 . S
C179 C180 1.403 . S
C180 C179 1.403 . S
C180 C181 1.404 . S
C180 C183 1.539 . S
C181 C177 1.408 . S
C181 C180 1.404 . S
C181 H193 0.930 . S
C182 C178 1.524 . S
C182 H194 0.956 . S
C182 H195 0.961 . S
C182 H196 0.961 . S
C183 C180 1.539 . S
C183 H197 0.958 . S
C183 H198 0.961 . S
C183 H199 0.960 . S
H184 C168 0.931 . S
H185 C173 0.929 . S
H186 C174 0.960 . S
H187 C174 0.962 . S
H188 C174 0.960 . S
H189 C175 0.961 . S
H190 C175 0.961 . S
H191 C175 0.961 . S
H192 C176 0.931 . S
H193 C181 0.930 . S
H194 C182 0.956 . S
H195 C182 0.961 . S
H196 C182 0.961 . S
H197 C183 0.958 . S
H198 C183 0.961 . S
H199 C183 0.960 . S
C200 C201 1.391 . S
C200 C202 1.394 . S
C200 H216 0.931 . S
C201 C200 1.391 . S
C201 C205 1.376 . S
C202 C200 1.394 . S
C202 C203 1.369 . S
C202 C206 1.531 . S
C203 C202 1.369 . S
C203 C204 1.410 . S
C203 C211 1.503 . S
C204 C203 1.410 . S
C204 C205 1.392 . S
C204 C207 1.511 . S
C205 C201 1.376 . S
C205 C204 1.392 . S
C205 H217 0.929 . S
C206 C202 1.531 . S
C206 H218 0.960 . S
C206 H219 0.962 . S
C206 H220 0.960 . S
C207 C204 1.511 . S
C207 H221 0.961 . S
C207 H222 0.961 . S
C207 H223 0.961 . S
C208 C209 1.370 . S
C208 C210 1.363 . S
C208 H224 0.931 . S
C209 C208 1.370 . S
C209 C213 1.408 . S
C210 C208 1.363 . S
C210 C211 1.370 . S
C210 C214 1.524 . S
C211 C203 1.503 . S
C211 C210 1.370 . S
C211 C212 1.403 . S
C212 C211 1.403 . S
C212 C213 1.404 . S
C212 C215 1.539 . S
C213 C209 1.408 . S
C213 C212 1.404 . S
C213 H225 0.930 . S
C214 C210 1.524 . S
C214 H226 0.956 . S
C214 H227 0.961 . S
C214 H228 0.961 . S
C215 C212 1.539 . S
C215 H229 0.958 . S
C215 H230 0.961 . S
C215 H231 0.960 . S
H216 C200 0.931 . S
H217 C205 0.929 . S
H218 C206 0.960 . S
H219 C206 0.962 . S
H220 C206 0.960 . S
H221 C207 0.961 . S
H222 C207 0.961 . S
H223 C207 0.961 . S
H224 C208 0.931 . S
H225 C213 0.930 . S
H226 C214 0.956 . S
H227 C214 0.961 . S
H228 C214 0.961 . S
H229 C215 0.958 . S
H230 C215 0.961 . S
H231 C215 0.960 . S
C232 C233 1.391 . S
C232 C234 1.394 . S
C232 H248 0.931 . S
C233 C232 1.391 . S
C233 C237 1.376 . S
C234 C232 1.394 . S
C234 C235 1.369 . S
C234 C238 1.531 . S
C235 C234 1.369 . S
C235 C236 1.410 . S
C235 C243 1.503 . S
C236 C235 1.410 . S
C236 C237 1.392 . S
C236 C239 1.511 . S
C237 C233 1.376 . S
C237 C236 1.392 . S
C237 H249 0.929 . S
C238 C234 1.531 . S
C238 H250 0.960 . S
C238 H251 0.962 . S
C238 H252 0.960 . S
C239 C236 1.511 . S
C239 H253 0.961 . S
C239 H254 0.961 . S
C239 H255 0.961 . S
C240 C241 1.370 . S
C240 C242 1.363 . S
C240 H256 0.931 . S
C241 C240 1.370 . S
C241 C245 1.408 . S
C242 C240 1.363 . S
C242 C243 1.370 . S
C242 C246 1.524 . S
C243 C235 1.503 . S
C243 C242 1.370 . S
C243 C244 1.403 . S
C244 C243 1.403 . S
C244 C245 1.404 . S
C244 C247 1.539 . S
C245 C241 1.408 . S
C245 C244 1.404 . S
C245 H257 0.930 . S
C246 C242 1.524 . S
C246 H258 0.956 . S
C246 H259 0.961 . S
C246 H260 0.961 . S
C247 C244 1.539 . S
C247 H261 0.958 . S
C247 H262 0.961 . S
C247 H263 0.960 . S
H248 C232 0.931 . S
H249 C237 0.929 . S
H250 C238 0.960 . S
H251 C238 0.962 . S
H252 C238 0.960 . S
H253 C239 0.961 . S
H254 C239 0.961 . S
H255 C239 0.961 . S
H256 C240 0.931 . S
H257 C245 0.930 . S
H258 C246 0.956 . S
H259 C246 0.961 . S
H260 C246 0.961 . S
H261 C247 0.958 . S
H262 C247 0.961 . S
H263 C247 0.960 . S
C264 C265 1.391 . S
C264 C266 1.394 . S
C264 H280 0.931 . S
C265 C264 1.391 . S
C265 C269 1.376 . S
C266 C264 1.394 . S
C266 C267 1.369 . S
C266 C270 1.531 . S
C267 C266 1.369 . S
C267 C268 1.410 . S
C267 C275 1.503 1_655 S
C268 C267 1.410 . S
C268 C269 1.392 . S
C268 C271 1.511 . S
C269 C265 1.376 . S
C269 C268 1.392 . S
C269 H281 0.929 . S
C270 C266 1.531 . S
C270 H282 0.960 1_655 S
C270 H283 0.962 . S
C270 H284 0.960 . S
C271 C268 1.511 . S
C271 H285 0.961 . S
C271 H286 0.961 . S
C271 H287 0.961 . S
C272 C273 1.370 . S
C272 C274 1.363 . S
C272 H288 0.931 1_554 S
C273 C272 1.370 . S
C273 C277 1.408 . S
C274 C272 1.363 . S
C274 C275 1.370 . S
C274 C278 1.524 1_554 S
C275 C267 1.503 1_455 S
C275 C274 1.370 . S
C275 C276 1.403 . S
C276 C275 1.403 . S
C276 C277 1.404 . S
C276 C279 1.539 . S
C277 C273 1.408 . S
C277 C276 1.404 . S
C277 H289 0.930 . S
C278 C274 1.524 1_556 S
C278 H290 0.956 . S
C278 H291 0.961 1_455 S
C278 H292 0.961 . S
C279 C276 1.539 . S
C279 H293 0.958 . S
C279 H294 0.961 . S
C279 H295 0.960 1_455 S
H280 C264 0.931 . S
H281 C269 0.929 . S
H282 C270 0.960 1_455 S
H283 C270 0.962 . S
H284 C270 0.960 . S
H285 C271 0.961 . S
H286 C271 0.961 . S
H287 C271 0.961 . S
H288 C272 0.931 1_556 S
H289 C277 0.930 . S
H290 C278 0.956 . S
H291 C278 0.961 1_655 S
H292 C278 0.961 . S
H293 C279 0.958 . S
H294 C279 0.961 . S
H295 C279 0.960 1_655 S
C296 C297 1.391 . S
C296 C298 1.394 . S
C296 H312 0.931 1_554 S
C297 C296 1.391 . S
C297 C301 1.376 . S
C298 C296 1.394 . S
C298 C299 1.369 . S
C298 C302 1.531 1_554 S
C299 C298 1.369 . S
C299 C300 1.410 . S
C299 C307 1.503 1_565 S
C300 C299 1.410 . S
C300 C301 1.392 . S
C300 C303 1.511 . S
C301 C297 1.376 . S
C301 C300 1.392 . S
C301 H313 0.929 . S
C302 C298 1.531 1_556 S
C302 H314 0.960 1_565 S
C302 H315 0.962 1_565 S
C302 H316 0.960 . S
C303 C300 1.511 . S
C303 H317 0.961 . S
C303 H318 0.961 . S
C303 H319 0.961 . S
C304 C305 1.370 . S
C304 C306 1.363 . S
C304 H320 0.931 . S
C305 C304 1.370 . S
C305 C309 1.408 . S
C306 C304 1.363 . S
C306 C307 1.370 . S
C306 C310 1.524 . S
C307 C299 1.503 1_545 S
C307 C306 1.370 . S
C307 C308 1.403 . S
C308 C307 1.403 . S
C308 C309 1.404 . S
C308 C311 1.539 1_554 S
C309 C305 1.408 . S
C309 C308 1.404 . S
C309 H321 0.930 1_554 S
C310 C306 1.524 . S
C310 H322 0.956 . S
C310 H323 0.970 . S
C310 H324 0.961 . S
C311 C308 1.539 1_556 S
C311 H325 0.958 . S
C311 H326 0.961 . S
C311 H327 0.960 1_545 S
H312 C296 0.931 1_556 S
H313 C301 0.929 . S
H314 C302 0.960 1_545 S
H315 C302 0.962 1_545 S
H316 C302 0.960 . S
H317 C303 0.961 . S
H318 C303 0.961 . S
H319 C303 0.961 . S
H320 C304 0.931 . S
H321 C309 0.930 1_556 S
H322 C310 0.956 . S
H323 C310 0.970 . S
H324 C310 0.961 . S
H325 C311 0.958 . S
H326 C311 0.961 . S
H327 C311 0.960 1_565 S
C328 C329 1.391 . S
C328 C330 1.394 . S
C328 H344 0.931 . S
C329 C328 1.391 . S
C329 C333 1.376 . S
C330 C328 1.394 . S
C330 C331 1.369 . S
C330 C334 1.531 . S
C331 C330 1.369 . S
C331 C332 1.410 . S
C331 C339 1.503 . S
C332 C331 1.410 . S
C332 C333 1.392 . S
C332 C335 1.511 1_554 S
C333 C329 1.376 . S
C333 C332 1.392 . S
C333 H345 0.929 1_554 S
C334 C330 1.531 . S
C334 H346 0.960 . S
C334 H347 0.962 . S
C334 H348 0.960 . S
C335 C332 1.511 1_556 S
C335 H349 0.961 . S
C335 H350 0.961 . S
C335 H351 0.961 1_556 S
C336 C337 1.370 . S
C336 C338 1.363 . S
C336 H352 0.931 . S
C337 C336 1.370 . S
C337 C341 1.408 . S
C338 C336 1.363 . S
C338 C339 1.370 . S
C338 C342 1.524 . S
C339 C331 1.503 . S
C339 C338 1.370 . S
C339 C340 1.403 . S
C340 C339 1.403 . S
C340 C341 1.404 . S
C340 C343 1.539 . S
C341 C337 1.408 . S
C341 C340 1.404 . S
C341 H353 0.930 . S
C342 C338 1.524 . S
C342 H354 0.956 . S
C342 H355 0.961 1_554 S
C342 H356 0.961 1_554 S
C343 C340 1.539 . S
C343 H357 0.958 . S
C343 H358 0.961 . S
C343 H359 0.960 . S
H344 C328 0.931 . S
H345 C333 0.929 1_556 S
H346 C334 0.960 . S
H347 C334 0.962 . S
H348 C334 0.960 . S
H349 C335 0.961 . S
H350 C335 0.961 . S
H351 C335 0.961 1_554 S
H352 C336 0.931 . S
H353 C341 0.930 . S
H354 C342 0.956 . S
H355 C342 0.961 1_556 S
H356 C342 0.961 1_556 S
H357 C343 0.958 . S
H358 C343 0.961 . S
H359 C343 0.960 . S
C360 C361 1.391 . S
C360 C362 1.394 . S
C360 H376 0.931 . S
C361 C360 1.391 . S
C361 C365 1.376 . S
C362 C360 1.394 . S
C362 C363 1.369 . S
C362 C366 1.531 . S
C363 C362 1.369 . S
C363 C364 1.410 . S
C363 C371 1.503 . S
C364 C363 1.410 . S
C364 C365 1.392 . S
C364 C367 1.511 . S
C365 C361 1.376 . S
C365 C364 1.392 . S
C365 H377 0.929 . S
C366 C362 1.531 . S
C366 H378 0.960 . S
C366 H379 0.962 . S
C366 H380 0.960 . S
C367 C364 1.511 . S
C367 H381 0.961 . S
C367 H382 0.961 . S
C367 H383 0.961 . S
C368 C369 1.370 . S
C368 C370 1.363 . S
C368 H384 0.931 . S
C369 C368 1.370 . S
C369 C373 1.408 . S
C370 C368 1.363 . S
C370 C371 1.370 . S
C370 C374 1.524 . S
C371 C363 1.503 . S
C371 C370 1.370 . S
C371 C372 1.403 . S
C372 C371 1.403 . S
C372 C373 1.404 . S
C372 C375 1.539 1_554 S
C373 C369 1.408 . S
C373 C372 1.404 . S
C373 H385 0.930 1_554 S
C374 C370 1.524 . S
C374 H386 0.956 . S
C374 H387 0.961 . S
C374 H388 0.961 . S
C375 C372 1.539 1_556 S
C375 H389 0.958 . S
C375 H390 0.961 . S
C375 H391 0.960 . S
H376 C360 0.931 . S
H377 C365 0.929 . S
H378 C366 0.960 . S
H379 C366 0.962 . S
H380 C366 0.960 . S
H381 C367 0.961 . S
H382 C367 0.961 . S
H383 C367 0.961 . S
H384 C368 0.931 . S
H385 C373 0.930 1_556 S
H386 C374 0.956 . S
H387 C374 0.961 . S
H388 C374 0.961 . S
H389 C375 0.958 . S
H390 C375 0.961 . S
H391 C375 0.960 . S
C392 C393 1.391 . S
C392 C394 1.394 . S
C392 H408 0.931 1_554 S
C393 C392 1.391 . S
C393 C397 1.376 . S
C394 C392 1.394 . S
C394 C395 1.369 . S
C394 C398 1.531 1_554 S
C395 C394 1.369 . S
C395 C396 1.410 . S
C395 C403 1.503 . S
C396 C395 1.410 . S
C396 C397 1.392 . S
C396 C399 1.511 . S
C397 C393 1.376 . S
C397 C396 1.392 . S
C397 H409 0.929 . S
C398 C394 1.531 1_556 S
C398 H410 0.960 . S
C398 H411 0.962 . S
C398 H412 0.960 . S
C399 C396 1.511 . S
C399 H413 0.961 . S
C399 H414 0.961 . S
C399 H415 0.961 . S
C400 C401 1.370 . S
C400 C402 1.363 . S
C400 H416 0.931 . S
C401 C400 1.370 . S
C401 C405 1.408 . S
C402 C400 1.363 . S
C402 C403 1.370 . S
C402 C406 1.524 . S
C403 C395 1.503 . S
C403 C402 1.370 . S
C403 C404 1.403 . S
C404 C403 1.403 . S
C404 C405 1.404 . S
C404 C407 1.539 . S
C405 C401 1.408 . S
C405 C404 1.404 . S
C405 H417 0.930 . S
C406 C402 1.524 . S
C406 H418 0.956 . S
C406 H419 0.961 . S
C406 H420 0.961 . S
C407 C404 1.539 . S
C407 H421 0.958 . S
C407 H422 0.961 . S
C407 H423 0.960 . S
H408 C392 0.931 1_556 S
H409 C397 0.929 . S
H410 C398 0.960 . S
H411 C398 0.962 . S
H412 C398 0.960 . S
H413 C399 0.961 . S
H414 C399 0.961 . S
H415 C399 0.961 . S
H416 C400 0.931 . S
H417 C405 0.930 . S
H418 C406 0.956 . S
H419 C406 0.961 . S
H420 C406 0.961 . S
H421 C407 0.958 . S
H422 C407 0.961 . S
H423 C407 0.960 . S
C424 C425 1.391 . S
C424 C426 1.394 . S
C424 H440 0.931 . S
C425 C424 1.391 . S
C425 C429 1.376 . S
C426 C424 1.394 . S
C426 C427 1.369 . S
C426 C430 1.531 . S
C427 C426 1.369 . S
C427 C428 1.410 . S
C427 C435 1.503 . S
C428 C427 1.410 . S
C428 C429 1.392 . S
C428 C431 1.511 1_554 S
C429 C425 1.376 . S
C429 C428 1.392 . S
C429 H441 0.933 . S
C430 C426 1.531 . S
C430 H442 0.960 . S
C430 H443 0.962 . S
C430 H444 0.960 . S
C431 C428 1.511 1_556 S
C431 H445 0.961 . S
C431 H446 0.961 . S
C431 H447 0.961 1_556 S
C432 C433 1.370 . S
C432 C434 1.363 . S
C432 H448 0.931 . S
C433 C432 1.370 . S
C433 C437 1.408 . S
C434 C432 1.363 . S
C434 C435 1.370 . S
C434 C438 1.524 . S
C435 C427 1.503 . S
C435 C434 1.370 . S
C435 C436 1.403 . S
C436 C435 1.403 . S
C436 C437 1.404 . S
C436 C439 1.539 . S
C437 C433 1.408 . S
C437 C436 1.404 . S
C437 H449 0.930 . S
C438 C434 1.524 . S
C438 H450 0.956 . S
C438 H451 0.961 1_554 S
C438 H452 0.961 1_554 S
C439 C436 1.539 . S
C439 H453 0.958 . S
C439 H454 0.961 . S
C439 H455 0.960 . S
H440 C424 0.931 . S
H441 C429 0.933 . S
H442 C430 0.960 . S
H443 C430 0.962 . S
H444 C430 0.960 . S
H445 C431 0.961 . S
H446 C431 0.961 . S
H447 C431 0.961 1_554 S
H448 C432 0.931 . S
H449 C437 0.930 . S
H450 C438 0.956 . S
H451 C438 0.961 1_556 S
H452 C438 0.961 1_556 S
H453 C439 0.958 . S
H454 C439 0.961 . S
H455 C439 0.960 . S
C137 C9 1.356 . S
C145 C5 1.501 . S
C169 C43 1.431 . S
C177 C39 1.486 . S
C201 C73 1.494 . S
C209 C77 1.384 . S
C233 C111 1.352 . S
C241 C107 1.506 . S
C265 C88 1.475 . S
C273 C20 1.475 . S
C297 C122 1.465 . S
C305 C54 1.465 . S
C329 C36 1.439 . S
C337 C33 1.440 . S
C361 C101 1.458 . S
C369 C67 1.459 . S
C393 C104 1.490 . S
C401 C70 1.487 . S
C425 C135 1.507 . S
C433 C2 1.504 . S
