# Generated by pormake.
# Topology mmt, (4)-cn, num edge types: 1
# Building blocks:
#     Node 0, Type 0, BuildingBlock: CEKHIL_clean_sbu_0, # of connection points: 4
#     Node 1, Type 0, BuildingBlock: CEKHIL_clean_sbu_0, # of connection points: 4
#     Node 2, Type 0, BuildingBlock: CEKHIL_clean_sbu_0, # of connection points: 4
#     Node 3, Type 0, BuildingBlock: CEKHIL_clean_sbu_0, # of connection points: 4
#     Node 4, Type 0, BuildingBlock: CEKHIL_clean_sbu_0, # of connection points: 4
#     Node 5, Type 0, BuildingBlock: CEKHIL_clean_sbu_0, # of connection points: 4
#     Node 6, Type 0, BuildingBlock: CEKHIL_clean_sbu_0, # of connection points: 4
#     Node 7, Type 0, BuildingBlock: CEKHIL_clean_sbu_0, # of connection points: 4
#     Edge 8, Type (0, 0), BuildingBlock: FUNLAD_clean_linker_0, # of connection points: 2
#     Edge 9, Type (0, 0), BuildingBlock: FUNLAD_clean_linker_0, # of connection points: 2
#     Edge 10, Type (0, 0), BuildingBlock: FUNLAD_clean_linker_0, # of connection points: 2
#     Edge 11, Type (0, 0), BuildingBlock: FUNLAD_clean_linker_0, # of connection points: 2
#     Edge 12, Type (0, 0), BuildingBlock: FUNLAD_clean_linker_0, # of connection points: 2
#     Edge 13, Type (0, 0), BuildingBlock: FUNLAD_clean_linker_0, # of connection points: 2
#     Edge 14, Type (0, 0), BuildingBlock: FUNLAD_clean_linker_0, # of connection points: 2
#     Edge 15, Type (0, 0), BuildingBlock: FUNLAD_clean_linker_0, # of connection points: 2
#     Edge 16, Type (0, 0), BuildingBlock: FUNLAD_clean_linker_0, # of connection points: 2
#     Edge 17, Type (0, 0), BuildingBlock: FUNLAD_clean_linker_0, # of connection points: 2
#     Edge 18, Type (0, 0), BuildingBlock: FUNLAD_clean_linker_0, # of connection points: 2
#     Edge 19, Type (0, 0), BuildingBlock: FUNLAD_clean_linker_0, # of connection points: 2
#     Edge 20, Type (0, 0), BuildingBlock: FUNLAD_clean_linker_0, # of connection points: 2
#     Edge 21, Type (0, 0), BuildingBlock: FUNLAD_clean_linker_0, # of connection points: 2
#     Edge 22, Type (0, 0), BuildingBlock: FUNLAD_clean_linker_0, # of connection points: 2
#     Edge 23, Type (0, 0), BuildingBlock: FUNLAD_clean_linker_0, # of connection points: 2
# Relax obj value: 0.032
# Max RMSD: 0.050
# Mean RMSD: 0.050
data_MOF--net-mmt--node1-CEKHIL_clean_sbu_0--edge1-FUNLAD_clean_linker_0
_symmetry_space_group_name_H-M    P1
_symmetry_Int_Tables_number       1
_symmetry_cell_setting            triclinic
loop_
_symmetry_equiv_pos_as_xyz
'x, y, z'
_cell_length_a     25.987519
_cell_length_b     42.708438
_cell_length_c     51.063325
_cell_angle_alpha  90.035
_cell_angle_beta   89.915601
_cell_angle_gamma 90.033985
loop_
_atom_site_label
_atom_site_type_symbol
_atom_site_fract_x
_atom_site_fract_y
_atom_site_fract_z
_atom_type_partial_charge
Co0 Co 0.09883 0.57526 0.36539 0.0
O1 O 0.05201 0.58137 0.39427 0.0
O2 O 0.0963 0.53802 0.38713 0.0
C3 C 0.14031 0.62151 0.36957 0.0
O4 O 0.15242 0.5608 0.33862 0.0
Co5 Co 0.09701 0.61911 0.317 0.0
O6 O 0.16258 0.59798 0.3079 0.0
C7 C 0.01751 0.57003 0.32237 0.0
C8 C 0.06417 0.55337 0.40191 0.0
C9 C 0.17593 0.57224 0.31852 0.0
O10 O 0.04081 0.55903 0.34265 0.0
O11 O 0.03178 0.5951 0.31067 0.0
O12 O 0.15278 0.59781 0.38416 0.0
O13 O 0.10054 0.61742 0.35481 0.0
Co14 Co 0.40532 0.92376 0.35999 0.0
O15 O 0.45087 0.91969 0.38968 0.0
O16 O 0.40754 0.96254 0.37955 0.0
C17 C 0.36294 0.87812 0.36603 0.0
O18 O 0.35291 0.93678 0.33237 0.0
Co19 Co 0.40619 0.87698 0.31355 0.0
O20 O 0.34186 0.89843 0.30279 0.0
C21 C 0.48815 0.92479 0.31757 0.0
C22 C 0.43863 0.94834 0.39554 0.0
C23 C 0.32932 0.92481 0.31257 0.0
O24 O 0.46442 0.93784 0.3369 0.0
O25 O 0.47321 0.89907 0.30712 0.0
O26 O 0.35035 0.90285 0.37942 0.0
O27 O 0.40309 0.881 0.35129 0.0
Co28 Co 0.59977 0.42828 0.15122 0.0
O29 O 0.5525 0.42441 0.1222 0.0
O30 O 0.59895 0.46652 0.1309 0.0
C31 C 0.63874 0.38148 0.14543 0.0
O32 O 0.65425 0.44087 0.17809 0.0
Co33 Co 0.59744 0.38286 0.19855 0.0
O34 O 0.66316 0.40324 0.20846 0.0
C35 C 0.51913 0.43279 0.19467 0.0
C36 C 0.56616 0.45259 0.11561 0.0
C37 C 0.67725 0.429 0.19812 0.0
O38 O 0.54274 0.4444 0.17468 0.0
O39 O 0.53274 0.40713 0.20562 0.0
O40 O 0.65214 0.40553 0.13141 0.0
O41 O 0.59971 0.38574 0.16072 0.0
Co42 Co 0.89932 0.07786 0.15523 0.0
O43 O 0.94413 0.08096 0.12514 0.0
O44 O 0.89511 0.04008 0.13434 0.0
C45 C 0.86366 0.1259 0.15149 0.0
O46 O 0.84654 0.06649 0.18344 0.0
Co47 Co 0.91109 0.12229 0.20307 0.0
O48 O 0.84351 0.10477 0.21365 0.0
C49 C 0.98431 0.07007 0.19597 0.0
C50 C 0.92791 0.05329 0.11856 0.0
C51 C 0.82613 0.07949 0.20376 0.0
O52 O 0.95716 0.05944 0.17682 0.0
O53 O 0.97445 0.09601 0.20753 0.0
O54 O 0.84701 0.10279 0.13727 0.0
O55 O 0.90392 0.11998 0.16543 0.0
Co56 Co 0.90495 0.4225 0.65534 0.0
O57 O 0.95219 0.41592 0.62668 0.0
O58 O 0.9101 0.46001 0.63408 0.0
C59 C 0.86135 0.37708 0.65021 0.0
O60 O 0.85142 0.43769 0.68184 0.0
Co61 Co 0.90216 0.37783 0.70321 0.0
O62 O 0.83803 0.40058 0.71229 0.0
C63 C 0.986 0.42431 0.69849 0.0
C64 C 0.94168 0.44427 0.6193 0.0
C65 C 0.82665 0.4267 0.70173 0.0
O66 O 0.96333 0.43696 0.6787 0.0
O67 O 0.96985 0.39918 0.70946 0.0
O68 O 0.85034 0.40128 0.63589 0.0
O69 O 0.90068 0.38026 0.66541 0.0
Co70 Co 0.60437 0.07216 0.65028 0.0
O71 O 0.55954 0.07577 0.62028 0.0
O72 O 0.60501 0.03369 0.63024 0.0
C73 C 0.64422 0.1188 0.64512 0.0
O74 O 0.65651 0.0598 0.67828 0.0
Co75 Co 0.59898 0.11818 0.69719 0.0
O76 O 0.66398 0.0979 0.70838 0.0
C77 C 0.52138 0.06777 0.69256 0.0
C78 C 0.5735 0.04748 0.6142 0.0
C79 C 0.6784 0.07192 0.69853 0.0
O80 O 0.54553 0.05631 0.67268 0.0
O81 O 0.53458 0.09342 0.70372 0.0
O82 O 0.65868 0.09457 0.63158 0.0
O83 O 0.60375 0.11482 0.65945 0.0
Co84 Co 0.39676 0.57599 0.86133 0.0
O85 O 0.44058 0.57908 0.8917 0.0
O86 O 0.39507 0.53722 0.88107 0.0
C87 C 0.35714 0.62264 0.86668 0.0
O88 O 0.34546 0.56451 0.83253 0.0
Co89 Co 0.40626 0.6229 0.81528 0.0
O90 O 0.33988 0.60438 0.80397 0.0
C91 C 0.48229 0.57186 0.8202 0.0
C92 C 0.42629 0.55078 0.89745 0.0
C93 C 0.32421 0.57813 0.81277 0.0
O94 O 0.45634 0.56021 0.83941 0.0
O95 O 0.47058 0.59785 0.80922 0.0
O96 O 0.34199 0.59823 0.87976 0.0
O97 O 0.39831 0.61883 0.85282 0.0
Co98 Co 0.10224 0.92837 0.86499 0.0
O99 O 0.05824 0.92402 0.89531 0.0
O100 O 0.10225 0.96669 0.88525 0.0
C101 C 0.14354 0.88213 0.86943 0.0
O102 O 0.15315 0.9415 0.83655 0.0
Co103 Co 0.09608 0.88271 0.81785 0.0
O104 O 0.15993 0.9039 0.80595 0.0
C105 C 0.01731 0.9321 0.82379 0.0
C106 C 0.07131 0.95246 0.90138 0.0
C107 C 0.17427 0.92987 0.81586 0.0
O108 O 0.04236 0.9438 0.84325 0.0
O109 O 0.03043 0.90658 0.81242 0.0
O110 O 0.15769 0.90636 0.88305 0.0
O111 O 0.1025 0.88581 0.85554 0.0
C112 C 0.24554 0.56672 0.28466 0.0
C113 C 0.21892 0.5544 0.30637 0.0
C114 C 0.28461 0.54964 0.27239 0.0
C115 C 0.29795 0.5196 0.28142 0.0
C116 C 0.2723 0.50761 0.3035 0.0
C117 C 0.23313 0.52471 0.31579 0.0
C118 C 0.33907 0.50041 0.26883 0.0
C119 C 0.35494 0.50425 0.24381 0.0
C120 C 0.39609 0.48507 0.23124 0.0
C121 C 0.42179 0.49704 0.20916 0.0
C122 C 0.46113 0.48 0.19697 0.0
C123 C 0.4755 0.45038 0.20649 0.0
H124 H 0.38957 0.44431 0.25659 0.0
C125 C 0.44876 0.43804 0.22815 0.0
C126 C 0.4095 0.45506 0.24031 0.0
H127 H 0.45824 0.41516 0.2359 0.0
H128 H 0.2362 0.58966 0.27699 0.0
H129 H 0.30452 0.56038 0.2561 0.0
H130 H 0.28212 0.48471 0.31111 0.0
H131 H 0.21372 0.5145 0.33251 0.0
H132 H 0.3562 0.48221 0.28077 0.0
H133 H 0.33783 0.52246 0.23187 0.0
H134 H 0.41191 0.51992 0.20152 0.0
H135 H 0.48066 0.49025 0.18029 0.0
C136 C 0.0595 0.06292 0.22611 0.0
C137 C 0.02787 0.05106 0.20607 0.0
C138 C 0.09876 0.04471 0.23684 0.0
C139 C 0.10724 0.01393 0.22798 0.0
C140 C 0.07683 0.00241 0.20737 0.0
C141 C 0.03745 0.02068 0.19658 0.0
C142 C 0.14809 0.99362 0.23938 0.0
C143 C 0.16589 0.99711 0.26405 0.0
C144 C 0.20742 0.97771 0.27593 0.0
C145 C 0.23244 0.98911 0.29837 0.0
C146 C 0.27173 0.97197 0.31031 0.0
C147 C 0.28684 0.94276 0.3002 0.0
H148 H 0.20286 0.93802 0.24926 0.0
C149 C 0.26124 0.93104 0.27798 0.0
C150 C 0.22196 0.94824 0.266 0.0
H151 H 0.2715 0.90851 0.26975 0.0
H152 H 0.0539 0.08636 0.2337 0.0
H153 H 0.12259 0.05508 0.25187 0.0
H154 H 0.08296 0.97895 0.19989 0.0
H155 H 0.01409 0.0108 0.18109 0.0
H156 H 0.16306 0.9751 0.22699 0.0
H157 H 0.1499 0.01542 0.27635 0.0
H158 H 0.22187 0.0116 0.30662 0.0
H159 H 0.29033 0.98173 0.32744 0.0
C160 C 0.74506 0.43459 0.23288 0.0
C161 C 0.72026 0.44655 0.21053 0.0
C162 C 0.78391 0.45163 0.24539 0.0
C163 C 0.79886 0.48121 0.23591 0.0
C164 C 0.77503 0.49278 0.21319 0.0
C165 C 0.73609 0.47576 0.2007 0.0
C166 C 0.83971 0.50043 0.24866 0.0
C167 C 0.85431 0.49723 0.27391 0.0
C168 C 0.89492 0.51681 0.28648 0.0
C169 C 0.92043 0.5053 0.30875 0.0
C170 C 0.95948 0.52272 0.32081 0.0
C171 C 0.9737 0.55223 0.31096 0.0
H172 H 0.88806 0.55719 0.26077 0.0
C173 C 0.94694 0.56416 0.28919 0.0
C174 C 0.90799 0.54678 0.27717 0.0
H175 H 0.95625 0.58696 0.2812 0.0
H176 H 0.73435 0.41203 0.2409 0.0
H177 H 0.80234 0.44123 0.26223 0.0
H178 H 0.78608 0.51532 0.20525 0.0
H179 H 0.71811 0.4857 0.18349 0.0
H180 H 0.85774 0.51824 0.23659 0.0
H181 H 0.8366 0.47934 0.286 0.0
H182 H 0.91074 0.48248 0.31659 0.0
H183 H 0.97904 0.51279 0.33757 0.0
C184 C 0.76808 0.03302 0.21097 0.0
C185 C 0.78219 0.06394 0.21714 0.0
C186 C 0.72856 0.01797 0.22479 0.0
C187 C 0.70222 0.03358 0.24511 0.0
C188 C 0.71522 0.06476 0.25063 0.0
C189 C 0.75488 0.07971 0.23699 0.0
C190 C 0.66028 0.01852 0.26055 0.0
C191 C 0.65685 0.98735 0.26436 0.0
C192 C 0.61461 0.97194 0.27935 0.0
C193 C 0.60406 0.94031 0.27426 0.0
C194 C 0.56387 0.92494 0.2871 0.0
C195 C 0.53336 0.94072 0.30568 0.0
H196 H 0.59312 0.01165 0.30376 0.0
C197 C 0.54507 0.9721 0.31158 0.0
C198 C 0.58523 0.98758 0.29856 0.0
H199 H 0.52261 0.98492 0.32589 0.0
H200 H 0.788 0.02023 0.19569 0.0
H201 H 0.71854 0.99429 0.21926 0.0
H202 H 0.69518 0.07751 0.2659 0.0
H203 H 0.76427 0.10364 0.24215 0.0
H204 H 0.63198 0.03395 0.26938 0.0
H205 H 0.68547 0.97208 0.25559 0.0
H206 H 0.62637 0.92752 0.25985 0.0
H207 H 0.5564 0.90069 0.28217 0.0
C208 C 0.55508 0.5658 0.78814 0.0
C209 C 0.52636 0.55382 0.80929 0.0
C210 C 0.59463 0.54826 0.77674 0.0
C211 C 0.60638 0.51811 0.78609 0.0
C212 C 0.57874 0.50653 0.8077 0.0
C213 C 0.5391 0.52407 0.81912 0.0
C214 C 0.64763 0.49832 0.77428 0.0
C215 C 0.66515 0.50177 0.74951 0.0
C216 C 0.70607 0.48184 0.73756 0.0
C217 C 0.73305 0.49316 0.71563 0.0
C218 C 0.77184 0.47529 0.70382 0.0
C219 C 0.78437 0.44547 0.71356 0.0
H220 H 0.69697 0.44147 0.76315 0.0
C221 C 0.75658 0.43385 0.73516 0.0
C222 C 0.71786 0.45171 0.74696 0.0
H223 H 0.76465 0.41085 0.74306 0.0
H224 H 0.54686 0.58875 0.78017 0.0
H225 H 0.61605 0.55869 0.76081 0.0
H226 H 0.58729 0.48355 0.81556 0.0
H227 H 0.51805 0.51409 0.83542 0.0
H228 H 0.66326 0.47993 0.78655 0.0
H229 H 0.64944 0.52015 0.73724 0.0
H230 H 0.72447 0.51612 0.70775 0.0
H231 H 0.79219 0.48499 0.68717 0.0
C232 C 0.74421 0.06647 0.73429 0.0
C233 C 0.72061 0.05446 0.71161 0.0
C234 C 0.78259 0.04955 0.74723 0.0
C235 C 0.79823 0.02004 0.73784 0.0
C236 C 0.77547 0.0084 0.71487 0.0
C237 C 0.73703 0.02529 0.70195 0.0
C238 C 0.83876 0.00096 0.7509 0.0
C239 C 0.85318 0.00445 0.77614 0.0
C240 C 0.89364 0.98491 0.78877 0.0
C241 C 0.92056 0.99694 0.8104 0.0
C242 C 0.9599 0.97961 0.82226 0.0
C243 C 0.97292 0.94968 0.81284 0.0
H244 H 0.88419 0.94374 0.76414 0.0
C245 C 0.94455 0.9372 0.79182 0.0
C246 C 0.90534 0.95449 0.78 0.0
H247 H 0.95288 0.91407 0.78421 0.0
H248 H 0.73295 0.08899 0.74219 0.0
H249 H 0.80014 0.05999 0.76431 0.0
H250 H 0.78704 0.9859 0.707 0.0
H251 H 0.71998 0.0153 0.6845 0.0
H252 H 0.85691 0.98298 0.73903 0.0
H253 H 0.83571 0.02255 0.7881 0.0
H254 H 0.91189 0.02011 0.81783 0.0
H255 H 0.98069 0.98996 0.83847 0.0
C256 C 0.26761 0.53122 0.80457 0.0
C257 C 0.28111 0.56238 0.79889 0.0
C258 C 0.22841 0.51618 0.79054 0.0
C259 C 0.20182 0.53201 0.77048 0.0
C260 C 0.21441 0.56336 0.76536 0.0
C261 C 0.2537 0.57831 0.77923 0.0
C262 C 0.15989 0.51708 0.75497 0.0
C263 C 0.15605 0.48593 0.75115 0.0
C264 C 0.11349 0.47074 0.73629 0.0
C265 C 0.10204 0.4393 0.74167 0.0
C266 C 0.06147 0.42417 0.72899 0.0
C267 C 0.03151 0.43999 0.71026 0.0
H268 H 0.09324 0.51033 0.71156 0.0
C269 C 0.04412 0.47115 0.70407 0.0
C270 C 0.08464 0.48641 0.71696 0.0
H271 H 0.02208 0.48399 0.68965 0.0
H272 H 0.28758 0.5183 0.8197 0.0
H273 H 0.21876 0.49236 0.79579 0.0
H274 H 0.19421 0.57627 0.75029 0.0
H275 H 0.26262 0.6024 0.77442 0.0
H276 H 0.13173 0.5326 0.74619 0.0
H277 H 0.18442 0.4705 0.75988 0.0
H278 H 0.12392 0.42649 0.75619 0.0
H279 H 0.05331 0.40007 0.73413 0.0
C280 C 0.2375 0.93663 0.77896 0.0
C281 C 0.21525 0.94796 0.80227 0.0
C282 C 0.27431 0.95426 0.76543 0.0
C283 C 0.29011 0.98368 0.77497 0.0
C284 C 0.26803 0.99487 0.79832 0.0
C285 C 0.23123 0.97725 0.81184 0.0
C286 C 0.328 0.00395 0.76099 0.0
C287 C 0.36117 0.99369 0.74247 0.0
C288 C 0.40008 0.01405 0.72925 0.0
C289 C 0.4235 0.00342 0.70604 0.0
C290 C 0.46192 0.02108 0.69366 0.0
C291 C 0.47803 0.04983 0.7043 0.0
H292 H 0.40058 0.05186 0.75794 0.0
C293 C 0.45417 0.06063 0.72735 0.0
C294 C 0.41602 0.04297 0.73975 0.0
H295 H 0.46577 0.0825 0.73633 0.0
H296 H 0.22593 0.91427 0.77086 0.0
H297 H 0.28907 0.94492 0.74724 0.0
H298 H 0.2792 0.01746 0.80614 0.0
H299 H 0.21494 0.98681 0.82967 0.0
H300 H 0.32845 0.0284 0.76667 0.0
H301 H 0.36055 0.96929 0.73663 0.0
H302 H 0.41234 0.98119 0.69753 0.0
H303 H 0.4795 0.01193 0.676 0.0
C304 C 0.0628 0.51221 0.4372 0.0
C305 C 0.04423 0.54057 0.42697 0.0
C306 C 0.046 0.50139 0.46171 0.0
C307 C 0.0102 0.51881 0.47654 0.0
C308 C 0.99072 0.54667 0.46587 0.0
C309 C 0.00767 0.55752 0.44152 0.0
C310 C 0.99121 0.50865 0.50283 0.0
C311 C 0.01676 0.48879 0.51873 0.0
C312 C 0.99756 0.4787 0.545 0.0
C313 C 0.01593 0.45047 0.55551 0.0
C314 C 0.99845 0.43966 0.5798 0.0
C315 C 0.96253 0.45702 0.59441 0.0
H316 H 0.94863 0.51893 0.55306 0.0
C317 C 0.94522 0.48578 0.58436 0.0
C318 C 0.96252 0.49654 0.55994 0.0
H319 H 0.91776 0.4998 0.5952 0.0
H320 H 0.09079 0.49851 0.42642 0.0
H321 H 0.06084 0.47929 0.46871 0.0
H322 H 0.96275 0.56044 0.47663 0.0
H323 H 0.99236 0.57941 0.4342 0.0
H324 H 0.95494 0.51855 0.50936 0.0
H325 H 0.05297 0.4788 0.51223 0.0
H326 H 0.04332 0.43637 0.54467 0.0
H327 H 0.01278 0.41746 0.58698 0.0
C328 C 0.4879 0.94671 0.43776 0.0
C329 C 0.45687 0.96335 0.42005 0.0
C330 C 0.50258 0.9601 0.46165 0.0
C331 C 0.48631 0.9905 0.46848 0.0
C332 C 0.45648 0.00739 0.4504 0.0
C333 C 0.44172 0.99397 0.42654 0.0
C334 C 0.50025 0.00573 0.49384 0.0
C335 C 0.51459 0.98989 0.51555 0.0
C336 C 0.5282 0.00518 0.54093 0.0
C337 C 0.55866 0.98863 0.55895 0.0
C338 C 0.5728 0.00211 0.58288 0.0
C339 C 0.55636 0.03243 0.5895 0.0
H340 H 0.48575 0.04853 0.53509 0.0
C341 C 0.52478 0.04874 0.57183 0.0
C342 C 0.51074 0.0353 0.54786 0.0
H343 H 0.51111 0.07207 0.57641 0.0
H344 H 0.50056 0.92314 0.43328 0.0
H345 H 0.52704 0.94656 0.47447 0.0
H346 H 0.4438 0.03095 0.45492 0.0
H347 H 0.41792 0.00748 0.41333 0.0
H348 H 0.49765 0.03106 0.49453 0.0
H349 H 0.51732 0.96456 0.51489 0.0
H350 H 0.57224 0.96528 0.55434 0.0
H351 H 0.59704 0.98886 0.59608 0.0
C352 C 0.51485 0.45075 0.074 0.0
C353 C 0.54742 0.46731 0.09109 0.0
C354 C 0.49946 0.46387 0.05013 0.0
C355 C 0.51648 0.49392 0.04271 0.0
C356 C 0.54795 0.51071 0.06016 0.0
C357 C 0.56344 0.49755 0.08398 0.0
C358 C 0.50175 0.50893 0.01738 0.0
C359 C 0.4852 0.49307 0.99606 0.0
C360 C 0.47141 0.50829 0.97067 0.0
C361 C 0.43934 0.49217 0.95305 0.0
C362 C 0.42516 0.50566 0.92911 0.0
C363 C 0.44311 0.53555 0.92212 0.0
H364 H 0.51662 0.55079 0.97572 0.0
C365 C 0.4762 0.55138 0.93941 0.0
C366 C 0.49035 0.53793 0.96333 0.0
H367 H 0.49113 0.57434 0.93455 0.0
H368 H 0.50152 0.42746 0.07896 0.0
H369 H 0.47387 0.45042 0.0378 0.0
H370 H 0.5613 0.534 0.05517 0.0
H371 H 0.58843 0.511 0.0967 0.0
H372 H 0.50572 0.53418 0.01638 0.0
H373 H 0.48093 0.46783 0.99703 0.0
H374 H 0.4246 0.46917 0.95796 0.0
H375 H 0.39972 0.49279 0.91621 0.0
C376 C 0.0208 0.95105 0.94329 0.0
C377 C 0.05324 0.96739 0.92598 0.0
C378 C 0.00524 0.96455 0.96702 0.0
C379 C 0.02205 0.99477 0.97409 0.0
C380 C 0.0536 0.01129 0.95647 0.0
C381 C 0.06918 0.99776 0.93276 0.0
C382 C 0.0069 0.01025 0.99921 0.0
C383 C 0.98916 0.99482 0.02051 0.0
C384 C 0.97446 0.01044 0.04562 0.0
C385 C 0.94126 0.9947 0.06295 0.0
C386 C 0.9264 0.00842 0.08671 0.0
C387 C 0.94483 0.03815 0.09384 0.0
H388 H 0.02067 0.05258 0.04081 0.0
C389 C 0.97887 0.05368 0.0768 0.0
C390 C 0.99365 0.04 0.05302 0.0
H391 H 0.99413 0.07652 0.08178 0.0
H392 H 0.00746 0.92769 0.93857 0.0
H393 H 0.97959 0.95126 0.97944 0.0
H394 H 0.06683 0.03469 0.96119 0.0
H395 H 0.09406 0.01105 0.91986 0.0
H396 H 0.01135 0.03549 1.00006 0.0
H397 H 0.98442 0.96961 0.01973 0.0
H398 H 0.92624 0.97179 0.05797 0.0
H399 H 0.90025 0.99577 0.09941 0.0
C400 C 0.15194 0.67751 0.35632 0.0
C401 C 0.17078 0.65076 0.36911 0.0
C402 C 0.18055 0.70527 0.35608 0.0
C403 C 0.22881 0.70674 0.3685 0.0
C404 C 0.24795 0.67981 0.38086 0.0
C405 C 0.21904 0.65219 0.38141 0.0
C406 C 0.26091 0.73555 0.36803 0.0
C407 C 0.24086 0.76464 0.36754 0.0
C408 C 0.27315 0.79338 0.36727 0.0
C409 C 0.25416 0.82091 0.3788 0.0
C410 C 0.28348 0.84841 0.37866 0.0
C411 C 0.33199 0.84906 0.3665 0.0
H412 H 0.33689 0.77357 0.34524 0.0
C413 C 0.35065 0.82167 0.35456 0.0
C414 C 0.32164 0.79409 0.35498 0.0
H415 H 0.38777 0.8215 0.34488 0.0
H416 H 0.11499 0.67704 0.34654 0.0
H417 H 0.16522 0.72531 0.34574 0.0
H418 H 0.28522 0.68022 0.39034 0.0
H419 H 0.23472 0.63188 0.39127 0.0
H420 H 0.30233 0.73262 0.36953 0.0
H421 H 0.19941 0.76765 0.36876 0.0
H422 H 0.21672 0.82108 0.38816 0.0
H423 H 0.26793 0.86922 0.38787 0.0
C424 C 0.79973 0.16457 0.13412 0.0
C425 C 0.83661 0.15631 0.15298 0.0
C426 C 0.77448 0.19348 0.13554 0.0
C427 C 0.78525 0.21449 0.15606 0.0
C428 C 0.82143 0.20593 0.17511 0.0
C429 C 0.84734 0.17733 0.17343 0.0
C430 C 0.7581 0.24492 0.15868 0.0
C431 C 0.74335 0.26215 0.13793 0.0
C432 C 0.71719 0.29292 0.14066 0.0
C433 C 0.72541 0.31606 0.1216 0.0
C434 C 0.70069 0.34508 0.12341 0.0
C435 C 0.66631 0.35125 0.14403 0.0
H436 H 0.67472 0.28156 0.17606 0.0
C437 C 0.6576 0.32798 0.16297 0.0
C438 C 0.68293 0.29915 0.16138 0.0
H439 H 0.63111 0.33199 0.17901 0.0
H440 H 0.79055 0.14877 0.11819 0.0
H441 H 0.74587 0.19905 0.12087 0.0
H442 H 0.8301 0.22158 0.19123 0.0
H443 H 0.87537 0.17159 0.18833 0.0
H444 H 0.75297 0.25424 0.17831 0.0
H445 H 0.75326 0.25437 0.11829 0.0
H446 H 0.7513 0.31176 0.10534 0.0
H447 H 0.7079 0.36249 0.10843 0.0
C448 C 0.65321 0.17528 0.65736 0.0
C449 C 0.67371 0.14842 0.64535 0.0
C450 C 0.68104 0.20332 0.65771 0.0
C451 C 0.73018 0.205 0.64618 0.0
C452 C 0.75089 0.17801 0.63451 0.0
C453 C 0.72276 0.15008 0.63385 0.0
C454 C 0.76161 0.23407 0.64703 0.0
C455 C 0.74093 0.26301 0.6471 0.0
C456 C 0.77261 0.29198 0.64797 0.0
C457 C 0.75421 0.31929 0.6359 0.0
C458 C 0.78309 0.34696 0.63648 0.0
C459 C 0.8305 0.34798 0.64963 0.0
H460 H 0.83457 0.27275 0.6715 0.0
C461 C 0.84842 0.32085 0.6622 0.0
C462 C 0.8199 0.2931 0.66132 0.0
H463 H 0.88469 0.32097 0.67263 0.0
H464 H 0.61559 0.17466 0.66651 0.0
H465 H 0.66444 0.22339 0.66753 0.0
H466 H 0.78885 0.17859 0.62571 0.0
H467 H 0.73971 0.12971 0.6246 0.0
H468 H 0.80317 0.23147 0.64629 0.0
H469 H 0.69956 0.26572 0.64512 0.0
H470 H 0.71765 0.31914 0.62572 0.0
H471 H 0.76814 0.36756 0.62676 0.0
C472 C 0.34858 0.67942 0.85515 0.0
C473 C 0.32789 0.65235 0.86672 0.0
C474 C 0.321 0.70756 0.85535 0.0
C475 C 0.27197 0.70912 0.86703 0.0
C476 C 0.25103 0.68189 0.87818 0.0
C477 C 0.27884 0.65387 0.87826 0.0
C478 C 0.24091 0.73835 0.86707 0.0
C479 C 0.26191 0.76722 0.86747 0.0
C480 C 0.2306 0.79636 0.86794 0.0
C481 C 0.25064 0.82325 0.88005 0.0
C482 C 0.22227 0.85108 0.88073 0.0
C483 C 0.1736 0.85272 0.86888 0.0
H484 H 0.16595 0.77813 0.84571 0.0
C485 C 0.1539 0.826 0.85633 0.0
C486 C 0.18201 0.79809 0.85589 0.0
H487 H 0.11665 0.82661 0.84685 0.0
H488 H 0.38616 0.6789 0.84596 0.0
H489 H 0.33778 0.72783 0.84592 0.0
H490 H 0.21315 0.68236 0.88708 0.0
H491 H 0.26172 0.63335 0.88718 0.0
H492 H 0.19937 0.73586 0.86827 0.0
H493 H 0.30341 0.7697 0.86897 0.0
H494 H 0.28817 0.82265 0.88925 0.0
H495 H 0.23862 0.87135 0.8904 0.0
loop_
_geom_bond_atom_site_label_1
_geom_bond_atom_site_label_2
_geom_bond_distance
_geom_bond_site_symmetry_2
_ccdc_geom_bond_type
Co0 O1 2.216 . S
Co0 O2 2.091 . S
Co0 O4 2.004 . S
Co0 O10 2.021 . S
Co0 O12 2.137 . S
Co0 O13 2.244 . S
O1 Co0 2.216 . S
O1 C8 1.247 . S
O2 Co0 2.091 . S
O2 C8 1.261 . S
C3 O12 1.247 . S
C3 O13 1.272 . S
O4 Co0 2.004 . S
O4 C9 1.259 . S
Co5 O6 2.061 . S
Co5 O11 2.052 . S
Co5 O13 2.135 . S
O6 Co5 2.061 . S
O6 C9 1.235 . S
C7 O10 1.238 . S
C7 O11 1.241 . S
C8 O1 1.247 . S
C8 O2 1.261 . S
C9 O4 1.259 . S
C9 O6 1.235 . S
O10 Co0 2.021 . S
O10 C7 1.238 . S
O11 Co5 2.052 . S
O11 C7 1.241 . S
O12 Co0 2.137 . S
O12 C3 1.247 . S
O13 Co0 2.244 . S
O13 C3 1.272 . S
O13 Co5 2.135 . S
Co14 O15 2.216 . S
Co14 O16 2.091 . S
Co14 O18 2.004 . S
Co14 O24 2.021 . S
Co14 O26 2.137 . S
Co14 O27 2.244 . S
O15 Co14 2.216 . S
O15 C22 1.247 . S
O16 Co14 2.091 . S
O16 C22 1.261 . S
C17 O26 1.247 . S
C17 O27 1.272 . S
O18 Co14 2.004 . S
O18 C23 1.259 . S
Co19 O20 2.061 . S
Co19 O25 2.052 . S
Co19 O27 2.135 . S
O20 Co19 2.061 . S
O20 C23 1.235 . S
C21 O24 1.238 . S
C21 O25 1.241 . S
C22 O15 1.247 . S
C22 O16 1.261 . S
C23 O18 1.259 . S
C23 O20 1.235 . S
O24 Co14 2.021 . S
O24 C21 1.238 . S
O25 Co19 2.052 . S
O25 C21 1.241 . S
O26 Co14 2.137 . S
O26 C17 1.247 . S
O27 Co14 2.244 . S
O27 C17 1.272 . S
O27 Co19 2.135 . S
Co28 O29 2.216 . S
Co28 O30 2.091 . S
Co28 O32 2.004 . S
Co28 O38 2.021 . S
Co28 O40 2.137 . S
Co28 O41 2.244 . S
O29 Co28 2.216 . S
O29 C36 1.247 . S
O30 Co28 2.091 . S
O30 C36 1.261 . S
C31 O40 1.247 . S
C31 O41 1.272 . S
O32 Co28 2.004 . S
O32 C37 1.259 . S
Co33 O34 2.061 . S
Co33 O39 2.052 . S
Co33 O41 2.135 . S
O34 Co33 2.061 . S
O34 C37 1.235 . S
C35 O38 1.238 . S
C35 O39 1.241 . S
C36 O29 1.247 . S
C36 O30 1.261 . S
C37 O32 1.259 . S
C37 O34 1.235 . S
O38 Co28 2.021 . S
O38 C35 1.238 . S
O39 Co33 2.052 . S
O39 C35 1.241 . S
O40 Co28 2.137 . S
O40 C31 1.247 . S
O41 Co28 2.244 . S
O41 C31 1.272 . S
O41 Co33 2.135 . S
Co42 O43 2.216 . S
Co42 O44 2.091 . S
Co42 O46 2.004 . S
Co42 O52 2.021 . S
Co42 O54 2.137 . S
Co42 O55 2.244 . S
O43 Co42 2.216 . S
O43 C50 1.247 . S
O44 Co42 2.091 . S
O44 C50 1.261 . S
C45 O54 1.247 . S
C45 O55 1.272 . S
O46 Co42 2.004 . S
O46 C51 1.259 . S
Co47 O48 2.061 . S
Co47 O53 2.052 . S
Co47 O55 2.135 . S
O48 Co47 2.061 . S
O48 C51 1.235 . S
C49 O52 1.238 . S
C49 O53 1.241 . S
C50 O43 1.247 . S
C50 O44 1.261 . S
C51 O46 1.259 . S
C51 O48 1.235 . S
O52 Co42 2.021 . S
O52 C49 1.238 . S
O53 Co47 2.052 . S
O53 C49 1.241 . S
O54 Co42 2.137 . S
O54 C45 1.247 . S
O55 Co42 2.244 . S
O55 C45 1.272 . S
O55 Co47 2.135 . S
Co56 O57 2.216 . S
Co56 O58 2.091 . S
Co56 O60 2.004 . S
Co56 O66 2.021 . S
Co56 O68 2.137 . S
Co56 O69 2.244 . S
O57 Co56 2.216 . S
O57 C64 1.247 . S
O58 Co56 2.091 . S
O58 C64 1.261 . S
C59 O68 1.247 . S
C59 O69 1.272 . S
O60 Co56 2.004 . S
O60 C65 1.259 . S
Co61 O62 2.061 . S
Co61 O67 2.052 . S
Co61 O69 2.135 . S
O62 Co61 2.061 . S
O62 C65 1.235 . S
C63 O66 1.238 . S
C63 O67 1.241 . S
C64 O57 1.247 . S
C64 O58 1.261 . S
C65 O60 1.259 . S
C65 O62 1.235 . S
O66 Co56 2.021 . S
O66 C63 1.238 . S
O67 Co61 2.052 . S
O67 C63 1.241 . S
O68 Co56 2.137 . S
O68 C59 1.247 . S
O69 Co56 2.244 . S
O69 C59 1.272 . S
O69 Co61 2.135 . S
Co70 O71 2.216 . S
Co70 O72 2.091 . S
Co70 O74 2.004 . S
Co70 O80 2.021 . S
Co70 O82 2.137 . S
Co70 O83 2.244 . S
O71 Co70 2.216 . S
O71 C78 1.247 . S
O72 Co70 2.091 . S
O72 C78 1.261 . S
C73 O82 1.247 . S
C73 O83 1.272 . S
O74 Co70 2.004 . S
O74 C79 1.259 . S
Co75 O76 2.061 . S
Co75 O81 2.052 . S
Co75 O83 2.135 . S
O76 Co75 2.061 . S
O76 C79 1.235 . S
C77 O80 1.238 . S
C77 O81 1.241 . S
C78 O71 1.247 . S
C78 O72 1.261 . S
C79 O74 1.259 . S
C79 O76 1.235 . S
O80 Co70 2.021 . S
O80 C77 1.238 . S
O81 Co75 2.052 . S
O81 C77 1.241 . S
O82 Co70 2.137 . S
O82 C73 1.247 . S
O83 Co70 2.244 . S
O83 C73 1.272 . S
O83 Co75 2.135 . S
Co84 O85 2.216 . S
Co84 O86 2.091 . S
Co84 O88 2.004 . S
Co84 O94 2.021 . S
Co84 O96 2.137 . S
Co84 O97 2.244 . S
O85 Co84 2.216 . S
O85 C92 1.247 . S
O86 Co84 2.091 . S
O86 C92 1.261 . S
C87 O96 1.247 . S
C87 O97 1.272 . S
O88 Co84 2.004 . S
O88 C93 1.259 . S
Co89 O90 2.061 . S
Co89 O95 2.052 . S
Co89 O97 2.135 . S
O90 Co89 2.061 . S
O90 C93 1.235 . S
C91 O94 1.238 . S
C91 O95 1.241 . S
C92 O85 1.247 . S
C92 O86 1.261 . S
C93 O88 1.259 . S
C93 O90 1.235 . S
O94 Co84 2.021 . S
O94 C91 1.238 . S
O95 Co89 2.052 . S
O95 C91 1.241 . S
O96 Co84 2.137 . S
O96 C87 1.247 . S
O97 Co84 2.244 . S
O97 C87 1.272 . S
O97 Co89 2.135 . S
Co98 O99 2.216 . S
Co98 O100 2.091 . S
Co98 O102 2.004 . S
Co98 O108 2.021 . S
Co98 O110 2.137 . S
Co98 O111 2.244 . S
O99 Co98 2.216 . S
O99 C106 1.247 . S
O100 Co98 2.091 . S
O100 C106 1.261 . S
C101 O110 1.247 . S
C101 O111 1.272 . S
O102 Co98 2.004 . S
O102 C107 1.259 . S
Co103 O104 2.061 . S
Co103 O109 2.052 . S
Co103 O111 2.135 . S
O104 Co103 2.061 . S
O104 C107 1.235 . S
C105 O108 1.238 . S
C105 O109 1.241 . S
C106 O99 1.247 . S
C106 O100 1.261 . S
C107 O102 1.259 . S
C107 O104 1.235 . S
O108 Co98 2.021 . S
O108 C105 1.238 . S
O109 Co103 2.052 . S
O109 C105 1.241 . S
O110 Co98 2.137 . S
O110 C101 1.247 . S
O111 Co98 2.244 . S
O111 C101 1.272 . S
O111 Co103 2.135 . S
C112 C113 1.386 . S
C112 C114 1.383 . S
C112 H128 0.951 . S
C113 C112 1.386 . S
C113 C117 1.383 . S
C114 C112 1.383 . S
C114 C115 1.402 . S
C114 H129 0.951 . S
C115 C114 1.402 . S
C115 C116 1.375 . S
C115 C118 1.481 . S
C116 C115 1.375 . S
C116 C117 1.367 . S
C116 H130 0.951 . S
C117 C113 1.383 . S
C117 C116 1.367 . S
C117 H131 0.950 . S
C118 C115 1.481 . S
C118 C119 1.297 . S
C118 H132 0.950 . S
C119 C118 1.297 . S
C119 C120 1.479 . S
C119 H133 0.950 . S
C120 C119 1.479 . S
C120 C121 1.375 . S
C120 C126 1.404 . S
C121 C120 1.375 . S
C121 C122 1.369 . S
C121 H134 0.950 . S
C122 C121 1.369 . S
C122 C123 1.392 . S
C122 H135 0.951 . S
C123 C122 1.392 . S
C123 C125 1.384 . S
H124 C126 0.949 . S
C125 C123 1.384 . S
C125 C126 1.385 . S
C125 H127 0.950 . S
C126 C120 1.404 . S
C126 H124 0.949 . S
C126 C125 1.385 . S
H127 C125 0.950 . S
H128 C112 0.951 . S
H129 C114 0.951 . S
H130 C116 0.951 . S
H131 C117 0.950 . S
H132 C118 0.950 . S
H133 C119 0.950 . S
H134 C121 0.950 . S
H135 C122 0.951 . S
C136 C137 1.386 . S
C136 C138 1.383 1_655 S
C136 H152 0.951 . S
C137 C136 1.386 . S
C137 C141 1.402 1_655 S
C138 C136 1.383 1_455 S
C138 C139 1.402 . S
C138 H153 0.951 . S
C139 C138 1.402 . S
C139 C140 1.375 1_545 S
C139 C142 1.481 1_545 S
C140 C139 1.375 1_565 S
C140 C141 1.371 1_565 S
C140 H154 0.951 . S
C141 C137 1.402 1_455 S
C141 C140 1.371 1_545 S
C141 H155 0.928 1_445 S
C142 C139 1.481 1_565 S
C142 C143 1.297 . S
C142 H156 0.950 . S
C143 C142 1.297 . S
C143 C144 1.479 . S
C143 H157 0.950 1_565 S
C144 C143 1.479 . S
C144 C145 1.375 1_565 S
C144 C150 1.404 . S
C145 C144 1.375 1_545 S
C145 C146 1.369 1_545 S
C145 H158 0.950 . S
C146 C145 1.369 1_565 S
C146 C147 1.392 . S
C146 H159 0.951 1_565 S
C147 C146 1.392 . S
C147 C149 1.384 . S
H148 C150 0.949 . S
C149 C147 1.384 . S
C149 C150 1.385 . S
C149 H151 0.950 . S
C150 C144 1.404 . S
C150 H148 0.949 . S
C150 C149 1.385 . S
H151 C149 0.950 . S
H152 C136 0.951 . S
H153 C138 0.951 . S
H154 C140 0.951 . S
H155 C141 0.928 1_665 S
H156 C142 0.950 . S
H157 C143 0.950 1_545 S
H158 C145 0.950 . S
H159 C146 0.951 1_545 S
C160 C161 1.386 . S
C160 C162 1.383 . S
C160 H176 0.951 . S
C161 C160 1.386 . S
C161 C165 1.383 . S
C162 C160 1.383 . S
C162 C163 1.402 . S
C162 H177 0.951 . S
C163 C162 1.402 . S
C163 C164 1.375 . S
C163 C166 1.481 . S
C164 C163 1.375 . S
C164 C165 1.367 . S
C164 H178 0.951 . S
C165 C161 1.383 . S
C165 C164 1.367 . S
C165 H179 0.950 . S
C166 C163 1.481 . S
C166 C167 1.297 . S
C166 H180 0.950 . S
C167 C166 1.297 . S
C167 C168 1.479 . S
C167 H181 0.950 . S
C168 C167 1.479 . S
C168 C169 1.375 . S
C168 C174 1.404 . S
C169 C168 1.375 . S
C169 C170 1.369 1_655 S
C169 H182 0.950 1_655 S
C170 C169 1.369 1_455 S
C170 C171 1.392 . S
C170 H183 0.951 . S
C171 C170 1.392 . S
C171 C173 1.384 1_455 S
H172 C174 0.949 . S
C173 C171 1.384 1_655 S
C173 C174 1.385 . S
C173 H175 0.950 . S
C174 C168 1.404 . S
C174 H172 0.949 . S
C174 C173 1.385 . S
H175 C173 0.950 . S
H176 C160 0.951 . S
H177 C162 0.951 . S
H178 C164 0.951 . S
H179 C165 0.950 . S
H180 C166 0.950 . S
H181 C167 0.950 . S
H182 C169 0.950 1_455 S
H183 C170 0.951 . S
C184 C185 1.386 . S
C184 C186 1.383 1_545 S
C184 H200 0.951 1_545 S
C185 C184 1.386 . S
C185 C189 1.383 . S
C186 C184 1.383 1_565 S
C186 C187 1.402 1_565 S
C186 H201 0.951 . S
C187 C186 1.402 1_545 S
C187 C188 1.375 . S
C187 C190 1.481 . S
C188 C187 1.375 . S
C188 C189 1.367 . S
C188 H202 0.951 . S
C189 C185 1.383 . S
C189 C188 1.367 . S
C189 H203 0.950 . S
C190 C187 1.481 . S
C190 C191 1.297 1_545 S
C190 H204 0.950 . S
C191 C190 1.297 1_565 S
C191 C192 1.479 . S
C191 H205 0.950 . S
C192 C191 1.479 . S
C192 C193 1.375 . S
C192 C198 1.404 . S
C193 C192 1.375 . S
C193 C194 1.369 . S
C193 H206 0.950 . S
C194 C193 1.369 . S
C194 C195 1.392 . S
C194 H207 0.951 . S
C195 C194 1.392 . S
C195 C197 1.384 . S
H196 C198 0.949 1_545 S
C197 C195 1.384 . S
C197 C198 1.385 . S
C197 H199 0.950 1_565 S
C198 C192 1.404 . S
C198 H196 0.949 1_565 S
C198 C197 1.385 . S
H199 C197 0.950 1_545 S
H200 C184 0.951 1_565 S
H201 C186 0.951 . S
H202 C188 0.951 . S
H203 C189 0.950 . S
H204 C190 0.950 . S
H205 C191 0.950 . S
H206 C193 0.950 . S
H207 C194 0.951 . S
C208 C209 1.386 . S
C208 C210 1.383 . S
C208 H224 0.951 . S
C209 C208 1.386 . S
C209 C213 1.383 . S
C210 C208 1.383 . S
C210 C211 1.402 . S
C210 H225 0.951 . S
C211 C210 1.402 . S
C211 C212 1.375 . S
C211 C214 1.481 . S
C212 C211 1.375 . S
C212 C213 1.367 . S
C212 H226 0.951 . S
C213 C209 1.383 . S
C213 C212 1.367 . S
C213 H227 0.950 . S
C214 C211 1.481 . S
C214 C215 1.297 . S
C214 H228 0.950 . S
C215 C214 1.297 . S
C215 C216 1.479 . S
C215 H229 0.950 . S
C216 C215 1.479 . S
C216 C217 1.375 . S
C216 C222 1.404 . S
C217 C216 1.375 . S
C217 C218 1.369 . S
C217 H230 0.950 . S
C218 C217 1.369 . S
C218 C219 1.392 . S
C218 H231 0.951 . S
C219 C218 1.392 . S
C219 C221 1.384 . S
H220 C222 0.949 . S
C221 C219 1.384 . S
C221 C222 1.385 . S
C221 H223 0.950 . S
C222 C216 1.404 . S
C222 H220 0.949 . S
C222 C221 1.385 . S
H223 C221 0.950 . S
H224 C208 0.951 . S
H225 C210 0.951 . S
H226 C212 0.951 . S
H227 C213 0.950 . S
H228 C214 0.950 . S
H229 C215 0.950 . S
H230 C217 0.950 . S
H231 C218 0.951 . S
C232 C233 1.386 . S
C232 C234 1.383 . S
C232 H248 0.951 . S
C233 C232 1.386 . S
C233 C237 1.383 . S
C234 C232 1.383 . S
C234 C235 1.402 . S
C234 H249 0.951 . S
C235 C234 1.402 . S
C235 C236 1.375 . S
C235 C238 1.481 1_545 S
C236 C235 1.375 . S
C236 C237 1.367 . S
C236 H250 0.951 1_545 S
C237 C233 1.383 . S
C237 C236 1.367 . S
C237 H251 0.950 . S
C238 C235 1.481 1_565 S
C238 C239 1.297 . S
C238 H252 0.950 . S
C239 C238 1.297 . S
C239 C240 1.479 . S
C239 H253 0.950 . S
C240 C239 1.479 . S
C240 C241 1.375 . S
C240 C246 1.404 . S
C241 C240 1.375 . S
C241 C242 1.369 . S
C241 H254 0.950 . S
C242 C241 1.369 . S
C242 C243 1.392 1_655 S
C242 H255 0.951 . S
C243 C242 1.392 1_455 S
C243 C245 1.384 . S
H244 C246 0.949 . S
C245 C243 1.384 . S
C245 C246 1.385 1_455 S
C245 H247 0.950 . S
C246 C240 1.404 . S
C246 H244 0.949 . S
C246 C245 1.385 1_655 S
H247 C245 0.950 . S
H248 C232 0.951 . S
H249 C234 0.951 . S
H250 C236 0.951 1_565 S
H251 C237 0.950 . S
H252 C238 0.950 . S
H253 C239 0.950 . S
H254 C241 0.950 . S
H255 C242 0.951 . S
C256 C257 1.386 . S
C256 C258 1.383 . S
C256 H272 0.951 . S
C257 C256 1.386 . S
C257 C261 1.383 . S
C258 C256 1.383 . S
C258 C259 1.402 . S
C258 H273 0.951 . S
C259 C258 1.402 . S
C259 C260 1.375 . S
C259 C262 1.481 . S
C260 C259 1.375 . S
C260 C261 1.367 . S
C260 H274 0.951 . S
C261 C257 1.383 . S
C261 C260 1.367 . S
C261 H275 0.950 . S
C262 C259 1.481 . S
C262 C263 1.297 . S
C262 H276 0.950 . S
C263 C262 1.297 . S
C263 C264 1.479 . S
C263 H277 0.950 . S
C264 C263 1.479 . S
C264 C265 1.375 . S
C264 C270 1.404 . S
C265 C264 1.375 . S
C265 C266 1.369 . S
C265 H278 0.950 . S
C266 C265 1.369 . S
C266 C267 1.392 1_455 S
C266 H279 0.951 . S
C267 C266 1.392 1_655 S
C267 C269 1.384 . S
H268 C270 0.949 . S
C269 C267 1.384 . S
C269 C270 1.385 1_655 S
C269 H271 0.950 . S
C270 C264 1.404 . S
C270 H268 0.949 . S
C270 C269 1.385 1_455 S
H271 C269 0.950 . S
H272 C256 0.951 . S
H273 C258 0.951 . S
H274 C260 0.951 . S
H275 C261 0.950 . S
H276 C262 0.950 . S
H277 C263 0.950 . S
H278 C265 0.950 . S
H279 C266 0.951 . S
C280 C281 1.386 . S
C280 C282 1.383 . S
C280 H296 0.951 . S
C281 C280 1.386 . S
C281 C285 1.383 . S
C282 C280 1.383 . S
C282 C283 1.402 . S
C282 H297 0.951 . S
C283 C282 1.402 . S
C283 C284 1.375 . S
C283 C286 1.481 1_565 S
C284 C283 1.375 . S
C284 C285 1.367 . S
C284 H298 0.951 1_565 S
C285 C281 1.383 . S
C285 C284 1.367 . S
C285 H299 0.950 . S
C286 C283 1.481 1_545 S
C286 C287 1.297 . S
C286 H300 0.950 . S
C287 C286 1.297 . S
C287 C288 1.479 . S
C287 H301 0.950 . S
C288 C287 1.479 . S
C288 C289 1.375 . S
C288 C294 1.404 . S
C289 C288 1.375 . S
C289 C290 1.369 . S
C289 H302 0.950 . S
C290 C289 1.369 . S
C290 C291 1.392 . S
C290 H303 0.951 . S
C291 C290 1.392 . S
C291 C293 1.384 . S
H292 C294 0.949 . S
C293 C291 1.384 . S
C293 C294 1.385 . S
C293 H295 0.950 . S
C294 C288 1.404 . S
C294 H292 0.949 . S
C294 C293 1.385 . S
H295 C293 0.950 . S
H296 C280 0.951 . S
H297 C282 0.951 . S
H298 C284 0.951 1_545 S
H299 C285 0.950 . S
H300 C286 0.950 . S
H301 C287 0.950 . S
H302 C289 0.950 . S
H303 C290 0.951 . S
C304 C305 1.386 . S
C304 C306 1.383 . S
C304 H320 0.951 . S
C305 C304 1.386 . S
C305 C309 1.383 . S
C306 C304 1.383 . S
C306 C307 1.402 . S
C306 H321 0.951 . S
C307 C306 1.402 . S
C307 C308 1.375 . S
C307 C310 1.481 . S
C308 C307 1.375 . S
C308 C309 1.367 . S
C308 H322 0.951 . S
C309 C305 1.383 . S
C309 C308 1.367 . S
C309 H323 0.950 . S
C310 C307 1.481 . S
C310 C311 1.297 . S
C310 H324 0.950 1_455 S
C311 C310 1.297 . S
C311 C312 1.479 1_455 S
C311 H325 0.950 . S
C312 C311 1.479 1_655 S
C312 C313 1.375 . S
C312 C318 1.404 . S
C313 C312 1.375 . S
C313 C314 1.369 . S
C313 H326 0.950 1_655 S
C314 C313 1.369 . S
C314 C315 1.392 . S
C314 H327 0.951 . S
C315 C314 1.392 . S
C315 C317 1.384 . S
H316 C318 0.949 . S
C317 C315 1.384 . S
C317 C318 1.385 . S
C317 H319 0.950 . S
C318 C312 1.404 . S
C318 H316 0.949 . S
C318 C317 1.385 . S
H319 C317 0.950 . S
H320 C304 0.951 . S
H321 C306 0.951 . S
H322 C308 0.951 . S
H323 C309 0.950 . S
H324 C310 0.950 1_655 S
H325 C311 0.950 . S
H326 C313 0.950 1_455 S
H327 C314 0.951 . S
C328 C329 1.386 . S
C328 C330 1.383 . S
C328 H344 0.951 . S
C329 C328 1.386 . S
C329 C333 1.383 . S
C330 C328 1.383 . S
C330 C331 1.402 . S
C330 H345 0.951 . S
C331 C330 1.402 . S
C331 C332 1.375 . S
C331 C334 1.481 . S
C332 C331 1.375 . S
C332 C333 1.367 . S
C332 H346 0.951 1_565 S
C333 C329 1.383 . S
C333 C332 1.367 . S
C333 H347 0.950 . S
C334 C331 1.481 . S
C334 C335 1.297 . S
C334 H348 0.950 1_565 S
C335 C334 1.297 . S
C335 C336 1.479 1_565 S
C335 H349 0.950 . S
C336 C335 1.479 1_545 S
C336 C337 1.375 1_545 S
C336 C342 1.404 . S
C337 C336 1.375 1_565 S
C337 C338 1.369 1_565 S
C337 H350 0.950 . S
C338 C337 1.369 1_545 S
C338 C339 1.392 . S
C338 H351 0.951 . S
C339 C338 1.392 . S
C339 C341 1.384 . S
H340 C342 0.949 . S
C341 C339 1.384 . S
C341 C342 1.385 . S
C341 H343 0.950 . S
C342 C336 1.404 . S
C342 H340 0.949 . S
C342 C341 1.385 . S
H343 C341 0.950 . S
H344 C328 0.951 . S
H345 C330 0.951 . S
H346 C332 0.951 1_545 S
H347 C333 0.950 . S
H348 C334 0.950 1_545 S
H349 C335 0.950 . S
H350 C337 0.950 . S
H351 C338 0.951 . S
C352 C353 1.386 . S
C352 C354 1.383 . S
C352 H368 0.951 . S
C353 C352 1.386 . S
C353 C357 1.383 . S
C354 C352 1.383 . S
C354 C355 1.402 . S
C354 H369 0.951 . S
C355 C354 1.402 . S
C355 C356 1.375 . S
C355 C358 1.481 . S
C356 C355 1.375 . S
C356 C357 1.367 . S
C356 H370 0.951 . S
C357 C353 1.383 . S
C357 C356 1.367 . S
C357 H371 0.950 . S
C358 C355 1.481 . S
C358 C359 1.297 1_554 S
C358 H372 0.950 1_554 S
C359 C358 1.297 1_556 S
C359 C360 1.479 . S
C359 H373 0.950 1_556 S
C360 C359 1.479 . S
C360 C361 1.375 . S
C360 C366 1.404 . S
C361 C360 1.375 . S
C361 C362 1.369 . S
C361 H374 0.950 . S
C362 C361 1.369 . S
C362 C363 1.392 . S
C362 H375 0.951 . S
C363 C362 1.392 . S
C363 C365 1.384 . S
H364 C366 0.949 . S
C365 C363 1.384 . S
C365 C366 1.385 . S
C365 H367 0.950 . S
C366 C360 1.404 . S
C366 H364 0.949 . S
C366 C365 1.385 . S
H367 C365 0.950 . S
H368 C352 0.951 . S
H369 C354 0.951 . S
H370 C356 0.951 . S
H371 C357 0.950 . S
H372 C358 0.950 1_556 S
H373 C359 0.950 1_554 S
H374 C361 0.950 . S
H375 C362 0.951 . S
C376 C377 1.386 . S
C376 C378 1.383 . S
C376 H392 0.951 . S
C377 C376 1.386 . S
C377 C381 1.383 . S
C378 C376 1.383 . S
C378 C379 1.402 . S
C378 H393 0.951 . S
C379 C378 1.402 . S
C379 C380 1.375 1_565 S
C379 C382 1.481 1_565 S
C380 C379 1.375 1_545 S
C380 C381 1.367 1_545 S
C380 H394 0.945 1_455 S
C381 C377 1.383 . S
C381 C380 1.367 1_565 S
C381 H395 0.943 1_565 S
C382 C379 1.481 1_545 S
C382 C383 1.297 1_556 S
C382 H396 0.950 1_455 S
C383 C382 1.297 1_554 S
C383 C384 1.479 1_455 S
C383 H397 0.950 1_545 S
C384 C383 1.479 1_655 S
C384 C385 1.375 . S
C384 C390 1.404 . S
C385 C384 1.375 . S
C385 C386 1.369 . S
C385 H398 0.950 1_645 S
C386 C385 1.369 . S
C386 C387 1.392 . S
C386 H399 0.951 . S
C387 C386 1.392 . S
C387 C389 1.384 . S
H388 C390 0.949 . S
C389 C387 1.384 . S
C389 C390 1.385 . S
C389 H391 0.950 . S
C390 C384 1.404 . S
C390 H388 0.949 . S
C390 C389 1.385 . S
H391 C389 0.950 . S
H392 C376 0.951 . S
H393 C378 0.951 . S
H394 C380 0.945 1_655 S
H395 C381 0.943 1_545 S
H396 C382 0.950 1_655 S
H397 C383 0.950 1_565 S
H398 C385 0.950 1_465 S
H399 C386 0.951 . S
C400 C401 1.386 . S
C400 C402 1.383 . S
C400 H416 0.951 . S
C401 C400 1.386 . S
C401 C405 1.383 . S
C402 C400 1.383 . S
C402 C403 1.402 . S
C402 H417 0.951 . S
C403 C402 1.402 . S
C403 C404 1.375 . S
C403 C406 1.481 . S
C404 C403 1.375 . S
C404 C405 1.367 . S
C404 H418 0.951 . S
C405 C401 1.383 . S
C405 C404 1.367 . S
C405 H419 0.950 . S
C406 C403 1.481 . S
C406 C407 1.297 . S
C406 H420 0.950 . S
C407 C406 1.297 . S
C407 C408 1.479 . S
C407 H421 0.950 . S
C408 C407 1.479 . S
C408 C409 1.375 . S
C408 C414 1.404 . S
C409 C408 1.375 . S
C409 C410 1.369 . S
C409 H422 0.950 . S
C410 C409 1.369 . S
C410 C411 1.392 . S
C410 H423 0.951 . S
C411 C410 1.392 . S
C411 C413 1.384 . S
H412 C414 0.949 . S
C413 C411 1.384 . S
C413 C414 1.385 . S
C413 H415 0.950 . S
C414 C408 1.404 . S
C414 H412 0.949 . S
C414 C413 1.385 . S
H415 C413 0.950 . S
H416 C400 0.951 . S
H417 C402 0.951 . S
H418 C404 0.951 . S
H419 C405 0.950 . S
H420 C406 0.950 . S
H421 C407 0.950 . S
H422 C409 0.950 . S
H423 C410 0.951 . S
C424 C425 1.386 . S
C424 C426 1.383 . S
C424 H440 0.951 . S
C425 C424 1.386 . S
C425 C429 1.383 . S
C426 C424 1.383 . S
C426 C427 1.402 . S
C426 H441 0.951 . S
C427 C426 1.402 . S
C427 C428 1.375 . S
C427 C430 1.481 . S
C428 C427 1.375 . S
C428 C429 1.367 . S
C428 H442 0.951 . S
C429 C425 1.383 . S
C429 C428 1.367 . S
C429 H443 0.950 . S
C430 C427 1.481 . S
C430 C431 1.297 . S
C430 H444 0.950 . S
C431 C430 1.297 . S
C431 C432 1.479 . S
C431 H445 0.950 . S
C432 C431 1.479 . S
C432 C433 1.375 . S
C432 C438 1.404 . S
C433 C432 1.375 . S
C433 C434 1.369 . S
C433 H446 0.950 . S
C434 C433 1.369 . S
C434 C435 1.392 . S
C434 H447 0.951 . S
C435 C434 1.392 . S
C435 C437 1.384 . S
H436 C438 0.949 . S
C437 C435 1.384 . S
C437 C438 1.385 . S
C437 H439 0.950 . S
C438 C432 1.404 . S
C438 H436 0.949 . S
C438 C437 1.385 . S
H439 C437 0.950 . S
H440 C424 0.951 . S
H441 C426 0.951 . S
H442 C428 0.951 . S
H443 C429 0.950 . S
H444 C430 0.950 . S
H445 C431 0.950 . S
H446 C433 0.950 . S
H447 C434 0.951 . S
C448 C449 1.386 . S
C448 C450 1.383 . S
C448 H464 0.951 . S
C449 C448 1.386 . S
C449 C453 1.383 . S
C450 C448 1.383 . S
C450 C451 1.402 . S
C450 H465 0.951 . S
C451 C450 1.402 . S
C451 C452 1.375 . S
C451 C454 1.481 . S
C452 C451 1.375 . S
C452 C453 1.367 . S
C452 H466 0.951 . S
C453 C449 1.383 . S
C453 C452 1.367 . S
C453 H467 0.950 . S
C454 C451 1.481 . S
C454 C455 1.297 . S
C454 H468 0.950 . S
C455 C454 1.297 . S
C455 C456 1.479 . S
C455 H469 0.950 . S
C456 C455 1.479 . S
C456 C457 1.375 . S
C456 C462 1.404 . S
C457 C456 1.375 . S
C457 C458 1.369 . S
C457 H470 0.950 . S
C458 C457 1.369 . S
C458 C459 1.392 . S
C458 H471 0.951 . S
C459 C458 1.392 . S
C459 C461 1.384 . S
H460 C462 0.949 . S
C461 C459 1.384 . S
C461 C462 1.385 . S
C461 H463 0.950 . S
C462 C456 1.404 . S
C462 H460 0.949 . S
C462 C461 1.385 . S
H463 C461 0.950 . S
H464 C448 0.951 . S
H465 C450 0.951 . S
H466 C452 0.951 . S
H467 C453 0.950 . S
H468 C454 0.950 . S
H469 C455 0.950 . S
H470 C457 0.950 . S
H471 C458 0.951 . S
C472 C473 1.386 . S
C472 C474 1.383 . S
C472 H488 0.951 . S
C473 C472 1.386 . S
C473 C477 1.383 . S
C474 C472 1.383 . S
C474 C475 1.402 . S
C474 H489 0.951 . S
C475 C474 1.402 . S
C475 C476 1.375 . S
C475 C478 1.481 . S
C476 C475 1.375 . S
C476 C477 1.367 . S
C476 H490 0.951 . S
C477 C473 1.383 . S
C477 C476 1.367 . S
C477 H491 0.950 . S
C478 C475 1.481 . S
C478 C479 1.297 . S
C478 H492 0.950 . S
C479 C478 1.297 . S
C479 C480 1.479 . S
C479 H493 0.950 . S
C480 C479 1.479 . S
C480 C481 1.375 . S
C480 C486 1.404 . S
C481 C480 1.375 . S
C481 C482 1.369 . S
C481 H494 0.950 . S
C482 C481 1.369 . S
C482 C483 1.392 . S
C482 H495 0.951 . S
C483 C482 1.392 . S
C483 C485 1.384 . S
H484 C486 0.949 . S
C485 C483 1.384 . S
C485 C486 1.385 . S
C485 H487 0.950 . S
C486 C480 1.404 . S
C486 H484 0.949 . S
C486 C485 1.385 . S
H487 C485 0.950 . S
H488 C472 0.951 . S
H489 C474 0.951 . S
H490 C476 0.951 . S
H491 C477 0.950 . S
H492 C478 0.950 . S
H493 C479 0.950 . S
H494 C481 0.950 . S
H495 C482 0.951 . S
C113 C9 1.392 . S
C123 C35 1.318 . S
C137 C49 1.380 . S
C147 C23 1.383 . S
C161 C37 1.393 . S
C171 C7 1.317 . S
C185 C51 1.362 . S
C195 C21 1.377 . S
C209 C91 1.375 . S
C219 C65 1.336 . S
C233 C79 1.402 . S
C243 C105 1.352 . S
C257 C93 1.382 . S
C267 C63 1.317 . S
C281 C107 1.402 . S
C291 C77 1.351 . S
C305 C8 1.522 . S
C315 C64 1.508 . S
C329 C22 1.517 . S
C339 C78 1.501 . S
C353 C36 1.516 . S
C363 C92 1.518 . S
C377 C106 1.512 . S
C387 C50 1.515 . S
C401 C3 1.526 . S
C411 C17 1.511 . S
C425 C45 1.524 . S
C435 C31 1.522 . S
C449 C73 1.521 . S
C459 C59 1.508 . S
C473 C87 1.520 . S
C483 C101 1.511 . S
