# Generated by pormake.
# Topology smi, (6)-cn, num edge types: 1
# Building blocks:
#     Node 0, Type 0, BuildingBlock: IZENUY_clean_sbu_0, # of connection points: 6
#     Node 1, Type 0, BuildingBlock: IZENUY_clean_sbu_0, # of connection points: 6
#     Node 2, Type 0, BuildingBlock: IZENUY_clean_sbu_0, # of connection points: 6
#     Node 3, Type 0, BuildingBlock: IZENUY_clean_sbu_0, # of connection points: 6
#     Node 4, Type 0, BuildingBlock: IZENUY_clean_sbu_0, # of connection points: 6
#     Node 5, Type 0, BuildingBlock: IZENUY_clean_sbu_0, # of connection points: 6
#     Edge 6, Type (0, 0), BuildingBlock: XUDNAN_clean_linker_2, # of connection points: 2
#     Edge 7, Type (0, 0), BuildingBlock: XUDNAN_clean_linker_2, # of connection points: 2
#     Edge 8, Type (0, 0), BuildingBlock: XUDNAN_clean_linker_2, # of connection points: 2
#     Edge 9, Type (0, 0), BuildingBlock: XUDNAN_clean_linker_2, # of connection points: 2
#     Edge 10, Type (0, 0), BuildingBlock: XUDNAN_clean_linker_2, # of connection points: 2
#     Edge 11, Type (0, 0), BuildingBlock: XUDNAN_clean_linker_2, # of connection points: 2
#     Edge 12, Type (0, 0), BuildingBlock: XUDNAN_clean_linker_2, # of connection points: 2
#     Edge 13, Type (0, 0), BuildingBlock: XUDNAN_clean_linker_2, # of connection points: 2
#     Edge 14, Type (0, 0), BuildingBlock: XUDNAN_clean_linker_2, # of connection points: 2
#     Edge 15, Type (0, 0), BuildingBlock: XUDNAN_clean_linker_2, # of connection points: 2
#     Edge 16, Type (0, 0), BuildingBlock: XUDNAN_clean_linker_2, # of connection points: 2
#     Edge 17, Type (0, 0), BuildingBlock: XUDNAN_clean_linker_2, # of connection points: 2
#     Edge 18, Type (0, 0), BuildingBlock: XUDNAN_clean_linker_2, # of connection points: 2
#     Edge 19, Type (0, 0), BuildingBlock: XUDNAN_clean_linker_2, # of connection points: 2
#     Edge 20, Type (0, 0), BuildingBlock: XUDNAN_clean_linker_2, # of connection points: 2
#     Edge 21, Type (0, 0), BuildingBlock: XUDNAN_clean_linker_2, # of connection points: 2
#     Edge 22, Type (0, 0), BuildingBlock: XUDNAN_clean_linker_2, # of connection points: 2
#     Edge 23, Type (0, 0), BuildingBlock: XUDNAN_clean_linker_2, # of connection points: 2
# Relax obj value: 0.337
# Max RMSD: 0.277
# Mean RMSD: 0.276
data_MOF--net-smi--node1-IZENUY_clean_sbu_0--edge1-XUDNAN_clean_linker_2
_symmetry_space_group_name_H-M    P1
_symmetry_Int_Tables_number       1
_symmetry_cell_setting            triclinic
loop_
_symmetry_equiv_pos_as_xyz
'x, y, z'
_cell_length_a     27.056269
_cell_length_b     26.950371
_cell_length_c     40.093264
_cell_angle_alpha  89.9926
_cell_angle_beta   89.96423
_cell_angle_gamma 120.25063
loop_
_atom_site_label
_atom_site_type_symbol
_atom_site_fract_x
_atom_site_fract_y
_atom_site_fract_z
_atom_type_partial_charge
Fe0 Fe 0.09849 0.56962 0.1211 0.0
Fe1 Fe 0.20883 0.60609 0.08096 0.0
O2 O 0.13319 0.56666 0.0841 0.0
Fe3 Fe 0.09112 0.5237 0.05025 0.0
O4 O 0.03048 0.53359 0.05918 0.0
O5 O 0.0606 0.59935 0.09835 0.0
O6 O 0.15219 0.64264 0.13235 0.0
C7 C 0.1916 0.68354 0.11617 0.0
C8 C 0.03426 0.45295 0.10247 0.0
O9 O 0.21262 0.674 0.09056 0.0
C10 C 0.18755 0.50892 0.04704 0.0
O11 O 0.13415 0.5406 0.14615 0.0
O12 O 0.2204 0.59446 0.1245 0.0
O13 O 0.06108 0.4585 0.07563 0.0
O14 O 0.03822 0.49635 0.11712 0.0
C15 C 0.17102 0.62042 0.01723 0.0
O16 O 0.21281 0.54225 0.07112 0.0
O17 O 0.14362 0.50616 0.0344 0.0
C18 C 0.18749 0.5597 0.14647 0.0
O19 O 0.20938 0.6237 0.03677 0.0
O20 O 0.11854 0.58576 0.02281 0.0
C21 C 0.02804 0.57368 0.07399 0.0
Fe22 Fe 0.58749 0.10152 0.22025 0.0
Fe23 Fe 0.61106 0.2132 0.25454 0.0
O24 O 0.57473 0.13683 0.25373 0.0
Fe25 Fe 0.52686 0.09732 0.28655 0.0
O26 O 0.56475 0.06026 0.29622 0.0
O27 O 0.58308 0.04244 0.24559 0.0
O28 O 0.66431 0.13949 0.22763 0.0
C29 C 0.69451 0.19307 0.22472 0.0
C30 C 0.4711 0.03154 0.22853 0.0
O31 O 0.67287 0.22423 0.2301 0.0
C32 C 0.50408 0.1844 0.28316 0.0
O33 O 0.59232 0.15405 0.18913 0.0
O34 O 0.57467 0.21449 0.21692 0.0
O35 O 0.4753 0.0384 0.25987 0.0
O36 O 0.51289 0.06066 0.20954 0.0
C37 C 0.62394 0.18759 0.3186 0.0
O38 O 0.55679 0.21873 0.27879 0.0
O39 O 0.48399 0.13113 0.28054 0.0
C40 C 0.57504 0.19006 0.19004 0.0
O41 O 0.64889 0.21471 0.29229 0.0
O42 O 0.57128 0.14929 0.31859 0.0
C43 C 0.57992 0.03383 0.27676 0.0
Fe44 Fe 0.39634 0.60357 0.41333 0.0
Fe45 Fe 0.42554 0.5231 0.45208 0.0
O46 O 0.43465 0.56635 0.41647 0.0
Fe47 Fe 0.48186 0.57325 0.38375 0.0
O48 O 0.52429 0.65068 0.38822 0.0
O49 O 0.45024 0.66296 0.38815 0.0
O50 O 0.43238 0.64555 0.44963 0.0
C51 C 0.43371 0.62552 0.47786 0.0
C52 C 0.38416 0.56193 0.35026 0.0
O53 O 0.41947 0.573 0.48145 0.0
C54 C 0.43179 0.45814 0.39729 0.0
O55 O 0.33492 0.55257 0.43834 0.0
O56 O 0.34865 0.4802 0.44657 0.0
O57 O 0.43712 0.57809 0.35082 0.0
O58 O 0.35872 0.56322 0.37641 0.0
C59 C 0.54114 0.57069 0.44198 0.0
O60 O 0.43115 0.46684 0.42844 0.0
O61 O 0.44343 0.49737 0.37645 0.0
C62 C 0.31605 0.50082 0.44643 0.0
O63 O 0.50096 0.56156 0.46141 0.0
O64 O 0.53443 0.56833 0.41065 0.0
C65 C 0.50346 0.68294 0.38513 0.0
Fe66 Fe 0.79518 0.39897 0.59126 0.0
Fe67 Fe 0.90348 0.47623 0.5507 0.0
O68 O 0.87074 0.43701 0.58773 0.0
Fe69 Fe 0.91292 0.43572 0.62126 0.0
O70 O 0.87871 0.35772 0.62077 0.0
O71 O 0.79113 0.34265 0.61856 0.0
O72 O 0.78892 0.3538 0.55637 0.0
C73 C 0.80881 0.3722 0.52766 0.0
C74 C 0.82575 0.44777 0.65283 0.0
O75 O 0.84633 0.42453 0.523 0.0
C76 C 0.97509 0.54876 0.60234 0.0
O77 O 0.78395 0.44762 0.5645 0.0
O78 O 0.87005 0.51985 0.5547 0.0
O79 O 0.86416 0.43398 0.65364 0.0
O80 O 0.79762 0.44204 0.62657 0.0
C81 C 0.97205 0.43091 0.56334 0.0
O82 O 0.96683 0.53428 0.57191 0.0
O83 O 0.94942 0.51286 0.62516 0.0
C84 C 0.81665 0.49911 0.55558 0.0
O85 O 0.93908 0.43605 0.54336 0.0
O86 O 0.96981 0.43827 0.59445 0.0
C87 C 0.8255 0.32483 0.62422 0.0
Fe88 Fe 0.43105 0.90622 0.71744 0.0
Fe89 Fe 0.40124 0.79037 0.74779 0.0
O90 O 0.43671 0.86637 0.75089 0.0
Fe91 Fe 0.47632 0.9011 0.78742 0.0
O92 O 0.43608 0.93669 0.79483 0.0
O93 O 0.4316 0.96281 0.74355 0.0
O94 O 0.35319 0.86805 0.71982 0.0
C95 C 0.32356 0.8148 0.71476 0.0
C96 C 0.54456 0.97455 0.73397 0.0
O97 O 0.34464 0.78301 0.71971 0.0
C98 C 0.50111 0.81525 0.78431 0.0
O99 O 0.43143 0.85755 0.68525 0.0
O100 O 0.44517 0.79431 0.71263 0.0
O101 O 0.53358 0.96415 0.76489 0.0
O102 O 0.50726 0.94681 0.71217 0.0
C103 C 0.37284 0.80509 0.81091 0.0
O104 O 0.45025 0.7813 0.77528 0.0
O105 O 0.52075 0.86861 0.78403 0.0
C106 C 0.44777 0.8208 0.68604 0.0
O107 O 0.35542 0.7834 0.78237 0.0
O108 O 0.42474 0.84396 0.81572 0.0
C109 C 0.42767 0.96745 0.77473 0.0
Fe110 Fe 0.60818 0.395 0.9214 0.0
Fe111 Fe 0.57786 0.47741 0.95551 0.0
O112 O 0.57251 0.43464 0.92052 0.0
Fe113 Fe 0.53246 0.43103 0.8847 0.0
O114 O 0.48767 0.35336 0.88702 0.0
O115 O 0.55917 0.33809 0.89306 0.0
O116 O 0.5638 0.35202 0.95543 0.0
C117 C 0.56139 0.37268 0.98323 0.0
C118 C 0.63538 0.44168 0.85937 0.0
O119 O 0.57833 0.42599 0.98627 0.0
C120 C 0.58059 0.54527 0.89975 0.0
O121 O 0.66467 0.4431 0.95009 0.0
O122 O 0.65569 0.51902 0.95322 0.0
O123 O 0.58311 0.42705 0.85529 0.0
O124 O 0.6537 0.43697 0.88745 0.0
C125 C 0.46493 0.43246 0.93926 0.0
O126 O 0.57645 0.53493 0.93085 0.0
O127 O 0.57338 0.50744 0.87888 0.0
C128 C 0.68553 0.49565 0.95694 0.0
O129 O 0.50165 0.43974 0.96085 0.0
O130 O 0.47619 0.43578 0.90828 0.0
C131 C 0.50748 0.32001 0.88577 0.0
H132 H 0.16535 0.55451 0.21379 0.0
H133 H 0.27147 0.53418 0.14031 0.0
H134 H 0.32598 0.52106 0.18531 0.0
H135 H 0.27672 0.63982 0.26762 0.0
H136 H 0.23757 0.61103 0.3059 0.0
H137 H 0.20012 0.60893 0.26839 0.0
H138 H 0.13504 0.49871 0.2744 0.0
H139 H 0.17215 0.50051 0.31213 0.0
H140 H 0.16705 0.4543 0.2782 0.0
H141 H 0.37544 0.52102 0.23689 0.0
H142 H 0.41875 0.53553 0.29258 0.0
H143 H 0.28331 0.55869 0.33396 0.0
C144 C 0.19886 0.5454 0.20736 0.0
C145 C 0.2139 0.54448 0.17372 0.0
C146 C 0.25925 0.53459 0.16601 0.0
C147 C 0.29025 0.5269 0.19137 0.0
C148 C 0.2756 0.52959 0.22433 0.0
C149 C 0.23101 0.53853 0.23252 0.0
C150 C 0.2284 0.54566 0.26993 0.0
C151 C 0.23619 0.60488 0.27844 0.0
C152 C 0.17232 0.49687 0.28452 0.0
C153 C 0.2794 0.54093 0.28126 0.0
C154 C 0.30536 0.53083 0.25451 0.0
C155 C 0.35514 0.52821 0.25813 0.0
C156 C 0.37958 0.53682 0.28987 0.0
C157 C 0.35448 0.54826 0.31766 0.0
C158 C 0.30312 0.54934 0.3133 0.0
H159 H 0.71275 0.29298 0.33807 0.0
H160 H 0.6015 0.11808 0.3721 0.0
H161 H 0.64405 0.14486 0.42819 0.0
H162 H 0.83864 0.32391 0.39055 0.0
H163 H 0.85568 0.39664 0.39861 0.0
H164 H 0.82212 0.3623 0.35987 0.0
H165 H 0.74029 0.38357 0.37132 0.0
H166 H 0.77336 0.41763 0.41011 0.0
H167 H 0.70041 0.35906 0.40973 0.0
H168 H 0.69059 0.19146 0.48132 0.0
H169 H 0.73889 0.25569 0.5289 0.0
H170 H 0.81984 0.40127 0.46125 0.0
C171 C 0.69849 0.26015 0.35716 0.0
C172 C 0.65406 0.20347 0.35084 0.0
C173 C 0.63543 0.16182 0.37655 0.0
C174 C 0.65951 0.1765 0.40841 0.0
C175 C 0.70217 0.23302 0.41415 0.0
C176 C 0.72174 0.27426 0.38932 0.0
C177 C 0.76457 0.3329 0.40299 0.0
C178 C 0.82377 0.35524 0.38706 0.0
C179 C 0.74336 0.37579 0.39826 0.0
C180 C 0.76476 0.31827 0.43946 0.0
C181 C 0.72894 0.2603 0.44522 0.0
C182 C 0.71936 0.23685 0.47713 0.0
C183 C 0.74678 0.27375 0.504 0.0
C184 C 0.78317 0.33349 0.4988 0.0
C185 C 0.79278 0.35574 0.466 0.0
H186 H 0.41918 0.71176 0.66705 0.0
H187 H 0.50252 0.88842 0.63281 0.0
H188 H 0.51509 0.85757 0.57698 0.0
H189 H 0.50252 0.66432 0.61662 0.0
H190 H 0.4408 0.59512 0.608 0.0
H191 H 0.44486 0.63169 0.64643 0.0
H192 H 0.34782 0.62452 0.6329 0.0
H193 H 0.34358 0.58838 0.59435 0.0
H194 H 0.33939 0.65305 0.59404 0.0
H195 H 0.51161 0.8079 0.52443 0.0
H196 H 0.49162 0.74219 0.47724 0.0
H197 H 0.40803 0.59607 0.54432 0.0
C198 C 0.44154 0.74399 0.64801 0.0
C199 C 0.46078 0.80258 0.6542 0.0
C200 C 0.48796 0.84343 0.62848 0.0
C201 C 0.49536 0.82633 0.59679 0.0
C202 C 0.47487 0.76814 0.5912 0.0
C203 C 0.44844 0.72747 0.616 0.0
C204 C 0.42576 0.66724 0.60245 0.0
C205 C 0.45526 0.63787 0.61938 0.0
C206 C 0.36027 0.6312 0.60615 0.0
C207 C 0.44326 0.68047 0.56613 0.0
C208 C 0.47181 0.73902 0.56036 0.0
C209 C 0.48981 0.76201 0.52864 0.0
C210 C 0.47798 0.72423 0.50198 0.0
C211 C 0.44831 0.66395 0.50707 0.0
C212 C 0.43139 0.64191 0.53971 0.0
H213 H 0.60725 0.42358 0.79281 0.0
H214 H 0.75165 0.496 0.86092 0.0
H215 H 0.81726 0.5162 0.81369 0.0
H216 H 0.65502 0.3513 0.74302 0.0
H217 H 0.62992 0.36374 0.70402 0.0
H218 H 0.59466 0.36242 0.74233 0.0
H219 H 0.61119 0.46398 0.72961 0.0
H220 H 0.64649 0.46558 0.69113 0.0
H221 H 0.68265 0.52215 0.72136 0.0
H222 H 0.86564 0.51748 0.7613 0.0
H223 H 0.89431 0.50036 0.70604 0.0
H224 H 0.71977 0.42871 0.67094 0.0
C225 C 0.65279 0.44495 0.79764 0.0
C226 C 0.67437 0.45826 0.8305 0.0
C227 C 0.73414 0.48522 0.83594 0.0
C228 C 0.77183 0.49723 0.80927 0.0
C229 C 0.74915 0.48234 0.77729 0.0
C230 C 0.69111 0.45708 0.77124 0.0
C231 C 0.67762 0.44084 0.73482 0.0
C232 C 0.63692 0.37572 0.73083 0.0
C233 C 0.65304 0.4752 0.71826 0.0
C234 C 0.73691 0.45914 0.72168 0.0
C235 C 0.77754 0.48357 0.74658 0.0
C236 C 0.83451 0.49944 0.74139 0.0
C237 C 0.85031 0.48931 0.71003 0.0
C238 C 0.80931 0.46367 0.68429 0.0
C239 C 0.75216 0.44952 0.69001 0.0
H240 H 0.27987 0.69977 0.99782 0.0
H241 H 0.10356 0.61162 0.96365 0.0
H242 H 0.13601 0.65596 0.90808 0.0
H243 H 0.32828 0.83294 0.949 0.0
H244 H 0.39736 0.8406 0.94098 0.0
H245 H 0.35959 0.80695 0.97896 0.0
H246 H 0.36683 0.7169 0.96508 0.0
H247 H 0.40413 0.74997 0.92699 0.0
H248 H 0.33959 0.68076 0.9258 0.0
H249 H 0.1884 0.70081 0.85483 0.0
H250 H 0.25632 0.74668 0.80834 0.0
H251 H 0.39851 0.80723 0.87751 0.0
C252 C 0.24782 0.69051 0.9789 0.0
C253 C 0.18906 0.65207 0.98516 0.0
C254 C 0.14873 0.64102 0.95955 0.0
C255 C 0.16678 0.66601 0.92789 0.0
C256 C 0.22517 0.70241 0.92236 0.0
C257 C 0.26503 0.71518 0.94727 0.0
C258 C 0.32547 0.7531 0.93444 0.0
C259 C 0.35437 0.81189 0.95188 0.0
C260 C 0.36107 0.72339 0.93831 0.0
C261 C 0.31353 0.75839 0.89814 0.0
C262 C 0.25538 0.72906 0.89174 0.0
C263 C 0.23395 0.72462 0.85964 0.0
C264 C 0.27291 0.75057 0.83339 0.0
C265 C 0.3327 0.78073 0.83933 0.0
C266 C 0.35307 0.78522 0.87226 0.0
H267 H 0.59625 0.29687 0.17094 0.0
H268 H 0.52038 0.12016 0.1378 0.0
H269 H 0.49845 0.14693 0.08323 0.0
H270 H 0.50084 0.3346 0.12458 0.0
H271 H 0.55873 0.40537 0.11431 0.0
H272 H 0.56095 0.37107 0.15243 0.0
H273 H 0.65919 0.3855 0.13523 0.0
H274 H 0.65753 0.41813 0.0964 0.0
H275 H 0.66612 0.35592 0.09642 0.0
H276 H 0.49092 0.19273 0.0317 0.0
H277 H 0.50407 0.25599 0.98419 0.0
H278 H 0.58884 0.40493 0.04905 0.0
C279 C 0.57378 0.26374 0.15239 0.0
C280 C 0.55935 0.20638 0.15849 0.0
C281 C 0.53162 0.16432 0.13346 0.0
C282 C 0.51865 0.17902 0.10255 0.0
C283 C 0.53413 0.23607 0.09703 0.0
C284 C 0.56136 0.27793 0.12111 0.0
C285 C 0.57896 0.33701 0.10737 0.0
C286 C 0.548 0.36357 0.12577 0.0
C287 C 0.64432 0.3765 0.10893 0.0
C288 C 0.55812 0.32181 0.07169 0.0
C289 C 0.53159 0.26319 0.06655 0.0
C290 C 0.51114 0.23865 0.03542 0.0
C291 C 0.51896 0.27502 0.00858 0.0
C292 C 0.5474 0.33539 0.01291 0.0
C293 C 0.5662 0.35893 0.04507 0.0
H294 H 0.44494 0.46062 1.00097 0.0
H295 H 0.36477 0.39799 0.90447 0.0
H296 H 0.27885 0.39951 0.92461 0.0
H297 H 0.31563 0.38742 0.0531 0.0
H298 H 0.3401 0.44842 0.08046 0.0
H299 H 0.39117 0.43439 0.06001 0.0
H300 H 0.44189 0.53708 0.03498 0.0
H301 H 0.39111 0.55139 0.05528 0.0
H302 H 0.40098 0.56017 0.01076 0.0
H303 H 0.20514 0.41453 0.95429 0.0
H304 H 0.15289 0.44889 0.98848 0.0
H305 H 0.28475 0.50646 0.06453 0.0
C306 C 0.40887 0.4458 0.98419 0.0
C307 C 0.41123 0.42837 0.95121 0.0
C308 C 0.36366 0.41103 0.92988 0.0
C309 C 0.3147 0.41155 0.94118 0.0
C310 C 0.31433 0.4298 0.97374 0.0
C311 C 0.36039 0.44689 0.99484 0.0
C312 C 0.35222 0.4704 0.02738 0.0
C313 C 0.34961 0.4329 0.05699 0.0
C314 C 0.39933 0.53349 0.03236 0.0
C315 C 0.29469 0.46511 0.02113 0.0
C316 C 0.27303 0.44055 0.99034 0.0
C317 C 0.22153 0.43339 0.9785 0.0
C318 C 0.19215 0.4531 0.99822 0.0
C319 C 0.21475 0.48058 0.02927 0.0
C320 C 0.26614 0.48541 0.04107 0.0
H321 H 0.92365 0.42125 0.10227 0.0
H322 H 0.03972 0.36172 0.12899 0.0
H323 H 0.96106 0.27961 0.15975 0.0
H324 H 0.86086 0.40171 0.17684 0.0
H325 H 0.78994 0.37941 0.16171 0.0
H326 H 0.8511 0.42431 0.13627 0.0
H327 H 0.81025 0.34891 0.08784 0.0
H328 H 0.74803 0.30635 0.11339 0.0
H329 H 0.78816 0.27515 0.09675 0.0
H330 H 0.87061 0.21136 0.19402 0.0
H331 H 0.78001 0.1653 0.22681 0.0
H332 H 0.72923 0.27649 0.1784 0.0
C333 C 0.93169 0.3894 0.11329 0.0
C334 C 0.98687 0.39661 0.11272 0.0
C335 C 0.99698 0.35563 0.12846 0.0
C336 C 0.95267 0.30924 0.14611 0.0
C337 C 0.89888 0.30475 0.1474 0.0
C338 C 0.88832 0.34354 0.13084 0.0
C339 C 0.82966 0.33417 0.13866 0.0
C340 C 0.83316 0.38808 0.1543 0.0
C341 C 0.79176 0.315 0.10731 0.0
C342 C 0.8096 0.28591 0.16358 0.0
C343 C 0.84906 0.26819 0.16788 0.0
C344 C 0.83936 0.22473 0.19056 0.0
C345 C 0.78811 0.19901 0.20917 0.0
C346 C 0.74837 0.21815 0.20552 0.0
C347 C 0.75936 0.26169 0.1822 0.0
H348 H 0.49699 0.77698 0.40089 0.0
H349 H 0.5841 0.71748 0.33574 0.0
H350 H 0.62383 0.8079 0.30328 0.0
H351 H 0.45259 0.83484 0.34188 0.0
H352 H 0.46313 0.89633 0.3655 0.0
H353 H 0.45038 0.83234 0.38683 0.0
H354 H 0.54454 0.89051 0.42019 0.0
H355 H 0.55729 0.95516 0.39929 0.0
H356 H 0.61084 0.93413 0.3982 0.0
H357 H 0.63733 0.89617 0.27183 0.0
H358 H 0.63274 0.97902 0.24846 0.0
H359 H 0.54154 0.9818 0.33685 0.0
C360 C 0.52617 0.78405 0.38052 0.0
C361 C 0.53796 0.74084 0.37085 0.0
C362 C 0.57547 0.75074 0.3438 0.0
C363 C 0.59792 0.80178 0.32516 0.0
C364 C 0.58347 0.84276 0.33452 0.0
C365 C 0.54964 0.83497 0.36217 0.0
C366 C 0.53682 0.88314 0.36582 0.0
C367 C 0.47191 0.86027 0.36493 0.0
C368 C 0.56402 0.91779 0.39777 0.0
C369 C 0.56624 0.91786 0.33503 0.0
C370 C 0.59316 0.8943 0.31723 0.0
C371 C 0.6178 0.91592 0.28606 0.0
C372 C 0.61472 0.96271 0.27288 0.0
C373 C 0.58747 0.98737 0.29098 0.0
C374 C 0.56387 0.96491 0.32264 0.0
H375 H 0.71183 0.48611 0.56811 0.0
H376 H 0.86158 0.57889 0.50526 0.0
H377 H 0.80998 0.61496 0.47121 0.0
H378 H 0.6109 0.43907 0.50613 0.0
H379 H 0.55823 0.44724 0.5292 0.0
H380 H 0.60922 0.43515 0.55105 0.0
H381 H 0.64226 0.52797 0.58553 0.0
H382 H 0.59076 0.54006 0.56404 0.0
H383 H 0.66525 0.59508 0.56427 0.0
H384 H 0.73578 0.62716 0.43874 0.0
H385 H 0.64945 0.62365 0.41488 0.0
H386 H 0.55147 0.528 0.50139 0.0
C387 C 0.7343 0.51535 0.54775 0.0
C388 C 0.79071 0.52989 0.53938 0.0
C389 C 0.81859 0.5678 0.51237 0.0
C390 C 0.78949 0.58824 0.49279 0.0
C391 C 0.73305 0.57135 0.50101 0.0
C392 C 0.70628 0.53681 0.52837 0.0
C393 C 0.6447 0.52245 0.53112 0.0
C394 C 0.60337 0.45712 0.52925 0.0
C395 C 0.63521 0.54793 0.56314 0.0
C396 C 0.64026 0.55258 0.50041 0.0
C397 C 0.6915 0.58052 0.48324 0.0
C398 C 0.69587 0.60667 0.45243 0.0
C399 C 0.64665 0.60426 0.43898 0.0
C400 C 0.59408 0.57645 0.45653 0.0
C401 C 0.59138 0.55093 0.48777 0.0
H402 H 0.29054 0.73793 0.66442 0.0
H403 H 0.23546 0.83697 0.72256 0.0
H404 H 0.1416 0.7879 0.69344 0.0
H405 H 0.21584 0.73593 0.58605 0.0
H406 H 0.19969 0.66404 0.57613 0.0
H407 H 0.26384 0.71147 0.59895 0.0
H408 H 0.2335 0.6361 0.64611 0.0
H409 H 0.16951 0.58842 0.62356 0.0
H410 H 0.16456 0.60889 0.6657 0.0
H411 H 0.04949 0.71608 0.66478 0.0
H412 H 0.9691 0.63221 0.63683 0.0
H413 H 0.08771 0.5867 0.59398 0.0
C414 C 0.25895 0.74989 0.67068 0.0
C415 C 0.26964 0.79074 0.69585 0.0
C416 C 0.2278 0.80578 0.70325 0.0
C417 C 0.17462 0.77822 0.68681 0.0
C418 C 0.165 0.73713 0.66248 0.0
C419 C 0.20654 0.72387 0.65406 0.0
C420 C 0.18508 0.67627 0.62842 0.0
C421 C 0.21808 0.69827 0.59543 0.0
C422 C 0.18833 0.62438 0.64177 0.0
C423 C 0.12386 0.66263 0.62478 0.0
C424 C 0.11308 0.69839 0.64447 0.0
C425 C 0.05785 0.68921 0.64841 0.0
C426 C 0.01253 0.64172 0.63243 0.0
C427 C 0.02297 0.60481 0.61239 0.0
C428 C 0.07933 0.61612 0.60794 0.0
H429 H 0.51128 0.22371 0.90042 0.0
H430 H 0.43339 0.29016 0.83298 0.0
H431 H 0.39535 0.20162 0.79891 0.0
H432 H 0.558 0.16459 0.84191 0.0
H433 H 0.54311 0.10171 0.86562 0.0
H434 H 0.55706 0.16621 0.88686 0.0
H435 H 0.46021 0.11032 0.91807 0.0
H436 H 0.44616 0.04528 0.89716 0.0
H437 H 0.39512 0.06945 0.89456 0.0
H438 H 0.38083 0.11278 0.76723 0.0
H439 H 0.38187 0.02751 0.7447 0.0
H440 H 0.46353 0.01765 0.83551 0.0
C441 C 0.48473 0.21878 0.87903 0.0
C442 C 0.47492 0.26341 0.86937 0.0
C443 C 0.4406 0.25597 0.84105 0.0
C444 C 0.41913 0.20598 0.82148 0.0
C445 C 0.43127 0.16344 0.83108 0.0
C446 C 0.46214 0.16888 0.85971 0.0
C447 C 0.47197 0.11876 0.8639 0.0
C448 C 0.53634 0.13906 0.86459 0.0
C449 C 0.44153 0.08388 0.89528 0.0
C450 C 0.44388 0.08529 0.83251 0.0
C451 C 0.42059 0.1115 0.81377 0.0
C452 C 0.39756 0.09109 0.78215 0.0
C453 C 0.39851 0.04282 0.76947 0.0
C454 C 0.42181 0.01528 0.78855 0.0
C455 C 0.44395 0.03665 0.82062 0.0
H456 H 0.49657 0.71392 0.77171 0.0
H457 H 0.57271 0.86063 0.83814 0.0
H458 H 0.60855 0.81077 0.87414 0.0
H459 H 0.44733 0.60837 0.83163 0.0
H460 H 0.46282 0.56012 0.80887 0.0
H461 H 0.44928 0.61002 0.78668 0.0
H462 H 0.54684 0.65152 0.7563 0.0
H463 H 0.56046 0.60118 0.77816 0.0
H464 H 0.6114 0.67704 0.78042 0.0
H465 H 0.62241 0.73685 0.90738 0.0
H466 H 0.62293 0.65137 0.93039 0.0
H467 H 0.54334 0.55812 0.8394 0.0
C468 C 0.52218 0.73617 0.79333 0.0
C469 C 0.53219 0.79114 0.80206 0.0
C470 C 0.56532 0.81878 0.83074 0.0
C471 C 0.58551 0.79062 0.85144 0.0
C472 C 0.57325 0.73545 0.84267 0.0
C473 C 0.54349 0.70924 0.81379 0.0
C474 C 0.53385 0.64919 0.81034 0.0
C475 C 0.46952 0.60432 0.80934 0.0
C476 C 0.56501 0.64448 0.77948 0.0
C477 C 0.56119 0.64486 0.84223 0.0
C478 C 0.58357 0.6947 0.86079 0.0
C479 C 0.60628 0.69813 0.89262 0.0
C480 C 0.60624 0.64943 0.90558 0.0
C481 C 0.58424 0.59843 0.88651 0.0
C482 C 0.56198 0.59683 0.85437 0.0
H483 H 0.91917 0.48937 0.07002 0.0
H484 H 0.02749 0.67274 0.05714 0.0
H485 H 0.94683 0.67646 0.0297 0.0
H486 H 0.86078 0.46091 0.99441 0.0
H487 H 0.7902 0.405 0.00642 0.0
H488 H 0.85078 0.41901 0.03152 0.0
H489 H 0.80485 0.43666 0.08402 0.0
H490 H 0.74302 0.41902 0.05883 0.0
H491 H 0.77851 0.48599 0.08137 0.0
H492 H 0.85532 0.65495 0.99626 0.0
H493 H 0.76563 0.61176 0.96271 0.0
H494 H 0.72415 0.44271 0.9974 0.0
C495 C 0.92517 0.53068 0.06278 0.0
C496 C 0.97885 0.58082 0.06613 0.0
C497 C 0.98599 0.63406 0.05544 0.0
C498 C 0.94053 0.63636 0.03967 0.0
C499 C 0.88852 0.58512 0.0353 0.0
C500 C 0.88073 0.53347 0.04723 0.0
C501 C 0.82405 0.48329 0.03668 0.0
C502 C 0.83199 0.43955 0.01603 0.0
C503 C 0.78533 0.45458 0.06706 0.0
C504 C 0.80173 0.514 0.01564 0.0
C505 C 0.83841 0.57279 0.01547 0.0
C506 C 0.82623 0.60901 0.99659 0.0
C507 C 0.77543 0.58424 0.97755 0.0
C508 C 0.73848 0.5239 0.97709 0.0
C509 C 0.75192 0.48893 0.99673 0.0
H510 H 0.45974 0.98068 0.168 0.0
H511 H 0.36313 0.97572 0.25566 0.0
H512 H 0.27623 0.8937 0.23141 0.0
H513 H 0.34346 0.93538 0.10579 0.0
H514 H 0.36599 0.89227 0.08328 0.0
H515 H 0.41799 0.95587 0.10505 0.0
H516 H 0.45173 0.89544 0.13791 0.0
H517 H 0.40011 0.8319 0.11623 0.0
H518 H 0.40013 0.8336 0.16118 0.0
H519 H 0.20288 0.8079 0.2001 0.0
H520 H 0.15039 0.7193 0.16717 0.0
H521 H 0.29624 0.77787 0.10077 0.0
C522 C 0.42001 0.96329 0.1818 0.0
C523 C 0.41796 0.98495 0.21359 0.0
C524 C 0.36553 0.95993 0.23122 0.0
C525 C 0.31596 0.91366 0.21753 0.0
C526 C 0.31972 0.89293 0.18629 0.0
C527 C 0.37052 0.91676 0.16874 0.0
C528 C 0.36494 0.88261 0.13752 0.0
C529 C 0.3736 0.9187 0.10605 0.0
C530 C 0.40668 0.85952 0.13829 0.0
C531 C 0.30343 0.83463 0.14075 0.0
C532 C 0.27781 0.84219 0.16865 0.0
C533 C 0.22231 0.80182 0.17805 0.0
C534 C 0.19289 0.75153 0.15914 0.0
C535 C 0.21923 0.74149 0.13137 0.0
C536 C 0.27463 0.78454 0.12154 0.0
H537 H 0.50809 0.28446 0.2691 0.0
H538 H 0.42866 0.13755 0.33525 0.0
H539 H 0.39307 0.18826 0.37082 0.0
H540 H 0.55911 0.38801 0.32859 0.0
H541 H 0.54621 0.43852 0.30636 0.0
H542 H 0.55708 0.38735 0.28363 0.0
H543 H 0.45987 0.34965 0.25351 0.0
H544 H 0.44905 0.40155 0.27573 0.0
H545 H 0.39574 0.32635 0.27777 0.0
H546 H 0.38188 0.26387 0.40432 0.0
H547 H 0.38562 0.35119 0.4278 0.0
H548 H 0.46834 0.44385 0.33708 0.0
C549 C 0.48132 0.26218 0.29038 0.0
C550 C 0.4705 0.20706 0.2993 0.0
C551 C 0.43636 0.17944 0.32767 0.0
C552 C 0.41641 0.20813 0.34814 0.0
C553 C 0.43002 0.26376 0.3394 0.0
C554 C 0.46046 0.28972 0.31062 0.0
C555 C 0.47273 0.3507 0.30749 0.0
C556 C 0.53761 0.39362 0.30648 0.0
C557 C 0.44252 0.35743 0.27681 0.0
C558 C 0.44631 0.35592 0.33951 0.0
C559 C 0.42186 0.30569 0.35782 0.0
C560 C 0.39963 0.30294 0.38974 0.0
C561 C 0.40219 0.35272 0.40299 0.0
C562 C 0.42643 0.40416 0.38416 0.0
C563 C 0.44824 0.40503 0.35198 0.0
H564 H 0.02267 0.47051 0.50318 0.0
H565 H 0.03068 0.38236 0.59168 0.0
H566 H 0.11331 0.37876 0.56735 0.0
H567 H 0.06734 0.40091 0.44142 0.0
H568 H 0.10966 0.46676 0.41858 0.0
H569 H 0.04696 0.45512 0.44104 0.0
H570 H 0.108 0.5501 0.47359 0.0
H571 H 0.17065 0.56218 0.45113 0.0
H572 H 0.17032 0.56084 0.49608 0.0
H573 H 0.19817 0.38912 0.53353 0.0
H574 H 0.28418 0.42378 0.49794 0.0
H575 H 0.22257 0.51096 0.43415 0.0
C576 C 0.04087 0.44918 0.51719 0.0
C577 C 0.01963 0.42563 0.54904 0.0
C578 C 0.04602 0.40009 0.56708 0.0
C579 C 0.09267 0.39761 0.55336 0.0
C580 C 0.11265 0.42153 0.52182 0.0
C581 C 0.08786 0.44748 0.50424 0.0
C582 C 0.12083 0.47592 0.47274 0.0
C583 C 0.08399 0.44799 0.4416 0.0
C584 C 0.14382 0.5411 0.47345 0.0
C585 C 0.16868 0.46264 0.47536 0.0
C586 C 0.16268 0.43011 0.5034 0.0
C587 C 0.203 0.41426 0.51144 0.0
C588 C 0.25151 0.43378 0.49094 0.0
C589 C 0.25976 0.46976 0.4632 0.0
C590 C 0.21707 0.4831 0.45502 0.0
H591 H 0.56647 0.02334 0.67243 0.0
H592 H 0.6462 0.03937 0.76876 0.0
H593 H 0.73467 0.12492 0.74789 0.0
H594 H 0.69337 0.07259 0.61989 0.0
H595 H 0.67132 0.11057 0.59223 0.0
H596 H 0.61834 0.04684 0.6135 0.0
H597 H 0.57306 0.10368 0.63833 0.0
H598 H 0.62547 0.16722 0.61698 0.0
H599 H 0.6174 0.16855 0.66155 0.0
H600 H 0.81278 0.21341 0.71626 0.0
H601 H 0.86604 0.30002 0.68069 0.0
H602 H 0.73025 0.22567 0.60743 0.0
C603 C 0.60276 0.04384 0.68915 0.0
C604 C 0.5995 0.02403 0.7222 0.0
C605 C 0.64777 0.05344 0.74328 0.0
C606 C 0.69825 0.10185 0.73154 0.0
C607 C 0.69956 0.12033 0.69876 0.0
C608 C 0.6526 0.09219 0.67808 0.0
C609 C 0.66158 0.12319 0.64524 0.0
C610 C 0.66114 0.08608 0.61599 0.0
C611 C 0.61675 0.14177 0.64027 0.0
C612 C 0.72062 0.17422 0.65072 0.0
C613 C 0.74271 0.17144 0.68134 0.0
C614 C 0.79597 0.21553 0.69215 0.0
C615 C 0.8262 0.26433 0.6717 0.0
C616 C 0.80239 0.2689 0.64121 0.0
C617 C 0.7497 0.22268 0.6304 0.0
loop_
_geom_bond_atom_site_label_1
_geom_bond_atom_site_label_2
_geom_bond_distance
_geom_bond_site_symmetry_2
_ccdc_geom_bond_type
Fe0 O2 1.918 . S
Fe0 O5 1.997 . S
Fe0 O6 2.002 . S
Fe0 O11 1.976 . S
Fe0 O14 1.996 . S
Fe1 O2 1.918 . S
Fe1 O9 1.997 . S
Fe1 O12 1.996 . S
Fe1 O16 1.976 . S
Fe1 O19 2.002 . S
O2 Fe0 1.918 . S
O2 Fe1 1.918 . S
O2 Fe3 1.918 . S
Fe3 O2 1.918 . S
Fe3 O4 2.002 . S
Fe3 O13 1.976 . S
Fe3 O17 1.996 . S
Fe3 O20 1.997 . S
O4 Fe3 2.002 . S
O4 C21 1.295 . S
O5 Fe0 1.997 . S
O5 C21 1.235 . S
O6 Fe0 2.002 . S
O6 C7 1.295 . S
C7 O6 1.295 . S
C7 O9 1.235 . S
C8 O13 1.287 . S
C8 O14 1.255 . S
O9 Fe1 1.997 . S
O9 C7 1.235 . S
C10 O16 1.287 . S
C10 O17 1.255 . S
O11 Fe0 1.976 . S
O11 C18 1.287 . S
O12 Fe1 1.996 . S
O12 C18 1.255 . S
O13 Fe3 1.976 . S
O13 C8 1.287 . S
O14 Fe0 1.996 . S
O14 C8 1.255 . S
C15 O19 1.295 . S
C15 O20 1.235 . S
O16 Fe1 1.976 . S
O16 C10 1.287 . S
O17 Fe3 1.996 . S
O17 C10 1.255 . S
C18 O11 1.287 . S
C18 O12 1.255 . S
O19 Fe1 2.002 . S
O19 C15 1.295 . S
O20 Fe3 1.997 . S
O20 C15 1.235 . S
C21 O4 1.295 . S
C21 O5 1.235 . S
Fe22 O24 1.918 . S
Fe22 O27 1.997 . S
Fe22 O28 2.002 . S
Fe22 O33 1.976 . S
Fe22 O36 1.996 . S
Fe23 O24 1.918 . S
Fe23 O31 1.997 . S
Fe23 O34 1.996 . S
Fe23 O38 1.976 . S
Fe23 O41 2.002 . S
O24 Fe22 1.918 . S
O24 Fe23 1.918 . S
O24 Fe25 1.918 . S
Fe25 O24 1.918 . S
Fe25 O26 2.002 . S
Fe25 O35 1.976 . S
Fe25 O39 1.996 . S
Fe25 O42 1.997 . S
O26 Fe25 2.002 . S
O26 C43 1.295 . S
O27 Fe22 1.997 . S
O27 C43 1.235 . S
O28 Fe22 2.002 . S
O28 C29 1.295 . S
C29 O28 1.295 . S
C29 O31 1.235 . S
C30 O35 1.287 . S
C30 O36 1.255 . S
O31 Fe23 1.997 . S
O31 C29 1.235 . S
C32 O38 1.287 . S
C32 O39 1.255 . S
O33 Fe22 1.976 . S
O33 C40 1.287 . S
O34 Fe23 1.996 . S
O34 C40 1.255 . S
O35 Fe25 1.976 . S
O35 C30 1.287 . S
O36 Fe22 1.996 . S
O36 C30 1.255 . S
C37 O41 1.295 . S
C37 O42 1.235 . S
O38 Fe23 1.976 . S
O38 C32 1.287 . S
O39 Fe25 1.996 . S
O39 C32 1.255 . S
C40 O33 1.287 . S
C40 O34 1.255 . S
O41 Fe23 2.002 . S
O41 C37 1.295 . S
O42 Fe25 1.997 . S
O42 C37 1.235 . S
C43 O26 1.295 . S
C43 O27 1.235 . S
Fe44 O46 1.918 . S
Fe44 O49 1.997 . S
Fe44 O50 2.002 . S
Fe44 O55 1.976 . S
Fe44 O58 1.996 . S
Fe45 O46 1.918 . S
Fe45 O53 1.997 . S
Fe45 O56 1.996 . S
Fe45 O60 1.976 . S
Fe45 O63 2.002 . S
O46 Fe44 1.918 . S
O46 Fe45 1.918 . S
O46 Fe47 1.918 . S
Fe47 O46 1.918 . S
Fe47 O48 2.002 . S
Fe47 O57 1.976 . S
Fe47 O61 1.996 . S
Fe47 O64 1.997 . S
O48 Fe47 2.002 . S
O48 C65 1.295 . S
O49 Fe44 1.997 . S
O49 C65 1.235 . S
O50 Fe44 2.002 . S
O50 C51 1.295 . S
C51 O50 1.295 . S
C51 O53 1.235 . S
C52 O57 1.287 . S
C52 O58 1.255 . S
O53 Fe45 1.997 . S
O53 C51 1.235 . S
C54 O60 1.287 . S
C54 O61 1.255 . S
O55 Fe44 1.976 . S
O55 C62 1.287 . S
O56 Fe45 1.996 . S
O56 C62 1.255 . S
O57 Fe47 1.976 . S
O57 C52 1.287 . S
O58 Fe44 1.996 . S
O58 C52 1.255 . S
C59 O63 1.295 . S
C59 O64 1.235 . S
O60 Fe45 1.976 . S
O60 C54 1.287 . S
O61 Fe47 1.996 . S
O61 C54 1.255 . S
C62 O55 1.287 . S
C62 O56 1.255 . S
O63 Fe45 2.002 . S
O63 C59 1.295 . S
O64 Fe47 1.997 . S
O64 C59 1.235 . S
C65 O48 1.295 . S
C65 O49 1.235 . S
Fe66 O68 1.918 . S
Fe66 O71 1.997 . S
Fe66 O72 2.002 . S
Fe66 O77 1.976 . S
Fe66 O80 1.996 . S
Fe67 O68 1.918 . S
Fe67 O75 1.997 . S
Fe67 O78 1.996 . S
Fe67 O82 1.976 . S
Fe67 O85 2.002 . S
O68 Fe66 1.918 . S
O68 Fe67 1.918 . S
O68 Fe69 1.918 . S
Fe69 O68 1.918 . S
Fe69 O70 2.002 . S
Fe69 O79 1.976 . S
Fe69 O83 1.996 . S
Fe69 O86 1.997 . S
O70 Fe69 2.002 . S
O70 C87 1.295 . S
O71 Fe66 1.997 . S
O71 C87 1.235 . S
O72 Fe66 2.002 . S
O72 C73 1.295 . S
C73 O72 1.295 . S
C73 O75 1.235 . S
C74 O79 1.287 . S
C74 O80 1.255 . S
O75 Fe67 1.997 . S
O75 C73 1.235 . S
C76 O82 1.287 . S
C76 O83 1.255 . S
O77 Fe66 1.976 . S
O77 C84 1.287 . S
O78 Fe67 1.996 . S
O78 C84 1.255 . S
O79 Fe69 1.976 . S
O79 C74 1.287 . S
O80 Fe66 1.996 . S
O80 C74 1.255 . S
C81 O85 1.295 . S
C81 O86 1.235 . S
O82 Fe67 1.976 . S
O82 C76 1.287 . S
O83 Fe69 1.996 . S
O83 C76 1.255 . S
C84 O77 1.287 . S
C84 O78 1.255 . S
O85 Fe67 2.002 . S
O85 C81 1.295 . S
O86 Fe69 1.997 . S
O86 C81 1.235 . S
C87 O70 1.295 . S
C87 O71 1.235 . S
Fe88 O90 1.918 . S
Fe88 O93 1.997 . S
Fe88 O94 2.002 . S
Fe88 O99 1.976 . S
Fe88 O102 1.996 . S
Fe89 O90 1.918 . S
Fe89 O97 1.997 . S
Fe89 O100 1.996 . S
Fe89 O104 1.976 . S
Fe89 O107 2.002 . S
O90 Fe88 1.918 . S
O90 Fe89 1.918 . S
O90 Fe91 1.918 . S
Fe91 O90 1.918 . S
Fe91 O92 2.002 . S
Fe91 O101 1.976 . S
Fe91 O105 1.996 . S
Fe91 O108 1.997 . S
O92 Fe91 2.002 . S
O92 C109 1.295 . S
O93 Fe88 1.997 . S
O93 C109 1.235 . S
O94 Fe88 2.002 . S
O94 C95 1.295 . S
C95 O94 1.295 . S
C95 O97 1.235 . S
C96 O101 1.287 . S
C96 O102 1.255 . S
O97 Fe89 1.997 . S
O97 C95 1.235 . S
C98 O104 1.287 . S
C98 O105 1.255 . S
O99 Fe88 1.976 . S
O99 C106 1.287 . S
O100 Fe89 1.996 . S
O100 C106 1.255 . S
O101 Fe91 1.976 . S
O101 C96 1.287 . S
O102 Fe88 1.996 . S
O102 C96 1.255 . S
C103 O107 1.295 . S
C103 O108 1.235 . S
O104 Fe89 1.976 . S
O104 C98 1.287 . S
O105 Fe91 1.996 . S
O105 C98 1.255 . S
C106 O99 1.287 . S
C106 O100 1.255 . S
O107 Fe89 2.002 . S
O107 C103 1.295 . S
O108 Fe91 1.997 . S
O108 C103 1.235 . S
C109 O92 1.295 . S
C109 O93 1.235 . S
Fe110 O112 1.918 . S
Fe110 O115 1.997 . S
Fe110 O116 2.002 . S
Fe110 O121 1.976 . S
Fe110 O124 1.996 . S
Fe111 O112 1.918 . S
Fe111 O119 1.997 . S
Fe111 O122 1.996 . S
Fe111 O126 1.976 . S
Fe111 O129 2.002 . S
O112 Fe110 1.918 . S
O112 Fe111 1.918 . S
O112 Fe113 1.918 . S
Fe113 O112 1.918 . S
Fe113 O114 2.002 . S
Fe113 O123 1.976 . S
Fe113 O127 1.996 . S
Fe113 O130 1.997 . S
O114 Fe113 2.002 . S
O114 C131 1.295 . S
O115 Fe110 1.997 . S
O115 C131 1.235 . S
O116 Fe110 2.002 . S
O116 C117 1.295 . S
C117 O116 1.295 . S
C117 O119 1.235 . S
C118 O123 1.287 . S
C118 O124 1.255 . S
O119 Fe111 1.997 . S
O119 C117 1.235 . S
C120 O126 1.287 . S
C120 O127 1.255 . S
O121 Fe110 1.976 . S
O121 C128 1.287 . S
O122 Fe111 1.996 . S
O122 C128 1.255 . S
O123 Fe113 1.976 . S
O123 C118 1.287 . S
O124 Fe110 1.996 . S
O124 C118 1.255 . S
C125 O129 1.295 . S
C125 O130 1.235 . S
O126 Fe111 1.976 . S
O126 C120 1.287 . S
O127 Fe113 1.996 . S
O127 C120 1.255 . S
C128 O121 1.287 . S
C128 O122 1.255 . S
O129 Fe111 2.002 . S
O129 C125 1.295 . S
O130 Fe113 1.997 . S
O130 C125 1.235 . S
C131 O114 1.295 . S
C131 O115 1.235 . S
H132 C144 0.930 . S
H133 C146 0.930 . S
H134 C147 0.930 . S
H135 C151 0.959 . S
H136 C151 0.959 . S
H137 C151 0.961 . S
H138 C152 0.960 . S
H139 C152 0.961 . S
H140 C152 0.959 . S
H141 C155 0.929 . S
H142 C156 0.931 . S
H143 C158 0.930 . S
C144 H132 0.930 . S
C144 C145 1.399 . S
C144 C149 1.399 . S
C145 C144 1.399 . S
C145 C146 1.376 . S
C146 H133 0.930 . S
C146 C145 1.376 . S
C146 C147 1.388 . S
C147 H134 0.930 . S
C147 C146 1.388 . S
C147 C148 1.390 . S
C148 C147 1.390 . S
C148 C149 1.394 . S
C148 C154 1.465 . S
C149 C144 1.399 . S
C149 C148 1.394 . S
C149 C150 1.516 . S
C150 C149 1.516 . S
C150 C151 1.502 . S
C150 C152 1.561 . S
C150 C153 1.526 . S
C151 H135 0.959 . S
C151 H136 0.959 . S
C151 H137 0.961 . S
C151 C150 1.502 . S
C152 H138 0.960 . S
C152 H139 0.961 . S
C152 H140 0.959 . S
C152 C150 1.561 . S
C153 C150 1.526 . S
C153 C154 1.396 . S
C153 C158 1.390 . S
C154 C148 1.465 . S
C154 C153 1.396 . S
C154 C155 1.399 . S
C155 H141 0.929 . S
C155 C154 1.399 . S
C155 C156 1.385 . S
C156 H142 0.931 . S
C156 C155 1.385 . S
C156 C157 1.389 . S
C157 C156 1.389 . S
C157 C158 1.387 . S
C158 H143 0.930 . S
C158 C153 1.390 . S
C158 C157 1.387 . S
H159 C171 0.930 . S
H160 C173 0.930 . S
H161 C174 0.930 . S
H162 C178 0.959 . S
H163 C178 0.959 . S
H164 C178 0.961 . S
H165 C179 0.960 . S
H166 C179 0.961 . S
H167 C179 0.959 . S
H168 C182 0.929 . S
H169 C183 0.931 . S
H170 C185 0.930 . S
C171 H159 0.930 . S
C171 C172 1.399 . S
C171 C176 1.399 . S
C172 C171 1.399 . S
C172 C173 1.376 . S
C173 H160 0.930 . S
C173 C172 1.376 . S
C173 C174 1.388 . S
C174 H161 0.930 . S
C174 C173 1.388 . S
C174 C175 1.390 . S
C175 C174 1.390 . S
C175 C176 1.394 . S
C175 C181 1.465 . S
C176 C171 1.399 . S
C176 C175 1.394 . S
C176 C177 1.516 . S
C177 C176 1.516 . S
C177 C178 1.502 . S
C177 C179 1.561 . S
C177 C180 1.526 . S
C178 H162 0.959 . S
C178 H163 0.959 . S
C178 H164 0.961 . S
C178 C177 1.502 . S
C179 H165 0.960 . S
C179 H166 0.961 . S
C179 H167 0.959 . S
C179 C177 1.561 . S
C180 C177 1.526 . S
C180 C181 1.396 . S
C180 C185 1.390 . S
C181 C175 1.465 . S
C181 C180 1.396 . S
C181 C182 1.399 . S
C182 H168 0.929 . S
C182 C181 1.399 . S
C182 C183 1.385 . S
C183 H169 0.931 . S
C183 C182 1.385 . S
C183 C184 1.389 . S
C184 C183 1.389 . S
C184 C185 1.387 . S
C185 H170 0.930 . S
C185 C180 1.390 . S
C185 C184 1.387 . S
H186 C198 0.930 . S
H187 C200 0.930 . S
H188 C201 0.930 . S
H189 C205 0.959 . S
H190 C205 0.959 . S
H191 C205 0.961 . S
H192 C206 0.960 . S
H193 C206 0.961 . S
H194 C206 0.959 . S
H195 C209 0.929 . S
H196 C210 0.931 . S
H197 C212 0.930 . S
C198 H186 0.930 . S
C198 C199 1.399 . S
C198 C203 1.399 . S
C199 C198 1.399 . S
C199 C200 1.376 . S
C200 H187 0.930 . S
C200 C199 1.376 . S
C200 C201 1.388 . S
C201 H188 0.930 . S
C201 C200 1.388 . S
C201 C202 1.390 . S
C202 C201 1.390 . S
C202 C203 1.394 . S
C202 C208 1.465 . S
C203 C198 1.399 . S
C203 C202 1.394 . S
C203 C204 1.516 . S
C204 C203 1.516 . S
C204 C205 1.502 . S
C204 C206 1.561 . S
C204 C207 1.526 . S
C205 H189 0.959 . S
C205 H190 0.959 . S
C205 H191 0.961 . S
C205 C204 1.502 . S
C206 H192 0.960 . S
C206 H193 0.961 . S
C206 H194 0.959 . S
C206 C204 1.561 . S
C207 C204 1.526 . S
C207 C208 1.396 . S
C207 C212 1.390 . S
C208 C202 1.465 . S
C208 C207 1.396 . S
C208 C209 1.399 . S
C209 H195 0.929 . S
C209 C208 1.399 . S
C209 C210 1.385 . S
C210 H196 0.931 . S
C210 C209 1.385 . S
C210 C211 1.389 . S
C211 C210 1.389 . S
C211 C212 1.387 . S
C212 H197 0.930 . S
C212 C207 1.390 . S
C212 C211 1.387 . S
H213 C225 0.930 . S
H214 C227 0.930 . S
H215 C228 0.930 . S
H216 C232 0.959 . S
H217 C232 0.959 . S
H218 C232 0.961 . S
H219 C233 0.960 . S
H220 C233 0.961 . S
H221 C233 0.959 . S
H222 C236 0.929 . S
H223 C237 0.931 . S
H224 C239 0.930 . S
C225 H213 0.930 . S
C225 C226 1.399 . S
C225 C230 1.399 . S
C226 C225 1.399 . S
C226 C227 1.376 . S
C227 H214 0.930 . S
C227 C226 1.376 . S
C227 C228 1.388 . S
C228 H215 0.930 . S
C228 C227 1.388 . S
C228 C229 1.390 . S
C229 C228 1.390 . S
C229 C230 1.394 . S
C229 C235 1.465 . S
C230 C225 1.399 . S
C230 C229 1.394 . S
C230 C231 1.516 . S
C231 C230 1.516 . S
C231 C232 1.502 . S
C231 C233 1.561 . S
C231 C234 1.526 . S
C232 H216 0.959 . S
C232 H217 0.959 . S
C232 H218 0.961 . S
C232 C231 1.502 . S
C233 H219 0.960 . S
C233 H220 0.961 . S
C233 H221 0.959 . S
C233 C231 1.561 . S
C234 C231 1.526 . S
C234 C235 1.396 . S
C234 C239 1.390 . S
C235 C229 1.465 . S
C235 C234 1.396 . S
C235 C236 1.399 . S
C236 H222 0.929 . S
C236 C235 1.399 . S
C236 C237 1.385 . S
C237 H223 0.931 . S
C237 C236 1.385 . S
C237 C238 1.389 . S
C238 C237 1.389 . S
C238 C239 1.387 . S
C239 H224 0.930 . S
C239 C234 1.390 . S
C239 C238 1.387 . S
H240 C252 0.930 . S
H241 C254 0.930 . S
H242 C255 0.930 . S
H243 C259 0.959 . S
H244 C259 0.959 . S
H245 C259 0.961 . S
H246 C260 0.960 . S
H247 C260 0.961 . S
H248 C260 0.959 . S
H249 C263 0.929 . S
H250 C264 0.931 . S
H251 C266 0.930 . S
C252 H240 0.930 . S
C252 C253 1.399 . S
C252 C257 1.399 . S
C253 C252 1.399 . S
C253 C254 1.376 . S
C254 H241 0.930 . S
C254 C253 1.376 . S
C254 C255 1.388 . S
C255 H242 0.930 . S
C255 C254 1.388 . S
C255 C256 1.390 . S
C256 C255 1.390 . S
C256 C257 1.394 . S
C256 C262 1.465 . S
C257 C252 1.399 . S
C257 C256 1.394 . S
C257 C258 1.516 . S
C258 C257 1.516 . S
C258 C259 1.502 . S
C258 C260 1.561 . S
C258 C261 1.526 . S
C259 H243 0.959 . S
C259 H244 0.959 . S
C259 H245 0.961 . S
C259 C258 1.502 . S
C260 H246 0.960 . S
C260 H247 0.961 . S
C260 H248 0.959 . S
C260 C258 1.561 . S
C261 C258 1.526 . S
C261 C262 1.396 . S
C261 C266 1.390 . S
C262 C256 1.465 . S
C262 C261 1.396 . S
C262 C263 1.399 . S
C263 H249 0.929 . S
C263 C262 1.399 . S
C263 C264 1.385 . S
C264 H250 0.931 . S
C264 C263 1.385 . S
C264 C265 1.389 . S
C265 C264 1.389 . S
C265 C266 1.387 . S
C266 H251 0.930 . S
C266 C261 1.390 . S
C266 C265 1.387 . S
H267 C279 0.930 . S
H268 C281 0.930 . S
H269 C282 0.930 . S
H270 C286 0.959 . S
H271 C286 0.959 . S
H272 C286 0.961 . S
H273 C287 0.960 . S
H274 C287 0.961 . S
H275 C287 0.959 . S
H276 C290 0.929 . S
H277 C291 0.957 . S
H278 C293 0.930 . S
C279 H267 0.930 . S
C279 C280 1.399 . S
C279 C284 1.399 . S
C280 C279 1.399 . S
C280 C281 1.376 . S
C281 H268 0.930 . S
C281 C280 1.376 . S
C281 C282 1.388 . S
C282 H269 0.930 . S
C282 C281 1.388 . S
C282 C283 1.390 . S
C283 C282 1.390 . S
C283 C284 1.394 . S
C283 C289 1.465 . S
C284 C279 1.399 . S
C284 C283 1.394 . S
C284 C285 1.516 . S
C285 C284 1.516 . S
C285 C286 1.502 . S
C285 C287 1.561 . S
C285 C288 1.526 . S
C286 H270 0.959 . S
C286 H271 0.959 . S
C286 H272 0.961 . S
C286 C285 1.502 . S
C287 H273 0.960 . S
C287 H274 0.961 . S
C287 H275 0.959 . S
C287 C285 1.561 . S
C288 C285 1.526 . S
C288 C289 1.396 . S
C288 C293 1.390 . S
C289 C283 1.465 . S
C289 C288 1.396 . S
C289 C290 1.399 . S
C290 H276 0.929 . S
C290 C289 1.399 . S
C290 C291 1.364 1_554 S
C291 H277 0.957 . S
C291 C290 1.364 1_556 S
C291 C292 1.386 1_556 S
C292 C291 1.386 1_554 S
C292 C293 1.387 . S
C293 H278 0.930 . S
C293 C288 1.390 . S
C293 C292 1.387 . S
H294 C306 0.930 . S
H295 C308 0.930 . S
H296 C309 0.930 . S
H297 C313 0.959 . S
H298 C313 0.966 . S
H299 C313 0.961 . S
H300 C314 0.960 . S
H301 C314 0.961 . S
H302 C314 0.959 . S
H303 C317 0.929 . S
H304 C318 0.931 . S
H305 C320 0.930 . S
C306 H294 0.930 . S
C306 C307 1.399 . S
C306 C311 1.399 . S
C307 C306 1.399 . S
C307 C308 1.376 . S
C308 H295 0.930 . S
C308 C307 1.376 . S
C308 C309 1.388 . S
C309 H296 0.930 . S
C309 C308 1.388 . S
C309 C310 1.390 . S
C310 C309 1.390 . S
C310 C311 1.394 . S
C310 C316 1.465 1_556 S
C311 C306 1.399 . S
C311 C310 1.394 . S
C311 C312 1.516 1_556 S
C312 C311 1.516 1_554 S
C312 C313 1.502 1_554 S
C312 C314 1.561 . S
C312 C315 1.526 . S
C313 H297 0.959 . S
C313 H298 0.966 . S
C313 H299 0.961 . S
C313 C312 1.502 1_556 S
C314 H300 0.960 . S
C314 H301 0.961 . S
C314 H302 0.959 . S
C314 C312 1.561 . S
C315 C312 1.526 . S
C315 C316 1.396 . S
C315 C320 1.390 . S
C316 C310 1.465 1_554 S
C316 C315 1.396 . S
C316 C317 1.399 . S
C317 H303 0.929 . S
C317 C316 1.399 . S
C317 C318 1.385 . S
C318 H304 0.931 . S
C318 C317 1.385 . S
C318 C319 1.389 . S
C319 C318 1.389 . S
C319 C320 1.387 . S
C320 H305 0.930 . S
C320 C315 1.390 . S
C320 C319 1.387 . S
H321 C333 0.930 . S
H322 C335 0.930 . S
H323 C336 0.930 . S
H324 C340 0.959 . S
H325 C340 0.959 . S
H326 C340 0.961 . S
H327 C341 0.960 . S
H328 C341 0.961 . S
H329 C341 0.959 . S
H330 C344 0.929 . S
H331 C345 0.931 . S
H332 C347 0.930 . S
C333 H321 0.930 . S
C333 C334 1.399 1_655 S
C333 C338 1.399 . S
C334 C333 1.399 1_455 S
C334 C335 1.376 . S
C335 H322 0.930 . S
C335 C334 1.376 . S
C335 C336 1.388 1_455 S
C336 H323 0.930 . S
C336 C335 1.388 1_655 S
C336 C337 1.390 . S
C337 C336 1.390 . S
C337 C338 1.394 . S
C337 C343 1.465 . S
C338 C333 1.399 . S
C338 C337 1.394 . S
C338 C339 1.516 . S
C339 C338 1.516 . S
C339 C340 1.502 . S
C339 C341 1.561 . S
C339 C342 1.526 . S
C340 H324 0.959 . S
C340 H325 0.959 . S
C340 H326 0.961 . S
C340 C339 1.502 . S
C341 H327 0.960 . S
C341 H328 0.961 . S
C341 H329 0.959 . S
C341 C339 1.561 . S
C342 C339 1.526 . S
C342 C343 1.396 . S
C342 C347 1.390 . S
C343 C337 1.465 . S
C343 C342 1.396 . S
C343 C344 1.399 . S
C344 H330 0.929 . S
C344 C343 1.399 . S
C344 C345 1.385 . S
C345 H331 0.931 . S
C345 C344 1.385 . S
C345 C346 1.389 . S
C346 C345 1.389 . S
C346 C347 1.387 . S
C347 H332 0.930 . S
C347 C342 1.390 . S
C347 C346 1.387 . S
H348 C360 0.930 . S
H349 C362 0.930 . S
H350 C363 0.930 . S
H351 C367 0.959 . S
H352 C367 0.959 . S
H353 C367 0.961 . S
H354 C368 0.960 . S
H355 C368 0.961 . S
H356 C368 0.959 . S
H357 C371 0.929 . S
H358 C372 0.931 . S
H359 C374 0.930 1_545 S
C360 H348 0.930 . S
C360 C361 1.399 . S
C360 C365 1.399 . S
C361 C360 1.399 . S
C361 C362 1.376 . S
C362 H349 0.930 . S
C362 C361 1.376 . S
C362 C363 1.388 . S
C363 H350 0.930 . S
C363 C362 1.388 . S
C363 C364 1.390 . S
C364 C363 1.390 . S
C364 C365 1.394 . S
C364 C370 1.465 . S
C365 C360 1.399 . S
C365 C364 1.394 . S
C365 C366 1.516 . S
C366 C365 1.516 . S
C366 C367 1.502 . S
C366 C368 1.561 . S
C366 C369 1.526 . S
C367 H351 0.959 . S
C367 H352 0.959 . S
C367 H353 0.961 . S
C367 C366 1.502 . S
C368 H354 0.960 . S
C368 H355 0.961 . S
C368 H356 0.959 . S
C368 C366 1.561 . S
C369 C366 1.526 . S
C369 C370 1.396 . S
C369 C374 1.390 . S
C370 C364 1.465 . S
C370 C369 1.396 . S
C370 C371 1.399 . S
C371 H357 0.929 . S
C371 C370 1.399 . S
C371 C372 1.385 . S
C372 H358 0.931 . S
C372 C371 1.385 . S
C372 C373 1.389 1_565 S
C373 C372 1.389 1_545 S
C373 C374 1.387 1_545 S
C374 H359 0.930 1_565 S
C374 C369 1.390 . S
C374 C373 1.387 1_565 S
H375 C387 0.930 . S
H376 C389 0.930 . S
H377 C390 0.930 . S
H378 C394 0.959 . S
H379 C394 0.959 . S
H380 C394 0.961 . S
H381 C395 0.960 . S
H382 C395 0.961 . S
H383 C395 0.959 . S
H384 C398 0.929 . S
H385 C399 0.931 . S
H386 C401 0.930 . S
C387 H375 0.930 . S
C387 C388 1.399 . S
C387 C392 1.399 . S
C388 C387 1.399 . S
C388 C389 1.376 . S
C389 H376 0.930 . S
C389 C388 1.376 . S
C389 C390 1.388 . S
C390 H377 0.930 . S
C390 C389 1.388 . S
C390 C391 1.390 . S
C391 C390 1.390 . S
C391 C392 1.394 . S
C391 C397 1.465 . S
C392 C387 1.399 . S
C392 C391 1.394 . S
C392 C393 1.516 . S
C393 C392 1.516 . S
C393 C394 1.502 . S
C393 C395 1.561 . S
C393 C396 1.526 . S
C394 H378 0.959 . S
C394 H379 0.959 . S
C394 H380 0.961 . S
C394 C393 1.502 . S
C395 H381 0.960 . S
C395 H382 0.961 . S
C395 H383 0.959 . S
C395 C393 1.561 . S
C396 C393 1.526 . S
C396 C397 1.396 . S
C396 C401 1.390 . S
C397 C391 1.465 . S
C397 C396 1.396 . S
C397 C398 1.399 . S
C398 H384 0.929 . S
C398 C397 1.399 . S
C398 C399 1.385 . S
C399 H385 0.931 . S
C399 C398 1.385 . S
C399 C400 1.389 . S
C400 C399 1.389 . S
C400 C401 1.387 . S
C401 H386 0.930 . S
C401 C396 1.390 . S
C401 C400 1.387 . S
H402 C414 0.930 . S
H403 C416 0.930 . S
H404 C417 0.930 . S
H405 C421 0.959 . S
H406 C421 0.959 . S
H407 C421 0.961 . S
H408 C422 0.960 . S
H409 C422 0.961 . S
H410 C422 0.959 . S
H411 C425 0.929 . S
H412 C426 0.931 1_655 S
H413 C428 0.930 . S
C414 H402 0.930 . S
C414 C415 1.399 . S
C414 C419 1.399 . S
C415 C414 1.399 . S
C415 C416 1.376 . S
C416 H403 0.930 . S
C416 C415 1.376 . S
C416 C417 1.388 . S
C417 H404 0.930 . S
C417 C416 1.388 . S
C417 C418 1.390 . S
C418 C417 1.390 . S
C418 C419 1.394 . S
C418 C424 1.465 . S
C419 C414 1.399 . S
C419 C418 1.394 . S
C419 C420 1.516 . S
C420 C419 1.516 . S
C420 C421 1.502 . S
C420 C422 1.561 . S
C420 C423 1.526 . S
C421 H405 0.959 . S
C421 H406 0.959 . S
C421 H407 0.961 . S
C421 C420 1.502 . S
C422 H408 0.960 . S
C422 H409 0.961 . S
C422 H410 0.959 . S
C422 C420 1.561 . S
C423 C420 1.526 . S
C423 C424 1.396 . S
C423 C428 1.390 . S
C424 C418 1.465 . S
C424 C423 1.396 . S
C424 C425 1.399 . S
C425 H411 0.929 . S
C425 C424 1.399 . S
C425 C426 1.385 . S
C426 H412 0.931 1_455 S
C426 C425 1.385 . S
C426 C427 1.389 1_455 S
C427 C426 1.389 1_655 S
C427 C428 1.387 1_655 S
C428 H413 0.930 . S
C428 C423 1.390 . S
C428 C427 1.387 1_455 S
H429 C441 0.930 . S
H430 C443 0.930 . S
H431 C444 0.930 . S
H432 C448 0.959 . S
H433 C448 0.959 . S
H434 C448 0.961 . S
H435 C449 0.960 . S
H436 C449 0.961 . S
H437 C449 0.959 . S
H438 C452 0.929 . S
H439 C453 0.931 . S
H440 C455 0.930 1_565 S
C441 H429 0.930 . S
C441 C442 1.399 . S
C441 C446 1.399 . S
C442 C441 1.399 . S
C442 C443 1.376 . S
C443 H430 0.930 . S
C443 C442 1.376 . S
C443 C444 1.388 . S
C444 H431 0.930 . S
C444 C443 1.388 . S
C444 C445 1.390 . S
C445 C444 1.390 . S
C445 C446 1.394 . S
C445 C451 1.465 . S
C446 C441 1.399 . S
C446 C445 1.394 . S
C446 C447 1.516 . S
C447 C446 1.516 . S
C447 C448 1.502 . S
C447 C449 1.561 . S
C447 C450 1.526 . S
C448 H432 0.959 . S
C448 H433 0.959 . S
C448 H434 0.961 . S
C448 C447 1.502 . S
C449 H435 0.960 . S
C449 H436 0.961 . S
C449 H437 0.959 . S
C449 C447 1.561 . S
C450 C447 1.526 . S
C450 C451 1.396 . S
C450 C455 1.390 . S
C451 C445 1.465 . S
C451 C450 1.396 . S
C451 C452 1.399 . S
C452 H438 0.929 . S
C452 C451 1.399 . S
C452 C453 1.385 . S
C453 H439 0.931 . S
C453 C452 1.385 . S
C453 C454 1.389 1_545 S
C454 C453 1.389 1_565 S
C454 C455 1.387 1_565 S
C455 H440 0.930 1_545 S
C455 C450 1.390 . S
C455 C454 1.387 1_545 S
H456 C468 0.930 . S
H457 C470 0.930 . S
H458 C471 0.930 . S
H459 C475 0.959 . S
H460 C475 0.959 . S
H461 C475 0.961 . S
H462 C476 0.960 . S
H463 C476 0.961 . S
H464 C476 0.959 . S
H465 C479 0.929 . S
H466 C480 0.931 . S
H467 C482 0.930 . S
C468 H456 0.930 . S
C468 C469 1.399 . S
C468 C473 1.399 . S
C469 C468 1.399 . S
C469 C470 1.376 . S
C470 H457 0.930 . S
C470 C469 1.376 . S
C470 C471 1.388 . S
C471 H458 0.930 . S
C471 C470 1.388 . S
C471 C472 1.390 . S
C472 C471 1.390 . S
C472 C473 1.394 . S
C472 C478 1.465 . S
C473 C468 1.399 . S
C473 C472 1.394 . S
C473 C474 1.516 . S
C474 C473 1.516 . S
C474 C475 1.502 . S
C474 C476 1.561 . S
C474 C477 1.526 . S
C475 H459 0.959 . S
C475 H460 0.959 . S
C475 H461 0.961 . S
C475 C474 1.502 . S
C476 H462 0.960 . S
C476 H463 0.961 . S
C476 H464 0.959 . S
C476 C474 1.561 . S
C477 C474 1.526 . S
C477 C478 1.396 . S
C477 C482 1.390 . S
C478 C472 1.465 . S
C478 C477 1.396 . S
C478 C479 1.399 . S
C479 H465 0.929 . S
C479 C478 1.399 . S
C479 C480 1.385 . S
C480 H466 0.931 . S
C480 C479 1.385 . S
C480 C481 1.389 . S
C481 C480 1.389 . S
C481 C482 1.387 . S
C482 H467 0.930 . S
C482 C477 1.390 . S
C482 C481 1.387 . S
H483 C495 0.930 . S
H484 C497 0.930 . S
H485 C498 0.930 . S
H486 C502 0.959 . S
H487 C502 0.959 . S
H488 C502 0.961 1_554 S
H489 C503 0.960 . S
H490 C503 0.961 . S
H491 C503 0.959 . S
H492 C506 0.929 . S
H493 C507 0.931 . S
H494 C509 0.930 . S
C495 H483 0.930 . S
C495 C496 1.399 1_655 S
C495 C500 1.399 . S
C496 C495 1.399 1_455 S
C496 C497 1.376 . S
C497 H484 0.930 . S
C497 C496 1.376 . S
C497 C498 1.388 1_455 S
C498 H485 0.930 . S
C498 C497 1.388 1_655 S
C498 C499 1.390 . S
C499 C498 1.390 . S
C499 C500 1.394 . S
C499 C505 1.465 1_554 S
C500 C495 1.399 . S
C500 C499 1.394 . S
C500 C501 1.516 . S
C501 C500 1.516 . S
C501 C502 1.502 1_554 S
C501 C503 1.561 . S
C501 C504 1.526 1_554 S
C502 H486 0.959 . S
C502 H487 0.959 . S
C502 H488 0.961 1_556 S
C502 C501 1.502 1_556 S
C503 H489 0.960 . S
C503 H490 0.961 . S
C503 H491 0.959 . S
C503 C501 1.561 . S
C504 C501 1.526 1_556 S
C504 C505 1.396 . S
C504 C509 1.390 . S
C505 C499 1.465 1_556 S
C505 C504 1.396 . S
C505 C506 1.399 . S
C506 H492 0.929 . S
C506 C505 1.399 . S
C506 C507 1.385 . S
C507 H493 0.931 . S
C507 C506 1.385 . S
C507 C508 1.389 . S
C508 C507 1.389 . S
C508 C509 1.387 . S
C509 H494 0.930 . S
C509 C504 1.390 . S
C509 C508 1.387 . S
H510 C522 0.930 1_545 S
H511 C524 0.930 . S
H512 C525 0.930 . S
H513 C529 0.959 . S
H514 C529 0.959 . S
H515 C529 0.961 . S
H516 C530 0.960 . S
H517 C530 0.961 . S
H518 C530 0.959 . S
H519 C533 0.929 . S
H520 C534 0.931 . S
H521 C536 0.930 . S
C522 H510 0.930 1_565 S
C522 C523 1.399 . S
C522 C527 1.399 . S
C523 C522 1.399 . S
C523 C524 1.376 . S
C524 H511 0.930 . S
C524 C523 1.376 . S
C524 C525 1.388 . S
C525 H512 0.930 . S
C525 C524 1.388 . S
C525 C526 1.390 . S
C526 C525 1.390 . S
C526 C527 1.394 . S
C526 C532 1.465 . S
C527 C522 1.399 . S
C527 C526 1.394 . S
C527 C528 1.516 . S
C528 C527 1.516 . S
C528 C529 1.502 . S
C528 C530 1.561 . S
C528 C531 1.526 . S
C529 H513 0.959 . S
C529 H514 0.959 . S
C529 H515 0.961 . S
C529 C528 1.502 . S
C530 H516 0.960 . S
C530 H517 0.961 . S
C530 H518 0.959 . S
C530 C528 1.561 . S
C531 C528 1.526 . S
C531 C532 1.396 . S
C531 C536 1.390 . S
C532 C526 1.465 . S
C532 C531 1.396 . S
C532 C533 1.399 . S
C533 H519 0.929 . S
C533 C532 1.399 . S
C533 C534 1.385 . S
C534 H520 0.931 . S
C534 C533 1.385 . S
C534 C535 1.389 . S
C535 C534 1.389 . S
C535 C536 1.387 . S
C536 H521 0.930 . S
C536 C531 1.390 . S
C536 C535 1.387 . S
H537 C549 0.930 . S
H538 C551 0.930 . S
H539 C552 0.930 . S
H540 C556 0.959 . S
H541 C556 0.959 . S
H542 C556 0.961 . S
H543 C557 0.960 . S
H544 C557 0.961 . S
H545 C557 0.959 . S
H546 C560 0.929 . S
H547 C561 0.931 . S
H548 C563 0.930 . S
C549 H537 0.930 . S
C549 C550 1.399 . S
C549 C554 1.399 . S
C550 C549 1.399 . S
C550 C551 1.376 . S
C551 H538 0.930 . S
C551 C550 1.376 . S
C551 C552 1.388 . S
C552 H539 0.930 . S
C552 C551 1.388 . S
C552 C553 1.390 . S
C553 C552 1.390 . S
C553 C554 1.394 . S
C553 C559 1.465 . S
C554 C549 1.399 . S
C554 C553 1.394 . S
C554 C555 1.516 . S
C555 C554 1.516 . S
C555 C556 1.502 . S
C555 C557 1.561 . S
C555 C558 1.526 . S
C556 H540 0.959 . S
C556 H541 0.959 . S
C556 H542 0.961 . S
C556 C555 1.502 . S
C557 H543 0.960 . S
C557 H544 0.961 . S
C557 H545 0.959 . S
C557 C555 1.561 . S
C558 C555 1.526 . S
C558 C559 1.396 . S
C558 C563 1.390 . S
C559 C553 1.465 . S
C559 C558 1.396 . S
C559 C560 1.399 . S
C560 H546 0.929 . S
C560 C559 1.399 . S
C560 C561 1.385 . S
C561 H547 0.931 . S
C561 C560 1.385 . S
C561 C562 1.389 . S
C562 C561 1.389 . S
C562 C563 1.387 . S
C563 H548 0.930 . S
C563 C558 1.390 . S
C563 C562 1.387 . S
H564 C576 0.930 . S
H565 C578 0.931 1_655 S
H566 C579 0.930 . S
H567 C583 0.959 . S
H568 C583 0.959 . S
H569 C583 0.961 . S
H570 C584 0.960 . S
H571 C584 0.961 . S
H572 C584 0.959 . S
H573 C587 0.929 . S
H574 C588 0.931 . S
H575 C590 0.930 . S
C576 H564 0.930 . S
C576 C577 1.399 1_455 S
C576 C581 1.399 . S
C577 C576 1.399 1_655 S
C577 C578 1.378 1_655 S
C578 H565 0.931 1_455 S
C578 C577 1.378 1_455 S
C578 C579 1.387 . S
C579 H566 0.930 . S
C579 C578 1.387 . S
C579 C580 1.390 . S
C580 C579 1.390 . S
C580 C581 1.394 . S
C580 C586 1.465 . S
C581 C576 1.399 . S
C581 C580 1.394 . S
C581 C582 1.516 . S
C582 C581 1.516 . S
C582 C583 1.502 . S
C582 C584 1.561 . S
C582 C585 1.526 . S
C583 H567 0.959 . S
C583 H568 0.959 . S
C583 H569 0.961 . S
C583 C582 1.502 . S
C584 H570 0.960 . S
C584 H571 0.961 . S
C584 H572 0.959 . S
C584 C582 1.561 . S
C585 C582 1.526 . S
C585 C586 1.396 . S
C585 C590 1.390 . S
C586 C580 1.465 . S
C586 C585 1.396 . S
C586 C587 1.399 . S
C587 H573 0.929 . S
C587 C586 1.399 . S
C587 C588 1.385 . S
C588 H574 0.931 . S
C588 C587 1.385 . S
C588 C589 1.389 . S
C589 C588 1.389 . S
C589 C590 1.387 . S
C590 H575 0.930 . S
C590 C585 1.390 . S
C590 C589 1.387 . S
H591 C603 0.930 1_565 S
H592 C605 0.930 . S
H593 C606 0.930 . S
H594 C610 0.959 . S
H595 C610 0.959 . S
H596 C610 0.961 . S
H597 C611 0.960 . S
H598 C611 0.961 . S
H599 C611 0.959 . S
H600 C614 0.929 . S
H601 C615 0.931 . S
H602 C617 0.930 . S
C603 H591 0.930 1_545 S
C603 C604 1.399 . S
C603 C608 1.399 . S
C604 C603 1.399 . S
C604 C605 1.376 . S
C605 H592 0.930 . S
C605 C604 1.376 . S
C605 C606 1.388 . S
C606 H593 0.930 . S
C606 C605 1.388 . S
C606 C607 1.390 . S
C607 C606 1.390 . S
C607 C608 1.394 . S
C607 C613 1.465 . S
C608 C603 1.399 . S
C608 C607 1.394 . S
C608 C609 1.516 . S
C609 C608 1.516 . S
C609 C610 1.502 . S
C609 C611 1.561 . S
C609 C612 1.526 . S
C610 H594 0.959 . S
C610 H595 0.959 . S
C610 H596 0.961 . S
C610 C609 1.502 . S
C611 H597 0.960 . S
C611 H598 0.961 . S
C611 H599 0.959 . S
C611 C609 1.561 . S
C612 C609 1.526 . S
C612 C613 1.396 . S
C612 C617 1.390 . S
C613 C607 1.465 . S
C613 C612 1.396 . S
C613 C614 1.399 . S
C614 H600 0.929 . S
C614 C613 1.399 . S
C614 C615 1.385 . S
C615 H601 0.931 . S
C615 C614 1.385 . S
C615 C616 1.389 . S
C616 C615 1.389 . S
C616 C617 1.387 . S
C617 H602 0.930 . S
C617 C612 1.390 . S
C617 C616 1.387 . S
C145 C18 0.816 . S
C157 C52 0.817 . S
C172 C37 0.953 . S
C184 C73 0.968 . S
C199 C106 0.897 . S
C211 C51 0.898 . S
C226 C118 0.819 . S
C238 C74 0.816 . S
C253 C15 0.945 1_556 S
C265 C103 0.955 . S
C280 C40 0.897 . S
C292 C117 0.899 1_554 S
C307 C125 1.292 . S
C319 C10 1.334 . S
C334 C8 1.331 . S
C346 C29 1.352 . S
C361 C65 1.362 . S
C373 C43 1.390 . S
C388 C84 1.389 . S
C400 C59 1.382 . S
C415 C95 1.315 . S
C427 C76 1.313 . S
C442 C131 1.354 . S
C454 C109 1.384 . S
C469 C98 1.336 . S
C481 C120 1.354 . S
C496 C21 1.375 . S
C508 C128 1.381 . S
C523 C30 1.334 1_565 S
C535 C7 1.282 . S
C550 C32 1.362 . S
C562 C54 1.350 . S
C577 C81 1.371 . S
C589 C62 1.371 . S
C604 C96 1.325 1_545 S
C616 C87 1.279 . S
