# Generated by pormake.
# Topology uop, (4)-cn, num edge types: 1
# Building blocks:
#     Node 0, Type 0, BuildingBlock: KOZSID_clean_sbu_0, # of connection points: 4
#     Node 1, Type 0, BuildingBlock: KOZSID_clean_sbu_0, # of connection points: 4
#     Node 2, Type 0, BuildingBlock: KOZSID_clean_sbu_0, # of connection points: 4
#     Node 3, Type 0, BuildingBlock: KOZSID_clean_sbu_0, # of connection points: 4
#     Node 4, Type 0, BuildingBlock: KOZSID_clean_sbu_0, # of connection points: 4
#     Node 5, Type 0, BuildingBlock: KOZSID_clean_sbu_0, # of connection points: 4
#     Node 6, Type 0, BuildingBlock: KOZSID_clean_sbu_0, # of connection points: 4
#     Node 7, Type 0, BuildingBlock: KOZSID_clean_sbu_0, # of connection points: 4
#     Node 8, Type 0, BuildingBlock: KOZSID_clean_sbu_0, # of connection points: 4
#     Node 9, Type 0, BuildingBlock: KOZSID_clean_sbu_0, # of connection points: 4
#     Node 10, Type 0, BuildingBlock: KOZSID_clean_sbu_0, # of connection points: 4
#     Node 11, Type 0, BuildingBlock: KOZSID_clean_sbu_0, # of connection points: 4
#     Edge 12, Type (0, 0), BuildingBlock: KIFKEQ_clean_linker_1, # of connection points: 2
#     Edge 13, Type (0, 0), BuildingBlock: KIFKEQ_clean_linker_1, # of connection points: 2
#     Edge 14, Type (0, 0), BuildingBlock: KIFKEQ_clean_linker_1, # of connection points: 2
#     Edge 15, Type (0, 0), BuildingBlock: KIFKEQ_clean_linker_1, # of connection points: 2
#     Edge 16, Type (0, 0), BuildingBlock: KIFKEQ_clean_linker_1, # of connection points: 2
#     Edge 17, Type (0, 0), BuildingBlock: KIFKEQ_clean_linker_1, # of connection points: 2
#     Edge 18, Type (0, 0), BuildingBlock: KIFKEQ_clean_linker_1, # of connection points: 2
#     Edge 19, Type (0, 0), BuildingBlock: KIFKEQ_clean_linker_1, # of connection points: 2
#     Edge 20, Type (0, 0), BuildingBlock: KIFKEQ_clean_linker_1, # of connection points: 2
#     Edge 21, Type (0, 0), BuildingBlock: KIFKEQ_clean_linker_1, # of connection points: 2
#     Edge 22, Type (0, 0), BuildingBlock: KIFKEQ_clean_linker_1, # of connection points: 2
#     Edge 23, Type (0, 0), BuildingBlock: KIFKEQ_clean_linker_1, # of connection points: 2
#     Edge 24, Type (0, 0), BuildingBlock: KIFKEQ_clean_linker_1, # of connection points: 2
#     Edge 25, Type (0, 0), BuildingBlock: KIFKEQ_clean_linker_1, # of connection points: 2
#     Edge 26, Type (0, 0), BuildingBlock: KIFKEQ_clean_linker_1, # of connection points: 2
#     Edge 27, Type (0, 0), BuildingBlock: KIFKEQ_clean_linker_1, # of connection points: 2
#     Edge 28, Type (0, 0), BuildingBlock: KIFKEQ_clean_linker_1, # of connection points: 2
#     Edge 29, Type (0, 0), BuildingBlock: KIFKEQ_clean_linker_1, # of connection points: 2
#     Edge 30, Type (0, 0), BuildingBlock: KIFKEQ_clean_linker_1, # of connection points: 2
#     Edge 31, Type (0, 0), BuildingBlock: KIFKEQ_clean_linker_1, # of connection points: 2
#     Edge 32, Type (0, 0), BuildingBlock: KIFKEQ_clean_linker_1, # of connection points: 2
#     Edge 33, Type (0, 0), BuildingBlock: KIFKEQ_clean_linker_1, # of connection points: 2
#     Edge 34, Type (0, 0), BuildingBlock: KIFKEQ_clean_linker_1, # of connection points: 2
#     Edge 35, Type (0, 0), BuildingBlock: KIFKEQ_clean_linker_1, # of connection points: 2
# Relax obj value: 0.071
# Max RMSD: 0.267
# Mean RMSD: 0.246
data_MOF--net-uop--node1-KOZSID_clean_sbu_0--edge1-KIFKEQ_clean_linker_1
_symmetry_space_group_name_H-M    P1
_symmetry_Int_Tables_number       1
_symmetry_cell_setting            triclinic
loop_
_symmetry_equiv_pos_as_xyz
'x, y, z'
_cell_length_a     40.202046
_cell_length_b     38.529426
_cell_length_c     66.450568
_cell_angle_alpha  89.944919
_cell_angle_beta   90.046706
_cell_angle_gamma 121.44716
loop_
_atom_site_label
_atom_site_type_symbol
_atom_site_fract_x
_atom_site_fract_y
_atom_site_fract_z
_atom_type_partial_charge
C0 C 0.36781 0.45035 0.21815 0.0
C1 C 0.39121 0.44168 0.20643 0.0
C2 C 0.36845 0.4175 0.19103 0.0
C3 C 0.3327 0.41299 0.19409 0.0
N4 N 0.3313 0.43294 0.21039 0.0
Co5 Co 0.28511 0.43508 0.21957 0.0
N6 N 0.24883 0.38854 0.20174 0.0
C7 C 0.25953 0.37097 0.18771 0.0
C8 C 0.22878 0.339 0.17796 0.0
C9 C 0.19637 0.33658 0.18591 0.0
C10 C 0.20928 0.36774 0.19992 0.0
N11 N 0.23867 0.43788 0.22805 0.0
C12 C 0.20023 0.41473 0.22269 0.0
C13 C 0.17915 0.43096 0.23037 0.0
C14 C 0.2051 0.46576 0.24044 0.0
C15 C 0.24059 0.46903 0.23836 0.0
N16 N 0.32158 0.48073 0.23766 0.0
C17 C 0.31367 0.50649 0.24707 0.0
C18 C 0.34396 0.53443 0.25885 0.0
C19 C 0.37289 0.52583 0.25668 0.0
C20 C 0.35866 0.49311 0.24359 0.0
N21 N 0.29463 0.47494 0.19806 0.0
C22 C 0.30203 0.54264 0.17754 0.0
C23 C 0.33399 0.5451 0.18742 0.0
C24 C 0.32998 0.5107 0.19707 0.0
C25 C 0.2676 0.50449 0.17632 0.0
C26 C 0.26451 0.47116 0.18664 0.0
N27 N 0.2765 0.39719 0.24197 0.0
C28 C 0.27017 0.38623 0.27799 0.0
C29 C 0.28075 0.35689 0.27681 0.0
C30 C 0.287 0.34661 0.25739 0.0
C31 C 0.28458 0.3669 0.24023 0.0
C32 C 0.26795 0.40548 0.26063 0.0
H33 H 0.29075 0.35912 0.2257 0.0
H34 H 0.26147 0.42895 0.26268 0.0
H35 H 0.35497 0.51402 0.20489 0.0
H36 H 0.23685 0.44323 0.18632 0.0
C37 C 0.29861 0.38476 0.18429 0.0
C38 C 0.38186 0.47621 0.2361 0.0
C39 C 0.18349 0.38049 0.20831 0.0
C40 C 0.27603 0.50004 0.24639 0.0
H41 H 0.4215 0.45148 0.2088 0.0
H42 H 0.37654 0.40336 0.17953 0.0
H43 H 0.22984 0.32013 0.16622 0.0
H44 H 0.16666 0.31562 0.18116 0.0
H45 H 0.14847 0.41968 0.22824 0.0
H46 H 0.19892 0.48659 0.24807 0.0
H47 H 0.34457 0.55754 0.26837 0.0
H48 H 0.40124 0.54192 0.26382 0.0
H49 H 0.36157 0.57374 0.18823 0.0
H50 H 0.24232 0.50098 0.16854 0.0
H51 H 0.26547 0.39614 0.29237 0.0
H52 H 0.29436 0.32353 0.25538 0.0
C53 C 0.93686 0.35253 0.55976 0.0
C54 C 0.9677 0.37911 0.54743 0.0
C55 C 0.96828 0.35668 0.53172 0.0
C56 C 0.93775 0.31793 0.53519 0.0
N57 N 0.91761 0.3142 0.55207 0.0
Co58 Co 0.8703 0.26292 0.56181 0.0
N59 N 0.87853 0.22822 0.54232 0.0
C60 C 0.90606 0.24216 0.52787 0.0
C61 C 0.90615 0.2121 0.51692 0.0
C62 C 0.87621 0.1766 0.52454 0.0
C63 C 0.85906 0.18706 0.53959 0.0
N64 N 0.82157 0.21136 0.57048 0.0
C65 C 0.80556 0.17176 0.56443 0.0
C66 C 0.76916 0.14704 0.57307 0.0
C67 C 0.76171 0.17167 0.58459 0.0
C68 C 0.79374 0.21009 0.58234 0.0
N69 N 0.86315 0.29766 0.58158 0.0
C70 C 0.83105 0.28559 0.59275 0.0
C71 C 0.8344 0.31542 0.6054 0.0
C72 C 0.87094 0.34855 0.60197 0.0
C73 C 0.88789 0.33716 0.5873 0.0
N74 N 0.83804 0.271 0.54205 0.0
C75 C 0.77528 0.27524 0.52607 0.0
C76 C 0.80791 0.30972 0.53432 0.0
C77 C 0.83907 0.30711 0.54192 0.0
C78 C 0.77731 0.24018 0.5237 0.0
C79 C 0.80903 0.23888 0.53154 0.0
N80 N 0.90183 0.25601 0.58286 0.0
C81 C 0.90588 0.24298 0.6182 0.0
C82 C 0.94661 0.26837 0.61826 0.0
C83 C 0.96456 0.28366 0.59944 0.0
C84 C 0.94178 0.27639 0.58196 0.0
C85 C 0.88436 0.23773 0.60071 0.0
H86 H 0.95688 0.28938 0.56803 0.0
H87 H 0.85332 0.22062 0.6024 0.0
H88 H 0.86251 0.33367 0.5491 0.0
H89 H 0.80843 0.21082 0.5302 0.0
C90 C 0.93127 0.28362 0.52488 0.0
C91 C 0.92641 0.36539 0.57826 0.0
C92 C 0.82154 0.15709 0.54883 0.0
C93 C 0.79987 0.24524 0.59201 0.0
H94 H 0.98794 0.41134 0.54958 0.0
H95 H 0.98943 0.36707 0.51964 0.0
H96 H 0.9253 0.21561 0.50461 0.0
H97 H 0.86701 0.14645 0.51906 0.0
H98 H 0.74946 0.11475 0.57077 0.0
H99 H 0.73584 0.16266 0.59343 0.0
H100 H 0.81309 0.31318 0.61611 0.0
H101 H 0.88353 0.37787 0.60926 0.0
H102 H 0.80844 0.33791 0.53622 0.0
H103 H 0.75379 0.21324 0.51656 0.0
H104 H 0.89006 0.22811 0.63181 0.0
H105 H 0.99593 0.30276 0.5982 0.0
C106 C 0.66349 0.86896 0.96489 0.0
C107 C 0.66785 0.85783 0.98413 0.0
C108 C 0.64331 0.81643 0.9854 0.0
C109 C 0.62528 0.80464 0.96697 0.0
N110 N 0.63723 0.83604 0.9542 0.0
Co111 Co 0.61755 0.83327 0.92655 0.0
N112 N 0.5687 0.78096 0.93225 0.0
C113 C 0.56294 0.75597 0.94781 0.0
C114 C 0.52613 0.72207 0.94817 0.0
C115 C 0.50773 0.7256 0.93165 0.0
C116 C 0.53461 0.76146 0.92194 0.0
N117 N 0.59828 0.8301 0.89873 0.0
C118 C 0.56223 0.80543 0.89075 0.0
C119 C 0.56258 0.81198 0.87019 0.0
C120 C 0.6002 0.84137 0.86521 0.0
C121 C 0.62083 0.85115 0.88292 0.0
N122 N 0.66615 0.886 0.92153 0.0
C123 C 0.68147 0.90173 0.90344 0.0
C124 C 0.71393 0.94029 0.90495 0.0
C125 C 0.71893 0.94909 0.92525 0.0
C126 C 0.68914 0.91539 0.93501 0.0
N127 N 0.64282 0.8035 0.91713 0.0
C128 C 0.68109 0.76857 0.89719 0.0
C129 C 0.70115 0.80139 0.91068 0.0
C130 C 0.68156 0.81815 0.92054 0.0
C131 C 0.64096 0.75279 0.8948 0.0
C132 C 0.6226 0.77032 0.90484 0.0
N133 N 0.59289 0.86373 0.935 0.0
C134 C 0.58043 0.91721 0.92752 0.0
C135 C 0.56183 0.91177 0.94599 0.0
C136 C 0.55918 0.88172 0.95907 0.0
C137 C 0.57452 0.85762 0.95317 0.0
C138 C 0.59591 0.89341 0.92244 0.0
H139 H 0.57179 0.83432 0.96329 0.0
H140 H 0.61083 0.89963 0.90827 0.0
H141 H 0.69808 0.84386 0.93041 0.0
H142 H 0.59213 0.75786 0.90182 0.0
C143 C 0.59087 0.76771 0.96304 0.0
C144 C 0.68426 0.91068 0.95704 0.0
C145 C 0.52837 0.77285 0.90174 0.0
C146 C 0.65959 0.88343 0.88589 0.0
H147 H 0.68593 0.87746 0.99619 0.0
H148 H 0.6372 0.79773 0.99867 0.0
H149 H 0.51383 0.69806 0.95932 0.0
H150 H 0.47822 0.70365 0.927 0.0
H151 H 0.53835 0.79659 0.85983 0.0
H152 H 0.61095 0.85456 0.8505 0.0
H153 H 0.7306 0.9606 0.89275 0.0
H154 H 0.74154 0.97705 0.93208 0.0
H155 H 0.73194 0.81441 0.91354 0.0
H156 H 0.62377 0.7279 0.88454 0.0
H157 H 0.58347 0.94028 0.91705 0.0
H158 H 0.54484 0.87645 0.97351 0.0
C159 C 0.67717 0.58253 0.21683 0.0
C160 C 0.65328 0.58901 0.20425 0.0
C161 C 0.6759 0.61192 0.18848 0.0
C162 C 0.71207 0.61788 0.19221 0.0
N163 N 0.71381 0.60006 0.20929 0.0
Co164 Co 0.76061 0.60051 0.21968 0.0
N165 N 0.79658 0.64666 0.20157 0.0
C166 C 0.78539 0.66165 0.18642 0.0
C167 C 0.81582 0.69293 0.17616 0.0
C168 C 0.84856 0.69764 0.185 0.0
C169 C 0.83625 0.66866 0.20018 0.0
N170 N 0.80761 0.59996 0.22931 0.0
C171 C 0.84617 0.62425 0.22452 0.0
C172 C 0.86801 0.60977 0.2332 0.0
C173 C 0.84238 0.57477 0.24325 0.0
C174 C 0.80635 0.56975 0.24022 0.0
N175 N 0.72443 0.55533 0.23801 0.0
C176 C 0.73297 0.53088 0.24826 0.0
C177 C 0.70278 0.50334 0.26024 0.0
C178 C 0.67332 0.51093 0.25732 0.0
C179 C 0.68714 0.54266 0.24362 0.0
N180 N 0.75338 0.56022 0.19896 0.0
C181 C 0.7494 0.49296 0.17982 0.0
C182 C 0.71586 0.49011 0.18793 0.0
C183 C 0.71843 0.52413 0.19734 0.0
C184 C 0.78372 0.5313 0.17949 0.0
C185 C 0.78487 0.56449 0.18875 0.0
N186 N 0.76709 0.63902 0.24133 0.0
C187 C 0.77561 0.65405 0.27701 0.0
C188 C 0.76013 0.67906 0.27531 0.0
C189 C 0.75023 0.68548 0.25594 0.0
C190 C 0.75469 0.66588 0.23913 0.0
C191 C 0.77846 0.63423 0.26007 0.0
H192 H 0.74645 0.67118 0.22452 0.0
H193 H 0.78788 0.61318 0.26261 0.0
H194 H 0.69264 0.52032 0.20446 0.0
H195 H 0.81216 0.59281 0.18871 0.0
C196 C 0.74612 0.64599 0.18233 0.0
C197 C 0.66362 0.55867 0.23543 0.0
C198 C 0.86279 0.6584 0.21008 0.0
C199 C 0.77105 0.53848 0.24826 0.0
H200 H 0.62279 0.57865 0.20632 0.0
H201 H 0.66745 0.6244 0.1763 0.0
H202 H 0.81437 0.70971 0.16347 0.0
H203 H 0.87809 0.71856 0.18002 0.0
H204 H 0.8991 0.6225 0.2318 0.0
H205 H 0.84919 0.55515 0.25162 0.0
H206 H 0.70262 0.48131 0.27042 0.0
H207 H 0.64497 0.49496 0.26445 0.0
H208 H 0.68844 0.46125 0.18818 0.0
H209 H 0.81007 0.53533 0.17278 0.0
H210 H 0.78347 0.64788 0.2916 0.0
H211 H 0.73862 0.70504 0.25382 0.0
C212 C 0.10482 0.6831 0.55995 0.0
C213 C 0.07336 0.65674 0.54789 0.0
C214 C 0.07349 0.67886 0.53181 0.0
C215 C 0.10496 0.71723 0.53484 0.0
N216 N 0.12491 0.72106 0.55181 0.0
Co217 Co 0.17312 0.77189 0.56107 0.0
N218 N 0.16529 0.80687 0.54153 0.0
C219 C 0.1391 0.79277 0.52639 0.0
C220 C 0.14071 0.8226 0.51449 0.0
C221 C 0.17029 0.85813 0.52223 0.0
C222 C 0.18525 0.84804 0.53858 0.0
N223 N 0.2221 0.82304 0.56971 0.0
C224 C 0.23787 0.86283 0.56406 0.0
C225 C 0.27406 0.88742 0.57293 0.0
C226 C 0.28196 0.86239 0.58386 0.0
C227 C 0.2502 0.82393 0.58121 0.0
N228 N 0.18032 0.73672 0.58058 0.0
C229 C 0.2132 0.74801 0.59094 0.0
C230 C 0.21004 0.71786 0.60332 0.0
C231 C 0.17286 0.68536 0.60051 0.0
C232 C 0.15533 0.69741 0.58647 0.0
N233 N 0.2045 0.76308 0.54113 0.0
C234 C 0.26588 0.75632 0.52538 0.0
C235 C 0.23207 0.7222 0.53299 0.0
C236 C 0.20162 0.72608 0.54049 0.0
C237 C 0.26588 0.79261 0.52346 0.0
C238 C 0.23475 0.79517 0.53118 0.0
N239 N 0.14259 0.77954 0.58216 0.0
C240 C 0.13607 0.78608 0.61795 0.0
C241 C 0.09573 0.76911 0.61626 0.0
C242 C 0.0799 0.76026 0.59666 0.0
C243 C 0.10381 0.76602 0.57985 0.0
C244 C 0.15865 0.79121 0.60095 0.0
H245 H 0.09045 0.7576 0.56517 0.0
H246 H 0.18882 0.80195 0.60353 0.0
H247 H 0.17721 0.69966 0.54724 0.0
H248 H 0.23691 0.82411 0.5304 0.0
C249 C 0.11315 0.75134 0.52377 0.0
C250 C 0.11589 0.66993 0.57817 0.0
C251 C 0.22171 0.8781 0.54877 0.0
C252 C 0.24459 0.78832 0.5902 0.0
H253 H 0.05254 0.62472 0.55031 0.0
H254 H 0.05243 0.66849 0.51969 0.0
H255 H 0.12301 0.81891 0.50144 0.0
H256 H 0.18071 0.88785 0.5158 0.0
H257 H 0.29333 0.91995 0.57118 0.0
H258 H 0.30789 0.87119 0.59262 0.0
H259 H 0.23183 0.71957 0.61353 0.0
H260 H 0.16021 0.65605 0.60784 0.0
H261 H 0.2298 0.69298 0.53401 0.0
H262 H 0.29086 0.81973 0.51732 0.0
H263 H 0.15023 0.79322 0.6325 0.0
H264 H 0.0491 0.74804 0.59429 0.0
C265 C 0.38514 0.16555 0.96615 0.0
C266 C 0.38161 0.17657 0.98555 0.0
C267 C 0.40662 0.21789 0.98687 0.0
C268 C 0.42408 0.22972 0.96832 0.0
N269 N 0.41134 0.19845 0.95542 0.0
Co270 Co 0.43011 0.20127 0.92756 0.0
N271 N 0.4795 0.25318 0.93309 0.0
C272 C 0.48599 0.2781 0.94878 0.0
C273 C 0.52292 0.3118 0.94894 0.0
C274 C 0.54064 0.30825 0.93215 0.0
C275 C 0.51327 0.27255 0.9225 0.0
N276 N 0.44854 0.2044 0.89956 0.0
C277 C 0.48442 0.2289 0.89134 0.0
C278 C 0.48338 0.22251 0.87074 0.0
C279 C 0.44551 0.19347 0.86598 0.0
C280 C 0.42542 0.1837 0.88386 0.0
N281 N 0.38086 0.14903 0.92269 0.0
C282 C 0.3649 0.13372 0.90464 0.0
C283 C 0.3321 0.0954 0.90621 0.0
C284 C 0.32755 0.08634 0.92649 0.0
C285 C 0.35793 0.11962 0.93618 0.0
N286 N 0.40519 0.23173 0.91865 0.0
C287 C 0.36634 0.26642 0.899 0.0
C288 C 0.34681 0.23412 0.91283 0.0
C289 C 0.36668 0.21748 0.92252 0.0
C290 C 0.40635 0.28202 0.89621 0.0
C291 C 0.42503 0.26463 0.90613 0.0
N292 N 0.45412 0.16989 0.93554 0.0
C293 C 0.45994 0.1118 0.92883 0.0
C294 C 0.47823 0.11608 0.94733 0.0
C295 C 0.48596 0.14931 0.95954 0.0
C296 C 0.47347 0.17584 0.95339 0.0
C297 C 0.44846 0.13881 0.92323 0.0
H298 H 0.4785 0.20042 0.96323 0.0
H299 H 0.43363 0.1334 0.90908 0.0
H300 H 0.35048 0.19206 0.93261 0.0
H301 H 0.45536 0.27687 0.90281 0.0
C302 C 0.4586 0.26646 0.96426 0.0
C303 C 0.36354 0.12393 0.95818 0.0
C304 C 0.51876 0.26126 0.90216 0.0
C305 C 0.3865 0.15192 0.887 0.0
H306 H 0.36376 0.15692 0.99766 0.0
H307 H 0.41338 0.23646 1.00023 0.0
H308 H 0.53573 0.33573 0.96011 0.0
H309 H 0.57003 0.33009 0.92729 0.0
H310 H 0.50731 0.23785 0.86021 0.0
H311 H 0.43422 0.18056 0.85129 0.0
H312 H 0.31491 0.07538 0.89404 0.0
H313 H 0.30487 0.05844 0.93334 0.0
H314 H 0.31619 0.22134 0.91606 0.0
H315 H 0.42317 0.30657 0.8857 0.0
H316 H 0.45408 0.08724 0.91868 0.0
H317 H 0.50033 0.15396 0.97394 0.0
C318 C 0.60256 0.6826 0.4668 0.0
C319 C 0.60702 0.65611 0.47911 0.0
C320 C 0.63003 0.67857 0.49483 0.0
C321 C 0.63805 0.71726 0.49139 0.0
N322 N 0.62152 0.72092 0.47451 0.0
Co323 Co 0.62518 0.77209 0.46482 0.0
N324 N 0.66811 0.8069 0.48431 0.0
C325 C 0.68185 0.79305 0.49875 0.0
C326 C 0.71195 0.82317 0.50971 0.0
C327 C 0.71734 0.85862 0.5021 0.0
C328 C 0.68968 0.84806 0.48705 0.0
N329 N 0.62772 0.82353 0.45618 0.0
C330 C 0.65123 0.86315 0.46223 0.0
C331 C 0.63938 0.88776 0.45361 0.0
C332 C 0.60725 0.86303 0.44211 0.0
C333 C 0.60102 0.82468 0.44435 0.0
N334 N 0.58326 0.73724 0.44506 0.0
C335 C 0.56305 0.74918 0.43393 0.0
C336 C 0.53658 0.7193 0.42127 0.0
C337 C 0.54019 0.68628 0.42467 0.0
C338 C 0.56863 0.69778 0.43933 0.0
N339 N 0.58485 0.76377 0.48461 0.0
C340 C 0.51763 0.75874 0.50075 0.0
C341 C 0.51611 0.72447 0.49244 0.0
C342 C 0.54998 0.72747 0.48478 0.0
C343 C 0.55457 0.79408 0.50302 0.0
C344 C 0.58771 0.79578 0.4951 0.0
N345 N 0.66358 0.77922 0.44375 0.0
C346 C 0.68019 0.792 0.40836 0.0
C347 C 0.6957 0.76676 0.40831 0.0
C348 C 0.69872 0.75173 0.42714 0.0
C349 C 0.68335 0.75905 0.44464 0.0
C350 C 0.66409 0.79732 0.42587 0.0
H351 H 0.68571 0.74624 0.45858 0.0
H352 H 0.65 0.81427 0.4242 0.0
H353 H 0.54704 0.70101 0.47759 0.0
H354 H 0.61505 0.82401 0.49638 0.0
C355 C 0.66578 0.75161 0.50171 0.0
C356 C 0.57913 0.66966 0.44833 0.0
C357 C 0.68196 0.87793 0.47781 0.0
C358 C 0.57204 0.78947 0.43469 0.0
H359 H 0.59516 0.62391 0.47695 0.0
H360 H 0.6409 0.66825 0.50689 0.0
H361 H 0.72769 0.81973 0.522 0.0
H362 H 0.73822 0.88879 0.50758 0.0
H363 H 0.65187 0.92004 0.45591 0.0
H364 H 0.59027 0.87195 0.43329 0.0
H365 H 0.5174 0.72144 0.41059 0.0
H366 H 0.52354 0.65697 0.41737 0.0
H367 H 0.48861 0.6961 0.49057 0.0
H368 H 0.55779 0.8209 0.51019 0.0
H369 H 0.67896 0.80666 0.39473 0.0
H370 H 0.71115 0.73277 0.42838 0.0
C371 C 0.93496 0.58555 0.80921 0.0
C372 C 0.96692 0.59497 0.82122 0.0
C373 C 0.96824 0.62017 0.83604 0.0
C374 C 0.93703 0.62448 0.83238 0.0
N375 N 0.91586 0.60351 0.81622 0.0
Co376 Co 0.8677 0.60084 0.8063 0.0
N377 N 0.87821 0.64905 0.82286 0.0
C378 C 0.90586 0.66694 0.8372 0.0
C379 C 0.90666 0.69908 0.84646 0.0
C380 C 0.87705 0.70133 0.83786 0.0
C381 C 0.85957 0.67012 0.8238 0.0
N382 N 0.81869 0.59758 0.79699 0.0
C383 C 0.80371 0.62146 0.80127 0.0
C384 C 0.76655 0.60494 0.79331 0.0
C385 C 0.75736 0.56905 0.7843 0.0
C386 C 0.78932 0.56559 0.78718 0.0
N387 N 0.85818 0.55339 0.78959 0.0
C388 C 0.82437 0.52678 0.78051 0.0
C389 C 0.82655 0.49774 0.76961 0.0
C390 C 0.8641 0.50654 0.77203 0.0
C391 C 0.88277 0.54045 0.78439 0.0
N392 N 0.83709 0.56312 0.82846 0.0
C393 C 0.7744 0.49675 0.84843 0.0
C394 C 0.80535 0.49385 0.84072 0.0
C395 C 0.83658 0.5275 0.83094 0.0
C396 C 0.77821 0.53499 0.84819 0.0
C397 C 0.81001 0.56779 0.83855 0.0
N398 N 0.89709 0.63659 0.7833 0.0
C399 C 0.90184 0.64426 0.7471 0.0
C400 C 0.94145 0.67419 0.74823 0.0
C401 C 0.95786 0.68692 0.76753 0.0
C402 C 0.93522 0.66768 0.78486 0.0
C403 C 0.88037 0.6263 0.76459 0.0
H404 H 0.94902 0.67683 0.79942 0.0
H405 H 0.85052 0.60243 0.76271 0.0
H406 H 0.85869 0.52357 0.82408 0.0
H407 H 0.8108 0.59596 0.83808 0.0
C408 C 0.93095 0.65319 0.84143 0.0
C409 C 0.92308 0.55827 0.79179 0.0
C410 C 0.82143 0.65719 0.81473 0.0
C411 C 0.79338 0.53357 0.78035 0.0
H412 H 0.98735 0.58492 0.81943 0.0
H413 H 0.99032 0.63499 0.84757 0.0
H414 H 0.92594 0.71807 0.85838 0.0
H415 H 0.86808 0.72223 0.84231 0.0
H416 H 0.74752 0.61688 0.79459 0.0
H417 H 0.73033 0.54772 0.77682 0.0
H418 H 0.80397 0.47386 0.76043 0.0
H419 H 0.87627 0.48987 0.76547 0.0
H420 H 0.80419 0.46514 0.84097 0.0
H421 H 0.7558 0.53917 0.85467 0.0
H422 H 0.88748 0.63396 0.73264 0.0
H423 H 0.98834 0.71023 0.76922 0.0
C424 C 0.23506 0.8674 0.06162 0.0
C425 C 0.21914 0.85559 0.0425 0.0
C426 C 0.20147 0.81403 0.04176 0.0
C427 C 0.20773 0.80283 0.06034 0.0
N428 N 0.22804 0.83475 0.07269 0.0
Co429 Co 0.24526 0.83277 0.10035 0.0
N430 N 0.24101 0.77996 0.09518 0.0
C431 C 0.2196 0.75376 0.08041 0.0
C432 C 0.2196 0.71822 0.0811 0.0
C433 C 0.24202 0.72203 0.09744 0.0
C434 C 0.25478 0.76005 0.10584 0.0
N435 N 0.26198 0.83048 0.12815 0.0
C436 C 0.27452 0.80675 0.13612 0.0
C437 C 0.28328 0.81562 0.15638 0.0
C438 C 0.27474 0.84483 0.16124 0.0
C439 C 0.26158 0.85261 0.14372 0.0
N440 N 0.24966 0.88575 0.10487 0.0
C441 C 0.25042 0.9021 0.12282 0.0
C442 C 0.25668 0.94069 0.12095 0.0
C443 C 0.26021 0.94881 0.10058 0.0
C444 C 0.25603 0.91474 0.09112 0.0
N445 N 0.19041 0.8037 0.11003 0.0
C446 C 0.11691 0.76941 0.12963 0.0
C447 C 0.1296 0.80136 0.11558 0.0
C448 C 0.16613 0.81784 0.10594 0.0
C449 C 0.1416 0.75428 0.13286 0.0
C450 C 0.17765 0.77149 0.12298 0.0
N451 N 0.30023 0.86277 0.09159 0.0
C452 C 0.36515 0.92001 0.09738 0.0
C453 C 0.37802 0.91433 0.07884 0.0
C454 C 0.35129 0.88085 0.06707 0.0
C455 C 0.31239 0.85547 0.0737 0.0
C456 C 0.32672 0.89417 0.10342 0.0
H457 H 0.29197 0.83063 0.06422 0.0
H458 H 0.31832 0.90069 0.11759 0.0
H459 H 0.17525 0.84289 0.0956 0.0
H460 H 0.19587 0.75953 0.12658 0.0
C461 C 0.20364 0.76539 0.06498 0.0
C462 C 0.25617 0.9094 0.06913 0.0
C463 C 0.27543 0.77367 0.12526 0.0
C464 C 0.25483 0.88465 0.14049 0.0
H465 H 0.22068 0.87481 0.03022 0.0
H466 H 0.18807 0.79473 0.02876 0.0
H467 H 0.20533 0.69271 0.07085 0.0
H468 H 0.24712 0.69872 0.10287 0.0
H469 H 0.29442 0.80231 0.16666 0.0
H470 H 0.27895 0.8596 0.17566 0.0
H471 H 0.26076 0.9615 0.13297 0.0
H472 H 0.2657 0.97664 0.09351 0.0
H473 H 0.11163 0.81386 0.11209 0.0
H474 H 0.13401 0.73015 0.14361 0.0
H475 H 0.38474 0.94462 0.10729 0.0
H476 H 0.36 0.87502 0.05267 0.0
C477 C 0.43979 0.35186 0.46648 0.0
C478 C 0.43461 0.37815 0.47853 0.0
C479 C 0.41181 0.35574 0.49432 0.0
C480 C 0.40457 0.31727 0.49116 0.0
N481 N 0.42127 0.31368 0.47437 0.0
Co482 Co 0.41848 0.26283 0.46504 0.0
N483 N 0.37472 0.22762 0.48407 0.0
C484 C 0.36199 0.24153 0.49897 0.0
C485 C 0.33304 0.21155 0.51048 0.0
C486 C 0.32729 0.1761 0.50275 0.0
C487 C 0.3532 0.18639 0.48681 0.0
N488 N 0.41627 0.21167 0.4564 0.0
C489 C 0.39208 0.17184 0.46195 0.0
C490 C 0.40387 0.14727 0.45326 0.0
C491 C 0.4371 0.17235 0.44258 0.0
C492 C 0.44377 0.2108 0.44517 0.0
N493 N 0.46168 0.2982 0.44599 0.0
C494 C 0.48337 0.28687 0.43579 0.0
C495 C 0.51077 0.31712 0.42361 0.0
C496 C 0.50626 0.34973 0.42638 0.0
C497 C 0.47636 0.33764 0.4402 0.0
N498 N 0.45774 0.27072 0.48544 0.0
C499 C 0.52445 0.27499 0.50178 0.0
C500 C 0.52619 0.30975 0.49395 0.0
C501 C 0.4925 0.3071 0.48618 0.0
C502 C 0.48747 0.23957 0.50365 0.0
C503 C 0.45456 0.23824 0.49563 0.0
N504 N 0.38129 0.25608 0.44352 0.0
C505 C 0.37053 0.25136 0.40754 0.0
C506 C 0.34805 0.26929 0.40898 0.0
C507 C 0.33945 0.27695 0.42841 0.0
C508 C 0.35628 0.27004 0.44549 0.0
C509 C 0.3864 0.24478 0.42478 0.0
H510 H 0.35079 0.27819 0.4601 0.0
H511 H 0.40524 0.23323 0.42248 0.0
H512 H 0.49554 0.33386 0.47923 0.0
H513 H 0.42725 0.20987 0.49647 0.0
C514 C 0.37777 0.28296 0.50182 0.0
C515 C 0.4644 0.36515 0.44841 0.0
C516 C 0.36022 0.15646 0.47696 0.0
C517 C 0.47417 0.24647 0.43644 0.0
H518 H 0.44617 0.41027 0.47625 0.0
H519 H 0.40078 0.36598 0.50632 0.0
H520 H 0.31849 0.21508 0.52331 0.0
H521 H 0.30759 0.1463 0.50897 0.0
H522 H 0.39054 0.11474 0.455 0.0
H523 H 0.45447 0.16357 0.43404 0.0
H524 H 0.53102 0.31541 0.41355 0.0
H525 H 0.52322 0.37913 0.41917 0.0
H526 H 0.55376 0.3382 0.49247 0.0
H527 H 0.48407 0.21236 0.51046 0.0
H528 H 0.37717 0.2438 0.39299 0.0
H529 H 0.32169 0.29028 0.43035 0.0
C530 C 0.11089 0.44902 0.81078 0.0
C531 C 0.08026 0.44183 0.82331 0.0
C532 C 0.07976 0.41821 0.83879 0.0
C533 C 0.11011 0.41257 0.83495 0.0
N534 N 0.12998 0.43125 0.81808 0.0
Co535 Co 0.17673 0.43159 0.80769 0.0
N536 N 0.16666 0.38494 0.82544 0.0
C537 C 0.14004 0.36902 0.84034 0.0
C538 C 0.13932 0.33756 0.85035 0.0
C539 C 0.16791 0.33369 0.84161 0.0
C540 C 0.18475 0.36334 0.82674 0.0
N541 N 0.22468 0.43293 0.79811 0.0
C542 C 0.23937 0.40899 0.80286 0.0
C543 C 0.27586 0.42405 0.79431 0.0
C544 C 0.28493 0.45908 0.78439 0.0
C545 C 0.25358 0.46354 0.78736 0.0
N546 N 0.18562 0.47723 0.78971 0.0
C547 C 0.21864 0.50207 0.77957 0.0
C548 C 0.21595 0.52989 0.76784 0.0
C549 C 0.17886 0.52211 0.77079 0.0
C550 C 0.16097 0.49 0.78427 0.0
N551 N 0.20927 0.47135 0.82873 0.0
C552 C 0.27245 0.53839 0.84802 0.0
C553 C 0.24175 0.54131 0.83995 0.0
C554 C 0.21032 0.50737 0.83049 0.0
C555 C 0.26841 0.50004 0.84831 0.0
C556 C 0.23639 0.46695 0.83898 0.0
N557 N 0.14518 0.39364 0.78574 0.0
C558 C 0.13919 0.37972 0.74994 0.0
C559 C 0.0987 0.35443 0.75145 0.0
C560 C 0.08214 0.34728 0.77078 0.0
C561 C 0.10594 0.36648 0.78774 0.0
C562 C 0.16161 0.39913 0.76703 0.0
H563 H 0.0922 0.36061 0.80229 0.0
H564 H 0.19207 0.42039 0.76465 0.0
H565 H 0.18833 0.51123 0.8234 0.0
H566 H 0.23534 0.43863 0.83899 0.0
C567 C 0.11607 0.38418 0.84453 0.0
C568 C 0.12142 0.47375 0.79246 0.0
C569 C 0.22204 0.37458 0.81715 0.0
C570 C 0.24929 0.49477 0.77951 0.0
H571 H 0.0601 0.45221 0.82142 0.0
H572 H 0.05863 0.40511 0.85085 0.0
H573 H 0.12085 0.32014 0.86285 0.0
H574 H 0.17674 0.31289 0.84648 0.0
H575 H 0.29453 0.41169 0.79572 0.0
H576 H 0.31142 0.47914 0.77616 0.0
H577 H 0.23786 0.5523 0.75781 0.0
H578 H 0.16646 0.53824 0.76383 0.0
H579 H 0.2432 0.57017 0.83976 0.0
H580 H 0.29071 0.49596 0.85502 0.0
H581 H 0.15341 0.38645 0.7354 0.0
H582 H 0.05097 0.32745 0.77276 0.0
C583 C 0.81072 0.1661 0.06047 0.0
C584 C 0.82563 0.17782 0.04117 0.0
C585 C 0.84148 0.21909 0.04009 0.0
C586 C 0.83524 0.23022 0.05868 0.0
N587 N 0.81676 0.19855 0.07138 0.0
Co588 Co 0.79997 0.20028 0.09919 0.0
N589 N 0.80182 0.25194 0.0939 0.0
C590 C 0.82032 0.27736 0.07837 0.0
C591 C 0.8165 0.3107 0.07834 0.0
C592 C 0.79479 0.30639 0.09506 0.0
C593 C 0.78683 0.27065 0.10454 0.0
N594 N 0.78382 0.20231 0.12715 0.0
C595 C 0.77191 0.22626 0.13547 0.0
C596 C 0.76611 0.21921 0.15602 0.0
C597 C 0.7752 0.19032 0.16065 0.0
C598 C 0.78612 0.18129 0.14276 0.0
N599 N 0.79762 0.14829 0.10382 0.0
C600 C 0.79801 0.13254 0.12178 0.0
C601 C 0.79298 0.09446 0.12001 0.0
C602 C 0.78903 0.086 0.09968 0.0
C603 C 0.79177 0.11938 0.09016 0.0
N604 N 0.85514 0.2312 0.10844 0.0
C605 C 0.92839 0.26658 0.12835 0.0
C606 C 0.91654 0.23492 0.11426 0.0
C607 C 0.88006 0.2178 0.10449 0.0
C608 C 0.90342 0.28145 0.13118 0.0
C609 C 0.86747 0.26371 0.12113 0.0
N610 N 0.74477 0.1685 0.09087 0.0
C611 C 0.68059 0.11038 0.09721 0.0
C612 C 0.66677 0.11535 0.07877 0.0
C613 C 0.69273 0.14879 0.06675 0.0
C614 C 0.73169 0.17496 0.07305 0.0
C615 C 0.71915 0.13699 0.10293 0.0
H616 H 0.75139 0.19983 0.06338 0.0
H617 H 0.72835 0.13114 0.11705 0.0
H618 H 0.87134 0.19261 0.09432 0.0
H619 H 0.84901 0.27552 0.12438 0.0
C620 C 0.83676 0.26654 0.0629 0.0
C621 C 0.79092 0.12428 0.06818 0.0
C622 C 0.76988 0.25878 0.12484 0.0
C623 C 0.79384 0.14998 0.13949 0.0
H624 H 0.82434 0.15866 0.02894 0.0
H625 H 0.85337 0.23807 0.02685 0.0
H626 H 0.82755 0.33489 0.0673 0.0
H627 H 0.78675 0.32779 0.09999 0.0
H628 H 0.75707 0.23404 0.1666 0.0
H629 H 0.77341 0.17705 0.17527 0.0
H630 H 0.79007 0.07417 0.13208 0.0
H631 H 0.78429 0.05843 0.09267 0.0
H632 H 0.93458 0.22224 0.11133 0.0
H633 H 0.91131 0.30654 0.14134 0.0
H634 H 0.66166 0.08585 0.10733 0.0
H635 H 0.68336 0.1541 0.0524 0.0
H636 H 0.32885 0.75497 0.11267 0.0
H637 H 0.24496 0.72818 0.15971 0.0
H638 H 0.33829 0.70069 0.12524 0.0
H639 H 0.256 0.67553 0.17291 0.0
H640 H 0.32174 0.61162 0.19848 0.0
H641 H 0.31918 0.67087 0.18713 0.0
H642 H 0.2832 0.61731 0.12818 0.0
H643 H 0.28443 0.55734 0.13973 0.0
C644 C 0.31344 0.7384 0.12609 0.0
C645 C 0.28683 0.74655 0.13545 0.0
C646 C 0.31859 0.70716 0.13317 0.0
C647 C 0.29792 0.68393 0.15007 0.0
C648 C 0.27261 0.69321 0.15998 0.0
C649 C 0.26665 0.72371 0.15257 0.0
C650 C 0.31365 0.6127 0.18304 0.0
C651 C 0.30348 0.57991 0.16996 0.0
C652 C 0.312 0.64649 0.1766 0.0
C653 C 0.30114 0.64878 0.15676 0.0
C654 C 0.29194 0.61649 0.14351 0.0
C655 C 0.29256 0.58218 0.15012 0.0
H656 H 0.76704 0.33697 0.51048 0.0
H657 H 0.69969 0.21296 0.53177 0.0
H658 H 0.70694 0.33704 0.50525 0.0
H659 H 0.63989 0.21301 0.52645 0.0
H660 H 0.53844 0.21342 0.49526 0.0
H661 H 0.59834 0.2136 0.50062 0.0
H662 H 0.65408 0.33637 0.52341 0.0
H663 H 0.59385 0.33618 0.51815 0.0
C664 C 0.73952 0.30971 0.51408 0.0
C665 C 0.73852 0.27488 0.52146 0.0
C666 C 0.70495 0.30979 0.51112 0.0
C667 C 0.66834 0.27505 0.51544 0.0
C668 C 0.66736 0.24016 0.52263 0.0
C669 C 0.70184 0.24009 0.52562 0.0
C670 C 0.56314 0.24028 0.50178 0.0
C671 C 0.56089 0.2747 0.50638 0.0
C672 C 0.59772 0.24042 0.50478 0.0
C673 C 0.63131 0.27501 0.51244 0.0
C674 C 0.62908 0.30938 0.51718 0.0
C675 C 0.5944 0.30922 0.51421 0.0
H676 H 0.51259 0.70084 0.88613 0.0
H677 H 0.46309 0.77584 0.89308 0.0
H678 H 0.45107 0.64591 0.87285 0.0
H679 H 0.40146 0.72167 0.87862 0.0
H680 H 0.28365 0.5999 0.87366 0.0
H681 H 0.34566 0.65839 0.88496 0.0
H682 H 0.40749 0.61951 0.84694 0.0
H683 H 0.34586 0.56043 0.83673 0.0
C684 C 0.4886 0.70581 0.88424 0.0
C685 C 0.49254 0.74252 0.89054 0.0
C686 C 0.45317 0.67433 0.87654 0.0
C687 C 0.42066 0.67883 0.87453 0.0
C688 C 0.42529 0.71645 0.8802 0.0
C689 C 0.46077 0.74783 0.88822 0.0
C690 C 0.31061 0.60401 0.8678 0.0
C691 C 0.30984 0.57517 0.85456 0.0
C692 C 0.34631 0.63777 0.87414 0.0
C693 C 0.38218 0.64399 0.8671 0.0
C694 C 0.38096 0.61558 0.85329 0.0
C695 C 0.34546 0.5816 0.8473 0.0
H696 H 0.69873 0.43154 0.15422 0.0
H697 H 0.80084 0.47074 0.19083 0.0
H698 H 0.70202 0.37307 0.14271 0.0
H699 H 0.80318 0.41164 0.18042 0.0
H700 H 0.82628 0.33031 0.14082 0.0
H701 H 0.81996 0.38514 0.15445 0.0
H702 H 0.69453 0.30977 0.14871 0.0
H703 H 0.70175 0.25575 0.13389 0.0
C704 C 0.72162 0.42737 0.15997 0.0
C705 C 0.74987 0.45615 0.17318 0.0
C706 C 0.72343 0.39361 0.15351 0.0
C707 C 0.75314 0.38729 0.1604 0.0
C708 C 0.78051 0.41563 0.17418 0.0
C709 C 0.77911 0.44962 0.18029 0.0
C710 C 0.79737 0.32538 0.14282 0.0
C711 C 0.76451 0.2888 0.13643 0.0
C712 C 0.79357 0.35681 0.15072 0.0
C713 C 0.75662 0.35243 0.15281 0.0
C714 C 0.72355 0.31493 0.14706 0.0
C715 C 0.7275 0.2836 0.13885 0.0
H716 H 0.44815 0.69602 0.51612 0.0
H717 H 0.50327 0.82062 0.49586 0.0
H718 H 0.38725 0.69423 0.52104 0.0
H719 H 0.44306 0.8195 0.50182 0.0
H720 H 0.31897 0.7929 0.49445 0.0
H721 H 0.37911 0.79316 0.48889 0.0
H722 H 0.35504 0.71792 0.54158 0.0
H723 H 0.29491 0.71729 0.54695 0.0
C724 C 0.44748 0.72316 0.51282 0.0
C725 C 0.48099 0.75846 0.50557 0.0
C726 C 0.41249 0.72228 0.51585 0.0
C727 C 0.40986 0.75668 0.51178 0.0
C728 C 0.44354 0.79215 0.50484 0.0
C729 C 0.47847 0.79301 0.50175 0.0
C730 C 0.32648 0.77638 0.50484 0.0
C731 C 0.30175 0.75487 0.52108 0.0
C732 C 0.36117 0.77665 0.50171 0.0
C733 C 0.37231 0.75564 0.5148 0.0
C734 C 0.34735 0.7339 0.53094 0.0
C735 C 0.31265 0.73348 0.53401 0.0
H736 H 0.58441 0.25891 0.89367 0.0
H737 H 0.53387 0.33283 0.88617 0.0
H738 H 0.64594 0.31341 0.87929 0.0
H739 H 0.59528 0.38812 0.87296 0.0
H740 H 0.70084 0.47437 0.8371 0.0
H741 H 0.63931 0.41516 0.8473 0.0
H742 H 0.70137 0.37683 0.88559 0.0
H743 H 0.76329 0.43548 0.87434 0.0
C744 C 0.58645 0.28673 0.88867 0.0
C745 C 0.55439 0.29159 0.89079 0.0
C746 C 0.62189 0.31833 0.88072 0.0
C747 C 0.62624 0.35579 0.87493 0.0
C748 C 0.59344 0.35985 0.87673 0.0
C749 C 0.55804 0.32814 0.88438 0.0
C750 C 0.70133 0.45333 0.84775 0.0
C751 C 0.73702 0.45999 0.85509 0.0
C752 C 0.66586 0.41924 0.85373 0.0
C753 C 0.66471 0.39089 0.86759 0.0
C754 C 0.70064 0.39737 0.87473 0.0
C755 C 0.7363 0.43124 0.86841 0.0
H756 H 0.63716 0.60448 0.25208 0.0
H757 H 0.59804 0.48236 0.23282 0.0
H758 H 0.56936 0.5861 0.25654 0.0
H759 H 0.5302 0.4637 0.23708 0.0
H760 H 0.44708 0.55198 0.23104 0.0
H761 H 0.51518 0.57132 0.23494 0.0
H762 H 0.47743 0.45216 0.25898 0.0
H763 H 0.40936 0.43308 0.25486 0.0
C764 C 0.61397 0.57333 0.24938 0.0
C765 C 0.62299 0.54466 0.24251 0.0
C766 C 0.57504 0.56287 0.25165 0.0
C767 C 0.54388 0.52337 0.24708 0.0
C768 C 0.55312 0.49423 0.24106 0.0
C769 C 0.5921 0.5048 0.2387 0.0
C770 C 0.45344 0.53051 0.23783 0.0
C771 C 0.42284 0.49129 0.24301 0.0
C772 C 0.49256 0.54144 0.23998 0.0
C773 C 0.50223 0.5133 0.24719 0.0
C774 C 0.47141 0.47458 0.25316 0.0
C775 C 0.43233 0.46377 0.25108 0.0
H776 H 0.13011 0.60794 0.5735 0.0
H777 H 0.04331 0.632 0.59531 0.0
H778 H 0.08391 0.53475 0.57704 0.0
H779 H 0.99687 0.55881 0.59911 0.0
H780 H 0.91157 0.42719 0.5748 0.0
H781 H 0.95787 0.50042 0.57826 0.0
H782 H 0.04629 0.47643 0.59811 0.0
H783 H 0.99978 0.40327 0.59439 0.0
C784 C 0.10152 0.59758 0.57972 0.0
C785 C 0.0907 0.62593 0.58447 0.0
C786 C 0.07477 0.55544 0.58168 0.0
C787 C 0.03616 0.54023 0.58829 0.0
C788 C 0.02594 0.5689 0.59373 0.0
C789 C 0.05277 0.61101 0.59183 0.0
C790 C 0.94052 0.43759 0.58052 0.0
C791 C 0.95171 0.40929 0.58466 0.0
C792 C 0.96732 0.47973 0.58243 0.0
C793 C 1.00632 0.49497 0.58837 0.0
C794 C 1.0169 0.46633 0.59324 0.0
C795 C 0.99005 0.42423 0.5914 0.0
H796 H 0.54813 0.12761 0.96122 0.0
H797 H 0.43022 0.03382 0.94661 0.0
H798 H 0.56589 0.07569 0.96456 0.0
H799 H 0.44762 0.98228 0.95004 0.0
H800 H 0.50832 0.91819 0.92421 0.0
H801 H 0.48684 0.96626 0.92849 0.0
H802 H 0.55695 1.01307 0.98225 0.0
H803 H 0.57858 0.96431 0.97781 0.0
C804 C 0.52582 0.09588 0.95922 0.0
C805 C 0.48794 0.08493 0.95332 0.0
C806 C 0.53595 0.06608 0.96112 0.0
C807 C 0.50837 0.02476 0.95718 0.0
C808 C 0.46988 1.0138 0.95271 0.0
C809 C 0.45985 0.04338 0.9508 0.0
C810 C 0.5186 0.93822 0.93716 0.0
C811 C 0.54487 0.93724 0.95075 0.0
C812 C 0.50622 0.96579 0.93967 0.0
C813 C 0.52004 0.99366 0.95576 0.0
C814 C 0.54584 0.99221 0.96965 0.0
C815 C 0.55789 0.96404 0.96725 0.0
H816 H 0.61472 0.63189 0.43223 0.0
H817 H 0.50253 0.60774 0.45177 0.0
H818 H 0.58819 0.55874 0.42853 0.0
H819 H 0.47573 0.53454 0.44832 0.0
H820 H 0.42979 0.40305 0.43117 0.0
H821 H 0.45647 0.47623 0.42738 0.0
H822 H 0.56753 0.5004 0.44967 0.0
H823 H 0.5406 0.42721 0.45321 0.0
C824 C 0.58405 0.61088 0.43521 0.0
C825 C 0.5606 0.62576 0.44194 0.0
C826 C 0.56887 0.56879 0.43339 0.0
C827 C 0.52967 0.5401 0.43824 0.0
C828 C 0.50585 0.55527 0.44416 0.0
C829 C 0.52113 0.5974 0.44606 0.0
C830 C 0.46022 0.42406 0.43469 0.0
C831 C 0.48324 0.40917 0.44213 0.0
C832 C 0.47547 0.46617 0.43281 0.0
C833 C 0.51431 0.49486 0.43831 0.0
C834 C 0.53772 0.47968 0.44498 0.0
C835 C 0.52237 0.43755 0.44695 0.0
H836 H 0.99403 0.60102 0.77339 0.0
H837 H 0.91258 0.4826 0.79762 0.0
H838 H 0.04281 0.58158 0.76952 0.0
H839 H 0.96109 0.46286 0.79387 0.0
H840 H 0.13264 0.55021 0.79567 0.0
H841 H 0.08383 0.5695 0.79169 0.0
H842 H 0.99991 0.44771 0.77172 0.0
H843 H 0.04899 0.42872 0.77582 0.0
C844 C 0.98623 0.57038 0.77734 0.0
C845 C 0.94916 0.54308 0.78541 0.0
C846 C 1.01435 0.55935 0.77539 0.0
C847 C 1.00624 0.52061 0.78145 0.0
C848 C 0.96846 0.49274 0.78874 0.0
C849 C 0.94043 0.50391 0.79081 0.0
C850 C 0.10419 0.52805 0.78974 0.0
C851 C 0.09494 0.48818 0.78567 0.0
C852 C 0.07599 0.53897 0.78755 0.0
C853 C 0.03756 0.51018 0.78146 0.0
C854 C 0.0289 0.47067 0.77666 0.0
C855 C 0.05717 0.45987 0.77874 0.0
H856 H 0.41771 0.99721 0.08109 0.0
H857 H 0.4319 0.89847 0.06249 0.0
H858 H 0.48714 0.04497 0.07682 0.0
H859 H 0.50175 0.94673 0.0574 0.0
H860 H 0.62677 0.03247 0.08255 0.0
H861 H 0.5574 0.98448 0.07819 0.0
H862 H 0.54314 0.08154 0.05625 0.0
H863 H 0.6128 0.13008 0.06147 0.0
C864 C 0.43565 0.98576 0.07575 0.0
C865 C 0.41921 0.94379 0.07249 0.0
C866 C 0.47563 1.01336 0.07307 0.0
C867 C 0.50061 0.99998 0.06696 0.0
C868 C 0.48373 0.95824 0.0625 0.0
C869 C 0.44354 0.93052 0.06519 0.0
C870 C 0.60891 0.04366 0.0767 0.0
C871 C 0.62543 0.08544 0.07275 0.0
C872 C 0.56898 1.01588 0.07395 0.0
C873 C 0.54411 0.02886 0.06705 0.0
C874 C 0.56105 0.07034 0.06195 0.0
C875 C 0.60117 0.09823 0.06473 0.0
H876 H 0.24307 0.34185 0.31361 0.0
H877 H 0.33304 0.33182 0.2837 0.0
H878 H 0.25872 0.32194 0.34514 0.0
H879 H 0.34648 0.30855 0.3149 0.0
H880 H 0.3941 0.31096 0.37695 0.0
H881 H 0.37649 0.32972 0.3456 0.0
H882 H 0.25734 0.27356 0.36623 0.0
H883 H 0.2759 0.25644 0.39815 0.0
C884 C 0.26612 0.33523 0.31361 0.0
C885 C 0.28709 0.33933 0.29581 0.0
C886 C 0.27475 0.32304 0.33185 0.0
C887 C 0.30434 0.31383 0.33302 0.0
C888 C 0.32418 0.31626 0.31503 0.0
C889 C 0.31589 0.32898 0.29683 0.0
C890 C 0.36408 0.30256 0.3748 0.0
C891 C 0.3364 0.28189 0.39011 0.0
C892 C 0.35377 0.31306 0.35662 0.0
C893 C 0.31516 0.30284 0.35286 0.0
C894 C 0.28749 0.28255 0.36837 0.0
C895 C 0.29803 0.27253 0.38677 0.0
H896 H 0.02369 0.29055 0.62551 0.0
H897 H 0.92154 0.27359 0.65628 0.0
H898 H 0.0594 0.31087 0.65712 0.0
H899 H 0.95568 0.28962 0.68786 0.0
H900 H 0.03443 0.35745 0.74072 0.0
H901 H 0.99931 0.33795 0.7089 0.0
H902 H 0.07254 0.29392 0.68789 0.0
H903 H 0.10891 0.31585 0.71941 0.0
C904 C 1.00851 0.29073 0.63891 0.0
C905 C 0.96914 0.27977 0.6379 0.0
C906 C 0.02902 0.30186 0.65732 0.0
C907 C 1.01084 0.302 0.6755 0.0
C908 C 0.97146 0.2908 0.67444 0.0
C909 C 0.95129 0.28048 0.65607 0.0
C910 C 0.04268 0.34315 0.72937 0.0
C911 C 0.07441 0.33808 0.73273 0.0
C912 C 0.0224 0.33174 0.71097 0.0
C913 C 0.0326 0.31403 0.69538 0.0
C914 C 0.06392 0.30814 0.69906 0.0
C915 C 0.08468 0.32033 0.71732 0.0
H916 H 0.7515 0.93751 0.97846 0.0
H917 H 0.65935 0.96128 0.96873 0.0
H918 H 0.77643 0.98596 1.00626 0.0
H919 H 0.68515 1.01166 0.99585 0.0
H920 H 0.71518 0.07109 0.05759 0.0
H921 H 0.69062 0.02071 0.03047 0.0
H922 H 0.80856 0.05177 0.01774 0.0
H923 H 0.83217 0.10019 0.04555 0.0
C924 C 0.73725 0.95409 0.98198 0.0
C925 C 0.70366 0.94582 0.97136 0.0
C926 C 0.75151 0.98204 0.99798 0.0
C927 C 0.73288 1.00304 1.00373 0.0
C928 C 0.70002 0.99572 0.99241 0.0
C929 C 0.68552 0.96734 0.97655 0.0
C930 C 0.73557 0.06625 0.04924 0.0
C931 C 0.77552 0.08932 0.05376 0.0
C932 C 0.72166 0.03786 0.03339 0.0
C933 C 0.74743 0.03203 0.02142 0.0
C934 C 0.78741 0.05454 0.02652 0.0
C935 C 0.80114 0.0825 0.04251 0.0
H936 H 0.75091 0.74511 0.40094 0.0
H937 H 0.66458 0.76069 0.37041 0.0
H938 H 0.76594 0.72453 0.36934 0.0
H939 H 0.68228 0.74433 0.33881 0.0
H940 H 0.69273 0.67563 0.28619 0.0
H941 H 0.67751 0.69564 0.31796 0.0
H942 H 0.79547 0.7414 0.33842 0.0
H943 H 0.80954 0.719 0.30697 0.0
C944 C 0.73522 0.74457 0.38759 0.0
C945 C 0.70661 0.75522 0.38866 0.0
C946 C 0.74438 0.73328 0.36919 0.0
C947 C 0.72562 0.73266 0.35106 0.0
C948 C 0.69722 0.74355 0.35218 0.0
C949 C 0.6876 0.75404 0.37055 0.0
C950 C 0.71551 0.69042 0.2974 0.0
C951 C 0.75241 0.69584 0.29392 0.0
C952 C 0.70688 0.70212 0.31577 0.0
C953 C 0.73511 0.72044 0.3312 0.0
C954 C 0.77241 0.7267 0.32738 0.0
C955 C 0.78075 0.71425 0.30915 0.0
H956 H 0.11428 0.80939 0.65285 0.0
H957 H 1.02047 0.70463 0.62272 0.0
H958 H 0.07851 0.78736 0.68426 0.0
H959 H 0.98319 0.68427 0.65383 0.0
H960 H 0.94195 0.63029 0.7161 0.0
H961 H 0.97752 0.65444 0.68462 0.0
H962 H 0.02894 0.77855 0.70515 0.0
H963 H 0.99427 0.75374 0.73714 0.0
C964 C 0.08585 0.78173 0.65278 0.0
C965 C 0.07089 0.75862 0.63499 0.0
C966 C 0.06486 0.7693 0.67094 0.0
C967 C 0.02773 0.73352 0.67203 0.0
C968 C 1.01199 0.71141 0.65401 0.0
C969 C 0.03322 0.7236 0.63588 0.0
C970 C 0.96085 0.66279 0.7139 0.0
C971 C 0.96501 0.69002 0.72922 0.0
C972 C 0.98117 0.67682 0.69565 0.0
C973 C 1.00614 0.71875 0.69184 0.0
C974 C 1.01056 0.74604 0.70733 0.0
C975 C 0.99055 0.73186 0.72578 0.0
H976 H 0.33186 0.96119 0.05793 0.0
H977 H 0.21538 0.93466 0.04684 0.0
H978 H 0.35653 1.01164 0.0308 0.0
H979 H 0.23906 0.98319 0.01904 0.0
H980 H 0.29711 0.09814 0.98014 0.0
H981 H 0.27205 0.04925 1.00778 0.0
H982 H 0.36123 0.02103 0.99613 0.0
H983 H 0.38718 0.07179 0.96914 0.0
C984 C 0.31161 0.96658 0.04978 0.0
C985 C 0.27176 0.94421 0.05457 0.0
C986 C 0.32557 0.99503 0.03392 0.0
C987 C 0.29996 1.00165 0.02225 0.0
C988 C 0.2601 0.9798 0.0276 0.0
C989 C 0.24632 0.95177 0.04358 0.0
C990 C 0.31086 0.08091 0.98335 0.0
C991 C 0.34395 0.08861 0.97243 0.0
C992 C 0.29652 0.05272 0.99926 0.0
C993 C 0.31455 0.03087 1.00462 0.0
C994 C 0.34685 0.03762 0.993 0.0
C995 C 0.36144 0.06623 0.97722 0.0
H996 H 0.94171 0.29149 0.16804 0.0
H997 H 1.00027 0.28005 0.11638 0.0
H998 H 1.0019 0.32027 0.18743 0.0
H999 H 0.0603 0.30782 0.13599 0.0
H1000 H 0.17266 0.39661 0.16955 0.0
H1001 H 0.11189 0.36968 0.15069 0.0
H1002 H 0.04682 0.30539 0.20374 0.0
H1003 H 0.10813 0.3329 0.2226 0.0
C1004 C 0.96741 0.29519 0.1607 0.0
C1005 C 0.96571 0.28351 0.14041 0.0
C1006 C 1.00205 0.31136 0.172 0.0
C1007 C 0.0365 0.31674 0.16344 0.0
C1008 C 0.03477 0.30483 0.14318 0.0
C1009 C 1.00001 0.28837 0.13191 0.0
C1010 C 0.14533 0.37705 0.17724 0.0
C1011 C 0.14535 0.36705 0.19764 0.0
C1012 C 0.11034 0.36117 0.16635 0.0
C1013 C 0.07396 0.33479 0.17547 0.0
C1014 C 0.07398 0.32573 0.1961 0.0
C1015 C 0.10916 0.34151 0.20699 0.0
H1016 H 0.79569 0.08057 0.56468 0.0
H1017 H 0.79175 0.13934 0.51041 0.0
H1018 H 0.76075 1.01441 0.54759 0.0
H1019 H 0.75675 0.07354 0.49323 0.0
H1020 H 0.73251 0.95445 0.46194 0.0
H1021 H 0.76375 0.02062 0.47902 0.0
H1022 H 0.70079 0.9615 0.53339 0.0
H1023 H 0.66996 0.89569 0.51622 0.0
C1024 C 0.7869 0.07931 0.54916 0.0
C1025 C 0.79667 0.11551 0.539 0.0
C1026 C 0.76673 0.04122 0.53926 0.0
C1027 C 0.75575 0.03792 0.51877 0.0
C1028 C 0.76501 0.07428 0.5088 0.0
C1029 C 0.78491 0.11222 0.51873 0.0
C1030 C 0.72502 0.95572 0.47746 0.0
C1031 C 0.69864 0.91952 0.48762 0.0
C1032 C 0.74296 0.99381 0.48735 0.0
C1033 C 0.73533 0.99712 0.50784 0.0
C1034 C 0.70827 0.96076 0.51781 0.0
C1035 C 0.69021 0.92281 0.50789 0.0
H1036 H 0.82551 0.73037 0.8101 0.0
H1037 H 0.76288 0.61703 0.84236 0.0
H1038 H 0.79154 0.75679 0.82946 0.0
H1039 H 0.72975 0.64335 0.86221 0.0
H1040 H 0.65264 0.68908 0.88516 0.0
H1041 H 0.68342 0.66237 0.86402 0.0
H1042 H 0.78779 0.78166 0.86128 0.0
H1043 H 0.7561 0.8089 0.88158 0.0
C1044 C 0.80404 0.71091 0.82117 0.0
C1045 C 0.79667 0.67145 0.82452 0.0
C1046 C 0.78488 0.72623 0.83256 0.0
C1047 C 0.75778 0.7026 0.84774 0.0
C1048 C 0.74983 0.66263 0.85062 0.0
C1049 C 0.76891 0.64736 0.8392 0.0
C1050 C 0.68202 0.70994 0.87994 0.0
C1051 C 0.70148 0.75151 0.88521 0.0
C1052 C 0.70004 0.69433 0.8679 0.0
C1053 C 0.73841 0.71956 0.86066 0.0
C1054 C 0.75808 0.76106 0.86614 0.0
C1055 C 0.73999 0.77671 0.87817 0.0
H1056 H 0.93052 0.73316 0.21365 0.0
H1057 H 0.88287 0.61768 0.1838 0.0
H1058 H 0.99144 0.7596 0.19475 0.0
H1059 H 0.94282 0.64395 0.16436 0.0
H1060 H 0.06653 0.69053 0.14276 0.0
H1061 H 1.0084 0.66426 0.16335 0.0
H1062 H 1.02102 0.78262 0.16304 0.0
H1063 H 0.08066 0.80955 0.14335 0.0
C1064 C 0.93332 0.71328 0.20319 0.0
C1065 C 0.902 0.67317 0.20043 0.0
C1066 C 0.9681 0.72857 0.19207 0.0
C1067 C 0.97261 0.70427 0.17771 0.0
C1068 C 0.94126 0.66376 0.17535 0.0
C1069 C 0.90663 0.64851 0.18653 0.0
C1070 C 0.05738 0.71131 0.14721 0.0
C1071 C 0.07909 0.75254 0.14127 0.0
C1072 C 0.02337 0.69593 0.15892 0.0
C1073 C 1.00937 0.72102 0.16513 0.0
C1074 C 0.03077 0.76216 0.15899 0.0
C1075 C 0.06494 0.7776 0.14731 0.0
H1076 H 0.20426 0.93847 0.54805 0.0
H1077 H 0.29254 0.91437 0.52888 0.0
H1078 H 0.23789 1.00374 0.53016 0.0
H1079 H 0.32683 0.98009 0.51126 0.0
H1080 H 0.39514 0.12133 0.49757 0.0
H1081 H 0.36408 0.05571 0.51528 0.0
H1082 H 0.25137 0.03007 0.49526 0.0
H1083 H 0.28266 0.09525 0.47728 0.0
C1084 C 0.23125 0.94741 0.54028 0.0
C1085 C 0.24564 0.92098 0.5401 0.0
C1086 C 0.25044 0.9848 0.52979 0.0
C1087 C 0.28519 0.99761 0.51894 0.0
C1088 C 0.30038 0.97179 0.51942 0.0
C1089 C 0.28078 0.93402 0.52965 0.0
C1090 C 0.36379 0.10129 0.49659 0.0
C1091 C 0.34154 0.11374 0.48581 0.0
C1092 C 0.34585 0.06358 0.50687 0.0
C1093 C 0.3049 0.03721 0.50704 0.0
C1094 C 0.28282 0.04945 0.49587 0.0
C1095 C 0.30081 0.08678 0.48534 0.0
H1096 H 0.21649 0.30051 0.8136 0.0
H1097 H 0.28233 0.41595 0.84373 0.0
H1098 H 0.25142 0.27488 0.83276 0.0
H1099 H 0.31642 0.39044 0.86343 0.0
H1100 H 0.39436 0.34531 0.88589 0.0
H1101 H 0.3624 0.37105 0.86494 0.0
H1102 H 0.25759 0.25192 0.86455 0.0
H1103 H 0.2904 0.22558 0.88459 0.0
C1104 C 0.23882 0.32056 0.82418 0.0
C1105 C 0.24687 0.3604 0.82696 0.0
C1106 C 0.25858 0.30573 0.83545 0.0
C1107 C 0.28693 0.33022 0.84998 0.0
C1108 C 0.29541 0.3705 0.85233 0.0
C1109 C 0.27577 0.38529 0.84101 0.0
C1110 C 0.36463 0.32426 0.88122 0.0
C1111 C 0.34539 0.283 0.88708 0.0
C1112 C 0.34593 0.33932 0.86929 0.0
C1113 C 0.30706 0.31386 0.86277 0.0
C1114 C 0.28763 0.27269 0.86883 0.0
C1115 C 0.30641 0.25757 0.88072 0.0
loop_
_geom_bond_atom_site_label_1
_geom_bond_atom_site_label_2
_geom_bond_distance
_geom_bond_site_symmetry_2
_ccdc_geom_bond_type
C0 C1 1.443 . S
C0 N4 1.376 . S
C0 C38 1.389 . S
C1 C0 1.443 . S
C1 C2 1.340 . S
C1 H41 0.951 . S
C2 C1 1.340 . S
C2 C3 1.439 . S
C2 H42 0.950 . S
C3 C2 1.439 . S
C3 N4 1.374 . S
C3 C37 1.395 . S
N4 C0 1.376 . S
N4 C3 1.374 . S
N4 Co5 2.008 . S
Co5 N4 2.008 . S
Co5 N6 1.995 . S
Co5 N11 2.008 . S
Co5 N16 1.995 . S
Co5 N21 2.282 . S
Co5 N27 2.282 . S
N6 Co5 1.995 . S
N6 C7 1.376 . S
N6 C10 1.383 . S
C7 N6 1.376 . S
C7 C8 1.446 . S
C7 C37 1.391 . S
C8 C7 1.446 . S
C8 C9 1.339 . S
C8 H43 0.949 . S
C9 C8 1.339 . S
C9 C10 1.439 . S
C9 H44 0.950 . S
C10 N6 1.383 . S
C10 C9 1.439 . S
C10 C39 1.392 . S
N11 Co5 2.008 . S
N11 C12 1.376 . S
N11 C15 1.374 . S
C12 N11 1.376 . S
C12 C13 1.443 . S
C12 C39 1.389 . S
C13 C12 1.443 . S
C13 C14 1.340 . S
C13 H45 0.951 . S
C14 C13 1.340 . S
C14 C15 1.439 . S
C14 H46 0.950 . S
C15 N11 1.374 . S
C15 C14 1.439 . S
C15 C40 1.395 . S
N16 Co5 1.995 . S
N16 C17 1.376 . S
N16 C20 1.383 . S
C17 N16 1.376 . S
C17 C18 1.446 . S
C17 C40 1.391 . S
C18 C17 1.446 . S
C18 C19 1.339 . S
C18 H47 0.949 . S
C19 C18 1.339 . S
C19 C20 1.439 . S
C19 H48 0.950 . S
C20 N16 1.383 . S
C20 C19 1.439 . S
C20 C38 1.392 . S
N21 Co5 2.282 . S
N21 C24 1.332 . S
N21 C26 1.332 . S
C22 C23 1.386 . S
C22 C25 1.388 . S
C23 C22 1.386 . S
C23 C24 1.382 . S
C23 H49 0.950 . S
C24 N21 1.332 . S
C24 C23 1.382 . S
C24 H35 0.952 . S
C25 C22 1.388 . S
C25 C26 1.382 . S
C25 H50 0.950 . S
C26 N21 1.332 . S
C26 C25 1.382 . S
C26 H36 0.948 . S
N27 Co5 2.282 . S
N27 C31 1.332 . S
N27 C32 1.332 . S
C28 C29 1.388 . S
C28 C32 1.382 . S
C28 H51 0.950 . S
C29 C28 1.388 . S
C29 C30 1.386 . S
C30 C29 1.386 . S
C30 C31 1.382 . S
C30 H52 0.950 . S
C31 N27 1.332 . S
C31 C30 1.382 . S
C31 H33 0.952 . S
C32 N27 1.332 . S
C32 C28 1.382 . S
C32 H34 0.948 . S
H33 C31 0.952 . S
H34 C32 0.948 . S
H35 C24 0.952 . S
H36 C26 0.948 . S
C37 C3 1.395 . S
C37 C7 1.391 . S
C38 C0 1.389 . S
C38 C20 1.392 . S
C39 C10 1.392 . S
C39 C12 1.389 . S
C40 C15 1.395 . S
C40 C17 1.391 . S
H41 C1 0.951 . S
H42 C2 0.950 . S
H43 C8 0.949 . S
H44 C9 0.950 . S
H45 C13 0.951 . S
H46 C14 0.950 . S
H47 C18 0.949 . S
H48 C19 0.950 . S
H49 C23 0.950 . S
H50 C25 0.950 . S
H51 C28 0.950 . S
H52 C30 0.950 . S
C53 C54 1.443 . S
C53 N57 1.376 . S
C53 C91 1.389 . S
C54 C53 1.443 . S
C54 C55 1.340 . S
C54 H94 0.951 . S
C55 C54 1.340 . S
C55 C56 1.439 . S
C55 H95 0.950 . S
C56 C55 1.439 . S
C56 N57 1.374 . S
C56 C90 1.395 . S
N57 C53 1.376 . S
N57 C56 1.374 . S
N57 Co58 2.008 . S
Co58 N57 2.008 . S
Co58 N59 1.995 . S
Co58 N64 2.008 . S
Co58 N69 1.995 . S
Co58 N74 2.282 . S
Co58 N80 2.282 . S
N59 Co58 1.995 . S
N59 C60 1.376 . S
N59 C63 1.383 . S
C60 N59 1.376 . S
C60 C61 1.446 . S
C60 C90 1.391 . S
C61 C60 1.446 . S
C61 C62 1.339 . S
C61 H96 0.949 . S
C62 C61 1.339 . S
C62 C63 1.439 . S
C62 H97 0.950 . S
C63 N59 1.383 . S
C63 C62 1.439 . S
C63 C92 1.392 . S
N64 Co58 2.008 . S
N64 C65 1.376 . S
N64 C68 1.374 . S
C65 N64 1.376 . S
C65 C66 1.443 . S
C65 C92 1.389 . S
C66 C65 1.443 . S
C66 C67 1.340 . S
C66 H98 0.951 . S
C67 C66 1.340 . S
C67 C68 1.439 . S
C67 H99 0.950 . S
C68 N64 1.374 . S
C68 C67 1.439 . S
C68 C93 1.395 . S
N69 Co58 1.995 . S
N69 C70 1.376 . S
N69 C73 1.383 . S
C70 N69 1.376 . S
C70 C71 1.446 . S
C70 C93 1.391 . S
C71 C70 1.446 . S
C71 C72 1.339 . S
C71 H100 0.949 . S
C72 C71 1.339 . S
C72 C73 1.439 . S
C72 H101 0.950 . S
C73 N69 1.383 . S
C73 C72 1.439 . S
C73 C91 1.392 . S
N74 Co58 2.282 . S
N74 C77 1.332 . S
N74 C79 1.332 . S
C75 C76 1.386 . S
C75 C78 1.388 . S
C76 C75 1.386 . S
C76 C77 1.382 . S
C76 H102 0.950 . S
C77 N74 1.332 . S
C77 C76 1.382 . S
C77 H88 0.952 . S
C78 C75 1.388 . S
C78 C79 1.382 . S
C78 H103 0.950 . S
C79 N74 1.332 . S
C79 C78 1.382 . S
C79 H89 0.948 . S
N80 Co58 2.282 . S
N80 C84 1.332 . S
N80 C85 1.332 . S
C81 C82 1.388 . S
C81 C85 1.382 . S
C81 H104 0.950 . S
C82 C81 1.388 . S
C82 C83 1.386 . S
C83 C82 1.386 . S
C83 C84 1.382 . S
C83 H105 0.950 . S
C84 N80 1.332 . S
C84 C83 1.382 . S
C84 H86 0.952 . S
C85 N80 1.332 . S
C85 C81 1.382 . S
C85 H87 0.948 . S
H86 C84 0.952 . S
H87 C85 0.948 . S
H88 C77 0.952 . S
H89 C79 0.948 . S
C90 C56 1.395 . S
C90 C60 1.391 . S
C91 C53 1.389 . S
C91 C73 1.392 . S
C92 C63 1.392 . S
C92 C65 1.389 . S
C93 C68 1.395 . S
C93 C70 1.391 . S
H94 C54 0.951 . S
H95 C55 0.950 . S
H96 C61 0.949 . S
H97 C62 0.950 . S
H98 C66 0.951 . S
H99 C67 0.950 . S
H100 C71 0.949 . S
H101 C72 0.950 . S
H102 C76 0.950 . S
H103 C78 0.950 . S
H104 C81 0.950 . S
H105 C83 0.950 . S
C106 C107 1.443 . S
C106 N110 1.376 . S
C106 C144 1.389 . S
C107 C106 1.443 . S
C107 C108 1.340 . S
C107 H147 0.951 . S
C108 C107 1.340 . S
C108 C109 1.439 . S
C108 H148 0.950 . S
C109 C108 1.439 . S
C109 N110 1.374 . S
C109 C143 1.395 . S
N110 C106 1.376 . S
N110 C109 1.374 . S
N110 Co111 2.008 . S
Co111 N110 2.008 . S
Co111 N112 1.995 . S
Co111 N117 2.008 . S
Co111 N122 1.995 . S
Co111 N127 2.282 . S
Co111 N133 2.282 . S
N112 Co111 1.995 . S
N112 C113 1.376 . S
N112 C116 1.383 . S
C113 N112 1.376 . S
C113 C114 1.446 . S
C113 C143 1.391 . S
C114 C113 1.446 . S
C114 C115 1.339 . S
C114 H149 0.949 . S
C115 C114 1.339 . S
C115 C116 1.439 . S
C115 H150 0.950 . S
C116 N112 1.383 . S
C116 C115 1.439 . S
C116 C145 1.392 . S
N117 Co111 2.008 . S
N117 C118 1.376 . S
N117 C121 1.374 . S
C118 N117 1.376 . S
C118 C119 1.443 . S
C118 C145 1.389 . S
C119 C118 1.443 . S
C119 C120 1.340 . S
C119 H151 0.951 . S
C120 C119 1.340 . S
C120 C121 1.439 . S
C120 H152 0.950 . S
C121 N117 1.374 . S
C121 C120 1.439 . S
C121 C146 1.395 . S
N122 Co111 1.995 . S
N122 C123 1.376 . S
N122 C126 1.383 . S
C123 N122 1.376 . S
C123 C124 1.446 . S
C123 C146 1.391 . S
C124 C123 1.446 . S
C124 C125 1.339 . S
C124 H153 0.949 . S
C125 C124 1.339 . S
C125 C126 1.439 . S
C125 H154 0.950 . S
C126 N122 1.383 . S
C126 C125 1.439 . S
C126 C144 1.392 . S
N127 Co111 2.282 . S
N127 C130 1.332 . S
N127 C132 1.332 . S
C128 C129 1.386 . S
C128 C131 1.388 . S
C129 C128 1.386 . S
C129 C130 1.382 . S
C129 H155 0.950 . S
C130 N127 1.332 . S
C130 C129 1.382 . S
C130 H141 0.952 . S
C131 C128 1.388 . S
C131 C132 1.382 . S
C131 H156 0.950 . S
C132 N127 1.332 . S
C132 C131 1.382 . S
C132 H142 0.948 . S
N133 Co111 2.282 . S
N133 C137 1.332 . S
N133 C138 1.332 . S
C134 C135 1.388 . S
C134 C138 1.382 . S
C134 H157 0.950 . S
C135 C134 1.388 . S
C135 C136 1.386 . S
C136 C135 1.386 . S
C136 C137 1.382 . S
C136 H158 0.950 . S
C137 N133 1.332 . S
C137 C136 1.382 . S
C137 H139 0.952 . S
C138 N133 1.332 . S
C138 C134 1.382 . S
C138 H140 0.948 . S
H139 C137 0.952 . S
H140 C138 0.948 . S
H141 C130 0.952 . S
H142 C132 0.948 . S
C143 C109 1.395 . S
C143 C113 1.391 . S
C144 C106 1.389 . S
C144 C126 1.392 . S
C145 C116 1.392 . S
C145 C118 1.389 . S
C146 C121 1.395 . S
C146 C123 1.391 . S
H147 C107 0.951 . S
H148 C108 0.950 . S
H149 C114 0.949 . S
H150 C115 0.950 . S
H151 C119 0.951 . S
H152 C120 0.950 . S
H153 C124 0.949 . S
H154 C125 0.950 . S
H155 C129 0.950 . S
H156 C131 0.950 . S
H157 C134 0.950 . S
H158 C136 0.950 . S
C159 C160 1.443 . S
C159 N163 1.376 . S
C159 C197 1.389 . S
C160 C159 1.443 . S
C160 C161 1.340 . S
C160 H200 0.951 . S
C161 C160 1.340 . S
C161 C162 1.439 . S
C161 H201 0.950 . S
C162 C161 1.439 . S
C162 N163 1.374 . S
C162 C196 1.395 . S
N163 C159 1.376 . S
N163 C162 1.374 . S
N163 Co164 2.008 . S
Co164 N163 2.008 . S
Co164 N165 1.995 . S
Co164 N170 2.008 . S
Co164 N175 1.995 . S
Co164 N180 2.282 . S
Co164 N186 2.282 . S
N165 Co164 1.995 . S
N165 C166 1.376 . S
N165 C169 1.383 . S
C166 N165 1.376 . S
C166 C167 1.446 . S
C166 C196 1.391 . S
C167 C166 1.446 . S
C167 C168 1.339 . S
C167 H202 0.949 . S
C168 C167 1.339 . S
C168 C169 1.439 . S
C168 H203 0.950 . S
C169 N165 1.383 . S
C169 C168 1.439 . S
C169 C198 1.392 . S
N170 Co164 2.008 . S
N170 C171 1.376 . S
N170 C174 1.374 . S
C171 N170 1.376 . S
C171 C172 1.443 . S
C171 C198 1.389 . S
C172 C171 1.443 . S
C172 C173 1.340 . S
C172 H204 0.951 . S
C173 C172 1.340 . S
C173 C174 1.439 . S
C173 H205 0.950 . S
C174 N170 1.374 . S
C174 C173 1.439 . S
C174 C199 1.395 . S
N175 Co164 1.995 . S
N175 C176 1.376 . S
N175 C179 1.383 . S
C176 N175 1.376 . S
C176 C177 1.446 . S
C176 C199 1.391 . S
C177 C176 1.446 . S
C177 C178 1.339 . S
C177 H206 0.949 . S
C178 C177 1.339 . S
C178 C179 1.439 . S
C178 H207 0.950 . S
C179 N175 1.383 . S
C179 C178 1.439 . S
C179 C197 1.392 . S
N180 Co164 2.282 . S
N180 C183 1.332 . S
N180 C185 1.332 . S
C181 C182 1.386 . S
C181 C184 1.388 . S
C182 C181 1.386 . S
C182 C183 1.382 . S
C182 H208 0.950 . S
C183 N180 1.332 . S
C183 C182 1.382 . S
C183 H194 0.952 . S
C184 C181 1.388 . S
C184 C185 1.382 . S
C184 H209 0.950 . S
C185 N180 1.332 . S
C185 C184 1.382 . S
C185 H195 0.948 . S
N186 Co164 2.282 . S
N186 C190 1.332 . S
N186 C191 1.332 . S
C187 C188 1.388 . S
C187 C191 1.382 . S
C187 H210 0.950 . S
C188 C187 1.388 . S
C188 C189 1.386 . S
C189 C188 1.386 . S
C189 C190 1.382 . S
C189 H211 0.950 . S
C190 N186 1.332 . S
C190 C189 1.382 . S
C190 H192 0.952 . S
C191 N186 1.332 . S
C191 C187 1.382 . S
C191 H193 0.948 . S
H192 C190 0.952 . S
H193 C191 0.948 . S
H194 C183 0.952 . S
H195 C185 0.948 . S
C196 C162 1.395 . S
C196 C166 1.391 . S
C197 C159 1.389 . S
C197 C179 1.392 . S
C198 C169 1.392 . S
C198 C171 1.389 . S
C199 C174 1.395 . S
C199 C176 1.391 . S
H200 C160 0.951 . S
H201 C161 0.950 . S
H202 C167 0.949 . S
H203 C168 0.950 . S
H204 C172 0.951 . S
H205 C173 0.950 . S
H206 C177 0.949 . S
H207 C178 0.950 . S
H208 C182 0.950 . S
H209 C184 0.950 . S
H210 C187 0.950 . S
H211 C189 0.950 . S
C212 C213 1.443 . S
C212 N216 1.376 . S
C212 C250 1.389 . S
C213 C212 1.443 . S
C213 C214 1.340 . S
C213 H253 0.951 . S
C214 C213 1.340 . S
C214 C215 1.439 . S
C214 H254 0.950 . S
C215 C214 1.439 . S
C215 N216 1.374 . S
C215 C249 1.395 . S
N216 C212 1.376 . S
N216 C215 1.374 . S
N216 Co217 2.008 . S
Co217 N216 2.008 . S
Co217 N218 1.995 . S
Co217 N223 2.008 . S
Co217 N228 1.995 . S
Co217 N233 2.282 . S
Co217 N239 2.282 . S
N218 Co217 1.995 . S
N218 C219 1.376 . S
N218 C222 1.383 . S
C219 N218 1.376 . S
C219 C220 1.446 . S
C219 C249 1.391 . S
C220 C219 1.446 . S
C220 C221 1.339 . S
C220 H255 0.949 . S
C221 C220 1.339 . S
C221 C222 1.439 . S
C221 H256 0.950 . S
C222 N218 1.383 . S
C222 C221 1.439 . S
C222 C251 1.392 . S
N223 Co217 2.008 . S
N223 C224 1.376 . S
N223 C227 1.374 . S
C224 N223 1.376 . S
C224 C225 1.443 . S
C224 C251 1.389 . S
C225 C224 1.443 . S
C225 C226 1.340 . S
C225 H257 0.951 . S
C226 C225 1.340 . S
C226 C227 1.439 . S
C226 H258 0.950 . S
C227 N223 1.374 . S
C227 C226 1.439 . S
C227 C252 1.395 . S
N228 Co217 1.995 . S
N228 C229 1.376 . S
N228 C232 1.383 . S
C229 N228 1.376 . S
C229 C230 1.446 . S
C229 C252 1.391 . S
C230 C229 1.446 . S
C230 C231 1.339 . S
C230 H259 0.949 . S
C231 C230 1.339 . S
C231 C232 1.439 . S
C231 H260 0.950 . S
C232 N228 1.383 . S
C232 C231 1.439 . S
C232 C250 1.392 . S
N233 Co217 2.282 . S
N233 C236 1.332 . S
N233 C238 1.332 . S
C234 C235 1.386 . S
C234 C237 1.388 . S
C235 C234 1.386 . S
C235 C236 1.382 . S
C235 H261 0.950 . S
C236 N233 1.332 . S
C236 C235 1.382 . S
C236 H247 0.952 . S
C237 C234 1.388 . S
C237 C238 1.382 . S
C237 H262 0.950 . S
C238 N233 1.332 . S
C238 C237 1.382 . S
C238 H248 0.948 . S
N239 Co217 2.282 . S
N239 C243 1.332 . S
N239 C244 1.332 . S
C240 C241 1.388 . S
C240 C244 1.382 . S
C240 H263 0.950 . S
C241 C240 1.388 . S
C241 C242 1.386 . S
C242 C241 1.386 . S
C242 C243 1.382 . S
C242 H264 0.950 . S
C243 N239 1.332 . S
C243 C242 1.382 . S
C243 H245 0.952 . S
C244 N239 1.332 . S
C244 C240 1.382 . S
C244 H246 0.948 . S
H245 C243 0.952 . S
H246 C244 0.948 . S
H247 C236 0.952 . S
H248 C238 0.948 . S
C249 C215 1.395 . S
C249 C219 1.391 . S
C250 C212 1.389 . S
C250 C232 1.392 . S
C251 C222 1.392 . S
C251 C224 1.389 . S
C252 C227 1.395 . S
C252 C229 1.391 . S
H253 C213 0.951 . S
H254 C214 0.950 . S
H255 C220 0.949 . S
H256 C221 0.950 . S
H257 C225 0.951 . S
H258 C226 0.950 . S
H259 C230 0.949 . S
H260 C231 0.950 . S
H261 C235 0.950 . S
H262 C237 0.950 . S
H263 C240 0.950 . S
H264 C242 0.950 . S
C265 C266 1.443 . S
C265 N269 1.376 . S
C265 C303 1.389 . S
C266 C265 1.443 . S
C266 C267 1.340 . S
C266 H306 0.951 . S
C267 C266 1.340 . S
C267 C268 1.439 . S
C267 H307 0.950 . S
C268 C267 1.439 . S
C268 N269 1.374 . S
C268 C302 1.395 . S
N269 C265 1.376 . S
N269 C268 1.374 . S
N269 Co270 2.008 . S
Co270 N269 2.008 . S
Co270 N271 1.995 . S
Co270 N276 2.008 . S
Co270 N281 1.995 . S
Co270 N286 2.282 . S
Co270 N292 2.282 . S
N271 Co270 1.995 . S
N271 C272 1.376 . S
N271 C275 1.383 . S
C272 N271 1.376 . S
C272 C273 1.446 . S
C272 C302 1.391 . S
C273 C272 1.446 . S
C273 C274 1.339 . S
C273 H308 0.949 . S
C274 C273 1.339 . S
C274 C275 1.439 . S
C274 H309 0.950 . S
C275 N271 1.383 . S
C275 C274 1.439 . S
C275 C304 1.392 . S
N276 Co270 2.008 . S
N276 C277 1.376 . S
N276 C280 1.374 . S
C277 N276 1.376 . S
C277 C278 1.443 . S
C277 C304 1.389 . S
C278 C277 1.443 . S
C278 C279 1.340 . S
C278 H310 0.951 . S
C279 C278 1.340 . S
C279 C280 1.439 . S
C279 H311 0.950 . S
C280 N276 1.374 . S
C280 C279 1.439 . S
C280 C305 1.395 . S
N281 Co270 1.995 . S
N281 C282 1.376 . S
N281 C285 1.383 . S
C282 N281 1.376 . S
C282 C283 1.446 . S
C282 C305 1.391 . S
C283 C282 1.446 . S
C283 C284 1.339 . S
C283 H312 0.949 . S
C284 C283 1.339 . S
C284 C285 1.439 . S
C284 H313 0.950 . S
C285 N281 1.383 . S
C285 C284 1.439 . S
C285 C303 1.392 . S
N286 Co270 2.282 . S
N286 C289 1.332 . S
N286 C291 1.332 . S
C287 C288 1.386 . S
C287 C290 1.388 . S
C288 C287 1.386 . S
C288 C289 1.382 . S
C288 H314 0.950 . S
C289 N286 1.332 . S
C289 C288 1.382 . S
C289 H300 0.952 . S
C290 C287 1.388 . S
C290 C291 1.382 . S
C290 H315 0.950 . S
C291 N286 1.332 . S
C291 C290 1.382 . S
C291 H301 0.948 . S
N292 Co270 2.282 . S
N292 C296 1.332 . S
N292 C297 1.332 . S
C293 C294 1.388 . S
C293 C297 1.382 . S
C293 H316 0.950 . S
C294 C293 1.388 . S
C294 C295 1.386 . S
C295 C294 1.386 . S
C295 C296 1.382 . S
C295 H317 0.950 . S
C296 N292 1.332 . S
C296 C295 1.382 . S
C296 H298 0.952 . S
C297 N292 1.332 . S
C297 C293 1.382 . S
C297 H299 0.948 . S
H298 C296 0.952 . S
H299 C297 0.948 . S
H300 C289 0.952 . S
H301 C291 0.948 . S
C302 C268 1.395 . S
C302 C272 1.391 . S
C303 C265 1.389 . S
C303 C285 1.392 . S
C304 C275 1.392 . S
C304 C277 1.389 . S
C305 C280 1.395 . S
C305 C282 1.391 . S
H306 C266 0.951 . S
H307 C267 0.950 . S
H308 C273 0.949 . S
H309 C274 0.950 . S
H310 C278 0.951 . S
H311 C279 0.950 . S
H312 C283 0.949 . S
H313 C284 0.950 . S
H314 C288 0.950 . S
H315 C290 0.950 . S
H316 C293 0.950 . S
H317 C295 0.950 . S
C318 C319 1.443 . S
C318 N322 1.376 . S
C318 C356 1.389 . S
C319 C318 1.443 . S
C319 C320 1.340 . S
C319 H359 0.951 . S
C320 C319 1.340 . S
C320 C321 1.439 . S
C320 H360 0.950 . S
C321 C320 1.439 . S
C321 N322 1.374 . S
C321 C355 1.395 . S
N322 C318 1.376 . S
N322 C321 1.374 . S
N322 Co323 2.008 . S
Co323 N322 2.008 . S
Co323 N324 1.995 . S
Co323 N329 2.008 . S
Co323 N334 1.995 . S
Co323 N339 2.282 . S
Co323 N345 2.282 . S
N324 Co323 1.995 . S
N324 C325 1.376 . S
N324 C328 1.383 . S
C325 N324 1.376 . S
C325 C326 1.446 . S
C325 C355 1.391 . S
C326 C325 1.446 . S
C326 C327 1.339 . S
C326 H361 0.949 . S
C327 C326 1.339 . S
C327 C328 1.439 . S
C327 H362 0.950 . S
C328 N324 1.383 . S
C328 C327 1.439 . S
C328 C357 1.392 . S
N329 Co323 2.008 . S
N329 C330 1.376 . S
N329 C333 1.374 . S
C330 N329 1.376 . S
C330 C331 1.443 . S
C330 C357 1.389 . S
C331 C330 1.443 . S
C331 C332 1.340 . S
C331 H363 0.951 . S
C332 C331 1.340 . S
C332 C333 1.439 . S
C332 H364 0.950 . S
C333 N329 1.374 . S
C333 C332 1.439 . S
C333 C358 1.395 . S
N334 Co323 1.995 . S
N334 C335 1.376 . S
N334 C338 1.383 . S
C335 N334 1.376 . S
C335 C336 1.446 . S
C335 C358 1.391 . S
C336 C335 1.446 . S
C336 C337 1.339 . S
C336 H365 0.949 . S
C337 C336 1.339 . S
C337 C338 1.439 . S
C337 H366 0.950 . S
C338 N334 1.383 . S
C338 C337 1.439 . S
C338 C356 1.392 . S
N339 Co323 2.282 . S
N339 C342 1.332 . S
N339 C344 1.332 . S
C340 C341 1.386 . S
C340 C343 1.388 . S
C341 C340 1.386 . S
C341 C342 1.382 . S
C341 H367 0.950 . S
C342 N339 1.332 . S
C342 C341 1.382 . S
C342 H353 0.952 . S
C343 C340 1.388 . S
C343 C344 1.382 . S
C343 H368 0.950 . S
C344 N339 1.332 . S
C344 C343 1.382 . S
C344 H354 0.948 . S
N345 Co323 2.282 . S
N345 C349 1.332 . S
N345 C350 1.332 . S
C346 C347 1.388 . S
C346 C350 1.382 . S
C346 H369 0.950 . S
C347 C346 1.388 . S
C347 C348 1.386 . S
C348 C347 1.386 . S
C348 C349 1.382 . S
C348 H370 0.950 . S
C349 N345 1.332 . S
C349 C348 1.382 . S
C349 H351 0.952 . S
C350 N345 1.332 . S
C350 C346 1.382 . S
C350 H352 0.948 . S
H351 C349 0.952 . S
H352 C350 0.948 . S
H353 C342 0.952 . S
H354 C344 0.948 . S
C355 C321 1.395 . S
C355 C325 1.391 . S
C356 C318 1.389 . S
C356 C338 1.392 . S
C357 C328 1.392 . S
C357 C330 1.389 . S
C358 C333 1.395 . S
C358 C335 1.391 . S
H359 C319 0.951 . S
H360 C320 0.950 . S
H361 C326 0.949 . S
H362 C327 0.950 . S
H363 C331 0.951 . S
H364 C332 0.950 . S
H365 C336 0.949 . S
H366 C337 0.950 . S
H367 C341 0.950 . S
H368 C343 0.950 . S
H369 C346 0.950 . S
H370 C348 0.950 . S
C371 C372 1.443 . S
C371 N375 1.376 . S
C371 C409 1.389 . S
C372 C371 1.443 . S
C372 C373 1.340 . S
C372 H412 0.951 . S
C373 C372 1.340 . S
C373 C374 1.439 . S
C373 H413 0.950 . S
C374 C373 1.439 . S
C374 N375 1.374 . S
C374 C408 1.395 . S
N375 C371 1.376 . S
N375 C374 1.374 . S
N375 Co376 2.008 . S
Co376 N375 2.008 . S
Co376 N377 1.995 . S
Co376 N382 2.008 . S
Co376 N387 1.995 . S
Co376 N392 2.282 . S
Co376 N398 2.282 . S
N377 Co376 1.995 . S
N377 C378 1.376 . S
N377 C381 1.383 . S
C378 N377 1.376 . S
C378 C379 1.446 . S
C378 C408 1.391 . S
C379 C378 1.446 . S
C379 C380 1.339 . S
C379 H414 0.949 . S
C380 C379 1.339 . S
C380 C381 1.439 . S
C380 H415 0.950 . S
C381 N377 1.383 . S
C381 C380 1.439 . S
C381 C410 1.392 . S
N382 Co376 2.008 . S
N382 C383 1.376 . S
N382 C386 1.374 . S
C383 N382 1.376 . S
C383 C384 1.443 . S
C383 C410 1.389 . S
C384 C383 1.443 . S
C384 C385 1.340 . S
C384 H416 0.951 . S
C385 C384 1.340 . S
C385 C386 1.439 . S
C385 H417 0.950 . S
C386 N382 1.374 . S
C386 C385 1.439 . S
C386 C411 1.395 . S
N387 Co376 1.995 . S
N387 C388 1.376 . S
N387 C391 1.383 . S
C388 N387 1.376 . S
C388 C389 1.446 . S
C388 C411 1.391 . S
C389 C388 1.446 . S
C389 C390 1.339 . S
C389 H418 0.949 . S
C390 C389 1.339 . S
C390 C391 1.439 . S
C390 H419 0.950 . S
C391 N387 1.383 . S
C391 C390 1.439 . S
C391 C409 1.392 . S
N392 Co376 2.282 . S
N392 C395 1.332 . S
N392 C397 1.332 . S
C393 C394 1.386 . S
C393 C396 1.388 . S
C394 C393 1.386 . S
C394 C395 1.382 . S
C394 H420 0.950 . S
C395 N392 1.332 . S
C395 C394 1.382 . S
C395 H406 0.952 . S
C396 C393 1.388 . S
C396 C397 1.382 . S
C396 H421 0.950 . S
C397 N392 1.332 . S
C397 C396 1.382 . S
C397 H407 0.948 . S
N398 Co376 2.282 . S
N398 C402 1.332 . S
N398 C403 1.332 . S
C399 C400 1.388 . S
C399 C403 1.382 . S
C399 H422 0.950 . S
C400 C399 1.388 . S
C400 C401 1.386 . S
C401 C400 1.386 . S
C401 C402 1.382 . S
C401 H423 0.950 . S
C402 N398 1.332 . S
C402 C401 1.382 . S
C402 H404 0.952 . S
C403 N398 1.332 . S
C403 C399 1.382 . S
C403 H405 0.948 . S
H404 C402 0.952 . S
H405 C403 0.948 . S
H406 C395 0.952 . S
H407 C397 0.948 . S
C408 C374 1.395 . S
C408 C378 1.391 . S
C409 C371 1.389 . S
C409 C391 1.392 . S
C410 C381 1.392 . S
C410 C383 1.389 . S
C411 C386 1.395 . S
C411 C388 1.391 . S
H412 C372 0.951 . S
H413 C373 0.950 . S
H414 C379 0.949 . S
H415 C380 0.950 . S
H416 C384 0.951 . S
H417 C385 0.950 . S
H418 C389 0.949 . S
H419 C390 0.950 . S
H420 C394 0.950 . S
H421 C396 0.950 . S
H422 C399 0.950 . S
H423 C401 0.950 . S
C424 C425 1.443 . S
C424 N428 1.376 . S
C424 C462 1.389 . S
C425 C424 1.443 . S
C425 C426 1.340 . S
C425 H465 0.951 . S
C426 C425 1.340 . S
C426 C427 1.439 . S
C426 H466 0.950 . S
C427 C426 1.439 . S
C427 N428 1.374 . S
C427 C461 1.395 . S
N428 C424 1.376 . S
N428 C427 1.374 . S
N428 Co429 2.008 . S
Co429 N428 2.008 . S
Co429 N430 1.995 . S
Co429 N435 2.008 . S
Co429 N440 1.995 . S
Co429 N445 2.282 . S
Co429 N451 2.282 . S
N430 Co429 1.995 . S
N430 C431 1.376 . S
N430 C434 1.383 . S
C431 N430 1.376 . S
C431 C432 1.446 . S
C431 C461 1.391 . S
C432 C431 1.446 . S
C432 C433 1.339 . S
C432 H467 0.949 . S
C433 C432 1.339 . S
C433 C434 1.439 . S
C433 H468 0.950 . S
C434 N430 1.383 . S
C434 C433 1.439 . S
C434 C463 1.392 . S
N435 Co429 2.008 . S
N435 C436 1.376 . S
N435 C439 1.374 . S
C436 N435 1.376 . S
C436 C437 1.443 . S
C436 C463 1.389 . S
C437 C436 1.443 . S
C437 C438 1.340 . S
C437 H469 0.951 . S
C438 C437 1.340 . S
C438 C439 1.439 . S
C438 H470 0.950 . S
C439 N435 1.374 . S
C439 C438 1.439 . S
C439 C464 1.395 . S
N440 Co429 1.995 . S
N440 C441 1.376 . S
N440 C444 1.383 . S
C441 N440 1.376 . S
C441 C442 1.446 . S
C441 C464 1.391 . S
C442 C441 1.446 . S
C442 C443 1.339 . S
C442 H471 0.949 . S
C443 C442 1.339 . S
C443 C444 1.439 . S
C443 H472 0.950 . S
C444 N440 1.383 . S
C444 C443 1.439 . S
C444 C462 1.392 . S
N445 Co429 2.282 . S
N445 C448 1.332 . S
N445 C450 1.332 . S
C446 C447 1.386 . S
C446 C449 1.388 . S
C447 C446 1.386 . S
C447 C448 1.382 . S
C447 H473 0.950 . S
C448 N445 1.332 . S
C448 C447 1.382 . S
C448 H459 0.952 . S
C449 C446 1.388 . S
C449 C450 1.382 . S
C449 H474 0.950 . S
C450 N445 1.332 . S
C450 C449 1.382 . S
C450 H460 0.948 . S
N451 Co429 2.282 . S
N451 C455 1.332 . S
N451 C456 1.332 . S
C452 C453 1.388 . S
C452 C456 1.382 . S
C452 H475 0.950 . S
C453 C452 1.388 . S
C453 C454 1.386 . S
C454 C453 1.386 . S
C454 C455 1.382 . S
C454 H476 0.950 . S
C455 N451 1.332 . S
C455 C454 1.382 . S
C455 H457 0.952 . S
C456 N451 1.332 . S
C456 C452 1.382 . S
C456 H458 0.948 . S
H457 C455 0.952 . S
H458 C456 0.948 . S
H459 C448 0.952 . S
H460 C450 0.948 . S
C461 C427 1.395 . S
C461 C431 1.391 . S
C462 C424 1.389 . S
C462 C444 1.392 . S
C463 C434 1.392 . S
C463 C436 1.389 . S
C464 C439 1.395 . S
C464 C441 1.391 . S
H465 C425 0.951 . S
H466 C426 0.950 . S
H467 C432 0.949 . S
H468 C433 0.950 . S
H469 C437 0.951 . S
H470 C438 0.950 . S
H471 C442 0.949 . S
H472 C443 0.950 . S
H473 C447 0.950 . S
H474 C449 0.950 . S
H475 C452 0.950 . S
H476 C454 0.950 . S
C477 C478 1.443 . S
C477 N481 1.376 . S
C477 C515 1.389 . S
C478 C477 1.443 . S
C478 C479 1.340 . S
C478 H518 0.951 . S
C479 C478 1.340 . S
C479 C480 1.439 . S
C479 H519 0.950 . S
C480 C479 1.439 . S
C480 N481 1.374 . S
C480 C514 1.395 . S
N481 C477 1.376 . S
N481 C480 1.374 . S
N481 Co482 2.008 . S
Co482 N481 2.008 . S
Co482 N483 1.995 . S
Co482 N488 2.008 . S
Co482 N493 1.995 . S
Co482 N498 2.282 . S
Co482 N504 2.282 . S
N483 Co482 1.995 . S
N483 C484 1.376 . S
N483 C487 1.383 . S
C484 N483 1.376 . S
C484 C485 1.446 . S
C484 C514 1.391 . S
C485 C484 1.446 . S
C485 C486 1.339 . S
C485 H520 0.949 . S
C486 C485 1.339 . S
C486 C487 1.439 . S
C486 H521 0.950 . S
C487 N483 1.383 . S
C487 C486 1.439 . S
C487 C516 1.392 . S
N488 Co482 2.008 . S
N488 C489 1.376 . S
N488 C492 1.374 . S
C489 N488 1.376 . S
C489 C490 1.443 . S
C489 C516 1.389 . S
C490 C489 1.443 . S
C490 C491 1.340 . S
C490 H522 0.951 . S
C491 C490 1.340 . S
C491 C492 1.439 . S
C491 H523 0.950 . S
C492 N488 1.374 . S
C492 C491 1.439 . S
C492 C517 1.395 . S
N493 Co482 1.995 . S
N493 C494 1.376 . S
N493 C497 1.383 . S
C494 N493 1.376 . S
C494 C495 1.446 . S
C494 C517 1.391 . S
C495 C494 1.446 . S
C495 C496 1.339 . S
C495 H524 0.949 . S
C496 C495 1.339 . S
C496 C497 1.439 . S
C496 H525 0.950 . S
C497 N493 1.383 . S
C497 C496 1.439 . S
C497 C515 1.392 . S
N498 Co482 2.282 . S
N498 C501 1.332 . S
N498 C503 1.332 . S
C499 C500 1.386 . S
C499 C502 1.388 . S
C500 C499 1.386 . S
C500 C501 1.382 . S
C500 H526 0.950 . S
C501 N498 1.332 . S
C501 C500 1.382 . S
C501 H512 0.952 . S
C502 C499 1.388 . S
C502 C503 1.382 . S
C502 H527 0.950 . S
C503 N498 1.332 . S
C503 C502 1.382 . S
C503 H513 0.948 . S
N504 Co482 2.282 . S
N504 C508 1.332 . S
N504 C509 1.332 . S
C505 C506 1.388 . S
C505 C509 1.382 . S
C505 H528 0.950 . S
C506 C505 1.388 . S
C506 C507 1.386 . S
C507 C506 1.386 . S
C507 C508 1.382 . S
C507 H529 0.950 . S
C508 N504 1.332 . S
C508 C507 1.382 . S
C508 H510 0.952 . S
C509 N504 1.332 . S
C509 C505 1.382 . S
C509 H511 0.948 . S
H510 C508 0.952 . S
H511 C509 0.948 . S
H512 C501 0.952 . S
H513 C503 0.948 . S
C514 C480 1.395 . S
C514 C484 1.391 . S
C515 C477 1.389 . S
C515 C497 1.392 . S
C516 C487 1.392 . S
C516 C489 1.389 . S
C517 C492 1.395 . S
C517 C494 1.391 . S
H518 C478 0.951 . S
H519 C479 0.950 . S
H520 C485 0.949 . S
H521 C486 0.950 . S
H522 C490 0.951 . S
H523 C491 0.950 . S
H524 C495 0.949 . S
H525 C496 0.950 . S
H526 C500 0.950 . S
H527 C502 0.950 . S
H528 C505 0.950 . S
H529 C507 0.950 . S
C530 C531 1.443 . S
C530 N534 1.376 . S
C530 C568 1.389 . S
C531 C530 1.443 . S
C531 C532 1.340 . S
C531 H571 0.951 . S
C532 C531 1.340 . S
C532 C533 1.439 . S
C532 H572 0.950 . S
C533 C532 1.439 . S
C533 N534 1.374 . S
C533 C567 1.395 . S
N534 C530 1.376 . S
N534 C533 1.374 . S
N534 Co535 2.008 . S
Co535 N534 2.008 . S
Co535 N536 1.995 . S
Co535 N541 2.008 . S
Co535 N546 1.995 . S
Co535 N551 2.282 . S
Co535 N557 2.282 . S
N536 Co535 1.995 . S
N536 C537 1.376 . S
N536 C540 1.383 . S
C537 N536 1.376 . S
C537 C538 1.446 . S
C537 C567 1.391 . S
C538 C537 1.446 . S
C538 C539 1.339 . S
C538 H573 0.949 . S
C539 C538 1.339 . S
C539 C540 1.439 . S
C539 H574 0.950 . S
C540 N536 1.383 . S
C540 C539 1.439 . S
C540 C569 1.392 . S
N541 Co535 2.008 . S
N541 C542 1.376 . S
N541 C545 1.374 . S
C542 N541 1.376 . S
C542 C543 1.443 . S
C542 C569 1.389 . S
C543 C542 1.443 . S
C543 C544 1.340 . S
C543 H575 0.951 . S
C544 C543 1.340 . S
C544 C545 1.439 . S
C544 H576 0.950 . S
C545 N541 1.374 . S
C545 C544 1.439 . S
C545 C570 1.395 . S
N546 Co535 1.995 . S
N546 C547 1.376 . S
N546 C550 1.383 . S
C547 N546 1.376 . S
C547 C548 1.446 . S
C547 C570 1.391 . S
C548 C547 1.446 . S
C548 C549 1.339 . S
C548 H577 0.949 . S
C549 C548 1.339 . S
C549 C550 1.439 . S
C549 H578 0.950 . S
C550 N546 1.383 . S
C550 C549 1.439 . S
C550 C568 1.392 . S
N551 Co535 2.282 . S
N551 C554 1.332 . S
N551 C556 1.332 . S
C552 C553 1.386 . S
C552 C555 1.388 . S
C553 C552 1.386 . S
C553 C554 1.382 . S
C553 H579 0.950 . S
C554 N551 1.332 . S
C554 C553 1.382 . S
C554 H565 0.952 . S
C555 C552 1.388 . S
C555 C556 1.382 . S
C555 H580 0.950 . S
C556 N551 1.332 . S
C556 C555 1.382 . S
C556 H566 0.948 . S
N557 Co535 2.282 . S
N557 C561 1.332 . S
N557 C562 1.332 . S
C558 C559 1.388 . S
C558 C562 1.382 . S
C558 H581 0.950 . S
C559 C558 1.388 . S
C559 C560 1.386 . S
C560 C559 1.386 . S
C560 C561 1.382 . S
C560 H582 0.950 . S
C561 N557 1.332 . S
C561 C560 1.382 . S
C561 H563 0.952 . S
C562 N557 1.332 . S
C562 C558 1.382 . S
C562 H564 0.948 . S
H563 C561 0.952 . S
H564 C562 0.948 . S
H565 C554 0.952 . S
H566 C556 0.948 . S
C567 C533 1.395 . S
C567 C537 1.391 . S
C568 C530 1.389 . S
C568 C550 1.392 . S
C569 C540 1.392 . S
C569 C542 1.389 . S
C570 C545 1.395 . S
C570 C547 1.391 . S
H571 C531 0.951 . S
H572 C532 0.950 . S
H573 C538 0.949 . S
H574 C539 0.950 . S
H575 C543 0.951 . S
H576 C544 0.950 . S
H577 C548 0.949 . S
H578 C549 0.950 . S
H579 C553 0.950 . S
H580 C555 0.950 . S
H581 C558 0.950 . S
H582 C560 0.950 . S
C583 C584 1.443 . S
C583 N587 1.376 . S
C583 C621 1.389 . S
C584 C583 1.443 . S
C584 C585 1.340 . S
C584 H624 0.951 . S
C585 C584 1.340 . S
C585 C586 1.439 . S
C585 H625 0.950 . S
C586 C585 1.439 . S
C586 N587 1.374 . S
C586 C620 1.395 . S
N587 C583 1.376 . S
N587 C586 1.374 . S
N587 Co588 2.008 . S
Co588 N587 2.008 . S
Co588 N589 1.995 . S
Co588 N594 2.008 . S
Co588 N599 1.995 . S
Co588 N604 2.282 . S
Co588 N610 2.282 . S
N589 Co588 1.995 . S
N589 C590 1.376 . S
N589 C593 1.383 . S
C590 N589 1.376 . S
C590 C591 1.446 . S
C590 C620 1.391 . S
C591 C590 1.446 . S
C591 C592 1.339 . S
C591 H626 0.949 . S
C592 C591 1.339 . S
C592 C593 1.439 . S
C592 H627 0.950 . S
C593 N589 1.383 . S
C593 C592 1.439 . S
C593 C622 1.392 . S
N594 Co588 2.008 . S
N594 C595 1.376 . S
N594 C598 1.374 . S
C595 N594 1.376 . S
C595 C596 1.443 . S
C595 C622 1.389 . S
C596 C595 1.443 . S
C596 C597 1.340 . S
C596 H628 0.951 . S
C597 C596 1.340 . S
C597 C598 1.439 . S
C597 H629 0.950 . S
C598 N594 1.374 . S
C598 C597 1.439 . S
C598 C623 1.395 . S
N599 Co588 1.995 . S
N599 C600 1.376 . S
N599 C603 1.383 . S
C600 N599 1.376 . S
C600 C601 1.446 . S
C600 C623 1.391 . S
C601 C600 1.446 . S
C601 C602 1.339 . S
C601 H630 0.949 . S
C602 C601 1.339 . S
C602 C603 1.439 . S
C602 H631 0.950 . S
C603 N599 1.383 . S
C603 C602 1.439 . S
C603 C621 1.392 . S
N604 Co588 2.282 . S
N604 C607 1.332 . S
N604 C609 1.332 . S
C605 C606 1.386 . S
C605 C608 1.388 . S
C606 C605 1.386 . S
C606 C607 1.382 . S
C606 H632 0.950 . S
C607 N604 1.332 . S
C607 C606 1.382 . S
C607 H618 0.952 . S
C608 C605 1.388 . S
C608 C609 1.382 . S
C608 H633 0.950 . S
C609 N604 1.332 . S
C609 C608 1.382 . S
C609 H619 0.948 . S
N610 Co588 2.282 . S
N610 C614 1.332 . S
N610 C615 1.332 . S
C611 C612 1.388 . S
C611 C615 1.382 . S
C611 H634 0.950 . S
C612 C611 1.388 . S
C612 C613 1.386 . S
C613 C612 1.386 . S
C613 C614 1.382 . S
C613 H635 0.950 . S
C614 N610 1.332 . S
C614 C613 1.382 . S
C614 H616 0.952 . S
C615 N610 1.332 . S
C615 C611 1.382 . S
C615 H617 0.948 . S
H616 C614 0.952 . S
H617 C615 0.948 . S
H618 C607 0.952 . S
H619 C609 0.948 . S
C620 C586 1.395 . S
C620 C590 1.391 . S
C621 C583 1.389 . S
C621 C603 1.392 . S
C622 C593 1.392 . S
C622 C595 1.389 . S
C623 C598 1.395 . S
C623 C600 1.391 . S
H624 C584 0.951 . S
H625 C585 0.950 . S
H626 C591 0.949 . S
H627 C592 0.950 . S
H628 C596 0.951 . S
H629 C597 0.950 . S
H630 C601 0.949 . S
H631 C602 0.950 . S
H632 C606 0.950 . S
H633 C608 0.950 . S
H634 C611 0.950 . S
H635 C613 0.950 . S
H636 C644 0.950 . S
H637 C649 0.950 . S
H638 C646 0.950 . S
H639 C648 0.950 . S
H640 C650 0.950 . S
H641 C652 0.950 . S
H642 C654 0.950 . S
H643 C655 0.950 . S
C644 H636 0.950 . S
C644 C645 1.386 . S
C644 C646 1.391 . S
C645 C644 1.386 . S
C645 C649 1.393 . S
C646 H638 0.950 . S
C646 C644 1.391 . S
C646 C647 1.400 . S
C647 C646 1.400 . S
C647 C648 1.398 . S
C647 C653 1.491 . S
C648 H639 0.950 . S
C648 C647 1.398 . S
C648 C649 1.391 . S
C649 H637 0.950 . S
C649 C645 1.393 . S
C649 C648 1.391 . S
C650 H640 0.950 . S
C650 C651 1.386 . S
C650 C652 1.391 . S
C651 C650 1.386 . S
C651 C655 1.393 . S
C652 H641 0.950 . S
C652 C650 1.391 . S
C652 C653 1.400 . S
C653 C647 1.491 . S
C653 C652 1.400 . S
C653 C654 1.398 . S
C654 H642 0.950 . S
C654 C653 1.398 . S
C654 C655 1.391 . S
C655 H643 0.950 . S
C655 C651 1.393 . S
C655 C654 1.391 . S
H656 C664 0.950 . S
H657 C669 0.950 . S
H658 C666 0.950 . S
H659 C668 0.950 . S
H660 C670 0.950 . S
H661 C672 0.950 . S
H662 C674 0.950 . S
H663 C675 0.950 . S
C664 H656 0.950 . S
C664 C665 1.386 . S
C664 C666 1.391 . S
C665 C664 1.386 . S
C665 C669 1.393 . S
C666 H658 0.950 . S
C666 C664 1.391 . S
C666 C667 1.400 . S
C667 C666 1.400 . S
C667 C668 1.398 . S
C667 C673 1.491 . S
C668 H659 0.950 . S
C668 C667 1.398 . S
C668 C669 1.391 . S
C669 H657 0.950 . S
C669 C665 1.393 . S
C669 C668 1.391 . S
C670 H660 0.950 . S
C670 C671 1.386 . S
C670 C672 1.391 . S
C671 C670 1.386 . S
C671 C675 1.393 . S
C672 H661 0.950 . S
C672 C670 1.391 . S
C672 C673 1.400 . S
C673 C667 1.491 . S
C673 C672 1.400 . S
C673 C674 1.398 . S
C674 H662 0.950 . S
C674 C673 1.398 . S
C674 C675 1.391 . S
C675 H663 0.950 . S
C675 C671 1.393 . S
C675 C674 1.391 . S
H676 C684 0.950 . S
H677 C689 0.950 . S
H678 C686 0.950 . S
H679 C688 0.950 . S
H680 C690 0.950 . S
H681 C692 0.950 . S
H682 C694 0.950 . S
H683 C695 0.950 . S
C684 H676 0.950 . S
C684 C685 1.386 . S
C684 C686 1.391 . S
C685 C684 1.386 . S
C685 C689 1.393 . S
C686 H678 0.950 . S
C686 C684 1.391 . S
C686 C687 1.400 . S
C687 C686 1.400 . S
C687 C688 1.398 . S
C687 C693 1.491 . S
C688 H679 0.950 . S
C688 C687 1.398 . S
C688 C689 1.391 . S
C689 H677 0.950 . S
C689 C685 1.393 . S
C689 C688 1.391 . S
C690 H680 0.950 . S
C690 C691 1.386 . S
C690 C692 1.391 . S
C691 C690 1.386 . S
C691 C695 1.393 . S
C692 H681 0.950 . S
C692 C690 1.391 . S
C692 C693 1.400 . S
C693 C687 1.491 . S
C693 C692 1.400 . S
C693 C694 1.398 . S
C694 H682 0.950 . S
C694 C693 1.398 . S
C694 C695 1.391 . S
C695 H683 0.950 . S
C695 C691 1.393 . S
C695 C694 1.391 . S
H696 C704 0.950 . S
H697 C709 0.950 . S
H698 C706 0.950 . S
H699 C708 0.950 . S
H700 C710 0.950 . S
H701 C712 0.950 . S
H702 C714 0.950 . S
H703 C715 0.950 . S
C704 H696 0.950 . S
C704 C705 1.386 . S
C704 C706 1.391 . S
C705 C704 1.386 . S
C705 C709 1.393 . S
C706 H698 0.950 . S
C706 C704 1.391 . S
C706 C707 1.400 . S
C707 C706 1.400 . S
C707 C708 1.398 . S
C707 C713 1.491 . S
C708 H699 0.950 . S
C708 C707 1.398 . S
C708 C709 1.391 . S
C709 H697 0.950 . S
C709 C705 1.393 . S
C709 C708 1.391 . S
C710 H700 0.950 . S
C710 C711 1.386 . S
C710 C712 1.391 . S
C711 C710 1.386 . S
C711 C715 1.393 . S
C712 H701 0.950 . S
C712 C710 1.391 . S
C712 C713 1.400 . S
C713 C707 1.491 . S
C713 C712 1.400 . S
C713 C714 1.398 . S
C714 H702 0.950 . S
C714 C713 1.398 . S
C714 C715 1.391 . S
C715 H703 0.950 . S
C715 C711 1.393 . S
C715 C714 1.391 . S
H716 C724 0.950 . S
H717 C729 0.950 . S
H718 C726 0.950 . S
H719 C728 0.950 . S
H720 C730 0.950 . S
H721 C732 0.950 . S
H722 C734 0.950 . S
H723 C735 0.950 . S
C724 H716 0.950 . S
C724 C725 1.386 . S
C724 C726 1.391 . S
C725 C724 1.386 . S
C725 C729 1.393 . S
C726 H718 0.950 . S
C726 C724 1.391 . S
C726 C727 1.400 . S
C727 C726 1.400 . S
C727 C728 1.398 . S
C727 C733 1.491 . S
C728 H719 0.950 . S
C728 C727 1.398 . S
C728 C729 1.391 . S
C729 H717 0.950 . S
C729 C725 1.393 . S
C729 C728 1.391 . S
C730 H720 0.950 . S
C730 C731 1.386 . S
C730 C732 1.391 . S
C731 C730 1.386 . S
C731 C735 1.393 . S
C732 H721 0.950 . S
C732 C730 1.391 . S
C732 C733 1.400 . S
C733 C727 1.491 . S
C733 C732 1.400 . S
C733 C734 1.398 . S
C734 H722 0.950 . S
C734 C733 1.398 . S
C734 C735 1.391 . S
C735 H723 0.950 . S
C735 C731 1.393 . S
C735 C734 1.391 . S
H736 C744 0.950 . S
H737 C749 0.950 . S
H738 C746 0.950 . S
H739 C748 0.950 . S
H740 C750 0.950 . S
H741 C752 0.950 . S
H742 C754 0.950 . S
H743 C755 0.950 . S
C744 H736 0.950 . S
C744 C745 1.386 . S
C744 C746 1.391 . S
C745 C744 1.386 . S
C745 C749 1.393 . S
C746 H738 0.950 . S
C746 C744 1.391 . S
C746 C747 1.400 . S
C747 C746 1.400 . S
C747 C748 1.398 . S
C747 C753 1.491 . S
C748 H739 0.950 . S
C748 C747 1.398 . S
C748 C749 1.391 . S
C749 H737 0.950 . S
C749 C745 1.393 . S
C749 C748 1.391 . S
C750 H740 0.950 . S
C750 C751 1.386 . S
C750 C752 1.391 . S
C751 C750 1.386 . S
C751 C755 1.393 . S
C752 H741 0.950 . S
C752 C750 1.391 . S
C752 C753 1.400 . S
C753 C747 1.491 . S
C753 C752 1.400 . S
C753 C754 1.398 . S
C754 H742 0.950 . S
C754 C753 1.398 . S
C754 C755 1.391 . S
C755 H743 0.950 . S
C755 C751 1.393 . S
C755 C754 1.391 . S
H756 C764 0.950 . S
H757 C769 0.950 . S
H758 C766 0.950 . S
H759 C768 0.950 . S
H760 C770 0.950 . S
H761 C772 0.950 . S
H762 C774 0.950 . S
H763 C775 0.950 . S
C764 H756 0.950 . S
C764 C765 1.386 . S
C764 C766 1.391 . S
C765 C764 1.386 . S
C765 C769 1.393 . S
C766 H758 0.950 . S
C766 C764 1.391 . S
C766 C767 1.400 . S
C767 C766 1.400 . S
C767 C768 1.398 . S
C767 C773 1.491 . S
C768 H759 0.950 . S
C768 C767 1.398 . S
C768 C769 1.391 . S
C769 H757 0.950 . S
C769 C765 1.393 . S
C769 C768 1.391 . S
C770 H760 0.950 . S
C770 C771 1.386 . S
C770 C772 1.391 . S
C771 C770 1.386 . S
C771 C775 1.393 . S
C772 H761 0.950 . S
C772 C770 1.391 . S
C772 C773 1.400 . S
C773 C767 1.491 . S
C773 C772 1.400 . S
C773 C774 1.398 . S
C774 H762 0.950 . S
C774 C773 1.398 . S
C774 C775 1.391 . S
C775 H763 0.950 . S
C775 C771 1.393 . S
C775 C774 1.391 . S
H776 C784 0.950 . S
H777 C789 0.950 . S
H778 C786 0.950 . S
H779 C788 0.923 1_655 S
H780 C790 0.950 . S
H781 C792 0.950 . S
H782 C794 0.923 1_455 S
H783 C795 0.950 . S
C784 H776 0.950 . S
C784 C785 1.386 . S
C784 C786 1.391 . S
C785 C784 1.386 . S
C785 C789 1.393 . S
C786 H778 0.950 . S
C786 C784 1.391 . S
C786 C787 1.400 . S
C787 C786 1.400 . S
C787 C788 1.420 . S
C787 C793 1.491 1_455 S
C788 H779 0.923 1_455 S
C788 C787 1.420 . S
C788 C789 1.395 . S
C789 H777 0.950 . S
C789 C785 1.393 . S
C789 C788 1.395 . S
C790 H780 0.950 . S
C790 C791 1.386 . S
C790 C792 1.391 . S
C791 C790 1.386 . S
C791 C795 1.393 . S
C792 H781 0.950 . S
C792 C790 1.391 . S
C792 C793 1.400 . S
C793 C787 1.491 1_655 S
C793 C792 1.400 . S
C793 C794 1.421 . S
C794 H782 0.923 1_655 S
C794 C793 1.421 . S
C794 C795 1.395 . S
C795 H783 0.950 . S
C795 C791 1.393 . S
C795 C794 1.395 . S
H796 C804 0.950 . S
H797 C809 0.950 . S
H798 C806 0.950 . S
H799 C808 0.950 1_565 S
H800 C810 0.950 . S
H801 C812 0.950 . S
H802 C814 0.950 1_545 S
H803 C815 0.950 . S
C804 H796 0.950 . S
C804 C805 1.386 . S
C804 C806 1.391 . S
C805 C804 1.386 . S
C805 C809 1.393 . S
C806 H798 0.950 . S
C806 C804 1.391 . S
C806 C807 1.400 . S
C807 C806 1.400 . S
C807 C808 1.398 . S
C807 C813 1.491 1_545 S
C808 H799 0.950 1_545 S
C808 C807 1.398 . S
C808 C809 1.391 . S
C809 H797 0.950 . S
C809 C805 1.393 . S
C809 C808 1.391 . S
C810 H800 0.950 . S
C810 C811 1.386 . S
C810 C812 1.391 . S
C811 C810 1.386 . S
C811 C815 1.393 . S
C812 H801 0.950 . S
C812 C810 1.391 . S
C812 C813 1.400 . S
C813 C807 1.491 1_565 S
C813 C812 1.400 . S
C813 C814 1.398 . S
C814 H802 0.950 1_565 S
C814 C813 1.398 . S
C814 C815 1.391 . S
C815 H803 0.950 . S
C815 C811 1.393 . S
C815 C814 1.391 . S
H816 C824 0.950 . S
H817 C829 0.950 . S
H818 C826 0.950 . S
H819 C828 0.950 . S
H820 C830 0.950 . S
H821 C832 0.950 . S
H822 C834 0.950 . S
H823 C835 0.950 . S
C824 H816 0.950 . S
C824 C825 1.386 . S
C824 C826 1.391 . S
C825 C824 1.386 . S
C825 C829 1.393 . S
C826 H818 0.950 . S
C826 C824 1.391 . S
C826 C827 1.400 . S
C827 C826 1.400 . S
C827 C828 1.398 . S
C827 C833 1.491 . S
C828 H819 0.950 . S
C828 C827 1.398 . S
C828 C829 1.391 . S
C829 H817 0.950 . S
C829 C825 1.393 . S
C829 C828 1.391 . S
C830 H820 0.950 . S
C830 C831 1.386 . S
C830 C832 1.391 . S
C831 C830 1.386 . S
C831 C835 1.393 . S
C832 H821 0.950 . S
C832 C830 1.391 . S
C832 C833 1.400 . S
C833 C827 1.491 . S
C833 C832 1.400 . S
C833 C834 1.398 . S
C834 H822 0.950 . S
C834 C833 1.398 . S
C834 C835 1.391 . S
C835 H823 0.950 . S
C835 C831 1.393 . S
C835 C834 1.391 . S
H836 C844 0.950 . S
H837 C849 0.950 . S
H838 C846 0.950 1_455 S
H839 C848 0.950 . S
H840 C850 0.950 . S
H841 C852 0.950 1_655 S
H842 C854 0.950 . S
H843 C855 0.950 . S
C844 H836 0.950 . S
C844 C845 1.386 . S
C844 C846 1.391 . S
C845 C844 1.386 . S
C845 C849 1.393 . S
C846 H838 0.950 1_655 S
C846 C844 1.391 . S
C846 C847 1.400 . S
C847 C846 1.400 . S
C847 C848 1.398 . S
C847 C853 1.491 1_655 S
C848 H839 0.950 . S
C848 C847 1.398 . S
C848 C849 1.391 . S
C849 H837 0.950 . S
C849 C845 1.393 . S
C849 C848 1.391 . S
C850 H840 0.950 . S
C850 C851 1.386 . S
C850 C852 1.391 . S
C851 C850 1.386 . S
C851 C855 1.393 . S
C852 H841 0.950 1_455 S
C852 C850 1.391 . S
C852 C853 1.400 . S
C853 C847 1.491 1_455 S
C853 C852 1.400 . S
C853 C854 1.398 . S
C854 H842 0.950 . S
C854 C853 1.398 . S
C854 C855 1.391 . S
C855 H843 0.950 . S
C855 C851 1.393 . S
C855 C854 1.391 . S
H856 C864 0.950 . S
H857 C869 0.950 . S
H858 C866 0.950 1_545 S
H859 C868 0.950 . S
H860 C870 0.950 . S
H861 C872 0.950 1_565 S
H862 C874 0.950 . S
H863 C875 0.950 . S
C864 H856 0.950 . S
C864 C865 1.386 . S
C864 C866 1.391 . S
C865 C864 1.386 . S
C865 C869 1.393 . S
C866 H858 0.950 1_565 S
C866 C864 1.391 . S
C866 C867 1.400 . S
C867 C866 1.400 . S
C867 C868 1.398 . S
C867 C873 1.491 1_565 S
C868 H859 0.950 . S
C868 C867 1.398 . S
C868 C869 1.391 . S
C869 H857 0.950 . S
C869 C865 1.393 . S
C869 C868 1.391 . S
C870 H860 0.950 . S
C870 C871 1.386 . S
C870 C872 1.391 . S
C871 C870 1.386 . S
C871 C875 1.393 . S
C872 H861 0.950 1_545 S
C872 C870 1.391 . S
C872 C873 1.400 . S
C873 C867 1.491 1_545 S
C873 C872 1.400 . S
C873 C874 1.398 . S
C874 H862 0.950 . S
C874 C873 1.398 . S
C874 C875 1.391 . S
C875 H863 0.950 . S
C875 C871 1.393 . S
C875 C874 1.391 . S
H876 C884 0.950 . S
H877 C889 0.950 . S
H878 C886 0.950 . S
H879 C888 0.950 . S
H880 C890 0.950 . S
H881 C892 0.950 . S
H882 C894 0.950 . S
H883 C895 0.950 . S
C884 H876 0.950 . S
C884 C885 1.386 . S
C884 C886 1.391 . S
C885 C884 1.386 . S
C885 C889 1.393 . S
C886 H878 0.950 . S
C886 C884 1.391 . S
C886 C887 1.400 . S
C887 C886 1.400 . S
C887 C888 1.398 . S
C887 C893 1.491 . S
C888 H879 0.950 . S
C888 C887 1.398 . S
C888 C889 1.391 . S
C889 H877 0.950 . S
C889 C885 1.393 . S
C889 C888 1.391 . S
C890 H880 0.950 . S
C890 C891 1.386 . S
C890 C892 1.391 . S
C891 C890 1.386 . S
C891 C895 1.393 . S
C892 H881 0.950 . S
C892 C890 1.391 . S
C892 C893 1.400 . S
C893 C887 1.491 . S
C893 C892 1.400 . S
C893 C894 1.398 . S
C894 H882 0.950 . S
C894 C893 1.398 . S
C894 C895 1.391 . S
C895 H883 0.950 . S
C895 C891 1.393 . S
C895 C894 1.391 . S
H896 C904 0.950 . S
H897 C909 0.950 . S
H898 C906 0.950 . S
H899 C908 0.950 . S
H900 C910 0.950 . S
H901 C912 0.950 . S
H902 C914 0.950 . S
H903 C915 0.950 . S
C904 H896 0.950 . S
C904 C905 1.386 1_455 S
C904 C906 1.391 . S
C905 C904 1.386 1_655 S
C905 C909 1.393 . S
C906 H898 0.950 . S
C906 C904 1.391 . S
C906 C907 1.400 1_455 S
C907 C906 1.400 1_655 S
C907 C908 1.398 . S
C907 C913 1.491 1_655 S
C908 H899 0.950 . S
C908 C907 1.398 . S
C908 C909 1.391 . S
C909 H897 0.950 . S
C909 C905 1.393 . S
C909 C908 1.391 . S
C910 H900 0.950 . S
C910 C911 1.386 1_655 S
C910 C912 1.391 . S
C911 C910 1.386 1_455 S
C911 C915 1.393 . S
C912 H901 0.950 . S
C912 C910 1.391 . S
C912 C913 1.400 1_655 S
C913 C907 1.491 1_455 S
C913 C912 1.400 1_455 S
C913 C914 1.398 . S
C914 H902 0.950 . S
C914 C913 1.398 . S
C914 C915 1.391 . S
C915 H903 0.950 . S
C915 C911 1.393 . S
C915 C914 1.391 . S
H916 C924 0.950 . S
H917 C929 0.950 . S
H918 C926 0.950 1_554 S
H919 C928 0.950 1_545 S
H920 C930 0.950 . S
H921 C932 0.950 1_556 S
H922 C934 0.950 1_565 S
H923 C935 0.950 . S
C924 H916 0.950 . S
C924 C925 1.386 . S
C924 C926 1.391 . S
C925 C924 1.386 . S
C925 C929 1.393 . S
C926 H918 0.950 1_556 S
C926 C924 1.391 . S
C926 C927 1.400 . S
C927 C926 1.400 . S
C927 C928 1.398 . S
C927 C933 1.491 1_566 S
C928 H919 0.950 1_565 S
C928 C927 1.398 . S
C928 C929 1.391 . S
C929 H917 0.950 . S
C929 C925 1.393 . S
C929 C928 1.391 . S
C930 H920 0.950 . S
C930 C931 1.386 . S
C930 C932 1.391 . S
C931 C930 1.386 . S
C931 C935 1.393 . S
C932 H921 0.950 1_554 S
C932 C930 1.391 . S
C932 C933 1.400 . S
C933 C927 1.491 1_544 S
C933 C932 1.400 . S
C933 C934 1.398 . S
C934 H922 0.950 1_545 S
C934 C933 1.398 . S
C934 C935 1.391 . S
C935 H923 0.950 . S
C935 C931 1.393 . S
C935 C934 1.391 . S
H936 C944 0.950 . S
H937 C949 0.950 . S
H938 C946 0.950 . S
H939 C948 0.950 . S
H940 C950 0.950 . S
H941 C952 0.950 . S
H942 C954 0.950 . S
H943 C955 0.950 . S
C944 H936 0.950 . S
C944 C945 1.386 . S
C944 C946 1.391 . S
C945 C944 1.386 . S
C945 C949 1.393 . S
C946 H938 0.950 . S
C946 C944 1.391 . S
C946 C947 1.400 . S
C947 C946 1.400 . S
C947 C948 1.398 . S
C947 C953 1.491 . S
C948 H939 0.950 . S
C948 C947 1.398 . S
C948 C949 1.391 . S
C949 H937 0.950 . S
C949 C945 1.393 . S
C949 C948 1.391 . S
C950 H940 0.950 . S
C950 C951 1.386 . S
C950 C952 1.391 . S
C951 C950 1.386 . S
C951 C955 1.393 . S
C952 H941 0.950 . S
C952 C950 1.391 . S
C952 C953 1.400 . S
C953 C947 1.491 . S
C953 C952 1.400 . S
C953 C954 1.398 . S
C954 H942 0.950 . S
C954 C953 1.398 . S
C954 C955 1.391 . S
C955 H943 0.950 . S
C955 C951 1.393 . S
C955 C954 1.391 . S
H956 C964 0.950 . S
H957 C969 0.950 . S
H958 C966 0.950 . S
H959 C968 0.950 . S
H960 C970 0.950 . S
H961 C972 0.950 . S
H962 C974 0.950 1_455 S
H963 C975 0.950 . S
C964 H956 0.950 . S
C964 C965 1.386 . S
C964 C966 1.391 . S
C965 C964 1.386 . S
C965 C969 1.393 . S
C966 H958 0.950 . S
C966 C964 1.391 . S
C966 C967 1.400 . S
C967 C966 1.400 . S
C967 C968 1.398 1_455 S
C967 C973 1.491 1_455 S
C968 H959 0.950 . S
C968 C967 1.398 1_655 S
C968 C969 1.391 1_655 S
C969 H957 0.950 . S
C969 C965 1.393 . S
C969 C968 1.391 1_455 S
C970 H960 0.950 . S
C970 C971 1.386 . S
C970 C972 1.391 . S
C971 C970 1.386 . S
C971 C975 1.393 . S
C972 H961 0.950 . S
C972 C970 1.391 . S
C972 C973 1.400 . S
C973 C967 1.491 1_655 S
C973 C972 1.400 . S
C973 C974 1.398 . S
C974 H962 0.950 1_655 S
C974 C973 1.398 . S
C974 C975 1.391 . S
C975 H963 0.950 . S
C975 C971 1.393 . S
C975 C974 1.391 . S
H976 C984 0.950 . S
H977 C989 0.950 . S
H978 C986 0.950 1_545 S
H979 C988 0.950 1_556 S
H980 C990 0.950 . S
H981 C992 0.950 1_565 S
H982 C994 0.950 1_554 S
H983 C995 0.950 . S
C984 H976 0.950 . S
C984 C985 1.386 . S
C984 C986 1.391 . S
C985 C984 1.386 . S
C985 C989 1.393 . S
C986 H978 0.950 1_565 S
C986 C984 1.391 . S
C986 C987 1.400 . S
C987 C986 1.400 . S
C987 C988 1.398 . S
C987 C993 1.491 1_564 S
C988 H979 0.950 1_554 S
C988 C987 1.398 . S
C988 C989 1.391 . S
C989 H977 0.950 . S
C989 C985 1.393 . S
C989 C988 1.391 . S
C990 H980 0.950 . S
C990 C991 1.386 . S
C990 C992 1.391 . S
C991 C990 1.386 . S
C991 C995 1.393 . S
C992 H981 0.950 1_545 S
C992 C990 1.391 . S
C992 C993 1.400 . S
C993 C987 1.491 1_546 S
C993 C992 1.400 . S
C993 C994 1.398 . S
C994 H982 0.950 1_556 S
C994 C993 1.398 . S
C994 C995 1.391 . S
C995 H983 0.950 . S
C995 C991 1.393 . S
C995 C994 1.391 . S
H996 C1004 0.950 . S
H997 C1009 0.950 1_455 S
H998 C1006 0.950 . S
H999 C1008 0.950 . S
H1000 C1010 0.950 . S
H1001 C1012 0.950 . S
H1002 C1014 0.950 . S
H1003 C1015 0.950 . S
C1004 H996 0.950 . S
C1004 C1005 1.386 . S
C1004 C1006 1.391 . S
C1005 C1004 1.386 . S
C1005 C1009 1.393 . S
C1006 H998 0.950 . S
C1006 C1004 1.391 . S
C1006 C1007 1.400 1_655 S
C1007 C1006 1.400 1_455 S
C1007 C1008 1.398 . S
C1007 C1013 1.491 . S
C1008 H999 0.950 . S
C1008 C1007 1.398 . S
C1008 C1009 1.391 1_455 S
C1009 H997 0.950 1_655 S
C1009 C1005 1.393 . S
C1009 C1008 1.391 1_655 S
C1010 H1000 0.950 . S
C1010 C1011 1.386 . S
C1010 C1012 1.391 . S
C1011 C1010 1.386 . S
C1011 C1015 1.393 . S
C1012 H1001 0.950 . S
C1012 C1010 1.391 . S
C1012 C1013 1.400 . S
C1013 C1007 1.491 . S
C1013 C1012 1.400 . S
C1013 C1014 1.398 . S
C1014 H1002 0.950 . S
C1014 C1013 1.398 . S
C1014 C1015 1.391 . S
C1015 H1003 0.950 . S
C1015 C1011 1.393 . S
C1015 C1014 1.391 . S
H1016 C1024 0.950 . S
H1017 C1029 0.950 . S
H1018 C1026 0.950 1_565 S
H1019 C1028 0.950 . S
H1020 C1030 0.950 . S
H1021 C1032 0.950 1_545 S
H1022 C1034 0.950 . S
H1023 C1035 0.950 . S
C1024 H1016 0.950 . S
C1024 C1025 1.386 . S
C1024 C1026 1.391 . S
C1025 C1024 1.386 . S
C1025 C1029 1.393 . S
C1026 H1018 0.950 1_545 S
C1026 C1024 1.391 . S
C1026 C1027 1.400 . S
C1027 C1026 1.400 . S
C1027 C1028 1.398 . S
C1027 C1033 1.491 1_545 S
C1028 H1019 0.950 . S
C1028 C1027 1.398 . S
C1028 C1029 1.391 . S
C1029 H1017 0.950 . S
C1029 C1025 1.393 . S
C1029 C1028 1.391 . S
C1030 H1020 0.950 . S
C1030 C1031 1.386 . S
C1030 C1032 1.391 . S
C1031 C1030 1.386 . S
C1031 C1035 1.393 . S
C1032 H1021 0.950 1_565 S
C1032 C1030 1.391 . S
C1032 C1033 1.400 . S
C1033 C1027 1.491 1_565 S
C1033 C1032 1.400 . S
C1033 C1034 1.398 . S
C1034 H1022 0.950 . S
C1034 C1033 1.398 . S
C1034 C1035 1.391 . S
C1035 H1023 0.950 . S
C1035 C1031 1.393 . S
C1035 C1034 1.391 . S
H1036 C1044 0.950 . S
H1037 C1049 0.950 . S
H1038 C1046 0.950 . S
H1039 C1048 0.950 . S
H1040 C1050 0.950 . S
H1041 C1052 0.950 . S
H1042 C1054 0.950 . S
H1043 C1055 0.950 . S
C1044 H1036 0.950 . S
C1044 C1045 1.386 . S
C1044 C1046 1.391 . S
C1045 C1044 1.386 . S
C1045 C1049 1.393 . S
C1046 H1038 0.950 . S
C1046 C1044 1.391 . S
C1046 C1047 1.400 . S
C1047 C1046 1.400 . S
C1047 C1048 1.398 . S
C1047 C1053 1.491 . S
C1048 H1039 0.950 . S
C1048 C1047 1.398 . S
C1048 C1049 1.391 . S
C1049 H1037 0.950 . S
C1049 C1045 1.393 . S
C1049 C1048 1.391 . S
C1050 H1040 0.950 . S
C1050 C1051 1.386 . S
C1050 C1052 1.391 . S
C1051 C1050 1.386 . S
C1051 C1055 1.393 . S
C1052 H1041 0.950 . S
C1052 C1050 1.391 . S
C1052 C1053 1.400 . S
C1053 C1047 1.491 . S
C1053 C1052 1.400 . S
C1053 C1054 1.398 . S
C1054 H1042 0.950 . S
C1054 C1053 1.398 . S
C1054 C1055 1.391 . S
C1055 H1043 0.950 . S
C1055 C1051 1.393 . S
C1055 C1054 1.391 . S
H1056 C1064 0.950 . S
H1057 C1069 0.950 . S
H1058 C1066 0.950 . S
H1059 C1068 0.950 . S
H1060 C1070 0.950 . S
H1061 C1072 0.950 . S
H1062 C1074 0.950 1_655 S
H1063 C1075 0.950 . S
C1064 H1056 0.950 . S
C1064 C1065 1.386 . S
C1064 C1066 1.391 . S
C1065 C1064 1.386 . S
C1065 C1069 1.393 . S
C1066 H1058 0.950 . S
C1066 C1064 1.391 . S
C1066 C1067 1.400 . S
C1067 C1066 1.400 . S
C1067 C1068 1.398 . S
C1067 C1073 1.491 . S
C1068 H1059 0.950 . S
C1068 C1067 1.398 . S
C1068 C1069 1.391 . S
C1069 H1057 0.950 . S
C1069 C1065 1.393 . S
C1069 C1068 1.391 . S
C1070 H1060 0.950 . S
C1070 C1071 1.386 . S
C1070 C1072 1.391 1_455 S
C1071 C1070 1.386 . S
C1071 C1075 1.393 . S
C1072 H1061 0.950 . S
C1072 C1070 1.391 1_655 S
C1072 C1073 1.400 . S
C1073 C1067 1.491 . S
C1073 C1072 1.400 . S
C1073 C1074 1.398 1_655 S
C1074 H1062 0.950 1_455 S
C1074 C1073 1.398 1_455 S
C1074 C1075 1.391 . S
C1075 H1063 0.950 . S
C1075 C1071 1.393 . S
C1075 C1074 1.391 . S
H1076 C1084 0.950 . S
H1077 C1089 0.950 . S
H1078 C1086 0.950 . S
H1079 C1088 0.950 . S
H1080 C1090 0.950 . S
H1081 C1092 0.950 . S
H1082 C1094 0.950 . S
H1083 C1095 0.950 . S
C1084 H1076 0.950 . S
C1084 C1085 1.386 . S
C1084 C1086 1.391 . S
C1085 C1084 1.386 . S
C1085 C1089 1.393 . S
C1086 H1078 0.950 . S
C1086 C1084 1.391 . S
C1086 C1087 1.400 . S
C1087 C1086 1.400 . S
C1087 C1088 1.398 . S
C1087 C1093 1.491 1_565 S
C1088 H1079 0.950 . S
C1088 C1087 1.398 . S
C1088 C1089 1.391 . S
C1089 H1077 0.950 . S
C1089 C1085 1.393 . S
C1089 C1088 1.391 . S
C1090 H1080 0.950 . S
C1090 C1091 1.386 . S
C1090 C1092 1.391 . S
C1091 C1090 1.386 . S
C1091 C1095 1.393 . S
C1092 H1081 0.950 . S
C1092 C1090 1.391 . S
C1092 C1093 1.400 . S
C1093 C1087 1.491 1_545 S
C1093 C1092 1.400 . S
C1093 C1094 1.398 . S
C1094 H1082 0.950 . S
C1094 C1093 1.398 . S
C1094 C1095 1.391 . S
C1095 H1083 0.950 . S
C1095 C1091 1.393 . S
C1095 C1094 1.391 . S
H1096 C1104 0.950 . S
H1097 C1109 0.950 . S
H1098 C1106 0.950 . S
H1099 C1108 0.950 . S
H1100 C1110 0.950 . S
H1101 C1112 0.950 . S
H1102 C1114 0.950 . S
H1103 C1115 0.950 . S
C1104 H1096 0.950 . S
C1104 C1105 1.386 . S
C1104 C1106 1.391 . S
C1105 C1104 1.386 . S
C1105 C1109 1.393 . S
C1106 H1098 0.950 . S
C1106 C1104 1.391 . S
C1106 C1107 1.400 . S
C1107 C1106 1.400 . S
C1107 C1108 1.398 . S
C1107 C1113 1.491 . S
C1108 H1099 0.950 . S
C1108 C1107 1.398 . S
C1108 C1109 1.391 . S
C1109 H1097 0.950 . S
C1109 C1105 1.393 . S
C1109 C1108 1.391 . S
C1110 H1100 0.950 . S
C1110 C1111 1.386 . S
C1110 C1112 1.391 . S
C1111 C1110 1.386 . S
C1111 C1115 1.393 . S
C1112 H1101 0.950 . S
C1112 C1110 1.391 . S
C1112 C1113 1.400 . S
C1113 C1107 1.491 . S
C1113 C1112 1.400 . S
C1113 C1114 1.398 . S
C1114 H1102 0.950 . S
C1114 C1113 1.398 . S
C1114 C1115 1.391 . S
C1115 H1103 0.950 . S
C1115 C1111 1.393 . S
C1115 C1114 1.391 . S
C645 C463 1.891 . S
C651 C22 1.897 . S
C665 C75 2.022 . S
C671 C499 2.026 . S
C685 C145 1.885 . S
C691 C552 1.882 . S
C705 C181 1.897 . S
C711 C622 1.902 . S
C725 C340 2.017 . S
C731 C234 2.010 . S
C745 C304 1.903 . S
C751 C393 1.900 . S
C765 C197 2.191 . S
C771 C38 2.197 . S
C785 C250 2.140 . S
C791 C91 2.133 . S
C805 C294 1.325 . S
C811 C135 1.317 . S
C825 C356 2.133 . S
C831 C515 2.140 . S
C845 C409 2.191 . S
C851 C568 2.197 . S
C865 C453 1.323 . S
C871 C612 1.331 . S
C885 C29 1.916 . S
C891 C506 1.897 . S
C905 C82 1.891 . S
C911 C559 1.913 . S
C925 C144 1.522 . S
C931 C621 1.512 . S
C945 C347 1.889 . S
C951 C188 1.912 . S
C965 C241 1.903 . S
C971 C400 1.916 . S
C985 C462 1.506 . S
C991 C303 1.513 . S
C1005 C605 1.727 . S
C1011 C39 1.734 . S
C1025 C92 2.121 . S
C1031 C357 2.119 . S
C1045 C410 1.740 . S
C1051 C128 1.739 . S
C1065 C198 1.741 . S
C1071 C446 1.737 . S
C1085 C251 2.132 . S
C1091 C516 2.131 . S
C1105 C569 1.740 . S
C1111 C287 1.736 . S
