# Generated by pormake.
# Topology why, (6)-cn, num edge types: 1
# Building blocks:
#     Node 0, Type 0, BuildingBlock: VOLQOD_clean_sbu_1, # of connection points: 6
#     Node 1, Type 0, BuildingBlock: VOLQOD_clean_sbu_1, # of connection points: 6
#     Node 2, Type 0, BuildingBlock: VOLQOD_clean_sbu_1, # of connection points: 6
#     Node 3, Type 0, BuildingBlock: VOLQOD_clean_sbu_1, # of connection points: 6
#     Node 4, Type 0, BuildingBlock: VOLQOD_clean_sbu_1, # of connection points: 6
#     Node 5, Type 0, BuildingBlock: VOLQOD_clean_sbu_1, # of connection points: 6
#     Node 6, Type 0, BuildingBlock: VOLQOD_clean_sbu_1, # of connection points: 6
#     Node 7, Type 0, BuildingBlock: VOLQOD_clean_sbu_1, # of connection points: 6
#     Node 8, Type 0, BuildingBlock: VOLQOD_clean_sbu_1, # of connection points: 6
#     Node 9, Type 0, BuildingBlock: VOLQOD_clean_sbu_1, # of connection points: 6
#     Node 10, Type 0, BuildingBlock: VOLQOD_clean_sbu_1, # of connection points: 6
#     Node 11, Type 0, BuildingBlock: VOLQOD_clean_sbu_1, # of connection points: 6
#     Node 12, Type 0, BuildingBlock: VOLQOD_clean_sbu_1, # of connection points: 6
#     Node 13, Type 0, BuildingBlock: VOLQOD_clean_sbu_1, # of connection points: 6
#     Node 14, Type 0, BuildingBlock: VOLQOD_clean_sbu_1, # of connection points: 6
#     Node 15, Type 0, BuildingBlock: VOLQOD_clean_sbu_1, # of connection points: 6
#     Edge 16, Type (0, 0), BuildingBlock: AJUNOK_clean_linker_0, # of connection points: 2
#     Edge 17, Type (0, 0), BuildingBlock: AJUNOK_clean_linker_0, # of connection points: 2
#     Edge 18, Type (0, 0), BuildingBlock: AJUNOK_clean_linker_0, # of connection points: 2
#     Edge 19, Type (0, 0), BuildingBlock: AJUNOK_clean_linker_0, # of connection points: 2
#     Edge 20, Type (0, 0), BuildingBlock: AJUNOK_clean_linker_0, # of connection points: 2
#     Edge 21, Type (0, 0), BuildingBlock: AJUNOK_clean_linker_0, # of connection points: 2
#     Edge 22, Type (0, 0), BuildingBlock: AJUNOK_clean_linker_0, # of connection points: 2
#     Edge 23, Type (0, 0), BuildingBlock: AJUNOK_clean_linker_0, # of connection points: 2
#     Edge 24, Type (0, 0), BuildingBlock: AJUNOK_clean_linker_0, # of connection points: 2
#     Edge 25, Type (0, 0), BuildingBlock: AJUNOK_clean_linker_0, # of connection points: 2
#     Edge 26, Type (0, 0), BuildingBlock: AJUNOK_clean_linker_0, # of connection points: 2
#     Edge 27, Type (0, 0), BuildingBlock: AJUNOK_clean_linker_0, # of connection points: 2
#     Edge 28, Type (0, 0), BuildingBlock: AJUNOK_clean_linker_0, # of connection points: 2
#     Edge 29, Type (0, 0), BuildingBlock: AJUNOK_clean_linker_0, # of connection points: 2
#     Edge 30, Type (0, 0), BuildingBlock: AJUNOK_clean_linker_0, # of connection points: 2
#     Edge 31, Type (0, 0), BuildingBlock: AJUNOK_clean_linker_0, # of connection points: 2
#     Edge 32, Type (0, 0), BuildingBlock: AJUNOK_clean_linker_0, # of connection points: 2
#     Edge 33, Type (0, 0), BuildingBlock: AJUNOK_clean_linker_0, # of connection points: 2
#     Edge 34, Type (0, 0), BuildingBlock: AJUNOK_clean_linker_0, # of connection points: 2
#     Edge 35, Type (0, 0), BuildingBlock: AJUNOK_clean_linker_0, # of connection points: 2
#     Edge 36, Type (0, 0), BuildingBlock: AJUNOK_clean_linker_0, # of connection points: 2
#     Edge 37, Type (0, 0), BuildingBlock: AJUNOK_clean_linker_0, # of connection points: 2
#     Edge 38, Type (0, 0), BuildingBlock: AJUNOK_clean_linker_0, # of connection points: 2
#     Edge 39, Type (0, 0), BuildingBlock: AJUNOK_clean_linker_0, # of connection points: 2
#     Edge 40, Type (0, 0), BuildingBlock: AJUNOK_clean_linker_0, # of connection points: 2
#     Edge 41, Type (0, 0), BuildingBlock: AJUNOK_clean_linker_0, # of connection points: 2
#     Edge 42, Type (0, 0), BuildingBlock: AJUNOK_clean_linker_0, # of connection points: 2
#     Edge 43, Type (0, 0), BuildingBlock: AJUNOK_clean_linker_0, # of connection points: 2
#     Edge 44, Type (0, 0), BuildingBlock: AJUNOK_clean_linker_0, # of connection points: 2
#     Edge 45, Type (0, 0), BuildingBlock: AJUNOK_clean_linker_0, # of connection points: 2
#     Edge 46, Type (0, 0), BuildingBlock: AJUNOK_clean_linker_0, # of connection points: 2
#     Edge 47, Type (0, 0), BuildingBlock: AJUNOK_clean_linker_0, # of connection points: 2
#     Edge 48, Type (0, 0), BuildingBlock: AJUNOK_clean_linker_0, # of connection points: 2
#     Edge 49, Type (0, 0), BuildingBlock: AJUNOK_clean_linker_0, # of connection points: 2
#     Edge 50, Type (0, 0), BuildingBlock: AJUNOK_clean_linker_0, # of connection points: 2
#     Edge 51, Type (0, 0), BuildingBlock: AJUNOK_clean_linker_0, # of connection points: 2
#     Edge 52, Type (0, 0), BuildingBlock: AJUNOK_clean_linker_0, # of connection points: 2
#     Edge 53, Type (0, 0), BuildingBlock: AJUNOK_clean_linker_0, # of connection points: 2
#     Edge 54, Type (0, 0), BuildingBlock: AJUNOK_clean_linker_0, # of connection points: 2
#     Edge 55, Type (0, 0), BuildingBlock: AJUNOK_clean_linker_0, # of connection points: 2
#     Edge 56, Type (0, 0), BuildingBlock: AJUNOK_clean_linker_0, # of connection points: 2
#     Edge 57, Type (0, 0), BuildingBlock: AJUNOK_clean_linker_0, # of connection points: 2
#     Edge 58, Type (0, 0), BuildingBlock: AJUNOK_clean_linker_0, # of connection points: 2
#     Edge 59, Type (0, 0), BuildingBlock: AJUNOK_clean_linker_0, # of connection points: 2
#     Edge 60, Type (0, 0), BuildingBlock: AJUNOK_clean_linker_0, # of connection points: 2
#     Edge 61, Type (0, 0), BuildingBlock: AJUNOK_clean_linker_0, # of connection points: 2
#     Edge 62, Type (0, 0), BuildingBlock: AJUNOK_clean_linker_0, # of connection points: 2
#     Edge 63, Type (0, 0), BuildingBlock: AJUNOK_clean_linker_0, # of connection points: 2
# Relax obj value: 0.320
# Max RMSD: 0.188
# Mean RMSD: 0.188
data_MOF--net-why--node1-VOLQOD_clean_sbu_1--edge1-AJUNOK_clean_linker_0
_symmetry_space_group_name_H-M    P1
_symmetry_Int_Tables_number       1
_symmetry_cell_setting            triclinic
loop_
_symmetry_equiv_pos_as_xyz
'x, y, z'
_cell_length_a     38.404476
_cell_length_b     38.418434
_cell_length_c     24.827681
_cell_angle_alpha  89.946707
_cell_angle_beta   89.921997
_cell_angle_gamma 90.085809
loop_
_atom_site_label
_atom_site_type_symbol
_atom_site_fract_x
_atom_site_fract_y
_atom_site_fract_z
_atom_type_partial_charge
O0 O 0.32077 0.2207 0.9458 0.0
Zn1 Zn 0.31733 0.1722 0.97173 0.0
O2 O 0.33051 0.16885 0.04638 0.0
Zn3 Zn 0.37357 0.14346 0.04964 0.0
Zn4 Zn 0.33652 0.21573 0.07676 0.0
Zn5 Zn 0.29478 0.14251 0.08481 0.0
O6 O 0.36975 0.1045 0.10098 0.0
O7 O 0.31441 0.10174 0.12574 0.0
O8 O 0.3473 0.1436 0.92287 0.0
O9 O 0.38756 0.12336 0.97818 0.0
O10 O 0.4116 0.17365 0.07668 0.0
O11 O 0.38544 0.2214 0.10676 0.0
O12 O 0.29969 0.22446 0.13469 0.0
O13 O 0.26946 0.15557 0.96109 0.0
O14 O 0.27229 0.17355 0.13825 0.0
O15 O 0.25653 0.12609 0.03538 0.0
C16 C 0.32753 0.24992 0.96727 0.0
C17 C 0.34549 0.09047 0.12818 0.0
C18 C 0.41272 0.20287 0.1006 0.0
C19 C 0.37444 0.12559 0.93128 0.0
C20 C 0.27596 0.20474 0.15425 0.0
C21 C 0.24917 0.13593 0.98778 0.0
O22 O 0.33358 0.25251 0.01761 0.0
O23 O 0.50028 0.57254 0.18909 0.0
Zn24 Zn 0.54784 0.56893 0.21831 0.0
O25 O 0.54784 0.57927 0.29421 0.0
Zn26 Zn 0.57259 0.62266 0.3045 0.0
Zn27 Zn 0.49996 0.58349 0.32141 0.0
Zn28 Zn 0.57244 0.54198 0.33078 0.0
O29 O 0.60804 0.61735 0.36206 0.0
O30 O 0.61299 0.56 0.37227 0.0
O31 O 0.57784 0.60139 0.17578 0.0
O32 O 0.59679 0.63894 0.23649 0.0
O33 O 0.54005 0.66005 0.32776 0.0
O34 O 0.49135 0.6323 0.34976 0.0
O35 O 0.49024 0.54696 0.37947 0.0
O36 O 0.56514 0.52152 0.20372 0.0
O37 O 0.54083 0.51927 0.38361 0.0
O38 O 0.58883 0.50448 0.28063 0.0
C39 C 0.47006 0.57606 0.20917 0.0
C40 C 0.62224 0.59091 0.3835 0.0
C41 C 0.50918 0.66026 0.34634 0.0
C42 C 0.59597 0.62786 0.18814 0.0
C43 C 0.50958 0.52314 0.39932 0.0
C44 C 0.58218 0.49946 0.23112 0.0
O45 O 0.46549 0.57908 0.25983 0.0
O46 O 0.14217 0.74549 0.44592 0.0
Zn47 Zn 0.14656 0.79334 0.47413 0.0
O48 O 0.13165 0.79538 0.54834 0.0
Zn49 Zn 0.08823 0.82015 0.55035 0.0
Zn50 Zn 0.12487 0.74824 0.57666 0.0
Zn51 Zn 0.1665 0.82098 0.58984 0.0
O52 O 0.09084 0.85873 0.60222 0.0
O53 O 0.14572 0.86176 0.62929 0.0
O54 O 0.11842 0.82385 0.42476 0.0
O55 O 0.07617 0.84125 0.47912 0.0
O56 O 0.04936 0.78953 0.57418 0.0
O57 O 0.07551 0.74206 0.60491 0.0
O58 O 0.16068 0.73839 0.63515 0.0
O59 O 0.19559 0.80786 0.46774 0.0
O60 O 0.18767 0.78924 0.64443 0.0
O61 O 0.20633 0.83737 0.54301 0.0
C62 C 0.13496 0.71598 0.46618 0.0
C63 C 0.11455 0.87291 0.63022 0.0
C64 C 0.04802 0.76002 0.59732 0.0
C65 C 0.09074 0.84112 0.43311 0.0
C66 C 0.18366 0.75749 0.65781 0.0
C67 C 0.21524 0.82689 0.49639 0.0
O68 O 0.12857 0.71258 0.51633 0.0
O69 O 0.97121 0.39502 0.69356 0.0
Zn70 Zn 0.92277 0.39663 0.71923 0.0
O71 O 0.91943 0.38402 0.79399 0.0
Zn72 Zn 0.89501 0.34039 0.79706 0.0
Zn73 Zn 0.9663 0.37918 0.82447 0.0
Zn74 Zn 0.89223 0.41934 0.83186 0.0
O75 O 0.8559 0.34329 0.84768 0.0
O76 O 0.85174 0.39849 0.87255 0.0
O77 O 0.89517 0.36592 0.6703 0.0
O78 O 0.87494 0.32582 0.72599 0.0
O79 O 0.92575 0.30323 0.8247 0.0
O80 O 0.97291 0.33047 0.85492 0.0
O81 O 0.97377 0.4161 0.8824 0.0
O82 O 0.90416 0.44316 0.70727 0.0
O83 O 0.92256 0.44291 0.88554 0.0
O84 O 0.87441 0.45633 0.78099 0.0
C85 C 0.00055 0.38915 0.71513 0.0
C86 C 0.84115 0.36713 0.87461 0.0
C87 C 0.95485 0.30283 0.84895 0.0
C88 C 0.8772 0.33877 0.67896 0.0
C89 C 0.95371 0.43946 0.90196 0.0
C90 C 0.88342 0.46285 0.73264 0.0
O91 O 0.0032 0.38312 0.7655 0.0
O92 O 0.65216 0.75276 0.04225 0.0
Zn93 Zn 0.65216 0.80066 0.01178 0.0
O94 O 0.63684 0.80005 0.93732 0.0
Zn95 Zn 0.59267 0.82386 0.93452 0.0
Zn96 Zn 0.63109 0.7522 0.91167 0.0
Zn97 Zn 0.67069 0.82476 0.89244 0.0
O98 O 0.59442 0.86127 0.88058 0.0
O99 O 0.64864 0.86358 0.85026 0.0
O100 O 0.62077 0.82814 0.06019 0.0
O101 O 0.57878 0.84491 0.0052 0.0
O102 O 0.5547 0.79232 0.91053 0.0
O103 O 0.58175 0.74428 0.88442 0.0
O104 O 0.66594 0.74169 0.85168 0.0
O105 O 0.69891 0.8221 0.01807 0.0
O106 O 0.69196 0.79269 0.83899 0.0
O107 O 0.71033 0.84324 0.93633 0.0
C108 C 0.64462 0.72281 0.02385 0.0
C109 C 0.61731 0.87428 0.84967 0.0
C110 C 0.554 0.76221 0.88944 0.0
C111 C 0.59247 0.84426 0.0518 0.0
C112 C 0.68808 0.76079 0.82697 0.0
C113 C 0.71814 0.83902 0.98563 0.0
O114 O 0.63657 0.71863 0.97442 0.0
O115 O 0.46922 0.39381 0.78174 0.0
Zn116 Zn 0.4208 0.39795 0.75523 0.0
O117 O 0.41754 0.38256 0.68153 0.0
Zn118 Zn 0.39284 0.3391 0.68206 0.0
Zn119 Zn 0.46409 0.37533 0.65171 0.0
Zn120 Zn 0.39168 0.41697 0.63933 0.0
O121 O 0.35423 0.34118 0.63077 0.0
O122 O 0.35099 0.39521 0.60023 0.0
O123 O 0.39155 0.36978 0.80667 0.0
O124 O 0.37274 0.32724 0.75422 0.0
O125 O 0.42285 0.30014 0.65758 0.0
O126 O 0.46918 0.32638 0.62281 0.0
O127 O 0.47371 0.41048 0.59257 0.0
O128 O 0.40527 0.4466 0.76099 0.0
O129 O 0.42316 0.43791 0.58355 0.0
O130 O 0.37527 0.45684 0.68603 0.0
C131 C 0.49816 0.38533 0.7607 0.0
C132 C 0.34003 0.36391 0.60104 0.0
C133 C 0.45152 0.2989 0.63204 0.0
C134 C 0.37421 0.34193 0.80004 0.0
C135 C 0.45473 0.43332 0.56953 0.0
C136 C 0.38568 0.46593 0.73264 0.0
O137 O 0.50054 0.37821 0.7107 0.0
O138 O 0.81735 0.21955 0.53454 0.0
Zn139 Zn 0.81291 0.17133 0.50851 0.0
O140 O 0.82888 0.16829 0.43495 0.0
Zn141 Zn 0.87284 0.14471 0.43603 0.0
Zn142 Zn 0.83447 0.215 0.40402 0.0
Zn143 Zn 0.79556 0.14089 0.39384 0.0
O144 O 0.8715 0.10342 0.38965 0.0
O145 O 0.81729 0.09875 0.35998 0.0
O146 O 0.84067 0.14204 0.56041 0.0
O147 O 0.88546 0.1272 0.50919 0.0
O148 O 0.91052 0.17495 0.40804 0.0
O149 O 0.88356 0.22138 0.37493 0.0
O150 O 0.79862 0.22285 0.34445 0.0
O151 O 0.76374 0.15698 0.51366 0.0
O152 O 0.77526 0.17024 0.3358 0.0
O153 O 0.75498 0.1258 0.43939 0.0
C154 C 0.82462 0.24876 0.51335 0.0
C155 C 0.84839 0.08758 0.3627 0.0
C156 C 0.91119 0.20365 0.38259 0.0
C157 C 0.86985 0.12697 0.55436 0.0
C158 C 0.77757 0.20188 0.32118 0.0
C159 C 0.74489 0.13726 0.4848 0.0
O160 O 0.83077 0.25155 0.46303 0.0
O161 O -0.00435 0.57105 0.28184 0.0
Zn162 Zn 0.04381 0.56716 0.25477 0.0
O163 O 0.04688 0.58164 0.1804 0.0
Zn164 Zn 0.07351 0.62426 0.17841 0.0
Zn165 Zn -6e-05 0.58936 0.15175 0.0
Zn166 Zn 0.07114 0.54573 0.13912 0.0
O167 O 0.11484 0.61867 0.13184 0.0
O168 O 0.11336 0.56439 0.10095 0.0
O169 O 0.07267 0.59614 0.30483 0.0
O170 O 0.0914 0.63819 0.2512 0.0
O171 O 0.0451 0.6632 0.14891 0.0
O172 O -0.00431 0.63845 0.12273 0.0
O173 O -0.01074 0.55414 0.0928 0.0
O174 O 0.05933 0.51877 0.26318 0.0
O175 O 0.03932 0.52583 0.08389 0.0
O176 O 0.0861 0.50579 0.18641 0.0
C177 C 0.96649 0.57933 0.26157 0.0
C178 C 0.12751 0.59425 0.10353 0.0
C179 C 0.01533 0.66513 0.12675 0.0
C180 C 0.08958 0.62417 0.29755 0.0
C181 C 0.00785 0.53087 0.06999 0.0
C182 C 0.07728 0.49821 0.23442 0.0
O183 O 0.96368 0.58663 0.21165 0.0
O184 O 0.81152 0.71364 0.43929 0.0
Zn185 Zn 0.81201 0.66604 0.46944 0.0
O186 O 0.82715 0.66705 0.54398 0.0
Zn187 Zn 0.87067 0.64201 0.54708 0.0
Zn188 Zn 0.83304 0.71517 0.56963 0.0
Zn189 Zn 0.79285 0.64312 0.58844 0.0
O190 O 0.86631 0.60098 0.59431 0.0
O191 O 0.81265 0.60237 0.62782 0.0
O192 O 0.84367 0.63931 0.42058 0.0
O193 O 0.88637 0.62401 0.4752 0.0
O194 O 0.90813 0.67204 0.5765 0.0
O195 O 0.88264 0.72211 0.59721 0.0
O196 O 0.79745 0.72657 0.62939 0.0
O197 O 0.76565 0.64428 0.46225 0.0
O198 O 0.77275 0.67496 0.64196 0.0
O199 O 0.75262 0.6261 0.54497 0.0
C200 C 0.81939 0.74369 0.45679 0.0
C201 C 0.84254 0.58854 0.62422 0.0
C202 C 0.90956 0.70264 0.59577 0.0
C203 C 0.87267 0.62444 0.42862 0.0
C204 C 0.77554 0.70694 0.65376 0.0
C205 C 0.74559 0.62891 0.49524 0.0
O206 O 0.82819 0.74839 0.50586 0.0
O207 O -0.00909 0.07104 0.69777 0.0
Zn208 Zn 0.03973 0.06733 0.72245 0.0
O209 O 0.04395 0.08179 0.79659 0.0
Zn210 Zn 0.06973 0.12481 0.79757 0.0
Zn211 Zn -0.00235 0.08906 0.82761 0.0
Zn212 Zn 0.06957 0.04635 0.83672 0.0
O213 O 0.10973 0.12104 0.84671 0.0
O214 O 0.11136 0.06623 0.87453 0.0
O215 O 0.06801 0.09651 0.67139 0.0
O216 O 0.08864 0.13761 0.72498 0.0
O217 O 0.04059 0.16382 0.82465 0.0
O218 O -0.00676 0.13796 0.85678 0.0
O219 O -0.0114 0.05381 0.88695 0.0
O220 O 0.0558 0.01899 0.71366 0.0
O221 O 0.03884 0.02552 0.89293 0.0
O222 O 0.08471 0.00691 0.78879 0.0
C223 C 0.96213 0.0791 0.7197 0.0
C224 C 0.12359 0.09701 0.87443 0.0
C225 C 0.01159 0.16522 0.84933 0.0
C226 C 0.08599 0.12388 0.67857 0.0
C227 C 0.00769 0.03049 0.90856 0.0
C228 C 0.07493 -0.00111 0.74145 0.0
O229 O 0.96027 0.0862 0.76976 0.0
O230 O 0.64548 0.24161 0.94119 0.0
Zn231 Zn 0.6478 0.29002 0.96776 0.0
O232 O 0.63375 0.29262 0.04238 0.0
Zn233 Zn 0.59055 0.31814 0.04499 0.0
Zn234 Zn 0.62706 0.24552 0.07127 0.0
Zn235 Zn 0.66931 0.31782 0.08322 0.0
O236 O 0.59488 0.35876 0.09297 0.0
O237 O 0.64961 0.35952 0.12138 0.0
O238 O 0.61778 0.31822 0.91811 0.0
O239 O 0.57637 0.33682 0.9729 0.0
O240 O 0.55222 0.28868 0.07395 0.0
O241 O 0.57813 0.24016 0.101 0.0
O242 O 0.66288 0.23582 0.12977 0.0
O243 O 0.69565 0.30734 0.95872 0.0
O244 O 0.6903 0.28646 0.13845 0.0
O245 O 0.70873 0.33383 0.03554 0.0
C246 C 0.63821 0.21221 0.96173 0.0
C247 C 0.61912 0.37236 0.1206 0.0
C248 C 0.55095 0.25898 0.09652 0.0
C249 C 0.58992 0.33518 0.92621 0.0
C250 C 0.68596 0.25485 0.15229 0.0
C251 C 0.7161 0.3256 0.98724 0.0
O252 O 0.63054 0.20923 0.01153 0.0
O253 O 0.4676 0.89471 0.19559 0.0
Zn254 Zn 0.41904 0.89726 0.22159 0.0
O255 O 0.41558 0.88197 0.29532 0.0
Zn256 Zn 0.39005 0.83884 0.29538 0.0
Zn257 Zn 0.46222 0.87445 0.32511 0.0
Zn258 Zn 0.38991 0.9169 0.33677 0.0
O259 O 0.35199 0.84111 0.34843 0.0
O260 O 0.34989 0.89548 0.37786 0.0
O261 O 0.39065 0.86861 0.1703 0.0
O262 O 0.36945 0.82734 0.2232 0.0
O263 O 0.42009 0.79949 0.31879 0.0
O264 O 0.46747 0.82472 0.35186 0.0
O265 O 0.47144 0.90914 0.38526 0.0
O266 O 0.40266 0.94544 0.2147 0.0
O267 O 0.42163 0.93822 0.39138 0.0
O268 O 0.37299 0.95646 0.28965 0.0
C269 C 0.4967 0.88709 0.21673 0.0
C270 C 0.33876 0.86425 0.37858 0.0
C271 C 0.44911 0.79759 0.34316 0.0
C272 C 0.3722 0.84149 0.17702 0.0
C273 C 0.45277 0.93288 0.40674 0.0
C274 C 0.38312 0.96505 0.24261 0.0
O275 O 0.499 0.87927 0.26651 0.0
O276 O 0.14129 0.24472 0.53259 0.0
Zn277 Zn 0.14629 0.29284 0.50562 0.0
O278 O 0.13199 0.29618 0.4316 0.0
Zn279 Zn 0.08882 0.32149 0.43013 0.0
Zn280 Zn 0.12494 0.24952 0.40217 0.0
Zn281 Zn 0.16757 0.32163 0.39112 0.0
O282 O 0.09217 0.35992 0.37784 0.0
O283 O 0.14731 0.36266 0.35167 0.0
O284 O 0.11848 0.32297 0.55541 0.0
O285 O 0.0768 0.34243 0.50192 0.0
O286 O 0.04973 0.29123 0.40576 0.0
O287 O 0.07607 0.24437 0.37322 0.0
O288 O 0.16043 0.2399 0.34354 0.0
O289 O 0.19507 0.30704 0.51299 0.0
O290 O 0.18857 0.29022 0.3359 0.0
O291 O 0.20735 0.33701 0.43871 0.0
C292 C 0.13382 0.21558 0.51144 0.0
C293 C 0.11618 0.37388 0.34998 0.0
C294 C 0.04857 0.26213 0.38141 0.0
C295 C 0.09119 0.34094 0.54801 0.0
C296 C 0.18379 0.25882 0.32143 0.0
C297 C 0.21552 0.3259 0.48531 0.0
O298 O 0.12769 0.21292 0.46117 0.0
O299 O 0.96878 0.88816 0.28758 0.0
Zn300 Zn 0.92087 0.8914 0.26009 0.0
O301 O 0.91948 0.88258 0.18395 0.0
Zn302 Zn 0.89394 0.83982 0.1726 0.0
Zn303 Zn 0.9671 0.87861 0.15547 0.0
Zn304 Zn 0.89427 0.92057 0.15 0.0
O305 O 0.85777 0.84635 0.11623 0.0
O306 O 0.85245 0.90384 0.10987 0.0
O307 O 0.89102 0.85898 0.30245 0.0
O308 O 0.86995 0.82324 0.24068 0.0
O309 O 0.92586 0.8026 0.14683 0.0
O310 O 0.97475 0.83021 0.12519 0.0
O311 O 0.97561 0.91568 0.09788 0.0
O312 O 0.90433 0.93842 0.27703 0.0
O313 O 0.92495 0.94343 0.09637 0.0
O314 O 0.87989 0.95775 0.20208 0.0
C315 C -0.00116 0.88576 0.26664 0.0
C316 C 0.84303 0.87323 0.09709 0.0
C317 C 0.95656 0.80244 0.12747 0.0
C318 C 0.87168 0.83353 0.28938 0.0
C319 C 0.95592 0.93966 0.07934 0.0
C320 C 0.88773 0.96159 0.25142 0.0
O321 O 0.00295 0.88277 0.21586 0.0
O322 O 0.32284 0.72033 0.03039 0.0
Zn323 Zn 0.32116 0.6719 0.00488 0.0
O324 O 0.3331 0.66871 0.92986 0.0
Zn325 Zn 0.37616 0.64343 0.92548 0.0
Zn326 Zn 0.33891 0.71566 0.89937 0.0
Zn327 Zn 0.29686 0.64202 0.89309 0.0
O328 O 0.37255 0.60581 0.87223 0.0
O329 O 0.3167 0.60162 0.85107 0.0
O330 O 0.35231 0.64425 0.05279 0.0
O331 O 0.39011 0.62169 -0.00437 0.0
O332 O 0.41444 0.67421 0.90129 0.0
O333 O 0.38872 0.72234 0.87193 0.0
O334 O 0.30249 0.72333 0.84021 0.0
O335 O 0.2746 0.65332 0.01824 0.0
O336 O 0.27377 0.67299 0.83992 0.0
O337 O 0.25962 0.62459 0.9446 0.0
C338 C 0.3282 0.74976 0.00865 0.0
C339 C 0.34804 0.59136 0.84627 0.0
C340 C 0.41601 0.70389 0.87886 0.0
C341 C 0.3783 0.62489 0.04323 0.0
C342 C 0.27826 0.70369 0.82198 0.0
C343 C 0.25393 0.63331 -0.00668 0.0
O344 O 0.33406 0.75253 0.95823 0.0
O345 O 0.49461 0.06861 0.784 0.0
Zn346 Zn 0.54247 0.06425 0.75555 0.0
O347 O 0.54418 0.07905 0.68144 0.0
Zn348 Zn 0.56835 0.12261 0.67964 0.0
Zn349 Zn 0.49696 0.08463 0.65264 0.0
Zn350 Zn 0.57064 0.04513 0.64015 0.0
O351 O 0.60582 0.12139 0.626 0.0
O352 O 0.60961 0.06696 0.59768 0.0
O353 O 0.57311 0.09266 0.80475 0.0
O354 O 0.59004 0.13504 0.75019 0.0
O355 O 0.53713 0.16039 0.65596 0.0
O356 O 0.49056 0.13355 0.6228 0.0
O357 O 0.4874 0.04772 0.59511 0.0
O358 O 0.55738 0.01535 0.76116 0.0
O359 O 0.53902 0.02215 0.5878 0.0
O360 O 0.589 0.00665 0.68714 0.0
C361 C 0.46508 0.07569 0.76382 0.0
C362 C 0.61968 0.09851 0.5962 0.0
C363 C 0.50832 0.16116 0.63094 0.0
C364 C 0.59023 0.12047 0.79618 0.0
C365 C 0.50728 0.02479 0.57397 0.0
C366 C 0.57779 -0.00317 0.73293 0.0
O367 O 0.46158 0.08156 0.71355 0.0
C368 C 0.45304 0.25329 0.11085 0.0
C369 C 0.44732 0.21725 0.11417 0.0
C370 C 0.48689 0.26683 0.10936 0.0
C371 C 0.51626 0.24485 0.11139 0.0
H372 H 0.43141 0.271 0.10527 0.0
H373 H 0.48995 0.2946 0.10338 0.0
S374 S 0.51476 0.14913 0.13213 0.0
N375 N 0.47335 0.16029 0.12831 0.0
N376 N 0.53702 0.18568 0.12562 0.0
C377 C 0.51074 0.2091 0.12043 0.0
C378 C 0.47623 0.19531 0.12169 0.0
C379 C 0.51396 0.72449 0.3603 0.0
C380 C 0.49285 0.69449 0.35762 0.0
C381 C 0.49947 0.75791 0.35957 0.0
C382 C 0.46328 0.76267 0.35577 0.0
H383 H 0.54208 0.72227 0.36033 0.0
H384 H 0.51694 0.78007 0.35861 0.0
S385 S 0.39616 0.69294 0.35712 0.0
N386 N 0.43358 0.67188 0.35803 0.0
N387 N 0.40636 0.73469 0.35679 0.0
C388 C 0.44171 0.73298 0.35762 0.0
C389 C 0.45648 0.6989 0.35861 0.0
C390 C -0.01635 0.76697 0.60755 0.0
C391 C 0.01317 0.74523 0.60968 0.0
C392 C 0.94988 0.75316 0.6076 0.0
C393 C 0.9443 0.71702 0.60945 0.0
H394 H -0.01343 0.79487 0.60301 0.0
H395 H 0.92821 0.77086 0.60249 0.0
S396 S 0.01237 0.64914 0.62542 0.0
N397 N 0.03432 0.686 0.62114 0.0
N398 N 0.97089 0.66002 0.62148 0.0
C399 C 0.97343 0.69519 0.61657 0.0
C400 C 0.00785 0.70929 0.61668 0.0
C401 C 0.00558 0.26316 0.86037 0.0
C402 C 0.9695 0.2686 0.86364 0.0
C403 C 0.01929 0.22942 0.85995 0.0
C404 C -0.00256 0.19995 0.86313 0.0
H405 H 0.02315 0.28487 0.85397 0.0
H406 H 0.04708 0.22646 0.85393 0.0
S407 S 0.90163 0.20088 0.88347 0.0
N408 N 0.91262 0.24231 0.87853 0.0
N409 N 0.93833 0.17887 0.87782 0.0
C410 C 0.96165 0.20527 0.872 0.0
C411 C 0.94769 0.23963 0.87214 0.0
C412 C 0.48985 0.76878 0.87533 0.0
C413 C 0.51957 0.74722 0.87508 0.0
C414 C 0.45621 0.75482 0.87183 0.0
C415 C 0.45098 0.71871 0.86823 0.0
H416 H 0.49239 0.79664 0.88088 0.0
H417 H 0.43423 0.77229 0.87571 0.0
S418 S 0.51987 0.65137 0.85623 0.0
N419 N 0.54144 0.68825 0.8636 0.0
N420 N 0.47824 0.66202 0.85695 0.0
C421 C 0.48044 0.69711 0.8632 0.0
C422 C 0.51472 0.71135 0.86659 0.0
C423 C 0.44401 0.23476 0.62086 0.0
C424 C 0.4659 0.26424 0.61858 0.0
C425 C 0.45771 0.20102 0.62002 0.0
C426 C 0.4938 0.1956 0.6173 0.0
H427 H 0.41617 0.23771 0.62624 0.0
H428 H 0.44008 0.17925 0.62554 0.0
S429 S 0.56189 0.26347 0.60064 0.0
N430 N 0.52515 0.28545 0.60592 0.0
N431 N 0.55084 0.222 0.60438 0.0
C432 C 0.51571 0.22464 0.61001 0.0
C433 C 0.50177 0.259 0.61056 0.0
C434 C 0.95066 0.25457 0.36999 0.0
C435 C 0.94555 0.21838 0.36842 0.0
C436 C -0.01572 0.26872 0.37028 0.0
C437 C 0.01397 0.2472 0.36856 0.0
H438 H 0.92873 0.272 0.37499 0.0
H439 H -0.01303 0.29664 0.37481 0.0
S440 S 0.01409 0.15102 0.35387 0.0
N441 N 0.97251 0.16157 0.3574 0.0
N442 N 0.03572 0.18809 0.35779 0.0
C443 C 0.00904 0.21117 0.36175 0.0
C444 C 0.9748 0.19678 0.36181 0.0
C445 C 0.96517 0.70505 0.11098 0.0
C446 C 0.00139 0.69999 0.11317 0.0
C447 C 0.95094 0.73854 0.11147 0.0
C448 C 0.97234 0.76833 0.11388 0.0
H449 H 0.94751 0.68306 0.11268 0.0
H450 H 0.92285 0.74095 0.11299 0.0
S451 S 0.06897 0.7692 0.10871 0.0
N452 N 0.05848 0.72752 0.10913 0.0
N453 N 0.03171 0.79054 0.11014 0.0
C454 C 0.00862 0.76369 0.11053 0.0
C455 C 0.02314 0.7295 0.11022 0.0
C456 C 0.17375 0.13582 0.89149 0.0
C457 C 0.15513 0.10561 0.9054 0.0
C458 C 0.20374 0.14533 0.91905 0.0
C459 C 0.21641 0.12519 0.96198 0.0
H460 H 0.1654 0.15228 0.85849 0.0
H461 H 0.21708 0.16883 0.90636 0.0
S462 S 0.17691 0.04404 0.01554 0.0
N463 N 0.15102 0.0557 0.96561 0.0
N464 N 0.20792 0.07384 0.018 0.0
C465 C 0.19792 0.0951 0.9771 0.0
C466 C 0.16723 0.08518 0.94853 0.0
C467 C 0.58398 0.42572 0.13153 0.0
C468 C 0.61133 0.40464 0.15001 0.0
C469 C 0.57511 0.45632 0.15806 0.0
C470 C 0.59298 0.46698 0.20456 0.0
H471 H 0.5693 0.41871 0.0959 0.0
H472 H 0.55371 0.47151 0.14213 0.0
S473 S 0.66678 0.42104 0.26953 0.0
N474 N 0.65653 0.39642 0.21738 0.0
N475 N 0.63953 0.45426 0.26806 0.0
C476 C 0.62044 0.4462 0.22373 0.0
C477 C 0.62979 0.41501 0.19614 0.0
C478 C 0.28962 0.8799 0.44056 0.0
C479 C 0.3096 0.85425 0.4143 0.0
C480 C 0.2599 0.87084 0.47035 0.0
C481 C 0.24934 0.83597 0.47429 0.0
H482 H 0.29619 0.90721 0.43655 0.0
H483 H 0.24418 0.89129 0.48797 0.0
S484 S 0.29502 0.75855 0.42079 0.0
N485 N 0.31863 0.79197 0.40033 0.0
N486 N 0.26241 0.7755 0.45515 0.0
C487 C 0.27 0.81001 0.4511 0.0
C488 C 0.30028 0.81901 0.42138 0.0
C489 C 0.84383 0.55163 0.70667 0.0
C490 C 0.84935 0.55554 0.65113 0.0
C491 C 0.85412 0.52106 0.73306 0.0
C492 C 0.86982 0.49367 0.70429 0.0
H493 H 0.83283 0.57275 0.73002 0.0
H494 H 0.8507 0.51935 0.77629 0.0
S495 S 0.88426 0.49009 0.55611 0.0
N496 N 0.86782 0.52907 0.56723 0.0
N497 N 0.88632 0.47126 0.61576 0.0
C498 C 0.87335 0.49682 0.64793 0.0
C499 C 0.86332 0.52792 0.62158 0.0
C500 C 0.75123 0.87794 0.04582 0.0
C501 C 0.75116 0.85218 0.00583 0.0
C502 C 0.78195 0.88642 0.07299 0.0
C503 C 0.81294 0.86844 0.06193 0.0
H504 H 0.72719 0.89065 0.05742 0.0
H505 H 0.78097 0.90555 0.105 0.0
S506 S 0.82627 0.8004 0.95833 0.0
N507 N 0.78458 0.81052 0.95371 0.0
N508 N 0.84233 0.82546 0.00636 0.0
C509 C 0.81339 0.84358 0.02058 0.0
C510 C 0.78236 0.83566 -0.00798 0.0
C511 C 0.3903 0.5464 0.81751 0.0
C512 C 0.35686 0.56099 0.81249 0.0
C513 C 0.39945 0.51637 0.78981 0.0
C514 C 0.37577 0.49974 0.75543 0.0
H515 H 0.40953 0.55762 0.84427 0.0
H516 H 0.42526 0.50575 0.79618 0.0
S517 S 0.28595 0.52848 0.72427 0.0
N518 N 0.3005 0.55756 0.76781 0.0
N519 N 0.31816 0.50065 0.71501 0.0
C520 C 0.34277 0.51463 0.74779 0.0
C521 C 0.33317 0.54532 0.77663 0.0
C522 C 0.66962 0.08364 0.53561 0.0
C523 C 0.64897 0.109 0.56124 0.0
C524 C 0.69994 0.09307 0.50775 0.0
C525 C 0.71048 0.12799 0.5053 0.0
H526 H 0.66313 0.05627 0.5388 0.0
H527 H 0.71612 0.07283 0.49057 0.0
S528 S 0.66311 0.20482 0.55732 0.0
N529 N 0.63919 0.17113 0.57573 0.0
N530 N 0.69666 0.18828 0.52464 0.0
C531 C 0.68915 0.15371 0.52762 0.0
C532 C 0.65819 0.14435 0.55528 0.0
C533 C 0.07406 0.41958 0.32366 0.0
C534 C 0.10705 0.40434 0.31664 0.0
C535 C 0.06453 0.44929 0.29537 0.0
C536 C 0.08738 0.46487 0.25843 0.0
H537 H 0.05546 0.40904 0.3522 0.0
H538 H 0.03909 0.46043 0.30308 0.0
S539 S 0.17601 0.43468 0.2226 0.0
N540 N 0.16227 0.40644 0.26818 0.0
N541 N 0.14387 0.46271 0.21434 0.0
C542 C 0.11998 0.4495 0.24926 0.0
C543 C 0.12998 0.41918 0.27867 0.0
C544 C 0.68355 0.57985 0.40738 0.0
C545 C 0.65192 0.59648 0.41893 0.0
C546 C 0.71393 0.58943 0.43443 0.0
C547 C 0.71303 0.61497 0.47474 0.0
H548 H 0.68522 0.56098 0.37506 0.0
H549 H 0.73842 0.57773 0.42256 0.0
S550 S 0.63597 0.66325 0.52354 0.0
N551 N 0.62085 0.63789 0.47516 0.0
N552 N 0.67806 0.65483 0.52785 0.0
C553 C 0.68122 0.63006 0.48912 0.0
C554 C 0.6505 0.62105 0.4606 0.0
C555 C 0.06431 0.95143 0.67659 0.0
C556 C 0.08538 0.96561 0.71719 0.0
C557 C 0.07394 0.92124 0.64966 0.0
C558 C 0.10523 0.904 0.66184 0.0
H559 H 0.04012 0.96387 0.66509 0.0
H560 H 0.05682 0.91183 0.6182 0.0
S561 S 0.16915 0.92983 0.76647 0.0
N562 N 0.13846 0.95983 0.76984 0.0
N563 N 0.15688 0.90263 0.7186 0.0
C564 C 0.1264 0.91746 0.70311 0.0
C565 C 0.11633 0.94831 0.73107 0.0
C566 C 0.76336 0.31585 0.92179 0.0
C567 C 0.74916 0.33661 0.96273 0.0
C568 C 0.79325 0.32599 0.89439 0.0
C569 C 0.81016 0.35753 0.9064 0.0
H570 H 0.75115 0.29148 0.91042 0.0
H571 H 0.80272 0.30906 0.86273 0.0
S572 S 0.78406 0.42087 0.01167 0.0
N573 N 0.75448 0.38968 0.01548 0.0
N574 N 0.81116 0.40914 0.96326 0.0
C575 C 0.79664 0.37844 0.94793 0.0
C576 C 0.7661 0.36782 0.97643 0.0
C577 C 0.39609 0.0141 0.18186 0.0
C578 C 0.37313 -0.00141 0.21879 0.0
C579 C 0.38692 0.04404 0.1539 0.0
C580 C 0.35421 0.05975 0.16129 0.0
H581 H 0.4214 0.00274 0.17383 0.0
H582 H 0.40559 0.05441 0.12531 0.0
S583 S 0.28523 0.0303 0.25595 0.0
N584 N 0.31688 0.00163 0.26355 0.0
N585 N 0.29923 0.05843 0.21039 0.0
C586 C 0.3312 0.04511 0.19935 0.0
C587 C 0.34081 0.01448 0.2284 0.0
C588 C 0.26342 0.36806 0.50457 0.0
C589 C 0.24939 0.33443 0.50896 0.0
C590 C 0.29322 0.37742 0.5338 0.0
C591 C 0.30995 0.35327 0.56775 0.0
H592 H 0.25049 0.38761 0.48034 0.0
H593 H 0.30269 0.40391 0.5306 0.0
S594 S 0.28509 0.26033 0.58694 0.0
N595 N 0.25561 0.2761 0.54539 0.0
N596 N 0.3115 0.29313 0.59994 0.0
C597 C 0.2969 0.31893 0.56996 0.0
C598 C 0.26664 0.30965 0.54061 0.0
C599 C 0.83994 0.04411 0.28925 0.0
C600 C 0.85821 0.05521 0.33515 0.0
C601 C 0.84986 0.01391 0.26177 0.0
C602 C 0.87798 -0.00634 0.27992 0.0
H603 H 0.81819 0.05908 0.274 0.0
H604 H 0.8352 0.00621 0.22648 0.0
S605 S 0.93385 0.01135 0.39888 0.0
N606 N 0.90538 0.04344 0.39809 0.0
N607 N 0.92404 -0.01313 0.34652 0.0
C608 C 0.89628 0.00442 0.32603 0.0
C609 C 0.88638 0.03517 0.35366 0.0
C610 C 0.16539 0.59297 0.02181 0.0
C611 C 0.16077 0.60065 0.0766 0.0
C612 C 0.196 0.60292 -0.00503 0.0
C613 C 0.22287 0.62046 0.02248 0.0
H614 H 0.14474 0.58048 -0.00078 0.0
H615 H 0.1982 0.59765 0.95225 0.0
S616 S 0.22447 0.64151 0.16888 0.0
N617 N 0.18604 0.62348 0.15877 0.0
N618 N 0.24384 0.64149 0.10955 0.0
C619 C 0.21899 0.62635 0.0783 0.0
C620 C 0.18783 0.61662 0.10506 0.0
C621 C 0.62283 0.95375 0.75954 0.0
C622 C 0.58767 0.96292 0.75441 0.0
C623 C 0.63241 0.92412 0.78891 0.0
C624 C 0.60698 0.90291 0.8135 0.0
H625 H 0.64301 0.97051 0.74332 0.0
H626 H 0.65986 0.91867 0.79417 0.0
S627 S 0.51098 0.91338 0.80264 0.0
N628 N 0.52734 0.9471 0.77006 0.0
N629 N 0.54486 0.89097 0.82409 0.0
C630 C 0.57157 0.91073 0.8049 0.0
C631 C 0.56203 0.94092 0.77562 0.0
C632 C 0.41757 0.08286 0.89605 0.0
C633 C 0.39241 0.1085 0.88556 0.0
C634 C 0.43889 0.07 0.85504 0.0
C635 C 0.43613 0.0824 0.80183 0.0
H636 H 0.42186 0.07357 0.93672 0.0
H637 H 0.45903 0.05155 0.86583 0.0
S638 S 0.37132 0.14619 0.75165 0.0
N639 N 0.3633 0.14314 0.81683 0.0
N640 N 0.40378 0.11914 0.73972 0.0
C641 C 0.40922 0.10596 0.78982 0.0
C642 C 0.38731 0.11903 0.83173 0.0
C643 C 0.63325 0.67774 0.15821 0.0
C644 C 0.61395 0.64784 0.14491 0.0
C645 C 0.64569 0.7003 0.1183 0.0
C646 C 0.63922 0.6941 0.06324 0.0
H647 H 0.63752 0.68477 0.19993 0.0
H648 H 0.65881 0.72384 0.13117 0.0
S649 S 0.59533 0.61621 0.00632 0.0
N650 N 0.59311 0.61067 0.07216 0.0
N651 N 0.61625 0.65331 -0.00275 0.0
C652 C 0.62261 0.66274 0.04908 0.0
C653 C 0.60999 0.63961 0.08984 0.0
C654 C 0.0544 0.85704 0.2936 0.0
C655 C 0.02848 0.88197 0.30383 0.0
C656 C 0.07651 0.84562 0.33498 0.0
C657 C 0.0732 0.85875 0.38771 0.0
H658 H 0.05577 0.84425 0.25478 0.0
H659 H 0.09447 0.82461 0.32647 0.0
S660 S 0.01484 0.93026 0.43142 0.0
N661 N 0.0048 0.92372 0.36759 0.0
N662 N 0.04617 0.90227 0.44525 0.0
C663 C 0.0498 0.88622 0.39678 0.0
C664 C 0.02749 0.89786 0.35478 0.0
C665 C 0.81945 0.27572 0.60386 0.0
C666 C 0.83179 0.27798 0.55054 0.0
C667 C 0.83319 0.29667 0.64457 0.0
C668 C 0.85962 0.321 0.63361 0.0
H669 H 0.80042 0.25613 0.61502 0.0
H670 H 0.82391 0.29274 0.68536 0.0
S671 S 0.89735 0.34088 0.49917 0.0
N672 N 0.86925 0.30917 0.48776 0.0
N673 N 0.89484 0.34907 0.56433 0.0
C674 C 0.87005 0.32576 0.57964 0.0
C675 C 0.85611 0.30419 0.53804 0.0
C676 C 0.54731 0.88483 0.08677 0.0
C677 C 0.57344 0.86022 0.0974 0.0
C678 C 0.52455 0.89581 0.12722 0.0
C679 C 0.52673 0.88241 0.17993 0.0
H680 H 0.54337 0.8946 0.04629 0.0
H681 H 0.50379 0.91349 0.11617 0.0
S682 S 0.59368 0.821 0.23053 0.0
N683 N 0.60286 0.82573 0.16595 0.0
N684 N 0.55966 0.84616 0.24203 0.0
C685 C 0.55458 0.86004 0.19229 0.0
C686 C 0.578 0.84894 0.15096 0.0
C687 C 0.33081 0.30019 0.83732 0.0
C688 C 0.35748 0.32453 0.84664 0.0
C689 C 0.31888 0.27835 0.87841 0.0
C690 C 0.33327 0.27974 0.93048 0.0
H691 H 0.32014 0.2968 0.79728 0.0
H692 H 0.29964 0.25875 0.86835 0.0
S693 S 0.40052 0.34204 0.9777 0.0
N694 N 0.3953 0.35149 0.91331 0.0
N695 N 0.37303 0.31001 -0.00935 0.0
C696 C 0.35783 0.30596 0.94164 0.0
C697 C 0.36995 0.32843 0.89964 0.0
C698 C 0.93288 0.07083 0.63148 0.0
C699 C 0.93214 0.08532 0.68352 0.0
C700 C 0.91102 0.08312 0.59081 0.0
C701 C 0.88726 0.11016 0.60061 0.0
H702 H 0.95199 0.05123 0.62105 0.0
H703 H 0.91389 0.07238 0.5507 0.0
S704 S 0.87152 0.15377 0.73167 0.0
N705 N 0.90308 0.12574 0.74414 0.0
N706 N 0.86151 0.14858 0.66749 0.0
C707 C 0.88395 0.12278 0.65356 0.0
C708 C 0.90648 0.11037 0.69514 0.0
C709 C 0.14308 0.6892 0.37595 0.0
C710 C 0.12921 0.68678 0.42834 0.0
C711 C 0.13145 0.66748 0.33462 0.0
C712 C 0.1056 0.64226 0.344 0.0
H713 H 0.16178 0.70936 0.36595 0.0
H714 H 0.14181 0.67151 0.29447 0.0
S715 S 0.06405 0.62217 0.47564 0.0
N716 N 0.09074 0.65481 0.48867 0.0
N717 N 0.06901 0.61359 0.41092 0.0
C718 C 0.09357 0.63752 0.39717 0.0
C719 C 0.10539 0.65985 0.4394 0.0
C720 C 0.91781 0.584 0.39326 0.0
C721 C 0.89185 0.60882 0.38291 0.0
C722 C 0.93989 0.57235 0.35236 0.0
C723 C 0.93721 0.58528 0.2994 0.0
H724 H 0.92197 0.57434 0.43376 0.0
H725 H 0.96043 0.55434 0.36312 0.0
S726 S 0.8709 0.64774 0.24986 0.0
N727 N 0.86236 0.64353 0.31474 0.0
N728 N 0.90431 0.6219 0.23776 0.0
C729 C 0.90972 0.6082 0.28755 0.0
C730 C 0.88698 0.61997 0.32936 0.0
C731 C 0.12957 0.16549 0.64144 0.0
C732 C 0.10248 0.14161 0.63211 0.0
C733 C 0.14182 0.18718 0.6004 0.0
C734 C 0.12736 0.18604 0.54838 0.0
H735 H 0.14044 0.16856 0.6814 0.0
H736 H 0.16146 0.20638 0.61042 0.0
S737 S 0.05883 0.12515 0.50116 0.0
N738 N 0.06399 0.1155 0.56549 0.0
N739 N 0.0869 0.15668 0.48825 0.0
C740 C 0.10225 0.16036 0.53722 0.0
C741 C 0.08978 0.13807 0.57917 0.0
C742 C 0.52603 0.39154 0.8505 0.0
C743 C 0.52753 0.37827 0.79772 0.0
C744 C 0.54759 0.37861 0.8911 0.0
C745 C 0.57177 0.35205 0.88057 0.0
H746 H 0.50667 0.41079 0.86141 0.0
H747 H 0.54428 0.38863 0.93156 0.0
S748 S 0.58927 0.3114 0.74763 0.0
N749 N 0.55758 0.33937 0.73587 0.0
N750 N 0.59851 0.31528 0.81228 0.0
C751 C 0.57563 0.34049 0.82707 0.0
C752 C 0.55345 0.35361 0.78557 0.0
C753 C 0.31794 0.7779 0.09718 0.0
C754 C 0.33275 0.77973 0.04535 0.0
C755 C 0.32935 0.79961 0.13869 0.0
C756 C 0.35589 0.82421 0.13004 0.0
H757 H 0.2989 0.75799 0.10676 0.0
H758 H 0.31843 0.79584 0.17854 0.0
S759 S 0.39949 0.84309 -0.00046 0.0
N760 N 0.37247 0.8108 0.98595 0.0
N761 N 0.39377 0.85207 0.06397 0.0
C762 C 0.36862 0.82862 0.07716 0.0
C763 C 0.35702 0.8063 0.03475 0.0
C764 C 0.04963 0.38472 0.58441 0.0
C765 C 0.07417 0.35839 0.59422 0.0
C766 C 0.02828 0.39725 0.62561 0.0
C767 C 0.03035 0.38375 0.67826 0.0
H768 H 0.04565 0.3946 0.54399 0.0
H769 H 0.00839 0.41607 0.61522 0.0
S770 S 0.09394 0.31833 0.72693 0.0
N771 N 0.10244 0.32232 0.662 0.0
N772 N 0.0618 0.34566 0.73947 0.0
C773 C 0.05695 0.35978 0.68983 0.0
C774 C 0.07894 0.34707 0.64774 0.0
C775 C 0.86197 0.81987 0.38683 0.0
C776 C 0.85285 0.81442 0.33249 0.0
C777 C 0.84844 0.79885 0.42797 0.0
C778 C 0.82519 0.77157 0.41641 0.0
H779 H 0.88119 0.83931 0.39761 0.0
H780 H 0.85817 0.80257 0.46849 0.0
S781 S 0.78725 0.75127 0.2824 0.0
N782 N 0.815 0.78322 0.27054 0.0
N783 N 0.78931 0.74388 0.34782 0.0
C784 C 0.81331 0.76801 0.36296 0.0
C785 C 0.82726 0.7893 0.32101 0.0
C786 C 0.42319 0.58348 0.07689 0.0
C787 C 0.39665 0.60754 0.08833 0.0
C788 C 0.4449 0.57089 0.11751 0.0
C789 C 0.44103 0.58186 0.17123 0.0
H790 H 0.42836 0.57543 0.03586 0.0
H791 H 0.46616 0.55389 0.10611 0.0
S792 S 0.37225 0.64038 0.22401 0.0
N793 N 0.36495 0.63859 0.15856 0.0
N794 N 0.40617 0.61501 0.23491 0.0
C795 C 0.41275 0.60349 0.18415 0.0
C796 C 0.39049 0.61638 0.14265 0.0
C797 C 0.60737 0.1575 0.93497 0.0
C798 C 0.63314 0.18267 0.92432 0.0
C799 C 0.59517 0.13546 0.894 0.0
C800 C 0.60829 0.13805 0.84116 0.0
H801 H 0.59463 0.15659 0.9739 0.0
H802 H 0.57368 0.1181 0.90294 0.0
S803 S 0.68148 0.19403 0.79589 0.0
N804 N 0.67552 0.20461 0.85966 0.0
N805 N 0.6524 0.16351 0.78282 0.0
C806 C 0.6364 0.16067 0.83152 0.0
C807 C 0.64892 0.18286 0.87312 0.0
C808 C 0.25706 0.25115 0.21892 0.0
C809 C 0.25186 0.218 0.1964 0.0
C810 C 0.23487 0.26401 0.25902 0.0
C811 C 0.20647 0.24431 0.27844 0.0
H812 H 0.27857 0.26734 0.20576 0.0
H813 H 0.2403 0.28965 0.2751 0.0
S814 S 0.18053 0.15624 0.23171 0.0
N815 N 0.21541 0.16588 0.19581 0.0
N816 N 0.17395 0.19015 0.27108 0.0
C817 C 0.20075 0.2112 0.25603 0.0
C818 C 0.22333 0.19806 0.21511 0.0
C819 C 0.46293 0.50526 0.46471 0.0
C820 C 0.49595 0.49946 0.44194 0.0
C821 C 0.44991 0.48371 0.50567 0.0
C822 C 0.46934 0.45541 0.52574 0.0
H823 H 0.44699 0.52678 0.45116 0.0
H824 H 0.42441 0.48957 0.52193 0.0
S825 S 0.55686 0.42793 0.47845 0.0
N826 N 0.54754 0.46245 0.44168 0.0
N827 N 0.52304 0.42222 0.51851 0.0
C828 C 0.50229 0.44906 0.50299 0.0
C829 C 0.51556 0.47096 0.4612 0.0
C830 C 0.23052 0.76495 0.72709 0.0
C831 C 0.20708 0.74284 0.69978 0.0
C832 C 0.25358 0.75211 0.76601 0.0
C833 C 0.2542 0.71659 0.77951 0.0
H834 H 0.23118 0.79259 0.71851 0.0
H835 H 0.27084 0.77032 0.78593 0.0
S836 S 0.19899 0.64729 0.71873 0.0
N837 N 0.18651 0.68339 0.68843 0.0
N838 N 0.22973 0.65916 0.76128 0.0
C839 C 0.23103 0.69406 0.7523 0.0
C840 C 0.20753 0.70719 0.71263 0.0
C841 C 0.01462 0.48403 0.00075 0.0
C842 C -0.00693 0.50849 0.02685 0.0
C843 C 0.00172 0.46194 0.96066 0.0
C844 C 0.96666 0.46328 0.9447 0.0
H845 H 0.04188 0.48172 0.01131 0.0
H846 H 0.01952 0.44369 0.94205 0.0
S847 S 0.89899 0.52254 0.00042 0.0
N848 N 0.93472 0.53264 0.03377 0.0
N849 N 0.91032 0.49123 0.95851 0.0
C850 C 0.9447 0.48769 0.97034 0.0
C851 C 0.95792 0.51023 0.01129 0.0
C852 C 0.73943 0.76484 0.76475 0.0
C853 C 0.70985 0.74632 0.78286 0.0
C854 C 0.76029 0.75234 0.72258 0.0
C855 C 0.75246 0.72077 0.6968 0.0
H856 H 0.74681 0.78919 0.78354 0.0
H857 H 0.78296 0.76731 0.71069 0.0
S858 S 0.67644 0.66347 0.72616 0.0
N859 N 0.673 0.69556 0.76993 0.0
N860 N 0.71179 0.67205 0.6907 0.0
C861 C 0.72257 0.70225 0.71392 0.0
C862 C 0.70143 0.71497 0.75693 0.0
C863 C 0.73192 0.26252 0.22291 0.0
C864 C 0.70883 0.24033 0.19509 0.0
C865 C 0.75417 0.24988 0.26307 0.0
C866 C 0.75439 0.21446 0.27728 0.0
H867 H 0.73286 0.29009 0.21386 0.0
H868 H 0.77116 0.26819 0.28329 0.0
S869 S 0.69956 0.14505 0.21589 0.0
N870 N 0.68799 0.18095 0.18418 0.0
N871 N 0.72969 0.15706 0.25939 0.0
C872 C 0.73156 0.19184 0.24953 0.0
C873 C 0.70884 0.20478 0.20863 0.0
C874 C 0.01339 0.97949 0.97081 0.0
C875 C -0.0062 0.00819 0.95254 0.0
C876 C 0.00114 0.9577 0.01194 0.0
C877 C 0.96876 0.96363 0.03667 0.0
H878 H 0.03843 0.9735 0.95299 0.0
H879 H 0.01715 0.93587 0.02404 0.0
S880 S 0.90782 0.03618 0.0054 0.0
N881 N 0.94072 0.04192 0.96354 0.0
N882 N 0.91762 0.0012 0.04081 0.0
C883 C 0.949 -0.00747 0.01924 0.0
C884 C 0.96151 0.0147 0.97725 0.0
C885 C 0.46094 0.00634 0.50876 0.0
C886 C 0.49368 0.00053 0.53231 0.0
C887 C 0.44803 -0.01573 0.46852 0.0
C888 C 0.46725 0.95535 0.45007 0.0
H889 H 0.44522 0.02835 0.521 0.0
H890 H 0.42278 -0.00976 0.4515 0.0
S891 S 0.55376 0.92737 0.50059 0.0
N892 N 0.54461 0.9627 0.53553 0.0
N893 N 0.52031 0.92148 0.45999 0.0
C894 C 0.49984 0.94891 0.47379 0.0
C895 C 0.51302 0.97138 0.51482 0.0
loop_
_geom_bond_atom_site_label_1
_geom_bond_atom_site_label_2
_geom_bond_distance
_geom_bond_site_symmetry_2
_ccdc_geom_bond_type
O0 Zn1 1.953 . S
O0 C16 1.225 . S
Zn1 O0 1.953 . S
Zn1 O2 1.949 1_556 S
Zn1 O8 1.919 . S
Zn1 O13 1.924 . S
O2 Zn1 1.949 1_554 S
O2 Zn3 1.923 . S
O2 Zn4 1.950 . S
O2 Zn5 1.945 . S
Zn3 O2 1.923 . S
Zn3 O6 1.933 . S
Zn3 O9 1.941 1_554 S
Zn3 O10 1.965 . S
Zn4 O2 1.950 . S
Zn4 O11 1.938 . S
Zn4 O12 1.906 . S
Zn4 O22 1.953 . S
Zn5 O2 1.945 . S
Zn5 O7 1.932 . S
Zn5 O14 1.977 . S
Zn5 O15 1.910 . S
O6 Zn3 1.933 . S
O6 C17 1.226 . S
O7 Zn5 1.932 . S
O7 C17 1.307 . S
O8 Zn1 1.919 . S
O8 C19 1.253 . S
O9 Zn3 1.941 1_556 S
O9 C19 1.283 . S
O10 Zn3 1.965 . S
O10 C18 1.303 . S
O11 Zn4 1.938 . S
O11 C18 1.247 . S
O12 Zn4 1.906 . S
O12 C20 1.304 . S
O13 Zn1 1.924 . S
O13 C21 1.311 . S
O14 Zn5 1.977 . S
O14 C20 1.272 . S
O15 Zn5 1.910 . S
O15 C21 1.231 1_554 S
C16 O0 1.225 . S
C16 O22 1.298 1_556 S
C17 O6 1.226 . S
C17 O7 1.307 . S
C18 O10 1.303 . S
C18 O11 1.247 . S
C19 O8 1.253 . S
C19 O9 1.283 . S
C20 O12 1.304 . S
C20 O14 1.272 . S
C21 O13 1.311 . S
C21 O15 1.231 1_556 S
O22 Zn4 1.953 . S
O22 C16 1.298 1_554 S
O23 Zn24 1.953 . S
O23 C39 1.225 . S
Zn24 O23 1.953 . S
Zn24 O25 1.949 . S
Zn24 O31 1.919 . S
Zn24 O36 1.924 . S
O25 Zn24 1.949 . S
O25 Zn26 1.923 . S
O25 Zn27 1.950 . S
O25 Zn28 1.945 . S
Zn26 O25 1.923 . S
Zn26 O29 1.933 . S
Zn26 O32 1.941 . S
Zn26 O33 1.965 . S
Zn27 O25 1.950 . S
Zn27 O34 1.938 . S
Zn27 O35 1.906 . S
Zn27 O45 1.953 . S
Zn28 O25 1.945 . S
Zn28 O30 1.932 . S
Zn28 O37 1.977 . S
Zn28 O38 1.910 . S
O29 Zn26 1.933 . S
O29 C40 1.226 . S
O30 Zn28 1.932 . S
O30 C40 1.307 . S
O31 Zn24 1.919 . S
O31 C42 1.253 . S
O32 Zn26 1.941 . S
O32 C42 1.283 . S
O33 Zn26 1.965 . S
O33 C41 1.303 . S
O34 Zn27 1.938 . S
O34 C41 1.247 . S
O35 Zn27 1.906 . S
O35 C43 1.304 . S
O36 Zn24 1.924 . S
O36 C44 1.311 . S
O37 Zn28 1.977 . S
O37 C43 1.272 . S
O38 Zn28 1.910 . S
O38 C44 1.231 . S
C39 O23 1.225 . S
C39 O45 1.298 . S
C40 O29 1.226 . S
C40 O30 1.307 . S
C41 O33 1.303 . S
C41 O34 1.247 . S
C42 O31 1.253 . S
C42 O32 1.283 . S
C43 O35 1.304 . S
C43 O37 1.272 . S
C44 O36 1.311 . S
C44 O38 1.231 . S
O45 Zn27 1.953 . S
O45 C39 1.298 . S
O46 Zn47 1.953 . S
O46 C62 1.225 . S
Zn47 O46 1.953 . S
Zn47 O48 1.949 . S
Zn47 O54 1.919 . S
Zn47 O59 1.924 . S
O48 Zn47 1.949 . S
O48 Zn49 1.923 . S
O48 Zn50 1.950 . S
O48 Zn51 1.945 . S
Zn49 O48 1.923 . S
Zn49 O52 1.933 . S
Zn49 O55 1.941 . S
Zn49 O56 1.965 . S
Zn50 O48 1.950 . S
Zn50 O57 1.938 . S
Zn50 O58 1.906 . S
Zn50 O68 1.953 . S
Zn51 O48 1.945 . S
Zn51 O53 1.932 . S
Zn51 O60 1.977 . S
Zn51 O61 1.910 . S
O52 Zn49 1.933 . S
O52 C63 1.226 . S
O53 Zn51 1.932 . S
O53 C63 1.307 . S
O54 Zn47 1.919 . S
O54 C65 1.253 . S
O55 Zn49 1.941 . S
O55 C65 1.283 . S
O56 Zn49 1.965 . S
O56 C64 1.303 . S
O57 Zn50 1.938 . S
O57 C64 1.247 . S
O58 Zn50 1.906 . S
O58 C66 1.304 . S
O59 Zn47 1.924 . S
O59 C67 1.311 . S
O60 Zn51 1.977 . S
O60 C66 1.272 . S
O61 Zn51 1.910 . S
O61 C67 1.231 . S
C62 O46 1.225 . S
C62 O68 1.298 . S
C63 O52 1.226 . S
C63 O53 1.307 . S
C64 O56 1.303 . S
C64 O57 1.247 . S
C65 O54 1.253 . S
C65 O55 1.283 . S
C66 O58 1.304 . S
C66 O60 1.272 . S
C67 O59 1.311 . S
C67 O61 1.231 . S
O68 Zn50 1.953 . S
O68 C62 1.298 . S
O69 Zn70 1.953 . S
O69 C85 1.225 1_655 S
Zn70 O69 1.953 . S
Zn70 O71 1.949 . S
Zn70 O77 1.919 . S
Zn70 O82 1.924 . S
O71 Zn70 1.949 . S
O71 Zn72 1.923 . S
O71 Zn73 1.950 . S
O71 Zn74 1.945 . S
Zn72 O71 1.923 . S
Zn72 O75 1.933 . S
Zn72 O78 1.941 . S
Zn72 O79 1.965 . S
Zn73 O71 1.950 . S
Zn73 O80 1.938 . S
Zn73 O81 1.906 . S
Zn73 O91 1.953 1_655 S
Zn74 O71 1.945 . S
Zn74 O76 1.932 . S
Zn74 O83 1.977 . S
Zn74 O84 1.910 . S
O75 Zn72 1.933 . S
O75 C86 1.226 . S
O76 Zn74 1.932 . S
O76 C86 1.307 . S
O77 Zn70 1.919 . S
O77 C88 1.253 . S
O78 Zn72 1.941 . S
O78 C88 1.283 . S
O79 Zn72 1.965 . S
O79 C87 1.303 . S
O80 Zn73 1.938 . S
O80 C87 1.247 . S
O81 Zn73 1.906 . S
O81 C89 1.304 . S
O82 Zn70 1.924 . S
O82 C90 1.311 . S
O83 Zn74 1.977 . S
O83 C89 1.272 . S
O84 Zn74 1.910 . S
O84 C90 1.231 . S
C85 O69 1.225 1_455 S
C85 O91 1.298 . S
C86 O75 1.226 . S
C86 O76 1.307 . S
C87 O79 1.303 . S
C87 O80 1.247 . S
C88 O77 1.253 . S
C88 O78 1.283 . S
C89 O81 1.304 . S
C89 O83 1.272 . S
C90 O82 1.311 . S
C90 O84 1.231 . S
O91 Zn73 1.953 1_455 S
O91 C85 1.298 . S
O92 Zn93 1.953 . S
O92 C108 1.225 . S
Zn93 O92 1.953 . S
Zn93 O94 1.949 1_554 S
Zn93 O100 1.919 . S
Zn93 O105 1.924 . S
O94 Zn93 1.949 1_556 S
O94 Zn95 1.923 . S
O94 Zn96 1.950 . S
O94 Zn97 1.945 . S
Zn95 O94 1.923 . S
Zn95 O98 1.933 . S
Zn95 O101 1.941 1_556 S
Zn95 O102 1.965 . S
Zn96 O94 1.950 . S
Zn96 O103 1.938 . S
Zn96 O104 1.906 . S
Zn96 O114 1.953 . S
Zn97 O94 1.945 . S
Zn97 O99 1.932 . S
Zn97 O106 1.977 . S
Zn97 O107 1.910 . S
O98 Zn95 1.933 . S
O98 C109 1.226 . S
O99 Zn97 1.932 . S
O99 C109 1.307 . S
O100 Zn93 1.919 . S
O100 C111 1.253 . S
O101 Zn95 1.941 1_554 S
O101 C111 1.283 . S
O102 Zn95 1.965 . S
O102 C110 1.303 . S
O103 Zn96 1.938 . S
O103 C110 1.247 . S
O104 Zn96 1.906 . S
O104 C112 1.304 . S
O105 Zn93 1.924 . S
O105 C113 1.311 . S
O106 Zn97 1.977 . S
O106 C112 1.272 . S
O107 Zn97 1.910 . S
O107 C113 1.231 1_556 S
C108 O92 1.225 . S
C108 O114 1.298 1_554 S
C109 O98 1.226 . S
C109 O99 1.307 . S
C110 O102 1.303 . S
C110 O103 1.247 . S
C111 O100 1.253 . S
C111 O101 1.283 . S
C112 O104 1.304 . S
C112 O106 1.272 . S
C113 O105 1.311 . S
C113 O107 1.231 1_554 S
O114 Zn96 1.953 . S
O114 C108 1.298 1_556 S
O115 Zn116 1.953 . S
O115 C131 1.225 . S
Zn116 O115 1.953 . S
Zn116 O117 1.949 . S
Zn116 O123 1.919 . S
Zn116 O128 1.924 . S
O117 Zn116 1.949 . S
O117 Zn118 1.923 . S
O117 Zn119 1.950 . S
O117 Zn120 1.945 . S
Zn118 O117 1.923 . S
Zn118 O121 1.933 . S
Zn118 O124 1.941 . S
Zn118 O125 1.965 . S
Zn119 O117 1.950 . S
Zn119 O126 1.938 . S
Zn119 O127 1.906 . S
Zn119 O137 1.953 . S
Zn120 O117 1.945 . S
Zn120 O122 1.932 . S
Zn120 O129 1.977 . S
Zn120 O130 1.910 . S
O121 Zn118 1.933 . S
O121 C132 1.226 . S
O122 Zn120 1.932 . S
O122 C132 1.307 . S
O123 Zn116 1.919 . S
O123 C134 1.253 . S
O124 Zn118 1.941 . S
O124 C134 1.283 . S
O125 Zn118 1.965 . S
O125 C133 1.303 . S
O126 Zn119 1.938 . S
O126 C133 1.247 . S
O127 Zn119 1.906 . S
O127 C135 1.304 . S
O128 Zn116 1.924 . S
O128 C136 1.311 . S
O129 Zn120 1.977 . S
O129 C135 1.272 . S
O130 Zn120 1.910 . S
O130 C136 1.231 . S
C131 O115 1.225 . S
C131 O137 1.298 . S
C132 O121 1.226 . S
C132 O122 1.307 . S
C133 O125 1.303 . S
C133 O126 1.247 . S
C134 O123 1.253 . S
C134 O124 1.283 . S
C135 O127 1.304 . S
C135 O129 1.272 . S
C136 O128 1.311 . S
C136 O130 1.231 . S
O137 Zn119 1.953 . S
O137 C131 1.298 . S
O138 Zn139 1.953 . S
O138 C154 1.225 . S
Zn139 O138 1.953 . S
Zn139 O140 1.949 . S
Zn139 O146 1.919 . S
Zn139 O151 1.924 . S
O140 Zn139 1.949 . S
O140 Zn141 1.923 . S
O140 Zn142 1.950 . S
O140 Zn143 1.945 . S
Zn141 O140 1.923 . S
Zn141 O144 1.933 . S
Zn141 O147 1.941 . S
Zn141 O148 1.965 . S
Zn142 O140 1.950 . S
Zn142 O149 1.938 . S
Zn142 O150 1.906 . S
Zn142 O160 1.953 . S
Zn143 O140 1.945 . S
Zn143 O145 1.932 . S
Zn143 O152 1.977 . S
Zn143 O153 1.910 . S
O144 Zn141 1.933 . S
O144 C155 1.226 . S
O145 Zn143 1.932 . S
O145 C155 1.307 . S
O146 Zn139 1.919 . S
O146 C157 1.253 . S
O147 Zn141 1.941 . S
O147 C157 1.283 . S
O148 Zn141 1.965 . S
O148 C156 1.303 . S
O149 Zn142 1.938 . S
O149 C156 1.247 . S
O150 Zn142 1.906 . S
O150 C158 1.304 . S
O151 Zn139 1.924 . S
O151 C159 1.311 . S
O152 Zn143 1.977 . S
O152 C158 1.272 . S
O153 Zn143 1.910 . S
O153 C159 1.231 . S
C154 O138 1.225 . S
C154 O160 1.298 . S
C155 O144 1.226 . S
C155 O145 1.307 . S
C156 O148 1.303 . S
C156 O149 1.247 . S
C157 O146 1.253 . S
C157 O147 1.283 . S
C158 O150 1.304 . S
C158 O152 1.272 . S
C159 O151 1.311 . S
C159 O153 1.231 . S
O160 Zn142 1.953 . S
O160 C154 1.298 . S
O161 Zn162 1.953 . S
O161 C177 1.225 1_455 S
Zn162 O161 1.953 . S
Zn162 O163 1.949 . S
Zn162 O169 1.919 . S
Zn162 O174 1.924 . S
O163 Zn162 1.949 . S
O163 Zn164 1.923 . S
O163 Zn165 1.950 . S
O163 Zn166 1.945 . S
Zn164 O163 1.923 . S
Zn164 O167 1.933 . S
Zn164 O170 1.941 . S
Zn164 O171 1.965 . S
Zn165 O163 1.950 . S
Zn165 O172 1.938 . S
Zn165 O173 1.906 . S
Zn165 O183 1.953 1_455 S
Zn166 O163 1.945 . S
Zn166 O168 1.932 . S
Zn166 O175 1.977 . S
Zn166 O176 1.910 . S
O167 Zn164 1.933 . S
O167 C178 1.226 . S
O168 Zn166 1.932 . S
O168 C178 1.307 . S
O169 Zn162 1.919 . S
O169 C180 1.253 . S
O170 Zn164 1.941 . S
O170 C180 1.283 . S
O171 Zn164 1.965 . S
O171 C179 1.303 . S
O172 Zn165 1.938 . S
O172 C179 1.247 . S
O173 Zn165 1.906 . S
O173 C181 1.304 . S
O174 Zn162 1.924 . S
O174 C182 1.311 . S
O175 Zn166 1.977 . S
O175 C181 1.272 . S
O176 Zn166 1.910 . S
O176 C182 1.231 . S
C177 O161 1.225 1_655 S
C177 O183 1.298 . S
C178 O167 1.226 . S
C178 O168 1.307 . S
C179 O171 1.303 . S
C179 O172 1.247 . S
C180 O169 1.253 . S
C180 O170 1.283 . S
C181 O173 1.304 . S
C181 O175 1.272 . S
C182 O174 1.311 . S
C182 O176 1.231 . S
O183 Zn165 1.953 1_655 S
O183 C177 1.298 . S
O184 Zn185 1.953 . S
O184 C200 1.225 . S
Zn185 O184 1.953 . S
Zn185 O186 1.949 . S
Zn185 O192 1.919 . S
Zn185 O197 1.924 . S
O186 Zn185 1.949 . S
O186 Zn187 1.923 . S
O186 Zn188 1.950 . S
O186 Zn189 1.945 . S
Zn187 O186 1.923 . S
Zn187 O190 1.933 . S
Zn187 O193 1.941 . S
Zn187 O194 1.965 . S
Zn188 O186 1.950 . S
Zn188 O195 1.938 . S
Zn188 O196 1.906 . S
Zn188 O206 1.953 . S
Zn189 O186 1.945 . S
Zn189 O191 1.932 . S
Zn189 O198 1.977 . S
Zn189 O199 1.910 . S
O190 Zn187 1.933 . S
O190 C201 1.226 . S
O191 Zn189 1.932 . S
O191 C201 1.307 . S
O192 Zn185 1.919 . S
O192 C203 1.253 . S
O193 Zn187 1.941 . S
O193 C203 1.283 . S
O194 Zn187 1.965 . S
O194 C202 1.303 . S
O195 Zn188 1.938 . S
O195 C202 1.247 . S
O196 Zn188 1.906 . S
O196 C204 1.304 . S
O197 Zn185 1.924 . S
O197 C205 1.311 . S
O198 Zn189 1.977 . S
O198 C204 1.272 . S
O199 Zn189 1.910 . S
O199 C205 1.231 . S
C200 O184 1.225 . S
C200 O206 1.298 . S
C201 O190 1.226 . S
C201 O191 1.307 . S
C202 O194 1.303 . S
C202 O195 1.247 . S
C203 O192 1.253 . S
C203 O193 1.283 . S
C204 O196 1.304 . S
C204 O198 1.272 . S
C205 O197 1.311 . S
C205 O199 1.231 . S
O206 Zn188 1.953 . S
O206 C200 1.298 . S
O207 Zn208 1.953 . S
O207 C223 1.225 1_455 S
Zn208 O207 1.953 . S
Zn208 O209 1.949 . S
Zn208 O215 1.919 . S
Zn208 O220 1.924 . S
O209 Zn208 1.949 . S
O209 Zn210 1.923 . S
O209 Zn211 1.950 . S
O209 Zn212 1.945 . S
Zn210 O209 1.923 . S
Zn210 O213 1.933 . S
Zn210 O216 1.941 . S
Zn210 O217 1.965 . S
Zn211 O209 1.950 . S
Zn211 O218 1.938 . S
Zn211 O219 1.906 . S
Zn211 O229 1.953 1_455 S
Zn212 O209 1.945 . S
Zn212 O214 1.932 . S
Zn212 O221 1.977 . S
Zn212 O222 1.910 . S
O213 Zn210 1.933 . S
O213 C224 1.226 . S
O214 Zn212 1.932 . S
O214 C224 1.307 . S
O215 Zn208 1.919 . S
O215 C226 1.253 . S
O216 Zn210 1.941 . S
O216 C226 1.283 . S
O217 Zn210 1.965 . S
O217 C225 1.303 . S
O218 Zn211 1.938 . S
O218 C225 1.247 . S
O219 Zn211 1.906 . S
O219 C227 1.304 . S
O220 Zn208 1.924 . S
O220 C228 1.311 . S
O221 Zn212 1.977 . S
O221 C227 1.272 . S
O222 Zn212 1.910 . S
O222 C228 1.231 . S
C223 O207 1.225 1_655 S
C223 O229 1.298 . S
C224 O213 1.226 . S
C224 O214 1.307 . S
C225 O217 1.303 . S
C225 O218 1.247 . S
C226 O215 1.253 . S
C226 O216 1.283 . S
C227 O219 1.304 . S
C227 O221 1.272 . S
C228 O220 1.311 . S
C228 O222 1.231 . S
O229 Zn211 1.953 1_655 S
O229 C223 1.298 . S
O230 Zn231 1.953 . S
O230 C246 1.225 . S
Zn231 O230 1.953 . S
Zn231 O232 1.949 1_556 S
Zn231 O238 1.919 . S
Zn231 O243 1.924 . S
O232 Zn231 1.949 1_554 S
O232 Zn233 1.923 . S
O232 Zn234 1.950 . S
O232 Zn235 1.945 . S
Zn233 O232 1.923 . S
Zn233 O236 1.933 . S
Zn233 O239 1.941 1_554 S
Zn233 O240 1.965 . S
Zn234 O232 1.950 . S
Zn234 O241 1.938 . S
Zn234 O242 1.906 . S
Zn234 O252 1.953 . S
Zn235 O232 1.945 . S
Zn235 O237 1.932 . S
Zn235 O244 1.977 . S
Zn235 O245 1.910 . S
O236 Zn233 1.933 . S
O236 C247 1.226 . S
O237 Zn235 1.932 . S
O237 C247 1.307 . S
O238 Zn231 1.919 . S
O238 C249 1.253 . S
O239 Zn233 1.941 1_556 S
O239 C249 1.283 . S
O240 Zn233 1.965 . S
O240 C248 1.303 . S
O241 Zn234 1.938 . S
O241 C248 1.247 . S
O242 Zn234 1.906 . S
O242 C250 1.304 . S
O243 Zn231 1.924 . S
O243 C251 1.311 . S
O244 Zn235 1.977 . S
O244 C250 1.272 . S
O245 Zn235 1.910 . S
O245 C251 1.231 1_554 S
C246 O230 1.225 . S
C246 O252 1.298 1_556 S
C247 O236 1.226 . S
C247 O237 1.307 . S
C248 O240 1.303 . S
C248 O241 1.247 . S
C249 O238 1.253 . S
C249 O239 1.283 . S
C250 O242 1.304 . S
C250 O244 1.272 . S
C251 O243 1.311 . S
C251 O245 1.231 1_556 S
O252 Zn234 1.953 . S
O252 C246 1.298 1_554 S
O253 Zn254 1.953 . S
O253 C269 1.225 . S
Zn254 O253 1.953 . S
Zn254 O255 1.949 . S
Zn254 O261 1.919 . S
Zn254 O266 1.924 . S
O255 Zn254 1.949 . S
O255 Zn256 1.923 . S
O255 Zn257 1.950 . S
O255 Zn258 1.945 . S
Zn256 O255 1.923 . S
Zn256 O259 1.933 . S
Zn256 O262 1.941 . S
Zn256 O263 1.965 . S
Zn257 O255 1.950 . S
Zn257 O264 1.938 . S
Zn257 O265 1.906 . S
Zn257 O275 1.953 . S
Zn258 O255 1.945 . S
Zn258 O260 1.932 . S
Zn258 O267 1.977 . S
Zn258 O268 1.910 . S
O259 Zn256 1.933 . S
O259 C270 1.226 . S
O260 Zn258 1.932 . S
O260 C270 1.307 . S
O261 Zn254 1.919 . S
O261 C272 1.253 . S
O262 Zn256 1.941 . S
O262 C272 1.283 . S
O263 Zn256 1.965 . S
O263 C271 1.303 . S
O264 Zn257 1.938 . S
O264 C271 1.247 . S
O265 Zn257 1.906 . S
O265 C273 1.304 . S
O266 Zn254 1.924 . S
O266 C274 1.311 . S
O267 Zn258 1.977 . S
O267 C273 1.272 . S
O268 Zn258 1.910 . S
O268 C274 1.231 . S
C269 O253 1.225 . S
C269 O275 1.298 . S
C270 O259 1.226 . S
C270 O260 1.307 . S
C271 O263 1.303 . S
C271 O264 1.247 . S
C272 O261 1.253 . S
C272 O262 1.283 . S
C273 O265 1.304 . S
C273 O267 1.272 . S
C274 O266 1.311 . S
C274 O268 1.231 . S
O275 Zn257 1.953 . S
O275 C269 1.298 . S
O276 Zn277 1.953 . S
O276 C292 1.225 . S
Zn277 O276 1.953 . S
Zn277 O278 1.949 . S
Zn277 O284 1.919 . S
Zn277 O289 1.924 . S
O278 Zn277 1.949 . S
O278 Zn279 1.923 . S
O278 Zn280 1.950 . S
O278 Zn281 1.945 . S
Zn279 O278 1.923 . S
Zn279 O282 1.933 . S
Zn279 O285 1.941 . S
Zn279 O286 1.965 . S
Zn280 O278 1.950 . S
Zn280 O287 1.938 . S
Zn280 O288 1.906 . S
Zn280 O298 1.953 . S
Zn281 O278 1.945 . S
Zn281 O283 1.932 . S
Zn281 O290 1.977 . S
Zn281 O291 1.910 . S
O282 Zn279 1.933 . S
O282 C293 1.226 . S
O283 Zn281 1.932 . S
O283 C293 1.307 . S
O284 Zn277 1.919 . S
O284 C295 1.253 . S
O285 Zn279 1.941 . S
O285 C295 1.283 . S
O286 Zn279 1.965 . S
O286 C294 1.303 . S
O287 Zn280 1.938 . S
O287 C294 1.247 . S
O288 Zn280 1.906 . S
O288 C296 1.304 . S
O289 Zn277 1.924 . S
O289 C297 1.311 . S
O290 Zn281 1.977 . S
O290 C296 1.272 . S
O291 Zn281 1.910 . S
O291 C297 1.231 . S
C292 O276 1.225 . S
C292 O298 1.298 . S
C293 O282 1.226 . S
C293 O283 1.307 . S
C294 O286 1.303 . S
C294 O287 1.247 . S
C295 O284 1.253 . S
C295 O285 1.283 . S
C296 O288 1.304 . S
C296 O290 1.272 . S
C297 O289 1.311 . S
C297 O291 1.231 . S
O298 Zn280 1.953 . S
O298 C292 1.298 . S
O299 Zn300 1.953 . S
O299 C315 1.225 1_655 S
Zn300 O299 1.953 . S
Zn300 O301 1.949 . S
Zn300 O307 1.919 . S
Zn300 O312 1.924 . S
O301 Zn300 1.949 . S
O301 Zn302 1.923 . S
O301 Zn303 1.950 . S
O301 Zn304 1.945 . S
Zn302 O301 1.923 . S
Zn302 O305 1.933 . S
Zn302 O308 1.941 . S
Zn302 O309 1.965 . S
Zn303 O301 1.950 . S
Zn303 O310 1.938 . S
Zn303 O311 1.906 . S
Zn303 O321 1.953 1_655 S
Zn304 O301 1.945 . S
Zn304 O306 1.932 . S
Zn304 O313 1.977 . S
Zn304 O314 1.910 . S
O305 Zn302 1.933 . S
O305 C316 1.226 . S
O306 Zn304 1.932 . S
O306 C316 1.307 . S
O307 Zn300 1.919 . S
O307 C318 1.253 . S
O308 Zn302 1.941 . S
O308 C318 1.283 . S
O309 Zn302 1.965 . S
O309 C317 1.303 . S
O310 Zn303 1.938 . S
O310 C317 1.247 . S
O311 Zn303 1.906 . S
O311 C319 1.304 . S
O312 Zn300 1.924 . S
O312 C320 1.311 . S
O313 Zn304 1.977 . S
O313 C319 1.272 . S
O314 Zn304 1.910 . S
O314 C320 1.231 . S
C315 O299 1.225 1_455 S
C315 O321 1.298 . S
C316 O305 1.226 . S
C316 O306 1.307 . S
C317 O309 1.303 . S
C317 O310 1.247 . S
C318 O307 1.253 . S
C318 O308 1.283 . S
C319 O311 1.304 . S
C319 O313 1.272 . S
C320 O312 1.311 . S
C320 O314 1.231 . S
O321 Zn303 1.953 1_455 S
O321 C315 1.298 . S
O322 Zn323 1.953 . S
O322 C338 1.225 . S
Zn323 O322 1.953 . S
Zn323 O324 1.949 1_554 S
Zn323 O330 1.919 . S
Zn323 O335 1.924 . S
O324 Zn323 1.949 1_556 S
O324 Zn325 1.923 . S
O324 Zn326 1.950 . S
O324 Zn327 1.945 . S
Zn325 O324 1.923 . S
Zn325 O328 1.933 . S
Zn325 O331 1.941 1_556 S
Zn325 O332 1.965 . S
Zn326 O324 1.950 . S
Zn326 O333 1.938 . S
Zn326 O334 1.906 . S
Zn326 O344 1.953 . S
Zn327 O324 1.945 . S
Zn327 O329 1.932 . S
Zn327 O336 1.977 . S
Zn327 O337 1.910 . S
O328 Zn325 1.933 . S
O328 C339 1.226 . S
O329 Zn327 1.932 . S
O329 C339 1.307 . S
O330 Zn323 1.919 . S
O330 C341 1.253 . S
O331 Zn325 1.941 1_554 S
O331 C341 1.283 . S
O332 Zn325 1.965 . S
O332 C340 1.303 . S
O333 Zn326 1.938 . S
O333 C340 1.247 . S
O334 Zn326 1.906 . S
O334 C342 1.304 . S
O335 Zn323 1.924 . S
O335 C343 1.311 . S
O336 Zn327 1.977 . S
O336 C342 1.272 . S
O337 Zn327 1.910 . S
O337 C343 1.231 1_556 S
C338 O322 1.225 . S
C338 O344 1.298 1_554 S
C339 O328 1.226 . S
C339 O329 1.307 . S
C340 O332 1.303 . S
C340 O333 1.247 . S
C341 O330 1.253 . S
C341 O331 1.283 . S
C342 O334 1.304 . S
C342 O336 1.272 . S
C343 O335 1.311 . S
C343 O337 1.231 1_554 S
O344 Zn326 1.953 . S
O344 C338 1.298 1_556 S
O345 Zn346 1.953 . S
O345 C361 1.225 . S
Zn346 O345 1.953 . S
Zn346 O347 1.949 . S
Zn346 O353 1.919 . S
Zn346 O358 1.924 . S
O347 Zn346 1.949 . S
O347 Zn348 1.923 . S
O347 Zn349 1.950 . S
O347 Zn350 1.945 . S
Zn348 O347 1.923 . S
Zn348 O351 1.933 . S
Zn348 O354 1.941 . S
Zn348 O355 1.965 . S
Zn349 O347 1.950 . S
Zn349 O356 1.938 . S
Zn349 O357 1.906 . S
Zn349 O367 1.953 . S
Zn350 O347 1.945 . S
Zn350 O352 1.932 . S
Zn350 O359 1.977 . S
Zn350 O360 1.910 . S
O351 Zn348 1.933 . S
O351 C362 1.226 . S
O352 Zn350 1.932 . S
O352 C362 1.307 . S
O353 Zn346 1.919 . S
O353 C364 1.253 . S
O354 Zn348 1.941 . S
O354 C364 1.283 . S
O355 Zn348 1.965 . S
O355 C363 1.303 . S
O356 Zn349 1.938 . S
O356 C363 1.247 . S
O357 Zn349 1.906 . S
O357 C365 1.304 . S
O358 Zn346 1.924 . S
O358 C366 1.311 . S
O359 Zn350 1.977 . S
O359 C365 1.272 . S
O360 Zn350 1.910 . S
O360 C366 1.231 . S
C361 O345 1.225 . S
C361 O367 1.298 . S
C362 O351 1.226 . S
C362 O352 1.307 . S
C363 O355 1.303 . S
C363 O356 1.247 . S
C364 O353 1.253 . S
C364 O354 1.283 . S
C365 O357 1.304 . S
C365 O359 1.272 . S
C366 O358 1.311 . S
C366 O360 1.231 . S
O367 Zn349 1.953 . S
O367 C361 1.298 . S
C368 C369 1.369 . S
C368 C370 1.419 . S
C368 H372 0.930 . S
C369 C368 1.369 . S
C369 C378 1.429 . S
C370 C368 1.419 . S
C370 C371 1.363 . S
C370 H373 0.929 . S
C371 C370 1.363 . S
C371 C377 1.428 . S
H372 C368 0.930 . S
H373 C370 0.929 . S
S374 N375 1.613 . S
S374 N376 1.610 . S
N375 S374 1.613 . S
N375 C378 1.350 . S
N376 S374 1.610 . S
N376 C377 1.351 . S
C377 C371 1.428 . S
C377 N376 1.351 . S
C377 C378 1.434 . S
C378 C369 1.429 . S
C378 N375 1.350 . S
C378 C377 1.434 . S
C379 C380 1.369 . S
C379 C381 1.419 . S
C379 H383 0.930 . S
C380 C379 1.369 . S
C380 C389 1.429 . S
C381 C379 1.419 . S
C381 C382 1.363 . S
C381 H384 0.929 . S
C382 C381 1.363 . S
C382 C388 1.428 . S
H383 C379 0.930 . S
H384 C381 0.929 . S
S385 N386 1.613 . S
S385 N387 1.610 . S
N386 S385 1.613 . S
N386 C389 1.350 . S
N387 S385 1.610 . S
N387 C388 1.351 . S
C388 C382 1.428 . S
C388 N387 1.351 . S
C388 C389 1.434 . S
C389 C380 1.429 . S
C389 N386 1.350 . S
C389 C388 1.434 . S
C390 C391 1.369 . S
C390 C392 1.419 1_455 S
C390 H394 0.930 . S
C391 C390 1.369 . S
C391 C400 1.429 . S
C392 C390 1.419 1_655 S
C392 C393 1.363 . S
C392 H395 0.929 . S
C393 C392 1.363 . S
C393 C399 1.428 . S
H394 C390 0.930 . S
H395 C392 0.929 . S
S396 N397 1.613 . S
S396 N398 1.610 1_455 S
N397 S396 1.613 . S
N397 C400 1.350 . S
N398 S396 1.610 1_655 S
N398 C399 1.351 . S
C399 C393 1.428 . S
C399 N398 1.351 . S
C399 C400 1.434 1_655 S
C400 C391 1.429 . S
C400 N397 1.350 . S
C400 C399 1.434 1_455 S
C401 C402 1.369 1_455 S
C401 C403 1.419 . S
C401 H405 0.930 . S
C402 C401 1.369 1_655 S
C402 C411 1.429 . S
C403 C401 1.419 . S
C403 C404 1.363 . S
C403 H406 0.929 . S
C404 C403 1.363 . S
C404 C410 1.428 1_455 S
H405 C401 0.930 . S
H406 C403 0.929 . S
S407 N408 1.613 . S
S407 N409 1.610 . S
N408 S407 1.613 . S
N408 C411 1.350 . S
N409 S407 1.610 . S
N409 C410 1.351 . S
C410 C404 1.428 1_655 S
C410 N409 1.351 . S
C410 C411 1.434 . S
C411 C402 1.429 . S
C411 N408 1.350 . S
C411 C410 1.434 . S
C412 C413 1.369 . S
C412 C414 1.419 . S
C412 H416 0.930 . S
C413 C412 1.369 . S
C413 C422 1.429 . S
C414 C412 1.419 . S
C414 C415 1.363 . S
C414 H417 0.929 . S
C415 C414 1.363 . S
C415 C421 1.428 . S
H416 C412 0.930 . S
H417 C414 0.929 . S
S418 N419 1.613 . S
S418 N420 1.610 . S
N419 S418 1.613 . S
N419 C422 1.350 1_554 S
N420 S418 1.610 . S
N420 C421 1.351 1_554 S
C421 C415 1.428 . S
C421 N420 1.351 1_556 S
C421 C422 1.434 . S
C422 C413 1.429 . S
C422 N419 1.350 1_556 S
C422 C421 1.434 . S
C423 C424 1.369 . S
C423 C425 1.419 . S
C423 H427 0.930 . S
C424 C423 1.369 . S
C424 C433 1.429 . S
C425 C423 1.419 . S
C425 C426 1.363 . S
C425 H428 0.929 . S
C426 C425 1.363 . S
C426 C432 1.428 . S
H427 C423 0.930 . S
H428 C425 0.929 . S
S429 N430 1.613 . S
S429 N431 1.610 . S
N430 S429 1.613 . S
N430 C433 1.350 . S
N431 S429 1.610 . S
N431 C432 1.351 . S
C432 C426 1.428 . S
C432 N431 1.351 . S
C432 C433 1.434 . S
C433 C424 1.429 . S
C433 N430 1.350 . S
C433 C432 1.434 . S
C434 C435 1.369 . S
C434 C436 1.419 1_655 S
C434 H438 0.930 . S
C435 C434 1.369 . S
C435 C444 1.429 . S
C436 C434 1.419 1_455 S
C436 C437 1.363 . S
C436 H439 0.929 . S
C437 C436 1.363 . S
C437 C443 1.428 . S
H438 C434 0.930 . S
H439 C436 0.929 . S
S440 N441 1.613 1_455 S
S440 N442 1.610 . S
N441 S440 1.613 1_655 S
N441 C444 1.350 . S
N442 S440 1.610 . S
N442 C443 1.351 . S
C443 C437 1.428 . S
C443 N442 1.351 . S
C443 C444 1.434 1_455 S
C444 C435 1.429 . S
C444 N441 1.350 . S
C444 C443 1.434 1_655 S
C445 C446 1.369 1_655 S
C445 C447 1.419 . S
C445 H449 0.930 . S
C446 C445 1.369 1_455 S
C446 C455 1.429 . S
C447 C445 1.419 . S
C447 C448 1.363 . S
C447 H450 0.929 . S
C448 C447 1.363 . S
C448 C454 1.428 1_655 S
H449 C445 0.930 . S
H450 C447 0.929 . S
S451 N452 1.613 . S
S451 N453 1.610 . S
N452 S451 1.613 . S
N452 C455 1.350 . S
N453 S451 1.610 . S
N453 C454 1.351 . S
C454 C448 1.428 1_455 S
C454 N453 1.351 . S
C454 C455 1.434 . S
C455 C446 1.429 . S
C455 N452 1.350 . S
C455 C454 1.434 . S
C456 C457 1.369 . S
C456 C458 1.419 . S
C456 H460 0.930 . S
C457 C456 1.369 . S
C457 C466 1.429 . S
C458 C456 1.419 . S
C458 C459 1.363 . S
C458 H461 0.929 . S
C459 C458 1.363 . S
C459 C465 1.428 . S
H460 C456 0.930 . S
H461 C458 0.929 . S
S462 N463 1.613 1_554 S
S462 N464 1.610 . S
N463 S462 1.613 1_556 S
N463 C466 1.350 . S
N464 S462 1.610 . S
N464 C465 1.351 1_554 S
C465 C459 1.428 . S
C465 N464 1.351 1_556 S
C465 C466 1.434 . S
C466 C457 1.429 . S
C466 N463 1.350 . S
C466 C465 1.434 . S
C467 C468 1.369 . S
C467 C469 1.419 . S
C467 H471 0.930 . S
C468 C467 1.369 . S
C468 C477 1.429 . S
C469 C467 1.419 . S
C469 C470 1.363 . S
C469 H472 0.929 . S
C470 C469 1.363 . S
C470 C476 1.428 . S
H471 C467 0.930 . S
H472 C469 0.929 . S
S473 N474 1.613 . S
S473 N475 1.610 . S
N474 S473 1.613 . S
N474 C477 1.350 . S
N475 S473 1.610 . S
N475 C476 1.351 . S
C476 C470 1.428 . S
C476 N475 1.351 . S
C476 C477 1.434 . S
C477 C468 1.429 . S
C477 N474 1.350 . S
C477 C476 1.434 . S
C478 C479 1.369 . S
C478 C480 1.419 . S
C478 H482 0.930 . S
C479 C478 1.369 . S
C479 C488 1.429 . S
C480 C478 1.419 . S
C480 C481 1.363 . S
C480 H483 0.929 . S
C481 C480 1.363 . S
C481 C487 1.428 . S
H482 C478 0.930 . S
H483 C480 0.929 . S
S484 N485 1.613 . S
S484 N486 1.610 . S
N485 S484 1.613 . S
N485 C488 1.350 . S
N486 S484 1.610 . S
N486 C487 1.351 . S
C487 C481 1.428 . S
C487 N486 1.351 . S
C487 C488 1.434 . S
C488 C479 1.429 . S
C488 N485 1.350 . S
C488 C487 1.434 . S
C489 C490 1.369 . S
C489 C491 1.419 . S
C489 H493 0.930 . S
C490 C489 1.369 . S
C490 C499 1.429 . S
C491 C489 1.419 . S
C491 C492 1.363 . S
C491 H494 0.929 . S
C492 C491 1.363 . S
C492 C498 1.428 . S
H493 C489 0.930 . S
H494 C491 0.929 . S
S495 N496 1.613 . S
S495 N497 1.610 . S
N496 S495 1.613 . S
N496 C499 1.350 . S
N497 S495 1.610 . S
N497 C498 1.351 . S
C498 C492 1.428 . S
C498 N497 1.351 . S
C498 C499 1.434 . S
C499 C490 1.429 . S
C499 N496 1.350 . S
C499 C498 1.434 . S
C500 C501 1.369 . S
C500 C502 1.419 . S
C500 H504 0.930 . S
C501 C500 1.369 . S
C501 C510 1.429 . S
C502 C500 1.419 . S
C502 C503 1.363 . S
C502 H505 0.929 . S
C503 C502 1.363 . S
C503 C509 1.428 . S
H504 C500 0.930 . S
H505 C502 0.929 . S
S506 N507 1.613 . S
S506 N508 1.610 1_556 S
N507 S506 1.613 . S
N507 C510 1.350 1_556 S
N508 S506 1.610 1_554 S
N508 C509 1.351 . S
C509 C503 1.428 . S
C509 N508 1.351 . S
C509 C510 1.434 . S
C510 C501 1.429 . S
C510 N507 1.350 1_554 S
C510 C509 1.434 . S
C511 C512 1.369 . S
C511 C513 1.419 . S
C511 H515 0.930 . S
C512 C511 1.369 . S
C512 C521 1.429 . S
C513 C511 1.419 . S
C513 C514 1.363 . S
C513 H516 0.929 . S
C514 C513 1.363 . S
C514 C520 1.428 . S
H515 C511 0.930 . S
H516 C513 0.929 . S
S517 N518 1.613 . S
S517 N519 1.610 . S
N518 S517 1.613 . S
N518 C521 1.350 . S
N519 S517 1.610 . S
N519 C520 1.351 . S
C520 C514 1.428 . S
C520 N519 1.351 . S
C520 C521 1.434 . S
C521 C512 1.429 . S
C521 N518 1.350 . S
C521 C520 1.434 . S
C522 C523 1.369 . S
C522 C524 1.419 . S
C522 H526 0.930 . S
C523 C522 1.369 . S
C523 C532 1.429 . S
C524 C522 1.419 . S
C524 C525 1.363 . S
C524 H527 0.929 . S
C525 C524 1.363 . S
C525 C531 1.428 . S
H526 C522 0.930 . S
H527 C524 0.929 . S
S528 N529 1.613 . S
S528 N530 1.610 . S
N529 S528 1.613 . S
N529 C532 1.350 . S
N530 S528 1.610 . S
N530 C531 1.351 . S
C531 C525 1.428 . S
C531 N530 1.351 . S
C531 C532 1.434 . S
C532 C523 1.429 . S
C532 N529 1.350 . S
C532 C531 1.434 . S
C533 C534 1.369 . S
C533 C535 1.419 . S
C533 H537 0.930 . S
C534 C533 1.369 . S
C534 C543 1.429 . S
C535 C533 1.419 . S
C535 C536 1.363 . S
C535 H538 0.929 . S
C536 C535 1.363 . S
C536 C542 1.428 . S
H537 C533 0.930 . S
H538 C535 0.929 . S
S539 N540 1.613 . S
S539 N541 1.610 . S
N540 S539 1.613 . S
N540 C543 1.350 . S
N541 S539 1.610 . S
N541 C542 1.351 . S
C542 C536 1.428 . S
C542 N541 1.351 . S
C542 C543 1.434 . S
C543 C534 1.429 . S
C543 N540 1.350 . S
C543 C542 1.434 . S
C544 C545 1.369 . S
C544 C546 1.419 . S
C544 H548 0.930 . S
C545 C544 1.369 . S
C545 C554 1.429 . S
C546 C544 1.419 . S
C546 C547 1.363 . S
C546 H549 0.929 . S
C547 C546 1.363 . S
C547 C553 1.428 . S
H548 C544 0.930 . S
H549 C546 0.929 . S
S550 N551 1.613 . S
S550 N552 1.610 . S
N551 S550 1.613 . S
N551 C554 1.350 . S
N552 S550 1.610 . S
N552 C553 1.351 . S
C553 C547 1.428 . S
C553 N552 1.351 . S
C553 C554 1.434 . S
C554 C545 1.429 . S
C554 N551 1.350 . S
C554 C553 1.434 . S
C555 C556 1.369 . S
C555 C557 1.419 . S
C555 H559 0.930 . S
C556 C555 1.369 . S
C556 C565 1.429 . S
C557 C555 1.419 . S
C557 C558 1.363 . S
C557 H560 0.929 . S
C558 C557 1.363 . S
C558 C564 1.428 . S
H559 C555 0.930 . S
H560 C557 0.929 . S
S561 N562 1.613 1_565 S
S561 N563 1.610 . S
N562 S561 1.613 1_545 S
N562 C565 1.350 1_545 S
N563 S561 1.610 . S
N563 C564 1.351 . S
C564 C558 1.428 . S
C564 N563 1.351 . S
C564 C565 1.434 . S
C565 C556 1.429 . S
C565 N562 1.350 1_565 S
C565 C564 1.434 . S
C566 C567 1.369 . S
C566 C568 1.419 . S
C566 H570 0.930 . S
C567 C566 1.369 . S
C567 C576 1.429 . S
C568 C566 1.419 . S
C568 C569 1.363 . S
C568 H571 0.929 . S
C569 C568 1.363 . S
C569 C575 1.428 . S
H570 C566 0.930 . S
H571 C568 0.929 . S
S572 N573 1.613 . S
S572 N574 1.610 . S
N573 S572 1.613 . S
N573 C576 1.350 . S
N574 S572 1.610 . S
N574 C575 1.351 . S
C575 C569 1.428 . S
C575 N574 1.351 . S
C575 C576 1.434 . S
C576 C567 1.429 . S
C576 N573 1.350 . S
C576 C575 1.434 . S
C577 C578 1.369 . S
C577 C579 1.419 . S
C577 H581 0.930 1_545 S
C578 C577 1.369 . S
C578 C587 1.429 . S
C579 C577 1.419 . S
C579 C580 1.363 . S
C579 H582 0.929 . S
C580 C579 1.363 . S
C580 C586 1.428 . S
H581 C577 0.930 1_565 S
H582 C579 0.929 . S
S583 N584 1.613 . S
S583 N585 1.610 . S
N584 S583 1.613 . S
N584 C587 1.350 . S
N585 S583 1.610 . S
N585 C586 1.351 . S
C586 C580 1.428 . S
C586 N585 1.351 . S
C586 C587 1.434 . S
C587 C578 1.429 . S
C587 N584 1.350 . S
C587 C586 1.434 . S
C588 C589 1.369 . S
C588 C590 1.419 . S
C588 H592 0.930 . S
C589 C588 1.369 . S
C589 C598 1.429 . S
C590 C588 1.419 . S
C590 C591 1.363 . S
C590 H593 0.929 . S
C591 C590 1.363 . S
C591 C597 1.428 . S
H592 C588 0.930 . S
H593 C590 0.929 . S
S594 N595 1.613 . S
S594 N596 1.610 . S
N595 S594 1.613 . S
N595 C598 1.350 . S
N596 S594 1.610 . S
N596 C597 1.351 . S
C597 C591 1.428 . S
C597 N596 1.351 . S
C597 C598 1.434 . S
C598 C589 1.429 . S
C598 N595 1.350 . S
C598 C597 1.434 . S
C599 C600 1.369 . S
C599 C601 1.419 . S
C599 H603 0.930 . S
C600 C599 1.369 . S
C600 C609 1.429 . S
C601 C599 1.419 . S
C601 C602 1.363 . S
C601 H604 0.929 . S
C602 C601 1.363 . S
C602 C608 1.428 . S
H603 C599 0.930 . S
H604 C601 0.929 . S
S605 N606 1.613 1_565 S
S605 N607 1.610 . S
N606 S605 1.613 1_545 S
N606 C609 1.350 . S
N607 S605 1.610 . S
N607 C608 1.351 1_565 S
C608 C602 1.428 . S
C608 N607 1.351 1_545 S
C608 C609 1.434 . S
C609 C600 1.429 . S
C609 N606 1.350 . S
C609 C608 1.434 . S
C610 C611 1.369 . S
C610 C612 1.419 . S
C610 H614 0.930 . S
C611 C610 1.369 . S
C611 C620 1.429 . S
C612 C610 1.419 . S
C612 C613 1.363 . S
C612 H615 0.929 . S
C613 C612 1.363 . S
C613 C619 1.428 . S
H614 C610 0.930 . S
H615 C612 0.929 . S
S616 N617 1.613 . S
S616 N618 1.610 . S
N617 S616 1.613 . S
N617 C620 1.350 . S
N618 S616 1.610 . S
N618 C619 1.351 . S
C619 C613 1.428 . S
C619 N618 1.351 . S
C619 C620 1.434 . S
C620 C611 1.429 . S
C620 N617 1.350 . S
C620 C619 1.434 . S
C621 C622 1.369 . S
C621 C623 1.419 . S
C621 H625 0.930 1_565 S
C622 C621 1.369 . S
C622 C631 1.429 . S
C623 C621 1.419 . S
C623 C624 1.363 . S
C623 H626 0.929 . S
C624 C623 1.363 . S
C624 C630 1.428 . S
H625 C621 0.930 1_545 S
H626 C623 0.929 . S
S627 N628 1.613 . S
S627 N629 1.610 . S
N628 S627 1.613 . S
N628 C631 1.350 . S
N629 S627 1.610 . S
N629 C630 1.351 . S
C630 C624 1.428 . S
C630 N629 1.351 . S
C630 C631 1.434 . S
C631 C622 1.429 . S
C631 N628 1.350 . S
C631 C630 1.434 . S
C632 C633 1.369 . S
C632 C634 1.419 . S
C632 H636 0.930 . S
C633 C632 1.369 . S
C633 C642 1.429 . S
C634 C632 1.419 . S
C634 C635 1.363 . S
C634 H637 0.929 . S
C635 C634 1.363 . S
C635 C641 1.428 . S
H636 C632 0.930 . S
H637 C634 0.929 . S
S638 N639 1.613 . S
S638 N640 1.610 . S
N639 S638 1.613 . S
N639 C642 1.350 . S
N640 S638 1.610 . S
N640 C641 1.351 . S
C641 C635 1.428 . S
C641 N640 1.351 . S
C641 C642 1.434 . S
C642 C633 1.429 . S
C642 N639 1.350 . S
C642 C641 1.434 . S
C643 C644 1.369 . S
C643 C645 1.419 . S
C643 H647 0.930 . S
C644 C643 1.369 . S
C644 C653 1.429 . S
C645 C643 1.419 . S
C645 C646 1.363 . S
C645 H648 0.929 . S
C646 C645 1.363 . S
C646 C652 1.428 . S
H647 C643 0.930 . S
H648 C645 0.929 . S
S649 N650 1.613 . S
S649 N651 1.610 . S
N650 S649 1.613 . S
N650 C653 1.350 . S
N651 S649 1.610 . S
N651 C652 1.351 . S
C652 C646 1.428 . S
C652 N651 1.351 . S
C652 C653 1.434 . S
C653 C644 1.429 . S
C653 N650 1.350 . S
C653 C652 1.434 . S
C654 C655 1.369 . S
C654 C656 1.419 . S
C654 H658 0.930 . S
C655 C654 1.369 . S
C655 C664 1.429 . S
C656 C654 1.419 . S
C656 C657 1.363 . S
C656 H659 0.929 . S
C657 C656 1.363 . S
C657 C663 1.428 . S
H658 C654 0.930 . S
H659 C656 0.929 . S
S660 N661 1.613 . S
S660 N662 1.610 1_655 S
N661 S660 1.613 . S
N661 C664 1.350 1_655 S
N662 S660 1.610 1_455 S
N662 C663 1.351 . S
C663 C657 1.428 . S
C663 N662 1.351 . S
C663 C664 1.434 . S
C664 C655 1.429 . S
C664 N661 1.350 1_455 S
C664 C663 1.434 . S
C665 C666 1.369 . S
C665 C667 1.419 . S
C665 H669 0.930 . S
C666 C665 1.369 . S
C666 C675 1.429 . S
C667 C665 1.419 . S
C667 C668 1.363 . S
C667 H670 0.929 . S
C668 C667 1.363 . S
C668 C674 1.428 . S
H669 C665 0.930 . S
H670 C667 0.929 . S
S671 N672 1.613 . S
S671 N673 1.610 . S
N672 S671 1.613 . S
N672 C675 1.350 . S
N673 S671 1.610 . S
N673 C674 1.351 . S
C674 C668 1.428 . S
C674 N673 1.351 . S
C674 C675 1.434 . S
C675 C666 1.429 . S
C675 N672 1.350 . S
C675 C674 1.434 . S
C676 C677 1.369 . S
C676 C678 1.419 . S
C676 H680 0.930 . S
C677 C676 1.369 . S
C677 C686 1.429 . S
C678 C676 1.419 . S
C678 C679 1.363 . S
C678 H681 0.929 . S
C679 C678 1.363 . S
C679 C685 1.428 . S
H680 C676 0.930 . S
H681 C678 0.929 . S
S682 N683 1.613 . S
S682 N684 1.610 . S
N683 S682 1.613 . S
N683 C686 1.350 . S
N684 S682 1.610 . S
N684 C685 1.351 . S
C685 C679 1.428 . S
C685 N684 1.351 . S
C685 C686 1.434 . S
C686 C677 1.429 . S
C686 N683 1.350 . S
C686 C685 1.434 . S
C687 C688 1.369 . S
C687 C689 1.419 . S
C687 H691 0.930 . S
C688 C687 1.369 . S
C688 C697 1.429 . S
C689 C687 1.419 . S
C689 C690 1.363 . S
C689 H692 0.929 . S
C690 C689 1.363 . S
C690 C696 1.428 . S
H691 C687 0.930 . S
H692 C689 0.929 . S
S693 N694 1.613 . S
S693 N695 1.610 . S
N694 S693 1.613 . S
N694 C697 1.350 . S
N695 S693 1.610 . S
N695 C696 1.351 . S
C696 C690 1.428 . S
C696 N695 1.351 . S
C696 C697 1.434 . S
C697 C688 1.429 . S
C697 N694 1.350 . S
C697 C696 1.434 . S
C698 C699 1.369 . S
C698 C700 1.419 . S
C698 H702 0.930 . S
C699 C698 1.369 . S
C699 C708 1.429 . S
C700 C698 1.419 . S
C700 C701 1.363 . S
C700 H703 0.929 . S
C701 C700 1.363 . S
C701 C707 1.428 . S
H702 C698 0.930 . S
H703 C700 0.929 . S
S704 N705 1.613 . S
S704 N706 1.610 . S
N705 S704 1.613 . S
N705 C708 1.350 . S
N706 S704 1.610 . S
N706 C707 1.351 . S
C707 C701 1.428 . S
C707 N706 1.351 . S
C707 C708 1.434 . S
C708 C699 1.429 . S
C708 N705 1.350 . S
C708 C707 1.434 . S
C709 C710 1.369 . S
C709 C711 1.419 . S
C709 H713 0.930 . S
C710 C709 1.369 . S
C710 C719 1.429 . S
C711 C709 1.419 . S
C711 C712 1.363 . S
C711 H714 0.929 . S
C712 C711 1.363 . S
C712 C718 1.428 . S
H713 C709 0.930 . S
H714 C711 0.929 . S
S715 N716 1.613 . S
S715 N717 1.610 . S
N716 S715 1.613 . S
N716 C719 1.350 . S
N717 S715 1.610 . S
N717 C718 1.351 . S
C718 C712 1.428 . S
C718 N717 1.351 . S
C718 C719 1.434 . S
C719 C710 1.429 . S
C719 N716 1.350 . S
C719 C718 1.434 . S
C720 C721 1.369 . S
C720 C722 1.419 . S
C720 H724 0.930 . S
C721 C720 1.369 . S
C721 C730 1.429 . S
C722 C720 1.419 . S
C722 C723 1.363 . S
C722 H725 0.929 1_655 S
C723 C722 1.363 . S
C723 C729 1.428 . S
H724 C720 0.930 . S
H725 C722 0.929 1_455 S
S726 N727 1.613 . S
S726 N728 1.610 . S
N727 S726 1.613 . S
N727 C730 1.350 . S
N728 S726 1.610 . S
N728 C729 1.351 . S
C729 C723 1.428 . S
C729 N728 1.351 . S
C729 C730 1.434 . S
C730 C721 1.429 . S
C730 N727 1.350 . S
C730 C729 1.434 . S
C731 C732 1.369 . S
C731 C733 1.419 . S
C731 H735 0.930 . S
C732 C731 1.369 . S
C732 C741 1.429 . S
C733 C731 1.419 . S
C733 C734 1.363 . S
C733 H736 0.929 . S
C734 C733 1.363 . S
C734 C740 1.428 . S
H735 C731 0.930 . S
H736 C733 0.929 . S
S737 N738 1.613 . S
S737 N739 1.610 . S
N738 S737 1.613 . S
N738 C741 1.350 . S
N739 S737 1.610 . S
N739 C740 1.351 . S
C740 C734 1.428 . S
C740 N739 1.351 . S
C740 C741 1.434 . S
C741 C732 1.429 . S
C741 N738 1.350 . S
C741 C740 1.434 . S
C742 C743 1.369 . S
C742 C744 1.419 . S
C742 H746 0.930 . S
C743 C742 1.369 . S
C743 C752 1.429 . S
C744 C742 1.419 . S
C744 C745 1.363 . S
C744 H747 0.929 . S
C745 C744 1.363 . S
C745 C751 1.428 . S
H746 C742 0.930 . S
H747 C744 0.929 . S
S748 N749 1.613 . S
S748 N750 1.610 . S
N749 S748 1.613 . S
N749 C752 1.350 . S
N750 S748 1.610 . S
N750 C751 1.351 . S
C751 C745 1.428 . S
C751 N750 1.351 . S
C751 C752 1.434 . S
C752 C743 1.429 . S
C752 N749 1.350 . S
C752 C751 1.434 . S
C753 C754 1.369 . S
C753 C755 1.419 . S
C753 H757 0.930 . S
C754 C753 1.369 . S
C754 C763 1.429 . S
C755 C753 1.419 . S
C755 C756 1.363 . S
C755 H758 0.929 . S
C756 C755 1.363 . S
C756 C762 1.428 . S
H757 C753 0.930 . S
H758 C755 0.929 . S
S759 N760 1.613 . S
S759 N761 1.610 . S
N760 S759 1.613 . S
N760 C763 1.350 . S
N761 S759 1.610 . S
N761 C762 1.351 . S
C762 C756 1.428 . S
C762 N761 1.351 . S
C762 C763 1.434 . S
C763 C754 1.429 . S
C763 N760 1.350 . S
C763 C762 1.434 . S
C764 C765 1.369 . S
C764 C766 1.419 . S
C764 H768 0.930 . S
C765 C764 1.369 . S
C765 C774 1.429 . S
C766 C764 1.419 . S
C766 C767 1.363 . S
C766 H769 0.929 1_455 S
C767 C766 1.363 . S
C767 C773 1.428 . S
H768 C764 0.930 . S
H769 C766 0.929 1_655 S
S770 N771 1.613 . S
S770 N772 1.610 . S
N771 S770 1.613 . S
N771 C774 1.350 . S
N772 S770 1.610 . S
N772 C773 1.351 . S
C773 C767 1.428 . S
C773 N772 1.351 . S
C773 C774 1.434 . S
C774 C765 1.429 . S
C774 N771 1.350 . S
C774 C773 1.434 . S
C775 C776 1.369 . S
C775 C777 1.419 . S
C775 H779 0.930 . S
C776 C775 1.369 . S
C776 C785 1.429 . S
C777 C775 1.419 . S
C777 C778 1.363 . S
C777 H780 0.929 . S
C778 C777 1.363 . S
C778 C784 1.428 . S
H779 C775 0.930 . S
H780 C777 0.929 . S
S781 N782 1.613 . S
S781 N783 1.610 . S
N782 S781 1.613 . S
N782 C785 1.350 . S
N783 S781 1.610 . S
N783 C784 1.351 . S
C784 C778 1.428 . S
C784 N783 1.351 . S
C784 C785 1.434 . S
C785 C776 1.429 . S
C785 N782 1.350 . S
C785 C784 1.434 . S
C786 C787 1.369 . S
C786 C788 1.419 . S
C786 H790 0.930 . S
C787 C786 1.369 . S
C787 C796 1.429 . S
C788 C786 1.419 . S
C788 C789 1.363 . S
C788 H791 0.929 . S
C789 C788 1.363 . S
C789 C795 1.428 . S
H790 C786 0.930 . S
H791 C788 0.929 . S
S792 N793 1.613 . S
S792 N794 1.610 . S
N793 S792 1.613 . S
N793 C796 1.350 . S
N794 S792 1.610 . S
N794 C795 1.351 . S
C795 C789 1.428 . S
C795 N794 1.351 . S
C795 C796 1.434 . S
C796 C787 1.429 . S
C796 N793 1.350 . S
C796 C795 1.434 . S
C797 C798 1.369 . S
C797 C799 1.419 . S
C797 H801 0.930 . S
C798 C797 1.369 . S
C798 C807 1.429 . S
C799 C797 1.419 . S
C799 C800 1.363 . S
C799 H802 0.929 . S
C800 C799 1.363 . S
C800 C806 1.428 . S
H801 C797 0.930 . S
H802 C799 0.929 . S
S803 N804 1.613 . S
S803 N805 1.610 . S
N804 S803 1.613 . S
N804 C807 1.350 . S
N805 S803 1.610 . S
N805 C806 1.351 . S
C806 C800 1.428 . S
C806 N805 1.351 . S
C806 C807 1.434 . S
C807 C798 1.429 . S
C807 N804 1.350 . S
C807 C806 1.434 . S
C808 C809 1.369 . S
C808 C810 1.419 . S
C808 H812 0.930 . S
C809 C808 1.369 . S
C809 C818 1.429 . S
C810 C808 1.419 . S
C810 C811 1.363 . S
C810 H813 0.929 . S
C811 C810 1.363 . S
C811 C817 1.428 . S
H812 C808 0.930 . S
H813 C810 0.929 . S
S814 N815 1.613 . S
S814 N816 1.610 . S
N815 S814 1.613 . S
N815 C818 1.350 . S
N816 S814 1.610 . S
N816 C817 1.351 . S
C817 C811 1.428 . S
C817 N816 1.351 . S
C817 C818 1.434 . S
C818 C809 1.429 . S
C818 N815 1.350 . S
C818 C817 1.434 . S
C819 C820 1.369 . S
C819 C821 1.419 . S
C819 H823 0.930 . S
C820 C819 1.369 . S
C820 C829 1.429 . S
C821 C819 1.419 . S
C821 C822 1.363 . S
C821 H824 0.929 . S
C822 C821 1.363 . S
C822 C828 1.428 . S
H823 C819 0.930 . S
H824 C821 0.929 . S
S825 N826 1.613 . S
S825 N827 1.610 . S
N826 S825 1.613 . S
N826 C829 1.350 . S
N827 S825 1.610 . S
N827 C828 1.351 . S
C828 C822 1.428 . S
C828 N827 1.351 . S
C828 C829 1.434 . S
C829 C820 1.429 . S
C829 N826 1.350 . S
C829 C828 1.434 . S
C830 C831 1.369 . S
C830 C832 1.419 . S
C830 H834 0.930 . S
C831 C830 1.369 . S
C831 C840 1.429 . S
C832 C830 1.419 . S
C832 C833 1.363 . S
C832 H835 0.929 . S
C833 C832 1.363 . S
C833 C839 1.428 . S
H834 C830 0.930 . S
H835 C832 0.929 . S
S836 N837 1.613 . S
S836 N838 1.610 . S
N837 S836 1.613 . S
N837 C840 1.350 . S
N838 S836 1.610 . S
N838 C839 1.351 . S
C839 C833 1.428 . S
C839 N838 1.351 . S
C839 C840 1.434 . S
C840 C831 1.429 . S
C840 N837 1.350 . S
C840 C839 1.434 . S
C841 C842 1.369 1_556 S
C841 C843 1.419 . S
C841 H845 0.930 . S
C842 C841 1.369 1_554 S
C842 C851 1.429 1_455 S
C843 C841 1.419 . S
C843 C844 1.363 1_455 S
C843 H846 0.929 . S
C844 C843 1.363 1_655 S
C844 C850 1.428 1_556 S
H845 C841 0.930 . S
H846 C843 0.929 . S
S847 N848 1.613 . S
S847 N849 1.610 . S
N848 S847 1.613 . S
N848 C851 1.350 . S
N849 S847 1.610 . S
N849 C850 1.351 . S
C850 C844 1.428 1_554 S
C850 N849 1.351 . S
C850 C851 1.434 . S
C851 C842 1.429 1_655 S
C851 N848 1.350 . S
C851 C850 1.434 . S
C852 C853 1.369 . S
C852 C854 1.419 . S
C852 H856 0.930 . S
C853 C852 1.369 . S
C853 C862 1.429 . S
C854 C852 1.419 . S
C854 C855 1.363 . S
C854 H857 0.929 . S
C855 C854 1.363 . S
C855 C861 1.428 . S
H856 C852 0.930 . S
H857 C854 0.929 . S
S858 N859 1.613 . S
S858 N860 1.610 . S
N859 S858 1.613 . S
N859 C862 1.350 . S
N860 S858 1.610 . S
N860 C861 1.351 . S
C861 C855 1.428 . S
C861 N860 1.351 . S
C861 C862 1.434 . S
C862 C853 1.429 . S
C862 N859 1.350 . S
C862 C861 1.434 . S
C863 C864 1.369 . S
C863 C865 1.419 . S
C863 H867 0.930 . S
C864 C863 1.369 . S
C864 C873 1.429 . S
C865 C863 1.419 . S
C865 C866 1.363 . S
C865 H868 0.929 . S
C866 C865 1.363 . S
C866 C872 1.428 . S
H867 C863 0.930 . S
H868 C865 0.929 . S
S869 N870 1.613 . S
S869 N871 1.610 . S
N870 S869 1.613 . S
N870 C873 1.350 . S
N871 S869 1.610 . S
N871 C872 1.351 . S
C872 C866 1.428 . S
C872 N871 1.351 . S
C872 C873 1.434 . S
C873 C864 1.429 . S
C873 N870 1.350 . S
C873 C872 1.434 . S
C874 C875 1.369 1_565 S
C874 C876 1.419 1_556 S
C874 H878 0.930 . S
C875 C874 1.369 1_545 S
C875 C884 1.429 1_455 S
C876 C874 1.419 1_554 S
C876 C877 1.363 1_455 S
C876 H879 0.929 . S
C877 C876 1.363 1_655 S
C877 C883 1.428 1_565 S
H878 C874 0.930 . S
H879 C876 0.929 . S
S880 N881 1.613 . S
S880 N882 1.610 1_556 S
N881 S880 1.613 . S
N881 C884 1.350 . S
N882 S880 1.610 1_554 S
N882 C883 1.351 . S
C883 C877 1.428 1_545 S
C883 N882 1.351 . S
C883 C884 1.434 1_554 S
C884 C875 1.429 1_655 S
C884 N881 1.350 . S
C884 C883 1.434 1_556 S
C885 C886 1.369 . S
C885 C887 1.419 . S
C885 H889 0.930 . S
C886 C885 1.369 . S
C886 C895 1.429 1_545 S
C887 C885 1.419 . S
C887 C888 1.363 1_545 S
C887 H890 0.929 . S
C888 C887 1.363 1_565 S
C888 C894 1.428 . S
H889 C885 0.930 . S
H890 C887 0.929 . S
S891 N892 1.613 . S
S891 N893 1.610 . S
N892 S891 1.613 . S
N892 C895 1.350 . S
N893 S891 1.610 . S
N893 C894 1.351 . S
C894 C888 1.428 . S
C894 N893 1.351 . S
C894 C895 1.434 . S
C895 C886 1.429 1_565 S
C895 N892 1.350 . S
C895 C894 1.434 . S
C369 C18 1.419 . S
C371 C248 1.423 . S
C380 C41 1.422 . S
C382 C271 1.421 . S
C391 C64 1.422 . S
C393 C202 1.422 . S
C402 C87 1.420 . S
C404 C225 1.421 . S
C413 C110 1.423 . S
C415 C340 1.420 . S
C424 C133 1.420 . S
C426 C363 1.420 . S
C435 C156 1.420 . S
C437 C294 1.423 . S
C446 C179 1.419 . S
C448 C317 1.422 . S
C457 C224 1.184 . S
C459 C21 1.176 . S
C468 C247 1.187 . S
C470 C44 1.173 . S
C479 C270 1.183 . S
C481 C67 1.177 . S
C490 C201 1.186 . S
C492 C90 1.174 . S
C501 C113 1.175 . S
C503 C316 1.186 . S
C512 C339 1.189 . S
C514 C136 1.170 . S
C523 C362 1.190 . S
C525 C159 1.171 . S
C534 C293 1.187 . S
C536 C182 1.172 . S
C545 C40 1.185 . S
C547 C205 1.175 . S
C556 C228 1.169 1_565 S
C558 C63 1.189 . S
C567 C251 1.172 . S
C569 C86 1.187 . S
C578 C274 1.170 1_545 S
C580 C17 1.189 . S
C589 C297 1.178 . S
C591 C132 1.184 . S
C600 C155 1.184 . S
C602 C320 1.175 1_545 S
C611 C178 1.183 . S
C613 C343 1.177 . S
C622 C366 1.175 1_565 S
C624 C109 1.186 . S
C633 C19 1.137 . S
C635 C361 1.193 . S
C644 C42 1.146 . S
C646 C108 1.197 . S
C655 C315 1.190 . S
C657 C65 1.142 . S
C666 C154 1.198 . S
C668 C88 1.146 . S
C677 C111 1.147 . S
C679 C269 1.197 . S
C688 C134 1.136 . S
C690 C16 1.191 . S
C699 C223 1.191 . S
C701 C157 1.137 . S
C710 C62 1.198 . S
C712 C180 1.148 . S
C721 C203 1.149 . S
C723 C177 1.197 . S
C732 C226 1.139 . S
C734 C292 1.194 . S
C743 C131 1.197 . S
C745 C249 1.144 . S
C754 C338 1.190 . S
C756 C272 1.138 . S
C765 C295 1.138 . S
C767 C85 1.194 . S
C776 C318 1.137 . S
C778 C200 1.191 . S
C787 C341 1.138 . S
C789 C39 1.190 . S
C798 C246 1.190 . S
C800 C364 1.138 . S
C809 C20 1.906 . S
C811 C296 1.910 . S
C820 C43 1.906 . S
C822 C135 1.910 . S
C831 C66 1.906 . S
C833 C342 1.910 . S
C842 C181 1.905 . S
C844 C89 1.911 . S
C853 C112 1.910 . S
C855 C204 1.907 . S
C864 C250 1.905 . S
C866 C158 1.911 . S
C875 C227 1.909 . S
C877 C319 1.908 . S
C886 C365 1.906 . S
C888 C273 1.910 . S
