# Generated by pormake.
# Topology wgs, (5)-cn, num edge types: 1
# Building blocks:
#     Node 0, Type 0, BuildingBlock: BEQFEK_clean_sbu_0, # of connection points: 5
#     Node 1, Type 0, BuildingBlock: BEQFEK_clean_sbu_0, # of connection points: 5
#     Node 2, Type 0, BuildingBlock: BEQFEK_clean_sbu_0, # of connection points: 5
#     Node 3, Type 0, BuildingBlock: BEQFEK_clean_sbu_0, # of connection points: 5
#     Node 4, Type 0, BuildingBlock: BEQFEK_clean_sbu_0, # of connection points: 5
#     Node 5, Type 0, BuildingBlock: BEQFEK_clean_sbu_0, # of connection points: 5
#     Node 6, Type 0, BuildingBlock: BEQFEK_clean_sbu_0, # of connection points: 5
#     Node 7, Type 0, BuildingBlock: BEQFEK_clean_sbu_0, # of connection points: 5
#     Node 8, Type 0, BuildingBlock: BEQFEK_clean_sbu_0, # of connection points: 5
#     Node 9, Type 0, BuildingBlock: BEQFEK_clean_sbu_0, # of connection points: 5
#     Node 10, Type 0, BuildingBlock: BEQFEK_clean_sbu_0, # of connection points: 5
#     Node 11, Type 0, BuildingBlock: BEQFEK_clean_sbu_0, # of connection points: 5
#     Node 12, Type 0, BuildingBlock: BEQFEK_clean_sbu_0, # of connection points: 5
#     Node 13, Type 0, BuildingBlock: BEQFEK_clean_sbu_0, # of connection points: 5
#     Node 14, Type 0, BuildingBlock: BEQFEK_clean_sbu_0, # of connection points: 5
#     Node 15, Type 0, BuildingBlock: BEQFEK_clean_sbu_0, # of connection points: 5
#     Node 16, Type 0, BuildingBlock: BEQFEK_clean_sbu_0, # of connection points: 5
#     Node 17, Type 0, BuildingBlock: BEQFEK_clean_sbu_0, # of connection points: 5
#     Node 18, Type 0, BuildingBlock: BEQFEK_clean_sbu_0, # of connection points: 5
#     Node 19, Type 0, BuildingBlock: BEQFEK_clean_sbu_0, # of connection points: 5
#     Node 20, Type 0, BuildingBlock: BEQFEK_clean_sbu_0, # of connection points: 5
#     Node 21, Type 0, BuildingBlock: BEQFEK_clean_sbu_0, # of connection points: 5
#     Node 22, Type 0, BuildingBlock: BEQFEK_clean_sbu_0, # of connection points: 5
#     Node 23, Type 0, BuildingBlock: BEQFEK_clean_sbu_0, # of connection points: 5
#     Node 24, Type 0, BuildingBlock: BEQFEK_clean_sbu_0, # of connection points: 5
#     Node 25, Type 0, BuildingBlock: BEQFEK_clean_sbu_0, # of connection points: 5
#     Node 26, Type 0, BuildingBlock: BEQFEK_clean_sbu_0, # of connection points: 5
#     Node 27, Type 0, BuildingBlock: BEQFEK_clean_sbu_0, # of connection points: 5
#     Node 28, Type 0, BuildingBlock: BEQFEK_clean_sbu_0, # of connection points: 5
#     Node 29, Type 0, BuildingBlock: BEQFEK_clean_sbu_0, # of connection points: 5
#     Node 30, Type 0, BuildingBlock: BEQFEK_clean_sbu_0, # of connection points: 5
#     Node 31, Type 0, BuildingBlock: BEQFEK_clean_sbu_0, # of connection points: 5
#     Edge 32, Type (0, 0), BuildingBlock: AJUNOK_clean_linker_0, # of connection points: 2
#     Edge 33, Type (0, 0), BuildingBlock: AJUNOK_clean_linker_0, # of connection points: 2
#     Edge 34, Type (0, 0), BuildingBlock: AJUNOK_clean_linker_0, # of connection points: 2
#     Edge 35, Type (0, 0), BuildingBlock: AJUNOK_clean_linker_0, # of connection points: 2
#     Edge 36, Type (0, 0), BuildingBlock: AJUNOK_clean_linker_0, # of connection points: 2
#     Edge 37, Type (0, 0), BuildingBlock: AJUNOK_clean_linker_0, # of connection points: 2
#     Edge 38, Type (0, 0), BuildingBlock: AJUNOK_clean_linker_0, # of connection points: 2
#     Edge 39, Type (0, 0), BuildingBlock: AJUNOK_clean_linker_0, # of connection points: 2
#     Edge 40, Type (0, 0), BuildingBlock: AJUNOK_clean_linker_0, # of connection points: 2
#     Edge 41, Type (0, 0), BuildingBlock: AJUNOK_clean_linker_0, # of connection points: 2
#     Edge 42, Type (0, 0), BuildingBlock: AJUNOK_clean_linker_0, # of connection points: 2
#     Edge 43, Type (0, 0), BuildingBlock: AJUNOK_clean_linker_0, # of connection points: 2
#     Edge 44, Type (0, 0), BuildingBlock: AJUNOK_clean_linker_0, # of connection points: 2
#     Edge 45, Type (0, 0), BuildingBlock: AJUNOK_clean_linker_0, # of connection points: 2
#     Edge 46, Type (0, 0), BuildingBlock: AJUNOK_clean_linker_0, # of connection points: 2
#     Edge 47, Type (0, 0), BuildingBlock: AJUNOK_clean_linker_0, # of connection points: 2
#     Edge 48, Type (0, 0), BuildingBlock: AJUNOK_clean_linker_0, # of connection points: 2
#     Edge 49, Type (0, 0), BuildingBlock: AJUNOK_clean_linker_0, # of connection points: 2
#     Edge 50, Type (0, 0), BuildingBlock: AJUNOK_clean_linker_0, # of connection points: 2
#     Edge 51, Type (0, 0), BuildingBlock: AJUNOK_clean_linker_0, # of connection points: 2
#     Edge 52, Type (0, 0), BuildingBlock: AJUNOK_clean_linker_0, # of connection points: 2
#     Edge 53, Type (0, 0), BuildingBlock: AJUNOK_clean_linker_0, # of connection points: 2
#     Edge 54, Type (0, 0), BuildingBlock: AJUNOK_clean_linker_0, # of connection points: 2
#     Edge 55, Type (0, 0), BuildingBlock: AJUNOK_clean_linker_0, # of connection points: 2
#     Edge 56, Type (0, 0), BuildingBlock: AJUNOK_clean_linker_0, # of connection points: 2
#     Edge 57, Type (0, 0), BuildingBlock: AJUNOK_clean_linker_0, # of connection points: 2
#     Edge 58, Type (0, 0), BuildingBlock: AJUNOK_clean_linker_0, # of connection points: 2
#     Edge 59, Type (0, 0), BuildingBlock: AJUNOK_clean_linker_0, # of connection points: 2
#     Edge 60, Type (0, 0), BuildingBlock: AJUNOK_clean_linker_0, # of connection points: 2
#     Edge 61, Type (0, 0), BuildingBlock: AJUNOK_clean_linker_0, # of connection points: 2
#     Edge 62, Type (0, 0), BuildingBlock: AJUNOK_clean_linker_0, # of connection points: 2
#     Edge 63, Type (0, 0), BuildingBlock: AJUNOK_clean_linker_0, # of connection points: 2
#     Edge 64, Type (0, 0), BuildingBlock: AJUNOK_clean_linker_0, # of connection points: 2
#     Edge 65, Type (0, 0), BuildingBlock: AJUNOK_clean_linker_0, # of connection points: 2
#     Edge 66, Type (0, 0), BuildingBlock: AJUNOK_clean_linker_0, # of connection points: 2
#     Edge 67, Type (0, 0), BuildingBlock: AJUNOK_clean_linker_0, # of connection points: 2
#     Edge 68, Type (0, 0), BuildingBlock: AJUNOK_clean_linker_0, # of connection points: 2
#     Edge 69, Type (0, 0), BuildingBlock: AJUNOK_clean_linker_0, # of connection points: 2
#     Edge 70, Type (0, 0), BuildingBlock: AJUNOK_clean_linker_0, # of connection points: 2
#     Edge 71, Type (0, 0), BuildingBlock: AJUNOK_clean_linker_0, # of connection points: 2
#     Edge 72, Type (0, 0), BuildingBlock: AJUNOK_clean_linker_0, # of connection points: 2
#     Edge 73, Type (0, 0), BuildingBlock: AJUNOK_clean_linker_0, # of connection points: 2
#     Edge 74, Type (0, 0), BuildingBlock: AJUNOK_clean_linker_0, # of connection points: 2
#     Edge 75, Type (0, 0), BuildingBlock: AJUNOK_clean_linker_0, # of connection points: 2
#     Edge 76, Type (0, 0), BuildingBlock: AJUNOK_clean_linker_0, # of connection points: 2
#     Edge 77, Type (0, 0), BuildingBlock: AJUNOK_clean_linker_0, # of connection points: 2
#     Edge 78, Type (0, 0), BuildingBlock: AJUNOK_clean_linker_0, # of connection points: 2
#     Edge 79, Type (0, 0), BuildingBlock: AJUNOK_clean_linker_0, # of connection points: 2
#     Edge 80, Type (0, 0), BuildingBlock: AJUNOK_clean_linker_0, # of connection points: 2
#     Edge 81, Type (0, 0), BuildingBlock: AJUNOK_clean_linker_0, # of connection points: 2
#     Edge 82, Type (0, 0), BuildingBlock: AJUNOK_clean_linker_0, # of connection points: 2
#     Edge 83, Type (0, 0), BuildingBlock: AJUNOK_clean_linker_0, # of connection points: 2
#     Edge 84, Type (0, 0), BuildingBlock: AJUNOK_clean_linker_0, # of connection points: 2
#     Edge 85, Type (0, 0), BuildingBlock: AJUNOK_clean_linker_0, # of connection points: 2
#     Edge 86, Type (0, 0), BuildingBlock: AJUNOK_clean_linker_0, # of connection points: 2
#     Edge 87, Type (0, 0), BuildingBlock: AJUNOK_clean_linker_0, # of connection points: 2
#     Edge 88, Type (0, 0), BuildingBlock: AJUNOK_clean_linker_0, # of connection points: 2
#     Edge 89, Type (0, 0), BuildingBlock: AJUNOK_clean_linker_0, # of connection points: 2
#     Edge 90, Type (0, 0), BuildingBlock: AJUNOK_clean_linker_0, # of connection points: 2
#     Edge 91, Type (0, 0), BuildingBlock: AJUNOK_clean_linker_0, # of connection points: 2
#     Edge 92, Type (0, 0), BuildingBlock: AJUNOK_clean_linker_0, # of connection points: 2
#     Edge 93, Type (0, 0), BuildingBlock: AJUNOK_clean_linker_0, # of connection points: 2
#     Edge 94, Type (0, 0), BuildingBlock: AJUNOK_clean_linker_0, # of connection points: 2
#     Edge 95, Type (0, 0), BuildingBlock: AJUNOK_clean_linker_0, # of connection points: 2
#     Edge 96, Type (0, 0), BuildingBlock: AJUNOK_clean_linker_0, # of connection points: 2
#     Edge 97, Type (0, 0), BuildingBlock: AJUNOK_clean_linker_0, # of connection points: 2
#     Edge 98, Type (0, 0), BuildingBlock: AJUNOK_clean_linker_0, # of connection points: 2
#     Edge 99, Type (0, 0), BuildingBlock: AJUNOK_clean_linker_0, # of connection points: 2
#     Edge 100, Type (0, 0), BuildingBlock: AJUNOK_clean_linker_0, # of connection points: 2
#     Edge 101, Type (0, 0), BuildingBlock: AJUNOK_clean_linker_0, # of connection points: 2
#     Edge 102, Type (0, 0), BuildingBlock: AJUNOK_clean_linker_0, # of connection points: 2
#     Edge 103, Type (0, 0), BuildingBlock: AJUNOK_clean_linker_0, # of connection points: 2
#     Edge 104, Type (0, 0), BuildingBlock: AJUNOK_clean_linker_0, # of connection points: 2
#     Edge 105, Type (0, 0), BuildingBlock: AJUNOK_clean_linker_0, # of connection points: 2
#     Edge 106, Type (0, 0), BuildingBlock: AJUNOK_clean_linker_0, # of connection points: 2
#     Edge 107, Type (0, 0), BuildingBlock: AJUNOK_clean_linker_0, # of connection points: 2
#     Edge 108, Type (0, 0), BuildingBlock: AJUNOK_clean_linker_0, # of connection points: 2
#     Edge 109, Type (0, 0), BuildingBlock: AJUNOK_clean_linker_0, # of connection points: 2
#     Edge 110, Type (0, 0), BuildingBlock: AJUNOK_clean_linker_0, # of connection points: 2
#     Edge 111, Type (0, 0), BuildingBlock: AJUNOK_clean_linker_0, # of connection points: 2
# Relax obj value: 0.093
# Max RMSD: 0.156
# Mean RMSD: 0.156
data_MOF--net-wgs--node1-BEQFEK_clean_sbu_0--edge1-AJUNOK_clean_linker_0
_symmetry_space_group_name_H-M    P1
_symmetry_Int_Tables_number       1
_symmetry_cell_setting            triclinic
loop_
_symmetry_equiv_pos_as_xyz
'x, y, z'
_cell_length_a     21.822162
_cell_length_b     21.841042
_cell_length_c     123.25747
_cell_angle_alpha  90.016002
_cell_angle_beta   90.028216
_cell_angle_gamma 90.039984
loop_
_atom_site_label
_atom_site_type_symbol
_atom_site_fract_x
_atom_site_fract_y
_atom_site_fract_z
_atom_type_partial_charge
Co0 Co 0.34235 0.07347 0.33123 0.0
Co1 Co 0.32571 0.07552 0.30575 0.0
C2 C 0.43168 0.13663 0.3171 0.0
O3 O 0.41367 0.11865 0.32638 0.0
O4 O 0.40325 0.12175 0.30843 0.0
C5 C 0.35581 0.10953 0.35297 0.0
O6 O 0.37148 0.16029 0.34798 0.0
C7 C 0.34986 0.03593 0.28311 0.0
C8 C 0.26909 0.07463 0.27476 0.0
C9 C 0.3219 0.04108 0.27305 0.0
N10 N 0.31496 0.0653 0.29047 0.0
N11 N 0.26705 0.08864 0.28538 0.0
C12 C 0.40979 0.00593 0.28559 0.0
H13 H 0.41668 0.00201 0.29449 0.0
H14 H 0.41196 0.96006 0.28174 0.0
H15 H 0.44734 0.03394 0.28209 0.0
C16 C 0.34455 0.94173 0.32728 0.0
N17 N 0.33761 -0.00068 0.32371 0.0
N18 N 0.32504 -0.00113 0.31328 0.0
C19 C 0.31961 0.94013 0.31001 0.0
C20 C 0.33334 0.9018 0.31873 0.0
C21 C 0.36407 0.92613 0.33859 0.0
H22 H 0.39852 0.95982 0.34147 0.0
H23 H 0.38392 0.87942 0.33902 0.0
H24 H 0.32378 0.92883 0.34406 0.0
O25 O 0.27355 0.12934 0.32845 0.0
O26 O 0.26126 0.13283 0.31063 0.0
H27 H 0.26608 0.8788 0.30008 0.0
H28 H 0.3312 0.91246 0.29349 0.0
C29 C 0.29347 0.9214 0.29927 0.0
H30 H 0.26394 0.95817 0.29595 0.0
H31 H 0.23241 0.11367 0.28918 0.0
O32 O 0.34375 0.06248 0.34727 0.0
C33 C 0.2481 0.15195 0.32009 0.0
Co34 Co 0.17754 0.09435 0.58205 0.0
Co35 Co 0.18137 0.07275 0.55682 0.0
C36 C 0.11629 0.1801 0.56713 0.0
O37 O 0.13404 0.1661 0.57665 0.0
O38 O 0.13292 0.14904 0.55887 0.0
C39 C 0.1406 0.12 0.60334 0.0
O40 O 0.09222 0.13986 0.59807 0.0
C41 C 0.21762 0.0961 0.53398 0.0
C42 C 0.17964 0.01373 0.52601 0.0
C43 C 0.20993 0.06812 0.52398 0.0
N44 N 0.1925 0.05987 0.54162 0.0
N45 N 0.16999 0.01075 0.53677 0.0
C46 C 0.24511 0.15756 0.53613 0.0
H47 H 0.2488 0.16608 0.54498 0.0
H48 H 0.29102 0.16051 0.53229 0.0
H49 H 0.21586 0.19334 0.53238 0.0
C50 C 0.31113 0.09216 0.57907 0.0
N51 N 0.25402 0.08687 0.57511 0.0
N52 N 0.2566 0.07432 0.56468 0.0
C53 C 0.3159 0.06815 0.56179 0.0
C54 C 0.35272 0.08039 0.5708 0.0
C55 C 0.32496 0.11064 0.59051 0.0
H56 H 0.29266 0.14697 0.59312 0.0
H57 H 0.37263 0.12776 0.59134 0.0
H58 H 0.31843 0.07058 0.59593 0.0
O59 O 0.11982 0.02621 0.57942 0.0
O60 O 0.12489 0.00816 0.56177 0.0
H61 H 0.38001 0.01866 0.55173 0.0
H62 H 0.34324 0.08302 0.54535 0.0
C63 C 0.33624 0.04417 0.55099 0.0
H64 H 0.30081 0.01346 0.54753 0.0
H65 H 0.1473 0.97534 0.5408 0.0
O66 O 0.18576 0.09901 0.598 0.0
C67 C 0.10199 -0.00263 0.57105 0.0
Co68 Co 0.18538 0.91864 0.83113 0.0
Co69 Co 0.19603 0.92519 0.80566 0.0
C70 C 0.09847 0.85182 0.81724 0.0
O71 O 0.11483 0.87011 0.82662 0.0
O72 O 0.12517 0.87069 0.80867 0.0
C73 C 0.14377 0.92003 0.85359 0.0
O74 O 0.08793 0.91989 0.84961 0.0
C75 C 0.15981 0.95875 0.78323 0.0
C76 C 0.24402 0.93364 0.77433 0.0
C77 C 0.18548 0.95644 0.77296 0.0
N78 N 0.20146 0.93778 0.79038 0.0
N79 N 0.25152 0.92269 0.78498 0.0
C80 C 0.09627 0.97824 0.78612 0.0
H81 H 0.09089 0.98149 0.79506 0.0
H82 H 0.08576 0.02298 0.78228 0.0
H83 H 0.06318 0.94421 0.78288 0.0
C84 C 0.17137 0.05273 0.82797 0.0
N85 N 0.18308 0.9962 0.82415 0.0
N86 N 0.19135 -0.00074 0.81359 0.0
C87 C 0.18865 0.05824 0.81043 0.0
C88 C 0.17418 0.09422 0.8194 0.0
C89 C 0.15384 0.06557 0.83948 0.0
H90 H 0.12033 0.03084 0.84224 0.0
H91 H 0.13316 0.11166 0.8404 0.0
H92 H 0.1951 0.06197 0.84471 0.0
O93 O 0.25526 0.86502 0.82723 0.0
O94 O 0.26738 0.87603 0.80952 0.0
H95 H 0.22625 0.12695 0.79972 0.0
H96 H 0.16617 0.08059 0.794 0.0
C97 C 0.20688 0.08 0.79937 0.0
H98 H 0.24148 0.04876 0.79581 0.0
H99 H 0.291 0.90483 0.78856 0.0
O100 O 0.18942 0.92312 0.84723 0.0
C101 C 0.2818 0.85058 0.81842 0.0
Co102 Co 0.31722 0.91102 0.08232 0.0
Co103 Co 0.31417 0.90133 0.05692 0.0
C104 C 0.37994 0.80981 0.06911 0.0
O105 O 0.36815 0.83894 0.07785 0.0
O106 O 0.35634 0.82547 0.06008 0.0
C107 C 0.3595 0.91342 0.10346 0.0
O108 O 0.41103 0.91206 0.09795 0.0
C109 C 0.29453 0.87506 0.03338 0.0
C110 C 0.3073 0.96822 0.02676 0.0
C111 C 0.29614 0.90822 0.0238 0.0
N112 N 0.30481 0.91393 0.04168 0.0
N113 N 0.31254 0.96942 0.03762 0.0
C114 C 0.28663 0.80737 0.03451 0.0
H115 H 0.28499 0.79383 0.04318 0.0
H116 H 0.24391 0.79273 0.03037 0.0
H117 H 0.32544 0.78378 0.03047 0.0
C118 C 0.18229 0.91835 0.07875 0.0
N119 N 0.24026 0.91248 0.07513 0.0
N120 N 0.23933 0.90569 0.06454 0.0
C121 C 0.18089 0.90468 0.0611 0.0
C122 C 0.14241 0.913 0.06997 0.0
C123 C 0.16656 0.93469 0.09021 0.0
H124 H 0.20303 0.96398 0.09374 0.0
H125 H 0.16367 0.89216 0.09511 0.0
H126 H 0.12205 0.95908 0.09067 0.0
O127 O 0.3681 0.98263 0.07898 0.0
O128 O 0.37479 0.96318 0.06144 0.0
H129 H 0.17515 0.93471 0.04461 0.0
H130 H 0.11275 0.88503 0.04874 0.0
C131 C 0.16256 0.89412 0.04955 0.0
H132 H 0.18779 0.85414 0.04634 0.0
H133 H 0.32163 0.00823 0.04229 0.0
O134 O 0.30913 0.91084 0.09828 0.0
C135 C 0.39302 0.99158 0.06983 0.0
Co136 Co 0.32289 0.92737 0.17209 0.0
Co137 Co 0.32212 0.91865 0.19761 0.0
C138 C 0.41474 0.85265 0.18504 0.0
O139 O 0.39061 0.87184 0.17626 0.0
O140 O 0.3958 0.87086 0.19428 0.0
C141 C 0.37298 0.93478 0.15052 0.0
O142 O 0.42533 0.92296 0.15535 0.0
C143 C 0.34813 0.9361 0.2212 0.0
C144 C 0.25483 0.92489 0.22785 0.0
C145 C 0.31486 0.93654 0.23079 0.0
N146 N 0.30931 0.92468 0.21294 0.0
N147 N 0.25377 0.91743 0.21703 0.0
C148 C 0.41591 0.94371 0.22004 0.0
H149 H 0.42925 0.94529 0.21136 0.0
H150 H 0.43108 0.98611 0.22422 0.0
H151 H 0.43929 0.90464 0.22404 0.0
C152 C 0.32422 0.05914 0.17704 0.0
N153 N 0.32379 0.00016 0.18017 0.0
N154 N 0.32512 -0.00286 0.19083 0.0
C155 C 0.32801 0.0545 0.19483 0.0
C156 C 0.32714 0.09573 0.18623 0.0
C157 C 0.31744 0.07935 0.1655 0.0
H158 H 0.28337 0.04999 0.1613 0.0
H159 H 0.36206 0.0739 0.1613 0.0
H160 H 0.3027 0.12782 0.16492 0.0
O161 O 0.24887 0.87979 0.17446 0.0
O162 O 0.25495 0.86503 0.1922 0.0
H163 H 0.29476 0.05122 0.21117 0.0
H164 H 0.33925 0.11925 0.20808 0.0
C165 C 0.3347 0.06936 0.20663 0.0
H166 H 0.37655 0.04703 0.20974 0.0
H167 H 0.21481 0.90833 0.21238 0.0
O168 O 0.32524 0.9417 0.15627 0.0
C169 C 0.2309 0.85315 0.18303 0.0
Co170 Co 0.3212 0.07113 0.42181 0.0
Co171 Co 0.31656 0.08659 0.44723 0.0
C172 C 0.38848 0.17151 0.43513 0.0
O173 O 0.37517 0.1401 0.42671 0.0
O174 O 0.36274 0.16114 0.44424 0.0
C175 C 0.3245 0.11918 0.40002 0.0
O176 O 0.33458 0.17146 0.40498 0.0
C177 C 0.29358 0.10894 0.4709 0.0
C178 C 0.29816 0.01349 0.47679 0.0
C179 C 0.28977 0.07318 0.48017 0.0
N180 N 0.30412 0.07175 0.46237 0.0
N181 N 0.307 0.01488 0.466 0.0
C182 C 0.28909 0.17711 0.47028 0.0
H183 H 0.29249 0.19305 0.46175 0.0
H184 H 0.24501 0.19239 0.47385 0.0
H185 H 0.3265 0.19784 0.47516 0.0
C186 C 0.18632 0.06714 0.42506 0.0
N187 N 0.24402 0.07362 0.42878 0.0
N188 N 0.24243 0.08392 0.43928 0.0
C189 C 0.18373 0.08671 0.44253 0.0
C190 C 0.14581 0.07569 0.43367 0.0
C191 C 0.17145 0.04673 0.41377 0.0
H192 H 0.20895 0.01772 0.41053 0.0
H193 H 0.16716 0.08757 0.40847 0.0
H194 H 0.12778 0.02071 0.41353 0.0
O195 O 0.36841 -0.00215 0.42546 0.0
O196 O 0.37592 0.02343 0.44275 0.0
H197 H 0.17427 0.06051 0.45917 0.0
H198 H 0.1152 0.11228 0.45443 0.0
C199 C 0.1646 0.10065 0.45393 0.0
H200 H 0.19155 0.13993 0.45699 0.0
H201 H 0.31475 0.9768 0.46109 0.0
O202 O 0.31454 0.07165 0.40569 0.0
C203 C 0.3937 0.992 0.43467 0.0
Co204 Co 0.15553 0.06109 0.6711 0.0
Co205 Co 0.14977 0.05841 0.69662 0.0
C206 C 0.05552 0.12209 0.68493 0.0
O207 O 0.08433 0.1098 0.67621 0.0
O208 O 0.07192 0.09976 0.69403 0.0
C209 C 0.13879 0.10457 0.65036 0.0
O210 O 0.13167 0.15425 0.65624 0.0
C211 C 0.13168 0.03541 0.72033 0.0
C212 C 0.22528 0.05565 0.72617 0.0
C213 C 0.16735 0.03913 0.72961 0.0
N214 N 0.16709 0.04964 0.71173 0.0
N215 N 0.22287 0.06178 0.71534 0.0
C216 C 0.06471 0.0215 0.71975 0.0
H217 H 0.03898 0.0568 0.72436 0.0
H218 H 0.04866 0.02071 0.71121 0.0
H219 H 0.05546 0.97665 0.72366 0.0
C220 C 0.16736 0.92731 0.67457 0.0
N221 N 0.15961 0.98479 0.67826 0.0
N222 N 0.15519 0.98367 0.6889 0.0
C223 C 0.15884 0.92533 0.69231 0.0
C224 C 0.16709 0.88762 0.68336 0.0
C225 C 0.17978 0.91184 0.66295 0.0
H226 H 0.20864 0.94794 0.6592 0.0
H227 H 0.13563 0.91028 0.65848 0.0
H228 H 0.20278 0.86676 0.66216 0.0
O229 O 0.22696 0.1131 0.67397 0.0
O230 O 0.20952 0.11965 0.69159 0.0
H231 H 0.19374 0.92576 0.70854 0.0
H232 H 0.15443 0.85566 0.70484 0.0
C233 C 0.15463 0.90621 0.70395 0.0
H234 H 0.11176 0.92452 0.70746 0.0
H235 H 0.25947 0.07438 0.71037 0.0
O236 O 0.14961 0.05409 0.65514 0.0
C237 C 0.2368 0.13802 0.68309 0.0
Co238 Co 0.16689 0.9189 0.92245 0.0
Co239 Co 0.17551 0.91922 0.94804 0.0
C240 C 0.10171 0.82614 0.93593 0.0
O241 O 0.11677 0.84867 0.92677 0.0
O242 O 0.12369 0.84696 0.94478 0.0
C243 C 0.17319 0.87949 0.89982 0.0
O244 O 0.17656 0.82339 0.90361 0.0
C245 C 0.21416 0.88467 0.97038 0.0
C246 C 0.1825 0.96626 0.97939 0.0
C247 C 0.21059 0.91008 0.98066 0.0
N248 N 0.1888 0.92423 0.96331 0.0
N249 N 0.16981 0.97268 0.96879 0.0
C250 C 0.23927 0.8233 0.96742 0.0
H251 H 0.24182 0.81809 0.95847 0.0
H252 H 0.28534 0.81723 0.97108 0.0
H253 H 0.20899 0.78721 0.9708 0.0
C254 C 0.30187 0.90964 0.92508 0.0
N255 N 0.24511 0.91512 0.92922 0.0
N256 N 0.24899 0.92002 0.93984 0.0
C257 C 0.30851 0.92157 0.94274 0.0
C258 C 0.34428 0.91355 0.9335 0.0
C259 C 0.31458 0.89839 0.91332 0.0
H260 H 0.2852 0.86047 0.91041 0.0
H261 H 0.36309 0.88572 0.91186 0.0
H262 H 0.30291 0.94 0.90859 0.0
O263 O 0.11639 0.99042 0.9267 0.0
O264 O 0.12216 0.98801 0.94461 0.0
H265 H 0.29632 0.9695 0.95784 0.0
H266 H 0.37484 0.96383 0.95342 0.0
C267 C 0.33032 0.93938 0.95384 0.0
H268 H 0.33642 0.89771 0.95884 0.0
H269 H 0.14826 0.01045 0.96528 0.0
O270 O 0.17099 0.92442 0.90635 0.0
C271 C 0.09991 0.01009 0.93595 0.0
Co272 Co 0.6768 0.91104 0.67219 0.0
Co273 Co 0.67027 0.91712 0.69783 0.0
C274 C 0.58327 0.84149 0.68541 0.0
O275 O 0.61055 0.85667 0.67672 0.0
O276 O 0.5974 0.8658 0.6945 0.0
C277 C 0.62679 0.90524 0.65077 0.0
O278 O 0.57575 0.89658 0.65618 0.0
C279 C 0.63816 0.95576 0.7203 0.0
C280 C 0.72007 0.9232 0.72912 0.0
C281 C 0.6646 0.95261 0.73053 0.0
N282 N 0.67654 0.9292 0.71316 0.0
N283 N 0.72511 0.90951 0.71853 0.0
C284 C 0.5765 0.9809 0.71748 0.0
H285 H 0.57078 0.98382 0.70854 0.0
H286 H 0.57018 0.02665 0.72123 0.0
H287 H 0.54068 0.95025 0.72085 0.0
C288 C 0.6636 0.04512 0.67507 0.0
N289 N 0.66932 0.98829 0.67915 0.0
N290 N 0.67191 0.9915 0.6898 0.0
C291 C 0.67207 0.0509 0.6928 0.0
C292 C 0.6651 0.0871 0.68357 0.0
C293 C 0.6548 0.05817 0.66325 0.0
H294 H 0.62139 0.02527 0.65979 0.0
H295 H 0.63768 0.10534 0.66187 0.0
H296 H 0.69902 0.05186 0.65895 0.0
O297 O 0.75119 0.86371 0.67618 0.0
O298 O 0.73765 0.86245 0.69398 0.0
H299 H 0.7128 0.1171 0.70366 0.0
H300 H 0.64626 0.0784 0.70882 0.0
C301 C 0.68851 0.07248 0.70397 0.0
H302 H 0.71842 0.03862 0.70805 0.0
H303 H 0.7622 0.88716 0.71495 0.0
O304 O 0.67574 0.91648 0.65601 0.0
C305 C 0.76477 0.84307 0.68554 0.0
Co306 Co 0.82138 0.90442 0.42161 0.0
Co307 Co 0.81524 0.90304 0.44722 0.0
C308 C 0.88029 0.80606 0.43622 0.0
O309 O 0.86864 0.83262 0.42721 0.0
O310 O 0.85813 0.82554 0.44516 0.0
C311 C 0.86313 0.88563 0.40042 0.0
O312 O 0.91327 0.87422 0.40597 0.0
C313 C 0.79259 0.89408 0.47134 0.0
C314 C 0.78509 0.99311 0.47482 0.0
C315 C 0.78305 0.93607 0.47966 0.0
N316 N 0.79955 0.92539 0.46198 0.0
N317 N 0.79487 0.98443 0.46419 0.0
C318 C 0.79785 0.82607 0.47234 0.0
H319 H 0.82881 0.80784 0.466 0.0
H320 H 0.75202 0.80513 0.47116 0.0
H321 H 0.81488 0.81316 0.48051 0.0
C322 C 0.6864 0.9141 0.42464 0.0
N323 N 0.74404 0.90868 0.42846 0.0
N324 N 0.74219 0.9046 0.43909 0.0
C325 C 0.68353 0.90549 0.44237 0.0
C326 C 0.64612 0.91225 0.43337 0.0
C327 C 0.6711 0.92512 0.41298 0.0
H328 H 0.67693 0.88172 0.40841 0.0
H329 H 0.62327 0.94141 0.41198 0.0
H330 H 0.7034 0.95914 0.4095 0.0
O331 O 0.87351 0.97608 0.42458 0.0
O332 O 0.87595 0.96398 0.44238 0.0
H333 H 0.6745 0.94362 0.45828 0.0
H334 H 0.61356 0.89165 0.45457 0.0
C335 C 0.66353 0.90046 0.45395 0.0
H336 H 0.68874 0.86264 0.45793 0.0
H337 H 0.79858 0.01897 0.45838 0.0
O338 O 0.81438 0.89908 0.40555 0.0
C339 C 0.89542 0.9898 0.43381 0.0
Co340 Co 0.84016 0.07386 0.1727 0.0
Co341 Co 0.84717 0.07674 0.19827 0.0
C342 C 0.94047 0.13874 0.18608 0.0
O343 O 0.91141 0.12401 0.17747 0.0
O344 O 0.9242 0.11892 0.19536 0.0
C345 C 0.85482 0.10982 0.15113 0.0
O346 O 0.8633 0.16222 0.15615 0.0
C347 C 0.86503 0.05623 0.22211 0.0
C348 C 0.77013 0.07196 0.22769 0.0
C349 C 0.82831 0.05749 0.23128 0.0
N350 N 0.8299 0.06959 0.21343 0.0
N351 N 0.77338 0.07929 0.21689 0.0
C352 C 0.93255 0.04502 0.22172 0.0
H353 H 0.94952 0.04589 0.21324 0.0
H354 H 0.9432 0.00017 0.22551 0.0
H355 H 0.9564 0.08078 0.22654 0.0
C356 C 0.83088 0.94077 0.17714 0.0
N357 N 0.83732 -0.00078 0.18042 0.0
N358 N 0.84334 0.00043 0.19104 0.0
C359 C 0.84248 0.94272 0.19483 0.0
C360 C 0.83396 0.90296 0.18618 0.0
C361 C 0.81757 0.92245 0.16568 0.0
H362 H 0.78771 0.95714 0.16177 0.0
H363 H 0.86127 0.92057 0.16109 0.0
H364 H 0.79519 0.87688 0.16528 0.0
O365 O 0.76837 0.12574 0.17533 0.0
O366 O 0.78514 0.13495 0.19293 0.0
H367 H 0.81257 0.94447 0.21137 0.0
H368 H 0.85385 0.87563 0.20766 0.0
C369 C 0.85105 0.92592 0.2065 0.0
H370 H 0.89416 0.94659 0.20947 0.0
H371 H 0.73668 0.09031 0.21183 0.0
O372 O 0.84506 0.06195 0.15675 0.0
C373 C 0.75702 0.15115 0.18436 0.0
Co374 Co 0.67323 0.07204 0.92197 0.0
Co375 Co 0.66998 0.06745 0.94748 0.0
C376 C 0.60491 0.16491 0.93591 0.0
O377 O 0.62196 0.14284 0.92678 0.0
O378 O 0.62294 0.142 0.94487 0.0
C379 C 0.66126 0.10868 0.89948 0.0
O380 O 0.63925 0.16045 0.90324 0.0
C381 C 0.68605 0.08558 0.97142 0.0
C382 C 0.69282 0.98853 0.97638 0.0
C383 C 0.69294 0.04767 0.98037 0.0
N384 N 0.68199 0.05005 0.9625 0.0
N385 N 0.68621 0.99223 0.96557 0.0
C386 C 0.68039 0.15377 0.97145 0.0
H387 H 0.68238 0.17213 0.96307 0.0
H388 H 0.71752 0.17431 0.97641 0.0
H389 H 0.63605 0.16675 0.97521 0.0
C390 C 0.80704 0.06992 0.92622 0.0
N391 N 0.7482 0.06948 0.92951 0.0
N392 N 0.74636 0.07186 0.94016 0.0
C393 C 0.80382 0.07721 0.94398 0.0
C394 C 0.84463 0.07556 0.93531 0.0
C395 C 0.82606 0.05955 0.9147 0.0
H396 H 0.79238 0.02957 0.91055 0.0
H397 H 0.82714 0.10413 0.91039 0.0
H398 H 0.87207 0.03813 0.91425 0.0
O399 O 0.62279 0.00062 0.92459 0.0
O400 O 0.61383 0.00142 0.94244 0.0
H401 H 0.81186 0.04435 0.96027 0.0
H402 H 0.86677 0.10341 0.9568 0.0
C403 C 0.81888 0.08751 0.95569 0.0
H404 H 0.78774 0.12269 0.95906 0.0
H405 H 0.68425 0.95512 0.96025 0.0
O406 O 0.68253 0.06917 0.90602 0.0
C407 C 0.59869 0.98033 0.93321 0.0
Co408 Co 0.65297 0.07982 0.83116 0.0
Co409 Co 0.6631 0.08205 0.80561 0.0
C410 C 0.55769 0.13912 0.81736 0.0
O411 O 0.57728 0.12187 0.82661 0.0
O412 O 0.58602 0.12553 0.80865 0.0
C413 C 0.62029 0.05169 0.85408 0.0
O414 O 0.57278 0.01959 0.85084 0.0
C415 C 0.63495 0.05585 0.78238 0.0
C416 C 0.72403 0.07913 0.77493 0.0
C417 C 0.6655 0.059 0.77252 0.0
N418 N 0.67388 0.07351 0.79028 0.0
N419 N 0.72682 0.08774 0.78572 0.0
C420 C 0.56928 0.03916 0.78417 0.0
H421 H 0.55876 0.03678 0.79297 0.0
H422 H 0.559 0.99453 0.78027 0.0
H423 H 0.53961 0.07413 0.78029 0.0
C424 C 0.67111 0.94647 0.82722 0.0
N425 N 0.66399 0.00458 0.82375 0.0
N426 N 0.66659 0.00558 0.81307 0.0
C427 C 0.67436 0.94801 0.80942 0.0
C428 C 0.67753 0.90873 0.81825 0.0
C429 C 0.67728 0.92824 0.83886 0.0
H430 H 0.70055 0.96494 0.84352 0.0
H431 H 0.63094 0.92102 0.84233 0.0
H432 H 0.70353 0.88498 0.8397 0.0
O433 O 0.71861 0.13747 0.82805 0.0
O434 O 0.72893 0.1389 0.81021 0.0
H435 H 0.71643 0.95633 0.79378 0.0
H436 H 0.68495 0.88104 0.7965 0.0
C437 C 0.67829 0.93092 0.79767 0.0
H438 H 0.63506 0.94394 0.7936 0.0
H439 H 0.76522 0.10294 0.78999 0.0
O440 O 0.65601 0.07579 0.84718 0.0
C441 C 0.74412 0.15802 0.81956 0.0
Co442 Co 0.6753 0.90619 0.58243 0.0
Co443 Co 0.67776 0.92471 0.55702 0.0
C444 C 0.60714 0.82356 0.56682 0.0
O445 O 0.62413 0.84013 0.57628 0.0
O446 O 0.62735 0.85 0.55832 0.0
C447 C 0.63331 0.88876 0.60353 0.0
O448 O 0.58192 0.88616 0.598 0.0
C449 C 0.70491 0.91021 0.53349 0.0
C450 C 0.71289 0.00754 0.52879 0.0
C451 C 0.71831 0.94852 0.5248 0.0
N452 N 0.69278 0.94538 0.54222 0.0
N453 N 0.69676 0.0034 0.53928 0.0
C454 C 0.70873 0.84188 0.53383 0.0
H455 H 0.7205 0.82622 0.54214 0.0
H456 H 0.74309 0.82482 0.52792 0.0
H457 H 0.66334 0.82244 0.53168 0.0
C458 C 0.80933 0.91074 0.57931 0.0
N459 N 0.75167 0.91082 0.57541 0.0
N460 N 0.75305 0.91801 0.56482 0.0
C461 C 0.81199 0.92245 0.56165 0.0
C462 C 0.84959 0.91786 0.57071 0.0
C463 C 0.82472 0.91 0.59113 0.0
H464 H 0.80211 0.94934 0.59519 0.0
H465 H 0.80627 0.86752 0.59484 0.0
H466 H 0.87493 0.91234 0.59252 0.0
O467 O 0.62555 0.98006 0.58049 0.0
O468 O 0.62282 0.98982 0.56261 0.0
H469 H 0.81326 0.97912 0.5475 0.0
H470 H 0.88292 0.93591 0.54957 0.0
C471 C 0.83223 0.93469 0.55026 0.0
H472 H 0.81454 0.89816 0.54487 0.0
H473 H 0.69032 0.04026 0.54454 0.0
O474 O 0.68334 0.89552 0.59838 0.0
C475 C 0.60491 0.00592 0.57201 0.0
Co476 Co 0.84363 0.92991 0.33195 0.0
Co477 Co 0.81705 0.92906 0.30679 0.0
C478 C 0.92591 0.86542 0.31706 0.0
O479 O 0.91469 0.88656 0.32647 0.0
O480 O 0.89273 0.87943 0.30891 0.0
C481 C 0.86959 0.89272 0.35322 0.0
O482 O 0.8868 0.84405 0.34776 0.0
C483 C 0.84265 0.96699 0.28429 0.0
C484 C 0.76195 0.92965 0.2757 0.0
C485 C 0.81611 0.96134 0.27413 0.0
N486 N 0.8058 0.93962 0.29157 0.0
N487 N 0.75782 0.91719 0.28637 0.0
C488 C 0.90328 0.99514 0.28694 0.0
H489 H 0.94023 0.96684 0.28332 0.0
H490 H 0.91003 -0.00224 0.29585 0.0
H491 H 0.90654 0.04151 0.28331 0.0
C492 C 0.84142 0.06194 0.32838 0.0
N493 N 0.83488 0.00451 0.3247 0.0
N494 N 0.81952 0.00548 0.31439 0.0
C495 C 0.81241 0.06437 0.31132 0.0
C496 C 0.8266 0.10222 0.32007 0.0
C497 C 0.86609 0.07684 0.33941 0.0
H498 H 0.90459 0.04554 0.34136 0.0
H499 H 0.88227 0.12496 0.33988 0.0
H500 H 0.82976 0.06911 0.34556 0.0
O501 O 0.77578 0.87242 0.32943 0.0
O502 O 0.75168 0.87392 0.31196 0.0
H503 H 0.75903 0.12582 0.30143 0.0
H504 H 0.82598 0.0948 0.29502 0.0
C505 C 0.78743 0.08397 0.30055 0.0
H506 H 0.7592 0.0471 0.29692 0.0
H507 H 0.7221 0.8933 0.2901 0.0
O508 O 0.84968 0.93893 0.34801 0.0
C509 C 0.74501 0.85202 0.32144 0.0
Co510 Co 0.82137 0.0815 0.08222 0.0
Co511 Co 0.81072 0.08267 0.05674 0.0
C512 C 0.88289 0.17613 0.067 0.0
O513 O 0.87171 0.1507 0.07615 0.0
O514 O 0.85708 0.15813 0.05828 0.0
C515 C 0.85736 0.11144 0.1039 0.0
O516 O 0.90442 0.1364 0.09894 0.0
C517 C 0.77858 0.09252 0.03313 0.0
C518 C 0.75661 0.99512 0.03013 0.0
C519 C 0.75632 0.05232 0.02532 0.0
N520 N 0.78998 0.06031 0.04224 0.0
N521 N 0.77767 0.00209 0.04028 0.0
C522 C 0.78417 0.16054 0.03224 0.0
H523 H 0.78483 0.18188 0.04041 0.0
H524 H 0.74583 0.17941 0.02735 0.0
H525 H 0.82771 0.17184 0.02804 0.0
C526 C 0.68576 0.07304 0.07991 0.0
N527 N 0.74275 0.07914 0.07582 0.0
N528 N 0.73906 0.08489 0.06523 0.0
C529 C 0.67978 0.08541 0.06229 0.0
C530 C 0.64391 0.07664 0.07143 0.0
C531 C 0.67256 0.05893 0.09155 0.0
H532 H 0.70492 0.02348 0.09451 0.0
H533 H 0.6801 0.10086 0.09646 0.0
H534 H 0.62467 0.0431 0.0927 0.0
O535 O 0.87002 0.00777 0.07919 0.0
O536 O 0.87051 0.02012 0.06138 0.0
H537 H 0.66488 0.05075 0.04625 0.0
H538 H 0.60771 0.10459 0.05073 0.0
C539 C 0.65734 0.09351 0.0509 0.0
H540 H 0.68315 0.13103 0.04695 0.0
H541 H 0.7815 0.96737 0.04605 0.0
O542 O 0.81491 0.08732 0.09828 0.0
C543 C 0.89056 0.99384 0.06988 0.0
Co544 Co 0.84196 0.58076 0.83039 0.0
Co545 Co 0.83655 0.57515 0.8048 0.0
C546 C 0.93613 0.64121 0.81647 0.0
O547 O 0.91357 0.62711 0.82566 0.0
O548 O 0.91327 0.62087 0.80765 0.0
C549 C 0.84431 0.62189 0.85192 0.0
O550 O 0.84747 0.67435 0.84673 0.0
C551 C 0.86128 0.53355 0.78221 0.0
C552 C 0.78361 0.57714 0.77369 0.0
C553 C 0.83484 0.54113 0.77208 0.0
N554 N 0.82708 0.56406 0.78953 0.0
N555 N 0.781 0.59021 0.78433 0.0
C556 C 0.91961 0.5008 0.78477 0.0
H557 H 0.92643 0.49746 0.79368 0.0
H558 H 0.91913 0.45447 0.78107 0.0
H559 H 0.95852 0.52634 0.78115 0.0
C560 C 0.84123 0.44714 0.82749 0.0
N561 N 0.83944 0.50406 0.82338 0.0
N562 N 0.83218 0.50105 0.8128 0.0
C563 C 0.82541 0.44191 0.80991 0.0
C564 C 0.8324 0.40555 0.8191 0.0
C565 C 0.85205 0.43343 0.83923 0.0
H566 H 0.88826 0.46412 0.84246 0.0
H567 H 0.86613 0.38511 0.84046 0.0
H568 H 0.80933 0.44237 0.84385 0.0
O569 O 0.77222 0.63535 0.827 0.0
O570 O 0.77345 0.63387 0.80903 0.0
H571 H 0.77333 0.38044 0.79974 0.0
H572 H 0.84263 0.40937 0.79382 0.0
C573 C 0.80301 0.42151 0.799 0.0
H574 H 0.77663 0.45854 0.79501 0.0
H575 H 0.74742 0.6169 0.78806 0.0
O576 O 0.84304 0.57265 0.84643 0.0
C577 C 0.75354 0.65544 0.81791 0.0
Co578 Co 0.66978 0.56122 0.08053 0.0
Co579 Co 0.66998 0.5736 0.05514 0.0
C580 C 0.59757 0.65789 0.0678 0.0
O581 O 0.61297 0.62989 0.0765 0.0
O582 O 0.62163 0.64523 0.05866 0.0
C583 C 0.68068 0.59881 0.10325 0.0
O584 O 0.68565 0.65544 0.09977 0.0
C585 C 0.68656 0.6006 0.03147 0.0
C586 C 0.68423 0.50589 0.02516 0.0
C587 C 0.68916 0.56637 0.022 0.0
N588 N 0.68002 0.56176 0.03989 0.0
N589 N 0.67849 0.50535 0.03601 0.0
C590 C 0.68737 0.66883 0.03237 0.0
H591 H 0.68506 0.68344 0.04098 0.0
H592 H 0.7297 0.6871 0.02857 0.0
H593 H 0.64779 0.68801 0.02785 0.0
C594 C 0.80507 0.56638 0.07659 0.0
N595 N 0.74631 0.56685 0.07319 0.0
N596 N 0.74539 0.57492 0.06262 0.0
C597 C 0.803 0.58217 0.059 0.0
C598 C 0.84321 0.57659 0.06769 0.0
C599 C 0.82379 0.55125 0.08796 0.0
H600 H 0.79035 0.51914 0.09164 0.0
H601 H 0.82409 0.59386 0.09286 0.0
H602 H 0.87019 0.53054 0.08818 0.0
O603 O 0.62343 0.48714 0.07694 0.0
O604 O 0.6147 0.50679 0.05948 0.0
H605 H 0.81004 0.55592 0.04233 0.0
H606 H 0.86725 0.61117 0.04658 0.0
C607 C 0.81878 0.5967 0.04747 0.0
H608 H 0.78911 0.63437 0.0446 0.0
H609 H 0.67357 0.46629 0.04079 0.0
O610 O 0.67751 0.55534 0.09646 0.0
C611 C 0.59883 0.47653 0.06782 0.0
Co612 Co 0.67768 0.42421 0.33092 0.0
Co613 Co 0.67764 0.42688 0.30575 0.0
C614 C 0.59102 0.34927 0.31717 0.0
O615 O 0.61713 0.36459 0.32597 0.0
O616 O 0.60413 0.37572 0.30824 0.0
C617 C 0.62773 0.42419 0.35265 0.0
O618 O 0.5734 0.42499 0.34806 0.0
C619 C 0.64823 0.46137 0.28324 0.0
C620 C 0.73163 0.4297 0.27475 0.0
C621 C 0.675 0.45646 0.2731 0.0
N622 N 0.6874 0.43818 0.29059 0.0
N623 N 0.73705 0.41928 0.28546 0.0
C624 C 0.58545 0.48443 0.28581 0.0
H625 H 0.57861 0.48743 0.29472 0.0
H626 H 0.57828 0.52997 0.28203 0.0
H627 H 0.551 0.45271 0.28229 0.0
C628 C 0.66326 0.55646 0.32834 0.0
N629 N 0.66747 0.49991 0.32417 0.0
N630 N 0.67388 0.50305 0.31357 0.0
C631 C 0.67639 0.56271 0.31071 0.0
C632 C 0.66962 0.59853 0.31998 0.0
C633 C 0.65502 0.56939 0.34018 0.0
H634 H 0.61469 0.5437 0.34321 0.0
H635 H 0.64791 0.6189 0.34175 0.0
H636 H 0.69579 0.55302 0.34471 0.0
O637 O 0.75809 0.38979 0.32779 0.0
O638 O 0.74388 0.37025 0.31042 0.0
H639 H 0.7167 0.62962 0.29994 0.0
H640 H 0.64957 0.59163 0.29486 0.0
C641 C 0.69234 0.58505 0.29958 0.0
H642 H 0.7216 0.55126 0.29533 0.0
H643 H 0.7746 0.39888 0.28926 0.0
O644 O 0.67562 0.42701 0.34685 0.0
C645 C 0.77142 0.35984 0.31931 0.0
Co646 Co 0.83093 0.42874 0.58063 0.0
Co647 Co 0.81669 0.41189 0.55566 0.0
C648 C 0.89761 0.33146 0.56627 0.0
O649 O 0.88622 0.36232 0.57487 0.0
O650 O 0.86767 0.34029 0.55753 0.0
C651 C 0.81077 0.39131 0.6033 0.0
O652 O 0.77416 0.34804 0.59971 0.0
C653 C 0.78878 0.39239 0.53214 0.0
C654 C 0.7478 0.48278 0.52856 0.0
C655 C 0.76105 0.42651 0.52398 0.0
N656 N 0.79117 0.42724 0.54115 0.0
N657 N 0.76715 0.48125 0.53889 0.0
C658 C 0.80876 0.32698 0.53164 0.0
H659 H 0.80097 0.30435 0.53958 0.0
H660 H 0.78404 0.30197 0.52513 0.0
H661 H 0.85863 0.3254 0.52991 0.0
C662 C 0.69302 0.42606 0.57905 0.0
N663 N 0.75033 0.42146 0.57499 0.0
N664 N 0.74669 0.40745 0.56465 0.0
C665 C 0.68776 0.39849 0.56196 0.0
C666 C 0.6511 0.41129 0.57088 0.0
C667 C 0.67894 0.45152 0.59004 0.0
H668 H 0.71855 0.47803 0.59319 0.0
H669 H 0.66937 0.4133 0.59572 0.0
H670 H 0.63777 0.48128 0.58972 0.0
O671 O 0.87076 0.5051 0.57638 0.0
O672 O 0.87513 0.47889 0.55913 0.0
H673 H 0.66411 0.41547 0.54536 0.0
H674 H 0.62137 0.35417 0.55158 0.0
C675 C 0.66708 0.37631 0.55105 0.0
H676 H 0.70067 0.34303 0.54778 0.0
H677 H 0.76269 0.51666 0.54451 0.0
O678 O 0.83555 0.42813 0.59666 0.0
C679 C 0.89315 0.51218 0.56698 0.0
Co680 Co 0.81 0.41516 0.67178 0.0
Co681 Co 0.81719 0.41093 0.6972 0.0
C682 C 0.90295 0.33929 0.6846 0.0
O683 O 0.87625 0.35689 0.67593 0.0
O684 O 0.88874 0.36137 0.69383 0.0
C685 C 0.85424 0.41848 0.64959 0.0
O686 O 0.90888 0.41027 0.65382 0.0
C687 C 0.84885 0.42912 0.72049 0.0
C688 C 0.75605 0.4312 0.72762 0.0
C689 C 0.81754 0.43589 0.73019 0.0
N690 N 0.8075 0.4208 0.7125 0.0
N691 N 0.75222 0.42135 0.71687 0.0
C692 C 0.91683 0.42893 0.71894 0.0
H693 H 0.92876 0.43096 0.7102 0.0
H694 H 0.93792 0.46807 0.7233 0.0
H695 H 0.93594 0.3863 0.72247 0.0
C696 C 0.81705 0.54863 0.67599 0.0
N697 N 0.81603 0.48993 0.67933 0.0
N698 N 0.82174 0.48807 0.68994 0.0
C699 C 0.82933 0.54557 0.69366 0.0
C700 C 0.82625 0.58626 0.68497 0.0
C701 C 0.80308 0.56774 0.66459 0.0
H702 H 0.77069 0.5349 0.66081 0.0
H703 H 0.84608 0.56743 0.65979 0.0
H704 H 0.78291 0.61433 0.66433 0.0
O705 O 0.73441 0.37195 0.67497 0.0
O706 O 0.74877 0.35619 0.69251 0.0
H707 H 0.80104 0.55003 0.71027 0.0
H708 H 0.85457 0.6097 0.70639 0.0
C709 C 0.84193 0.56093 0.70528 0.0
H710 H 0.88062 0.53277 0.70819 0.0
H711 H 0.71169 0.41626 0.71247 0.0
O712 O 0.80835 0.42472 0.65582 0.0
C713 C 0.72077 0.34444 0.6837 0.0
Co714 Co 0.8254 0.57827 0.92095 0.0
Co715 Co 0.81625 0.56882 0.94649 0.0
C716 C 0.8879 0.66765 0.93556 0.0
O717 O 0.87329 0.64796 0.92618 0.0
O718 O 0.86641 0.64339 0.94417 0.0
C719 C 0.83251 0.62714 0.89923 0.0
O720 O 0.84821 0.67791 0.90422 0.0
C721 C 0.77604 0.5967 0.96894 0.0
C722 C 0.80232 0.51093 0.97722 0.0
C723 C 0.77604 0.56766 0.97892 0.0
N724 N 0.80162 0.55872 0.96163 0.0
N725 N 0.81755 0.50776 0.96667 0.0
C726 C 0.75225 0.65921 0.96642 0.0
H727 H 0.75095 0.66694 0.95752 0.0
H728 H 0.7058 0.66497 0.96994 0.0
H729 H 0.78264 0.69381 0.97024 0.0
C730 C 0.69122 0.58081 0.92334 0.0
N731 N 0.74763 0.57663 0.92765 0.0
N732 N 0.74309 0.56894 0.9382 0.0
C733 C 0.68333 0.56487 0.94088 0.0
C734 C 0.64839 0.57294 0.93156 0.0
C735 C 0.67931 0.5953 0.91166 0.0
H736 H 0.70858 0.63433 0.90914 0.0
H737 H 0.63054 0.60723 0.91023 0.0
H738 H 0.69203 0.55528 0.90659 0.0
O739 O 0.8784 0.50742 0.92439 0.0
O740 O 0.87172 0.50263 0.94232 0.0
H741 H 0.69397 0.51785 0.9561 0.0
H742 H 0.61614 0.5221 0.95129 0.0
C743 C 0.66021 0.54725 0.95188 0.0
H744 H 0.65245 0.58921 0.95675 0.0
H745 H 0.83829 0.47039 0.96288 0.0
O746 O 0.81891 0.58032 0.90485 0.0
C747 C 0.8954 0.48518 0.93343 0.0
Co748 Co 0.68071 0.57963 0.17202 0.0
Co749 Co 0.65858 0.56947 0.19706 0.0
C750 C 0.57414 0.63998 0.18467 0.0
O751 O 0.60769 0.62988 0.17636 0.0
O752 O 0.58425 0.6137 0.19373 0.0
C753 C 0.64782 0.55533 0.14946 0.0
O754 O 0.59946 0.52665 0.15326 0.0
C755 C 0.63194 0.54451 0.22047 0.0
C756 C 0.72722 0.54161 0.22657 0.0
C757 C 0.66678 0.5371 0.22976 0.0
N758 N 0.67043 0.55356 0.21208 0.0
N759 N 0.72718 0.55192 0.21583 0.0
C760 C 0.56364 0.54366 0.21968 0.0
H761 H 0.54854 0.54711 0.2111 0.0
H762 H 0.54571 0.50083 0.22335 0.0
H763 H 0.54467 0.58259 0.22439 0.0
C764 C 0.68559 0.44309 0.17458 0.0
N765 N 0.67799 0.50049 0.17839 0.0
N766 N 0.66408 0.49755 0.18875 0.0
C767 C 0.65937 0.43873 0.19176 0.0
C768 C 0.67359 0.40181 0.18295 0.0
C769 C 0.71002 0.42881 0.16352 0.0
H770 H 0.73752 0.46778 0.16042 0.0
H771 H 0.6711 0.421 0.1579 0.0
H772 H 0.73866 0.38684 0.16369 0.0
O773 O 0.75142 0.62816 0.17671 0.0
O774 O 0.72208 0.63033 0.1938 0.0
H775 H 0.67866 0.42524 0.20861 0.0
H776 H 0.62602 0.36973 0.20292 0.0
C777 C 0.64012 0.41855 0.20285 0.0
H778 H 0.60109 0.44691 0.20561 0.0
H779 H 0.76605 0.55766 0.21102 0.0
O780 O 0.68632 0.57834 0.15601 0.0
C781 C 0.75527 0.6506 0.18617 0.0
Co782 Co 0.66253 0.42761 0.4209 0.0
Co783 Co 0.67469 0.42349 0.44623 0.0
C784 C 0.60226 0.33027 0.43474 0.0
O785 O 0.61356 0.35737 0.42581 0.0
O786 O 0.62628 0.34795 0.44366 0.0
C787 C 0.66173 0.38473 0.39864 0.0
O788 O 0.6679 0.32924 0.40259 0.0
C789 C 0.70393 0.39729 0.4694 0.0
C790 C 0.70284 0.49191 0.4758 0.0
C791 C 0.71057 0.43147 0.47881 0.0
N792 N 0.69277 0.43622 0.46116 0.0
N793 N 0.69259 0.49259 0.46506 0.0
C794 C 0.70411 0.32916 0.46833 0.0
H795 H 0.65697 0.31182 0.46974 0.0
H796 H 0.71835 0.31573 0.46002 0.0
H797 H 0.73491 0.30815 0.47445 0.0
C798 C 0.7979 0.4211 0.42261 0.0
N799 N 0.74173 0.42498 0.42705 0.0
N800 N 0.7469 0.42578 0.43768 0.0
C801 C 0.80674 0.42447 0.44036 0.0
C802 C 0.84123 0.4211 0.4309 0.0
C803 C 0.80899 0.41311 0.41071 0.0
H804 H 0.78119 0.3742 0.4077 0.0
H805 H 0.85789 0.40374 0.40891 0.0
H806 H 0.79385 0.45486 0.40634 0.0
O807 O 0.6146 0.50031 0.42494 0.0
O808 O 0.61606 0.48848 0.44272 0.0
H809 H 0.87986 0.43973 0.45206 0.0
H810 H 0.82003 0.38756 0.45625 0.0
C811 C 0.82999 0.43041 0.45175 0.0
H812 H 0.80597 0.46853 0.45588 0.0
H813 H 0.6846 0.53159 0.4604 0.0
O814 O 0.66248 0.4306 0.40495 0.0
C815 C 0.59531 0.51473 0.4343 0.0
Co816 Co 0.18617 0.42178 0.1715 0.0
Co817 Co 0.19151 0.4277 0.19694 0.0
C818 C 0.09853 0.35219 0.1841 0.0
O819 O 0.11402 0.37409 0.17495 0.0
O820 O 0.12439 0.36955 0.19288 0.0
C821 C 0.15232 0.41989 0.1489 0.0
O822 O 0.09624 0.41392 0.15262 0.0
C823 C 0.15203 0.45999 0.21949 0.0
C824 C 0.23061 0.42209 0.2286 0.0
C825 C 0.17478 0.45095 0.2299 0.0
N826 N 0.19274 0.43687 0.21237 0.0
N827 N 0.23937 0.41425 0.21792 0.0
C828 C 0.09093 0.48563 0.21644 0.0
H829 H 0.08553 0.48683 0.20749 0.0
H830 H 0.08578 0.53242 0.21981 0.0
H831 H 0.05429 0.45684 0.22005 0.0
C832 C 0.17213 0.55522 0.17453 0.0
N833 N 0.18121 0.4988 0.17856 0.0
N834 N 0.18648 0.50223 0.18917 0.0
C835 C 0.18495 0.56152 0.19218 0.0
C836 C 0.17435 0.59732 0.18301 0.0
C837 C 0.15886 0.56759 0.16282 0.0
H838 H 0.12636 0.53278 0.1597 0.0
H839 H 0.13877 0.61375 0.16163 0.0
H840 H 0.20194 0.56374 0.15809 0.0
O841 O 0.25245 0.36603 0.17631 0.0
O842 O 0.26774 0.38503 0.19368 0.0
H843 H 0.23249 0.5497 0.20733 0.0
H844 H 0.22581 0.62828 0.2029 0.0
C845 C 0.20209 0.58337 0.2033 0.0
H846 H 0.16014 0.58876 0.20826 0.0
H847 H 0.27732 0.39296 0.21443 0.0
O848 O 0.19622 0.42777 0.15553 0.0
C849 C 0.28005 0.35503 0.18517 0.0
Co850 Co 0.32474 0.41834 0.92084 0.0
Co851 Co 0.32301 0.42167 0.94608 0.0
C852 C 0.39656 0.33054 0.93568 0.0
O853 O 0.3822 0.35469 0.92658 0.0
O854 O 0.37139 0.34766 0.94449 0.0
C855 C 0.30294 0.37329 0.89836 0.0
O856 O 0.27088 0.32673 0.90201 0.0
C857 C 0.30276 0.40694 0.96981 0.0
C858 C 0.29468 0.50426 0.97455 0.0
C859 C 0.29404 0.44531 0.97862 0.0
N860 N 0.30822 0.44191 0.96086 0.0
N861 N 0.30314 0.49993 0.96378 0.0
C862 C 0.30892 0.33881 0.96999 0.0
H863 H 0.30166 0.31946 0.96176 0.0
H864 H 0.2757 0.31857 0.97578 0.0
H865 H 0.35574 0.32672 0.97277 0.0
C866 C 0.18921 0.41691 0.92411 0.0
N867 N 0.24767 0.41546 0.92765 0.0
N868 N 0.24791 0.4144 0.93832 0.0
C869 C 0.18978 0.412 0.94189 0.0
C870 C 0.1505 0.41465 0.93304 0.0
C871 C 0.17101 0.42766 0.91256 0.0
H872 H 0.20843 0.45093 0.90809 0.0
H873 H 0.16153 0.38292 0.90864 0.0
H874 H 0.12869 0.45571 0.91211 0.0
O875 O 0.36314 0.49714 0.92325 0.0
O876 O 0.38103 0.48548 0.94073 0.0
H877 H 0.1834 0.45041 0.95783 0.0
H878 H 0.12246 0.39735 0.95454 0.0
C879 C 0.1721 0.40706 0.95359 0.0
H880 H 0.19857 0.36967 0.95744 0.0
H881 H 0.30591 0.53668 0.9584 0.0
O882 O 0.32404 0.41282 0.9049 0.0
C883 C 0.39223 0.51169 0.93175 0.0
Co884 Co 0.3324 0.56324 0.67052 0.0
Co885 Co 0.33897 0.55444 0.69591 0.0
C886 C 0.43141 0.62317 0.68516 0.0
O887 O 0.40265 0.61192 0.67634 0.0
O888 O 0.41585 0.59853 0.69412 0.0
C889 C 0.35361 0.60417 0.64913 0.0
O890 O 0.36775 0.65475 0.65433 0.0
C891 C 0.34975 0.52965 0.71963 0.0
C892 C 0.25116 0.52117 0.72355 0.0
C893 C 0.30907 0.51923 0.72806 0.0
N894 N 0.31699 0.53726 0.71048 0.0
N895 N 0.25822 0.53188 0.7129 0.0
C896 C 0.41789 0.53489 0.72035 0.0
H897 H 0.42995 0.58167 0.72315 0.0
H898 H 0.43905 0.52713 0.71228 0.0
H899 H 0.43626 0.50171 0.72634 0.0
C900 C 0.32188 0.42827 0.67313 0.0
N901 N 0.32965 0.48531 0.67706 0.0
N902 N 0.33721 0.48231 0.68762 0.0
C903 C 0.3366 0.42341 0.69072 0.0
C904 C 0.32589 0.38709 0.6817 0.0
C905 C 0.30593 0.41451 0.66158 0.0
H906 H 0.27316 0.44922 0.65849 0.0
H907 H 0.34811 0.41749 0.65659 0.0
H908 H 0.28602 0.368 0.6607 0.0
O909 O 0.26026 0.61391 0.67366 0.0
O910 O 0.27876 0.61599 0.69128 0.0
H911 H 0.30277 0.41235 0.70691 0.0
H912 H 0.35399 0.35231 0.70255 0.0
C913 C 0.34482 0.40225 0.70219 0.0
H914 H 0.38353 0.42729 0.70596 0.0
H915 H 0.22285 0.53589 0.70726 0.0
O916 O 0.33851 0.55695 0.65453 0.0
C917 C 0.25096 0.63653 0.683 0.0
Co918 Co 0.16583 0.55728 0.42118 0.0
Co919 Co 0.16755 0.55632 0.44635 0.0
C920 C 0.09015 0.64275 0.43617 0.0
O921 O 0.10526 0.61821 0.42713 0.0
O922 O 0.11666 0.62819 0.445 0.0
C923 C 0.18424 0.60592 0.39893 0.0
O924 O 0.21184 0.65435 0.40294 0.0
C925 C 0.18868 0.56857 0.47011 0.0
C926 C 0.21053 0.4723 0.4741 0.0
C927 C 0.20517 0.53012 0.47855 0.0
N928 N 0.18499 0.5348 0.46099 0.0
N929 N 0.19792 0.47737 0.46347 0.0
C930 C 0.17409 0.63536 0.4708 0.0
H931 H 0.12613 0.64074 0.47363 0.0
H932 H 0.1785 0.65743 0.46274 0.0
H933 H 0.20445 0.65843 0.47676 0.0
C934 C 0.30123 0.56862 0.42447 0.0
N935 N 0.24273 0.56532 0.42794 0.0
N936 N 0.24183 0.56866 0.43858 0.0
C937 C 0.29908 0.57838 0.4422 0.0
C938 C 0.33925 0.57753 0.43345 0.0
C939 C 0.32015 0.55581 0.41302 0.0
H940 H 0.28477 0.52791 0.40885 0.0
H941 H 0.32508 0.59976 0.4086 0.0
H942 H 0.36473 0.53143 0.41279 0.0
O943 O 0.13271 0.47593 0.42362 0.0
O944 O 0.11055 0.49189 0.4408 0.0
H945 H 0.31227 0.5474 0.45851 0.0
H946 H 0.36107 0.61082 0.45469 0.0
C947 C 0.31462 0.5907 0.45383 0.0
H948 H 0.28094 0.62316 0.45728 0.0
H949 H 0.19862 0.44165 0.45785 0.0
O950 O 0.16578 0.56381 0.40521 0.0
C951 C 0.10111 0.46362 0.43194 0.0
Co952 Co 0.1618 0.57866 0.33035 0.0
Co953 Co 0.17907 0.57789 0.30504 0.0
C954 C 0.07787 0.64772 0.31671 0.0
O955 O 0.09108 0.62613 0.32602 0.0
O956 O 0.10731 0.63185 0.30822 0.0
C957 C 0.12627 0.57953 0.35318 0.0
O958 O 0.0694 0.58579 0.34987 0.0
C959 C 0.14632 0.54197 0.28257 0.0
C960 C 0.22471 0.58122 0.27359 0.0
C961 C 0.17041 0.54945 0.27223 0.0
N962 N 0.18489 0.56834 0.2897 0.0
N963 N 0.23139 0.59192 0.28425 0.0
C964 C 0.0859 0.51439 0.28555 0.0
H965 H 0.07622 0.52135 0.29431 0.0
H966 H 0.086 0.4647 0.28375 0.0
H967 H 0.04912 0.53552 0.28058 0.0
C968 C 0.15951 0.4465 0.32707 0.0
N969 N 0.16386 0.50346 0.32311 0.0
N970 N 0.17563 0.50137 0.31265 0.0
C971 C 0.1824 0.44211 0.30974 0.0
C972 C 0.17227 0.40527 0.31881 0.0
C973 C 0.14136 0.4327 0.33853 0.0
H974 H 0.10174 0.46175 0.34083 0.0
H975 H 0.12896 0.38376 0.33957 0.0
H976 H 0.17974 0.44449 0.34406 0.0
O977 O 0.23095 0.63179 0.32686 0.0
O978 O 0.25024 0.62812 0.30931 0.0
H979 H 0.23543 0.3813 0.29969 0.0
H980 H 0.16471 0.40719 0.29387 0.0
C981 C 0.20456 0.4214 0.29886 0.0
H982 H 0.22926 0.45882 0.29465 0.0
H983 H 0.26786 0.61547 0.28782 0.0
O984 O 0.16877 0.57173 0.34629 0.0
C985 C 0.26158 0.64931 0.31869 0.0
Co986 Co 0.16516 0.43034 0.08018 0.0
Co987 Co 0.17623 0.41622 0.05505 0.0
C988 C 0.09861 0.33253 0.06588 0.0
O989 O 0.11082 0.36232 0.07458 0.0
O990 O 0.12618 0.34391 0.05698 0.0
C991 C 0.19153 0.3919 0.10254 0.0
O992 O 0.22485 0.34739 0.09848 0.0
C993 C 0.20814 0.404 0.03138 0.0
C994 C 0.24589 0.49708 0.02904 0.0
C995 C 0.23722 0.4416 0.02386 0.0
N996 N 0.2015 0.43587 0.04067 0.0
N997 N 0.22344 0.49157 0.03912 0.0
C998 C 0.19122 0.33809 0.03003 0.0
H999 H 0.18656 0.3155 0.03805 0.0
H1000 H 0.22606 0.31405 0.02505 0.0
H1001 H 0.14656 0.33512 0.02576 0.0
C1002 C 0.30288 0.427 0.07797 0.0
N1003 N 0.24489 0.42454 0.07413 0.0
N1004 N 0.24676 0.41083 0.06377 0.0
C1005 C 0.30488 0.39981 0.06084 0.0
C1006 C 0.34306 0.41091 0.06961 0.0
C1007 C 0.3194 0.45107 0.08895 0.0
H1008 H 0.28138 0.479 0.0923 0.0
H1009 H 0.32807 0.41215 0.09452 0.0
H1010 H 0.36177 0.47913 0.08852 0.0
O1011 O 0.12223 0.50591 0.07627 0.0
O1012 O 0.11797 0.48198 0.05892 0.0
H1013 H 0.32677 0.41479 0.04411 0.0
H1014 H 0.36801 0.35231 0.05027 0.0
C1015 C 0.32314 0.37615 0.0499 0.0
H1016 H 0.28788 0.34385 0.04687 0.0
H1017 H 0.22482 0.52534 0.0451 0.0
O1018 O 0.16487 0.42928 0.09623 0.0
C1019 C 0.0997 0.51401 0.0669 0.0
Co1020 Co 0.29676 0.41767 0.83042 0.0
Co1021 Co 0.30394 0.42114 0.80531 0.0
C1022 C 0.38663 0.34217 0.81629 0.0
O1023 O 0.35963 0.35695 0.82513 0.0
O1024 O 0.37448 0.3689 0.80736 0.0
C1025 C 0.34386 0.41154 0.85235 0.0
O1026 O 0.39816 0.40559 0.84788 0.0
C1027 C 0.3237 0.44171 0.78171 0.0
C1028 C 0.23367 0.48187 0.77755 0.0
C1029 C 0.29049 0.46763 0.77326 0.0
N1030 N 0.28789 0.44136 0.7906 0.0
N1031 N 0.23402 0.46467 0.788 0.0
C1032 C 0.38948 0.42243 0.78161 0.0
H1033 H 0.39198 0.37282 0.77973 0.0
H1034 H 0.41053 0.42962 0.7897 0.0
H1035 H 0.4156 0.44798 0.77535 0.0
C1036 C 0.31263 0.55236 0.82769 0.0
N1037 N 0.30783 0.49458 0.82394 0.0
N1038 N 0.31502 0.49459 0.81337 0.0
C1039 C 0.32874 0.55168 0.81011 0.0
C1040 C 0.32663 0.59097 0.819 0.0
C1041 C 0.29786 0.56997 0.83913 0.0
H1042 H 0.26525 0.53666 0.84271 0.0
H1043 H 0.34051 0.56913 0.84403 0.0
H1044 H 0.27774 0.61657 0.83949 0.0
O1045 O 0.21667 0.38429 0.82707 0.0
O1046 O 0.23634 0.36509 0.80989 0.0
H1047 H 0.30622 0.57028 0.79353 0.0
H1048 H 0.37234 0.61178 0.79846 0.0
C1049 C 0.34748 0.56748 0.79876 0.0
H1050 H 0.37777 0.53121 0.79552 0.0
H1051 H 0.19812 0.47063 0.79348 0.0
O1052 O 0.29731 0.4202 0.84639 0.0
C1053 C 0.20582 0.35456 0.81847 0.0
Co1054 Co 0.32336 0.57567 0.58036 0.0
Co1055 Co 0.32147 0.57357 0.55493 0.0
C1056 C 0.39129 0.66735 0.56528 0.0
O1057 O 0.37628 0.64277 0.57433 0.0
O1058 O 0.36842 0.649 0.55633 0.0
C1059 C 0.35776 0.60515 0.60195 0.0
O1060 O 0.40858 0.62217 0.5971 0.0
C1061 C 0.29778 0.57846 0.53103 0.0
C1062 C 0.27393 0.48102 0.5285 0.0
C1063 C 0.27718 0.53695 0.52327 0.0
N1064 N 0.30525 0.54803 0.54045 0.0
N1065 N 0.29193 0.48978 0.53879 0.0
C1066 C 0.30505 0.64624 0.52984 0.0
H1067 H 0.30018 0.66931 0.53781 0.0
H1068 H 0.27109 0.66469 0.52398 0.0
H1069 H 0.35171 0.65623 0.52673 0.0
C1070 C 0.18798 0.57225 0.57673 0.0
N1071 N 0.24655 0.57362 0.57322 0.0
N1072 N 0.24679 0.57847 0.5626 0.0
C1073 C 0.18877 0.58309 0.55903 0.0
C1074 C 0.14913 0.57857 0.5678 0.0
C1075 C 0.17032 0.56026 0.58826 0.0
H1076 H 0.20538 0.53121 0.59225 0.0
H1077 H 0.16805 0.60445 0.59268 0.0
H1078 H 0.12495 0.53745 0.58875 0.0
O1079 O 0.37256 0.5011 0.5784 0.0
O1080 O 0.37935 0.51187 0.56063 0.0
H1081 H 0.17576 0.55141 0.54276 0.0
H1082 H 0.12406 0.61199 0.54672 0.0
C1083 C 0.17164 0.59457 0.54745 0.0
H1084 H 0.20314 0.62887 0.54392 0.0
H1085 H 0.29275 0.45639 0.54484 0.0
O1086 O 0.31321 0.5859 0.59624 0.0
C1087 C 0.3968 0.48658 0.5694 0.0
C1088 C 0.29443 0.80899 0.32811 0.0
C1089 C 0.32675 0.83441 0.31937 0.0
C1090 C 0.28024 0.74682 0.3284 0.0
C1091 C 0.29554 0.70771 0.31971 0.0
H1092 H 0.27659 0.83779 0.33452 0.0
H1093 H 0.25229 0.73085 0.33509 0.0
S1094 S 0.3904 0.74951 0.29588 0.0
N1095 N 0.38321 0.81406 0.30275 0.0
N1096 N 0.3521 0.69727 0.30282 0.0
C1097 C 0.33182 0.73153 0.31129 0.0
C1098 C 0.34811 0.79491 0.31119 0.0
C1099 C 0.4432 0.03805 0.58056 0.0
C1100 C 0.41999 0.07248 0.57187 0.0
C1101 C 0.50526 0.02284 0.58116 0.0
C1102 C 0.54644 0.03984 0.5729 0.0
H1103 H 0.41269 0.01953 0.58666 0.0
H1104 H 0.51969 0.99302 0.5877 0.0
S1105 S 0.51078 0.13937 0.54937 0.0
N1106 N 0.4446 0.13158 0.55573 0.0
N1107 N 0.56108 0.09928 0.55643 0.0
C1108 C 0.52473 0.07782 0.56453 0.0
C1109 C 0.46153 0.0948 0.56409 0.0
C1110 C 0.20261 0.1927 0.8282 0.0
C1111 C 0.17066 0.16198 0.81996 0.0
C1112 C 0.20739 0.25639 0.82824 0.0
C1113 C 0.18214 0.2919 0.81982 0.0
H1114 H 0.22725 0.16733 0.83436 0.0
H1115 H 0.23579 0.27739 0.83443 0.0
S1116 S 0.08651 0.23472 0.79718 0.0
N1117 N 0.10534 0.17251 0.80404 0.0
N1118 N 0.11952 0.29259 0.80355 0.0
C1119 C 0.14743 0.26231 0.81181 0.0
C1120 C 0.1405 0.19725 0.81201 0.0
C1121 C 0.05439 0.96832 0.06185 0.0
C1122 C 0.07593 0.92644 0.06959 0.0
C1123 C 0.99292 0.98535 0.0615 0.0
C1124 C 0.95051 0.96282 0.06912 0.0
H1125 H 0.08572 0.99005 0.05623 0.0
H1126 H 0.97964 0.01973 0.05561 0.0
S1127 S 0.9824 0.84793 0.0905 0.0
N1128 N 0.04916 0.85814 0.08444 0.0
N1129 N 0.93347 0.89378 0.08428 0.0
C1130 C 0.97087 0.91963 0.07676 0.0
C1131 C 0.03362 0.90075 0.0769 0.0
C1132 C 0.34681 0.26555 0.18032 0.0
C1133 C 0.30057 0.29164 0.18674 0.0
C1134 C 0.35712 0.202 0.1805 0.0
C1135 C 0.32001 0.16292 0.18679 0.0
H1136 H 0.37395 0.29411 0.17498 0.0
H1137 H 0.39307 0.18308 0.17545 0.0
S1138 S 0.18847 0.20866 0.20399 0.0
N1139 N 0.21634 0.27361 0.19927 0.0
N1140 N 0.23256 0.15456 0.19888 0.0
C1141 C 0.27322 0.18865 0.19309 0.0
C1142 C 0.26427 0.25299 0.19324 0.0
C1143 C 0.05776 0.0222 0.44218 0.0
C1144 C 0.07945 0.06146 0.43403 0.0
C1145 C 0.99666 0.00378 0.44249 0.0
C1146 C 0.95484 0.02212 0.43442 0.0
H1147 H 0.08875 0.00335 0.44818 0.0
H1148 H 0.98334 0.97154 0.44874 0.0
S1149 S 0.98715 0.12935 0.41183 0.0
N1150 N 0.05324 0.12317 0.41829 0.0
N1151 N 0.93839 0.08488 0.4184 0.0
C1152 C 0.97527 0.0629 0.42637 0.0
C1153 C 0.03759 0.08325 0.42626 0.0
C1154 C 0.15491 0.77822 0.67748 0.0
C1155 C 0.18642 0.82297 0.68352 0.0
C1156 C 0.17438 0.71683 0.67754 0.0
C1157 C 0.22511 0.69867 0.6838 0.0
H1158 H 0.11544 0.7909 0.67265 0.0
H1159 H 0.15009 0.68362 0.67262 0.0
S1160 S 0.32695 0.80058 0.69992 0.0
N1161 N 0.27362 0.84635 0.69502 0.0
N1162 N 0.309 0.73157 0.69551 0.0
C1163 C 0.25707 0.74355 0.68977 0.0
C1164 C 0.23804 0.80563 0.68953 0.0
C1165 C 0.49809 0.97276 0.92426 0.0
C1166 C 0.5387 0.94996 0.93216 0.0
C1167 C 0.43574 0.95903 0.92459 0.0
C1168 C 0.4117 0.92001 0.93257 0.0
H1169 H 0.51346 0.00569 0.91827 0.0
H1170 H 0.40582 0.98205 0.9189 0.0
S1171 S 0.50049 0.83988 0.95396 0.0
N1172 N 0.5518 0.88269 0.94766 0.0
N1173 N 0.4347 0.85195 0.94767 0.0
C1174 C 0.45257 0.89272 0.93998 0.0
C1175 C 0.51606 0.90877 0.93991 0.0
C1176 C 0.71927 0.24379 0.67479 0.0
C1177 C 0.69354 0.2831 0.6826 0.0
C1178 C 0.70828 0.18089 0.67501 0.0
C1179 C 0.66943 0.15483 0.68282 0.0
H1180 H 0.75217 0.26097 0.66894 0.0
H1181 H 0.73317 0.15227 0.66935 0.0
S1182 S 0.58374 0.23927 0.7041 0.0
N1183 N 0.62481 0.2926 0.69796 0.0
N1184 N 0.59912 0.17438 0.69776 0.0
C1185 C 0.63979 0.19422 0.69021 0.0
C1186 C 0.65302 0.25835 0.69024 0.0
C1187 C 0.53543 0.89728 0.42841 0.0
C1188 C 0.58147 0.93144 0.43362 0.0
C1189 C 0.47365 0.91538 0.42903 0.0
C1190 C 0.45651 0.9673 0.43508 0.0
H1191 H 0.5473 0.85662 0.42383 0.0
H1192 H 0.43927 0.88904 0.42474 0.0
S1193 S 0.56186 0.07557 0.44908 0.0
N1194 N 0.60698 0.02196 0.4441 0.0
N1195 N 0.49177 0.05505 0.44564 0.0
C1196 C 0.5028 0.00193 0.4402 0.0
C1197 C 0.56512 0.98423 0.43937 0.0
C1198 C 0.84877 0.79356 0.18059 0.0
C1199 C 0.81776 0.83753 0.18684 0.0
C1200 C 0.83095 0.73173 0.18083 0.0
C1201 C 0.78233 0.71215 0.18748 0.0
H1202 H 0.88609 0.80728 0.17533 0.0
H1203 H 0.85419 0.69943 0.17559 0.0
S1204 S 0.68434 0.81128 0.20485 0.0
N1205 N 0.73441 0.85844 0.19933 0.0
N1206 N 0.70259 0.74277 0.20026 0.0
C1207 C 0.75194 0.75604 0.19393 0.0
C1208 C 0.76915 0.81868 0.19347 0.0
C1209 C -0.00218 0.01414 0.94431 0.0
C1210 C 0.03933 0.03942 0.93681 0.0
C1211 C 0.93549 0.02711 0.94377 0.0
C1212 C 0.912 0.06788 0.93603 0.0
H1213 H 0.01264 0.98009 0.95014 0.0
H1214 H 0.9052 0.00257 0.94921 0.0
S1215 S 0.00264 0.15357 0.91558 0.0
N1216 N 0.05362 0.11005 0.92182 0.0
N1217 N 0.93612 0.13926 0.92147 0.0
C1218 C 0.95342 0.097 0.92894 0.0
C1219 C 0.01716 0.08176 0.9292 0.0
C1220 C 0.67681 0.73662 0.82294 0.0
C1221 C 0.7306 0.71855 0.81758 0.0
C1222 C 0.65926 0.79861 0.82312 0.0
C1223 C 0.69578 0.84375 0.81814 0.0
H1224 H 0.64842 0.70288 0.82697 0.0
H1225 H 0.61711 0.81138 0.82717 0.0
S1226 S 0.84571 0.82038 0.80467 0.0
N1227 N 0.82277 0.751 0.80807 0.0
N1228 N 0.79098 0.86695 0.80881 0.0
C1229 C 0.75077 0.82623 0.81318 0.0
C1230 C 0.76789 0.76366 0.8128 0.0
C1231 C 0.02316 0.91413 0.57373 0.0
C1232 C 0.03867 0.97491 0.57121 0.0
C1233 C 0.96131 0.89545 0.57377 0.0
C1234 C 0.91419 0.93726 0.57131 0.0
H1235 H 0.05871 0.88117 0.57559 0.0
H1236 H 0.95028 0.84819 0.57558 0.0
S1237 S 0.9318 0.10185 0.56485 0.0
N1238 N 0.00246 0.07682 0.56662 0.0
N1239 N 0.88704 0.04191 0.5668 0.0
C1240 C 0.92951 -0.00187 0.56903 0.0
C1241 C 0.9917 0.0169 0.56895 0.0
C1242 C 0.84304 0.20734 0.31236 0.0
C1243 C 0.82036 0.16966 0.32071 0.0
C1244 C 0.8314 0.27059 0.31229 0.0
C1245 C 0.7983 0.29837 0.32075 0.0
H1246 H 0.86815 0.18751 0.30565 0.0
H1247 H 0.84618 0.29749 0.30539 0.0
S1248 S 0.72847 0.21949 0.34444 0.0
N1249 N 0.76163 0.16444 0.33742 0.0
N1250 N 0.7437 0.28316 0.33778 0.0
C1251 C 0.77803 0.2614 0.32941 0.0
C1252 C 0.78803 0.19704 0.32927 0.0
C1253 C 0.53331 0.08718 0.07682 0.0
C1254 C 0.57976 0.05548 0.07127 0.0
C1255 C 0.47186 0.06792 0.07611 0.0
C1256 C 0.45542 0.01744 0.06963 0.0
H1257 H 0.54457 0.12692 0.0817 0.0
H1258 H 0.43716 0.09235 0.08066 0.0
S1259 S 0.562 0.91533 0.0546 0.0
N1260 N 0.60639 0.96825 0.06002 0.0
N1261 N 0.49169 0.9335 0.05828 0.0
C1262 C 0.50206 0.98517 0.06418 0.0
C1263 C 0.5641 0.00382 0.06512 0.0
C1264 C 0.77905 0.31899 0.82809 0.0
C1265 C 0.81995 0.33926 0.82009 0.0
C1266 C 0.75941 0.2583 0.8284 0.0
C1267 C 0.77845 0.21586 0.8205 0.0
H1268 H 0.75919 0.35088 0.83382 0.0
H1269 H 0.72533 0.24598 0.83441 0.0
S1270 S 0.89247 0.24368 0.7988 0.0
N1271 N 0.8858 0.3104 0.80501 0.0
N1272 N 0.84521 0.19648 0.80511 0.0
C1273 C 0.82191 0.23452 0.81279 0.0
C1274 C 0.84344 0.29624 0.81268 0.0
C1275 C -0.00265 0.51897 0.0583 0.0
C1276 C 0.03865 0.54315 0.06598 0.0
C1277 C 0.93475 0.53094 0.05892 0.0
C1278 C 0.91065 0.56948 0.06697 0.0
H1279 H 0.01245 0.48653 0.05222 0.0
H1280 H 0.9047 0.50748 0.05329 0.0
S1281 S -0.00015 0.65309 0.08786 0.0
N1282 N 0.05163 0.61207 0.08131 0.0
N1283 N 0.93348 0.63813 0.08196 0.0
C1284 C 0.9516 0.59785 0.07421 0.0
C1285 C 0.01569 0.58415 0.07379 0.0
C1286 C 0.67001 0.77096 0.31564 0.0
C1287 C 0.71789 0.79024 0.3225 0.0
C1288 C 0.65301 0.7089 0.31506 0.0
C1289 C 0.68417 0.66431 0.32116 0.0
H1290 H 0.64688 0.80372 0.31047 0.0
H1291 H 0.61641 0.69547 0.30961 0.0
S1292 S 0.81667 0.68973 0.33947 0.0
N1293 N 0.79741 0.75867 0.33523 0.0
N1294 N 0.76751 0.64276 0.33364 0.0
C1295 C 0.73217 0.6829 0.32797 0.0
C1296 C 0.74842 0.74573 0.32879 0.0
C1297 C 0.49872 0.47149 0.56103 0.0
C1298 C 0.45742 0.45593 0.56935 0.0
C1299 C 0.56063 0.45665 0.56171 0.0
C1300 C 0.58415 0.42336 0.57052 0.0
H1301 H 0.4843 0.49915 0.55419 0.0
H1302 H 0.59067 0.47381 0.55542 0.0
S1303 S 0.49462 0.36472 0.59387 0.0
N1304 N 0.44386 0.40235 0.58648 0.0
N1305 N 0.56052 0.37038 0.58734 0.0
C1306 C 0.54316 0.40439 0.57865 0.0
C1307 C 0.47977 0.42128 0.57814 0.0
C1308 C 0.76877 0.74085 0.69404 0.0
C1309 C 0.79329 0.78178 0.68634 0.0
C1310 C 0.78065 0.67832 0.69354 0.0
C1311 C 0.81977 0.65381 0.68563 0.0
H1312 H 0.73604 0.7562 0.70006 0.0
H1313 H 0.75658 0.64868 0.69915 0.0
S1314 S 0.90337 0.7419 0.66458 0.0
N1315 N 0.86192 0.79394 0.67098 0.0
N1316 N 0.88885 0.67598 0.67065 0.0
C1317 C 0.84827 0.69441 0.67833 0.0
C1318 C 0.83419 0.75844 0.67857 0.0
C1319 C 0.54096 0.59391 0.93772 0.0
C1320 C 0.58143 0.56468 0.93048 0.0
C1321 C 0.47812 0.57988 0.93774 0.0
C1322 C 0.45385 0.53771 0.93028 0.0
H1323 H 0.5584 0.62596 0.94368 0.0
H1324 H 0.44882 0.60043 0.94382 0.0
S1325 S 0.54107 0.44675 0.91005 0.0
N1326 N 0.59313 0.48957 0.9161 0.0
N1327 N 0.47517 0.46616 0.91561 0.0
C1328 C 0.49367 0.50999 0.92275 0.0
C1329 C 0.55749 0.52281 0.92297 0.0
C1330 C 0.74059 0.25273 0.19273 0.0
C1331 C 0.72473 0.21065 0.18454 0.0
C1332 C 0.72343 0.31394 0.19206 0.0
C1333 C 0.68769 0.33562 0.18342 0.0
H1334 H 0.77003 0.23954 0.19941 0.0
H1335 H 0.7404 0.34497 0.19823 0.0
S1336 S 0.62678 0.24312 0.16062 0.0
N1337 N 0.66769 0.19412 0.16782 0.0
N1338 N 0.63177 0.30948 0.167 0.0
C1339 C 0.66824 0.29371 0.17548 0.0
C1340 C 0.68731 0.23113 0.17597 0.0
C1341 C 0.01089 0.3974 0.43651 0.0
C1342 C 0.03795 0.44278 0.43003 0.0
C1343 C 0.94719 0.38785 0.43627 0.0
C1344 C 0.9087 0.4252 0.4299 0.0
H1345 H 0.03877 0.37066 0.44203 0.0
H1346 H 0.92761 0.35284 0.44144 0.0
S1347 S 0.95747 0.55277 0.41203 0.0
N1348 N 0.02183 0.5248 0.41699 0.0
N1349 N 0.90237 0.51041 0.41729 0.0
C1350 C 0.93553 0.47021 0.42333 0.0
C1351 C 0.00015 0.47822 0.42324 0.0
C1352 C 0.22418 0.75409 0.17363 0.0
C1353 C 0.20113 0.79312 0.18174 0.0
C1354 C 0.21334 0.69122 0.17393 0.0
C1355 C 0.17709 0.66498 0.18211 0.0
H1356 H 0.25562 0.77121 0.16754 0.0
H1357 H 0.23684 0.66274 0.16807 0.0
S1358 S 0.09615 0.74904 0.20399 0.0
N1359 N 0.1357 0.80244 0.19757 0.0
N1360 N 0.11017 0.68421 0.19754 0.0
C1361 C 0.14896 0.7042 0.18969 0.0
C1362 C 0.16209 0.7683 0.18963 0.0
C1363 C 0.97865 0.41232 0.92764 0.0
C1364 C 0.95833 0.46151 0.93405 0.0
C1365 C 0.04116 0.39633 0.92741 0.0
C1366 C 0.08468 0.43013 0.93336 0.0
H1367 H 0.94633 0.38665 0.92276 0.0
H1368 H 0.05563 0.35786 0.92249 0.0
S1369 S 0.05552 0.5691 0.94984 0.0
N1370 N 0.98719 0.54682 0.9457 0.0
N1371 N 0.10396 0.51882 0.94475 0.0
C1372 C 0.0649 0.48065 0.93943 0.0
C1373 C 0.00181 0.49583 0.9399 0.0
C1374 C 0.31367 0.21583 0.67671 0.0
C1375 C 0.26359 0.19989 0.68332 0.0
C1376 C 0.33415 0.27683 0.67613 0.0
C1377 C 0.30421 0.32327 0.68197 0.0
H1378 H 0.3368 0.18113 0.67195 0.0
H1379 H 0.37337 0.28779 0.6711 0.0
S1380 S 0.16566 0.30688 0.6991 0.0
N1381 N 0.18181 0.23666 0.69511 0.0
N1382 N 0.219 0.35064 0.69365 0.0
C1383 C 0.25304 0.30816 0.68828 0.0
C1384 C 0.23306 0.24654 0.68906 0.0
C1385 C 0.49335 0.5197 0.44278 0.0
C1386 C 0.53455 0.54395 0.43513 0.0
C1387 C 0.43085 0.53159 0.44213 0.0
C1388 C 0.40675 0.57057 0.43414 0.0
H1389 H 0.50847 0.487 0.44882 0.0
H1390 H 0.40099 0.50745 0.44769 0.0
S1391 S 0.49614 0.65317 0.41315 0.0
N1392 N 0.54776 0.61193 0.41971 0.0
N1393 N 0.42981 0.63904 0.41912 0.0
C1394 C 0.44775 0.59878 0.42689 0.0
C1395 C 0.51173 0.58463 0.42728 0.0
C1396 C 0.17823 0.23419 0.31303 0.0
C1397 C 0.2184 0.21268 0.32112 0.0
C1398 C 0.16146 0.29628 0.31252 0.0
C1399 C 0.1853 0.33901 0.31996 0.0
H1400 H 0.16148 0.20329 0.30682 0.0
H1401 H 0.13108 0.31127 0.3061 0.0
S1402 S 0.29505 0.30723 0.34225 0.0
N1403 N 0.28126 0.23983 0.33675 0.0
N1404 N 0.25325 0.35615 0.33527 0.0
C1405 C 0.22497 0.31806 0.32811 0.0
C1406 C 0.24051 0.25495 0.32884 0.0
C1407 C 0.4974 0.46223 0.05921 0.0
C1408 C 0.53836 0.44562 0.06753 0.0
C1409 C 0.43491 0.4505 0.06007 0.0
C1410 C 0.41047 0.41903 0.06901 0.0
H1411 H 0.51255 0.489 0.05231 0.0
H1412 H 0.40528 0.46894 0.05383 0.0
S1413 S 0.49876 0.35633 0.09218 0.0
N1414 N 0.55068 0.39138 0.08464 0.0
N1415 N 0.43275 0.36495 0.08578 0.0
C1416 C 0.45109 0.39792 0.07703 0.0
C1417 C 0.51513 0.41173 0.07635 0.0
C1418 C 0.29252 0.68688 0.81004 0.0
C1419 C 0.32503 0.65898 0.81854 0.0
C1420 C 0.28549 0.75012 0.80951 0.0
C1421 C 0.30807 0.78851 0.81775 0.0
H1422 H 0.26938 0.65962 0.80396 0.0
H1423 H 0.25732 0.76834 0.80302 0.0
S1424 S 0.40109 0.73989 0.84136 0.0
N1425 N 0.38635 0.67554 0.83479 0.0
N1426 N 0.36712 0.79497 0.83441 0.0
C1427 C 0.34217 0.7619 0.82619 0.0
C1428 C 0.35183 0.69707 0.82646 0.0
C1429 C 0.9962 0.51601 0.55865 0.0
C1430 C 0.95412 0.54151 0.56603 0.0
C1431 C 0.05864 0.52878 0.55934 0.0
C1432 C 0.08186 0.56939 0.56717 0.0
H1433 H 0.98178 0.48212 0.55276 0.0
H1434 H 0.08926 0.50451 0.55394 0.0
S1435 S 0.99043 0.65583 0.58736 0.0
N1436 N 0.93951 0.61306 0.58093 0.0
N1437 N 0.05734 0.64055 0.58169 0.0
C1438 C 0.04016 0.5986 0.57415 0.0
C1439 C 0.97622 0.58414 0.57366 0.0
C1440 C 0.52018 0.27611 0.30772 0.0
C1441 C 0.55111 0.29434 0.31721 0.0
C1442 C 0.48467 0.22261 0.3075 0.0
C1443 C 0.47902 0.18514 0.31674 0.0
H1444 H 0.52275 0.30366 0.30043 0.0
H1445 H 0.45973 0.21191 0.30014 0.0
S1446 S 0.5554 0.20916 0.34337 0.0
N1447 N 0.57641 0.26831 0.33595 0.0
N1448 N 0.51122 0.16756 0.3354 0.0
C1449 C 0.51191 0.20143 0.32614 0.0
C1450 C 0.54731 0.25613 0.32642 0.0
C1451 C 0.04424 0.25486 0.57548 0.0
C1452 C 0.06525 0.22454 0.56612 0.0
C1453 C 0.98928 0.2875 0.57549 0.0
C1454 C 0.95276 0.2918 0.56611 0.0
H1455 H 0.06952 0.25207 0.58303 0.0
H1456 H 0.97554 0.30961 0.58297 0.0
S1457 S 0.98823 0.22339 0.53921 0.0
N1458 N 0.04607 0.2028 0.54703 0.0
N1459 N 0.94269 0.26457 0.54702 0.0
C1460 C 0.97381 0.26306 0.55657 0.0
C1461 C 0.03013 0.22971 0.55656 0.0
C1462 C 0.00051 0.71818 0.826 0.0
C1463 C 0.98187 0.69132 0.81615 0.0
C1464 C 0.03574 0.77137 0.82619 0.0
C1465 C 0.05482 0.80003 0.81655 0.0
H1466 H 0.98681 0.69883 0.83372 0.0
H1467 H 0.04874 0.7895 0.83404 0.0
S1468 S 0.0194 0.74806 0.78853 0.0
N1469 N 0.9855 0.69732 0.79643 0.0
N1470 N 0.05282 0.79732 0.79679 0.0
C1471 C 0.03713 0.77357 0.8066 0.0
C1472 C 0.00073 0.71916 0.8064 0.0
C1473 C 0.47045 0.76089 0.07807 0.0
C1474 C 0.43107 0.76523 0.06902 0.0
C1475 C 0.52499 0.72718 0.07757 0.0
C1476 C 0.5426 0.69723 0.06798 0.0
H1477 H 0.46011 0.78506 0.08552 0.0
H1478 H 0.55387 0.7251 0.08471 0.0
S1479 S 0.45269 0.68834 0.0424 0.0
N1480 N 0.41135 0.73212 0.05047 0.0
N1481 N 0.51398 0.66973 0.0495 0.0
C1482 C 0.50285 0.69962 0.05898 0.0
C1483 C 0.44702 0.73319 0.05953 0.0
C1484 C 0.51265 0.71942 0.19419 0.0
C1485 C 0.53036 0.69156 0.18439 0.0
C1486 C 0.47774 0.77297 0.19428 0.0
C1487 C 0.45848 0.80082 0.18457 0.0
H1488 H 0.52694 0.70062 0.20192 0.0
H1489 H 0.4651 0.79204 0.20208 0.0
S1490 S 0.49217 0.74563 0.15665 0.0
N1491 N 0.52595 0.6955 0.16468 0.0
N1492 N 0.45986 0.79609 0.1648 0.0
C1493 C 0.4759 0.77344 0.17467 0.0
C1494 C 0.51173 0.71882 0.17459 0.0
C1495 C 0.51858 0.27458 0.44444 0.0
C1496 C 0.55205 0.28468 0.43486 0.0
C1497 C 0.46462 0.23979 0.44437 0.0
C1498 C 0.44203 0.21342 0.43473 0.0
H1499 H 0.533 0.29524 0.45201 0.0
H1500 H 0.44075 0.23331 0.45199 0.0
S1501 S 0.51498 0.22335 0.40751 0.0
N1502 N 0.56039 0.2633 0.41554 0.0
N1503 N 0.45917 0.19832 0.41536 0.0
C1504 C 0.47586 0.22228 0.42511 0.0
C1505 C 0.53083 0.25758 0.4252 0.0
C1506 C 0.00303 0.20853 0.69419 0.0
C1507 C 0.01144 0.17333 0.68476 0.0
C1508 C 0.9701 0.26334 0.69394 0.0
C1509 C 0.94377 0.28515 0.68425 0.0
H1510 H 0.02369 0.19483 0.70181 0.0
H1511 H 0.96506 0.28854 0.70146 0.0
S1512 S 0.95045 0.20843 0.65734 0.0
N1513 N 0.98955 0.16302 0.66549 0.0
N1514 N 0.92729 0.266 0.66497 0.0
C1515 C 0.95132 0.24999 0.67475 0.0
C1516 C 0.985 0.19407 0.67502 0.0
C1517 C 0.96289 0.73696 0.92664 0.0
C1518 C 0.93924 0.71189 0.93628 0.0
C1519 C 0.01679 0.77121 0.92661 0.0
C1520 C 0.04949 0.78274 0.93624 0.0
H1521 H 0.94022 0.72933 0.91894 0.0
H1522 H 0.03219 0.78957 0.91891 0.0
S1523 S 0.0074 0.72783 0.96377 0.0
N1524 N 0.95284 0.70094 0.95581 0.0
N1525 N 0.05425 0.76625 0.95577 0.0
C1526 C 0.02638 0.75835 0.946 0.0
C1527 C 0.97118 0.72307 0.94602 0.0
C1528 C 0.51764 0.7635 0.69477 0.0
C1529 C 0.54235 0.7872 0.6851 0.0
C1530 C 0.4847 0.70842 0.69484 0.0
C1531 C 0.47514 0.67484 0.68523 0.0
H1532 H 0.52402 0.78738 0.70239 0.0
H1533 H 0.46508 0.6931 0.70244 0.0
S1534 S 0.53192 0.71507 0.65776 0.0
N1535 N 0.55563 0.77141 0.66562 0.0
N1536 N 0.49472 0.66789 0.66585 0.0
C1537 C 0.50031 0.69736 0.67553 0.0
C1538 C 0.53342 0.75355 0.67543 0.0
C1539 C 0.95912 0.74308 0.4267 0.0
C1540 C 0.92888 0.75862 0.43641 0.0
C1541 C 0.0116 0.70643 0.42673 0.0
C1542 C 0.03623 0.68377 0.43648 0.0
H1543 H 0.94327 0.76062 0.41897 0.0
H1544 H 0.03329 0.69635 0.41903 0.0
S1545 S 0.97125 0.70572 0.46408 0.0
N1546 N 0.92521 0.74464 0.45601 0.0
N1547 N 0.02385 0.67578 0.45607 0.0
C1548 C 0.00538 0.6971 0.44623 0.0
C1549 C 0.95164 0.73425 0.4462 0.0
C1550 C 0.03763 0.27449 0.19437 0.0
C1551 C 0.05696 0.29859 0.18436 0.0
C1552 C 0.0029 0.2207 0.1949 0.0
C1553 C 0.98611 0.18874 0.18543 0.0
H1554 H 0.04933 0.29731 0.2019 0.0
H1555 H 0.9877 0.20519 0.2028 0.0
S1556 S 0.02915 0.22957 0.15718 0.0
N1557 N 0.05914 0.2843 0.16473 0.0
N1558 N 0.99471 0.18301 0.16577 0.0
C1559 C 0.00666 0.21126 0.17538 0.0
C1560 C 0.04159 0.26629 0.17482 0.0
C1561 C 0.47358 0.26453 0.92634 0.0
C1562 C 0.4489 0.28747 0.93607 0.0
C1563 C 0.52571 0.22735 0.92634 0.0
C1564 C 0.55557 0.21154 0.93607 0.0
H1565 H 0.45244 0.27517 0.91861 0.0
H1566 H 0.54174 0.20982 0.91862 0.0
S1567 S 0.51211 0.26332 0.96375 0.0
N1568 N 0.46016 0.29408 0.9557 0.0
N1569 N 0.55825 0.22446 0.9557 0.0
C1570 C 0.53233 0.23544 0.94586 0.0
C1571 C 0.47893 0.27309 0.94586 0.0
C1572 C 0.48956 0.21497 0.82649 0.0
C1573 C 0.50787 0.18506 0.8169 0.0
C1574 C 0.45082 0.26591 0.82619 0.0
C1575 C 0.42878 0.28912 0.8163 0.0
H1576 H 0.50693 0.20047 0.83431 0.0
H1577 H 0.43894 0.28778 0.8338 0.0
S1578 S 0.45691 0.22307 0.78895 0.0
N1579 N 0.49663 0.17925 0.79727 0.0
N1580 N 0.42384 0.27502 0.7967 0.0
C1581 C 0.44462 0.25818 0.80666 0.0
C1582 C 0.48394 0.20608 0.80697 0.0
C1583 C 0.47023 0.72824 0.57513 0.0
C1584 C 0.44381 0.71055 0.5652 0.0
C1585 C 0.52443 0.76208 0.5755 0.0
C1586 C 0.5547 0.78052 0.56596 0.0
H1587 H 0.44938 0.71531 0.58276 0.0
H1588 H 0.54195 0.77473 0.58342 0.0
S1589 S 0.50501 0.74621 0.53777 0.0
N1590 N 0.4524 0.71383 0.54549 0.0
N1591 N 0.55422 0.77831 0.54621 0.0
C1592 C 0.52891 0.76336 0.55593 0.0
C1593 C 0.47346 0.7285 0.55554 0.0
C1594 C 0.02522 0.73365 0.32594 0.0
C1595 C 0.03668 0.70139 0.31627 0.0
C1596 C 0.99301 0.78859 0.32592 0.0
C1597 C 0.96942 0.81358 0.31626 0.0
H1598 H 0.04227 0.71718 0.33366 0.0
H1599 H 0.98532 0.81062 0.33367 0.0
S1600 S 0.98748 0.74778 0.28864 0.0
N1601 N 0.02334 0.69903 0.29668 0.0
N1602 N 0.96084 0.80225 0.29665 0.0
C1603 C 0.98088 0.78225 0.30647 0.0
C1604 C 0.0147 0.72618 0.30648 0.0
C1605 C 0.01484 0.27764 0.07571 0.0
C1606 C 0.04519 0.29049 0.06589 0.0
C1607 C 0.96089 0.24306 0.07592 0.0
C1608 C 0.9347 0.21991 0.06633 0.0
H1609 H 0.03263 0.29463 0.08334 0.0
H1610 H 0.94002 0.23384 0.08372 0.0
S1611 S 0.99553 0.2409 0.03839 0.0
N1612 N 0.04454 0.27759 0.04625 0.0
N1613 N 0.9432 0.21267 0.04665 0.0
C1614 C 0.96415 0.23288 0.05641 0.0
C1615 C 0.01943 0.26784 0.0562 0.0
C1616 C 0.35817 0.16388 0.37083 0.0
C1617 C 0.34809 0.10944 0.36496 0.0
C1618 C 0.34945 0.16659 0.38207 0.0
C1619 C 0.33032 0.11497 0.38801 0.0
H1620 H 0.37283 0.20519 0.36671 0.0
H1621 H 0.35834 0.20967 0.38614 0.0
S1622 S 0.29697 0.961 0.37657 0.0
N1623 N 0.31747 0.00242 0.36597 0.0
N1624 N 0.30104 0.00745 0.38711 0.0
C1625 C 0.31984 0.06009 0.38226 0.0
C1626 C 0.32876 0.05733 0.37076 0.0
C1627 C 0.17362 0.07195 0.62078 0.0
C1628 C 0.14039 0.11774 0.61532 0.0
C1629 C 0.1717 0.06702 0.63212 0.0
C1630 C 0.13763 0.10859 0.6384 0.0
H1631 H 0.20049 0.03898 0.61626 0.0
H1632 H 0.19792 0.03103 0.63599 0.0
S1633 S 0.04349 0.23744 0.62802 0.0
N1634 N 0.07243 0.20539 0.61702 0.0
N1635 N 0.07011 0.19719 0.63833 0.0
C1636 C 0.1047 0.15495 0.63304 0.0
C1637 C 0.10572 0.15923 0.62149 0.0
C1638 C 0.11667 0.94174 0.87291 0.0
C1639 C 0.15372 0.91111 0.86534 0.0
C1640 C 0.12449 0.93242 0.88409 0.0
C1641 C 0.16812 0.89054 0.88804 0.0
H1642 H 0.08173 0.9734 0.87017 0.0
H1643 H 0.09511 0.95698 0.88968 0.0
S1644 S 0.27596 0.79842 0.87155 0.0
N1645 N 0.23623 0.83797 0.86255 0.0
N1646 N 0.24892 0.81851 0.88355 0.0
C1647 C 0.20515 0.85938 0.88056 0.0
C1648 C 0.19849 0.87023 0.8692 0.0
C1649 C 0.417 0.91315 0.12098 0.0
C1650 C 0.36104 0.91999 0.11543 0.0
C1651 C 0.42055 0.9194 0.13227 0.0
C1652 C 0.36832 0.93305 0.1385 0.0
H1653 H 0.45861 0.90223 0.1166 0.0
H1654 H 0.46464 0.91265 0.13613 0.0
S1655 S 0.211 0.95876 0.12784 0.0
N1656 N 0.25239 0.94329 0.11698 0.0
N1657 N 0.25892 0.95545 0.13818 0.0
C1658 C 0.31212 0.94123 0.13303 0.0
C1659 C 0.3085 0.93451 0.12152 0.0
C1660 C 0.67981 0.91821 0.63283 0.0
C1661 C 0.62777 0.89969 0.63874 0.0
C1662 C 0.6819 0.91313 0.62148 0.0
C1663 C 0.63197 0.88947 0.61558 0.0
H1664 H 0.71916 0.93738 0.63698 0.0
H1665 H 0.72255 0.92906 0.6173 0.0
S1666 S 0.48698 0.82917 0.62721 0.0
N1667 N 0.52649 0.85304 0.63782 0.0
N1668 N 0.53042 0.84377 0.61656 0.0
C1669 C 0.58023 0.86942 0.6214 0.0
C1670 C 0.57811 0.87449 0.63295 0.0
C1671 C 0.82794 0.92765 0.37114 0.0
C1672 C 0.86976 0.89162 0.36524 0.0
C1673 C 0.82504 0.92445 0.38251 0.0
C1674 C 0.86478 0.88613 0.38841 0.0
H1675 H 0.79642 0.95773 0.36693 0.0
H1676 H 0.79207 0.95292 0.38672 0.0
S1677 S 0.98319 0.78317 0.37684 0.0
N1678 N 0.95177 0.81642 0.36617 0.0
N1679 N 0.94723 0.81148 0.38749 0.0
C1680 C 0.90718 0.85037 0.38261 0.0
C1681 C 0.90942 0.85282 0.37105 0.0
C1682 C 0.88811 0.1536 0.12194 0.0
C1683 C 0.85521 0.10985 0.11592 0.0
C1684 C 0.88768 0.153 0.13331 0.0
C1685 C 0.85544 0.10783 0.13912 0.0
H1686 H 0.91394 0.18912 0.11785 0.0
H1687 H 0.91331 0.18803 0.13758 0.0
S1688 S 0.7629 0.98201 0.12721 0.0
N1689 N 0.7896 0.01979 0.11661 0.0
N1690 N 0.78995 0.01792 0.13799 0.0
C1691 C 0.82291 0.0633 0.13321 0.0
C1692 C 0.82241 0.06457 0.12161 0.0
C1693 C 0.64946 0.12337 0.86893 0.0
C1694 C 0.63068 0.06443 0.86569 0.0
C1695 C 0.65941 0.13743 0.87989 0.0
C1696 C 0.65293 0.09248 0.88794 0.0
H1697 H 0.6554 0.15929 0.86295 0.0
H1698 H 0.67269 0.18365 0.88206 0.0
S1699 S 0.60571 0.93087 0.88365 0.0
N1700 N 0.60582 0.96097 0.87136 0.0
N1701 N 0.62667 0.9865 0.89195 0.0
C1702 C 0.63509 0.03306 0.88479 0.0
C1703 C 0.62332 0.01926 0.87366 0.0
C1704 C 0.84998 0.67576 0.8698 0.0
C1705 C 0.84084 0.6211 0.86396 0.0
C1706 C 0.84657 0.67718 0.88114 0.0
C1707 C 0.83354 0.62406 0.88717 0.0
H1708 H 0.86026 0.71807 0.86559 0.0
H1709 H 0.85445 0.7205 0.88519 0.0
S1710 S 0.8043 0.46907 0.87582 0.0
N1711 N 0.81723 0.51237 0.86509 0.0
N1712 N 0.81051 0.51499 0.8864 0.0
C1713 C 0.82368 0.56902 0.88145 0.0
C1714 C 0.82748 0.56753 0.86987 0.0
C1715 C 0.69715 0.62632 0.12274 0.0
C1716 C 0.67341 0.58564 0.11497 0.0
C1717 C 0.68944 0.61546 0.13387 0.0
C1718 C 0.6565 0.56422 0.13765 0.0
H1719 H 0.72214 0.66675 0.12022 0.0
H1720 H 0.70851 0.6482 0.13955 0.0
S1721 S 0.58471 0.44384 0.12064 0.0
N1722 N 0.61579 0.49164 0.11185 0.0
N1723 N 0.6004 0.47215 0.13275 0.0
C1724 C 0.63238 0.52323 0.12998 0.0
C1725 C 0.64114 0.53365 0.11865 0.0
C1726 C 0.68532 0.36108 0.37931 0.0
C1727 C 0.65136 0.39433 0.38697 0.0
C1728 C 0.67755 0.37155 0.36818 0.0
C1729 C 0.63421 0.41415 0.36438 0.0
H1730 H 0.71903 0.32784 0.38194 0.0
H1731 H 0.70522 0.34567 0.3625 0.0
S1732 S 0.53199 0.51072 0.38115 0.0
N1733 N 0.57225 0.47087 0.39003 0.0
N1734 N 0.55603 0.48858 0.36906 0.0
C1735 C 0.59888 0.44649 0.37193 0.0
C1736 C 0.60796 0.43713 0.38326 0.0
C1737 C 0.78711 0.39348 0.63376 0.0
C1738 C 0.84438 0.41328 0.63774 0.0
C1739 C 0.77688 0.38537 0.62262 0.0
C1740 C 0.82308 0.39814 0.61503 0.0
H1741 H 0.75004 0.38309 0.63931 0.0
H1742 H 0.73219 0.36993 0.61993 0.0
S1743 S 0.98109 0.45094 0.62116 0.0
N1744 N 0.94808 0.44468 0.63316 0.0
N1745 N 0.92838 0.43108 0.6122 0.0
C1746 C 0.88041 0.41836 0.61886 0.0
C1747 C 0.89121 0.42545 0.63022 0.0
C1748 C 0.11873 0.42982 0.12963 0.0
C1749 C 0.16451 0.41404 0.13714 0.0
C1750 C 0.12828 0.42298 0.11845 0.0
C1751 C 0.18338 0.39862 0.11438 0.0
H1752 H 0.07526 0.44798 0.13239 0.0
H1753 H 0.09174 0.43599 0.11296 0.0
S1754 S 0.3177 0.34985 0.13064 0.0
N1755 N 0.26734 0.37341 0.13972 0.0
N1756 N 0.28453 0.35916 0.11871 0.0
C1757 C 0.22946 0.38235 0.12179 0.0
C1758 C 0.22026 0.39052 0.13317 0.0
C1759 C 0.27972 0.37636 0.86791 0.0
C1760 C 0.33511 0.40173 0.86411 0.0
C1761 C 0.27018 0.36545 0.879 0.0
C1762 C 0.31511 0.38093 0.88667 0.0
H1763 H 0.2436 0.3642 0.86228 0.0
H1764 H 0.22682 0.3462 0.88159 0.0
S1765 S 0.46824 0.44768 0.88092 0.0
N1766 N 0.43588 0.44067 0.86887 0.0
N1767 N 0.41744 0.42184 0.88973 0.0
C1768 C 0.37073 0.40617 0.88298 0.0
C1769 C 0.3809 0.41609 0.87168 0.0
C1770 C 0.39202 0.64467 0.61999 0.0
C1771 C 0.35427 0.60506 0.61395 0.0
C1772 C 0.3912 0.64426 0.63136 0.0
C1773 C 0.35365 0.60322 0.63712 0.0
H1774 H 0.42223 0.67659 0.6159 0.0
H1775 H 0.42088 0.67582 0.63566 0.0
S1776 S 0.24632 0.48987 0.62516 0.0
N1777 N 0.27784 0.52395 0.61458 0.0
N1778 N 0.27735 0.52224 0.63595 0.0
C1779 C 0.31584 0.56316 0.63119 0.0
C1780 C 0.3158 0.56439 0.61961 0.0
C1781 C 0.11689 0.57041 0.38383 0.0
C1782 C 0.17054 0.60091 0.38722 0.0
C1783 C 0.10243 0.56422 0.3728 0.0
C1784 C 0.14197 0.58677 0.36476 0.0
H1785 H 0.08535 0.55173 0.38976 0.0
H1786 H 0.06053 0.54078 0.37055 0.0
S1787 S 0.28771 0.6708 0.36933 0.0
N1788 N 0.26258 0.655 0.38166 0.0
N1789 N 0.23649 0.64182 0.3609 0.0
C1790 C 0.19583 0.61726 0.36803 0.0
C1791 C 0.2098 0.62482 0.37927 0.0
C1792 C 0.34948 0.01958 0.24314 0.0
C1793 C 0.33349 0.95779 0.24165 0.0
C1794 C 0.3505 0.04561 0.25355 0.0
C1795 C 0.33693 0.01027 0.26277 0.0
H1796 H 0.35633 0.04909 0.23618 0.0
H1797 H 0.35846 0.09438 0.25435 0.0
S1798 S 0.29751 0.84536 0.26322 0.0
N1799 N 0.30729 0.86125 0.25023 0.0
N1800 N 0.31093 0.90983 0.26982 0.0
C1801 C 0.32509 0.94758 0.26143 0.0
C1802 C 0.3229 0.92139 0.25084 0.0
C1803 C 0.29428 0.08122 0.51065 0.0
C1804 C 0.23187 0.08731 0.51321 0.0
C1805 C 0.31399 0.08204 0.49981 0.0
C1806 C 0.27203 0.09036 0.49127 0.0
H1807 H 0.32721 0.07089 0.51697 0.0
H1808 H 0.36165 0.07236 0.49804 0.0
S1809 S 0.10473 0.11399 0.49387 0.0
N1810 N 0.12898 0.10575 0.50649 0.0
N1811 N 0.16633 0.10902 0.48613 0.0
C1812 C 0.21033 0.10102 0.49381 0.0
C1813 C 0.19012 0.09903 0.5048 0.0
C1814 C 0.1497 0.93867 0.7541 0.0
C1815 C 0.16164 0.97985 0.76261 0.0
C1816 C 0.14454 0.95933 0.74336 0.0
C1817 C 0.15261 0.02153 0.74084 0.0
H1818 H 0.14843 0.88988 0.75567 0.0
H1819 H 0.13965 0.92589 0.73692 0.0
S1820 S 0.17973 0.14783 0.76032 0.0
N1821 N 0.17631 0.08576 0.76796 0.0
N1822 N 0.16852 0.12447 0.74772 0.0
C1823 C 0.16071 0.06344 0.74935 0.0
C1824 C 0.16475 0.04258 0.76028 0.0
C1825 C 0.21968 0.87251 0.01029 0.0
C1826 C 0.28044 0.88895 0.0127 0.0
C1827 C 0.19826 0.87322 0.99956 0.0
C1828 C 0.23737 0.88904 0.99095 0.0
H1829 H 0.18718 0.86471 0.01679 0.0
H1830 H 0.14988 0.86584 0.99807 0.0
S1831 S 0.40202 0.92823 0.99292 0.0
N1832 N 0.38056 0.91626 0.00561 0.0
N1833 N 0.3406 0.91585 0.98539 0.0
C1834 C 0.29937 0.90019 0.99317 0.0
C1835 C 0.32088 0.90061 0.00409 0.0
C1836 C 0.63613 0.97284 0.7604 0.0
C1837 C 0.64683 0.03582 0.76178 0.0
C1838 C 0.63641 0.94644 0.75002 0.0
C1839 C 0.64606 0.98243 0.74072 0.0
H1840 H 0.63291 0.94303 0.76741 0.0
H1841 H 0.63303 0.8971 0.7493 0.0
S1842 S 0.67069 0.15014 0.73999 0.0
N1843 N 0.66337 0.13397 0.75302 0.0
N1844 N 0.66244 0.08449 0.73349 0.0
C1845 C 0.65222 0.04598 0.74196 0.0
C1846 C 0.65302 0.07267 0.75252 0.0
C1847 C 0.80665 0.96343 0.49869 0.0
C1848 C 0.77339 0.92673 0.49141 0.0
C1849 C 0.79057 0.96682 0.50965 0.0
C1850 C 0.74049 0.93372 0.51377 0.0
H1851 H 0.84382 0.99198 0.49579 0.0
H1852 H 0.81608 -0.00233 0.51486 0.0
S1853 S 0.63919 0.82983 0.49813 0.0
N1854 N 0.68907 0.85519 0.4891 0.0
N1855 N 0.65866 0.8616 0.5098 0.0
C1856 C 0.70855 0.89443 0.50672 0.0
C1857 C 0.72506 0.89092 0.49549 0.0
C1858 C 0.84969 0.95113 0.25494 0.0
C1859 C 0.83501 0.98901 0.26378 0.0
C1860 C 0.85389 0.97511 0.2444 0.0
C1861 C 0.84214 0.03735 0.24241 0.0
H1862 H 0.8547 0.90222 0.2561 0.0
H1863 H 0.86149 0.94395 0.23769 0.0
S1864 S 0.80517 0.15577 0.26289 0.0
N1865 N 0.81247 0.09201 0.26999 0.0
N1866 N 0.8186 0.13681 0.25013 0.0
C1867 C 0.83043 0.07607 0.25125 0.0
C1868 C 0.82731 0.05192 0.26198 0.0
C1869 C 0.75228 0.09537 0.99555 0.0
C1870 C 0.7003 0.06312 0.99194 0.0
C1871 C 0.76816 0.09621 0.00662 0.0
C1872 C 0.73253 0.06456 0.0143 0.0
H1873 H 0.78323 0.11604 0.98974 0.0
H1874 H 0.81074 0.11775 0.00904 0.0
S1875 S 0.58684 0.98213 0.00906 0.0
N1876 N 0.60968 0.00538 0.99697 0.0
N1877 N 0.63904 0.00712 0.0177 0.0
C1878 C 0.67798 0.03647 0.01084 0.0
C1879 C 0.66199 0.03566 0.99965 0.0
C1880 C 0.83715 0.4484 0.76045 0.0
C1881 C 0.84958 0.51113 0.76172 0.0
C1882 C 0.83189 0.42247 0.75006 0.0
C1883 C 0.84033 0.45826 0.74071 0.0
H1884 H 0.82625 0.42052 0.76746 0.0
H1885 H 0.81739 0.37519 0.74934 0.0
S1886 S 0.87907 0.62329 0.73982 0.0
N1887 N 0.87402 0.60734 0.75289 0.0
N1888 N 0.86579 0.55826 0.73338 0.0
C1889 C 0.85735 0.51984 0.74192 0.0
C1890 C 0.86157 0.54642 0.75246 0.0
C1891 C 0.78396 0.60798 0.9977 0.0
C1892 C 0.7472 0.58641 0.98916 0.0
C1893 C 0.76207 0.60816 0.00842 0.0
C1894 C 0.70327 0.58572 0.01084 0.0
H1895 H 0.83128 0.62045 0.99621 0.0
H1896 H 0.79321 0.62054 0.01491 0.0
S1897 S 0.5875 0.53043 0.99115 0.0
N1898 N 0.6477 0.54784 0.98363 0.0
N1899 N 0.60697 0.54674 0.00379 0.0
C1900 C 0.66477 0.56826 0.00226 0.0
C1901 C 0.6867 0.56895 0.99138 0.0
C1902 C 0.64117 0.4577 0.24327 0.0
C1903 C 0.64773 0.52004 0.24076 0.0
C1904 C 0.64438 0.43748 0.25404 0.0
C1905 C 0.65323 0.4792 0.26258 0.0
H1906 H 0.639 0.42401 0.23682 0.0
H1907 H 0.64419 0.38869 0.25564 0.0
S1908 S 0.66732 0.64757 0.26024 0.0
N1909 N 0.6592 0.62358 0.2476 0.0
N1910 N 0.6639 0.58566 0.26792 0.0
C1911 C 0.65485 0.54199 0.26023 0.0
C1912 C 0.65244 0.56245 0.24926 0.0
C1913 C 0.67409 0.42698 0.49772 0.0
C1914 C 0.71924 0.41152 0.4901 0.0
C1915 C 0.68677 0.42612 0.50883 0.0
C1916 C 0.74516 0.41002 0.51271 0.0
H1917 H 0.6299 0.44383 0.49503 0.0
H1918 H 0.65176 0.44194 0.51439 0.0
S1919 S 0.87788 0.36177 0.49603 0.0
N1920 N 0.82315 0.37582 0.4871 0.0
N1921 N 0.84742 0.3745 0.5081 0.0
C1922 C 0.78946 0.39022 0.50522 0.0
C1923 C 0.77637 0.391 0.49385 0.0
C1924 C 0.14574 0.53667 0.24214 0.0
C1925 C 0.15225 0.47341 0.24045 0.0
C1926 C 0.1455 0.56102 0.25268 0.0
C1927 C 0.15073 0.52278 0.26181 0.0
H1928 H 0.14699 0.56797 0.23533 0.0
H1929 H 0.14577 0.61032 0.25366 0.0
S1930 S 0.16232 0.3536 0.26165 0.0
N1931 N 0.15857 0.37271 0.2487 0.0
N1932 N 0.15795 0.41848 0.26849 0.0
C1933 C 0.15198 0.4592 0.26023 0.0
C1934 C 0.15281 0.4345 0.24952 0.0
C1935 C 0.2323 0.40267 0.99391 0.0
C1936 C 0.28665 0.43008 0.99017 0.0
C1937 C 0.21809 0.40193 0.00504 0.0
C1938 C 0.25794 0.42869 0.01267 0.0
H1939 H 0.19879 0.38565 0.98816 0.0
H1940 H 0.1739 0.38446 0.00756 0.0
S1941 S 0.41022 0.49721 0.00697 0.0
N1942 N 0.38317 0.47813 0.99492 0.0
N1943 N 0.3573 0.47613 0.01579 0.0
C1944 C 0.31448 0.45178 0.00903 0.0
C1945 C 0.32863 0.4527 0.99777 0.0
C1946 C 0.29902 0.55442 0.74696 0.0
C1947 C 0.32083 0.5103 0.73967 0.0
C1948 C 0.29371 0.54127 0.75802 0.0
C1949 C 0.30966 0.48339 0.76213 0.0
H1950 H 0.28261 0.59818 0.74401 0.0
H1951 H 0.27401 0.57568 0.7633 0.0
S1952 S 0.37123 0.35292 0.7463 0.0
N1953 N 0.36107 0.4077 0.73722 0.0
N1954 N 0.35039 0.38234 0.75808 0.0
C1955 C 0.33475 0.43993 0.755 0.0
C1956 C 0.34042 0.45356 0.74371 0.0
C1957 C 0.18202 0.51658 0.49802 0.0
C1958 C 0.21763 0.5447 0.48998 0.0
C1959 C 0.2 0.51812 0.5089 0.0
C1960 C 0.25461 0.54729 0.51211 0.0
H1961 H 0.14137 0.4909 0.49581 0.0
H1962 H 0.17219 0.49398 0.51479 0.0
S1963 S 0.36383 0.62782 0.49404 0.0
N1964 N 0.30902 0.60364 0.48583 0.0
N1965 N 0.34366 0.60576 0.50636 0.0
C1966 C 0.28944 0.57776 0.50419 0.0
C1967 C 0.27076 0.57652 0.49308 0.0
loop_
_geom_bond_atom_site_label_1
_geom_bond_atom_site_label_2
_geom_bond_distance
_geom_bond_site_symmetry_2
_ccdc_geom_bond_type
Co0 O3 1.970 . S
Co0 N17 1.989 . S
Co0 O25 1.967 . S
Co0 O32 1.920 . S
Co1 O4 1.966 . S
Co1 N10 2.022 . S
Co1 N18 1.993 . S
Co1 O26 1.941 . S
C2 O3 1.258 . S
C2 O4 1.263 . S
O3 Co0 1.970 . S
O3 C2 1.258 . S
O4 Co1 1.966 . S
O4 C2 1.263 . S
C5 O6 1.235 . S
C5 O32 1.289 . S
O6 C5 1.235 . S
C7 C9 1.400 . S
C7 N10 1.351 . S
C7 C12 1.501 . S
C8 C9 1.387 . S
C8 N11 1.341 . S
C9 C7 1.400 . S
C9 C8 1.387 . S
N10 Co1 2.022 . S
N10 C7 1.351 . S
N10 N11 1.365 . S
N11 C8 1.341 . S
N11 N10 1.365 . S
N11 H31 0.862 . S
C12 C7 1.501 . S
C12 H13 0.961 . S
C12 H14 0.961 . S
C12 H15 0.960 . S
H13 C12 0.961 . S
H14 C12 0.961 . S
H15 C12 0.960 . S
C16 N17 1.342 1_565 S
C16 C20 1.401 . S
C16 C21 1.499 . S
N17 Co0 1.989 . S
N17 C16 1.342 1_545 S
N17 N18 1.388 . S
N18 Co1 1.993 . S
N18 N17 1.388 . S
N18 C19 1.346 1_545 S
C19 N18 1.346 1_565 S
C19 C20 1.396 . S
C19 C29 1.510 . S
C20 C16 1.401 . S
C20 C19 1.396 . S
C21 C16 1.499 . S
C21 H22 0.959 . S
C21 H23 0.960 . S
C21 H24 0.961 . S
H22 C21 0.959 . S
H23 C21 0.960 . S
H24 C21 0.961 . S
O25 Co0 1.967 . S
O25 C33 1.258 . S
O26 Co1 1.941 . S
O26 C33 1.266 . S
H27 C29 0.959 . S
H28 C29 0.961 . S
C29 C19 1.510 . S
C29 H27 0.959 . S
C29 H28 0.961 . S
C29 H30 0.960 . S
H30 C29 0.960 . S
H31 N11 0.862 . S
O32 Co0 1.920 . S
O32 C5 1.289 . S
C33 O25 1.258 . S
C33 O26 1.266 . S
Co34 O37 1.970 . S
Co34 N51 1.989 . S
Co34 O59 1.967 . S
Co34 O66 1.920 . S
Co35 O38 1.966 . S
Co35 N44 2.022 . S
Co35 N52 1.993 . S
Co35 O60 1.941 . S
C36 O37 1.258 . S
C36 O38 1.263 . S
O37 Co34 1.970 . S
O37 C36 1.258 . S
O38 Co35 1.966 . S
O38 C36 1.263 . S
C39 O40 1.235 . S
C39 O66 1.289 . S
O40 C39 1.235 . S
C41 C43 1.400 . S
C41 N44 1.351 . S
C41 C46 1.501 . S
C42 C43 1.387 . S
C42 N45 1.341 . S
C43 C41 1.400 . S
C43 C42 1.387 . S
N44 Co35 2.022 . S
N44 C41 1.351 . S
N44 N45 1.365 . S
N45 C42 1.341 . S
N45 N44 1.365 . S
N45 H65 0.862 . S
C46 C41 1.501 . S
C46 H47 0.961 . S
C46 H48 0.961 . S
C46 H49 0.960 . S
H47 C46 0.961 . S
H48 C46 0.961 . S
H49 C46 0.960 . S
C50 N51 1.342 . S
C50 C54 1.401 . S
C50 C55 1.499 . S
N51 Co34 1.989 . S
N51 C50 1.342 . S
N51 N52 1.388 . S
N52 Co35 1.993 . S
N52 N51 1.388 . S
N52 C53 1.346 . S
C53 N52 1.346 . S
C53 C54 1.396 . S
C53 C63 1.510 . S
C54 C50 1.401 . S
C54 C53 1.396 . S
C55 C50 1.499 . S
C55 H56 0.959 . S
C55 H57 0.960 . S
C55 H58 0.961 . S
H56 C55 0.959 . S
H57 C55 0.960 . S
H58 C55 0.961 . S
O59 Co34 1.967 . S
O59 C67 1.258 . S
O60 Co35 1.941 . S
O60 C67 1.266 . S
H61 C63 0.959 . S
H62 C63 0.961 . S
C63 C53 1.510 . S
C63 H61 0.959 . S
C63 H62 0.961 . S
C63 H64 0.960 . S
H64 C63 0.960 . S
H65 N45 0.862 . S
O66 Co34 1.920 . S
O66 C39 1.289 . S
C67 O59 1.258 . S
C67 O60 1.266 . S
Co68 O71 1.970 . S
Co68 N85 1.989 . S
Co68 O93 1.967 . S
Co68 O100 1.920 . S
Co69 O72 1.966 . S
Co69 N78 2.022 . S
Co69 N86 1.993 . S
Co69 O94 1.941 . S
C70 O71 1.258 . S
C70 O72 1.263 . S
O71 Co68 1.970 . S
O71 C70 1.258 . S
O72 Co69 1.966 . S
O72 C70 1.263 . S
C73 O74 1.235 . S
C73 O100 1.289 . S
O74 C73 1.235 . S
C75 C77 1.400 . S
C75 N78 1.351 . S
C75 C80 1.501 . S
C76 C77 1.387 . S
C76 N79 1.341 . S
C77 C75 1.400 . S
C77 C76 1.387 . S
N78 Co69 2.022 . S
N78 C75 1.351 . S
N78 N79 1.365 . S
N79 C76 1.341 . S
N79 N78 1.365 . S
N79 H99 0.862 . S
C80 C75 1.501 . S
C80 H81 0.961 . S
C80 H82 0.961 . S
C80 H83 0.960 . S
H81 C80 0.961 . S
H82 C80 0.961 . S
H83 C80 0.960 . S
C84 N85 1.342 1_545 S
C84 C88 1.401 . S
C84 C89 1.499 . S
N85 Co68 1.989 . S
N85 C84 1.342 1_565 S
N85 N86 1.388 . S
N86 Co69 1.993 . S
N86 N85 1.388 . S
N86 C87 1.346 1_565 S
C87 N86 1.346 1_545 S
C87 C88 1.396 . S
C87 C97 1.510 . S
C88 C84 1.401 . S
C88 C87 1.396 . S
C89 C84 1.499 . S
C89 H90 0.959 . S
C89 H91 0.960 . S
C89 H92 0.961 . S
H90 C89 0.959 . S
H91 C89 0.960 . S
H92 C89 0.961 . S
O93 Co68 1.967 . S
O93 C101 1.258 . S
O94 Co69 1.941 . S
O94 C101 1.266 . S
H95 C97 0.959 . S
H96 C97 0.961 . S
C97 C87 1.510 . S
C97 H95 0.959 . S
C97 H96 0.961 . S
C97 H98 0.960 . S
H98 C97 0.960 . S
H99 N79 0.862 . S
O100 Co68 1.920 . S
O100 C73 1.289 . S
C101 O93 1.258 . S
C101 O94 1.266 . S
Co102 O105 1.970 . S
Co102 N119 1.989 . S
Co102 O127 1.967 . S
Co102 O134 1.920 . S
Co103 O106 1.966 . S
Co103 N112 2.022 . S
Co103 N120 1.993 . S
Co103 O128 1.941 . S
C104 O105 1.258 . S
C104 O106 1.263 . S
O105 Co102 1.970 . S
O105 C104 1.258 . S
O106 Co103 1.966 . S
O106 C104 1.263 . S
C107 O108 1.235 . S
C107 O134 1.289 . S
O108 C107 1.235 . S
C109 C111 1.400 . S
C109 N112 1.351 . S
C109 C114 1.501 . S
C110 C111 1.387 . S
C110 N113 1.341 . S
C111 C109 1.400 . S
C111 C110 1.387 . S
N112 Co103 2.022 . S
N112 C109 1.351 . S
N112 N113 1.365 . S
N113 C110 1.341 . S
N113 N112 1.365 . S
N113 H133 0.862 . S
C114 C109 1.501 . S
C114 H115 0.961 . S
C114 H116 0.961 . S
C114 H117 0.960 . S
H115 C114 0.961 . S
H116 C114 0.961 . S
H117 C114 0.960 . S
C118 N119 1.342 . S
C118 C122 1.401 . S
C118 C123 1.499 . S
N119 Co102 1.989 . S
N119 C118 1.342 . S
N119 N120 1.388 . S
N120 Co103 1.993 . S
N120 N119 1.388 . S
N120 C121 1.346 . S
C121 N120 1.346 . S
C121 C122 1.396 . S
C121 C131 1.510 . S
C122 C118 1.401 . S
C122 C121 1.396 . S
C123 C118 1.499 . S
C123 H124 0.959 . S
C123 H125 0.960 . S
C123 H126 0.961 . S
H124 C123 0.959 . S
H125 C123 0.960 . S
H126 C123 0.961 . S
O127 Co102 1.967 . S
O127 C135 1.258 . S
O128 Co103 1.941 . S
O128 C135 1.266 . S
H129 C131 0.959 . S
H130 C131 0.961 . S
C131 C121 1.510 . S
C131 H129 0.959 . S
C131 H130 0.961 . S
C131 H132 0.960 . S
H132 C131 0.960 . S
H133 N113 0.862 . S
O134 Co102 1.920 . S
O134 C107 1.289 . S
C135 O127 1.258 . S
C135 O128 1.266 . S
Co136 O139 1.970 . S
Co136 N153 1.989 . S
Co136 O161 1.967 . S
Co136 O168 1.920 . S
Co137 O140 1.966 . S
Co137 N146 2.022 . S
Co137 N154 1.993 . S
Co137 O162 1.941 . S
C138 O139 1.258 . S
C138 O140 1.263 . S
O139 Co136 1.970 . S
O139 C138 1.258 . S
O140 Co137 1.966 . S
O140 C138 1.263 . S
C141 O142 1.235 . S
C141 O168 1.289 . S
O142 C141 1.235 . S
C143 C145 1.400 . S
C143 N146 1.351 . S
C143 C148 1.501 . S
C144 C145 1.387 . S
C144 N147 1.341 . S
C145 C143 1.400 . S
C145 C144 1.387 . S
N146 Co137 2.022 . S
N146 C143 1.351 . S
N146 N147 1.365 . S
N147 C144 1.341 . S
N147 N146 1.365 . S
N147 H167 0.862 . S
C148 C143 1.501 . S
C148 H149 0.961 . S
C148 H150 0.961 . S
C148 H151 0.960 . S
H149 C148 0.961 . S
H150 C148 0.961 . S
H151 C148 0.960 . S
C152 N153 1.342 1_545 S
C152 C156 1.401 . S
C152 C157 1.499 . S
N153 Co136 1.989 . S
N153 C152 1.342 1_565 S
N153 N154 1.388 . S
N154 Co137 1.993 . S
N154 N153 1.388 . S
N154 C155 1.346 1_565 S
C155 N154 1.346 1_545 S
C155 C156 1.396 . S
C155 C165 1.510 . S
C156 C152 1.401 . S
C156 C155 1.396 . S
C157 C152 1.499 . S
C157 H158 0.959 . S
C157 H159 0.960 . S
C157 H160 0.961 . S
H158 C157 0.959 . S
H159 C157 0.960 . S
H160 C157 0.961 . S
O161 Co136 1.967 . S
O161 C169 1.258 . S
O162 Co137 1.941 . S
O162 C169 1.266 . S
H163 C165 0.959 . S
H164 C165 0.961 . S
C165 C155 1.510 . S
C165 H163 0.959 . S
C165 H164 0.961 . S
C165 H166 0.960 . S
H166 C165 0.960 . S
H167 N147 0.862 . S
O168 Co136 1.920 . S
O168 C141 1.289 . S
C169 O161 1.258 . S
C169 O162 1.266 . S
Co170 O173 1.970 . S
Co170 N187 1.989 . S
Co170 O195 1.967 . S
Co170 O202 1.920 . S
Co171 O174 1.966 . S
Co171 N180 2.022 . S
Co171 N188 1.993 . S
Co171 O196 1.941 . S
C172 O173 1.258 . S
C172 O174 1.263 . S
O173 Co170 1.970 . S
O173 C172 1.258 . S
O174 Co171 1.966 . S
O174 C172 1.263 . S
C175 O176 1.235 . S
C175 O202 1.289 . S
O176 C175 1.235 . S
C177 C179 1.400 . S
C177 N180 1.351 . S
C177 C182 1.501 . S
C178 C179 1.387 . S
C178 N181 1.341 . S
C179 C177 1.400 . S
C179 C178 1.387 . S
N180 Co171 2.022 . S
N180 C177 1.351 . S
N180 N181 1.365 . S
N181 C178 1.341 . S
N181 N180 1.365 . S
N181 H201 0.862 . S
C182 C177 1.501 . S
C182 H183 0.961 . S
C182 H184 0.961 . S
C182 H185 0.960 . S
H183 C182 0.961 . S
H184 C182 0.961 . S
H185 C182 0.960 . S
C186 N187 1.342 . S
C186 C190 1.401 . S
C186 C191 1.499 . S
N187 Co170 1.989 . S
N187 C186 1.342 . S
N187 N188 1.388 . S
N188 Co171 1.993 . S
N188 N187 1.388 . S
N188 C189 1.346 . S
C189 N188 1.346 . S
C189 C190 1.396 . S
C189 C199 1.510 . S
C190 C186 1.401 . S
C190 C189 1.396 . S
C191 C186 1.499 . S
C191 H192 0.959 . S
C191 H193 0.960 . S
C191 H194 0.961 . S
H192 C191 0.959 . S
H193 C191 0.960 . S
H194 C191 0.961 . S
O195 Co170 1.967 . S
O195 C203 1.258 . S
O196 Co171 1.941 . S
O196 C203 1.266 . S
H197 C199 0.959 . S
H198 C199 0.961 . S
C199 C189 1.510 . S
C199 H197 0.959 . S
C199 H198 0.961 . S
C199 H200 0.960 . S
H200 C199 0.960 . S
H201 N181 0.862 . S
O202 Co170 1.920 . S
O202 C175 1.289 . S
C203 O195 1.258 . S
C203 O196 1.266 . S
Co204 O207 1.970 . S
Co204 N221 1.989 . S
Co204 O229 1.967 . S
Co204 O236 1.920 . S
Co205 O208 1.966 . S
Co205 N214 2.022 . S
Co205 N222 1.993 . S
Co205 O230 1.941 . S
C206 O207 1.258 . S
C206 O208 1.263 . S
O207 Co204 1.970 . S
O207 C206 1.258 . S
O208 Co205 1.966 . S
O208 C206 1.263 . S
C209 O210 1.235 . S
C209 O236 1.289 . S
O210 C209 1.235 . S
C211 C213 1.400 . S
C211 N214 1.351 . S
C211 C216 1.501 . S
C212 C213 1.387 . S
C212 N215 1.341 . S
C213 C211 1.400 . S
C213 C212 1.387 . S
N214 Co205 2.022 . S
N214 C211 1.351 . S
N214 N215 1.365 . S
N215 C212 1.341 . S
N215 N214 1.365 . S
N215 H235 0.862 . S
C216 C211 1.501 . S
C216 H217 0.961 . S
C216 H218 0.961 . S
C216 H219 0.960 . S
H217 C216 0.961 . S
H218 C216 0.961 . S
H219 C216 0.960 . S
C220 N221 1.342 1_565 S
C220 C224 1.401 . S
C220 C225 1.499 . S
N221 Co204 1.989 . S
N221 C220 1.342 1_545 S
N221 N222 1.388 . S
N222 Co205 1.993 . S
N222 N221 1.388 . S
N222 C223 1.346 1_545 S
C223 N222 1.346 1_565 S
C223 C224 1.396 . S
C223 C233 1.510 . S
C224 C220 1.401 . S
C224 C223 1.396 . S
C225 C220 1.499 . S
C225 H226 0.959 . S
C225 H227 0.960 . S
C225 H228 0.961 . S
H226 C225 0.959 . S
H227 C225 0.960 . S
H228 C225 0.961 . S
O229 Co204 1.967 . S
O229 C237 1.258 . S
O230 Co205 1.941 . S
O230 C237 1.266 . S
H231 C233 0.959 . S
H232 C233 0.961 . S
C233 C223 1.510 . S
C233 H231 0.959 . S
C233 H232 0.961 . S
C233 H234 0.960 . S
H234 C233 0.960 . S
H235 N215 0.862 . S
O236 Co204 1.920 . S
O236 C209 1.289 . S
C237 O229 1.258 . S
C237 O230 1.266 . S
Co238 O241 1.970 . S
Co238 N255 1.989 . S
Co238 O263 1.967 . S
Co238 O270 1.920 . S
Co239 O242 1.966 . S
Co239 N248 2.022 . S
Co239 N256 1.993 . S
Co239 O264 1.941 . S
C240 O241 1.258 . S
C240 O242 1.263 . S
O241 Co238 1.970 . S
O241 C240 1.258 . S
O242 Co239 1.966 . S
O242 C240 1.263 . S
C243 O244 1.235 . S
C243 O270 1.289 . S
O244 C243 1.235 . S
C245 C247 1.400 . S
C245 N248 1.351 . S
C245 C250 1.501 . S
C246 C247 1.387 . S
C246 N249 1.341 . S
C247 C245 1.400 . S
C247 C246 1.387 . S
N248 Co239 2.022 . S
N248 C245 1.351 . S
N248 N249 1.365 . S
N249 C246 1.341 . S
N249 N248 1.365 . S
N249 H269 0.862 . S
C250 C245 1.501 . S
C250 H251 0.961 . S
C250 H252 0.961 . S
C250 H253 0.960 . S
H251 C250 0.961 . S
H252 C250 0.961 . S
H253 C250 0.960 . S
C254 N255 1.342 . S
C254 C258 1.401 . S
C254 C259 1.499 . S
N255 Co238 1.989 . S
N255 C254 1.342 . S
N255 N256 1.388 . S
N256 Co239 1.993 . S
N256 N255 1.388 . S
N256 C257 1.346 . S
C257 N256 1.346 . S
C257 C258 1.396 . S
C257 C267 1.510 . S
C258 C254 1.401 . S
C258 C257 1.396 . S
C259 C254 1.499 . S
C259 H260 0.959 . S
C259 H261 0.960 . S
C259 H262 0.961 . S
H260 C259 0.959 . S
H261 C259 0.960 . S
H262 C259 0.961 . S
O263 Co238 1.967 . S
O263 C271 1.258 . S
O264 Co239 1.941 . S
O264 C271 1.266 . S
H265 C267 0.959 . S
H266 C267 0.961 . S
C267 C257 1.510 . S
C267 H265 0.959 . S
C267 H266 0.961 . S
C267 H268 0.960 . S
H268 C267 0.960 . S
H269 N249 0.862 . S
O270 Co238 1.920 . S
O270 C243 1.289 . S
C271 O263 1.258 . S
C271 O264 1.266 . S
Co272 O275 1.970 . S
Co272 N289 1.989 . S
Co272 O297 1.967 . S
Co272 O304 1.920 . S
Co273 O276 1.966 . S
Co273 N282 2.022 . S
Co273 N290 1.993 . S
Co273 O298 1.941 . S
C274 O275 1.258 . S
C274 O276 1.263 . S
O275 Co272 1.970 . S
O275 C274 1.258 . S
O276 Co273 1.966 . S
O276 C274 1.263 . S
C277 O278 1.235 . S
C277 O304 1.289 . S
O278 C277 1.235 . S
C279 C281 1.400 . S
C279 N282 1.351 . S
C279 C284 1.501 . S
C280 C281 1.387 . S
C280 N283 1.341 . S
C281 C279 1.400 . S
C281 C280 1.387 . S
N282 Co273 2.022 . S
N282 C279 1.351 . S
N282 N283 1.365 . S
N283 C280 1.341 . S
N283 N282 1.365 . S
N283 H303 0.862 . S
C284 C279 1.501 . S
C284 H285 0.961 . S
C284 H286 0.961 . S
C284 H287 0.960 . S
H285 C284 0.961 . S
H286 C284 0.961 . S
H287 C284 0.960 . S
C288 N289 1.342 1_545 S
C288 C292 1.401 . S
C288 C293 1.499 . S
N289 Co272 1.989 . S
N289 C288 1.342 1_565 S
N289 N290 1.388 . S
N290 Co273 1.993 . S
N290 N289 1.388 . S
N290 C291 1.346 1_565 S
C291 N290 1.346 1_545 S
C291 C292 1.396 . S
C291 C301 1.510 . S
C292 C288 1.401 . S
C292 C291 1.396 . S
C293 C288 1.499 . S
C293 H294 0.959 . S
C293 H295 0.960 . S
C293 H296 0.961 . S
H294 C293 0.959 . S
H295 C293 0.960 . S
H296 C293 0.961 . S
O297 Co272 1.967 . S
O297 C305 1.258 . S
O298 Co273 1.941 . S
O298 C305 1.266 . S
H299 C301 0.959 . S
H300 C301 0.961 . S
C301 C291 1.510 . S
C301 H299 0.959 . S
C301 H300 0.961 . S
C301 H302 0.960 . S
H302 C301 0.960 . S
H303 N283 0.862 . S
O304 Co272 1.920 . S
O304 C277 1.289 . S
C305 O297 1.258 . S
C305 O298 1.266 . S
Co306 O309 1.970 . S
Co306 N323 1.989 . S
Co306 O331 1.967 . S
Co306 O338 1.920 . S
Co307 O310 1.966 . S
Co307 N316 2.022 . S
Co307 N324 1.993 . S
Co307 O332 1.941 . S
C308 O309 1.258 . S
C308 O310 1.263 . S
O309 Co306 1.970 . S
O309 C308 1.258 . S
O310 Co307 1.966 . S
O310 C308 1.263 . S
C311 O312 1.235 . S
C311 O338 1.289 . S
O312 C311 1.235 . S
C313 C315 1.400 . S
C313 N316 1.351 . S
C313 C318 1.501 . S
C314 C315 1.387 . S
C314 N317 1.341 . S
C315 C313 1.400 . S
C315 C314 1.387 . S
N316 Co307 2.022 . S
N316 C313 1.351 . S
N316 N317 1.365 . S
N317 C314 1.341 . S
N317 N316 1.365 . S
N317 H337 0.862 . S
C318 C313 1.501 . S
C318 H319 0.961 . S
C318 H320 0.961 . S
C318 H321 0.960 . S
H319 C318 0.961 . S
H320 C318 0.961 . S
H321 C318 0.960 . S
C322 N323 1.342 . S
C322 C326 1.401 . S
C322 C327 1.499 . S
N323 Co306 1.989 . S
N323 C322 1.342 . S
N323 N324 1.388 . S
N324 Co307 1.993 . S
N324 N323 1.388 . S
N324 C325 1.346 . S
C325 N324 1.346 . S
C325 C326 1.396 . S
C325 C335 1.510 . S
C326 C322 1.401 . S
C326 C325 1.396 . S
C327 C322 1.499 . S
C327 H328 0.959 . S
C327 H329 0.960 . S
C327 H330 0.961 . S
H328 C327 0.959 . S
H329 C327 0.960 . S
H330 C327 0.961 . S
O331 Co306 1.967 . S
O331 C339 1.258 . S
O332 Co307 1.941 . S
O332 C339 1.266 . S
H333 C335 0.959 . S
H334 C335 0.961 . S
C335 C325 1.510 . S
C335 H333 0.959 . S
C335 H334 0.961 . S
C335 H336 0.960 . S
H336 C335 0.960 . S
H337 N317 0.862 . S
O338 Co306 1.920 . S
O338 C311 1.289 . S
C339 O331 1.258 . S
C339 O332 1.266 . S
Co340 O343 1.970 . S
Co340 N357 1.989 . S
Co340 O365 1.967 . S
Co340 O372 1.920 . S
Co341 O344 1.966 . S
Co341 N350 2.022 . S
Co341 N358 1.993 . S
Co341 O366 1.941 . S
C342 O343 1.258 . S
C342 O344 1.263 . S
O343 Co340 1.970 . S
O343 C342 1.258 . S
O344 Co341 1.966 . S
O344 C342 1.263 . S
C345 O346 1.235 . S
C345 O372 1.289 . S
O346 C345 1.235 . S
C347 C349 1.400 . S
C347 N350 1.351 . S
C347 C352 1.501 . S
C348 C349 1.387 . S
C348 N351 1.341 . S
C349 C347 1.400 . S
C349 C348 1.387 . S
N350 Co341 2.022 . S
N350 C347 1.351 . S
N350 N351 1.365 . S
N351 C348 1.341 . S
N351 N350 1.365 . S
N351 H371 0.862 . S
C352 C347 1.501 . S
C352 H353 0.961 . S
C352 H354 0.961 . S
C352 H355 0.960 . S
H353 C352 0.961 . S
H354 C352 0.961 . S
H355 C352 0.960 . S
C356 N357 1.342 1_565 S
C356 C360 1.401 . S
C356 C361 1.499 . S
N357 Co340 1.989 . S
N357 C356 1.342 1_545 S
N357 N358 1.388 . S
N358 Co341 1.993 . S
N358 N357 1.388 . S
N358 C359 1.346 1_545 S
C359 N358 1.346 1_565 S
C359 C360 1.396 . S
C359 C369 1.510 . S
C360 C356 1.401 . S
C360 C359 1.396 . S
C361 C356 1.499 . S
C361 H362 0.959 . S
C361 H363 0.960 . S
C361 H364 0.961 . S
H362 C361 0.959 . S
H363 C361 0.960 . S
H364 C361 0.961 . S
O365 Co340 1.967 . S
O365 C373 1.258 . S
O366 Co341 1.941 . S
O366 C373 1.266 . S
H367 C369 0.959 . S
H368 C369 0.961 . S
C369 C359 1.510 . S
C369 H367 0.959 . S
C369 H368 0.961 . S
C369 H370 0.960 . S
H370 C369 0.960 . S
H371 N351 0.862 . S
O372 Co340 1.920 . S
O372 C345 1.289 . S
C373 O365 1.258 . S
C373 O366 1.266 . S
Co374 O377 1.970 . S
Co374 N391 1.989 . S
Co374 O399 1.967 . S
Co374 O406 1.920 . S
Co375 O378 1.966 . S
Co375 N384 2.022 . S
Co375 N392 1.993 . S
Co375 O400 1.941 . S
C376 O377 1.258 . S
C376 O378 1.263 . S
O377 Co374 1.970 . S
O377 C376 1.258 . S
O378 Co375 1.966 . S
O378 C376 1.263 . S
C379 O380 1.235 . S
C379 O406 1.289 . S
O380 C379 1.235 . S
C381 C383 1.400 . S
C381 N384 1.351 . S
C381 C386 1.501 . S
C382 C383 1.387 . S
C382 N385 1.341 . S
C383 C381 1.400 . S
C383 C382 1.387 . S
N384 Co375 2.022 . S
N384 C381 1.351 . S
N384 N385 1.365 . S
N385 C382 1.341 . S
N385 N384 1.365 . S
N385 H405 0.862 . S
C386 C381 1.501 . S
C386 H387 0.961 . S
C386 H388 0.961 . S
C386 H389 0.960 . S
H387 C386 0.961 . S
H388 C386 0.961 . S
H389 C386 0.960 . S
C390 N391 1.342 . S
C390 C394 1.401 . S
C390 C395 1.499 . S
N391 Co374 1.989 . S
N391 C390 1.342 . S
N391 N392 1.388 . S
N392 Co375 1.993 . S
N392 N391 1.388 . S
N392 C393 1.346 . S
C393 N392 1.346 . S
C393 C394 1.396 . S
C393 C403 1.510 . S
C394 C390 1.401 . S
C394 C393 1.396 . S
C395 C390 1.499 . S
C395 H396 0.959 . S
C395 H397 0.960 . S
C395 H398 0.961 . S
H396 C395 0.959 . S
H397 C395 0.960 . S
H398 C395 0.961 . S
O399 Co374 1.967 . S
O399 C407 1.258 . S
O400 Co375 1.941 . S
O400 C407 1.266 . S
H401 C403 0.959 . S
H402 C403 0.961 . S
C403 C393 1.510 . S
C403 H401 0.959 . S
C403 H402 0.961 . S
C403 H404 0.960 . S
H404 C403 0.960 . S
H405 N385 0.862 . S
O406 Co374 1.920 . S
O406 C379 1.289 . S
C407 O399 1.258 . S
C407 O400 1.266 . S
Co408 O411 1.970 . S
Co408 N425 1.989 . S
Co408 O433 1.967 . S
Co408 O440 1.920 . S
Co409 O412 1.966 . S
Co409 N418 2.022 . S
Co409 N426 1.993 . S
Co409 O434 1.941 . S
C410 O411 1.258 . S
C410 O412 1.263 . S
O411 Co408 1.970 . S
O411 C410 1.258 . S
O412 Co409 1.966 . S
O412 C410 1.263 . S
C413 O414 1.235 . S
C413 O440 1.289 . S
O414 C413 1.235 . S
C415 C417 1.400 . S
C415 N418 1.351 . S
C415 C420 1.501 . S
C416 C417 1.387 . S
C416 N419 1.341 . S
C417 C415 1.400 . S
C417 C416 1.387 . S
N418 Co409 2.022 . S
N418 C415 1.351 . S
N418 N419 1.365 . S
N419 C416 1.341 . S
N419 N418 1.365 . S
N419 H439 0.862 . S
C420 C415 1.501 . S
C420 H421 0.961 . S
C420 H422 0.961 . S
C420 H423 0.960 . S
H421 C420 0.961 . S
H422 C420 0.961 . S
H423 C420 0.960 . S
C424 N425 1.342 1_565 S
C424 C428 1.401 . S
C424 C429 1.499 . S
N425 Co408 1.989 . S
N425 C424 1.342 1_545 S
N425 N426 1.388 . S
N426 Co409 1.993 . S
N426 N425 1.388 . S
N426 C427 1.346 1_545 S
C427 N426 1.346 1_565 S
C427 C428 1.396 . S
C427 C437 1.510 . S
C428 C424 1.401 . S
C428 C427 1.396 . S
C429 C424 1.499 . S
C429 H430 0.959 . S
C429 H431 0.960 . S
C429 H432 0.961 . S
H430 C429 0.959 . S
H431 C429 0.960 . S
H432 C429 0.961 . S
O433 Co408 1.967 . S
O433 C441 1.258 . S
O434 Co409 1.941 . S
O434 C441 1.266 . S
H435 C437 0.959 . S
H436 C437 0.961 . S
C437 C427 1.510 . S
C437 H435 0.959 . S
C437 H436 0.961 . S
C437 H438 0.960 . S
H438 C437 0.960 . S
H439 N419 0.862 . S
O440 Co408 1.920 . S
O440 C413 1.289 . S
C441 O433 1.258 . S
C441 O434 1.266 . S
Co442 O445 1.970 . S
Co442 N459 1.989 . S
Co442 O467 1.967 . S
Co442 O474 1.920 . S
Co443 O446 1.966 . S
Co443 N452 2.022 . S
Co443 N460 1.993 . S
Co443 O468 1.941 . S
C444 O445 1.258 . S
C444 O446 1.263 . S
O445 Co442 1.970 . S
O445 C444 1.258 . S
O446 Co443 1.966 . S
O446 C444 1.263 . S
C447 O448 1.235 . S
C447 O474 1.289 . S
O448 C447 1.235 . S
C449 C451 1.400 . S
C449 N452 1.351 . S
C449 C454 1.501 . S
C450 C451 1.387 . S
C450 N453 1.341 . S
C451 C449 1.400 . S
C451 C450 1.387 . S
N452 Co443 2.022 . S
N452 C449 1.351 . S
N452 N453 1.365 . S
N453 C450 1.341 . S
N453 N452 1.365 . S
N453 H473 0.862 . S
C454 C449 1.501 . S
C454 H455 0.961 . S
C454 H456 0.961 . S
C454 H457 0.960 . S
H455 C454 0.961 . S
H456 C454 0.961 . S
H457 C454 0.960 . S
C458 N459 1.342 . S
C458 C462 1.401 . S
C458 C463 1.499 . S
N459 Co442 1.989 . S
N459 C458 1.342 . S
N459 N460 1.388 . S
N460 Co443 1.993 . S
N460 N459 1.388 . S
N460 C461 1.346 . S
C461 N460 1.346 . S
C461 C462 1.396 . S
C461 C471 1.510 . S
C462 C458 1.401 . S
C462 C461 1.396 . S
C463 C458 1.499 . S
C463 H464 0.959 . S
C463 H465 0.960 . S
C463 H466 0.961 . S
H464 C463 0.959 . S
H465 C463 0.960 . S
H466 C463 0.961 . S
O467 Co442 1.967 . S
O467 C475 1.258 . S
O468 Co443 1.941 . S
O468 C475 1.266 . S
H469 C471 0.959 . S
H470 C471 0.961 . S
C471 C461 1.510 . S
C471 H469 0.959 . S
C471 H470 0.961 . S
C471 H472 0.960 . S
H472 C471 0.960 . S
H473 N453 0.862 . S
O474 Co442 1.920 . S
O474 C447 1.289 . S
C475 O467 1.258 . S
C475 O468 1.266 . S
Co476 O479 1.970 . S
Co476 N493 1.989 . S
Co476 O501 1.967 . S
Co476 O508 1.920 . S
Co477 O480 1.966 . S
Co477 N486 2.022 . S
Co477 N494 1.993 . S
Co477 O502 1.941 . S
C478 O479 1.258 . S
C478 O480 1.263 . S
O479 Co476 1.970 . S
O479 C478 1.258 . S
O480 Co477 1.966 . S
O480 C478 1.263 . S
C481 O482 1.235 . S
C481 O508 1.289 . S
O482 C481 1.235 . S
C483 C485 1.400 . S
C483 N486 1.351 . S
C483 C488 1.501 . S
C484 C485 1.387 . S
C484 N487 1.341 . S
C485 C483 1.400 . S
C485 C484 1.387 . S
N486 Co477 2.022 . S
N486 C483 1.351 . S
N486 N487 1.365 . S
N487 C484 1.341 . S
N487 N486 1.365 . S
N487 H507 0.862 . S
C488 C483 1.501 . S
C488 H489 0.961 . S
C488 H490 0.961 . S
C488 H491 0.960 . S
H489 C488 0.961 . S
H490 C488 0.961 . S
H491 C488 0.960 . S
C492 N493 1.342 1_545 S
C492 C496 1.401 . S
C492 C497 1.499 . S
N493 Co476 1.989 . S
N493 C492 1.342 1_565 S
N493 N494 1.388 . S
N494 Co477 1.993 . S
N494 N493 1.388 . S
N494 C495 1.346 1_565 S
C495 N494 1.346 1_545 S
C495 C496 1.396 . S
C495 C505 1.510 . S
C496 C492 1.401 . S
C496 C495 1.396 . S
C497 C492 1.499 . S
C497 H498 0.959 . S
C497 H499 0.960 . S
C497 H500 0.961 . S
H498 C497 0.959 . S
H499 C497 0.960 . S
H500 C497 0.961 . S
O501 Co476 1.967 . S
O501 C509 1.258 . S
O502 Co477 1.941 . S
O502 C509 1.266 . S
H503 C505 0.959 . S
H504 C505 0.961 . S
C505 C495 1.510 . S
C505 H503 0.959 . S
C505 H504 0.961 . S
C505 H506 0.960 . S
H506 C505 0.960 . S
H507 N487 0.862 . S
O508 Co476 1.920 . S
O508 C481 1.289 . S
C509 O501 1.258 . S
C509 O502 1.266 . S
Co510 O513 1.970 . S
Co510 N527 1.989 . S
Co510 O535 1.967 . S
Co510 O542 1.920 . S
Co511 O514 1.966 . S
Co511 N520 2.022 . S
Co511 N528 1.993 . S
Co511 O536 1.941 . S
C512 O513 1.258 . S
C512 O514 1.263 . S
O513 Co510 1.970 . S
O513 C512 1.258 . S
O514 Co511 1.966 . S
O514 C512 1.263 . S
C515 O516 1.235 . S
C515 O542 1.289 . S
O516 C515 1.235 . S
C517 C519 1.400 . S
C517 N520 1.351 . S
C517 C522 1.501 . S
C518 C519 1.387 . S
C518 N521 1.341 . S
C519 C517 1.400 . S
C519 C518 1.387 . S
N520 Co511 2.022 . S
N520 C517 1.351 . S
N520 N521 1.365 . S
N521 C518 1.341 . S
N521 N520 1.365 . S
N521 H541 0.862 . S
C522 C517 1.501 . S
C522 H523 0.961 . S
C522 H524 0.961 . S
C522 H525 0.960 . S
H523 C522 0.961 . S
H524 C522 0.961 . S
H525 C522 0.960 . S
C526 N527 1.342 . S
C526 C530 1.401 . S
C526 C531 1.499 . S
N527 Co510 1.989 . S
N527 C526 1.342 . S
N527 N528 1.388 . S
N528 Co511 1.993 . S
N528 N527 1.388 . S
N528 C529 1.346 . S
C529 N528 1.346 . S
C529 C530 1.396 . S
C529 C539 1.510 . S
C530 C526 1.401 . S
C530 C529 1.396 . S
C531 C526 1.499 . S
C531 H532 0.959 . S
C531 H533 0.960 . S
C531 H534 0.961 . S
H532 C531 0.959 . S
H533 C531 0.960 . S
H534 C531 0.961 . S
O535 Co510 1.967 . S
O535 C543 1.258 . S
O536 Co511 1.941 . S
O536 C543 1.266 . S
H537 C539 0.959 . S
H538 C539 0.961 . S
C539 C529 1.510 . S
C539 H537 0.959 . S
C539 H538 0.961 . S
C539 H540 0.960 . S
H540 C539 0.960 . S
H541 N521 0.862 . S
O542 Co510 1.920 . S
O542 C515 1.289 . S
C543 O535 1.258 . S
C543 O536 1.266 . S
Co544 O547 1.970 . S
Co544 N561 1.989 . S
Co544 O569 1.967 . S
Co544 O576 1.920 . S
Co545 O548 1.966 . S
Co545 N554 2.022 . S
Co545 N562 1.993 . S
Co545 O570 1.941 . S
C546 O547 1.258 . S
C546 O548 1.263 . S
O547 Co544 1.970 . S
O547 C546 1.258 . S
O548 Co545 1.966 . S
O548 C546 1.263 . S
C549 O550 1.235 . S
C549 O576 1.289 . S
O550 C549 1.235 . S
C551 C553 1.400 . S
C551 N554 1.351 . S
C551 C556 1.501 . S
C552 C553 1.387 . S
C552 N555 1.341 . S
C553 C551 1.400 . S
C553 C552 1.387 . S
N554 Co545 2.022 . S
N554 C551 1.351 . S
N554 N555 1.365 . S
N555 C552 1.341 . S
N555 N554 1.365 . S
N555 H575 0.862 . S
C556 C551 1.501 . S
C556 H557 0.961 . S
C556 H558 0.961 . S
C556 H559 0.960 . S
H557 C556 0.961 . S
H558 C556 0.961 . S
H559 C556 0.960 . S
C560 N561 1.342 . S
C560 C564 1.401 . S
C560 C565 1.499 . S
N561 Co544 1.989 . S
N561 C560 1.342 . S
N561 N562 1.388 . S
N562 Co545 1.993 . S
N562 N561 1.388 . S
N562 C563 1.346 . S
C563 N562 1.346 . S
C563 C564 1.396 . S
C563 C573 1.510 . S
C564 C560 1.401 . S
C564 C563 1.396 . S
C565 C560 1.499 . S
C565 H566 0.959 . S
C565 H567 0.960 . S
C565 H568 0.961 . S
H566 C565 0.959 . S
H567 C565 0.960 . S
H568 C565 0.961 . S
O569 Co544 1.967 . S
O569 C577 1.258 . S
O570 Co545 1.941 . S
O570 C577 1.266 . S
H571 C573 0.959 . S
H572 C573 0.961 . S
C573 C563 1.510 . S
C573 H571 0.959 . S
C573 H572 0.961 . S
C573 H574 0.960 . S
H574 C573 0.960 . S
H575 N555 0.862 . S
O576 Co544 1.920 . S
O576 C549 1.289 . S
C577 O569 1.258 . S
C577 O570 1.266 . S
Co578 O581 1.970 . S
Co578 N595 1.989 . S
Co578 O603 1.967 . S
Co578 O610 1.920 . S
Co579 O582 1.966 . S
Co579 N588 2.022 . S
Co579 N596 1.993 . S
Co579 O604 1.941 . S
C580 O581 1.258 . S
C580 O582 1.263 . S
O581 Co578 1.970 . S
O581 C580 1.258 . S
O582 Co579 1.966 . S
O582 C580 1.263 . S
C583 O584 1.235 . S
C583 O610 1.289 . S
O584 C583 1.235 . S
C585 C587 1.400 . S
C585 N588 1.351 . S
C585 C590 1.501 . S
C586 C587 1.387 . S
C586 N589 1.341 . S
C587 C585 1.400 . S
C587 C586 1.387 . S
N588 Co579 2.022 . S
N588 C585 1.351 . S
N588 N589 1.365 . S
N589 C586 1.341 . S
N589 N588 1.365 . S
N589 H609 0.862 . S
C590 C585 1.501 . S
C590 H591 0.961 . S
C590 H592 0.961 . S
C590 H593 0.960 . S
H591 C590 0.961 . S
H592 C590 0.961 . S
H593 C590 0.960 . S
C594 N595 1.342 . S
C594 C598 1.401 . S
C594 C599 1.499 . S
N595 Co578 1.989 . S
N595 C594 1.342 . S
N595 N596 1.388 . S
N596 Co579 1.993 . S
N596 N595 1.388 . S
N596 C597 1.346 . S
C597 N596 1.346 . S
C597 C598 1.396 . S
C597 C607 1.510 . S
C598 C594 1.401 . S
C598 C597 1.396 . S
C599 C594 1.499 . S
C599 H600 0.959 . S
C599 H601 0.960 . S
C599 H602 0.961 . S
H600 C599 0.959 . S
H601 C599 0.960 . S
H602 C599 0.961 . S
O603 Co578 1.967 . S
O603 C611 1.258 . S
O604 Co579 1.941 . S
O604 C611 1.266 . S
H605 C607 0.959 . S
H606 C607 0.961 . S
C607 C597 1.510 . S
C607 H605 0.959 . S
C607 H606 0.961 . S
C607 H608 0.960 . S
H608 C607 0.960 . S
H609 N589 0.862 . S
O610 Co578 1.920 . S
O610 C583 1.289 . S
C611 O603 1.258 . S
C611 O604 1.266 . S
Co612 O615 1.970 . S
Co612 N629 1.989 . S
Co612 O637 1.967 . S
Co612 O644 1.920 . S
Co613 O616 1.966 . S
Co613 N622 2.022 . S
Co613 N630 1.993 . S
Co613 O638 1.941 . S
C614 O615 1.258 . S
C614 O616 1.263 . S
O615 Co612 1.970 . S
O615 C614 1.258 . S
O616 Co613 1.966 . S
O616 C614 1.263 . S
C617 O618 1.235 . S
C617 O644 1.289 . S
O618 C617 1.235 . S
C619 C621 1.400 . S
C619 N622 1.351 . S
C619 C624 1.501 . S
C620 C621 1.387 . S
C620 N623 1.341 . S
C621 C619 1.400 . S
C621 C620 1.387 . S
N622 Co613 2.022 . S
N622 C619 1.351 . S
N622 N623 1.365 . S
N623 C620 1.341 . S
N623 N622 1.365 . S
N623 H643 0.862 . S
C624 C619 1.501 . S
C624 H625 0.961 . S
C624 H626 0.961 . S
C624 H627 0.960 . S
H625 C624 0.961 . S
H626 C624 0.961 . S
H627 C624 0.960 . S
C628 N629 1.342 . S
C628 C632 1.401 . S
C628 C633 1.499 . S
N629 Co612 1.989 . S
N629 C628 1.342 . S
N629 N630 1.388 . S
N630 Co613 1.993 . S
N630 N629 1.388 . S
N630 C631 1.346 . S
C631 N630 1.346 . S
C631 C632 1.396 . S
C631 C641 1.510 . S
C632 C628 1.401 . S
C632 C631 1.396 . S
C633 C628 1.499 . S
C633 H634 0.959 . S
C633 H635 0.960 . S
C633 H636 0.961 . S
H634 C633 0.959 . S
H635 C633 0.960 . S
H636 C633 0.961 . S
O637 Co612 1.967 . S
O637 C645 1.258 . S
O638 Co613 1.941 . S
O638 C645 1.266 . S
H639 C641 0.959 . S
H640 C641 0.961 . S
C641 C631 1.510 . S
C641 H639 0.959 . S
C641 H640 0.961 . S
C641 H642 0.960 . S
H642 C641 0.960 . S
H643 N623 0.862 . S
O644 Co612 1.920 . S
O644 C617 1.289 . S
C645 O637 1.258 . S
C645 O638 1.266 . S
Co646 O649 1.970 . S
Co646 N663 1.989 . S
Co646 O671 1.967 . S
Co646 O678 1.920 . S
Co647 O650 1.966 . S
Co647 N656 2.022 . S
Co647 N664 1.993 . S
Co647 O672 1.941 . S
C648 O649 1.258 . S
C648 O650 1.263 . S
O649 Co646 1.970 . S
O649 C648 1.258 . S
O650 Co647 1.966 . S
O650 C648 1.263 . S
C651 O652 1.235 . S
C651 O678 1.289 . S
O652 C651 1.235 . S
C653 C655 1.400 . S
C653 N656 1.351 . S
C653 C658 1.501 . S
C654 C655 1.387 . S
C654 N657 1.341 . S
C655 C653 1.400 . S
C655 C654 1.387 . S
N656 Co647 2.022 . S
N656 C653 1.351 . S
N656 N657 1.365 . S
N657 C654 1.341 . S
N657 N656 1.365 . S
N657 H677 0.862 . S
C658 C653 1.501 . S
C658 H659 0.961 . S
C658 H660 0.961 . S
C658 H661 0.960 . S
H659 C658 0.961 . S
H660 C658 0.961 . S
H661 C658 0.960 . S
C662 N663 1.342 . S
C662 C666 1.401 . S
C662 C667 1.499 . S
N663 Co646 1.989 . S
N663 C662 1.342 . S
N663 N664 1.388 . S
N664 Co647 1.993 . S
N664 N663 1.388 . S
N664 C665 1.346 . S
C665 N664 1.346 . S
C665 C666 1.396 . S
C665 C675 1.510 . S
C666 C662 1.401 . S
C666 C665 1.396 . S
C667 C662 1.499 . S
C667 H668 0.959 . S
C667 H669 0.960 . S
C667 H670 0.961 . S
H668 C667 0.959 . S
H669 C667 0.960 . S
H670 C667 0.961 . S
O671 Co646 1.967 . S
O671 C679 1.258 . S
O672 Co647 1.941 . S
O672 C679 1.266 . S
H673 C675 0.959 . S
H674 C675 0.961 . S
C675 C665 1.510 . S
C675 H673 0.959 . S
C675 H674 0.961 . S
C675 H676 0.960 . S
H676 C675 0.960 . S
H677 N657 0.862 . S
O678 Co646 1.920 . S
O678 C651 1.289 . S
C679 O671 1.258 . S
C679 O672 1.266 . S
Co680 O683 1.970 . S
Co680 N697 1.989 . S
Co680 O705 1.967 . S
Co680 O712 1.920 . S
Co681 O684 1.966 . S
Co681 N690 2.022 . S
Co681 N698 1.993 . S
Co681 O706 1.941 . S
C682 O683 1.258 . S
C682 O684 1.263 . S
O683 Co680 1.970 . S
O683 C682 1.258 . S
O684 Co681 1.966 . S
O684 C682 1.263 . S
C685 O686 1.235 . S
C685 O712 1.289 . S
O686 C685 1.235 . S
C687 C689 1.400 . S
C687 N690 1.351 . S
C687 C692 1.501 . S
C688 C689 1.387 . S
C688 N691 1.341 . S
C689 C687 1.400 . S
C689 C688 1.387 . S
N690 Co681 2.022 . S
N690 C687 1.351 . S
N690 N691 1.365 . S
N691 C688 1.341 . S
N691 N690 1.365 . S
N691 H711 0.862 . S
C692 C687 1.501 . S
C692 H693 0.961 . S
C692 H694 0.961 . S
C692 H695 0.960 . S
H693 C692 0.961 . S
H694 C692 0.961 . S
H695 C692 0.960 . S
C696 N697 1.342 . S
C696 C700 1.401 . S
C696 C701 1.499 . S
N697 Co680 1.989 . S
N697 C696 1.342 . S
N697 N698 1.388 . S
N698 Co681 1.993 . S
N698 N697 1.388 . S
N698 C699 1.346 . S
C699 N698 1.346 . S
C699 C700 1.396 . S
C699 C709 1.510 . S
C700 C696 1.401 . S
C700 C699 1.396 . S
C701 C696 1.499 . S
C701 H702 0.959 . S
C701 H703 0.960 . S
C701 H704 0.961 . S
H702 C701 0.959 . S
H703 C701 0.960 . S
H704 C701 0.961 . S
O705 Co680 1.967 . S
O705 C713 1.258 . S
O706 Co681 1.941 . S
O706 C713 1.266 . S
H707 C709 0.959 . S
H708 C709 0.961 . S
C709 C699 1.510 . S
C709 H707 0.959 . S
C709 H708 0.961 . S
C709 H710 0.960 . S
H710 C709 0.960 . S
H711 N691 0.862 . S
O712 Co680 1.920 . S
O712 C685 1.289 . S
C713 O705 1.258 . S
C713 O706 1.266 . S
Co714 O717 1.970 . S
Co714 N731 1.989 . S
Co714 O739 1.967 . S
Co714 O746 1.920 . S
Co715 O718 1.966 . S
Co715 N724 2.022 . S
Co715 N732 1.993 . S
Co715 O740 1.941 . S
C716 O717 1.258 . S
C716 O718 1.263 . S
O717 Co714 1.970 . S
O717 C716 1.258 . S
O718 Co715 1.966 . S
O718 C716 1.263 . S
C719 O720 1.235 . S
C719 O746 1.289 . S
O720 C719 1.235 . S
C721 C723 1.400 . S
C721 N724 1.351 . S
C721 C726 1.501 . S
C722 C723 1.387 . S
C722 N725 1.341 . S
C723 C721 1.400 . S
C723 C722 1.387 . S
N724 Co715 2.022 . S
N724 C721 1.351 . S
N724 N725 1.365 . S
N725 C722 1.341 . S
N725 N724 1.365 . S
N725 H745 0.862 . S
C726 C721 1.501 . S
C726 H727 0.961 . S
C726 H728 0.961 . S
C726 H729 0.960 . S
H727 C726 0.961 . S
H728 C726 0.961 . S
H729 C726 0.960 . S
C730 N731 1.342 . S
C730 C734 1.401 . S
C730 C735 1.499 . S
N731 Co714 1.989 . S
N731 C730 1.342 . S
N731 N732 1.388 . S
N732 Co715 1.993 . S
N732 N731 1.388 . S
N732 C733 1.346 . S
C733 N732 1.346 . S
C733 C734 1.396 . S
C733 C743 1.510 . S
C734 C730 1.401 . S
C734 C733 1.396 . S
C735 C730 1.499 . S
C735 H736 0.959 . S
C735 H737 0.960 . S
C735 H738 0.961 . S
H736 C735 0.959 . S
H737 C735 0.960 . S
H738 C735 0.961 . S
O739 Co714 1.967 . S
O739 C747 1.258 . S
O740 Co715 1.941 . S
O740 C747 1.266 . S
H741 C743 0.959 . S
H742 C743 0.961 . S
C743 C733 1.510 . S
C743 H741 0.959 . S
C743 H742 0.961 . S
C743 H744 0.960 . S
H744 C743 0.960 . S
H745 N725 0.862 . S
O746 Co714 1.920 . S
O746 C719 1.289 . S
C747 O739 1.258 . S
C747 O740 1.266 . S
Co748 O751 1.970 . S
Co748 N765 1.989 . S
Co748 O773 1.967 . S
Co748 O780 1.920 . S
Co749 O752 1.966 . S
Co749 N758 2.022 . S
Co749 N766 1.993 . S
Co749 O774 1.941 . S
C750 O751 1.258 . S
C750 O752 1.263 . S
O751 Co748 1.970 . S
O751 C750 1.258 . S
O752 Co749 1.966 . S
O752 C750 1.263 . S
C753 O754 1.235 . S
C753 O780 1.289 . S
O754 C753 1.235 . S
C755 C757 1.400 . S
C755 N758 1.351 . S
C755 C760 1.501 . S
C756 C757 1.387 . S
C756 N759 1.341 . S
C757 C755 1.400 . S
C757 C756 1.387 . S
N758 Co749 2.022 . S
N758 C755 1.351 . S
N758 N759 1.365 . S
N759 C756 1.341 . S
N759 N758 1.365 . S
N759 H779 0.862 . S
C760 C755 1.501 . S
C760 H761 0.961 . S
C760 H762 0.961 . S
C760 H763 0.960 . S
H761 C760 0.961 . S
H762 C760 0.961 . S
H763 C760 0.960 . S
C764 N765 1.342 . S
C764 C768 1.401 . S
C764 C769 1.499 . S
N765 Co748 1.989 . S
N765 C764 1.342 . S
N765 N766 1.388 . S
N766 Co749 1.993 . S
N766 N765 1.388 . S
N766 C767 1.346 . S
C767 N766 1.346 . S
C767 C768 1.396 . S
C767 C777 1.510 . S
C768 C764 1.401 . S
C768 C767 1.396 . S
C769 C764 1.499 . S
C769 H770 0.959 . S
C769 H771 0.960 . S
C769 H772 0.961 . S
H770 C769 0.959 . S
H771 C769 0.960 . S
H772 C769 0.961 . S
O773 Co748 1.967 . S
O773 C781 1.258 . S
O774 Co749 1.941 . S
O774 C781 1.266 . S
H775 C777 0.959 . S
H776 C777 0.961 . S
C777 C767 1.510 . S
C777 H775 0.959 . S
C777 H776 0.961 . S
C777 H778 0.960 . S
H778 C777 0.960 . S
H779 N759 0.862 . S
O780 Co748 1.920 . S
O780 C753 1.289 . S
C781 O773 1.258 . S
C781 O774 1.266 . S
Co782 O785 1.970 . S
Co782 N799 1.989 . S
Co782 O807 1.967 . S
Co782 O814 1.920 . S
Co783 O786 1.966 . S
Co783 N792 2.022 . S
Co783 N800 1.993 . S
Co783 O808 1.941 . S
C784 O785 1.258 . S
C784 O786 1.263 . S
O785 Co782 1.970 . S
O785 C784 1.258 . S
O786 Co783 1.966 . S
O786 C784 1.263 . S
C787 O788 1.235 . S
C787 O814 1.289 . S
O788 C787 1.235 . S
C789 C791 1.400 . S
C789 N792 1.351 . S
C789 C794 1.501 . S
C790 C791 1.387 . S
C790 N793 1.341 . S
C791 C789 1.400 . S
C791 C790 1.387 . S
N792 Co783 2.022 . S
N792 C789 1.351 . S
N792 N793 1.365 . S
N793 C790 1.341 . S
N793 N792 1.365 . S
N793 H813 0.862 . S
C794 C789 1.501 . S
C794 H795 0.961 . S
C794 H796 0.961 . S
C794 H797 0.960 . S
H795 C794 0.961 . S
H796 C794 0.961 . S
H797 C794 0.960 . S
C798 N799 1.342 . S
C798 C802 1.401 . S
C798 C803 1.499 . S
N799 Co782 1.989 . S
N799 C798 1.342 . S
N799 N800 1.388 . S
N800 Co783 1.993 . S
N800 N799 1.388 . S
N800 C801 1.346 . S
C801 N800 1.346 . S
C801 C802 1.396 . S
C801 C811 1.510 . S
C802 C798 1.401 . S
C802 C801 1.396 . S
C803 C798 1.499 . S
C803 H804 0.959 . S
C803 H805 0.960 . S
C803 H806 0.961 . S
H804 C803 0.959 . S
H805 C803 0.960 . S
H806 C803 0.961 . S
O807 Co782 1.967 . S
O807 C815 1.258 . S
O808 Co783 1.941 . S
O808 C815 1.266 . S
H809 C811 0.959 . S
H810 C811 0.961 . S
C811 C801 1.510 . S
C811 H809 0.959 . S
C811 H810 0.961 . S
C811 H812 0.960 . S
H812 C811 0.960 . S
H813 N793 0.862 . S
O814 Co782 1.920 . S
O814 C787 1.289 . S
C815 O807 1.258 . S
C815 O808 1.266 . S
Co816 O819 1.970 . S
Co816 N833 1.989 . S
Co816 O841 1.967 . S
Co816 O848 1.920 . S
Co817 O820 1.966 . S
Co817 N826 2.022 . S
Co817 N834 1.993 . S
Co817 O842 1.941 . S
C818 O819 1.258 . S
C818 O820 1.263 . S
O819 Co816 1.970 . S
O819 C818 1.258 . S
O820 Co817 1.966 . S
O820 C818 1.263 . S
C821 O822 1.235 . S
C821 O848 1.289 . S
O822 C821 1.235 . S
C823 C825 1.400 . S
C823 N826 1.351 . S
C823 C828 1.501 . S
C824 C825 1.387 . S
C824 N827 1.341 . S
C825 C823 1.400 . S
C825 C824 1.387 . S
N826 Co817 2.022 . S
N826 C823 1.351 . S
N826 N827 1.365 . S
N827 C824 1.341 . S
N827 N826 1.365 . S
N827 H847 0.862 . S
C828 C823 1.501 . S
C828 H829 0.961 . S
C828 H830 0.961 . S
C828 H831 0.960 . S
H829 C828 0.961 . S
H830 C828 0.961 . S
H831 C828 0.960 . S
C832 N833 1.342 . S
C832 C836 1.401 . S
C832 C837 1.499 . S
N833 Co816 1.989 . S
N833 C832 1.342 . S
N833 N834 1.388 . S
N834 Co817 1.993 . S
N834 N833 1.388 . S
N834 C835 1.346 . S
C835 N834 1.346 . S
C835 C836 1.396 . S
C835 C845 1.510 . S
C836 C832 1.401 . S
C836 C835 1.396 . S
C837 C832 1.499 . S
C837 H838 0.959 . S
C837 H839 0.960 . S
C837 H840 0.961 . S
H838 C837 0.959 . S
H839 C837 0.960 . S
H840 C837 0.961 . S
O841 Co816 1.967 . S
O841 C849 1.258 . S
O842 Co817 1.941 . S
O842 C849 1.266 . S
H843 C845 0.959 . S
H844 C845 0.961 . S
C845 C835 1.510 . S
C845 H843 0.959 . S
C845 H844 0.961 . S
C845 H846 0.960 . S
H846 C845 0.960 . S
H847 N827 0.862 . S
O848 Co816 1.920 . S
O848 C821 1.289 . S
C849 O841 1.258 . S
C849 O842 1.266 . S
Co850 O853 1.970 . S
Co850 N867 1.989 . S
Co850 O875 1.967 . S
Co850 O882 1.920 . S
Co851 O854 1.966 . S
Co851 N860 2.022 . S
Co851 N868 1.993 . S
Co851 O876 1.941 . S
C852 O853 1.258 . S
C852 O854 1.263 . S
O853 Co850 1.970 . S
O853 C852 1.258 . S
O854 Co851 1.966 . S
O854 C852 1.263 . S
C855 O856 1.235 . S
C855 O882 1.289 . S
O856 C855 1.235 . S
C857 C859 1.400 . S
C857 N860 1.351 . S
C857 C862 1.501 . S
C858 C859 1.387 . S
C858 N861 1.341 . S
C859 C857 1.400 . S
C859 C858 1.387 . S
N860 Co851 2.022 . S
N860 C857 1.351 . S
N860 N861 1.365 . S
N861 C858 1.341 . S
N861 N860 1.365 . S
N861 H881 0.862 . S
C862 C857 1.501 . S
C862 H863 0.961 . S
C862 H864 0.961 . S
C862 H865 0.960 . S
H863 C862 0.961 . S
H864 C862 0.961 . S
H865 C862 0.960 . S
C866 N867 1.342 . S
C866 C870 1.401 . S
C866 C871 1.499 . S
N867 Co850 1.989 . S
N867 C866 1.342 . S
N867 N868 1.388 . S
N868 Co851 1.993 . S
N868 N867 1.388 . S
N868 C869 1.346 . S
C869 N868 1.346 . S
C869 C870 1.396 . S
C869 C879 1.510 . S
C870 C866 1.401 . S
C870 C869 1.396 . S
C871 C866 1.499 . S
C871 H872 0.959 . S
C871 H873 0.960 . S
C871 H874 0.961 . S
H872 C871 0.959 . S
H873 C871 0.960 . S
H874 C871 0.961 . S
O875 Co850 1.967 . S
O875 C883 1.258 . S
O876 Co851 1.941 . S
O876 C883 1.266 . S
H877 C879 0.959 . S
H878 C879 0.961 . S
C879 C869 1.510 . S
C879 H877 0.959 . S
C879 H878 0.961 . S
C879 H880 0.960 . S
H880 C879 0.960 . S
H881 N861 0.862 . S
O882 Co850 1.920 . S
O882 C855 1.289 . S
C883 O875 1.258 . S
C883 O876 1.266 . S
Co884 O887 1.970 . S
Co884 N901 1.989 . S
Co884 O909 1.967 . S
Co884 O916 1.920 . S
Co885 O888 1.966 . S
Co885 N894 2.022 . S
Co885 N902 1.993 . S
Co885 O910 1.941 . S
C886 O887 1.258 . S
C886 O888 1.263 . S
O887 Co884 1.970 . S
O887 C886 1.258 . S
O888 Co885 1.966 . S
O888 C886 1.263 . S
C889 O890 1.235 . S
C889 O916 1.289 . S
O890 C889 1.235 . S
C891 C893 1.400 . S
C891 N894 1.351 . S
C891 C896 1.501 . S
C892 C893 1.387 . S
C892 N895 1.341 . S
C893 C891 1.400 . S
C893 C892 1.387 . S
N894 Co885 2.022 . S
N894 C891 1.351 . S
N894 N895 1.365 . S
N895 C892 1.341 . S
N895 N894 1.365 . S
N895 H915 0.862 . S
C896 C891 1.501 . S
C896 H897 0.961 . S
C896 H898 0.961 . S
C896 H899 0.960 . S
H897 C896 0.961 . S
H898 C896 0.961 . S
H899 C896 0.960 . S
C900 N901 1.342 . S
C900 C904 1.401 . S
C900 C905 1.499 . S
N901 Co884 1.989 . S
N901 C900 1.342 . S
N901 N902 1.388 . S
N902 Co885 1.993 . S
N902 N901 1.388 . S
N902 C903 1.346 . S
C903 N902 1.346 . S
C903 C904 1.396 . S
C903 C913 1.510 . S
C904 C900 1.401 . S
C904 C903 1.396 . S
C905 C900 1.499 . S
C905 H906 0.959 . S
C905 H907 0.960 . S
C905 H908 0.961 . S
H906 C905 0.959 . S
H907 C905 0.960 . S
H908 C905 0.961 . S
O909 Co884 1.967 . S
O909 C917 1.258 . S
O910 Co885 1.941 . S
O910 C917 1.266 . S
H911 C913 0.959 . S
H912 C913 0.961 . S
C913 C903 1.510 . S
C913 H911 0.959 . S
C913 H912 0.961 . S
C913 H914 0.960 . S
H914 C913 0.960 . S
H915 N895 0.862 . S
O916 Co884 1.920 . S
O916 C889 1.289 . S
C917 O909 1.258 . S
C917 O910 1.266 . S
Co918 O921 1.970 . S
Co918 N935 1.989 . S
Co918 O943 1.967 . S
Co918 O950 1.920 . S
Co919 O922 1.966 . S
Co919 N928 2.022 . S
Co919 N936 1.993 . S
Co919 O944 1.941 . S
C920 O921 1.258 . S
C920 O922 1.263 . S
O921 Co918 1.970 . S
O921 C920 1.258 . S
O922 Co919 1.966 . S
O922 C920 1.263 . S
C923 O924 1.235 . S
C923 O950 1.289 . S
O924 C923 1.235 . S
C925 C927 1.400 . S
C925 N928 1.351 . S
C925 C930 1.501 . S
C926 C927 1.387 . S
C926 N929 1.341 . S
C927 C925 1.400 . S
C927 C926 1.387 . S
N928 Co919 2.022 . S
N928 C925 1.351 . S
N928 N929 1.365 . S
N929 C926 1.341 . S
N929 N928 1.365 . S
N929 H949 0.862 . S
C930 C925 1.501 . S
C930 H931 0.961 . S
C930 H932 0.961 . S
C930 H933 0.960 . S
H931 C930 0.961 . S
H932 C930 0.961 . S
H933 C930 0.960 . S
C934 N935 1.342 . S
C934 C938 1.401 . S
C934 C939 1.499 . S
N935 Co918 1.989 . S
N935 C934 1.342 . S
N935 N936 1.388 . S
N936 Co919 1.993 . S
N936 N935 1.388 . S
N936 C937 1.346 . S
C937 N936 1.346 . S
C937 C938 1.396 . S
C937 C947 1.510 . S
C938 C934 1.401 . S
C938 C937 1.396 . S
C939 C934 1.499 . S
C939 H940 0.959 . S
C939 H941 0.960 . S
C939 H942 0.961 . S
H940 C939 0.959 . S
H941 C939 0.960 . S
H942 C939 0.961 . S
O943 Co918 1.967 . S
O943 C951 1.258 . S
O944 Co919 1.941 . S
O944 C951 1.266 . S
H945 C947 0.959 . S
H946 C947 0.961 . S
C947 C937 1.510 . S
C947 H945 0.959 . S
C947 H946 0.961 . S
C947 H948 0.960 . S
H948 C947 0.960 . S
H949 N929 0.862 . S
O950 Co918 1.920 . S
O950 C923 1.289 . S
C951 O943 1.258 . S
C951 O944 1.266 . S
Co952 O955 1.970 . S
Co952 N969 1.989 . S
Co952 O977 1.967 . S
Co952 O984 1.920 . S
Co953 O956 1.966 . S
Co953 N962 2.022 . S
Co953 N970 1.993 . S
Co953 O978 1.941 . S
C954 O955 1.258 . S
C954 O956 1.263 . S
O955 Co952 1.970 . S
O955 C954 1.258 . S
O956 Co953 1.966 . S
O956 C954 1.263 . S
C957 O958 1.235 . S
C957 O984 1.289 . S
O958 C957 1.235 . S
C959 C961 1.400 . S
C959 N962 1.351 . S
C959 C964 1.501 . S
C960 C961 1.387 . S
C960 N963 1.341 . S
C961 C959 1.400 . S
C961 C960 1.387 . S
N962 Co953 2.022 . S
N962 C959 1.351 . S
N962 N963 1.365 . S
N963 C960 1.341 . S
N963 N962 1.365 . S
N963 H983 0.862 . S
C964 C959 1.501 . S
C964 H965 0.961 . S
C964 H966 0.961 . S
C964 H967 0.960 . S
H965 C964 0.961 . S
H966 C964 0.961 . S
H967 C964 0.960 . S
C968 N969 1.342 . S
C968 C972 1.401 . S
C968 C973 1.499 . S
N969 Co952 1.989 . S
N969 C968 1.342 . S
N969 N970 1.388 . S
N970 Co953 1.993 . S
N970 N969 1.388 . S
N970 C971 1.346 . S
C971 N970 1.346 . S
C971 C972 1.396 . S
C971 C981 1.510 . S
C972 C968 1.401 . S
C972 C971 1.396 . S
C973 C968 1.499 . S
C973 H974 0.959 . S
C973 H975 0.960 . S
C973 H976 0.961 . S
H974 C973 0.959 . S
H975 C973 0.960 . S
H976 C973 0.961 . S
O977 Co952 1.967 . S
O977 C985 1.258 . S
O978 Co953 1.941 . S
O978 C985 1.266 . S
H979 C981 0.959 . S
H980 C981 0.961 . S
C981 C971 1.510 . S
C981 H979 0.959 . S
C981 H980 0.961 . S
C981 H982 0.960 . S
H982 C981 0.960 . S
H983 N963 0.862 . S
O984 Co952 1.920 . S
O984 C957 1.289 . S
C985 O977 1.258 . S
C985 O978 1.266 . S
Co986 O989 1.970 . S
Co986 N1003 1.989 . S
Co986 O1011 1.967 . S
Co986 O1018 1.920 . S
Co987 O990 1.966 . S
Co987 N996 2.022 . S
Co987 N1004 1.993 . S
Co987 O1012 1.941 . S
C988 O989 1.258 . S
C988 O990 1.263 . S
O989 Co986 1.970 . S
O989 C988 1.258 . S
O990 Co987 1.966 . S
O990 C988 1.263 . S
C991 O992 1.235 . S
C991 O1018 1.289 . S
O992 C991 1.235 . S
C993 C995 1.400 . S
C993 N996 1.351 . S
C993 C998 1.501 . S
C994 C995 1.387 . S
C994 N997 1.341 . S
C995 C993 1.400 . S
C995 C994 1.387 . S
N996 Co987 2.022 . S
N996 C993 1.351 . S
N996 N997 1.365 . S
N997 C994 1.341 . S
N997 N996 1.365 . S
N997 H1017 0.862 . S
C998 C993 1.501 . S
C998 H999 0.961 . S
C998 H1000 0.961 . S
C998 H1001 0.960 . S
H999 C998 0.961 . S
H1000 C998 0.961 . S
H1001 C998 0.960 . S
C1002 N1003 1.342 . S
C1002 C1006 1.401 . S
C1002 C1007 1.499 . S
N1003 Co986 1.989 . S
N1003 C1002 1.342 . S
N1003 N1004 1.388 . S
N1004 Co987 1.993 . S
N1004 N1003 1.388 . S
N1004 C1005 1.346 . S
C1005 N1004 1.346 . S
C1005 C1006 1.396 . S
C1005 C1015 1.510 . S
C1006 C1002 1.401 . S
C1006 C1005 1.396 . S
C1007 C1002 1.499 . S
C1007 H1008 0.959 . S
C1007 H1009 0.960 . S
C1007 H1010 0.961 . S
H1008 C1007 0.959 . S
H1009 C1007 0.960 . S
H1010 C1007 0.961 . S
O1011 Co986 1.967 . S
O1011 C1019 1.258 . S
O1012 Co987 1.941 . S
O1012 C1019 1.266 . S
H1013 C1015 0.959 . S
H1014 C1015 0.961 . S
C1015 C1005 1.510 . S
C1015 H1013 0.959 . S
C1015 H1014 0.961 . S
C1015 H1016 0.960 . S
H1016 C1015 0.960 . S
H1017 N997 0.862 . S
O1018 Co986 1.920 . S
O1018 C991 1.289 . S
C1019 O1011 1.258 . S
C1019 O1012 1.266 . S
Co1020 O1023 1.970 . S
Co1020 N1037 1.989 . S
Co1020 O1045 1.967 . S
Co1020 O1052 1.920 . S
Co1021 O1024 1.966 . S
Co1021 N1030 2.022 . S
Co1021 N1038 1.993 . S
Co1021 O1046 1.941 . S
C1022 O1023 1.258 . S
C1022 O1024 1.263 . S
O1023 Co1020 1.970 . S
O1023 C1022 1.258 . S
O1024 Co1021 1.966 . S
O1024 C1022 1.263 . S
C1025 O1026 1.235 . S
C1025 O1052 1.289 . S
O1026 C1025 1.235 . S
C1027 C1029 1.400 . S
C1027 N1030 1.351 . S
C1027 C1032 1.501 . S
C1028 C1029 1.387 . S
C1028 N1031 1.341 . S
C1029 C1027 1.400 . S
C1029 C1028 1.387 . S
N1030 Co1021 2.022 . S
N1030 C1027 1.351 . S
N1030 N1031 1.365 . S
N1031 C1028 1.341 . S
N1031 N1030 1.365 . S
N1031 H1051 0.862 . S
C1032 C1027 1.501 . S
C1032 H1033 0.961 . S
C1032 H1034 0.961 . S
C1032 H1035 0.960 . S
H1033 C1032 0.961 . S
H1034 C1032 0.961 . S
H1035 C1032 0.960 . S
C1036 N1037 1.342 . S
C1036 C1040 1.401 . S
C1036 C1041 1.499 . S
N1037 Co1020 1.989 . S
N1037 C1036 1.342 . S
N1037 N1038 1.388 . S
N1038 Co1021 1.993 . S
N1038 N1037 1.388 . S
N1038 C1039 1.346 . S
C1039 N1038 1.346 . S
C1039 C1040 1.396 . S
C1039 C1049 1.510 . S
C1040 C1036 1.401 . S
C1040 C1039 1.396 . S
C1041 C1036 1.499 . S
C1041 H1042 0.959 . S
C1041 H1043 0.960 . S
C1041 H1044 0.961 . S
H1042 C1041 0.959 . S
H1043 C1041 0.960 . S
H1044 C1041 0.961 . S
O1045 Co1020 1.967 . S
O1045 C1053 1.258 . S
O1046 Co1021 1.941 . S
O1046 C1053 1.266 . S
H1047 C1049 0.959 . S
H1048 C1049 0.961 . S
C1049 C1039 1.510 . S
C1049 H1047 0.959 . S
C1049 H1048 0.961 . S
C1049 H1050 0.960 . S
H1050 C1049 0.960 . S
H1051 N1031 0.862 . S
O1052 Co1020 1.920 . S
O1052 C1025 1.289 . S
C1053 O1045 1.258 . S
C1053 O1046 1.266 . S
Co1054 O1057 1.970 . S
Co1054 N1071 1.989 . S
Co1054 O1079 1.967 . S
Co1054 O1086 1.920 . S
Co1055 O1058 1.966 . S
Co1055 N1064 2.022 . S
Co1055 N1072 1.993 . S
Co1055 O1080 1.941 . S
C1056 O1057 1.258 . S
C1056 O1058 1.263 . S
O1057 Co1054 1.970 . S
O1057 C1056 1.258 . S
O1058 Co1055 1.966 . S
O1058 C1056 1.263 . S
C1059 O1060 1.235 . S
C1059 O1086 1.289 . S
O1060 C1059 1.235 . S
C1061 C1063 1.400 . S
C1061 N1064 1.351 . S
C1061 C1066 1.501 . S
C1062 C1063 1.387 . S
C1062 N1065 1.341 . S
C1063 C1061 1.400 . S
C1063 C1062 1.387 . S
N1064 Co1055 2.022 . S
N1064 C1061 1.351 . S
N1064 N1065 1.365 . S
N1065 C1062 1.341 . S
N1065 N1064 1.365 . S
N1065 H1085 0.862 . S
C1066 C1061 1.501 . S
C1066 H1067 0.961 . S
C1066 H1068 0.961 . S
C1066 H1069 0.960 . S
H1067 C1066 0.961 . S
H1068 C1066 0.961 . S
H1069 C1066 0.960 . S
C1070 N1071 1.342 . S
C1070 C1074 1.401 . S
C1070 C1075 1.499 . S
N1071 Co1054 1.989 . S
N1071 C1070 1.342 . S
N1071 N1072 1.388 . S
N1072 Co1055 1.993 . S
N1072 N1071 1.388 . S
N1072 C1073 1.346 . S
C1073 N1072 1.346 . S
C1073 C1074 1.396 . S
C1073 C1083 1.510 . S
C1074 C1070 1.401 . S
C1074 C1073 1.396 . S
C1075 C1070 1.499 . S
C1075 H1076 0.959 . S
C1075 H1077 0.960 . S
C1075 H1078 0.961 . S
H1076 C1075 0.959 . S
H1077 C1075 0.960 . S
H1078 C1075 0.961 . S
O1079 Co1054 1.967 . S
O1079 C1087 1.258 . S
O1080 Co1055 1.941 . S
O1080 C1087 1.266 . S
H1081 C1083 0.959 . S
H1082 C1083 0.961 . S
C1083 C1073 1.510 . S
C1083 H1081 0.959 . S
C1083 H1082 0.961 . S
C1083 H1084 0.960 . S
H1084 C1083 0.960 . S
H1085 N1065 0.862 . S
O1086 Co1054 1.920 . S
O1086 C1059 1.289 . S
C1087 O1079 1.258 . S
C1087 O1080 1.266 . S
C1088 C1089 1.369 . S
C1088 C1090 1.419 . S
C1088 H1092 0.930 . S
C1089 C1088 1.369 . S
C1089 C1098 1.429 . S
C1090 C1088 1.419 . S
C1090 C1091 1.363 . S
C1090 H1093 0.929 . S
C1091 C1090 1.363 . S
C1091 C1097 1.428 . S
H1092 C1088 0.930 . S
H1093 C1090 0.929 . S
S1094 N1095 1.613 . S
S1094 N1096 1.610 . S
N1095 S1094 1.613 . S
N1095 C1098 1.350 . S
N1096 S1094 1.610 . S
N1096 C1097 1.351 . S
C1097 C1091 1.428 . S
C1097 N1096 1.351 . S
C1097 C1098 1.434 . S
C1098 C1089 1.429 . S
C1098 N1095 1.350 . S
C1098 C1097 1.434 . S
C1099 C1100 1.369 1_565 S
C1099 C1101 1.419 . S
C1099 H1103 0.930 . S
C1100 C1099 1.369 1_545 S
C1100 C1109 1.429 . S
C1101 C1099 1.419 . S
C1101 C1102 1.363 . S
C1101 H1104 0.929 . S
C1102 C1101 1.363 . S
C1102 C1108 1.428 1_565 S
H1103 C1099 0.930 . S
H1104 C1101 0.929 . S
S1105 N1106 1.613 . S
S1105 N1107 1.610 . S
N1106 S1105 1.613 . S
N1106 C1109 1.350 . S
N1107 S1105 1.610 . S
N1107 C1108 1.351 . S
C1108 C1102 1.428 1_545 S
C1108 N1107 1.351 . S
C1108 C1109 1.434 . S
C1109 C1100 1.429 . S
C1109 N1106 1.350 . S
C1109 C1108 1.434 . S
C1110 C1111 1.369 . S
C1110 C1112 1.419 . S
C1110 H1114 0.930 . S
C1111 C1110 1.369 . S
C1111 C1120 1.429 . S
C1112 C1110 1.419 . S
C1112 C1113 1.363 . S
C1112 H1115 0.929 . S
C1113 C1112 1.363 . S
C1113 C1119 1.428 . S
H1114 C1110 0.930 . S
H1115 C1112 0.929 . S
S1116 N1117 1.613 . S
S1116 N1118 1.610 . S
N1117 S1116 1.613 . S
N1117 C1120 1.350 . S
N1118 S1116 1.610 . S
N1118 C1119 1.351 . S
C1119 C1113 1.428 . S
C1119 N1118 1.351 . S
C1119 C1120 1.434 . S
C1120 C1111 1.429 . S
C1120 N1117 1.350 . S
C1120 C1119 1.434 . S
C1121 C1122 1.369 1_545 S
C1121 C1123 1.419 . S
C1121 H1125 0.930 . S
C1122 C1121 1.369 1_565 S
C1122 C1131 1.429 . S
C1123 C1121 1.419 . S
C1123 C1124 1.363 1_455 S
C1123 H1126 0.929 . S
C1124 C1123 1.363 1_655 S
C1124 C1130 1.428 1_645 S
H1125 C1121 0.930 . S
H1126 C1123 0.929 . S
S1127 N1128 1.613 . S
S1127 N1129 1.610 1_455 S
N1128 S1127 1.613 . S
N1128 C1131 1.350 . S
N1129 S1127 1.610 1_655 S
N1129 C1130 1.351 1_655 S
C1130 C1124 1.428 1_465 S
C1130 N1129 1.351 1_455 S
C1130 C1131 1.434 . S
C1131 C1122 1.429 . S
C1131 N1128 1.350 . S
C1131 C1130 1.434 . S
C1132 C1133 1.369 . S
C1132 C1134 1.419 . S
C1132 H1136 0.930 . S
C1133 C1132 1.369 . S
C1133 C1142 1.429 . S
C1134 C1132 1.419 . S
C1134 C1135 1.363 . S
C1134 H1137 0.929 . S
C1135 C1134 1.363 . S
C1135 C1141 1.428 . S
H1136 C1132 0.930 . S
H1137 C1134 0.929 . S
S1138 N1139 1.613 . S
S1138 N1140 1.610 . S
N1139 S1138 1.613 . S
N1139 C1142 1.350 . S
N1140 S1138 1.610 . S
N1140 C1141 1.351 . S
C1141 C1135 1.428 . S
C1141 N1140 1.351 . S
C1141 C1142 1.434 . S
C1142 C1133 1.429 . S
C1142 N1139 1.350 . S
C1142 C1141 1.434 . S
C1143 C1144 1.369 . S
C1143 C1145 1.419 1_545 S
C1143 H1147 0.930 . S
C1144 C1143 1.369 . S
C1144 C1153 1.429 . S
C1145 C1143 1.419 1_565 S
C1145 C1146 1.363 1_455 S
C1145 H1148 0.929 . S
C1146 C1145 1.363 1_655 S
C1146 C1152 1.428 1_665 S
H1147 C1143 0.930 . S
H1148 C1145 0.929 . S
S1149 N1150 1.613 . S
S1149 N1151 1.610 1_455 S
N1150 S1149 1.613 . S
N1150 C1153 1.350 . S
N1151 S1149 1.610 1_655 S
N1151 C1152 1.351 1_655 S
C1152 C1146 1.428 1_445 S
C1152 N1151 1.351 1_455 S
C1152 C1153 1.434 . S
C1153 C1144 1.429 . S
C1153 N1150 1.350 . S
C1153 C1152 1.434 . S
C1154 C1155 1.369 . S
C1154 C1156 1.419 . S
C1154 H1158 0.930 . S
C1155 C1154 1.369 . S
C1155 C1164 1.429 . S
C1156 C1154 1.419 . S
C1156 C1157 1.363 . S
C1156 H1159 0.929 . S
C1157 C1156 1.363 . S
C1157 C1163 1.428 . S
H1158 C1154 0.930 . S
H1159 C1156 0.929 . S
S1160 N1161 1.613 . S
S1160 N1162 1.610 . S
N1161 S1160 1.613 . S
N1161 C1164 1.350 . S
N1162 S1160 1.610 . S
N1162 C1163 1.351 . S
C1163 C1157 1.428 . S
C1163 N1162 1.351 . S
C1163 C1164 1.434 . S
C1164 C1155 1.429 . S
C1164 N1161 1.350 . S
C1164 C1163 1.434 . S
C1165 C1166 1.369 . S
C1165 C1167 1.419 . S
C1165 H1169 0.930 . S
C1166 C1165 1.369 . S
C1166 C1175 1.429 1_545 S
C1167 C1165 1.419 . S
C1167 C1168 1.363 1_545 S
C1167 H1170 0.929 . S
C1168 C1167 1.363 1_565 S
C1168 C1174 1.428 . S
H1169 C1165 0.930 . S
H1170 C1167 0.929 . S
S1171 N1172 1.613 . S
S1171 N1173 1.610 . S
N1172 S1171 1.613 . S
N1172 C1175 1.350 . S
N1173 S1171 1.610 . S
N1173 C1174 1.351 . S
C1174 C1168 1.428 . S
C1174 N1173 1.351 . S
C1174 C1175 1.434 . S
C1175 C1166 1.429 1_565 S
C1175 N1172 1.350 . S
C1175 C1174 1.434 . S
C1176 C1177 1.369 . S
C1176 C1178 1.419 . S
C1176 H1180 0.930 . S
C1177 C1176 1.369 . S
C1177 C1186 1.429 . S
C1178 C1176 1.419 . S
C1178 C1179 1.363 . S
C1178 H1181 0.929 . S
C1179 C1178 1.363 . S
C1179 C1185 1.428 . S
H1180 C1176 0.930 . S
H1181 C1178 0.929 . S
S1182 N1183 1.613 . S
S1182 N1184 1.610 . S
N1183 S1182 1.613 . S
N1183 C1186 1.350 . S
N1184 S1182 1.610 . S
N1184 C1185 1.351 . S
C1185 C1179 1.428 . S
C1185 N1184 1.351 . S
C1185 C1186 1.434 . S
C1186 C1177 1.429 . S
C1186 N1183 1.350 . S
C1186 C1185 1.434 . S
C1187 C1188 1.369 . S
C1187 C1189 1.419 . S
C1187 H1191 0.930 . S
C1188 C1187 1.369 . S
C1188 C1197 1.429 1_565 S
C1189 C1187 1.419 . S
C1189 C1190 1.363 1_565 S
C1189 H1192 0.929 . S
C1190 C1189 1.363 1_545 S
C1190 C1196 1.428 . S
H1191 C1187 0.930 . S
H1192 C1189 0.929 . S
S1193 N1194 1.613 . S
S1193 N1195 1.610 . S
N1194 S1193 1.613 . S
N1194 C1197 1.350 . S
N1195 S1193 1.610 . S
N1195 C1196 1.351 . S
C1196 C1190 1.428 . S
C1196 N1195 1.351 . S
C1196 C1197 1.434 . S
C1197 C1188 1.429 1_545 S
C1197 N1194 1.350 . S
C1197 C1196 1.434 . S
C1198 C1199 1.369 . S
C1198 C1200 1.419 . S
C1198 H1202 0.930 . S
C1199 C1198 1.369 . S
C1199 C1208 1.429 . S
C1200 C1198 1.419 . S
C1200 C1201 1.363 . S
C1200 H1203 0.929 . S
C1201 C1200 1.363 . S
C1201 C1207 1.428 . S
H1202 C1198 0.930 . S
H1203 C1200 0.929 . S
S1204 N1205 1.613 . S
S1204 N1206 1.610 . S
N1205 S1204 1.613 . S
N1205 C1208 1.350 . S
N1206 S1204 1.610 . S
N1206 C1207 1.351 . S
C1207 C1201 1.428 . S
C1207 N1206 1.351 . S
C1207 C1208 1.434 . S
C1208 C1199 1.429 . S
C1208 N1205 1.350 . S
C1208 C1207 1.434 . S
C1209 C1210 1.369 1_655 S
C1209 C1211 1.419 . S
C1209 H1213 0.930 . S
C1210 C1209 1.369 1_455 S
C1210 C1219 1.429 1_465 S
C1211 C1209 1.419 . S
C1211 C1212 1.363 1_565 S
C1211 H1214 0.929 . S
C1212 C1211 1.363 1_545 S
C1212 C1218 1.428 . S
H1213 C1209 0.930 . S
H1214 C1211 0.929 . S
S1215 N1216 1.613 1_655 S
S1215 N1217 1.610 . S
N1216 S1215 1.613 1_455 S
N1216 C1219 1.350 1_455 S
N1217 S1215 1.610 . S
N1217 C1218 1.351 . S
C1218 C1212 1.428 . S
C1218 N1217 1.351 . S
C1218 C1219 1.434 . S
C1219 C1210 1.429 1_645 S
C1219 N1216 1.350 1_655 S
C1219 C1218 1.434 . S
C1220 C1221 1.369 . S
C1220 C1222 1.419 . S
C1220 H1224 0.930 . S
C1221 C1220 1.369 . S
C1221 C1230 1.429 . S
C1222 C1220 1.419 . S
C1222 C1223 1.363 . S
C1222 H1225 0.929 . S
C1223 C1222 1.363 . S
C1223 C1229 1.428 . S
H1224 C1220 0.930 . S
H1225 C1222 0.929 . S
S1226 N1227 1.613 . S
S1226 N1228 1.610 . S
N1227 S1226 1.613 . S
N1227 C1230 1.350 . S
N1228 S1226 1.610 . S
N1228 C1229 1.351 . S
C1229 C1223 1.428 . S
C1229 N1228 1.351 . S
C1229 C1230 1.434 . S
C1230 C1221 1.429 . S
C1230 N1227 1.350 . S
C1230 C1229 1.434 . S
C1231 C1232 1.369 1_665 S
C1231 C1233 1.419 . S
C1231 H1235 0.930 1_655 S
C1232 C1231 1.369 1_445 S
C1232 C1241 1.429 1_455 S
C1233 C1231 1.419 . S
C1233 C1234 1.363 . S
C1233 H1236 0.929 . S
C1234 C1233 1.363 . S
C1234 C1240 1.428 1_565 S
H1235 C1231 0.930 1_455 S
H1236 C1233 0.929 . S
S1237 N1238 1.613 . S
S1237 N1239 1.610 . S
N1238 S1237 1.613 . S
N1238 C1241 1.350 . S
N1239 S1237 1.610 . S
N1239 C1240 1.351 . S
C1240 C1234 1.428 1_545 S
C1240 N1239 1.351 . S
C1240 C1241 1.434 . S
C1241 C1232 1.429 1_655 S
C1241 N1238 1.350 . S
C1241 C1240 1.434 . S
C1242 C1243 1.369 . S
C1242 C1244 1.419 . S
C1242 H1246 0.930 . S
C1243 C1242 1.369 . S
C1243 C1252 1.429 . S
C1244 C1242 1.419 . S
C1244 C1245 1.363 . S
C1244 H1247 0.929 . S
C1245 C1244 1.363 . S
C1245 C1251 1.428 . S
H1246 C1242 0.930 . S
H1247 C1244 0.929 . S
S1248 N1249 1.613 . S
S1248 N1250 1.610 . S
N1249 S1248 1.613 . S
N1249 C1252 1.350 . S
N1250 S1248 1.610 . S
N1250 C1251 1.351 . S
C1251 C1245 1.428 . S
C1251 N1250 1.351 . S
C1251 C1252 1.434 . S
C1252 C1243 1.429 . S
C1252 N1249 1.350 . S
C1252 C1251 1.434 . S
C1253 C1254 1.369 . S
C1253 C1255 1.419 1_545 S
C1253 H1257 0.930 . S
C1254 C1253 1.369 . S
C1254 C1263 1.429 . S
C1255 C1253 1.419 1_565 S
C1255 C1256 1.363 . S
C1255 H1258 0.929 . S
C1256 C1255 1.363 . S
C1256 C1262 1.428 1_565 S
H1257 C1253 0.930 . S
H1258 C1255 0.929 . S
S1259 N1260 1.613 . S
S1259 N1261 1.610 . S
N1260 S1259 1.613 . S
N1260 C1263 1.350 . S
N1261 S1259 1.610 . S
N1261 C1262 1.351 . S
C1262 C1256 1.428 1_545 S
C1262 N1261 1.351 . S
C1262 C1263 1.434 . S
C1263 C1254 1.429 . S
C1263 N1260 1.350 . S
C1263 C1262 1.434 . S
C1264 C1265 1.369 . S
C1264 C1266 1.419 . S
C1264 H1268 0.930 . S
C1265 C1264 1.369 . S
C1265 C1274 1.429 . S
C1266 C1264 1.419 . S
C1266 C1267 1.363 . S
C1266 H1269 0.929 . S
C1267 C1266 1.363 . S
C1267 C1273 1.428 . S
H1268 C1264 0.930 . S
H1269 C1266 0.929 . S
S1270 N1271 1.613 . S
S1270 N1272 1.610 . S
N1271 S1270 1.613 . S
N1271 C1274 1.350 . S
N1272 S1270 1.610 . S
N1272 C1273 1.351 . S
C1273 C1267 1.428 . S
C1273 N1272 1.351 . S
C1273 C1274 1.434 . S
C1274 C1265 1.429 . S
C1274 N1271 1.350 . S
C1274 C1273 1.434 . S
C1275 C1276 1.369 1_655 S
C1275 C1277 1.419 . S
C1275 H1279 0.930 . S
C1276 C1275 1.369 1_455 S
C1276 C1285 1.429 1_455 S
C1277 C1275 1.419 . S
C1277 C1278 1.363 . S
C1277 H1280 0.929 . S
C1278 C1277 1.363 . S
C1278 C1284 1.428 . S
H1279 C1275 0.930 . S
H1280 C1277 0.929 . S
S1281 N1282 1.613 1_655 S
S1281 N1283 1.610 . S
N1282 S1281 1.613 1_455 S
N1282 C1285 1.350 1_455 S
N1283 S1281 1.610 . S
N1283 C1284 1.351 . S
C1284 C1278 1.428 . S
C1284 N1283 1.351 . S
C1284 C1285 1.434 . S
C1285 C1276 1.429 1_655 S
C1285 N1282 1.350 1_655 S
C1285 C1284 1.434 . S
C1286 C1287 1.369 . S
C1286 C1288 1.419 . S
C1286 H1290 0.930 . S
C1287 C1286 1.369 . S
C1287 C1296 1.429 . S
C1288 C1286 1.419 . S
C1288 C1289 1.363 . S
C1288 H1291 0.929 . S
C1289 C1288 1.363 . S
C1289 C1295 1.428 . S
H1290 C1286 0.930 . S
H1291 C1288 0.929 . S
S1292 N1293 1.613 . S
S1292 N1294 1.610 . S
N1293 S1292 1.613 . S
N1293 C1296 1.350 . S
N1294 S1292 1.610 . S
N1294 C1295 1.351 . S
C1295 C1289 1.428 . S
C1295 N1294 1.351 . S
C1295 C1296 1.434 . S
C1296 C1287 1.429 . S
C1296 N1293 1.350 . S
C1296 C1295 1.434 . S
C1297 C1298 1.369 . S
C1297 C1299 1.419 . S
C1297 H1301 0.930 . S
C1298 C1297 1.369 . S
C1298 C1307 1.429 . S
C1299 C1297 1.419 . S
C1299 C1300 1.363 . S
C1299 H1302 0.929 . S
C1300 C1299 1.363 . S
C1300 C1306 1.428 . S
H1301 C1297 0.930 . S
H1302 C1299 0.929 . S
S1303 N1304 1.613 . S
S1303 N1305 1.610 . S
N1304 S1303 1.613 . S
N1304 C1307 1.350 . S
N1305 S1303 1.610 . S
N1305 C1306 1.351 . S
C1306 C1300 1.428 . S
C1306 N1305 1.351 . S
C1306 C1307 1.434 . S
C1307 C1298 1.429 . S
C1307 N1304 1.350 . S
C1307 C1306 1.434 . S
C1308 C1309 1.369 . S
C1308 C1310 1.419 . S
C1308 H1312 0.930 . S
C1309 C1308 1.369 . S
C1309 C1318 1.429 . S
C1310 C1308 1.419 . S
C1310 C1311 1.363 . S
C1310 H1313 0.929 . S
C1311 C1310 1.363 . S
C1311 C1317 1.428 . S
H1312 C1308 0.930 . S
H1313 C1310 0.929 . S
S1314 N1315 1.613 . S
S1314 N1316 1.610 . S
N1315 S1314 1.613 . S
N1315 C1318 1.350 . S
N1316 S1314 1.610 . S
N1316 C1317 1.351 . S
C1317 C1311 1.428 . S
C1317 N1316 1.351 . S
C1317 C1318 1.434 . S
C1318 C1309 1.429 . S
C1318 N1315 1.350 . S
C1318 C1317 1.434 . S
C1319 C1320 1.369 . S
C1319 C1321 1.419 . S
C1319 H1323 0.930 . S
C1320 C1319 1.369 . S
C1320 C1329 1.429 . S
C1321 C1319 1.419 . S
C1321 C1322 1.363 . S
C1321 H1324 0.929 . S
C1322 C1321 1.363 . S
C1322 C1328 1.428 . S
H1323 C1319 0.930 . S
H1324 C1321 0.929 . S
S1325 N1326 1.613 . S
S1325 N1327 1.610 . S
N1326 S1325 1.613 . S
N1326 C1329 1.350 . S
N1327 S1325 1.610 . S
N1327 C1328 1.351 . S
C1328 C1322 1.428 . S
C1328 N1327 1.351 . S
C1328 C1329 1.434 . S
C1329 C1320 1.429 . S
C1329 N1326 1.350 . S
C1329 C1328 1.434 . S
C1330 C1331 1.369 . S
C1330 C1332 1.419 . S
C1330 H1334 0.930 . S
C1331 C1330 1.369 . S
C1331 C1340 1.429 . S
C1332 C1330 1.419 . S
C1332 C1333 1.363 . S
C1332 H1335 0.929 . S
C1333 C1332 1.363 . S
C1333 C1339 1.428 . S
H1334 C1330 0.930 . S
H1335 C1332 0.929 . S
S1336 N1337 1.613 . S
S1336 N1338 1.610 . S
N1337 S1336 1.613 . S
N1337 C1340 1.350 . S
N1338 S1336 1.610 . S
N1338 C1339 1.351 . S
C1339 C1333 1.428 . S
C1339 N1338 1.351 . S
C1339 C1340 1.434 . S
C1340 C1331 1.429 . S
C1340 N1337 1.350 . S
C1340 C1339 1.434 . S
C1341 C1342 1.369 1_655 S
C1341 C1343 1.419 . S
C1341 H1345 0.930 . S
C1342 C1341 1.369 1_455 S
C1342 C1351 1.429 1_455 S
C1343 C1341 1.419 . S
C1343 C1344 1.363 . S
C1343 H1346 0.929 . S
C1344 C1343 1.363 . S
C1344 C1350 1.428 . S
H1345 C1341 0.930 . S
H1346 C1343 0.929 . S
S1347 N1348 1.613 . S
S1347 N1349 1.610 . S
N1348 S1347 1.613 . S
N1348 C1351 1.350 . S
N1349 S1347 1.610 . S
N1349 C1350 1.351 . S
C1350 C1344 1.428 . S
C1350 N1349 1.351 . S
C1350 C1351 1.434 . S
C1351 C1342 1.429 1_655 S
C1351 N1348 1.350 . S
C1351 C1350 1.434 . S
C1352 C1353 1.369 . S
C1352 C1354 1.419 . S
C1352 H1356 0.930 . S
C1353 C1352 1.369 . S
C1353 C1362 1.429 . S
C1354 C1352 1.419 . S
C1354 C1355 1.363 . S
C1354 H1357 0.929 . S
C1355 C1354 1.363 . S
C1355 C1361 1.428 . S
H1356 C1352 0.930 . S
H1357 C1354 0.929 . S
S1358 N1359 1.613 . S
S1358 N1360 1.610 . S
N1359 S1358 1.613 . S
N1359 C1362 1.350 . S
N1360 S1358 1.610 . S
N1360 C1361 1.351 . S
C1361 C1355 1.428 . S
C1361 N1360 1.351 . S
C1361 C1362 1.434 . S
C1362 C1353 1.429 . S
C1362 N1359 1.350 . S
C1362 C1361 1.434 . S
C1363 C1364 1.369 1_455 S
C1363 C1365 1.419 . S
C1363 H1367 0.930 1_455 S
C1364 C1363 1.369 1_655 S
C1364 C1373 1.429 1_655 S
C1365 C1363 1.419 . S
C1365 C1366 1.363 . S
C1365 H1368 0.929 . S
C1366 C1365 1.363 . S
C1366 C1372 1.428 . S
H1367 C1363 0.930 1_655 S
H1368 C1365 0.929 . S
S1369 N1370 1.613 . S
S1369 N1371 1.610 . S
N1370 S1369 1.613 . S
N1370 C1373 1.350 . S
N1371 S1369 1.610 . S
N1371 C1372 1.351 . S
C1372 C1366 1.428 . S
C1372 N1371 1.351 . S
C1372 C1373 1.434 . S
C1373 C1364 1.429 1_455 S
C1373 N1370 1.350 . S
C1373 C1372 1.434 . S
C1374 C1375 1.369 . S
C1374 C1376 1.419 . S
C1374 H1378 0.930 . S
C1375 C1374 1.369 . S
C1375 C1384 1.429 . S
C1376 C1374 1.419 . S
C1376 C1377 1.363 . S
C1376 H1379 0.929 . S
C1377 C1376 1.363 . S
C1377 C1383 1.428 . S
H1378 C1374 0.930 . S
H1379 C1376 0.929 . S
S1380 N1381 1.613 . S
S1380 N1382 1.610 . S
N1381 S1380 1.613 . S
N1381 C1384 1.350 . S
N1382 S1380 1.610 . S
N1382 C1383 1.351 . S
C1383 C1377 1.428 . S
C1383 N1382 1.351 . S
C1383 C1384 1.434 . S
C1384 C1375 1.429 . S
C1384 N1381 1.350 . S
C1384 C1383 1.434 . S
C1385 C1386 1.369 . S
C1385 C1387 1.419 . S
C1385 H1389 0.930 . S
C1386 C1385 1.369 . S
C1386 C1395 1.429 . S
C1387 C1385 1.419 . S
C1387 C1388 1.363 . S
C1387 H1390 0.929 . S
C1388 C1387 1.363 . S
C1388 C1394 1.428 . S
H1389 C1385 0.930 . S
H1390 C1387 0.929 . S
S1391 N1392 1.613 . S
S1391 N1393 1.610 . S
N1392 S1391 1.613 . S
N1392 C1395 1.350 . S
N1393 S1391 1.610 . S
N1393 C1394 1.351 . S
C1394 C1388 1.428 . S
C1394 N1393 1.351 . S
C1394 C1395 1.434 . S
C1395 C1386 1.429 . S
C1395 N1392 1.350 . S
C1395 C1394 1.434 . S
C1396 C1397 1.369 . S
C1396 C1398 1.419 . S
C1396 H1400 0.930 . S
C1397 C1396 1.369 . S
C1397 C1406 1.429 . S
C1398 C1396 1.419 . S
C1398 C1399 1.363 . S
C1398 H1401 0.929 . S
C1399 C1398 1.363 . S
C1399 C1405 1.428 . S
H1400 C1396 0.930 . S
H1401 C1398 0.929 . S
S1402 N1403 1.613 . S
S1402 N1404 1.610 . S
N1403 S1402 1.613 . S
N1403 C1406 1.350 . S
N1404 S1402 1.610 . S
N1404 C1405 1.351 . S
C1405 C1399 1.428 . S
C1405 N1404 1.351 . S
C1405 C1406 1.434 . S
C1406 C1397 1.429 . S
C1406 N1403 1.350 . S
C1406 C1405 1.434 . S
C1407 C1408 1.369 . S
C1407 C1409 1.419 . S
C1407 H1411 0.930 . S
C1408 C1407 1.369 . S
C1408 C1417 1.429 . S
C1409 C1407 1.419 . S
C1409 C1410 1.363 . S
C1409 H1412 0.929 . S
C1410 C1409 1.363 . S
C1410 C1416 1.428 . S
H1411 C1407 0.930 . S
H1412 C1409 0.929 . S
S1413 N1414 1.613 . S
S1413 N1415 1.610 . S
N1414 S1413 1.613 . S
N1414 C1417 1.350 . S
N1415 S1413 1.610 . S
N1415 C1416 1.351 . S
C1416 C1410 1.428 . S
C1416 N1415 1.351 . S
C1416 C1417 1.434 . S
C1417 C1408 1.429 . S
C1417 N1414 1.350 . S
C1417 C1416 1.434 . S
C1418 C1419 1.369 . S
C1418 C1420 1.419 . S
C1418 H1422 0.930 . S
C1419 C1418 1.369 . S
C1419 C1428 1.429 . S
C1420 C1418 1.419 . S
C1420 C1421 1.363 . S
C1420 H1423 0.929 . S
C1421 C1420 1.363 . S
C1421 C1427 1.428 . S
H1422 C1418 0.930 . S
H1423 C1420 0.929 . S
S1424 N1425 1.613 . S
S1424 N1426 1.610 . S
N1425 S1424 1.613 . S
N1425 C1428 1.350 . S
N1426 S1424 1.610 . S
N1426 C1427 1.351 . S
C1427 C1421 1.428 . S
C1427 N1426 1.351 . S
C1427 C1428 1.434 . S
C1428 C1419 1.429 . S
C1428 N1425 1.350 . S
C1428 C1427 1.434 . S
C1429 C1430 1.369 1_455 S
C1429 C1431 1.419 . S
C1429 H1433 0.930 . S
C1430 C1429 1.369 1_655 S
C1430 C1439 1.429 1_655 S
C1431 C1429 1.419 . S
C1431 C1432 1.363 . S
C1431 H1434 0.929 . S
C1432 C1431 1.363 . S
C1432 C1438 1.428 . S
H1433 C1429 0.930 . S
H1434 C1431 0.929 . S
S1435 N1436 1.613 1_455 S
S1435 N1437 1.610 . S
N1436 S1435 1.613 1_655 S
N1436 C1439 1.350 1_655 S
N1437 S1435 1.610 . S
N1437 C1438 1.351 . S
C1438 C1432 1.428 . S
C1438 N1437 1.351 . S
C1438 C1439 1.434 . S
C1439 C1430 1.429 1_455 S
C1439 N1436 1.350 1_455 S
C1439 C1438 1.434 . S
C1440 C1441 1.369 . S
C1440 C1442 1.419 . S
C1440 H1444 0.930 . S
C1441 C1440 1.369 . S
C1441 C1450 1.429 . S
C1442 C1440 1.419 . S
C1442 C1443 1.363 . S
C1442 H1445 0.929 . S
C1443 C1442 1.363 . S
C1443 C1449 1.428 . S
H1444 C1440 0.930 . S
H1445 C1442 0.929 . S
S1446 N1447 1.613 . S
S1446 N1448 1.610 . S
N1447 S1446 1.613 . S
N1447 C1450 1.350 . S
N1448 S1446 1.610 . S
N1448 C1449 1.351 . S
C1449 C1443 1.428 . S
C1449 N1448 1.351 . S
C1449 C1450 1.434 . S
C1450 C1441 1.429 . S
C1450 N1447 1.350 . S
C1450 C1449 1.434 . S
C1451 C1452 1.369 . S
C1451 C1453 1.419 1_455 S
C1451 H1455 0.930 . S
C1452 C1451 1.369 . S
C1452 C1461 1.429 . S
C1453 C1451 1.419 1_655 S
C1453 C1454 1.363 . S
C1453 H1456 0.929 . S
C1454 C1453 1.363 . S
C1454 C1460 1.428 . S
H1455 C1451 0.930 . S
H1456 C1453 0.929 . S
S1457 N1458 1.613 . S
S1457 N1459 1.610 1_455 S
N1458 S1457 1.613 . S
N1458 C1461 1.350 . S
N1459 S1457 1.610 1_655 S
N1459 C1460 1.351 . S
C1460 C1454 1.428 . S
C1460 N1459 1.351 . S
C1460 C1461 1.434 1_655 S
C1461 C1452 1.429 . S
C1461 N1458 1.350 . S
C1461 C1460 1.434 1_455 S
C1462 C1463 1.369 . S
C1462 C1464 1.419 . S
C1462 H1466 0.930 . S
C1463 C1462 1.369 . S
C1463 C1472 1.429 1_655 S
C1464 C1462 1.419 . S
C1464 C1465 1.363 1_655 S
C1464 H1467 0.929 . S
C1465 C1464 1.363 1_455 S
C1465 C1471 1.428 . S
H1466 C1462 0.930 . S
H1467 C1464 0.929 . S
S1468 N1469 1.613 . S
S1468 N1470 1.610 . S
N1469 S1468 1.613 . S
N1469 C1472 1.350 . S
N1470 S1468 1.610 . S
N1470 C1471 1.351 . S
C1471 C1465 1.428 . S
C1471 N1470 1.351 . S
C1471 C1472 1.434 . S
C1472 C1463 1.429 1_455 S
C1472 N1469 1.350 . S
C1472 C1471 1.434 . S
C1473 C1474 1.369 . S
C1473 C1475 1.419 . S
C1473 H1477 0.930 . S
C1474 C1473 1.369 . S
C1474 C1483 1.429 . S
C1475 C1473 1.419 . S
C1475 C1476 1.363 . S
C1475 H1478 0.929 . S
C1476 C1475 1.363 . S
C1476 C1482 1.428 . S
H1477 C1473 0.930 . S
H1478 C1475 0.929 . S
S1479 N1480 1.613 . S
S1479 N1481 1.610 . S
N1480 S1479 1.613 . S
N1480 C1483 1.350 . S
N1481 S1479 1.610 . S
N1481 C1482 1.351 . S
C1482 C1476 1.428 . S
C1482 N1481 1.351 . S
C1482 C1483 1.434 . S
C1483 C1474 1.429 . S
C1483 N1480 1.350 . S
C1483 C1482 1.434 . S
C1484 C1485 1.369 . S
C1484 C1486 1.419 . S
C1484 H1488 0.930 . S
C1485 C1484 1.369 . S
C1485 C1494 1.429 . S
C1486 C1484 1.419 . S
C1486 C1487 1.363 . S
C1486 H1489 0.929 . S
C1487 C1486 1.363 . S
C1487 C1493 1.428 . S
H1488 C1484 0.930 . S
H1489 C1486 0.929 . S
S1490 N1491 1.613 . S
S1490 N1492 1.610 . S
N1491 S1490 1.613 . S
N1491 C1494 1.350 . S
N1492 S1490 1.610 . S
N1492 C1493 1.351 . S
C1493 C1487 1.428 . S
C1493 N1492 1.351 . S
C1493 C1494 1.434 . S
C1494 C1485 1.429 . S
C1494 N1491 1.350 . S
C1494 C1493 1.434 . S
C1495 C1496 1.369 . S
C1495 C1497 1.419 . S
C1495 H1499 0.930 . S
C1496 C1495 1.369 . S
C1496 C1505 1.429 . S
C1497 C1495 1.419 . S
C1497 C1498 1.363 . S
C1497 H1500 0.929 . S
C1498 C1497 1.363 . S
C1498 C1504 1.428 . S
H1499 C1495 0.930 . S
H1500 C1497 0.929 . S
S1501 N1502 1.613 . S
S1501 N1503 1.610 . S
N1502 S1501 1.613 . S
N1502 C1505 1.350 . S
N1503 S1501 1.610 . S
N1503 C1504 1.351 . S
C1504 C1498 1.428 . S
C1504 N1503 1.351 . S
C1504 C1505 1.434 . S
C1505 C1496 1.429 . S
C1505 N1502 1.350 . S
C1505 C1504 1.434 . S
C1506 C1507 1.369 . S
C1506 C1508 1.419 . S
C1506 H1510 0.930 . S
C1507 C1506 1.369 . S
C1507 C1516 1.429 1_455 S
C1508 C1506 1.419 . S
C1508 C1509 1.363 1_455 S
C1508 H1511 0.929 . S
C1509 C1508 1.363 1_655 S
C1509 C1515 1.428 . S
H1510 C1506 0.930 . S
H1511 C1508 0.929 . S
S1512 N1513 1.613 . S
S1512 N1514 1.610 . S
N1513 S1512 1.613 . S
N1513 C1516 1.350 . S
N1514 S1512 1.610 . S
N1514 C1515 1.351 . S
C1515 C1509 1.428 . S
C1515 N1514 1.351 . S
C1515 C1516 1.434 . S
C1516 C1507 1.429 1_655 S
C1516 N1513 1.350 . S
C1516 C1515 1.434 . S
C1517 C1518 1.369 . S
C1517 C1519 1.419 1_655 S
C1517 H1521 0.930 . S
C1518 C1517 1.369 . S
C1518 C1527 1.429 . S
C1519 C1517 1.419 1_455 S
C1519 C1520 1.363 . S
C1519 H1522 0.929 . S
C1520 C1519 1.363 . S
C1520 C1526 1.428 . S
H1521 C1517 0.930 . S
H1522 C1519 0.929 . S
S1523 N1524 1.613 1_455 S
S1523 N1525 1.610 . S
N1524 S1523 1.613 1_655 S
N1524 C1527 1.350 . S
N1525 S1523 1.610 . S
N1525 C1526 1.351 . S
C1526 C1520 1.428 . S
C1526 N1525 1.351 . S
C1526 C1527 1.434 1_455 S
C1527 C1518 1.429 . S
C1527 N1524 1.350 . S
C1527 C1526 1.434 1_655 S
C1528 C1529 1.369 . S
C1528 C1530 1.419 . S
C1528 H1532 0.930 . S
C1529 C1528 1.369 . S
C1529 C1538 1.429 . S
C1530 C1528 1.419 . S
C1530 C1531 1.363 . S
C1530 H1533 0.929 . S
C1531 C1530 1.363 . S
C1531 C1537 1.428 . S
H1532 C1528 0.930 . S
H1533 C1530 0.929 . S
S1534 N1535 1.613 . S
S1534 N1536 1.610 . S
N1535 S1534 1.613 . S
N1535 C1538 1.350 . S
N1536 S1534 1.610 . S
N1536 C1537 1.351 . S
C1537 C1531 1.428 . S
C1537 N1536 1.351 . S
C1537 C1538 1.434 . S
C1538 C1529 1.429 . S
C1538 N1535 1.350 . S
C1538 C1537 1.434 . S
C1539 C1540 1.369 . S
C1539 C1541 1.419 1_655 S
C1539 H1543 0.930 . S
C1540 C1539 1.369 . S
C1540 C1549 1.429 . S
C1541 C1539 1.419 1_455 S
C1541 C1542 1.363 . S
C1541 H1544 0.929 . S
C1542 C1541 1.363 . S
C1542 C1548 1.428 . S
H1543 C1539 0.930 . S
H1544 C1541 0.929 . S
S1545 N1546 1.613 . S
S1545 N1547 1.610 1_655 S
N1546 S1545 1.613 . S
N1546 C1549 1.350 . S
N1547 S1545 1.610 1_455 S
N1547 C1548 1.351 . S
C1548 C1542 1.428 . S
C1548 N1547 1.351 . S
C1548 C1549 1.434 1_455 S
C1549 C1540 1.429 . S
C1549 N1546 1.350 . S
C1549 C1548 1.434 1_655 S
C1550 C1551 1.369 1_655 S
C1550 C1552 1.419 . S
C1550 H1554 0.930 . S
C1551 C1550 1.369 1_455 S
C1551 C1560 1.429 . S
C1552 C1550 1.419 . S
C1552 C1553 1.363 . S
C1552 H1555 0.929 . S
C1553 C1552 1.363 . S
C1553 C1559 1.428 1_655 S
H1554 C1550 0.930 . S
H1555 C1552 0.929 . S
S1556 N1557 1.613 . S
S1556 N1558 1.610 . S
N1557 S1556 1.613 . S
N1557 C1560 1.350 . S
N1558 S1556 1.610 . S
N1558 C1559 1.351 . S
C1559 C1553 1.428 1_455 S
C1559 N1558 1.351 . S
C1559 C1560 1.434 . S
C1560 C1551 1.429 . S
C1560 N1557 1.350 . S
C1560 C1559 1.434 . S
C1561 C1562 1.369 . S
C1561 C1563 1.419 . S
C1561 H1565 0.930 . S
C1562 C1561 1.369 . S
C1562 C1571 1.429 . S
C1563 C1561 1.419 . S
C1563 C1564 1.363 . S
C1563 H1566 0.929 . S
C1564 C1563 1.363 . S
C1564 C1570 1.428 . S
H1565 C1561 0.930 . S
H1566 C1563 0.929 . S
S1567 N1568 1.613 . S
S1567 N1569 1.610 . S
N1568 S1567 1.613 . S
N1568 C1571 1.350 . S
N1569 S1567 1.610 . S
N1569 C1570 1.351 . S
C1570 C1564 1.428 . S
C1570 N1569 1.351 . S
C1570 C1571 1.434 . S
C1571 C1562 1.429 . S
C1571 N1568 1.350 . S
C1571 C1570 1.434 . S
C1572 C1573 1.369 . S
C1572 C1574 1.419 . S
C1572 H1576 0.930 . S
C1573 C1572 1.369 . S
C1573 C1582 1.429 . S
C1574 C1572 1.419 . S
C1574 C1575 1.363 . S
C1574 H1577 0.929 . S
C1575 C1574 1.363 . S
C1575 C1581 1.428 . S
H1576 C1572 0.930 . S
H1577 C1574 0.929 . S
S1578 N1579 1.613 . S
S1578 N1580 1.610 . S
N1579 S1578 1.613 . S
N1579 C1582 1.350 . S
N1580 S1578 1.610 . S
N1580 C1581 1.351 . S
C1581 C1575 1.428 . S
C1581 N1580 1.351 . S
C1581 C1582 1.434 . S
C1582 C1573 1.429 . S
C1582 N1579 1.350 . S
C1582 C1581 1.434 . S
C1583 C1584 1.369 . S
C1583 C1585 1.419 . S
C1583 H1587 0.930 . S
C1584 C1583 1.369 . S
C1584 C1593 1.429 . S
C1585 C1583 1.419 . S
C1585 C1586 1.363 . S
C1585 H1588 0.929 . S
C1586 C1585 1.363 . S
C1586 C1592 1.428 . S
H1587 C1583 0.930 . S
H1588 C1585 0.929 . S
S1589 N1590 1.613 . S
S1589 N1591 1.610 . S
N1590 S1589 1.613 . S
N1590 C1593 1.350 . S
N1591 S1589 1.610 . S
N1591 C1592 1.351 . S
C1592 C1586 1.428 . S
C1592 N1591 1.351 . S
C1592 C1593 1.434 . S
C1593 C1584 1.429 . S
C1593 N1590 1.350 . S
C1593 C1592 1.434 . S
C1594 C1595 1.369 . S
C1594 C1596 1.419 . S
C1594 H1598 0.930 . S
C1595 C1594 1.369 . S
C1595 C1604 1.429 1_455 S
C1596 C1594 1.419 . S
C1596 C1597 1.363 1_455 S
C1596 H1599 0.929 . S
C1597 C1596 1.363 1_655 S
C1597 C1603 1.428 . S
H1598 C1594 0.930 . S
H1599 C1596 0.929 . S
S1600 N1601 1.613 . S
S1600 N1602 1.610 . S
N1601 S1600 1.613 . S
N1601 C1604 1.350 . S
N1602 S1600 1.610 . S
N1602 C1603 1.351 . S
C1603 C1597 1.428 . S
C1603 N1602 1.351 . S
C1603 C1604 1.434 . S
C1604 C1595 1.429 1_655 S
C1604 N1601 1.350 . S
C1604 C1603 1.434 . S
C1605 C1606 1.369 . S
C1605 C1607 1.419 1_455 S
C1605 H1609 0.930 . S
C1606 C1605 1.369 . S
C1606 C1615 1.429 . S
C1607 C1605 1.419 1_655 S
C1607 C1608 1.363 . S
C1607 H1610 0.929 . S
C1608 C1607 1.363 . S
C1608 C1614 1.428 . S
H1609 C1605 0.930 . S
H1610 C1607 0.929 . S
S1611 N1612 1.613 . S
S1611 N1613 1.610 1_455 S
N1612 S1611 1.613 . S
N1612 C1615 1.350 . S
N1613 S1611 1.610 1_655 S
N1613 C1614 1.351 . S
C1614 C1608 1.428 . S
C1614 N1613 1.351 . S
C1614 C1615 1.434 1_655 S
C1615 C1606 1.429 . S
C1615 N1612 1.350 . S
C1615 C1614 1.434 1_455 S
C1616 C1617 1.369 . S
C1616 C1618 1.419 . S
C1616 H1620 0.930 . S
C1617 C1616 1.369 . S
C1617 C1626 1.429 . S
C1618 C1616 1.419 . S
C1618 C1619 1.363 . S
C1618 H1621 0.929 . S
C1619 C1618 1.363 . S
C1619 C1625 1.428 . S
H1620 C1616 0.930 . S
H1621 C1618 0.929 . S
S1622 N1623 1.613 . S
S1622 N1624 1.610 1_565 S
N1623 S1622 1.613 . S
N1623 C1626 1.350 1_565 S
N1624 S1622 1.610 1_545 S
N1624 C1625 1.351 . S
C1625 C1619 1.428 . S
C1625 N1624 1.351 . S
C1625 C1626 1.434 . S
C1626 C1617 1.429 . S
C1626 N1623 1.350 1_545 S
C1626 C1625 1.434 . S
C1627 C1628 1.369 . S
C1627 C1629 1.419 . S
C1627 H1631 0.930 . S
C1628 C1627 1.369 . S
C1628 C1637 1.429 . S
C1629 C1627 1.419 . S
C1629 C1630 1.363 . S
C1629 H1632 0.929 . S
C1630 C1629 1.363 . S
C1630 C1636 1.428 . S
H1631 C1627 0.930 . S
H1632 C1629 0.929 . S
S1633 N1634 1.613 . S
S1633 N1635 1.610 . S
N1634 S1633 1.613 . S
N1634 C1637 1.350 . S
N1635 S1633 1.610 . S
N1635 C1636 1.351 . S
C1636 C1630 1.428 . S
C1636 N1635 1.351 . S
C1636 C1637 1.434 . S
C1637 C1628 1.429 . S
C1637 N1634 1.350 . S
C1637 C1636 1.434 . S
C1638 C1639 1.369 . S
C1638 C1640 1.419 . S
C1638 H1642 0.930 . S
C1639 C1638 1.369 . S
C1639 C1648 1.429 . S
C1640 C1638 1.419 . S
C1640 C1641 1.363 . S
C1640 H1643 0.929 . S
C1641 C1640 1.363 . S
C1641 C1647 1.428 . S
H1642 C1638 0.930 . S
H1643 C1640 0.929 . S
S1644 N1645 1.613 . S
S1644 N1646 1.610 . S
N1645 S1644 1.613 . S
N1645 C1648 1.350 . S
N1646 S1644 1.610 . S
N1646 C1647 1.351 . S
C1647 C1641 1.428 . S
C1647 N1646 1.351 . S
C1647 C1648 1.434 . S
C1648 C1639 1.429 . S
C1648 N1645 1.350 . S
C1648 C1647 1.434 . S
C1649 C1650 1.369 . S
C1649 C1651 1.419 . S
C1649 H1653 0.930 . S
C1650 C1649 1.369 . S
C1650 C1659 1.429 . S
C1651 C1649 1.419 . S
C1651 C1652 1.363 . S
C1651 H1654 0.929 . S
C1652 C1651 1.363 . S
C1652 C1658 1.428 . S
H1653 C1649 0.930 . S
H1654 C1651 0.929 . S
S1655 N1656 1.613 1_545 S
S1655 N1657 1.610 . S
N1656 S1655 1.613 1_565 S
N1656 C1659 1.350 . S
N1657 S1655 1.610 . S
N1657 C1658 1.351 1_545 S
C1658 C1652 1.428 . S
C1658 N1657 1.351 1_565 S
C1658 C1659 1.434 . S
C1659 C1650 1.429 . S
C1659 N1656 1.350 . S
C1659 C1658 1.434 . S
C1660 C1661 1.369 . S
C1660 C1662 1.419 . S
C1660 H1664 0.930 . S
C1661 C1660 1.369 . S
C1661 C1670 1.429 . S
C1662 C1660 1.419 . S
C1662 C1663 1.363 . S
C1662 H1665 0.929 . S
C1663 C1662 1.363 . S
C1663 C1669 1.428 . S
H1664 C1660 0.930 . S
H1665 C1662 0.929 . S
S1666 N1667 1.613 . S
S1666 N1668 1.610 . S
N1667 S1666 1.613 . S
N1667 C1670 1.350 . S
N1668 S1666 1.610 . S
N1668 C1669 1.351 . S
C1669 C1663 1.428 . S
C1669 N1668 1.351 . S
C1669 C1670 1.434 . S
C1670 C1661 1.429 . S
C1670 N1667 1.350 . S
C1670 C1669 1.434 . S
C1671 C1672 1.369 . S
C1671 C1673 1.419 . S
C1671 H1675 0.930 . S
C1672 C1671 1.369 . S
C1672 C1681 1.429 . S
C1673 C1671 1.419 . S
C1673 C1674 1.363 . S
C1673 H1676 0.929 . S
C1674 C1673 1.363 . S
C1674 C1680 1.428 . S
H1675 C1671 0.930 . S
H1676 C1673 0.929 . S
S1677 N1678 1.613 . S
S1677 N1679 1.610 . S
N1678 S1677 1.613 . S
N1678 C1681 1.350 . S
N1679 S1677 1.610 . S
N1679 C1680 1.351 . S
C1680 C1674 1.428 . S
C1680 N1679 1.351 . S
C1680 C1681 1.434 . S
C1681 C1672 1.429 . S
C1681 N1678 1.350 . S
C1681 C1680 1.434 . S
C1682 C1683 1.369 . S
C1682 C1684 1.419 . S
C1682 H1686 0.930 . S
C1683 C1682 1.369 . S
C1683 C1692 1.429 . S
C1684 C1682 1.419 . S
C1684 C1685 1.363 . S
C1684 H1687 0.929 . S
C1685 C1684 1.363 . S
C1685 C1691 1.428 . S
H1686 C1682 0.930 . S
H1687 C1684 0.929 . S
S1688 N1689 1.613 1_565 S
S1688 N1690 1.610 . S
N1689 S1688 1.613 1_545 S
N1689 C1692 1.350 . S
N1690 S1688 1.610 . S
N1690 C1691 1.351 1_565 S
C1691 C1685 1.428 . S
C1691 N1690 1.351 1_545 S
C1691 C1692 1.434 . S
C1692 C1683 1.429 . S
C1692 N1689 1.350 . S
C1692 C1691 1.434 . S
C1693 C1694 1.369 . S
C1693 C1695 1.419 . S
C1693 H1697 0.930 . S
C1694 C1693 1.369 . S
C1694 C1703 1.429 . S
C1695 C1693 1.419 . S
C1695 C1696 1.363 . S
C1695 H1698 0.929 . S
C1696 C1695 1.363 . S
C1696 C1702 1.428 . S
H1697 C1693 0.930 . S
H1698 C1695 0.929 . S
S1699 N1700 1.613 . S
S1699 N1701 1.610 1_565 S
N1700 S1699 1.613 . S
N1700 C1703 1.350 1_565 S
N1701 S1699 1.610 1_545 S
N1701 C1702 1.351 . S
C1702 C1696 1.428 . S
C1702 N1701 1.351 . S
C1702 C1703 1.434 . S
C1703 C1694 1.429 . S
C1703 N1700 1.350 1_545 S
C1703 C1702 1.434 . S
C1704 C1705 1.369 . S
C1704 C1706 1.419 . S
C1704 H1708 0.930 . S
C1705 C1704 1.369 . S
C1705 C1714 1.429 . S
C1706 C1704 1.419 . S
C1706 C1707 1.363 . S
C1706 H1709 0.929 . S
C1707 C1706 1.363 . S
C1707 C1713 1.428 . S
H1708 C1704 0.930 . S
H1709 C1706 0.929 . S
S1710 N1711 1.613 . S
S1710 N1712 1.610 . S
N1711 S1710 1.613 . S
N1711 C1714 1.350 . S
N1712 S1710 1.610 . S
N1712 C1713 1.351 . S
C1713 C1707 1.428 . S
C1713 N1712 1.351 . S
C1713 C1714 1.434 . S
C1714 C1705 1.429 . S
C1714 N1711 1.350 . S
C1714 C1713 1.434 . S
C1715 C1716 1.369 . S
C1715 C1717 1.419 . S
C1715 H1719 0.930 . S
C1716 C1715 1.369 . S
C1716 C1725 1.429 . S
C1717 C1715 1.419 . S
C1717 C1718 1.363 . S
C1717 H1720 0.929 . S
C1718 C1717 1.363 . S
C1718 C1724 1.428 . S
H1719 C1715 0.930 . S
H1720 C1717 0.929 . S
S1721 N1722 1.613 . S
S1721 N1723 1.610 . S
N1722 S1721 1.613 . S
N1722 C1725 1.350 . S
N1723 S1721 1.610 . S
N1723 C1724 1.351 . S
C1724 C1718 1.428 . S
C1724 N1723 1.351 . S
C1724 C1725 1.434 . S
C1725 C1716 1.429 . S
C1725 N1722 1.350 . S
C1725 C1724 1.434 . S
C1726 C1727 1.369 . S
C1726 C1728 1.419 . S
C1726 H1730 0.930 . S
C1727 C1726 1.369 . S
C1727 C1736 1.429 . S
C1728 C1726 1.419 . S
C1728 C1729 1.363 . S
C1728 H1731 0.929 . S
C1729 C1728 1.363 . S
C1729 C1735 1.428 . S
H1730 C1726 0.930 . S
H1731 C1728 0.929 . S
S1732 N1733 1.613 . S
S1732 N1734 1.610 . S
N1733 S1732 1.613 . S
N1733 C1736 1.350 . S
N1734 S1732 1.610 . S
N1734 C1735 1.351 . S
C1735 C1729 1.428 . S
C1735 N1734 1.351 . S
C1735 C1736 1.434 . S
C1736 C1727 1.429 . S
C1736 N1733 1.350 . S
C1736 C1735 1.434 . S
C1737 C1738 1.369 . S
C1737 C1739 1.419 . S
C1737 H1741 0.930 . S
C1738 C1737 1.369 . S
C1738 C1747 1.429 . S
C1739 C1737 1.419 . S
C1739 C1740 1.363 . S
C1739 H1742 0.929 . S
C1740 C1739 1.363 . S
C1740 C1746 1.428 . S
H1741 C1737 0.930 . S
H1742 C1739 0.929 . S
S1743 N1744 1.613 1_455 S
S1743 N1745 1.610 1_455 S
N1744 S1743 1.613 1_655 S
N1744 C1747 1.350 . S
N1745 S1743 1.610 1_655 S
N1745 C1746 1.351 . S
C1746 C1740 1.428 . S
C1746 N1745 1.351 . S
C1746 C1747 1.434 . S
C1747 C1738 1.429 . S
C1747 N1744 1.350 . S
C1747 C1746 1.434 . S
C1748 C1749 1.369 . S
C1748 C1750 1.419 . S
C1748 H1752 0.930 . S
C1749 C1748 1.369 . S
C1749 C1758 1.429 . S
C1750 C1748 1.419 . S
C1750 C1751 1.363 . S
C1750 H1753 0.929 . S
C1751 C1750 1.363 . S
C1751 C1757 1.428 . S
H1752 C1748 0.930 . S
H1753 C1750 0.929 . S
S1754 N1755 1.613 . S
S1754 N1756 1.610 . S
N1755 S1754 1.613 . S
N1755 C1758 1.350 . S
N1756 S1754 1.610 . S
N1756 C1757 1.351 . S
C1757 C1751 1.428 . S
C1757 N1756 1.351 . S
C1757 C1758 1.434 . S
C1758 C1749 1.429 . S
C1758 N1755 1.350 . S
C1758 C1757 1.434 . S
C1759 C1760 1.369 . S
C1759 C1761 1.419 . S
C1759 H1763 0.930 . S
C1760 C1759 1.369 . S
C1760 C1769 1.429 . S
C1761 C1759 1.419 . S
C1761 C1762 1.363 . S
C1761 H1764 0.929 . S
C1762 C1761 1.363 . S
C1762 C1768 1.428 . S
H1763 C1759 0.930 . S
H1764 C1761 0.929 . S
S1765 N1766 1.613 . S
S1765 N1767 1.610 . S
N1766 S1765 1.613 . S
N1766 C1769 1.350 . S
N1767 S1765 1.610 . S
N1767 C1768 1.351 . S
C1768 C1762 1.428 . S
C1768 N1767 1.351 . S
C1768 C1769 1.434 . S
C1769 C1760 1.429 . S
C1769 N1766 1.350 . S
C1769 C1768 1.434 . S
C1770 C1771 1.369 . S
C1770 C1772 1.419 . S
C1770 H1774 0.930 . S
C1771 C1770 1.369 . S
C1771 C1780 1.429 . S
C1772 C1770 1.419 . S
C1772 C1773 1.363 . S
C1772 H1775 0.929 . S
C1773 C1772 1.363 . S
C1773 C1779 1.428 . S
H1774 C1770 0.930 . S
H1775 C1772 0.929 . S
S1776 N1777 1.613 . S
S1776 N1778 1.610 . S
N1777 S1776 1.613 . S
N1777 C1780 1.350 . S
N1778 S1776 1.610 . S
N1778 C1779 1.351 . S
C1779 C1773 1.428 . S
C1779 N1778 1.351 . S
C1779 C1780 1.434 . S
C1780 C1771 1.429 . S
C1780 N1777 1.350 . S
C1780 C1779 1.434 . S
C1781 C1782 1.369 . S
C1781 C1783 1.419 . S
C1781 H1785 0.930 . S
C1782 C1781 1.369 . S
C1782 C1791 1.429 . S
C1783 C1781 1.419 . S
C1783 C1784 1.363 . S
C1783 H1786 0.929 . S
C1784 C1783 1.363 . S
C1784 C1790 1.428 . S
H1785 C1781 0.930 . S
H1786 C1783 0.929 . S
S1787 N1788 1.613 . S
S1787 N1789 1.610 . S
N1788 S1787 1.613 . S
N1788 C1791 1.350 . S
N1789 S1787 1.610 . S
N1789 C1790 1.351 . S
C1790 C1784 1.428 . S
C1790 N1789 1.351 . S
C1790 C1791 1.434 . S
C1791 C1782 1.429 . S
C1791 N1788 1.350 . S
C1791 C1790 1.434 . S
C1792 C1793 1.369 1_545 S
C1792 C1794 1.419 . S
C1792 H1796 0.930 . S
C1793 C1792 1.369 1_565 S
C1793 C1802 1.429 . S
C1794 C1792 1.419 . S
C1794 C1795 1.363 . S
C1794 H1797 0.929 . S
C1795 C1794 1.363 . S
C1795 C1801 1.428 1_545 S
H1796 C1792 0.930 . S
H1797 C1794 0.929 . S
S1798 N1799 1.613 . S
S1798 N1800 1.610 . S
N1799 S1798 1.613 . S
N1799 C1802 1.350 . S
N1800 S1798 1.610 . S
N1800 C1801 1.351 . S
C1801 C1795 1.428 1_565 S
C1801 N1800 1.351 . S
C1801 C1802 1.434 . S
C1802 C1793 1.429 . S
C1802 N1799 1.350 . S
C1802 C1801 1.434 . S
C1803 C1804 1.369 . S
C1803 C1805 1.419 . S
C1803 H1807 0.930 . S
C1804 C1803 1.369 . S
C1804 C1813 1.429 . S
C1805 C1803 1.419 . S
C1805 C1806 1.363 . S
C1805 H1808 0.929 . S
C1806 C1805 1.363 . S
C1806 C1812 1.428 . S
H1807 C1803 0.930 . S
H1808 C1805 0.929 . S
S1809 N1810 1.613 . S
S1809 N1811 1.610 . S
N1810 S1809 1.613 . S
N1810 C1813 1.350 . S
N1811 S1809 1.610 . S
N1811 C1812 1.351 . S
C1812 C1806 1.428 . S
C1812 N1811 1.351 . S
C1812 C1813 1.434 . S
C1813 C1804 1.429 . S
C1813 N1810 1.350 . S
C1813 C1812 1.434 . S
C1814 C1815 1.369 . S
C1814 C1816 1.419 . S
C1814 H1818 0.930 . S
C1815 C1814 1.369 . S
C1815 C1824 1.429 1_565 S
C1816 C1814 1.419 . S
C1816 C1817 1.363 1_565 S
C1816 H1819 0.929 . S
C1817 C1816 1.363 1_545 S
C1817 C1823 1.428 . S
H1818 C1814 0.930 . S
H1819 C1816 0.929 . S
S1820 N1821 1.613 . S
S1820 N1822 1.610 . S
N1821 S1820 1.613 . S
N1821 C1824 1.350 . S
N1822 S1820 1.610 . S
N1822 C1823 1.351 . S
C1823 C1817 1.428 . S
C1823 N1822 1.351 . S
C1823 C1824 1.434 . S
C1824 C1815 1.429 1_545 S
C1824 N1821 1.350 . S
C1824 C1823 1.434 . S
C1825 C1826 1.369 . S
C1825 C1827 1.419 1_554 S
C1825 H1829 0.930 . S
C1826 C1825 1.369 . S
C1826 C1835 1.429 . S
C1827 C1825 1.419 1_556 S
C1827 C1828 1.363 . S
C1827 H1830 0.929 . S
C1828 C1827 1.363 . S
C1828 C1834 1.428 . S
H1829 C1825 0.930 . S
H1830 C1827 0.929 . S
S1831 N1832 1.613 1_556 S
S1831 N1833 1.610 . S
N1832 S1831 1.613 1_554 S
N1832 C1835 1.350 . S
N1833 S1831 1.610 . S
N1833 C1834 1.351 . S
C1834 C1828 1.428 . S
C1834 N1833 1.351 . S
C1834 C1835 1.434 1_556 S
C1835 C1826 1.429 . S
C1835 N1832 1.350 . S
C1835 C1834 1.434 1_554 S
C1836 C1837 1.369 1_565 S
C1836 C1838 1.419 . S
C1836 H1840 0.930 . S
C1837 C1836 1.369 1_545 S
C1837 C1846 1.429 . S
C1838 C1836 1.419 . S
C1838 C1839 1.363 . S
C1838 H1841 0.929 . S
C1839 C1838 1.363 . S
C1839 C1845 1.428 1_565 S
H1840 C1836 0.930 . S
H1841 C1838 0.929 . S
S1842 N1843 1.613 . S
S1842 N1844 1.610 . S
N1843 S1842 1.613 . S
N1843 C1846 1.350 . S
N1844 S1842 1.610 . S
N1844 C1845 1.351 . S
C1845 C1839 1.428 1_545 S
C1845 N1844 1.351 . S
C1845 C1846 1.434 . S
C1846 C1837 1.429 . S
C1846 N1843 1.350 . S
C1846 C1845 1.434 . S
C1847 C1848 1.369 . S
C1847 C1849 1.419 . S
C1847 H1851 0.930 . S
C1848 C1847 1.369 . S
C1848 C1857 1.429 . S
C1849 C1847 1.419 . S
C1849 C1850 1.363 . S
C1849 H1852 0.929 . S
C1850 C1849 1.363 . S
C1850 C1856 1.428 . S
H1851 C1847 0.930 . S
H1852 C1849 0.929 . S
S1853 N1854 1.613 . S
S1853 N1855 1.610 . S
N1854 S1853 1.613 . S
N1854 C1857 1.350 . S
N1855 S1853 1.610 . S
N1855 C1856 1.351 . S
C1856 C1850 1.428 . S
C1856 N1855 1.351 . S
C1856 C1857 1.434 . S
C1857 C1848 1.429 . S
C1857 N1854 1.350 . S
C1857 C1856 1.434 . S
C1858 C1859 1.369 . S
C1858 C1860 1.419 . S
C1858 H1862 0.930 . S
C1859 C1858 1.369 . S
C1859 C1868 1.429 1_565 S
C1860 C1858 1.419 . S
C1860 C1861 1.363 1_565 S
C1860 H1863 0.929 . S
C1861 C1860 1.363 1_545 S
C1861 C1867 1.428 . S
H1862 C1858 0.930 . S
H1863 C1860 0.929 . S
S1864 N1865 1.613 . S
S1864 N1866 1.610 . S
N1865 S1864 1.613 . S
N1865 C1868 1.350 . S
N1866 S1864 1.610 . S
N1866 C1867 1.351 . S
C1867 C1861 1.428 . S
C1867 N1866 1.351 . S
C1867 C1868 1.434 . S
C1868 C1859 1.429 1_545 S
C1868 N1865 1.350 . S
C1868 C1867 1.434 . S
C1869 C1870 1.369 . S
C1869 C1871 1.419 1_556 S
C1869 H1873 0.930 . S
C1870 C1869 1.369 . S
C1870 C1879 1.429 . S
C1871 C1869 1.419 1_554 S
C1871 C1872 1.363 . S
C1871 H1874 0.929 . S
C1872 C1871 1.363 . S
C1872 C1878 1.428 . S
H1873 C1869 0.930 . S
H1874 C1871 0.929 . S
S1875 N1876 1.613 1_554 S
S1875 N1877 1.610 . S
N1876 S1875 1.613 1_556 S
N1876 C1879 1.350 . S
N1877 S1875 1.610 . S
N1877 C1878 1.351 . S
C1878 C1872 1.428 . S
C1878 N1877 1.351 . S
C1878 C1879 1.434 1_554 S
C1879 C1870 1.429 . S
C1879 N1876 1.350 . S
C1879 C1878 1.434 1_556 S
C1880 C1881 1.369 . S
C1880 C1882 1.419 . S
C1880 H1884 0.930 . S
C1881 C1880 1.369 . S
C1881 C1890 1.429 . S
C1882 C1880 1.419 . S
C1882 C1883 1.363 . S
C1882 H1885 0.929 . S
C1883 C1882 1.363 . S
C1883 C1889 1.428 . S
H1884 C1880 0.930 . S
H1885 C1882 0.929 . S
S1886 N1887 1.613 . S
S1886 N1888 1.610 . S
N1887 S1886 1.613 . S
N1887 C1890 1.350 . S
N1888 S1886 1.610 . S
N1888 C1889 1.351 . S
C1889 C1883 1.428 . S
C1889 N1888 1.351 . S
C1889 C1890 1.434 . S
C1890 C1881 1.429 . S
C1890 N1887 1.350 . S
C1890 C1889 1.434 . S
C1891 C1892 1.369 . S
C1891 C1893 1.419 1_556 S
C1891 H1895 0.930 . S
C1892 C1891 1.369 . S
C1892 C1901 1.429 . S
C1893 C1891 1.419 1_554 S
C1893 C1894 1.363 . S
C1893 H1896 0.929 . S
C1894 C1893 1.363 . S
C1894 C1900 1.428 . S
H1895 C1891 0.930 . S
H1896 C1893 0.929 . S
S1897 N1898 1.613 . S
S1897 N1899 1.610 1_556 S
N1898 S1897 1.613 . S
N1898 C1901 1.350 . S
N1899 S1897 1.610 1_554 S
N1899 C1900 1.351 . S
C1900 C1894 1.428 . S
C1900 N1899 1.351 . S
C1900 C1901 1.434 1_554 S
C1901 C1892 1.429 . S
C1901 N1898 1.350 . S
C1901 C1900 1.434 1_556 S
C1902 C1903 1.369 . S
C1902 C1904 1.419 . S
C1902 H1906 0.930 . S
C1903 C1902 1.369 . S
C1903 C1912 1.429 . S
C1904 C1902 1.419 . S
C1904 C1905 1.363 . S
C1904 H1907 0.929 . S
C1905 C1904 1.363 . S
C1905 C1911 1.428 . S
H1906 C1902 0.930 . S
H1907 C1904 0.929 . S
S1908 N1909 1.613 . S
S1908 N1910 1.610 . S
N1909 S1908 1.613 . S
N1909 C1912 1.350 . S
N1910 S1908 1.610 . S
N1910 C1911 1.351 . S
C1911 C1905 1.428 . S
C1911 N1910 1.351 . S
C1911 C1912 1.434 . S
C1912 C1903 1.429 . S
C1912 N1909 1.350 . S
C1912 C1911 1.434 . S
C1913 C1914 1.369 . S
C1913 C1915 1.419 . S
C1913 H1917 0.930 . S
C1914 C1913 1.369 . S
C1914 C1923 1.429 . S
C1915 C1913 1.419 . S
C1915 C1916 1.363 . S
C1915 H1918 0.929 . S
C1916 C1915 1.363 . S
C1916 C1922 1.428 . S
H1917 C1913 0.930 . S
H1918 C1915 0.929 . S
S1919 N1920 1.613 . S
S1919 N1921 1.610 . S
N1920 S1919 1.613 . S
N1920 C1923 1.350 . S
N1921 S1919 1.610 . S
N1921 C1922 1.351 . S
C1922 C1916 1.428 . S
C1922 N1921 1.351 . S
C1922 C1923 1.434 . S
C1923 C1914 1.429 . S
C1923 N1920 1.350 . S
C1923 C1922 1.434 . S
C1924 C1925 1.369 . S
C1924 C1926 1.419 . S
C1924 H1928 0.930 . S
C1925 C1924 1.369 . S
C1925 C1934 1.429 . S
C1926 C1924 1.419 . S
C1926 C1927 1.363 . S
C1926 H1929 0.929 . S
C1927 C1926 1.363 . S
C1927 C1933 1.428 . S
H1928 C1924 0.930 . S
H1929 C1926 0.929 . S
S1930 N1931 1.613 . S
S1930 N1932 1.610 . S
N1931 S1930 1.613 . S
N1931 C1934 1.350 . S
N1932 S1930 1.610 . S
N1932 C1933 1.351 . S
C1933 C1927 1.428 . S
C1933 N1932 1.351 . S
C1933 C1934 1.434 . S
C1934 C1925 1.429 . S
C1934 N1931 1.350 . S
C1934 C1933 1.434 . S
C1935 C1936 1.369 . S
C1935 C1937 1.419 1_556 S
C1935 H1939 0.930 . S
C1936 C1935 1.369 . S
C1936 C1945 1.429 . S
C1937 C1935 1.419 1_554 S
C1937 C1938 1.363 . S
C1937 H1940 0.929 . S
C1938 C1937 1.363 . S
C1938 C1944 1.428 . S
H1939 C1935 0.930 . S
H1940 C1937 0.929 . S
S1941 N1942 1.580 1_554 S
S1941 N1943 1.643 . S
N1942 S1941 1.580 1_556 S
N1942 C1945 1.350 . S
N1943 S1941 1.643 . S
N1943 C1944 1.351 . S
C1944 C1938 1.428 . S
C1944 N1943 1.351 . S
C1944 C1945 1.434 1_554 S
C1945 C1936 1.429 . S
C1945 N1942 1.350 . S
C1945 C1944 1.434 1_556 S
C1946 C1947 1.369 . S
C1946 C1948 1.419 . S
C1946 H1950 0.930 . S
C1947 C1946 1.369 . S
C1947 C1956 1.429 . S
C1948 C1946 1.419 . S
C1948 C1949 1.363 . S
C1948 H1951 0.929 . S
C1949 C1948 1.363 . S
C1949 C1955 1.428 . S
H1950 C1946 0.930 . S
H1951 C1948 0.929 . S
S1952 N1953 1.613 . S
S1952 N1954 1.610 . S
N1953 S1952 1.613 . S
N1953 C1956 1.350 . S
N1954 S1952 1.610 . S
N1954 C1955 1.351 . S
C1955 C1949 1.428 . S
C1955 N1954 1.351 . S
C1955 C1956 1.434 . S
C1956 C1947 1.429 . S
C1956 N1953 1.350 . S
C1956 C1955 1.434 . S
C1957 C1958 1.369 . S
C1957 C1959 1.419 . S
C1957 H1961 0.930 . S
C1958 C1957 1.369 . S
C1958 C1967 1.429 . S
C1959 C1957 1.419 . S
C1959 C1960 1.363 . S
C1959 H1962 0.929 . S
C1960 C1959 1.363 . S
C1960 C1966 1.428 . S
H1961 C1957 0.930 . S
H1962 C1959 0.929 . S
S1963 N1964 1.613 . S
S1963 N1965 1.610 . S
N1964 S1963 1.613 . S
N1964 C1967 1.350 . S
N1965 S1963 1.610 . S
N1965 C1966 1.351 . S
C1966 C1960 1.428 . S
C1966 N1965 1.351 . S
C1966 C1967 1.434 . S
C1967 C1958 1.429 . S
C1967 N1964 1.350 . S
C1967 C1966 1.434 . S
C1089 C20 1.371 . S
C1091 C985 1.347 . S
C1100 C54 1.370 . S
C1102 C475 1.349 . S
C1111 C88 1.371 . S
C1113 C1053 1.348 . S
C1122 C122 1.370 . S
C1124 C543 1.350 . S
C1133 C849 1.347 . S
C1135 C156 1.372 . S
C1144 C190 1.371 . S
C1146 C339 1.349 . S
C1155 C224 1.374 . S
C1157 C917 1.344 . S
C1166 C407 1.351 . S
C1168 C258 1.370 . S
C1177 C713 1.347 . S
C1179 C292 1.371 . S
C1188 C326 1.374 . S
C1190 C203 1.344 . S
C1199 C360 1.372 . S
C1201 C781 1.346 . S
C1210 C271 1.351 . S
C1212 C394 1.371 . S
C1221 C577 1.344 . S
C1223 C428 1.373 . S
C1232 C67 1.343 . S
C1234 C462 1.374 . S
C1243 C496 1.374 . S
C1245 C645 1.345 . S
C1254 C530 1.370 . S
C1256 C135 1.348 . S
C1265 C564 1.371 . S
C1267 C441 1.348 . S
C1276 C1019 1.349 . S
C1278 C598 1.372 . S
C1287 C509 1.343 . S
C1289 C632 1.374 . S
C1298 C1087 1.349 . S
C1300 C666 1.371 . S
C1309 C305 1.349 . S
C1311 C700 1.372 . S
C1320 C734 1.374 . S
C1322 C883 1.344 . S
C1331 C373 1.351 . S
C1333 C768 1.371 . S
C1342 C951 1.344 . S
C1344 C802 1.373 . S
C1353 C169 1.350 . S
C1355 C836 1.370 . S
C1364 C747 1.343 . S
C1366 C870 1.373 . S
C1375 C237 1.345 . S
C1377 C904 1.372 . S
C1386 C815 1.351 . S
C1388 C938 1.370 . S
C1397 C33 1.345 . S
C1399 C972 1.373 . S
C1408 C611 1.349 . S
C1410 C1006 1.372 . S
C1419 C1040 1.374 . S
C1421 C101 1.346 . S
C1430 C679 1.351 . S
C1432 C1074 1.370 . S
C1441 C614 1.101 . S
C1443 C2 1.101 . S
C1452 C36 1.111 . S
C1454 C648 1.097 . S
C1463 C546 1.111 . S
C1465 C70 1.095 . S
C1474 C104 1.112 . S
C1476 C580 1.095 . S
C1485 C750 1.097 . S
C1487 C138 1.105 . S
C1496 C784 1.104 . S
C1498 C172 1.099 . S
C1507 C206 1.109 . S
C1509 C682 1.096 . S
C1518 C716 1.099 . S
C1520 C240 1.107 . S
C1529 C274 1.095 . S
C1531 C886 1.108 . S
C1540 C308 1.111 . S
C1542 C920 1.096 . S
C1551 C818 1.102 . S
C1553 C342 1.102 . S
C1562 C852 1.096 . S
C1564 C376 1.107 . S
C1573 C410 1.108 . S
C1575 C1022 1.099 . S
C1584 C1056 1.094 . S
C1586 C444 1.109 . S
C1595 C954 1.108 . S
C1597 C478 1.099 . S
C1606 C988 1.101 . S
C1608 C512 1.104 . S
C1617 C5 1.578 . S
C1619 C175 1.578 . S
C1628 C39 1.578 . S
C1630 C209 1.578 . S
C1639 C73 1.577 . S
C1641 C243 1.578 . S
C1650 C107 1.578 . S
C1652 C141 1.578 . S
C1661 C277 1.578 . S
C1663 C447 1.578 . S
C1672 C481 1.577 . S
C1674 C311 1.578 . S
C1683 C515 1.578 . S
C1685 C345 1.578 . S
C1694 C413 1.579 . S
C1696 C379 1.578 . S
C1705 C549 1.578 . S
C1707 C719 1.578 . S
C1716 C583 1.577 . S
C1718 C753 1.579 . S
C1727 C787 1.577 . S
C1729 C617 1.579 . S
C1738 C685 1.579 . S
C1740 C651 1.577 . S
C1749 C821 1.578 . S
C1751 C991 1.578 . S
C1760 C1025 1.578 . S
C1762 C855 1.578 . S
C1771 C1059 1.579 . S
C1773 C889 1.578 . S
C1782 C923 1.578 . S
C1784 C957 1.577 . S
C1793 C145 1.451 . S
C1795 C9 1.454 . S
C1804 C43 1.448 . S
C1806 C179 1.451 . S
C1815 C77 1.453 . S
C1817 C213 1.450 . S
C1826 C111 1.447 . S
C1828 C247 1.450 . S
C1837 C417 1.447 . S
C1839 C281 1.450 . S
C1848 C315 1.458 . S
C1850 C451 1.456 . S
C1859 C485 1.450 . S
C1861 C349 1.449 . S
C1870 C383 1.448 . S
C1872 C519 1.451 . S
C1881 C553 1.450 . S
C1883 C689 1.453 . S
C1892 C723 1.450 . S
C1894 C587 1.448 . S
C1903 C757 1.448 . S
C1905 C621 1.451 . S
C1914 C791 1.457 . S
C1916 C655 1.457 . S
C1925 C825 1.447 . S
C1927 C961 1.449 . S
C1936 C859 1.447 . S
C1938 C995 1.449 . S
C1947 C893 1.453 . S
C1949 C1029 1.451 . S
C1958 C927 1.457 . S
C1960 C1063 1.455 . S
