# Generated by pormake.
# Topology smk, (6)-cn, num edge types: 1
# Building blocks:
#     Node 0, Type 0, BuildingBlock: IZENUY_clean_sbu_0, # of connection points: 6
#     Node 1, Type 0, BuildingBlock: IZENUY_clean_sbu_0, # of connection points: 6
#     Node 2, Type 0, BuildingBlock: IZENUY_clean_sbu_0, # of connection points: 6
#     Node 3, Type 0, BuildingBlock: IZENUY_clean_sbu_0, # of connection points: 6
#     Node 4, Type 0, BuildingBlock: IZENUY_clean_sbu_0, # of connection points: 6
#     Node 5, Type 0, BuildingBlock: IZENUY_clean_sbu_0, # of connection points: 6
#     Edge 6, Type (0, 0), BuildingBlock: KIFKEQ_clean_linker_1, # of connection points: 2
#     Edge 7, Type (0, 0), BuildingBlock: KIFKEQ_clean_linker_1, # of connection points: 2
#     Edge 8, Type (0, 0), BuildingBlock: KIFKEQ_clean_linker_1, # of connection points: 2
#     Edge 9, Type (0, 0), BuildingBlock: KIFKEQ_clean_linker_1, # of connection points: 2
#     Edge 10, Type (0, 0), BuildingBlock: KIFKEQ_clean_linker_1, # of connection points: 2
#     Edge 11, Type (0, 0), BuildingBlock: KIFKEQ_clean_linker_1, # of connection points: 2
#     Edge 12, Type (0, 0), BuildingBlock: KIFKEQ_clean_linker_1, # of connection points: 2
#     Edge 13, Type (0, 0), BuildingBlock: KIFKEQ_clean_linker_1, # of connection points: 2
#     Edge 14, Type (0, 0), BuildingBlock: KIFKEQ_clean_linker_1, # of connection points: 2
#     Edge 15, Type (0, 0), BuildingBlock: KIFKEQ_clean_linker_1, # of connection points: 2
#     Edge 16, Type (0, 0), BuildingBlock: KIFKEQ_clean_linker_1, # of connection points: 2
#     Edge 17, Type (0, 0), BuildingBlock: KIFKEQ_clean_linker_1, # of connection points: 2
#     Edge 18, Type (0, 0), BuildingBlock: KIFKEQ_clean_linker_1, # of connection points: 2
#     Edge 19, Type (0, 0), BuildingBlock: KIFKEQ_clean_linker_1, # of connection points: 2
#     Edge 20, Type (0, 0), BuildingBlock: KIFKEQ_clean_linker_1, # of connection points: 2
#     Edge 21, Type (0, 0), BuildingBlock: KIFKEQ_clean_linker_1, # of connection points: 2
#     Edge 22, Type (0, 0), BuildingBlock: KIFKEQ_clean_linker_1, # of connection points: 2
#     Edge 23, Type (0, 0), BuildingBlock: KIFKEQ_clean_linker_1, # of connection points: 2
# Relax obj value: 0.171
# Max RMSD: 0.207
# Mean RMSD: 0.207
data_MOF--net-smk--node1-IZENUY_clean_sbu_0--edge1-KIFKEQ_clean_linker_1
_symmetry_space_group_name_H-M    P1
_symmetry_Int_Tables_number       1
_symmetry_cell_setting            triclinic
loop_
_symmetry_equiv_pos_as_xyz
'x, y, z'
_cell_length_a     42.640114
_cell_length_b     42.637838
_cell_length_c     15.366389
_cell_angle_alpha  90.035586
_cell_angle_beta   89.989933
_cell_angle_gamma 120.05845
loop_
_atom_site_label
_atom_site_type_symbol
_atom_site_fract_x
_atom_site_fract_y
_atom_site_fract_z
_atom_type_partial_charge
Fe0 Fe 0.47232 0.26187 0.6744 0.0
Fe1 Fe 0.40067 0.20265 0.59593 0.0
O2 O 0.44872 0.22816 0.59493 0.0
Fe3 Fe 0.47323 0.21977 0.51454 0.0
O4 O 0.49606 0.20744 0.5955 0.0
O5 O 0.51165 0.25499 0.67852 0.0
O6 O 0.45297 0.22896 0.76051 0.0
C7 C 0.41959 0.20954 0.77544 0.0
C8 C 0.51341 0.29652 0.5332 0.0
O9 O 0.39649 0.20349 0.71611 0.0
C10 C 0.41848 0.2158 0.41585 0.0
O11 O 0.43722 0.27489 0.6846 0.0
O12 O 0.39728 0.24301 0.58348 0.0
O13 O 0.51111 0.26693 0.50957 0.0
O14 O 0.49359 0.29706 0.59326 0.0
C15 C 0.4154 0.14923 0.55532 0.0
O16 O 0.39617 0.19734 0.4756 0.0
O17 O 0.45209 0.23179 0.42968 0.0
C18 C 0.41132 0.26971 0.63472 0.0
O19 O 0.40092 0.16055 0.60884 0.0
O20 O 0.43984 0.17103 0.50373 0.0
C21 C 0.51529 0.22839 0.65567 0.0
Fe22 Fe 0.22751 0.46822 0.84998 0.0
Fe23 Fe 0.2104 0.39545 0.76974 0.0
O24 O 0.23604 0.4435 0.77038 0.0
Fe25 Fe 0.26996 0.46693 0.6913 0.0
O26 O 0.30498 0.48837 0.77289 0.0
O27 O 0.27465 0.5061 0.85517 0.0
O28 O 0.23935 0.44724 0.93562 0.0
C29 C 0.22339 0.41364 0.9497 0.0
C30 C 0.23637 0.50984 0.70781 0.0
O31 O 0.20498 0.39121 0.89004 0.0
C32 C 0.21763 0.41409 0.59011 0.0
O33 O 0.17877 0.43492 0.86053 0.0
O34 O 0.16836 0.39577 0.75601 0.0
O35 O 0.26311 0.50625 0.68607 0.0
O36 O 0.21535 0.49084 0.76809 0.0
C37 C 0.27745 0.4058 0.73214 0.0
O38 O 0.21137 0.39103 0.64966 0.0
O39 O 0.23726 0.44747 0.60475 0.0
C40 C 0.15702 0.41043 0.80895 0.0
O41 O 0.25065 0.39191 0.783 0.0
O42 O 0.28292 0.43175 0.68215 0.0
C43 C 0.3043 0.50836 0.83234 0.0
Fe44 Fe 0.83177 0.20667 0.92721 0.0
Fe45 Fe 0.81664 0.26389 0.84834 0.0
O46 O 0.80659 0.22951 0.92576 0.0
Fe47 Fe 0.77137 0.21832 1.00144 0.0
O48 O 0.80248 0.23029 0.09115 0.0
O49 O 0.82952 0.20064 0.0471 0.0
O50 O 0.87407 0.24873 0.94381 0.0
C51 C 0.88624 0.27524 0.89228 0.0
C52 C 0.76388 0.14982 0.95962 0.0
O53 O 0.86519 0.27875 0.84021 0.0
C54 C 0.73982 0.22774 0.85825 0.0
O55 O 0.83818 0.20862 0.80717 0.0
O56 O 0.80537 0.23197 0.7607 0.0
O57 O 0.75783 0.17006 1.00888 0.0
O58 O 0.79144 0.16298 0.91116 0.0
C59 C 0.80609 0.29517 0.99071 0.0
O60 O 0.76998 0.25557 0.84074 0.0
O61 O 0.73788 0.2058 0.91581 0.0
C62 C 0.82056 0.21356 0.7471 0.0
O63 O 0.82821 0.2977 0.93274 0.0
O64 O 0.77863 0.26467 1.0085 0.0
C65 C 0.82229 0.21682 0.10648 0.0
Fe66 Fe 0.64157 0.82522 0.09929 0.0
Fe67 Fe 0.56877 0.80999 0.02213 0.0
O68 O 0.59347 0.80065 0.10008 0.0
Fe69 Fe 0.56992 0.76673 0.17917 0.0
O70 O 0.59 0.79941 0.26553 0.0
O71 O 0.64625 0.82412 0.21936 0.0
O72 O 0.64282 0.8679 0.11349 0.0
C73 C 0.62829 0.87998 0.06234 0.0
C74 C 0.62997 0.75778 0.13651 0.0
O75 O 0.60249 0.85872 1.01287 0.0
C76 C 0.52813 0.73305 0.03821 0.0
O77 O 0.64545 0.8307 0.97914 0.0
O78 O 0.58903 0.79822 0.93458 0.0
O79 O 0.60462 0.75308 0.18766 0.0
O80 O 0.64377 0.78429 0.08494 0.0
C81 C 0.52747 0.80089 0.16497 0.0
O82 O 0.53058 0.7629 0.01627 0.0
O83 O 0.54806 0.73198 0.09728 0.0
C84 C 0.62251 0.81324 0.91969 0.0
O85 O 0.54673 0.82219 0.10551 0.0
O86 O 0.53084 0.77394 0.18561 0.0
C87 C 0.62351 0.81861 0.27931 0.0
Fe88 Fe 0.83227 0.63319 0.26752 0.0
Fe89 Fe 0.77255 0.56178 0.18916 0.0
O90 O 0.80649 0.58514 0.26825 0.0
Fe91 Fe 0.81484 0.56037 0.34799 0.0
O92 O 0.8032 0.58159 0.43352 0.0
O93 O 0.83774 0.63754 0.38781 0.0
O94 O 0.79211 0.6369 0.28075 0.0
C95 C 0.76527 0.62299 0.22997 0.0
C96 C 0.88549 0.61801 0.30696 0.0
O97 O 0.75984 0.5971 0.17975 0.0
C98 C 0.8056 0.51837 0.20622 0.0
O99 O 0.83129 0.63748 0.14741 0.0
O100 O 0.80529 0.581 0.10265 0.0
O101 O 0.86367 0.59351 0.3584 0.0
O102 O 0.87421 0.63267 0.25389 0.0
C103 C 0.73803 0.52067 0.3304 0.0
O104 O 0.77906 0.52224 0.18422 0.0
O105 O 0.82676 0.53743 0.26628 0.0
C106 C 0.82497 0.61435 0.08791 0.0
O107 O 0.73753 0.54066 0.27074 0.0
O108 O 0.76757 0.5227 0.35332 0.0
C109 C 0.81929 0.6152 0.44751 0.0
Fe110 Fe 0.21126 0.82288 0.43149 0.0
Fe111 Fe 0.22573 0.765 0.35362 0.0
O112 O 0.2355 0.7991 0.43159 0.0
Fe113 Fe 0.26964 0.8093 0.5097 0.0
O114 O 0.23729 0.79678 0.59679 0.0
O115 O 0.21265 0.82852 0.55165 0.0
O116 O 0.16829 0.7813 0.446 0.0
C117 C 0.15619 0.75468 0.3946 0.0
C118 C 0.27917 0.87848 0.46838 0.0
O119 O 0.17735 0.75069 0.34382 0.0
C120 C 0.30249 0.80064 0.36791 0.0
O121 O 0.20567 0.82135 0.31132 0.0
O122 O 0.23794 0.79723 0.26639 0.0
O123 O 0.28338 0.85753 0.51933 0.0
O124 O 0.25256 0.86611 0.41696 0.0
C125 C 0.23474 0.73263 0.49587 0.0
O126 O 0.27237 0.77309 0.34818 0.0
O127 O 0.30409 0.82219 0.42634 0.0
C128 C 0.22316 0.81593 0.25181 0.0
O129 O 0.21315 0.73065 0.43715 0.0
O130 O 0.2621 0.7629 0.51536 0.0
C131 C 0.21825 0.81121 0.61122 0.0
H132 H 0.45201 0.26651 0.29132 0.0
H133 H 0.35972 0.15981 0.33283 0.0
H134 H 0.4431 0.2584 0.13465 0.0
H135 H 0.3508 0.15185 0.17408 0.0
H136 H 0.35751 0.1992 0.85743 0.0
H137 H 0.34772 0.19733 0.01595 0.0
H138 H 0.44782 0.19764 0.05833 0.0
H139 H 0.45762 0.19933 0.90194 0.0
C140 C 0.42919 0.24169 0.26699 0.0
C141 C 0.40679 0.21366 0.32429 0.0
C142 C 0.42412 0.2371 0.17737 0.0
C143 C 0.3965 0.20444 0.14282 0.0
C144 C 0.37217 0.17734 0.19964 0.0
C145 C 0.37724 0.18196 0.29018 0.0
C146 C 0.37675 0.19766 0.90069 0.0
C147 C 0.40856 0.19985 0.8674 0.0
C148 C 0.37116 0.19667 0.99109 0.0
C149 C 0.39725 0.1977 0.04865 0.0
C150 C 0.42747 0.19704 1.015 0.0
C151 C 0.43304 0.19804 0.92552 0.0
H152 H 0.20625 0.45161 0.46462 0.0
H153 H 0.20803 0.35239 0.5075 0.0
H154 H 0.20438 0.44201 0.30811 0.0
H155 H 0.20601 0.3428 0.34884 0.0
H156 H 0.27378 0.44784 0.07468 0.0
H157 H 0.26573 0.43866 0.23126 0.0
H158 H 0.15999 0.3452 0.19111 0.0
H159 H 0.16789 0.35438 0.03243 0.0
C160 C 0.20532 0.42725 0.44064 0.0
C161 C 0.20773 0.40298 0.4983 0.0
C162 C 0.20421 0.42178 0.3511 0.0
C163 C 0.20538 0.3919 0.31694 0.0
C164 C 0.20494 0.36597 0.37409 0.0
C165 C 0.20601 0.37144 0.46457 0.0
C166 C 0.24915 0.42474 0.09882 0.0
C167 C 0.22131 0.40207 0.04134 0.0
C168 C 0.2446 0.41951 0.18838 0.0
C169 C 0.21217 0.39146 0.22272 0.0
C170 C 0.18529 0.36692 0.16572 0.0
C171 C 0.18988 0.37214 0.07522 0.0
H172 H 0.83369 0.16591 0.18917 0.0
H173 H 0.83188 0.26514 0.23218 0.0
H174 H 0.83672 0.15898 0.3478 0.0
H175 H 0.83479 0.25805 0.38859 0.0
H176 H 0.87641 0.21134 0.66234 0.0
H177 H 0.88306 0.20921 0.50332 0.0
H178 H 0.77542 0.19252 0.46818 0.0
H179 H 0.7687 0.19464 0.62513 0.0
C180 C 0.83504 0.18671 0.23211 0.0
C181 C 0.83207 0.21583 0.19846 0.0
C182 C 0.83673 0.18269 0.32254 0.0
C183 C 0.83566 0.20786 0.3797 0.0
C184 C 0.83544 0.23823 0.34557 0.0
C185 C 0.8337 0.2422 0.2561 0.0
C186 C 0.85378 0.20594 0.62057 0.0
C187 C 0.82216 0.2035 0.6558 0.0
C188 C 0.85764 0.2048 0.52991 0.0
C189 C 0.82981 0.20098 0.4742 0.0
C190 C 0.79726 0.19563 0.51006 0.0
C191 C 0.79347 0.19688 0.59977 0.0
H192 H 0.58825 0.83392 0.40294 0.0
H193 H 0.68358 0.82471 0.36288 0.0
H194 H 0.59732 0.83576 0.55967 0.0
H195 H 0.69263 0.82664 0.52176 0.0
H196 H 0.68371 0.86643 0.83749 0.0
H197 H 0.69344 0.87422 0.67892 0.0
H198 H 0.59544 0.77217 0.63721 0.0
H199 H 0.5857 0.76421 0.79359 0.0
C200 C 0.61172 0.83327 0.42761 0.0
C201 C 0.63497 0.82876 0.37076 0.0
C202 C 0.61689 0.83435 0.51725 0.0
C203 C 0.64543 0.83101 0.55227 0.0
C204 C 0.67053 0.82942 0.49583 0.0
C205 C 0.66538 0.82841 0.40524 0.0
C206 C 0.66495 0.84519 0.79436 0.0
C207 C 0.63369 0.81491 0.82779 0.0
C208 C 0.67051 0.84971 0.70394 0.0
C209 C 0.64495 0.82391 0.64655 0.0
C210 C 0.61536 0.79249 0.6804 0.0
C211 C 0.60982 0.788 0.76987 0.0
H212 H 0.76861 0.58159 0.57209 0.0
H213 H 0.87523 0.67402 0.53057 0.0
H214 H 0.77664 0.59062 0.72874 0.0
H215 H 0.88311 0.68305 0.68932 0.0
H216 H 0.83537 0.6764 1.00574 0.0
H217 H 0.83745 0.68613 0.84717 0.0
H218 H 0.8374 0.5861 0.80542 0.0
H219 H 0.83548 0.57637 0.96185 0.0
C220 C 0.79341 0.60445 0.59641 0.0
C221 C 0.82144 0.62687 0.53912 0.0
C222 C 0.79794 0.60959 0.68601 0.0
C223 C 0.83055 0.63729 0.72057 0.0
C224 C 0.85766 0.66162 0.66375 0.0
C225 C 0.85309 0.65649 0.57322 0.0
C226 C 0.83702 0.65718 0.96261 0.0
C227 C 0.83482 0.62539 0.99605 0.0
C228 C 0.83813 0.66273 0.87218 0.0
C229 C 0.83723 0.63664 0.81478 0.0
C230 C 0.83791 0.60646 0.84862 0.0
C231 C 0.83677 0.60092 0.93812 0.0
H232 H 0.16951 0.82278 0.16883 0.0
H233 H 0.27295 0.82963 0.1269 0.0
H234 H 0.16204 0.82467 1.01012 0.0
H235 H 0.26533 0.83139 0.97032 0.0
H236 H 0.21113 0.86465 0.69458 0.0
H237 H 0.20919 0.87197 0.85338 0.0
H238 H 0.2027 0.76874 0.89229 0.0
H239 H 0.2045 0.76128 0.73564 0.0
C240 C 0.19109 0.82588 0.12609 0.0
C241 C 0.22163 0.82562 0.16006 0.0
C242 C 0.18675 0.82688 0.0356 0.0
C243 C 0.213 0.82782 0.97869 0.0
C244 C 0.24467 0.83045 1.01313 0.0
C245 C 0.24897 0.82941 0.10269 0.0
C246 C 0.20805 0.84305 0.73715 0.0
C247 C 0.2084 0.81258 0.70292 0.0
C248 C 0.20703 0.84729 0.82769 0.0
C249 C 0.20615 0.82103 0.88437 0.0
C250 C 0.20358 0.78941 0.84967 0.0
C251 C 0.20465 0.7852 0.76007 0.0
H252 H 0.37441 0.09561 0.67129 0.0
H253 H 0.42011 0.11323 0.41282 0.0
H254 H 0.34437 0.03018 0.64832 0.0
H255 H 0.38973 0.04769 0.38983 0.0
H256 H 0.28683 0.93171 0.35581 0.0
H257 H 0.32306 0.99733 0.37659 0.0
H258 H 0.36068 0.9808 0.62372 0.0
H259 H 0.3248 0.91532 0.60304 0.0
C260 C 0.37826 0.08552 0.60984 0.0
C261 C 0.39961 0.10962 0.54388 0.0
C262 C 0.36118 0.04806 0.59686 0.0
C263 C 0.36463 0.03387 0.51718 0.0
C264 C 0.3864 0.05791 0.45163 0.0
C265 C 0.40397 0.0954 0.4651 0.0
C266 C 0.30304 0.94207 0.41426 0.0
C267 C 0.30281 0.91825 0.47786 0.0
C268 C 0.32392 0.97963 0.4259 0.0
C269 C 0.34458 0.99413 0.50192 0.0
C270 C 0.34479 0.97036 0.56483 0.0
C271 C 0.32436 0.93286 0.55266 0.0
H272 H 0.34317 0.25277 0.58513 0.0
H273 H 0.4399 0.33711 0.70861 0.0
H274 H 0.31276 0.28747 0.61093 0.0
H275 H 0.40934 0.37216 0.73294 0.0
H276 H 0.34481 0.43376 0.6584 0.0
H277 H 0.37931 0.40261 0.63435 0.0
H278 H 0.29413 0.3066 0.75696 0.0
H279 H 0.25998 0.33758 0.78248 0.0
C280 C 0.3581 0.27888 0.61694 0.0
C281 C 0.39395 0.29212 0.64513 0.0
C282 C 0.34058 0.29862 0.63207 0.0
C283 C 0.35867 0.33233 0.6743 0.0
C284 C 0.39486 0.34624 0.7001 0.0
C285 C 0.41224 0.32614 0.68643 0.0
C286 C 0.33362 0.4061 0.68082 0.0
C287 C 0.29961 0.38813 0.72216 0.0
C288 C 0.3534 0.38839 0.66729 0.0
C289 C 0.33919 0.35218 0.69329 0.0
C290 C 0.30552 0.33443 0.73565 0.0
C291 C 0.28609 0.35228 0.75063 0.0
H292 H 0.93925 0.28419 1.00705 0.0
H293 H 0.92322 0.32027 0.75685 0.0
H294 H 1.00488 0.32035 0.9869 0.0
H295 H 0.98875 0.3561 0.73678 0.0
H296 H 0.10347 0.36885 0.69318 0.0
H297 H 0.03802 0.33942 0.71515 0.0
H298 H 0.0554 0.38669 0.97157 0.0
H299 H 0.12094 0.41644 0.94958 0.0
C300 C 0.9497 0.30002 0.94811 0.0
C301 C 0.92598 0.29923 0.88346 0.0
C302 C 0.98726 0.32085 0.9368 0.0
C303 C 1.00189 0.34091 0.86011 0.0
C304 C 0.97821 0.34067 0.79622 0.0
C305 C 0.94069 0.32029 0.80804 0.0
C306 C 0.09335 0.37324 0.75394 0.0
C307 C 0.11742 0.39493 0.81965 0.0
C308 C 0.05588 0.35653 0.76634 0.0
C309 C 0.04165 0.3607 0.84517 0.0
C310 C 0.06565 0.38281 0.91041 0.0
C311 C 0.10315 0.40001 0.89751 0.0
H312 H 0.69599 0.93184 0.11325 0.0
H313 H 0.59998 0.91818 0.98356 0.0
H314 H 0.7266 0.99667 0.08405 0.0
H315 H 0.6308 0.98366 0.9558 0.0
H316 H 0.69543 0.11059 0.02744 0.0
H317 H 0.66029 0.04494 0.05139 0.0
H318 H 0.74644 0.0335 0.93708 0.0
H319 H 0.78129 0.09872 0.91169 0.0
C320 C 0.68122 0.94268 0.07938 0.0
C321 C 0.64551 0.91975 0.05051 0.0
C322 C 0.6989 0.97981 0.06221 0.0
C323 C 0.68114 0.99505 0.01714 0.0
C324 C 0.64505 0.9725 0.99071 0.0
C325 C 0.6275 0.9351 1.00646 0.0
C326 C 0.70669 0.094 1.00666 0.0
C327 C 0.74122 0.10991 0.96797 0.0
C328 C 0.68652 0.05648 0.0201 0.0
C329 C 0.70083 0.03431 0.99664 0.0
C330 C 0.73496 0.05008 0.95642 0.0
C331 C 0.7548 0.0874 0.94151 0.0
H332 H 0.78271 0.69132 0.27943 0.0
H333 H 0.69747 0.59442 0.15852 0.0
H334 H 0.74804 0.72186 0.255 0.0
H335 H 0.66246 0.62511 0.13565 0.0
H336 H 0.60206 0.69086 0.21274 0.0
H337 H 0.63293 0.65604 0.23627 0.0
H338 H 0.72822 0.73981 0.10815 0.0
H339 H 0.69752 0.77423 0.08307 0.0
C340 C 0.7564 0.67638 0.24852 0.0
C341 C 0.7429 0.64046 0.22056 0.0
C342 C 0.73668 0.69396 0.2342 0.0
C343 C 0.70273 0.67585 0.19309 0.0
C344 C 0.68857 0.63959 0.16765 0.0
C345 C 0.70865 0.62214 0.18046 0.0
C346 C 0.62948 0.70166 0.18899 0.0
C347 C 0.64735 0.73534 0.14622 0.0
C348 C 0.64704 0.6817 0.20224 0.0
C349 C 0.68298 0.69545 0.17453 0.0
C350 C 0.7006 0.72879 0.13077 0.0
C351 C 0.6829 0.74837 0.11605 0.0
H352 H 0.93916 0.65922 0.19121 0.0
H353 H 0.92146 0.61287 0.4489 0.0
H354 H 1.00458 0.68922 0.21418 0.0
H355 H 0.98699 0.64321 0.4719 0.0
H356 H 0.10273 0.74629 0.50735 0.0
H357 H 0.03716 0.70984 0.4862 0.0
H358 H 0.05419 0.67317 0.23818 0.0
H359 H 0.11965 0.70927 0.25926 0.0
C360 C 0.94923 0.65521 0.25247 0.0
C361 C 0.9251 0.63369 0.31823 0.0
C362 C 0.98669 0.67227 0.26545 0.0
C363 C 1.00086 0.66863 0.34495 0.0
C364 C 0.97679 0.64668 0.41024 0.0
C365 C 0.9393 0.62913 0.39676 0.0
C366 C 0.09249 0.73023 0.44863 0.0
C367 C 0.11645 0.73081 0.38491 0.0
C368 C 0.05496 0.70923 0.43677 0.0
C369 C 0.0406 0.68877 0.3604 0.0
C370 C 0.06451 0.68889 0.29736 0.0
C371 C 0.102 0.70944 0.30975 0.0
H372 H 0.5467 0.36193 0.61624 0.0
H373 H 0.54892 0.30928 0.37785 0.0
H374 H 0.60017 0.41792 0.56842 0.0
H375 H 0.60193 0.36575 0.32933 0.0
H376 H 0.67245 0.48792 0.24823 0.0
H377 H 0.61637 0.43459 0.29616 0.0
H378 H 0.66881 0.432 0.53391 0.0
H379 H 0.72537 0.48487 0.48525 0.0
C380 C 0.55825 0.36247 0.55308 0.0
C381 C 0.54365 0.3312 0.50071 0.0
C382 C 0.58893 0.39443 0.52612 0.0
C383 C 0.60505 0.39599 0.44544 0.0
C384 C 0.58982 0.36517 0.39173 0.0
C385 C 0.55962 0.33293 0.41954 0.0
C386 C 0.67196 0.47622 0.31113 0.0
C387 C 0.70332 0.49055 0.36306 0.0
C388 C 0.63994 0.44562 0.33815 0.0
C389 C 0.63843 0.4293 0.41847 0.0
C390 C 0.66935 0.44427 0.47179 0.0
C391 C 0.70164 0.47438 0.4439 0.0
H392 H 0.17966 0.52265 0.72458 0.0
H393 H 0.28595 0.56619 0.60939 0.0
H394 H 0.17694 0.57568 0.67377 0.0
H395 H 0.28313 0.6189 0.55943 0.0
H396 H 0.28508 0.72632 0.59176 0.0
H397 H 0.28312 0.67108 0.64029 0.0
H398 H 0.17634 0.60718 0.5294 0.0
H399 H 0.1782 0.66273 0.47985 0.0
C400 C 0.2023 0.54335 0.68803 0.0
C401 C 0.23313 0.54029 0.67159 0.0
C402 C 0.20064 0.57359 0.65874 0.0
C403 C 0.22997 0.6015 0.61352 0.0
C404 C 0.26034 0.59799 0.59522 0.0
C405 C 0.26183 0.56766 0.62345 0.0
C406 C 0.26101 0.70059 0.57808 0.0
C407 C 0.23187 0.69897 0.53136 0.0
C408 C 0.26003 0.66894 0.60546 0.0
C409 C 0.22976 0.63489 0.58775 0.0
C410 C 0.20001 0.63313 0.54388 0.0
C411 C 0.20114 0.6649 0.51539 0.0
H412 H 0.73303 0.27825 0.76414 0.0
H413 H 0.67016 0.17069 0.87274 0.0
H414 H 0.6775 0.27613 0.71727 0.0
H415 H 0.61437 0.16869 0.825 0.0
H416 H 0.52842 0.17199 0.63602 0.0
H417 H 0.58201 0.16959 0.68343 0.0
H418 H 0.62549 0.27556 0.79939 0.0
H419 H 0.57222 0.27807 0.75275 0.0
C420 C 0.7074 0.25398 0.77736 0.0
C421 C 0.70607 0.22471 0.82277 0.0
C422 C 0.67558 0.25292 0.75097 0.0
C423 C 0.64164 0.22243 0.7684 0.0
C424 C 0.6402 0.19253 0.81073 0.0
C425 C 0.67212 0.19374 0.83817 0.0
C426 C 0.54931 0.19465 0.6722 0.0
C427 C 0.54612 0.22532 0.69011 0.0
C428 C 0.57988 0.19319 0.69952 0.0
C429 C 0.60803 0.22255 0.74421 0.0
C430 C 0.60442 0.25276 0.76393 0.0
C431 C 0.57376 0.25406 0.73765 0.0
H432 H 0.49519 0.66714 0.11855 0.0
H433 H 0.49194 0.72124 0.88391 0.0
H434 H 0.44189 0.6113 0.0695 0.0
H435 H 0.43905 0.66485 0.83405 0.0
H436 H 0.36966 0.54237 0.74921 0.0
H437 H 0.42538 0.59617 0.79742 0.0
H438 H 0.37293 0.59688 0.03687 0.0
H439 H 0.31675 0.5436 0.98794 0.0
C440 C 0.48342 0.66698 0.05595 0.0
C441 C 0.49773 0.6986 1.005 0.0
C442 C 0.45284 0.63508 0.02828 0.0
C443 C 0.43648 0.63392 0.94824 0.0
C444 C 0.45136 0.66512 0.89594 0.0
C445 C 0.48147 0.69732 0.92452 0.0
C446 C 0.3701 0.55378 0.81251 0.0
C447 C 0.33885 0.53878 0.86493 0.0
C448 C 0.40188 0.58465 0.83967 0.0
C449 C 0.40328 0.60056 0.9206 0.0
C450 C 0.37247 0.58495 0.97427 0.0
C451 C 0.3404 0.55459 0.94625 0.0
H452 H 0.8616 0.50455 0.22441 0.0
H453 H 0.75572 0.46219 0.10765 0.0
H454 H 0.8637 0.45116 0.17383 0.0
H455 H 0.75794 0.40913 0.05781 0.0
H456 H 0.75496 0.30106 0.08466 0.0
H457 H 0.75694 0.35614 0.13516 0.0
H458 H 0.86485 0.42026 0.03058 0.0
H459 H 0.863 0.36496 0.97934 0.0
C460 C 0.83891 0.48402 0.18761 0.0
C461 C 0.8084 0.48756 0.17053 0.0
C462 C 0.8402 0.45355 0.15847 0.0
C463 C 0.81083 0.42588 0.11271 0.0
C464 C 0.78074 0.42981 0.09405 0.0
C465 C 0.77961 0.46036 0.12217 0.0
C466 C 0.77928 0.32681 0.07285 0.0
C467 C 0.80875 0.32858 0.02742 0.0
C468 C 0.78028 0.35838 0.10133 0.0
C469 C 0.8109 0.39247 0.08599 0.0
C470 C 0.84093 0.39431 0.04335 0.0
C471 C 0.83979 0.36267 1.01384 0.0
H472 H 0.47061 0.75083 0.26147 0.0
H473 H 0.51452 0.85753 0.14847 0.0
H474 H 0.41731 0.75311 0.30909 0.0
H475 H 0.46091 0.85969 0.19685 0.0
H476 H 0.37211 0.85751 0.38542 0.0
H477 H 0.42813 0.85977 0.33847 0.0
H478 H 0.36549 0.7529 0.22704 0.0
H479 H 0.30975 0.75054 0.27309 0.0
C480 C 0.4691 0.77493 0.24746 0.0
C481 C 0.49676 0.8039 0.20058 0.0
C482 C 0.43843 0.77611 0.2743 0.0
C483 C 0.43483 0.80641 0.25583 0.0
C484 C 0.46304 0.83602 0.21199 0.0
C485 C 0.49362 0.83469 0.18412 0.0
C486 C 0.37031 0.83464 0.35028 0.0
C487 C 0.33643 0.80377 0.33349 0.0
C488 C 0.40236 0.83599 0.32329 0.0
C489 C 0.40111 0.80634 0.28007 0.0
C490 C 0.36726 0.77593 0.26145 0.0
C491 C 0.33531 0.77472 0.28737 0.0
loop_
_geom_bond_atom_site_label_1
_geom_bond_atom_site_label_2
_geom_bond_distance
_geom_bond_site_symmetry_2
_ccdc_geom_bond_type
Fe0 O2 1.918 . S
Fe0 O5 1.997 . S
Fe0 O6 2.002 . S
Fe0 O11 1.976 . S
Fe0 O14 1.996 . S
Fe1 O2 1.918 . S
Fe1 O9 1.997 . S
Fe1 O12 1.996 . S
Fe1 O16 1.976 . S
Fe1 O19 2.002 . S
O2 Fe0 1.918 . S
O2 Fe1 1.918 . S
O2 Fe3 1.918 . S
Fe3 O2 1.918 . S
Fe3 O4 2.002 . S
Fe3 O13 1.976 . S
Fe3 O17 1.996 . S
Fe3 O20 1.997 . S
O4 Fe3 2.002 . S
O4 C21 1.295 . S
O5 Fe0 1.997 . S
O5 C21 1.235 . S
O6 Fe0 2.002 . S
O6 C7 1.295 . S
C7 O6 1.295 . S
C7 O9 1.235 . S
C8 O13 1.287 . S
C8 O14 1.255 . S
O9 Fe1 1.997 . S
O9 C7 1.235 . S
C10 O16 1.287 . S
C10 O17 1.255 . S
O11 Fe0 1.976 . S
O11 C18 1.287 . S
O12 Fe1 1.996 . S
O12 C18 1.255 . S
O13 Fe3 1.976 . S
O13 C8 1.287 . S
O14 Fe0 1.996 . S
O14 C8 1.255 . S
C15 O19 1.295 . S
C15 O20 1.235 . S
O16 Fe1 1.976 . S
O16 C10 1.287 . S
O17 Fe3 1.996 . S
O17 C10 1.255 . S
C18 O11 1.287 . S
C18 O12 1.255 . S
O19 Fe1 2.002 . S
O19 C15 1.295 . S
O20 Fe3 1.997 . S
O20 C15 1.235 . S
C21 O4 1.295 . S
C21 O5 1.235 . S
Fe22 O24 1.918 . S
Fe22 O27 1.997 . S
Fe22 O28 2.002 . S
Fe22 O33 1.976 . S
Fe22 O36 1.996 . S
Fe23 O24 1.918 . S
Fe23 O31 1.997 . S
Fe23 O34 1.996 . S
Fe23 O38 1.976 . S
Fe23 O41 2.002 . S
O24 Fe22 1.918 . S
O24 Fe23 1.918 . S
O24 Fe25 1.918 . S
Fe25 O24 1.918 . S
Fe25 O26 2.002 . S
Fe25 O35 1.976 . S
Fe25 O39 1.996 . S
Fe25 O42 1.997 . S
O26 Fe25 2.002 . S
O26 C43 1.295 . S
O27 Fe22 1.997 . S
O27 C43 1.235 . S
O28 Fe22 2.002 . S
O28 C29 1.295 . S
C29 O28 1.295 . S
C29 O31 1.235 . S
C30 O35 1.287 . S
C30 O36 1.255 . S
O31 Fe23 1.997 . S
O31 C29 1.235 . S
C32 O38 1.287 . S
C32 O39 1.255 . S
O33 Fe22 1.976 . S
O33 C40 1.287 . S
O34 Fe23 1.996 . S
O34 C40 1.255 . S
O35 Fe25 1.976 . S
O35 C30 1.287 . S
O36 Fe22 1.996 . S
O36 C30 1.255 . S
C37 O41 1.295 . S
C37 O42 1.235 . S
O38 Fe23 1.976 . S
O38 C32 1.287 . S
O39 Fe25 1.996 . S
O39 C32 1.255 . S
C40 O33 1.287 . S
C40 O34 1.255 . S
O41 Fe23 2.002 . S
O41 C37 1.295 . S
O42 Fe25 1.997 . S
O42 C37 1.235 . S
C43 O26 1.295 . S
C43 O27 1.235 . S
Fe44 O46 1.918 . S
Fe44 O49 1.997 1_556 S
Fe44 O50 2.002 . S
Fe44 O55 1.976 . S
Fe44 O58 1.996 . S
Fe45 O46 1.918 . S
Fe45 O53 1.997 . S
Fe45 O56 1.996 . S
Fe45 O60 1.976 . S
Fe45 O63 2.002 . S
O46 Fe44 1.918 . S
O46 Fe45 1.918 . S
O46 Fe47 1.918 . S
Fe47 O46 1.918 . S
Fe47 O48 2.002 1_556 S
Fe47 O57 1.976 . S
Fe47 O61 1.996 . S
Fe47 O64 1.997 1_556 S
O48 Fe47 2.002 1_554 S
O48 C65 1.295 . S
O49 Fe44 1.997 1_554 S
O49 C65 1.235 . S
O50 Fe44 2.002 . S
O50 C51 1.295 . S
C51 O50 1.295 . S
C51 O53 1.235 . S
C52 O57 1.287 . S
C52 O58 1.255 . S
O53 Fe45 1.997 . S
O53 C51 1.235 . S
C54 O60 1.287 . S
C54 O61 1.255 . S
O55 Fe44 1.976 . S
O55 C62 1.287 . S
O56 Fe45 1.996 . S
O56 C62 1.255 . S
O57 Fe47 1.976 . S
O57 C52 1.287 . S
O58 Fe44 1.996 . S
O58 C52 1.255 . S
C59 O63 1.295 . S
C59 O64 1.235 1_556 S
O60 Fe45 1.976 . S
O60 C54 1.287 . S
O61 Fe47 1.996 . S
O61 C54 1.255 . S
C62 O55 1.287 . S
C62 O56 1.255 . S
O63 Fe45 2.002 . S
O63 C59 1.295 . S
O64 Fe47 1.997 1_554 S
O64 C59 1.235 1_554 S
C65 O48 1.295 . S
C65 O49 1.235 . S
Fe66 O68 1.918 . S
Fe66 O71 1.997 . S
Fe66 O72 2.002 . S
Fe66 O77 1.976 1_554 S
Fe66 O80 1.996 . S
Fe67 O68 1.918 1_556 S
Fe67 O75 1.997 1_556 S
Fe67 O78 1.996 . S
Fe67 O82 1.976 . S
Fe67 O85 2.002 1_556 S
O68 Fe66 1.918 . S
O68 Fe67 1.918 1_554 S
O68 Fe69 1.918 . S
Fe69 O68 1.918 . S
Fe69 O70 2.002 . S
Fe69 O79 1.976 . S
Fe69 O83 1.996 . S
Fe69 O86 1.997 . S
O70 Fe69 2.002 . S
O70 C87 1.295 . S
O71 Fe66 1.997 . S
O71 C87 1.235 . S
O72 Fe66 2.002 . S
O72 C73 1.295 . S
C73 O72 1.295 . S
C73 O75 1.235 . S
C74 O79 1.287 . S
C74 O80 1.255 . S
O75 Fe67 1.997 1_554 S
O75 C73 1.235 . S
C76 O82 1.287 1_554 S
C76 O83 1.255 . S
O77 Fe66 1.976 1_556 S
O77 C84 1.287 . S
O78 Fe67 1.996 . S
O78 C84 1.255 . S
O79 Fe69 1.976 . S
O79 C74 1.287 . S
O80 Fe66 1.996 . S
O80 C74 1.255 . S
C81 O85 1.295 . S
C81 O86 1.235 . S
O82 Fe67 1.976 . S
O82 C76 1.287 1_556 S
O83 Fe69 1.996 . S
O83 C76 1.255 . S
C84 O77 1.287 . S
C84 O78 1.255 . S
O85 Fe67 2.002 1_554 S
O85 C81 1.295 . S
O86 Fe69 1.997 . S
O86 C81 1.235 . S
C87 O70 1.295 . S
C87 O71 1.235 . S
Fe88 O90 1.918 . S
Fe88 O93 1.997 . S
Fe88 O94 2.002 . S
Fe88 O99 1.976 . S
Fe88 O102 1.996 . S
Fe89 O90 1.918 . S
Fe89 O97 1.997 . S
Fe89 O100 1.996 . S
Fe89 O104 1.976 . S
Fe89 O107 2.002 . S
O90 Fe88 1.918 . S
O90 Fe89 1.918 . S
O90 Fe91 1.918 . S
Fe91 O90 1.918 . S
Fe91 O92 2.002 . S
Fe91 O101 1.976 . S
Fe91 O105 1.996 . S
Fe91 O108 1.997 . S
O92 Fe91 2.002 . S
O92 C109 1.295 . S
O93 Fe88 1.997 . S
O93 C109 1.235 . S
O94 Fe88 2.002 . S
O94 C95 1.295 . S
C95 O94 1.295 . S
C95 O97 1.235 . S
C96 O101 1.287 . S
C96 O102 1.255 . S
O97 Fe89 1.997 . S
O97 C95 1.235 . S
C98 O104 1.287 . S
C98 O105 1.255 . S
O99 Fe88 1.976 . S
O99 C106 1.287 . S
O100 Fe89 1.996 . S
O100 C106 1.255 . S
O101 Fe91 1.976 . S
O101 C96 1.287 . S
O102 Fe88 1.996 . S
O102 C96 1.255 . S
C103 O107 1.295 . S
C103 O108 1.235 . S
O104 Fe89 1.976 . S
O104 C98 1.287 . S
O105 Fe91 1.996 . S
O105 C98 1.255 . S
C106 O99 1.287 . S
C106 O100 1.255 . S
O107 Fe89 2.002 . S
O107 C103 1.295 . S
O108 Fe91 1.997 . S
O108 C103 1.235 . S
C109 O92 1.295 . S
C109 O93 1.235 . S
Fe110 O112 1.918 . S
Fe110 O115 1.997 . S
Fe110 O116 2.002 . S
Fe110 O121 1.976 . S
Fe110 O124 1.996 . S
Fe111 O112 1.918 . S
Fe111 O119 1.997 . S
Fe111 O122 1.996 . S
Fe111 O126 1.976 . S
Fe111 O129 2.002 . S
O112 Fe110 1.918 . S
O112 Fe111 1.918 . S
O112 Fe113 1.918 . S
Fe113 O112 1.918 . S
Fe113 O114 2.002 . S
Fe113 O123 1.976 . S
Fe113 O127 1.996 . S
Fe113 O130 1.997 . S
O114 Fe113 2.002 . S
O114 C131 1.295 . S
O115 Fe110 1.997 . S
O115 C131 1.235 . S
O116 Fe110 2.002 . S
O116 C117 1.295 . S
C117 O116 1.295 . S
C117 O119 1.235 . S
C118 O123 1.287 . S
C118 O124 1.255 . S
O119 Fe111 1.997 . S
O119 C117 1.235 . S
C120 O126 1.287 . S
C120 O127 1.255 . S
O121 Fe110 1.976 . S
O121 C128 1.287 . S
O122 Fe111 1.996 . S
O122 C128 1.255 . S
O123 Fe113 1.976 . S
O123 C118 1.287 . S
O124 Fe110 1.996 . S
O124 C118 1.255 . S
C125 O129 1.295 . S
C125 O130 1.235 . S
O126 Fe111 1.976 . S
O126 C120 1.287 . S
O127 Fe113 1.996 . S
O127 C120 1.255 . S
C128 O121 1.287 . S
C128 O122 1.255 . S
O129 Fe111 2.002 . S
O129 C125 1.295 . S
O130 Fe113 1.997 . S
O130 C125 1.235 . S
C131 O114 1.295 . S
C131 O115 1.235 . S
H132 C140 0.950 . S
H133 C145 0.950 . S
H134 C142 0.950 . S
H135 C144 0.950 . S
H136 C146 0.950 . S
H137 C148 0.950 1_554 S
H138 C150 0.950 1_554 S
H139 C151 0.950 . S
C140 H132 0.950 . S
C140 C141 1.386 . S
C140 C142 1.391 . S
C141 C140 1.386 . S
C141 C145 1.393 . S
C142 H134 0.950 . S
C142 C140 1.391 . S
C142 C143 1.400 . S
C143 C142 1.400 . S
C143 C144 1.398 . S
C143 C149 1.491 . S
C144 H135 0.950 . S
C144 C143 1.398 . S
C144 C145 1.391 . S
C145 H133 0.950 . S
C145 C141 1.393 . S
C145 C144 1.391 . S
C146 H136 0.950 . S
C146 C147 1.386 . S
C146 C148 1.391 . S
C147 C146 1.386 . S
C147 C151 1.393 . S
C148 H137 0.950 1_556 S
C148 C146 1.391 . S
C148 C149 1.400 1_556 S
C149 C143 1.491 . S
C149 C148 1.400 1_554 S
C149 C150 1.398 1_554 S
C150 H138 0.950 1_556 S
C150 C149 1.398 1_556 S
C150 C151 1.391 . S
C151 H139 0.950 . S
C151 C147 1.393 . S
C151 C150 1.391 . S
H152 C160 0.950 . S
H153 C165 0.950 . S
H154 C162 0.950 . S
H155 C164 0.950 . S
H156 C166 0.950 . S
H157 C168 0.950 . S
H158 C170 0.950 . S
H159 C171 0.950 . S
C160 H152 0.950 . S
C160 C161 1.386 . S
C160 C162 1.391 . S
C161 C160 1.386 . S
C161 C165 1.393 . S
C162 H154 0.950 . S
C162 C160 1.391 . S
C162 C163 1.400 . S
C163 C162 1.400 . S
C163 C164 1.398 . S
C163 C169 1.491 . S
C164 H155 0.950 . S
C164 C163 1.398 . S
C164 C165 1.391 . S
C165 H153 0.950 . S
C165 C161 1.393 . S
C165 C164 1.391 . S
C166 H156 0.950 . S
C166 C167 1.386 . S
C166 C168 1.391 . S
C167 C166 1.386 . S
C167 C171 1.393 . S
C168 H157 0.950 . S
C168 C166 1.391 . S
C168 C169 1.400 . S
C169 C163 1.491 . S
C169 C168 1.400 . S
C169 C170 1.398 . S
C170 H158 0.950 . S
C170 C169 1.398 . S
C170 C171 1.391 . S
C171 H159 0.950 . S
C171 C167 1.393 . S
C171 C170 1.391 . S
H172 C180 0.950 . S
H173 C185 0.950 . S
H174 C182 0.950 . S
H175 C184 0.950 . S
H176 C186 0.950 . S
H177 C188 0.950 . S
H178 C190 0.950 . S
H179 C191 0.950 . S
C180 H172 0.950 . S
C180 C181 1.386 . S
C180 C182 1.391 . S
C181 C180 1.386 . S
C181 C185 1.393 . S
C182 H174 0.950 . S
C182 C180 1.391 . S
C182 C183 1.400 . S
C183 C182 1.400 . S
C183 C184 1.398 . S
C183 C189 1.491 . S
C184 H175 0.950 . S
C184 C183 1.398 . S
C184 C185 1.391 . S
C185 H173 0.950 . S
C185 C181 1.393 . S
C185 C184 1.391 . S
C186 H176 0.950 . S
C186 C187 1.386 . S
C186 C188 1.391 . S
C187 C186 1.386 . S
C187 C191 1.393 . S
C188 H177 0.950 . S
C188 C186 1.391 . S
C188 C189 1.400 . S
C189 C183 1.491 . S
C189 C188 1.400 . S
C189 C190 1.398 . S
C190 H178 0.950 . S
C190 C189 1.398 . S
C190 C191 1.391 . S
C191 H179 0.950 . S
C191 C187 1.393 . S
C191 C190 1.391 . S
H192 C200 0.950 . S
H193 C205 0.950 . S
H194 C202 0.950 . S
H195 C204 0.950 . S
H196 C206 0.950 . S
H197 C208 0.950 . S
H198 C210 0.950 . S
H199 C211 0.950 . S
C200 H192 0.950 . S
C200 C201 1.386 . S
C200 C202 1.391 . S
C201 C200 1.386 . S
C201 C205 1.393 . S
C202 H194 0.950 . S
C202 C200 1.391 . S
C202 C203 1.400 . S
C203 C202 1.400 . S
C203 C204 1.398 . S
C203 C209 1.491 . S
C204 H195 0.950 . S
C204 C203 1.398 . S
C204 C205 1.391 . S
C205 H193 0.950 . S
C205 C201 1.393 . S
C205 C204 1.391 . S
C206 H196 0.950 . S
C206 C207 1.386 . S
C206 C208 1.391 . S
C207 C206 1.386 . S
C207 C211 1.393 . S
C208 H197 0.950 . S
C208 C206 1.391 . S
C208 C209 1.400 . S
C209 C203 1.491 . S
C209 C208 1.400 . S
C209 C210 1.398 . S
C210 H198 0.950 . S
C210 C209 1.398 . S
C210 C211 1.391 . S
C211 H199 0.950 . S
C211 C207 1.393 . S
C211 C210 1.391 . S
H212 C220 0.950 . S
H213 C225 0.950 . S
H214 C222 0.950 . S
H215 C224 0.950 . S
H216 C226 0.950 . S
H217 C228 0.950 . S
H218 C230 0.950 . S
H219 C231 0.950 . S
C220 H212 0.950 . S
C220 C221 1.386 . S
C220 C222 1.391 . S
C221 C220 1.386 . S
C221 C225 1.393 . S
C222 H214 0.950 . S
C222 C220 1.391 . S
C222 C223 1.400 . S
C223 C222 1.400 . S
C223 C224 1.398 . S
C223 C229 1.491 . S
C224 H215 0.950 . S
C224 C223 1.398 . S
C224 C225 1.391 . S
C225 H213 0.950 . S
C225 C221 1.393 . S
C225 C224 1.391 . S
C226 H216 0.950 . S
C226 C227 1.386 . S
C226 C228 1.391 . S
C227 C226 1.386 . S
C227 C231 1.393 . S
C228 H217 0.950 . S
C228 C226 1.391 . S
C228 C229 1.400 . S
C229 C223 1.491 . S
C229 C228 1.400 . S
C229 C230 1.398 . S
C230 H218 0.950 . S
C230 C229 1.398 . S
C230 C231 1.391 . S
C231 H219 0.950 . S
C231 C227 1.393 . S
C231 C230 1.391 . S
H232 C240 0.950 . S
H233 C245 0.950 . S
H234 C242 0.950 1_556 S
H235 C244 0.950 1_556 S
H236 C246 0.950 . S
H237 C248 0.950 . S
H238 C250 0.950 . S
H239 C251 0.950 . S
C240 H232 0.950 . S
C240 C241 1.386 . S
C240 C242 1.391 . S
C241 C240 1.386 . S
C241 C245 1.393 . S
C242 H234 0.950 1_554 S
C242 C240 1.391 . S
C242 C243 1.400 1_554 S
C243 C242 1.400 1_556 S
C243 C244 1.398 1_556 S
C243 C249 1.491 . S
C244 H235 0.950 1_554 S
C244 C243 1.398 1_554 S
C244 C245 1.391 . S
C245 H233 0.950 . S
C245 C241 1.393 . S
C245 C244 1.391 . S
C246 H236 0.950 . S
C246 C247 1.386 . S
C246 C248 1.391 . S
C247 C246 1.386 . S
C247 C251 1.393 . S
C248 H237 0.950 . S
C248 C246 1.391 . S
C248 C249 1.400 . S
C249 C243 1.491 . S
C249 C248 1.400 . S
C249 C250 1.398 . S
C250 H238 0.950 . S
C250 C249 1.398 . S
C250 C251 1.391 . S
C251 H239 0.950 . S
C251 C247 1.393 . S
C251 C250 1.391 . S
H252 C260 0.950 . S
H253 C265 0.950 . S
H254 C262 0.950 . S
H255 C264 0.950 . S
H256 C266 0.950 . S
H257 C268 0.950 . S
H258 C270 0.950 . S
H259 C271 0.950 . S
C260 H252 0.950 . S
C260 C261 1.386 . S
C260 C262 1.391 . S
C261 C260 1.386 . S
C261 C265 1.393 . S
C262 H254 0.950 . S
C262 C260 1.391 . S
C262 C263 1.400 . S
C263 C262 1.400 . S
C263 C264 1.398 . S
C263 C269 1.491 1_545 S
C264 H255 0.950 . S
C264 C263 1.398 . S
C264 C265 1.391 . S
C265 H253 0.950 . S
C265 C261 1.393 . S
C265 C264 1.391 . S
C266 H256 0.950 . S
C266 C267 1.386 . S
C266 C268 1.391 . S
C267 C266 1.386 . S
C267 C271 1.393 . S
C268 H257 0.950 . S
C268 C266 1.391 . S
C268 C269 1.400 . S
C269 C263 1.491 1_565 S
C269 C268 1.400 . S
C269 C270 1.398 . S
C270 H258 0.950 . S
C270 C269 1.398 . S
C270 C271 1.391 . S
C271 H259 0.950 . S
C271 C267 1.393 . S
C271 C270 1.391 . S
H272 C280 0.950 . S
H273 C285 0.950 . S
H274 C282 0.950 . S
H275 C284 0.950 . S
H276 C286 0.950 . S
H277 C288 0.950 . S
H278 C290 0.950 . S
H279 C291 0.950 . S
C280 H272 0.950 . S
C280 C281 1.386 . S
C280 C282 1.391 . S
C281 C280 1.386 . S
C281 C285 1.393 . S
C282 H274 0.950 . S
C282 C280 1.391 . S
C282 C283 1.400 . S
C283 C282 1.400 . S
C283 C284 1.398 . S
C283 C289 1.491 . S
C284 H275 0.950 . S
C284 C283 1.398 . S
C284 C285 1.391 . S
C285 H273 0.950 . S
C285 C281 1.393 . S
C285 C284 1.391 . S
C286 H276 0.950 . S
C286 C287 1.386 . S
C286 C288 1.391 . S
C287 C286 1.386 . S
C287 C291 1.393 . S
C288 H277 0.950 . S
C288 C286 1.391 . S
C288 C289 1.400 . S
C289 C283 1.491 . S
C289 C288 1.400 . S
C289 C290 1.398 . S
C290 H278 0.950 . S
C290 C289 1.398 . S
C290 C291 1.391 . S
C291 H279 0.950 . S
C291 C287 1.393 . S
C291 C290 1.391 . S
H292 C300 0.950 . S
H293 C305 0.950 . S
H294 C302 0.950 . S
H295 C304 0.950 . S
H296 C306 0.950 . S
H297 C308 0.950 . S
H298 C310 0.950 . S
H299 C311 0.950 . S
C300 H292 0.950 . S
C300 C301 1.386 . S
C300 C302 1.391 . S
C301 C300 1.386 . S
C301 C305 1.393 . S
C302 H294 0.950 . S
C302 C300 1.391 . S
C302 C303 1.400 . S
C303 C302 1.400 . S
C303 C304 1.398 . S
C303 C309 1.491 1_655 S
C304 H295 0.950 . S
C304 C303 1.398 . S
C304 C305 1.391 . S
C305 H293 0.950 . S
C305 C301 1.393 . S
C305 C304 1.391 . S
C306 H296 0.950 . S
C306 C307 1.386 . S
C306 C308 1.391 . S
C307 C306 1.386 . S
C307 C311 1.393 . S
C308 H297 0.950 . S
C308 C306 1.391 . S
C308 C309 1.400 . S
C309 C303 1.491 1_455 S
C309 C308 1.400 . S
C309 C310 1.398 . S
C310 H298 0.950 . S
C310 C309 1.398 . S
C310 C311 1.391 . S
C311 H299 0.950 . S
C311 C307 1.393 . S
C311 C310 1.391 . S
H312 C320 0.950 . S
H313 C325 0.950 . S
H314 C322 0.950 . S
H315 C324 0.950 . S
H316 C326 0.950 . S
H317 C328 0.950 . S
H318 C330 0.950 . S
H319 C331 0.950 . S
C320 H312 0.950 . S
C320 C321 1.386 . S
C320 C322 1.391 . S
C321 C320 1.386 . S
C321 C325 1.393 1_554 S
C322 H314 0.950 . S
C322 C320 1.391 . S
C322 C323 1.400 . S
C323 C322 1.400 . S
C323 C324 1.398 1_554 S
C323 C329 1.491 1_564 S
C324 H315 0.950 . S
C324 C323 1.398 1_556 S
C324 C325 1.391 . S
C325 H313 0.950 . S
C325 C321 1.393 1_556 S
C325 C324 1.391 . S
C326 H316 0.950 . S
C326 C327 1.386 . S
C326 C328 1.391 . S
C327 C326 1.386 . S
C327 C331 1.393 1_556 S
C328 H317 0.950 . S
C328 C326 1.391 . S
C328 C329 1.400 . S
C329 C323 1.491 1_546 S
C329 C328 1.400 . S
C329 C330 1.398 1_556 S
C330 H318 0.950 . S
C330 C329 1.398 1_554 S
C330 C331 1.391 . S
C331 H319 0.950 . S
C331 C327 1.393 1_554 S
C331 C330 1.391 . S
H332 C340 0.950 . S
H333 C345 0.950 . S
H334 C342 0.950 . S
H335 C344 0.950 . S
H336 C346 0.950 . S
H337 C348 0.950 . S
H338 C350 0.950 . S
H339 C351 0.950 . S
C340 H332 0.950 . S
C340 C341 1.386 . S
C340 C342 1.391 . S
C341 C340 1.386 . S
C341 C345 1.393 . S
C342 H334 0.950 . S
C342 C340 1.391 . S
C342 C343 1.400 . S
C343 C342 1.400 . S
C343 C344 1.398 . S
C343 C349 1.491 . S
C344 H335 0.950 . S
C344 C343 1.398 . S
C344 C345 1.391 . S
C345 H333 0.950 . S
C345 C341 1.393 . S
C345 C344 1.391 . S
C346 H336 0.950 . S
C346 C347 1.386 . S
C346 C348 1.391 . S
C347 C346 1.386 . S
C347 C351 1.393 . S
C348 H337 0.950 . S
C348 C346 1.391 . S
C348 C349 1.400 . S
C349 C343 1.491 . S
C349 C348 1.400 . S
C349 C350 1.398 . S
C350 H338 0.950 . S
C350 C349 1.398 . S
C350 C351 1.391 . S
C351 H339 0.950 . S
C351 C347 1.393 . S
C351 C350 1.391 . S
H352 C360 0.950 . S
H353 C365 0.950 . S
H354 C362 0.950 . S
H355 C364 0.950 . S
H356 C366 0.950 . S
H357 C368 0.950 . S
H358 C370 0.950 . S
H359 C371 0.950 . S
C360 H352 0.950 . S
C360 C361 1.386 . S
C360 C362 1.391 . S
C361 C360 1.386 . S
C361 C365 1.393 . S
C362 H354 0.950 . S
C362 C360 1.391 . S
C362 C363 1.400 . S
C363 C362 1.400 . S
C363 C364 1.398 . S
C363 C369 1.491 1_655 S
C364 H355 0.950 . S
C364 C363 1.398 . S
C364 C365 1.391 . S
C365 H353 0.950 . S
C365 C361 1.393 . S
C365 C364 1.391 . S
C366 H356 0.950 . S
C366 C367 1.386 . S
C366 C368 1.391 . S
C367 C366 1.386 . S
C367 C371 1.393 . S
C368 H357 0.950 . S
C368 C366 1.391 . S
C368 C369 1.400 . S
C369 C363 1.491 1_455 S
C369 C368 1.400 . S
C369 C370 1.398 . S
C370 H358 0.950 . S
C370 C369 1.398 . S
C370 C371 1.391 . S
C371 H359 0.950 . S
C371 C367 1.393 . S
C371 C370 1.391 . S
H372 C380 0.950 . S
H373 C385 0.950 . S
H374 C382 0.950 . S
H375 C384 0.950 . S
H376 C386 0.950 . S
H377 C388 0.950 . S
H378 C390 0.950 . S
H379 C391 0.950 . S
C380 H372 0.950 . S
C380 C381 1.386 . S
C380 C382 1.391 . S
C381 C380 1.386 . S
C381 C385 1.393 . S
C382 H374 0.950 . S
C382 C380 1.391 . S
C382 C383 1.400 . S
C383 C382 1.400 . S
C383 C384 1.398 . S
C383 C389 1.491 . S
C384 H375 0.950 . S
C384 C383 1.398 . S
C384 C385 1.391 . S
C385 H373 0.950 . S
C385 C381 1.393 . S
C385 C384 1.391 . S
C386 H376 0.950 . S
C386 C387 1.386 . S
C386 C388 1.391 . S
C387 C386 1.386 . S
C387 C391 1.393 . S
C388 H377 0.950 . S
C388 C386 1.391 . S
C388 C389 1.400 . S
C389 C383 1.491 . S
C389 C388 1.400 . S
C389 C390 1.398 . S
C390 H378 0.950 . S
C390 C389 1.398 . S
C390 C391 1.391 . S
C391 H379 0.950 . S
C391 C387 1.393 . S
C391 C390 1.391 . S
H392 C400 0.950 . S
H393 C405 0.950 . S
H394 C402 0.950 . S
H395 C404 0.950 . S
H396 C406 0.950 . S
H397 C408 0.950 . S
H398 C410 0.950 . S
H399 C411 0.950 . S
C400 H392 0.950 . S
C400 C401 1.386 . S
C400 C402 1.391 . S
C401 C400 1.386 . S
C401 C405 1.393 . S
C402 H394 0.950 . S
C402 C400 1.391 . S
C402 C403 1.400 . S
C403 C402 1.400 . S
C403 C404 1.398 . S
C403 C409 1.491 . S
C404 H395 0.950 . S
C404 C403 1.398 . S
C404 C405 1.391 . S
C405 H393 0.950 . S
C405 C401 1.393 . S
C405 C404 1.391 . S
C406 H396 0.950 . S
C406 C407 1.386 . S
C406 C408 1.391 . S
C407 C406 1.386 . S
C407 C411 1.393 . S
C408 H397 0.950 . S
C408 C406 1.391 . S
C408 C409 1.400 . S
C409 C403 1.491 . S
C409 C408 1.400 . S
C409 C410 1.398 . S
C410 H398 0.950 . S
C410 C409 1.398 . S
C410 C411 1.391 . S
C411 H399 0.950 . S
C411 C407 1.393 . S
C411 C410 1.391 . S
H412 C420 0.950 . S
H413 C425 0.950 . S
H414 C422 0.950 . S
H415 C424 0.950 . S
H416 C426 0.950 . S
H417 C428 0.950 . S
H418 C430 0.950 . S
H419 C431 0.950 . S
C420 H412 0.950 . S
C420 C421 1.386 . S
C420 C422 1.391 . S
C421 C420 1.386 . S
C421 C425 1.393 . S
C422 H414 0.950 . S
C422 C420 1.391 . S
C422 C423 1.400 . S
C423 C422 1.400 . S
C423 C424 1.398 . S
C423 C429 1.491 . S
C424 H415 0.950 . S
C424 C423 1.398 . S
C424 C425 1.391 . S
C425 H413 0.950 . S
C425 C421 1.393 . S
C425 C424 1.391 . S
C426 H416 0.950 . S
C426 C427 1.386 . S
C426 C428 1.391 . S
C427 C426 1.386 . S
C427 C431 1.393 . S
C428 H417 0.950 . S
C428 C426 1.391 . S
C428 C429 1.400 . S
C429 C423 1.491 . S
C429 C428 1.400 . S
C429 C430 1.398 . S
C430 H418 0.950 . S
C430 C429 1.398 . S
C430 C431 1.391 . S
C431 H419 0.950 . S
C431 C427 1.393 . S
C431 C430 1.391 . S
H432 C440 0.950 . S
H433 C445 0.950 . S
H434 C442 0.950 . S
H435 C444 0.950 . S
H436 C446 0.950 . S
H437 C448 0.950 . S
H438 C450 0.950 1_554 S
H439 C451 0.950 . S
C440 H432 0.950 . S
C440 C441 1.386 1_554 S
C440 C442 1.391 . S
C441 C440 1.386 1_556 S
C441 C445 1.393 . S
C442 H434 0.950 . S
C442 C440 1.391 . S
C442 C443 1.400 1_554 S
C443 C442 1.400 1_556 S
C443 C444 1.398 . S
C443 C449 1.491 . S
C444 H435 0.950 . S
C444 C443 1.398 . S
C444 C445 1.391 . S
C445 H433 0.950 . S
C445 C441 1.393 . S
C445 C444 1.391 . S
C446 H436 0.950 . S
C446 C447 1.386 . S
C446 C448 1.391 . S
C447 C446 1.386 . S
C447 C451 1.393 . S
C448 H437 0.950 . S
C448 C446 1.391 . S
C448 C449 1.400 . S
C449 C443 1.491 . S
C449 C448 1.400 . S
C449 C450 1.398 . S
C450 H438 0.950 1_556 S
C450 C449 1.398 . S
C450 C451 1.391 . S
C451 H439 0.950 . S
C451 C447 1.393 . S
C451 C450 1.391 . S
H452 C460 0.950 . S
H453 C465 0.950 . S
H454 C462 0.950 . S
H455 C464 0.950 . S
H456 C466 0.950 . S
H457 C468 0.950 . S
H458 C470 0.950 . S
H459 C471 0.950 . S
C460 H452 0.950 . S
C460 C461 1.386 . S
C460 C462 1.391 . S
C461 C460 1.386 . S
C461 C465 1.393 . S
C462 H454 0.950 . S
C462 C460 1.391 . S
C462 C463 1.400 . S
C463 C462 1.400 . S
C463 C464 1.398 . S
C463 C469 1.491 . S
C464 H455 0.950 . S
C464 C463 1.398 . S
C464 C465 1.391 . S
C465 H453 0.950 . S
C465 C461 1.393 . S
C465 C464 1.391 . S
C466 H456 0.950 . S
C466 C467 1.386 . S
C466 C468 1.391 . S
C467 C466 1.386 . S
C467 C471 1.393 . S
C468 H457 0.950 . S
C468 C466 1.391 . S
C468 C469 1.400 . S
C469 C463 1.491 . S
C469 C468 1.400 . S
C469 C470 1.398 . S
C470 H458 0.950 . S
C470 C469 1.398 . S
C470 C471 1.391 . S
C471 H459 0.950 . S
C471 C467 1.393 . S
C471 C470 1.391 . S
H472 C480 0.950 . S
H473 C485 0.950 . S
H474 C482 0.950 . S
H475 C484 0.950 . S
H476 C486 0.950 . S
H477 C488 0.950 . S
H478 C490 0.950 . S
H479 C491 0.950 . S
C480 H472 0.950 . S
C480 C481 1.386 . S
C480 C482 1.391 . S
C481 C480 1.386 . S
C481 C485 1.393 . S
C482 H474 0.950 . S
C482 C480 1.391 . S
C482 C483 1.400 . S
C483 C482 1.400 . S
C483 C484 1.398 . S
C483 C489 1.491 . S
C484 H475 0.950 . S
C484 C483 1.398 . S
C484 C485 1.391 . S
C485 H473 0.950 . S
C485 C481 1.393 . S
C485 C484 1.391 . S
C486 H476 0.950 . S
C486 C487 1.386 . S
C486 C488 1.391 . S
C487 C486 1.386 . S
C487 C491 1.393 . S
C488 H477 0.950 . S
C488 C486 1.391 . S
C488 C489 1.400 . S
C489 C483 1.491 . S
C489 C488 1.400 . S
C489 C490 1.398 . S
C490 H478 0.950 . S
C490 C489 1.398 . S
C490 C491 1.391 . S
C491 H479 0.950 . S
C491 C487 1.393 . S
C491 C490 1.391 . S
C141 C10 1.438 . S
C147 C7 1.429 . S
C161 C32 1.431 . S
C167 C29 1.444 1_554 S
C181 C65 1.448 . S
C187 C62 1.434 . S
C201 C87 1.437 . S
C207 C84 1.432 . S
C221 C109 1.431 . S
C227 C106 1.436 1_556 S
C241 C128 1.445 . S
C247 C131 1.426 . S
C261 C15 1.569 . S
C267 C118 1.591 . S
C281 C18 1.588 . S
C287 C37 1.567 . S
C301 C51 1.572 . S
C307 C40 1.592 . S
C321 C73 1.567 . S
C327 C52 1.588 . S
C341 C95 1.567 . S
C347 C74 1.587 . S
C361 C96 1.583 . S
C367 C117 1.580 . S
C381 C8 1.319 . S
C387 C103 1.314 . S
C401 C30 1.318 . S
C407 C125 1.311 . S
C421 C54 1.327 . S
C427 C21 1.320 . S
C441 C76 1.323 1_556 S
C447 C43 1.319 . S
C461 C98 1.318 . S
C467 C59 1.304 1_554 S
C481 C81 1.316 . S
C487 C120 1.329 . S
