# Generated by pormake.
# Topology lcy, (6)-cn, num edge types: 1
# Building blocks:
#     Node 0, Type 0, BuildingBlock: OJICUG_clean_sbu_0, # of connection points: 6
#     Node 1, Type 0, BuildingBlock: OJICUG_clean_sbu_0, # of connection points: 6
#     Node 2, Type 0, BuildingBlock: OJICUG_clean_sbu_0, # of connection points: 6
#     Node 3, Type 0, BuildingBlock: OJICUG_clean_sbu_0, # of connection points: 6
#     Edge 4, Type (0, 0), BuildingBlock: UVAHIK_clean_linker_0, # of connection points: 2
#     Edge 5, Type (0, 0), BuildingBlock: UVAHIK_clean_linker_0, # of connection points: 2
#     Edge 6, Type (0, 0), BuildingBlock: UVAHIK_clean_linker_0, # of connection points: 2
#     Edge 7, Type (0, 0), BuildingBlock: UVAHIK_clean_linker_0, # of connection points: 2
#     Edge 8, Type (0, 0), BuildingBlock: UVAHIK_clean_linker_0, # of connection points: 2
#     Edge 9, Type (0, 0), BuildingBlock: UVAHIK_clean_linker_0, # of connection points: 2
#     Edge 10, Type (0, 0), BuildingBlock: UVAHIK_clean_linker_0, # of connection points: 2
#     Edge 11, Type (0, 0), BuildingBlock: UVAHIK_clean_linker_0, # of connection points: 2
#     Edge 12, Type (0, 0), BuildingBlock: UVAHIK_clean_linker_0, # of connection points: 2
#     Edge 13, Type (0, 0), BuildingBlock: UVAHIK_clean_linker_0, # of connection points: 2
#     Edge 14, Type (0, 0), BuildingBlock: UVAHIK_clean_linker_0, # of connection points: 2
#     Edge 15, Type (0, 0), BuildingBlock: UVAHIK_clean_linker_0, # of connection points: 2
# Relax obj value: 0.357
# Max RMSD: 0.279
# Mean RMSD: 0.279
data_MOF--net-lcy--node1-OJICUG_clean_sbu_0--edge1-UVAHIK_clean_linker_0
_symmetry_space_group_name_H-M    P1
_symmetry_Int_Tables_number       1
_symmetry_cell_setting            triclinic
loop_
_symmetry_equiv_pos_as_xyz
'x, y, z'
_cell_length_a     32.841474
_cell_length_b     32.76691
_cell_length_c     32.880106
_cell_angle_alpha  90.055937
_cell_angle_beta   89.909545
_cell_angle_gamma 90.014234
loop_
_atom_site_label
_atom_site_type_symbol
_atom_site_fract_x
_atom_site_fract_y
_atom_site_fract_z
_atom_type_partial_charge
Sc0 Sc 0.35385 0.42521 0.38016 0.0
Sc1 Sc 0.35868 0.32094 0.38982 0.0
Sc2 Sc 0.41462 0.36871 0.31354 0.0
O3 O 0.37635 0.37162 0.36101 0.0
C4 C 0.34456 0.4312 0.28588 0.0
C5 C 0.27806 0.36496 0.39265 0.0
C6 C 0.36676 0.28755 0.29871 0.0
C7 C 0.36542 0.38654 0.46261 0.0
C8 C 0.44368 0.45109 0.35189 0.0
C9 C 0.45184 0.30613 0.37953 0.0
O10 O 0.32918 0.43541 0.32117 0.0
O11 O 0.2965 0.33472 0.37712 0.0
O12 O 0.38124 0.32044 0.2844 0.0
O13 O 0.37766 0.4153 0.43977 0.0
O14 O 0.4524 0.41644 0.33704 0.0
O15 O 0.42031 0.30576 0.40208 0.0
O16 O 0.40815 0.45976 0.36476 0.0
O17 O 0.35386 0.35229 0.44815 0.0
O18 O 0.45361 0.32491 0.3454 0.0
O19 O 0.29623 0.39855 0.39991 0.0
O20 O 0.3779 0.41219 0.27886 0.0
O21 O 0.36054 0.28244 0.33651 0.0
Sc22 Sc 0.91513 0.1164 0.67591 0.0
Sc23 Sc 0.85672 0.06615 0.60254 0.0
Sc24 Sc 0.86445 0.17083 0.60063 0.0
O25 O 0.87883 0.1176 0.62695 0.0
C26 C 0.87196 0.19894 0.69358 0.0
C27 C 0.84405 0.05183 0.69641 0.0
C28 C 0.78216 0.13007 0.59544 0.0
C29 C 0.94505 0.03665 0.63108 0.0
C30 C 0.95816 0.17756 0.6126 0.0
C31 C 0.86745 0.1109 0.52354 0.0
O32 O 0.8825 0.16403 0.7062 0.0
O33 O 0.83193 0.04865 0.65982 0.0
O34 O 0.80141 0.15961 0.61161 0.0
O35 O 0.95216 0.06835 0.65203 0.0
O36 O 0.92738 0.18085 0.58933 0.0
O37 O 0.88112 0.08136 0.54424 0.0
O38 O 0.95727 0.1598 0.64731 0.0
O39 O 0.91102 0.03039 0.61374 0.0
O40 O 0.85674 0.14415 0.54049 0.0
O41 O 0.87517 0.07294 0.70679 0.0
O42 O 0.86835 0.20681 0.65592 0.0
O43 O 0.79936 0.09607 0.58705 0.0
Sc44 Sc 0.12948 0.56837 0.88678 0.0
Sc45 Sc 0.12596 0.67344 0.88721 0.0
Sc46 Sc 0.06944 0.61961 0.81535 0.0
O47 O 0.10805 0.62033 0.86263 0.0
C48 C 0.13866 0.55377 0.79238 0.0
C49 C 0.20659 0.62928 0.8911 0.0
C50 C 0.11592 0.70025 0.7943 0.0
C51 C 0.12188 0.61514 0.96546 0.0
C52 C 0.03975 0.54029 0.86092 0.0
C53 C 0.03158 0.68352 0.87943 0.0
O54 O 0.1518 0.55004 0.8286 0.0
O55 O 0.18818 0.65919 0.8748 0.0
O56 O 0.10127 0.66636 0.78307 0.0
O57 O 0.10765 0.58499 0.94588 0.0
O58 O 0.0324 0.57225 0.84053 0.0
O59 O 0.06407 0.68717 0.90018 0.0
O60 O 0.07414 0.53365 0.87732 0.0
O61 O 0.13337 0.64755 0.9475 0.0
O62 O 0.02945 0.66395 0.84571 0.0
O63 O 0.18822 0.59627 0.90064 0.0
O64 O 0.10763 0.57554 0.78309 0.0
O65 O 0.12279 0.70836 0.83144 0.0
Sc66 Sc 0.63137 0.8224 0.10264 0.0
Sc67 Sc 0.63005 0.92753 0.10282 0.0
Sc68 Sc 0.56858 0.87433 0.17165 0.0
O69 O 0.60957 0.87464 0.12611 0.0
C70 C 0.53679 0.80581 0.10897 0.0
C71 C 0.62235 0.88037 0.02395 0.0
C72 C 0.53957 0.95397 0.12691 0.0
C73 C 0.70948 0.87087 0.09656 0.0
C74 C 0.61883 0.79549 0.19537 0.0
C75 C 0.63668 0.94089 0.19725 0.0
O76 O 0.57095 0.80207 0.09098 0.0
O77 O 0.60885 0.91083 0.04376 0.0
O78 O 0.5312 0.92101 0.14517 0.0
O79 O 0.69286 0.84062 0.11399 0.0
O80 O 0.59872 0.82705 0.20515 0.0
O81 O 0.65125 0.94467 0.1615 0.0
O82 O 0.63128 0.7892 0.15932 0.0
O83 O 0.68935 0.90267 0.0872 0.0
O84 O 0.60521 0.91909 0.20545 0.0
O85 O 0.63508 0.84818 0.04167 0.0
O86 O 0.53105 0.82937 0.13959 0.0
O87 O 0.57481 0.96152 0.11303 0.0
C88 C 0.1204 0.5757 0.03057 0.0
C89 C 0.13657 0.60775 0.00721 0.0
C90 C 0.14102 0.56188 0.06507 0.0
C91 C 0.24287 0.54512 0.09601 0.0
H92 H 0.20182 0.52857 0.20526 0.0
C93 C 0.34201 0.47269 0.22215 0.0
C94 C 0.32203 0.44965 0.252 0.0
C95 C 0.31942 0.49431 0.19325 0.0
C96 C 0.21358 0.53226 0.17472 0.0
H97 H 0.18563 0.65213 0.00316 0.0
H98 H 0.22189 0.62715 0.0627 0.0
H99 H 0.15993 0.56423 0.15545 0.0
H100 H 0.26341 0.42896 0.27407 0.0
H101 H 0.22417 0.46421 0.22238 0.0
H102 H 0.29541 0.51135 0.11394 0.0
C103 C 0.19313 0.61317 0.05451 0.0
C104 C 0.18967 0.5531 0.14645 0.0
C105 C 0.17212 0.62759 0.02064 0.0
C106 C 0.27942 0.44695 0.25149 0.0
C107 C 0.25695 0.46762 0.22213 0.0
C108 C 0.26641 0.52347 0.12392 0.0
C109 C 0.17839 0.57942 0.07613 0.0
C110 C 0.20417 0.5596 0.10694 0.0
C111 C 0.27651 0.49246 0.19321 0.0
C112 C 0.25201 0.51652 0.16364 0.0
H113 H 0.09314 0.55984 0.02088 0.0
H114 H 0.12924 0.5357 0.08141 0.0
H115 H 0.25435 0.54943 0.06539 0.0
H116 H 0.37488 0.47548 0.22232 0.0
H117 H 0.33563 0.51341 0.17181 0.0
C118 C 0.69106 0.98879 0.22031 0.0
C119 C 0.65858 0.96254 0.23028 0.0
C120 C 0.71403 0.00748 0.25056 0.0
C121 C 0.71447 0.03822 0.35759 0.0
H122 H 0.83187 0.03564 0.34364 0.0
C123 C 0.82081 0.12554 0.46544 0.0
C124 C 0.85256 0.10204 0.48203 0.0
C125 C 0.79897 0.1114 0.43186 0.0
C126 C 0.79917 0.03659 0.34796 0.0
H127 H 0.62411 0.93653 0.28026 0.0
H128 H 0.66463 0.96958 0.33356 0.0
H129 H 0.78813 0.00354 0.29297 0.0
H130 H 0.88849 0.04705 0.47418 0.0
H131 H 0.85079 0.02275 0.41515 0.0
H132 H 0.72563 0.07076 0.41297 0.0
C133 C 0.67201 0.97546 0.30199 0.0
C134 C 0.77411 0.01844 0.31887 0.0
C135 C 0.6489 0.9565 0.27151 0.0
C136 C 0.86419 0.06585 0.46218 0.0
C137 C 0.84255 0.0519 0.42838 0.0
C138 C 0.73957 0.05661 0.38661 0.0
C139 C 0.70523 0.00059 0.29169 0.0
C140 C 0.73151 0.01909 0.32335 0.0
C141 C 0.80875 0.07376 0.41389 0.0
C142 C 0.78218 0.05594 0.38208 0.0
H143 H 0.69928 0.9947 0.18895 0.0
H144 H 0.73888 0.02733 0.24167 0.0
H145 H 0.68176 0.0394 0.36167 0.0
H146 H 0.81087 0.1535 0.48 0.0
H147 H 0.7735 0.12923 0.42086 0.0
C148 C 0.19423 0.50656 0.7703 0.0
C149 C 0.16176 0.53256 0.75989 0.0
C150 C 0.21802 0.48828 0.74028 0.0
C151 C 0.25113 0.43711 0.67118 0.0
H152 H 0.28392 0.50284 0.57883 0.0
C153 C 0.32674 0.37188 0.52644 0.0
C154 C 0.35433 0.39678 0.50505 0.0
C155 C 0.30739 0.38636 0.56141 0.0
C156 C 0.27552 0.48425 0.60473 0.0
H157 H 0.12834 0.55886 0.70945 0.0
H158 H 0.16983 0.52639 0.65678 0.0
H159 H 0.23932 0.53206 0.63039 0.0
H160 H 0.38644 0.45466 0.50612 0.0
H161 H 0.35341 0.47944 0.56779 0.0
H162 H 0.28784 0.38948 0.64575 0.0
C163 C 0.17706 0.52072 0.6884 0.0
C164 C 0.24937 0.50078 0.63389 0.0
C165 C 0.15312 0.53908 0.71855 0.0
C166 C 0.36501 0.43488 0.52159 0.0
C167 C 0.34579 0.44926 0.5567 0.0
C168 C 0.27732 0.42057 0.642 0.0
C169 C 0.21 0.49542 0.69901 0.0
C170 C 0.23683 0.4774 0.66741 0.0
C171 C 0.31548 0.42588 0.57592 0.0
C172 C 0.28978 0.44395 0.60842 0.0
H173 H 0.20186 0.50069 0.80179 0.0
H174 H 0.24343 0.4694 0.74952 0.0
H175 H 0.24176 0.4182 0.69652 0.0
H176 H 0.31768 0.34239 0.51459 0.0
H177 H 0.28412 0.3676 0.57541 0.0
C178 C 0.62058 0.92237 0.96056 0.0
C179 C 0.63325 0.88679 0.98077 0.0
C180 C 0.63973 0.9346 0.92467 0.0
C181 C 0.67983 0.94946 0.84261 0.0
H182 H 0.79748 0.94444 0.8525 0.0
C183 C 0.78645 0.00608 0.71611 0.0
C184 C 0.82025 0.02979 0.7278 0.0
C185 C 0.76309 0.98572 0.74502 0.0
C186 C 0.7647 0.94621 0.84943 0.0
H187 H 0.67308 0.83398 0.97683 0.0
H188 H 0.70604 0.85522 0.91399 0.0
H189 H 0.75476 0.91163 0.90366 0.0
H190 H 0.85612 0.05017 0.77932 0.0
H191 H 0.81484 0.01456 0.83013 0.0
H192 H 0.68977 0.98515 0.78911 0.0
C193 C 0.6819 0.87403 0.92642 0.0
C194 C 0.74022 0.9269 0.87834 0.0
C195 C 0.66264 0.86167 0.96221 0.0
C196 C 0.83035 0.0322 0.76926 0.0
C197 C 0.80684 0.01166 0.79831 0.0
C198 C 0.70431 0.96866 0.81365 0.0
C199 C 0.67187 0.9115 0.90832 0.0
C200 C 0.69752 0.92861 0.87541 0.0
C201 C 0.77281 0.98845 0.78643 0.0
C202 C 0.74699 0.96751 0.81694 0.0
H203 H 0.59785 0.94227 0.9739 0.0
H204 H 0.63129 0.96364 0.91141 0.0
H205 H 0.64704 0.95122 0.83954 0.0
H206 H 0.77776 0.00321 0.68447 0.0
H207 H 0.73746 0.96757 0.73486 0.0
C208 C 0.00672 0.18719 0.55619 0.0
C209 C -0.00342 0.19427 0.59703 0.0
C210 C 0.03998 0.20665 0.53867 0.0
C211 C 0.09697 0.30006 0.54229 0.0
H212 H 0.17102 0.24141 0.47126 0.0
C213 C 0.22997 0.37414 0.45064 0.0
C214 C 0.23871 0.35662 0.41253 0.0
C215 C 0.19942 0.35763 0.4753 0.0
C216 C 0.15028 0.25831 0.4906 0.0
H217 H 0.01332 0.22641 0.65208 0.0
H218 H 0.07188 0.26165 0.6208 0.0
H219 H 0.12381 0.20354 0.51405 0.0
H220 H 0.2199 0.31113 0.36859 0.0
H221 H 0.16551 0.28343 0.41082 0.0
H222 H 0.12278 0.35497 0.51781 0.0
C223 C 0.05405 0.24059 0.6027 0.0
C224 C 0.12362 0.23658 0.5154 0.0
C225 C 0.02096 0.22031 0.62059 0.0
C226 C 0.21392 0.325 0.39793 0.0
C227 C 0.18317 0.30885 0.42234 0.0
C228 C 0.12366 0.32194 0.51722 0.0
C229 C 0.06348 0.23413 0.56145 0.0
C230 C 0.09609 0.25722 0.54075 0.0
C231 C 0.17698 0.32362 0.46204 0.0
C232 C 0.14984 0.30121 0.49035 0.0
H233 H 0.98825 0.16721 0.53748 0.0
H234 H 0.04633 0.20143 0.50674 0.0
H235 H 0.07572 0.31662 0.56137 0.0
H236 H 0.24892 0.39827 0.46288 0.0
H237 H 0.19535 0.3697 0.50571 0.0
C238 C 0.1098 0.72504 0.72257 0.0
C239 C 0.11966 0.73302 0.76347 0.0
C240 C 0.10416 0.75705 0.6952 0.0
C241 C 0.11351 0.86871 0.67972 0.0
H242 H 0.00324 0.85899 0.63889 0.0
C243 C 0.00986 0.00638 0.65695 0.0
C244 C 0.97656 0.00431 0.63019 0.0
C245 C 0.03642 0.97346 0.66097 0.0
C246 C 0.03451 0.86214 0.6488 0.0
H247 H 0.13566 0.78073 0.80641 0.0
H248 H 0.12566 0.83657 0.75858 0.0
H249 H 0.03641 0.8 0.6681 0.0
H250 H 0.94728 0.96736 0.58395 0.0
H251 H -0.00553 0.91022 0.59005 0.0
H252 H 0.11117 0.93127 0.6613 0.0
C253 C 0.12221 0.80552 0.74777 0.0
C254 C 0.05354 0.82816 0.66574 0.0
C255 C 0.12772 0.77348 0.77527 0.0
C256 C 0.97224 0.96969 0.60532 0.0
C257 C -0.00077 0.93686 0.60896 0.0
C258 C 0.09466 0.90268 0.66221 0.0
C259 C 0.10852 0.79767 0.70804 0.0
C260 C 0.09261 0.83146 0.68274 0.0
C261 C 0.03075 0.93774 0.63795 0.0
C262 C 0.05424 0.90023 0.64809 0.0
H263 H 0.10401 0.6942 0.71217 0.0
H264 H 0.0942 0.75015 0.66456 0.0
H265 H 0.14385 0.87193 0.69222 0.0
H266 H 0.01431 0.0326 0.67653 0.0
H267 H 0.05987 0.97529 0.684 0.0
C268 C 0.25984 0.61612 0.94353 0.0
C269 C 0.24735 0.63706 0.90835 0.0
C270 C 0.29333 0.62978 0.96582 0.0
C271 C 0.38458 0.69466 0.96149 0.0
H272 H 0.36538 0.71048 0.077 0.0
C273 C 0.51156 0.74813 0.06672 0.0
C274 C 0.50275 0.78139 0.09237 0.0
C275 C 0.48055 0.72721 0.04693 0.0
C276 C 0.37104 0.70631 0.04479 0.0
H277 H 0.26185 0.68683 0.86741 0.0
H278 H 0.32093 0.71008 0.90584 0.0
H279 H 0.31293 0.67827 0.03489 0.0
H280 H 0.45412 0.81724 0.11914 0.0
H281 H 0.39934 0.78034 0.08405 0.0
H282 H 0.44228 0.72319 0.97105 0.0
C283 C 0.30457 0.68337 0.91636 0.0
C284 C 0.34132 0.68749 0.02081 0.0
C285 C 0.27078 0.67006 0.89434 0.0
C286 C 0.46185 0.79185 0.09948 0.0
C287 C 0.43057 0.77073 0.07948 0.0
C288 C 0.41434 0.71312 0.98545 0.0
C289 C 0.31532 0.6642 0.95301 0.0
C290 C 0.34777 0.68172 0.97888 0.0
C291 C 0.43985 0.73892 0.05219 0.0
C292 C 0.40785 0.71923 0.0273 0.0
H293 H 0.24223 0.59081 0.9554 0.0
H294 H 0.30131 0.61415 -0.00628 0.0
H295 H 0.39037 0.69051 0.9293 0.0
H296 H 0.54267 0.73863 0.06115 0.0
H297 H 0.48852 0.70222 0.02683 0.0
C298 C 0.36463 0.21235 0.28703 0.0
C299 C 0.36254 0.25205 0.27116 0.0
C300 C 0.36922 0.17886 0.26121 0.0
C301 C 0.40991 0.1564 0.15865 0.0
H302 H 0.39019 0.04596 0.19558 0.0
C303 C 0.52063 0.02763 0.1232 0.0
C304 C 0.5085 0.98666 0.12616 0.0
C305 C 0.4927 0.05902 0.12978 0.0
C306 C 0.39533 0.07639 0.1839 0.0
H307 H 0.35939 0.28744 0.2156 0.0
H308 H 0.36533 0.22877 0.17031 0.0
H309 H 0.35452 0.10201 0.2276 0.0
H310 H 0.45677 0.94644 0.13465 0.0
H311 H 0.40747 0.00126 0.1442 0.0
H312 H 0.44975 0.1307 0.11413 0.0
C313 C 0.3653 0.22355 0.20281 0.0
C314 C 0.3753 0.10882 0.20293 0.0
C315 C 0.36155 0.25722 0.22875 0.0
C316 C 0.46714 0.97777 0.13273 0.0
C317 C 0.43894 0.00926 0.13852 0.0
C318 C 0.42913 0.1239 0.13893 0.0
C319 C 0.37104 0.18406 0.21872 0.0
C320 C 0.38405 0.14944 0.19213 0.0
C321 C 0.45164 0.05033 0.13871 0.0
C322 C 0.4239 0.08361 0.15276 0.0
H323 H 0.36561 0.20724 0.31956 0.0
H324 H 0.37407 0.14929 0.275 0.0
H325 H 0.41761 0.18705 0.14913 0.0
H326 H 0.5523 0.03556 0.11836 0.0
H327 H 0.50413 0.08999 0.13027 0.0
C328 C 0.72838 0.11582 0.54366 0.0
C329 C 0.74229 0.13919 0.57679 0.0
C330 C 0.69655 0.12996 0.51936 0.0
C331 C 0.64953 0.22682 0.48924 0.0
H332 H 0.56322 0.15898 0.44578 0.0
C333 C 0.52704 0.29131 0.38104 0.0
C334 C 0.48722 0.28245 0.39395 0.0
C335 C 0.56014 0.2703 0.39785 0.0
C336 C 0.58732 0.17822 0.45754 0.0
H337 H 0.73143 0.1939 0.61239 0.0
H338 H 0.6752 0.21799 0.57058 0.0
H339 H 0.61474 0.1287 0.48995 0.0
H340 H 0.45067 0.24312 0.43271 0.0
H341 H 0.50791 0.20702 0.46177 0.0
H342 H 0.62141 0.2766 0.45799 0.0
C343 C 0.68977 0.18938 0.56272 0.0
C344 C 0.61683 0.16087 0.48268 0.0
C345 C 0.72164 0.17535 0.58693 0.0
C346 C 0.48101 0.25108 0.42245 0.0
C347 C 0.51382 0.22997 0.43881 0.0
C348 C 0.62012 0.24413 0.46403 0.0
C349 C 0.67792 0.1676 0.52786 0.0
C350 C 0.64769 0.18522 0.49951 0.0
C351 C 0.55375 0.23977 0.42727 0.0
C352 C 0.58821 0.22019 0.44866 0.0
H353 H 0.74382 0.08799 0.53475 0.0
H354 H 0.68809 0.11254 0.49266 0.0
H355 H 0.67353 0.24615 0.50107 0.0
H356 H 0.53268 0.31524 0.35904 0.0
H357 H 0.59069 0.27827 0.38829 0.0
C358 C 0.01339 0.47236 0.88494 0.0
C359 C 0.00844 0.50768 0.86125 0.0
C360 C 0.98729 0.43897 0.87984 0.0
C361 C 0.89355 0.40386 0.82389 0.0
H362 H 0.95388 0.30244 0.81748 0.0
C363 C 0.87946 0.22564 0.76461 0.0
C364 C 0.86952 0.23272 0.72357 0.0
C365 C 0.88577 0.25825 0.79121 0.0
C366 C 0.93624 0.33028 0.81988 0.0
H367 H 0.97032 0.53655 0.81565 0.0
H368 H 0.92636 0.47837 0.80565 0.0
H369 H 0.98552 0.36182 0.84786 0.0
H370 H 0.85444 0.27963 0.67954 0.0
H371 H 0.86533 0.33652 0.72616 0.0
H372 H 0.8454 0.37239 0.79283 0.0
C373 C 0.94961 0.47635 0.82886 0.0
C374 C 0.95435 0.36447 0.83753 0.0
C375 C 0.97523 0.50983 0.83438 0.0
C376 C 0.8624 0.27305 0.71081 0.0
C377 C 0.86842 0.30568 0.73758 0.0
C378 C 0.87566 0.36971 0.80561 0.0
C379 C 0.95608 0.43993 0.8505 0.0
C380 C 0.93376 0.4021 0.83871 0.0
C381 C 0.88185 0.2986 0.77752 0.0
C382 C 0.89728 0.33289 0.80255 0.0
H383 H 0.0383 0.46989 0.90634 0.0
H384 H 0.99259 0.41185 0.89785 0.0
H385 H 0.87635 0.43202 0.82509 0.0
H386 H 0.88475 0.195 0.77573 0.0
H387 H 0.89561 0.25197 0.82201 0.0
C388 C 0.98821 0.69831 0.93886 0.0
C389 C -0.00499 0.70244 0.89697 0.0
C390 C 0.95817 0.7211 0.95816 0.0
C391 C 0.86698 0.78481 0.94233 0.0
H392 H 0.89635 0.82424 0.04977 0.0
C393 C 0.7582 0.88269 0.03964 0.0
C394 C 0.74965 0.86451 0.07748 0.0
C395 C 0.79137 0.86957 0.01647 0.0
C396 C 0.88785 0.81357 0.01976 0.0
H397 H 0.97496 0.7322 0.84181 0.0
H398 H 0.92226 0.77318 0.87588 0.0
H399 H 0.9462 0.7869 0.00936 0.0
H400 H 0.77055 0.82051 0.12191 0.0
H401 H 0.8294 0.79854 0.08197 0.0
H402 H 0.80846 0.81172 0.95311 0.0
C403 C 0.93997 0.75184 0.89369 0.0
C404 C 0.9162 0.79193 -0.00331 0.0
C405 C 0.96992 0.72838 0.87415 0.0
C406 C 0.77655 0.83514 0.09298 0.0
C407 C 0.81016 0.82259 0.07012 0.0
C408 C 0.83871 0.80695 0.96531 0.0
C409 C 0.93466 0.74924 0.93616 0.0
C410 C 0.90571 0.77616 0.95824 0.0
C411 C 0.81701 0.83869 0.0311 0.0
C412 C 0.84862 0.82056 0.00464 0.0
H413 H 0.00698 0.67811 0.95698 0.0
H414 H 0.95397 0.71722 0.99061 0.0
H415 H 0.8579 0.77303 0.91293 0.0
H416 H 0.73772 0.90503 0.0266 0.0
H417 H 0.79619 0.88256 0.98655 0.0
C418 C 0.59798 0.763 0.26102 0.0
C419 C 0.62183 0.76191 0.22546 0.0
C420 C 0.59226 0.72783 0.28426 0.0
C421 C 0.59097 0.61707 0.2671 0.0
H422 H 0.555 0.61541 0.37949 0.0
C423 C 0.46634 0.52354 0.36321 0.0
C424 C 0.47525 0.4835 0.35055 0.0
C425 C 0.49418 0.55514 0.35641 0.0
C426 C 0.56517 0.61539 0.34813 0.0
H427 H 0.66243 0.7242 0.18937 0.0
H428 H 0.65365 0.66321 0.2308 0.0
H429 H 0.58978 0.67573 0.35285 0.0
H430 H 0.52185 0.44493 0.3235 0.0
H431 H 0.57003 0.50007 0.31156 0.0
H432 H 0.56563 0.55724 0.2621 0.0
C433 C 0.63797 0.69086 0.23978 0.0
C434 C 0.58501 0.64994 0.33279 0.0
C435 C 0.64329 0.72596 0.21617 0.0
C436 C 0.51366 0.47543 0.33326 0.0
C437 C 0.54134 0.50702 0.32632 0.0
C438 C 0.57162 0.58248 0.28254 0.0
C439 C 0.61068 0.69079 0.27286 0.0
C440 C 0.59697 0.65173 0.29167 0.0
C441 C 0.53141 0.54738 0.33671 0.0
C442 C 0.55744 0.5817 0.32285 0.0
H443 H 0.58115 0.79018 0.26935 0.0
H444 H 0.57089 0.72916 0.30934 0.0
H445 H 0.59891 0.61735 0.23514 0.0
H446 H 0.43718 0.53086 0.37681 0.0
H447 H 0.48555 0.586 0.36452 0.0
loop_
_geom_bond_atom_site_label_1
_geom_bond_atom_site_label_2
_geom_bond_distance
_geom_bond_site_symmetry_2
_ccdc_geom_bond_type
Sc0 O3 2.025 . S
Sc0 O10 2.105 . S
Sc0 O13 2.105 . S
Sc0 O16 2.105 . S
Sc0 O19 2.105 . S
Sc1 O3 2.025 . S
Sc1 O11 2.105 . S
Sc1 O15 2.105 . S
Sc1 O17 2.105 . S
Sc1 O21 2.105 . S
Sc2 O3 2.025 . S
Sc2 O12 2.105 . S
Sc2 O14 2.105 . S
Sc2 O18 2.105 . S
Sc2 O20 2.105 . S
O3 Sc0 2.025 . S
O3 Sc1 2.025 . S
O3 Sc2 2.025 . S
C4 O10 1.268 . S
C4 O20 1.268 . S
C5 O11 1.268 . S
C5 O19 1.268 . S
C6 O12 1.268 . S
C6 O21 1.268 . S
C7 O13 1.268 . S
C7 O17 1.268 . S
C8 O14 1.268 . S
C8 O16 1.268 . S
C9 O15 1.268 . S
C9 O18 1.268 . S
O10 Sc0 2.105 . S
O10 C4 1.268 . S
O11 Sc1 2.105 . S
O11 C5 1.268 . S
O12 Sc2 2.105 . S
O12 C6 1.268 . S
O13 Sc0 2.105 . S
O13 C7 1.268 . S
O14 Sc2 2.105 . S
O14 C8 1.268 . S
O15 Sc1 2.105 . S
O15 C9 1.268 . S
O16 Sc0 2.105 . S
O16 C8 1.268 . S
O17 Sc1 2.105 . S
O17 C7 1.268 . S
O18 Sc2 2.105 . S
O18 C9 1.268 . S
O19 Sc0 2.105 . S
O19 C5 1.268 . S
O20 Sc2 2.105 . S
O20 C4 1.268 . S
O21 Sc1 2.105 . S
O21 C6 1.268 . S
Sc22 O25 2.025 . S
Sc22 O32 2.105 . S
Sc22 O35 2.105 . S
Sc22 O38 2.105 . S
Sc22 O41 2.105 . S
Sc23 O25 2.025 . S
Sc23 O33 2.105 . S
Sc23 O37 2.105 . S
Sc23 O39 2.105 . S
Sc23 O43 2.105 . S
Sc24 O25 2.025 . S
Sc24 O34 2.105 . S
Sc24 O36 2.105 . S
Sc24 O40 2.105 . S
Sc24 O42 2.105 . S
O25 Sc22 2.025 . S
O25 Sc23 2.025 . S
O25 Sc24 2.025 . S
C26 O32 1.268 . S
C26 O42 1.268 . S
C27 O33 1.268 . S
C27 O41 1.268 . S
C28 O34 1.268 . S
C28 O43 1.268 . S
C29 O35 1.268 . S
C29 O39 1.268 . S
C30 O36 1.268 . S
C30 O38 1.268 . S
C31 O37 1.268 . S
C31 O40 1.268 . S
O32 Sc22 2.105 . S
O32 C26 1.268 . S
O33 Sc23 2.105 . S
O33 C27 1.268 . S
O34 Sc24 2.105 . S
O34 C28 1.268 . S
O35 Sc22 2.105 . S
O35 C29 1.268 . S
O36 Sc24 2.105 . S
O36 C30 1.268 . S
O37 Sc23 2.105 . S
O37 C31 1.268 . S
O38 Sc22 2.105 . S
O38 C30 1.268 . S
O39 Sc23 2.105 . S
O39 C29 1.268 . S
O40 Sc24 2.105 . S
O40 C31 1.268 . S
O41 Sc22 2.105 . S
O41 C27 1.268 . S
O42 Sc24 2.105 . S
O42 C26 1.268 . S
O43 Sc23 2.105 . S
O43 C28 1.268 . S
Sc44 O47 2.025 . S
Sc44 O54 2.105 . S
Sc44 O57 2.105 . S
Sc44 O60 2.105 . S
Sc44 O63 2.105 . S
Sc45 O47 2.025 . S
Sc45 O55 2.105 . S
Sc45 O59 2.105 . S
Sc45 O61 2.105 . S
Sc45 O65 2.105 . S
Sc46 O47 2.025 . S
Sc46 O56 2.105 . S
Sc46 O58 2.105 . S
Sc46 O62 2.105 . S
Sc46 O64 2.105 . S
O47 Sc44 2.025 . S
O47 Sc45 2.025 . S
O47 Sc46 2.025 . S
C48 O54 1.268 . S
C48 O64 1.268 . S
C49 O55 1.268 . S
C49 O63 1.268 . S
C50 O56 1.268 . S
C50 O65 1.268 . S
C51 O57 1.268 . S
C51 O61 1.268 . S
C52 O58 1.268 . S
C52 O60 1.268 . S
C53 O59 1.268 . S
C53 O62 1.268 . S
O54 Sc44 2.105 . S
O54 C48 1.268 . S
O55 Sc45 2.105 . S
O55 C49 1.268 . S
O56 Sc46 2.105 . S
O56 C50 1.268 . S
O57 Sc44 2.105 . S
O57 C51 1.268 . S
O58 Sc46 2.105 . S
O58 C52 1.268 . S
O59 Sc45 2.105 . S
O59 C53 1.268 . S
O60 Sc44 2.105 . S
O60 C52 1.268 . S
O61 Sc45 2.105 . S
O61 C51 1.268 . S
O62 Sc46 2.105 . S
O62 C53 1.268 . S
O63 Sc44 2.105 . S
O63 C49 1.268 . S
O64 Sc46 2.105 . S
O64 C48 1.268 . S
O65 Sc45 2.105 . S
O65 C50 1.268 . S
Sc66 O69 2.025 . S
Sc66 O76 2.105 . S
Sc66 O79 2.105 . S
Sc66 O82 2.105 . S
Sc66 O85 2.105 . S
Sc67 O69 2.025 . S
Sc67 O77 2.105 . S
Sc67 O81 2.105 . S
Sc67 O83 2.105 . S
Sc67 O87 2.105 . S
Sc68 O69 2.025 . S
Sc68 O78 2.105 . S
Sc68 O80 2.105 . S
Sc68 O84 2.105 . S
Sc68 O86 2.105 . S
O69 Sc66 2.025 . S
O69 Sc67 2.025 . S
O69 Sc68 2.025 . S
C70 O76 1.268 . S
C70 O86 1.268 . S
C71 O77 1.268 . S
C71 O85 1.268 . S
C72 O78 1.268 . S
C72 O87 1.268 . S
C73 O79 1.268 . S
C73 O83 1.268 . S
C74 O80 1.268 . S
C74 O82 1.268 . S
C75 O81 1.268 . S
C75 O84 1.268 . S
O76 Sc66 2.105 . S
O76 C70 1.268 . S
O77 Sc67 2.105 . S
O77 C71 1.268 . S
O78 Sc68 2.105 . S
O78 C72 1.268 . S
O79 Sc66 2.105 . S
O79 C73 1.268 . S
O80 Sc68 2.105 . S
O80 C74 1.268 . S
O81 Sc67 2.105 . S
O81 C75 1.268 . S
O82 Sc66 2.105 . S
O82 C74 1.268 . S
O83 Sc67 2.105 . S
O83 C73 1.268 . S
O84 Sc68 2.105 . S
O84 C75 1.268 . S
O85 Sc66 2.105 . S
O85 C71 1.268 . S
O86 Sc68 2.105 . S
O86 C70 1.268 . S
O87 Sc67 2.105 . S
O87 C72 1.268 . S
C88 C89 1.344 1_554 S
C88 C90 1.327 . S
C88 H113 0.950 . S
C89 C88 1.344 1_556 S
C89 C105 1.349 . S
C90 C88 1.327 . S
C90 C109 1.429 . S
C90 H114 0.950 . S
C91 C108 1.574 . S
C91 C110 1.368 . S
C91 H115 0.949 . S
H92 C96 0.949 . S
C93 C94 1.349 . S
C93 C95 1.327 . S
C93 H116 0.950 . S
C94 C93 1.349 . S
C94 C106 1.349 . S
C95 C93 1.327 . S
C95 C111 1.429 . S
C95 H117 0.950 . S
C96 H92 0.949 . S
C96 C104 1.574 . S
C96 C112 1.368 . S
H97 C105 0.950 . S
H98 C103 0.950 . S
H99 C104 0.949 . S
H100 C106 0.950 . S
H101 C107 0.950 . S
H102 C108 0.949 . S
C103 H98 0.950 . S
C103 C105 1.327 1_554 S
C103 C109 1.429 . S
C104 C96 1.574 . S
C104 H99 0.949 . S
C104 C110 1.368 . S
C105 C89 1.349 . S
C105 H97 0.950 . S
C105 C103 1.327 1_556 S
C106 C94 1.349 . S
C106 H100 0.950 . S
C106 C107 1.327 . S
C107 H101 0.950 . S
C107 C106 1.327 . S
C107 C111 1.429 . S
C108 C91 1.574 . S
C108 H102 0.949 . S
C108 C112 1.368 . S
C109 C90 1.429 . S
C109 C103 1.429 . S
C109 C110 1.523 . S
C110 C91 1.368 . S
C110 C104 1.368 . S
C110 C109 1.523 . S
C111 C95 1.429 . S
C111 C107 1.429 . S
C111 C112 1.523 . S
C112 C96 1.368 . S
C112 C108 1.368 . S
C112 C111 1.523 . S
H113 C88 0.950 . S
H114 C90 0.950 . S
H115 C91 0.949 . S
H116 C93 0.950 . S
H117 C95 0.950 . S
C118 C119 1.349 . S
C118 C120 1.327 . S
C118 H143 0.950 . S
C119 C118 1.349 . S
C119 C135 1.349 . S
C120 C118 1.327 . S
C120 C139 1.429 . S
C120 H144 0.950 . S
C121 C138 1.574 . S
C121 C140 1.368 1_545 S
C121 H145 0.949 . S
H122 C126 0.949 . S
C123 C124 1.349 . S
C123 C125 1.327 . S
C123 H146 0.950 . S
C124 C123 1.349 . S
C124 C136 1.349 . S
C125 C123 1.327 . S
C125 C141 1.429 . S
C125 H147 0.950 . S
C126 H122 0.949 . S
C126 C134 1.574 . S
C126 C142 1.368 1_565 S
H127 C135 0.950 . S
H128 C133 0.950 . S
H129 C134 0.949 . S
H130 C136 0.950 . S
H131 C137 0.950 1_565 S
H132 C138 0.949 . S
C133 H128 0.950 . S
C133 C135 1.327 . S
C133 C139 1.429 . S
C134 C126 1.574 . S
C134 H129 0.949 . S
C134 C140 1.368 . S
C135 C119 1.349 . S
C135 H127 0.950 . S
C135 C133 1.327 . S
C136 C124 1.349 . S
C136 H130 0.950 . S
C136 C137 1.327 . S
C137 H131 0.950 1_545 S
C137 C136 1.327 . S
C137 C141 1.429 . S
C138 C121 1.574 . S
C138 H132 0.949 . S
C138 C142 1.368 . S
C139 C120 1.429 . S
C139 C133 1.429 . S
C139 C140 1.523 . S
C140 C121 1.368 1_565 S
C140 C134 1.368 . S
C140 C139 1.523 . S
C141 C125 1.429 . S
C141 C137 1.429 . S
C141 C142 1.523 . S
C142 C126 1.368 1_545 S
C142 C138 1.368 . S
C142 C141 1.523 . S
H143 C118 0.950 . S
H144 C120 0.950 . S
H145 C121 0.949 . S
H146 C123 0.950 . S
H147 C125 0.950 . S
C148 C149 1.349 . S
C148 C150 1.327 . S
C148 H173 0.950 . S
C149 C148 1.349 . S
C149 C165 1.349 . S
C150 C148 1.327 . S
C150 C169 1.429 . S
C150 H174 0.950 . S
C151 C168 1.574 . S
C151 C170 1.368 . S
C151 H175 0.949 . S
H152 C156 0.949 . S
C153 C154 1.349 . S
C153 C155 1.327 . S
C153 H176 0.950 . S
C154 C153 1.349 . S
C154 C166 1.349 . S
C155 C153 1.327 . S
C155 C171 1.429 . S
C155 H177 0.950 . S
C156 H152 0.949 . S
C156 C164 1.574 . S
C156 C172 1.368 . S
H157 C165 0.950 . S
H158 C163 0.950 . S
H159 C164 0.949 . S
H160 C166 0.950 . S
H161 C167 0.950 . S
H162 C168 0.949 . S
C163 H158 0.950 . S
C163 C165 1.327 . S
C163 C169 1.429 . S
C164 C156 1.574 . S
C164 H159 0.949 . S
C164 C170 1.368 . S
C165 C149 1.349 . S
C165 H157 0.950 . S
C165 C163 1.327 . S
C166 C154 1.349 . S
C166 H160 0.950 . S
C166 C167 1.327 . S
C167 H161 0.950 . S
C167 C166 1.327 . S
C167 C171 1.429 . S
C168 C151 1.574 . S
C168 H162 0.949 . S
C168 C172 1.368 . S
C169 C150 1.429 . S
C169 C163 1.429 . S
C169 C170 1.523 . S
C170 C151 1.368 . S
C170 C164 1.368 . S
C170 C169 1.523 . S
C171 C155 1.429 . S
C171 C167 1.429 . S
C171 C172 1.523 . S
C172 C156 1.368 . S
C172 C168 1.368 . S
C172 C171 1.523 . S
H173 C148 0.950 . S
H174 C150 0.950 . S
H175 C151 0.949 . S
H176 C153 0.950 . S
H177 C155 0.950 . S
C178 C179 1.350 . S
C178 C180 1.327 1_554 S
C178 H203 0.950 . S
C179 C178 1.350 . S
C179 C195 1.343 1_554 S
C180 C178 1.327 1_556 S
C180 C199 1.429 . S
C180 H204 0.950 1_565 S
C181 C198 1.576 . S
C181 C200 1.368 . S
C181 H205 0.949 . S
H182 C186 0.949 . S
C183 C184 1.349 . S
C183 C185 1.327 . S
C183 H206 0.950 . S
C184 C183 1.349 . S
C184 C196 1.349 . S
C185 C183 1.327 . S
C185 C201 1.429 . S
C185 H207 0.950 . S
C186 H182 0.949 . S
C186 C194 1.574 . S
C186 C202 1.368 . S
H187 C195 0.950 . S
H188 C193 0.950 . S
H189 C194 0.949 . S
H190 C196 0.950 . S
H191 C197 0.950 . S
H192 C198 0.951 . S
C193 H188 0.950 . S
C193 C195 1.327 . S
C193 C199 1.429 . S
C194 C186 1.574 . S
C194 H189 0.949 . S
C194 C200 1.368 1_545 S
C195 C179 1.343 1_556 S
C195 H187 0.950 . S
C195 C193 1.327 . S
C196 C184 1.349 . S
C196 H190 0.950 . S
C196 C197 1.327 . S
C197 H191 0.950 . S
C197 C196 1.327 . S
C197 C201 1.429 . S
C198 C181 1.576 . S
C198 H192 0.951 . S
C198 C202 1.364 1_565 S
C199 C180 1.429 . S
C199 C193 1.429 . S
C199 C200 1.523 . S
C200 C181 1.368 . S
C200 C194 1.368 1_565 S
C200 C199 1.523 . S
C201 C185 1.429 . S
C201 C197 1.429 . S
C201 C202 1.523 . S
C202 C186 1.368 . S
C202 C198 1.364 1_545 S
C202 C201 1.523 . S
H203 C178 0.950 . S
H204 C180 0.950 1_545 S
H205 C181 0.949 . S
H206 C183 0.950 . S
H207 C185 0.950 . S
C208 C209 1.344 1_455 S
C208 C210 1.327 . S
C208 H233 0.950 . S
C209 C208 1.344 1_655 S
C209 C225 1.349 . S
C210 C208 1.327 . S
C210 C229 1.429 . S
C210 H234 0.950 . S
C211 C228 1.574 . S
C211 C230 1.368 . S
C211 H235 0.949 . S
H212 C216 0.949 . S
C213 C214 1.349 . S
C213 C215 1.327 . S
C213 H236 0.950 . S
C214 C213 1.349 . S
C214 C226 1.349 . S
C215 C213 1.327 . S
C215 C231 1.429 . S
C215 H237 0.950 . S
C216 H212 0.949 . S
C216 C224 1.574 . S
C216 C232 1.368 . S
H217 C225 0.950 . S
H218 C223 0.950 . S
H219 C224 0.949 . S
H220 C226 0.950 . S
H221 C227 0.950 . S
H222 C228 0.949 . S
C223 H218 0.950 . S
C223 C225 1.327 1_455 S
C223 C229 1.429 . S
C224 C216 1.574 . S
C224 H219 0.949 . S
C224 C230 1.368 . S
C225 C209 1.349 . S
C225 H217 0.950 . S
C225 C223 1.327 1_655 S
C226 C214 1.349 . S
C226 H220 0.950 . S
C226 C227 1.327 . S
C227 H221 0.950 . S
C227 C226 1.327 . S
C227 C231 1.429 . S
C228 C211 1.574 . S
C228 H222 0.949 . S
C228 C232 1.368 . S
C229 C210 1.429 . S
C229 C223 1.429 . S
C229 C230 1.523 . S
C230 C211 1.368 . S
C230 C224 1.368 . S
C230 C229 1.523 . S
C231 C215 1.429 . S
C231 C227 1.429 . S
C231 C232 1.523 . S
C232 C216 1.368 . S
C232 C228 1.368 . S
C232 C231 1.523 . S
H233 C208 0.950 . S
H234 C210 0.950 . S
H235 C211 0.949 . S
H236 C213 0.950 . S
H237 C215 0.950 . S
C238 C239 1.349 . S
C238 C240 1.327 . S
C238 H263 0.950 . S
C239 C238 1.349 . S
C239 C255 1.349 . S
C240 C238 1.327 . S
C240 C259 1.429 . S
C240 H264 0.950 . S
C241 C258 1.574 . S
C241 C260 1.368 . S
C241 H265 0.949 . S
H242 C246 0.949 . S
C243 C244 1.350 . S
C243 C245 1.327 1_545 S
C243 H266 0.950 . S
C244 C243 1.350 . S
C244 C256 1.343 1_545 S
C245 C243 1.327 1_565 S
C245 C261 1.429 . S
C245 H267 0.950 . S
C246 H242 0.949 . S
C246 C254 1.574 1_655 S
C246 C262 1.368 . S
H247 C255 0.950 . S
H248 C253 0.950 . S
H249 C254 0.949 . S
H250 C256 0.950 . S
H251 C257 0.950 . S
H252 C258 0.949 . S
C253 H248 0.950 . S
C253 C255 1.327 . S
C253 C259 1.429 . S
C254 C246 1.574 1_455 S
C254 H249 0.949 . S
C254 C260 1.368 . S
C255 C239 1.349 . S
C255 H247 0.950 . S
C255 C253 1.327 . S
C256 C244 1.343 1_565 S
C256 H250 0.950 . S
C256 C257 1.327 . S
C257 H251 0.950 . S
C257 C256 1.327 . S
C257 C261 1.429 . S
C258 C241 1.574 . S
C258 H252 0.949 . S
C258 C262 1.368 1_455 S
C259 C240 1.429 . S
C259 C253 1.429 . S
C259 C260 1.523 . S
C260 C241 1.368 . S
C260 C254 1.368 . S
C260 C259 1.523 . S
C261 C245 1.429 . S
C261 C257 1.429 . S
C261 C262 1.523 . S
C262 C246 1.368 . S
C262 C258 1.368 1_655 S
C262 C261 1.523 . S
H263 C238 0.950 . S
H264 C240 0.950 . S
H265 C241 0.949 . S
H266 C243 0.950 . S
H267 C245 0.950 . S
C268 C269 1.349 . S
C268 C270 1.327 . S
C268 H293 0.950 . S
C269 C268 1.349 . S
C269 C285 1.349 . S
C270 C268 1.327 . S
C270 C289 1.429 . S
C270 H294 0.950 . S
C271 C288 1.574 . S
C271 C290 1.368 . S
C271 H295 0.949 . S
H272 C276 0.949 . S
C273 C274 1.349 . S
C273 C275 1.327 . S
C273 H296 0.950 . S
C274 C273 1.349 . S
C274 C286 1.349 . S
C275 C273 1.327 . S
C275 C291 1.429 . S
C275 H297 0.950 1_554 S
C276 H272 0.949 . S
C276 C284 1.574 . S
C276 C292 1.368 . S
H277 C285 0.950 . S
H278 C283 0.950 . S
H279 C284 0.949 . S
H280 C286 0.950 . S
H281 C287 0.950 . S
H282 C288 0.949 . S
C283 H278 0.950 . S
C283 C285 1.327 . S
C283 C289 1.429 . S
C284 C276 1.574 . S
C284 H279 0.949 . S
C284 C290 1.368 1_554 S
C285 C269 1.349 . S
C285 H277 0.950 . S
C285 C283 1.327 . S
C286 C274 1.349 . S
C286 H280 0.950 . S
C286 C287 1.327 . S
C287 H281 0.950 . S
C287 C286 1.327 . S
C287 C291 1.429 . S
C288 C271 1.574 . S
C288 H282 0.949 . S
C288 C292 1.368 1_556 S
C289 C270 1.429 . S
C289 C283 1.429 . S
C289 C290 1.523 . S
C290 C271 1.368 . S
C290 C284 1.368 1_556 S
C290 C289 1.523 . S
C291 C275 1.429 . S
C291 C287 1.429 . S
C291 C292 1.523 . S
C292 C276 1.368 . S
C292 C288 1.368 1_554 S
C292 C291 1.523 . S
H293 C268 0.950 . S
H294 C270 0.950 . S
H295 C271 0.949 . S
H296 C273 0.950 . S
H297 C275 0.950 1_556 S
C298 C299 1.349 . S
C298 C300 1.327 . S
C298 H323 0.950 . S
C299 C298 1.349 . S
C299 C315 1.349 . S
C300 C298 1.327 . S
C300 C319 1.429 . S
C300 H324 0.950 . S
C301 C318 1.574 . S
C301 C320 1.368 . S
C301 H325 0.949 . S
H302 C306 0.949 . S
C303 C304 1.343 1_545 S
C303 C305 1.327 . S
C303 H326 0.950 . S
C304 C303 1.343 1_565 S
C304 C316 1.350 . S
C305 C303 1.327 . S
C305 C321 1.429 . S
C305 H327 0.950 . S
C306 H302 0.949 . S
C306 C314 1.574 . S
C306 C322 1.368 . S
H307 C315 0.950 . S
H308 C313 0.950 . S
H309 C314 0.949 . S
H310 C316 0.950 . S
H311 C317 0.950 . S
H312 C318 0.949 . S
C313 H308 0.950 . S
C313 C315 1.327 . S
C313 C319 1.429 . S
C314 C306 1.574 . S
C314 H309 0.949 . S
C314 C320 1.368 . S
C315 C299 1.349 . S
C315 H307 0.950 . S
C315 C313 1.327 . S
C316 C304 1.350 . S
C316 H310 0.950 . S
C316 C317 1.327 1_565 S
C317 H311 0.950 . S
C317 C316 1.327 1_545 S
C317 C321 1.429 . S
C318 C301 1.574 . S
C318 H312 0.949 . S
C318 C322 1.368 . S
C319 C300 1.429 . S
C319 C313 1.429 . S
C319 C320 1.523 . S
C320 C301 1.368 . S
C320 C314 1.368 . S
C320 C319 1.523 . S
C321 C305 1.429 . S
C321 C317 1.429 . S
C321 C322 1.523 . S
C322 C306 1.368 . S
C322 C318 1.368 . S
C322 C321 1.523 . S
H323 C298 0.950 . S
H324 C300 0.950 . S
H325 C301 0.949 . S
H326 C303 0.950 . S
H327 C305 0.950 . S
C328 C329 1.349 . S
C328 C330 1.327 . S
C328 H353 0.950 . S
C329 C328 1.349 . S
C329 C345 1.349 . S
C330 C328 1.327 . S
C330 C349 1.429 . S
C330 H354 0.950 . S
C331 C348 1.574 . S
C331 C350 1.368 . S
C331 H355 0.949 . S
H332 C336 0.949 . S
C333 C334 1.349 . S
C333 C335 1.327 . S
C333 H356 0.950 . S
C334 C333 1.349 . S
C334 C346 1.349 . S
C335 C333 1.327 . S
C335 C351 1.429 . S
C335 H357 0.950 . S
C336 H332 0.949 . S
C336 C344 1.574 . S
C336 C352 1.368 . S
H337 C345 0.950 . S
H338 C343 0.950 . S
H339 C344 0.949 . S
H340 C346 0.950 . S
H341 C347 0.950 . S
H342 C348 0.949 . S
C343 H338 0.950 . S
C343 C345 1.327 . S
C343 C349 1.429 . S
C344 C336 1.574 . S
C344 H339 0.949 . S
C344 C350 1.368 . S
C345 C329 1.349 . S
C345 H337 0.950 . S
C345 C343 1.327 . S
C346 C334 1.349 . S
C346 H340 0.950 . S
C346 C347 1.327 . S
C347 H341 0.950 . S
C347 C346 1.327 . S
C347 C351 1.429 . S
C348 C331 1.574 . S
C348 H342 0.949 . S
C348 C352 1.368 . S
C349 C330 1.429 . S
C349 C343 1.429 . S
C349 C350 1.523 . S
C350 C331 1.368 . S
C350 C344 1.368 . S
C350 C349 1.523 . S
C351 C335 1.429 . S
C351 C347 1.429 . S
C351 C352 1.523 . S
C352 C336 1.368 . S
C352 C348 1.368 . S
C352 C351 1.523 . S
H353 C328 0.950 . S
H354 C330 0.950 . S
H355 C331 0.949 . S
H356 C333 0.950 . S
H357 C335 0.950 . S
C358 C359 1.349 . S
C358 C360 1.327 . S
C358 H383 0.950 . S
C359 C358 1.349 . S
C359 C375 1.349 . S
C360 C358 1.327 . S
C360 C379 1.429 . S
C360 H384 0.950 . S
C361 C378 1.574 . S
C361 C380 1.368 1_655 S
C361 H385 0.949 . S
H362 C366 0.949 1_455 S
C363 C364 1.349 . S
C363 C365 1.327 . S
C363 H386 0.950 . S
C364 C363 1.349 . S
C364 C376 1.349 . S
C365 C363 1.327 . S
C365 C381 1.429 . S
C365 H387 0.950 . S
C366 H362 0.949 1_655 S
C366 C374 1.574 1_655 S
C366 C382 1.368 . S
H367 C375 0.950 . S
H368 C373 0.950 1_655 S
H369 C374 0.949 . S
H370 C376 0.950 . S
H371 C377 0.950 . S
H372 C378 0.949 . S
C373 H368 0.950 1_455 S
C373 C375 1.327 . S
C373 C379 1.429 . S
C374 C366 1.574 1_455 S
C374 H369 0.949 . S
C374 C380 1.368 . S
C375 C359 1.349 . S
C375 H367 0.950 . S
C375 C373 1.327 . S
C376 C364 1.349 . S
C376 H370 0.950 . S
C376 C377 1.327 . S
C377 H371 0.950 . S
C377 C376 1.327 . S
C377 C381 1.429 . S
C378 C361 1.574 . S
C378 H372 0.949 . S
C378 C382 1.368 . S
C379 C360 1.429 . S
C379 C373 1.429 . S
C379 C380 1.523 . S
C380 C361 1.368 1_455 S
C380 C374 1.368 . S
C380 C379 1.523 . S
C381 C365 1.429 . S
C381 C377 1.429 . S
C381 C382 1.523 . S
C382 C366 1.368 . S
C382 C378 1.368 . S
C382 C381 1.523 . S
H383 C358 0.950 . S
H384 C360 0.950 . S
H385 C361 0.949 . S
H386 C363 0.950 . S
H387 C365 0.950 . S
C388 C389 1.348 1_655 S
C388 C390 1.348 . S
C388 H413 0.930 1_655 S
C389 C388 1.348 1_455 S
C389 C405 1.345 1_455 S
C390 C388 1.348 . S
C390 C409 1.429 . S
C390 H414 0.950 1_556 S
C391 C408 1.574 . S
C391 C410 1.368 . S
C391 H415 0.949 . S
H392 C396 0.949 . S
C393 C394 1.349 . S
C393 C395 1.327 . S
C393 H416 0.950 . S
C394 C393 1.349 . S
C394 C406 1.349 . S
C395 C393 1.327 . S
C395 C411 1.429 . S
C395 H417 0.950 . S
C396 H392 0.949 . S
C396 C404 1.574 . S
C396 C412 1.368 . S
H397 C405 0.950 . S
H398 C403 0.950 . S
H399 C404 0.949 . S
H400 C406 0.950 . S
H401 C407 0.950 . S
H402 C408 0.949 . S
C403 H398 0.950 . S
C403 C405 1.327 . S
C403 C409 1.429 . S
C404 C396 1.574 . S
C404 H399 0.949 . S
C404 C410 1.368 1_554 S
C405 C389 1.345 1_655 S
C405 H397 0.950 . S
C405 C403 1.327 . S
C406 C394 1.349 . S
C406 H400 0.950 . S
C406 C407 1.327 . S
C407 H401 0.950 . S
C407 C406 1.327 . S
C407 C411 1.429 . S
C408 C391 1.574 . S
C408 H402 0.949 . S
C408 C412 1.368 1_556 S
C409 C390 1.429 . S
C409 C403 1.429 . S
C409 C410 1.523 . S
C410 C391 1.368 . S
C410 C404 1.368 1_556 S
C410 C409 1.523 . S
C411 C395 1.429 . S
C411 C407 1.429 . S
C411 C412 1.523 . S
C412 C396 1.368 . S
C412 C408 1.368 1_554 S
C412 C411 1.523 . S
H413 C388 0.930 1_455 S
H414 C390 0.950 1_554 S
H415 C391 0.949 . S
H416 C393 0.950 . S
H417 C395 0.950 . S
C418 C419 1.349 . S
C418 C420 1.327 . S
C418 H443 0.950 . S
C419 C418 1.349 . S
C419 C435 1.349 . S
C420 C418 1.327 . S
C420 C439 1.429 . S
C420 H444 0.950 . S
C421 C438 1.574 . S
C421 C440 1.368 . S
C421 H445 0.949 . S
H422 C426 0.949 . S
C423 C424 1.349 . S
C423 C425 1.327 . S
C423 H446 0.950 . S
C424 C423 1.349 . S
C424 C436 1.349 . S
C425 C423 1.327 . S
C425 C441 1.429 . S
C425 H447 0.950 . S
C426 H422 0.949 . S
C426 C434 1.574 . S
C426 C442 1.368 . S
H427 C435 0.950 . S
H428 C433 0.950 . S
H429 C434 0.949 . S
H430 C436 0.950 . S
H431 C437 0.950 . S
H432 C438 0.949 . S
C433 H428 0.950 . S
C433 C435 1.327 . S
C433 C439 1.429 . S
C434 C426 1.574 . S
C434 H429 0.949 . S
C434 C440 1.368 . S
C435 C419 1.349 . S
C435 H427 0.950 . S
C435 C433 1.327 . S
C436 C424 1.349 . S
C436 H430 0.950 . S
C436 C437 1.327 . S
C437 H431 0.950 . S
C437 C436 1.327 . S
C437 C441 1.429 . S
C438 C421 1.574 . S
C438 H432 0.949 . S
C438 C442 1.368 . S
C439 C420 1.429 . S
C439 C433 1.429 . S
C439 C440 1.523 . S
C440 C421 1.368 . S
C440 C434 1.368 . S
C440 C439 1.523 . S
C441 C425 1.429 . S
C441 C437 1.429 . S
C441 C442 1.523 . S
C442 C426 1.368 . S
C442 C438 1.368 . S
C442 C441 1.523 . S
H443 C418 0.950 . S
H444 C420 0.950 . S
H445 C421 0.949 . S
H446 C423 0.950 . S
H447 C425 0.950 . S
C89 C51 1.210 . S
C94 C4 1.205 . S
C119 C75 1.205 . S
C124 C31 1.205 . S
C149 C48 1.205 . S
C154 C7 1.205 . S
C179 C71 1.210 . S
C184 C27 1.205 . S
C209 C30 1.210 . S
C214 C5 1.205 . S
C239 C50 1.205 . S
C244 C29 1.210 . S
C269 C49 1.205 . S
C274 C70 1.205 . S
C299 C6 1.205 . S
C304 C72 1.210 . S
C329 C28 1.205 . S
C334 C9 1.205 . S
C359 C52 1.205 . S
C364 C26 1.205 . S
C389 C53 1.210 . S
C394 C73 1.205 . S
C419 C74 1.205 . S
C424 C8 1.205 . S
