# Generated by pormake.
# Topology sml, (6)-cn, num edge types: 1
# Building blocks:
#     Node 0, Type 0, BuildingBlock: BETGAK_clean_sbu_0, # of connection points: 6
#     Node 1, Type 0, BuildingBlock: BETGAK_clean_sbu_0, # of connection points: 6
#     Node 2, Type 0, BuildingBlock: BETGAK_clean_sbu_0, # of connection points: 6
#     Node 3, Type 0, BuildingBlock: BETGAK_clean_sbu_0, # of connection points: 6
#     Node 4, Type 0, BuildingBlock: BETGAK_clean_sbu_0, # of connection points: 6
#     Node 5, Type 0, BuildingBlock: BETGAK_clean_sbu_0, # of connection points: 6
#     Edge 6, Type (0, 0), BuildingBlock: AJUNOK_clean_linker_0, # of connection points: 2
#     Edge 7, Type (0, 0), BuildingBlock: AJUNOK_clean_linker_0, # of connection points: 2
#     Edge 8, Type (0, 0), BuildingBlock: AJUNOK_clean_linker_0, # of connection points: 2
#     Edge 9, Type (0, 0), BuildingBlock: AJUNOK_clean_linker_0, # of connection points: 2
#     Edge 10, Type (0, 0), BuildingBlock: AJUNOK_clean_linker_0, # of connection points: 2
#     Edge 11, Type (0, 0), BuildingBlock: AJUNOK_clean_linker_0, # of connection points: 2
#     Edge 12, Type (0, 0), BuildingBlock: AJUNOK_clean_linker_0, # of connection points: 2
#     Edge 13, Type (0, 0), BuildingBlock: AJUNOK_clean_linker_0, # of connection points: 2
#     Edge 14, Type (0, 0), BuildingBlock: AJUNOK_clean_linker_0, # of connection points: 2
#     Edge 15, Type (0, 0), BuildingBlock: AJUNOK_clean_linker_0, # of connection points: 2
#     Edge 16, Type (0, 0), BuildingBlock: AJUNOK_clean_linker_0, # of connection points: 2
#     Edge 17, Type (0, 0), BuildingBlock: AJUNOK_clean_linker_0, # of connection points: 2
#     Edge 18, Type (0, 0), BuildingBlock: AJUNOK_clean_linker_0, # of connection points: 2
#     Edge 19, Type (0, 0), BuildingBlock: AJUNOK_clean_linker_0, # of connection points: 2
#     Edge 20, Type (0, 0), BuildingBlock: AJUNOK_clean_linker_0, # of connection points: 2
#     Edge 21, Type (0, 0), BuildingBlock: AJUNOK_clean_linker_0, # of connection points: 2
#     Edge 22, Type (0, 0), BuildingBlock: AJUNOK_clean_linker_0, # of connection points: 2
#     Edge 23, Type (0, 0), BuildingBlock: AJUNOK_clean_linker_0, # of connection points: 2
# Relax obj value: 0.265
# Max RMSD: 0.271
# Mean RMSD: 0.271
data_MOF--net-sml--node1-BETGAK_clean_sbu_0--edge1-AJUNOK_clean_linker_0
_symmetry_space_group_name_H-M    P1
_symmetry_Int_Tables_number       1
_symmetry_cell_setting            triclinic
loop_
_symmetry_equiv_pos_as_xyz
'x, y, z'
_cell_length_a     21.83836
_cell_length_b     21.860175
_cell_length_c     20.262414
_cell_angle_alpha  90.039837
_cell_angle_beta   90.138118
_cell_angle_gamma 119.46091
loop_
_atom_site_label
_atom_site_type_symbol
_atom_site_fract_x
_atom_site_fract_y
_atom_site_fract_z
_atom_type_partial_charge
La0 La 0.15938 0.43327 0.16707 0.0
La1 La 0.24169 0.40189 0.27121 0.0
C2 C 0.12799 0.46353 0.05729 0.0
C3 C 0.14835 0.45942 0.98854 0.0
C4 C 0.09654 0.41698 0.94265 0.0
C5 C 0.11494 0.41144 0.8778 0.0
C6 C 0.18554 0.4487 0.85734 0.0
C7 C 0.2375 0.49063 0.90341 0.0
C8 C 0.21911 0.4962 0.96831 0.0
C9 C 0.08227 0.35578 0.26605 0.0
C10 C 0.20368 0.31433 0.14282 0.0
C11 C 0.2722 0.37076 0.38194 0.0
C12 C 0.26525 0.38534 0.45254 0.0
C13 C 0.31783 0.44534 0.48507 0.0
C14 C 0.30945 0.45885 0.55125 0.0
C15 C 0.24824 0.41287 0.58582 0.0
C16 C 0.19669 0.3522 0.55411 0.0
C17 C 0.20534 0.33823 0.48848 0.0
C18 C 0.31459 0.47559 0.16972 0.0
C19 C 0.20645 0.52886 0.29076 0.0
O20 O 0.08907 0.40334 0.08707 0.0
O21 O 0.17757 0.50965 0.09589 0.0
O22 O 0.06731 0.3964 0.23107 0.0
O23 O 0.13456 0.3547 0.24077 0.0
O24 O 0.18538 0.35929 0.11847 0.0
O25 O 0.22125 0.31577 0.20554 0.0
O26 O 0.31744 0.42299 0.34546 0.0
O27 O 0.21329 0.33138 0.35011 0.0
O28 O 0.32962 0.43317 0.20215 0.0
O29 O 0.26575 0.47994 0.19838 0.0
O30 O 0.23532 0.49144 0.31218 0.0
O31 O 0.17531 0.51813 0.23267 0.0
H32 H 0.04177 0.38775 0.95706 0.0
H33 H 0.0739 0.37748 0.84371 0.0
H34 H 0.29222 0.52007 0.88894 0.0
H35 H 0.26034 0.5295 1.00244 0.0
H36 H 0.36515 0.48216 0.45932 0.0
H37 H 0.35005 0.50581 0.57503 0.0
H38 H 0.14925 0.31586 0.58004 0.0
H39 H 0.16423 0.29102 0.46552 0.0
La40 La 0.82639 0.26447 0.59307 0.0
La41 La 0.75438 0.15613 0.48543 0.0
C42 C 0.85458 0.32751 0.70242 0.0
C43 C 0.83771 0.30585 0.77227 0.0
C44 C 0.8883 0.30323 0.8133 0.0
C45 C 0.87246 0.28149 0.87886 0.0
C46 C 0.80589 0.26255 0.90503 0.0
C47 C 0.75538 0.26552 0.86422 0.0
C48 C 0.77135 0.28752 0.7987 0.0
C49 C 0.91306 0.27123 0.50064 0.0
C50 C 0.78347 0.10215 0.61492 0.0
C51 C 0.7119 0.09094 0.37745 0.0
C52 C 0.72268 0.1117 0.30686 0.0
C53 C 0.67125 0.11983 0.27209 0.0
C54 C 0.6827 0.14342 0.20672 0.0
C55 C 0.74599 0.15978 0.17501 0.0
C56 C 0.79636 0.1494 0.20879 0.0
C57 C 0.78453 0.12491 0.27376 0.0
C58 C 0.67359 0.16217 0.5796 0.0
C59 C 0.80047 0.3172 0.46039 0.0
O60 O 0.89646 0.30936 0.67262 0.0
O61 O 0.80227 0.3188 0.6644 0.0
O62 O 0.9209 0.3235 0.53676 0.0
O63 O 0.86089 0.21465 0.5211 0.0
O64 O 0.79564 0.16293 0.64081 0.0
O65 O 0.77515 0.09047 0.55075 0.0
O66 O 0.6763 0.11328 0.41216 0.0
O67 O 0.76614 0.09631 0.41033 0.0
O68 O 0.6628 0.10381 0.55296 0.0
O69 O 0.72497 0.21173 0.55188 0.0
O70 O 0.78972 0.25674 0.43532 0.0
O71 O 0.8069 0.32972 0.52461 0.0
H72 H 0.94007 0.31754 0.79458 0.0
H73 H 0.91209 0.27864 0.90889 0.0
H74 H 0.7038 0.25156 0.88318 0.0
H75 H 0.73168 0.29019 0.76886 0.0
H76 H 0.62249 0.10894 0.29577 0.0
H77 H 0.64287 0.15053 0.18146 0.0
H78 H 0.84496 0.16022 0.18482 0.0
H79 H 0.82426 0.117 0.29806 0.0
La80 La 0.56196 0.70685 0.8244 0.0
La81 La 0.60612 0.81977 0.93257 0.0
C82 C 0.52316 0.64283 0.7157 0.0
C83 C 0.52986 0.66537 0.64612 0.0
C84 C 0.55116 0.63316 0.59847 0.0
C85 C 0.56133 0.65617 0.53294 0.0
C86 C 0.55051 0.71202 0.51384 0.0
C87 C 0.52762 0.74317 0.56136 0.0
C88 C 0.51792 0.72046 0.62697 0.0
C89 C 0.64617 0.7025 0.91527 0.0
C90 C 0.67925 0.86892 0.79826 0.0
C91 C 0.63999 0.8834 1.0416 0.0
C92 C 0.62672 0.85914 0.11067 0.0
C93 C 0.61877 0.90031 0.15946 0.0
C94 C 0.60468 0.87673 0.22488 0.0
C95 C 0.59929 0.81208 0.24236 0.0
C96 C 0.60659 0.77068 0.1934 0.0
C97 C 0.61947 0.7937 0.12803 0.0
C98 C 0.51727 0.81655 0.84263 0.0
C99 C 0.48531 0.66095 0.9598 0.0
O100 O 0.58193 0.65684 0.7454 0.0
O101 O 0.48244 0.65613 0.75345 0.0
O102 O 0.60173 0.64918 0.88038 0.0
O103 O 0.6475 0.75722 0.89288 0.0
O104 O 0.63044 0.80732 0.77456 0.0
O105 O 0.68662 0.88284 0.86221 0.0
O106 O 0.5844 0.87257 1.00775 0.0
O107 O 0.68132 0.86744 1.00765 0.0
O108 O 0.56451 0.87408 0.87056 0.0
O109 O 0.51913 0.76525 0.86813 0.0
O110 O 0.53401 0.72254 0.98285 0.0
O111 O 0.4809 0.64387 0.89639 0.0
H112 H 0.56072 0.59064 0.61212 0.0
H113 H 0.57764 0.63025 0.49716 0.0
H114 H 0.5192 0.78649 0.54817 0.0
H115 H 0.50221 0.7468 0.66281 0.0
H116 H 0.62343 0.95062 0.14696 0.0
H117 H 0.59927 0.90943 0.26201 0.0
H118 H 0.60198 0.72036 0.20575 0.0
H119 H 0.62365 0.76031 0.09104 0.0
La120 La 0.70345 0.56608 0.27907 0.0
La121 La 0.81471 0.60102 0.17196 0.0
C122 C 0.63839 0.54268 0.38681 0.0
C123 C 0.66032 0.55385 0.45694 0.0
C124 C 0.71719 0.6179 0.47832 0.0
C125 C 0.73794 0.62815 0.54448 0.0
C126 C 0.70313 0.57411 0.59057 0.0
C127 C 0.64607 0.51003 0.56939 0.0
C128 C 0.62461 0.50016 0.50317 0.0
C129 C 0.70056 0.64511 0.18231 0.0
C130 C 0.86878 0.67455 0.30599 0.0
C131 C 0.8762 0.63184 0.06204 0.0
C132 C 0.85079 0.62196 0.99331 0.0
C133 C 0.89151 0.61762 0.94203 0.0
C134 C 0.86763 0.609 0.87662 0.0
C135 C 0.80307 0.60547 0.86172 0.0
C136 C 0.76156 0.60779 0.91332 0.0
C137 C 0.78493 0.61521 0.97856 0.0
C138 C 0.81474 0.51829 0.26626 0.0
C139 C 0.65584 0.47832 0.14931 0.0
O140 O 0.65828 0.59951 0.35153 0.0
O141 O 0.64581 0.49463 0.35474 0.0
O142 O 0.64661 0.60155 0.2164 0.0
O143 O 0.75498 0.64747 0.20703 0.0
O144 O 0.80489 0.63118 0.32886 0.0
O145 O 0.88315 0.68021 0.24218 0.0
O146 O 0.86069 0.57416 0.09427 0.0
O147 O 0.86568 0.67591 0.09776 0.0
O148 O 0.86951 0.55904 0.23121 0.0
O149 O 0.76146 0.51869 0.24248 0.0
O150 O 0.71666 0.52578 0.12429 0.0
O151 O 0.63926 0.47875 0.21223 0.0
H152 H 0.74675 0.65981 0.44375 0.0
H153 H 0.78287 0.67758 0.55912 0.0
H154 H 0.61795 0.46774 0.60415 0.0
H155 H 0.58047 0.45047 0.48796 0.0
H156 H 0.94161 0.62076 0.95262 0.0
H157 H 0.8999 0.60613 0.83758 0.0
H158 H 0.71076 0.60321 0.90312 0.0
H159 H 0.75157 0.61554 1.01755 0.0
La160 La 0.27426 0.8284 0.50242 0.0
La161 La 0.16727 0.75177 0.61115 0.0
C162 C 0.33517 0.85395 0.39228 0.0
C163 C 0.3106 0.83243 0.32422 0.0
C164 C 0.35916 0.85033 0.27281 0.0
C165 C 0.33566 0.83076 0.20785 0.0
C166 C 0.26315 0.7935 0.19334 0.0
C167 C 0.21491 0.77537 0.24537 0.0
C168 C 0.23847 0.79362 0.31011 0.0
C169 C 0.27879 0.91091 0.59792 0.0
C170 C 0.10937 0.78125 0.48492 0.0
C171 C 0.1018 0.70866 0.71848 0.0
C172 C 0.12318 0.71769 0.7883 0.0
C173 C 0.07625 0.7137 0.83743 0.0
C174 C 0.09702 0.72375 0.90377 0.0
C175 C 0.16513 0.7384 0.92148 0.0
C176 C 0.21204 0.74269 0.87229 0.0
C177 C 0.19108 0.73208 0.80636 0.0
C178 C 0.17408 0.67495 0.51364 0.0
C179 C 0.32999 0.80061 0.63348 0.0
O180 O 0.31512 0.89514 0.42057 0.0
O181 O 0.32815 0.80331 0.43141 0.0
O182 O 0.33123 0.92354 0.55962 0.0
O183 O 0.22328 0.85803 0.57672 0.0
O184 O 0.17052 0.79742 0.45732 0.0
O185 O 0.09969 0.77235 0.54906 0.0
O186 O 0.12228 0.67234 0.68237 0.0
O187 O 0.11071 0.76536 0.68822 0.0
O188 O 0.11577 0.66149 0.54228 0.0
O189 O 0.22363 0.72635 0.5417 0.0
O190 O 0.26804 0.78369 0.659 0.0
O191 O 0.34449 0.8151 0.57016 0.0
H192 H 0.41514 0.87958 0.28284 0.0
H193 H 0.37423 0.84504 0.16894 0.0
H194 H 0.1588 0.74847 0.23618 0.0
H195 H 0.19997 0.77781 0.34876 0.0
H196 H 0.02393 0.70347 0.8244 0.0
H197 H 0.06059 0.72146 0.94113 0.0
H198 H 0.2648 0.75387 0.88494 0.0
H199 H 0.2281 0.73526 0.76971 0.0
La200 La 0.44037 0.15964 0.93011 0.0
La201 La 0.40911 0.24428 0.82665 0.0
C202 C 0.47194 0.13172 1.04142 0.0
C203 C 0.46323 0.14995 0.11038 0.0
C204 C 0.3961 0.12502 0.13812 0.0
C205 C 0.38852 0.14356 0.20254 0.0
C206 C 0.44776 0.18684 0.24147 0.0
C207 C 0.51494 0.21244 0.21356 0.0
C208 C 0.52255 0.19407 0.14886 0.0
C209 C 0.36359 0.08414 0.83007 0.0
C210 C 0.32045 0.20354 0.95389 0.0
C211 C 0.38071 0.28438 0.71928 0.0
C212 C 0.3921 0.28067 0.64725 0.0
C213 C 0.45978 0.31267 0.61923 0.0
C214 C 0.46892 0.30222 0.5523 0.0
C215 C 0.41059 0.25985 0.5119 0.0
C216 C 0.34283 0.23246 0.53897 0.0
C217 C 0.33377 0.24253 0.60575 0.0
C218 C 0.48559 0.31462 0.92921 0.0
C219 C 0.52908 0.20035 0.80189 0.0
O220 O 0.41464 0.08863 1.00876 0.0
O221 O 0.5163 0.18404 1.00454 0.0
O222 O 0.40131 0.06677 0.86708 0.0
O223 O 0.36214 0.13653 0.85537 0.0
O224 O 0.36444 0.18364 0.97793 0.0
O225 O 0.32242 0.22214 0.8916 0.0
O226 O 0.43546 0.32422 0.75626 0.0
O227 O 0.33856 0.22458 0.74821 0.0
O228 O 0.44273 0.33047 0.8988 0.0
O229 O 0.48762 0.26549 0.89881 0.0
O230 O 0.49164 0.22955 0.78187 0.0
O231 O 0.52207 0.17215 0.86116 0.0
H232 H 0.3491 0.09157 0.10993 0.0
H233 H 0.33597 0.12438 0.22172 0.0
H234 H 0.56168 0.24585 0.24212 0.0
H235 H 0.57496 0.2144 0.12883 0.0
H236 H 0.50573 0.34383 0.64943 0.0
H237 H 0.52178 0.32454 0.53298 0.0
H238 H 0.29663 0.20173 0.5088 0.0
H239 H 0.28092 0.21879 0.62543 0.0
C240 C 0.28772 0.21451 0.06966 0.0
C241 C 0.27618 0.21638 1.00141 0.0
C242 C 0.25903 0.24093 0.1158 0.0
C243 C 0.21755 0.27047 0.0957 0.0
H244 H 0.32291 0.19669 0.08778 0.0
H245 H 0.27359 0.24233 0.16715 0.0
S246 S 0.1601 0.27573 0.92395 0.0
N247 N 0.21187 0.24094 0.91689 0.0
N248 N 0.15762 0.2904 1.00354 0.0
C249 C 0.19994 0.26651 1.0282 0.0
C250 C 0.22938 0.23963 0.98109 0.0
C251 C 0.98086 0.26187 0.32983 0.0
C252 C 0.04701 0.3235 0.32926 0.0
C253 C 0.93917 0.24045 0.3875 0.0
C254 C 0.96158 0.28114 0.44546 0.0
H255 H 0.95962 0.2323 0.28465 0.0
H256 H 0.88734 0.19525 0.38526 0.0
S257 S 0.13055 0.44586 0.46922 0.0
N258 N 0.13301 0.42181 0.39287 0.0
N259 N 0.05536 0.38405 0.49907 0.0
C260 C 0.02877 0.34071 0.44589 0.0
C261 C 0.07113 0.36138 0.3882 0.0
C262 C 0.77138 0.05384 0.72917 0.0
C263 C 0.76871 0.04294 0.66043 0.0
C264 C 0.74674 -0.00242 0.77355 0.0
C265 C 0.71792 0.92777 0.75125 0.0
H266 H 0.78983 0.10601 0.74918 0.0
H267 H 0.74688 0.00894 0.82562 0.0
S268 S 0.70923 0.87119 0.57699 0.0
N269 N 0.74276 0.95718 0.57272 0.0
N270 N 0.69591 0.85159 0.65618 0.0
C271 C 0.71937 0.91639 0.68299 0.0
C272 C 0.74491 0.97385 0.63764 0.0
C273 C 0.61717 0.63029 1.01607 0.0
C274 C 0.66422 0.69243 0.98329 0.0
C275 C 0.62998 0.61687 0.08028 0.0
C276 C 0.69186 0.66349 0.11407 0.0
H277 H 0.56907 0.5916 0.99233 0.0
H278 H 0.59101 0.56868 0.10328 0.0
S279 S 0.83362 0.83273 0.04988 0.0
N280 N 0.77573 0.80125 0.98887 0.0
N281 N 0.8013 0.7745 0.11023 0.0
C282 C 0.74032 0.72555 0.08193 0.0
C283 C 0.7262 0.74031 1.01633 0.0
C284 C 0.05313 0.78726 0.37802 0.0
C285 C 0.04667 0.76003 0.44215 0.0
C286 C -0.00519 0.76171 0.33503 0.0
C287 C 0.928 0.70744 0.35432 0.0
H288 H 0.10381 0.8278 0.36052 0.0
H289 H 0.0026 0.78354 0.28581 0.0
S290 S 0.88577 0.61225 0.51455 0.0
N291 N 0.96916 0.67281 0.52125 0.0
N292 N 0.86103 0.62402 0.44094 0.0
C293 C 0.92134 0.67956 0.41837 0.0
C294 C 0.98024 0.70599 0.46209 0.0
C295 C 0.27751 0.97335 0.77274 0.0
C296 C 0.32781 0.04532 0.76895 0.0
C297 C 0.25619 0.93013 0.71608 0.0
C298 C 0.28596 0.95723 0.65411 0.0
H299 H 0.25745 0.94944 0.82038 0.0
H300 H 0.22107 0.87451 0.72202 0.0
S301 S 0.42233 0.13991 0.61792 0.0
N302 N 0.40562 0.14046 0.69709 0.0
N303 N 0.36862 0.05938 0.59244 0.0
C304 C 0.33466 0.02905 0.64953 0.0
C305 C 0.35485 0.0731 0.70648 0.0
C306 C 0.25922 0.42994 0.77291 0.0
C307 C 0.20451 0.44434 0.78779 0.0
C308 C 0.27489 0.42199 0.70719 0.0
C309 C 0.23641 0.42827 0.65444 0.0
H310 H 0.28873 0.42286 0.81235 0.0
H311 H 0.3159 0.4089 0.69766 0.0
S312 S 0.09483 0.47479 0.6666 0.0
N313 N 0.11686 0.47134 0.74392 0.0
N314 N 0.14582 0.4556 0.62125 0.0
C315 C 0.18375 0.44539 0.6687 0.0
C316 C 0.16791 0.45362 0.73517 0.0
C317 C 0.71276 0.15175 0.05543 0.0
C318 C 0.76006 0.18833 0.10698 0.0
C319 C 0.7272 0.17666 0.99028 0.0
C320 C 0.78921 0.23918 0.97465 0.0
H321 H 0.66522 0.1027 0.0653 0.0
H322 H 0.69045 0.1459 0.95167 0.0
S323 S 0.92432 0.35938 0.09345 0.0
N324 N 0.86786 0.29299 0.13902 0.0
N325 N 0.89414 0.34069 1.01711 0.0
C326 C 0.83519 0.27765 1.02628 0.0
C327 C 0.82083 0.252 0.09229 0.0
C328 C 0.51407 0.7493 0.41034 0.0
C329 C 0.56418 0.73861 0.4448 0.0
C330 C 0.52592 0.77396 0.345 0.0
C331 C 0.58807 0.78832 0.31188 0.0
H332 H 0.46495 0.73764 0.43374 0.0
H333 H 0.48583 0.78077 0.31987 0.0
S334 S 0.73903 0.77719 0.38178 0.0
N335 N 0.68086 0.75031 0.44215 0.0
N336 N 0.70199 0.79494 0.31907 0.0
C337 C 0.63901 0.77928 0.34597 0.0
C338 C 0.62735 0.75481 0.41248 0.0
C339 C 0.76973 0.54225 0.75328 0.0
C340 C 0.77865 0.59912 0.79249 0.0
C341 C 0.74492 0.53455 0.68819 0.0
C342 C 0.72842 0.58346 0.65992 0.0
H343 H 0.78146 0.50318 0.77327 0.0
H344 H 0.73996 0.49078 0.65924 0.0
S345 S 0.74891 0.74497 0.74046 0.0
N346 N 0.77311 0.70728 0.79765 0.0
N347 N 0.72641 0.69282 0.67525 0.0
C348 C 0.73877 0.64149 0.69822 0.0
C349 C 0.76365 0.64913 0.76459 0.0
C350 C 0.24693 0.81506 1.00923 0.0
C351 C 0.18842 0.75088 0.991 0.0
C352 C 0.27094 0.82802 0.07458 0.0
C353 C 0.23793 0.77682 0.12394 0.0
H354 H 0.27375 0.85591 0.97277 0.0
H355 H 0.31499 0.87908 0.08664 0.0
S356 S 0.08507 0.59803 0.09963 0.0
N357 N 0.09897 0.63483 1.02601 0.0
N358 N 0.14558 0.6576 0.14865 0.0
C359 C 0.17997 0.71168 0.10576 0.0
C360 C 0.15487 0.69909 1.03933 0.0
C361 C 0.46714 0.29213 0.39899 0.0
C362 C 0.42022 0.24069 0.44317 0.0
C363 C 0.47634 0.27448 0.33423 0.0
C364 C 0.43916 0.20462 0.31102 0.0
H365 H 0.49615 0.34666 0.4142 0.0
H366 H 0.51199 0.31609 0.30172 0.0
S367 S 0.31637 0.04908 0.40935 0.0
N368 N 0.34026 0.1161 0.46018 0.0
N369 N 0.35796 0.08311 0.3395 0.0
C370 C 0.39366 0.15254 0.35533 0.0
C371 C 0.38412 0.17049 0.42097 0.0
C372 C 0.25452 0.60806 0.38794 0.0
C373 C 0.20223 0.57762 0.33892 0.0
C374 C 0.245 0.6404 0.44356 0.0
C375 C 0.18242 0.64263 0.45288 0.0
H376 H 0.30213 0.60438 0.38467 0.0
H377 H 0.28608 0.66167 0.48075 0.0
S378 S 0.03257 0.57831 0.33614 0.0
N379 N 0.08797 0.5575 0.30067 0.0
N380 N 0.06999 0.6177 0.40624 0.0
C381 C 0.13101 0.61553 0.40308 0.0
C382 C 0.14114 0.58352 0.34561 0.0
C383 C 0.6091 0.12047 0.68773 0.0
C384 C 0.63812 0.17142 0.63766 0.0
C385 C 0.57804 0.13192 0.74397 0.0
C386 C 0.57466 0.19433 0.75127 0.0
H387 H 0.61047 0.07175 0.68347 0.0
H388 H 0.55394 0.09055 0.78037 0.0
S389 S 0.64467 0.34388 0.63423 0.0
N390 N 0.66212 0.28614 0.59928 0.0
N391 N 0.60531 0.30817 0.70446 0.0
C392 C 0.60479 0.24577 0.70184 0.0
C393 C 0.63606 0.23415 0.64517 0.0
C394 C 0.38359 0.59326 0.11906 0.0
C395 C 0.35521 0.52035 0.11402 0.0
C396 C 0.42417 0.63777 0.06805 0.0
C397 C 0.43621 0.61097 1.00912 0.0
H398 H 0.37589 0.61623 0.16351 0.0
H399 H 0.44666 0.6939 0.07519 0.0
S400 S 0.36424 0.42273 0.96816 0.0
N401 N 0.33703 0.42242 0.04427 0.0
N402 N 0.4109 0.50613 0.94673 0.0
C403 C 0.40505 0.53775 1.0022 0.0
C404 C 0.3653 0.49241 0.05518 0.0
C405 C 0.77413 0.4115 0.42422 0.0
C406 C 0.80878 0.37259 0.41388 0.0
C407 C 0.77633 0.45896 0.37622 0.0
C408 C 0.8136 0.46932 0.31699 0.0
H409 H 0.74383 0.40398 0.46873 0.0
H410 H 0.7501 0.48874 0.38626 0.0
S411 S 0.92144 0.38782 0.27167 0.0
N412 N 0.88693 0.35255 0.34353 0.0
N413 N 0.8914 0.44195 0.25385 0.0
C414 C 0.85138 0.43345 0.30797 0.0
C415 C 0.84864 0.38483 0.35625 0.0
C416 C 0.44715 0.86313 0.68993 0.0
C417 C 0.38267 0.80152 0.6794 0.0
C418 C 0.491 0.86801 0.74306 0.0
C419 C 0.47153 0.81127 0.78667 0.0
H420 H 0.46225 0.90862 0.65883 0.0
H421 H 0.54 0.91651 0.75035 0.0
S422 S 0.30892 0.63789 0.77789 0.0
N423 N 0.30316 0.68194 0.71429 0.0
N424 N 0.3838 0.6917 0.81504 0.0
C425 C 0.40789 0.74905 0.77539 0.0
C426 C 0.36391 0.74401 0.72139 0.0
C427 C 0.53824 0.41314 0.09308 0.0
C428 C 0.60685 0.42452 0.10242 0.0
C429 C 0.49829 0.37582 1.03759 0.0
C430 C 0.52544 0.3483 0.99028 0.0
H431 H 0.5169 0.43646 0.12661 0.0
H432 H 0.44622 0.36917 1.03128 0.0
S433 S 0.69911 0.35672 0.99697 0.0
N434 N 0.69768 0.39998 0.06326 0.0
N435 N 0.62273 0.32996 0.95973 0.0
C436 C 0.59209 0.35548 1.00161 0.0
C437 C 0.63276 0.39367 0.0575 0.0
loop_
_geom_bond_atom_site_label_1
_geom_bond_atom_site_label_2
_geom_bond_distance
_geom_bond_site_symmetry_2
_ccdc_geom_bond_type
La0 C2 2.928 . S
La0 O20 2.521 . S
La0 O21 2.628 . S
La0 O22 2.554 . S
La0 O23 2.757 . S
La0 O24 2.470 . S
La0 O29 2.482 . S
La0 O31 2.503 . S
La1 C11 2.928 . S
La1 O23 2.482 . S
La1 O25 2.503 . S
La1 O26 2.521 . S
La1 O27 2.628 . S
La1 O28 2.554 . S
La1 O29 2.757 . S
La1 O30 2.470 . S
C2 La0 2.928 . S
C2 C3 1.503 1_554 S
C2 O20 1.261 . S
C2 O21 1.243 . S
C3 C2 1.503 1_556 S
C3 C4 1.394 . S
C3 C8 1.373 . S
C4 C3 1.394 . S
C4 C5 1.380 . S
C4 H32 0.930 . S
C5 C4 1.380 . S
C5 C6 1.376 . S
C5 H33 0.930 . S
C6 C5 1.376 . S
C6 C7 1.370 . S
C7 C6 1.370 . S
C7 C8 1.396 . S
C7 H34 0.929 . S
C8 C3 1.373 . S
C8 C7 1.396 . S
C8 H35 0.929 . S
C9 O22 1.240 . S
C9 O23 1.289 . S
C10 O24 1.258 . S
C10 O25 1.256 . S
C11 La1 2.928 . S
C11 C12 1.503 . S
C11 O26 1.261 . S
C11 O27 1.243 . S
C12 C11 1.503 . S
C12 C13 1.394 . S
C12 C17 1.373 . S
C13 C12 1.394 . S
C13 C14 1.380 . S
C13 H36 0.930 . S
C14 C13 1.380 . S
C14 C15 1.376 . S
C14 H37 0.930 . S
C15 C14 1.376 . S
C15 C16 1.370 . S
C16 C15 1.370 . S
C16 C17 1.396 . S
C16 H38 0.929 . S
C17 C12 1.373 . S
C17 C16 1.396 . S
C17 H39 0.929 . S
C18 O28 1.240 . S
C18 O29 1.289 . S
C19 O30 1.258 . S
C19 O31 1.256 . S
O20 La0 2.521 . S
O20 C2 1.261 . S
O21 La0 2.628 . S
O21 C2 1.243 . S
O22 La0 2.554 . S
O22 C9 1.240 . S
O23 La0 2.757 . S
O23 La1 2.482 . S
O23 C9 1.289 . S
O24 La0 2.470 . S
O24 C10 1.258 . S
O25 La1 2.503 . S
O25 C10 1.256 . S
O26 La1 2.521 . S
O26 C11 1.261 . S
O27 La1 2.628 . S
O27 C11 1.243 . S
O28 La1 2.554 . S
O28 C18 1.240 . S
O29 La0 2.482 . S
O29 La1 2.757 . S
O29 C18 1.289 . S
O30 La1 2.470 . S
O30 C19 1.258 . S
O31 La0 2.503 . S
O31 C19 1.256 . S
H32 C4 0.930 . S
H33 C5 0.930 . S
H34 C7 0.929 . S
H35 C8 0.929 . S
H36 C13 0.930 . S
H37 C14 0.930 . S
H38 C16 0.929 . S
H39 C17 0.929 . S
La40 C42 2.928 . S
La40 O60 2.521 . S
La40 O61 2.628 . S
La40 O62 2.554 . S
La40 O63 2.757 . S
La40 O64 2.470 . S
La40 O69 2.482 . S
La40 O71 2.503 . S
La41 C51 2.928 . S
La41 O63 2.482 . S
La41 O65 2.503 . S
La41 O66 2.521 . S
La41 O67 2.628 . S
La41 O68 2.554 . S
La41 O69 2.757 . S
La41 O70 2.470 . S
C42 La40 2.928 . S
C42 C43 1.503 . S
C42 O60 1.261 . S
C42 O61 1.243 . S
C43 C42 1.503 . S
C43 C44 1.394 . S
C43 C48 1.373 . S
C44 C43 1.394 . S
C44 C45 1.380 . S
C44 H72 0.930 . S
C45 C44 1.380 . S
C45 C46 1.376 . S
C45 H73 0.930 . S
C46 C45 1.376 . S
C46 C47 1.370 . S
C47 C46 1.370 . S
C47 C48 1.396 . S
C47 H74 0.929 . S
C48 C43 1.373 . S
C48 C47 1.396 . S
C48 H75 0.929 . S
C49 O62 1.240 . S
C49 O63 1.289 . S
C50 O64 1.258 . S
C50 O65 1.256 . S
C51 La41 2.928 . S
C51 C52 1.503 . S
C51 O66 1.261 . S
C51 O67 1.243 . S
C52 C51 1.503 . S
C52 C53 1.394 . S
C52 C57 1.373 . S
C53 C52 1.394 . S
C53 C54 1.380 . S
C53 H76 0.930 . S
C54 C53 1.380 . S
C54 C55 1.376 . S
C54 H77 0.930 . S
C55 C54 1.376 . S
C55 C56 1.370 . S
C56 C55 1.370 . S
C56 C57 1.396 . S
C56 H78 0.929 . S
C57 C52 1.373 . S
C57 C56 1.396 . S
C57 H79 0.929 . S
C58 O68 1.240 . S
C58 O69 1.289 . S
C59 O70 1.258 . S
C59 O71 1.256 . S
O60 La40 2.521 . S
O60 C42 1.261 . S
O61 La40 2.628 . S
O61 C42 1.243 . S
O62 La40 2.554 . S
O62 C49 1.240 . S
O63 La40 2.757 . S
O63 La41 2.482 . S
O63 C49 1.289 . S
O64 La40 2.470 . S
O64 C50 1.258 . S
O65 La41 2.503 . S
O65 C50 1.256 . S
O66 La41 2.521 . S
O66 C51 1.261 . S
O67 La41 2.628 . S
O67 C51 1.243 . S
O68 La41 2.554 . S
O68 C58 1.240 . S
O69 La40 2.482 . S
O69 La41 2.757 . S
O69 C58 1.289 . S
O70 La41 2.470 . S
O70 C59 1.258 . S
O71 La40 2.503 . S
O71 C59 1.256 . S
H72 C44 0.930 . S
H73 C45 0.930 . S
H74 C47 0.929 . S
H75 C48 0.929 . S
H76 C53 0.930 . S
H77 C54 0.930 . S
H78 C56 0.929 . S
H79 C57 0.929 . S
La80 C82 2.928 . S
La80 O100 2.521 . S
La80 O101 2.628 . S
La80 O102 2.554 . S
La80 O103 2.757 . S
La80 O104 2.470 . S
La80 O109 2.482 . S
La80 O111 2.503 . S
La81 C91 2.928 1_556 S
La81 O103 2.482 . S
La81 O105 2.503 . S
La81 O106 2.521 1_556 S
La81 O107 2.628 1_556 S
La81 O108 2.554 . S
La81 O109 2.757 . S
La81 O110 2.470 . S
C82 La80 2.928 . S
C82 C83 1.503 . S
C82 O100 1.261 . S
C82 O101 1.243 . S
C83 C82 1.503 . S
C83 C84 1.394 . S
C83 C88 1.373 . S
C84 C83 1.394 . S
C84 C85 1.380 . S
C84 H112 0.930 . S
C85 C84 1.380 . S
C85 C86 1.376 . S
C85 H113 0.930 . S
C86 C85 1.376 . S
C86 C87 1.370 . S
C87 C86 1.370 . S
C87 C88 1.396 . S
C87 H114 0.929 . S
C88 C83 1.373 . S
C88 C87 1.396 . S
C88 H115 0.929 . S
C89 O102 1.240 . S
C89 O103 1.289 . S
C90 O104 1.258 . S
C90 O105 1.256 . S
C91 La81 2.928 1_554 S
C91 C92 1.503 . S
C91 O106 1.261 . S
C91 O107 1.243 . S
C92 C91 1.503 . S
C92 C93 1.394 . S
C92 C97 1.373 . S
C93 C92 1.394 . S
C93 C94 1.380 . S
C93 H116 0.930 . S
C94 C93 1.380 . S
C94 C95 1.376 . S
C94 H117 0.930 . S
C95 C94 1.376 . S
C95 C96 1.370 . S
C96 C95 1.370 . S
C96 C97 1.396 . S
C96 H118 0.929 . S
C97 C92 1.373 . S
C97 C96 1.396 . S
C97 H119 0.929 . S
C98 O108 1.240 . S
C98 O109 1.289 . S
C99 O110 1.258 . S
C99 O111 1.256 . S
O100 La80 2.521 . S
O100 C82 1.261 . S
O101 La80 2.628 . S
O101 C82 1.243 . S
O102 La80 2.554 . S
O102 C89 1.240 . S
O103 La80 2.757 . S
O103 La81 2.482 . S
O103 C89 1.289 . S
O104 La80 2.470 . S
O104 C90 1.258 . S
O105 La81 2.503 . S
O105 C90 1.256 . S
O106 La81 2.521 1_554 S
O106 C91 1.261 . S
O107 La81 2.628 1_554 S
O107 C91 1.243 . S
O108 La81 2.554 . S
O108 C98 1.240 . S
O109 La80 2.482 . S
O109 La81 2.757 . S
O109 C98 1.289 . S
O110 La81 2.470 . S
O110 C99 1.258 . S
O111 La80 2.503 . S
O111 C99 1.256 . S
H112 C84 0.930 . S
H113 C85 0.930 . S
H114 C87 0.929 . S
H115 C88 0.929 . S
H116 C93 0.930 . S
H117 C94 0.930 . S
H118 C96 0.929 . S
H119 C97 0.929 . S
La120 C122 2.928 . S
La120 O140 2.521 . S
La120 O141 2.628 . S
La120 O142 2.554 . S
La120 O143 2.757 . S
La120 O144 2.470 . S
La120 O149 2.482 . S
La120 O151 2.503 . S
La121 C131 2.928 1_554 S
La121 O143 2.482 . S
La121 O145 2.503 . S
La121 O146 2.521 1_554 S
La121 O147 2.628 1_554 S
La121 O148 2.554 . S
La121 O149 2.757 . S
La121 O150 2.470 . S
C122 La120 2.928 . S
C122 C123 1.503 . S
C122 O140 1.261 . S
C122 O141 1.243 . S
C123 C122 1.503 . S
C123 C124 1.394 . S
C123 C128 1.373 . S
C124 C123 1.394 . S
C124 C125 1.380 . S
C124 H152 0.930 . S
C125 C124 1.380 . S
C125 C126 1.376 . S
C125 H153 0.930 . S
C126 C125 1.376 . S
C126 C127 1.370 . S
C127 C126 1.370 . S
C127 C128 1.396 . S
C127 H154 0.929 . S
C128 C123 1.373 . S
C128 C127 1.396 . S
C128 H155 0.929 . S
C129 O142 1.240 . S
C129 O143 1.289 . S
C130 O144 1.258 . S
C130 O145 1.256 . S
C131 La121 2.928 1_556 S
C131 C132 1.503 . S
C131 O146 1.261 . S
C131 O147 1.243 . S
C132 C131 1.503 . S
C132 C133 1.394 . S
C132 C137 1.373 . S
C133 C132 1.394 . S
C133 C134 1.380 . S
C133 H156 0.930 . S
C134 C133 1.380 . S
C134 C135 1.376 . S
C134 H157 0.930 . S
C135 C134 1.376 . S
C135 C136 1.370 . S
C136 C135 1.370 . S
C136 C137 1.396 . S
C136 H158 0.929 . S
C137 C132 1.373 . S
C137 C136 1.396 . S
C137 H159 0.929 . S
C138 O148 1.240 . S
C138 O149 1.289 . S
C139 O150 1.258 . S
C139 O151 1.256 . S
O140 La120 2.521 . S
O140 C122 1.261 . S
O141 La120 2.628 . S
O141 C122 1.243 . S
O142 La120 2.554 . S
O142 C129 1.240 . S
O143 La120 2.757 . S
O143 La121 2.482 . S
O143 C129 1.289 . S
O144 La120 2.470 . S
O144 C130 1.258 . S
O145 La121 2.503 . S
O145 C130 1.256 . S
O146 La121 2.521 1_556 S
O146 C131 1.261 . S
O147 La121 2.628 1_556 S
O147 C131 1.243 . S
O148 La121 2.554 . S
O148 C138 1.240 . S
O149 La120 2.482 . S
O149 La121 2.757 . S
O149 C138 1.289 . S
O150 La121 2.470 . S
O150 C139 1.258 . S
O151 La120 2.503 . S
O151 C139 1.256 . S
H152 C124 0.930 . S
H153 C125 0.930 . S
H154 C127 0.929 . S
H155 C128 0.929 . S
H156 C133 0.930 . S
H157 C134 0.930 . S
H158 C136 0.929 . S
H159 C137 0.929 . S
La160 C162 2.928 . S
La160 O180 2.521 . S
La160 O181 2.628 . S
La160 O182 2.554 . S
La160 O183 2.757 . S
La160 O184 2.470 . S
La160 O189 2.482 . S
La160 O191 2.503 . S
La161 C171 2.928 . S
La161 O183 2.482 . S
La161 O185 2.503 . S
La161 O186 2.521 . S
La161 O187 2.628 . S
La161 O188 2.554 . S
La161 O189 2.757 . S
La161 O190 2.470 . S
C162 La160 2.928 . S
C162 C163 1.503 . S
C162 O180 1.261 . S
C162 O181 1.243 . S
C163 C162 1.503 . S
C163 C164 1.394 . S
C163 C168 1.373 . S
C164 C163 1.394 . S
C164 C165 1.380 . S
C164 H192 0.930 . S
C165 C164 1.380 . S
C165 C166 1.376 . S
C165 H193 0.930 . S
C166 C165 1.376 . S
C166 C167 1.370 . S
C167 C166 1.370 . S
C167 C168 1.396 . S
C167 H194 0.929 . S
C168 C163 1.373 . S
C168 C167 1.396 . S
C168 H195 0.929 . S
C169 O182 1.240 . S
C169 O183 1.289 . S
C170 O184 1.258 . S
C170 O185 1.256 . S
C171 La161 2.928 . S
C171 C172 1.503 . S
C171 O186 1.261 . S
C171 O187 1.243 . S
C172 C171 1.503 . S
C172 C173 1.394 . S
C172 C177 1.373 . S
C173 C172 1.394 . S
C173 C174 1.380 . S
C173 H196 0.930 . S
C174 C173 1.380 . S
C174 C175 1.376 . S
C174 H197 0.930 . S
C175 C174 1.376 . S
C175 C176 1.370 . S
C176 C175 1.370 . S
C176 C177 1.396 . S
C176 H198 0.929 . S
C177 C172 1.373 . S
C177 C176 1.396 . S
C177 H199 0.929 . S
C178 O188 1.240 . S
C178 O189 1.289 . S
C179 O190 1.258 . S
C179 O191 1.256 . S
O180 La160 2.521 . S
O180 C162 1.261 . S
O181 La160 2.628 . S
O181 C162 1.243 . S
O182 La160 2.554 . S
O182 C169 1.240 . S
O183 La160 2.757 . S
O183 La161 2.482 . S
O183 C169 1.289 . S
O184 La160 2.470 . S
O184 C170 1.258 . S
O185 La161 2.503 . S
O185 C170 1.256 . S
O186 La161 2.521 . S
O186 C171 1.261 . S
O187 La161 2.628 . S
O187 C171 1.243 . S
O188 La161 2.554 . S
O188 C178 1.240 . S
O189 La160 2.482 . S
O189 La161 2.757 . S
O189 C178 1.289 . S
O190 La161 2.470 . S
O190 C179 1.258 . S
O191 La160 2.503 . S
O191 C179 1.256 . S
H192 C164 0.930 . S
H193 C165 0.930 . S
H194 C167 0.929 . S
H195 C168 0.929 . S
H196 C173 0.930 . S
H197 C174 0.930 . S
H198 C176 0.929 . S
H199 C177 0.929 . S
La200 C202 2.928 . S
La200 O220 2.521 . S
La200 O221 2.628 . S
La200 O222 2.554 . S
La200 O223 2.757 . S
La200 O224 2.470 . S
La200 O229 2.482 . S
La200 O231 2.503 . S
La201 C211 2.928 . S
La201 O223 2.482 . S
La201 O225 2.503 . S
La201 O226 2.521 . S
La201 O227 2.628 . S
La201 O228 2.554 . S
La201 O229 2.757 . S
La201 O230 2.470 . S
C202 La200 2.928 . S
C202 C203 1.503 1_556 S
C202 O220 1.261 . S
C202 O221 1.243 . S
C203 C202 1.503 1_554 S
C203 C204 1.394 . S
C203 C208 1.373 . S
C204 C203 1.394 . S
C204 C205 1.380 . S
C204 H232 0.930 . S
C205 C204 1.380 . S
C205 C206 1.376 . S
C205 H233 0.930 . S
C206 C205 1.376 . S
C206 C207 1.370 . S
C207 C206 1.370 . S
C207 C208 1.396 . S
C207 H234 0.929 . S
C208 C203 1.373 . S
C208 C207 1.396 . S
C208 H235 0.929 . S
C209 O222 1.240 . S
C209 O223 1.289 . S
C210 O224 1.258 . S
C210 O225 1.256 . S
C211 La201 2.928 . S
C211 C212 1.503 . S
C211 O226 1.261 . S
C211 O227 1.243 . S
C212 C211 1.503 . S
C212 C213 1.394 . S
C212 C217 1.373 . S
C213 C212 1.394 . S
C213 C214 1.380 . S
C213 H236 0.930 . S
C214 C213 1.380 . S
C214 C215 1.376 . S
C214 H237 0.930 . S
C215 C214 1.376 . S
C215 C216 1.370 . S
C216 C215 1.370 . S
C216 C217 1.396 . S
C216 H238 0.929 . S
C217 C212 1.373 . S
C217 C216 1.396 . S
C217 H239 0.929 . S
C218 O228 1.240 . S
C218 O229 1.289 . S
C219 O230 1.258 . S
C219 O231 1.256 . S
O220 La200 2.521 . S
O220 C202 1.261 . S
O221 La200 2.628 . S
O221 C202 1.243 . S
O222 La200 2.554 . S
O222 C209 1.240 . S
O223 La200 2.757 . S
O223 La201 2.482 . S
O223 C209 1.289 . S
O224 La200 2.470 . S
O224 C210 1.258 . S
O225 La201 2.503 . S
O225 C210 1.256 . S
O226 La201 2.521 . S
O226 C211 1.261 . S
O227 La201 2.628 . S
O227 C211 1.243 . S
O228 La201 2.554 . S
O228 C218 1.240 . S
O229 La200 2.482 . S
O229 La201 2.757 . S
O229 C218 1.289 . S
O230 La201 2.470 . S
O230 C219 1.258 . S
O231 La200 2.503 . S
O231 C219 1.256 . S
H232 C204 0.930 . S
H233 C205 0.930 . S
H234 C207 0.929 . S
H235 C208 0.929 . S
H236 C213 0.930 . S
H237 C214 0.930 . S
H238 C216 0.929 . S
H239 C217 0.929 . S
C240 C241 1.369 . S
C240 C242 1.419 1_556 S
C240 H244 0.930 . S
C241 C240 1.369 . S
C241 C250 1.429 . S
C242 C240 1.419 1_554 S
C242 C243 1.363 . S
C242 H245 0.929 . S
C243 C242 1.363 . S
C243 C249 1.428 . S
H244 C240 0.930 . S
H245 C242 0.929 . S
S246 N247 1.613 . S
S246 N248 1.610 1_556 S
N247 S246 1.613 . S
N247 C250 1.350 . S
N248 S246 1.610 1_554 S
N248 C249 1.351 . S
C249 C243 1.428 . S
C249 N248 1.351 . S
C249 C250 1.434 1_554 S
C250 C241 1.429 . S
C250 N247 1.350 . S
C250 C249 1.434 1_556 S
C251 C252 1.369 . S
C251 C253 1.419 1_455 S
C251 H255 0.930 . S
C252 C251 1.369 . S
C252 C261 1.429 . S
C253 C251 1.419 1_655 S
C253 C254 1.363 . S
C253 H256 0.929 . S
C254 C253 1.363 . S
C254 C260 1.428 . S
H255 C251 0.930 . S
H256 C253 0.929 . S
S257 N258 1.613 1_655 S
S257 N259 1.610 . S
N258 S257 1.613 1_455 S
N258 C261 1.350 . S
N259 S257 1.610 . S
N259 C260 1.351 . S
C260 C254 1.428 . S
C260 N259 1.351 . S
C260 C261 1.434 1_655 S
C261 C252 1.429 . S
C261 N258 1.350 . S
C261 C260 1.434 1_455 S
C262 C263 1.369 . S
C262 C264 1.419 . S
C262 H266 0.930 . S
C263 C262 1.369 . S
C263 C272 1.429 1_545 S
C264 C262 1.419 . S
C264 C265 1.363 1_545 S
C264 H267 0.929 . S
C265 C264 1.363 1_565 S
C265 C271 1.428 . S
H266 C262 0.930 . S
H267 C264 0.929 . S
S268 N269 1.613 . S
S268 N270 1.610 . S
N269 S268 1.613 . S
N269 C272 1.350 . S
N270 S268 1.610 . S
N270 C271 1.351 . S
C271 C265 1.428 . S
C271 N270 1.351 . S
C271 C272 1.434 . S
C272 C263 1.429 1_565 S
C272 N269 1.350 . S
C272 C271 1.434 . S
C273 C274 1.369 1_554 S
C273 C275 1.419 . S
C273 H277 0.930 . S
C274 C273 1.369 1_556 S
C274 C283 1.429 . S
C275 C273 1.419 . S
C275 C276 1.363 . S
C275 H278 0.929 . S
C276 C275 1.363 . S
C276 C282 1.428 1_554 S
H277 C273 0.930 . S
H278 C275 0.929 . S
S279 N280 1.613 . S
S279 N281 1.610 . S
N280 S279 1.613 . S
N280 C283 1.350 . S
N281 S279 1.610 . S
N281 C282 1.351 . S
C282 C276 1.428 1_556 S
C282 N281 1.351 . S
C282 C283 1.434 . S
C283 C274 1.429 . S
C283 N280 1.350 . S
C283 C282 1.434 . S
C284 C285 1.369 . S
C284 C286 1.419 . S
C284 H288 0.930 . S
C285 C284 1.369 . S
C285 C294 1.429 1_455 S
C286 C284 1.419 . S
C286 C287 1.363 1_455 S
C286 H289 0.929 . S
C287 C286 1.363 1_655 S
C287 C293 1.428 . S
H288 C284 0.930 . S
H289 C286 0.929 . S
S290 N291 1.613 . S
S290 N292 1.610 . S
N291 S290 1.613 . S
N291 C294 1.350 . S
N292 S290 1.610 . S
N292 C293 1.351 . S
C293 C287 1.428 . S
C293 N292 1.351 . S
C293 C294 1.434 . S
C294 C285 1.429 1_655 S
C294 N291 1.350 . S
C294 C293 1.434 . S
C295 C296 1.369 . S
C295 C297 1.419 1_545 S
C295 H299 0.930 . S
C296 C295 1.369 . S
C296 C305 1.429 . S
C297 C295 1.419 1_565 S
C297 C298 1.363 . S
C297 H300 0.929 . S
C298 C297 1.363 . S
C298 C304 1.428 . S
H299 C295 0.930 . S
H300 C297 0.929 . S
S301 N302 1.613 . S
S301 N303 1.610 . S
N302 S301 1.613 . S
N302 C305 1.350 . S
N303 S301 1.610 . S
N303 C304 1.351 1_545 S
C304 C298 1.428 . S
C304 N303 1.351 1_565 S
C304 C305 1.434 1_565 S
C305 C296 1.429 . S
C305 N302 1.350 . S
C305 C304 1.434 1_545 S
C306 C307 1.369 . S
C306 C308 1.419 . S
C306 H310 0.930 . S
C307 C306 1.369 . S
C307 C316 1.429 . S
C308 C306 1.419 . S
C308 C309 1.363 . S
C308 H311 0.929 . S
C309 C308 1.363 . S
C309 C315 1.428 . S
H310 C306 0.930 . S
H311 C308 0.929 . S
S312 N313 1.613 . S
S312 N314 1.610 . S
N313 S312 1.613 . S
N313 C316 1.350 . S
N314 S312 1.610 . S
N314 C315 1.351 . S
C315 C309 1.428 . S
C315 N314 1.351 . S
C315 C316 1.434 . S
C316 C307 1.429 . S
C316 N313 1.350 . S
C316 C315 1.434 . S
C317 C318 1.369 . S
C317 C319 1.419 . S
C317 H321 0.930 . S
C318 C317 1.369 . S
C318 C327 1.429 . S
C319 C317 1.419 . S
C319 C320 1.363 . S
C319 H322 0.929 . S
C320 C319 1.363 . S
C320 C326 1.428 . S
H321 C317 0.930 . S
H322 C319 0.929 . S
S323 N324 1.613 . S
S323 N325 1.610 1_554 S
N324 S323 1.613 . S
N324 C327 1.350 1_554 S
N325 S323 1.610 1_556 S
N325 C326 1.351 . S
C326 C320 1.428 . S
C326 N325 1.351 . S
C326 C327 1.434 . S
C327 C318 1.429 . S
C327 N324 1.350 1_556 S
C327 C326 1.434 . S
C328 C329 1.369 . S
C328 C330 1.419 . S
C328 H332 0.930 . S
C329 C328 1.369 . S
C329 C338 1.429 . S
C330 C328 1.419 . S
C330 C331 1.363 . S
C330 H333 0.929 . S
C331 C330 1.363 . S
C331 C337 1.428 . S
H332 C328 0.930 . S
H333 C330 0.929 . S
S334 N335 1.613 . S
S334 N336 1.610 . S
N335 S334 1.613 . S
N335 C338 1.350 . S
N336 S334 1.610 . S
N336 C337 1.351 . S
C337 C331 1.428 . S
C337 N336 1.351 . S
C337 C338 1.434 . S
C338 C329 1.429 . S
C338 N335 1.350 . S
C338 C337 1.434 . S
C339 C340 1.369 . S
C339 C341 1.419 . S
C339 H343 0.930 . S
C340 C339 1.369 . S
C340 C349 1.429 . S
C341 C339 1.419 . S
C341 C342 1.363 . S
C341 H344 0.929 . S
C342 C341 1.363 . S
C342 C348 1.428 . S
H343 C339 0.930 . S
H344 C341 0.929 . S
S345 N346 1.613 . S
S345 N347 1.610 . S
N346 S345 1.613 . S
N346 C349 1.350 . S
N347 S345 1.610 . S
N347 C348 1.351 . S
C348 C342 1.428 . S
C348 N347 1.351 . S
C348 C349 1.434 . S
C349 C340 1.429 . S
C349 N346 1.350 . S
C349 C348 1.434 . S
C350 C351 1.369 . S
C350 C352 1.419 . S
C350 H354 0.930 1_554 S
C351 C350 1.369 . S
C351 C360 1.429 . S
C352 C350 1.419 . S
C352 C353 1.363 . S
C352 H355 0.929 . S
C353 C352 1.363 . S
C353 C359 1.428 . S
H354 C350 0.930 1_556 S
H355 C352 0.929 . S
S356 N357 1.613 . S
S356 N358 1.610 . S
N357 S356 1.613 . S
N357 C360 1.350 . S
N358 S356 1.610 . S
N358 C359 1.351 . S
C359 C353 1.428 . S
C359 N358 1.351 . S
C359 C360 1.434 . S
C360 C351 1.429 . S
C360 N357 1.350 . S
C360 C359 1.434 . S
C361 C362 1.369 . S
C361 C363 1.419 . S
C361 H365 0.930 . S
C362 C361 1.369 . S
C362 C371 1.429 . S
C363 C361 1.419 . S
C363 C364 1.363 . S
C363 H366 0.929 . S
C364 C363 1.363 . S
C364 C370 1.428 . S
H365 C361 0.930 . S
H366 C363 0.929 . S
S367 N368 1.613 . S
S367 N369 1.610 . S
N368 S367 1.613 . S
N368 C371 1.350 . S
N369 S367 1.610 . S
N369 C370 1.351 . S
C370 C364 1.428 . S
C370 N369 1.351 . S
C370 C371 1.434 . S
C371 C362 1.429 . S
C371 N368 1.350 . S
C371 C370 1.434 . S
C372 C373 1.369 . S
C372 C374 1.419 . S
C372 H376 0.930 . S
C373 C372 1.369 . S
C373 C382 1.429 . S
C374 C372 1.419 . S
C374 C375 1.363 . S
C374 H377 0.929 . S
C375 C374 1.363 . S
C375 C381 1.428 . S
H376 C372 0.930 . S
H377 C374 0.929 . S
S378 N379 1.613 . S
S378 N380 1.610 . S
N379 S378 1.613 . S
N379 C382 1.350 . S
N380 S378 1.610 . S
N380 C381 1.351 . S
C381 C375 1.428 . S
C381 N380 1.351 . S
C381 C382 1.434 . S
C382 C373 1.429 . S
C382 N379 1.350 . S
C382 C381 1.434 . S
C383 C384 1.369 . S
C383 C385 1.419 . S
C383 H387 0.930 . S
C384 C383 1.369 . S
C384 C393 1.429 . S
C385 C383 1.419 . S
C385 C386 1.363 . S
C385 H388 0.929 . S
C386 C385 1.363 . S
C386 C392 1.428 . S
H387 C383 0.930 . S
H388 C385 0.929 . S
S389 N390 1.613 . S
S389 N391 1.610 . S
N390 S389 1.613 . S
N390 C393 1.350 . S
N391 S389 1.610 . S
N391 C392 1.351 . S
C392 C386 1.428 . S
C392 N391 1.351 . S
C392 C393 1.434 . S
C393 C384 1.429 . S
C393 N390 1.350 . S
C393 C392 1.434 . S
C394 C395 1.369 . S
C394 C396 1.419 . S
C394 H398 0.930 . S
C395 C394 1.369 . S
C395 C404 1.429 . S
C396 C394 1.419 . S
C396 C397 1.363 . S
C396 H399 0.929 . S
C397 C396 1.363 . S
C397 C403 1.428 . S
H398 C394 0.930 . S
H399 C396 0.929 . S
S400 N401 1.613 . S
S400 N402 1.610 . S
N401 S400 1.613 . S
N401 C404 1.350 . S
N402 S400 1.610 . S
N402 C403 1.351 . S
C403 C397 1.428 . S
C403 N402 1.351 . S
C403 C404 1.434 . S
C404 C395 1.429 . S
C404 N401 1.350 . S
C404 C403 1.434 . S
C405 C406 1.369 . S
C405 C407 1.419 . S
C405 H409 0.930 . S
C406 C405 1.369 . S
C406 C415 1.429 . S
C407 C405 1.419 . S
C407 C408 1.363 . S
C407 H410 0.929 . S
C408 C407 1.363 . S
C408 C414 1.428 . S
H409 C405 0.930 . S
H410 C407 0.929 . S
S411 N412 1.613 . S
S411 N413 1.610 . S
N412 S411 1.613 . S
N412 C415 1.350 . S
N413 S411 1.610 . S
N413 C414 1.351 . S
C414 C408 1.428 . S
C414 N413 1.351 . S
C414 C415 1.434 . S
C415 C406 1.429 . S
C415 N412 1.350 . S
C415 C414 1.434 . S
C416 C417 1.369 . S
C416 C418 1.419 . S
C416 H420 0.930 . S
C417 C416 1.369 . S
C417 C426 1.429 . S
C418 C416 1.419 . S
C418 C419 1.363 . S
C418 H421 0.929 . S
C419 C418 1.363 . S
C419 C425 1.428 . S
H420 C416 0.930 . S
H421 C418 0.929 . S
S422 N423 1.613 . S
S422 N424 1.610 . S
N423 S422 1.613 . S
N423 C426 1.350 . S
N424 S422 1.610 . S
N424 C425 1.351 . S
C425 C419 1.428 . S
C425 N424 1.351 . S
C425 C426 1.434 . S
C426 C417 1.429 . S
C426 N423 1.350 . S
C426 C425 1.434 . S
C427 C428 1.369 . S
C427 C429 1.419 . S
C427 H431 0.930 . S
C428 C427 1.369 . S
C428 C437 1.429 . S
C429 C427 1.419 . S
C429 C430 1.363 . S
C429 H432 0.929 . S
C430 C429 1.363 . S
C430 C436 1.428 . S
H431 C427 0.930 . S
H432 C429 0.929 . S
S433 N434 1.613 . S
S433 N435 1.610 . S
N434 S433 1.613 . S
N434 C437 1.350 . S
N435 S433 1.610 . S
N435 C436 1.351 . S
C436 C430 1.428 . S
C436 N435 1.351 . S
C436 C437 1.434 . S
C437 C428 1.429 . S
C437 N434 1.350 . S
C437 C436 1.434 . S
C241 C210 2.012 . S
C243 C10 2.007 . S
C252 C9 1.436 . S
C254 C49 1.436 . S
C263 C50 2.013 . S
C265 C90 2.006 . S
C274 C89 1.441 . S
C276 C129 1.444 . S
C285 C170 2.011 . S
C287 C130 2.008 . S
C296 C209 1.442 . S
C298 C169 1.438 . S
C307 C6 1.924 . S
C309 C15 1.913 . S
C318 C55 1.915 1_556 S
C320 C46 1.920 . S
C329 C86 1.922 . S
C331 C95 1.914 . S
C340 C135 1.912 . S
C342 C126 1.923 . S
C351 C175 1.924 1_554 S
C353 C166 1.913 . S
C362 C215 1.912 . S
C364 C206 1.923 . S
C373 C19 1.965 . S
C375 C178 1.954 . S
C384 C58 1.954 . S
C386 C219 1.965 . S
C395 C18 1.957 . S
C397 C99 1.966 1_554 S
C406 C59 1.965 . S
C408 C138 1.955 . S
C417 C179 1.965 . S
C419 C98 1.954 . S
C428 C139 1.965 1_556 S
C430 C218 1.955 . S
