# Generated by pormake.
# Topology wme, (6)-cn, num edge types: 1
# Building blocks:
#     Node 0, Type 0, BuildingBlock: KUMBUR_clean_sbu_1, # of connection points: 6
#     Node 1, Type 0, BuildingBlock: KUMBUR_clean_sbu_1, # of connection points: 6
#     Node 2, Type 0, BuildingBlock: KUMBUR_clean_sbu_1, # of connection points: 6
#     Node 3, Type 0, BuildingBlock: KUMBUR_clean_sbu_1, # of connection points: 6
#     Node 4, Type 0, BuildingBlock: KUMBUR_clean_sbu_1, # of connection points: 6
#     Node 5, Type 0, BuildingBlock: KUMBUR_clean_sbu_1, # of connection points: 6
#     Node 6, Type 0, BuildingBlock: KUMBUR_clean_sbu_1, # of connection points: 6
#     Node 7, Type 0, BuildingBlock: KUMBUR_clean_sbu_1, # of connection points: 6
#     Node 8, Type 0, BuildingBlock: KUMBUR_clean_sbu_1, # of connection points: 6
#     Node 9, Type 0, BuildingBlock: KUMBUR_clean_sbu_1, # of connection points: 6
#     Node 10, Type 0, BuildingBlock: KUMBUR_clean_sbu_1, # of connection points: 6
#     Node 11, Type 0, BuildingBlock: KUMBUR_clean_sbu_1, # of connection points: 6
#     Edge 12, Type (0, 0), BuildingBlock: UVAHIK_clean_linker_0, # of connection points: 2
#     Edge 13, Type (0, 0), BuildingBlock: UVAHIK_clean_linker_0, # of connection points: 2
#     Edge 14, Type (0, 0), BuildingBlock: UVAHIK_clean_linker_0, # of connection points: 2
#     Edge 15, Type (0, 0), BuildingBlock: UVAHIK_clean_linker_0, # of connection points: 2
#     Edge 16, Type (0, 0), BuildingBlock: UVAHIK_clean_linker_0, # of connection points: 2
#     Edge 17, Type (0, 0), BuildingBlock: UVAHIK_clean_linker_0, # of connection points: 2
#     Edge 18, Type (0, 0), BuildingBlock: UVAHIK_clean_linker_0, # of connection points: 2
#     Edge 19, Type (0, 0), BuildingBlock: UVAHIK_clean_linker_0, # of connection points: 2
#     Edge 20, Type (0, 0), BuildingBlock: UVAHIK_clean_linker_0, # of connection points: 2
#     Edge 21, Type (0, 0), BuildingBlock: UVAHIK_clean_linker_0, # of connection points: 2
#     Edge 22, Type (0, 0), BuildingBlock: UVAHIK_clean_linker_0, # of connection points: 2
#     Edge 23, Type (0, 0), BuildingBlock: UVAHIK_clean_linker_0, # of connection points: 2
#     Edge 24, Type (0, 0), BuildingBlock: UVAHIK_clean_linker_0, # of connection points: 2
#     Edge 25, Type (0, 0), BuildingBlock: UVAHIK_clean_linker_0, # of connection points: 2
#     Edge 26, Type (0, 0), BuildingBlock: UVAHIK_clean_linker_0, # of connection points: 2
#     Edge 27, Type (0, 0), BuildingBlock: UVAHIK_clean_linker_0, # of connection points: 2
#     Edge 28, Type (0, 0), BuildingBlock: UVAHIK_clean_linker_0, # of connection points: 2
#     Edge 29, Type (0, 0), BuildingBlock: UVAHIK_clean_linker_0, # of connection points: 2
#     Edge 30, Type (0, 0), BuildingBlock: UVAHIK_clean_linker_0, # of connection points: 2
#     Edge 31, Type (0, 0), BuildingBlock: UVAHIK_clean_linker_0, # of connection points: 2
#     Edge 32, Type (0, 0), BuildingBlock: UVAHIK_clean_linker_0, # of connection points: 2
#     Edge 33, Type (0, 0), BuildingBlock: UVAHIK_clean_linker_0, # of connection points: 2
#     Edge 34, Type (0, 0), BuildingBlock: UVAHIK_clean_linker_0, # of connection points: 2
#     Edge 35, Type (0, 0), BuildingBlock: UVAHIK_clean_linker_0, # of connection points: 2
#     Edge 36, Type (0, 0), BuildingBlock: UVAHIK_clean_linker_0, # of connection points: 2
#     Edge 37, Type (0, 0), BuildingBlock: UVAHIK_clean_linker_0, # of connection points: 2
#     Edge 38, Type (0, 0), BuildingBlock: UVAHIK_clean_linker_0, # of connection points: 2
#     Edge 39, Type (0, 0), BuildingBlock: UVAHIK_clean_linker_0, # of connection points: 2
#     Edge 40, Type (0, 0), BuildingBlock: UVAHIK_clean_linker_0, # of connection points: 2
#     Edge 41, Type (0, 0), BuildingBlock: UVAHIK_clean_linker_0, # of connection points: 2
#     Edge 42, Type (0, 0), BuildingBlock: UVAHIK_clean_linker_0, # of connection points: 2
#     Edge 43, Type (0, 0), BuildingBlock: UVAHIK_clean_linker_0, # of connection points: 2
#     Edge 44, Type (0, 0), BuildingBlock: UVAHIK_clean_linker_0, # of connection points: 2
#     Edge 45, Type (0, 0), BuildingBlock: UVAHIK_clean_linker_0, # of connection points: 2
#     Edge 46, Type (0, 0), BuildingBlock: UVAHIK_clean_linker_0, # of connection points: 2
#     Edge 47, Type (0, 0), BuildingBlock: UVAHIK_clean_linker_0, # of connection points: 2
# Relax obj value: 0.062
# Max RMSD: 0.165
# Mean RMSD: 0.165
data_MOF--net-wme--node1-KUMBUR_clean_sbu_1--edge1-UVAHIK_clean_linker_0
_symmetry_space_group_name_H-M    P1
_symmetry_Int_Tables_number       1
_symmetry_cell_setting            triclinic
loop_
_symmetry_equiv_pos_as_xyz
'x, y, z'
_cell_length_a     47.726794
_cell_length_b     47.708185
_cell_length_c     69.980945
_cell_angle_alpha  89.920392
_cell_angle_beta   89.962652
_cell_angle_gamma 120.11331
loop_
_atom_site_label
_atom_site_type_symbol
_atom_site_fract_x
_atom_site_fract_y
_atom_site_fract_z
_atom_type_partial_charge
Tb0 Tb 0.24223 0.31605 0.13763 0.0
C1 C 0.13126 0.31816 0.09736 0.0
N2 N 0.16227 0.33168 0.09095 0.0
C3 C 0.14329 0.30815 0.06005 0.0
C4 C 0.10491 0.29855 0.08535 0.0
C5 C 0.16867 0.32737 0.0725 0.0
C6 C 0.11129 0.29359 0.06651 0.0
C7 C 0.09434 0.30976 0.12338 0.0
C8 C 0.12618 0.32357 0.11618 0.0
C9 C 0.06796 0.28982 0.11157 0.0
C10 C 0.07323 0.28429 0.09259 0.0
Tb11 Tb 0.20164 0.36319 0.11225 0.0
N12 N 0.15237 0.34262 0.12731 0.0
C13 C 0.08994 0.31687 0.14213 0.0
C14 C 0.14782 0.3521 0.14491 0.0
C15 C 0.11677 0.33863 0.15281 0.0
H16 H 0.19333 0.33888 0.06736 0.0
H17 H 0.11351 0.3457 0.16695 0.0
H18 H 0.22295 0.30655 0.18365 0.0
H19 H 0.35717 0.3676 0.10099 0.0
H20 H 0.16766 0.371 0.15275 0.0
H21 H 0.0659 0.3067 0.14823 0.0
H22 H 0.29759 0.33745 0.10346 0.0
H23 H 0.14842 0.30463 0.04546 0.0
H24 H 0.04337 0.27877 0.11693 0.0
H25 H 0.05265 0.26892 0.08365 0.0
H26 H 0.25165 0.32507 0.21449 0.0
H27 H 0.0917 0.27863 0.05684 0.0
H28 H 0.39055 0.38906 0.13017 0.0
N29 N 0.26601 0.32968 0.16702 0.0
C30 C 0.29889 0.34671 0.1671 0.0
C31 C 0.26524 0.33147 0.20125 0.0
C32 C 0.31636 0.35716 0.18434 0.0
C33 C 0.24902 0.3214 0.18377 0.0
C34 C 0.29907 0.34956 0.20155 0.0
N35 N 0.29712 0.34321 0.13352 0.0
C36 C 0.31179 0.34719 0.11619 0.0
C37 C 0.34914 0.37049 0.14913 0.0
C38 C 0.31506 0.35339 0.14979 0.0
C39 C 0.36438 0.37602 0.13131 0.0
C40 C 0.3456 0.36403 0.11479 0.0
H41 H 0.31157 0.35721 0.21511 0.0
H42 H 0.3643 0.38295 0.1969 0.0
H43 H 0.393 0.39455 0.16606 0.0
O44 O 0.23926 0.27588 0.12322 0.0
O45 O 0.27254 0.36958 0.13609 0.0
O46 O 0.25439 0.38866 0.11108 0.0
O47 O 0.23863 0.27726 0.1539 0.0
O48 O 0.23561 0.3121 0.10651 0.0
O49 O 0.23565 0.35729 0.09363 0.0
O50 O 0.19947 0.4054 0.11847 0.0
O51 O 0.17994 0.30999 0.11029 0.0
O52 O 0.18964 0.29518 0.13943 0.0
O53 O 0.20215 0.39258 0.08958 0.0
O54 O 0.21701 0.37405 0.14263 0.0
O55 O 0.20803 0.32473 0.15324 0.0
C56 C 0.27651 0.39187 0.12348 0.0
C57 C 0.25989 0.2469 0.13986 0.0
C58 C 0.26601 0.19892 0.13831 0.0
C59 C 0.29909 0.21874 0.1427 0.0
C60 C 0.2929 0.26604 0.14413 0.0
C61 C 0.31236 0.252 0.14549 0.0
C62 C 0.24659 0.21344 0.13685 0.0
C63 C 0.24109 0.33269 0.09246 0.0
C64 C 0.23872 0.26109 0.139 0.0
C65 C 0.3504 0.37464 0.18381 0.0
C66 C 0.36675 0.38125 0.16625 0.0
C67 C 0.17055 0.28964 0.1247 0.0
C68 C 0.17207 0.41907 0.09541 0.0
C69 C 0.15003 0.45588 0.09524 0.0
C70 C 0.12206 0.43148 0.08615 0.0
C71 C 0.14442 0.39595 0.08563 0.0
C72 C 0.17486 0.44916 0.10013 0.0
C73 C 0.11947 0.40197 0.08129 0.0
C74 C 0.21263 0.35371 0.15666 0.0
C75 C 0.19806 0.41208 0.10063 0.0
H76 H 0.31471 0.20852 0.14437 0.0
H77 H 0.30358 0.2917 0.14661 0.0
H78 H 0.33779 0.26692 0.14894 0.0
H79 H 0.22113 0.19885 0.13332 0.0
H80 H 0.10197 0.4351 0.08275 0.0
H81 H 0.14203 0.37326 0.08117 0.0
H82 H 0.19657 0.46741 0.10721 0.0
H83 H 0.09804 0.38369 0.07402 0.0
Tb84 Tb 0.93347 0.23637 0.64169 0.0
C85 C 0.81984 0.1324 0.59577 0.0
N86 N 0.83862 0.16412 0.59091 0.0
C87 C 0.84249 0.14918 0.55873 0.0
C88 C 0.812 0.10767 0.58226 0.0
C89 C 0.8498 0.17287 0.57265 0.0
C90 C 0.82354 0.11644 0.56355 0.0
C91 C 0.79072 0.09215 0.62028 0.0
C92 C 0.80958 0.12484 0.61459 0.0
C93 C 0.78298 0.06737 0.60691 0.0
C94 C 0.7935 0.07511 0.58794 0.0
Tb95 Tb 0.84772 0.20059 0.61443 0.0
N96 N 0.81792 0.14949 0.62724 0.0
C97 C 0.77972 0.08531 0.63916 0.0
C98 C 0.80446 0.14276 0.6451 0.0
C99 C 0.78613 0.11075 0.65151 0.0
H100 H 0.86394 0.19811 0.56872 0.0
H101 H 0.7762 0.10571 0.66583 0.0
H102 H 0.92036 0.21157 0.68676 0.0
H103 H 1.00231 0.3553 0.61 0.0
H104 H 0.80625 0.16157 0.65428 0.0
H105 H 0.76524 0.06053 0.64411 0.0
H106 H 0.97097 0.29558 0.60991 0.0
H107 H 0.85138 0.15619 0.54428 0.0
H108 H 0.76869 0.04214 0.61108 0.0
H109 H 0.78737 0.05575 0.5778 0.0
H110 H 0.92901 0.23655 0.71875 0.0
H111 H 0.81806 0.09815 0.55275 0.0
H112 H 1.01311 0.38517 0.64051 0.0
N113 N 0.94222 0.25658 0.672 0.0
C114 C 0.95881 0.28938 0.67347 0.0
C115 C 0.93737 0.2517 0.70612 0.0
C116 C 0.96507 0.30475 0.6914 0.0
C117 C 0.93208 0.2376 0.68799 0.0
C118 C 0.9538 0.28543 0.70783 0.0
N119 N 0.9629 0.29162 0.63991 0.0
C120 C 0.97514 0.30827 0.62324 0.0
C121 C 0.98782 0.34163 0.65767 0.0
C122 C 0.96992 0.30757 0.65689 0.0
C123 C 0.99922 0.35893 0.64054 0.0
C124 C 0.9931 0.34215 0.62328 0.0
H125 H 0.95802 0.29629 0.72189 0.0
H126 H 0.98753 0.35108 0.70595 0.0
H127 H 1.00754 0.38337 0.67641 0.0
O128 O 0.97006 0.23231 0.62731 0.0
O129 O 0.91226 0.26838 0.64052 0.0
O130 O 0.87673 0.25323 0.61473 0.0
O131 O 0.9672 0.23037 0.65794 0.0
O132 O 0.93379 0.23422 0.61038 0.0
O133 O 0.88934 0.23465 0.59671 0.0
O134 O 0.80265 0.19673 0.62102 0.0
O135 O 0.87751 0.17731 0.61171 0.0
O136 O 0.89983 0.18405 0.64135 0.0
O137 O 0.82115 0.2067 0.59247 0.0
O138 O 0.85072 0.21387 0.64512 0.0
O139 O 0.88872 0.20175 0.65575 0.0
C140 C 0.89537 0.27405 0.62776 0.0
C141 C 0.01912 0.25111 0.64425 0.0
C142 C 0.07283 0.25636 0.64244 0.0
C143 C 0.08667 0.28934 0.64728 0.0
C144 C 0.03357 0.284 0.64898 0.0
C145 C 0.06715 0.30297 0.65044 0.0
C146 C 0.0388 0.23741 0.64092 0.0
C147 C 0.9194 0.23994 0.59603 0.0
C148 C 0.98362 0.2306 0.64307 0.0
C149 C 0.98251 0.33878 0.69231 0.0
C150 C 0.99391 0.35717 0.67548 0.0
C151 C 0.88804 0.1668 0.62575 0.0
C152 C 0.76396 0.17529 0.59602 0.0
C153 C 0.7048 0.15162 0.59611 0.0
C154 C 0.70275 0.13068 0.5813 0.0
C155 C 0.76089 0.15393 0.5813 0.0
C156 C 0.73577 0.17396 0.60342 0.0
C157 C 0.73051 0.13177 0.5741 0.0
C158 C 0.86548 0.20805 0.65921 0.0
C159 C 0.79637 0.19962 0.60331 0.0
H160 H 0.11261 0.30456 0.64898 0.0
H161 H 0.01898 0.29499 0.65171 0.0
H162 H 0.0781 0.32831 0.65423 0.0
H163 H 0.02754 0.21204 0.63707 0.0
H164 H 0.6797 0.11381 0.57491 0.0
H165 H 0.78192 0.15457 0.57508 0.0
H166 H 0.73806 0.19028 0.61484 0.0
H167 H 0.7285 0.11561 0.56265 0.0
Tb168 Tb 0.70736 0.92579 0.13991 0.0
C169 C 0.70392 0.81238 0.09867 0.0
N170 N 0.69116 0.83083 0.09291 0.0
C171 C 0.7147 0.83675 0.06185 0.0
C172 C 0.72381 0.80649 0.0864 0.0
C173 C 0.69527 0.84211 0.07459 0.0
C174 C 0.7293 0.81913 0.06783 0.0
C175 C 0.71066 0.78116 0.1237 0.0
C176 C 0.69741 0.79998 0.11709 0.0
C177 C 0.73124 0.77591 0.11173 0.0
C178 C 0.73769 0.78842 0.0931 0.0
Tb179 Tb 0.65978 0.83793 0.11461 0.0
N180 N 0.6775 0.80573 0.12831 0.0
C181 C 0.70235 0.76765 0.14201 0.0
C182 C 0.66714 0.79012 0.1455 0.0
C183 C 0.68003 0.77168 0.1528 0.0
H184 H 0.68367 0.85531 0.0698 0.0
H185 H 0.67225 0.76004 0.16661 0.0
H186 H 0.70992 0.91215 0.18669 0.0
H187 H 0.67006 1.00209 0.10451 0.0
H188 H 0.64825 0.7908 0.15356 0.0
H189 H 0.71208 0.75313 0.14764 0.0
H190 H 0.70015 0.97254 0.10791 0.0
H191 H 0.71834 0.84614 0.04742 0.0
H192 H 0.74193 0.76182 0.11665 0.0
H193 H 0.75336 0.78393 0.08397 0.0
H194 H 0.68101 0.91255 0.21579 0.0
H195 H 0.74447 0.81517 0.05796 0.0
H196 H 0.63576 1.00197 0.13114 0.0
N197 N 0.68526 0.92854 0.16848 0.0
C198 C 0.66626 0.9422 0.1678 0.0
C199 C 0.67626 0.92055 0.20232 0.0
C200 C 0.65022 0.94421 0.1842 0.0
C201 C 0.69212 0.91974 0.18568 0.0
C202 C 0.65469 0.93226 0.20151 0.0
N203 N 0.68182 0.95495 0.13572 0.0
C204 C 0.68504 0.97227 0.11947 0.0
C205 C 0.64745 0.97292 0.14971 0.0
C206 C 0.66492 0.95642 0.1509 0.0
C207 C 0.64881 0.98893 0.13264 0.0
C208 C 0.66814 0.98906 0.11757 0.0
H209 H 0.64274 0.93324 0.21445 0.0
H210 H 0.61855 0.9607 0.19533 0.0
H211 H 0.6161 0.98585 0.16507 0.0
O212 O 0.7517 0.96097 0.12769 0.0
O213 O 0.65885 0.90823 0.12709 0.0
O214 O 0.63216 0.85338 0.13217 0.0
O215 O 0.74161 0.96336 0.15726 0.0
O216 O 0.71312 0.924 0.10897 0.0
O217 O 0.66709 0.87932 0.09642 0.0
O218 O 0.62713 0.78807 0.11101 0.0
O219 O 0.71243 0.87031 0.11195 0.0
O220 O 0.72782 0.89371 0.14129 0.0
O221 O 0.62257 0.8231 0.09418 0.0
O222 O 0.65109 0.83998 0.14556 0.0
O223 O 0.699 0.88315 0.15672 0.0
C224 C 0.63211 0.88074 0.13056 0.0
C225 C 0.77697 0.01296 0.14186 0.0
C226 C 0.82584 0.06613 0.1377 0.0
C227 C 0.8068 0.08073 0.14055 0.0
C228 C 0.75865 0.02815 0.14466 0.0
C229 C 0.77352 0.06185 0.1439 0.0
C230 C 0.81043 0.03197 0.13825 0.0
C231 C 0.69208 0.90935 0.09505 0.0
C232 C 0.76206 0.97747 0.1434 0.0
C233 C 0.63134 0.95921 0.18294 0.0
C234 C 0.63 0.97358 0.16571 0.0
C235 C 0.73248 0.87978 0.12643 0.0
C236 C 0.57409 0.77574 0.10404 0.0
C237 C 0.52409 0.72537 0.11183 0.0
C238 C 0.5092 0.74357 0.11622 0.0
C239 C 0.55847 0.7933 0.10832 0.0
C240 C 0.55657 0.74162 0.10555 0.0
C241 C 0.52623 0.77723 0.11428 0.0
C242 C 0.67146 0.85603 0.15956 0.0
C243 C 0.60899 0.79271 0.09916 0.0
H244 H 0.81766 0.10683 0.14066 0.0
H245 H 0.73301 0.01408 0.14773 0.0
H246 H 0.75927 0.07344 0.14621 0.0
H247 H 0.82438 0.02003 0.13593 0.0
H248 H 0.48419 0.73167 0.12091 0.0
H249 H 0.57121 0.81946 0.10723 0.0
H250 H 0.56841 0.72784 0.10234 0.0
H251 H 0.51444 0.79097 0.11747 0.0
Tb252 Tb 0.78369 0.70309 0.63267 0.0
C253 C 0.89944 0.69565 0.6023 0.0
N254 N 0.86912 0.6828 0.59496 0.0
C255 C 0.89121 0.70268 0.56383 0.0
C256 C 0.927 0.71378 0.59076 0.0
C257 C 0.86459 0.68503 0.57588 0.0
C258 C 0.92255 0.71738 0.57133 0.0
C259 C 0.93372 0.70425 0.62974 0.0
C260 C 0.90264 0.69089 0.62154 0.0
C261 C 0.96129 0.72327 0.61848 0.0
C262 C 0.95795 0.72788 0.59901 0.0
Tb263 Tb 0.82753 0.65381 0.6156 0.0
N264 N 0.87537 0.67214 0.63196 0.0
C265 C 0.93621 0.69732 0.64887 0.0
C266 C 0.87802 0.66292 0.65009 0.0
C267 C 0.90826 0.67606 0.65897 0.0
H268 H 0.84049 0.67323 0.56993 0.0
H269 H 0.91004 0.66921 0.67347 0.0
H270 H 0.7875 0.70512 0.6805 0.0
H271 H 0.68093 0.66383 0.58594 0.0
H272 H 0.8572 0.6447 0.65773 0.0
H273 H 0.95962 0.70716 0.65573 0.0
H274 H 0.73895 0.69431 0.59467 0.0
H275 H 0.88755 0.70484 0.54876 0.0
H276 H 0.98534 0.73399 0.62459 0.0
H277 H 0.97944 0.74226 0.59044 0.0
H278 H 0.75069 0.67635 0.70732 0.0
H279 H 0.94311 0.73116 0.56198 0.0
H280 H 0.63985 0.63079 0.61036 0.0
N281 N 0.75162 0.68085 0.65911 0.0
C282 C 0.71935 0.66228 0.65565 0.0
C283 C 0.74161 0.67169 0.69281 0.0
C284 C 0.69706 0.64638 0.67059 0.0
C285 C 0.76264 0.68734 0.6775 0.0
C286 C 0.70874 0.65061 0.68932 0.0
N287 N 0.73076 0.67712 0.62332 0.0
C288 C 0.72122 0.67944 0.60525 0.0
C289 C 0.67514 0.64329 0.63296 0.0
C290 C 0.70845 0.66084 0.63718 0.0
C291 C 0.66526 0.64392 0.6142 0.0
C292 C 0.68838 0.66248 0.60035 0.0
H293 H 0.69244 0.63881 0.70121 0.0
H294 H 0.64636 0.61507 0.67767 0.0
H295 H 0.62717 0.61229 0.64468 0.0
O296 O 0.79504 0.74689 0.61899 0.0
O297 O 0.75564 0.65326 0.62105 0.0
O298 O 0.78244 0.62792 0.63182 0.0
O299 O 0.77591 0.73706 0.64745 0.0
O300 O 0.79815 0.70748 0.60269 0.0
O301 O 0.79655 0.65951 0.59399 0.0
O302 O 0.84493 0.6211 0.61545 0.0
O303 O 0.8494 0.70624 0.61088 0.0
O304 O 0.83601 0.72478 0.63743 0.0
O305 O 0.80675 0.61431 0.59655 0.0
O306 O 0.81351 0.64927 0.64617 0.0
O307 O 0.81463 0.69724 0.6537 0.0
C308 C 0.75538 0.62733 0.62763 0.0
C309 C 0.76641 0.77286 0.62875 0.0
C310 C 0.7644 0.82242 0.62329 0.0
C311 C 0.73135 0.8035 0.61881 0.0
C312 C 0.73321 0.7544 0.62476 0.0
C313 C 0.71586 0.7697 0.61969 0.0
C314 C 0.78182 0.80686 0.62823 0.0
C315 C 0.79336 0.68502 0.59007 0.0
C316 C 0.7857 0.75747 0.63333 0.0
C317 C 0.66384 0.62772 0.66641 0.0
C318 C 0.6529 0.6262 0.64763 0.0
C319 C 0.8573 0.72781 0.62447 0.0
C320 C 0.80576 0.56731 0.60896 0.0
C321 C 0.80661 0.51801 0.61769 0.0
C322 C 0.77364 0.50325 0.62257 0.0
C323 C 0.77273 0.55184 0.61366 0.0
C324 C 0.82252 0.55011 0.61076 0.0
C325 C 0.75686 0.52003 0.62042 0.0
C326 C 0.81613 0.67132 0.65863 0.0
C327 C 0.82351 0.60179 0.60327 0.0
H328 H 0.71736 0.81488 0.61504 0.0
H329 H 0.72067 0.7283 0.62562 0.0
H330 H 0.69026 0.75532 0.61652 0.0
H331 H 0.80744 0.82121 0.63147 0.0
H332 H 0.76071 0.47852 0.62778 0.0
H333 H 0.75925 0.56439 0.61224 0.0
H334 H 0.84807 0.56194 0.60722 0.0
H335 H 0.73148 0.50838 0.62407 0.0
Tb336 Tb 0.09748 0.78242 0.13426 0.0
C337 C 0.2201 0.89477 0.101 0.0
N338 N 0.20136 0.86452 0.09379 0.0
C339 C 0.20077 0.88696 0.06322 0.0
C340 C 0.22874 0.92248 0.08979 0.0
C341 C 0.19261 0.86018 0.07498 0.0
C342 C 0.21861 0.91825 0.07071 0.0
C343 C 0.24915 0.92867 0.12797 0.0
C344 C 0.23004 0.8977 0.11984 0.0
C345 C 0.25699 0.95643 0.11707 0.0
C346 C 0.24692 0.95335 0.098 0.0
Tb347 Tb 0.18922 0.82254 0.11408 0.0
N348 N 0.22184 0.87024 0.12995 0.0
C349 C 0.26043 0.9308 0.14665 0.0
C350 C 0.23541 0.87246 0.14751 0.0
C351 C 0.25406 0.90259 0.1563 0.0
H352 H 0.17917 0.83609 0.06906 0.0
H353 H 0.26403 0.90405 0.1704 0.0
H354 H 0.1051 0.78766 0.18197 0.0
H355 H 0.0239 0.67891 0.08995 0.0
H356 H 0.23281 0.85129 0.15469 0.0
H357 H 0.27512 0.95412 0.15344 0.0
H358 H 0.05509 0.73728 0.09798 0.0
H359 H 0.19332 0.88346 0.0484 0.0
H360 H 0.27132 0.98041 0.12316 0.0
H361 H 0.25346 0.97497 0.0897 0.0
H362 H 0.09876 0.75129 0.20866 0.0
H363 H 0.22471 0.93893 0.0616 0.0
H364 H 0.0174 0.63797 0.11405 0.0
N365 N 0.08962 0.75088 0.16076 0.0
C366 C 0.07437 0.71841 0.15763 0.0
C367 C 0.09233 0.74175 0.1943 0.0
C368 C 0.06887 0.6964 0.17258 0.0
C369 C 0.0967 0.7625 0.17902 0.0
C370 C 0.07892 0.7086 0.19102 0.0
N371 N 0.06739 0.72922 0.12581 0.0
C372 C 0.05274 0.71953 0.1084 0.0
C373 C 0.04461 0.67366 0.13579 0.0
C374 C 0.06229 0.70712 0.1396 0.0
C375 C 0.03122 0.6635 0.11756 0.0
C376 C 0.03488 0.68654 0.1039 0.0
H377 H 0.07517 0.69252 0.20292 0.0
H378 H 0.04832 0.64567 0.18001 0.0
H379 H 0.02712 0.62575 0.14773 0.0
O380 O 0.06328 0.79246 0.12161 0.0
O381 O 0.11594 0.75243 0.12147 0.0
O382 O 0.16914 0.77745 0.1304 0.0
O383 O 0.05928 0.7788 0.15107 0.0
O384 O 0.10571 0.79616 0.10402 0.0
O385 O 0.14998 0.79197 0.09363 0.0
O386 O 0.23876 0.83701 0.11268 0.0
O387 O 0.15983 0.84586 0.11063 0.0
O388 O 0.13014 0.83467 0.13808 0.0
O389 O 0.20476 0.80095 0.09359 0.0
O390 O 0.18161 0.80902 0.14476 0.0
O391 O 0.13704 0.81318 0.15393 0.0
C392 C 0.14179 0.7511 0.12643 0.0
C393 C 1.01058 0.76504 0.13499 0.0
C394 C 0.95737 0.76052 0.13122 0.0
C395 C 0.94292 0.72662 0.13293 0.0
C396 C 0.99551 0.73125 0.1367 0.0
C397 C 0.96189 0.7122 0.13554 0.0
C398 C 0.99149 0.77953 0.13212 0.0
C399 C 0.12133 0.7896 0.09081 0.0
C400 C 0.04596 0.7857 0.13706 0.0
C401 C 0.0525 0.66296 0.16875 0.0
C402 C 0.04036 0.65161 0.15038 0.0
C403 C 0.14848 0.85518 0.12479 0.0
C404 C 0.2494 0.7956 0.10405 0.0
C405 C 0.29753 0.79199 0.11215 0.0
C406 C 0.27779 0.75807 0.11327 0.0
C407 C 0.23039 0.76169 0.10524 0.0
C408 C 0.28307 0.81061 0.10736 0.0
C409 C 0.24457 0.74313 0.1098 0.0
C410 C 0.16423 0.81348 0.15787 0.0
C411 C 0.23445 0.81564 0.09986 0.0
H412 H 0.91685 0.71114 0.13273 0.0
H413 H 1.00958 0.7196 0.13926 0.0
H414 H 0.95041 0.68615 0.137 0.0
H415 H 1.00331 0.80564 0.13069 0.0
H416 H 0.28812 0.74297 0.11662 0.0
H417 H 0.20454 0.74946 0.1027 0.0
H418 H 0.29782 0.83678 0.10661 0.0
H419 H 0.22972 0.71702 0.11067 0.0
Tb420 Tb 0.32277 0.09167 0.63757 0.0
C421 C 0.32833 0.20905 0.60012 0.0
N422 N 0.34008 0.19016 0.59357 0.0
C423 C 0.31528 0.18581 0.56311 0.0
C424 C 0.30827 0.21591 0.58863 0.0
C425 C 0.33487 0.17946 0.57512 0.0
C426 C 0.30164 0.20384 0.56995 0.0
C427 C 0.32367 0.23999 0.62609 0.0
C428 C 0.33595 0.22084 0.61861 0.0
C429 C 0.30292 0.24619 0.6149 0.0
C430 C 0.29535 0.2343 0.59618 0.0
Tb431 Tb 0.37189 0.18145 0.61415 0.0
N432 N 0.35597 0.21416 0.62905 0.0
C433 C 0.33314 0.25287 0.64443 0.0
C434 C 0.36743 0.22912 0.64627 0.0
C435 C 0.35558 0.2479 0.65441 0.0
H436 H 0.34573 0.16597 0.56965 0.0
H437 H 0.36426 0.25905 0.66823 0.0
H438 H 0.32452 0.10156 0.68497 0.0
H439 H 0.35029 0.01377 0.59575 0.0
H440 H 0.38642 0.22764 0.65367 0.0
H441 H 0.32421 0.26765 0.65071 0.0
H442 H 0.3251 0.0472 0.60228 0.0
H443 H 0.31075 0.17687 0.54859 0.0
H444 H 0.29298 0.26055 0.62049 0.0
H445 H 0.27956 0.23952 0.58766 0.0
H446 H 0.35367 0.09587 0.71237 0.0
H447 H 0.28632 0.20855 0.56065 0.0
H448 H 0.38323 1.00705 0.62072 0.0
N449 N 0.34565 0.08461 0.66459 0.0
C450 C 0.36226 0.06863 0.66212 0.0
C451 C 0.3568 0.08863 0.69824 0.0
C452 C 0.37801 0.06323 0.67752 0.0
C453 C 0.34102 0.0927 0.68256 0.0
C454 C 0.37591 0.07436 0.69565 0.0
N455 N 0.3451 0.06056 0.63013 0.0
C456 C 0.34 0.04493 0.61304 0.0
C457 C 0.37604 0.03661 0.64141 0.0
C458 C 0.36138 0.05554 0.64438 0.0
C459 C 0.37245 0.02192 0.62357 0.0
C460 C 0.35394 0.02572 0.60941 0.0
H461 H 0.3877 0.07075 0.70786 0.0
H462 H 0.40667 0.04163 0.68606 0.0
H463 H 0.40489 0.01826 0.65441 0.0
O464 O 0.27705 0.05931 0.62587 0.0
O465 O 0.371 0.109 0.62437 0.0
O466 O 0.3987 0.16358 0.63046 0.0
O467 O 0.28863 0.05285 0.65447 0.0
O468 O 0.31619 0.09709 0.60719 0.0
O469 O 0.36329 0.14078 0.59494 0.0
O470 O 0.40609 0.23122 0.61162 0.0
O471 O 0.31893 0.1507 0.61249 0.0
O472 O 0.30392 0.12481 0.64129 0.0
O473 O 0.40762 0.19678 0.59271 0.0
O474 O 0.38078 0.1774 0.6449 0.0
O475 O 0.33345 0.13298 0.65621 0.0
C476 C 0.39828 0.13624 0.6275 0.0
C477 C 0.2503 1.00583 0.63788 0.0
C478 C 0.19987 0.95476 0.63255 0.0
C479 C 0.21788 0.93899 0.63049 0.0
C480 C 0.26767 0.98937 0.63637 0.0
C481 C 0.25153 0.95619 0.63254 0.0
C482 C 0.21631 0.98831 0.63622 0.0
C483 C 0.33735 0.11146 0.59328 0.0
C484 C 0.26702 0.04114 0.64103 0.0
C485 C 0.39417 0.04578 0.67446 0.0
C486 C 0.3931 0.03241 0.65644 0.0
C487 C 0.29967 0.1408 0.62739 0.0
C488 C 0.45798 0.24304 0.60143 0.0
C489 C 0.50959 0.29223 0.60859 0.0
C490 C 0.52488 0.27356 0.60847 0.0
C491 C 0.47406 0.22516 0.60123 0.0
C492 C 0.47602 0.27676 0.60487 0.0
C493 C 0.50727 0.24038 0.60473 0.0
C494 C 0.36051 0.16076 0.65892 0.0
C495 C 0.42249 0.22684 0.59837 0.0
H496 H 0.20583 0.91319 0.62772 0.0
H497 H 0.29361 1.00201 0.63825 0.0
H498 H 0.26513 0.94372 0.63126 0.0
H499 H 0.2027 1.00081 0.6376 0.0
H500 H 0.55067 0.28473 0.61105 0.0
H501 H 0.46101 0.19935 0.59847 0.0
H502 H 0.46384 0.29078 0.60506 0.0
H503 H 0.51942 0.22638 0.60456 0.0
Tb504 Tb 0.70438 0.78525 0.37412 0.0
C505 C 0.70376 0.89408 0.4166 0.0
N506 N 0.69145 0.86369 0.4238 0.0
C507 C 0.71909 0.88544 0.45343 0.0
C508 C 0.72473 0.9215 0.42752 0.0
C509 C 0.6984 0.85897 0.44206 0.0
C510 C 0.73241 0.91684 0.44612 0.0
C511 C 0.70755 0.92872 0.39023 0.0
C512 C 0.69553 0.89749 0.39811 0.0
C513 C 0.72902 0.95613 0.40088 0.0
C514 C 0.73754 0.95253 0.41949 0.0
Tb515 Tb 0.65764 0.82228 0.40422 0.0
N516 N 0.67496 0.87034 0.38813 0.0
C517 C 0.69686 0.93151 0.37213 0.0
C518 C 0.66172 0.87342 0.37149 0.0
C519 C 0.67323 0.90377 0.36293 0.0
H520 H 0.68796 0.83478 0.44786 0.0
H521 H 0.66325 0.9058 0.34947 0.0
H522 H 0.72439 0.82308 0.33239 0.0
H523 H 0.65337 0.65902 0.39265 0.0
H524 H 0.64141 0.8529 0.36493 0.0
H525 H 0.70549 0.95503 0.36556 0.0
H526 H 0.68242 0.718 0.39891 0.0
H527 H 0.72471 0.88161 0.46784 0.0
H528 H 0.73876 0.98026 0.39495 0.0
H529 H 0.75393 0.9739 0.42758 0.0
H530 H 0.71228 0.80807 0.29828 0.0
H531 H 0.74851 0.93729 0.45495 0.0
H532 H 0.63488 0.6386 0.35987 0.0
N533 N 0.69713 0.77445 0.34227 0.0
C534 C 0.67984 0.74266 0.3375 0.0
C535 C 0.70292 0.78944 0.30919 0.0
C536 C 0.67272 0.73289 0.31829 0.0
C537 C 0.70958 0.79787 0.32848 0.0
C538 C 0.68417 0.75682 0.30408 0.0
N539 N 0.6793 0.73051 0.37012 0.0
C540 C 0.67445 0.70926 0.38459 0.0
C541 C 0.6544 0.68655 0.34762 0.0
C542 C 0.67084 0.71985 0.35191 0.0
C543 C 0.64753 0.66445 0.36256 0.0
C544 C 0.65798 0.67588 0.38108 0.0
H545 H 0.67932 0.75031 0.28913 0.0
H546 H 0.64927 0.69163 0.29925 0.0
H547 H 0.6332 0.65102 0.32495 0.0
O548 O 0.74759 0.79911 0.38927 0.0
O549 O 0.65217 0.75122 0.37911 0.0
O550 O 0.63194 0.76948 0.40381 0.0
O551 O 0.74225 0.78309 0.36014 0.0
O552 O 0.70149 0.77752 0.40504 0.0
O553 O 0.66804 0.79111 0.42276 0.0
O554 O 0.6139 0.82241 0.40051 0.0
O555 O 0.71071 0.84255 0.40502 0.0
O556 O 0.7215 0.83701 0.37424 0.0
O557 O 0.63157 0.82276 0.42854 0.0
O558 O 0.64232 0.80558 0.3744 0.0
O559 O 0.6913 0.81876 0.36194 0.0
C560 C 0.62999 0.74716 0.3919 0.0
C561 C 0.79389 0.82427 0.36946 0.0
C562 C 0.85292 0.85046 0.36739 0.0
C563 C 0.85366 0.87755 0.35884 0.0
C564 C 0.79533 0.85134 0.36056 0.0
C565 C 0.82507 0.87795 0.35552 0.0
C566 C 0.8228 0.82395 0.37297 0.0
C567 C 0.68777 0.77908 0.42113 0.0
C568 C 0.7622 0.79602 0.37435 0.0
C569 C 0.65523 0.69967 0.31392 0.0
C570 C 0.64608 0.67654 0.32856 0.0
C571 C 0.72985 0.85368 0.39011 0.0
C572 C 0.60411 0.85239 0.42344 0.0
C573 C 0.57012 0.87725 0.42063 0.0
C574 C 0.59448 0.90519 0.4296 0.0
C575 C 0.62766 0.8803 0.43289 0.0
C576 C 0.57502 0.8508 0.41761 0.0
C577 C 0.62289 0.90654 0.43582 0.0
C578 C 0.66092 0.80984 0.35952 0.0
C579 C 0.61027 0.82572 0.41856 0.0
H580 H 0.87645 0.89848 0.35469 0.0
H581 H 0.77346 0.85177 0.35723 0.0
H582 H 0.82592 0.89882 0.3488 0.0
H583 H 0.82175 0.80282 0.3795 0.0
H584 H 0.59122 0.92579 0.43211 0.0
H585 H 0.64983 0.88204 0.43795 0.0
H586 H 0.55656 0.82933 0.41041 0.0
H587 H 0.64134 0.92803 0.44295 0.0
Tb588 Tb 0.93596 0.70317 0.8837 0.0
C589 C 0.81472 0.69311 0.91837 0.0
N590 N 0.83346 0.68127 0.92507 0.0
C591 C 0.83487 0.7034 0.95602 0.0
C592 C 0.80651 0.71193 0.93007 0.0
C593 C 0.84259 0.68505 0.94381 0.0
C594 C 0.81705 0.7172 0.94908 0.0
C595 C 0.7854 0.69911 0.89195 0.0
C596 C 0.8044 0.68677 0.89956 0.0
C597 C 0.77794 0.71874 0.90334 0.0
C598 C 0.78835 0.72502 0.92239 0.0
Tb599 Tb 0.84448 0.65156 0.90413 0.0
N600 N 0.81222 0.66777 0.88895 0.0
C601 C 0.77385 0.69077 0.87326 0.0
C602 C 0.79845 0.65723 0.87136 0.0
C603 C 0.7799 0.66923 0.86307 0.0
H604 H 0.85598 0.67409 0.94932 0.0
H605 H 0.76975 0.66136 0.84894 0.0
H606 H 0.92714 0.70198 0.83605 0.0
H607 H 1.01259 0.67538 0.92641 0.0
H608 H 0.80075 0.63887 0.86374 0.0
H609 H 0.75925 0.6998 0.86686 0.0
H610 H 0.97876 0.70003 0.91953 0.0
H611 H 0.84263 0.70686 0.97079 0.0
H612 H 0.76369 0.72875 0.89766 0.0
H613 H 0.78214 0.73992 0.93106 0.0
H614 H 0.93465 0.67413 0.80871 0.0
H615 H 0.81128 0.73156 0.95854 0.0
H616 H 0.02138 0.64398 0.90132 0.0
N617 N 0.94428 0.68119 0.85663 0.0
C618 C 0.9608 0.66512 0.85919 0.0
C619 C 0.9416 0.67087 0.8229 0.0
C620 C 0.96718 0.65009 0.8438 0.0
C621 C 0.9365 0.68593 0.83858 0.0
C622 C 0.95648 0.65235 0.82557 0.0
N623 N 0.96723 0.68118 0.89134 0.0
C624 C 0.98197 0.6858 0.90869 0.0
C625 C 0.99254 0.65143 0.88023 0.0
C626 C 0.9733 0.6657 0.87708 0.0
C627 C 1.00635 0.65452 0.89832 0.0
C628 C 1.00138 0.67216 0.91253 0.0
H629 H 0.96085 0.64112 0.81335 0.0
H630 H 0.98998 0.62249 0.83539 0.0
H631 H 1.01222 0.6237 0.86733 0.0
O632 O 0.96954 0.74724 0.89679 0.0
O633 O 0.91792 0.6537 0.89522 0.0
O634 O 0.86412 0.62689 0.88728 0.0
O635 O 0.97399 0.73873 0.86715 0.0
O636 O 0.92815 0.70718 0.91416 0.0
O637 O 0.88363 0.65842 0.92405 0.0
O638 O 0.79481 0.61673 0.90543 0.0
O639 O 0.87452 0.70427 0.90807 0.0
O640 O 0.90341 0.72286 0.88041 0.0
O641 O 0.82852 0.61399 0.92445 0.0
O642 O 0.85139 0.64616 0.87326 0.0
O643 O 0.89623 0.69508 0.86442 0.0
C644 C 0.89091 0.62674 0.89117 0.0
C645 C 0.02225 0.77428 0.88347 0.0
C646 C 0.07439 0.82415 0.88764 0.0
C647 C 0.09003 0.80594 0.88549 0.0
C648 C 0.03841 0.75674 0.8813 0.0
C649 C 0.07211 0.77251 0.88246 0.0
C650 C 0.04026 0.80782 0.88681 0.0
C651 C 0.91249 0.68431 0.92703 0.0
C652 C 0.98685 0.7586 0.88137 0.0
C653 C 0.98506 0.63442 0.847 0.0
C654 C 0.9978 0.63517 0.86517 0.0
C655 C 0.88586 0.7253 0.89405 0.0
C656 C 0.78239 0.56419 0.91477 0.0
C657 C 0.73271 0.5132 0.90723 0.0
C658 C 0.75052 0.49702 0.90842 0.0
C659 C 0.79939 0.54729 0.91598 0.0
C660 C 0.74902 0.54696 0.91045 0.0
C661 C 0.78352 0.51398 0.91273 0.0
C662 C 0.86892 0.6684 0.86031 0.0
C663 C 0.79873 0.59953 0.91837 0.0
H664 H 0.11619 0.81755 0.88565 0.0
H665 H 0.02513 0.73105 0.87838 0.0
H666 H 0.08445 0.75887 0.88065 0.0
H667 H 0.02755 0.82113 0.88861 0.0
H668 H 0.73883 0.47106 0.90643 0.0
H669 H 0.82492 0.55974 0.91949 0.0
H670 H 0.73587 0.55997 0.90948 0.0
H671 H 0.79682 0.50115 0.91372 0.0
Tb672 Tb 0.24388 0.93381 0.37915 0.0
C673 C 0.13385 0.81711 0.4227 0.0
N674 N 0.16586 0.83325 0.42732 0.0
C675 C 0.15253 0.83297 0.46039 0.0
C676 C 0.10987 0.80878 0.43683 0.0
C677 C 0.1755 0.84097 0.44587 0.0
C678 C 0.11959 0.81688 0.45585 0.0
C679 C 0.09235 0.79481 0.39817 0.0
C680 C 0.12522 0.81028 0.40356 0.0
C681 C 0.06837 0.78626 0.41223 0.0
C682 C 0.07709 0.7932 0.43149 0.0
Tb683 Tb 0.20051 0.84381 0.40242 0.0
N684 N 0.14917 0.82009 0.39021 0.0
C685 C 0.08459 0.7887 0.37878 0.0
C686 C 0.14155 0.81256 0.37142 0.0
C687 C 0.10928 0.79733 0.36539 0.0
H688 H 0.20082 0.85273 0.44963 0.0
H689 H 0.10346 0.79186 0.35041 0.0
H690 H 0.22734 0.92774 0.3328 0.0
H691 H 0.35626 0.9975 0.41803 0.0
H692 H 0.15991 0.81732 0.36103 0.0
H693 H 0.05963 0.77696 0.37405 0.0
H694 H 0.29675 0.9667 0.41437 0.0
H695 H 0.16025 0.83912 0.47508 0.0
H696 H 0.043 0.77448 0.40833 0.0
H697 H 0.05832 0.78667 0.44214 0.0
H698 H 0.25789 0.9404 0.30245 0.0
H699 H 0.1019 0.81087 0.46713 0.0
H700 H 0.3915 0.01181 0.38946 0.0
N701 N 0.26934 0.94623 0.3502 0.0
C702 C 0.30222 0.96258 0.35074 0.0
C703 C 0.27066 0.94657 0.31594 0.0
C704 C 0.32074 0.9712 0.33383 0.0
C705 C 0.25339 0.93893 0.33314 0.0
C706 C 0.3045 0.96259 0.31628 0.0
N707 N 0.29841 0.96213 0.3843 0.0
C708 C 0.3119 0.97229 0.40193 0.0
C709 C 0.35132 0.98907 0.36968 0.0
C710 C 0.31732 0.9713 0.36837 0.0
C711 C 0.36542 0.99812 0.38781 0.0
C712 C 0.3456 0.98999 0.40399 0.0
H713 H 0.31783 0.96869 0.30294 0.0
H714 H 0.36942 0.99516 0.32217 0.0
H715 H 0.3962 0.01088 0.35357 0.0
O716 O 0.24064 0.96992 0.39462 0.0
O717 O 0.27543 0.91236 0.38252 0.0
O718 O 0.25319 0.86904 0.40414 0.0
O719 O 0.24036 0.96997 0.36392 0.0
O720 O 0.23076 0.92544 0.40939 0.0
O721 O 0.23387 0.88247 0.42213 0.0
O722 O 0.19047 0.79842 0.39187 0.0
O723 O 0.17657 0.87333 0.40344 0.0
O724 O 0.19171 0.90179 0.37533 0.0
O725 O 0.20074 0.80973 0.42156 0.0
O726 O 0.21804 0.84984 0.37244 0.0
O727 O 0.21184 0.89198 0.36206 0.0
C728 C 0.27729 0.89108 0.39377 0.0
C729 C 0.26083 0.0206 0.37915 0.0
C730 C 0.26565 0.07413 0.38096 0.0
C731 C 0.29917 0.08831 0.37761 0.0
C732 C 0.29423 0.03533 0.37591 0.0
C733 C 0.31327 0.06901 0.3752 0.0
C734 C 0.24668 0.04002 0.3818 0.0
C735 C 0.23949 0.91259 0.42309 0.0
C736 C 0.24007 0.98509 0.37927 0.0
C737 C 0.35473 0.98839 0.335 0.0
C738 C 0.36999 0.99735 0.35289 0.0
C739 C 0.17085 0.88809 0.38937 0.0
C740 C 0.21505 0.77314 0.40795 0.0
C741 C 0.22001 0.72481 0.40386 0.0
C742 C 0.25383 0.74442 0.40573 0.0
C743 C 0.24876 0.79206 0.40963 0.0
C744 C 0.2007 0.73947 0.40513 0.0
C745 C 0.26801 0.77776 0.40861 0.0
C746 C 0.2167 0.8678 0.35853 0.0
C747 C 0.19477 0.7884 0.40829 0.0
H748 H 0.31451 0.11434 0.37646 0.0
H749 H 0.30557 0.02091 0.37373 0.0
H750 H 0.33903 0.08023 0.37255 0.0
H751 H 0.22089 0.02845 0.38454 0.0
H752 H 0.26936 0.73393 0.40511 0.0
H753 H 0.26012 0.81788 0.41165 0.0
H754 H 0.17465 0.72488 0.40349 0.0
H755 H 0.29405 0.79259 0.40999 0.0
Tb756 Tb 0.32256 0.23662 0.87552 0.0
C757 C 0.32191 0.12304 0.91419 0.0
N758 N 0.33606 0.15317 0.92189 0.0
C759 C 0.31165 0.1309 0.95223 0.0
C760 C 0.3013 0.0955 0.9252 0.0
C761 C 0.33191 0.1575 0.94074 0.0
C762 C 0.29614 0.09978 0.94441 0.0
C763 C 0.31334 0.08896 0.88664 0.0
C764 C 0.32776 0.11997 0.8951 0.0
C765 C 0.29225 0.06149 0.89744 0.0
C766 C 0.28636 0.06473 0.91669 0.0
Tb767 Tb 0.36939 0.19457 0.90224 0.0
N768 N 0.34827 0.14716 0.88503 0.0
C769 C 0.32116 0.08639 0.86773 0.0
C770 C 0.3586 0.14406 0.86733 0.0
C771 C 0.34442 0.11399 0.85818 0.0
H772 H 0.34417 0.18145 0.94693 0.0
H773 H 0.35217 0.112 0.84396 0.0
H774 H 0.293 0.19332 0.83643 0.0
H775 H 0.37763 0.36577 0.8869 0.0
H776 H 0.37878 0.16414 0.86038 0.0
H777 H 0.31053 0.06306 0.86069 0.0
H778 H 0.34907 0.30804 0.89654 0.0
H779 H 0.3081 0.13441 0.96712 0.0
H780 H 0.28074 0.03755 0.8911 0.0
H781 H 0.27029 0.0433 0.92488 0.0
H782 H 0.29976 0.20246 0.80143 0.0
H783 H 0.28038 0.07923 0.95333 0.0
H784 H 0.39194 0.38075 0.85292 0.0
N785 N 0.32448 0.24287 0.8432 0.0
C786 C 0.34205 0.27356 0.83652 0.0
C787 C 0.31195 0.22269 0.81115 0.0
C788 C 0.34624 0.28013 0.81678 0.0
C789 C 0.30825 0.21756 0.83092 0.0
C790 C 0.3315 0.25407 0.80404 0.0
N791 N 0.34745 0.29073 0.86833 0.0
C792 C 0.35465 0.3144 0.88164 0.0
C793 C 0.37014 0.33098 0.84339 0.0
C794 C 0.35381 0.29849 0.84958 0.0
C795 C 0.37929 0.35544 0.85707 0.0
C796 C 0.37113 0.34707 0.87625 0.0
H797 H 0.3342 0.25801 0.78874 0.0
H798 H 0.36776 0.31805 0.79535 0.0
H799 H 0.38868 0.36268 0.8187 0.0
O800 O 0.28184 0.22098 0.89333 0.0
O801 O 0.37357 0.27114 0.88251 0.0
O802 O 0.40059 0.246 0.89613 0.0
O803 O 0.28228 0.23886 0.8651 0.0
O804 O 0.33225 0.24684 0.90594 0.0
O805 O 0.36049 0.22508 0.92213 0.0
O806 O 0.40225 0.17724 0.90125 0.0
O807 O 0.31734 0.17836 0.90535 0.0
O808 O 0.30442 0.18467 0.87516 0.0
O809 O 0.40119 0.20406 0.92536 0.0
O810 O 0.38465 0.21285 0.87277 0.0
O811 O 0.33573 0.20344 0.86283 0.0
C812 C 0.39932 0.27139 0.88969 0.0
C813 C 0.24959 0.24492 0.88825 0.0
C814 C 0.1994 0.24507 0.89512 0.0
C815 C 0.21771 0.27557 0.9038 0.0
C816 C 0.26732 0.27545 0.89679 0.0
C817 C 0.25144 0.29067 0.90453 0.0
C818 C 0.21562 0.22991 0.88726 0.0
C819 C 0.34524 0.24195 0.92139 0.0
C820 C 0.26595 0.2279 0.88089 0.0
C821 C 0.36397 0.31244 0.81047 0.0
C822 C 0.37586 0.33785 0.82377 0.0
C823 C 0.29686 0.16789 0.89104 0.0
C824 C 0.45232 0.21059 0.91634 0.0
C825 C 0.50452 0.21467 0.90888 0.0
C826 C 0.52018 0.24761 0.91404 0.0
C827 C 0.46877 0.24341 0.92159 0.0
C828 C 0.47041 0.19622 0.91016 0.0
C829 C 0.50242 0.26176 0.92035 0.0
C830 C 0.36578 0.21234 0.85894 0.0
C831 C 0.41646 0.19126 0.91704 0.0
H832 H 0.20595 0.28792 0.90984 0.0
H833 H 0.29335 0.28737 0.89765 0.0
H834 H 0.26533 0.3142 0.91119 0.0
H835 H 0.20181 0.20619 0.88075 0.0
H836 H 0.54634 0.26239 0.91354 0.0
H837 H 0.45567 0.25492 0.92674 0.0
H838 H 0.45791 0.17089 0.9061 0.0
H839 H 0.51482 0.28707 0.92441 0.0
Tb840 Tb 0.09219 0.31742 0.37998 0.0
C841 C 0.21083 0.32473 0.41697 0.0
N842 N 0.19227 0.337 0.42331 0.0
C843 C 0.18926 0.31445 0.45439 0.0
C844 C 0.2182 0.30553 0.42894 0.0
C845 C 0.18243 0.33321 0.44193 0.0
C846 C 0.20692 0.30026 0.44781 0.0
C847 C 0.24101 0.31851 0.39111 0.0
C848 C 0.222 0.33115 0.39829 0.0
C849 C 0.24763 0.29853 0.40277 0.0
C850 C 0.23638 0.29217 0.42167 0.0
Tb851 Tb 0.18259 0.36718 0.40195 0.0
N852 N 0.21502 0.35055 0.38741 0.0
C853 C 0.25342 0.32692 0.37257 0.0
C854 C 0.2296 0.36108 0.36996 0.0
C855 C 0.24819 0.34878 0.3621 0.0
H856 H 0.16925 0.34453 0.44719 0.0
H857 H 0.259 0.35669 0.3481 0.0
H858 H 0.10047 0.3158 0.33257 0.0
H859 H 0.01832 0.35177 0.42067 0.0
H860 H 0.22793 0.37964 0.36213 0.0
H861 H 0.26806 0.31766 0.36649 0.0
H862 H 0.04868 0.32312 0.41469 0.0
H863 H 0.18097 0.31102 0.46906 0.0
H864 H 0.26188 0.2883 0.39741 0.0
H865 H 0.24197 0.27703 0.43057 0.0
H866 H 0.09665 0.34504 0.30455 0.0
H867 H 0.21204 0.28562 0.45747 0.0
H868 H 1.0143 0.3857 0.39521 0.0
N869 N 0.08599 0.33985 0.35243 0.0
C870 C 0.07168 0.35812 0.35446 0.0
C871 C 0.09009 0.34945 0.31857 0.0
C872 C 0.06744 0.37413 0.33875 0.0
C873 C 0.09311 0.33357 0.33459 0.0
C874 C 0.0778 0.37037 0.32072 0.0
N875 N 0.0628 0.34198 0.38661 0.0
C876 C 0.04734 0.33821 0.40367 0.0
C877 C 0.04197 0.37536 0.37475 0.0
C878 C 0.05906 0.35871 0.3721 0.0
C879 C 0.02773 0.37332 0.39258 0.0
C880 C 0.02998 0.35422 0.40701 0.0
H881 H 0.07504 0.38229 0.30826 0.0
H882 H 0.04864 0.40497 0.32959 0.0
H883 H 0.02634 0.40607 0.36117 0.0
O884 O 0.05799 0.27331 0.39284 0.0
O885 O 0.11109 0.36628 0.39235 0.0
O886 O 0.16487 0.39298 0.38451 0.0
O887 O 0.05359 0.28281 0.3634 0.0
O888 O 0.09784 0.31216 0.41056 0.0
O889 O 0.14263 0.35956 0.4216 0.0
O890 O 0.23243 0.40059 0.40464 0.0
O891 O 0.15152 0.31453 0.4054 0.0
O892 O 0.12427 0.29712 0.37719 0.0
O893 O 0.19782 0.40563 0.42156 0.0
O894 O 0.17762 0.37338 0.37091 0.0
O895 O 0.13259 0.32533 0.3612 0.0
C896 C 0.13766 0.39286 0.38732 0.0
C897 C 1.00521 0.24745 0.37982 0.0
C898 C 0.95263 0.19809 0.38423 0.0
C899 C 0.93755 0.2169 0.38255 0.0
C900 C 0.9896 0.2656 0.37813 0.0
C901 C 0.95595 0.25036 0.37964 0.0
C902 C 0.98672 0.21386 0.38302 0.0
C903 C 0.11323 0.33394 0.424 0.0
C904 C 0.04053 0.2626 0.37749 0.0
C905 C 0.05184 0.3922 0.34144 0.0
C906 C 0.03907 0.39277 0.35941 0.0
C907 C 0.14089 0.29402 0.39116 0.0
C908 C 0.24491 0.45388 0.41104 0.0
C909 C 0.2953 0.50373 0.40307 0.0
C910 C 0.27713 0.51855 0.39837 0.0
C911 C 0.22739 0.46947 0.40657 0.0
C912 C 0.27899 0.47136 0.40954 0.0
C913 C 0.24346 0.50159 0.40028 0.0
C914 C 0.16034 0.35195 0.35756 0.0
C915 C 0.22805 0.41912 0.4163 0.0
H916 H 0.91143 0.20573 0.38302 0.0
H917 H 1.00329 0.29137 0.37538 0.0
H918 H 0.94401 0.26446 0.37821 0.0
H919 H 0.99903 0.20009 0.38447 0.0
H920 H 0.28907 0.54347 0.39349 0.0
H921 H 0.20127 0.4568 0.4078 0.0
H922 H 0.29273 0.45955 0.41296 0.0
H923 H 0.22976 0.51337 0.39681 0.0
Tb924 Tb 0.78663 0.08901 0.87825 0.0
C925 C 0.8952 0.20307 0.92134 0.0
N926 N 0.86372 0.18535 0.92689 0.0
C927 C 0.88017 0.18211 0.95879 0.0
C928 C 0.92055 0.21058 0.93434 0.0
C929 C 0.85583 0.17504 0.94535 0.0
C930 C 0.91266 0.19991 0.95326 0.0
C931 C 0.93422 0.2302 0.89595 0.0
C932 C 0.90184 0.21251 0.90235 0.0
C933 C 0.9596 0.23761 0.90881 0.0
C934 C 0.95279 0.22791 0.92796 0.0
Tb935 Tb 0.82618 0.17627 0.90404 0.0
N936 N 0.87659 0.20438 0.8902 0.0
C937 C 0.94015 0.24033 0.87689 0.0
C938 C 0.88256 0.2169 0.8721 0.0
C939 C 0.91422 0.23415 0.86502 0.0
H940 H 0.83081 0.16174 0.94981 0.0
H941 H 0.91864 0.24337 0.85053 0.0
H942 H 0.80717 0.09836 0.83249 0.0
H943 H 0.67083 0.02351 0.91386 0.0
H944 H 0.86345 0.21514 0.8632 0.0
H945 H 0.96467 0.25392 0.87141 0.0
H946 H 0.73044 0.05461 0.91202 0.0
H947 H 0.87385 0.1739 0.97341 0.0
H948 H 0.9846 0.251 0.9041 0.0
H949 H 0.97261 0.23377 0.9377 0.0
H950 H 0.77932 0.08746 0.80129 0.0
H951 H 0.93144 0.20519 0.96369 0.0
H952 H 0.6382 1.01028 0.88428 0.0
N953 N 0.76366 0.07818 0.84864 0.0
C954 C 0.73079 0.06163 0.84823 0.0
C955 C 0.76536 0.08026 0.81439 0.0
C956 C 0.71378 0.05401 0.83081 0.0
C957 C 0.78111 0.08691 0.83206 0.0
C958 C 0.73154 0.06389 0.81375 0.0
N959 N 0.73167 0.06027 0.88186 0.0
C960 C 0.71657 0.04948 0.89908 0.0
C961 C 0.6801 0.03402 0.86572 0.0
C962 C 0.71418 0.05189 0.8654 0.0
C963 C 0.6644 0.02409 0.88341 0.0
C964 C 0.68274 0.0316 0.90014 0.0
H965 H 0.71939 0.05859 0.80005 0.0
H966 H 0.66618 0.03057 0.81776 0.0
H967 H 0.63669 0.01297 0.84833 0.0
O968 O 0.79078 0.05266 0.89292 0.0
O969 O 0.75534 0.11118 0.87983 0.0
O970 O 0.77363 0.14786 0.90497 0.0
O971 O 0.79119 0.05418 0.86225 0.0
O972 O 0.79208 0.09068 0.90941 0.0
O973 O 0.79248 0.13575 0.92263 0.0
O974 O 0.83061 0.22148 0.89705 0.0
O975 O 0.84865 0.14571 0.90632 0.0
O976 O 0.83914 0.12188 0.877 0.0
O977 O 0.8222 0.20432 0.9259 0.0
O978 O 0.81108 0.17237 0.87366 0.0
O979 O 0.82063 0.13262 0.86289 0.0
C980 C 0.75181 0.1302 0.89213 0.0
C981 C 0.77112 1.00282 0.87667 0.0
C982 C 0.76617 0.94923 0.87898 0.0
C983 C 0.73306 0.93514 0.87443 0.0
C984 C 0.73809 0.98812 0.87228 0.0
C985 C 0.71921 0.95447 0.87121 0.0
C986 C 0.78502 0.98334 0.88012 0.0
C987 C 0.78725 0.10573 0.92372 0.0
C988 C 0.79164 0.03838 0.87727 0.0
C989 C 0.67973 0.03662 0.831 0.0
C990 C 0.66293 0.02658 0.84841 0.0
C991 C 0.85766 0.13413 0.8921 0.0
C992 C 0.85389 0.26128 0.92138 0.0
C993 C 0.87736 0.32045 0.92103 0.0
C994 C 0.89957 0.32288 0.93511 0.0
C995 C 0.87656 0.26475 0.93533 0.0
C996 C 0.85448 0.28927 0.91422 0.0
C997 C 0.89924 0.29532 0.94205 0.0
C998 C 0.81519 0.15649 0.85952 0.0
C999 C 0.82891 0.22866 0.91474 0.0
H1000 H 0.71787 0.90914 0.87299 0.0
H1001 H 0.72696 1.00257 0.86948 0.0
H1002 H 0.69377 0.9433 0.86765 0.0
H1003 H 0.81049 0.99484 0.88374 0.0
H1004 H 0.91691 0.34608 0.94115 0.0
H1005 H 0.87654 0.24388 0.94134 0.0
H1006 H 0.83714 0.28666 0.90337 0.0
H1007 H 0.91639 0.29763 0.95293 0.0
C1008 C 0.15892 0.90685 0.10946 0.0
C1009 C 0.15715 0.88947 0.12604 0.0
C1010 C 0.16918 0.93989 0.11045 0.0
C1011 C 0.18242 1.00531 0.14462 0.0
H1012 H 0.2357 0.06131 0.10354 0.0
C1013 C 0.27012 0.1509 0.12701 0.0
C1014 C 0.25192 0.16323 0.13568 0.0
C1015 C 0.25767 0.11749 0.12541 0.0
C1016 C 0.22111 0.04616 0.11525 0.0
H1017 H 0.16443 0.89264 0.15664 0.0
H1018 H 0.18309 0.95053 0.15842 0.0
H1019 H 0.21668 1.00361 0.1022 0.0
H1020 H 0.20586 0.14954 0.14921 0.0
H1021 H 0.18364 0.09147 0.14564 0.0
H1022 H 0.18805 0.04803 0.15809 0.0
C1023 C 0.1759 0.93866 0.14467 0.0
C1024 C 0.20974 0.01285 0.11434 0.0
C1025 C 0.16525 0.9055 0.14369 0.0
C1026 C 0.22055 0.1411 0.14228 0.0
C1027 C 0.20796 0.10766 0.1405 0.0
C1028 C 0.19405 0.03867 0.14563 0.0
C1029 C 0.17818 0.95639 0.12804 0.0
C1030 C 0.1902 0.99193 0.129 0.0
C1031 C 0.22646 0.09533 0.13221 0.0
C1032 C 0.21358 0.05961 0.13096 0.0
H1033 H 0.15257 0.89488 0.0957 0.0
H1034 H 0.17004 0.95247 0.09738 0.0
H1035 H 0.16712 0.99001 0.15608 0.0
H1036 H 0.29414 0.16707 0.12145 0.0
H1037 H 0.27289 0.1091 0.11914 0.0
C1038 C 0.2568 0.14898 0.61243 0.0
C1039 C 0.27363 0.14883 0.62882 0.0
C1040 C 0.23368 0.15873 0.6135 0.0
C1041 C 0.18253 0.17299 0.64784 0.0
H1042 H 0.17813 0.22446 0.6063 0.0
C1043 C 0.12441 0.26001 0.63051 0.0
C1044 C 0.09398 0.24195 0.63941 0.0
C1045 C 0.14513 0.24739 0.62864 0.0
C1046 C 0.17915 0.21034 0.61812 0.0
H1047 H 0.27941 0.1583 0.65921 0.0
H1048 H 0.23945 0.17593 0.66112 0.0
H1049 H 0.21697 0.2057 0.60479 0.0
H1050 H 0.06144 0.19595 0.65302 0.0
H1051 H 0.09702 0.17348 0.64912 0.0
H1052 H 0.14565 0.17874 0.66153 0.0
C1053 C 0.24355 0.16797 0.64746 0.0
C1054 C 0.20118 0.19915 0.61712 0.0
C1055 C 0.26647 0.15791 0.6464 0.0
C1056 C 0.08453 0.21052 0.64594 0.0
C1057 C 0.1052 0.19779 0.64396 0.0
C1058 C 0.16064 0.18436 0.6489 0.0
C1059 C 0.22699 0.16873 0.63099 0.0
C1060 C 0.20321 0.18034 0.63198 0.0
C1061 C 0.13596 0.21618 0.63546 0.0
C1062 C 0.15868 0.20327 0.63407 0.0
H1063 H 0.26175 0.1418 0.59873 0.0
H1064 H 0.22109 0.15845 0.60057 0.0
H1065 H 0.18309 0.15827 0.65946 0.0
H1066 H 0.13238 0.28409 0.62501 0.0
H1067 H 0.16869 0.26249 0.6222 0.0
C1068 C 0.87489 0.11615 0.1247 0.0
C1069 C 0.86168 0.08662 0.13476 0.0
C1070 C 0.90846 0.13632 0.12294 0.0
C1071 C 0.98618 0.15191 0.14495 0.0
H1072 H 0.02342 0.20604 0.10016 0.0
C1073 C 0.11951 0.2559 0.14312 0.0
C1074 C 0.13641 0.26326 0.12573 0.0
C1075 C 0.0864 0.23312 0.14385 0.0
C1076 C 1.01358 0.19082 0.11268 0.0
H1077 H 0.87407 0.05517 0.15058 0.0
H1078 H 0.93228 0.08941 0.14672 0.0
H1079 H 0.9655 0.168 0.10138 0.0
H1080 H 0.13247 0.25173 0.09562 0.0
H1081 H 0.07492 0.21099 0.09691 0.0
H1082 H 0.03439 0.17389 0.15596 0.0
C1083 C 0.9167 0.09749 0.1406 0.0
C1084 C 0.98012 0.16927 0.11352 0.0
C1085 C 0.88312 0.07749 0.14255 0.0
C1086 C 0.11989 0.24657 0.10919 0.0
C1087 C 0.08685 0.22345 0.10994 0.0
C1088 C 0.01965 0.1732 0.14402 0.0
C1089 C 0.92993 0.12743 0.13098 0.0
C1090 C 0.96584 0.14963 0.12973 0.0
C1091 C 0.06948 0.21669 0.12724 0.0
C1092 C 0.03385 0.19316 0.12794 0.0
H1093 H 0.85931 0.12388 0.11819 0.0
H1094 H 0.9175 0.15925 0.1156 0.0
H1095 H 0.97624 0.13765 0.15781 0.0
H1096 H 0.1316 0.26874 0.15605 0.0
H1097 H 0.07391 0.22912 0.15737 0.0
C1098 C 0.77773 0.87472 0.60719 0.0
C1099 C 0.78045 0.85832 0.62314 0.0
C1100 C 0.79203 0.90851 0.60729 0.0
C1101 C 0.815 0.97654 0.63906 0.0
H1102 H 0.87182 0.02987 0.59826 0.0
C1103 C 0.87705 0.11583 0.64253 0.0
C1104 C 0.88087 0.13278 0.62542 0.0
C1105 C 0.86716 0.08282 0.64227 0.0
C1106 C 0.8556 0.01542 0.60964 0.0
H1107 H 0.80008 0.86425 0.6517 0.0
H1108 H 0.82439 0.92336 0.65207 0.0
H1109 H 0.8492 0.97128 0.59749 0.0
H1110 H 0.87944 0.12899 0.59458 0.0
H1111 H 0.86058 0.07123 0.59401 0.0
H1112 H 0.81987 0.02001 0.65086 0.0
C1113 C 0.81152 0.91006 0.63943 0.0
C1114 C 0.84284 0.98183 0.60922 0.0
C1115 C 0.79779 0.87634 0.63918 0.0
C1116 C 0.87602 0.11638 0.60802 0.0
C1117 C 0.86562 0.08325 0.60773 0.0
C1118 C 0.8272 1.01001 0.6393 0.0
C1119 C 0.80873 0.92645 0.6235 0.0
C1120 C 0.82252 0.9621 0.62396 0.0
C1121 C 0.86057 0.06582 0.62487 0.0
C1122 C 0.84782 0.03004 0.62464 0.0
H1123 H 0.76457 0.86139 0.59462 0.0
H1124 H 0.78941 0.92056 0.59486 0.0
H1125 H 0.79904 0.9618 0.65048 0.0
H1126 H 0.88084 0.12784 0.6562 0.0
H1127 H 0.86452 0.07066 0.65577 0.0
C1128 C 0.94533 0.80542 0.13813 0.0
C1129 C 0.93673 0.77578 0.12917 0.0
C1130 C 0.92505 0.81873 0.13707 0.0
C1131 C 0.85351 0.81194 0.11081 0.0
H1132 H 0.84719 0.85663 0.15536 0.0
C1133 C 0.77553 0.87343 0.1101 0.0
C1134 C 0.75855 0.8717 0.12684 0.0
C1135 C 0.79866 0.86359 0.11016 0.0
C1136 C 0.84835 0.84394 0.14284 0.0
H1137 H 0.90021 0.73764 0.11145 0.0
H1138 H 0.86434 0.75987 0.11041 0.0
H1139 H 0.88394 0.83535 0.15572 0.0
H1140 H 0.75235 0.85859 0.15678 0.0
H1141 H 0.79195 0.84051 0.15689 0.0
H1142 H 0.81669 0.8191 0.09831 0.0
C1143 C 0.88706 0.77328 0.11798 0.0
C1144 C 0.86993 0.83215 0.14292 0.0
C1145 C 0.90751 0.76018 0.11884 0.0
C1146 C 0.76546 0.86053 0.14374 0.0
C1147 C 0.78823 0.85023 0.14377 0.0
C1148 C 0.83165 0.8234 0.11082 0.0
C1149 C 0.89537 0.80264 0.12721 0.0
C1150 C 0.87285 0.81593 0.12691 0.0
C1151 C 0.80506 0.85143 0.12694 0.0
C1152 C 0.82872 0.83957 0.12684 0.0
H1153 H 0.9674 0.81808 0.14639 0.0
H1154 H 0.93269 0.84166 0.14408 0.0
H1155 H 0.85527 0.80003 0.09809 0.0
H1156 H 0.77069 0.88212 0.0969 0.0
H1157 H 0.81143 0.86546 0.09701 0.0
C1158 C 0.90509 0.7695 0.64298 0.0
C1159 C 0.89091 0.75546 0.6254 0.0
C1160 C 0.93775 0.79378 0.64393 0.0
C1161 C 1.00832 0.8509 0.61318 0.0
H1162 H 0.05817 0.85244 0.6573 0.0
C1163 C 0.14888 0.91571 0.6154 0.0
C1164 C 0.16398 0.93581 0.63122 0.0
C1165 C 0.11512 0.89622 0.61467 0.0
C1166 C 0.04447 0.85246 0.64497 0.0
H1167 H 0.89912 0.75719 0.59491 0.0
H1168 H 0.95619 0.798 0.59651 0.0
H1169 H 1.0003 0.81347 0.65607 0.0
H1170 H 0.1557 0.95138 0.65864 0.0
H1171 H 0.09654 0.91654 0.6576 0.0
H1172 H 0.05319 0.88893 0.60178 0.0
C1173 C 0.94234 0.79096 0.60965 0.0
C1174 C 1.01117 0.83023 0.64427 0.0
C1175 C 0.90962 0.76709 0.60872 0.0
C1176 C 0.14463 0.93627 0.64623 0.0
C1177 C 0.11088 0.91622 0.64569 0.0
C1178 C 0.04174 0.87266 0.61374 0.0
C1179 C 0.95709 0.80449 0.6273 0.0
C1180 C 0.99253 0.82901 0.62834 0.0
C1181 C 0.09581 0.8959 0.62993 0.0
C1182 C 0.06016 0.87364 0.62962 0.0
H1183 H 0.89116 0.76116 0.65609 0.0
H1184 H 0.9478 0.80403 0.65775 0.0
H1185 H 0.99494 0.85141 0.60084 0.0
H1186 H 0.16325 0.91494 0.60364 0.0
H1187 H 0.10415 0.88067 0.6024 0.0
C1188 C 0.12677 0.88836 0.37006 0.0
C1189 C 0.13821 0.88448 0.38779 0.0
C1190 C 0.09545 0.88351 0.36834 0.0
C1191 C 1.01477 0.84332 0.39117 0.0
H1192 H 1.00235 0.90459 0.36119 0.0
C1193 C 0.89167 0.84138 0.38736 0.0
C1194 C 0.8837 0.8501 0.36987 0.0
C1195 C 0.92207 0.84401 0.38993 0.0
C1196 C 1.00521 0.88693 0.36939 0.0
H1197 H 0.12602 0.87342 0.41774 0.0
H1198 H 0.07112 0.86448 0.41469 0.0
H1199 H 0.05649 0.91249 0.36491 0.0
H1200 H 0.90048 0.86644 0.34101 0.0
H1201 H 0.95288 0.87034 0.34528 0.0
H1202 H 0.96333 0.81757 0.3955 0.0
C1203 C 0.08628 0.87092 0.40207 0.0
C1204 C 0.03635 0.89155 0.37156 0.0
C1205 C 0.11774 0.87608 0.40382 0.0
C1206 C 0.90616 0.86017 0.35479 0.0
C1207 C 0.9363 0.86254 0.35728 0.0
C1208 C 0.98348 0.83856 0.38891 0.0
C1209 C 0.07477 0.87463 0.3843 0.0
C1210 C 0.04153 0.86975 0.38239 0.0
C1211 C 0.94502 0.85519 0.375 0.0
C1212 C 0.97825 0.86021 0.37786 0.0
H1213 H 0.1418 0.8946 0.35739 0.0
H1214 H 0.08722 0.88623 0.35441 0.0
H1215 H 0.01794 0.82593 0.39947 0.0
H1216 H 0.87488 0.83366 0.39926 0.0
H1217 H 0.92795 0.83829 0.40381 0.0
C1218 C 0.12305 0.87474 0.9002 0.0
C1219 C 0.09373 0.86013 0.88997 0.0
C1220 C 0.14218 0.90848 0.90134 0.0
C1221 C 0.15546 0.98359 0.87692 0.0
H1222 H 0.20926 0.02505 0.92115 0.0
C1223 C 0.2604 0.1158 0.87448 0.0
C1224 C 0.26919 0.13439 0.89124 0.0
C1225 C 0.23653 0.08308 0.87492 0.0
C1226 C 0.19411 0.01404 0.90876 0.0
H1227 H 0.06145 0.87014 0.8732 0.0
H1228 H 0.09379 0.92863 0.87604 0.0
H1229 H 0.17187 0.96698 0.92156 0.0
H1230 H 0.25871 0.13413 0.92134 0.0
H1231 H 0.21593 0.07723 0.92205 0.0
H1232 H 0.17686 0.03074 0.86436 0.0
C1233 C 0.10255 0.91404 0.88276 0.0
C1234 C 0.17294 0.9805 0.90888 0.0
C1235 C 0.08363 0.8803 0.8814 0.0
C1236 C 0.25252 0.12015 0.90826 0.0
C1237 C 0.22821 0.08749 0.90866 0.0
C1238 C 0.17634 0.01714 0.87689 0.0
C1239 C 0.13236 0.92866 0.89249 0.0
C1240 C 0.1536 0.9647 0.89286 0.0
C1241 C 0.22032 0.0683 0.89206 0.0
C1242 C 0.19634 0.03283 0.89268 0.0
H1243 H 0.13145 0.86012 0.90728 0.0
H1244 H 0.16509 0.91867 0.90879 0.0
H1245 H 0.14135 0.97244 0.8642 0.0
H1246 H 0.27309 0.12613 0.86118 0.0
H1247 H 0.23172 0.06915 0.86192 0.0
C1248 C 0.1502 0.25231 0.40674 0.0
C1249 C 0.14975 0.26857 0.39014 0.0
C1250 C 0.16088 0.22987 0.40606 0.0
C1251 C 0.17858 0.18026 0.37232 0.0
H1252 H 0.2288 0.17714 0.41492 0.0
C1253 C 0.26742 0.12513 0.39238 0.0
C1254 C 0.25063 0.09491 0.38315 0.0
C1255 C 0.25408 0.14532 0.39365 0.0
C1256 C 0.21509 0.17785 0.40279 0.0
H1257 H 0.15975 0.27417 0.35979 0.0
H1258 H 0.17922 0.23565 0.35856 0.0
H1259 H 0.20833 0.2146 0.41574 0.0
H1260 H 0.20615 0.06229 0.36822 0.0
H1261 H 0.18233 0.09672 0.37121 0.0
H1262 H 0.18659 0.14461 0.35897 0.0
C1263 C 0.17063 0.23948 0.37208 0.0
C1264 C 0.20288 0.19906 0.4034 0.0
C1265 C 0.15952 0.2616 0.37275 0.0
C1266 C 0.21975 0.08518 0.37561 0.0
C1267 C 0.20625 0.10524 0.37706 0.0
C1268 C 0.19106 0.15928 0.37163 0.0
C1269 C 0.17167 0.22345 0.38876 0.0
C1270 C 0.18443 0.20057 0.38817 0.0
C1271 C 0.22335 0.13576 0.38593 0.0
C1272 C 0.20953 0.15776 0.38685 0.0
H1273 H 0.14259 0.25722 0.42031 0.0
H1274 H 0.16075 0.21766 0.41913 0.0
H1275 H 0.16416 0.18039 0.36042 0.0
H1276 H 0.291 0.13332 0.39865 0.0
H1277 H 0.26824 0.16874 0.4004 0.0
C1278 C 0.14596 0.22803 0.9109 0.0
C1279 C 0.16349 0.2293 0.89444 0.0
C1280 C 0.11234 0.21458 0.91017 0.0
C1281 C 0.04652 0.19949 0.87748 0.0
H1282 H 0.99087 0.1404 0.9168 0.0
C1283 C 0.90734 0.14315 0.87452 0.0
C1284 C 0.8912 0.13993 0.89187 0.0
C1285 C 0.93998 0.15153 0.87436 0.0
C1286 C 1.00602 0.1572 0.90582 0.0
H1287 H 0.15948 0.2173 0.86436 0.0
H1288 H 0.10058 0.1941 0.86302 0.0
H1289 H 0.04887 0.15997 0.91749 0.0
H1290 H 0.89604 0.14131 0.92266 0.0
H1291 H 0.95306 0.15706 0.92248 0.0
H1292 H 1.0041 0.1978 0.86615 0.0
C1293 C 0.11295 0.20346 0.87649 0.0
C1294 C 0.03929 0.16828 0.90619 0.0
C1295 C 0.14658 0.21649 0.87728 0.0
C1296 C 0.90799 0.14409 0.90905 0.0
C1297 C 0.94066 0.15275 0.90892 0.0
C1298 C 1.01331 0.18876 0.87724 0.0
C1299 C 0.09548 0.20247 0.89292 0.0
C1300 C 0.05993 0.18964 0.89207 0.0
C1301 C 0.95727 0.15693 0.89157 0.0
C1302 C 0.99256 0.16754 0.89146 0.0
H1303 H 0.15831 0.23752 0.92435 0.0
H1304 H 0.09961 0.21437 0.92304 0.0
H1305 H 0.06189 0.21627 0.86654 0.0
H1306 H 0.89502 0.14003 0.86102 0.0
H1307 H 0.95165 0.15385 0.86071 0.0
C1308 C 0.90383 0.14789 0.39722 0.0
C1309 C 0.93277 0.16211 0.38655 0.0
C1310 C 0.88429 0.11417 0.39846 0.0
C1311 C 0.86869 0.03857 0.37379 0.0
H1312 H 0.81716 0.99759 0.41898 0.0
C1313 C 0.76362 0.90623 0.37318 0.0
C1314 C 0.75674 0.8876 0.38989 0.0
C1315 C 0.78708 0.93911 0.37325 0.0
C1316 C 0.83168 1.0085 0.40632 0.0
H1317 H 0.96385 0.15142 0.36907 0.0
H1318 H 0.93075 0.09296 0.37202 0.0
H1319 H 0.85488 0.05568 0.41892 0.0
H1320 H 0.76996 0.8881 0.41949 0.0
H1321 H 0.81179 0.94541 0.41956 0.0
H1322 H 0.84628 0.99129 0.3614 0.0
C1323 C 0.92264 0.10785 0.37903 0.0
C1324 C 0.85302 0.04202 0.40617 0.0
C1325 C 0.942 0.14156 0.3776 0.0
C1326 C 0.77468 0.90208 0.40647 0.0
C1327 C 0.79845 0.93495 0.40651 0.0
C1328 C 0.84762 1.00505 0.374 0.0
C1329 C 0.89326 0.09362 0.38926 0.0
C1330 C 0.87161 0.05762 0.38983 0.0
C1331 C 0.80464 0.95405 0.38996 0.0
C1332 C 0.82851 0.98956 0.39018 0.0
H1333 H 0.8961 0.16279 0.40459 0.0
H1334 H 0.86173 0.1043 0.40631 0.0
H1335 H 0.88217 0.04958 0.36082 0.0
H1336 H 0.74994 0.89571 0.36022 0.0
H1337 H 0.79065 0.95299 0.36032 0.0
C1338 C 0.86875 0.75872 0.87528 0.0
C1339 C 0.87699 0.75079 0.8929 0.0
C1340 C 0.85812 0.7812 0.87432 0.0
C1341 C 0.82452 0.82157 0.90459 0.0
H1342 H 0.84599 0.87825 0.86062 0.0
C1343 C 0.81237 0.93797 0.87566 0.0
C1344 C 0.78084 0.92827 0.8821 0.0
C1345 C 0.82539 0.91756 0.87778 0.0
C1346 C 0.84006 0.86296 0.87315 0.0
H1347 H 0.88177 0.76076 0.92323 0.0
H1348 H 0.86425 0.80084 0.92159 0.0
H1349 H 0.86711 0.84142 0.86284 0.0
H1350 H 0.73886 0.88963 0.89648 0.0
H1351 H 0.76087 0.8537 0.8994 0.0
H1352 H 0.79837 0.84386 0.91521 0.0
C1353 C 0.86504 0.78913 0.90852 0.0
C1354 C 0.8518 0.84138 0.87428 0.0
C1355 C 0.87531 0.76636 0.90948 0.0
C1356 C 0.76298 0.89781 0.89102 0.0
C1357 C 0.77587 0.8773 0.89298 0.0
C1358 C 0.81302 0.84337 0.90354 0.0
C1359 C 0.85599 0.79667 0.89094 0.0
C1360 C 0.84405 0.82022 0.88996 0.0
C1361 C 0.80719 0.88675 0.88627 0.0
C1362 C 0.82043 0.86426 0.88775 0.0
H1363 H 0.86947 0.74672 0.86232 0.0
H1364 H 0.85085 0.78586 0.86058 0.0
H1365 H 0.81763 0.80542 0.91677 0.0
H1366 H 0.82682 0.96106 0.86856 0.0
H1367 H 0.84978 0.92601 0.87271 0.0
C1368 C 0.12116 0.69589 0.11235 0.0
C1369 C 0.14166 0.72004 0.12521 0.0
C1370 C 0.12256 0.66742 0.11036 0.0
C1371 C 0.17602 0.63259 0.12075 0.0
H1372 H 0.09895 0.55238 0.10676 0.0
C1373 C 0.16708 0.50534 0.11615 0.0
C1374 C 0.15274 0.48799 0.09926 0.0
C1375 C 0.16716 0.53422 0.12025 0.0
C1376 C 0.1207 0.57464 0.11064 0.0
H1377 H 0.17912 0.73301 0.14648 0.0
H1378 H 0.18085 0.68297 0.14358 0.0
H1379 H 0.0951 0.60056 0.11287 0.0
H1380 H 0.12924 0.48905 0.0729 0.0
H1381 H 0.12841 0.53833 0.0804 0.0
H1382 H 0.20127 0.60595 0.11892 0.0
C1383 C 0.16426 0.6862 0.13456 0.0
C1384 C 0.11859 0.60242 0.11402 0.0
C1385 C 0.16311 0.71485 0.13636 0.0
C1386 C 0.13956 0.50097 0.08634 0.0
C1387 C 0.1392 0.52938 0.09056 0.0
C1388 C 0.17799 0.60457 0.11768 0.0
C1389 C 0.14424 0.66214 0.12137 0.0
C1390 C 0.14629 0.63201 0.11883 0.0
C1391 C 0.15257 0.54612 0.10766 0.0
C1392 C 0.15043 0.57544 0.11229 0.0
H1393 H 0.10474 0.69943 0.10334 0.0
H1394 H 0.10716 0.64997 0.09977 0.0
H1395 H 0.19804 0.65488 0.12415 0.0
H1396 H 0.17734 0.49613 0.1265 0.0
H1397 H 0.17768 0.54668 0.13354 0.0
C1398 C 0.64516 0.12066 0.60403 0.0
C1399 C 0.67456 0.15035 0.60326 0.0
C1400 C 0.6161 0.1195 0.6087 0.0
C1401 C 0.57908 0.17234 0.61123 0.0
H1402 H 0.50799 0.09583 0.63454 0.0
C1403 C 0.45813 0.16425 0.63365 0.0
C1404 C 0.42982 0.13701 0.62684 0.0
C1405 C 0.48824 0.16604 0.63219 0.0
C1406 C 0.52761 0.1173 0.62796 0.0
H1407 H 0.69621 0.20209 0.60778 0.0
H1408 H 0.64592 0.19993 0.61694 0.0
H1409 H 0.56046 0.09938 0.63064 0.0
H1410 H 0.41131 0.09044 0.61305 0.0
H1411 H 0.46364 0.09284 0.61134 0.0
H1412 H 0.54613 0.19043 0.60908 0.0
C1413 C 0.64511 0.17752 0.61322 0.0
C1414 C 0.55775 0.11934 0.62561 0.0
C1415 C 0.6742 0.17873 0.60826 0.0
C1416 C 0.43236 0.11134 0.61888 0.0
C1417 C 0.46241 0.11284 0.61777 0.0
C1418 C 0.5491 0.1705 0.61391 0.0
C1419 C 0.61546 0.14794 0.61315 0.0
C1420 C 0.58389 0.14671 0.61694 0.0
C1421 C 0.49075 0.14041 0.62419 0.0
C1422 C 0.52293 0.1428 0.62209 0.0
H1423 H 0.64439 0.09812 0.60072 0.0
H1424 H 0.59401 0.09624 0.60824 0.0
H1425 H 0.59816 0.19357 0.60418 0.0
H1426 H 0.45717 0.1845 0.63992 0.0
H1427 H 0.50961 0.1875 0.63737 0.0
C1428 C 0.48894 0.67509 0.13088 0.0
C1429 C 0.50529 0.6895 0.11375 0.0
C1430 C 0.46865 0.64145 0.13221 0.0
C1431 C 0.41501 0.57274 0.1031 0.0
H1432 H 0.41595 0.51923 0.14456 0.0
C1433 C 0.3204 0.4372 0.10486 0.0
C1434 C 0.30794 0.42249 0.12262 0.0
C1435 C 0.34794 0.46797 0.10378 0.0
C1436 C 0.41497 0.53379 0.133 0.0
H1437 H 0.51375 0.68003 0.0847 0.0
H1438 H 0.47749 0.62114 0.08684 0.0
H1439 H 0.45756 0.57653 0.14298 0.0
H1440 H 0.31527 0.4277 0.15319 0.0
H1441 H 0.36243 0.48228 0.1515 0.0
H1442 H 0.37168 0.53125 0.0936 0.0
C1443 C 0.48073 0.63591 0.0993 0.0
C1444 C 0.43903 0.56662 0.13205 0.0
C1445 C 0.50157 0.66952 0.0981 0.0
C1446 C 0.32441 0.43858 0.13931 0.0
C1447 C 0.35159 0.46987 0.13827 0.0
C1448 C 0.39064 0.54022 0.10425 0.0
C1449 C 0.46377 0.62157 0.11631 0.0
C1450 C 0.4393 0.5864 0.11706 0.0
C1451 C 0.36333 0.48541 0.12047 0.0
C1452 C 0.39017 0.52008 0.11918 0.0
H1453 H 0.49145 0.68996 0.14317 0.0
H1454 H 0.45575 0.63111 0.14545 0.0
H1455 H 0.41425 0.58754 0.09158 0.0
H1456 H 0.30852 0.42503 0.09173 0.0
H1457 H 0.35674 0.47823 0.08976 0.0
C1458 C 0.8414 0.49704 0.60427 0.0
C1459 C 0.82391 0.49953 0.61969 0.0
C1460 C 0.85484 0.47689 0.60553 0.0
C1461 C 0.8812 0.43454 0.63862 0.0
H1462 H 0.85511 0.37083 0.59825 0.0
C1463 C 0.89509 0.32035 0.64453 0.0
C1464 C 0.89728 0.3059 0.62757 0.0
C1465 C 0.89112 0.34757 0.64382 0.0
C1466 C 0.86344 0.38882 0.60946 0.0
H1467 H 0.80818 0.48424 0.64881 0.0
H1468 H 0.83225 0.44952 0.65113 0.0
H1469 H 0.8401 0.41237 0.59647 0.0
H1470 H 0.90023 0.31008 0.59676 0.0
H1471 H 0.89547 0.35843 0.59547 0.0
H1472 H 0.90499 0.41134 0.65153 0.0
C1473 C 0.83532 0.46292 0.63804 0.0
C1474 C 0.85458 0.4126 0.60845 0.0
C1475 C 0.82138 0.4826 0.63667 0.0
C1476 C 0.89797 0.32047 0.61003 0.0
C1477 C 0.89486 0.34802 0.60932 0.0
C1478 C 0.89063 0.41104 0.63949 0.0
C1479 C 0.8516 0.45931 0.62235 0.0
C1480 C 0.86308 0.43554 0.62307 0.0
C1481 C 0.88999 0.36125 0.62613 0.0
C1482 C 0.88167 0.38762 0.62497 0.0
H1483 H 0.8436 0.50969 0.591 0.0
H1484 H 0.8674 0.47467 0.59324 0.0
H1485 H 0.8882 0.45206 0.65006 0.0
H1486 H 0.89448 0.30948 0.65824 0.0
H1487 H 0.88736 0.3568 0.65711 0.0
C1488 C 0.57606 0.85617 0.14349 0.0
C1489 C 0.60038 0.87926 0.13158 0.0
C1490 C 0.54465 0.85122 0.14298 0.0
C1491 C 0.49275 0.88329 0.12358 0.0
H1492 H 0.4259 0.79328 0.12933 0.0
C1493 C 0.35608 0.83215 0.10426 0.0
C1494 C 0.33298 0.80741 0.11607 0.0
C1495 C 0.38936 0.84422 0.10705 0.0
C1496 C 0.44414 0.81863 0.12792 0.0
H1497 H 0.61124 0.91625 0.11028 0.0
H1498 H 0.55585 0.90681 0.10874 0.0
H1499 H 0.48201 0.80836 0.13293 0.0
H1500 H 0.32698 0.77771 0.14092 0.0
H1501 H 0.38457 0.79872 0.14585 0.0
H1502 H 0.45407 0.89308 0.11836 0.0
C1503 C 0.56115 0.89292 0.11885 0.0
C1504 C 0.47661 0.8274 0.12998 0.0
C1505 C 0.59295 0.89835 0.11968 0.0
C1506 C 0.34402 0.79618 0.13126 0.0
C1507 C 0.37712 0.80824 0.13408 0.0
C1508 C 0.46001 0.87442 0.12147 0.0
C1509 C 0.5363 0.8686 0.13015 0.0
C1510 C 0.50155 0.85987 0.12795 0.0
C1511 C 0.40025 0.83186 0.12176 0.0
C1512 C 0.43527 0.84195 0.12375 0.0
H1513 H 0.58115 0.84133 0.15298 0.0
H1514 H 0.52672 0.8331 0.15242 0.0
H1515 H 0.51107 0.90857 0.12208 0.0
H1516 H 0.34841 0.84127 0.09238 0.0
H1517 H 0.40645 0.8623 0.09724 0.0
C1518 C 0.72164 0.57206 0.64156 0.0
C1519 C 0.72493 0.59554 0.62822 0.0
C1520 C 0.69511 0.54056 0.64086 0.0
C1521 C 0.61343 0.48775 0.61905 0.0
H1522 H 0.6357 0.4211 0.628 0.0
C1523 C 0.52752 0.35065 0.60084 0.0
C1524 C 0.5291 0.32764 0.61269 0.0
C1525 C 0.54876 0.38398 0.60362 0.0
C1526 C 0.62872 0.43923 0.62574 0.0
H1527 H 0.70219 0.60484 0.6042 0.0
H1528 H 0.65593 0.54952 0.6027 0.0
H1529 H 0.67655 0.47737 0.63171 0.0
H1530 H 0.55261 0.32167 0.63756 0.0
H1531 H 0.58884 0.37932 0.64272 0.0
H1532 H 0.56524 0.44899 0.6131 0.0
C1533 C 0.6737 0.55551 0.61389 0.0
C1534 C 0.65239 0.47179 0.62782 0.0
C1535 C 0.70023 0.58726 0.61472 0.0
C1536 C 0.5512 0.33874 0.62794 0.0
C1537 C 0.57212 0.37188 0.63083 0.0
C1538 C 0.58954 0.45494 0.61705 0.0
C1539 C 0.67124 0.53145 0.62664 0.0
C1540 C 0.64523 0.49665 0.62456 0.0
C1541 C 0.57189 0.39503 0.61842 0.0
C1542 C 0.59686 0.43018 0.62046 0.0
H1543 H 0.74009 0.57785 0.6523 0.0
H1544 H 0.69373 0.52313 0.65129 0.0
H1545 H 0.60683 0.5061 0.61657 0.0
H1546 H 0.51083 0.34285 0.58892 0.0
H1547 H 0.54789 0.40096 0.59371 0.0
C1548 C 0.33312 0.90633 0.38164 0.0
C1549 C 0.30911 0.89268 0.39586 0.0
C1550 C 0.36223 0.9059 0.3835 0.0
C1551 C 0.41114 0.8897 0.41958 0.0
H1552 H 0.45323 0.88074 0.3745 0.0
C1553 C 0.50997 0.85336 0.42321 0.0
C1554 C 0.53958 0.87605 0.41488 0.0
C1555 C 0.48192 0.85509 0.41982 0.0
C1556 C 0.44168 0.88327 0.38719 0.0
H1557 H 0.29778 0.8694 0.42367 0.0
H1558 H 0.34661 0.86637 0.42626 0.0
H1559 H 0.40481 0.88549 0.371 0.0
H1560 H 0.56296 0.91746 0.39593 0.0
H1561 H 0.51357 0.91969 0.3894 0.0
H1562 H 0.4474 0.8861 0.43572 0.0
C1563 C 0.34385 0.87826 0.41383 0.0
C1564 C 0.41405 0.88631 0.38523 0.0
C1565 C 0.31527 0.87937 0.41215 0.0
C1566 C 0.54036 0.89962 0.40245 0.0
C1567 C 0.51216 0.90087 0.39871 0.0
C1568 C 0.43823 0.88591 0.42153 0.0
C1569 C 0.36787 0.89142 0.39954 0.0
C1570 C 0.39821 0.88945 0.40142 0.0
C1571 C 0.48283 0.87909 0.40771 0.0
C1572 C 0.45375 0.8826 0.40539 0.0
H1573 H 0.32921 0.91676 0.36888 0.0
H1574 H 0.38022 0.91691 0.37232 0.0
H1575 H 0.40053 0.89303 0.43243 0.0
H1576 H 0.50882 0.83516 0.43297 0.0
H1577 H 0.45958 0.83794 0.42689 0.0
C1578 C 0.68439 0.46839 0.89023 0.0
C1579 C 0.69716 0.49455 0.90311 0.0
C1580 C 0.65093 0.44923 0.88745 0.0
C1581 C 0.57311 0.42578 0.9117 0.0
H1582 H 0.53671 0.38295 0.86351 0.0
C1583 C 0.44945 0.30919 0.90727 0.0
C1584 C 0.42991 0.30276 0.89106 0.0
C1585 C 0.48023 0.33662 0.90812 0.0
C1586 C 0.5463 0.39505 0.87701 0.0
H1587 H 0.68431 0.52151 0.9227 0.0
H1588 H 0.62612 0.48878 0.91742 0.0
H1589 H 0.59394 0.42398 0.86532 0.0
H1590 H 0.42639 0.32099 0.86336 0.0
H1591 H 0.48038 0.36971 0.86488 0.0
H1592 H 0.5255 0.39707 0.92336 0.0
C1593 C 0.64199 0.48263 0.90974 0.0
C1594 C 0.57932 0.41831 0.87813 0.0
C1595 C 0.6755 0.50173 0.91259 0.0
C1596 C 0.44107 0.32534 0.87602 0.0
C1597 C 0.47209 0.35301 0.87684 0.0
C1598 C 0.54013 0.40267 0.91056 0.0
C1599 C 0.62917 0.45575 0.89737 0.0
C1600 C 0.59337 0.4335 0.8956 0.0
C1601 C 0.4923 0.3587 0.8928 0.0
C1602 C 0.5264 0.38637 0.89332 0.0
H1603 H 0.70026 0.4624 0.88239 0.0
H1604 H 0.64215 0.42862 0.87796 0.0
H1605 H 0.5829 0.43665 0.92545 0.0
H1606 H 0.44096 0.29267 0.91929 0.0
H1607 H 0.49498 0.33985 0.92059 0.0
C1608 C 0.17743 0.66657 0.4103 0.0
C1609 C 0.20537 0.68932 0.40041 0.0
C1610 C 0.16505 0.63321 0.40778 0.0
C1611 C 0.1679 0.57327 0.37502 0.0
H1612 H 0.14411 0.51858 0.42005 0.0
C1613 C 0.16176 0.44956 0.3752 0.0
C1614 C 0.13845 0.42428 0.38655 0.0
C1615 C 0.16508 0.48036 0.37572 0.0
C1616 C 0.15009 0.53332 0.40727 0.0
H1617 H 0.24137 0.69472 0.37954 0.0
H1618 H 0.22009 0.63689 0.37531 0.0
H1619 H 0.1588 0.57527 0.42322 0.0
H1620 H 0.09965 0.4112 0.40693 0.0
H1621 H 0.10511 0.46504 0.40769 0.0
H1622 H 0.15976 0.53154 0.35911 0.0
C1623 C 0.20761 0.64467 0.38498 0.0
C1624 C 0.15855 0.5659 0.40909 0.0
C1625 C 0.22005 0.6779 0.38757 0.0
C1626 C 0.1177 0.43016 0.39794 0.0
C1627 C 0.1211 0.46111 0.39853 0.0
C1628 C 0.1594 0.54074 0.3732 0.0
C1629 C 0.18013 0.62184 0.39517 0.0
C1630 C 0.16817 0.58646 0.39304 0.0
C1631 C 0.14521 0.48676 0.38764 0.0
C1632 C 0.15096 0.52046 0.38934 0.0
H1633 H 0.16562 0.67454 0.42036 0.0
H1634 H 0.14369 0.61632 0.41574 0.0
H1635 H 0.17455 0.58821 0.36229 0.0
H1636 H 0.17807 0.44575 0.36624 0.0
H1637 H 0.18416 0.4995 0.36731 0.0
C1638 C 0.6986 0.11904 0.87735 0.0
C1639 C 0.72141 0.13178 0.89227 0.0
C1640 C 0.67179 0.12381 0.87712 0.0
C1641 C 0.64962 0.18263 0.8939 0.0
H1642 H 0.55962 0.11646 0.88724 0.0
C1643 C 0.55111 0.2175 0.89048 0.0
C1644 C 0.52427 0.20004 0.90259 0.0
C1645 C 0.57236 0.20612 0.88649 0.0
C1646 C 0.58467 0.13518 0.88908 0.0
H1647 H 0.7327 0.15817 0.91912 0.0
H1648 H 0.68683 0.16669 0.91846 0.0
H1649 H 0.60212 0.10166 0.88581 0.0
H1650 H 0.49781 0.15587 0.91913 0.0
H1651 H 0.53506 0.13591 0.91215 0.0
H1652 H 0.6327 0.2161 0.8975 0.0
C1653 C 0.68969 0.15328 0.90687 0.0
C1654 C 0.60896 0.12674 0.88811 0.0
C1655 C 0.71606 0.1483 0.90722 0.0
C1656 C 0.51818 0.16988 0.9097 0.0
C1657 C 0.53952 0.15843 0.90569 0.0
C1658 C 0.62557 0.19108 0.89464 0.0
C1659 C 0.66761 0.14175 0.89167 0.0
C1660 C 0.64165 0.15035 0.89085 0.0
C1661 C 0.5674 0.17692 0.89449 0.0
C1662 C 0.59273 0.16749 0.89246 0.0
H1663 H 0.702 0.1064 0.86555 0.0
H1664 H 0.6551 0.11465 0.86521 0.0
H1665 H 0.67461 0.20142 0.89592 0.0
H1666 H 0.55613 0.24046 0.88439 0.0
H1667 H 0.59318 0.22064 0.87747 0.0
C1668 C 0.3459 0.53896 0.38427 0.0
C1669 C 0.33119 0.52244 0.40131 0.0
C1670 C 0.3796 0.55876 0.38304 0.0
C1671 C 0.44881 0.61082 0.41233 0.0
H1672 H 0.50147 0.60853 0.37084 0.0
C1673 C 0.58498 0.7031 0.41062 0.0
C1674 C 0.59967 0.71548 0.39286 0.0
C1675 C 0.55399 0.67586 0.41172 0.0
C1676 C 0.48717 0.60989 0.38242 0.0
H1677 H 0.34021 0.51328 0.43032 0.0
H1678 H 0.3992 0.54871 0.42837 0.0
H1679 H 0.4438 0.56813 0.3723 0.0
H1680 H 0.59416 0.70834 0.36227 0.0
H1681 H 0.53931 0.66174 0.36399 0.0
H1682 H 0.49099 0.65339 0.42198 0.0
C1683 C 0.38461 0.54596 0.4159 0.0
C1684 C 0.45411 0.58652 0.38329 0.0
C1685 C 0.35093 0.5256 0.41699 0.0
C1686 C 0.58337 0.69919 0.37617 0.0
C1687 C 0.55188 0.67234 0.37722 0.0
C1688 C 0.48158 0.63453 0.41126 0.0
C1689 C 0.39926 0.563 0.39897 0.0
C1690 C 0.43462 0.58675 0.39828 0.0
C1691 C 0.53633 0.66076 0.39504 0.0
C1692 C 0.50142 0.63451 0.39631 0.0
H1693 H 0.33124 0.53685 0.37195 0.0
H1694 H 0.3902 0.57175 0.36987 0.0
H1695 H 0.43426 0.61195 0.42387 0.0
H1696 H 0.59726 0.71494 0.42374 0.0
H1697 H 0.54369 0.66715 0.42574 0.0
C1698 C 0.9154 0.59229 0.8998 0.0
C1699 C 0.88981 0.59502 0.89187 0.0
C1700 C 0.91378 0.56217 0.90081 0.0
C1701 C 0.85658 0.47561 0.90475 0.0
H1702 H 0.92686 0.46426 0.8864 0.0
C1703 C 0.84919 0.3507 0.90995 0.0
C1704 C 0.87796 0.35052 0.91412 0.0
C1705 C 0.84993 0.37966 0.90518 0.0
C1706 C 0.90715 0.46696 0.8919 0.0
H1707 H 0.84228 0.56788 0.87882 0.0
H1708 H 0.83903 0.51526 0.88128 0.0
H1709 H 0.93014 0.51666 0.88287 0.0
H1710 H 0.9303 0.38092 0.91535 0.0
H1711 H 0.93144 0.43106 0.90825 0.0
H1712 H 0.83412 0.42663 0.91463 0.0
C1713 C 0.86054 0.53658 0.88646 0.0
C1714 C 0.90903 0.49706 0.88975 0.0
C1715 C 0.86248 0.56678 0.88505 0.0
C1716 C 0.90749 0.37999 0.91272 0.0
C1717 C 0.9082 0.40891 0.90826 0.0
C1718 C 0.85495 0.44567 0.90727 0.0
C1719 C 0.88617 0.53394 0.89434 0.0
C1720 C 0.88383 0.50174 0.89621 0.0
C1721 C 0.87943 0.40938 0.90462 0.0
C1722 C 0.88031 0.44086 0.90099 0.0
H1723 H 0.93638 0.61326 0.90562 0.0
H1724 H 0.93377 0.56081 0.90715 0.0
H1725 H 0.83689 0.47861 0.91001 0.0
H1726 H 0.82593 0.32865 0.91094 0.0
H1727 H 0.82724 0.37867 0.90209 0.0
C1728 C 0.19027 0.38936 0.33007 0.0
C1729 C 0.17194 0.35778 0.33749 0.0
C1730 C 0.19718 0.39427 0.31042 0.0
C1731 C 0.1619 0.3555 0.26518 0.0
H1732 H 0.24701 0.40482 0.24211 0.0
C1733 C 0.18405 0.33495 0.18777 0.0
C1734 C 0.20692 0.3606 0.17647 0.0
C1735 C 0.18029 0.33951 0.20704 0.0
C1736 C 0.223 0.39152 0.2483 0.0
H1737 H 0.14885 0.30673 0.33049 0.0
H1738 H 0.16022 0.31529 0.29636 0.0
H1739 H 0.24127 0.4039 0.27702 0.0
H1740 H 0.24306 0.41157 0.1763 0.0
H1741 H 0.23621 0.4199 0.21034 0.0
H1742 H 0.14335 0.34301 0.23681 0.0
C1743 C 0.16887 0.33622 0.3056 0.0
C1744 C 0.21978 0.3909 0.26829 0.0
C1745 C 0.16241 0.33134 0.32514 0.0
C1746 C 0.22521 0.39142 0.18472 0.0
C1747 C 0.22149 0.39604 0.20421 0.0
C1748 C 0.16502 0.35643 0.24533 0.0
C1749 C 0.18564 0.36767 0.29795 0.0
C1750 C 0.18927 0.37205 0.27689 0.0
C1751 C 0.1991 0.36999 0.21565 0.0
C1752 C 0.1957 0.37354 0.2366 0.0
H1753 H 0.19804 0.41019 0.33928 0.0
H1754 H 0.21027 0.41877 0.30487 0.0
H1755 H 0.13801 0.34128 0.27145 0.0
H1756 H 0.16944 0.31094 0.18178 0.0
H1757 H 0.16322 0.3187 0.21534 0.0
C1758 C 0.84129 0.22235 0.68703 0.0
C1759 C 0.85247 0.2028 0.67896 0.0
C1760 C 0.83225 0.21883 0.70642 0.0
C1761 C 0.81122 0.16153 0.7477 0.0
H1762 H 0.84172 0.23823 0.77919 0.0
C1763 C 0.8395 0.16417 0.82705 0.0
C1764 C 0.81883 0.16837 0.83954 0.0
C1765 C 0.84014 0.17078 0.80759 0.0
C1766 C 0.83264 0.21664 0.77049 0.0
H1767 H 0.86139 0.16327 0.68447 0.0
H1768 H 0.84638 0.15748 0.71792 0.0
H1769 H 0.84781 0.24379 0.7443 0.0
H1770 H 0.78455 0.18538 0.84168 0.0
H1771 H 0.78645 0.19802 0.80729 0.0
H1772 H 0.79792 0.13465 0.77394 0.0
C1773 C 0.84419 0.17538 0.70954 0.0
C1774 C 0.83602 0.21975 0.75052 0.0
C1775 C 0.85316 0.17891 0.69034 0.0
C1776 C 0.80056 0.18174 0.83234 0.0
C1777 C 0.80156 0.18886 0.81274 0.0
C1778 C 0.80826 0.15852 0.76756 0.0
C1779 C 0.83386 0.19542 0.71798 0.0
C1780 C 0.82616 0.19224 0.73889 0.0
C1781 C 0.82074 0.18255 0.80016 0.0
C1782 C 0.81956 0.18605 0.77916 0.0
H1783 H 0.84056 0.24098 0.67855 0.0
H1784 H 0.82416 0.2345 0.71237 0.0
H1785 H 0.80256 0.13972 0.73926 0.0
H1786 H 0.85452 0.1547 0.83223 0.0
H1787 H 0.8554 0.16608 0.79821 0.0
C1788 C 0.68647 0.84318 0.19122 0.0
C1789 C 0.66301 0.84348 0.17928 0.0
C1790 C 0.67952 0.83434 0.21046 0.0
C1791 C 0.63559 0.84007 0.2501 0.0
H1792 H 0.64832 0.77434 0.27464 0.0
C1793 C 0.66803 0.84018 0.32944 0.0
C1794 C 0.65034 0.81144 0.33997 0.0
C1795 C 0.66266 0.84096 0.30991 0.0
C1796 C 0.64433 0.7925 0.26795 0.0
H1797 H 0.61394 0.83464 0.17787 0.0
H1798 H 0.60212 0.8203 0.21182 0.0
H1799 H 0.65322 0.7808 0.23977 0.0
H1800 H 0.61387 0.76069 0.33836 0.0
H1801 H 0.60514 0.76169 0.30369 0.0
H1802 H 0.62879 0.85317 0.27834 0.0
C1803 C 0.6256 0.82626 0.20616 0.0
C1804 C 0.64728 0.79629 0.24806 0.0
C1805 C 0.63228 0.83425 0.18678 0.0
C1806 C 0.627 0.78336 0.33062 0.0
C1807 C 0.62228 0.78388 0.31083 0.0
C1808 C 0.63344 0.83681 0.27001 0.0
C1809 C 0.64924 0.82642 0.21819 0.0
C1810 C 0.64326 0.82033 0.23899 0.0
C1811 C 0.6403 0.81269 0.3003 0.0
C1812 C 0.63816 0.81324 0.27915 0.0
H1813 H 0.71036 0.85029 0.18572 0.0
H1814 H 0.69822 0.83488 0.21948 0.0
H1815 H 0.63263 0.85893 0.24344 0.0
H1816 H 0.68697 0.86183 0.33621 0.0
H1817 H 0.67729 0.8633 0.30209 0.0
C1818 C 0.80858 0.6363 0.68733 0.0
C1819 C 0.8211 0.66723 0.67912 0.0
C1820 C 0.81089 0.63289 0.7071 0.0
C1821 C 0.82012 0.67705 0.75207 0.0
H1822 H 0.84624 0.61933 0.77448 0.0
C1823 C 0.86528 0.69189 0.82922 0.0
C1824 C 0.8573 0.66435 0.84033 0.0
C1825 C 0.85697 0.68896 0.80993 0.0
C1826 C 0.83837 0.63516 0.76846 0.0
H1827 H 0.8476 0.71878 0.68493 0.0
H1828 H 0.8516 0.71289 0.71921 0.0
H1829 H 0.84024 0.62028 0.73975 0.0
H1830 H 0.83354 0.61197 0.8401 0.0
H1831 H 0.81872 0.6067 0.80612 0.0
H1832 H 0.81852 0.69224 0.78057 0.0
C1833 C 0.83933 0.69122 0.71056 0.0
C1834 C 0.83502 0.63575 0.74857 0.0
C1835 C 0.83716 0.69461 0.69089 0.0
C1836 C 0.83994 0.6336 0.83185 0.0
C1837 C 0.83173 0.63064 0.81239 0.0
C1838 C 0.82336 0.67639 0.77187 0.0
C1839 C 0.8257 0.66035 0.71898 0.0
C1840 C 0.82659 0.65729 0.74013 0.0
C1841 C 0.84037 0.65836 0.80118 0.0
C1842 C 0.83326 0.65601 0.78031 0.0
H1843 H 0.7961 0.61477 0.67858 0.0
H1844 H 0.80018 0.60877 0.71316 0.0
H1845 H 0.81282 0.69334 0.74606 0.0
H1846 H 0.87857 0.71592 0.83536 0.0
H1847 H 0.86443 0.71087 0.80173 0.0
C1848 C 0.16746 0.83831 0.18975 0.0
C1849 C 0.17582 0.8199 0.17791 0.0
C1850 C 0.17649 0.84311 0.20895 0.0
C1851 C 0.1998 0.80866 0.24903 0.0
H1852 H 0.22127 0.89054 0.27261 0.0
C1853 C 0.23069 0.84335 0.33068 0.0
C1854 C 0.21265 0.85651 0.33847 0.0
C1855 C 0.22942 0.8372 0.31094 0.0
C1856 C 0.21542 0.86756 0.26621 0.0
H1857 H 0.20084 0.7926 0.1768 0.0
H1858 H 0.21708 0.80129 0.21054 0.0
H1859 H 0.21497 0.88472 0.23807 0.0
H1860 H 0.1771 0.87084 0.33212 0.0
H1861 H 0.17535 0.86068 0.29803 0.0
H1862 H 0.20004 0.79164 0.27751 0.0
C1863 C 0.20315 0.8117 0.20495 0.0
C1864 C 0.21165 0.86415 0.24643 0.0
C1865 C 0.19411 0.80694 0.18561 0.0
C1866 C 0.19193 0.86148 0.32647 0.0
C1867 C 0.19092 0.85569 0.30693 0.0
C1868 C 0.20385 0.81219 0.26893 0.0
C1869 C 0.19434 0.82978 0.21687 0.0
C1870 C 0.20276 0.83437 0.23761 0.0
C1871 C 0.21022 0.84431 0.29884 0.0
C1872 C 0.21072 0.84141 0.27773 0.0
H1873 H 0.15351 0.84875 0.18422 0.0
H1874 H 0.16878 0.85671 0.2177 0.0
H1875 H 0.19285 0.78535 0.24273 0.0
H1876 H 0.24673 0.83919 0.33966 0.0
H1877 H 0.24438 0.8282 0.30503 0.0
C1878 C 0.4025 0.23259 0.8302 0.0
C1879 C 0.3737 0.20915 0.83894 0.0
C1880 C 0.40771 0.23034 0.81062 0.0
C1881 C 0.37725 0.17148 0.77015 0.0
H1882 H 0.40742 0.24735 0.73778 0.0
C1883 C 0.34225 0.16451 0.69175 0.0
C1884 C 0.36777 0.17358 0.67868 0.0
C1885 C 0.34857 0.17251 0.71103 0.0
C1886 C 0.39942 0.22612 0.74672 0.0
H1887 H 0.32841 0.1645 0.83448 0.0
H1888 H 0.33714 0.16063 0.80073 0.0
H1889 H 0.40872 0.25327 0.77271 0.0
H1890 H 0.41996 0.20047 0.67531 0.0
H1891 H 0.43102 0.21539 0.70931 0.0
H1892 H 0.36615 0.14418 0.74419 0.0
C1893 C 0.356 0.18063 0.8087 0.0
C1894 C 0.40026 0.22945 0.76669 0.0
C1895 C 0.35082 0.18297 0.82806 0.0
C1896 C 0.39983 0.19299 0.68509 0.0
C1897 C 0.40617 0.20147 0.70447 0.0
C1898 C 0.37604 0.16816 0.75031 0.0
C1899 C 0.38435 0.20435 0.79962 0.0
C1900 C 0.38831 0.20199 0.77863 0.0
C1901 C 0.38053 0.19047 0.71763 0.0
C1902 C 0.38641 0.1953 0.73844 0.0
H1903 H 0.42042 0.25306 0.83834 0.0
H1904 H 0.42989 0.24893 0.80409 0.0
H1905 H 0.36858 0.1499 0.77885 0.0
H1906 H 0.31728 0.15019 0.68718 0.0
H1907 H 0.32843 0.16406 0.72091 0.0
C1908 C 0.35533 0.25551 0.95674 0.0
C1909 C 0.34057 0.25585 0.93941 0.0
C1910 C 0.34893 0.26737 0.97362 0.0
C1911 C 0.31196 0.31629 0.99106 0.0
H1912 H 0.30125 0.26984 0.03838 0.0
C1913 C 0.27297 0.35185 0.06173 0.0
C1914 C 0.25304 0.32653 0.07423 0.0
C1915 C 0.28677 0.34583 0.04563 0.0
C1916 C 0.30379 0.28296 0.02526 0.0
H1917 H 0.30722 0.26895 0.92659 0.0
H1918 H 0.29579 0.28851 0.95548 0.0
H1919 H 0.31996 0.25483 0.00998 0.0
H1920 H 0.23088 0.27482 0.07919 0.0
H1921 H 0.25351 0.26415 0.05098 0.0
H1922 H 0.29407 0.34321 1.00602 0.0
C1923 C 0.31305 0.28012 0.95618 0.0
C1924 C 0.31514 0.27467 0.00898 0.0
C1925 C 0.31956 0.26858 0.93945 0.0
C1926 C 0.24641 0.29499 0.06997 0.0
C1927 C 0.25976 0.28891 0.05383 0.0
C1928 C 0.30026 0.32434 1.00728 0.0
C1929 C 0.32751 0.2797 0.97357 0.0
C1930 C 0.31881 0.29078 0.99151 0.0
C1931 C 0.28062 0.31426 0.04155 0.0
C1932 C 0.29541 0.3074 0.02456 0.0
H1933 H 0.37164 0.24594 0.95732 0.0
H1934 H 0.3608 0.26687 0.98669 0.0
H1935 H 0.31513 0.32985 0.97803 0.0
H1936 H 0.27882 0.37646 0.06475 0.0
H1937 H 0.30289 0.36611 0.03667 0.0
C1938 C 0.10509 0.35241 0.45651 0.0
C1939 C 0.09606 0.32799 0.44268 0.0
C1940 C 0.08647 0.34655 0.47323 0.0
C1941 C 1.00366 0.29079 0.49242 0.0
H1942 H 0.04357 0.31879 0.54216 0.0
C1943 C 0.92756 0.26285 0.5624 0.0
C1944 C 0.93875 0.25272 0.57808 0.0
C1945 C 0.94671 0.27542 0.54587 0.0
C1946 C 0.03199 0.31073 0.52837 0.0
H1947 H 0.06101 0.27779 0.43615 0.0
H1948 H 0.0293 0.26779 0.46492 0.0
H1949 H 0.07756 0.33427 0.51358 0.0
H1950 H 0.97914 0.2479 0.58836 0.0
H1951 H 1.01181 0.26927 0.55987 0.0
H1952 H 0.9582 0.26633 0.50719 0.0
C1953 C 0.05014 0.29169 0.46279 0.0
C1954 C 0.05152 0.31994 0.51195 0.0
C1955 C 0.06863 0.29745 0.44627 0.0
C1956 C 0.96952 0.25551 0.57673 0.0
C1957 C 0.98857 0.26811 0.56035 0.0
C1958 C 0.98414 0.28166 0.50881 0.0
C1959 C 0.05841 0.31621 0.4764 0.0
C1960 C 0.03767 0.30948 0.49378 0.0
C1961 C 0.97758 0.27834 0.54468 0.0
C1962 C 0.99806 0.29091 0.52706 0.0
H1963 H 0.12599 0.3762 0.45421 0.0
H1964 H 0.09359 0.366 0.48343 0.0
H1965 H 0.99207 0.28273 0.47863 0.0
H1966 H 0.90415 0.2613 0.56292 0.0
H1967 H 0.93749 0.2832 0.53411 0.0
C1968 C 0.67538 0.91778 0.06204 0.0
C1969 C 0.69827 0.92805 0.0769 0.0
C1970 C 0.6815 0.93694 0.04554 0.0
C1971 C 0.73427 0.02169 0.02766 0.0
H1972 H 0.71358 0.98204 0.97756 0.0
C1973 C 0.76366 0.09745 0.95718 0.0
C1974 C 0.77564 0.08715 0.94199 0.0
C1975 C 0.75123 0.07833 0.97376 0.0
C1976 C 0.71963 0.99358 0.99144 0.0
H1977 H 0.74602 0.96639 0.08559 0.0
H1978 H 0.75654 0.99896 0.05716 0.0
H1979 H 0.69745 0.94781 1.00599 0.0
H1980 H 0.78464 0.04884 0.9328 0.0
H1981 H 0.76364 0.01632 0.96136 0.0
H1982 H 0.75753 0.06745 0.01311 0.0
C1983 C 0.73354 0.97662 0.0583 0.0
C1984 C 0.70999 0.97386 1.00779 0.0
C1985 C 0.72751 0.95761 0.07464 0.0
C1986 C 0.77534 0.05761 0.944 0.0
C1987 C 0.76299 0.03865 0.96042 0.0
C1988 C 0.7439 0.0414 0.01132 0.0
C1989 C 0.71059 0.96681 0.04355 0.0
C1990 C 0.71779 0.98763 0.02613 0.0
C1991 C 0.75044 0.04846 0.97549 0.0
C1992 C 0.73735 0.02764 0.99296 0.0
H1993 H 0.65259 0.89524 0.06327 0.0
H1994 H 0.6632 0.9286 0.03448 0.0
H1995 H 0.74021 0.03322 0.04155 0.0
H1996 H 0.76338 0.11995 0.95614 0.0
H1997 H 0.74171 0.08667 0.98506 0.0
C1998 C 0.75827 0.6652 0.5607 0.0
C1999 C 0.78458 0.69008 0.5706 0.0
C2000 C 0.74651 0.67221 0.544 0.0
C2001 C 0.76989 0.73344 0.50556 0.0
H2002 H 0.67793 0.7023 0.50064 0.0
C2003 C 0.71746 0.75425 0.43681 0.0
C2004 C 0.69532 0.76553 0.43838 0.0
C2005 C 0.7264 0.74296 0.45275 0.0
C2006 C 0.70368 0.71128 0.50187 0.0
H2007 H 0.81983 0.74138 0.57057 0.0
H2008 H 0.80016 0.75338 0.54136 0.0
H2009 H 0.69803 0.68549 0.52814 0.0
H2010 H 0.66462 0.77272 0.45827 0.0
H2011 H 0.68044 0.75284 0.48633 0.0
H2012 H 0.77583 0.75948 0.47957 0.0
C2013 C 0.78838 0.72855 0.54638 0.0
C2014 C 0.71514 0.70134 0.51748 0.0
C2015 C 0.79969 0.72167 0.56312 0.0
C2016 C 0.68177 0.76436 0.45646 0.0
C2017 C 0.69072 0.75282 0.47253 0.0
C2018 C 0.75847 0.74309 0.48995 0.0
C2019 C 0.76129 0.7041 0.53677 0.0
C2020 C 0.74846 0.71251 0.51957 0.0
C2021 C 0.71357 0.74246 0.47088 0.0
C2022 C 0.72524 0.73223 0.48787 0.0
H2023 H 0.74581 0.64077 0.56639 0.0
H2024 H 0.7257 0.65281 0.53686 0.0
H2025 H 0.79566 0.74241 0.50667 0.0
H2026 H 0.72849 0.75448 0.42325 0.0
H2027 H 0.74359 0.73466 0.45085 0.0
C2028 C 0.94163 0.72044 0.95435 0.0
C2029 C 0.92809 0.68967 0.94595 0.0
C2030 C 0.9609 0.72793 0.97068 0.0
C2031 C 0.01681 0.70923 0.9952 0.0
H2032 H 1.00555 0.75503 0.03748 0.0
C2033 C 0.09996 0.75092 0.06313 0.0
C2034 C 0.10517 0.77952 0.07202 0.0
C2035 C 0.07851 0.738 0.04759 0.0
C2036 C 1.00948 0.74273 0.0257 0.0
H2037 H 0.92411 0.64254 0.9479 0.0
H2038 H 0.95858 0.65586 0.97651 0.0
H2039 H 0.96633 0.73497 0.0116 0.0
H2040 H 0.09379 0.81803 0.07105 0.0
H2041 H 0.05814 0.79683 0.04353 0.0
H2042 H 0.06066 0.718 0.00897 0.0
C2043 C 0.95377 0.67399 0.97055 0.0
C2044 C 0.98673 0.73095 0.01092 0.0
C2045 C 0.93376 0.66623 0.95437 0.0
C2046 C 0.09012 0.79589 0.06447 0.0
C2047 C 0.06926 0.78339 0.04884 0.0
C2048 C 0.03992 0.72141 0.00993 0.0
C2049 C 0.96775 0.70506 0.97878 0.0
C2050 C 0.99031 0.71447 0.99536 0.0
C2051 C 0.06216 0.75366 0.04056 0.0
C2052 C 0.0369 0.73889 0.02524 0.0
H2053 H 0.93789 0.73903 0.94799 0.0
H2054 H 0.97149 0.75214 0.97655 0.0
H2055 H 0.02036 0.69683 0.98331 0.0
H2056 H 0.11082 0.73753 0.06893 0.0
H2057 H 0.07365 0.71502 0.0417 0.0
C2058 C 0.26552 0.9236 0.45601 0.0
C2059 C 0.25014 0.9311 0.44136 0.0
C2060 C 0.2768 0.94305 0.47253 0.0
C2061 C 0.26373 1.00227 0.49991 0.0
H2062 H 0.34711 0.02889 0.52311 0.0
C2063 C 0.29791 0.06786 0.57177 0.0
C2064 C 0.32965 0.09355 0.57484 0.0
C2065 C 0.29007 0.04854 0.55553 0.0
C2066 C 0.3239 0.0219 0.51666 0.0
H2067 H 0.23449 0.96499 0.43289 0.0
H2068 H 0.25423 0.99835 0.46094 0.0
H2069 H 0.32952 0.99275 0.49523 0.0
H2070 H 0.37804 0.11918 0.56289 0.0
H2071 H 0.36405 0.08546 0.53394 0.0
H2072 H 0.25813 0.0317 0.52075 0.0
C2073 C 0.25736 0.97743 0.46 0.0
C2074 C 0.31362 1.00082 0.50087 0.0
C2075 C 0.2462 0.95823 0.44371 0.0
C2076 C 0.35334 0.09975 0.5609 0.0
C2077 C 0.34539 0.08019 0.54446 0.0
C2078 C 0.27395 0.02323 0.51552 0.0
C2079 C 0.27267 0.97016 0.47472 0.0
C2080 C 0.28342 0.99089 0.49223 0.0
C2081 C 0.31356 0.0543 0.5416 0.0
C2082 C 0.30408 0.03328 0.52422 0.0
H2083 H 0.26919 0.90306 0.4546 0.0
H2084 H 0.28838 0.93667 0.48365 0.0
H2085 H 0.24017 0.99492 0.49384 0.0
H2086 H 0.27889 0.06219 0.58212 0.0
H2087 H 0.26547 0.0286 0.55407 0.0
loop_
_geom_bond_atom_site_label_1
_geom_bond_atom_site_label_2
_geom_bond_distance
_geom_bond_site_symmetry_2
_ccdc_geom_bond_type
Tb0 N29 2.617 . S
Tb0 N35 2.572 . S
Tb0 O44 2.465 . S
Tb0 O45 2.387 . S
Tb0 O47 2.428 . S
Tb0 O48 2.308 . S
Tb0 O52 2.349 . S
Tb0 O55 2.393 . S
Tb0 C64 2.802 . S
C1 N2 1.379 . S
C1 C4 1.416 . S
C1 C8 1.424 . S
N2 C1 1.379 . S
N2 C5 1.334 . S
N2 Tb11 2.617 . S
C3 C5 1.390 . S
C3 C6 1.339 . S
C3 H23 0.930 . S
C4 C1 1.416 . S
C4 C6 1.416 . S
C4 C10 1.448 . S
C5 N2 1.334 . S
C5 C3 1.390 . S
C5 H16 0.930 . S
C6 C3 1.339 . S
C6 C4 1.416 . S
C6 H27 0.930 . S
C7 C8 1.413 . S
C7 C9 1.427 . S
C7 C13 1.416 . S
C8 C1 1.424 . S
C8 C7 1.413 . S
C8 N12 1.361 . S
C9 C7 1.427 . S
C9 C10 1.328 . S
C9 H24 0.929 . S
C10 C4 1.448 . S
C10 C9 1.328 . S
C10 H25 0.930 . S
Tb11 N2 2.617 . S
Tb11 N12 2.572 . S
Tb11 O46 2.349 . S
Tb11 O49 2.393 . S
Tb11 O50 2.465 . S
Tb11 O51 2.387 . S
Tb11 O53 2.428 . S
Tb11 O54 2.308 . S
Tb11 C75 2.802 . S
N12 C8 1.361 . S
N12 Tb11 2.572 . S
N12 C14 1.340 . S
C13 C7 1.416 . S
C13 C15 1.332 . S
C13 H21 0.931 . S
C14 N12 1.340 . S
C14 C15 1.407 . S
C14 H20 0.930 . S
C15 C13 1.332 . S
C15 C14 1.407 . S
C15 H17 0.929 . S
H16 C5 0.930 . S
H17 C15 0.929 . S
H18 C33 0.930 . S
H19 C40 0.929 . S
H20 C14 0.930 . S
H21 C13 0.931 . S
H22 C36 0.930 . S
H23 C3 0.930 . S
H24 C9 0.929 . S
H25 C10 0.930 . S
H26 C31 0.930 . S
H27 C6 0.930 . S
H28 C39 0.931 . S
N29 Tb0 2.617 . S
N29 C30 1.379 . S
N29 C33 1.334 . S
C30 N29 1.379 . S
C30 C32 1.416 . S
C30 C38 1.424 . S
C31 H26 0.930 . S
C31 C33 1.390 . S
C31 C34 1.339 . S
C32 C30 1.416 . S
C32 C34 1.416 . S
C32 C65 1.448 . S
C33 H18 0.930 . S
C33 N29 1.334 . S
C33 C31 1.390 . S
C34 C31 1.339 . S
C34 C32 1.416 . S
C34 H41 0.930 . S
N35 Tb0 2.572 . S
N35 C36 1.340 . S
N35 C38 1.361 . S
C36 H22 0.930 . S
C36 N35 1.340 . S
C36 C40 1.407 . S
C37 C38 1.413 . S
C37 C39 1.416 . S
C37 C66 1.427 . S
C38 C30 1.424 . S
C38 N35 1.361 . S
C38 C37 1.413 . S
C39 H28 0.931 . S
C39 C37 1.416 . S
C39 C40 1.332 . S
C40 H19 0.929 . S
C40 C36 1.407 . S
C40 C39 1.332 . S
H41 C34 0.930 . S
H42 C65 0.930 . S
H43 C66 0.929 . S
O44 Tb0 2.465 . S
O44 C64 1.264 . S
O45 Tb0 2.387 . S
O45 C56 1.264 . S
O46 Tb11 2.349 . S
O46 C56 1.243 . S
O47 Tb0 2.428 . S
O47 C64 1.256 . S
O48 Tb0 2.308 . S
O48 C63 1.266 . S
O49 Tb11 2.393 . S
O49 C63 1.248 . S
O50 Tb11 2.465 . S
O50 C75 1.264 . S
O51 Tb11 2.387 . S
O51 C67 1.264 . S
O52 Tb0 2.349 . S
O52 C67 1.243 . S
O53 Tb11 2.428 . S
O53 C75 1.256 . S
O54 Tb11 2.308 . S
O54 C74 1.266 . S
O55 Tb0 2.393 . S
O55 C74 1.248 . S
C56 O45 1.264 . S
C56 O46 1.243 . S
C57 C60 1.399 . S
C57 C62 1.383 . S
C57 C64 1.496 . S
C58 C59 1.399 . S
C58 C62 1.389 . S
C59 C58 1.399 . S
C59 C61 1.380 . S
C59 H76 0.929 . S
C60 C57 1.399 . S
C60 C61 1.392 . S
C60 H77 0.929 . S
C61 C59 1.380 . S
C61 C60 1.392 . S
C61 H78 0.929 . S
C62 C57 1.383 . S
C62 C58 1.389 . S
C62 H79 0.931 . S
C63 O48 1.266 . S
C63 O49 1.248 . S
C64 Tb0 2.802 . S
C64 O44 1.264 . S
C64 O47 1.256 . S
C64 C57 1.496 . S
C65 C32 1.448 . S
C65 H42 0.930 . S
C65 C66 1.328 . S
C66 C37 1.427 . S
C66 H43 0.929 . S
C66 C65 1.328 . S
C67 O51 1.264 . S
C67 O52 1.243 . S
C68 C71 1.399 . S
C68 C72 1.383 . S
C68 C75 1.496 . S
C69 C70 1.399 . S
C69 C72 1.389 . S
C70 C69 1.399 . S
C70 C73 1.380 . S
C70 H80 0.929 . S
C71 C68 1.399 . S
C71 C73 1.392 . S
C71 H81 0.929 . S
C72 C68 1.383 . S
C72 C69 1.389 . S
C72 H82 0.931 . S
C73 C70 1.380 . S
C73 C71 1.392 . S
C73 H83 0.929 . S
C74 O54 1.266 . S
C74 O55 1.248 . S
C75 Tb11 2.802 . S
C75 O50 1.264 . S
C75 O53 1.256 . S
C75 C68 1.496 . S
H76 C59 0.929 . S
H77 C60 0.929 . S
H78 C61 0.929 . S
H79 C62 0.931 . S
H80 C70 0.929 . S
H81 C71 0.929 . S
H82 C72 0.931 . S
H83 C73 0.929 . S
Tb84 N113 2.617 . S
Tb84 N119 2.572 . S
Tb84 O128 2.465 . S
Tb84 O129 2.387 . S
Tb84 O131 2.428 . S
Tb84 O132 2.308 . S
Tb84 O136 2.349 . S
Tb84 O139 2.393 . S
Tb84 C148 2.802 . S
C85 N86 1.379 . S
C85 C88 1.416 . S
C85 C92 1.424 . S
N86 C85 1.379 . S
N86 C89 1.334 . S
N86 Tb95 2.617 . S
C87 C89 1.390 . S
C87 C90 1.339 . S
C87 H107 0.930 . S
C88 C85 1.416 . S
C88 C90 1.416 . S
C88 C94 1.448 . S
C89 N86 1.334 . S
C89 C87 1.390 . S
C89 H100 0.930 . S
C90 C87 1.339 . S
C90 C88 1.416 . S
C90 H111 0.930 . S
C91 C92 1.413 . S
C91 C93 1.427 . S
C91 C97 1.416 . S
C92 C85 1.424 . S
C92 C91 1.413 . S
C92 N96 1.361 . S
C93 C91 1.427 . S
C93 C94 1.328 . S
C93 H108 0.929 . S
C94 C88 1.448 . S
C94 C93 1.328 . S
C94 H109 0.930 . S
Tb95 N86 2.617 . S
Tb95 N96 2.572 . S
Tb95 O130 2.349 . S
Tb95 O133 2.393 . S
Tb95 O134 2.465 . S
Tb95 O135 2.387 . S
Tb95 O137 2.428 . S
Tb95 O138 2.308 . S
Tb95 C159 2.802 . S
N96 C92 1.361 . S
N96 Tb95 2.572 . S
N96 C98 1.340 . S
C97 C91 1.416 . S
C97 C99 1.332 . S
C97 H105 0.931 . S
C98 N96 1.340 . S
C98 C99 1.407 . S
C98 H104 0.930 . S
C99 C97 1.332 . S
C99 C98 1.407 . S
C99 H101 0.929 . S
H100 C89 0.930 . S
H101 C99 0.929 . S
H102 C117 0.930 . S
H103 C124 0.929 . S
H104 C98 0.930 . S
H105 C97 0.931 . S
H106 C120 0.930 . S
H107 C87 0.930 . S
H108 C93 0.929 . S
H109 C94 0.930 . S
H110 C115 0.930 . S
H111 C90 0.930 . S
H112 C123 0.931 . S
N113 Tb84 2.617 . S
N113 C114 1.379 . S
N113 C117 1.334 . S
C114 N113 1.379 . S
C114 C116 1.416 . S
C114 C122 1.424 . S
C115 H110 0.930 . S
C115 C117 1.390 . S
C115 C118 1.339 . S
C116 C114 1.416 . S
C116 C118 1.416 . S
C116 C149 1.448 . S
C117 H102 0.930 . S
C117 N113 1.334 . S
C117 C115 1.390 . S
C118 C115 1.339 . S
C118 C116 1.416 . S
C118 H125 0.930 . S
N119 Tb84 2.572 . S
N119 C120 1.340 . S
N119 C122 1.361 . S
C120 H106 0.930 . S
C120 N119 1.340 . S
C120 C124 1.407 . S
C121 C122 1.413 . S
C121 C123 1.416 . S
C121 C150 1.427 . S
C122 C114 1.424 . S
C122 N119 1.361 . S
C122 C121 1.413 . S
C123 H112 0.931 . S
C123 C121 1.416 . S
C123 C124 1.332 . S
C124 H103 0.929 . S
C124 C120 1.407 . S
C124 C123 1.332 . S
H125 C118 0.930 . S
H126 C149 0.930 . S
H127 C150 0.929 . S
O128 Tb84 2.465 . S
O128 C148 1.264 . S
O129 Tb84 2.387 . S
O129 C140 1.264 . S
O130 Tb95 2.349 . S
O130 C140 1.243 . S
O131 Tb84 2.428 . S
O131 C148 1.256 . S
O132 Tb84 2.308 . S
O132 C147 1.266 . S
O133 Tb95 2.393 . S
O133 C147 1.248 . S
O134 Tb95 2.465 . S
O134 C159 1.264 . S
O135 Tb95 2.387 . S
O135 C151 1.264 . S
O136 Tb84 2.349 . S
O136 C151 1.243 . S
O137 Tb95 2.428 . S
O137 C159 1.256 . S
O138 Tb95 2.308 . S
O138 C158 1.266 . S
O139 Tb84 2.393 . S
O139 C158 1.248 . S
C140 O129 1.264 . S
C140 O130 1.243 . S
C141 C144 1.399 . S
C141 C146 1.400 . S
C141 C148 1.496 . S
C142 C143 1.399 . S
C142 C146 1.362 1_455 S
C143 C142 1.399 . S
C143 C145 1.380 . S
C143 H160 0.929 . S
C144 C141 1.399 . S
C144 C145 1.392 1_655 S
C144 H161 0.929 . S
C145 C143 1.380 . S
C145 C144 1.392 1_455 S
C145 H162 0.929 . S
C146 C141 1.400 . S
C146 C142 1.362 1_655 S
C146 H163 0.943 . S
C147 O132 1.266 . S
C147 O133 1.248 . S
C148 Tb84 2.802 . S
C148 O128 1.264 . S
C148 O131 1.256 . S
C148 C141 1.496 . S
C149 C116 1.448 . S
C149 H126 0.930 . S
C149 C150 1.328 . S
C150 C121 1.427 . S
C150 H127 0.929 . S
C150 C149 1.328 . S
C151 O135 1.264 . S
C151 O136 1.243 . S
C152 C155 1.399 . S
C152 C156 1.383 . S
C152 C159 1.496 . S
C153 C154 1.399 . S
C153 C156 1.389 . S
C154 C153 1.399 . S
C154 C157 1.380 . S
C154 H164 0.929 . S
C155 C152 1.399 . S
C155 C157 1.392 . S
C155 H165 0.929 . S
C156 C152 1.383 . S
C156 C153 1.389 . S
C156 H166 0.931 . S
C157 C154 1.380 . S
C157 C155 1.392 . S
C157 H167 0.929 . S
C158 O138 1.266 . S
C158 O139 1.248 . S
C159 Tb95 2.802 . S
C159 O134 1.264 . S
C159 O137 1.256 . S
C159 C152 1.496 . S
H160 C143 0.929 . S
H161 C144 0.929 . S
H162 C145 0.929 . S
H163 C146 0.943 . S
H164 C154 0.929 . S
H165 C155 0.929 . S
H166 C156 0.931 . S
H167 C157 0.929 . S
Tb168 N197 2.617 . S
Tb168 N203 2.572 . S
Tb168 O212 2.465 . S
Tb168 O213 2.387 . S
Tb168 O215 2.428 . S
Tb168 O216 2.308 . S
Tb168 O220 2.349 . S
Tb168 O223 2.393 . S
Tb168 C232 2.802 . S
C169 N170 1.379 . S
C169 C172 1.416 . S
C169 C176 1.424 . S
N170 C169 1.379 . S
N170 C173 1.334 . S
N170 Tb179 2.617 . S
C171 C173 1.390 . S
C171 C174 1.339 . S
C171 H191 0.930 . S
C172 C169 1.416 . S
C172 C174 1.416 . S
C172 C178 1.448 . S
C173 N170 1.334 . S
C173 C171 1.390 . S
C173 H184 0.930 . S
C174 C171 1.339 . S
C174 C172 1.416 . S
C174 H195 0.930 . S
C175 C176 1.413 . S
C175 C177 1.427 . S
C175 C181 1.416 . S
C176 C169 1.424 . S
C176 C175 1.413 . S
C176 N180 1.361 . S
C177 C175 1.427 . S
C177 C178 1.328 . S
C177 H192 0.929 . S
C178 C172 1.448 . S
C178 C177 1.328 . S
C178 H193 0.930 . S
Tb179 N170 2.617 . S
Tb179 N180 2.572 . S
Tb179 O214 2.349 . S
Tb179 O217 2.393 . S
Tb179 O218 2.465 . S
Tb179 O219 2.387 . S
Tb179 O221 2.428 . S
Tb179 O222 2.308 . S
Tb179 C243 2.802 . S
N180 C176 1.361 . S
N180 Tb179 2.572 . S
N180 C182 1.340 . S
C181 C175 1.416 . S
C181 C183 1.332 . S
C181 H189 0.931 . S
C182 N180 1.340 . S
C182 C183 1.407 . S
C182 H188 0.930 . S
C183 C181 1.332 . S
C183 C182 1.407 . S
C183 H185 0.929 . S
H184 C173 0.930 . S
H185 C183 0.929 . S
H186 C201 0.930 . S
H187 C208 0.929 . S
H188 C182 0.930 . S
H189 C181 0.931 . S
H190 C204 0.930 . S
H191 C171 0.930 . S
H192 C177 0.929 . S
H193 C178 0.930 . S
H194 C199 0.930 . S
H195 C174 0.930 . S
H196 C207 0.931 . S
N197 Tb168 2.617 . S
N197 C198 1.379 . S
N197 C201 1.334 . S
C198 N197 1.379 . S
C198 C200 1.416 . S
C198 C206 1.424 . S
C199 H194 0.930 . S
C199 C201 1.390 . S
C199 C202 1.339 . S
C200 C198 1.416 . S
C200 C202 1.416 . S
C200 C233 1.448 . S
C201 H186 0.930 . S
C201 N197 1.334 . S
C201 C199 1.390 . S
C202 C199 1.339 . S
C202 C200 1.416 . S
C202 H209 0.930 . S
N203 Tb168 2.572 . S
N203 C204 1.340 . S
N203 C206 1.361 . S
C204 H190 0.930 . S
C204 N203 1.340 . S
C204 C208 1.407 . S
C205 C206 1.413 . S
C205 C207 1.416 . S
C205 C234 1.427 . S
C206 C198 1.424 . S
C206 N203 1.361 . S
C206 C205 1.413 . S
C207 H196 0.931 . S
C207 C205 1.416 . S
C207 C208 1.332 . S
C208 H187 0.929 . S
C208 C204 1.407 . S
C208 C207 1.332 . S
H209 C202 0.930 . S
H210 C233 0.930 . S
H211 C234 0.929 . S
O212 Tb168 2.465 . S
O212 C232 1.264 . S
O213 Tb168 2.387 . S
O213 C224 1.264 . S
O214 Tb179 2.349 . S
O214 C224 1.243 . S
O215 Tb168 2.428 . S
O215 C232 1.256 . S
O216 Tb168 2.308 . S
O216 C231 1.266 . S
O217 Tb179 2.393 . S
O217 C231 1.248 . S
O218 Tb179 2.465 . S
O218 C243 1.264 . S
O219 Tb179 2.387 . S
O219 C235 1.264 . S
O220 Tb168 2.349 . S
O220 C235 1.243 . S
O221 Tb179 2.428 . S
O221 C243 1.256 . S
O222 Tb179 2.308 . S
O222 C242 1.266 . S
O223 Tb168 2.393 . S
O223 C242 1.248 . S
C224 O213 1.264 . S
C224 O214 1.243 . S
C225 C228 1.399 . S
C225 C230 1.392 . S
C225 C232 1.496 . S
C226 C227 1.399 . S
C226 C230 1.378 1_545 S
C227 C226 1.399 . S
C227 C229 1.380 . S
C227 H244 0.929 . S
C228 C225 1.399 . S
C228 C229 1.392 1_565 S
C228 H245 0.929 . S
C229 C227 1.380 . S
C229 C228 1.392 1_545 S
C229 H246 0.929 . S
C230 C225 1.392 . S
C230 C226 1.378 1_565 S
C230 H247 0.935 . S
C231 O216 1.266 . S
C231 O217 1.248 . S
C232 Tb168 2.802 . S
C232 O212 1.264 . S
C232 O215 1.256 . S
C232 C225 1.496 . S
C233 C200 1.448 . S
C233 H210 0.930 . S
C233 C234 1.328 . S
C234 C205 1.427 . S
C234 H211 0.929 . S
C234 C233 1.328 . S
C235 O219 1.264 . S
C235 O220 1.243 . S
C236 C239 1.399 . S
C236 C240 1.383 . S
C236 C243 1.496 . S
C237 C238 1.399 . S
C237 C240 1.389 . S
C238 C237 1.399 . S
C238 C241 1.380 . S
C238 H248 0.929 . S
C239 C236 1.399 . S
C239 C241 1.392 . S
C239 H249 0.929 . S
C240 C236 1.383 . S
C240 C237 1.389 . S
C240 H250 0.931 . S
C241 C238 1.380 . S
C241 C239 1.392 . S
C241 H251 0.929 . S
C242 O222 1.266 . S
C242 O223 1.248 . S
C243 Tb179 2.802 . S
C243 O218 1.264 . S
C243 O221 1.256 . S
C243 C236 1.496 . S
H244 C227 0.929 . S
H245 C228 0.929 . S
H246 C229 0.929 . S
H247 C230 0.935 . S
H248 C238 0.929 . S
H249 C239 0.929 . S
H250 C240 0.931 . S
H251 C241 0.929 . S
Tb252 N281 2.617 . S
Tb252 N287 2.572 . S
Tb252 O296 2.465 . S
Tb252 O297 2.387 . S
Tb252 O299 2.428 . S
Tb252 O300 2.308 . S
Tb252 O304 2.349 . S
Tb252 O307 2.393 . S
Tb252 C316 2.802 . S
C253 N254 1.379 . S
C253 C256 1.416 . S
C253 C260 1.424 . S
N254 C253 1.379 . S
N254 C257 1.334 . S
N254 Tb263 2.617 . S
C255 C257 1.390 . S
C255 C258 1.339 . S
C255 H275 0.930 . S
C256 C253 1.416 . S
C256 C258 1.416 . S
C256 C262 1.448 . S
C257 N254 1.334 . S
C257 C255 1.390 . S
C257 H268 0.930 . S
C258 C255 1.339 . S
C258 C256 1.416 . S
C258 H279 0.930 . S
C259 C260 1.413 . S
C259 C261 1.427 . S
C259 C265 1.416 . S
C260 C253 1.424 . S
C260 C259 1.413 . S
C260 N264 1.361 . S
C261 C259 1.427 . S
C261 C262 1.328 . S
C261 H276 0.929 . S
C262 C256 1.448 . S
C262 C261 1.328 . S
C262 H277 0.930 . S
Tb263 N254 2.617 . S
Tb263 N264 2.572 . S
Tb263 O298 2.349 . S
Tb263 O301 2.393 . S
Tb263 O302 2.465 . S
Tb263 O303 2.387 . S
Tb263 O305 2.428 . S
Tb263 O306 2.308 . S
Tb263 C327 2.802 . S
N264 C260 1.361 . S
N264 Tb263 2.572 . S
N264 C266 1.340 . S
C265 C259 1.416 . S
C265 C267 1.332 . S
C265 H273 0.931 . S
C266 N264 1.340 . S
C266 C267 1.407 . S
C266 H272 0.930 . S
C267 C265 1.332 . S
C267 C266 1.407 . S
C267 H269 0.929 . S
H268 C257 0.930 . S
H269 C267 0.929 . S
H270 C285 0.930 . S
H271 C292 0.929 . S
H272 C266 0.930 . S
H273 C265 0.931 . S
H274 C288 0.930 . S
H275 C255 0.930 . S
H276 C261 0.929 . S
H277 C262 0.930 . S
H278 C283 0.930 . S
H279 C258 0.930 . S
H280 C291 0.931 . S
N281 Tb252 2.617 . S
N281 C282 1.379 . S
N281 C285 1.334 . S
C282 N281 1.379 . S
C282 C284 1.416 . S
C282 C290 1.424 . S
C283 H278 0.930 . S
C283 C285 1.390 . S
C283 C286 1.339 . S
C284 C282 1.416 . S
C284 C286 1.416 . S
C284 C317 1.448 . S
C285 H270 0.930 . S
C285 N281 1.334 . S
C285 C283 1.390 . S
C286 C283 1.339 . S
C286 C284 1.416 . S
C286 H293 0.930 . S
N287 Tb252 2.572 . S
N287 C288 1.340 . S
N287 C290 1.361 . S
C288 H274 0.930 . S
C288 N287 1.340 . S
C288 C292 1.407 . S
C289 C290 1.413 . S
C289 C291 1.416 . S
C289 C318 1.427 . S
C290 C282 1.424 . S
C290 N287 1.361 . S
C290 C289 1.413 . S
C291 H280 0.931 . S
C291 C289 1.416 . S
C291 C292 1.332 . S
C292 H271 0.929 . S
C292 C288 1.407 . S
C292 C291 1.332 . S
H293 C286 0.930 . S
H294 C317 0.930 . S
H295 C318 0.929 . S
O296 Tb252 2.465 . S
O296 C316 1.264 . S
O297 Tb252 2.387 . S
O297 C308 1.264 . S
O298 Tb263 2.349 . S
O298 C308 1.243 . S
O299 Tb252 2.428 . S
O299 C316 1.256 . S
O300 Tb252 2.308 . S
O300 C315 1.266 . S
O301 Tb263 2.393 . S
O301 C315 1.248 . S
O302 Tb263 2.465 . S
O302 C327 1.264 . S
O303 Tb263 2.387 . S
O303 C319 1.264 . S
O304 Tb252 2.349 . S
O304 C319 1.243 . S
O305 Tb263 2.428 . S
O305 C327 1.256 . S
O306 Tb263 2.308 . S
O306 C326 1.266 . S
O307 Tb252 2.393 . S
O307 C326 1.248 . S
C308 O297 1.264 . S
C308 O298 1.243 . S
C309 C312 1.399 . S
C309 C314 1.383 . S
C309 C316 1.496 . S
C310 C311 1.399 . S
C310 C314 1.389 . S
C311 C310 1.399 . S
C311 C313 1.380 . S
C311 H328 0.929 . S
C312 C309 1.399 . S
C312 C313 1.392 . S
C312 H329 0.929 . S
C313 C311 1.380 . S
C313 C312 1.392 . S
C313 H330 0.929 . S
C314 C309 1.383 . S
C314 C310 1.389 . S
C314 H331 0.931 . S
C315 O300 1.266 . S
C315 O301 1.248 . S
C316 Tb252 2.802 . S
C316 O296 1.264 . S
C316 O299 1.256 . S
C316 C309 1.496 . S
C317 C284 1.448 . S
C317 H294 0.930 . S
C317 C318 1.328 . S
C318 C289 1.427 . S
C318 H295 0.929 . S
C318 C317 1.328 . S
C319 O303 1.264 . S
C319 O304 1.243 . S
C320 C323 1.399 . S
C320 C324 1.383 . S
C320 C327 1.496 . S
C321 C322 1.399 . S
C321 C324 1.389 . S
C322 C321 1.399 . S
C322 C325 1.380 . S
C322 H332 0.929 . S
C323 C320 1.399 . S
C323 C325 1.392 . S
C323 H333 0.929 . S
C324 C320 1.383 . S
C324 C321 1.389 . S
C324 H334 0.931 . S
C325 C322 1.380 . S
C325 C323 1.392 . S
C325 H335 0.929 . S
C326 O306 1.266 . S
C326 O307 1.248 . S
C327 Tb263 2.802 . S
C327 O302 1.264 . S
C327 O305 1.256 . S
C327 C320 1.496 . S
H328 C311 0.929 . S
H329 C312 0.929 . S
H330 C313 0.929 . S
H331 C314 0.931 . S
H332 C322 0.929 . S
H333 C323 0.929 . S
H334 C324 0.931 . S
H335 C325 0.929 . S
Tb336 N365 2.617 . S
Tb336 N371 2.572 . S
Tb336 O380 2.465 . S
Tb336 O381 2.387 . S
Tb336 O383 2.428 . S
Tb336 O384 2.308 . S
Tb336 O388 2.349 . S
Tb336 O391 2.393 . S
Tb336 C400 2.802 . S
C337 N338 1.379 . S
C337 C340 1.416 . S
C337 C344 1.424 . S
N338 C337 1.379 . S
N338 C341 1.334 . S
N338 Tb347 2.617 . S
C339 C341 1.390 . S
C339 C342 1.339 . S
C339 H359 0.930 . S
C340 C337 1.416 . S
C340 C342 1.416 . S
C340 C346 1.448 . S
C341 N338 1.334 . S
C341 C339 1.390 . S
C341 H352 0.930 . S
C342 C339 1.339 . S
C342 C340 1.416 . S
C342 H363 0.930 . S
C343 C344 1.413 . S
C343 C345 1.427 . S
C343 C349 1.416 . S
C344 C337 1.424 . S
C344 C343 1.413 . S
C344 N348 1.361 . S
C345 C343 1.427 . S
C345 C346 1.328 . S
C345 H360 0.929 . S
C346 C340 1.448 . S
C346 C345 1.328 . S
C346 H361 0.930 . S
Tb347 N338 2.617 . S
Tb347 N348 2.572 . S
Tb347 O382 2.349 . S
Tb347 O385 2.393 . S
Tb347 O386 2.465 . S
Tb347 O387 2.387 . S
Tb347 O389 2.428 . S
Tb347 O390 2.308 . S
Tb347 C411 2.802 . S
N348 C344 1.361 . S
N348 Tb347 2.572 . S
N348 C350 1.340 . S
C349 C343 1.416 . S
C349 C351 1.332 . S
C349 H357 0.931 . S
C350 N348 1.340 . S
C350 C351 1.407 . S
C350 H356 0.930 . S
C351 C349 1.332 . S
C351 C350 1.407 . S
C351 H353 0.929 . S
H352 C341 0.930 . S
H353 C351 0.929 . S
H354 C369 0.930 . S
H355 C376 0.929 . S
H356 C350 0.930 . S
H357 C349 0.931 . S
H358 C372 0.930 . S
H359 C339 0.930 . S
H360 C345 0.929 . S
H361 C346 0.930 . S
H362 C367 0.930 . S
H363 C342 0.930 . S
H364 C375 0.931 . S
N365 Tb336 2.617 . S
N365 C366 1.379 . S
N365 C369 1.334 . S
C366 N365 1.379 . S
C366 C368 1.416 . S
C366 C374 1.424 . S
C367 H362 0.930 . S
C367 C369 1.390 . S
C367 C370 1.339 . S
C368 C366 1.416 . S
C368 C370 1.416 . S
C368 C401 1.448 . S
C369 H354 0.930 . S
C369 N365 1.334 . S
C369 C367 1.390 . S
C370 C367 1.339 . S
C370 C368 1.416 . S
C370 H377 0.930 . S
N371 Tb336 2.572 . S
N371 C372 1.340 . S
N371 C374 1.361 . S
C372 H358 0.930 . S
C372 N371 1.340 . S
C372 C376 1.407 . S
C373 C374 1.413 . S
C373 C375 1.416 . S
C373 C402 1.427 . S
C374 C366 1.424 . S
C374 N371 1.361 . S
C374 C373 1.413 . S
C375 H364 0.931 . S
C375 C373 1.416 . S
C375 C376 1.332 . S
C376 H355 0.929 . S
C376 C372 1.407 . S
C376 C375 1.332 . S
H377 C370 0.930 . S
H378 C401 0.930 . S
H379 C402 0.929 . S
O380 Tb336 2.465 . S
O380 C400 1.264 . S
O381 Tb336 2.387 . S
O381 C392 1.264 . S
O382 Tb347 2.349 . S
O382 C392 1.243 . S
O383 Tb336 2.428 . S
O383 C400 1.256 . S
O384 Tb336 2.308 . S
O384 C399 1.266 . S
O385 Tb347 2.393 . S
O385 C399 1.248 . S
O386 Tb347 2.465 . S
O386 C411 1.264 . S
O387 Tb347 2.387 . S
O387 C403 1.264 . S
O388 Tb336 2.349 . S
O388 C403 1.243 . S
O389 Tb347 2.428 . S
O389 C411 1.256 . S
O390 Tb347 2.308 . S
O390 C410 1.266 . S
O391 Tb336 2.393 . S
O391 C410 1.248 . S
C392 O381 1.264 . S
C392 O382 1.243 . S
C393 C396 1.399 . S
C393 C398 1.400 . S
C393 C400 1.496 . S
C394 C395 1.399 . S
C394 C398 1.362 1_655 S
C395 C394 1.399 . S
C395 C397 1.380 . S
C395 H412 0.929 . S
C396 C393 1.399 . S
C396 C397 1.392 1_455 S
C396 H413 0.929 . S
C397 C395 1.380 . S
C397 C396 1.392 1_655 S
C397 H414 0.929 . S
C398 C393 1.400 . S
C398 C394 1.362 1_455 S
C398 H415 0.943 . S
C399 O384 1.266 . S
C399 O385 1.248 . S
C400 Tb336 2.802 . S
C400 O380 1.264 . S
C400 O383 1.256 . S
C400 C393 1.496 . S
C401 C368 1.448 . S
C401 H378 0.930 . S
C401 C402 1.328 . S
C402 C373 1.427 . S
C402 H379 0.929 . S
C402 C401 1.328 . S
C403 O387 1.264 . S
C403 O388 1.243 . S
C404 C407 1.399 . S
C404 C408 1.383 . S
C404 C411 1.496 . S
C405 C406 1.399 . S
C405 C408 1.389 . S
C406 C405 1.399 . S
C406 C409 1.380 . S
C406 H416 0.929 . S
C407 C404 1.399 . S
C407 C409 1.392 . S
C407 H417 0.929 . S
C408 C404 1.383 . S
C408 C405 1.389 . S
C408 H418 0.931 . S
C409 C406 1.380 . S
C409 C407 1.392 . S
C409 H419 0.929 . S
C410 O390 1.266 . S
C410 O391 1.248 . S
C411 Tb347 2.802 . S
C411 O386 1.264 . S
C411 O389 1.256 . S
C411 C404 1.496 . S
H412 C395 0.929 . S
H413 C396 0.929 . S
H414 C397 0.929 . S
H415 C398 0.943 . S
H416 C406 0.929 . S
H417 C407 0.929 . S
H418 C408 0.931 . S
H419 C409 0.929 . S
Tb420 N449 2.617 . S
Tb420 N455 2.572 . S
Tb420 O464 2.465 . S
Tb420 O465 2.387 . S
Tb420 O467 2.428 . S
Tb420 O468 2.308 . S
Tb420 O472 2.349 . S
Tb420 O475 2.393 . S
Tb420 C484 2.802 . S
C421 N422 1.379 . S
C421 C424 1.416 . S
C421 C428 1.424 . S
N422 C421 1.379 . S
N422 C425 1.334 . S
N422 Tb431 2.617 . S
C423 C425 1.390 . S
C423 C426 1.339 . S
C423 H443 0.930 . S
C424 C421 1.416 . S
C424 C426 1.416 . S
C424 C430 1.448 . S
C425 N422 1.334 . S
C425 C423 1.390 . S
C425 H436 0.930 . S
C426 C423 1.339 . S
C426 C424 1.416 . S
C426 H447 0.930 . S
C427 C428 1.413 . S
C427 C429 1.427 . S
C427 C433 1.416 . S
C428 C421 1.424 . S
C428 C427 1.413 . S
C428 N432 1.361 . S
C429 C427 1.427 . S
C429 C430 1.328 . S
C429 H444 0.929 . S
C430 C424 1.448 . S
C430 C429 1.328 . S
C430 H445 0.930 . S
Tb431 N422 2.617 . S
Tb431 N432 2.572 . S
Tb431 O466 2.349 . S
Tb431 O469 2.393 . S
Tb431 O470 2.465 . S
Tb431 O471 2.387 . S
Tb431 O473 2.428 . S
Tb431 O474 2.308 . S
Tb431 C495 2.802 . S
N432 C428 1.361 . S
N432 Tb431 2.572 . S
N432 C434 1.340 . S
C433 C427 1.416 . S
C433 C435 1.332 . S
C433 H441 0.931 . S
C434 N432 1.340 . S
C434 C435 1.407 . S
C434 H440 0.930 . S
C435 C433 1.332 . S
C435 C434 1.407 . S
C435 H437 0.929 . S
H436 C425 0.930 . S
H437 C435 0.929 . S
H438 C453 0.930 . S
H439 C460 0.929 . S
H440 C434 0.930 . S
H441 C433 0.931 . S
H442 C456 0.930 . S
H443 C423 0.930 . S
H444 C429 0.929 . S
H445 C430 0.930 . S
H446 C451 0.930 . S
H447 C426 0.930 . S
H448 C459 0.931 . S
N449 Tb420 2.617 . S
N449 C450 1.379 . S
N449 C453 1.334 . S
C450 N449 1.379 . S
C450 C452 1.416 . S
C450 C458 1.424 . S
C451 H446 0.930 . S
C451 C453 1.390 . S
C451 C454 1.339 . S
C452 C450 1.416 . S
C452 C454 1.416 . S
C452 C485 1.448 . S
C453 H438 0.930 . S
C453 N449 1.334 . S
C453 C451 1.390 . S
C454 C451 1.339 . S
C454 C452 1.416 . S
C454 H461 0.930 . S
N455 Tb420 2.572 . S
N455 C456 1.340 . S
N455 C458 1.361 . S
C456 H442 0.930 . S
C456 N455 1.340 . S
C456 C460 1.407 . S
C457 C458 1.413 . S
C457 C459 1.416 . S
C457 C486 1.427 . S
C458 C450 1.424 . S
C458 N455 1.361 . S
C458 C457 1.413 . S
C459 H448 0.931 . S
C459 C457 1.416 . S
C459 C460 1.332 . S
C460 H439 0.929 . S
C460 C456 1.407 . S
C460 C459 1.332 . S
H461 C454 0.930 . S
H462 C485 0.930 . S
H463 C486 0.929 . S
O464 Tb420 2.465 . S
O464 C484 1.264 . S
O465 Tb420 2.387 . S
O465 C476 1.264 . S
O466 Tb431 2.349 . S
O466 C476 1.243 . S
O467 Tb420 2.428 . S
O467 C484 1.256 . S
O468 Tb420 2.308 . S
O468 C483 1.266 . S
O469 Tb431 2.393 . S
O469 C483 1.248 . S
O470 Tb431 2.465 . S
O470 C495 1.264 . S
O471 Tb431 2.387 . S
O471 C487 1.264 . S
O472 Tb420 2.349 . S
O472 C487 1.243 . S
O473 Tb431 2.428 . S
O473 C495 1.256 . S
O474 Tb431 2.308 . S
O474 C494 1.266 . S
O475 Tb420 2.393 . S
O475 C494 1.248 . S
C476 O465 1.264 . S
C476 O466 1.243 . S
C477 C480 1.399 . S
C477 C482 1.392 . S
C477 C484 1.496 . S
C478 C479 1.399 . S
C478 C482 1.378 1_565 S
C479 C478 1.399 . S
C479 C481 1.380 . S
C479 H496 0.929 . S
C480 C477 1.399 . S
C480 C481 1.392 1_545 S
C480 H497 0.929 . S
C481 C479 1.380 . S
C481 C480 1.392 1_565 S
C481 H498 0.929 . S
C482 C477 1.392 . S
C482 C478 1.378 1_545 S
C482 H499 0.935 . S
C483 O468 1.266 . S
C483 O469 1.248 . S
C484 Tb420 2.802 . S
C484 O464 1.264 . S
C484 O467 1.256 . S
C484 C477 1.496 . S
C485 C452 1.448 . S
C485 H462 0.930 . S
C485 C486 1.328 . S
C486 C457 1.427 . S
C486 H463 0.929 . S
C486 C485 1.328 . S
C487 O471 1.264 . S
C487 O472 1.243 . S
C488 C491 1.399 . S
C488 C492 1.383 . S
C488 C495 1.496 . S
C489 C490 1.399 . S
C489 C492 1.389 . S
C490 C489 1.399 . S
C490 C493 1.380 . S
C490 H500 0.929 . S
C491 C488 1.399 . S
C491 C493 1.392 . S
C491 H501 0.929 . S
C492 C488 1.383 . S
C492 C489 1.389 . S
C492 H502 0.931 . S
C493 C490 1.380 . S
C493 C491 1.392 . S
C493 H503 0.929 . S
C494 O474 1.266 . S
C494 O475 1.248 . S
C495 Tb431 2.802 . S
C495 O470 1.264 . S
C495 O473 1.256 . S
C495 C488 1.496 . S
H496 C479 0.929 . S
H497 C480 0.929 . S
H498 C481 0.929 . S
H499 C482 0.935 . S
H500 C490 0.929 . S
H501 C491 0.929 . S
H502 C492 0.931 . S
H503 C493 0.929 . S
Tb504 N533 2.617 . S
Tb504 N539 2.572 . S
Tb504 O548 2.465 . S
Tb504 O549 2.387 . S
Tb504 O551 2.428 . S
Tb504 O552 2.308 . S
Tb504 O556 2.349 . S
Tb504 O559 2.393 . S
Tb504 C568 2.802 . S
C505 N506 1.379 . S
C505 C508 1.416 . S
C505 C512 1.424 . S
N506 C505 1.379 . S
N506 C509 1.334 . S
N506 Tb515 2.617 . S
C507 C509 1.390 . S
C507 C510 1.339 . S
C507 H527 0.930 . S
C508 C505 1.416 . S
C508 C510 1.416 . S
C508 C514 1.448 . S
C509 N506 1.334 . S
C509 C507 1.390 . S
C509 H520 0.930 . S
C510 C507 1.339 . S
C510 C508 1.416 . S
C510 H531 0.930 . S
C511 C512 1.413 . S
C511 C513 1.427 . S
C511 C517 1.416 . S
C512 C505 1.424 . S
C512 C511 1.413 . S
C512 N516 1.361 . S
C513 C511 1.427 . S
C513 C514 1.328 . S
C513 H528 0.929 . S
C514 C508 1.448 . S
C514 C513 1.328 . S
C514 H529 0.930 . S
Tb515 N506 2.617 . S
Tb515 N516 2.572 . S
Tb515 O550 2.349 . S
Tb515 O553 2.393 . S
Tb515 O554 2.465 . S
Tb515 O555 2.387 . S
Tb515 O557 2.428 . S
Tb515 O558 2.308 . S
Tb515 C579 2.802 . S
N516 C512 1.361 . S
N516 Tb515 2.572 . S
N516 C518 1.340 . S
C517 C511 1.416 . S
C517 C519 1.332 . S
C517 H525 0.931 . S
C518 N516 1.340 . S
C518 C519 1.407 . S
C518 H524 0.930 . S
C519 C517 1.332 . S
C519 C518 1.407 . S
C519 H521 0.929 . S
H520 C509 0.930 . S
H521 C519 0.929 . S
H522 C537 0.930 . S
H523 C544 0.929 . S
H524 C518 0.930 . S
H525 C517 0.931 . S
H526 C540 0.930 . S
H527 C507 0.930 . S
H528 C513 0.929 . S
H529 C514 0.930 . S
H530 C535 0.930 . S
H531 C510 0.930 . S
H532 C543 0.931 . S
N533 Tb504 2.617 . S
N533 C534 1.379 . S
N533 C537 1.334 . S
C534 N533 1.379 . S
C534 C536 1.416 . S
C534 C542 1.424 . S
C535 H530 0.930 . S
C535 C537 1.390 . S
C535 C538 1.339 . S
C536 C534 1.416 . S
C536 C538 1.416 . S
C536 C569 1.448 . S
C537 H522 0.930 . S
C537 N533 1.334 . S
C537 C535 1.390 . S
C538 C535 1.339 . S
C538 C536 1.416 . S
C538 H545 0.930 . S
N539 Tb504 2.572 . S
N539 C540 1.340 . S
N539 C542 1.361 . S
C540 H526 0.930 . S
C540 N539 1.340 . S
C540 C544 1.407 . S
C541 C542 1.413 . S
C541 C543 1.416 . S
C541 C570 1.427 . S
C542 C534 1.424 . S
C542 N539 1.361 . S
C542 C541 1.413 . S
C543 H532 0.931 . S
C543 C541 1.416 . S
C543 C544 1.332 . S
C544 H523 0.929 . S
C544 C540 1.407 . S
C544 C543 1.332 . S
H545 C538 0.930 . S
H546 C569 0.930 . S
H547 C570 0.929 . S
O548 Tb504 2.465 . S
O548 C568 1.264 . S
O549 Tb504 2.387 . S
O549 C560 1.264 . S
O550 Tb515 2.349 . S
O550 C560 1.243 . S
O551 Tb504 2.428 . S
O551 C568 1.256 . S
O552 Tb504 2.308 . S
O552 C567 1.266 . S
O553 Tb515 2.393 . S
O553 C567 1.248 . S
O554 Tb515 2.465 . S
O554 C579 1.264 . S
O555 Tb515 2.387 . S
O555 C571 1.264 . S
O556 Tb504 2.349 . S
O556 C571 1.243 . S
O557 Tb515 2.428 . S
O557 C579 1.256 . S
O558 Tb515 2.308 . S
O558 C578 1.266 . S
O559 Tb504 2.393 . S
O559 C578 1.248 . S
C560 O549 1.264 . S
C560 O550 1.243 . S
C561 C564 1.399 . S
C561 C566 1.383 . S
C561 C568 1.496 . S
C562 C563 1.399 . S
C562 C566 1.389 . S
C563 C562 1.399 . S
C563 C565 1.380 . S
C563 H580 0.929 . S
C564 C561 1.399 . S
C564 C565 1.392 . S
C564 H581 0.929 . S
C565 C563 1.380 . S
C565 C564 1.392 . S
C565 H582 0.929 . S
C566 C561 1.383 . S
C566 C562 1.389 . S
C566 H583 0.931 . S
C567 O552 1.266 . S
C567 O553 1.248 . S
C568 Tb504 2.802 . S
C568 O548 1.264 . S
C568 O551 1.256 . S
C568 C561 1.496 . S
C569 C536 1.448 . S
C569 H546 0.930 . S
C569 C570 1.328 . S
C570 C541 1.427 . S
C570 H547 0.929 . S
C570 C569 1.328 . S
C571 O555 1.264 . S
C571 O556 1.243 . S
C572 C575 1.399 . S
C572 C576 1.383 . S
C572 C579 1.496 . S
C573 C574 1.399 . S
C573 C576 1.389 . S
C574 C573 1.399 . S
C574 C577 1.380 . S
C574 H584 0.929 . S
C575 C572 1.399 . S
C575 C577 1.392 . S
C575 H585 0.929 . S
C576 C572 1.383 . S
C576 C573 1.389 . S
C576 H586 0.931 . S
C577 C574 1.380 . S
C577 C575 1.392 . S
C577 H587 0.929 . S
C578 O558 1.266 . S
C578 O559 1.248 . S
C579 Tb515 2.802 . S
C579 O554 1.264 . S
C579 O557 1.256 . S
C579 C572 1.496 . S
H580 C563 0.929 . S
H581 C564 0.929 . S
H582 C565 0.929 . S
H583 C566 0.931 . S
H584 C574 0.929 . S
H585 C575 0.929 . S
H586 C576 0.931 . S
H587 C577 0.929 . S
Tb588 N617 2.617 . S
Tb588 N623 2.572 . S
Tb588 O632 2.465 . S
Tb588 O633 2.387 . S
Tb588 O635 2.428 . S
Tb588 O636 2.308 . S
Tb588 O640 2.349 . S
Tb588 O643 2.393 . S
Tb588 C652 2.802 . S
C589 N590 1.379 . S
C589 C592 1.416 . S
C589 C596 1.424 . S
N590 C589 1.379 . S
N590 C593 1.334 . S
N590 Tb599 2.617 . S
C591 C593 1.390 . S
C591 C594 1.339 . S
C591 H611 0.930 . S
C592 C589 1.416 . S
C592 C594 1.416 . S
C592 C598 1.448 . S
C593 N590 1.334 . S
C593 C591 1.390 . S
C593 H604 0.930 . S
C594 C591 1.339 . S
C594 C592 1.416 . S
C594 H615 0.930 . S
C595 C596 1.413 . S
C595 C597 1.427 . S
C595 C601 1.416 . S
C596 C589 1.424 . S
C596 C595 1.413 . S
C596 N600 1.361 . S
C597 C595 1.427 . S
C597 C598 1.328 . S
C597 H612 0.929 . S
C598 C592 1.448 . S
C598 C597 1.328 . S
C598 H613 0.930 . S
Tb599 N590 2.617 . S
Tb599 N600 2.572 . S
Tb599 O634 2.349 . S
Tb599 O637 2.393 . S
Tb599 O638 2.465 . S
Tb599 O639 2.387 . S
Tb599 O641 2.428 . S
Tb599 O642 2.308 . S
Tb599 C663 2.802 . S
N600 C596 1.361 . S
N600 Tb599 2.572 . S
N600 C602 1.340 . S
C601 C595 1.416 . S
C601 C603 1.332 . S
C601 H609 0.931 . S
C602 N600 1.340 . S
C602 C603 1.407 . S
C602 H608 0.930 . S
C603 C601 1.332 . S
C603 C602 1.407 . S
C603 H605 0.929 . S
H604 C593 0.930 . S
H605 C603 0.929 . S
H606 C621 0.930 . S
H607 C628 0.929 . S
H608 C602 0.930 . S
H609 C601 0.931 . S
H610 C624 0.930 . S
H611 C591 0.930 . S
H612 C597 0.929 . S
H613 C598 0.930 . S
H614 C619 0.930 . S
H615 C594 0.930 . S
H616 C627 0.931 . S
N617 Tb588 2.617 . S
N617 C618 1.379 . S
N617 C621 1.334 . S
C618 N617 1.379 . S
C618 C620 1.416 . S
C618 C626 1.424 . S
C619 H614 0.930 . S
C619 C621 1.390 . S
C619 C622 1.339 . S
C620 C618 1.416 . S
C620 C622 1.416 . S
C620 C653 1.448 . S
C621 H606 0.930 . S
C621 N617 1.334 . S
C621 C619 1.390 . S
C622 C619 1.339 . S
C622 C620 1.416 . S
C622 H629 0.930 . S
N623 Tb588 2.572 . S
N623 C624 1.340 . S
N623 C626 1.361 . S
C624 H610 0.930 . S
C624 N623 1.340 . S
C624 C628 1.407 . S
C625 C626 1.413 . S
C625 C627 1.416 . S
C625 C654 1.427 . S
C626 C618 1.424 . S
C626 N623 1.361 . S
C626 C625 1.413 . S
C627 H616 0.931 . S
C627 C625 1.416 . S
C627 C628 1.332 . S
C628 H607 0.929 . S
C628 C624 1.407 . S
C628 C627 1.332 . S
H629 C622 0.930 . S
H630 C653 0.930 . S
H631 C654 0.929 . S
O632 Tb588 2.465 . S
O632 C652 1.264 . S
O633 Tb588 2.387 . S
O633 C644 1.264 . S
O634 Tb599 2.349 . S
O634 C644 1.243 . S
O635 Tb588 2.428 . S
O635 C652 1.256 . S
O636 Tb588 2.308 . S
O636 C651 1.266 . S
O637 Tb599 2.393 . S
O637 C651 1.248 . S
O638 Tb599 2.465 . S
O638 C663 1.264 . S
O639 Tb599 2.387 . S
O639 C655 1.264 . S
O640 Tb588 2.349 . S
O640 C655 1.243 . S
O641 Tb599 2.428 . S
O641 C663 1.256 . S
O642 Tb599 2.308 . S
O642 C662 1.266 . S
O643 Tb588 2.393 . S
O643 C662 1.248 . S
C644 O633 1.264 . S
C644 O634 1.243 . S
C645 C648 1.399 . S
C645 C650 1.392 . S
C645 C652 1.496 . S
C646 C647 1.399 . S
C646 C650 1.378 1_455 S
C647 C646 1.399 . S
C647 C649 1.380 . S
C647 H664 0.929 . S
C648 C645 1.399 . S
C648 C649 1.392 1_655 S
C648 H665 0.929 . S
C649 C647 1.380 . S
C649 C648 1.392 1_455 S
C649 H666 0.929 . S
C650 C645 1.392 . S
C650 C646 1.378 1_655 S
C650 H667 0.935 . S
C651 O636 1.266 . S
C651 O637 1.248 . S
C652 Tb588 2.802 . S
C652 O632 1.264 . S
C652 O635 1.256 . S
C652 C645 1.496 . S
C653 C620 1.448 . S
C653 H630 0.930 . S
C653 C654 1.328 . S
C654 C625 1.427 . S
C654 H631 0.929 . S
C654 C653 1.328 . S
C655 O639 1.264 . S
C655 O640 1.243 . S
C656 C659 1.399 . S
C656 C660 1.383 . S
C656 C663 1.496 . S
C657 C658 1.399 . S
C657 C660 1.389 . S
C658 C657 1.399 . S
C658 C661 1.380 . S
C658 H668 0.929 . S
C659 C656 1.399 . S
C659 C661 1.392 . S
C659 H669 0.929 . S
C660 C656 1.383 . S
C660 C657 1.389 . S
C660 H670 0.931 . S
C661 C658 1.380 . S
C661 C659 1.392 . S
C661 H671 0.929 . S
C662 O642 1.266 . S
C662 O643 1.248 . S
C663 Tb599 2.802 . S
C663 O638 1.264 . S
C663 O641 1.256 . S
C663 C656 1.496 . S
H664 C647 0.929 . S
H665 C648 0.929 . S
H666 C649 0.929 . S
H667 C650 0.935 . S
H668 C658 0.929 . S
H669 C659 0.929 . S
H670 C660 0.931 . S
H671 C661 0.929 . S
Tb672 N701 2.617 . S
Tb672 N707 2.572 . S
Tb672 O716 2.465 . S
Tb672 O717 2.387 . S
Tb672 O719 2.428 . S
Tb672 O720 2.308 . S
Tb672 O724 2.349 . S
Tb672 O727 2.393 . S
Tb672 C736 2.802 . S
C673 N674 1.379 . S
C673 C676 1.416 . S
C673 C680 1.424 . S
N674 C673 1.379 . S
N674 C677 1.334 . S
N674 Tb683 2.617 . S
C675 C677 1.390 . S
C675 C678 1.339 . S
C675 H695 0.930 . S
C676 C673 1.416 . S
C676 C678 1.416 . S
C676 C682 1.448 . S
C677 N674 1.334 . S
C677 C675 1.390 . S
C677 H688 0.930 . S
C678 C675 1.339 . S
C678 C676 1.416 . S
C678 H699 0.930 . S
C679 C680 1.413 . S
C679 C681 1.427 . S
C679 C685 1.416 . S
C680 C673 1.424 . S
C680 C679 1.413 . S
C680 N684 1.361 . S
C681 C679 1.427 . S
C681 C682 1.328 . S
C681 H696 0.929 . S
C682 C676 1.448 . S
C682 C681 1.328 . S
C682 H697 0.930 . S
Tb683 N674 2.617 . S
Tb683 N684 2.572 . S
Tb683 O718 2.349 . S
Tb683 O721 2.393 . S
Tb683 O722 2.465 . S
Tb683 O723 2.387 . S
Tb683 O725 2.428 . S
Tb683 O726 2.308 . S
Tb683 C747 2.802 . S
N684 C680 1.361 . S
N684 Tb683 2.572 . S
N684 C686 1.340 . S
C685 C679 1.416 . S
C685 C687 1.332 . S
C685 H693 0.931 . S
C686 N684 1.340 . S
C686 C687 1.407 . S
C686 H692 0.930 . S
C687 C685 1.332 . S
C687 C686 1.407 . S
C687 H689 0.929 . S
H688 C677 0.930 . S
H689 C687 0.929 . S
H690 C705 0.930 . S
H691 C712 0.929 . S
H692 C686 0.930 . S
H693 C685 0.931 . S
H694 C708 0.930 . S
H695 C675 0.930 . S
H696 C681 0.929 . S
H697 C682 0.930 . S
H698 C703 0.930 . S
H699 C678 0.930 . S
H700 C711 0.931 . S
N701 Tb672 2.617 . S
N701 C702 1.379 . S
N701 C705 1.334 . S
C702 N701 1.379 . S
C702 C704 1.416 . S
C702 C710 1.424 . S
C703 H698 0.930 . S
C703 C705 1.390 . S
C703 C706 1.339 . S
C704 C702 1.416 . S
C704 C706 1.416 . S
C704 C737 1.448 . S
C705 H690 0.930 . S
C705 N701 1.334 . S
C705 C703 1.390 . S
C706 C703 1.339 . S
C706 C704 1.416 . S
C706 H713 0.930 . S
N707 Tb672 2.572 . S
N707 C708 1.340 . S
N707 C710 1.361 . S
C708 H694 0.930 . S
C708 N707 1.340 . S
C708 C712 1.407 . S
C709 C710 1.413 . S
C709 C711 1.416 . S
C709 C738 1.427 . S
C710 C702 1.424 . S
C710 N707 1.361 . S
C710 C709 1.413 . S
C711 H700 0.931 . S
C711 C709 1.416 . S
C711 C712 1.332 . S
C712 H691 0.929 . S
C712 C708 1.407 . S
C712 C711 1.332 . S
H713 C706 0.930 . S
H714 C737 0.930 . S
H715 C738 0.929 . S
O716 Tb672 2.465 . S
O716 C736 1.264 . S
O717 Tb672 2.387 . S
O717 C728 1.264 . S
O718 Tb683 2.349 . S
O718 C728 1.243 . S
O719 Tb672 2.428 . S
O719 C736 1.256 . S
O720 Tb672 2.308 . S
O720 C735 1.266 . S
O721 Tb683 2.393 . S
O721 C735 1.248 . S
O722 Tb683 2.465 . S
O722 C747 1.264 . S
O723 Tb683 2.387 . S
O723 C739 1.264 . S
O724 Tb672 2.349 . S
O724 C739 1.243 . S
O725 Tb683 2.428 . S
O725 C747 1.256 . S
O726 Tb683 2.308 . S
O726 C746 1.266 . S
O727 Tb672 2.393 . S
O727 C746 1.248 . S
C728 O717 1.264 . S
C728 O718 1.243 . S
C729 C732 1.399 . S
C729 C734 1.400 . S
C729 C736 1.496 . S
C730 C731 1.399 . S
C730 C734 1.362 1_545 S
C731 C730 1.399 . S
C731 C733 1.380 . S
C731 H748 0.929 . S
C732 C729 1.399 . S
C732 C733 1.392 1_565 S
C732 H749 0.929 . S
C733 C731 1.380 . S
C733 C732 1.392 1_545 S
C733 H750 0.929 . S
C734 C729 1.400 . S
C734 C730 1.362 1_565 S
C734 H751 0.943 . S
C735 O720 1.266 . S
C735 O721 1.248 . S
C736 Tb672 2.802 . S
C736 O716 1.264 . S
C736 O719 1.256 . S
C736 C729 1.496 . S
C737 C704 1.448 . S
C737 H714 0.930 . S
C737 C738 1.328 . S
C738 C709 1.427 . S
C738 H715 0.929 . S
C738 C737 1.328 . S
C739 O723 1.264 . S
C739 O724 1.243 . S
C740 C743 1.399 . S
C740 C744 1.383 . S
C740 C747 1.496 . S
C741 C742 1.399 . S
C741 C744 1.389 . S
C742 C741 1.399 . S
C742 C745 1.380 . S
C742 H752 0.929 . S
C743 C740 1.399 . S
C743 C745 1.392 . S
C743 H753 0.929 . S
C744 C740 1.383 . S
C744 C741 1.389 . S
C744 H754 0.931 . S
C745 C742 1.380 . S
C745 C743 1.392 . S
C745 H755 0.929 . S
C746 O726 1.266 . S
C746 O727 1.248 . S
C747 Tb683 2.802 . S
C747 O722 1.264 . S
C747 O725 1.256 . S
C747 C740 1.496 . S
H748 C731 0.929 . S
H749 C732 0.929 . S
H750 C733 0.929 . S
H751 C734 0.943 . S
H752 C742 0.929 . S
H753 C743 0.929 . S
H754 C744 0.931 . S
H755 C745 0.929 . S
Tb756 N785 2.617 . S
Tb756 N791 2.572 . S
Tb756 O800 2.465 . S
Tb756 O801 2.387 . S
Tb756 O803 2.428 . S
Tb756 O804 2.308 . S
Tb756 O808 2.349 . S
Tb756 O811 2.393 . S
Tb756 C820 2.802 . S
C757 N758 1.379 . S
C757 C760 1.416 . S
C757 C764 1.424 . S
N758 C757 1.379 . S
N758 C761 1.334 . S
N758 Tb767 2.617 . S
C759 C761 1.390 . S
C759 C762 1.339 . S
C759 H779 0.930 . S
C760 C757 1.416 . S
C760 C762 1.416 . S
C760 C766 1.448 . S
C761 N758 1.334 . S
C761 C759 1.390 . S
C761 H772 0.930 . S
C762 C759 1.339 . S
C762 C760 1.416 . S
C762 H783 0.930 . S
C763 C764 1.413 . S
C763 C765 1.427 . S
C763 C769 1.416 . S
C764 C757 1.424 . S
C764 C763 1.413 . S
C764 N768 1.361 . S
C765 C763 1.427 . S
C765 C766 1.328 . S
C765 H780 0.929 . S
C766 C760 1.448 . S
C766 C765 1.328 . S
C766 H781 0.930 . S
Tb767 N758 2.617 . S
Tb767 N768 2.572 . S
Tb767 O802 2.349 . S
Tb767 O805 2.393 . S
Tb767 O806 2.465 . S
Tb767 O807 2.387 . S
Tb767 O809 2.428 . S
Tb767 O810 2.308 . S
Tb767 C831 2.802 . S
N768 C764 1.361 . S
N768 Tb767 2.572 . S
N768 C770 1.340 . S
C769 C763 1.416 . S
C769 C771 1.332 . S
C769 H777 0.931 . S
C770 N768 1.340 . S
C770 C771 1.407 . S
C770 H776 0.930 . S
C771 C769 1.332 . S
C771 C770 1.407 . S
C771 H773 0.929 . S
H772 C761 0.930 . S
H773 C771 0.929 . S
H774 C789 0.930 . S
H775 C796 0.929 . S
H776 C770 0.930 . S
H777 C769 0.931 . S
H778 C792 0.930 . S
H779 C759 0.930 . S
H780 C765 0.929 . S
H781 C766 0.930 . S
H782 C787 0.930 . S
H783 C762 0.930 . S
H784 C795 0.931 . S
N785 Tb756 2.617 . S
N785 C786 1.379 . S
N785 C789 1.334 . S
C786 N785 1.379 . S
C786 C788 1.416 . S
C786 C794 1.424 . S
C787 H782 0.930 . S
C787 C789 1.390 . S
C787 C790 1.339 . S
C788 C786 1.416 . S
C788 C790 1.416 . S
C788 C821 1.448 . S
C789 H774 0.930 . S
C789 N785 1.334 . S
C789 C787 1.390 . S
C790 C787 1.339 . S
C790 C788 1.416 . S
C790 H797 0.930 . S
N791 Tb756 2.572 . S
N791 C792 1.340 . S
N791 C794 1.361 . S
C792 H778 0.930 . S
C792 N791 1.340 . S
C792 C796 1.407 . S
C793 C794 1.413 . S
C793 C795 1.416 . S
C793 C822 1.427 . S
C794 C786 1.424 . S
C794 N791 1.361 . S
C794 C793 1.413 . S
C795 H784 0.931 . S
C795 C793 1.416 . S
C795 C796 1.332 . S
C796 H775 0.929 . S
C796 C792 1.407 . S
C796 C795 1.332 . S
H797 C790 0.930 . S
H798 C821 0.930 . S
H799 C822 0.929 . S
O800 Tb756 2.465 . S
O800 C820 1.264 . S
O801 Tb756 2.387 . S
O801 C812 1.264 . S
O802 Tb767 2.349 . S
O802 C812 1.243 . S
O803 Tb756 2.428 . S
O803 C820 1.256 . S
O804 Tb756 2.308 . S
O804 C819 1.266 . S
O805 Tb767 2.393 . S
O805 C819 1.248 . S
O806 Tb767 2.465 . S
O806 C831 1.264 . S
O807 Tb767 2.387 . S
O807 C823 1.264 . S
O808 Tb756 2.349 . S
O808 C823 1.243 . S
O809 Tb767 2.428 . S
O809 C831 1.256 . S
O810 Tb767 2.308 . S
O810 C830 1.266 . S
O811 Tb756 2.393 . S
O811 C830 1.248 . S
C812 O801 1.264 . S
C812 O802 1.243 . S
C813 C816 1.399 . S
C813 C818 1.383 . S
C813 C820 1.496 . S
C814 C815 1.399 . S
C814 C818 1.389 . S
C815 C814 1.399 . S
C815 C817 1.380 . S
C815 H832 0.929 . S
C816 C813 1.399 . S
C816 C817 1.392 . S
C816 H833 0.929 . S
C817 C815 1.380 . S
C817 C816 1.392 . S
C817 H834 0.929 . S
C818 C813 1.383 . S
C818 C814 1.389 . S
C818 H835 0.931 . S
C819 O804 1.266 . S
C819 O805 1.248 . S
C820 Tb756 2.802 . S
C820 O800 1.264 . S
C820 O803 1.256 . S
C820 C813 1.496 . S
C821 C788 1.448 . S
C821 H798 0.930 . S
C821 C822 1.328 . S
C822 C793 1.427 . S
C822 H799 0.929 . S
C822 C821 1.328 . S
C823 O807 1.264 . S
C823 O808 1.243 . S
C824 C827 1.399 . S
C824 C828 1.383 . S
C824 C831 1.496 . S
C825 C826 1.399 . S
C825 C828 1.389 . S
C826 C825 1.399 . S
C826 C829 1.380 . S
C826 H836 0.929 . S
C827 C824 1.399 . S
C827 C829 1.392 . S
C827 H837 0.929 . S
C828 C824 1.383 . S
C828 C825 1.389 . S
C828 H838 0.931 . S
C829 C826 1.380 . S
C829 C827 1.392 . S
C829 H839 0.929 . S
C830 O810 1.266 . S
C830 O811 1.248 . S
C831 Tb767 2.802 . S
C831 O806 1.264 . S
C831 O809 1.256 . S
C831 C824 1.496 . S
H832 C815 0.929 . S
H833 C816 0.929 . S
H834 C817 0.929 . S
H835 C818 0.931 . S
H836 C826 0.929 . S
H837 C827 0.929 . S
H838 C828 0.931 . S
H839 C829 0.929 . S
Tb840 N869 2.617 . S
Tb840 N875 2.572 . S
Tb840 O884 2.465 . S
Tb840 O885 2.387 . S
Tb840 O887 2.428 . S
Tb840 O888 2.308 . S
Tb840 O892 2.349 . S
Tb840 O895 2.393 . S
Tb840 C904 2.802 . S
C841 N842 1.379 . S
C841 C844 1.416 . S
C841 C848 1.424 . S
N842 C841 1.379 . S
N842 C845 1.334 . S
N842 Tb851 2.617 . S
C843 C845 1.390 . S
C843 C846 1.339 . S
C843 H863 0.930 . S
C844 C841 1.416 . S
C844 C846 1.416 . S
C844 C850 1.448 . S
C845 N842 1.334 . S
C845 C843 1.390 . S
C845 H856 0.930 . S
C846 C843 1.339 . S
C846 C844 1.416 . S
C846 H867 0.930 . S
C847 C848 1.413 . S
C847 C849 1.427 . S
C847 C853 1.416 . S
C848 C841 1.424 . S
C848 C847 1.413 . S
C848 N852 1.361 . S
C849 C847 1.427 . S
C849 C850 1.328 . S
C849 H864 0.929 . S
C850 C844 1.448 . S
C850 C849 1.328 . S
C850 H865 0.930 . S
Tb851 N842 2.617 . S
Tb851 N852 2.572 . S
Tb851 O886 2.349 . S
Tb851 O889 2.393 . S
Tb851 O890 2.465 . S
Tb851 O891 2.387 . S
Tb851 O893 2.428 . S
Tb851 O894 2.308 . S
Tb851 C915 2.802 . S
N852 C848 1.361 . S
N852 Tb851 2.572 . S
N852 C854 1.340 . S
C853 C847 1.416 . S
C853 C855 1.332 . S
C853 H861 0.931 . S
C854 N852 1.340 . S
C854 C855 1.407 . S
C854 H860 0.930 . S
C855 C853 1.332 . S
C855 C854 1.407 . S
C855 H857 0.929 . S
H856 C845 0.930 . S
H857 C855 0.929 . S
H858 C873 0.930 . S
H859 C880 0.929 . S
H860 C854 0.930 . S
H861 C853 0.931 . S
H862 C876 0.930 . S
H863 C843 0.930 . S
H864 C849 0.929 . S
H865 C850 0.930 . S
H866 C871 0.930 . S
H867 C846 0.930 . S
H868 C879 0.931 . S
N869 Tb840 2.617 . S
N869 C870 1.379 . S
N869 C873 1.334 . S
C870 N869 1.379 . S
C870 C872 1.416 . S
C870 C878 1.424 . S
C871 H866 0.930 . S
C871 C873 1.390 . S
C871 C874 1.339 . S
C872 C870 1.416 . S
C872 C874 1.416 . S
C872 C905 1.448 . S
C873 H858 0.930 . S
C873 N869 1.334 . S
C873 C871 1.390 . S
C874 C871 1.339 . S
C874 C872 1.416 . S
C874 H881 0.930 . S
N875 Tb840 2.572 . S
N875 C876 1.340 . S
N875 C878 1.361 . S
C876 H862 0.930 . S
C876 N875 1.340 . S
C876 C880 1.407 . S
C877 C878 1.413 . S
C877 C879 1.416 . S
C877 C906 1.427 . S
C878 C870 1.424 . S
C878 N875 1.361 . S
C878 C877 1.413 . S
C879 H868 0.931 . S
C879 C877 1.416 . S
C879 C880 1.332 . S
C880 H859 0.929 . S
C880 C876 1.407 . S
C880 C879 1.332 . S
H881 C874 0.930 . S
H882 C905 0.930 . S
H883 C906 0.929 . S
O884 Tb840 2.465 . S
O884 C904 1.264 . S
O885 Tb840 2.387 . S
O885 C896 1.264 . S
O886 Tb851 2.349 . S
O886 C896 1.243 . S
O887 Tb840 2.428 . S
O887 C904 1.256 . S
O888 Tb840 2.308 . S
O888 C903 1.266 . S
O889 Tb851 2.393 . S
O889 C903 1.248 . S
O890 Tb851 2.465 . S
O890 C915 1.264 . S
O891 Tb851 2.387 . S
O891 C907 1.264 . S
O892 Tb840 2.349 . S
O892 C907 1.243 . S
O893 Tb851 2.428 . S
O893 C915 1.256 . S
O894 Tb851 2.308 . S
O894 C914 1.266 . S
O895 Tb840 2.393 . S
O895 C914 1.248 . S
C896 O885 1.264 . S
C896 O886 1.243 . S
C897 C900 1.399 . S
C897 C902 1.392 . S
C897 C904 1.496 . S
C898 C899 1.399 . S
C898 C902 1.378 1_655 S
C899 C898 1.399 . S
C899 C901 1.380 . S
C899 H916 0.929 . S
C900 C897 1.399 . S
C900 C901 1.392 1_455 S
C900 H917 0.929 . S
C901 C899 1.380 . S
C901 C900 1.392 1_655 S
C901 H918 0.929 . S
C902 C897 1.392 . S
C902 C898 1.378 1_455 S
C902 H919 0.935 . S
C903 O888 1.266 . S
C903 O889 1.248 . S
C904 Tb840 2.802 . S
C904 O884 1.264 . S
C904 O887 1.256 . S
C904 C897 1.496 . S
C905 C872 1.448 . S
C905 H882 0.930 . S
C905 C906 1.328 . S
C906 C877 1.427 . S
C906 H883 0.929 . S
C906 C905 1.328 . S
C907 O891 1.264 . S
C907 O892 1.243 . S
C908 C911 1.399 . S
C908 C912 1.383 . S
C908 C915 1.496 . S
C909 C910 1.399 . S
C909 C912 1.389 . S
C910 C909 1.399 . S
C910 C913 1.380 . S
C910 H920 0.929 . S
C911 C908 1.399 . S
C911 C913 1.392 . S
C911 H921 0.929 . S
C912 C908 1.383 . S
C912 C909 1.389 . S
C912 H922 0.931 . S
C913 C910 1.380 . S
C913 C911 1.392 . S
C913 H923 0.929 . S
C914 O894 1.266 . S
C914 O895 1.248 . S
C915 Tb851 2.802 . S
C915 O890 1.264 . S
C915 O893 1.256 . S
C915 C908 1.496 . S
H916 C899 0.929 . S
H917 C900 0.929 . S
H918 C901 0.929 . S
H919 C902 0.935 . S
H920 C910 0.929 . S
H921 C911 0.929 . S
H922 C912 0.931 . S
H923 C913 0.929 . S
Tb924 N953 2.617 . S
Tb924 N959 2.572 . S
Tb924 O968 2.465 . S
Tb924 O969 2.387 . S
Tb924 O971 2.428 . S
Tb924 O972 2.308 . S
Tb924 O976 2.349 . S
Tb924 O979 2.393 . S
Tb924 C988 2.802 . S
C925 N926 1.379 . S
C925 C928 1.416 . S
C925 C932 1.424 . S
N926 C925 1.379 . S
N926 C929 1.334 . S
N926 Tb935 2.617 . S
C927 C929 1.390 . S
C927 C930 1.339 . S
C927 H947 0.930 . S
C928 C925 1.416 . S
C928 C930 1.416 . S
C928 C934 1.448 . S
C929 N926 1.334 . S
C929 C927 1.390 . S
C929 H940 0.930 . S
C930 C927 1.339 . S
C930 C928 1.416 . S
C930 H951 0.930 . S
C931 C932 1.413 . S
C931 C933 1.427 . S
C931 C937 1.416 . S
C932 C925 1.424 . S
C932 C931 1.413 . S
C932 N936 1.361 . S
C933 C931 1.427 . S
C933 C934 1.328 . S
C933 H948 0.929 . S
C934 C928 1.448 . S
C934 C933 1.328 . S
C934 H949 0.930 . S
Tb935 N926 2.617 . S
Tb935 N936 2.572 . S
Tb935 O970 2.349 . S
Tb935 O973 2.393 . S
Tb935 O974 2.465 . S
Tb935 O975 2.387 . S
Tb935 O977 2.428 . S
Tb935 O978 2.308 . S
Tb935 C999 2.802 . S
N936 C932 1.361 . S
N936 Tb935 2.572 . S
N936 C938 1.340 . S
C937 C931 1.416 . S
C937 C939 1.332 . S
C937 H945 0.931 . S
C938 N936 1.340 . S
C938 C939 1.407 . S
C938 H944 0.930 . S
C939 C937 1.332 . S
C939 C938 1.407 . S
C939 H941 0.929 . S
H940 C929 0.930 . S
H941 C939 0.929 . S
H942 C957 0.930 . S
H943 C964 0.929 . S
H944 C938 0.930 . S
H945 C937 0.931 . S
H946 C960 0.930 . S
H947 C927 0.930 . S
H948 C933 0.929 . S
H949 C934 0.930 . S
H950 C955 0.930 . S
H951 C930 0.930 . S
H952 C963 0.931 . S
N953 Tb924 2.617 . S
N953 C954 1.379 . S
N953 C957 1.334 . S
C954 N953 1.379 . S
C954 C956 1.416 . S
C954 C962 1.424 . S
C955 H950 0.930 . S
C955 C957 1.390 . S
C955 C958 1.339 . S
C956 C954 1.416 . S
C956 C958 1.416 . S
C956 C989 1.448 . S
C957 H942 0.930 . S
C957 N953 1.334 . S
C957 C955 1.390 . S
C958 C955 1.339 . S
C958 C956 1.416 . S
C958 H965 0.930 . S
N959 Tb924 2.572 . S
N959 C960 1.340 . S
N959 C962 1.361 . S
C960 H946 0.930 . S
C960 N959 1.340 . S
C960 C964 1.407 . S
C961 C962 1.413 . S
C961 C963 1.416 . S
C961 C990 1.427 . S
C962 C954 1.424 . S
C962 N959 1.361 . S
C962 C961 1.413 . S
C963 H952 0.931 . S
C963 C961 1.416 . S
C963 C964 1.332 . S
C964 H943 0.929 . S
C964 C960 1.407 . S
C964 C963 1.332 . S
H965 C958 0.930 . S
H966 C989 0.930 . S
H967 C990 0.929 . S
O968 Tb924 2.465 . S
O968 C988 1.264 . S
O969 Tb924 2.387 . S
O969 C980 1.264 . S
O970 Tb935 2.349 . S
O970 C980 1.243 . S
O971 Tb924 2.428 . S
O971 C988 1.256 . S
O972 Tb924 2.308 . S
O972 C987 1.266 . S
O973 Tb935 2.393 . S
O973 C987 1.248 . S
O974 Tb935 2.465 . S
O974 C999 1.264 . S
O975 Tb935 2.387 . S
O975 C991 1.264 . S
O976 Tb924 2.349 . S
O976 C991 1.243 . S
O977 Tb935 2.428 . S
O977 C999 1.256 . S
O978 Tb935 2.308 . S
O978 C998 1.266 . S
O979 Tb924 2.393 . S
O979 C998 1.248 . S
C980 O969 1.264 . S
C980 O970 1.243 . S
C981 C984 1.399 . S
C981 C986 1.400 . S
C981 C988 1.496 . S
C982 C983 1.399 . S
C982 C986 1.362 1_565 S
C983 C982 1.399 . S
C983 C985 1.380 . S
C983 H1000 0.929 . S
C984 C981 1.399 . S
C984 C985 1.392 1_545 S
C984 H1001 0.929 . S
C985 C983 1.380 . S
C985 C984 1.392 1_565 S
C985 H1002 0.929 . S
C986 C981 1.400 . S
C986 C982 1.362 1_545 S
C986 H1003 0.943 . S
C987 O972 1.266 . S
C987 O973 1.248 . S
C988 Tb924 2.802 . S
C988 O968 1.264 . S
C988 O971 1.256 . S
C988 C981 1.496 . S
C989 C956 1.448 . S
C989 H966 0.930 . S
C989 C990 1.328 . S
C990 C961 1.427 . S
C990 H967 0.929 . S
C990 C989 1.328 . S
C991 O975 1.264 . S
C991 O976 1.243 . S
C992 C995 1.399 . S
C992 C996 1.383 . S
C992 C999 1.496 . S
C993 C994 1.399 . S
C993 C996 1.389 . S
C994 C993 1.399 . S
C994 C997 1.380 . S
C994 H1004 0.929 . S
C995 C992 1.399 . S
C995 C997 1.392 . S
C995 H1005 0.929 . S
C996 C992 1.383 . S
C996 C993 1.389 . S
C996 H1006 0.931 . S
C997 C994 1.380 . S
C997 C995 1.392 . S
C997 H1007 0.929 . S
C998 O978 1.266 . S
C998 O979 1.248 . S
C999 Tb935 2.802 . S
C999 O974 1.264 . S
C999 O977 1.256 . S
C999 C992 1.496 . S
H1000 C983 0.929 . S
H1001 C984 0.929 . S
H1002 C985 0.929 . S
H1003 C986 0.943 . S
H1004 C994 0.929 . S
H1005 C995 0.929 . S
H1006 C996 0.931 . S
H1007 C997 0.929 . S
C1008 C1009 1.349 . S
C1008 C1010 1.327 . S
C1008 H1033 0.950 . S
C1009 C1008 1.349 . S
C1009 C1025 1.349 . S
C1010 C1008 1.327 . S
C1010 C1029 1.429 . S
C1010 H1034 0.950 . S
C1011 C1028 1.574 . S
C1011 C1030 1.368 1_545 S
C1011 H1035 0.949 . S
H1012 C1016 0.949 . S
C1013 C1014 1.349 . S
C1013 C1015 1.327 . S
C1013 H1036 0.950 . S
C1014 C1013 1.349 . S
C1014 C1026 1.349 . S
C1015 C1013 1.327 . S
C1015 C1031 1.429 . S
C1015 H1037 0.950 . S
C1016 H1012 0.949 . S
C1016 C1024 1.574 1_545 S
C1016 C1032 1.368 . S
H1017 C1025 0.950 . S
H1018 C1023 0.950 . S
H1019 C1024 0.949 . S
H1020 C1026 0.950 . S
H1021 C1027 0.950 . S
H1022 C1028 0.949 . S
C1023 H1018 0.950 . S
C1023 C1025 1.327 . S
C1023 C1029 1.429 . S
C1024 C1016 1.574 1_565 S
C1024 H1019 0.949 . S
C1024 C1030 1.368 . S
C1025 C1009 1.349 . S
C1025 H1017 0.950 . S
C1025 C1023 1.327 . S
C1026 C1014 1.349 . S
C1026 H1020 0.950 . S
C1026 C1027 1.327 . S
C1027 H1021 0.950 . S
C1027 C1026 1.327 . S
C1027 C1031 1.429 . S
C1028 C1011 1.574 . S
C1028 H1022 0.949 . S
C1028 C1032 1.368 . S
C1029 C1010 1.429 . S
C1029 C1023 1.429 . S
C1029 C1030 1.523 . S
C1030 C1011 1.368 1_565 S
C1030 C1024 1.368 . S
C1030 C1029 1.523 . S
C1031 C1015 1.429 . S
C1031 C1027 1.429 . S
C1031 C1032 1.523 . S
C1032 C1016 1.368 . S
C1032 C1028 1.368 . S
C1032 C1031 1.523 . S
H1033 C1008 0.950 . S
H1034 C1010 0.950 . S
H1035 C1011 0.949 . S
H1036 C1013 0.950 . S
H1037 C1015 0.950 . S
C1038 C1039 1.349 . S
C1038 C1040 1.327 . S
C1038 H1063 0.950 . S
C1039 C1038 1.349 . S
C1039 C1055 1.349 . S
C1040 C1038 1.327 . S
C1040 C1059 1.429 . S
C1040 H1064 0.950 . S
C1041 C1058 1.574 . S
C1041 C1060 1.368 . S
C1041 H1065 0.949 . S
H1042 C1046 0.949 . S
C1043 C1044 1.349 . S
C1043 C1045 1.327 . S
C1043 H1066 0.950 . S
C1044 C1043 1.349 . S
C1044 C1056 1.349 . S
C1045 C1043 1.327 . S
C1045 C1061 1.429 . S
C1045 H1067 0.950 . S
C1046 H1042 0.949 . S
C1046 C1054 1.574 . S
C1046 C1062 1.368 . S
H1047 C1055 0.950 . S
H1048 C1053 0.950 . S
H1049 C1054 0.949 . S
H1050 C1056 0.950 . S
H1051 C1057 0.950 . S
H1052 C1058 0.949 . S
C1053 H1048 0.950 . S
C1053 C1055 1.327 . S
C1053 C1059 1.429 . S
C1054 C1046 1.574 . S
C1054 H1049 0.949 . S
C1054 C1060 1.368 . S
C1055 C1039 1.349 . S
C1055 H1047 0.950 . S
C1055 C1053 1.327 . S
C1056 C1044 1.349 . S
C1056 H1050 0.950 . S
C1056 C1057 1.327 . S
C1057 H1051 0.950 . S
C1057 C1056 1.327 . S
C1057 C1061 1.429 . S
C1058 C1041 1.574 . S
C1058 H1052 0.949 . S
C1058 C1062 1.368 . S
C1059 C1040 1.429 . S
C1059 C1053 1.429 . S
C1059 C1060 1.523 . S
C1060 C1041 1.368 . S
C1060 C1054 1.368 . S
C1060 C1059 1.523 . S
C1061 C1045 1.429 . S
C1061 C1057 1.429 . S
C1061 C1062 1.523 . S
C1062 C1046 1.368 . S
C1062 C1058 1.368 . S
C1062 C1061 1.523 . S
H1063 C1038 0.950 . S
H1064 C1040 0.950 . S
H1065 C1041 0.949 . S
H1066 C1043 0.950 . S
H1067 C1045 0.950 . S
C1068 C1069 1.349 . S
C1068 C1070 1.327 . S
C1068 H1093 0.950 . S
C1069 C1068 1.349 . S
C1069 C1085 1.349 . S
C1070 C1068 1.327 . S
C1070 C1089 1.429 . S
C1070 H1094 0.950 . S
C1071 C1088 1.574 1_655 S
C1071 C1090 1.368 . S
C1071 H1095 0.949 . S
H1072 C1076 0.949 . S
C1073 C1074 1.349 . S
C1073 C1075 1.327 . S
C1073 H1096 0.950 . S
C1074 C1073 1.349 . S
C1074 C1086 1.349 . S
C1075 C1073 1.327 . S
C1075 C1091 1.429 . S
C1075 H1097 0.950 . S
C1076 H1072 0.949 . S
C1076 C1084 1.574 . S
C1076 C1092 1.368 1_655 S
H1077 C1085 0.950 . S
H1078 C1083 0.950 . S
H1079 C1084 0.949 . S
H1080 C1086 0.950 . S
H1081 C1087 0.950 . S
H1082 C1088 0.949 . S
C1083 H1078 0.950 . S
C1083 C1085 1.327 . S
C1083 C1089 1.429 . S
C1084 C1076 1.574 . S
C1084 H1079 0.949 . S
C1084 C1090 1.368 . S
C1085 C1069 1.349 . S
C1085 H1077 0.950 . S
C1085 C1083 1.327 . S
C1086 C1074 1.349 . S
C1086 H1080 0.950 . S
C1086 C1087 1.327 . S
C1087 H1081 0.950 . S
C1087 C1086 1.327 . S
C1087 C1091 1.429 . S
C1088 C1071 1.574 1_455 S
C1088 H1082 0.949 . S
C1088 C1092 1.368 . S
C1089 C1070 1.429 . S
C1089 C1083 1.429 . S
C1089 C1090 1.523 . S
C1090 C1071 1.368 . S
C1090 C1084 1.368 . S
C1090 C1089 1.523 . S
C1091 C1075 1.429 . S
C1091 C1087 1.429 . S
C1091 C1092 1.523 . S
C1092 C1076 1.368 1_455 S
C1092 C1088 1.368 . S
C1092 C1091 1.523 . S
H1093 C1068 0.950 . S
H1094 C1070 0.950 . S
H1095 C1071 0.949 . S
H1096 C1073 0.950 . S
H1097 C1075 0.950 . S
C1098 C1099 1.349 . S
C1098 C1100 1.327 . S
C1098 H1123 0.950 . S
C1099 C1098 1.349 . S
C1099 C1115 1.349 . S
C1100 C1098 1.327 . S
C1100 C1119 1.429 . S
C1100 H1124 0.950 . S
C1101 C1118 1.574 . S
C1101 C1120 1.368 . S
C1101 H1125 0.949 . S
H1102 C1106 0.949 1_545 S
C1103 C1104 1.349 . S
C1103 C1105 1.327 . S
C1103 H1126 0.950 . S
C1104 C1103 1.349 . S
C1104 C1116 1.349 . S
C1105 C1103 1.327 . S
C1105 C1121 1.429 . S
C1105 H1127 0.950 . S
C1106 H1102 0.949 1_565 S
C1106 C1114 1.574 . S
C1106 C1122 1.368 1_565 S
H1107 C1115 0.950 . S
H1108 C1113 0.950 . S
H1109 C1114 0.949 . S
H1110 C1116 0.950 . S
H1111 C1117 0.950 . S
H1112 C1118 0.949 1_545 S
C1113 H1108 0.950 . S
C1113 C1115 1.327 . S
C1113 C1119 1.429 . S
C1114 C1106 1.574 . S
C1114 H1109 0.949 . S
C1114 C1120 1.368 . S
C1115 C1099 1.349 . S
C1115 H1107 0.950 . S
C1115 C1113 1.327 . S
C1116 C1104 1.349 . S
C1116 H1110 0.950 . S
C1116 C1117 1.327 . S
C1117 H1111 0.950 . S
C1117 C1116 1.327 . S
C1117 C1121 1.429 . S
C1118 C1101 1.574 . S
C1118 H1112 0.949 1_565 S
C1118 C1122 1.368 1_565 S
C1119 C1100 1.429 . S
C1119 C1113 1.429 . S
C1119 C1120 1.523 . S
C1120 C1101 1.368 . S
C1120 C1114 1.368 . S
C1120 C1119 1.523 . S
C1121 C1105 1.429 . S
C1121 C1117 1.429 . S
C1121 C1122 1.523 . S
C1122 C1106 1.368 1_545 S
C1122 C1118 1.368 1_545 S
C1122 C1121 1.523 . S
H1123 C1098 0.950 . S
H1124 C1100 0.950 . S
H1125 C1101 0.949 . S
H1126 C1103 0.950 . S
H1127 C1105 0.950 . S
C1128 C1129 1.349 . S
C1128 C1130 1.327 . S
C1128 H1153 0.950 . S
C1129 C1128 1.349 . S
C1129 C1145 1.349 . S
C1130 C1128 1.327 . S
C1130 C1149 1.429 . S
C1130 H1154 0.950 . S
C1131 C1148 1.574 . S
C1131 C1150 1.368 . S
C1131 H1155 0.949 . S
H1132 C1136 0.949 . S
C1133 C1134 1.349 . S
C1133 C1135 1.327 . S
C1133 H1156 0.950 . S
C1134 C1133 1.349 . S
C1134 C1146 1.349 . S
C1135 C1133 1.327 . S
C1135 C1151 1.429 . S
C1135 H1157 0.950 . S
C1136 H1132 0.949 . S
C1136 C1144 1.574 . S
C1136 C1152 1.368 . S
H1137 C1145 0.950 . S
H1138 C1143 0.950 . S
H1139 C1144 0.949 . S
H1140 C1146 0.950 . S
H1141 C1147 0.950 . S
H1142 C1148 0.949 . S
C1143 H1138 0.950 . S
C1143 C1145 1.327 . S
C1143 C1149 1.429 . S
C1144 C1136 1.574 . S
C1144 H1139 0.949 . S
C1144 C1150 1.368 . S
C1145 C1129 1.349 . S
C1145 H1137 0.950 . S
C1145 C1143 1.327 . S
C1146 C1134 1.349 . S
C1146 H1140 0.950 . S
C1146 C1147 1.327 . S
C1147 H1141 0.950 . S
C1147 C1146 1.327 . S
C1147 C1151 1.429 . S
C1148 C1131 1.574 . S
C1148 H1142 0.949 . S
C1148 C1152 1.368 . S
C1149 C1130 1.429 . S
C1149 C1143 1.429 . S
C1149 C1150 1.523 . S
C1150 C1131 1.368 . S
C1150 C1144 1.368 . S
C1150 C1149 1.523 . S
C1151 C1135 1.429 . S
C1151 C1147 1.429 . S
C1151 C1152 1.523 . S
C1152 C1136 1.368 . S
C1152 C1148 1.368 . S
C1152 C1151 1.523 . S
H1153 C1128 0.950 . S
H1154 C1130 0.950 . S
H1155 C1131 0.949 . S
H1156 C1133 0.950 . S
H1157 C1135 0.950 . S
C1158 C1159 1.349 . S
C1158 C1160 1.327 . S
C1158 H1183 0.950 . S
C1159 C1158 1.349 . S
C1159 C1175 1.349 . S
C1160 C1158 1.327 . S
C1160 C1179 1.429 . S
C1160 H1184 0.950 . S
C1161 C1178 1.574 . S
C1161 C1180 1.368 1_455 S
C1161 H1185 0.949 1_455 S
H1162 C1166 0.949 . S
C1163 C1164 1.349 . S
C1163 C1165 1.327 . S
C1163 H1186 0.950 . S
C1164 C1163 1.349 . S
C1164 C1176 1.349 . S
C1165 C1163 1.327 . S
C1165 C1181 1.429 . S
C1165 H1187 0.950 . S
C1166 H1162 0.949 . S
C1166 C1174 1.574 . S
C1166 C1182 1.368 . S
H1167 C1175 0.950 . S
H1168 C1173 0.950 . S
H1169 C1174 0.949 1_655 S
H1170 C1176 0.950 . S
H1171 C1177 0.950 . S
H1172 C1178 0.949 . S
C1173 H1168 0.950 . S
C1173 C1175 1.327 . S
C1173 C1179 1.429 . S
C1174 C1166 1.574 . S
C1174 H1169 0.949 1_455 S
C1174 C1180 1.368 1_455 S
C1175 C1159 1.349 . S
C1175 H1167 0.950 . S
C1175 C1173 1.327 . S
C1176 C1164 1.349 . S
C1176 H1170 0.950 . S
C1176 C1177 1.327 . S
C1177 H1171 0.950 . S
C1177 C1176 1.327 . S
C1177 C1181 1.429 . S
C1178 C1161 1.574 . S
C1178 H1172 0.949 . S
C1178 C1182 1.368 . S
C1179 C1160 1.429 . S
C1179 C1173 1.429 . S
C1179 C1180 1.523 . S
C1180 C1161 1.368 1_655 S
C1180 C1174 1.368 1_655 S
C1180 C1179 1.523 . S
C1181 C1165 1.429 . S
C1181 C1177 1.429 . S
C1181 C1182 1.523 . S
C1182 C1166 1.368 . S
C1182 C1178 1.368 . S
C1182 C1181 1.523 . S
H1183 C1158 0.950 . S
H1184 C1160 0.950 . S
H1185 C1161 0.949 1_655 S
H1186 C1163 0.950 . S
H1187 C1165 0.950 . S
C1188 C1189 1.349 . S
C1188 C1190 1.327 . S
C1188 H1213 0.950 . S
C1189 C1188 1.349 . S
C1189 C1205 1.349 . S
C1190 C1188 1.327 . S
C1190 C1209 1.429 . S
C1190 H1214 0.950 . S
C1191 C1208 1.574 1_455 S
C1191 C1210 1.368 . S
C1191 H1215 0.949 . S
H1192 C1196 0.949 . S
C1193 C1194 1.349 . S
C1193 C1195 1.327 . S
C1193 H1216 0.950 . S
C1194 C1193 1.349 . S
C1194 C1206 1.349 . S
C1195 C1193 1.327 . S
C1195 C1211 1.429 . S
C1195 H1217 0.950 . S
C1196 H1192 0.949 . S
C1196 C1204 1.574 . S
C1196 C1212 1.368 . S
H1197 C1205 0.950 . S
H1198 C1203 0.950 . S
H1199 C1204 0.949 . S
H1200 C1206 0.950 . S
H1201 C1207 0.950 . S
H1202 C1208 0.949 . S
C1203 H1198 0.950 . S
C1203 C1205 1.327 . S
C1203 C1209 1.429 . S
C1204 C1196 1.574 . S
C1204 H1199 0.949 . S
C1204 C1210 1.368 1_655 S
C1205 C1189 1.349 . S
C1205 H1197 0.950 . S
C1205 C1203 1.327 . S
C1206 C1194 1.349 . S
C1206 H1200 0.950 . S
C1206 C1207 1.327 . S
C1207 H1201 0.950 . S
C1207 C1206 1.327 . S
C1207 C1211 1.429 . S
C1208 C1191 1.574 1_655 S
C1208 H1202 0.949 . S
C1208 C1212 1.368 . S
C1209 C1190 1.429 . S
C1209 C1203 1.429 . S
C1209 C1210 1.523 . S
C1210 C1191 1.368 . S
C1210 C1204 1.368 1_455 S
C1210 C1209 1.523 . S
C1211 C1195 1.429 . S
C1211 C1207 1.429 . S
C1211 C1212 1.523 . S
C1212 C1196 1.368 . S
C1212 C1208 1.368 . S
C1212 C1211 1.523 . S
H1213 C1188 0.950 . S
H1214 C1190 0.950 . S
H1215 C1191 0.949 . S
H1216 C1193 0.950 . S
H1217 C1195 0.950 . S
C1218 C1219 1.349 . S
C1218 C1220 1.327 . S
C1218 H1243 0.950 . S
C1219 C1218 1.349 . S
C1219 C1235 1.349 . S
C1220 C1218 1.327 . S
C1220 C1239 1.429 . S
C1220 H1244 0.950 . S
C1221 C1238 1.574 1_565 S
C1221 C1240 1.368 . S
C1221 H1245 0.949 . S
H1222 C1226 0.949 . S
C1223 C1224 1.349 . S
C1223 C1225 1.327 . S
C1223 H1246 0.950 . S
C1224 C1223 1.349 . S
C1224 C1236 1.349 . S
C1225 C1223 1.327 . S
C1225 C1241 1.429 . S
C1225 H1247 0.950 . S
C1226 H1222 0.949 . S
C1226 C1234 1.574 . S
C1226 C1242 1.368 1_565 S
H1227 C1235 0.950 . S
H1228 C1233 0.950 . S
H1229 C1234 0.949 . S
H1230 C1236 0.950 . S
H1231 C1237 0.950 . S
H1232 C1238 0.949 . S
C1233 H1228 0.950 . S
C1233 C1235 1.327 . S
C1233 C1239 1.429 . S
C1234 C1226 1.574 . S
C1234 H1229 0.949 . S
C1234 C1240 1.368 . S
C1235 C1219 1.349 . S
C1235 H1227 0.950 . S
C1235 C1233 1.327 . S
C1236 C1224 1.349 . S
C1236 H1230 0.950 . S
C1236 C1237 1.327 . S
C1237 H1231 0.950 . S
C1237 C1236 1.327 . S
C1237 C1241 1.429 . S
C1238 C1221 1.574 1_545 S
C1238 H1232 0.949 . S
C1238 C1242 1.368 . S
C1239 C1220 1.429 . S
C1239 C1233 1.429 . S
C1239 C1240 1.523 . S
C1240 C1221 1.368 . S
C1240 C1234 1.368 . S
C1240 C1239 1.523 . S
C1241 C1225 1.429 . S
C1241 C1237 1.429 . S
C1241 C1242 1.523 . S
C1242 C1226 1.368 1_545 S
C1242 C1238 1.368 . S
C1242 C1241 1.523 . S
H1243 C1218 0.950 . S
H1244 C1220 0.950 . S
H1245 C1221 0.949 . S
H1246 C1223 0.950 . S
H1247 C1225 0.950 . S
C1248 C1249 1.349 . S
C1248 C1250 1.327 . S
C1248 H1273 0.950 . S
C1249 C1248 1.349 . S
C1249 C1265 1.349 . S
C1250 C1248 1.327 . S
C1250 C1269 1.429 . S
C1250 H1274 0.950 . S
C1251 C1268 1.574 . S
C1251 C1270 1.368 . S
C1251 H1275 0.949 . S
H1252 C1256 0.949 . S
C1253 C1254 1.349 . S
C1253 C1255 1.327 . S
C1253 H1276 0.950 . S
C1254 C1253 1.349 . S
C1254 C1266 1.349 . S
C1255 C1253 1.327 . S
C1255 C1271 1.429 . S
C1255 H1277 0.950 . S
C1256 H1252 0.949 . S
C1256 C1264 1.574 . S
C1256 C1272 1.368 . S
H1257 C1265 0.950 . S
H1258 C1263 0.950 . S
H1259 C1264 0.949 . S
H1260 C1266 0.950 . S
H1261 C1267 0.950 . S
H1262 C1268 0.949 . S
C1263 H1258 0.950 . S
C1263 C1265 1.327 . S
C1263 C1269 1.429 . S
C1264 C1256 1.574 . S
C1264 H1259 0.949 . S
C1264 C1270 1.368 . S
C1265 C1249 1.349 . S
C1265 H1257 0.950 . S
C1265 C1263 1.327 . S
C1266 C1254 1.349 . S
C1266 H1260 0.950 . S
C1266 C1267 1.327 . S
C1267 H1261 0.950 . S
C1267 C1266 1.327 . S
C1267 C1271 1.429 . S
C1268 C1251 1.574 . S
C1268 H1262 0.949 . S
C1268 C1272 1.368 . S
C1269 C1250 1.429 . S
C1269 C1263 1.429 . S
C1269 C1270 1.523 . S
C1270 C1251 1.368 . S
C1270 C1264 1.368 . S
C1270 C1269 1.523 . S
C1271 C1255 1.429 . S
C1271 C1267 1.429 . S
C1271 C1272 1.523 . S
C1272 C1256 1.368 . S
C1272 C1268 1.368 . S
C1272 C1271 1.523 . S
H1273 C1248 0.950 . S
H1274 C1250 0.950 . S
H1275 C1251 0.949 . S
H1276 C1253 0.950 . S
H1277 C1255 0.950 . S
C1278 C1279 1.349 . S
C1278 C1280 1.327 . S
C1278 H1303 0.950 . S
C1279 C1278 1.349 . S
C1279 C1295 1.349 . S
C1280 C1278 1.327 . S
C1280 C1299 1.429 . S
C1280 H1304 0.950 . S
C1281 C1298 1.581 . S
C1281 C1300 1.368 . S
C1281 H1305 0.949 . S
H1282 C1286 0.949 1_655 S
C1283 C1284 1.349 . S
C1283 C1285 1.327 . S
C1283 H1306 0.950 . S
C1284 C1283 1.349 . S
C1284 C1296 1.349 . S
C1285 C1283 1.327 . S
C1285 C1301 1.429 . S
C1285 H1307 0.950 . S
C1286 H1282 0.949 1_455 S
C1286 C1294 1.574 . S
C1286 C1302 1.368 1_455 S
H1287 C1295 0.950 . S
H1288 C1293 0.950 . S
H1289 C1294 0.949 . S
H1290 C1296 0.950 . S
H1291 C1297 0.950 . S
H1292 C1298 0.946 1_655 S
C1293 H1288 0.950 . S
C1293 C1295 1.327 . S
C1293 C1299 1.429 . S
C1294 C1286 1.574 . S
C1294 H1289 0.949 . S
C1294 C1300 1.368 . S
C1295 C1279 1.349 . S
C1295 H1287 0.950 . S
C1295 C1293 1.327 . S
C1296 C1284 1.349 . S
C1296 H1290 0.950 . S
C1296 C1297 1.327 . S
C1297 H1291 0.950 . S
C1297 C1296 1.327 . S
C1297 C1301 1.429 . S
C1298 C1281 1.581 . S
C1298 H1292 0.946 1_455 S
C1298 C1302 1.365 1_455 S
C1299 C1280 1.429 . S
C1299 C1293 1.429 . S
C1299 C1300 1.523 . S
C1300 C1281 1.368 . S
C1300 C1294 1.368 . S
C1300 C1299 1.523 . S
C1301 C1285 1.429 . S
C1301 C1297 1.429 . S
C1301 C1302 1.523 . S
C1302 C1286 1.368 1_655 S
C1302 C1298 1.365 1_655 S
C1302 C1301 1.523 . S
H1303 C1278 0.950 . S
H1304 C1280 0.950 . S
H1305 C1281 0.949 . S
H1306 C1283 0.950 . S
H1307 C1285 0.950 . S
C1308 C1309 1.349 . S
C1308 C1310 1.327 . S
C1308 H1333 0.950 . S
C1309 C1308 1.349 . S
C1309 C1325 1.349 . S
C1310 C1308 1.327 . S
C1310 C1329 1.429 . S
C1310 H1334 0.950 . S
C1311 C1328 1.574 1_545 S
C1311 C1330 1.368 . S
C1311 H1335 0.949 . S
H1312 C1316 0.949 . S
C1313 C1314 1.349 . S
C1313 C1315 1.327 . S
C1313 H1336 0.950 . S
C1314 C1313 1.349 . S
C1314 C1326 1.349 . S
C1315 C1313 1.327 . S
C1315 C1331 1.429 . S
C1315 H1337 0.950 . S
C1316 H1312 0.949 . S
C1316 C1324 1.574 . S
C1316 C1332 1.368 1_545 S
H1317 C1325 0.950 . S
H1318 C1323 0.950 . S
H1319 C1324 0.949 . S
H1320 C1326 0.950 . S
H1321 C1327 0.950 . S
H1322 C1328 0.949 . S
C1323 H1318 0.950 . S
C1323 C1325 1.327 . S
C1323 C1329 1.429 . S
C1324 C1316 1.574 . S
C1324 H1319 0.949 . S
C1324 C1330 1.368 . S
C1325 C1309 1.349 . S
C1325 H1317 0.950 . S
C1325 C1323 1.327 . S
C1326 C1314 1.349 . S
C1326 H1320 0.950 . S
C1326 C1327 1.327 . S
C1327 H1321 0.950 . S
C1327 C1326 1.327 . S
C1327 C1331 1.429 . S
C1328 C1311 1.574 1_565 S
C1328 H1322 0.949 . S
C1328 C1332 1.368 . S
C1329 C1310 1.429 . S
C1329 C1323 1.429 . S
C1329 C1330 1.523 . S
C1330 C1311 1.368 . S
C1330 C1324 1.368 . S
C1330 C1329 1.523 . S
C1331 C1315 1.429 . S
C1331 C1327 1.429 . S
C1331 C1332 1.523 . S
C1332 C1316 1.368 1_565 S
C1332 C1328 1.368 . S
C1332 C1331 1.523 . S
H1333 C1308 0.950 . S
H1334 C1310 0.950 . S
H1335 C1311 0.949 . S
H1336 C1313 0.950 . S
H1337 C1315 0.950 . S
C1338 C1339 1.349 . S
C1338 C1340 1.327 . S
C1338 H1363 0.950 . S
C1339 C1338 1.349 . S
C1339 C1355 1.349 . S
C1340 C1338 1.327 . S
C1340 C1359 1.429 . S
C1340 H1364 0.950 . S
C1341 C1358 1.574 . S
C1341 C1360 1.368 . S
C1341 H1365 0.949 . S
H1342 C1346 0.949 . S
C1343 C1344 1.349 . S
C1343 C1345 1.327 . S
C1343 H1366 0.950 . S
C1344 C1343 1.349 . S
C1344 C1356 1.349 . S
C1345 C1343 1.327 . S
C1345 C1361 1.429 . S
C1345 H1367 0.950 . S
C1346 H1342 0.949 . S
C1346 C1354 1.574 . S
C1346 C1362 1.368 . S
H1347 C1355 0.950 . S
H1348 C1353 0.950 . S
H1349 C1354 0.949 . S
H1350 C1356 0.950 . S
H1351 C1357 0.950 . S
H1352 C1358 0.949 . S
C1353 H1348 0.950 . S
C1353 C1355 1.327 . S
C1353 C1359 1.429 . S
C1354 C1346 1.574 . S
C1354 H1349 0.949 . S
C1354 C1360 1.368 . S
C1355 C1339 1.349 . S
C1355 H1347 0.950 . S
C1355 C1353 1.327 . S
C1356 C1344 1.349 . S
C1356 H1350 0.950 . S
C1356 C1357 1.327 . S
C1357 H1351 0.950 . S
C1357 C1356 1.327 . S
C1357 C1361 1.429 . S
C1358 C1341 1.574 . S
C1358 H1352 0.949 . S
C1358 C1362 1.368 . S
C1359 C1340 1.429 . S
C1359 C1353 1.429 . S
C1359 C1360 1.523 . S
C1360 C1341 1.368 . S
C1360 C1354 1.368 . S
C1360 C1359 1.523 . S
C1361 C1345 1.429 . S
C1361 C1357 1.429 . S
C1361 C1362 1.523 . S
C1362 C1346 1.368 . S
C1362 C1358 1.368 . S
C1362 C1361 1.523 . S
H1363 C1338 0.950 . S
H1364 C1340 0.950 . S
H1365 C1341 0.949 . S
H1366 C1343 0.950 . S
H1367 C1345 0.950 . S
C1368 C1369 1.349 . S
C1368 C1370 1.327 . S
C1368 H1393 0.950 . S
C1369 C1368 1.349 . S
C1369 C1385 1.349 . S
C1370 C1368 1.327 . S
C1370 C1389 1.429 . S
C1370 H1394 0.950 . S
C1371 C1388 1.574 . S
C1371 C1390 1.368 . S
C1371 H1395 0.949 . S
H1372 C1376 0.949 . S
C1373 C1374 1.349 . S
C1373 C1375 1.327 . S
C1373 H1396 0.950 . S
C1374 C1373 1.349 . S
C1374 C1386 1.349 . S
C1375 C1373 1.327 . S
C1375 C1391 1.429 . S
C1375 H1397 0.950 . S
C1376 H1372 0.949 . S
C1376 C1384 1.574 . S
C1376 C1392 1.368 . S
H1377 C1385 0.950 . S
H1378 C1383 0.950 . S
H1379 C1384 0.949 . S
H1380 C1386 0.950 . S
H1381 C1387 0.950 . S
H1382 C1388 0.949 . S
C1383 H1378 0.950 . S
C1383 C1385 1.327 . S
C1383 C1389 1.429 . S
C1384 C1376 1.574 . S
C1384 H1379 0.949 . S
C1384 C1390 1.368 . S
C1385 C1369 1.349 . S
C1385 H1377 0.950 . S
C1385 C1383 1.327 . S
C1386 C1374 1.349 . S
C1386 H1380 0.950 . S
C1386 C1387 1.327 . S
C1387 H1381 0.950 . S
C1387 C1386 1.327 . S
C1387 C1391 1.429 . S
C1388 C1371 1.574 . S
C1388 H1382 0.949 . S
C1388 C1392 1.368 . S
C1389 C1370 1.429 . S
C1389 C1383 1.429 . S
C1389 C1390 1.523 . S
C1390 C1371 1.368 . S
C1390 C1384 1.368 . S
C1390 C1389 1.523 . S
C1391 C1375 1.429 . S
C1391 C1387 1.429 . S
C1391 C1392 1.523 . S
C1392 C1376 1.368 . S
C1392 C1388 1.368 . S
C1392 C1391 1.523 . S
H1393 C1368 0.950 . S
H1394 C1370 0.950 . S
H1395 C1371 0.949 . S
H1396 C1373 0.950 . S
H1397 C1375 0.950 . S
C1398 C1399 1.349 . S
C1398 C1400 1.327 . S
C1398 H1423 0.950 . S
C1399 C1398 1.349 . S
C1399 C1415 1.349 . S
C1400 C1398 1.327 . S
C1400 C1419 1.429 . S
C1400 H1424 0.950 . S
C1401 C1418 1.574 . S
C1401 C1420 1.368 . S
C1401 H1425 0.949 . S
H1402 C1406 0.949 . S
C1403 C1404 1.349 . S
C1403 C1405 1.327 . S
C1403 H1426 0.950 . S
C1404 C1403 1.349 . S
C1404 C1416 1.349 . S
C1405 C1403 1.327 . S
C1405 C1421 1.429 . S
C1405 H1427 0.950 . S
C1406 H1402 0.949 . S
C1406 C1414 1.574 . S
C1406 C1422 1.368 . S
H1407 C1415 0.950 . S
H1408 C1413 0.950 . S
H1409 C1414 0.949 . S
H1410 C1416 0.950 . S
H1411 C1417 0.950 . S
H1412 C1418 0.949 . S
C1413 H1408 0.950 . S
C1413 C1415 1.327 . S
C1413 C1419 1.429 . S
C1414 C1406 1.574 . S
C1414 H1409 0.949 . S
C1414 C1420 1.368 . S
C1415 C1399 1.349 . S
C1415 H1407 0.950 . S
C1415 C1413 1.327 . S
C1416 C1404 1.349 . S
C1416 H1410 0.950 . S
C1416 C1417 1.327 . S
C1417 H1411 0.950 . S
C1417 C1416 1.327 . S
C1417 C1421 1.429 . S
C1418 C1401 1.574 . S
C1418 H1412 0.949 . S
C1418 C1422 1.368 . S
C1419 C1400 1.429 . S
C1419 C1413 1.429 . S
C1419 C1420 1.523 . S
C1420 C1401 1.368 . S
C1420 C1414 1.368 . S
C1420 C1419 1.523 . S
C1421 C1405 1.429 . S
C1421 C1417 1.429 . S
C1421 C1422 1.523 . S
C1422 C1406 1.368 . S
C1422 C1418 1.368 . S
C1422 C1421 1.523 . S
H1423 C1398 0.950 . S
H1424 C1400 0.950 . S
H1425 C1401 0.949 . S
H1426 C1403 0.950 . S
H1427 C1405 0.950 . S
C1428 C1429 1.349 . S
C1428 C1430 1.327 . S
C1428 H1453 0.950 . S
C1429 C1428 1.349 . S
C1429 C1445 1.349 . S
C1430 C1428 1.327 . S
C1430 C1449 1.429 . S
C1430 H1454 0.950 . S
C1431 C1448 1.574 . S
C1431 C1450 1.368 . S
C1431 H1455 0.949 . S
H1432 C1436 0.949 . S
C1433 C1434 1.349 . S
C1433 C1435 1.327 . S
C1433 H1456 0.950 . S
C1434 C1433 1.349 . S
C1434 C1446 1.349 . S
C1435 C1433 1.327 . S
C1435 C1451 1.429 . S
C1435 H1457 0.950 . S
C1436 H1432 0.949 . S
C1436 C1444 1.574 . S
C1436 C1452 1.368 . S
H1437 C1445 0.950 . S
H1438 C1443 0.950 . S
H1439 C1444 0.949 . S
H1440 C1446 0.950 . S
H1441 C1447 0.950 . S
H1442 C1448 0.949 . S
C1443 H1438 0.950 . S
C1443 C1445 1.327 . S
C1443 C1449 1.429 . S
C1444 C1436 1.574 . S
C1444 H1439 0.949 . S
C1444 C1450 1.368 . S
C1445 C1429 1.349 . S
C1445 H1437 0.950 . S
C1445 C1443 1.327 . S
C1446 C1434 1.349 . S
C1446 H1440 0.950 . S
C1446 C1447 1.327 . S
C1447 H1441 0.950 . S
C1447 C1446 1.327 . S
C1447 C1451 1.429 . S
C1448 C1431 1.574 . S
C1448 H1442 0.949 . S
C1448 C1452 1.368 . S
C1449 C1430 1.429 . S
C1449 C1443 1.429 . S
C1449 C1450 1.523 . S
C1450 C1431 1.368 . S
C1450 C1444 1.368 . S
C1450 C1449 1.523 . S
C1451 C1435 1.429 . S
C1451 C1447 1.429 . S
C1451 C1452 1.523 . S
C1452 C1436 1.368 . S
C1452 C1448 1.368 . S
C1452 C1451 1.523 . S
H1453 C1428 0.950 . S
H1454 C1430 0.950 . S
H1455 C1431 0.949 . S
H1456 C1433 0.950 . S
H1457 C1435 0.950 . S
C1458 C1459 1.349 . S
C1458 C1460 1.327 . S
C1458 H1483 0.950 . S
C1459 C1458 1.349 . S
C1459 C1475 1.349 . S
C1460 C1458 1.327 . S
C1460 C1479 1.429 . S
C1460 H1484 0.950 . S
C1461 C1478 1.574 . S
C1461 C1480 1.368 . S
C1461 H1485 0.949 . S
H1462 C1466 0.949 . S
C1463 C1464 1.349 . S
C1463 C1465 1.327 . S
C1463 H1486 0.950 . S
C1464 C1463 1.349 . S
C1464 C1476 1.349 . S
C1465 C1463 1.327 . S
C1465 C1481 1.429 . S
C1465 H1487 0.950 . S
C1466 H1462 0.949 . S
C1466 C1474 1.574 . S
C1466 C1482 1.368 . S
H1467 C1475 0.950 . S
H1468 C1473 0.950 . S
H1469 C1474 0.949 . S
H1470 C1476 0.950 . S
H1471 C1477 0.950 . S
H1472 C1478 0.949 . S
C1473 H1468 0.950 . S
C1473 C1475 1.327 . S
C1473 C1479 1.429 . S
C1474 C1466 1.574 . S
C1474 H1469 0.949 . S
C1474 C1480 1.368 . S
C1475 C1459 1.349 . S
C1475 H1467 0.950 . S
C1475 C1473 1.327 . S
C1476 C1464 1.349 . S
C1476 H1470 0.950 . S
C1476 C1477 1.327 . S
C1477 H1471 0.950 . S
C1477 C1476 1.327 . S
C1477 C1481 1.429 . S
C1478 C1461 1.574 . S
C1478 H1472 0.949 . S
C1478 C1482 1.368 . S
C1479 C1460 1.429 . S
C1479 C1473 1.429 . S
C1479 C1480 1.523 . S
C1480 C1461 1.368 . S
C1480 C1474 1.368 . S
C1480 C1479 1.523 . S
C1481 C1465 1.429 . S
C1481 C1477 1.429 . S
C1481 C1482 1.523 . S
C1482 C1466 1.368 . S
C1482 C1478 1.368 . S
C1482 C1481 1.523 . S
H1483 C1458 0.950 . S
H1484 C1460 0.950 . S
H1485 C1461 0.949 . S
H1486 C1463 0.950 . S
H1487 C1465 0.950 . S
C1488 C1489 1.349 . S
C1488 C1490 1.327 . S
C1488 H1513 0.950 . S
C1489 C1488 1.349 . S
C1489 C1505 1.349 . S
C1490 C1488 1.327 . S
C1490 C1509 1.429 . S
C1490 H1514 0.950 . S
C1491 C1508 1.574 . S
C1491 C1510 1.368 . S
C1491 H1515 0.949 . S
H1492 C1496 0.949 . S
C1493 C1494 1.349 . S
C1493 C1495 1.327 . S
C1493 H1516 0.950 . S
C1494 C1493 1.349 . S
C1494 C1506 1.349 . S
C1495 C1493 1.327 . S
C1495 C1511 1.429 . S
C1495 H1517 0.950 . S
C1496 H1492 0.949 . S
C1496 C1504 1.574 . S
C1496 C1512 1.368 . S
H1497 C1505 0.950 . S
H1498 C1503 0.950 . S
H1499 C1504 0.949 . S
H1500 C1506 0.950 . S
H1501 C1507 0.950 . S
H1502 C1508 0.949 . S
C1503 H1498 0.950 . S
C1503 C1505 1.327 . S
C1503 C1509 1.429 . S
C1504 C1496 1.574 . S
C1504 H1499 0.949 . S
C1504 C1510 1.368 . S
C1505 C1489 1.349 . S
C1505 H1497 0.950 . S
C1505 C1503 1.327 . S
C1506 C1494 1.349 . S
C1506 H1500 0.950 . S
C1506 C1507 1.327 . S
C1507 H1501 0.950 . S
C1507 C1506 1.327 . S
C1507 C1511 1.429 . S
C1508 C1491 1.574 . S
C1508 H1502 0.949 . S
C1508 C1512 1.368 . S
C1509 C1490 1.429 . S
C1509 C1503 1.429 . S
C1509 C1510 1.523 . S
C1510 C1491 1.368 . S
C1510 C1504 1.368 . S
C1510 C1509 1.523 . S
C1511 C1495 1.429 . S
C1511 C1507 1.429 . S
C1511 C1512 1.523 . S
C1512 C1496 1.368 . S
C1512 C1508 1.368 . S
C1512 C1511 1.523 . S
H1513 C1488 0.950 . S
H1514 C1490 0.950 . S
H1515 C1491 0.949 . S
H1516 C1493 0.950 . S
H1517 C1495 0.950 . S
C1518 C1519 1.349 . S
C1518 C1520 1.327 . S
C1518 H1543 0.950 . S
C1519 C1518 1.349 . S
C1519 C1535 1.349 . S
C1520 C1518 1.327 . S
C1520 C1539 1.429 . S
C1520 H1544 0.950 . S
C1521 C1538 1.574 . S
C1521 C1540 1.368 . S
C1521 H1545 0.949 . S
H1522 C1526 0.949 . S
C1523 C1524 1.349 . S
C1523 C1525 1.327 . S
C1523 H1546 0.950 . S
C1524 C1523 1.349 . S
C1524 C1536 1.349 . S
C1525 C1523 1.327 . S
C1525 C1541 1.429 . S
C1525 H1547 0.950 . S
C1526 H1522 0.949 . S
C1526 C1534 1.574 . S
C1526 C1542 1.368 . S
H1527 C1535 0.950 . S
H1528 C1533 0.950 . S
H1529 C1534 0.949 . S
H1530 C1536 0.950 . S
H1531 C1537 0.950 . S
H1532 C1538 0.949 . S
C1533 H1528 0.950 . S
C1533 C1535 1.327 . S
C1533 C1539 1.429 . S
C1534 C1526 1.574 . S
C1534 H1529 0.949 . S
C1534 C1540 1.368 . S
C1535 C1519 1.349 . S
C1535 H1527 0.950 . S
C1535 C1533 1.327 . S
C1536 C1524 1.349 . S
C1536 H1530 0.950 . S
C1536 C1537 1.327 . S
C1537 H1531 0.950 . S
C1537 C1536 1.327 . S
C1537 C1541 1.429 . S
C1538 C1521 1.574 . S
C1538 H1532 0.949 . S
C1538 C1542 1.368 . S
C1539 C1520 1.429 . S
C1539 C1533 1.429 . S
C1539 C1540 1.523 . S
C1540 C1521 1.368 . S
C1540 C1534 1.368 . S
C1540 C1539 1.523 . S
C1541 C1525 1.429 . S
C1541 C1537 1.429 . S
C1541 C1542 1.523 . S
C1542 C1526 1.368 . S
C1542 C1538 1.368 . S
C1542 C1541 1.523 . S
H1543 C1518 0.950 . S
H1544 C1520 0.950 . S
H1545 C1521 0.949 . S
H1546 C1523 0.950 . S
H1547 C1525 0.950 . S
C1548 C1549 1.349 . S
C1548 C1550 1.327 . S
C1548 H1573 0.950 . S
C1549 C1548 1.349 . S
C1549 C1565 1.349 . S
C1550 C1548 1.327 . S
C1550 C1569 1.429 . S
C1550 H1574 0.950 . S
C1551 C1568 1.574 . S
C1551 C1570 1.368 . S
C1551 H1575 0.949 . S
H1552 C1556 0.949 . S
C1553 C1554 1.349 . S
C1553 C1555 1.327 . S
C1553 H1576 0.950 . S
C1554 C1553 1.349 . S
C1554 C1566 1.349 . S
C1555 C1553 1.327 . S
C1555 C1571 1.429 . S
C1555 H1577 0.950 . S
C1556 H1552 0.949 . S
C1556 C1564 1.574 . S
C1556 C1572 1.368 . S
H1557 C1565 0.950 . S
H1558 C1563 0.950 . S
H1559 C1564 0.949 . S
H1560 C1566 0.950 . S
H1561 C1567 0.950 . S
H1562 C1568 0.949 . S
C1563 H1558 0.950 . S
C1563 C1565 1.327 . S
C1563 C1569 1.429 . S
C1564 C1556 1.574 . S
C1564 H1559 0.949 . S
C1564 C1570 1.368 . S
C1565 C1549 1.349 . S
C1565 H1557 0.950 . S
C1565 C1563 1.327 . S
C1566 C1554 1.349 . S
C1566 H1560 0.950 . S
C1566 C1567 1.327 . S
C1567 H1561 0.950 . S
C1567 C1566 1.327 . S
C1567 C1571 1.429 . S
C1568 C1551 1.574 . S
C1568 H1562 0.949 . S
C1568 C1572 1.368 . S
C1569 C1550 1.429 . S
C1569 C1563 1.429 . S
C1569 C1570 1.523 . S
C1570 C1551 1.368 . S
C1570 C1564 1.368 . S
C1570 C1569 1.523 . S
C1571 C1555 1.429 . S
C1571 C1567 1.429 . S
C1571 C1572 1.523 . S
C1572 C1556 1.368 . S
C1572 C1568 1.368 . S
C1572 C1571 1.523 . S
H1573 C1548 0.950 . S
H1574 C1550 0.950 . S
H1575 C1551 0.949 . S
H1576 C1553 0.950 . S
H1577 C1555 0.950 . S
C1578 C1579 1.349 . S
C1578 C1580 1.327 . S
C1578 H1603 0.950 . S
C1579 C1578 1.349 . S
C1579 C1595 1.349 . S
C1580 C1578 1.327 . S
C1580 C1599 1.429 . S
C1580 H1604 0.950 . S
C1581 C1598 1.574 . S
C1581 C1600 1.368 . S
C1581 H1605 0.949 . S
H1582 C1586 0.949 . S
C1583 C1584 1.349 . S
C1583 C1585 1.327 . S
C1583 H1606 0.950 . S
C1584 C1583 1.349 . S
C1584 C1596 1.349 . S
C1585 C1583 1.327 . S
C1585 C1601 1.429 . S
C1585 H1607 0.950 . S
C1586 H1582 0.949 . S
C1586 C1594 1.574 . S
C1586 C1602 1.368 . S
H1587 C1595 0.950 . S
H1588 C1593 0.950 . S
H1589 C1594 0.949 . S
H1590 C1596 0.950 . S
H1591 C1597 0.950 . S
H1592 C1598 0.949 . S
C1593 H1588 0.950 . S
C1593 C1595 1.327 . S
C1593 C1599 1.429 . S
C1594 C1586 1.574 . S
C1594 H1589 0.949 . S
C1594 C1600 1.368 . S
C1595 C1579 1.349 . S
C1595 H1587 0.950 . S
C1595 C1593 1.327 . S
C1596 C1584 1.349 . S
C1596 H1590 0.950 . S
C1596 C1597 1.327 . S
C1597 H1591 0.950 . S
C1597 C1596 1.327 . S
C1597 C1601 1.429 . S
C1598 C1581 1.574 . S
C1598 H1592 0.949 . S
C1598 C1602 1.368 . S
C1599 C1580 1.429 . S
C1599 C1593 1.429 . S
C1599 C1600 1.523 . S
C1600 C1581 1.368 . S
C1600 C1594 1.368 . S
C1600 C1599 1.523 . S
C1601 C1585 1.429 . S
C1601 C1597 1.429 . S
C1601 C1602 1.523 . S
C1602 C1586 1.368 . S
C1602 C1598 1.368 . S
C1602 C1601 1.523 . S
H1603 C1578 0.950 . S
H1604 C1580 0.950 . S
H1605 C1581 0.949 . S
H1606 C1583 0.950 . S
H1607 C1585 0.950 . S
C1608 C1609 1.349 . S
C1608 C1610 1.327 . S
C1608 H1633 0.950 . S
C1609 C1608 1.349 . S
C1609 C1625 1.349 . S
C1610 C1608 1.327 . S
C1610 C1629 1.429 . S
C1610 H1634 0.950 . S
C1611 C1628 1.574 . S
C1611 C1630 1.368 . S
C1611 H1635 0.949 . S
H1612 C1616 0.949 . S
C1613 C1614 1.349 . S
C1613 C1615 1.327 . S
C1613 H1636 0.950 . S
C1614 C1613 1.349 . S
C1614 C1626 1.349 . S
C1615 C1613 1.327 . S
C1615 C1631 1.429 . S
C1615 H1637 0.950 . S
C1616 H1612 0.949 . S
C1616 C1624 1.574 . S
C1616 C1632 1.368 . S
H1617 C1625 0.950 . S
H1618 C1623 0.950 . S
H1619 C1624 0.949 . S
H1620 C1626 0.950 . S
H1621 C1627 0.950 . S
H1622 C1628 0.949 . S
C1623 H1618 0.950 . S
C1623 C1625 1.327 . S
C1623 C1629 1.429 . S
C1624 C1616 1.574 . S
C1624 H1619 0.949 . S
C1624 C1630 1.368 . S
C1625 C1609 1.349 . S
C1625 H1617 0.950 . S
C1625 C1623 1.327 . S
C1626 C1614 1.349 . S
C1626 H1620 0.950 . S
C1626 C1627 1.327 . S
C1627 H1621 0.950 . S
C1627 C1626 1.327 . S
C1627 C1631 1.429 . S
C1628 C1611 1.574 . S
C1628 H1622 0.949 . S
C1628 C1632 1.368 . S
C1629 C1610 1.429 . S
C1629 C1623 1.429 . S
C1629 C1630 1.523 . S
C1630 C1611 1.368 . S
C1630 C1624 1.368 . S
C1630 C1629 1.523 . S
C1631 C1615 1.429 . S
C1631 C1627 1.429 . S
C1631 C1632 1.523 . S
C1632 C1616 1.368 . S
C1632 C1628 1.368 . S
C1632 C1631 1.523 . S
H1633 C1608 0.950 . S
H1634 C1610 0.950 . S
H1635 C1611 0.949 . S
H1636 C1613 0.950 . S
H1637 C1615 0.950 . S
C1638 C1639 1.349 . S
C1638 C1640 1.327 . S
C1638 H1663 0.950 . S
C1639 C1638 1.349 . S
C1639 C1655 1.349 . S
C1640 C1638 1.327 . S
C1640 C1659 1.429 . S
C1640 H1664 0.950 . S
C1641 C1658 1.574 . S
C1641 C1660 1.368 . S
C1641 H1665 0.949 . S
H1642 C1646 0.949 . S
C1643 C1644 1.349 . S
C1643 C1645 1.327 . S
C1643 H1666 0.950 . S
C1644 C1643 1.349 . S
C1644 C1656 1.349 . S
C1645 C1643 1.327 . S
C1645 C1661 1.429 . S
C1645 H1667 0.950 . S
C1646 H1642 0.949 . S
C1646 C1654 1.574 . S
C1646 C1662 1.368 . S
H1647 C1655 0.950 . S
H1648 C1653 0.950 . S
H1649 C1654 0.949 . S
H1650 C1656 0.950 . S
H1651 C1657 0.950 . S
H1652 C1658 0.949 . S
C1653 H1648 0.950 . S
C1653 C1655 1.327 . S
C1653 C1659 1.429 . S
C1654 C1646 1.574 . S
C1654 H1649 0.949 . S
C1654 C1660 1.368 . S
C1655 C1639 1.349 . S
C1655 H1647 0.950 . S
C1655 C1653 1.327 . S
C1656 C1644 1.349 . S
C1656 H1650 0.950 . S
C1656 C1657 1.327 . S
C1657 H1651 0.950 . S
C1657 C1656 1.327 . S
C1657 C1661 1.429 . S
C1658 C1641 1.574 . S
C1658 H1652 0.949 . S
C1658 C1662 1.368 . S
C1659 C1640 1.429 . S
C1659 C1653 1.429 . S
C1659 C1660 1.523 . S
C1660 C1641 1.368 . S
C1660 C1654 1.368 . S
C1660 C1659 1.523 . S
C1661 C1645 1.429 . S
C1661 C1657 1.429 . S
C1661 C1662 1.523 . S
C1662 C1646 1.368 . S
C1662 C1658 1.368 . S
C1662 C1661 1.523 . S
H1663 C1638 0.950 . S
H1664 C1640 0.950 . S
H1665 C1641 0.949 . S
H1666 C1643 0.950 . S
H1667 C1645 0.950 . S
C1668 C1669 1.349 . S
C1668 C1670 1.327 . S
C1668 H1693 0.950 . S
C1669 C1668 1.349 . S
C1669 C1685 1.349 . S
C1670 C1668 1.327 . S
C1670 C1689 1.429 . S
C1670 H1694 0.950 . S
C1671 C1688 1.574 . S
C1671 C1690 1.368 . S
C1671 H1695 0.949 . S
H1672 C1676 0.949 . S
C1673 C1674 1.349 . S
C1673 C1675 1.327 . S
C1673 H1696 0.950 . S
C1674 C1673 1.349 . S
C1674 C1686 1.349 . S
C1675 C1673 1.327 . S
C1675 C1691 1.429 . S
C1675 H1697 0.950 . S
C1676 H1672 0.949 . S
C1676 C1684 1.574 . S
C1676 C1692 1.368 . S
H1677 C1685 0.950 . S
H1678 C1683 0.950 . S
H1679 C1684 0.949 . S
H1680 C1686 0.950 . S
H1681 C1687 0.950 . S
H1682 C1688 0.949 . S
C1683 H1678 0.950 . S
C1683 C1685 1.327 . S
C1683 C1689 1.429 . S
C1684 C1676 1.574 . S
C1684 H1679 0.949 . S
C1684 C1690 1.368 . S
C1685 C1669 1.349 . S
C1685 H1677 0.950 . S
C1685 C1683 1.327 . S
C1686 C1674 1.349 . S
C1686 H1680 0.950 . S
C1686 C1687 1.327 . S
C1687 H1681 0.950 . S
C1687 C1686 1.327 . S
C1687 C1691 1.429 . S
C1688 C1671 1.574 . S
C1688 H1682 0.949 . S
C1688 C1692 1.368 . S
C1689 C1670 1.429 . S
C1689 C1683 1.429 . S
C1689 C1690 1.523 . S
C1690 C1671 1.368 . S
C1690 C1684 1.368 . S
C1690 C1689 1.523 . S
C1691 C1675 1.429 . S
C1691 C1687 1.429 . S
C1691 C1692 1.523 . S
C1692 C1676 1.368 . S
C1692 C1688 1.368 . S
C1692 C1691 1.523 . S
H1693 C1668 0.950 . S
H1694 C1670 0.950 . S
H1695 C1671 0.949 . S
H1696 C1673 0.950 . S
H1697 C1675 0.950 . S
C1698 C1699 1.349 . S
C1698 C1700 1.327 . S
C1698 H1723 0.950 . S
C1699 C1698 1.349 . S
C1699 C1715 1.349 . S
C1700 C1698 1.327 . S
C1700 C1719 1.429 . S
C1700 H1724 0.950 . S
C1701 C1718 1.574 . S
C1701 C1720 1.368 . S
C1701 H1725 0.949 . S
H1702 C1706 0.949 . S
C1703 C1704 1.349 . S
C1703 C1705 1.327 . S
C1703 H1726 0.950 . S
C1704 C1703 1.349 . S
C1704 C1716 1.349 . S
C1705 C1703 1.327 . S
C1705 C1721 1.429 . S
C1705 H1727 0.950 . S
C1706 H1702 0.949 . S
C1706 C1714 1.574 . S
C1706 C1722 1.368 . S
H1707 C1715 0.950 . S
H1708 C1713 0.950 . S
H1709 C1714 0.949 . S
H1710 C1716 0.950 . S
H1711 C1717 0.950 . S
H1712 C1718 0.949 . S
C1713 H1708 0.950 . S
C1713 C1715 1.327 . S
C1713 C1719 1.429 . S
C1714 C1706 1.574 . S
C1714 H1709 0.949 . S
C1714 C1720 1.368 . S
C1715 C1699 1.349 . S
C1715 H1707 0.950 . S
C1715 C1713 1.327 . S
C1716 C1704 1.349 . S
C1716 H1710 0.950 . S
C1716 C1717 1.327 . S
C1717 H1711 0.950 . S
C1717 C1716 1.327 . S
C1717 C1721 1.429 . S
C1718 C1701 1.574 . S
C1718 H1712 0.949 . S
C1718 C1722 1.368 . S
C1719 C1700 1.429 . S
C1719 C1713 1.429 . S
C1719 C1720 1.523 . S
C1720 C1701 1.368 . S
C1720 C1714 1.368 . S
C1720 C1719 1.523 . S
C1721 C1705 1.429 . S
C1721 C1717 1.429 . S
C1721 C1722 1.523 . S
C1722 C1706 1.368 . S
C1722 C1718 1.368 . S
C1722 C1721 1.523 . S
H1723 C1698 0.950 . S
H1724 C1700 0.950 . S
H1725 C1701 0.949 . S
H1726 C1703 0.950 . S
H1727 C1705 0.950 . S
C1728 C1729 1.349 . S
C1728 C1730 1.327 . S
C1728 H1753 0.950 . S
C1729 C1728 1.349 . S
C1729 C1745 1.349 . S
C1730 C1728 1.327 . S
C1730 C1749 1.429 . S
C1730 H1754 0.950 . S
C1731 C1748 1.574 . S
C1731 C1750 1.368 . S
C1731 H1755 0.949 . S
H1732 C1736 0.949 . S
C1733 C1734 1.349 . S
C1733 C1735 1.327 . S
C1733 H1756 0.950 . S
C1734 C1733 1.349 . S
C1734 C1746 1.349 . S
C1735 C1733 1.327 . S
C1735 C1751 1.429 . S
C1735 H1757 0.950 . S
C1736 H1732 0.949 . S
C1736 C1744 1.574 . S
C1736 C1752 1.368 . S
H1737 C1745 0.950 . S
H1738 C1743 0.950 . S
H1739 C1744 0.949 . S
H1740 C1746 0.950 . S
H1741 C1747 0.950 . S
H1742 C1748 0.949 . S
C1743 H1738 0.950 . S
C1743 C1745 1.327 . S
C1743 C1749 1.429 . S
C1744 C1736 1.574 . S
C1744 H1739 0.949 . S
C1744 C1750 1.368 . S
C1745 C1729 1.349 . S
C1745 H1737 0.950 . S
C1745 C1743 1.327 . S
C1746 C1734 1.349 . S
C1746 H1740 0.950 . S
C1746 C1747 1.327 . S
C1747 H1741 0.950 . S
C1747 C1746 1.327 . S
C1747 C1751 1.429 . S
C1748 C1731 1.574 . S
C1748 H1742 0.949 . S
C1748 C1752 1.368 . S
C1749 C1730 1.429 . S
C1749 C1743 1.429 . S
C1749 C1750 1.523 . S
C1750 C1731 1.368 . S
C1750 C1744 1.368 . S
C1750 C1749 1.523 . S
C1751 C1735 1.429 . S
C1751 C1747 1.429 . S
C1751 C1752 1.523 . S
C1752 C1736 1.368 . S
C1752 C1748 1.368 . S
C1752 C1751 1.523 . S
H1753 C1728 0.950 . S
H1754 C1730 0.950 . S
H1755 C1731 0.949 . S
H1756 C1733 0.950 . S
H1757 C1735 0.950 . S
C1758 C1759 1.349 . S
C1758 C1760 1.327 . S
C1758 H1783 0.950 . S
C1759 C1758 1.349 . S
C1759 C1775 1.349 . S
C1760 C1758 1.327 . S
C1760 C1779 1.429 . S
C1760 H1784 0.950 . S
C1761 C1778 1.574 . S
C1761 C1780 1.368 . S
C1761 H1785 0.949 . S
H1762 C1766 0.949 . S
C1763 C1764 1.349 . S
C1763 C1765 1.327 . S
C1763 H1786 0.950 . S
C1764 C1763 1.349 . S
C1764 C1776 1.349 . S
C1765 C1763 1.327 . S
C1765 C1781 1.429 . S
C1765 H1787 0.950 . S
C1766 H1762 0.949 . S
C1766 C1774 1.574 . S
C1766 C1782 1.368 . S
H1767 C1775 0.950 . S
H1768 C1773 0.950 . S
H1769 C1774 0.949 . S
H1770 C1776 0.950 . S
H1771 C1777 0.950 . S
H1772 C1778 0.949 . S
C1773 H1768 0.950 . S
C1773 C1775 1.327 . S
C1773 C1779 1.429 . S
C1774 C1766 1.574 . S
C1774 H1769 0.949 . S
C1774 C1780 1.368 . S
C1775 C1759 1.349 . S
C1775 H1767 0.950 . S
C1775 C1773 1.327 . S
C1776 C1764 1.349 . S
C1776 H1770 0.950 . S
C1776 C1777 1.327 . S
C1777 H1771 0.950 . S
C1777 C1776 1.327 . S
C1777 C1781 1.429 . S
C1778 C1761 1.574 . S
C1778 H1772 0.949 . S
C1778 C1782 1.368 . S
C1779 C1760 1.429 . S
C1779 C1773 1.429 . S
C1779 C1780 1.523 . S
C1780 C1761 1.368 . S
C1780 C1774 1.368 . S
C1780 C1779 1.523 . S
C1781 C1765 1.429 . S
C1781 C1777 1.429 . S
C1781 C1782 1.523 . S
C1782 C1766 1.368 . S
C1782 C1778 1.368 . S
C1782 C1781 1.523 . S
H1783 C1758 0.950 . S
H1784 C1760 0.950 . S
H1785 C1761 0.949 . S
H1786 C1763 0.950 . S
H1787 C1765 0.950 . S
C1788 C1789 1.349 . S
C1788 C1790 1.327 . S
C1788 H1813 0.950 . S
C1789 C1788 1.349 . S
C1789 C1805 1.349 . S
C1790 C1788 1.327 . S
C1790 C1809 1.429 . S
C1790 H1814 0.950 . S
C1791 C1808 1.574 . S
C1791 C1810 1.368 . S
C1791 H1815 0.949 . S
H1792 C1796 0.949 . S
C1793 C1794 1.349 . S
C1793 C1795 1.327 . S
C1793 H1816 0.950 . S
C1794 C1793 1.349 . S
C1794 C1806 1.349 . S
C1795 C1793 1.327 . S
C1795 C1811 1.429 . S
C1795 H1817 0.950 . S
C1796 H1792 0.949 . S
C1796 C1804 1.574 . S
C1796 C1812 1.368 . S
H1797 C1805 0.950 . S
H1798 C1803 0.950 . S
H1799 C1804 0.949 . S
H1800 C1806 0.950 . S
H1801 C1807 0.950 . S
H1802 C1808 0.949 . S
C1803 H1798 0.950 . S
C1803 C1805 1.327 . S
C1803 C1809 1.429 . S
C1804 C1796 1.574 . S
C1804 H1799 0.949 . S
C1804 C1810 1.368 . S
C1805 C1789 1.349 . S
C1805 H1797 0.950 . S
C1805 C1803 1.327 . S
C1806 C1794 1.349 . S
C1806 H1800 0.950 . S
C1806 C1807 1.327 . S
C1807 H1801 0.950 . S
C1807 C1806 1.327 . S
C1807 C1811 1.429 . S
C1808 C1791 1.574 . S
C1808 H1802 0.949 . S
C1808 C1812 1.368 . S
C1809 C1790 1.429 . S
C1809 C1803 1.429 . S
C1809 C1810 1.523 . S
C1810 C1791 1.368 . S
C1810 C1804 1.368 . S
C1810 C1809 1.523 . S
C1811 C1795 1.429 . S
C1811 C1807 1.429 . S
C1811 C1812 1.523 . S
C1812 C1796 1.368 . S
C1812 C1808 1.368 . S
C1812 C1811 1.523 . S
H1813 C1788 0.950 . S
H1814 C1790 0.950 . S
H1815 C1791 0.949 . S
H1816 C1793 0.950 . S
H1817 C1795 0.950 . S
C1818 C1819 1.349 . S
C1818 C1820 1.327 . S
C1818 H1843 0.950 . S
C1819 C1818 1.349 . S
C1819 C1835 1.349 . S
C1820 C1818 1.327 . S
C1820 C1839 1.429 . S
C1820 H1844 0.950 . S
C1821 C1838 1.574 . S
C1821 C1840 1.368 . S
C1821 H1845 0.949 . S
H1822 C1826 0.949 . S
C1823 C1824 1.349 . S
C1823 C1825 1.327 . S
C1823 H1846 0.950 . S
C1824 C1823 1.349 . S
C1824 C1836 1.349 . S
C1825 C1823 1.327 . S
C1825 C1841 1.429 . S
C1825 H1847 0.950 . S
C1826 H1822 0.949 . S
C1826 C1834 1.574 . S
C1826 C1842 1.368 . S
H1827 C1835 0.950 . S
H1828 C1833 0.950 . S
H1829 C1834 0.949 . S
H1830 C1836 0.950 . S
H1831 C1837 0.950 . S
H1832 C1838 0.949 . S
C1833 H1828 0.950 . S
C1833 C1835 1.327 . S
C1833 C1839 1.429 . S
C1834 C1826 1.574 . S
C1834 H1829 0.949 . S
C1834 C1840 1.368 . S
C1835 C1819 1.349 . S
C1835 H1827 0.950 . S
C1835 C1833 1.327 . S
C1836 C1824 1.349 . S
C1836 H1830 0.950 . S
C1836 C1837 1.327 . S
C1837 H1831 0.950 . S
C1837 C1836 1.327 . S
C1837 C1841 1.429 . S
C1838 C1821 1.574 . S
C1838 H1832 0.949 . S
C1838 C1842 1.368 . S
C1839 C1820 1.429 . S
C1839 C1833 1.429 . S
C1839 C1840 1.523 . S
C1840 C1821 1.368 . S
C1840 C1834 1.368 . S
C1840 C1839 1.523 . S
C1841 C1825 1.429 . S
C1841 C1837 1.429 . S
C1841 C1842 1.523 . S
C1842 C1826 1.368 . S
C1842 C1838 1.368 . S
C1842 C1841 1.523 . S
H1843 C1818 0.950 . S
H1844 C1820 0.950 . S
H1845 C1821 0.949 . S
H1846 C1823 0.950 . S
H1847 C1825 0.950 . S
C1848 C1849 1.349 . S
C1848 C1850 1.327 . S
C1848 H1873 0.950 . S
C1849 C1848 1.349 . S
C1849 C1865 1.349 . S
C1850 C1848 1.327 . S
C1850 C1869 1.429 . S
C1850 H1874 0.950 . S
C1851 C1868 1.574 . S
C1851 C1870 1.368 . S
C1851 H1875 0.949 . S
H1852 C1856 0.949 . S
C1853 C1854 1.349 . S
C1853 C1855 1.327 . S
C1853 H1876 0.950 . S
C1854 C1853 1.349 . S
C1854 C1866 1.349 . S
C1855 C1853 1.327 . S
C1855 C1871 1.429 . S
C1855 H1877 0.950 . S
C1856 H1852 0.949 . S
C1856 C1864 1.574 . S
C1856 C1872 1.368 . S
H1857 C1865 0.950 . S
H1858 C1863 0.950 . S
H1859 C1864 0.949 . S
H1860 C1866 0.950 . S
H1861 C1867 0.950 . S
H1862 C1868 0.949 . S
C1863 H1858 0.950 . S
C1863 C1865 1.327 . S
C1863 C1869 1.429 . S
C1864 C1856 1.574 . S
C1864 H1859 0.949 . S
C1864 C1870 1.368 . S
C1865 C1849 1.349 . S
C1865 H1857 0.950 . S
C1865 C1863 1.327 . S
C1866 C1854 1.349 . S
C1866 H1860 0.950 . S
C1866 C1867 1.327 . S
C1867 H1861 0.950 . S
C1867 C1866 1.327 . S
C1867 C1871 1.429 . S
C1868 C1851 1.574 . S
C1868 H1862 0.949 . S
C1868 C1872 1.368 . S
C1869 C1850 1.429 . S
C1869 C1863 1.429 . S
C1869 C1870 1.523 . S
C1870 C1851 1.368 . S
C1870 C1864 1.368 . S
C1870 C1869 1.523 . S
C1871 C1855 1.429 . S
C1871 C1867 1.429 . S
C1871 C1872 1.523 . S
C1872 C1856 1.368 . S
C1872 C1868 1.368 . S
C1872 C1871 1.523 . S
H1873 C1848 0.950 . S
H1874 C1850 0.950 . S
H1875 C1851 0.949 . S
H1876 C1853 0.950 . S
H1877 C1855 0.950 . S
C1878 C1879 1.349 . S
C1878 C1880 1.327 . S
C1878 H1903 0.950 . S
C1879 C1878 1.349 . S
C1879 C1895 1.349 . S
C1880 C1878 1.327 . S
C1880 C1899 1.429 . S
C1880 H1904 0.950 . S
C1881 C1898 1.574 . S
C1881 C1900 1.368 . S
C1881 H1905 0.949 . S
H1882 C1886 0.949 . S
C1883 C1884 1.349 . S
C1883 C1885 1.327 . S
C1883 H1906 0.950 . S
C1884 C1883 1.349 . S
C1884 C1896 1.349 . S
C1885 C1883 1.327 . S
C1885 C1901 1.429 . S
C1885 H1907 0.950 . S
C1886 H1882 0.949 . S
C1886 C1894 1.574 . S
C1886 C1902 1.368 . S
H1887 C1895 0.950 . S
H1888 C1893 0.950 . S
H1889 C1894 0.949 . S
H1890 C1896 0.950 . S
H1891 C1897 0.950 . S
H1892 C1898 0.949 . S
C1893 H1888 0.950 . S
C1893 C1895 1.327 . S
C1893 C1899 1.429 . S
C1894 C1886 1.574 . S
C1894 H1889 0.949 . S
C1894 C1900 1.368 . S
C1895 C1879 1.349 . S
C1895 H1887 0.950 . S
C1895 C1893 1.327 . S
C1896 C1884 1.349 . S
C1896 H1890 0.950 . S
C1896 C1897 1.327 . S
C1897 H1891 0.950 . S
C1897 C1896 1.327 . S
C1897 C1901 1.429 . S
C1898 C1881 1.574 . S
C1898 H1892 0.949 . S
C1898 C1902 1.368 . S
C1899 C1880 1.429 . S
C1899 C1893 1.429 . S
C1899 C1900 1.523 . S
C1900 C1881 1.368 . S
C1900 C1894 1.368 . S
C1900 C1899 1.523 . S
C1901 C1885 1.429 . S
C1901 C1897 1.429 . S
C1901 C1902 1.523 . S
C1902 C1886 1.368 . S
C1902 C1898 1.368 . S
C1902 C1901 1.523 . S
H1903 C1878 0.950 . S
H1904 C1880 0.950 . S
H1905 C1881 0.949 . S
H1906 C1883 0.950 . S
H1907 C1885 0.950 . S
C1908 C1909 1.349 . S
C1908 C1910 1.327 . S
C1908 H1933 0.950 . S
C1909 C1908 1.349 . S
C1909 C1925 1.349 . S
C1910 C1908 1.327 . S
C1910 C1929 1.429 . S
C1910 H1934 0.950 . S
C1911 C1928 1.574 . S
C1911 C1930 1.368 . S
C1911 H1935 0.949 . S
H1912 C1916 0.949 . S
C1913 C1914 1.349 . S
C1913 C1915 1.327 . S
C1913 H1936 0.950 . S
C1914 C1913 1.349 . S
C1914 C1926 1.349 . S
C1915 C1913 1.327 . S
C1915 C1931 1.429 . S
C1915 H1937 0.950 . S
C1916 H1912 0.949 . S
C1916 C1924 1.574 . S
C1916 C1932 1.368 . S
H1917 C1925 0.950 . S
H1918 C1923 0.950 . S
H1919 C1924 0.949 . S
H1920 C1926 0.950 . S
H1921 C1927 0.950 . S
H1922 C1928 0.949 . S
C1923 H1918 0.950 . S
C1923 C1925 1.327 . S
C1923 C1929 1.429 . S
C1924 C1916 1.574 . S
C1924 H1919 0.949 . S
C1924 C1930 1.368 1_554 S
C1925 C1909 1.349 . S
C1925 H1917 0.950 . S
C1925 C1923 1.327 . S
C1926 C1914 1.349 . S
C1926 H1920 0.950 . S
C1926 C1927 1.327 . S
C1927 H1921 0.950 . S
C1927 C1926 1.327 . S
C1927 C1931 1.429 . S
C1928 C1911 1.574 . S
C1928 H1922 0.949 . S
C1928 C1932 1.368 1_556 S
C1929 C1910 1.429 . S
C1929 C1923 1.429 . S
C1929 C1930 1.523 . S
C1930 C1911 1.368 . S
C1930 C1924 1.368 1_556 S
C1930 C1929 1.523 . S
C1931 C1915 1.429 . S
C1931 C1927 1.429 . S
C1931 C1932 1.523 . S
C1932 C1916 1.368 . S
C1932 C1928 1.368 1_554 S
C1932 C1931 1.523 . S
H1933 C1908 0.950 . S
H1934 C1910 0.950 . S
H1935 C1911 0.949 . S
H1936 C1913 0.950 . S
H1937 C1915 0.950 . S
C1938 C1939 1.349 . S
C1938 C1940 1.327 . S
C1938 H1963 0.950 . S
C1939 C1938 1.349 . S
C1939 C1955 1.349 . S
C1940 C1938 1.327 . S
C1940 C1959 1.429 . S
C1940 H1964 0.950 . S
C1941 C1958 1.574 . S
C1941 C1960 1.368 1_655 S
C1941 H1965 0.949 . S
H1942 C1946 0.949 . S
C1943 C1944 1.349 . S
C1943 C1945 1.327 . S
C1943 H1966 0.950 . S
C1944 C1943 1.349 . S
C1944 C1956 1.349 . S
C1945 C1943 1.327 . S
C1945 C1961 1.429 . S
C1945 H1967 0.950 . S
C1946 H1942 0.949 . S
C1946 C1954 1.574 . S
C1946 C1962 1.368 1_455 S
H1947 C1955 0.950 . S
H1948 C1953 0.950 . S
H1949 C1954 0.949 . S
H1950 C1956 0.950 . S
H1951 C1957 0.950 . S
H1952 C1958 0.949 . S
C1953 H1948 0.950 . S
C1953 C1955 1.327 . S
C1953 C1959 1.429 . S
C1954 C1946 1.574 . S
C1954 H1949 0.949 . S
C1954 C1960 1.368 . S
C1955 C1939 1.349 . S
C1955 H1947 0.950 . S
C1955 C1953 1.327 . S
C1956 C1944 1.349 . S
C1956 H1950 0.950 . S
C1956 C1957 1.327 . S
C1957 H1951 0.950 . S
C1957 C1956 1.327 . S
C1957 C1961 1.429 . S
C1958 C1941 1.574 . S
C1958 H1952 0.949 . S
C1958 C1962 1.368 . S
C1959 C1940 1.429 . S
C1959 C1953 1.429 . S
C1959 C1960 1.523 . S
C1960 C1941 1.368 1_455 S
C1960 C1954 1.368 . S
C1960 C1959 1.523 . S
C1961 C1945 1.429 . S
C1961 C1957 1.429 . S
C1961 C1962 1.523 . S
C1962 C1946 1.368 1_655 S
C1962 C1958 1.368 . S
C1962 C1961 1.523 . S
H1963 C1938 0.950 . S
H1964 C1940 0.950 . S
H1965 C1941 0.949 . S
H1966 C1943 0.950 . S
H1967 C1945 0.950 . S
C1968 C1969 1.349 . S
C1968 C1970 1.327 . S
C1968 H1993 0.950 . S
C1969 C1968 1.349 . S
C1969 C1985 1.349 . S
C1970 C1968 1.327 . S
C1970 C1989 1.429 . S
C1970 H1994 0.950 . S
C1971 C1988 1.574 . S
C1971 C1990 1.368 1_545 S
C1971 H1995 0.949 . S
H1972 C1976 0.949 . S
C1973 C1974 1.349 . S
C1973 C1975 1.327 . S
C1973 H1996 0.950 . S
C1974 C1973 1.349 . S
C1974 C1986 1.349 . S
C1975 C1973 1.327 . S
C1975 C1991 1.429 . S
C1975 H1997 0.950 . S
C1976 H1972 0.949 . S
C1976 C1984 1.574 . S
C1976 C1992 1.368 1_565 S
H1977 C1985 0.950 . S
H1978 C1983 0.950 . S
H1979 C1984 0.949 . S
H1980 C1986 0.950 . S
H1981 C1987 0.950 . S
H1982 C1988 0.949 . S
C1983 H1978 0.950 . S
C1983 C1985 1.327 . S
C1983 C1989 1.429 . S
C1984 C1976 1.574 . S
C1984 H1979 0.949 . S
C1984 C1990 1.368 1_556 S
C1985 C1969 1.349 . S
C1985 H1977 0.950 . S
C1985 C1983 1.327 . S
C1986 C1974 1.349 . S
C1986 H1980 0.950 . S
C1986 C1987 1.327 . S
C1987 H1981 0.950 . S
C1987 C1986 1.327 . S
C1987 C1991 1.429 . S
C1988 C1971 1.574 . S
C1988 H1982 0.949 . S
C1988 C1992 1.368 1_554 S
C1989 C1970 1.429 . S
C1989 C1983 1.429 . S
C1989 C1990 1.523 . S
C1990 C1971 1.368 1_565 S
C1990 C1984 1.368 1_554 S
C1990 C1989 1.523 . S
C1991 C1975 1.429 . S
C1991 C1987 1.429 . S
C1991 C1992 1.523 . S
C1992 C1976 1.368 1_545 S
C1992 C1988 1.368 1_556 S
C1992 C1991 1.523 . S
H1993 C1968 0.950 . S
H1994 C1970 0.950 . S
H1995 C1971 0.949 . S
H1996 C1973 0.950 . S
H1997 C1975 0.950 . S
C1998 C1999 1.349 . S
C1998 C2000 1.327 . S
C1998 H2023 0.950 . S
C1999 C1998 1.349 . S
C1999 C2015 1.349 . S
C2000 C1998 1.327 . S
C2000 C2019 1.429 . S
C2000 H2024 0.950 . S
C2001 C2018 1.574 . S
C2001 C2020 1.368 . S
C2001 H2025 0.949 . S
H2002 C2006 0.949 . S
C2003 C2004 1.349 . S
C2003 C2005 1.327 . S
C2003 H2026 0.950 . S
C2004 C2003 1.349 . S
C2004 C2016 1.349 . S
C2005 C2003 1.327 . S
C2005 C2021 1.429 . S
C2005 H2027 0.950 . S
C2006 H2002 0.949 . S
C2006 C2014 1.574 . S
C2006 C2022 1.368 . S
H2007 C2015 0.950 . S
H2008 C2013 0.950 . S
H2009 C2014 0.949 . S
H2010 C2016 0.950 . S
H2011 C2017 0.950 . S
H2012 C2018 0.949 . S
C2013 H2008 0.950 . S
C2013 C2015 1.327 . S
C2013 C2019 1.429 . S
C2014 C2006 1.574 . S
C2014 H2009 0.949 . S
C2014 C2020 1.368 . S
C2015 C1999 1.349 . S
C2015 H2007 0.950 . S
C2015 C2013 1.327 . S
C2016 C2004 1.349 . S
C2016 H2010 0.950 . S
C2016 C2017 1.327 . S
C2017 H2011 0.950 . S
C2017 C2016 1.327 . S
C2017 C2021 1.429 . S
C2018 C2001 1.574 . S
C2018 H2012 0.949 . S
C2018 C2022 1.368 . S
C2019 C2000 1.429 . S
C2019 C2013 1.429 . S
C2019 C2020 1.523 . S
C2020 C2001 1.368 . S
C2020 C2014 1.368 . S
C2020 C2019 1.523 . S
C2021 C2005 1.429 . S
C2021 C2017 1.429 . S
C2021 C2022 1.523 . S
C2022 C2006 1.368 . S
C2022 C2018 1.368 . S
C2022 C2021 1.523 . S
H2023 C1998 0.950 . S
H2024 C2000 0.950 . S
H2025 C2001 0.949 . S
H2026 C2003 0.950 . S
H2027 C2005 0.950 . S
C2028 C2029 1.349 . S
C2028 C2030 1.327 . S
C2028 H2053 0.950 . S
C2029 C2028 1.349 . S
C2029 C2045 1.349 . S
C2030 C2028 1.327 . S
C2030 C2049 1.429 . S
C2030 H2054 0.950 . S
C2031 C2048 1.550 1_656 S
C2031 C2050 1.406 . S
C2031 H2055 0.938 . S
H2032 C2036 0.938 . S
C2033 C2034 1.349 . S
C2033 C2035 1.327 . S
C2033 H2056 0.950 . S
C2034 C2033 1.349 . S
C2034 C2046 1.349 . S
C2035 C2033 1.327 . S
C2035 C2051 1.429 . S
C2035 H2057 0.950 . S
C2036 H2032 0.938 . S
C2036 C2044 1.550 1_454 S
C2036 C2052 1.406 . S
H2037 C2045 0.950 . S
H2038 C2043 0.950 . S
H2039 C2044 0.949 . S
H2040 C2046 0.950 . S
H2041 C2047 0.950 . S
H2042 C2048 0.949 . S
C2043 H2038 0.950 . S
C2043 C2045 1.327 . S
C2043 C2049 1.429 . S
C2044 C2036 1.550 1_656 S
C2044 H2039 0.949 . S
C2044 C2050 1.368 . S
C2045 C2029 1.349 . S
C2045 H2037 0.950 . S
C2045 C2043 1.327 . S
C2046 C2034 1.349 . S
C2046 H2040 0.950 . S
C2046 C2047 1.327 . S
C2047 H2041 0.950 . S
C2047 C2046 1.327 . S
C2047 C2051 1.429 . S
C2048 C2031 1.550 1_454 S
C2048 H2042 0.949 . S
C2048 C2052 1.368 . S
C2049 C2030 1.429 . S
C2049 C2043 1.429 . S
C2049 C2050 1.523 . S
C2050 C2031 1.406 . S
C2050 C2044 1.368 . S
C2050 C2049 1.523 . S
C2051 C2035 1.429 . S
C2051 C2047 1.429 . S
C2051 C2052 1.523 . S
C2052 C2036 1.406 . S
C2052 C2048 1.368 . S
C2052 C2051 1.523 . S
H2053 C2028 0.950 . S
H2054 C2030 0.950 . S
H2055 C2031 0.938 . S
H2056 C2033 0.950 . S
H2057 C2035 0.950 . S
C2058 C2059 1.349 . S
C2058 C2060 1.327 . S
C2058 H2083 0.950 . S
C2059 C2058 1.349 . S
C2059 C2075 1.349 . S
C2060 C2058 1.327 . S
C2060 C2079 1.429 . S
C2060 H2084 0.950 . S
C2061 C2078 1.574 1_565 S
C2061 C2080 1.368 . S
C2061 H2085 0.949 . S
H2062 C2066 0.949 . S
C2063 C2064 1.349 . S
C2063 C2065 1.327 . S
C2063 H2086 0.950 . S
C2064 C2063 1.349 . S
C2064 C2076 1.349 . S
C2065 C2063 1.327 . S
C2065 C2081 1.429 . S
C2065 H2087 0.950 . S
C2066 H2062 0.949 . S
C2066 C2074 1.574 1_545 S
C2066 C2082 1.368 . S
H2067 C2075 0.950 . S
H2068 C2073 0.950 . S
H2069 C2074 0.949 . S
H2070 C2076 0.950 . S
H2071 C2077 0.950 . S
H2072 C2078 0.949 . S
C2073 H2068 0.950 . S
C2073 C2075 1.327 . S
C2073 C2079 1.429 . S
C2074 C2066 1.574 1_565 S
C2074 H2069 0.949 . S
C2074 C2080 1.368 . S
C2075 C2059 1.349 . S
C2075 H2067 0.950 . S
C2075 C2073 1.327 . S
C2076 C2064 1.349 . S
C2076 H2070 0.950 . S
C2076 C2077 1.327 . S
C2077 H2071 0.950 . S
C2077 C2076 1.327 . S
C2077 C2081 1.429 . S
C2078 C2061 1.574 1_545 S
C2078 H2072 0.949 . S
C2078 C2082 1.368 . S
C2079 C2060 1.429 . S
C2079 C2073 1.429 . S
C2079 C2080 1.523 . S
C2080 C2061 1.368 . S
C2080 C2074 1.368 . S
C2080 C2079 1.523 . S
C2081 C2065 1.429 . S
C2081 C2077 1.429 . S
C2081 C2082 1.523 . S
C2082 C2066 1.368 . S
C2082 C2078 1.368 . S
C2082 C2081 1.523 . S
H2083 C2058 0.950 . S
H2084 C2060 0.950 . S
H2085 C2061 0.949 . S
H2086 C2063 0.950 . S
H2087 C2065 0.950 . S
C1009 C403 1.330 . S
C1014 C58 1.178 . S
C1039 C487 1.330 . S
C1044 C142 1.178 . S
C1069 C226 1.178 . S
C1074 C67 1.330 . S
C1099 C310 1.178 . S
C1104 C151 1.330 . S
C1129 C394 1.178 . S
C1134 C235 1.330 . S
C1159 C319 1.330 . S
C1164 C478 1.178 . S
C1189 C739 1.330 . S
C1194 C562 1.178 . S
C1219 C646 1.178 . S
C1224 C823 1.330 . S
C1249 C907 1.330 . S
C1254 C730 1.178 . S
C1279 C814 1.178 . S
C1284 C991 1.330 . S
C1309 C898 1.178 . S
C1314 C571 1.330 . S
C1339 C655 1.330 . S
C1344 C982 1.178 . S
C1369 C392 1.422 . S
C1374 C69 1.271 . S
C1399 C153 1.271 . S
C1404 C476 1.422 . S
C1429 C237 1.271 . S
C1434 C56 1.422 . S
C1459 C321 1.271 . S
C1464 C140 1.422 . S
C1489 C224 1.422 . S
C1494 C405 1.271 . S
C1519 C308 1.422 . S
C1524 C489 1.271 . S
C1549 C728 1.422 . S
C1554 C573 1.271 . S
C1579 C657 1.271 . S
C1584 C812 1.422 . S
C1609 C741 1.271 . S
C1614 C896 1.422 . S
C1639 C980 1.422 . S
C1644 C825 1.271 . S
C1669 C909 1.271 . S
C1674 C560 1.422 . S
C1699 C644 1.422 . S
C1704 C993 1.271 . S
C1729 C914 1.826 . S
C1734 C74 1.826 . S
C1759 C158 1.826 . S
C1764 C998 1.826 . S
C1789 C242 1.826 . S
C1794 C578 1.826 . S
C1819 C326 1.826 . S
C1824 C662 1.826 . S
C1849 C410 1.826 . S
C1854 C746 1.826 . S
C1879 C830 1.826 . S
C1884 C494 1.826 . S
C1909 C819 1.930 . S
C1914 C63 1.930 . S
C1939 C903 1.931 . S
C1944 C147 1.931 . S
C1969 C231 1.931 . S
C1974 C987 1.931 . S
C1999 C315 1.930 . S
C2004 C567 1.930 . S
C2029 C651 1.931 . S
C2034 C399 1.931 . S
C2059 C735 1.931 . S
C2064 C483 1.931 . S
