# Generated by pormake.
# Topology mer, (4)-cn, num edge types: 1
# Building blocks:
#     Node 0, Type 0, BuildingBlock: AZAVOO_clean_sbu_0, # of connection points: 4
#     Node 1, Type 0, BuildingBlock: AZAVOO_clean_sbu_0, # of connection points: 4
#     Node 2, Type 0, BuildingBlock: AZAVOO_clean_sbu_0, # of connection points: 4
#     Node 3, Type 0, BuildingBlock: AZAVOO_clean_sbu_0, # of connection points: 4
#     Node 4, Type 0, BuildingBlock: AZAVOO_clean_sbu_0, # of connection points: 4
#     Node 5, Type 0, BuildingBlock: AZAVOO_clean_sbu_0, # of connection points: 4
#     Node 6, Type 0, BuildingBlock: AZAVOO_clean_sbu_0, # of connection points: 4
#     Node 7, Type 0, BuildingBlock: AZAVOO_clean_sbu_0, # of connection points: 4
#     Node 8, Type 0, BuildingBlock: AZAVOO_clean_sbu_0, # of connection points: 4
#     Node 9, Type 0, BuildingBlock: AZAVOO_clean_sbu_0, # of connection points: 4
#     Node 10, Type 0, BuildingBlock: AZAVOO_clean_sbu_0, # of connection points: 4
#     Node 11, Type 0, BuildingBlock: AZAVOO_clean_sbu_0, # of connection points: 4
#     Node 12, Type 0, BuildingBlock: AZAVOO_clean_sbu_0, # of connection points: 4
#     Node 13, Type 0, BuildingBlock: AZAVOO_clean_sbu_0, # of connection points: 4
#     Node 14, Type 0, BuildingBlock: AZAVOO_clean_sbu_0, # of connection points: 4
#     Node 15, Type 0, BuildingBlock: AZAVOO_clean_sbu_0, # of connection points: 4
#     Node 16, Type 0, BuildingBlock: AZAVOO_clean_sbu_0, # of connection points: 4
#     Node 17, Type 0, BuildingBlock: AZAVOO_clean_sbu_0, # of connection points: 4
#     Node 18, Type 0, BuildingBlock: AZAVOO_clean_sbu_0, # of connection points: 4
#     Node 19, Type 0, BuildingBlock: AZAVOO_clean_sbu_0, # of connection points: 4
#     Node 20, Type 0, BuildingBlock: AZAVOO_clean_sbu_0, # of connection points: 4
#     Node 21, Type 0, BuildingBlock: AZAVOO_clean_sbu_0, # of connection points: 4
#     Node 22, Type 0, BuildingBlock: AZAVOO_clean_sbu_0, # of connection points: 4
#     Node 23, Type 0, BuildingBlock: AZAVOO_clean_sbu_0, # of connection points: 4
#     Node 24, Type 0, BuildingBlock: AZAVOO_clean_sbu_0, # of connection points: 4
#     Node 25, Type 0, BuildingBlock: AZAVOO_clean_sbu_0, # of connection points: 4
#     Node 26, Type 0, BuildingBlock: AZAVOO_clean_sbu_0, # of connection points: 4
#     Node 27, Type 0, BuildingBlock: AZAVOO_clean_sbu_0, # of connection points: 4
#     Node 28, Type 0, BuildingBlock: AZAVOO_clean_sbu_0, # of connection points: 4
#     Node 29, Type 0, BuildingBlock: AZAVOO_clean_sbu_0, # of connection points: 4
#     Node 30, Type 0, BuildingBlock: AZAVOO_clean_sbu_0, # of connection points: 4
#     Node 31, Type 0, BuildingBlock: AZAVOO_clean_sbu_0, # of connection points: 4
#     Edge 32, Type (0, 0), BuildingBlock: AJUNOK_clean_linker_0, # of connection points: 2
#     Edge 33, Type (0, 0), BuildingBlock: AJUNOK_clean_linker_0, # of connection points: 2
#     Edge 34, Type (0, 0), BuildingBlock: AJUNOK_clean_linker_0, # of connection points: 2
#     Edge 35, Type (0, 0), BuildingBlock: AJUNOK_clean_linker_0, # of connection points: 2
#     Edge 36, Type (0, 0), BuildingBlock: AJUNOK_clean_linker_0, # of connection points: 2
#     Edge 37, Type (0, 0), BuildingBlock: AJUNOK_clean_linker_0, # of connection points: 2
#     Edge 38, Type (0, 0), BuildingBlock: AJUNOK_clean_linker_0, # of connection points: 2
#     Edge 39, Type (0, 0), BuildingBlock: AJUNOK_clean_linker_0, # of connection points: 2
#     Edge 40, Type (0, 0), BuildingBlock: AJUNOK_clean_linker_0, # of connection points: 2
#     Edge 41, Type (0, 0), BuildingBlock: AJUNOK_clean_linker_0, # of connection points: 2
#     Edge 42, Type (0, 0), BuildingBlock: AJUNOK_clean_linker_0, # of connection points: 2
#     Edge 43, Type (0, 0), BuildingBlock: AJUNOK_clean_linker_0, # of connection points: 2
#     Edge 44, Type (0, 0), BuildingBlock: AJUNOK_clean_linker_0, # of connection points: 2
#     Edge 45, Type (0, 0), BuildingBlock: AJUNOK_clean_linker_0, # of connection points: 2
#     Edge 46, Type (0, 0), BuildingBlock: AJUNOK_clean_linker_0, # of connection points: 2
#     Edge 47, Type (0, 0), BuildingBlock: AJUNOK_clean_linker_0, # of connection points: 2
#     Edge 48, Type (0, 0), BuildingBlock: AJUNOK_clean_linker_0, # of connection points: 2
#     Edge 49, Type (0, 0), BuildingBlock: AJUNOK_clean_linker_0, # of connection points: 2
#     Edge 50, Type (0, 0), BuildingBlock: AJUNOK_clean_linker_0, # of connection points: 2
#     Edge 51, Type (0, 0), BuildingBlock: AJUNOK_clean_linker_0, # of connection points: 2
#     Edge 52, Type (0, 0), BuildingBlock: AJUNOK_clean_linker_0, # of connection points: 2
#     Edge 53, Type (0, 0), BuildingBlock: AJUNOK_clean_linker_0, # of connection points: 2
#     Edge 54, Type (0, 0), BuildingBlock: AJUNOK_clean_linker_0, # of connection points: 2
#     Edge 55, Type (0, 0), BuildingBlock: AJUNOK_clean_linker_0, # of connection points: 2
#     Edge 56, Type (0, 0), BuildingBlock: AJUNOK_clean_linker_0, # of connection points: 2
#     Edge 57, Type (0, 0), BuildingBlock: AJUNOK_clean_linker_0, # of connection points: 2
#     Edge 58, Type (0, 0), BuildingBlock: AJUNOK_clean_linker_0, # of connection points: 2
#     Edge 59, Type (0, 0), BuildingBlock: AJUNOK_clean_linker_0, # of connection points: 2
#     Edge 60, Type (0, 0), BuildingBlock: AJUNOK_clean_linker_0, # of connection points: 2
#     Edge 61, Type (0, 0), BuildingBlock: AJUNOK_clean_linker_0, # of connection points: 2
#     Edge 62, Type (0, 0), BuildingBlock: AJUNOK_clean_linker_0, # of connection points: 2
#     Edge 63, Type (0, 0), BuildingBlock: AJUNOK_clean_linker_0, # of connection points: 2
#     Edge 64, Type (0, 0), BuildingBlock: AJUNOK_clean_linker_0, # of connection points: 2
#     Edge 65, Type (0, 0), BuildingBlock: AJUNOK_clean_linker_0, # of connection points: 2
#     Edge 66, Type (0, 0), BuildingBlock: AJUNOK_clean_linker_0, # of connection points: 2
#     Edge 67, Type (0, 0), BuildingBlock: AJUNOK_clean_linker_0, # of connection points: 2
#     Edge 68, Type (0, 0), BuildingBlock: AJUNOK_clean_linker_0, # of connection points: 2
#     Edge 69, Type (0, 0), BuildingBlock: AJUNOK_clean_linker_0, # of connection points: 2
#     Edge 70, Type (0, 0), BuildingBlock: AJUNOK_clean_linker_0, # of connection points: 2
#     Edge 71, Type (0, 0), BuildingBlock: AJUNOK_clean_linker_0, # of connection points: 2
#     Edge 72, Type (0, 0), BuildingBlock: AJUNOK_clean_linker_0, # of connection points: 2
#     Edge 73, Type (0, 0), BuildingBlock: AJUNOK_clean_linker_0, # of connection points: 2
#     Edge 74, Type (0, 0), BuildingBlock: AJUNOK_clean_linker_0, # of connection points: 2
#     Edge 75, Type (0, 0), BuildingBlock: AJUNOK_clean_linker_0, # of connection points: 2
#     Edge 76, Type (0, 0), BuildingBlock: AJUNOK_clean_linker_0, # of connection points: 2
#     Edge 77, Type (0, 0), BuildingBlock: AJUNOK_clean_linker_0, # of connection points: 2
#     Edge 78, Type (0, 0), BuildingBlock: AJUNOK_clean_linker_0, # of connection points: 2
#     Edge 79, Type (0, 0), BuildingBlock: AJUNOK_clean_linker_0, # of connection points: 2
#     Edge 80, Type (0, 0), BuildingBlock: AJUNOK_clean_linker_0, # of connection points: 2
#     Edge 81, Type (0, 0), BuildingBlock: AJUNOK_clean_linker_0, # of connection points: 2
#     Edge 82, Type (0, 0), BuildingBlock: AJUNOK_clean_linker_0, # of connection points: 2
#     Edge 83, Type (0, 0), BuildingBlock: AJUNOK_clean_linker_0, # of connection points: 2
#     Edge 84, Type (0, 0), BuildingBlock: AJUNOK_clean_linker_0, # of connection points: 2
#     Edge 85, Type (0, 0), BuildingBlock: AJUNOK_clean_linker_0, # of connection points: 2
#     Edge 86, Type (0, 0), BuildingBlock: AJUNOK_clean_linker_0, # of connection points: 2
#     Edge 87, Type (0, 0), BuildingBlock: AJUNOK_clean_linker_0, # of connection points: 2
#     Edge 88, Type (0, 0), BuildingBlock: AJUNOK_clean_linker_0, # of connection points: 2
#     Edge 89, Type (0, 0), BuildingBlock: AJUNOK_clean_linker_0, # of connection points: 2
#     Edge 90, Type (0, 0), BuildingBlock: AJUNOK_clean_linker_0, # of connection points: 2
#     Edge 91, Type (0, 0), BuildingBlock: AJUNOK_clean_linker_0, # of connection points: 2
#     Edge 92, Type (0, 0), BuildingBlock: AJUNOK_clean_linker_0, # of connection points: 2
#     Edge 93, Type (0, 0), BuildingBlock: AJUNOK_clean_linker_0, # of connection points: 2
#     Edge 94, Type (0, 0), BuildingBlock: AJUNOK_clean_linker_0, # of connection points: 2
#     Edge 95, Type (0, 0), BuildingBlock: AJUNOK_clean_linker_0, # of connection points: 2
# Relax obj value: 0.176
# Max RMSD: 0.169
# Mean RMSD: 0.165
data_MOF--net-mer--node1-AZAVOO_clean_sbu_0--edge1-AJUNOK_clean_linker_0
_symmetry_space_group_name_H-M    P1
_symmetry_Int_Tables_number       1
_symmetry_cell_setting            triclinic
loop_
_symmetry_equiv_pos_as_xyz
'x, y, z'
_cell_length_a     52.652409
_cell_length_b     52.998836
_cell_length_c     30.524064
_cell_angle_alpha  90.006618
_cell_angle_beta   89.859584
_cell_angle_gamma 90.057495
loop_
_atom_site_label
_atom_site_type_symbol
_atom_site_fract_x
_atom_site_fract_y
_atom_site_fract_z
_atom_type_partial_charge
Mg0 Mg 0.09358 0.2284 0.28725 0.0
O1 O 0.10276 0.23114 0.36166 0.0
O2 O 0.14523 0.23 0.36405 0.0
Mg3 Mg 0.16301 0.22523 0.29679 0.0
C4 C 0.12366 0.23133 0.38303 0.0
C5 C 0.03899 0.22695 0.26899 0.0
O6 O 0.05135 0.21398 0.2391 0.0
O7 O 0.10648 0.26938 0.27505 0.0
O8 O 0.14862 0.26419 0.27792 0.0
O9 O 0.09288 0.18591 0.29091 0.0
O10 O 0.12703 0.20868 0.27647 0.0
C11 C 0.12913 0.278 0.2717 0.0
C12 C 0.11704 0.18694 0.28358 0.0
O13 O 0.05195 0.23854 0.29778 0.0
Mg14 Mg 0.71009 0.09182 0.36698 0.0
O15 O 0.74911 0.11081 0.35559 0.0
O16 O 0.77679 0.09303 0.40176 0.0
Mg17 Mg 0.75676 0.06175 0.43963 0.0
C18 C 0.77141 0.10896 0.37187 0.0
C19 C 0.66844 0.11108 0.3059 0.0
O20 O 0.65567 0.0989 0.33629 0.0
O21 O 0.7227 0.05791 0.32699 0.0
O22 O 0.74879 0.04041 0.37625 0.0
O23 O 0.70237 0.11821 0.42274 0.0
O24 O 0.7207 0.08093 0.4296 0.0
C25 C 0.73746 0.04022 0.3393 0.0
C26 C 0.71334 0.10159 0.44733 0.0
O27 O 0.6926 0.11121 0.30778 0.0
Mg28 Mg 0.88763 0.73959 0.29219 0.0
O29 O 0.88097 0.74016 0.36713 0.0
O30 O 0.83888 0.74356 0.37601 0.0
Mg31 Mg 0.81856 0.74259 0.31044 0.0
C32 C 0.86133 0.74238 0.39146 0.0
C33 C 0.94362 0.74106 0.2726 0.0
O34 O 0.93249 0.75389 0.24121 0.0
O35 O 0.87509 0.69792 0.28678 0.0
O36 O 0.83322 0.70318 0.29557 0.0
O37 O 0.88569 0.78246 0.29001 0.0
O38 O 0.85324 0.75684 0.28076 0.0
C39 C 0.85241 0.68911 0.28813 0.0
C40 C 0.86162 0.77944 0.28324 0.0
O41 O 0.92968 0.73081 0.30168 0.0
Mg42 Mg 0.26855 0.88327 0.36318 0.0
O43 O 0.23139 0.86238 0.34739 0.0
O44 O 0.19891 0.88231 0.37939 0.0
Mg45 Mg 0.21565 0.91552 0.41759 0.0
C46 C 0.20769 0.8646 0.35549 0.0
C47 C 0.3124 0.85855 0.30765 0.0
O48 O 0.32635 0.87077 0.33628 0.0
O49 O 0.25883 0.91505 0.3163 0.0
O50 O 0.22746 0.93439 0.35289 0.0
O51 O 0.27289 0.85986 0.42287 0.0
O52 O 0.25295 0.89652 0.42201 0.0
C53 C 0.24236 0.93254 0.31997 0.0
C54 C 0.25981 0.87679 0.44358 0.0
O55 O 0.28836 0.86077 0.3095 0.0
Mg56 Mg 0.09219 0.74392 0.69986 0.0
O57 O 0.10015 0.74343 0.6253 0.0
O58 O 0.14247 0.74595 0.61952 0.0
Mg59 Mg 0.16155 0.74627 0.68612 0.0
C60 C 0.12042 0.74496 0.60236 0.0
C61 C 0.03675 0.75073 0.71146 0.0
O62 O 0.04818 0.76774 0.73575 0.0
O63 O 0.10415 0.70232 0.70791 0.0
O64 O 0.14634 0.70733 0.70318 0.0
O65 O 0.09424 0.78681 0.70046 0.0
O66 O 0.12633 0.76119 0.71257 0.0
C67 C 0.12679 0.69354 0.70941 0.0
C68 C 0.11805 0.78379 0.70923 0.0
O69 O 0.05031 0.73537 0.68957 0.0
Mg70 Mg 0.26997 0.08493 0.62392 0.0
O71 O 0.23218 0.10672 0.63492 0.0
O72 O 0.20264 0.08805 0.59384 0.0
Mg73 Mg 0.22016 0.05398 0.55978 0.0
C74 C 0.20941 0.10536 0.62042 0.0
C75 C 0.3131 0.10664 0.68098 0.0
O76 O 0.32584 0.09458 0.65043 0.0
O77 O 0.25688 0.05325 0.66828 0.0
O78 O 0.22689 0.03531 0.62666 0.0
O79 O 0.2777 0.10887 0.56589 0.0
O80 O 0.25754 0.07218 0.56304 0.0
C81 C 0.23986 0.03652 0.66192 0.0
C82 C 0.26535 0.09219 0.54338 0.0
O83 O 0.28893 0.10584 0.68027 0.0
Mg84 Mg 0.89056 0.22561 0.6954 0.0
O85 O 0.88037 0.23028 0.62201 0.0
O86 O 0.83805 0.22697 0.61877 0.0
Mg87 Mg 0.82135 0.21801 0.68569 0.0
C88 C 0.85956 0.2306 0.60042 0.0
C89 C 0.94574 0.23356 0.71623 0.0
O90 O 0.93547 0.22328 0.75124 0.0
O91 O 0.87495 0.26532 0.71043 0.0
O92 O 0.83324 0.25735 0.70707 0.0
O93 O 0.89358 0.18332 0.68806 0.0
O94 O 0.85844 0.20393 0.70495 0.0
C95 C 0.85177 0.27235 0.71409 0.0
C96 C 0.86945 0.18298 0.69602 0.0
O97 O 0.93129 0.23904 0.68432 0.0
Mg98 Mg 0.71073 0.88216 0.62504 0.0
O99 O 0.74847 0.86156 0.63809 0.0
O100 O 0.7787 0.87892 0.59642 0.0
Mg101 Mg 0.76071 0.91121 0.55788 0.0
C102 C 0.77146 0.86271 0.62472 0.0
C103 C 0.66898 0.86132 0.68922 0.0
O104 O 0.65437 0.873 0.66089 0.0
O105 O 0.7234 0.91594 0.66606 0.0
O106 O 0.75341 0.93227 0.62224 0.0
O107 O 0.7038 0.85612 0.56865 0.0
O108 O 0.72332 0.89303 0.56309 0.0
C109 C 0.74034 0.93251 0.65755 0.0
C110 C 0.71586 0.87247 0.54491 0.0
O111 O 0.69295 0.86224 0.68402 0.0
Mg112 Mg 0.87068 0.74555 0.68368 0.0
O113 O 0.87075 0.74325 0.60795 0.0
O114 O 0.82986 0.74344 0.58785 0.0
Mg115 Mg 0.80452 0.74146 0.64781 0.0
C116 C 0.85348 0.74348 0.57863 0.0
C117 C 0.92654 0.7547 0.70382 0.0
O118 O 0.91512 0.7742 0.7217 0.0
O119 O 0.86224 0.70349 0.68952 0.0
O120 O 0.82199 0.70324 0.66639 0.0
O121 O 0.86696 0.78748 0.67886 0.0
O122 O 0.83424 0.7617 0.68357 0.0
C123 C 0.84181 0.6918 0.68001 0.0
C124 C 0.8426 0.7843 0.67797 0.0
O125 O 0.91314 0.73826 0.68436 0.0
Mg126 Mg 0.23729 0.88358 0.73161 0.0
O127 O 0.24059 0.87866 0.65655 0.0
O128 O 0.2375 0.83754 0.64162 0.0
Mg129 Mg 0.23395 0.81614 0.70579 0.0
C130 C 0.24 0.86039 0.6292 0.0
C131 C 0.2324 0.94005 0.74334 0.0
O132 O 0.21287 0.93117 0.76535 0.0
O133 O 0.27868 0.87077 0.74036 0.0
O134 O 0.27356 0.8299 0.72378 0.0
O135 O 0.19455 0.88346 0.72603 0.0
O136 O 0.21843 0.84985 0.73685 0.0
C137 C 0.28756 0.84856 0.73462 0.0
C138 C 0.19631 0.85926 0.73052 0.0
O139 O 0.24786 0.92467 0.72576 0.0
Mg140 Mg 0.1107 0.22386 0.67466 0.0
O141 O 0.11425 0.22715 0.59939 0.0
O142 O 0.1559 0.22563 0.58481 0.0
Mg143 Mg 0.17856 0.22545 0.64784 0.0
C144 C 0.13281 0.22683 0.57233 0.0
C145 C 0.05628 0.23175 0.70688 0.0
O146 O 0.06889 0.22624 0.74273 0.0
O147 O 0.1206 0.26563 0.68159 0.0
O148 O 0.16176 0.26444 0.66343 0.0
O149 O 0.11313 0.18184 0.66833 0.0
O150 O 0.14642 0.20638 0.67875 0.0
C151 C 0.14178 0.27661 0.67442 0.0
C152 C 0.13756 0.18427 0.67056 0.0
O153 O 0.06842 0.23281 0.6709 0.0
Mg154 Mg 0.75042 0.08714 0.72659 0.0
O155 O 0.74124 0.096 0.65426 0.0
O156 O 0.74427 0.13774 0.64481 0.0
Mg157 Mg 0.75545 0.15555 0.70953 0.0
C158 C 0.73987 0.11567 0.63 0.0
C159 C 0.7519 0.03036 0.73523 0.0
O160 O 0.77203 0.03813 0.75671 0.0
O161 O 0.71074 0.10117 0.74577 0.0
O162 O 0.71665 0.14253 0.73445 0.0
O163 O 0.79197 0.08437 0.71047 0.0
O164 O 0.7724 0.11968 0.72912 0.0
C165 C 0.70266 0.12386 0.74531 0.0
C166 C 0.79269 0.10853 0.71579 0.0
O167 O 0.73691 0.04668 0.71915 0.0
Mg168 Mg 0.87475 0.22104 0.31132 0.0
O169 O 0.86994 0.22932 0.38486 0.0
O170 O 0.82819 0.23067 0.39754 0.0
Mg171 Mg 0.80652 0.22431 0.33388 0.0
C172 C 0.85112 0.23198 0.41092 0.0
C173 C 0.92848 0.22137 0.28121 0.0
O174 O 0.91497 0.20995 0.25098 0.0
O175 O 0.865 0.26184 0.29372 0.0
O176 O 0.82305 0.26094 0.30612 0.0
O177 O 0.87197 0.17967 0.32626 0.0
O178 O 0.83923 0.20361 0.30845 0.0
C179 C 0.84324 0.27239 0.29407 0.0
C180 C 0.84774 0.18203 0.32058 0.0
O181 O 0.91696 0.22997 0.31461 0.0
Mg182 Mg 0.74551 0.88354 0.2609 0.0
O183 O 0.73656 0.87451 0.33376 0.0
O184 O 0.74401 0.83395 0.34904 0.0
Mg185 Mg 0.74014 0.81736 0.28106 0.0
C186 C 0.73859 0.85634 0.36116 0.0
C187 C 0.74325 0.94304 0.25432 0.0
O188 O 0.7576 0.94025 0.21939 0.0
O189 O 0.70595 0.87313 0.23791 0.0
O190 O 0.70249 0.83977 0.2809 0.0
O191 O 0.78691 0.88047 0.27564 0.0
O192 O 0.76237 0.84907 0.25331 0.0
C193 C 0.69332 0.85423 0.25169 0.0
C194 C 0.7843 0.85675 0.26627 0.0
O195 O 0.73507 0.9237 0.27437 0.0
Mg196 Mg 0.10982 0.74398 0.31015 0.0
O197 O 0.11094 0.74348 0.38606 0.0
O198 O 0.15218 0.74339 0.40381 0.0
Mg199 Mg 0.17668 0.74056 0.34313 0.0
C200 C 0.12876 0.744 0.4144 0.0
C201 C 0.05434 0.74431 0.27919 0.0
O202 O 0.06645 0.75552 0.24689 0.0
O203 O 0.11834 0.70162 0.30667 0.0
O204 O 0.1591 0.70243 0.32674 0.0
O205 O 0.11383 0.78617 0.31074 0.0
O206 O 0.14641 0.76027 0.30759 0.0
C207 C 0.13924 0.69044 0.31499 0.0
C208 C 0.13821 0.78309 0.31073 0.0
O209 O 0.06712 0.73663 0.31182 0.0
Mg210 Mg 0.2345 0.0872 0.25916 0.0
O211 O 0.24127 0.09213 0.33362 0.0
O212 O 0.24134 0.13351 0.34764 0.0
Mg213 Mg 0.23335 0.15482 0.28463 0.0
C214 C 0.24316 0.11067 0.36029 0.0
C215 C 0.23524 0.02963 0.24103 0.0
O216 O 0.21746 0.03662 0.21346 0.0
O217 O 0.2753 0.09973 0.24476 0.0
O218 O 0.2718 0.14087 0.26012 0.0
O219 O 0.1922 0.08643 0.26988 0.0
O220 O 0.21472 0.12105 0.2584 0.0
C221 C 0.28482 0.12179 0.24804 0.0
C222 C 0.19322 0.11077 0.26757 0.0
O223 O 0.2465 0.04636 0.26363 0.0
Mg224 Mg 0.59208 0.72908 0.78887 0.0
O225 O 0.59869 0.72642 0.86336 0.0
O226 O 0.64038 0.71974 0.87152 0.0
Mg227 Mg 0.6606 0.72071 0.80545 0.0
C228 C 0.61806 0.7222 0.8873 0.0
C229 C 0.53755 0.7384 0.76554 0.0
O230 O 0.54886 0.73162 0.72898 0.0
O231 O 0.60766 0.76984 0.78621 0.0
O232 O 0.6491 0.7616 0.79343 0.0
O233 O 0.5907 0.68625 0.78403 0.0
O234 O 0.62494 0.70968 0.77538 0.0
C235 C 0.63089 0.7771 0.78743 0.0
C236 C 0.61486 0.68772 0.77656 0.0
O237 O 0.55099 0.74066 0.79985 0.0
Mg238 Mg 0.20938 0.58871 0.86926 0.0
O239 O 0.24697 0.61017 0.85588 0.0
O240 O 0.27812 0.59042 0.89143 0.0
Mg241 Mg 0.26124 0.55596 0.92538 0.0
C242 C 0.27032 0.60828 0.86689 0.0
C243 C 0.17055 0.60732 0.79389 0.0
O244 O 0.16296 0.58379 0.79052 0.0
O245 O 0.22032 0.55798 0.82058 0.0
O246 O 0.25137 0.53897 0.85831 0.0
O247 O 0.20364 0.61089 0.93004 0.0
O248 O 0.22395 0.57448 0.92793 0.0
C249 C 0.23729 0.54093 0.82446 0.0
C250 C 0.21655 0.59372 0.95029 0.0
O251 O 0.18898 0.61296 0.81894 0.0
Mg252 Mg 0.38503 0.24144 0.78827 0.0
O253 O 0.37668 0.24019 0.86276 0.0
O254 O 0.33435 0.24199 0.86796 0.0
Mg255 Mg 0.31559 0.24293 0.80119 0.0
C256 C 0.35629 0.24098 0.88555 0.0
C257 C 0.44094 0.24788 0.77679 0.0
O258 O 0.42975 0.2645 0.75139 0.0
O259 O 0.37331 0.19969 0.77979 0.0
O260 O 0.33115 0.20397 0.7856 0.0
O261 O 0.38279 0.28427 0.78906 0.0
O262 O 0.35073 0.25878 0.77589 0.0
C263 C 0.35081 0.19042 0.77901 0.0
C264 C 0.35892 0.28138 0.7806 0.0
O265 O 0.42706 0.23301 0.79916 0.0
Mg266 Mg 0.76946 0.37821 0.86804 0.0
O267 O 0.73086 0.35897 0.85546 0.0
O268 O 0.70195 0.37892 0.89615 0.0
Mg269 Mg 0.72155 0.41047 0.93477 0.0
C270 C 0.708 0.36167 0.86888 0.0
C271 C 0.81178 0.35678 0.80972 0.0
O272 O 0.82461 0.36939 0.83941 0.0
O273 O 0.7584 0.41172 0.82529 0.0
O274 O 0.73214 0.43151 0.87186 0.0
O275 O 0.7757 0.35281 0.92562 0.0
O276 O 0.75763 0.39039 0.92945 0.0
C277 C 0.74435 0.43041 0.8357 0.0
C278 C 0.76466 0.37008 0.94878 0.0
O279 O 0.78762 0.35735 0.81109 0.0
Mg280 Mg 0.59573 0.24451 0.19724 0.0
O281 O 0.60337 0.24336 0.12275 0.0
O282 O 0.64567 0.24222 0.11572 0.0
Mg283 Mg 0.66509 0.24575 0.18186 0.0
C284 C 0.62342 0.24196 0.09923 0.0
C285 C 0.5395 0.25064 0.20981 0.0
O286 O 0.55044 0.26738 0.23534 0.0
O287 O 0.60764 0.20266 0.20492 0.0
O288 O 0.64986 0.20704 0.19926 0.0
O289 O 0.59851 0.28748 0.19872 0.0
O290 O 0.63021 0.26115 0.20875 0.0
C291 C 0.63018 0.19349 0.20598 0.0
C292 C 0.62229 0.28391 0.20729 0.0
O293 O 0.55359 0.23611 0.18722 0.0
Mg294 Mg 0.76986 0.59008 0.1211 0.0
O295 O 0.73213 0.61036 0.13745 0.0
O296 O 0.70081 0.59236 0.09943 0.0
Mg297 Mg 0.71804 0.56014 0.05995 0.0
C298 C 0.70872 0.6089 0.12655 0.0
C299 C 0.8137 0.60943 0.18215 0.0
O300 O 0.82735 0.5981 0.15193 0.0
O301 O 0.75859 0.55693 0.16368 0.0
O302 O 0.72733 0.5395 0.12425 0.0
O303 O 0.7759 0.61552 0.06393 0.0
O304 O 0.75522 0.57938 0.06037 0.0
C305 C 0.74161 0.5401 0.158 0.0
C306 C 0.76277 0.59964 0.041 0.0
O307 O 0.78961 0.60941 0.17869 0.0
Mg308 Mg 0.38727 0.72396 0.19704 0.0
O309 O 0.37956 0.72834 0.12272 0.0
O310 O 0.33722 0.72595 0.11621 0.0
Mg311 Mg 0.31842 0.71693 0.18153 0.0
C312 C 0.35929 0.72925 0.09974 0.0
C313 C 0.44249 0.72375 0.21529 0.0
O314 O 0.43139 0.70733 0.24134 0.0
O315 O 0.37148 0.76382 0.21031 0.0
O316 O 0.32979 0.75628 0.20484 0.0
O317 O 0.39028 0.68168 0.19094 0.0
O318 O 0.35474 0.70246 0.20405 0.0
C319 C 0.34833 0.77109 0.21308 0.0
C320 C 0.36599 0.6814 0.19703 0.0
O321 O 0.42855 0.73682 0.19 0.0
Mg322 Mg 0.21269 0.38487 0.12186 0.0
O323 O 0.24876 0.36117 0.13511 0.0
O324 O 0.28066 0.37842 0.09729 0.0
Mg325 Mg 0.26558 0.41257 0.05986 0.0
C326 C 0.27209 0.36156 0.12329 0.0
C327 C 0.16776 0.3615 0.17301 0.0
O328 O 0.15626 0.37111 0.13872 0.0
O329 O 0.22688 0.41613 0.16684 0.0
O330 O 0.25732 0.43277 0.12459 0.0
O331 O 0.2043 0.36176 0.06255 0.0
O332 O 0.22722 0.39662 0.06184 0.0
C333 C 0.24407 0.43267 0.1597 0.0
C334 C 0.21798 0.37777 0.04078 0.0
O335 O 0.19161 0.36471 0.17692 0.0
Mg336 Mg 0.37325 0.24492 0.17743 0.0
O337 O 0.36974 0.24183 0.10177 0.0
O338 O 0.32794 0.24052 0.08888 0.0
Mg339 Mg 0.30541 0.23928 0.15185 0.0
C340 C 0.35089 0.24109 0.07544 0.0
C341 C 0.42895 0.25236 0.19974 0.0
O342 O 0.41681 0.26858 0.22472 0.0
O343 O 0.36595 0.20261 0.18543 0.0
O344 O 0.32459 0.20194 0.16909 0.0
O345 O 0.36808 0.28684 0.17216 0.0
O346 O 0.33646 0.26025 0.18214 0.0
C347 C 0.34513 0.19074 0.17969 0.0
C348 C 0.34384 0.28301 0.175 0.0
O349 O 0.41608 0.23862 0.17384 0.0
Mg350 Mg 0.74099 0.38559 0.23442 0.0
O351 O 0.74578 0.37591 0.16079 0.0
O352 O 0.73917 0.33482 0.14747 0.0
Mg353 Mg 0.73561 0.31554 0.21379 0.0
C354 C 0.74411 0.3572 0.13435 0.0
C355 C 0.73548 0.44301 0.2396 0.0
O356 O 0.71686 0.43525 0.26498 0.0
O357 O 0.78382 0.37623 0.24591 0.0
O358 O 0.76845 0.3393 0.22993 0.0
O359 O 0.69799 0.3835 0.2273 0.0
O360 O 0.72175 0.35072 0.24304 0.0
C361 C 0.78734 0.35284 0.23919 0.0
C362 C 0.6997 0.35963 0.23526 0.0
O363 O 0.75006 0.42675 0.22211 0.0
Mg364 Mg 0.60877 0.72509 0.17937 0.0
O365 O 0.60846 0.72366 0.10365 0.0
O366 O 0.64902 0.71884 0.08309 0.0
Mg367 Mg 0.6753 0.72125 0.14169 0.0
C368 C 0.62543 0.72042 0.07423 0.0
C369 C 0.55313 0.72113 0.20591 0.0
O370 O 0.56486 0.70401 0.22952 0.0
O371 O 0.62105 0.7668 0.17823 0.0
O372 O 0.66114 0.76063 0.15679 0.0
O373 O 0.61132 0.68224 0.18116 0.0
O374 O 0.64429 0.70763 0.18212 0.0
C375 C 0.64312 0.77526 0.16836 0.0
C376 C 0.63574 0.68508 0.181 0.0
O377 O 0.56627 0.73456 0.17983 0.0
Mg378 Mg 0.2495 0.58368 0.23459 0.0
O379 O 0.24129 0.58985 0.16129 0.0
O380 O 0.24404 0.63111 0.14706 0.0
Mg381 Mg 0.25395 0.65129 0.21045 0.0
C382 C 0.2402 0.60843 0.13469 0.0
C383 C 0.24734 0.52706 0.25189 0.0
O384 O 0.26481 0.53461 0.2796 0.0
O385 O 0.20981 0.59799 0.25225 0.0
O386 O 0.21515 0.63896 0.23675 0.0
O387 O 0.29113 0.58086 0.21935 0.0
O388 O 0.27112 0.61646 0.23505 0.0
C389 C 0.20142 0.62051 0.24962 0.0
C390 C 0.29154 0.60517 0.22279 0.0
O391 O 0.23574 0.54339 0.2291 0.0
Mg392 Mg 0.37404 0.72276 0.81024 0.0
O393 O 0.37067 0.72919 0.88499 0.0
O394 O 0.32913 0.73315 0.89902 0.0
Mg395 Mg 0.30637 0.72954 0.83626 0.0
C396 C 0.35223 0.73282 0.91158 0.0
C397 C 0.42713 0.73509 0.77614 0.0
O398 O 0.4127 0.73659 0.74119 0.0
O399 O 0.36645 0.76466 0.79684 0.0
O400 O 0.325 0.76618 0.81305 0.0
O401 O 0.36885 0.68113 0.82099 0.0
O402 O 0.33743 0.70749 0.80801 0.0
C403 C 0.34563 0.77676 0.8008 0.0
C404 C 0.34467 0.685 0.81736 0.0
O405 O 0.4167 0.72981 0.81261 0.0
Mg406 Mg 0.24342 0.38658 0.75413 0.0
O407 O 0.23701 0.38049 0.82805 0.0
O408 O 0.23756 0.33913 0.84182 0.0
Mg409 Mg 0.24244 0.31849 0.7775 0.0
C410 C 0.23583 0.36194 0.85472 0.0
C411 C 0.24711 0.44464 0.74286 0.0
O412 O 0.26618 0.43729 0.71817 0.0
O413 O 0.20212 0.37555 0.73855 0.0
O414 O 0.20493 0.33435 0.75372 0.0
O415 O 0.28593 0.38394 0.76486 0.0
O416 O 0.26085 0.35186 0.74961 0.0
C417 C 0.19223 0.35357 0.74146 0.0
C418 C 0.28312 0.3599 0.75911 0.0
O419 O 0.23343 0.42806 0.76164 0.0
Mg420 Mg 0.60726 0.24634 0.80819 0.0
O421 O 0.61046 0.24223 0.88341 0.0
O422 O 0.65211 0.24173 0.89816 0.0
Mg423 Mg 0.67514 0.24469 0.83558 0.0
C424 C 0.62894 0.24097 0.91042 0.0
C425 C 0.55141 0.25209 0.7869 0.0
O426 O 0.56298 0.26983 0.76433 0.0
O427 O 0.61745 0.20452 0.79873 0.0
O428 O 0.65866 0.20649 0.8163 0.0
O429 O 0.6098 0.28834 0.81658 0.0
O430 O 0.64295 0.26375 0.80546 0.0
C431 C 0.63901 0.19406 0.80477 0.0
C432 C 0.63422 0.28578 0.81439 0.0
O433 O 0.56477 0.23762 0.81072 0.0
Mg434 Mg 0.73223 0.58591 0.75938 0.0
O435 O 0.7379 0.59546 0.8323 0.0
O436 O 0.73605 0.63724 0.84117 0.0
Mg437 Mg 0.72928 0.6545 0.77382 0.0
C438 C 0.73898 0.61507 0.85656 0.0
C439 C 0.73889 0.5271 0.74984 0.0
O440 O 0.72679 0.53066 0.71278 0.0
O441 O 0.77323 0.59834 0.74456 0.0
O442 O 0.76829 0.63998 0.75401 0.0
O443 O 0.68957 0.58632 0.76874 0.0
O444 O 0.71297 0.61911 0.74975 0.0
C445 C 0.78204 0.62081 0.74521 0.0
C446 C 0.69105 0.61012 0.75946 0.0
O447 O 0.74421 0.54599 0.77375 0.0
C448 C 0.14998 0.12682 0.2494 0.0
C449 C 0.17107 0.12662 0.27754 0.0
C450 C 0.1312 0.14554 0.25337 0.0
C451 C 0.13317 0.16441 0.28556 0.0
H452 H 0.1488 0.11343 0.22265 0.0
H453 H 0.11597 0.14618 0.22958 0.0
S454 S 0.18204 0.16895 0.37206 0.0
N455 N 0.19076 0.14451 0.34216 0.0
N456 N 0.15571 0.17957 0.34944 0.0
C457 C 0.15307 0.16309 0.31576 0.0
C458 C 0.17201 0.14417 0.31178 0.0
C459 C 0.8105 0.13439 0.38685 0.0
C460 C 0.79165 0.12645 0.35712 0.0
C461 C 0.82932 0.15175 0.37439 0.0
C462 C 0.82986 0.16172 0.33184 0.0
H463 H 0.81031 0.12768 0.42038 0.0
H464 H 0.84296 0.15806 0.39857 0.0
S465 S 0.78713 0.14485 0.24018 0.0
N466 N 0.7763 0.12829 0.28211 0.0
N467 N 0.81151 0.16119 0.25903 0.0
C468 C 0.81174 0.15342 0.30144 0.0
C469 C 0.79266 0.13569 0.31399 0.0
C470 C 0.81979 0.79523 0.2596 0.0
C471 C 0.84339 0.80047 0.27903 0.0
C472 C 0.80117 0.81365 0.25577 0.0
C473 C 0.80516 0.8383 0.27117 0.0
H474 H 0.81552 0.77663 0.24687 0.0
H475 H 0.78347 0.80833 0.24028 0.0
S476 S 0.86394 0.8622 0.32379 0.0
N477 N 0.87014 0.83225 0.3132 0.0
N478 N 0.83479 0.86733 0.30594 0.0
C479 C 0.82883 0.84412 0.29012 0.0
C480 C 0.84803 0.82512 0.294 0.0
C481 C 0.18163 0.79991 0.32828 0.0
C482 C 0.15593 0.80456 0.31844 0.0
C483 C 0.19834 0.81952 0.33899 0.0
C484 C 0.19015 0.8447 0.33994 0.0
H485 H 0.1891 0.78101 0.32841 0.0
H486 H 0.21768 0.81478 0.34782 0.0
S487 S 0.12634 0.86788 0.30839 0.0
N488 N 0.12409 0.83686 0.30469 0.0
N489 N 0.15564 0.87376 0.32473 0.0
C490 C 0.16497 0.84993 0.32776 0.0
C491 C 0.14787 0.82989 0.31689 0.0
C492 C 0.15823 0.79967 0.73947 0.0
C493 C 0.13599 0.8048 0.7158 0.0
C494 C 0.17697 0.81782 0.74485 0.0
C495 C 0.17444 0.84203 0.72677 0.0
H496 H 0.16144 0.78126 0.75391 0.0
H497 H 0.19379 0.8126 0.76309 0.0
S498 S 0.11921 0.86576 0.66391 0.0
N499 N 0.11172 0.83623 0.67572 0.0
N500 N 0.14745 0.87082 0.68581 0.0
C501 C 0.1519 0.84796 0.70435 0.0
C502 C 0.13254 0.82922 0.69886 0.0
C503 C 0.19664 0.1432 0.66531 0.0
C504 C 0.19033 0.12476 0.63386 0.0
C505 C 0.17936 0.16217 0.67733 0.0
C506 C 0.15493 0.16331 0.65889 0.0
H507 H 0.21518 0.14318 0.68061 0.0
H508 H 0.18519 0.17606 0.70132 0.0
S509 S 0.12896 0.12055 0.57391 0.0
N510 N 0.15774 0.10959 0.58357 0.0
N511 N 0.12542 0.14497 0.60689 0.0
C512 C 0.14821 0.14503 0.62772 0.0
C513 C 0.16585 0.12585 0.61503 0.0
C514 C 0.83563 0.12466 0.7344 0.0
C515 C 0.81537 0.12331 0.70465 0.0
C516 C 0.8549 0.14276 0.72911 0.0
C517 C 0.85428 0.15984 0.69394 0.0
H518 H 0.83571 0.11281 0.76332 0.0
H519 H 0.86926 0.14459 0.75429 0.0
S520 S 0.80752 0.16119 0.60367 0.0
N521 N 0.79756 0.1383 0.6362 0.0
N522 N 0.83359 0.17241 0.62652 0.0
C523 C 0.83519 0.15734 0.66238 0.0
C524 C 0.8157 0.13898 0.66769 0.0
C525 C 0.79858 0.80138 0.66884 0.0
C526 C 0.82502 0.80524 0.66669 0.0
C527 C 0.78144 0.82026 0.65629 0.0
C528 C 0.79002 0.84379 0.64084 0.0
H529 H 0.79092 0.78355 0.68005 0.0
H530 H 0.76131 0.8161 0.65774 0.0
S531 S 0.85727 0.86447 0.63267 0.0
N532 N 0.8589 0.83514 0.65059 0.0
N533 N 0.82672 0.87056 0.62696 0.0
C534 C 0.81638 0.84824 0.6398 0.0
C535 C 0.83386 0.82902 0.6528 0.0
C536 C 0.65298 0.6692 0.74315 0.0
C537 C 0.63141 0.66567 0.76957 0.0
C538 C 0.67136 0.65057 0.7391 0.0
C539 C 0.66917 0.6275 0.76146 0.0
H540 H 0.65605 0.68685 0.726 0.0
H541 H 0.68778 0.65462 0.71882 0.0
S542 S 0.61535 0.60801 0.83246 0.0
N543 N 0.60786 0.63687 0.81652 0.0
N544 N 0.64289 0.60139 0.80904 0.0
C545 C 0.64708 0.62305 0.78641 0.0
C546 C 0.62807 0.64227 0.79044 0.0
C547 C 0.31412 0.62712 0.86849 0.0
C548 C 0.28909 0.62759 0.85198 0.0
C549 C 0.33211 0.64539 0.85643 0.0
C550 C 0.32582 0.66506 0.82764 0.0
H551 H 0.31991 0.61267 0.89147 0.0
H552 H 0.35092 0.6444 0.87062 0.0
S553 S 0.2639 0.67401 0.77189 0.0
N554 N 0.25964 0.64881 0.80284 0.0
N555 N 0.29343 0.68319 0.78061 0.0
C556 C 0.30114 0.66555 0.81002 0.0
C557 C 0.28282 0.64684 0.82205 0.0
C558 C 0.31746 0.29768 0.756 0.0
C559 C 0.34091 0.30261 0.7761 0.0
C560 C 0.29946 0.31653 0.7504 0.0
C561 C 0.30378 0.34131 0.76499 0.0
H562 H 0.3129 0.27905 0.74372 0.0
H563 H 0.28199 0.31144 0.73397 0.0
S564 S 0.36232 0.36453 0.81911 0.0
N565 N 0.36795 0.3343 0.81 0.0
N566 N 0.33354 0.37009 0.79992 0.0
C567 C 0.32726 0.34682 0.78479 0.0
C568 C 0.34593 0.32739 0.79028 0.0
C569 C 0.67648 0.30692 0.80897 0.0
C570 C 0.65181 0.30639 0.82669 0.0
C571 C 0.69422 0.32518 0.82199 0.0
C572 C 0.68815 0.34353 0.85376 0.0
H573 H 0.68221 0.293 0.7849 0.0
H574 H 0.71297 0.32462 0.80736 0.0
S575 S 0.62614 0.34939 0.91166 0.0
N576 N 0.6222 0.32531 0.87807 0.0
N577 N 0.65541 0.3595 0.90318 0.0
C578 C 0.66337 0.34319 0.87165 0.0
C579 C 0.64525 0.32468 0.85797 0.0
C580 C 0.63851 0.32834 0.19693 0.0
C581 C 0.64025 0.30452 0.21704 0.0
C582 C 0.65731 0.34684 0.20403 0.0
C583 C 0.67811 0.34197 0.23168 0.0
H584 H 0.62316 0.33234 0.17444 0.0
H585 H 0.65605 0.3646 0.18662 0.0
S586 S 0.68905 0.28386 0.29702 0.0
N587 N 0.66294 0.27809 0.26904 0.0
N588 N 0.69769 0.31263 0.28282 0.0
C589 C 0.6791 0.31871 0.25376 0.0
C590 C 0.6603 0.30003 0.24633 0.0
C591 C 0.66393 0.62471 0.1352 0.0
C592 C 0.69007 0.62734 0.14463 0.0
C593 C 0.64609 0.64271 0.14906 0.0
C594 C 0.65369 0.6641 0.17275 0.0
H595 H 0.65716 0.60888 0.11605 0.0
H596 H 0.62642 0.64037 0.13955 0.0
S597 S 0.7192 0.67904 0.20969 0.0
N598 N 0.72218 0.65256 0.18175 0.0
N599 N 0.68868 0.68598 0.20832 0.0
C600 C 0.6795 0.66643 0.18419 0.0
C601 C 0.69767 0.64819 0.17002 0.0
C602 C 0.33285 0.62443 0.24252 0.0
C603 C 0.31405 0.62 0.21092 0.0
C604 C 0.35135 0.64312 0.23596 0.0
C605 C 0.35132 0.65793 0.1978 0.0
H606 H 0.3323 0.6145 0.27354 0.0
H607 H 0.36461 0.6472 0.26212 0.0
S608 S 0.30808 0.65143 0.10309 0.0
N609 N 0.29821 0.62984 0.1383 0.0
N610 N 0.3325 0.66557 0.12656 0.0
C611 C 0.3336 0.65262 0.16493 0.0
C612 C 0.31502 0.63343 0.17136 0.0
C613 C 0.31613 0.34389 0.13016 0.0
C614 C 0.28993 0.34173 0.13923 0.0
C615 C 0.33341 0.32517 0.14282 0.0
C616 C 0.32531 0.30334 0.16495 0.0
H617 H 0.32347 0.36012 0.11267 0.0
H618 H 0.35324 0.32764 0.13427 0.0
S619 S 0.25916 0.289 0.19965 0.0
N620 N 0.25697 0.31623 0.17372 0.0
N621 N 0.28952 0.28131 0.19806 0.0
C622 C 0.29932 0.30117 0.17546 0.0
C623 C 0.28165 0.32027 0.16252 0.0
C624 C 0.97067 0.23874 0.30529 0.0
C625 C 0.95653 0.22325 0.27684 0.0
C626 C -0.00273 0.24023 0.30216 0.0
C627 C 0.01076 0.22624 0.27052 0.0
H628 H 0.96117 0.24976 0.3303 0.0
H629 H 0.00731 0.25227 0.32498 0.0
S630 S 0.98264 0.18253 0.18847 0.0
N631 N 0.9581 0.19352 0.21612 0.0
N632 N 0.00774 0.19628 0.21018 0.0
C633 C -0.00324 0.21081 0.24169 0.0
C634 C 0.96977 0.20933 0.24486 0.0
C635 C 0.74396 0.01419 0.27141 0.0
C636 C 0.73715 0.01616 0.31575 0.0
C637 C 0.74541 -0.00959 0.25109 0.0
C638 C 0.73959 0.96816 0.27445 0.0
H639 H 0.74896 0.03092 0.25291 0.0
H640 H 0.75145 -0.01057 0.21719 0.0
S641 S 0.71905 0.96438 0.39094 0.0
N642 N 0.72335 -0.00531 0.38173 0.0
N643 N 0.72568 0.95024 0.34419 0.0
C644 C 0.73179 0.97032 0.31848 0.0
C645 C 0.73067 -0.0057 0.33895 0.0
C646 C 0.01268 0.75297 0.24326 0.0
C647 C 0.02621 0.74188 0.27795 0.0
C648 C 0.98614 0.75213 0.24166 0.0
C649 C 0.97182 0.74012 0.27464 0.0
H650 H 0.02259 0.76278 0.21719 0.0
H651 H 0.97681 0.76132 0.2144 0.0
S652 S -0.00203 0.70692 0.37168 0.0
N653 N 0.02326 0.71759 0.34546 0.0
N654 N 0.97328 0.716 0.34243 0.0
C655 C 0.98506 0.72841 0.30912 0.0
C656 C 0.01223 0.7293 0.31079 0.0
C657 C 0.26284 0.97168 0.2946 0.0
C658 C 0.24325 0.95397 0.28978 0.0
C659 C 0.26088 -0.0043 0.27594 0.0
C660 C 0.23934 0.00269 0.25154 0.0
H661 H 0.27888 0.96761 0.31563 0.0
H662 H 0.27573 0.00931 0.28273 0.0
S663 S 0.18492 0.96108 0.22367 0.0
N664 N 0.20316 0.94355 0.25536 0.0
N665 N 0.19962 -0.0115 0.21878 0.0
C666 C 0.22073 0.98418 0.24316 0.0
C667 C 0.2226 0.95985 0.26287 0.0
C668 C -0.00454 0.77299 0.71891 0.0
C669 C 0.00873 0.75074 0.70868 0.0
C670 C 0.96896 0.77396 0.7172 0.0
C671 C 0.95458 0.75268 0.70532 0.0
H672 H 0.00561 0.78999 0.72798 0.0
H673 H 0.95975 0.79167 0.72501 0.0
S674 S 0.98009 0.68925 0.67831 0.0
N675 N 0.00557 0.70658 0.68791 0.0
N676 N 0.95556 0.70828 0.68489 0.0
C677 C 0.96756 0.73016 0.69541 0.0
C678 C -0.00532 0.72921 0.69702 0.0
C679 C 0.25772 0.97809 0.72376 0.0
C680 C 0.23393 0.96703 0.73217 0.0
C681 C 0.25953 0.00208 0.70484 0.0
C682 C 0.23758 0.01539 0.69274 0.0
H683 H 0.27503 0.96765 0.72998 0.0
H684 H 0.27817 0.00934 0.69646 0.0
S685 S 0.17091 -0.00387 0.7125 0.0
N686 N 0.18801 0.97243 0.73147 0.0
N687 N 0.19153 0.01718 0.69428 0.0
C688 C 0.21375 0.00533 0.70364 0.0
C689 C 0.21189 0.98119 0.72387 0.0
C690 C 0.01523 0.2297 0.74792 0.0
C691 C 0.02821 0.23468 0.7085 0.0
C692 C 0.9887 0.23027 0.75018 0.0
C693 C 0.97384 0.23594 0.71319 0.0
H694 H 0.02557 0.22467 0.77728 0.0
H695 H 0.97979 0.22567 0.7812 0.0
S696 S -0.00154 0.25252 0.60274 0.0
N697 N 0.02419 0.24705 0.63204 0.0
N698 N 0.97422 0.24815 0.63632 0.0
C699 C 0.98654 0.24197 0.67388 0.0
C700 C 0.0137 0.24131 0.67153 0.0
C701 C 0.7249 -0.00689 0.71622 0.0
C702 C 0.74915 0.00349 0.72336 0.0
C703 C 0.72208 0.96882 0.69856 0.0
C704 C 0.74342 0.9545 0.68647 0.0
H705 H 0.70804 0.00417 0.7229 0.0
H706 H 0.70313 0.96198 0.69145 0.0
S707 S 0.81093 0.97215 0.70166 0.0
N708 N 0.79484 -0.00335 0.7203 0.0
N709 N 0.78941 0.95144 0.6857 0.0
C710 C 0.76769 0.9641 0.69555 0.0
C711 C 0.77059 -0.01149 0.71441 0.0
C712 C 0.4968 0.7394 0.80823 0.0
C713 C 0.50943 0.74021 0.76756 0.0
C714 C 0.47021 0.73825 0.81072 0.0
C715 C 0.45515 0.73806 0.77265 0.0
H716 H 0.50752 0.73886 0.83846 0.0
H717 H 0.46146 0.73709 0.8428 0.0
S718 S 0.47888 0.74201 0.65804 0.0
N719 N 0.50477 0.74228 0.68835 0.0
N720 N 0.45496 0.74022 0.69293 0.0
C721 C 0.46753 0.73985 0.73178 0.0
C722 C 0.4946 0.74089 0.72927 0.0
C723 C 0.22003 0.47999 0.77012 0.0
C724 C 0.24365 0.47159 0.75407 0.0
C725 C 0.2174 0.50401 0.7888 0.0
C726 C 0.23841 0.52016 0.79272 0.0
H727 H 0.20375 0.46748 0.77021 0.0
H728 H 0.19935 0.50911 0.80343 0.0
S729 S 0.30341 0.50881 0.75081 0.0
N730 N 0.28768 0.48276 0.73864 0.0
N731 N 0.28275 0.52751 0.77541 0.0
C732 C 0.2616 0.51282 0.77411 0.0
C733 C 0.26421 0.48861 0.75422 0.0
C734 C 0.4827 0.26886 0.76464 0.0
C735 C 0.46905 0.24784 0.78015 0.0
C736 C 0.50919 0.26989 0.76708 0.0
C737 C 0.52331 0.24993 0.78513 0.0
H738 H 0.47288 0.28491 0.75072 0.0
H739 H 0.51862 0.28667 0.75492 0.0
S740 S 0.49689 0.18981 0.82807 0.0
N741 N 0.47168 0.20607 0.81279 0.0
N742 N 0.52167 0.20796 0.81736 0.0
C743 C 0.50998 0.22861 0.80045 0.0
C744 C 0.48284 0.22758 0.79798 0.0
C745 C 0.75377 0.47566 0.8311 0.0
C746 C 0.74564 0.45366 0.80984 0.0
C747 C 0.75279 0.49901 0.81028 0.0
C748 C 0.74314 0.50142 0.76751 0.0
H749 H 0.76045 0.47487 0.86464 0.0
H750 H 0.75875 0.51541 0.82878 0.0
S751 S 0.72127 0.44875 0.69657 0.0
N752 N 0.72938 0.43494 0.74302 0.0
N753 N 0.7269 0.47918 0.70343 0.0
C754 C 0.73598 0.47926 0.74504 0.0
C755 C 0.73737 0.45526 0.76634 0.0
C756 C 0.4707 0.27065 0.22136 0.0
C757 C 0.45708 0.25091 0.2015 0.0
C758 C 0.49721 0.27021 0.22383 0.0
C759 C 0.51137 0.24998 0.2066 0.0
H760 H 0.46086 0.28683 0.23489 0.0
H761 H 0.50665 0.28608 0.23914 0.0
S762 S 0.48484 0.19266 0.1538 0.0
N763 N 0.45968 0.20992 0.16587 0.0
N764 N 0.50967 0.20908 0.17055 0.0
C765 C 0.49804 0.22989 0.18708 0.0
C766 C 0.47089 0.23035 0.18452 0.0
C767 C 0.76242 0.50298 0.19114 0.0
C768 C 0.74083 0.51833 0.18756 0.0
C769 C 0.76079 0.47899 0.21009 0.0
C770 C 0.73763 0.46983 0.22686 0.0
H771 H 0.78026 0.50882 0.17652 0.0
H772 H 0.77756 0.46716 0.21006 0.0
S773 S 0.67659 0.50482 0.23111 0.0
N774 N 0.69636 0.52415 0.20572 0.0
N775 N 0.69331 0.47938 0.24306 0.0
C776 C 0.7164 0.48598 0.22669 0.0
C777 C 0.71799 0.51018 0.20645 0.0
C778 C 0.4846 0.70448 0.23099 0.0
C779 C 0.47066 0.72465 0.21317 0.0
C780 C 0.5111 0.7038 0.22864 0.0
C781 C 0.525 0.72326 0.20839 0.0
H782 H 0.47498 0.68871 0.24638 0.0
H783 H 0.5207 0.68757 0.24238 0.0
S784 S 0.49785 0.7815 0.15978 0.0
N785 N 0.47281 0.76535 0.1766 0.0
N786 N 0.52286 0.76413 0.17223 0.0
C787 C 0.51142 0.74389 0.19115 0.0
C788 C 0.48423 0.74456 0.19352 0.0
C789 C 0.22629 0.46205 0.2163 0.0
C790 C 0.24693 0.45428 0.19004 0.0
C791 C 0.22675 0.48535 0.23822 0.0
C792 C 0.24811 0.50111 0.23547 0.0
H793 H 0.20909 0.45086 0.2178 0.0
H794 H 0.21006 0.49142 0.25616 0.0
S795 S 0.30762 0.48899 0.17428 0.0
N796 N 0.28987 0.46386 0.16502 0.0
N797 N 0.29061 0.50729 0.20678 0.0
C798 C 0.26931 0.49302 0.21159 0.0
C799 C 0.26879 0.46962 0.18881 0.0
C800 C 0.14354 0.21642 0.45169 0.0
C801 C 0.1237 0.22979 0.43149 0.0
C802 C 0.14563 0.21504 0.49708 0.0
C803 C 0.12805 0.2271 0.52461 0.0
H804 H 0.15786 0.20694 0.43227 0.0
H805 H 0.16144 0.20458 0.51068 0.0
S806 S 0.0723 0.26449 0.48877 0.0
N807 N 0.08568 0.25504 0.44254 0.0
N808 N 0.08975 0.25266 0.52874 0.0
C809 C 0.10762 0.24006 0.50521 0.0
C810 C 0.10541 0.24138 0.45846 0.0
C811 C 0.72373 0.08957 0.56769 0.0
C812 C 0.73291 0.11287 0.58316 0.0
C813 C 0.71713 0.08632 0.5237 0.0
C814 C 0.71911 0.10629 0.49364 0.0
H815 H 0.72163 0.07364 0.58963 0.0
H816 H 0.71033 0.068 0.51313 0.0
S817 S 0.74374 0.17043 0.51576 0.0
N818 N 0.74481 0.15598 0.56365 0.0
N819 N 0.73192 0.14963 0.48108 0.0
C820 C 0.72826 0.12961 0.50821 0.0
C821 C 0.7353 0.13295 0.55295 0.0
C822 C 0.87589 0.72626 0.46449 0.0
C823 C 0.86413 0.74511 0.43921 0.0
C824 C 0.87402 0.72654 0.51053 0.0
C825 C 0.86042 0.74573 0.53211 0.0
H826 H 0.88517 0.71048 0.44856 0.0
H827 H 0.88186 0.71097 0.52906 0.0
S828 S 0.83036 0.80156 0.481 0.0
N829 N 0.84143 0.78499 0.43929 0.0
N830 N 0.838 0.78552 0.52543 0.0
C831 C 0.85036 0.76557 0.50726 0.0
C832 C 0.8522 0.76526 0.46081 0.0
C833 C 0.24921 0.84512 0.5533 0.0
C834 C 0.24344 0.86535 0.58159 0.0
C835 C 0.25397 0.84901 0.5087 0.0
C836 C 0.25287 0.87326 0.49023 0.0
H837 H 0.25065 0.82604 0.56575 0.0
H838 H 0.25876 0.83283 0.48863 0.0
S839 S 0.23744 0.93262 0.54914 0.0
N840 N 0.23608 0.91058 0.5873 0.0
N841 N 0.24488 0.91785 0.50325 0.0
C842 C 0.24644 0.89364 0.51768 0.0
C843 C 0.24181 0.88971 0.56337 0.0
C844 C 0.10599 0.73047 0.48299 0.0
C845 C 0.1228 0.74695 0.46129 0.0
C846 C 0.10404 0.73065 0.52905 0.0
C847 C 0.11891 0.74727 0.55428 0.0
H848 H 0.09541 0.71653 0.46455 0.0
H849 H 0.09195 0.71687 0.54503 0.0
S850 S 0.16185 0.79723 0.5121 0.0
N851 N 0.15171 0.78247 0.46784 0.0
N852 N 0.14808 0.78284 0.55385 0.0
C853 C 0.13424 0.765 0.53251 0.0
C854 C 0.13618 0.76482 0.48609 0.0
C855 C 0.2577 0.08255 0.4214 0.0
C856 C 0.24756 0.10579 0.40751 0.0
C857 C 0.26304 0.07809 0.46573 0.0
C858 C 0.25866 0.09679 0.49746 0.0
H859 H 0.262 0.06788 0.39783 0.0
H860 H 0.27121 0.06014 0.47512 0.0
S861 S 0.22887 0.15915 0.47992 0.0
N862 N 0.23087 0.14665 0.43048 0.0
N863 N 0.24135 0.13813 0.51343 0.0
C864 C 0.24774 0.11964 0.48455 0.0
C865 C 0.24207 0.12418 0.43963 0.0
C866 C 0.83509 0.24216 0.4858 0.0
C867 C 0.85551 0.23499 0.45874 0.0
C868 C 0.83714 0.24177 0.5314 0.0
C869 C 0.85972 0.23426 0.55221 0.0
H870 H 0.81698 0.24743 0.47176 0.0
H871 H 0.82052 0.24679 0.5505 0.0
S872 S 0.91974 0.21606 0.49666 0.0
N873 N 0.89986 0.22197 0.45619 0.0
N874 N 0.90366 0.22131 0.54227 0.0
C875 C 0.88085 0.22848 0.52574 0.0
C876 C 0.87876 0.22883 0.47896 0.0
C877 C 0.73802 0.84899 0.48516 0.0
C878 C 0.72116 0.86802 0.49836 0.0
C879 C 0.7439 0.84553 0.44064 0.0
C880 C 0.73305 0.86099 0.40808 0.0
H881 H 0.74694 0.83698 0.50937 0.0
H882 H 0.75711 0.83072 0.43171 0.0
S883 S 0.6854 0.91148 0.42665 0.0
N884 N 0.69253 0.90137 0.47625 0.0
N885 N 0.70306 0.89477 0.39258 0.0
C886 C 0.71579 0.87981 0.42125 0.0
C887 C 0.70997 0.88333 0.46645 0.0
C888 C 0.60511 0.73767 0.00649 0.0
C889 C 0.61815 0.71809 0.0279 0.0
C890 C 0.6035 0.73821 0.96046 0.0
C891 C 0.61497 0.71922 0.935 0.0
H892 H 0.59765 0.75342 0.02512 0.0
H893 H 0.59473 0.7543 0.94472 0.0
S894 S 0.64645 0.66144 0.97622 0.0
N895 N 0.63918 0.67756 0.02084 0.0
N896 N 0.63623 0.67858 0.93466 0.0
C897 C 0.62607 0.69858 0.95638 0.0
C898 C 0.62764 0.69801 0.00285 0.0
C899 C 0.22142 0.62068 0.01667 0.0
C900 C 0.22332 0.59678 -0.00299 0.0
C901 C 0.22702 0.62418 0.06102 0.0
C902 C 0.2345 0.60386 0.08777 0.0
H903 H 0.2156 0.63693 -0.00234 0.0
H904 H 0.2252 0.64301 0.07447 0.0
S905 S 0.24246 0.53732 0.05208 0.0
N906 N 0.23324 0.55236 0.00753 0.0
N907 N 0.24383 0.55891 0.091 0.0
C908 C 0.23655 0.5798 0.06849 0.0
C909 C 0.23099 0.57628 0.02311 0.0
C910 C 0.33609 0.25407 0.00199 0.0
C911 C 0.35488 0.24237 0.02749 0.0
C912 C 0.33732 0.25396 0.9564 0.0
C913 C 0.35741 0.24214 0.93401 0.0
H914 H 0.31997 0.26322 0.01738 0.0
H915 H 0.32212 0.26308 0.93855 0.0
S916 S 0.41217 0.20963 0.98537 0.0
N917 N 0.39483 0.21938 0.02729 0.0
N918 N 0.39721 0.21917 0.94079 0.0
C919 C 0.37697 0.23115 0.95895 0.0
C920 C 0.37569 0.23127 0.00587 0.0
C921 C 0.74303 0.34201 0.0565 0.0
C922 C 0.74909 0.36117 0.08691 0.0
C923 C 0.74845 0.34475 0.01175 0.0
C924 C 0.75978 0.36686 -0.00419 0.0
H925 H 0.73401 0.3247 0.06725 0.0
H926 H 0.74335 0.32969 0.98942 0.0
S927 S 0.78113 0.4219 0.06089 0.0
N928 N 0.76849 0.40253 0.09729 0.0
N929 N 0.77792 0.40775 0.01304 0.0
C930 C 0.76605 0.38609 0.02544 0.0
C931 C 0.76088 0.38325 0.07104 0.0
C932 C 0.63961 0.22475 0.02904 0.0
C933 C 0.62147 0.23948 0.05115 0.0
C934 C 0.64086 0.22439 0.98337 0.0
C935 C 0.62402 0.23873 0.95788 0.0
H936 H 0.65346 0.2139 0.04725 0.0
H937 H 0.65566 0.21332 0.96788 0.0
S938 S 0.57234 0.27973 -0.00039 0.0
N939 N 0.58556 0.26801 0.04425 0.0
N940 N 0.58798 0.26736 0.95781 0.0
C941 C 0.60494 0.25261 0.97934 0.0
C942 C 0.60365 0.25297 0.02617 0.0
C943 C 0.74312 0.58612 0.9701 0.0
C944 C 0.75623 0.60456 0.99446 0.0
C945 C 0.7375 0.58972 0.92568 0.0
C946 C 0.74458 0.612 0.90383 0.0
H947 H 0.73742 0.56851 0.98515 0.0
H948 H 0.72748 0.57492 0.90835 0.0
S949 S 0.78024 0.66575 0.95178 0.0
N950 N 0.77678 0.64572 0.99276 0.0
N951 N 0.76611 0.65249 0.9094 0.0
C952 C 0.75769 0.63063 0.92767 0.0
C953 C 0.76357 0.6269 0.97288 0.0
C954 C 0.37642 0.72158 0.97968 0.0
C955 C 0.35719 0.73565 0.95902 0.0
C956 C 0.37821 0.72073 0.02566 0.0
C957 C 0.36079 0.73392 0.05212 0.0
H958 H 0.38921 0.71003 0.96038 0.0
H959 H 0.39228 0.70856 0.04052 0.0
S960 S 0.31046 0.77749 0.01388 0.0
N961 N 0.32298 0.76597 0.96846 0.0
N962 N 0.32624 0.76422 0.05446 0.0
C963 C 0.34285 0.74955 0.03173 0.0
C964 C 0.34108 0.75047 0.98524 0.0
C965 C 0.22461 0.3466 0.92976 0.0
C966 C 0.23204 0.36665 0.90219 0.0
C967 C 0.22028 0.35034 0.97452 0.0
C968 C 0.22348 0.3742 0.99369 0.0
H969 H 0.22174 0.32782 0.91665 0.0
H970 H 0.21439 0.33436 0.99422 0.0
S971 S 0.24344 0.4329 0.9366 0.0
N972 N 0.24303 0.41121 0.89781 0.0
N973 N 0.23479 0.41825 0.98197 0.0
C974 C 0.23129 0.39439 0.96681 0.0
C975 C 0.23556 0.39062 0.92108 0.0
C976 C 0.16611 0.33616 0.24192 0.0
C977 C 0.15411 0.34418 0.20325 0.0
C978 C 0.15627 0.31621 0.26675 0.0
C979 C 0.13399 0.30352 0.25403 0.0
H980 H 0.18403 0.3444 0.2519 0.0
H981 H 0.16711 0.30958 0.2946 0.0
S982 S 0.09337 0.31925 0.1589 0.0
N983 N 0.11708 0.33962 0.15612 0.0
N984 N 0.09873 0.30201 0.20297 0.0
C985 C 0.12052 0.31277 0.21778 0.0
C986 C 0.13058 0.33312 0.19228 0.0
C987 C 0.65847 0.15622 0.21184 0.0
C988 C 0.63505 0.16763 0.22229 0.0
C989 C 0.66837 0.13667 0.23736 0.0
C990 C 0.65511 0.1275 0.27403 0.0
H991 H 0.67021 0.16378 0.18574 0.0
H992 H 0.6872 0.12969 0.22969 0.0
S993 S 0.59079 0.14757 0.31026 0.0
N994 N 0.59726 0.16595 0.26801 0.0
N995 N 0.61556 0.12874 0.31563 0.0
C996 C 0.6304 0.13676 0.28189 0.0
C997 C 0.62038 0.1569 0.25597 0.0
C998 C 0.85076 0.63486 0.20884 0.0
C999 C 0.82621 0.62508 0.21617 0.0
C1000 C 0.86085 0.65381 0.2359 0.0
C1001 C 0.84674 0.66351 0.27127 0.0
H1002 H 0.86151 0.62925 0.18016 0.0
H1003 H 0.87872 0.66245 0.22658 0.0
S1004 S 0.78444 0.63972 0.31083 0.0
N1005 N 0.79015 0.62323 0.26598 0.0
N1006 N 0.80918 0.65853 0.31703 0.0
C1007 C 0.82355 0.65171 0.2819 0.0
C1008 C 0.8132 0.63264 0.25421 0.0
C1009 C 0.31698 0.80568 0.22472 0.0
C1010 C 0.34188 0.79652 0.23029 0.0
C1011 C 0.30817 0.82668 0.2479 0.0
C1012 C 0.32385 0.83953 0.27774 0.0
H1013 H 0.30368 0.79585 0.20371 0.0
H1014 H 0.2885 0.83212 0.24374 0.0
S1015 S 0.39192 0.82583 0.29898 0.0
N1016 N 0.38308 0.80383 0.26386 0.0
N1017 N 0.36658 0.84352 0.3074 0.0
C1018 C 0.34945 0.83195 0.28088 0.0
C1019 C 0.35846 0.81043 0.25714 0.0
C1020 C 0.14594 0.62591 0.73097 0.0
C1021 C 0.1558 0.62798 0.77372 0.0
C1022 C 0.13444 0.64677 0.71034 0.0
C1023 C 0.13178 0.66983 0.73263 0.0
H1024 H 0.1484 0.60859 0.71261 0.0
H1025 H 0.12879 0.64525 0.67635 0.0
S1026 S 0.15171 0.68403 0.8463 0.0
N1027 N 0.16027 0.65442 0.83842 0.0
N1028 N 0.13817 0.69303 0.80019 0.0
C1029 C 0.14004 0.67149 0.77616 0.0
C1030 C 0.15216 0.65069 0.79664 0.0
C1031 C 0.31311 0.13289 0.74882 0.0
C1032 C 0.32629 0.12372 0.71205 0.0
C1033 C 0.32284 0.15279 0.7738 0.0
C1034 C 0.34603 0.16449 0.76283 0.0
H1035 H 0.29447 0.12559 0.75703 0.0
H1036 H 0.31115 0.16029 0.80002 0.0
S1037 S 0.38995 0.14485 0.67407 0.0
N1038 N 0.36546 0.12554 0.66951 0.0
N1039 N 0.3835 0.16329 0.71624 0.0
C1040 C 0.36062 0.15388 0.72892 0.0
C1041 C 0.35075 0.13344 0.70347 0.0
C1042 C 0.82093 0.30751 0.72174 0.0
C1043 C 0.84518 0.29771 0.73098 0.0
C1044 C 0.81096 0.32777 0.74549 0.0
C1045 C 0.82486 0.33914 0.77941 0.0
H1046 H 0.80889 0.29854 0.69756 0.0
H1047 H 0.7917 0.33369 0.73857 0.0
S1048 S 0.89094 0.32324 0.81178 0.0
N1049 N 0.8841 0.30282 0.77268 0.0
N1050 N 0.86552 0.34121 0.81727 0.0
C1051 C 0.85008 0.3311 0.78626 0.0
C1052 C 0.86023 0.31032 0.76198 0.0
C1053 C 0.6322 0.83607 0.71801 0.0
C1054 C 0.65767 0.84394 0.72217 0.0
C1055 C 0.62255 0.81589 0.74287 0.0
C1056 C 0.63802 0.80291 0.77285 0.0
H1057 H 0.62005 0.84436 0.69332 0.0
H1058 H 0.60353 0.80921 0.73589 0.0
S1059 S 0.70409 0.82001 0.80346 0.0
N1060 N 0.69672 0.83997 0.76399 0.0
N1061 N 0.6786 0.80235 0.81088 0.0
C1062 C 0.6626 0.81244 0.78071 0.0
C1063 C 0.67244 0.83284 0.75528 0.0
C1064 C 0.83899 0.65995 0.73854 0.0
C1065 C 0.8384 0.66538 0.6935 0.0
C1066 C 0.82355 0.64086 0.756 0.0
C1067 C 0.80757 0.62655 0.72871 0.0
H1068 H 0.84832 0.67279 0.76099 0.0
H1069 H 0.82133 0.63982 0.79127 0.0
S1070 S 0.80568 0.62839 0.60768 0.0
N1071 N 0.82536 0.65138 0.62132 0.0
N1072 N 0.79696 0.6149 0.65415 0.0
C1073 C 0.81067 0.6287 0.68325 0.0
C1074 C 0.82591 0.64846 0.66552 0.0
C1075 C 0.33147 0.82059 0.81252 0.0
C1076 C 0.34341 0.80287 0.78508 0.0
C1077 C 0.31683 0.84017 0.79486 0.0
C1078 C 0.3132 0.84193 0.74939 0.0
H1079 H 0.33073 0.81739 0.84757 0.0
H1080 H 0.30513 0.8512 0.81694 0.0
S1081 S 0.34591 0.80443 0.66401 0.0
N1082 N 0.35547 0.7919 0.71072 0.0
N1083 N 0.3271 0.82815 0.67748 0.0
C1084 C 0.32843 0.82701 0.72189 0.0
C1085 C 0.34376 0.80743 0.73984 0.0
C1086 C 0.1618 0.31787 0.6577 0.0
C1087 C 0.14481 0.30379 0.68358 0.0
C1088 C 0.17313 0.33983 0.67402 0.0
C1089 C 0.16896 0.34736 0.71759 0.0
H1090 H 0.1684 0.31047 0.62659 0.0
H1091 H 0.18859 0.34808 0.65535 0.0
S1092 S 0.11984 0.32203 0.79255 0.0
N1093 N 0.11884 0.30312 0.74952 0.0
N1094 N 0.14178 0.34346 0.78147 0.0
C1095 C 0.14881 0.33611 0.74058 0.0
C1096 C 0.13649 0.31425 0.72336 0.0
C1097 C 0.67412 0.13399 0.80633 0.0
C1098 C 0.67713 0.13013 0.76116 0.0
C1099 C 0.65752 0.1526 0.82194 0.0
C1100 C 0.6434 0.16756 0.79274 0.0
H1101 H 0.6872 0.12533 0.82918 0.0
H1102 H 0.65834 0.15758 0.85635 0.0
S1103 S 0.63951 0.15952 0.67257 0.0
N1104 N 0.66097 0.1387 0.68832 0.0
N1105 N 0.62929 0.17337 0.7178 0.0
C1106 C 0.64301 0.16073 0.74837 0.0
C1107 C 0.66014 0.14202 0.73245 0.0
C1108 C 0.81579 0.31877 0.21739 0.0
C1109 C 0.81151 0.33955 0.24519 0.0
C1110 C 0.82947 0.29785 0.23177 0.0
C1111 C 0.83975 0.29725 0.27404 0.0
H1112 H 0.80572 0.31728 0.18653 0.0
H1113 H 0.82957 0.28102 0.21156 0.0
S1114 S 0.83925 0.34913 0.35514 0.0
N1115 N 0.82239 0.36011 0.31369 0.0
N1116 N 0.84878 0.32062 0.34055 0.0
C1117 C 0.83865 0.31916 0.29978 0.0
C1118 C 0.82448 0.34055 0.2852 0.0
C1119 C 0.63902 0.81412 0.21425 0.0
C1120 C 0.65037 0.80162 0.17849 0.0
C1121 C 0.65176 0.83385 0.23576 0.0
C1122 C 0.67571 0.84206 0.22119 0.0
H1123 H 0.62169 0.80686 0.22872 0.0
H1124 H 0.64391 0.84117 0.26604 0.0
S1125 S 0.71183 0.81806 0.12569 0.0
N1126 N 0.68547 0.8012 0.12631 0.0
N1127 N 0.70914 0.83804 0.16687 0.0
C1128 C 0.6858 0.83171 0.18267 0.0
C1129 C 0.67308 0.8116 0.16108 0.0
C1130 C 0.15792 0.64871 0.32995 0.0
C1131 C 0.14319 0.66398 0.30217 0.0
C1132 C 0.1742 0.63031 0.31266 0.0
C1133 C 0.17633 0.62704 0.26718 0.0
H1134 H 0.15943 0.65329 0.36445 0.0
H1135 H 0.18772 0.62136 0.3344 0.0
S1136 S 0.13693 0.65734 0.18197 0.0
N1137 N 0.12753 0.67056 0.22828 0.0
N1138 N 0.15878 0.63645 0.19568 0.0
C1139 C 0.15881 0.63924 0.23994 0.0
C1140 C 0.1419 0.65763 0.25758 0.0
C1141 C 0.31262 0.12944 0.18511 0.0
C1142 C 0.31023 0.12728 0.23076 0.0
C1143 C 0.32839 0.14799 0.1668 0.0
C1144 C 0.34243 0.16436 0.19377 0.0
H1145 H 0.29941 0.11968 0.16382 0.0
H1146 H 0.32682 0.15182 0.13203 0.0
S1147 S 0.3486 0.16043 0.31427 0.0
N1148 N 0.32738 0.13862 0.30174 0.0
N1149 N 0.35777 0.17293 0.26721 0.0
C1150 C 0.34387 0.15893 0.23866 0.0
C1151 C 0.32745 0.14043 0.25733 0.0
loop_
_geom_bond_atom_site_label_1
_geom_bond_atom_site_label_2
_geom_bond_distance
_geom_bond_site_symmetry_2
_ccdc_geom_bond_type
Mg0 O1 2.028 . S
Mg0 O7 1.986 . S
Mg0 O9 2.114 . S
Mg0 O10 2.251 . S
Mg0 O13 2.010 . S
O1 Mg0 2.028 . S
O1 C4 1.250 . S
O2 Mg3 2.028 . S
O2 C4 1.248 . S
Mg3 O2 2.028 . S
Mg3 O8 2.032 . S
Mg3 O10 2.079 . S
C4 O1 1.250 . S
C4 O2 1.248 . S
C5 O6 1.264 . S
C5 O13 1.249 . S
O6 C5 1.264 . S
O7 Mg0 1.986 . S
O7 C11 1.246 . S
O8 Mg3 2.032 . S
O8 C11 1.259 . S
O9 Mg0 2.114 . S
O9 C12 1.252 . S
O10 Mg0 2.251 . S
O10 Mg3 2.079 . S
O10 C12 1.273 . S
C11 O7 1.246 . S
C11 O8 1.259 . S
C12 O9 1.252 . S
C12 O10 1.273 . S
O13 Mg0 2.010 . S
O13 C5 1.249 . S
Mg14 O15 2.028 . S
Mg14 O21 1.986 . S
Mg14 O23 2.114 . S
Mg14 O24 2.251 . S
Mg14 O27 2.010 . S
O15 Mg14 2.028 . S
O15 C18 1.250 . S
O16 Mg17 2.028 . S
O16 C18 1.248 . S
Mg17 O16 2.028 . S
Mg17 O22 2.032 . S
Mg17 O24 2.079 . S
C18 O15 1.250 . S
C18 O16 1.248 . S
C19 O20 1.264 . S
C19 O27 1.249 . S
O20 C19 1.264 . S
O21 Mg14 1.986 . S
O21 C25 1.246 . S
O22 Mg17 2.032 . S
O22 C25 1.259 . S
O23 Mg14 2.114 . S
O23 C26 1.252 . S
O24 Mg14 2.251 . S
O24 Mg17 2.079 . S
O24 C26 1.273 . S
C25 O21 1.246 . S
C25 O22 1.259 . S
C26 O23 1.252 . S
C26 O24 1.273 . S
O27 Mg14 2.010 . S
O27 C19 1.249 . S
Mg28 O29 2.028 . S
Mg28 O35 1.986 . S
Mg28 O37 2.114 . S
Mg28 O38 2.251 . S
Mg28 O41 2.010 . S
O29 Mg28 2.028 . S
O29 C32 1.250 . S
O30 Mg31 2.028 . S
O30 C32 1.248 . S
Mg31 O30 2.028 . S
Mg31 O36 2.032 . S
Mg31 O38 2.079 . S
C32 O29 1.250 . S
C32 O30 1.248 . S
C33 O34 1.264 . S
C33 O41 1.249 . S
O34 C33 1.264 . S
O35 Mg28 1.986 . S
O35 C39 1.246 . S
O36 Mg31 2.032 . S
O36 C39 1.259 . S
O37 Mg28 2.114 . S
O37 C40 1.252 . S
O38 Mg28 2.251 . S
O38 Mg31 2.079 . S
O38 C40 1.273 . S
C39 O35 1.246 . S
C39 O36 1.259 . S
C40 O37 1.252 . S
C40 O38 1.273 . S
O41 Mg28 2.010 . S
O41 C33 1.249 . S
Mg42 O43 2.028 . S
Mg42 O49 1.986 . S
Mg42 O51 2.114 . S
Mg42 O52 2.251 . S
Mg42 O55 2.010 . S
O43 Mg42 2.028 . S
O43 C46 1.250 . S
O44 Mg45 2.028 . S
O44 C46 1.248 . S
Mg45 O44 2.028 . S
Mg45 O50 2.032 . S
Mg45 O52 2.079 . S
C46 O43 1.250 . S
C46 O44 1.248 . S
C47 O48 1.264 . S
C47 O55 1.249 . S
O48 C47 1.264 . S
O49 Mg42 1.986 . S
O49 C53 1.246 . S
O50 Mg45 2.032 . S
O50 C53 1.259 . S
O51 Mg42 2.114 . S
O51 C54 1.252 . S
O52 Mg42 2.251 . S
O52 Mg45 2.079 . S
O52 C54 1.273 . S
C53 O49 1.246 . S
C53 O50 1.259 . S
C54 O51 1.252 . S
C54 O52 1.273 . S
O55 Mg42 2.010 . S
O55 C47 1.249 . S
Mg56 O57 2.028 . S
Mg56 O63 1.986 . S
Mg56 O65 2.114 . S
Mg56 O66 2.251 . S
Mg56 O69 2.010 . S
O57 Mg56 2.028 . S
O57 C60 1.250 . S
O58 Mg59 2.028 . S
O58 C60 1.248 . S
Mg59 O58 2.028 . S
Mg59 O64 2.032 . S
Mg59 O66 2.079 . S
C60 O57 1.250 . S
C60 O58 1.248 . S
C61 O62 1.264 . S
C61 O69 1.249 . S
O62 C61 1.264 . S
O63 Mg56 1.986 . S
O63 C67 1.246 . S
O64 Mg59 2.032 . S
O64 C67 1.259 . S
O65 Mg56 2.114 . S
O65 C68 1.252 . S
O66 Mg56 2.251 . S
O66 Mg59 2.079 . S
O66 C68 1.273 . S
C67 O63 1.246 . S
C67 O64 1.259 . S
C68 O65 1.252 . S
C68 O66 1.273 . S
O69 Mg56 2.010 . S
O69 C61 1.249 . S
Mg70 O71 2.028 . S
Mg70 O77 1.986 . S
Mg70 O79 2.114 . S
Mg70 O80 2.251 . S
Mg70 O83 2.010 . S
O71 Mg70 2.028 . S
O71 C74 1.250 . S
O72 Mg73 2.028 . S
O72 C74 1.248 . S
Mg73 O72 2.028 . S
Mg73 O78 2.032 . S
Mg73 O80 2.079 . S
C74 O71 1.250 . S
C74 O72 1.248 . S
C75 O76 1.264 . S
C75 O83 1.249 . S
O76 C75 1.264 . S
O77 Mg70 1.986 . S
O77 C81 1.246 . S
O78 Mg73 2.032 . S
O78 C81 1.259 . S
O79 Mg70 2.114 . S
O79 C82 1.252 . S
O80 Mg70 2.251 . S
O80 Mg73 2.079 . S
O80 C82 1.273 . S
C81 O77 1.246 . S
C81 O78 1.259 . S
C82 O79 1.252 . S
C82 O80 1.273 . S
O83 Mg70 2.010 . S
O83 C75 1.249 . S
Mg84 O85 2.028 . S
Mg84 O91 1.986 . S
Mg84 O93 2.114 . S
Mg84 O94 2.251 . S
Mg84 O97 2.010 . S
O85 Mg84 2.028 . S
O85 C88 1.250 . S
O86 Mg87 2.028 . S
O86 C88 1.248 . S
Mg87 O86 2.028 . S
Mg87 O92 2.032 . S
Mg87 O94 2.079 . S
C88 O85 1.250 . S
C88 O86 1.248 . S
C89 O90 1.264 . S
C89 O97 1.249 . S
O90 C89 1.264 . S
O91 Mg84 1.986 . S
O91 C95 1.246 . S
O92 Mg87 2.032 . S
O92 C95 1.259 . S
O93 Mg84 2.114 . S
O93 C96 1.252 . S
O94 Mg84 2.251 . S
O94 Mg87 2.079 . S
O94 C96 1.273 . S
C95 O91 1.246 . S
C95 O92 1.259 . S
C96 O93 1.252 . S
C96 O94 1.273 . S
O97 Mg84 2.010 . S
O97 C89 1.249 . S
Mg98 O99 2.028 . S
Mg98 O105 1.986 . S
Mg98 O107 2.114 . S
Mg98 O108 2.251 . S
Mg98 O111 2.010 . S
O99 Mg98 2.028 . S
O99 C102 1.250 . S
O100 Mg101 2.028 . S
O100 C102 1.248 . S
Mg101 O100 2.028 . S
Mg101 O106 2.032 . S
Mg101 O108 2.079 . S
C102 O99 1.250 . S
C102 O100 1.248 . S
C103 O104 1.264 . S
C103 O111 1.249 . S
O104 C103 1.264 . S
O105 Mg98 1.986 . S
O105 C109 1.246 . S
O106 Mg101 2.032 . S
O106 C109 1.259 . S
O107 Mg98 2.114 . S
O107 C110 1.252 . S
O108 Mg98 2.251 . S
O108 Mg101 2.079 . S
O108 C110 1.273 . S
C109 O105 1.246 . S
C109 O106 1.259 . S
C110 O107 1.252 . S
C110 O108 1.273 . S
O111 Mg98 2.010 . S
O111 C103 1.249 . S
Mg112 O113 2.028 . S
Mg112 O119 1.986 . S
Mg112 O121 2.114 . S
Mg112 O122 2.251 . S
Mg112 O125 2.010 . S
O113 Mg112 2.028 . S
O113 C116 1.250 . S
O114 Mg115 2.028 . S
O114 C116 1.248 . S
Mg115 O114 2.028 . S
Mg115 O120 2.032 . S
Mg115 O122 2.079 . S
C116 O113 1.250 . S
C116 O114 1.248 . S
C117 O118 1.264 . S
C117 O125 1.249 . S
O118 C117 1.264 . S
O119 Mg112 1.986 . S
O119 C123 1.246 . S
O120 Mg115 2.032 . S
O120 C123 1.259 . S
O121 Mg112 2.114 . S
O121 C124 1.252 . S
O122 Mg112 2.251 . S
O122 Mg115 2.079 . S
O122 C124 1.273 . S
C123 O119 1.246 . S
C123 O120 1.259 . S
C124 O121 1.252 . S
C124 O122 1.273 . S
O125 Mg112 2.010 . S
O125 C117 1.249 . S
Mg126 O127 2.028 . S
Mg126 O133 1.986 . S
Mg126 O135 2.114 . S
Mg126 O136 2.251 . S
Mg126 O139 2.010 . S
O127 Mg126 2.028 . S
O127 C130 1.250 . S
O128 Mg129 2.028 . S
O128 C130 1.248 . S
Mg129 O128 2.028 . S
Mg129 O134 2.032 . S
Mg129 O136 2.079 . S
C130 O127 1.250 . S
C130 O128 1.248 . S
C131 O132 1.264 . S
C131 O139 1.249 . S
O132 C131 1.264 . S
O133 Mg126 1.986 . S
O133 C137 1.246 . S
O134 Mg129 2.032 . S
O134 C137 1.259 . S
O135 Mg126 2.114 . S
O135 C138 1.252 . S
O136 Mg126 2.251 . S
O136 Mg129 2.079 . S
O136 C138 1.273 . S
C137 O133 1.246 . S
C137 O134 1.259 . S
C138 O135 1.252 . S
C138 O136 1.273 . S
O139 Mg126 2.010 . S
O139 C131 1.249 . S
Mg140 O141 2.028 . S
Mg140 O147 1.986 . S
Mg140 O149 2.114 . S
Mg140 O150 2.251 . S
Mg140 O153 2.010 . S
O141 Mg140 2.028 . S
O141 C144 1.250 . S
O142 Mg143 2.028 . S
O142 C144 1.248 . S
Mg143 O142 2.028 . S
Mg143 O148 2.032 . S
Mg143 O150 2.079 . S
C144 O141 1.250 . S
C144 O142 1.248 . S
C145 O146 1.264 . S
C145 O153 1.249 . S
O146 C145 1.264 . S
O147 Mg140 1.986 . S
O147 C151 1.246 . S
O148 Mg143 2.032 . S
O148 C151 1.259 . S
O149 Mg140 2.114 . S
O149 C152 1.252 . S
O150 Mg140 2.251 . S
O150 Mg143 2.079 . S
O150 C152 1.273 . S
C151 O147 1.246 . S
C151 O148 1.259 . S
C152 O149 1.252 . S
C152 O150 1.273 . S
O153 Mg140 2.010 . S
O153 C145 1.249 . S
Mg154 O155 2.028 . S
Mg154 O161 1.986 . S
Mg154 O163 2.114 . S
Mg154 O164 2.251 . S
Mg154 O167 2.010 . S
O155 Mg154 2.028 . S
O155 C158 1.250 . S
O156 Mg157 2.028 . S
O156 C158 1.248 . S
Mg157 O156 2.028 . S
Mg157 O162 2.032 . S
Mg157 O164 2.079 . S
C158 O155 1.250 . S
C158 O156 1.248 . S
C159 O160 1.264 . S
C159 O167 1.249 . S
O160 C159 1.264 . S
O161 Mg154 1.986 . S
O161 C165 1.246 . S
O162 Mg157 2.032 . S
O162 C165 1.259 . S
O163 Mg154 2.114 . S
O163 C166 1.252 . S
O164 Mg154 2.251 . S
O164 Mg157 2.079 . S
O164 C166 1.273 . S
C165 O161 1.246 . S
C165 O162 1.259 . S
C166 O163 1.252 . S
C166 O164 1.273 . S
O167 Mg154 2.010 . S
O167 C159 1.249 . S
Mg168 O169 2.028 . S
Mg168 O175 1.986 . S
Mg168 O177 2.114 . S
Mg168 O178 2.251 . S
Mg168 O181 2.010 . S
O169 Mg168 2.028 . S
O169 C172 1.250 . S
O170 Mg171 2.028 . S
O170 C172 1.248 . S
Mg171 O170 2.028 . S
Mg171 O176 2.032 . S
Mg171 O178 2.079 . S
C172 O169 1.250 . S
C172 O170 1.248 . S
C173 O174 1.264 . S
C173 O181 1.249 . S
O174 C173 1.264 . S
O175 Mg168 1.986 . S
O175 C179 1.246 . S
O176 Mg171 2.032 . S
O176 C179 1.259 . S
O177 Mg168 2.114 . S
O177 C180 1.252 . S
O178 Mg168 2.251 . S
O178 Mg171 2.079 . S
O178 C180 1.273 . S
C179 O175 1.246 . S
C179 O176 1.259 . S
C180 O177 1.252 . S
C180 O178 1.273 . S
O181 Mg168 2.010 . S
O181 C173 1.249 . S
Mg182 O183 2.028 . S
Mg182 O189 1.986 . S
Mg182 O191 2.114 . S
Mg182 O192 2.251 . S
Mg182 O195 2.010 . S
O183 Mg182 2.028 . S
O183 C186 1.250 . S
O184 Mg185 2.028 . S
O184 C186 1.248 . S
Mg185 O184 2.028 . S
Mg185 O190 2.032 . S
Mg185 O192 2.079 . S
C186 O183 1.250 . S
C186 O184 1.248 . S
C187 O188 1.264 . S
C187 O195 1.249 . S
O188 C187 1.264 . S
O189 Mg182 1.986 . S
O189 C193 1.246 . S
O190 Mg185 2.032 . S
O190 C193 1.259 . S
O191 Mg182 2.114 . S
O191 C194 1.252 . S
O192 Mg182 2.251 . S
O192 Mg185 2.079 . S
O192 C194 1.273 . S
C193 O189 1.246 . S
C193 O190 1.259 . S
C194 O191 1.252 . S
C194 O192 1.273 . S
O195 Mg182 2.010 . S
O195 C187 1.249 . S
Mg196 O197 2.028 . S
Mg196 O203 1.986 . S
Mg196 O205 2.114 . S
Mg196 O206 2.251 . S
Mg196 O209 2.010 . S
O197 Mg196 2.028 . S
O197 C200 1.250 . S
O198 Mg199 2.028 . S
O198 C200 1.248 . S
Mg199 O198 2.028 . S
Mg199 O204 2.032 . S
Mg199 O206 2.079 . S
C200 O197 1.250 . S
C200 O198 1.248 . S
C201 O202 1.264 . S
C201 O209 1.249 . S
O202 C201 1.264 . S
O203 Mg196 1.986 . S
O203 C207 1.246 . S
O204 Mg199 2.032 . S
O204 C207 1.259 . S
O205 Mg196 2.114 . S
O205 C208 1.252 . S
O206 Mg196 2.251 . S
O206 Mg199 2.079 . S
O206 C208 1.273 . S
C207 O203 1.246 . S
C207 O204 1.259 . S
C208 O205 1.252 . S
C208 O206 1.273 . S
O209 Mg196 2.010 . S
O209 C201 1.249 . S
Mg210 O211 2.028 . S
Mg210 O217 1.986 . S
Mg210 O219 2.114 . S
Mg210 O220 2.251 . S
Mg210 O223 2.010 . S
O211 Mg210 2.028 . S
O211 C214 1.250 . S
O212 Mg213 2.028 . S
O212 C214 1.248 . S
Mg213 O212 2.028 . S
Mg213 O218 2.032 . S
Mg213 O220 2.079 . S
C214 O211 1.250 . S
C214 O212 1.248 . S
C215 O216 1.264 . S
C215 O223 1.249 . S
O216 C215 1.264 . S
O217 Mg210 1.986 . S
O217 C221 1.246 . S
O218 Mg213 2.032 . S
O218 C221 1.259 . S
O219 Mg210 2.114 . S
O219 C222 1.252 . S
O220 Mg210 2.251 . S
O220 Mg213 2.079 . S
O220 C222 1.273 . S
C221 O217 1.246 . S
C221 O218 1.259 . S
C222 O219 1.252 . S
C222 O220 1.273 . S
O223 Mg210 2.010 . S
O223 C215 1.249 . S
Mg224 O225 2.028 . S
Mg224 O231 1.986 . S
Mg224 O233 2.114 . S
Mg224 O234 2.251 . S
Mg224 O237 2.010 . S
O225 Mg224 2.028 . S
O225 C228 1.250 . S
O226 Mg227 2.028 . S
O226 C228 1.248 . S
Mg227 O226 2.028 . S
Mg227 O232 2.032 . S
Mg227 O234 2.079 . S
C228 O225 1.250 . S
C228 O226 1.248 . S
C229 O230 1.264 . S
C229 O237 1.249 . S
O230 C229 1.264 . S
O231 Mg224 1.986 . S
O231 C235 1.246 . S
O232 Mg227 2.032 . S
O232 C235 1.259 . S
O233 Mg224 2.114 . S
O233 C236 1.252 . S
O234 Mg224 2.251 . S
O234 Mg227 2.079 . S
O234 C236 1.273 . S
C235 O231 1.246 . S
C235 O232 1.259 . S
C236 O233 1.252 . S
C236 O234 1.273 . S
O237 Mg224 2.010 . S
O237 C229 1.249 . S
Mg238 O239 2.028 . S
Mg238 O245 1.986 . S
Mg238 O247 2.114 . S
Mg238 O248 2.251 . S
Mg238 O251 2.010 . S
O239 Mg238 2.028 . S
O239 C242 1.250 . S
O240 Mg241 2.028 . S
O240 C242 1.248 . S
Mg241 O240 2.028 . S
Mg241 O246 2.032 . S
Mg241 O248 2.079 . S
C242 O239 1.250 . S
C242 O240 1.248 . S
C243 O244 1.264 . S
C243 O251 1.249 . S
O244 C243 1.264 . S
O245 Mg238 1.986 . S
O245 C249 1.246 . S
O246 Mg241 2.032 . S
O246 C249 1.259 . S
O247 Mg238 2.114 . S
O247 C250 1.252 . S
O248 Mg238 2.251 . S
O248 Mg241 2.079 . S
O248 C250 1.273 . S
C249 O245 1.246 . S
C249 O246 1.259 . S
C250 O247 1.252 . S
C250 O248 1.273 . S
O251 Mg238 2.010 . S
O251 C243 1.249 . S
Mg252 O253 2.028 . S
Mg252 O259 1.986 . S
Mg252 O261 2.114 . S
Mg252 O262 2.251 . S
Mg252 O265 2.010 . S
O253 Mg252 2.028 . S
O253 C256 1.250 . S
O254 Mg255 2.028 . S
O254 C256 1.248 . S
Mg255 O254 2.028 . S
Mg255 O260 2.032 . S
Mg255 O262 2.079 . S
C256 O253 1.250 . S
C256 O254 1.248 . S
C257 O258 1.264 . S
C257 O265 1.249 . S
O258 C257 1.264 . S
O259 Mg252 1.986 . S
O259 C263 1.246 . S
O260 Mg255 2.032 . S
O260 C263 1.259 . S
O261 Mg252 2.114 . S
O261 C264 1.252 . S
O262 Mg252 2.251 . S
O262 Mg255 2.079 . S
O262 C264 1.273 . S
C263 O259 1.246 . S
C263 O260 1.259 . S
C264 O261 1.252 . S
C264 O262 1.273 . S
O265 Mg252 2.010 . S
O265 C257 1.249 . S
Mg266 O267 2.028 . S
Mg266 O273 1.986 . S
Mg266 O275 2.114 . S
Mg266 O276 2.251 . S
Mg266 O279 2.010 . S
O267 Mg266 2.028 . S
O267 C270 1.250 . S
O268 Mg269 2.028 . S
O268 C270 1.248 . S
Mg269 O268 2.028 . S
Mg269 O274 2.032 . S
Mg269 O276 2.079 . S
C270 O267 1.250 . S
C270 O268 1.248 . S
C271 O272 1.264 . S
C271 O279 1.249 . S
O272 C271 1.264 . S
O273 Mg266 1.986 . S
O273 C277 1.246 . S
O274 Mg269 2.032 . S
O274 C277 1.259 . S
O275 Mg266 2.114 . S
O275 C278 1.252 . S
O276 Mg266 2.251 . S
O276 Mg269 2.079 . S
O276 C278 1.273 . S
C277 O273 1.246 . S
C277 O274 1.259 . S
C278 O275 1.252 . S
C278 O276 1.273 . S
O279 Mg266 2.010 . S
O279 C271 1.249 . S
Mg280 O281 2.028 . S
Mg280 O287 1.986 . S
Mg280 O289 2.114 . S
Mg280 O290 2.251 . S
Mg280 O293 2.010 . S
O281 Mg280 2.028 . S
O281 C284 1.250 . S
O282 Mg283 2.028 . S
O282 C284 1.248 . S
Mg283 O282 2.028 . S
Mg283 O288 2.032 . S
Mg283 O290 2.079 . S
C284 O281 1.250 . S
C284 O282 1.248 . S
C285 O286 1.264 . S
C285 O293 1.249 . S
O286 C285 1.264 . S
O287 Mg280 1.986 . S
O287 C291 1.246 . S
O288 Mg283 2.032 . S
O288 C291 1.259 . S
O289 Mg280 2.114 . S
O289 C292 1.252 . S
O290 Mg280 2.251 . S
O290 Mg283 2.079 . S
O290 C292 1.273 . S
C291 O287 1.246 . S
C291 O288 1.259 . S
C292 O289 1.252 . S
C292 O290 1.273 . S
O293 Mg280 2.010 . S
O293 C285 1.249 . S
Mg294 O295 2.028 . S
Mg294 O301 1.986 . S
Mg294 O303 2.114 . S
Mg294 O304 2.251 . S
Mg294 O307 2.010 . S
O295 Mg294 2.028 . S
O295 C298 1.250 . S
O296 Mg297 2.028 . S
O296 C298 1.248 . S
Mg297 O296 2.028 . S
Mg297 O302 2.032 . S
Mg297 O304 2.079 . S
C298 O295 1.250 . S
C298 O296 1.248 . S
C299 O300 1.264 . S
C299 O307 1.249 . S
O300 C299 1.264 . S
O301 Mg294 1.986 . S
O301 C305 1.246 . S
O302 Mg297 2.032 . S
O302 C305 1.259 . S
O303 Mg294 2.114 . S
O303 C306 1.252 . S
O304 Mg294 2.251 . S
O304 Mg297 2.079 . S
O304 C306 1.273 . S
C305 O301 1.246 . S
C305 O302 1.259 . S
C306 O303 1.252 . S
C306 O304 1.273 . S
O307 Mg294 2.010 . S
O307 C299 1.249 . S
Mg308 O309 2.028 . S
Mg308 O315 1.986 . S
Mg308 O317 2.114 . S
Mg308 O318 2.251 . S
Mg308 O321 2.010 . S
O309 Mg308 2.028 . S
O309 C312 1.250 . S
O310 Mg311 2.028 . S
O310 C312 1.248 . S
Mg311 O310 2.028 . S
Mg311 O316 2.032 . S
Mg311 O318 2.079 . S
C312 O309 1.250 . S
C312 O310 1.248 . S
C313 O314 1.264 . S
C313 O321 1.249 . S
O314 C313 1.264 . S
O315 Mg308 1.986 . S
O315 C319 1.246 . S
O316 Mg311 2.032 . S
O316 C319 1.259 . S
O317 Mg308 2.114 . S
O317 C320 1.252 . S
O318 Mg308 2.251 . S
O318 Mg311 2.079 . S
O318 C320 1.273 . S
C319 O315 1.246 . S
C319 O316 1.259 . S
C320 O317 1.252 . S
C320 O318 1.273 . S
O321 Mg308 2.010 . S
O321 C313 1.249 . S
Mg322 O323 2.028 . S
Mg322 O329 1.986 . S
Mg322 O331 2.114 . S
Mg322 O332 2.251 . S
Mg322 O335 2.010 . S
O323 Mg322 2.028 . S
O323 C326 1.250 . S
O324 Mg325 2.028 . S
O324 C326 1.248 . S
Mg325 O324 2.028 . S
Mg325 O330 2.032 . S
Mg325 O332 2.079 . S
C326 O323 1.250 . S
C326 O324 1.248 . S
C327 O328 1.264 . S
C327 O335 1.249 . S
O328 C327 1.264 . S
O329 Mg322 1.986 . S
O329 C333 1.246 . S
O330 Mg325 2.032 . S
O330 C333 1.259 . S
O331 Mg322 2.114 . S
O331 C334 1.252 . S
O332 Mg322 2.251 . S
O332 Mg325 2.079 . S
O332 C334 1.273 . S
C333 O329 1.246 . S
C333 O330 1.259 . S
C334 O331 1.252 . S
C334 O332 1.273 . S
O335 Mg322 2.010 . S
O335 C327 1.249 . S
Mg336 O337 2.028 . S
Mg336 O343 1.986 . S
Mg336 O345 2.114 . S
Mg336 O346 2.251 . S
Mg336 O349 2.010 . S
O337 Mg336 2.028 . S
O337 C340 1.250 . S
O338 Mg339 2.028 . S
O338 C340 1.248 . S
Mg339 O338 2.028 . S
Mg339 O344 2.032 . S
Mg339 O346 2.079 . S
C340 O337 1.250 . S
C340 O338 1.248 . S
C341 O342 1.264 . S
C341 O349 1.249 . S
O342 C341 1.264 . S
O343 Mg336 1.986 . S
O343 C347 1.246 . S
O344 Mg339 2.032 . S
O344 C347 1.259 . S
O345 Mg336 2.114 . S
O345 C348 1.252 . S
O346 Mg336 2.251 . S
O346 Mg339 2.079 . S
O346 C348 1.273 . S
C347 O343 1.246 . S
C347 O344 1.259 . S
C348 O345 1.252 . S
C348 O346 1.273 . S
O349 Mg336 2.010 . S
O349 C341 1.249 . S
Mg350 O351 2.028 . S
Mg350 O357 1.986 . S
Mg350 O359 2.114 . S
Mg350 O360 2.251 . S
Mg350 O363 2.010 . S
O351 Mg350 2.028 . S
O351 C354 1.250 . S
O352 Mg353 2.028 . S
O352 C354 1.248 . S
Mg353 O352 2.028 . S
Mg353 O358 2.032 . S
Mg353 O360 2.079 . S
C354 O351 1.250 . S
C354 O352 1.248 . S
C355 O356 1.264 . S
C355 O363 1.249 . S
O356 C355 1.264 . S
O357 Mg350 1.986 . S
O357 C361 1.246 . S
O358 Mg353 2.032 . S
O358 C361 1.259 . S
O359 Mg350 2.114 . S
O359 C362 1.252 . S
O360 Mg350 2.251 . S
O360 Mg353 2.079 . S
O360 C362 1.273 . S
C361 O357 1.246 . S
C361 O358 1.259 . S
C362 O359 1.252 . S
C362 O360 1.273 . S
O363 Mg350 2.010 . S
O363 C355 1.249 . S
Mg364 O365 2.028 . S
Mg364 O371 1.986 . S
Mg364 O373 2.114 . S
Mg364 O374 2.251 . S
Mg364 O377 2.010 . S
O365 Mg364 2.028 . S
O365 C368 1.250 . S
O366 Mg367 2.028 . S
O366 C368 1.248 . S
Mg367 O366 2.028 . S
Mg367 O372 2.032 . S
Mg367 O374 2.079 . S
C368 O365 1.250 . S
C368 O366 1.248 . S
C369 O370 1.264 . S
C369 O377 1.249 . S
O370 C369 1.264 . S
O371 Mg364 1.986 . S
O371 C375 1.246 . S
O372 Mg367 2.032 . S
O372 C375 1.259 . S
O373 Mg364 2.114 . S
O373 C376 1.252 . S
O374 Mg364 2.251 . S
O374 Mg367 2.079 . S
O374 C376 1.273 . S
C375 O371 1.246 . S
C375 O372 1.259 . S
C376 O373 1.252 . S
C376 O374 1.273 . S
O377 Mg364 2.010 . S
O377 C369 1.249 . S
Mg378 O379 2.028 . S
Mg378 O385 1.986 . S
Mg378 O387 2.114 . S
Mg378 O388 2.251 . S
Mg378 O391 2.010 . S
O379 Mg378 2.028 . S
O379 C382 1.250 . S
O380 Mg381 2.028 . S
O380 C382 1.248 . S
Mg381 O380 2.028 . S
Mg381 O386 2.032 . S
Mg381 O388 2.079 . S
C382 O379 1.250 . S
C382 O380 1.248 . S
C383 O384 1.264 . S
C383 O391 1.249 . S
O384 C383 1.264 . S
O385 Mg378 1.986 . S
O385 C389 1.246 . S
O386 Mg381 2.032 . S
O386 C389 1.259 . S
O387 Mg378 2.114 . S
O387 C390 1.252 . S
O388 Mg378 2.251 . S
O388 Mg381 2.079 . S
O388 C390 1.273 . S
C389 O385 1.246 . S
C389 O386 1.259 . S
C390 O387 1.252 . S
C390 O388 1.273 . S
O391 Mg378 2.010 . S
O391 C383 1.249 . S
Mg392 O393 2.028 . S
Mg392 O399 1.986 . S
Mg392 O401 2.114 . S
Mg392 O402 2.251 . S
Mg392 O405 2.010 . S
O393 Mg392 2.028 . S
O393 C396 1.250 . S
O394 Mg395 2.028 . S
O394 C396 1.248 . S
Mg395 O394 2.028 . S
Mg395 O400 2.032 . S
Mg395 O402 2.079 . S
C396 O393 1.250 . S
C396 O394 1.248 . S
C397 O398 1.264 . S
C397 O405 1.249 . S
O398 C397 1.264 . S
O399 Mg392 1.986 . S
O399 C403 1.246 . S
O400 Mg395 2.032 . S
O400 C403 1.259 . S
O401 Mg392 2.114 . S
O401 C404 1.252 . S
O402 Mg392 2.251 . S
O402 Mg395 2.079 . S
O402 C404 1.273 . S
C403 O399 1.246 . S
C403 O400 1.259 . S
C404 O401 1.252 . S
C404 O402 1.273 . S
O405 Mg392 2.010 . S
O405 C397 1.249 . S
Mg406 O407 2.028 . S
Mg406 O413 1.986 . S
Mg406 O415 2.114 . S
Mg406 O416 2.251 . S
Mg406 O419 2.010 . S
O407 Mg406 2.028 . S
O407 C410 1.250 . S
O408 Mg409 2.028 . S
O408 C410 1.248 . S
Mg409 O408 2.028 . S
Mg409 O414 2.032 . S
Mg409 O416 2.079 . S
C410 O407 1.250 . S
C410 O408 1.248 . S
C411 O412 1.264 . S
C411 O419 1.249 . S
O412 C411 1.264 . S
O413 Mg406 1.986 . S
O413 C417 1.246 . S
O414 Mg409 2.032 . S
O414 C417 1.259 . S
O415 Mg406 2.114 . S
O415 C418 1.252 . S
O416 Mg406 2.251 . S
O416 Mg409 2.079 . S
O416 C418 1.273 . S
C417 O413 1.246 . S
C417 O414 1.259 . S
C418 O415 1.252 . S
C418 O416 1.273 . S
O419 Mg406 2.010 . S
O419 C411 1.249 . S
Mg420 O421 2.028 . S
Mg420 O427 1.986 . S
Mg420 O429 2.114 . S
Mg420 O430 2.251 . S
Mg420 O433 2.010 . S
O421 Mg420 2.028 . S
O421 C424 1.250 . S
O422 Mg423 2.028 . S
O422 C424 1.248 . S
Mg423 O422 2.028 . S
Mg423 O428 2.032 . S
Mg423 O430 2.079 . S
C424 O421 1.250 . S
C424 O422 1.248 . S
C425 O426 1.264 . S
C425 O433 1.249 . S
O426 C425 1.264 . S
O427 Mg420 1.986 . S
O427 C431 1.246 . S
O428 Mg423 2.032 . S
O428 C431 1.259 . S
O429 Mg420 2.114 . S
O429 C432 1.252 . S
O430 Mg420 2.251 . S
O430 Mg423 2.079 . S
O430 C432 1.273 . S
C431 O427 1.246 . S
C431 O428 1.259 . S
C432 O429 1.252 . S
C432 O430 1.273 . S
O433 Mg420 2.010 . S
O433 C425 1.249 . S
Mg434 O435 2.028 . S
Mg434 O441 1.986 . S
Mg434 O443 2.114 . S
Mg434 O444 2.251 . S
Mg434 O447 2.010 . S
O435 Mg434 2.028 . S
O435 C438 1.250 . S
O436 Mg437 2.028 . S
O436 C438 1.248 . S
Mg437 O436 2.028 . S
Mg437 O442 2.032 . S
Mg437 O444 2.079 . S
C438 O435 1.250 . S
C438 O436 1.248 . S
C439 O440 1.264 . S
C439 O447 1.249 . S
O440 C439 1.264 . S
O441 Mg434 1.986 . S
O441 C445 1.246 . S
O442 Mg437 2.032 . S
O442 C445 1.259 . S
O443 Mg434 2.114 . S
O443 C446 1.252 . S
O444 Mg434 2.251 . S
O444 Mg437 2.079 . S
O444 C446 1.273 . S
C445 O441 1.246 . S
C445 O442 1.259 . S
C446 O443 1.252 . S
C446 O444 1.273 . S
O447 Mg434 2.010 . S
O447 C439 1.249 . S
C448 C449 1.369 . S
C448 C450 1.419 . S
C448 H452 0.930 . S
C449 C448 1.369 . S
C449 C458 1.429 . S
C450 C448 1.419 . S
C450 C451 1.363 . S
C450 H453 0.929 . S
C451 C450 1.363 . S
C451 C457 1.428 . S
H452 C448 0.930 . S
H453 C450 0.929 . S
S454 N455 1.613 . S
S454 N456 1.610 . S
N455 S454 1.613 . S
N455 C458 1.350 . S
N456 S454 1.610 . S
N456 C457 1.351 . S
C457 C451 1.428 . S
C457 N456 1.351 . S
C457 C458 1.434 . S
C458 C449 1.429 . S
C458 N455 1.350 . S
C458 C457 1.434 . S
C459 C460 1.369 . S
C459 C461 1.419 . S
C459 H463 0.930 . S
C460 C459 1.369 . S
C460 C469 1.429 . S
C461 C459 1.419 . S
C461 C462 1.363 . S
C461 H464 0.929 . S
C462 C461 1.363 . S
C462 C468 1.428 . S
H463 C459 0.930 . S
H464 C461 0.929 . S
S465 N466 1.613 . S
S465 N467 1.610 . S
N466 S465 1.613 . S
N466 C469 1.350 . S
N467 S465 1.610 . S
N467 C468 1.351 . S
C468 C462 1.428 . S
C468 N467 1.351 . S
C468 C469 1.434 . S
C469 C460 1.429 . S
C469 N466 1.350 . S
C469 C468 1.434 . S
C470 C471 1.369 . S
C470 C472 1.419 . S
C470 H474 0.930 . S
C471 C470 1.369 . S
C471 C480 1.429 . S
C472 C470 1.419 . S
C472 C473 1.363 . S
C472 H475 0.929 . S
C473 C472 1.363 . S
C473 C479 1.428 . S
H474 C470 0.930 . S
H475 C472 0.929 . S
S476 N477 1.613 . S
S476 N478 1.610 . S
N477 S476 1.613 . S
N477 C480 1.350 . S
N478 S476 1.610 . S
N478 C479 1.351 . S
C479 C473 1.428 . S
C479 N478 1.351 . S
C479 C480 1.434 . S
C480 C471 1.429 . S
C480 N477 1.350 . S
C480 C479 1.434 . S
C481 C482 1.369 . S
C481 C483 1.419 . S
C481 H485 0.930 . S
C482 C481 1.369 . S
C482 C491 1.429 . S
C483 C481 1.419 . S
C483 C484 1.363 . S
C483 H486 0.929 . S
C484 C483 1.363 . S
C484 C490 1.428 . S
H485 C481 0.930 . S
H486 C483 0.929 . S
S487 N488 1.613 . S
S487 N489 1.610 . S
N488 S487 1.613 . S
N488 C491 1.350 . S
N489 S487 1.610 . S
N489 C490 1.351 . S
C490 C484 1.428 . S
C490 N489 1.351 . S
C490 C491 1.434 . S
C491 C482 1.429 . S
C491 N488 1.350 . S
C491 C490 1.434 . S
C492 C493 1.369 . S
C492 C494 1.419 . S
C492 H496 0.930 . S
C493 C492 1.369 . S
C493 C502 1.429 . S
C494 C492 1.419 . S
C494 C495 1.363 . S
C494 H497 0.929 . S
C495 C494 1.363 . S
C495 C501 1.428 . S
H496 C492 0.930 . S
H497 C494 0.929 . S
S498 N499 1.613 . S
S498 N500 1.610 . S
N499 S498 1.613 . S
N499 C502 1.350 . S
N500 S498 1.610 . S
N500 C501 1.351 . S
C501 C495 1.428 . S
C501 N500 1.351 . S
C501 C502 1.434 . S
C502 C493 1.429 . S
C502 N499 1.350 . S
C502 C501 1.434 . S
C503 C504 1.369 . S
C503 C505 1.419 . S
C503 H507 0.930 . S
C504 C503 1.369 . S
C504 C513 1.429 . S
C505 C503 1.419 . S
C505 C506 1.363 . S
C505 H508 0.929 . S
C506 C505 1.363 . S
C506 C512 1.428 . S
H507 C503 0.930 . S
H508 C505 0.929 . S
S509 N510 1.613 . S
S509 N511 1.610 . S
N510 S509 1.613 . S
N510 C513 1.350 . S
N511 S509 1.610 . S
N511 C512 1.351 . S
C512 C506 1.428 . S
C512 N511 1.351 . S
C512 C513 1.434 . S
C513 C504 1.429 . S
C513 N510 1.350 . S
C513 C512 1.434 . S
C514 C515 1.369 . S
C514 C516 1.419 . S
C514 H518 0.930 . S
C515 C514 1.369 . S
C515 C524 1.429 . S
C516 C514 1.419 . S
C516 C517 1.363 . S
C516 H519 0.929 . S
C517 C516 1.363 . S
C517 C523 1.428 . S
H518 C514 0.930 . S
H519 C516 0.929 . S
S520 N521 1.613 . S
S520 N522 1.610 . S
N521 S520 1.613 . S
N521 C524 1.350 . S
N522 S520 1.610 . S
N522 C523 1.351 . S
C523 C517 1.428 . S
C523 N522 1.351 . S
C523 C524 1.434 . S
C524 C515 1.429 . S
C524 N521 1.350 . S
C524 C523 1.434 . S
C525 C526 1.369 . S
C525 C527 1.419 . S
C525 H529 0.930 . S
C526 C525 1.369 . S
C526 C535 1.429 . S
C527 C525 1.419 . S
C527 C528 1.363 . S
C527 H530 0.929 . S
C528 C527 1.363 . S
C528 C534 1.428 . S
H529 C525 0.930 . S
H530 C527 0.929 . S
S531 N532 1.613 . S
S531 N533 1.610 . S
N532 S531 1.613 . S
N532 C535 1.350 . S
N533 S531 1.610 . S
N533 C534 1.351 . S
C534 C528 1.428 . S
C534 N533 1.351 . S
C534 C535 1.434 . S
C535 C526 1.429 . S
C535 N532 1.350 . S
C535 C534 1.434 . S
C536 C537 1.369 . S
C536 C538 1.419 . S
C536 H540 0.930 . S
C537 C536 1.369 . S
C537 C546 1.429 . S
C538 C536 1.419 . S
C538 C539 1.363 . S
C538 H541 0.929 . S
C539 C538 1.363 . S
C539 C545 1.428 . S
H540 C536 0.930 . S
H541 C538 0.929 . S
S542 N543 1.613 . S
S542 N544 1.610 . S
N543 S542 1.613 . S
N543 C546 1.350 . S
N544 S542 1.610 . S
N544 C545 1.351 . S
C545 C539 1.428 . S
C545 N544 1.351 . S
C545 C546 1.434 . S
C546 C537 1.429 . S
C546 N543 1.350 . S
C546 C545 1.434 . S
C547 C548 1.369 . S
C547 C549 1.419 . S
C547 H551 0.930 . S
C548 C547 1.369 . S
C548 C557 1.429 . S
C549 C547 1.419 . S
C549 C550 1.363 . S
C549 H552 0.929 . S
C550 C549 1.363 . S
C550 C556 1.428 . S
H551 C547 0.930 . S
H552 C549 0.929 . S
S553 N554 1.613 . S
S553 N555 1.610 . S
N554 S553 1.613 . S
N554 C557 1.350 . S
N555 S553 1.610 . S
N555 C556 1.351 . S
C556 C550 1.428 . S
C556 N555 1.351 . S
C556 C557 1.434 . S
C557 C548 1.429 . S
C557 N554 1.350 . S
C557 C556 1.434 . S
C558 C559 1.369 . S
C558 C560 1.419 . S
C558 H562 0.930 . S
C559 C558 1.369 . S
C559 C568 1.429 . S
C560 C558 1.419 . S
C560 C561 1.363 . S
C560 H563 0.929 . S
C561 C560 1.363 . S
C561 C567 1.428 . S
H562 C558 0.930 . S
H563 C560 0.929 . S
S564 N565 1.613 . S
S564 N566 1.610 . S
N565 S564 1.613 . S
N565 C568 1.350 . S
N566 S564 1.610 . S
N566 C567 1.351 . S
C567 C561 1.428 . S
C567 N566 1.351 . S
C567 C568 1.434 . S
C568 C559 1.429 . S
C568 N565 1.350 . S
C568 C567 1.434 . S
C569 C570 1.369 . S
C569 C571 1.419 . S
C569 H573 0.930 . S
C570 C569 1.369 . S
C570 C579 1.429 . S
C571 C569 1.419 . S
C571 C572 1.363 . S
C571 H574 0.929 . S
C572 C571 1.363 . S
C572 C578 1.428 . S
H573 C569 0.930 . S
H574 C571 0.929 . S
S575 N576 1.613 . S
S575 N577 1.610 . S
N576 S575 1.613 . S
N576 C579 1.350 . S
N577 S575 1.610 . S
N577 C578 1.351 . S
C578 C572 1.428 . S
C578 N577 1.351 . S
C578 C579 1.434 . S
C579 C570 1.429 . S
C579 N576 1.350 . S
C579 C578 1.434 . S
C580 C581 1.369 . S
C580 C582 1.419 . S
C580 H584 0.930 . S
C581 C580 1.369 . S
C581 C590 1.429 . S
C582 C580 1.419 . S
C582 C583 1.363 . S
C582 H585 0.929 . S
C583 C582 1.363 . S
C583 C589 1.428 . S
H584 C580 0.930 . S
H585 C582 0.929 . S
S586 N587 1.613 . S
S586 N588 1.610 . S
N587 S586 1.613 . S
N587 C590 1.350 . S
N588 S586 1.610 . S
N588 C589 1.351 . S
C589 C583 1.428 . S
C589 N588 1.351 . S
C589 C590 1.434 . S
C590 C581 1.429 . S
C590 N587 1.350 . S
C590 C589 1.434 . S
C591 C592 1.369 . S
C591 C593 1.419 . S
C591 H595 0.930 . S
C592 C591 1.369 . S
C592 C601 1.429 . S
C593 C591 1.419 . S
C593 C594 1.363 . S
C593 H596 0.929 . S
C594 C593 1.363 . S
C594 C600 1.428 . S
H595 C591 0.930 . S
H596 C593 0.929 . S
S597 N598 1.613 . S
S597 N599 1.610 . S
N598 S597 1.613 . S
N598 C601 1.350 . S
N599 S597 1.610 . S
N599 C600 1.351 . S
C600 C594 1.428 . S
C600 N599 1.351 . S
C600 C601 1.434 . S
C601 C592 1.429 . S
C601 N598 1.350 . S
C601 C600 1.434 . S
C602 C603 1.369 . S
C602 C604 1.419 . S
C602 H606 0.930 . S
C603 C602 1.369 . S
C603 C612 1.429 . S
C604 C602 1.419 . S
C604 C605 1.363 . S
C604 H607 0.929 . S
C605 C604 1.363 . S
C605 C611 1.428 . S
H606 C602 0.930 . S
H607 C604 0.929 . S
S608 N609 1.613 . S
S608 N610 1.610 . S
N609 S608 1.613 . S
N609 C612 1.350 . S
N610 S608 1.610 . S
N610 C611 1.351 . S
C611 C605 1.428 . S
C611 N610 1.351 . S
C611 C612 1.434 . S
C612 C603 1.429 . S
C612 N609 1.350 . S
C612 C611 1.434 . S
C613 C614 1.369 . S
C613 C615 1.419 . S
C613 H617 0.930 . S
C614 C613 1.369 . S
C614 C623 1.429 . S
C615 C613 1.419 . S
C615 C616 1.363 . S
C615 H618 0.929 . S
C616 C615 1.363 . S
C616 C622 1.428 . S
H617 C613 0.930 . S
H618 C615 0.929 . S
S619 N620 1.613 . S
S619 N621 1.610 . S
N620 S619 1.613 . S
N620 C623 1.350 . S
N621 S619 1.610 . S
N621 C622 1.351 . S
C622 C616 1.428 . S
C622 N621 1.351 . S
C622 C623 1.434 . S
C623 C614 1.429 . S
C623 N620 1.350 . S
C623 C622 1.434 . S
C624 C625 1.369 . S
C624 C626 1.419 1_655 S
C624 H628 0.930 . S
C625 C624 1.369 . S
C625 C634 1.429 . S
C626 C624 1.419 1_455 S
C626 C627 1.363 . S
C626 H629 0.929 . S
C627 C626 1.363 . S
C627 C633 1.428 . S
H628 C624 0.930 . S
H629 C626 0.929 . S
S630 N631 1.613 . S
S630 N632 1.610 1_655 S
N631 S630 1.613 . S
N631 C634 1.350 . S
N632 S630 1.610 1_455 S
N632 C633 1.351 . S
C633 C627 1.428 . S
C633 N632 1.351 . S
C633 C634 1.434 1_455 S
C634 C625 1.429 . S
C634 N631 1.350 . S
C634 C633 1.434 1_655 S
C635 C636 1.369 . S
C635 C637 1.419 1_545 S
C635 H639 0.930 . S
C636 C635 1.369 . S
C636 C645 1.429 . S
C637 C635 1.419 1_565 S
C637 C638 1.363 . S
C637 H640 0.929 . S
C638 C637 1.363 . S
C638 C644 1.428 . S
H639 C635 0.930 . S
H640 C637 0.929 . S
S641 N642 1.613 1_565 S
S641 N643 1.610 . S
N642 S641 1.613 1_545 S
N642 C645 1.350 . S
N643 S641 1.610 . S
N643 C644 1.351 . S
C644 C638 1.428 . S
C644 N643 1.351 . S
C644 C645 1.434 1_565 S
C645 C636 1.429 . S
C645 N642 1.350 . S
C645 C644 1.434 1_545 S
C646 C647 1.369 . S
C646 C648 1.419 1_455 S
C646 H650 0.930 . S
C647 C646 1.369 . S
C647 C656 1.429 . S
C648 C646 1.419 1_655 S
C648 C649 1.363 . S
C648 H651 0.929 . S
C649 C648 1.363 . S
C649 C655 1.428 . S
H650 C646 0.930 . S
H651 C648 0.929 . S
S652 N653 1.613 . S
S652 N654 1.610 1_455 S
N653 S652 1.613 . S
N653 C656 1.350 . S
N654 S652 1.610 1_655 S
N654 C655 1.351 . S
C655 C649 1.428 . S
C655 N654 1.351 . S
C655 C656 1.434 1_655 S
C656 C647 1.429 . S
C656 N653 1.350 . S
C656 C655 1.434 1_455 S
C657 C658 1.369 . S
C657 C659 1.419 1_565 S
C657 H661 0.930 . S
C658 C657 1.369 . S
C658 C667 1.429 . S
C659 C657 1.419 1_545 S
C659 C660 1.363 . S
C659 H662 0.929 . S
C660 C659 1.363 . S
C660 C666 1.428 . S
H661 C657 0.930 . S
H662 C659 0.929 . S
S663 N664 1.613 . S
S663 N665 1.610 1_565 S
N664 S663 1.613 . S
N664 C667 1.350 . S
N665 S663 1.610 1_545 S
N665 C666 1.351 . S
C666 C660 1.428 . S
C666 N665 1.351 . S
C666 C667 1.434 1_545 S
C667 C658 1.429 . S
C667 N664 1.350 . S
C667 C666 1.434 1_565 S
C668 C669 1.369 . S
C668 C670 1.419 1_455 S
C668 H672 0.930 . S
C669 C668 1.369 . S
C669 C678 1.429 . S
C670 C668 1.419 1_655 S
C670 C671 1.363 . S
C670 H673 0.929 . S
C671 C670 1.363 . S
C671 C677 1.428 . S
H672 C668 0.930 . S
H673 C670 0.929 . S
S674 N675 1.613 1_655 S
S674 N676 1.610 . S
N675 S674 1.613 1_455 S
N675 C678 1.350 . S
N676 S674 1.610 . S
N676 C677 1.351 . S
C677 C671 1.428 . S
C677 N676 1.351 . S
C677 C678 1.434 1_655 S
C678 C669 1.429 . S
C678 N675 1.350 . S
C678 C677 1.434 1_455 S
C679 C680 1.369 . S
C679 C681 1.419 1_565 S
C679 H683 0.930 . S
C680 C679 1.369 . S
C680 C689 1.429 . S
C681 C679 1.419 1_545 S
C681 C682 1.363 . S
C681 H684 0.929 . S
C682 C681 1.363 . S
C682 C688 1.428 . S
H683 C679 0.930 . S
H684 C681 0.929 . S
S685 N686 1.613 1_545 S
S685 N687 1.610 . S
N686 S685 1.613 1_565 S
N686 C689 1.350 . S
N687 S685 1.610 . S
N687 C688 1.351 . S
C688 C682 1.428 . S
C688 N687 1.351 . S
C688 C689 1.434 1_545 S
C689 C680 1.429 . S
C689 N686 1.350 . S
C689 C688 1.434 1_565 S
C690 C691 1.369 . S
C690 C692 1.419 1_455 S
C690 H694 0.930 . S
C691 C690 1.369 . S
C691 C700 1.429 . S
C692 C690 1.419 1_655 S
C692 C693 1.363 . S
C692 H695 0.929 . S
C693 C692 1.363 . S
C693 C699 1.428 . S
H694 C690 0.930 . S
H695 C692 0.929 . S
S696 N697 1.613 . S
S696 N698 1.610 1_455 S
N697 S696 1.613 . S
N697 C700 1.350 . S
N698 S696 1.610 1_655 S
N698 C699 1.351 . S
C699 C693 1.428 . S
C699 N698 1.351 . S
C699 C700 1.434 1_655 S
C700 C691 1.429 . S
C700 N697 1.350 . S
C700 C699 1.434 1_455 S
C701 C702 1.369 . S
C701 C703 1.419 1_545 S
C701 H705 0.930 . S
C702 C701 1.369 . S
C702 C711 1.429 . S
C703 C701 1.419 1_565 S
C703 C704 1.363 . S
C703 H706 0.929 . S
C704 C703 1.363 . S
C704 C710 1.428 . S
H705 C701 0.930 . S
H706 C703 0.929 . S
S707 N708 1.613 1_565 S
S707 N709 1.610 . S
N708 S707 1.613 1_545 S
N708 C711 1.350 . S
N709 S707 1.610 . S
N709 C710 1.351 . S
C710 C704 1.428 . S
C710 N709 1.351 . S
C710 C711 1.434 1_565 S
C711 C702 1.429 . S
C711 N708 1.350 . S
C711 C710 1.434 1_545 S
C712 C713 1.369 . S
C712 C714 1.419 . S
C712 H716 0.930 . S
C713 C712 1.369 . S
C713 C722 1.429 . S
C714 C712 1.419 . S
C714 C715 1.363 . S
C714 H717 0.929 . S
C715 C714 1.363 . S
C715 C721 1.428 . S
H716 C712 0.930 . S
H717 C714 0.929 . S
S718 N719 1.613 . S
S718 N720 1.610 . S
N719 S718 1.613 . S
N719 C722 1.350 . S
N720 S718 1.610 . S
N720 C721 1.351 . S
C721 C715 1.428 . S
C721 N720 1.351 . S
C721 C722 1.434 . S
C722 C713 1.429 . S
C722 N719 1.350 . S
C722 C721 1.434 . S
C723 C724 1.369 . S
C723 C725 1.419 . S
C723 H727 0.930 . S
C724 C723 1.369 . S
C724 C733 1.429 . S
C725 C723 1.419 . S
C725 C726 1.363 . S
C725 H728 0.929 . S
C726 C725 1.363 . S
C726 C732 1.428 . S
H727 C723 0.930 . S
H728 C725 0.929 . S
S729 N730 1.613 . S
S729 N731 1.610 . S
N730 S729 1.613 . S
N730 C733 1.350 . S
N731 S729 1.610 . S
N731 C732 1.351 . S
C732 C726 1.428 . S
C732 N731 1.351 . S
C732 C733 1.434 . S
C733 C724 1.429 . S
C733 N730 1.350 . S
C733 C732 1.434 . S
C734 C735 1.369 . S
C734 C736 1.419 . S
C734 H738 0.930 . S
C735 C734 1.369 . S
C735 C744 1.429 . S
C736 C734 1.419 . S
C736 C737 1.363 . S
C736 H739 0.929 . S
C737 C736 1.363 . S
C737 C743 1.428 . S
H738 C734 0.930 . S
H739 C736 0.929 . S
S740 N741 1.613 . S
S740 N742 1.610 . S
N741 S740 1.613 . S
N741 C744 1.350 . S
N742 S740 1.610 . S
N742 C743 1.351 . S
C743 C737 1.428 . S
C743 N742 1.351 . S
C743 C744 1.434 . S
C744 C735 1.429 . S
C744 N741 1.350 . S
C744 C743 1.434 . S
C745 C746 1.369 . S
C745 C747 1.419 . S
C745 H749 0.930 . S
C746 C745 1.369 . S
C746 C755 1.429 . S
C747 C745 1.419 . S
C747 C748 1.363 . S
C747 H750 0.929 . S
C748 C747 1.363 . S
C748 C754 1.428 . S
H749 C745 0.930 . S
H750 C747 0.929 . S
S751 N752 1.613 . S
S751 N753 1.610 . S
N752 S751 1.613 . S
N752 C755 1.350 . S
N753 S751 1.610 . S
N753 C754 1.351 . S
C754 C748 1.428 . S
C754 N753 1.351 . S
C754 C755 1.434 . S
C755 C746 1.429 . S
C755 N752 1.350 . S
C755 C754 1.434 . S
C756 C757 1.369 . S
C756 C758 1.419 . S
C756 H760 0.930 . S
C757 C756 1.369 . S
C757 C766 1.429 . S
C758 C756 1.419 . S
C758 C759 1.363 . S
C758 H761 0.929 . S
C759 C758 1.363 . S
C759 C765 1.428 . S
H760 C756 0.930 . S
H761 C758 0.929 . S
S762 N763 1.613 . S
S762 N764 1.610 . S
N763 S762 1.613 . S
N763 C766 1.350 . S
N764 S762 1.610 . S
N764 C765 1.351 . S
C765 C759 1.428 . S
C765 N764 1.351 . S
C765 C766 1.434 . S
C766 C757 1.429 . S
C766 N763 1.350 . S
C766 C765 1.434 . S
C767 C768 1.369 . S
C767 C769 1.419 . S
C767 H771 0.930 . S
C768 C767 1.369 . S
C768 C777 1.429 . S
C769 C767 1.419 . S
C769 C770 1.363 . S
C769 H772 0.929 . S
C770 C769 1.363 . S
C770 C776 1.428 . S
H771 C767 0.930 . S
H772 C769 0.929 . S
S773 N774 1.613 . S
S773 N775 1.610 . S
N774 S773 1.613 . S
N774 C777 1.350 . S
N775 S773 1.610 . S
N775 C776 1.351 . S
C776 C770 1.428 . S
C776 N775 1.351 . S
C776 C777 1.434 . S
C777 C768 1.429 . S
C777 N774 1.350 . S
C777 C776 1.434 . S
C778 C779 1.369 . S
C778 C780 1.419 . S
C778 H782 0.930 . S
C779 C778 1.369 . S
C779 C788 1.429 . S
C780 C778 1.419 . S
C780 C781 1.363 . S
C780 H783 0.929 . S
C781 C780 1.363 . S
C781 C787 1.428 . S
H782 C778 0.930 . S
H783 C780 0.929 . S
S784 N785 1.613 . S
S784 N786 1.610 . S
N785 S784 1.613 . S
N785 C788 1.350 . S
N786 S784 1.610 . S
N786 C787 1.351 . S
C787 C781 1.428 . S
C787 N786 1.351 . S
C787 C788 1.434 . S
C788 C779 1.429 . S
C788 N785 1.350 . S
C788 C787 1.434 . S
C789 C790 1.369 . S
C789 C791 1.419 . S
C789 H793 0.930 . S
C790 C789 1.369 . S
C790 C799 1.429 . S
C791 C789 1.419 . S
C791 C792 1.363 . S
C791 H794 0.929 . S
C792 C791 1.363 . S
C792 C798 1.428 . S
H793 C789 0.930 . S
H794 C791 0.929 . S
S795 N796 1.613 . S
S795 N797 1.610 . S
N796 S795 1.613 . S
N796 C799 1.350 . S
N797 S795 1.610 . S
N797 C798 1.351 . S
C798 C792 1.428 . S
C798 N797 1.351 . S
C798 C799 1.434 . S
C799 C790 1.429 . S
C799 N796 1.350 . S
C799 C798 1.434 . S
C800 C801 1.369 . S
C800 C802 1.419 . S
C800 H804 0.930 . S
C801 C800 1.369 . S
C801 C810 1.429 . S
C802 C800 1.419 . S
C802 C803 1.363 . S
C802 H805 0.929 . S
C803 C802 1.363 . S
C803 C809 1.428 . S
H804 C800 0.930 . S
H805 C802 0.929 . S
S806 N807 1.613 . S
S806 N808 1.610 . S
N807 S806 1.613 . S
N807 C810 1.350 . S
N808 S806 1.610 . S
N808 C809 1.351 . S
C809 C803 1.428 . S
C809 N808 1.351 . S
C809 C810 1.434 . S
C810 C801 1.429 . S
C810 N807 1.350 . S
C810 C809 1.434 . S
C811 C812 1.369 . S
C811 C813 1.419 . S
C811 H815 0.930 . S
C812 C811 1.369 . S
C812 C821 1.429 . S
C813 C811 1.419 . S
C813 C814 1.363 . S
C813 H816 0.929 . S
C814 C813 1.363 . S
C814 C820 1.428 . S
H815 C811 0.930 . S
H816 C813 0.929 . S
S817 N818 1.613 . S
S817 N819 1.610 . S
N818 S817 1.613 . S
N818 C821 1.350 . S
N819 S817 1.610 . S
N819 C820 1.351 . S
C820 C814 1.428 . S
C820 N819 1.351 . S
C820 C821 1.434 . S
C821 C812 1.429 . S
C821 N818 1.350 . S
C821 C820 1.434 . S
C822 C823 1.369 . S
C822 C824 1.419 . S
C822 H826 0.930 . S
C823 C822 1.369 . S
C823 C832 1.429 . S
C824 C822 1.419 . S
C824 C825 1.363 . S
C824 H827 0.929 . S
C825 C824 1.363 . S
C825 C831 1.428 . S
H826 C822 0.930 . S
H827 C824 0.929 . S
S828 N829 1.613 . S
S828 N830 1.610 . S
N829 S828 1.613 . S
N829 C832 1.350 . S
N830 S828 1.610 . S
N830 C831 1.351 . S
C831 C825 1.428 . S
C831 N830 1.351 . S
C831 C832 1.434 . S
C832 C823 1.429 . S
C832 N829 1.350 . S
C832 C831 1.434 . S
C833 C834 1.369 . S
C833 C835 1.419 . S
C833 H837 0.930 . S
C834 C833 1.369 . S
C834 C843 1.429 . S
C835 C833 1.419 . S
C835 C836 1.363 . S
C835 H838 0.929 . S
C836 C835 1.363 . S
C836 C842 1.428 . S
H837 C833 0.930 . S
H838 C835 0.929 . S
S839 N840 1.613 . S
S839 N841 1.610 . S
N840 S839 1.613 . S
N840 C843 1.350 . S
N841 S839 1.610 . S
N841 C842 1.351 . S
C842 C836 1.428 . S
C842 N841 1.351 . S
C842 C843 1.434 . S
C843 C834 1.429 . S
C843 N840 1.350 . S
C843 C842 1.434 . S
C844 C845 1.369 . S
C844 C846 1.419 . S
C844 H848 0.930 . S
C845 C844 1.369 . S
C845 C854 1.429 . S
C846 C844 1.419 . S
C846 C847 1.363 . S
C846 H849 0.929 . S
C847 C846 1.363 . S
C847 C853 1.428 . S
H848 C844 0.930 . S
H849 C846 0.929 . S
S850 N851 1.613 . S
S850 N852 1.610 . S
N851 S850 1.613 . S
N851 C854 1.350 . S
N852 S850 1.610 . S
N852 C853 1.351 . S
C853 C847 1.428 . S
C853 N852 1.351 . S
C853 C854 1.434 . S
C854 C845 1.429 . S
C854 N851 1.350 . S
C854 C853 1.434 . S
C855 C856 1.369 . S
C855 C857 1.419 . S
C855 H859 0.930 . S
C856 C855 1.369 . S
C856 C865 1.429 . S
C857 C855 1.419 . S
C857 C858 1.363 . S
C857 H860 0.929 . S
C858 C857 1.363 . S
C858 C864 1.428 . S
H859 C855 0.930 . S
H860 C857 0.929 . S
S861 N862 1.613 . S
S861 N863 1.610 . S
N862 S861 1.613 . S
N862 C865 1.350 . S
N863 S861 1.610 . S
N863 C864 1.351 . S
C864 C858 1.428 . S
C864 N863 1.351 . S
C864 C865 1.434 . S
C865 C856 1.429 . S
C865 N862 1.350 . S
C865 C864 1.434 . S
C866 C867 1.369 . S
C866 C868 1.419 . S
C866 H870 0.930 . S
C867 C866 1.369 . S
C867 C876 1.429 . S
C868 C866 1.419 . S
C868 C869 1.363 . S
C868 H871 0.929 . S
C869 C868 1.363 . S
C869 C875 1.428 . S
H870 C866 0.930 . S
H871 C868 0.929 . S
S872 N873 1.613 . S
S872 N874 1.610 . S
N873 S872 1.613 . S
N873 C876 1.350 . S
N874 S872 1.610 . S
N874 C875 1.351 . S
C875 C869 1.428 . S
C875 N874 1.351 . S
C875 C876 1.434 . S
C876 C867 1.429 . S
C876 N873 1.350 . S
C876 C875 1.434 . S
C877 C878 1.369 . S
C877 C879 1.419 . S
C877 H881 0.930 . S
C878 C877 1.369 . S
C878 C887 1.429 . S
C879 C877 1.419 . S
C879 C880 1.363 . S
C879 H882 0.929 . S
C880 C879 1.363 . S
C880 C886 1.428 . S
H881 C877 0.930 . S
H882 C879 0.929 . S
S883 N884 1.613 . S
S883 N885 1.610 . S
N884 S883 1.613 . S
N884 C887 1.350 . S
N885 S883 1.610 . S
N885 C886 1.351 . S
C886 C880 1.428 . S
C886 N885 1.351 . S
C886 C887 1.434 . S
C887 C878 1.429 . S
C887 N884 1.350 . S
C887 C886 1.434 . S
C888 C889 1.369 . S
C888 C890 1.419 1_554 S
C888 H892 0.930 . S
C889 C888 1.369 . S
C889 C898 1.429 . S
C890 C888 1.419 1_556 S
C890 C891 1.363 . S
C890 H893 0.929 . S
C891 C890 1.363 . S
C891 C897 1.428 . S
H892 C888 0.930 . S
H893 C890 0.929 . S
S894 N895 1.613 1_556 S
S894 N896 1.610 . S
N895 S894 1.613 1_554 S
N895 C898 1.350 . S
N896 S894 1.610 . S
N896 C897 1.351 . S
C897 C891 1.428 . S
C897 N896 1.351 . S
C897 C898 1.434 1_556 S
C898 C889 1.429 . S
C898 N895 1.350 . S
C898 C897 1.434 1_554 S
C899 C900 1.369 1_554 S
C899 C901 1.419 . S
C899 H903 0.930 1_554 S
C900 C899 1.369 1_556 S
C900 C909 1.429 1_556 S
C901 C899 1.419 . S
C901 C902 1.363 . S
C901 H904 0.929 . S
C902 C901 1.363 . S
C902 C908 1.428 . S
H903 C899 0.930 1_556 S
H904 C901 0.929 . S
S905 N906 1.613 1_554 S
S905 N907 1.610 . S
N906 S905 1.613 1_556 S
N906 C909 1.350 1_556 S
N907 S905 1.610 . S
N907 C908 1.351 . S
C908 C902 1.428 . S
C908 N907 1.351 . S
C908 C909 1.434 . S
C909 C900 1.429 1_554 S
C909 N906 1.350 1_554 S
C909 C908 1.434 . S
C910 C911 1.369 . S
C910 C912 1.419 1_554 S
C910 H914 0.930 . S
C911 C910 1.369 . S
C911 C920 1.429 . S
C912 C910 1.419 1_556 S
C912 C913 1.363 . S
C912 H915 0.929 . S
C913 C912 1.363 . S
C913 C919 1.428 . S
H914 C910 0.930 . S
H915 C912 0.929 . S
S916 N917 1.613 1_556 S
S916 N918 1.610 . S
N917 S916 1.613 1_554 S
N917 C920 1.350 . S
N918 S916 1.610 . S
N918 C919 1.351 . S
C919 C913 1.428 . S
C919 N918 1.351 . S
C919 C920 1.434 1_556 S
C920 C911 1.429 . S
C920 N917 1.350 . S
C920 C919 1.434 1_554 S
C921 C922 1.369 . S
C921 C923 1.419 . S
C921 H925 0.930 . S
C922 C921 1.369 . S
C922 C931 1.429 . S
C923 C921 1.419 . S
C923 C924 1.363 1_554 S
C923 H926 0.929 1_554 S
C924 C923 1.363 1_556 S
C924 C930 1.428 1_556 S
H925 C921 0.930 . S
H926 C923 0.929 1_556 S
S927 N928 1.613 . S
S927 N929 1.610 1_554 S
N928 S927 1.613 . S
N928 C931 1.350 . S
N929 S927 1.610 1_556 S
N929 C930 1.351 1_556 S
C930 C924 1.428 1_554 S
C930 N929 1.351 1_554 S
C930 C931 1.434 . S
C931 C922 1.429 . S
C931 N928 1.350 . S
C931 C930 1.434 . S
C932 C933 1.369 . S
C932 C934 1.419 1_554 S
C932 H936 0.930 . S
C933 C932 1.369 . S
C933 C942 1.429 . S
C934 C932 1.419 1_556 S
C934 C935 1.363 . S
C934 H937 0.929 . S
C935 C934 1.363 . S
C935 C941 1.428 . S
H936 C932 0.930 . S
H937 C934 0.929 . S
S938 N939 1.613 . S
S938 N940 1.610 1_554 S
N939 S938 1.613 . S
N939 C942 1.350 . S
N940 S938 1.610 1_556 S
N940 C941 1.351 . S
C941 C935 1.428 . S
C941 N940 1.351 . S
C941 C942 1.434 1_556 S
C942 C933 1.429 . S
C942 N939 1.350 . S
C942 C941 1.434 1_554 S
C943 C944 1.369 1_556 S
C943 C945 1.419 . S
C943 H947 0.930 1_556 S
C944 C943 1.369 1_554 S
C944 C953 1.429 1_554 S
C945 C943 1.419 . S
C945 C946 1.363 . S
C945 H948 0.929 . S
C946 C945 1.363 . S
C946 C952 1.428 . S
H947 C943 0.930 1_554 S
H948 C945 0.929 . S
S949 N950 1.613 1_556 S
S949 N951 1.610 . S
N950 S949 1.613 1_554 S
N950 C953 1.350 1_554 S
N951 S949 1.610 . S
N951 C952 1.351 . S
C952 C946 1.428 . S
C952 N951 1.351 . S
C952 C953 1.434 . S
C953 C944 1.429 1_556 S
C953 N950 1.350 1_556 S
C953 C952 1.434 . S
C954 C955 1.369 . S
C954 C956 1.419 1_556 S
C954 H958 0.930 . S
C955 C954 1.369 . S
C955 C964 1.429 . S
C956 C954 1.419 1_554 S
C956 C957 1.363 . S
C956 H959 0.929 . S
C957 C956 1.363 . S
C957 C963 1.428 . S
H958 C954 0.930 . S
H959 C956 0.929 . S
S960 N961 1.613 1_554 S
S960 N962 1.610 . S
N961 S960 1.613 1_556 S
N961 C964 1.350 . S
N962 S960 1.610 . S
N962 C963 1.351 . S
C963 C957 1.428 . S
C963 N962 1.351 . S
C963 C964 1.434 1_554 S
C964 C955 1.429 . S
C964 N961 1.350 . S
C964 C963 1.434 1_556 S
C965 C966 1.369 . S
C965 C967 1.419 . S
C965 H969 0.930 . S
C966 C965 1.369 . S
C966 C975 1.429 . S
C967 C965 1.419 . S
C967 C968 1.363 1_556 S
C967 H970 0.929 1_556 S
C968 C967 1.363 1_554 S
C968 C974 1.428 1_554 S
H969 C965 0.930 . S
H970 C967 0.929 1_554 S
S971 N972 1.613 . S
S971 N973 1.610 1_556 S
N972 S971 1.613 . S
N972 C975 1.350 . S
N973 S971 1.610 1_554 S
N973 C974 1.351 1_554 S
C974 C968 1.428 1_556 S
C974 N973 1.351 1_556 S
C974 C975 1.434 . S
C975 C966 1.429 . S
C975 N972 1.350 . S
C975 C974 1.434 . S
C976 C977 1.369 . S
C976 C978 1.419 . S
C976 H980 0.930 . S
C977 C976 1.369 . S
C977 C986 1.429 . S
C978 C976 1.419 . S
C978 C979 1.363 . S
C978 H981 0.929 . S
C979 C978 1.363 . S
C979 C985 1.428 . S
H980 C976 0.930 . S
H981 C978 0.929 . S
S982 N983 1.613 . S
S982 N984 1.610 . S
N983 S982 1.613 . S
N983 C986 1.350 . S
N984 S982 1.610 . S
N984 C985 1.351 . S
C985 C979 1.428 . S
C985 N984 1.351 . S
C985 C986 1.434 . S
C986 C977 1.429 . S
C986 N983 1.350 . S
C986 C985 1.434 . S
C987 C988 1.369 . S
C987 C989 1.419 . S
C987 H991 0.930 . S
C988 C987 1.369 . S
C988 C997 1.429 . S
C989 C987 1.419 . S
C989 C990 1.363 . S
C989 H992 0.929 . S
C990 C989 1.363 . S
C990 C996 1.428 . S
H991 C987 0.930 . S
H992 C989 0.929 . S
S993 N994 1.613 . S
S993 N995 1.610 . S
N994 S993 1.613 . S
N994 C997 1.350 . S
N995 S993 1.610 . S
N995 C996 1.351 . S
C996 C990 1.428 . S
C996 N995 1.351 . S
C996 C997 1.434 . S
C997 C988 1.429 . S
C997 N994 1.350 . S
C997 C996 1.434 . S
C998 C999 1.369 . S
C998 C1000 1.419 . S
C998 H1002 0.930 . S
C999 C998 1.369 . S
C999 C1008 1.429 . S
C1000 C998 1.419 . S
C1000 C1001 1.363 . S
C1000 H1003 0.929 . S
C1001 C1000 1.363 . S
C1001 C1007 1.428 . S
H1002 C998 0.930 . S
H1003 C1000 0.929 . S
S1004 N1005 1.613 . S
S1004 N1006 1.610 . S
N1005 S1004 1.613 . S
N1005 C1008 1.350 . S
N1006 S1004 1.610 . S
N1006 C1007 1.351 . S
C1007 C1001 1.428 . S
C1007 N1006 1.351 . S
C1007 C1008 1.434 . S
C1008 C999 1.429 . S
C1008 N1005 1.350 . S
C1008 C1007 1.434 . S
C1009 C1010 1.369 . S
C1009 C1011 1.419 . S
C1009 H1013 0.930 . S
C1010 C1009 1.369 . S
C1010 C1019 1.429 . S
C1011 C1009 1.419 . S
C1011 C1012 1.363 . S
C1011 H1014 0.929 . S
C1012 C1011 1.363 . S
C1012 C1018 1.428 . S
H1013 C1009 0.930 . S
H1014 C1011 0.929 . S
S1015 N1016 1.613 . S
S1015 N1017 1.610 . S
N1016 S1015 1.613 . S
N1016 C1019 1.350 . S
N1017 S1015 1.610 . S
N1017 C1018 1.351 . S
C1018 C1012 1.428 . S
C1018 N1017 1.351 . S
C1018 C1019 1.434 . S
C1019 C1010 1.429 . S
C1019 N1016 1.350 . S
C1019 C1018 1.434 . S
C1020 C1021 1.369 . S
C1020 C1022 1.419 . S
C1020 H1024 0.930 . S
C1021 C1020 1.369 . S
C1021 C1030 1.429 . S
C1022 C1020 1.419 . S
C1022 C1023 1.363 . S
C1022 H1025 0.929 . S
C1023 C1022 1.363 . S
C1023 C1029 1.428 . S
H1024 C1020 0.930 . S
H1025 C1022 0.929 . S
S1026 N1027 1.613 . S
S1026 N1028 1.610 . S
N1027 S1026 1.613 . S
N1027 C1030 1.350 . S
N1028 S1026 1.610 . S
N1028 C1029 1.351 . S
C1029 C1023 1.428 . S
C1029 N1028 1.351 . S
C1029 C1030 1.434 . S
C1030 C1021 1.429 . S
C1030 N1027 1.350 . S
C1030 C1029 1.434 . S
C1031 C1032 1.369 . S
C1031 C1033 1.419 . S
C1031 H1035 0.930 . S
C1032 C1031 1.369 . S
C1032 C1041 1.429 . S
C1033 C1031 1.419 . S
C1033 C1034 1.363 . S
C1033 H1036 0.929 . S
C1034 C1033 1.363 . S
C1034 C1040 1.428 . S
H1035 C1031 0.930 . S
H1036 C1033 0.929 . S
S1037 N1038 1.613 . S
S1037 N1039 1.610 . S
N1038 S1037 1.613 . S
N1038 C1041 1.350 . S
N1039 S1037 1.610 . S
N1039 C1040 1.351 . S
C1040 C1034 1.428 . S
C1040 N1039 1.351 . S
C1040 C1041 1.434 . S
C1041 C1032 1.429 . S
C1041 N1038 1.350 . S
C1041 C1040 1.434 . S
C1042 C1043 1.369 . S
C1042 C1044 1.419 . S
C1042 H1046 0.930 . S
C1043 C1042 1.369 . S
C1043 C1052 1.429 . S
C1044 C1042 1.419 . S
C1044 C1045 1.363 . S
C1044 H1047 0.929 . S
C1045 C1044 1.363 . S
C1045 C1051 1.428 . S
H1046 C1042 0.930 . S
H1047 C1044 0.929 . S
S1048 N1049 1.613 . S
S1048 N1050 1.610 . S
N1049 S1048 1.613 . S
N1049 C1052 1.350 . S
N1050 S1048 1.610 . S
N1050 C1051 1.351 . S
C1051 C1045 1.428 . S
C1051 N1050 1.351 . S
C1051 C1052 1.434 . S
C1052 C1043 1.429 . S
C1052 N1049 1.350 . S
C1052 C1051 1.434 . S
C1053 C1054 1.369 . S
C1053 C1055 1.419 . S
C1053 H1057 0.930 . S
C1054 C1053 1.369 . S
C1054 C1063 1.429 . S
C1055 C1053 1.419 . S
C1055 C1056 1.363 . S
C1055 H1058 0.929 . S
C1056 C1055 1.363 . S
C1056 C1062 1.428 . S
H1057 C1053 0.930 . S
H1058 C1055 0.929 . S
S1059 N1060 1.613 . S
S1059 N1061 1.610 . S
N1060 S1059 1.613 . S
N1060 C1063 1.350 . S
N1061 S1059 1.610 . S
N1061 C1062 1.351 . S
C1062 C1056 1.428 . S
C1062 N1061 1.351 . S
C1062 C1063 1.434 . S
C1063 C1054 1.429 . S
C1063 N1060 1.350 . S
C1063 C1062 1.434 . S
C1064 C1065 1.369 . S
C1064 C1066 1.419 . S
C1064 H1068 0.930 . S
C1065 C1064 1.369 . S
C1065 C1074 1.429 . S
C1066 C1064 1.419 . S
C1066 C1067 1.363 . S
C1066 H1069 0.929 . S
C1067 C1066 1.363 . S
C1067 C1073 1.428 . S
H1068 C1064 0.930 . S
H1069 C1066 0.929 . S
S1070 N1071 1.613 . S
S1070 N1072 1.610 . S
N1071 S1070 1.613 . S
N1071 C1074 1.350 . S
N1072 S1070 1.610 . S
N1072 C1073 1.351 . S
C1073 C1067 1.428 . S
C1073 N1072 1.351 . S
C1073 C1074 1.434 . S
C1074 C1065 1.429 . S
C1074 N1071 1.350 . S
C1074 C1073 1.434 . S
C1075 C1076 1.369 . S
C1075 C1077 1.419 . S
C1075 H1079 0.930 . S
C1076 C1075 1.369 . S
C1076 C1085 1.429 . S
C1077 C1075 1.419 . S
C1077 C1078 1.363 . S
C1077 H1080 0.929 . S
C1078 C1077 1.363 . S
C1078 C1084 1.428 . S
H1079 C1075 0.930 . S
H1080 C1077 0.929 . S
S1081 N1082 1.613 . S
S1081 N1083 1.610 . S
N1082 S1081 1.613 . S
N1082 C1085 1.350 . S
N1083 S1081 1.610 . S
N1083 C1084 1.351 . S
C1084 C1078 1.428 . S
C1084 N1083 1.351 . S
C1084 C1085 1.434 . S
C1085 C1076 1.429 . S
C1085 N1082 1.350 . S
C1085 C1084 1.434 . S
C1086 C1087 1.369 . S
C1086 C1088 1.419 . S
C1086 H1090 0.930 . S
C1087 C1086 1.369 . S
C1087 C1096 1.429 . S
C1088 C1086 1.419 . S
C1088 C1089 1.363 . S
C1088 H1091 0.929 . S
C1089 C1088 1.363 . S
C1089 C1095 1.428 . S
H1090 C1086 0.930 . S
H1091 C1088 0.929 . S
S1092 N1093 1.613 . S
S1092 N1094 1.610 . S
N1093 S1092 1.613 . S
N1093 C1096 1.350 . S
N1094 S1092 1.610 . S
N1094 C1095 1.351 . S
C1095 C1089 1.428 . S
C1095 N1094 1.351 . S
C1095 C1096 1.434 . S
C1096 C1087 1.429 . S
C1096 N1093 1.350 . S
C1096 C1095 1.434 . S
C1097 C1098 1.369 . S
C1097 C1099 1.419 . S
C1097 H1101 0.930 . S
C1098 C1097 1.369 . S
C1098 C1107 1.429 . S
C1099 C1097 1.419 . S
C1099 C1100 1.363 . S
C1099 H1102 0.929 . S
C1100 C1099 1.363 . S
C1100 C1106 1.428 . S
H1101 C1097 0.930 . S
H1102 C1099 0.929 . S
S1103 N1104 1.613 . S
S1103 N1105 1.610 . S
N1104 S1103 1.613 . S
N1104 C1107 1.350 . S
N1105 S1103 1.610 . S
N1105 C1106 1.351 . S
C1106 C1100 1.428 . S
C1106 N1105 1.351 . S
C1106 C1107 1.434 . S
C1107 C1098 1.429 . S
C1107 N1104 1.350 . S
C1107 C1106 1.434 . S
C1108 C1109 1.369 . S
C1108 C1110 1.419 . S
C1108 H1112 0.930 . S
C1109 C1108 1.369 . S
C1109 C1118 1.429 . S
C1110 C1108 1.419 . S
C1110 C1111 1.363 . S
C1110 H1113 0.929 . S
C1111 C1110 1.363 . S
C1111 C1117 1.428 . S
H1112 C1108 0.930 . S
H1113 C1110 0.929 . S
S1114 N1115 1.613 . S
S1114 N1116 1.610 . S
N1115 S1114 1.613 . S
N1115 C1118 1.350 . S
N1116 S1114 1.610 . S
N1116 C1117 1.351 . S
C1117 C1111 1.428 . S
C1117 N1116 1.351 . S
C1117 C1118 1.434 . S
C1118 C1109 1.429 . S
C1118 N1115 1.350 . S
C1118 C1117 1.434 . S
C1119 C1120 1.369 . S
C1119 C1121 1.419 . S
C1119 H1123 0.930 . S
C1120 C1119 1.369 . S
C1120 C1129 1.429 . S
C1121 C1119 1.419 . S
C1121 C1122 1.363 . S
C1121 H1124 0.929 . S
C1122 C1121 1.363 . S
C1122 C1128 1.428 . S
H1123 C1119 0.930 . S
H1124 C1121 0.929 . S
S1125 N1126 1.613 . S
S1125 N1127 1.610 . S
N1126 S1125 1.613 . S
N1126 C1129 1.350 . S
N1127 S1125 1.610 . S
N1127 C1128 1.351 . S
C1128 C1122 1.428 . S
C1128 N1127 1.351 . S
C1128 C1129 1.434 . S
C1129 C1120 1.429 . S
C1129 N1126 1.350 . S
C1129 C1128 1.434 . S
C1130 C1131 1.369 . S
C1130 C1132 1.419 . S
C1130 H1134 0.930 . S
C1131 C1130 1.369 . S
C1131 C1140 1.429 . S
C1132 C1130 1.419 . S
C1132 C1133 1.363 . S
C1132 H1135 0.929 . S
C1133 C1132 1.363 . S
C1133 C1139 1.428 . S
H1134 C1130 0.930 . S
H1135 C1132 0.929 . S
S1136 N1137 1.613 . S
S1136 N1138 1.610 . S
N1137 S1136 1.613 . S
N1137 C1140 1.350 . S
N1138 S1136 1.610 . S
N1138 C1139 1.351 . S
C1139 C1133 1.428 . S
C1139 N1138 1.351 . S
C1139 C1140 1.434 . S
C1140 C1131 1.429 . S
C1140 N1137 1.350 . S
C1140 C1139 1.434 . S
C1141 C1142 1.369 . S
C1141 C1143 1.419 . S
C1141 H1145 0.930 . S
C1142 C1141 1.369 . S
C1142 C1151 1.429 . S
C1143 C1141 1.419 . S
C1143 C1144 1.363 . S
C1143 H1146 0.929 . S
C1144 C1143 1.363 . S
C1144 C1150 1.428 . S
H1145 C1141 0.930 . S
H1146 C1143 0.929 . S
S1147 N1148 1.613 . S
S1147 N1149 1.610 . S
N1148 S1147 1.613 . S
N1148 C1151 1.350 . S
N1149 S1147 1.610 . S
N1149 C1150 1.351 . S
C1150 C1144 1.428 . S
C1150 N1149 1.351 . S
C1150 C1151 1.434 . S
C1151 C1142 1.429 . S
C1151 N1148 1.350 . S
C1151 C1150 1.434 . S
C449 C222 1.297 . S
C451 C12 1.308 . S
C460 C18 1.400 . S
C462 C180 1.423 . S
C471 C40 1.311 . S
C473 C194 1.301 . S
C482 C208 1.423 . S
C484 C46 1.401 . S
C493 C68 1.311 . S
C495 C138 1.302 . S
C504 C74 1.395 . S
C506 C152 1.420 . S
C515 C166 1.297 . S
C517 C96 1.308 . S
C526 C124 1.423 . S
C528 C102 1.399 . S
C537 C236 1.312 . S
C539 C446 1.302 . S
C548 C242 1.402 . S
C550 C404 1.422 . S
C559 C264 1.311 . S
C561 C418 1.301 . S
C570 C432 1.421 . S
C572 C270 1.396 . S
C581 C292 1.308 . S
C583 C362 1.299 . S
C592 C298 1.403 . S
C594 C376 1.420 . S
C603 C390 1.299 . S
C605 C320 1.310 . S
C614 C326 1.401 . S
C616 C348 1.419 . S
C625 C173 1.135 . S
C627 C5 1.138 . S
C636 C25 1.216 . S
C638 C187 1.176 . S
C647 C201 1.146 . S
C649 C33 1.148 . S
C658 C53 1.224 . S
C660 C215 1.165 . S
C669 C61 1.143 . S
C671 C117 1.140 . S
C680 C131 1.172 . S
C682 C81 1.218 . S
C691 C145 1.148 . S
C693 C89 1.149 . S
C702 C159 1.176 . S
C704 C109 1.217 . S
C713 C229 1.136 . S
C715 C397 1.135 . S
C724 C411 1.166 . S
C726 C249 1.220 . S
C735 C257 1.146 . S
C737 C425 1.143 . S
C746 C277 1.225 . S
C748 C439 1.165 . S
C757 C341 1.139 . S
C759 C285 1.142 . S
C768 C305 1.223 . S
C770 C355 1.165 . S
C779 C313 1.146 . S
C781 C369 1.142 . S
C790 C333 1.216 . S
C792 C383 1.173 . S
C801 C4 1.471 . S
C803 C144 1.475 . S
C812 C158 1.413 . S
C814 C26 1.450 . S
C823 C32 1.467 . S
C825 C116 1.472 . S
C834 C130 1.420 . S
C836 C54 1.450 . S
C845 C200 1.470 . S
C847 C60 1.466 . S
C856 C214 1.413 . S
C858 C82 1.450 . S
C867 C172 1.476 . S
C869 C88 1.471 . S
C878 C110 1.451 . S
C880 C186 1.419 . S
C889 C368 1.470 . S
C891 C228 1.466 . S
C900 C250 1.450 . S
C902 C382 1.420 . S
C911 C340 1.477 . S
C913 C256 1.472 . S
C922 C354 1.421 . S
C924 C278 1.451 . S
C933 C284 1.470 . S
C935 C424 1.474 . S
C944 C306 1.450 . S
C946 C438 1.414 . S
C955 C396 1.473 . S
C957 C312 1.468 . S
C966 C410 1.420 . S
C968 C334 1.450 . S
C977 C327 1.187 . S
C979 C11 1.313 . S
C988 C291 1.314 . S
C990 C19 1.188 . S
C999 C299 1.202 . S
C1001 C39 1.306 . S
C1010 C319 1.315 . S
C1012 C47 1.186 . S
C1021 C243 1.193 . S
C1023 C67 1.311 . S
C1032 C75 1.184 . S
C1034 C263 1.314 . S
C1043 C95 1.315 . S
C1045 C271 1.187 . S
C1054 C103 1.201 . S
C1056 C235 1.307 . S
C1065 C123 1.365 . S
C1067 C445 1.347 . S
C1076 C403 1.369 . S
C1078 C137 1.340 . S
C1087 C151 1.369 . S
C1089 C417 1.348 . S
C1098 C165 1.341 . S
C1100 C431 1.370 . S
C1109 C361 1.347 . S
C1111 C179 1.370 . S
C1120 C375 1.364 . S
C1122 C193 1.339 . S
C1131 C207 1.371 . S
C1133 C389 1.347 . S
C1142 C221 1.338 . S
C1144 C347 1.367 . S
