# Generated by pormake.
# Topology wgn, (5)-cn, num edge types: 1
# Building blocks:
#     Node 0, Type 0, BuildingBlock: BEQFEK_clean_sbu_0, # of connection points: 5
#     Node 1, Type 0, BuildingBlock: BEQFEK_clean_sbu_0, # of connection points: 5
#     Node 2, Type 0, BuildingBlock: BEQFEK_clean_sbu_0, # of connection points: 5
#     Node 3, Type 0, BuildingBlock: BEQFEK_clean_sbu_0, # of connection points: 5
#     Node 4, Type 0, BuildingBlock: BEQFEK_clean_sbu_0, # of connection points: 5
#     Node 5, Type 0, BuildingBlock: BEQFEK_clean_sbu_0, # of connection points: 5
#     Node 6, Type 0, BuildingBlock: BEQFEK_clean_sbu_0, # of connection points: 5
#     Node 7, Type 0, BuildingBlock: BEQFEK_clean_sbu_0, # of connection points: 5
#     Node 8, Type 0, BuildingBlock: BEQFEK_clean_sbu_0, # of connection points: 5
#     Node 9, Type 0, BuildingBlock: BEQFEK_clean_sbu_0, # of connection points: 5
#     Node 10, Type 0, BuildingBlock: BEQFEK_clean_sbu_0, # of connection points: 5
#     Node 11, Type 0, BuildingBlock: BEQFEK_clean_sbu_0, # of connection points: 5
#     Node 12, Type 0, BuildingBlock: BEQFEK_clean_sbu_0, # of connection points: 5
#     Node 13, Type 0, BuildingBlock: BEQFEK_clean_sbu_0, # of connection points: 5
#     Node 14, Type 0, BuildingBlock: BEQFEK_clean_sbu_0, # of connection points: 5
#     Node 15, Type 0, BuildingBlock: BEQFEK_clean_sbu_0, # of connection points: 5
#     Node 16, Type 0, BuildingBlock: BEQFEK_clean_sbu_0, # of connection points: 5
#     Node 17, Type 0, BuildingBlock: BEQFEK_clean_sbu_0, # of connection points: 5
#     Node 18, Type 0, BuildingBlock: BEQFEK_clean_sbu_0, # of connection points: 5
#     Node 19, Type 0, BuildingBlock: BEQFEK_clean_sbu_0, # of connection points: 5
#     Node 20, Type 0, BuildingBlock: BEQFEK_clean_sbu_0, # of connection points: 5
#     Node 21, Type 0, BuildingBlock: BEQFEK_clean_sbu_0, # of connection points: 5
#     Node 22, Type 0, BuildingBlock: BEQFEK_clean_sbu_0, # of connection points: 5
#     Node 23, Type 0, BuildingBlock: BEQFEK_clean_sbu_0, # of connection points: 5
#     Node 24, Type 0, BuildingBlock: BEQFEK_clean_sbu_0, # of connection points: 5
#     Node 25, Type 0, BuildingBlock: BEQFEK_clean_sbu_0, # of connection points: 5
#     Node 26, Type 0, BuildingBlock: BEQFEK_clean_sbu_0, # of connection points: 5
#     Node 27, Type 0, BuildingBlock: BEQFEK_clean_sbu_0, # of connection points: 5
#     Node 28, Type 0, BuildingBlock: BEQFEK_clean_sbu_0, # of connection points: 5
#     Node 29, Type 0, BuildingBlock: BEQFEK_clean_sbu_0, # of connection points: 5
#     Node 30, Type 0, BuildingBlock: BEQFEK_clean_sbu_0, # of connection points: 5
#     Node 31, Type 0, BuildingBlock: BEQFEK_clean_sbu_0, # of connection points: 5
#     Edge 32, Type (0, 0), BuildingBlock: UVAHIK_clean_linker_0, # of connection points: 2
#     Edge 33, Type (0, 0), BuildingBlock: UVAHIK_clean_linker_0, # of connection points: 2
#     Edge 34, Type (0, 0), BuildingBlock: UVAHIK_clean_linker_0, # of connection points: 2
#     Edge 35, Type (0, 0), BuildingBlock: UVAHIK_clean_linker_0, # of connection points: 2
#     Edge 36, Type (0, 0), BuildingBlock: UVAHIK_clean_linker_0, # of connection points: 2
#     Edge 37, Type (0, 0), BuildingBlock: UVAHIK_clean_linker_0, # of connection points: 2
#     Edge 38, Type (0, 0), BuildingBlock: UVAHIK_clean_linker_0, # of connection points: 2
#     Edge 39, Type (0, 0), BuildingBlock: UVAHIK_clean_linker_0, # of connection points: 2
#     Edge 40, Type (0, 0), BuildingBlock: UVAHIK_clean_linker_0, # of connection points: 2
#     Edge 41, Type (0, 0), BuildingBlock: UVAHIK_clean_linker_0, # of connection points: 2
#     Edge 42, Type (0, 0), BuildingBlock: UVAHIK_clean_linker_0, # of connection points: 2
#     Edge 43, Type (0, 0), BuildingBlock: UVAHIK_clean_linker_0, # of connection points: 2
#     Edge 44, Type (0, 0), BuildingBlock: UVAHIK_clean_linker_0, # of connection points: 2
#     Edge 45, Type (0, 0), BuildingBlock: UVAHIK_clean_linker_0, # of connection points: 2
#     Edge 46, Type (0, 0), BuildingBlock: UVAHIK_clean_linker_0, # of connection points: 2
#     Edge 47, Type (0, 0), BuildingBlock: UVAHIK_clean_linker_0, # of connection points: 2
#     Edge 48, Type (0, 0), BuildingBlock: UVAHIK_clean_linker_0, # of connection points: 2
#     Edge 49, Type (0, 0), BuildingBlock: UVAHIK_clean_linker_0, # of connection points: 2
#     Edge 50, Type (0, 0), BuildingBlock: UVAHIK_clean_linker_0, # of connection points: 2
#     Edge 51, Type (0, 0), BuildingBlock: UVAHIK_clean_linker_0, # of connection points: 2
#     Edge 52, Type (0, 0), BuildingBlock: UVAHIK_clean_linker_0, # of connection points: 2
#     Edge 53, Type (0, 0), BuildingBlock: UVAHIK_clean_linker_0, # of connection points: 2
#     Edge 54, Type (0, 0), BuildingBlock: UVAHIK_clean_linker_0, # of connection points: 2
#     Edge 55, Type (0, 0), BuildingBlock: UVAHIK_clean_linker_0, # of connection points: 2
#     Edge 56, Type (0, 0), BuildingBlock: UVAHIK_clean_linker_0, # of connection points: 2
#     Edge 57, Type (0, 0), BuildingBlock: UVAHIK_clean_linker_0, # of connection points: 2
#     Edge 58, Type (0, 0), BuildingBlock: UVAHIK_clean_linker_0, # of connection points: 2
#     Edge 59, Type (0, 0), BuildingBlock: UVAHIK_clean_linker_0, # of connection points: 2
#     Edge 60, Type (0, 0), BuildingBlock: UVAHIK_clean_linker_0, # of connection points: 2
#     Edge 61, Type (0, 0), BuildingBlock: UVAHIK_clean_linker_0, # of connection points: 2
#     Edge 62, Type (0, 0), BuildingBlock: UVAHIK_clean_linker_0, # of connection points: 2
#     Edge 63, Type (0, 0), BuildingBlock: UVAHIK_clean_linker_0, # of connection points: 2
#     Edge 64, Type (0, 0), BuildingBlock: UVAHIK_clean_linker_0, # of connection points: 2
#     Edge 65, Type (0, 0), BuildingBlock: UVAHIK_clean_linker_0, # of connection points: 2
#     Edge 66, Type (0, 0), BuildingBlock: UVAHIK_clean_linker_0, # of connection points: 2
#     Edge 67, Type (0, 0), BuildingBlock: UVAHIK_clean_linker_0, # of connection points: 2
#     Edge 68, Type (0, 0), BuildingBlock: UVAHIK_clean_linker_0, # of connection points: 2
#     Edge 69, Type (0, 0), BuildingBlock: UVAHIK_clean_linker_0, # of connection points: 2
#     Edge 70, Type (0, 0), BuildingBlock: UVAHIK_clean_linker_0, # of connection points: 2
#     Edge 71, Type (0, 0), BuildingBlock: UVAHIK_clean_linker_0, # of connection points: 2
#     Edge 72, Type (0, 0), BuildingBlock: UVAHIK_clean_linker_0, # of connection points: 2
#     Edge 73, Type (0, 0), BuildingBlock: UVAHIK_clean_linker_0, # of connection points: 2
#     Edge 74, Type (0, 0), BuildingBlock: UVAHIK_clean_linker_0, # of connection points: 2
#     Edge 75, Type (0, 0), BuildingBlock: UVAHIK_clean_linker_0, # of connection points: 2
#     Edge 76, Type (0, 0), BuildingBlock: UVAHIK_clean_linker_0, # of connection points: 2
#     Edge 77, Type (0, 0), BuildingBlock: UVAHIK_clean_linker_0, # of connection points: 2
#     Edge 78, Type (0, 0), BuildingBlock: UVAHIK_clean_linker_0, # of connection points: 2
#     Edge 79, Type (0, 0), BuildingBlock: UVAHIK_clean_linker_0, # of connection points: 2
#     Edge 80, Type (0, 0), BuildingBlock: UVAHIK_clean_linker_0, # of connection points: 2
#     Edge 81, Type (0, 0), BuildingBlock: UVAHIK_clean_linker_0, # of connection points: 2
#     Edge 82, Type (0, 0), BuildingBlock: UVAHIK_clean_linker_0, # of connection points: 2
#     Edge 83, Type (0, 0), BuildingBlock: UVAHIK_clean_linker_0, # of connection points: 2
#     Edge 84, Type (0, 0), BuildingBlock: UVAHIK_clean_linker_0, # of connection points: 2
#     Edge 85, Type (0, 0), BuildingBlock: UVAHIK_clean_linker_0, # of connection points: 2
#     Edge 86, Type (0, 0), BuildingBlock: UVAHIK_clean_linker_0, # of connection points: 2
#     Edge 87, Type (0, 0), BuildingBlock: UVAHIK_clean_linker_0, # of connection points: 2
#     Edge 88, Type (0, 0), BuildingBlock: UVAHIK_clean_linker_0, # of connection points: 2
#     Edge 89, Type (0, 0), BuildingBlock: UVAHIK_clean_linker_0, # of connection points: 2
#     Edge 90, Type (0, 0), BuildingBlock: UVAHIK_clean_linker_0, # of connection points: 2
#     Edge 91, Type (0, 0), BuildingBlock: UVAHIK_clean_linker_0, # of connection points: 2
#     Edge 92, Type (0, 0), BuildingBlock: UVAHIK_clean_linker_0, # of connection points: 2
#     Edge 93, Type (0, 0), BuildingBlock: UVAHIK_clean_linker_0, # of connection points: 2
#     Edge 94, Type (0, 0), BuildingBlock: UVAHIK_clean_linker_0, # of connection points: 2
#     Edge 95, Type (0, 0), BuildingBlock: UVAHIK_clean_linker_0, # of connection points: 2
#     Edge 96, Type (0, 0), BuildingBlock: UVAHIK_clean_linker_0, # of connection points: 2
#     Edge 97, Type (0, 0), BuildingBlock: UVAHIK_clean_linker_0, # of connection points: 2
#     Edge 98, Type (0, 0), BuildingBlock: UVAHIK_clean_linker_0, # of connection points: 2
#     Edge 99, Type (0, 0), BuildingBlock: UVAHIK_clean_linker_0, # of connection points: 2
#     Edge 100, Type (0, 0), BuildingBlock: UVAHIK_clean_linker_0, # of connection points: 2
#     Edge 101, Type (0, 0), BuildingBlock: UVAHIK_clean_linker_0, # of connection points: 2
#     Edge 102, Type (0, 0), BuildingBlock: UVAHIK_clean_linker_0, # of connection points: 2
#     Edge 103, Type (0, 0), BuildingBlock: UVAHIK_clean_linker_0, # of connection points: 2
#     Edge 104, Type (0, 0), BuildingBlock: UVAHIK_clean_linker_0, # of connection points: 2
#     Edge 105, Type (0, 0), BuildingBlock: UVAHIK_clean_linker_0, # of connection points: 2
#     Edge 106, Type (0, 0), BuildingBlock: UVAHIK_clean_linker_0, # of connection points: 2
#     Edge 107, Type (0, 0), BuildingBlock: UVAHIK_clean_linker_0, # of connection points: 2
#     Edge 108, Type (0, 0), BuildingBlock: UVAHIK_clean_linker_0, # of connection points: 2
#     Edge 109, Type (0, 0), BuildingBlock: UVAHIK_clean_linker_0, # of connection points: 2
#     Edge 110, Type (0, 0), BuildingBlock: UVAHIK_clean_linker_0, # of connection points: 2
#     Edge 111, Type (0, 0), BuildingBlock: UVAHIK_clean_linker_0, # of connection points: 2
# Relax obj value: 0.182
# Max RMSD: 0.146
# Mean RMSD: 0.142
data_MOF--net-wgn--node1-BEQFEK_clean_sbu_0--edge1-UVAHIK_clean_linker_0
_symmetry_space_group_name_H-M    P1
_symmetry_Int_Tables_number       1
_symmetry_cell_setting            triclinic
loop_
_symmetry_equiv_pos_as_xyz
'x, y, z'
_cell_length_a     39.220043
_cell_length_b     39.233588
_cell_length_c     181.54539
_cell_angle_alpha  89.996854
_cell_angle_beta   90.021584
_cell_angle_gamma 90.006355
loop_
_atom_site_label
_atom_site_type_symbol
_atom_site_fract_x
_atom_site_fract_y
_atom_site_fract_z
_atom_type_partial_charge
Co0 Co 0.28208 0.1391 0.32768 0.0
Co1 Co 0.26824 0.14468 0.31047 0.0
C2 C 0.24164 0.19633 0.32125 0.0
O3 O 0.25471 0.18142 0.32681 0.0
O4 O 0.24443 0.18412 0.31478 0.0
C5 C 0.26922 0.12542 0.34345 0.0
O6 O 0.23656 0.12908 0.34205 0.0
C7 C 0.25019 0.16946 0.29564 0.0
C8 C 0.27179 0.12972 0.28844 0.0
C9 C 0.25604 0.16125 0.28833 0.0
N10 N 0.26156 0.14381 0.29992 0.0
N11 N 0.27458 0.12018 0.29555 0.0
C12 C 0.23543 0.20193 0.29853 0.0
H13 H 0.21344 0.19573 0.30212 0.0
H14 H 0.22664 0.21889 0.29403 0.0
H15 H 0.25484 0.2154 0.3019 0.0
C16 C 0.2562 0.06973 0.32491 0.0
N17 N 0.2624 0.1017 0.32258 0.0
N18 N 0.2553 0.10393 0.31549 0.0
C19 C 0.24306 0.07361 0.31319 0.0
C20 C 0.24351 0.05097 0.31905 0.0
C21 C 0.26714 0.05618 0.33225 0.0
H22 H 0.2918 0.06773 0.33388 0.0
H23 H 0.24763 0.06286 0.33643 0.0
H24 H 0.27018 0.02809 0.33219 0.0
O25 O 0.3271 0.14914 0.32361 0.0
O26 O 0.31771 0.15324 0.31161 0.0
H27 H 0.25266 0.05585 0.30226 0.0
H28 H 0.21079 0.04639 0.30563 0.0
C29 C 0.23113 0.06608 0.30554 0.0
H30 H 0.22127 0.08953 0.30288 0.0
H31 H 0.28743 0.09859 0.29742 0.0
O32 O 0.29072 0.12867 0.33826 0.0
C33 C 0.33776 0.15452 0.31711 0.0
Co34 Co 0.10986 0.01653 0.57627 0.0
Co35 Co 0.10956 0.01401 0.55875 0.0
C36 C 0.05774 0.97666 0.56798 0.0
O37 O 0.06991 0.98737 0.57407 0.0
O38 O 0.07144 0.98427 0.56184 0.0
C39 C 0.10021 0.03426 0.59147 0.0
O40 O 0.07215 0.04832 0.58894 0.0
C41 C 0.08884 0.00554 0.54318 0.0
C42 C 0.12866 0.03466 0.53734 0.0
C43 C 0.09846 0.0171 0.53623 0.0
N44 N 0.11281 0.01502 0.54811 0.0
N45 N 0.13633 0.03269 0.54455 0.0
C46 C 0.05475 0.99153 0.54533 0.0
H47 H 0.05762 0.96419 0.54673 0.0
H48 H 0.03559 0.99427 0.54088 0.0
H49 H 0.04508 0.00524 0.55024 0.0
C50 C 0.18087 -0.00277 0.57378 0.0
N51 N 0.14942 0.00256 0.57109 0.0
N52 N 0.15032 0.0011 0.56383 0.0
C53 C 0.18263 0.99403 0.56174 0.0
C54 C 0.20305 0.99212 0.56797 0.0
C55 C 0.18992 -0.00069 0.58178 0.0
H56 H 0.17298 0.98214 0.58497 0.0
H57 H 0.21678 0.99177 0.58279 0.0
H58 H 0.18589 0.02577 0.58376 0.0
O59 O 0.09804 0.06345 0.57353 0.0
O60 O 0.09736 0.06132 0.56133 0.0
H61 H 0.20359 0.01723 0.55212 0.0
H62 H 0.21636 0.97387 0.55347 0.0
C63 C 0.1946 0.99179 0.55394 0.0
H64 H 0.17367 0.98295 0.55031 0.0
H65 H 0.15637 0.0455 0.54711 0.0
O66 O 0.11927 0.01785 0.58706 0.0
C67 C 0.09362 0.07771 0.56732 0.0
Co68 Co 0.22895 0.86763 0.82538 0.0
Co69 Co 0.22713 0.86586 0.80794 0.0
C70 C 0.26808 0.81553 0.81689 0.0
O71 O 0.25942 0.82847 0.82307 0.0
O72 O 0.25786 0.82819 0.81082 0.0
C73 C 0.21729 0.85766 0.84082 0.0
O74 O 0.20742 0.82727 0.83865 0.0
C75 C 0.23926 0.84955 0.79229 0.0
C76 C 0.19755 0.87797 0.78693 0.0
C77 C 0.22296 0.85429 0.78557 0.0
N78 N 0.22381 0.86904 0.7974 0.0
N79 N 0.19906 0.88617 0.79412 0.0
C80 C 0.26865 0.8265 0.79389 0.0
H81 H 0.28558 0.8384 0.79805 0.0
H82 H 0.28356 0.82116 0.78882 0.0
H83 H 0.25877 0.80213 0.79613 0.0
C84 C 0.24291 0.93981 0.82227 0.0
N85 N 0.23966 0.90749 0.81991 0.0
N86 N 0.23942 0.90725 0.81265 0.0
C87 C 0.24307 0.93952 0.8102 0.0
C88 C 0.24498 0.96117 0.81622 0.0
C89 C 0.24069 0.95033 0.83018 0.0
H90 H 0.25958 0.93571 0.83345 0.0
H91 H 0.24571 0.97798 0.83089 0.0
H92 H 0.21488 0.94427 0.83232 0.0
O93 O 0.18196 0.85307 0.82322 0.0
O94 O 0.18094 0.85247 0.81101 0.0
H95 H 0.21309 0.95241 0.8008 0.0
H96 H 0.25284 0.97504 0.80138 0.0
C97 C 0.24039 0.95 0.8023 0.0
H98 H 0.25242 0.93057 0.79871 0.0
H99 H 0.18182 0.90187 0.79688 0.0
O100 O 0.22923 0.87835 0.83609 0.0
C101 C 0.16632 0.84798 0.81718 0.0
Co102 Co 0.38367 0.95545 0.07946 0.0
Co103 Co 0.38377 0.95752 0.06197 0.0
C104 C 0.43547 0.9958 0.0711 0.0
O105 O 0.42331 0.98598 0.07727 0.0
O106 O 0.42194 0.98693 0.06501 0.0
C107 C 0.37366 0.97389 0.09527 0.0
O108 O 0.37792 0.00613 0.09354 0.0
C109 C 0.39907 0.97372 0.04642 0.0
C110 C 0.3686 0.93484 0.04061 0.0
C111 C 0.39288 0.95994 0.03949 0.0
N112 N 0.3797 0.95723 0.0514 0.0
N113 N 0.3614 0.93415 0.04786 0.0
C114 C 0.42317 0.00189 0.0483 0.0
H115 H 0.41161 0.01845 0.05257 0.0
H116 H 0.42935 0.01752 0.04338 0.0
H117 H 0.44704 0.99078 0.05054 0.0
C118 C 0.31099 0.97241 0.07671 0.0
N119 N 0.34313 0.968 0.07427 0.0
N120 N 0.34318 0.96966 0.06701 0.0
C121 C 0.31123 0.97603 0.06464 0.0
C122 C 0.28973 0.97758 0.07071 0.0
C123 C 0.30065 0.97012 0.08463 0.0
H124 H 0.31376 0.99048 0.08777 0.0
H125 H 0.27276 0.97329 0.08535 0.0
H126 H 0.3087 0.94515 0.08691 0.0
O127 O 0.39739 0.90904 0.0766 0.0
O128 O 0.39659 0.91039 0.0644 0.0
H129 H 0.29739 0.95015 0.05475 0.0
H130 H 0.27655 0.9905 0.05591 0.0
C131 C 0.30091 0.97669 0.05671 0.0
H132 H 0.32102 0.98908 0.05336 0.0
H133 H 0.34544 0.91656 0.05044 0.0
O134 O 0.37519 0.9513 0.09026 0.0
C135 C 0.40153 0.89451 0.07041 0.0
Co136 Co 0.28248 0.87153 0.18437 0.0
Co137 Co 0.29436 0.87339 0.20161 0.0
C138 C 0.25489 0.81708 0.19383 0.0
O139 O 0.25614 0.83017 0.1874 0.0
O140 O 0.26855 0.83178 0.19933 0.0
C141 C 0.29147 0.86135 0.16887 0.0
O142 O 0.30563 0.83281 0.1711 0.0
C143 C 0.28064 0.85969 0.21724 0.0
C144 C 0.32497 0.88373 0.22262 0.0
C145 C 0.29708 0.86297 0.22398 0.0
N146 N 0.29838 0.87703 0.21212 0.0
N147 N 0.32463 0.89171 0.21541 0.0
C148 C 0.24842 0.8406 0.21567 0.0
H149 H 0.2343 0.85298 0.2111 0.0
H150 H 0.23205 0.83952 0.22065 0.0
H151 H 0.25475 0.8142 0.21401 0.0
C152 C 0.26334 0.94287 0.18744 0.0
N153 N 0.27035 0.91118 0.18985 0.0
N154 N 0.27562 0.91223 0.19702 0.0
C155 C 0.27245 0.94464 0.19935 0.0
C156 C 0.26468 0.96515 0.19336 0.0
C157 C 0.26132 0.95239 0.17947 0.0
H158 H 0.24251 0.93575 0.17665 0.0
H159 H 0.2538 0.97943 0.17872 0.0
H160 H 0.28658 0.94823 0.17686 0.0
O161 O 0.33161 0.8612 0.18585 0.0
O162 O 0.34044 0.86589 0.19788 0.0
H163 H 0.30928 0.9554 0.20768 0.0
H164 H 0.2724 0.98294 0.2079 0.0
C165 C 0.28122 0.95642 0.20695 0.0
H166 H 0.26935 0.93926 0.21107 0.0
H167 H 0.34342 0.90556 0.21265 0.0
O168 O 0.27793 0.88097 0.17362 0.0
C169 C 0.35142 0.86032 0.1914 0.0
Co170 Co 0.3871 0.01828 0.43074 0.0
Co171 Co 0.39021 0.02062 0.44818 0.0
C172 C 0.44045 0.98051 0.43914 0.0
O173 O 0.42721 0.98914 0.433 0.0
O174 O 0.42796 0.99035 0.44525 0.0
C175 C 0.39502 0.03048 0.41526 0.0
O176 O 0.42459 0.04293 0.41735 0.0
C177 C 0.40753 0.00787 0.46378 0.0
C178 C 0.37894 0.049 0.46931 0.0
C179 C 0.40269 0.02354 0.47058 0.0
N180 N 0.38792 0.0237 0.45874 0.0
N181 N 0.37076 0.04813 0.46211 0.0
C182 C 0.4304 0.97844 0.46207 0.0
H183 H 0.41804 0.9616 0.45795 0.0
H184 H 0.43619 0.96343 0.4671 0.0
H185 H 0.45459 0.98816 0.4597 0.0
C186 C 0.31567 0.00249 0.43411 0.0
N187 N 0.34804 0.00665 0.43638 0.0
N188 N 0.34875 0.00735 0.44363 0.0
C189 C 0.31672 0.0032 0.44619 0.0
C190 C 0.29475 0.00041 0.44023 0.0
C191 C 0.3046 0.00397 0.42623 0.0
H192 H 0.31946 0.98522 0.42297 0.0
H193 H 0.27703 -0.00176 0.42562 0.0
H194 H 0.3099 0.02976 0.424 0.0
O195 O 0.40036 0.06573 0.43277 0.0
O196 O 0.40249 0.06701 0.44497 0.0
H197 H 0.30439 0.03374 0.45553 0.0
H198 H 0.28167 0.99398 0.45512 0.0
C199 C 0.30667 0.00636 0.4541 0.0
H200 H 0.32632 0.99455 0.45767 0.0
H201 H 0.35487 0.06546 0.45943 0.0
O202 O 0.37567 0.01695 0.42006 0.0
C203 C 0.40582 0.08161 0.43876 0.0
Co204 Co 0.19683 0.1455 0.67975 0.0
Co205 Co 0.20607 0.14795 0.69712 0.0
C206 C 0.2441 0.19529 0.68721 0.0
O207 O 0.23014 0.18313 0.68143 0.0
O208 O 0.23812 0.18284 0.69356 0.0
C209 C 0.21387 0.12956 0.66427 0.0
O210 O 0.24589 0.12752 0.66635 0.0
C211 C 0.21814 0.16909 0.7125 0.0
C212 C 0.19144 0.12888 0.71874 0.0
C213 C 0.20875 0.1594 0.71959 0.0
N214 N 0.20766 0.1449 0.70773 0.0
N215 N 0.19147 0.12112 0.71152 0.0
C216 C 0.23115 0.20328 0.71014 0.0
H217 H 0.25879 0.20126 0.70894 0.0
H218 H 0.22715 0.22293 0.71444 0.0
H219 H 0.21782 0.21163 0.70507 0.0
C220 C 0.21041 0.07248 0.68258 0.0
N221 N 0.20799 0.1049 0.68496 0.0
N222 N 0.21382 0.1058 0.69212 0.0
C223 C 0.22181 0.07406 0.69441 0.0
C224 C 0.2195 0.05193 0.68847 0.0
C225 C 0.2002 0.06083 0.67504 0.0
H226 H 0.17872 0.07645 0.67297 0.0
H227 H 0.22221 0.06364 0.67126 0.0
H228 H 0.19225 0.03369 0.67506 0.0
O229 O 0.15255 0.16256 0.68303 0.0
O230 O 0.15947 0.1651 0.69513 0.0
H231 H 0.21175 0.05518 0.70525 0.0
H232 H 0.25311 0.04467 0.70176 0.0
C233 C 0.23356 0.0651 0.70201 0.0
H234 H 0.24442 0.08776 0.70481 0.0
H235 H 0.17836 0.1008 0.70914 0.0
O236 O 0.19108 0.13687 0.66899 0.0
C237 C 0.14137 0.16978 0.68941 0.0
Co238 Co 0.10192 0.95544 0.9287 0.0
Co239 Co 0.10008 0.96237 0.94614 0.0
C240 C 0.04536 0.99154 0.93622 0.0
O241 O 0.05901 0.98131 0.93024 0.0
O242 O 0.05925 0.98622 0.94245 0.0
C243 C 0.10964 0.97053 0.91275 0.0
O244 O 0.10028 0.00206 0.91411 0.0
C245 C 0.07815 0.97947 0.96124 0.0
C246 C 0.11546 0.95149 0.96802 0.0
C247 C 0.08587 0.97056 0.96844 0.0
N248 N 0.10213 0.96642 0.95673 0.0
N249 N 0.12436 0.9497 0.96086 0.0
C250 C 0.04761 -0.00107 0.95867 0.0
H251 H 0.03011 0.98147 0.9557 0.0
H252 H 0.05593 0.01921 0.95482 0.0
H253 H 0.03377 0.01081 0.96334 0.0
C254 C 0.17141 0.98135 0.93124 0.0
N255 N 0.13994 0.97438 0.93377 0.0
N256 N 0.1397 0.97767 0.94101 0.0
C257 C 0.17101 0.98758 0.94324 0.0
C258 C 0.1922 0.98967 0.93714 0.0
C259 C 0.18207 0.97752 0.92337 0.0
H260 H 0.1666 0.99491 0.91992 0.0
H261 H 0.20936 0.98393 0.92255 0.0
H262 H 0.17734 0.95098 0.92153 0.0
O263 O 0.09367 0.90891 0.93221 0.0
O264 O 0.09281 0.91323 0.94437 0.0
H265 H 0.18972 0.96599 0.95324 0.0
H266 H 0.20354 0.00893 0.95164 0.0
C267 C 0.18164 0.99122 0.95111 0.0
H268 H 0.16014 0.00092 0.95446 0.0
H269 H 0.14441 0.9352 0.95876 0.0
O270 O 0.11161 0.94924 0.91801 0.0
C271 C 0.09047 0.89548 0.93853 0.0
Co272 Co 0.73093 0.84589 0.70483 0.0
Co273 Co 0.69971 0.86271 0.68912 0.0
C274 C 0.74528 0.80313 0.6914 0.0
O275 O 0.74996 0.81106 0.69812 0.0
O276 O 0.72591 0.82065 0.68723 0.0
C277 C 0.74713 0.80637 0.71666 0.0
O278 O 0.73392 0.78531 0.71181 0.0
C279 C 0.69297 0.87527 0.67308 0.0
C280 C 0.64738 0.90832 0.67275 0.0
C281 C 0.67167 0.89301 0.66832 0.0
N282 N 0.68179 0.88 0.68002 0.0
N283 N 0.65435 0.89951 0.67976 0.0
C284 C 0.72446 0.85573 0.67116 0.0
H285 H 0.74387 0.85885 0.67556 0.0
H286 H 0.73514 0.86432 0.66581 0.0
H287 H 0.71802 0.82825 0.67075 0.0
C288 C 0.75127 0.91868 0.70366 0.0
N289 N 0.73799 0.88983 0.70084 0.0
N290 N 0.72664 0.89596 0.69413 0.0
C291 C 0.73322 0.92863 0.6924 0.0
C292 C 0.74889 0.94418 0.69838 0.0
C293 C 0.76367 0.92213 0.71141 0.0
H294 H 0.78103 0.90066 0.71273 0.0
H295 H 0.77707 0.94675 0.71226 0.0
H296 H 0.74157 0.92058 0.71521 0.0
O297 O 0.6819 0.8371 0.70598 0.0
O298 O 0.65952 0.8502 0.69513 0.0
H299 H 0.69258 0.94833 0.68585 0.0
H300 H 0.73172 0.97132 0.68474 0.0
C301 C 0.72066 0.94564 0.68553 0.0
H302 H 0.72714 0.92977 0.68068 0.0
H303 H 0.64049 0.90707 0.68439 0.0
O304 O 0.75031 0.83766 0.71489 0.0
C305 C 0.65629 0.83996 0.70174 0.0
Co306 Co 0.89283 0.97361 0.45487 0.0
Co307 Co 0.87937 0.95639 0.43805 0.0
C308 C 0.93684 0.00059 0.44235 0.0
O309 O 0.92875 -0.00264 0.44911 0.0
O310 O 0.91939 0.98658 0.43726 0.0
C311 C 0.91379 0.01311 0.4675 0.0
O312 O 0.92283 0.03556 0.4625 0.0
C313 C 0.86944 0.95463 0.42174 0.0
C314 C 0.83447 0.91069 0.42076 0.0
C315 C 0.85153 0.93501 0.41666 0.0
N316 N 0.86302 0.94244 0.42854 0.0
N317 N 0.84234 0.91602 0.42788 0.0
C318 C 0.89114 0.98518 0.42023 0.0
H319 H 0.91828 0.97724 0.42009 0.0
H320 H 0.88803 0.00417 0.42471 0.0
H321 H 0.88444 -0.00304 0.41486 0.0
C322 C 0.81923 0.99068 0.45404 0.0
N323 N 0.84907 0.98211 0.45088 0.0
N324 N 0.84411 0.97678 0.44379 0.0
C325 C 0.81119 0.98304 0.44218 0.0
C326 C 0.79417 0.99158 0.44863 0.0
C327 C 0.81461 0.99555 0.46215 0.0
H328 H 0.8192 0.97095 0.465 0.0
H329 H 0.83378 0.01405 0.4642 0.0
H330 H 0.7886 0.00486 0.46347 0.0
O331 O 0.90308 0.92466 0.45451 0.0
O332 O 0.89541 0.91363 0.44265 0.0
H333 H 0.78974 0.94939 0.43418 0.0
H334 H 0.77155 0.99123 0.43401 0.0
C335 C 0.79557 0.97691 0.43477 0.0
H336 H 0.81354 0.98472 0.43038 0.0
H337 H 0.83352 0.90159 0.43232 0.0
O338 O 0.89809 0.98632 0.46547 0.0
C339 C 0.90377 0.90411 0.4491 0.0
Co340 Co 0.7662 0.13729 0.20398 0.0
Co341 Co 0.7843 0.12166 0.18735 0.0
C342 C 0.74365 0.18197 0.19103 0.0
O343 O 0.7452 0.17354 0.1978 0.0
O344 O 0.75761 0.16392 0.18604 0.0
C345 C 0.75794 0.1772 0.21604 0.0
O346 O 0.77121 0.19708 0.21097 0.0
C347 C 0.78766 0.10725 0.17123 0.0
C348 C 0.83123 0.07149 0.17102 0.0
C349 C 0.80748 0.08738 0.16655 0.0
N350 N 0.79918 0.10301 0.17816 0.0
N351 N 0.82541 0.08189 0.17796 0.0
C352 C 0.7572 0.12828 0.16928 0.0
H353 H 0.73865 0.12823 0.17389 0.0
H354 H 0.74479 0.11855 0.1642 0.0
H355 H 0.76545 0.15497 0.16831 0.0
C356 C 0.74592 0.06415 0.20335 0.0
N357 N 0.75542 0.09367 0.20016 0.0
N358 N 0.76045 0.08839 0.19308 0.0
C359 C 0.75277 0.05577 0.19149 0.0
C360 C 0.74388 0.03907 0.19796 0.0
C361 C 0.7421 0.05949 0.21148 0.0
H362 H 0.72672 0.08068 0.21379 0.0
H363 H 0.72988 0.0347 0.21279 0.0
H364 H 0.76768 0.0605 0.21409 0.0
O365 O 0.81583 0.14386 0.20396 0.0
O366 O 0.82744 0.13441 0.19221 0.0
H367 H 0.78543 0.0324 0.18354 0.0
H368 H 0.74258 0.01666 0.18332 0.0
C369 C 0.75828 0.0398 0.18409 0.0
H370 H 0.75155 0.05814 0.17969 0.0
H371 H 0.83917 0.07425 0.1826 0.0
O372 O 0.75181 0.14623 0.21438 0.0
C373 C 0.83697 0.14232 0.19868 0.0
Co374 Co 0.59838 0.0176 0.95757 0.0
Co375 Co 0.61596 0.04283 0.94145 0.0
C376 C 0.55255 0.00511 0.94426 0.0
O377 O 0.56063 0.0026 0.95103 0.0
O378 O 0.5719 0.02015 0.93966 0.0
C379 C 0.55798 0.00427 0.96946 0.0
O380 O 0.53807 0.02067 0.96484 0.0
C381 C 0.62997 0.04923 0.92543 0.0
C382 C 0.66762 0.09116 0.92544 0.0
C383 C 0.65032 0.06899 0.92083 0.0
N384 N 0.63519 0.05928 0.93243 0.0
N385 N 0.65747 0.08455 0.93237 0.0
C386 C 0.60766 0.01992 0.9233 0.0
H387 H 0.60752 0.00051 0.92775 0.0
H388 H 0.61645 0.00815 0.91808 0.0
H389 H 0.58119 0.02926 0.92254 0.0
C390 C 0.66875 0.98962 0.9562 0.0
N391 N 0.64082 0.00492 0.95342 0.0
N392 N 0.64683 0.01357 0.94652 0.0
C393 C 0.67823 0.00294 0.94463 0.0
C394 C 0.69331 0.98764 0.95071 0.0
C395 C 0.67253 0.97952 0.9641 0.0
H396 H 0.65029 0.96388 0.96578 0.0
H397 H 0.69645 0.965 0.96502 0.0
H398 H 0.67265 0.0028 0.96757 0.0
O399 O 0.5957 0.06739 0.95868 0.0
O400 O 0.60701 0.08434 0.9473 0.0
H401 H 0.70241 0.03839 0.9374 0.0
H402 H 0.71815 0.99571 0.93647 0.0
C403 C 0.69497 0.01114 0.93743 0.0
H404 H 0.67686 0.00643 0.93286 0.0
H405 H 0.66606 0.09708 0.93709 0.0
O406 O 0.58872 -0.00153 0.96756 0.0
C407 C 0.59944 0.091 0.95396 0.0
Co408 Co 0.71305 0.14449 0.80425 0.0
Co409 Co 0.69311 0.13026 0.82087 0.0
C410 C 0.74038 0.18608 0.81712 0.0
O411 O 0.73817 0.17814 0.81033 0.0
O412 O 0.72423 0.16959 0.82206 0.0
C413 C 0.72376 0.18307 0.79206 0.0
O414 O 0.71352 0.20441 0.79718 0.0
C415 C 0.69168 0.11554 0.83697 0.0
C416 C 0.64385 0.08592 0.8377 0.0
C417 C 0.67064 0.09831 0.84188 0.0
N418 N 0.67793 0.11319 0.83019 0.0
N419 N 0.64919 0.09575 0.8307 0.0
C420 C 0.7251 0.13232 0.83857 0.0
H421 H 0.74232 0.12994 0.83375 0.0
H422 H 0.73732 0.12092 0.8435 0.0
H423 H 0.7207 0.15984 0.83961 0.0
C424 C 0.73058 0.07069 0.805 0.0
N425 N 0.72005 0.10016 0.80806 0.0
N426 N 0.71313 0.09491 0.81507 0.0
C427 C 0.7197 0.06213 0.81673 0.0
C428 C 0.73087 0.04566 0.81041 0.0
C429 C 0.73942 0.06669 0.79704 0.0
H430 H 0.71572 0.06827 0.79371 0.0
H431 H 0.7563 0.0879 0.7953 0.0
H432 H 0.75213 0.04189 0.79597 0.0
O433 O 0.66424 0.15626 0.80446 0.0
O434 O 0.65123 0.1474 0.81617 0.0
H435 H 0.68426 0.04492 0.82483 0.0
H436 H 0.7225 0.02014 0.82457 0.0
C437 C 0.71224 0.04629 0.82406 0.0
H438 H 0.7232 0.0623 0.8285 0.0
H439 H 0.63336 0.09023 0.82624 0.0
O440 O 0.72706 0.15172 0.79376 0.0
C441 C 0.64287 0.15672 0.80972 0.0
Co442 Co 0.60331 0.9695 0.55273 0.0
Co443 Co 0.61703 0.93533 0.56827 0.0
C444 C 0.56068 0.9852 0.5661 0.0
O445 O 0.56925 0.9899 0.55942 0.0
O446 O 0.57689 0.96451 0.57022 0.0
C447 C 0.56567 0.9901 0.54094 0.0
O448 O 0.54336 0.97795 0.54566 0.0
C449 C 0.63042 0.92842 0.58425 0.0
C450 C 0.65639 0.87849 0.5847 0.0
C451 C 0.64556 0.90537 0.58905 0.0
N452 N 0.63237 0.91575 0.57737 0.0
N453 N 0.6476 0.88573 0.57771 0.0
C454 C 0.61627 0.96281 0.58606 0.0
H455 H 0.62021 0.98049 0.58136 0.0
H456 H 0.62841 0.97335 0.59109 0.0
H457 H 0.58844 0.96045 0.58704 0.0
C458 C 0.67723 0.98494 0.55421 0.0
N459 N 0.64744 0.97307 0.55686 0.0
N460 N 0.65257 0.95993 0.56345 0.0
C461 C 0.68565 0.96351 0.56525 0.0
C462 C 0.70239 0.97947 0.55946 0.0
C463 C 0.68164 -0.00062 0.54665 0.0
H464 H 0.66079 0.0177 0.54548 0.0
H465 H 0.70671 0.01223 0.54606 0.0
H466 H 0.6798 0.97843 0.54256 0.0
O467 O 0.59136 0.92135 0.55128 0.0
O468 O 0.60193 0.89677 0.56205 0.0
H469 H 0.69878 0.91977 0.57163 0.0
H470 H 0.72906 0.95371 0.57246 0.0
C471 C 0.70157 0.94782 0.57194 0.0
H472 H 0.6882 0.95703 0.57694 0.0
H473 H 0.6524 0.87036 0.57313 0.0
O474 O 0.59703 0.99054 0.54278 0.0
C475 C 0.59202 0.89511 0.55538 0.0
Co476 Co 0.77759 0.84563 0.30153 0.0
Co477 Co 0.81133 0.85757 0.31726 0.0
C478 C 0.7605 0.80216 0.31469 0.0
O479 O 0.75625 0.81129 0.30802 0.0
O480 O 0.78127 0.81773 0.31891 0.0
C481 C 0.75801 0.80929 0.28949 0.0
O482 O 0.77024 0.78671 0.29414 0.0
C483 C 0.81877 0.8741 0.3333 0.0
C484 C 0.87255 0.8907 0.33352 0.0
C485 C 0.84429 0.8862 0.33801 0.0
N486 N 0.83156 0.87208 0.32641 0.0
N487 N 0.86374 0.88195 0.32663 0.0
C488 C 0.78331 0.86343 0.33528 0.0
H489 H 0.78328 0.84939 0.34059 0.0
H490 H 0.7721 0.84721 0.33093 0.0
H491 H 0.76706 0.88641 0.33585 0.0
C492 C 0.76273 0.91966 0.30338 0.0
N493 N 0.77461 0.88953 0.30586 0.0
N494 N 0.78793 0.89392 0.31247 0.0
C495 C 0.78479 0.92686 0.3144 0.0
C496 C 0.76855 0.94421 0.30875 0.0
C497 C 0.74743 0.92485 0.29593 0.0
H498 H 0.72951 0.90374 0.29468 0.0
H499 H 0.73394 0.94967 0.29558 0.0
H500 H 0.76803 0.92421 0.29174 0.0
O501 O 0.82567 0.83284 0.30016 0.0
O502 O 0.84967 0.84214 0.31104 0.0
H503 H 0.8283 0.93559 0.32124 0.0
H504 H 0.79851 0.9702 0.3213 0.0
C505 C 0.80083 0.94209 0.32113 0.0
H506 H 0.78862 0.93121 0.32611 0.0
H507 H 0.87975 0.88276 0.32204 0.0
O508 O 0.75705 0.84044 0.29147 0.0
C509 C 0.85162 0.83271 0.30434 0.0
Co510 Co 0.88668 0.02578 0.05008 0.0
Co511 Co 0.8723 0.04144 0.06684 0.0
C512 C 0.93053 -0.00158 0.06268 0.0
O513 O 0.92249 0.00187 0.05591 0.0
O514 O 0.9128 0.01197 0.06778 0.0
C515 C 0.89271 0.98756 0.03579 0.0
O516 O 0.88054 0.95973 0.03883 0.0
C517 C 0.85777 0.04206 0.08299 0.0
C518 C 0.82421 0.08727 0.08357 0.0
C519 C 0.83869 0.06185 0.08783 0.0
N520 N 0.8544 0.05519 0.07618 0.0
N521 N 0.83462 0.08238 0.0766 0.0
C522 C 0.87726 0.01027 0.08469 0.0
H523 H 0.87661 0.99273 0.0799 0.0
H524 H 0.86668 -0.00267 0.08963 0.0
H525 H 0.90425 0.01706 0.0858 0.0
C526 C 0.81208 0.01016 0.0506 0.0
N527 N 0.84238 0.01686 0.05382 0.0
N528 N 0.83764 0.02091 0.06095 0.0
C529 C 0.80461 0.01525 0.06251 0.0
C530 C 0.78721 0.00886 0.05603 0.0
C531 C 0.80655 0.00904 0.04245 0.0
H532 H 0.82465 0.02644 0.03964 0.0
H533 H 0.81143 0.98275 0.04047 0.0
H534 H 0.77991 0.016 0.04103 0.0
O535 O 0.896 0.07474 0.0506 0.0
O536 O 0.88751 0.08493 0.06244 0.0
H537 H 0.78312 0.04565 0.0711 0.0
H538 H 0.76477 0.00389 0.07032 0.0
C539 C 0.78898 0.01849 0.07 0.0
H540 H 0.80679 0.00882 0.07425 0.0
H541 H 0.82784 0.09742 0.07209 0.0
O542 O 0.89464 0.01488 0.03952 0.0
C543 C 0.89583 0.09504 0.05604 0.0
Co544 Co 0.79624 0.63755 0.82783 0.0
Co545 Co 0.79045 0.63989 0.8104 0.0
C546 C 0.75319 0.68948 0.82003 0.0
O547 O 0.76489 0.67661 0.82597 0.0
O548 O 0.76043 0.67695 0.81375 0.0
C549 C 0.77762 0.62251 0.84334 0.0
O550 O 0.74554 0.62174 0.84126 0.0
C551 C 0.77273 0.65632 0.79496 0.0
C552 C 0.80937 0.62425 0.78887 0.0
C553 C 0.78504 0.64945 0.78793 0.0
N554 N 0.78933 0.63639 0.79982 0.0
N555 N 0.81111 0.61721 0.79612 0.0
C556 C 0.74556 0.68125 0.79704 0.0
H557 H 0.72892 0.66991 0.80133 0.0
H558 H 0.72971 0.6884 0.79222 0.0
H559 H 0.75764 0.70449 0.79935 0.0
C560 C 0.78139 0.56485 0.82487 0.0
N561 N 0.78413 0.59737 0.82257 0.0
N562 N 0.78033 0.59837 0.81535 0.0
C563 C 0.7738 0.56662 0.81289 0.0
C564 C 0.7745 0.54429 0.81883 0.0
C565 C 0.79031 0.55316 0.83249 0.0
H566 H 0.81192 0.56832 0.83465 0.0
H567 H 0.76795 0.5568 0.83614 0.0
H568 H 0.79764 0.52587 0.83259 0.0
O569 O 0.84175 0.65238 0.82478 0.0
O570 O 0.83772 0.65427 0.81261 0.0
H571 H 0.79181 0.55293 0.8022 0.0
H572 H 0.75142 0.53431 0.8046 0.0
C573 C 0.76719 0.55773 0.80501 0.0
H574 H 0.75399 0.57905 0.80219 0.0
H575 H 0.8284 0.60051 0.79858 0.0
O576 O 0.8007 0.62879 0.83861 0.0
C577 C 0.85477 0.65836 0.81851 0.0
Co578 Co 0.61883 0.52352 0.07463 0.0
Co579 Co 0.612 0.52375 0.05719 0.0
C580 C 0.56815 0.47928 0.06669 0.0
O581 O 0.58124 0.49046 0.07266 0.0
O582 O 0.579 0.489 0.06042 0.0
C583 C 0.61246 0.53532 0.09014 0.0
O584 O 0.58247 0.54707 0.08815 0.0
C585 C 0.58676 0.51705 0.04192 0.0
C586 C 0.62337 0.54856 0.0357 0.0
C587 C 0.5938 0.52958 0.03491 0.0
N588 N 0.6116 0.52729 0.04657 0.0
N589 N 0.63316 0.54643 0.0428 0.0
C590 C 0.55416 0.50094 0.04444 0.0
H591 H 0.54631 0.51189 0.0498 0.0
H592 H 0.55829 0.47317 0.04513 0.0
H593 H 0.53315 0.50511 0.04045 0.0
C594 C 0.69092 0.51488 0.07068 0.0
N595 N 0.65796 0.51645 0.06866 0.0
N596 N 0.65573 0.51489 0.06142 0.0
C597 C 0.68739 0.51063 0.05864 0.0
C598 C 0.71076 0.51094 0.06441 0.0
C599 C 0.70303 0.52172 0.07837 0.0
H600 H 0.68891 0.54375 0.08068 0.0
H601 H 0.69767 0.49912 0.08185 0.0
H602 H 0.73064 0.52758 0.07859 0.0
O603 O 0.60045 0.56907 0.07275 0.0
O604 O 0.59478 0.56856 0.0606 0.0
H605 H 0.70228 0.52931 0.04806 0.0
H606 H 0.71737 0.4873 0.05012 0.0
C607 C 0.69527 0.50479 0.05068 0.0
H608 H 0.67288 0.49377 0.04781 0.0
H609 H 0.65336 0.55983 0.04514 0.0
O610 O 0.6318 0.52235 0.08526 0.0
C611 C 0.59148 0.58343 0.06679 0.0
Co612 Co 0.71225 0.35052 0.32639 0.0
Co613 Co 0.71957 0.35104 0.30898 0.0
C614 C 0.7554 0.29952 0.31864 0.0
O615 O 0.74365 0.31173 0.32463 0.0
O616 O 0.74834 0.31282 0.31242 0.0
C617 C 0.72621 0.35808 0.3424 0.0
O618 O 0.75846 0.35155 0.34105 0.0
C619 C 0.73963 0.33544 0.29367 0.0
C620 C 0.7036 0.36736 0.28738 0.0
C621 C 0.72801 0.34214 0.28658 0.0
N622 N 0.72259 0.35546 0.29844 0.0
N623 N 0.70121 0.37459 0.29461 0.0
C624 C 0.76618 0.31014 0.2959 0.0
H625 H 0.7535 0.28704 0.29812 0.0
H626 H 0.78242 0.32125 0.30029 0.0
H627 H 0.78251 0.30283 0.29117 0.0
C628 C 0.7298 0.42279 0.32417 0.0
N629 N 0.7262 0.39102 0.3215 0.0
N630 N 0.72963 0.39172 0.31428 0.0
C631 C 0.73612 0.42406 0.31216 0.0
C632 C 0.73596 0.44479 0.31836 0.0
C633 C 0.72581 0.43213 0.33212 0.0
H634 H 0.74476 0.41778 0.33541 0.0
H635 H 0.7299 0.45974 0.33308 0.0
H636 H 0.69993 0.42488 0.33402 0.0
O637 O 0.66711 0.33662 0.32281 0.0
O638 O 0.67175 0.33767 0.31065 0.0
H639 H 0.7128 0.43968 0.3021 0.0
H640 H 0.75304 0.45983 0.30389 0.0
C641 C 0.73879 0.43551 0.30433 0.0
H642 H 0.75177 0.41578 0.30098 0.0
H643 H 0.68346 0.39111 0.29697 0.0
O644 O 0.70494 0.35862 0.33711 0.0
C645 C 0.65432 0.33247 0.31644 0.0
Co646 Co 0.89394 0.45328 0.57811 0.0
Co647 Co 0.89726 0.46154 0.56073 0.0
C648 C 0.94353 0.50067 0.57068 0.0
O649 O 0.93145 0.48688 0.57649 0.0
O650 O 0.9315 0.49399 0.56433 0.0
C651 C 0.87676 0.46998 0.59361 0.0
O652 O 0.87427 0.50205 0.5916 0.0
C653 C 0.91923 0.47353 0.5454 0.0
C654 C 0.88011 0.44548 0.5391 0.0
C655 C 0.9103 0.46344 0.5383 0.0
N656 N 0.89494 0.46274 0.55012 0.0
N657 N 0.87181 0.44579 0.54629 0.0
C658 C 0.95291 0.48755 0.54785 0.0
H659 H 0.94988 0.51497 0.54917 0.0
H660 H 0.9728 0.48462 0.54356 0.0
H661 H 0.96159 0.47409 0.55288 0.0
C662 C 0.82089 0.46614 0.57501 0.0
N663 N 0.85353 0.46395 0.57275 0.0
N664 N 0.85487 0.46933 0.56559 0.0
C665 C 0.82324 0.47683 0.56315 0.0
C666 C 0.80068 0.4746 0.56902 0.0
C667 C 0.80879 0.4562 0.58253 0.0
H668 H 0.82444 0.43494 0.5847 0.0
H669 H 0.81121 0.47838 0.58628 0.0
H670 H 0.78171 0.44805 0.58245 0.0
O671 O 0.91128 0.40891 0.57496 0.0
O672 O 0.91425 0.41507 0.56284 0.0
H673 H 0.80561 0.46579 0.55226 0.0
H674 H 0.79393 0.5071 0.55559 0.0
C675 C 0.81477 0.48796 0.55549 0.0
H676 H 0.83748 0.49911 0.55277 0.0
H677 H 0.85163 0.43234 0.54864 0.0
O678 O 0.88469 0.44755 0.58885 0.0
C679 C 0.91864 0.3973 0.56862 0.0
Co680 Co 0.762 0.35583 0.68096 0.0
Co681 Co 0.75695 0.3526 0.6984 0.0
C682 C 0.72703 0.2984 0.68867 0.0
O683 O 0.73676 0.31267 0.68272 0.0
O684 O 0.73267 0.31175 0.69494 0.0
C685 C 0.78124 0.34883 0.66581 0.0
O686 O 0.79633 0.3212 0.66829 0.0
C687 C 0.73847 0.33463 0.71371 0.0
C688 C 0.77371 0.36735 0.72002 0.0
C689 C 0.75 0.34143 0.7208 0.0
N690 N 0.75492 0.35528 0.70896 0.0
N691 N 0.77585 0.37484 0.7128 0.0
C692 C 0.71233 0.30894 0.71144 0.0
H693 H 0.72544 0.2856 0.70947 0.0
H694 H 0.69668 0.31927 0.70687 0.0
H695 H 0.69541 0.30217 0.71612 0.0
C696 C 0.73799 0.4252 0.68392 0.0
N697 N 0.7437 0.3932 0.68628 0.0
N698 N 0.74106 0.3922 0.69351 0.0
C699 C 0.73294 0.42355 0.69596 0.0
C700 C 0.73114 0.44563 0.68999 0.0
C701 C 0.7454 0.43674 0.67622 0.0
H702 H 0.77188 0.42952 0.67474 0.0
H703 H 0.72788 0.42352 0.67236 0.0
H704 H 0.74253 0.46462 0.67551 0.0
O705 O 0.80952 0.34822 0.68401 0.0
O706 O 0.80574 0.34588 0.69619 0.0
H707 H 0.75566 0.43743 0.70622 0.0
H708 H 0.71475 0.45673 0.70457 0.0
C709 C 0.72987 0.433 0.70392 0.0
H710 H 0.71756 0.41203 0.70703 0.0
H711 H 0.79289 0.39214 0.71045 0.0
O712 O 0.7636 0.3667 0.67024 0.0
C713 C 0.82327 0.34453 0.6903 0.0
Co714 Co 0.8835 0.52025 0.93194 0.0
Co715 Co 0.88774 0.51932 0.94941 0.0
C716 C 0.93333 0.47588 0.94001 0.0
O717 O 0.92094 0.48731 0.93399 0.0
O718 O 0.92166 0.48516 0.94624 0.0
C719 C 0.89111 0.53387 0.91648 0.0
O720 O 0.92084 0.54591 0.91857 0.0
C721 C 0.9112 0.51196 0.96476 0.0
C722 C 0.87449 0.5441 0.97081 0.0
C723 C 0.90379 0.52485 0.97172 0.0
N724 N 0.88681 0.52231 0.96002 0.0
N725 N 0.86517 0.54179 0.96369 0.0
C726 C 0.9439 0.49567 0.96236 0.0
H727 H 0.95282 0.50755 0.95717 0.0
H728 H 0.93934 0.46818 0.96135 0.0
H729 H 0.96436 0.49857 0.96652 0.0
C730 C 0.81118 0.50939 0.93534 0.0
N731 N 0.84372 0.5118 0.93762 0.0
N732 N 0.8447 0.51025 0.94487 0.0
C733 C 0.8126 0.50555 0.94739 0.0
C734 C 0.79039 0.50555 0.94144 0.0
C735 C 0.80014 0.51205 0.92747 0.0
H736 H 0.81343 0.49228 0.92418 0.0
H737 H 0.77222 0.50848 0.92685 0.0
H738 H 0.80748 0.53739 0.92527 0.0
O739 O 0.90128 0.56584 0.93414 0.0
O740 O 0.90481 0.56451 0.94632 0.0
H741 H 0.79516 0.52807 0.9574 0.0
H742 H 0.7806 0.48537 0.95596 0.0
C743 C 0.80281 0.50263 0.95532 0.0
H744 H 0.82439 0.49265 0.95861 0.0
H745 H 0.84535 0.55542 0.96125 0.0
O746 O 0.87168 0.52034 0.92126 0.0
C747 C 0.90906 0.57986 0.94022 0.0
Co748 Co 0.71256 0.6373 0.17866 0.0
Co749 Co 0.71873 0.6402 0.1961 0.0
C750 C 0.75782 0.68784 0.18646 0.0
O751 O 0.74524 0.67545 0.18054 0.0
O752 O 0.75062 0.67548 0.19275 0.0
C753 C 0.73075 0.62073 0.16317 0.0
O754 O 0.76274 0.61833 0.16525 0.0
C755 C 0.7347 0.65756 0.21158 0.0
C756 C 0.69672 0.62646 0.21752 0.0
C757 C 0.72108 0.65159 0.21855 0.0
N758 N 0.71877 0.63723 0.20668 0.0
N759 N 0.69622 0.61861 0.2103 0.0
C760 C 0.76237 0.68211 0.20958 0.0
H761 H 0.77955 0.67026 0.20546 0.0
H762 H 0.77758 0.68955 0.21447 0.0
H763 H 0.75085 0.70522 0.20708 0.0
C764 C 0.72414 0.56405 0.18182 0.0
N765 N 0.72282 0.5968 0.18403 0.0
N766 N 0.72685 0.59802 0.19124 0.0
C767 C 0.73216 0.56618 0.19378 0.0
C768 C 0.73034 0.54354 0.18791 0.0
C769 C 0.7147 0.55235 0.17423 0.0
H770 H 0.69395 0.56849 0.172 0.0
H771 H 0.73726 0.55459 0.17058 0.0
H772 H 0.70597 0.52547 0.17421 0.0
O773 O 0.66761 0.65424 0.1816 0.0
O774 O 0.67253 0.65715 0.19374 0.0
H775 H 0.71445 0.55325 0.20455 0.0
H776 H 0.75439 0.53388 0.20209 0.0
C777 C 0.739 0.55755 0.20167 0.0
H778 H 0.75269 0.57877 0.20441 0.0
H779 H 0.6791 0.60192 0.20778 0.0
O780 O 0.70803 0.62835 0.16789 0.0
C781 C 0.65537 0.66161 0.18787 0.0
Co782 Co 0.60885 0.46058 0.43009 0.0
Co783 Co 0.60298 0.46071 0.44748 0.0
C784 C 0.55654 0.50258 0.4381 0.0
O785 O 0.56984 0.49207 0.4321 0.0
O786 O 0.56787 0.49319 0.44434 0.0
C787 C 0.60199 0.45013 0.41452 0.0
O788 O 0.57133 0.43972 0.41638 0.0
C789 C 0.58439 0.47363 0.46299 0.0
C790 C 0.61264 0.4326 0.46865 0.0
C791 C 0.58886 0.45814 0.46982 0.0
N792 N 0.60424 0.45762 0.45803 0.0
N793 N 0.62118 0.43325 0.46147 0.0
C794 C 0.56186 0.50324 0.46119 0.0
H795 H 0.57499 0.52031 0.45723 0.0
H796 H 0.55525 0.51798 0.4662 0.0
H797 H 0.53811 0.49377 0.45857 0.0
C798 C 0.68101 0.47152 0.434 0.0
N799 N 0.64797 0.46966 0.43596 0.0
N800 N 0.64566 0.4711 0.44319 0.0
C801 C 0.67711 0.47509 0.44605 0.0
C802 C 0.70067 0.47512 0.44033 0.0
C803 C 0.69338 0.46461 0.42634 0.0
H804 H 0.67998 0.442 0.42409 0.0
H805 H 0.68723 0.48678 0.42278 0.0
H806 H 0.72117 0.4597 0.42613 0.0
O807 O 0.59258 0.41413 0.43207 0.0
O808 O 0.58802 0.41502 0.44424 0.0
H809 H 0.6872 0.45259 0.45654 0.0
H810 H 0.70866 0.49252 0.45501 0.0
C811 C 0.68452 0.47836 0.4541 0.0
H812 H 0.66332 0.49178 0.45691 0.0
H813 H 0.63729 0.41592 0.45885 0.0
O814 O 0.62168 0.46177 0.41948 0.0
C815 C 0.58492 0.39965 0.43811 0.0
Co816 Co 0.20655 0.35884 0.20662 0.0
Co817 Co 0.19475 0.36849 0.18953 0.0
C818 C 0.24598 0.3196 0.19484 0.0
O819 O 0.2384 0.32734 0.20148 0.0
O820 O 0.2318 0.33446 0.18939 0.0
C821 C 0.24217 0.35346 0.22093 0.0
O822 O 0.27093 0.35926 0.21744 0.0
C823 C 0.19654 0.38087 0.17327 0.0
C824 C 0.14818 0.40925 0.172 0.0
C825 C 0.17605 0.39727 0.16811 0.0
N826 N 0.18143 0.38338 0.17991 0.0
N827 N 0.1524 0.40003 0.17906 0.0
C828 C 0.23062 0.36481 0.17202 0.0
H829 H 0.24723 0.36893 0.17689 0.0
H830 H 0.24302 0.37533 0.16702 0.0
H831 H 0.22717 0.33694 0.17129 0.0
C832 C 0.2106 0.43475 0.20579 0.0
N833 N 0.2086 0.40353 0.20271 0.0
N834 N 0.20584 0.40684 0.19551 0.0
C835 C 0.20736 0.44013 0.19377 0.0
C836 C 0.20949 0.45904 0.20021 0.0
C837 C 0.21065 0.44099 0.21391 0.0
H838 H 0.19629 0.42058 0.21679 0.0
H839 H 0.23736 0.44052 0.21593 0.0
H840 H 0.19936 0.46618 0.21524 0.0
O841 O 0.16067 0.34037 0.20532 0.0
O842 O 0.15363 0.34482 0.19326 0.0
H843 H 0.18223 0.45718 0.18398 0.0
H844 H 0.22177 0.47865 0.18587 0.0
C845 C 0.20856 0.45365 0.18606 0.0
H846 H 0.22221 0.43553 0.18242 0.0
H847 H 0.13565 0.40558 0.18337 0.0
O848 O 0.21415 0.35483 0.21742 0.0
C849 C 0.14303 0.33545 0.19956 0.0
Co850 Co 0.38789 0.46034 0.95533 0.0
Co851 Co 0.38208 0.43347 0.93887 0.0
C852 C 0.43231 0.48701 0.94298 0.0
O853 O 0.42251 0.48624 0.94967 0.0
O854 O 0.41815 0.46852 0.93808 0.0
C855 C 0.40176 0.50539 0.9675 0.0
O856 O 0.41022 0.52688 0.96226 0.0
C857 C 0.36702 0.43024 0.92272 0.0
C858 C 0.3584 0.37493 0.92145 0.0
C859 C 0.35849 0.40527 0.91753 0.0
N860 N 0.37119 0.4151 0.92933 0.0
N861 N 0.36618 0.38204 0.92849 0.0
C862 C 0.37239 0.46754 0.92146 0.0
H863 H 0.38717 0.47897 0.92603 0.0
H864 H 0.34728 0.48052 0.92123 0.0
H865 H 0.38594 0.47188 0.91618 0.0
C866 C 0.31307 0.46855 0.95309 0.0
N867 N 0.34461 0.46111 0.95062 0.0
N868 N 0.34244 0.44983 0.9438 0.0
C869 C 0.30947 0.44956 0.94173 0.0
C870 C 0.28974 0.46165 0.94752 0.0
C871 C 0.30559 0.48101 0.9607 0.0
H872 H 0.30765 0.45935 0.9646 0.0
H873 H 0.32473 0.50042 0.96233 0.0
H874 H 0.27959 0.49206 0.96106 0.0
O875 O 0.40488 0.41316 0.95602 0.0
O876 O 0.40254 0.39547 0.94443 0.0
H877 H 0.30807 0.40809 0.93409 0.0
H878 H 0.26877 0.43111 0.93459 0.0
C879 C 0.29687 0.43382 0.93472 0.0
H880 H 0.30505 0.44972 0.92999 0.0
H881 H 0.36782 0.36428 0.93276 0.0
O882 O 0.38844 0.47696 0.96573 0.0
C883 C 0.41023 0.39051 0.95115 0.0
Co884 Co 0.27476 0.64988 0.70405 0.0
Co885 Co 0.30784 0.63828 0.68839 0.0
C886 C 0.25704 0.69334 0.69088 0.0
O887 O 0.25302 0.68381 0.69752 0.0
O888 O 0.27794 0.67826 0.68662 0.0
C889 C 0.25425 0.68677 0.71584 0.0
O890 O 0.26647 0.70906 0.71113 0.0
C891 C 0.31436 0.62574 0.67242 0.0
C892 C 0.36465 0.60046 0.67186 0.0
C893 C 0.33741 0.611 0.66757 0.0
N894 N 0.32735 0.6238 0.67926 0.0
N895 N 0.35758 0.60902 0.67887 0.0
C896 C 0.27967 0.63941 0.67069 0.0
H897 H 0.26222 0.635 0.67541 0.0
H898 H 0.26913 0.62731 0.66565 0.0
H899 H 0.28156 0.6673 0.66976 0.0
C900 C 0.25909 0.57597 0.70219 0.0
N901 N 0.2715 0.60598 0.69977 0.0
N902 N 0.28425 0.60178 0.69311 0.0
C903 C 0.28005 0.56908 0.69107 0.0
C904 C 0.26392 0.55166 0.69673 0.0
C905 C 0.24366 0.57078 0.70964 0.0
H906 H 0.26425 0.57092 0.71383 0.0
H907 H 0.22611 0.59216 0.71091 0.0
H908 H 0.22972 0.54619 0.70994 0.0
O909 O 0.32288 0.6629 0.70542 0.0
O910 O 0.34651 0.65338 0.69452 0.0
H911 H 0.32254 0.55719 0.6842 0.0
H912 H 0.2888 0.52663 0.68355 0.0
C913 C 0.29448 0.55413 0.68415 0.0
H914 H 0.28408 0.56796 0.67932 0.0
H915 H 0.37317 0.60427 0.68342 0.0
O916 O 0.25394 0.65539 0.71402 0.0
C917 C 0.3487 0.66291 0.70119 0.0
Co918 Co 0.10561 0.52539 0.45649 0.0
Co919 Co 0.11549 0.5417 0.4395 0.0
C920 C 0.05963 0.49692 0.44442 0.0
O921 O 0.0689 0.50064 0.4511 0.0
O922 O 0.07586 0.51091 0.43914 0.0
C923 C 0.08963 0.48434 0.46917 0.0
O924 O 0.08185 0.4614 0.46417 0.0
C925 C 0.1236 0.54658 0.42302 0.0
C926 C 0.15748 0.59153 0.42254 0.0
C927 C 0.14084 0.56802 0.41813 0.0
N928 N 0.13037 0.55689 0.42996 0.0
N929 N 0.15042 0.58389 0.42959 0.0
C930 C 0.09919 0.51858 0.42114 0.0
H931 H 0.07982 0.51568 0.42552 0.0
H932 H 0.11345 0.49426 0.42066 0.0
H933 H 0.08607 0.52383 0.41585 0.0
C934 C 0.17945 0.50912 0.45494 0.0
N935 N 0.14881 0.51736 0.45209 0.0
N936 N 0.15208 0.52208 0.44494 0.0
C937 C 0.18456 0.51573 0.44298 0.0
C938 C 0.20316 0.50775 0.44926 0.0
C939 C 0.18599 0.50449 0.46299 0.0
H940 H 0.18143 0.52901 0.46588 0.0
H941 H 0.16774 0.48558 0.46525 0.0
H942 H 0.21247 0.4958 0.46405 0.0
O943 O 0.09433 0.57432 0.45619 0.0
O944 O 0.09994 0.58405 0.44424 0.0
H945 H 0.20439 0.54829 0.43458 0.0
H946 H 0.22175 0.50614 0.43436 0.0
C947 C 0.19823 0.52095 0.43536 0.0
H948 H 0.17896 0.51312 0.43123 0.0
H949 H 0.15921 0.59727 0.43418 0.0
O950 O 0.10278 0.51241 0.46711 0.0
C951 C 0.09257 0.59426 0.45069 0.0
Co952 Co 0.22928 0.64815 0.30391 0.0
Co953 Co 0.19201 0.63104 0.31893 0.0
C954 C 0.23732 0.69124 0.31756 0.0
O955 O 0.24463 0.68311 0.31097 0.0
O956 O 0.21663 0.6736 0.32139 0.0
C957 C 0.25188 0.68859 0.29272 0.0
O958 O 0.23719 0.7097 0.29735 0.0
C959 C 0.18238 0.61496 0.33467 0.0
C960 C 0.13354 0.58688 0.33447 0.0
C961 C 0.15904 0.59823 0.33915 0.0
N962 N 0.17115 0.61345 0.32767 0.0
N963 N 0.14181 0.59689 0.32761 0.0
C964 C 0.21596 0.62999 0.33684 0.0
H965 H 0.23418 0.6285 0.33218 0.0
H966 H 0.22667 0.61659 0.3417 0.0
H967 H 0.21226 0.65725 0.33826 0.0
C968 C 0.2517 0.57626 0.30567 0.0
N969 N 0.23572 0.60454 0.30806 0.0
N970 N 0.2213 0.59817 0.31448 0.0
C971 C 0.22811 0.56579 0.31641 0.0
C972 C 0.24767 0.55091 0.31092 0.0
C973 C 0.26888 0.57331 0.29835 0.0
H974 H 0.24928 0.57415 0.29394 0.0
H975 H 0.28613 0.59541 0.29753 0.0
H976 H 0.28353 0.54919 0.29791 0.0
O977 O 0.18077 0.65592 0.30176 0.0
O978 O 0.15428 0.64285 0.31217 0.0
H979 H 0.18452 0.54913 0.32247 0.0
H980 H 0.22055 0.52131 0.32341 0.0
C981 C 0.21266 0.54832 0.32295 0.0
H982 H 0.22025 0.56194 0.32803 0.0
H983 H 0.12761 0.59204 0.32286 0.0
O984 O 0.25307 0.65703 0.29436 0.0
C985 C 0.15358 0.65277 0.3055 0.0
Co986 Co 0.11304 0.4661 0.05138 0.0
Co987 Co 0.12194 0.44664 0.06824 0.0
C988 C 0.06981 0.49663 0.06367 0.0
O989 O 0.07878 0.49308 0.05696 0.0
O990 O 0.08505 0.48085 0.06885 0.0
C991 C 0.09842 0.50865 0.03886 0.0
O992 O 0.09162 0.53159 0.04393 0.0
C993 C 0.13402 0.4416 0.0846 0.0
C994 C 0.15889 0.39109 0.08492 0.0
C995 C 0.14874 0.41787 0.08938 0.0
N996 N 0.13605 0.42933 0.07767 0.0
N997 N 0.15073 0.39907 0.07795 0.0
C998 C 0.11674 0.47435 0.08656 0.0
H999 H 0.09792 0.48153 0.08229 0.0
H1000 H 0.13612 0.49489 0.08692 0.0
H1001 H 0.10359 0.47213 0.09195 0.0
C1002 C 0.18819 0.47354 0.05272 0.0
N1003 N 0.15696 0.46911 0.05568 0.0
N1004 N 0.16016 0.46246 0.06276 0.0
C1005 C 0.19344 0.46322 0.06455 0.0
C1006 C 0.21233 0.46964 0.05826 0.0
C1007 C 0.19457 0.47753 0.04465 0.0
H1008 H 0.18293 0.45577 0.04166 0.0
H1009 H 0.18187 0.5011 0.04268 0.0
H1010 H 0.22224 0.47882 0.0434 0.0
O1011 O 0.09707 0.41856 0.05148 0.0
O1012 O 0.10158 0.40665 0.06337 0.0
H1013 H 0.20861 0.42866 0.07303 0.0
H1014 H 0.23348 0.46714 0.07267 0.0
C1015 C 0.20737 0.45654 0.07209 0.0
H1016 H 0.19063 0.46825 0.0763 0.0
H1017 H 0.15533 0.38383 0.07334 0.0
O1018 O 0.11085 0.48012 0.04083 0.0
C1019 C 0.09307 0.39824 0.05686 0.0
Co1020 Co 0.26818 0.36204 0.80103 0.0
Co1021 Co 0.28178 0.37679 0.81794 0.0
C1022 C 0.23865 0.31908 0.81355 0.0
O1023 O 0.24351 0.32661 0.8068 0.0
O1024 O 0.25122 0.33712 0.81872 0.0
C1025 C 0.22835 0.34204 0.78843 0.0
O1026 O 0.20535 0.33491 0.79346 0.0
C1027 C 0.28304 0.38764 0.83422 0.0
C1028 C 0.32526 0.42475 0.83508 0.0
C1029 C 0.30187 0.40672 0.83924 0.0
N1030 N 0.29475 0.39435 0.8274 0.0
N1031 N 0.32018 0.4163 0.82798 0.0
C1032 C 0.25391 0.36421 0.83582 0.0
H1033 H 0.26325 0.33752 0.83575 0.0
H1034 H 0.23412 0.36681 0.83149 0.0
H1035 H 0.24259 0.36968 0.8413 0.0
C1036 C 0.25418 0.43626 0.80132 0.0
N1037 N 0.25977 0.40628 0.80474 0.0
N1038 N 0.26285 0.41166 0.81187 0.0
C1039 C 0.25757 0.44497 0.81322 0.0
C1040 C 0.25252 0.46175 0.80661 0.0
C1041 C 0.25449 0.44068 0.79315 0.0
H1042 H 0.27898 0.431 0.79091 0.0
H1043 H 0.23375 0.42514 0.7907 0.0
H1044 H 0.25106 0.4678 0.79157 0.0
O1045 O 0.31691 0.35143 0.80176 0.0
O1046 O 0.32505 0.3597 0.81371 0.0
H1047 H 0.28747 0.46891 0.82159 0.0
H1048 H 0.24489 0.48508 0.82084 0.0
C1049 C 0.26056 0.46154 0.82062 0.0
H1050 H 0.252 0.44387 0.82501 0.0
H1051 H 0.33416 0.4255 0.82351 0.0
O1052 O 0.25608 0.35618 0.79041 0.0
C1053 C 0.33607 0.35082 0.8074 0.0
Co1054 Co 0.39469 0.52086 0.55218 0.0
Co1055 Co 0.3851 0.55557 0.56779 0.0
C1056 C 0.44103 0.50573 0.56498 0.0
O1057 O 0.43037 0.50034 0.55846 0.0
O1058 O 0.42621 0.52694 0.5692 0.0
C1059 C 0.42955 0.4999 0.54013 0.0
O1060 O 0.45252 0.5131 0.54456 0.0
C1061 C 0.37182 0.56345 0.58389 0.0
C1062 C 0.35364 0.6167 0.58418 0.0
C1063 C 0.35994 0.58876 0.58866 0.0
N1064 N 0.37199 0.57602 0.57697 0.0
N1065 N 0.36121 0.60789 0.57722 0.0
C1066 C 0.38388 0.52836 0.5858 0.0
H1067 H 0.39906 0.51725 0.58127 0.0
H1068 H 0.36148 0.5116 0.58671 0.0
H1069 H 0.39945 0.52893 0.59091 0.0
C1070 C 0.32112 0.50537 0.55463 0.0
N1071 N 0.3516 0.51746 0.55685 0.0
N1072 N 0.34829 0.53097 0.56347 0.0
C1073 C 0.31571 0.5277 0.56567 0.0
C1074 C 0.29745 0.51123 0.56018 0.0
C1075 C 0.31466 0.49017 0.54721 0.0
H1076 H 0.31464 0.5108 0.54303 0.0
H1077 H 0.33552 0.47223 0.5458 0.0
H1078 H 0.28976 0.47672 0.54705 0.0
O1079 O 0.40656 0.56906 0.55048 0.0
O1080 O 0.39816 0.59374 0.56132 0.0
H1081 H 0.30728 0.57175 0.57235 0.0
H1082 H 0.27355 0.54109 0.57294 0.0
C1083 C 0.30152 0.54412 0.57246 0.0
H1084 H 0.3138 0.53281 0.57738 0.0
H1085 H 0.35895 0.62366 0.57262 0.0
O1086 O 0.39857 0.49918 0.54225 0.0
C1087 C 0.40659 0.59536 0.55457 0.0
C1088 C 0.38451 0.17772 0.30913 0.0
C1089 C 0.37302 0.16684 0.31609 0.0
C1090 C 0.41547 0.19508 0.30846 0.0
C1091 C 0.46826 0.25175 0.31927 0.0
H1092 H 0.54016 0.23382 0.30515 0.0
C1093 C 0.60116 0.30973 0.32216 0.0
C1094 C 0.61943 0.31867 0.3158 0.0
C1095 C 0.56978 0.29335 0.3216 0.0
C1096 C 0.52 0.23953 0.30903 0.0
H1097 H 0.38631 0.16325 0.32768 0.0
H1098 H 0.44006 0.19357 0.32648 0.0
H1099 H 0.48896 0.19813 0.30518 0.0
H1100 H 0.61839 0.31871 0.30384 0.0
H1101 H 0.56307 0.29057 0.30288 0.0
H1102 H 0.49876 0.29316 0.32311 0.0
C1103 C 0.42486 0.1891 0.32158 0.0
C1104 C 0.49088 0.21899 0.30907 0.0
C1105 C 0.39416 0.1716 0.32226 0.0
C1106 C 0.605 0.31202 0.30885 0.0
C1107 C 0.57345 0.29569 0.30829 0.0
C1108 C 0.49708 0.27243 0.31919 0.0
C1109 C 0.4352 0.20195 0.31473 0.0
C1110 C 0.46518 0.22453 0.3143 0.0
C1111 C 0.55578 0.28573 0.31467 0.0
C1112 C 0.52361 0.26611 0.31418 0.0
H1113 H 0.36888 0.1743 0.30426 0.0
H1114 H 0.42307 0.20469 0.30311 0.0
H1115 H 0.44835 0.25697 0.32325 0.0
H1116 H 0.61153 0.31439 0.3276 0.0
H1117 H 0.55707 0.28559 0.32663 0.0
C1118 C 0.94501 0.35059 0.56115 0.0
C1119 C 0.93511 0.36358 0.56804 0.0
C1120 C 0.9635 0.32026 0.56069 0.0
C1121 C 0.02105 0.26693 0.57162 0.0
H1122 H -0.00104 0.19632 0.55746 0.0
C1123 C 0.07364 0.13068 0.57362 0.0
C1124 C 0.0814 0.11327 0.56707 0.0
C1125 C 0.0587 0.16289 0.57338 0.0
C1126 C 0.00582 0.21606 0.56135 0.0
H1127 H 0.93581 0.35427 0.57984 0.0
H1128 H 0.96784 0.30134 0.57901 0.0
H1129 H 0.96549 0.24873 0.5577 0.0
H1130 H 0.08106 0.11671 0.55513 0.0
H1131 H 0.05535 0.17322 0.55474 0.0
H1132 H 0.06124 0.23431 0.57531 0.0
C1133 C 0.96174 0.3149 0.57398 0.0
C1134 C 0.98658 0.24597 0.56151 0.0
C1135 C 0.94316 0.34509 0.57444 0.0
C1136 C 0.07518 0.12934 0.56028 0.0
C1137 C 0.06027 0.16161 0.56004 0.0
C1138 C 0.04036 0.23712 0.57145 0.0
C1139 C 0.97253 0.3025 0.56712 0.0
C1140 C 0.99374 0.27144 0.56671 0.0
C1141 C 0.05131 0.17842 0.56659 0.0
C1142 C 0.03266 0.21119 0.56638 0.0
H1143 H 0.9392 0.36422 0.55611 0.0
H1144 H 0.97161 0.31126 0.55533 0.0
H1145 H 0.02751 0.28649 0.57559 0.0
H1146 H 0.07808 0.11903 0.57894 0.0
H1147 H 0.05176 0.17504 0.57852 0.0
C1148 C 0.90259 0.68469 0.81137 0.0
C1149 C 0.88915 0.6736 0.81813 0.0
C1150 C 0.93299 0.70317 0.81116 0.0
C1151 C 0.98452 0.7593 0.8228 0.0
H1152 H 0.0542 0.74549 0.80796 0.0
C1153 C 0.11686 0.82297 0.82399 0.0
C1154 C 0.13161 0.83344 0.81731 0.0
C1155 C 0.08606 0.80518 0.82401 0.0
C1156 C 0.03471 0.74996 0.81208 0.0
H1157 H 0.89807 0.67155 0.82994 0.0
H1158 H 0.95122 0.70346 0.82953 0.0
H1159 H 0.00415 0.70859 0.80814 0.0
H1160 H 0.12465 0.83516 0.80545 0.0
H1161 H 0.07066 0.80456 0.80552 0.0
H1162 H 0.01502 0.80067 0.82674 0.0
C1163 C 0.93788 0.69844 0.82442 0.0
C1164 C 0.00616 0.72876 0.81219 0.0
C1165 C 0.90756 0.67995 0.82464 0.0
C1166 C 0.11412 0.8272 0.81069 0.0
C1167 C 0.08331 0.80947 0.81071 0.0
C1168 C 0.01302 0.78053 0.82268 0.0
C1169 C 0.95046 0.7109 0.8177 0.0
C1170 C 0.98088 0.73314 0.81758 0.0
C1171 C 0.06938 0.79761 0.81736 0.0
C1172 C 0.03845 0.77601 0.81733 0.0
H1173 H 0.88906 0.6802 0.80626 0.0
H1174 H 0.94206 0.71258 0.8059 0.0
H1175 H 0.96508 0.76366 0.82694 0.0
H1176 H 0.12968 0.82734 0.82919 0.0
H1177 H 0.07604 0.79617 0.82922 0.0
C1178 C 0.4219 0.84364 0.06338 0.0
C1179 C 0.41543 0.85956 0.07017 0.0
C1180 C 0.43907 0.81254 0.06311 0.0
C1181 C 0.50071 0.76302 0.07373 0.0
H1182 H 0.47739 0.6903 0.06017 0.0
C1183 C 0.56762 0.63231 0.07395 0.0
C1184 C 0.57438 0.61692 0.06712 0.0
C1185 C 0.54848 0.6622 0.07433 0.0
C1186 C 0.48444 0.71059 0.06392 0.0
H1187 H 0.42027 0.85437 0.08204 0.0
H1188 H 0.45003 0.79992 0.08155 0.0
H1189 H 0.44091 0.74055 0.06097 0.0
H1190 H 0.56744 0.62156 0.05529 0.0
H1191 H 0.53445 0.67408 0.05596 0.0
H1192 H 0.54436 0.73327 0.07665 0.0
C1193 C 0.44228 0.81185 0.07643 0.0
C1194 C 0.46349 0.73924 0.0644 0.0
C1195 C 0.42504 0.84291 0.07671 0.0
C1196 C 0.56256 0.63268 0.06065 0.0
C1197 C 0.54343 0.66261 0.06103 0.0
C1198 C 0.52167 0.73441 0.07325 0.0
C1199 C 0.45013 0.79677 0.06963 0.0
C1200 C 0.47145 0.76573 0.0693 0.0
C1201 C 0.53576 0.67736 0.06788 0.0
C1202 C 0.51379 0.70794 0.06833 0.0
H1203 H 0.41476 0.85573 0.05824 0.0
H1204 H 0.44495 0.80159 0.05778 0.0
H1205 H 0.50781 0.78336 0.07747 0.0
H1206 H 0.57629 0.62081 0.07905 0.0
H1207 H 0.54275 0.67283 0.0797 0.0
C1208 C 0.6108 0.69303 0.19499 0.0
C1209 C 0.62212 0.67913 0.18828 0.0
C1210 C 0.58179 0.71354 0.1952 0.0
C1211 C 0.52951 0.76831 0.18324 0.0
H1212 H 0.46562 0.7643 0.1995 0.0
C1213 C 0.39785 0.83495 0.18371 0.0
C1214 C 0.38681 0.84826 0.19049 0.0
C1215 C 0.42882 0.81754 0.18323 0.0
C1216 C 0.48354 0.76603 0.19498 0.0
H1217 H 0.61084 0.67441 0.17662 0.0
H1218 H 0.55977 0.70965 0.17704 0.0
H1219 H 0.51325 0.72458 0.19911 0.0
H1220 H 0.40098 0.85646 0.20192 0.0
H1221 H 0.45504 0.82634 0.20105 0.0
H1222 H 0.49931 0.80953 0.17907 0.0
C1223 C 0.57384 0.70534 0.18208 0.0
C1224 C 0.51074 0.74323 0.19474 0.0
C1225 C 0.60293 0.68491 0.18186 0.0
C1226 C 0.40851 0.84611 0.19663 0.0
C1227 C 0.43939 0.82871 0.19615 0.0
C1228 C 0.50216 0.79105 0.18346 0.0
C1229 C 0.56339 0.72043 0.18873 0.0
C1230 C 0.53404 0.74413 0.18888 0.0
C1231 C 0.44922 0.81321 0.18952 0.0
C1232 C 0.479 0.79017 0.18934 0.0
H1233 H 0.62503 0.68916 0.20003 0.0
H1234 H 0.57453 0.72501 0.20039 0.0
H1235 H 0.54739 0.76999 0.17871 0.0
H1236 H 0.38179 0.83629 0.17886 0.0
H1237 H 0.43581 0.80581 0.17804 0.0
C1238 C 0.56226 0.34908 0.43126 0.0
C1239 C 0.56969 0.36524 0.43799 0.0
C1240 C 0.54486 0.31805 0.43116 0.0
C1241 C 0.5214 0.24464 0.44277 0.0
H1242 H 0.4463 0.235 0.42901 0.0
C1243 C 0.42663 0.13425 0.44506 0.0
C1244 C 0.41935 0.1167 0.4385 0.0
C1245 C 0.44346 0.16553 0.44487 0.0
C1246 C 0.46737 0.23725 0.43284 0.0
H1247 H 0.56568 0.36093 0.44988 0.0
H1248 H 0.53522 0.30699 0.44969 0.0
H1249 H 0.48103 0.28666 0.42881 0.0
H1250 H 0.42251 0.11905 0.42656 0.0
H1251 H 0.45207 0.17365 0.42625 0.0
H1252 H 0.50774 0.19535 0.44682 0.0
C1253 C 0.54303 0.31818 0.4445 0.0
C1254 C 0.4873 0.26672 0.43271 0.0
C1255 C 0.56036 0.34918 0.44461 0.0
C1256 C 0.42778 0.13189 0.43172 0.0
C1257 C 0.44463 0.16321 0.43154 0.0
C1258 C 0.50147 0.21524 0.4429 0.0
C1259 C 0.53467 0.30255 0.43778 0.0
C1260 C 0.51442 0.27075 0.4377 0.0
C1261 C 0.45334 0.17991 0.43811 0.0
C1262 C 0.47416 0.21133 0.43797 0.0
H1263 H 0.56916 0.36074 0.42607 0.0
H1264 H 0.53917 0.3063 0.42591 0.0
H1265 H 0.54244 0.24684 0.44661 0.0
H1266 H 0.42023 0.12342 0.45037 0.0
H1267 H 0.44927 0.1782 0.45002 0.0
C1268 C 0.09563 0.197 0.69704 0.0
C1269 C 0.10804 0.187 0.6901 0.0
C1270 C 0.06604 0.21662 0.69759 0.0
C1271 C 0.01456 0.27674 0.68687 0.0
H1272 H 0.94281 0.25535 0.70081 0.0
C1273 C 0.87834 0.32858 0.68431 0.0
C1274 C 0.85966 0.33515 0.69076 0.0
C1275 C 0.9111 0.31494 0.68473 0.0
C1276 C 0.96291 0.2621 0.69699 0.0
H1277 H 0.09837 0.18868 0.67832 0.0
H1278 H 0.04673 0.22266 0.67931 0.0
H1279 H 0.99454 0.22089 0.70061 0.0
H1280 H 0.86162 0.33476 0.70271 0.0
H1281 H 0.91909 0.31138 0.70342 0.0
H1282 H 0.98289 0.31769 0.68318 0.0
C1283 C 0.0602 0.21577 0.6843 0.0
C1284 C 0.99243 0.24226 0.69686 0.0
C1285 C 0.08962 0.19604 0.68375 0.0
C1286 C 0.87521 0.32967 0.69764 0.0
C1287 C 0.90804 0.3161 0.69805 0.0
C1288 C 0.98514 0.29666 0.68702 0.0
C1289 C 0.04847 0.22672 0.69121 0.0
C1290 C 0.01821 0.24902 0.69171 0.0
C1291 C 0.92594 0.30775 0.6916 0.0
C1292 C 0.95874 0.28917 0.69199 0.0
H1293 H 0.10923 0.19045 0.70204 0.0
H1294 H 0.05751 0.22478 0.70298 0.0
H1295 H 0.03441 0.28289 0.68294 0.0
H1296 H 0.86715 0.33254 0.67892 0.0
H1297 H 0.9241 0.30851 0.67965 0.0
C1298 C 0.0702 0.84525 0.94583 0.0
C1299 C 0.07981 0.85945 0.93903 0.0
C1300 C 0.05455 0.8133 0.94611 0.0
C1301 C 0.00072 0.75979 0.93458 0.0
H1302 H 0.01729 0.68998 0.94927 0.0
C1303 C 0.93598 0.62843 0.93348 0.0
C1304 C 0.92595 0.61348 0.94017 0.0
C1305 C 0.95494 0.65849 0.93345 0.0
C1306 C 0.01209 0.70947 0.94519 0.0
H1307 H 0.08304 0.8501 0.92726 0.0
H1308 H 0.05593 0.79439 0.92777 0.0
H1309 H 0.05307 0.74097 0.94903 0.0
H1310 H 0.92688 0.61902 0.95207 0.0
H1311 H 0.95938 0.67193 0.95199 0.0
H1312 H 0.95949 0.7288 0.9308 0.0
C1313 C 0.05989 0.80827 0.93286 0.0
C1314 C 0.03267 0.73851 0.94504 0.0
C1315 C 0.07558 0.8401 0.93258 0.0
C1316 C 0.93436 0.6298 0.94682 0.0
C1317 C 0.95322 0.65996 0.94678 0.0
C1318 C 0.98007 0.73092 0.93476 0.0
C1319 C 0.04824 0.79509 0.93959 0.0
C1320 C 0.02724 0.76383 0.93971 0.0
C1321 C 0.96412 0.67434 0.9401 0.0
C1322 C 0.98558 0.70539 0.94005 0.0
H1323 H 0.07321 0.85945 0.95091 0.0
H1324 H 0.04576 0.8037 0.95137 0.0
H1325 H 0.9955 0.7793 0.93051 0.0
H1326 H 0.93007 0.61644 0.92826 0.0
H1327 H 0.96326 0.66874 0.92821 0.0
C1328 C 0.41164 0.67088 0.70007 0.0
C1329 C 0.38115 0.67724 0.70388 0.0
C1330 C 0.44152 0.68788 0.70204 0.0
C1331 C 0.46847 0.76905 0.70899 0.0
H1332 H 0.55796 0.72714 0.70971 0.0
C1333 C 0.62051 0.80689 0.7106 0.0
C1334 C 0.62275 0.82775 0.70432 0.0
C1335 C 0.58987 0.79086 0.7124 0.0
C1336 C 0.5331 0.73918 0.70965 0.0
H1337 H 0.35827 0.70531 0.71293 0.0
H1338 H 0.41056 0.73558 0.71624 0.0
H1339 H 0.50706 0.69117 0.70961 0.0
H1340 H 0.59407 0.85017 0.69531 0.0
H1341 H 0.54043 0.82241 0.69853 0.0
H1342 H 0.49459 0.81702 0.70863 0.0
C1343 C 0.41122 0.71726 0.71178 0.0
C1344 C 0.50409 0.71862 0.70955 0.0
C1345 C 0.38143 0.69983 0.7099 0.0
C1346 C 0.59319 0.83408 0.70016 0.0
C1347 C 0.56245 0.81838 0.70202 0.0
C1348 C 0.49751 0.78961 0.70899 0.0
C1349 C 0.44131 0.71187 0.70777 0.0
C1350 C 0.4716 0.73338 0.70905 0.0
C1351 C 0.56083 0.79582 0.70802 0.0
C1352 C 0.53007 0.77479 0.70916 0.0
H1353 H 0.41219 0.6535 0.69543 0.0
H1354 H 0.46438 0.68351 0.69882 0.0
H1355 H 0.44364 0.78099 0.70855 0.0
H1356 H 0.64281 0.80154 0.71393 0.0
H1357 H 0.58913 0.77373 0.71708 0.0
C1358 C 0.07411 0.64992 0.4454 0.0
C1359 C 0.07871 0.62902 0.45161 0.0
C1360 C 0.05718 0.68096 0.44601 0.0
C1361 C 0.99434 0.725 0.45762 0.0
H1362 H 0.01737 0.80113 0.44494 0.0
C1363 C 0.92707 0.85795 0.45722 0.0
C1364 C 0.9186 0.86984 0.45014 0.0
C1365 C 0.94595 0.82799 0.45808 0.0
C1366 C 0.01065 0.77998 0.44849 0.0
H1367 H 0.07061 0.62519 0.4634 0.0
H1368 H 0.0416 0.68005 0.46449 0.0
H1369 H 0.0553 0.75207 0.44554 0.0
H1370 H 0.9216 0.85856 0.43844 0.0
H1371 H 0.95479 0.80662 0.43997 0.0
H1372 H 0.94971 0.75352 0.4606 0.0
C1373 C 0.05049 0.67192 0.45912 0.0
C1374 C 0.03229 0.7519 0.44884 0.0
C1375 C 0.06735 0.64064 0.45851 0.0
C1376 C 0.9278 0.85024 0.44397 0.0
C1377 C 0.94698 0.82063 0.44483 0.0
C1378 C 0.97287 0.75341 0.45735 0.0
C1379 C 0.04467 0.6921 0.45285 0.0
C1380 C 0.02397 0.72369 0.45326 0.0
C1381 C 0.95694 0.80978 0.45187 0.0
C1382 C 0.98049 0.7807 0.45264 0.0
H1383 H 0.0825 0.64181 0.43999 0.0
H1384 H 0.05271 0.69554 0.44103 0.0
H1385 H 0.98699 0.70356 0.46103 0.0
H1386 H 0.92021 0.87239 0.46208 0.0
H1387 H 0.95332 0.81997 0.46356 0.0
C1388 C 0.88352 0.16426 0.20685 0.0
C1389 C 0.87257 0.15325 0.19988 0.0
C1390 C 0.91552 0.17935 0.20771 0.0
C1391 C -0.00214 0.19553 0.19814 0.0
H1392 H 0.99629 0.27981 0.20931 0.0
C1393 C 0.09582 0.30211 0.19378 0.0
C1394 C 0.11112 0.3157 0.20013 0.0
C1395 C 0.06788 0.28031 0.19437 0.0
C1396 C -0.00281 0.25614 0.20625 0.0
H1397 H 0.88747 0.14745 0.18842 0.0
H1398 H 0.94268 0.17431 0.18989 0.0
H1399 H 0.94668 0.24239 0.20948 0.0
H1400 H 0.10832 0.31814 0.21207 0.0
H1401 H 0.05903 0.28042 0.21306 0.0
H1402 H 0.04794 0.21015 0.19468 0.0
C1403 C 0.92687 0.171 0.19472 0.0
C1404 C 0.96891 0.23458 0.20637 0.0
C1405 C 0.89503 0.15578 0.19387 0.0
C1406 C 0.09713 0.30803 0.20707 0.0
C1407 C 0.06893 0.28649 0.20765 0.0
C1408 C 0.02598 0.21725 0.19796 0.0
C1409 C 0.9371 0.1838 0.20161 0.0
C1410 C 0.9687 0.20433 0.20221 0.0
C1411 C 0.05449 0.27199 0.20131 0.0
C1412 C 0.02563 0.24801 0.2019 0.0
H1413 H 0.86693 0.16239 0.21161 0.0
H1414 H 0.92297 0.18838 0.21312 0.0
H1415 H -0.00127 0.17212 0.19498 0.0
H1416 H 0.10599 0.30748 0.18835 0.0
H1417 H 0.05679 0.26982 0.18939 0.0
C1418 C 0.57747 0.13416 0.96297 0.0
C1419 C 0.59101 0.12647 0.95599 0.0
C1420 C 0.56384 0.16641 0.96439 0.0
C1421 C 0.55452 0.25377 0.95646 0.0
H1422 H 0.46341 0.24836 0.96471 0.0
C1423 C 0.44603 0.34072 0.94762 0.0
C1424 C 0.42967 0.35966 0.95315 0.0
C1425 C 0.4684 0.31454 0.94946 0.0
C1426 C 0.48903 0.25033 0.96252 0.0
H1427 H 0.60339 0.14742 0.94525 0.0
H1428 H 0.57912 0.20296 0.94765 0.0
H1429 H 0.50137 0.19918 0.96555 0.0
H1430 H 0.42262 0.36488 0.96496 0.0
H1431 H 0.46114 0.31785 0.96817 0.0
H1432 H 0.54097 0.30409 0.95295 0.0
C1433 C 0.57923 0.18445 0.95208 0.0
C1434 C 0.51089 0.22231 0.96303 0.0
C1435 C 0.59293 0.15237 0.95067 0.0
C1436 C 0.43493 0.35076 0.96058 0.0
C1437 C 0.45693 0.32402 0.96242 0.0
C1438 C 0.5325 0.2815 0.95586 0.0
C1439 C 0.56349 0.19151 0.95887 0.0
C1440 C 0.54343 0.2233 0.95975 0.0
C1441 C 0.47442 0.30638 0.95687 0.0
C1442 C 0.49926 0.27952 0.95867 0.0
H1443 H 0.57589 0.11485 0.96722 0.0
H1444 H 0.55242 0.17126 0.96972 0.0
H1445 H 0.57967 0.25564 0.95403 0.0
H1446 H 0.44264 0.34694 0.94185 0.0
H1447 H 0.48131 0.30082 0.9451 0.0
C1448 C 0.59864 0.18271 0.80147 0.0
C1449 C 0.60862 0.17131 0.80849 0.0
C1450 C 0.56785 0.2001 0.80053 0.0
C1451 C 0.48618 0.22027 0.80997 0.0
H1452 H 0.48853 0.30186 0.7979 0.0
C1453 C 0.38818 0.32644 0.81326 0.0
C1454 C 0.37033 0.33542 0.80683 0.0
C1455 C 0.41765 0.30675 0.81283 0.0
C1456 C 0.48754 0.27898 0.80123 0.0
H1457 H 0.5935 0.16812 0.81998 0.0
H1458 H 0.54054 0.19893 0.81838 0.0
H1459 H 0.53797 0.2639 0.79817 0.0
H1460 H 0.37077 0.33283 0.79488 0.0
H1461 H 0.42297 0.29883 0.79416 0.0
H1462 H 0.43629 0.23617 0.81326 0.0
C1463 C 0.55604 0.19402 0.81356 0.0
C1464 C 0.51566 0.25712 0.80136 0.0
C1465 C 0.5866 0.17648 0.81449 0.0
C1466 C 0.38385 0.32617 0.79994 0.0
C1467 C 0.41368 0.30677 0.79951 0.0
C1468 C 0.45835 0.24231 0.80992 0.0
C1469 C 0.54655 0.20653 0.8066 0.0
C1470 C 0.51549 0.22781 0.80583 0.0
C1471 C 0.43012 0.29605 0.80597 0.0
C1472 C 0.45904 0.2721 0.80565 0.0
H1473 H 0.61497 0.17897 0.79673 0.0
H1474 H 0.56099 0.20893 0.79508 0.0
H1475 H 0.48489 0.19753 0.81335 0.0
H1476 H 0.37857 0.33323 0.81866 0.0
H1477 H 0.43029 0.29916 0.81788 0.0
C1478 C 0.58256 0.83226 0.55643 0.0
C1479 C 0.57793 0.86282 0.55253 0.0
C1480 C 0.56551 0.80272 0.55425 0.0
C1481 C 0.48563 0.77825 0.54617 0.0
H1482 H 0.52401 0.68717 0.54659 0.0
C1483 C 0.44194 0.62763 0.5455 0.0
C1484 C 0.42012 0.62769 0.55164 0.0
C1485 C 0.45946 0.65719 0.54349 0.0
C1486 C 0.51301 0.71247 0.54632 0.0
H1487 H 0.55315 0.88601 0.54307 0.0
H1488 H 0.52291 0.83442 0.53936 0.0
H1489 H 0.56194 0.73663 0.54692 0.0
H1490 H 0.39745 0.65921 0.56014 0.0
H1491 H 0.42765 0.71095 0.55657 0.0
H1492 H 0.43664 0.75408 0.54601 0.0
C1493 C 0.53983 0.83343 0.54408 0.0
C1494 C 0.53466 0.74066 0.54656 0.0
C1495 C 0.55723 0.86286 0.5462 0.0
C1496 C 0.41426 0.65838 0.55541 0.0
C1497 C 0.43136 0.68802 0.55334 0.0
C1498 C 0.46396 0.75005 0.54603 0.0
C1499 C 0.54326 0.80334 0.54818 0.0
C1500 C 0.52109 0.77375 0.54668 0.0
C1501 C 0.45493 0.68738 0.54752 0.0
C1502 C 0.47747 0.71696 0.5463 0.0
H1503 H 0.59847 0.8314 0.5613 0.0
H1504 H 0.56834 0.77985 0.55754 0.0
H1505 H 0.47455 0.80353 0.54632 0.0
H1506 H 0.44698 0.60433 0.54248 0.0
H1507 H 0.47743 0.65619 0.53897 0.0
C1508 C 0.12105 0.68538 0.296 0.0
C1509 C 0.12105 0.66452 0.3023 0.0
C1510 C 0.09116 0.70154 0.29371 0.0
C1511 C -0.00214 0.70449 0.29598 0.0
H1512 H 0.00993 0.80269 0.29601 0.0
C1513 C 0.91444 0.82364 0.30545 0.0
C1514 C 0.88389 0.81832 0.30158 0.0
C1515 C 0.94406 0.80647 0.30338 0.0
C1516 C 0.00626 0.77533 0.29588 0.0
H1517 H 0.08925 0.64194 0.31077 0.0
H1518 H 0.03702 0.66995 0.30673 0.0
H1519 H 0.05988 0.76551 0.29606 0.0
H1520 H 0.86073 0.79207 0.29231 0.0
H1521 H 0.91252 0.76153 0.28881 0.0
H1522 H 0.9442 0.7144 0.29614 0.0
C1523 C 0.06015 0.6739 0.30359 0.0
C1524 C 0.03476 0.75406 0.29586 0.0
C1525 C 0.0901 0.65806 0.30593 0.0
C1526 C 0.88391 0.79671 0.2954 0.0
C1527 C 0.91343 0.77914 0.2934 0.0
C1528 C 0.96935 0.72577 0.2959 0.0
C1529 C 0.06071 0.6967 0.29762 0.0
C1530 C 0.03078 0.7185 0.29616 0.0
C1531 C 0.94354 0.78338 0.29747 0.0
C1532 C 0.97336 0.76134 0.29611 0.0
H1533 H 0.14447 0.6908 0.29306 0.0
H1534 H 0.09212 0.71886 0.28907 0.0
H1535 H 0.9942 0.67714 0.29619 0.0
H1536 H 0.91522 0.84025 0.31021 0.0
H1537 H 0.96692 0.80992 0.30665 0.0
C1538 C 0.91374 0.15123 0.0612 0.0
C1539 C 0.90847 0.13019 0.05505 0.0
C1540 C 0.9299 0.18265 0.06042 0.0
C1541 C 0.99051 0.22623 0.04824 0.0
H1542 H 0.97084 0.30265 0.0611 0.0
C1543 C 0.06457 0.3554 0.04864 0.0
C1544 C 0.07455 0.36588 0.05574 0.0
C1545 C 0.04311 0.32724 0.04774 0.0
C1546 C 0.97654 0.28146 0.05748 0.0
H1547 H 0.91407 0.1266 0.04317 0.0
H1548 H 0.94169 0.18191 0.04181 0.0
H1549 H 0.93196 0.25418 0.06078 0.0
H1550 H 0.07109 0.35406 0.06741 0.0
H1551 H 0.03357 0.30531 0.06581 0.0
H1552 H 0.03526 0.25382 0.04498 0.0
C1553 C 0.93405 0.17367 0.04726 0.0
C1554 C 0.95438 0.25373 0.0573 0.0
C1555 C 0.91804 0.14208 0.04804 0.0
C1556 C 0.06381 0.34683 0.06187 0.0
C1557 C 0.04212 0.31906 0.06097 0.0
C1558 C 0.01251 0.25423 0.04837 0.0
C1559 C 0.94089 0.19391 0.05347 0.0
C1560 C 0.96162 0.22537 0.05284 0.0
C1561 C 0.03103 0.3095 0.05393 0.0
C1562 C 0.00614 0.28158 0.05314 0.0
H1563 H 0.9067 0.14287 0.06668 0.0
H1564 H 0.93515 0.19736 0.06534 0.0
H1565 H -0.00295 0.20465 0.04481 0.0
H1566 H 0.07248 0.36951 0.04381 0.0
H1567 H 0.03493 0.32014 0.04225 0.0
C1568 C 0.2338 0.17385 0.27571 0.0
C1569 C 0.25323 0.18373 0.28183 0.0
C1570 C 0.23184 0.19495 0.2695 0.0
C1571 C 0.2789 0.2561 0.25882 0.0
H1572 H 0.19168 0.28918 0.25179 0.0
C1573 C 0.27074 0.3435 0.23316 0.0
C1574 C 0.24238 0.33951 0.22852 0.0
C1575 C 0.27164 0.32763 0.24009 0.0
C1576 C 0.21628 0.27978 0.25357 0.0
H1577 H 0.28673 0.22255 0.28625 0.0
H1578 H 0.28421 0.25901 0.27527 0.0
H1579 H 0.1941 0.25376 0.2628 0.0
H1580 H 0.19268 0.31569 0.22752 0.0
H1581 H 0.19484 0.28691 0.23928 0.0
H1582 H 0.30118 0.28025 0.24944 0.0
C1583 C 0.26993 0.23537 0.27534 0.0
C1584 C 0.21757 0.25967 0.25993 0.0
C1585 C 0.27121 0.21468 0.28161 0.0
C1586 C 0.21479 0.31971 0.23099 0.0
C1587 C 0.21598 0.30327 0.23781 0.0
C1588 C 0.27759 0.27553 0.25236 0.0
C1589 C 0.25012 0.22575 0.26925 0.0
C1590 C 0.24886 0.24759 0.26259 0.0
C1591 C 0.24449 0.30673 0.24246 0.0
C1592 C 0.24621 0.28755 0.2496 0.0
H1593 H 0.21997 0.14994 0.27575 0.0
H1594 H 0.21659 0.18693 0.26483 0.0
H1595 H 0.30334 0.24689 0.26077 0.0
H1596 H 0.29234 0.35872 0.23143 0.0
H1597 H 0.29377 0.33167 0.24354 0.0
C1598 C 0.94564 0.04498 0.47732 0.0
C1599 C 0.92694 0.01609 0.47515 0.0
C1600 C 0.96208 0.04595 0.48415 0.0
C1601 C 0.96733 0.00333 0.50247 0.0
H1602 H 0.05869 0.04112 0.5025 0.0
C1603 C 0.06014 0.98726 0.52713 0.0
C1604 C 0.07886 0.01623 0.52922 0.0
C1605 C 0.04095 0.98726 0.52062 0.0
C1606 C 0.03309 0.03079 0.50261 0.0
H1607 H 0.90974 0.96608 0.47865 0.0
H1608 H 0.93868 0.96763 0.49052 0.0
H1609 H 0.02514 0.04209 0.49122 0.0
H1610 H 0.09318 0.06743 0.52599 0.0
H1611 H 0.0599 0.06745 0.51464 0.0
H1612 H 0.9756 0.9917 0.51387 0.0
C1613 C 0.94042 0.98972 0.48697 0.0
C1614 C 0.01375 0.03143 0.49614 0.0
C1615 C 0.92385 0.98879 0.48013 0.0
C1616 C 0.07893 0.04475 0.52454 0.0
C1617 C 0.05989 0.04473 0.51803 0.0
C1618 C 0.98675 0.00259 0.50894 0.0
C1619 C 0.96038 0.01801 0.489 0.0
C1620 C 0.98056 0.01779 0.49598 0.0
C1621 C 0.04045 0.01608 0.516 0.0
C1622 C 0.01986 0.01637 0.5091 0.0
H1623 H 0.9484 0.06656 0.47364 0.0
H1624 H 0.97657 0.06849 0.48559 0.0
H1625 H 0.94175 0.99293 0.50258 0.0
H1626 H 0.06048 0.96449 0.5305 0.0
H1627 H 0.02685 0.96452 0.51915 0.0
C1628 C 0.2358 0.73348 0.72417 0.0
C1629 C 0.24352 0.6988 0.7232 0.0
C1630 C 0.22967 0.74667 0.73117 0.0
C1631 C 0.25114 0.73258 0.75049 0.0
H1632 H 0.18378 0.80339 0.75373 0.0
C1633 C 0.23222 0.79923 0.77876 0.0
C1634 C 0.22664 0.83463 0.77864 0.0
C1635 C 0.23278 0.78042 0.77222 0.0
C1636 C 0.20293 0.78388 0.75291 0.0
H1637 H 0.24977 0.65043 0.7288 0.0
H1638 H 0.23911 0.6737 0.74115 0.0
H1639 H 0.18496 0.77307 0.74202 0.0
H1640 H 0.2168 0.87796 0.77157 0.0
H1641 H 0.21824 0.84531 0.76012 0.0
H1642 H 0.26956 0.74391 0.76133 0.0
C1643 C 0.23794 0.6906 0.73644 0.0
C1644 C 0.20348 0.76638 0.74621 0.0
C1645 C 0.24376 0.67724 0.72938 0.0
C1646 C 0.22145 0.85077 0.77183 0.0
C1647 C 0.22201 0.83199 0.76528 0.0
C1648 C 0.25061 0.75015 0.75721 0.0
C1649 C 0.23128 0.7256 0.73741 0.0
C1650 C 0.22799 0.74098 0.74486 0.0
C1651 C 0.2274 0.79652 0.7654 0.0
C1652 C 0.22689 0.77645 0.75844 0.0
H1653 H 0.23531 0.75076 0.71951 0.0
H1654 H 0.22501 0.77377 0.73171 0.0
H1655 H 0.27059 0.71344 0.7496 0.0
H1656 H 0.23483 0.7857 0.78392 0.0
H1657 H 0.23637 0.75309 0.77252 0.0
C1658 C 0.39411 0.96472 0.02577 0.0
C1659 C 0.41162 0.96557 0.03251 0.0
C1660 C 0.41186 0.96727 0.01911 0.0
C1661 C 0.49536 0.99269 0.01106 0.0
H1662 H 0.46338 0.93891 0.99452 0.0
C1663 C 0.56573 0.98823 0.98281 0.0
C1664 C 0.54429 0.99419 0.97674 0.0
C1665 C 0.55175 0.9819 0.9898 0.0
C1666 C 0.4726 0.95411 0.99909 0.0
H1667 H 0.46169 0.96825 0.03754 0.0
H1668 H 0.49267 0.97269 0.02596 0.0
H1669 H 0.43442 0.93459 0.00635 0.0
H1670 H 0.49155 -0.00309 0.97317 0.0
H1671 H 0.46744 0.9855 0.98524 0.0
H1672 H 0.53362 0.01212 1.00373 0.0
C1673 C 0.46512 0.97115 0.0258 0.0
C1674 C 0.45587 0.95183 0.00586 0.0
C1675 C 0.44731 0.96882 0.03246 0.0
C1676 C 0.50879 0.99254 0.97774 0.0
C1677 C 0.49492 0.98579 0.98465 0.0
C1678 C 0.51228 0.99478 0.00428 0.0
C1679 C 0.44766 0.97016 0.01903 0.0
C1680 C 0.46663 0.97152 0.01191 0.0
C1681 C 0.51616 0.98084 0.99079 0.0
C1682 C 0.5007 0.97594 0.99819 0.0
H1683 H 0.36663 0.96199 0.02565 0.0
H1684 H 0.39746 0.96698 0.01402 0.0
H1685 H 0.50422 0.00846 0.01556 0.0
H1686 H 0.59317 0.98946 0.98221 0.0
H1687 H 0.56873 0.97799 0.99443 0.0
C1688 C 0.29735 0.85924 0.23773 0.0
C1689 C 0.29123 0.84373 0.23089 0.0
C1690 C 0.29494 0.8404 0.24425 0.0
C1691 C 0.26102 0.75939 0.25202 0.0
H1692 H 0.32576 0.7786 0.26762 0.0
C1693 C 0.26484 0.68152 0.27922 0.0
C1694 C 0.26403 0.70197 0.28557 0.0
C1695 C 0.27155 0.69617 0.27231 0.0
C1696 C 0.3075 0.77294 0.26331 0.0
H1697 H 0.27923 0.79581 0.22552 0.0
H1698 H 0.27493 0.76305 0.23685 0.0
H1699 H 0.32917 0.81005 0.25607 0.0
H1700 H 0.27136 0.75324 0.28974 0.0
H1701 H 0.28352 0.77847 0.27781 0.0
H1702 H 0.23938 0.72226 0.25931 0.0
C1703 C 0.28052 0.79003 0.23722 0.0
C1704 C 0.30927 0.79114 0.2567 0.0
C1705 C 0.28274 0.80893 0.23071 0.0
C1706 C 0.27171 0.73683 0.28494 0.0
C1707 C 0.27886 0.75129 0.2781 0.0
C1708 C 0.2594 0.74101 0.25862 0.0
C1709 C 0.28687 0.80543 0.24408 0.0
C1710 C 0.28572 0.78501 0.25101 0.0
C1711 C 0.27815 0.73134 0.27168 0.0
C1712 C 0.28229 0.74797 0.26438 0.0
H1713 H 0.3042 0.88596 0.23803 0.0
H1714 H 0.29946 0.8533 0.24943 0.0
H1715 H 0.24224 0.75416 0.24779 0.0
H1716 H 0.25883 0.65461 0.27954 0.0
H1717 H 0.27107 0.68013 0.26746 0.0
C1718 C 0.40517 0.02364 0.48432 0.0
C1719 C 0.42183 0.01897 0.47756 0.0
C1720 C 0.4234 0.02251 0.49094 0.0
C1721 C 0.50478 0.9937 0.49928 0.0
H1722 H 0.47993 0.05818 0.51455 0.0
C1723 C 0.57569 0.00052 0.52741 0.0
C1724 C 0.55377 0.00041 0.53353 0.0
C1725 C 0.56264 0.00611 0.5203 0.0
C1726 C 0.48715 0.03996 0.51034 0.0
H1727 H 0.4711 0.0108 0.47243 0.0
H1728 H 0.50285 0.00837 0.48396 0.0
H1729 H 0.45068 0.05986 0.50271 0.0
H1730 H 0.50143 0.00763 0.53706 0.0
H1731 H 0.47896 0.01759 0.52479 0.0
H1732 H 0.54104 0.97361 0.50699 0.0
C1733 C 0.4755 0.01205 0.48417 0.0
C1734 C 0.47026 0.0408 0.50357 0.0
C1735 C 0.45721 0.01315 0.47755 0.0
C1736 C 0.519 0.00744 0.53245 0.0
C1737 C 0.50611 0.01337 0.52541 0.0
C1738 C 0.52176 0.99292 0.50607 0.0
C1739 C 0.45888 0.01707 0.49095 0.0
C1740 C 0.47838 0.01727 0.498 0.0
C1741 C 0.52759 0.01221 0.51923 0.0
C1742 C 0.51267 0.01563 0.51173 0.0
H1743 H 0.37797 0.0284 0.4845 0.0
H1744 H 0.40965 0.02594 0.49606 0.0
H1745 H 0.51157 0.97508 0.49513 0.0
H1746 H 0.60258 0.99503 0.52807 0.0
H1747 H 0.57986 0.0053 0.51564 0.0
C1748 C 0.19484 0.31065 0.77882 0.0
C1749 C 0.22433 0.32882 0.78081 0.0
C1750 C 0.19269 0.29435 0.77198 0.0
C1751 C 0.2316 0.28946 0.75335 0.0
H1752 H 0.19415 0.19799 0.75358 0.0
C1753 C 0.24057 0.19851 0.7282 0.0
C1754 C 0.21146 0.17905 0.72656 0.0
C1755 C 0.24239 0.21745 0.73474 0.0
C1756 C 0.20433 0.22363 0.75339 0.0
H1757 H 0.27416 0.34526 0.77703 0.0
H1758 H 0.27045 0.31668 0.76512 0.0
H1759 H 0.19585 0.23105 0.76491 0.0
H1760 H 0.16184 0.16343 0.73058 0.0
H1761 H 0.16486 0.19645 0.74193 0.0
H1762 H 0.24015 0.28188 0.74181 0.0
C1763 C 0.24888 0.31518 0.76883 0.0
C1764 C 0.20526 0.24265 0.7599 0.0
C1765 C 0.25104 0.33151 0.77567 0.0
C1766 C 0.18462 0.17821 0.73168 0.0
C1767 C 0.1864 0.19709 0.7382 0.0
C1768 C 0.23065 0.2704 0.74683 0.0
C1769 C 0.21997 0.29577 0.76696 0.0
C1770 C 0.21878 0.27586 0.75997 0.0
C1771 C 0.21524 0.21707 0.73981 0.0
C1772 C 0.2169 0.23727 0.74676 0.0
H1773 H 0.17369 0.30819 0.78261 0.0
H1774 H 0.16975 0.28023 0.77067 0.0
H1775 H 0.2419 0.31506 0.75319 0.0
H1776 H 0.26211 0.19886 0.72447 0.0
H1777 H 0.26527 0.23199 0.73586 0.0
C1778 C 0.9007 0.96105 0.02325 0.0
C1779 C 0.9087 0.9866 0.02839 0.0
C1780 C 0.91727 0.95994 0.01641 0.0
C1781 C 0.97435 0.01218 0.00411 0.0
H1782 H 0.99322 0.92462 0.9951 0.0
C1783 C 0.07673 0.98839 0.98151 0.0
C1784 C 0.06398 0.97382 0.97501 0.0
C1785 C 0.05611 0.99063 0.98779 0.0
C1786 C 0.98796 0.94923 0.99756 0.0
H1787 H 0.94079 0.03066 0.03041 0.0
H1788 H 0.9706 0.0278 0.01879 0.0
H1789 H 0.96014 0.92705 0.00647 0.0
H1790 H 0.02042 0.94904 0.97 0.0
H1791 H 0.98466 0.95202 0.98107 0.0
H1792 H 0.00387 0.03393 0.99534 0.0
C1793 C 0.95061 0.00937 0.01981 0.0
C1794 C 0.96873 0.95074 0.00405 0.0
C1795 C 0.93359 0.0109 0.02654 0.0
C1796 C 0.03058 0.96088 0.97493 0.0
C1797 C 0.01026 0.96237 0.98125 0.0
C1798 C 0.99423 0.01054 0.99773 0.0
C1799 C 0.94275 0.98395 0.0146 0.0
C1800 C 0.96179 0.98225 0.00746 0.0
C1801 C 0.0228 0.97739 0.98772 0.0
C1802 C 0.00128 0.97907 0.99441 0.0
H1803 H 0.88154 0.94203 0.02451 0.0
H1804 H 0.90996 0.94029 0.01253 0.0
H1805 H 0.96889 0.03705 0.0064 0.0
H1806 H 0.10252 -0.00175 0.98171 0.0
H1807 H 0.06635 0.00215 0.99274 0.0
C1808 C 0.77736 0.64922 0.77427 0.0
C1809 C 0.77824 0.66754 0.7809 0.0
C1810 C 0.77333 0.66615 0.76754 0.0
C1811 C 0.78587 0.74958 0.75856 0.0
H1812 H 0.72678 0.71114 0.7436 0.0
C1813 C 0.75807 0.81529 0.73024 0.0
C1814 C 0.75523 0.79344 0.72413 0.0
C1815 C 0.76149 0.80181 0.73737 0.0
C1816 C 0.74371 0.72206 0.74768 0.0
H1817 H 0.7772 0.71822 0.78566 0.0
H1818 H 0.76952 0.74778 0.77393 0.0
H1819 H 0.73045 0.68401 0.75562 0.0
H1820 H 0.75586 0.7405 0.72068 0.0
H1821 H 0.76253 0.7173 0.73297 0.0
H1822 H 0.79939 0.78746 0.75055 0.0
C1823 C 0.77162 0.72025 0.77394 0.0
C1824 C 0.74575 0.7065 0.75458 0.0
C1825 C 0.77543 0.70326 0.78067 0.0
C1826 C 0.75748 0.75808 0.72526 0.0
C1827 C 0.76105 0.74471 0.73234 0.0
C1828 C 0.78391 0.76515 0.75162 0.0
C1829 C 0.77057 0.7019 0.76729 0.0
C1830 C 0.76715 0.71977 0.76008 0.0
C1831 C 0.76222 0.76628 0.73851 0.0
C1832 C 0.76318 0.75125 0.74605 0.0
H1833 H 0.77997 0.62173 0.77427 0.0
H1834 H 0.77317 0.65126 0.76252 0.0
H1835 H 0.80281 0.76031 0.76266 0.0
H1836 H 0.75634 0.84265 0.72954 0.0
H1837 H 0.76231 0.81916 0.74201 0.0
C1838 C 0.73683 0.34078 0.27296 0.0
C1839 C 0.73478 0.32319 0.27967 0.0
C1840 C 0.74065 0.32299 0.26633 0.0
C1841 C 0.72443 0.23959 0.25773 0.0
H1842 H 0.7867 0.27284 0.2428 0.0
C1843 C 0.74795 0.16999 0.2297 0.0
C1844 C 0.75219 0.19116 0.22352 0.0
C1845 C 0.74589 0.18415 0.2368 0.0
C1846 C 0.76889 0.26337 0.24687 0.0
H1847 H 0.73357 0.27303 0.28469 0.0
H1848 H 0.74073 0.24196 0.27313 0.0
H1849 H 0.78388 0.3014 0.25468 0.0
H1850 H 0.75573 0.24378 0.21991 0.0
H1851 H 0.75137 0.26819 0.23213 0.0
H1852 H 0.70901 0.20189 0.24984 0.0
C1853 C 0.73977 0.26955 0.27299 0.0
C1854 C 0.76736 0.27974 0.25369 0.0
C1855 C 0.73624 0.28738 0.27963 0.0
C1856 C 0.75298 0.22665 0.22455 0.0
C1857 C 0.75073 0.24071 0.23159 0.0
C1858 C 0.72583 0.22326 0.25087 0.0
C1859 C 0.74194 0.28714 0.26627 0.0
C1860 C 0.74482 0.26835 0.25917 0.0
C1861 C 0.74791 0.21971 0.23782 0.0
C1862 C 0.74772 0.23531 0.24531 0.0
H1863 H 0.73525 0.36834 0.27283 0.0
H1864 H 0.74173 0.3373 0.26124 0.0
H1865 H 0.7066 0.23034 0.26182 0.0
H1866 H 0.74731 0.14254 0.22908 0.0
H1867 H 0.74375 0.16722 0.24149 0.0
C1868 C 0.7417 0.34067 0.73443 0.0
C1869 C 0.74318 0.32277 0.72775 0.0
C1870 C 0.73797 0.32325 0.7411 0.0
C1871 C 0.75306 0.23984 0.74984 0.0
H1872 H 0.69389 0.27617 0.76502 0.0
C1873 C 0.7309 0.17385 0.77837 0.0
C1874 C 0.72893 0.19589 0.78446 0.0
C1875 C 0.73238 0.18709 0.77118 0.0
C1876 C 0.71079 0.26582 0.76087 0.0
H1877 H 0.74336 0.27236 0.72285 0.0
H1878 H 0.73617 0.24194 0.73448 0.0
H1879 H 0.69578 0.30355 0.75301 0.0
H1880 H 0.72879 0.24903 0.7878 0.0
H1881 H 0.73194 0.2718 0.77542 0.0
H1882 H 0.7684 0.20235 0.75779 0.0
C1883 C 0.73759 0.26951 0.73456 0.0
C1884 C 0.71182 0.28152 0.75397 0.0
C1885 C 0.74112 0.28699 0.72787 0.0
C1886 C 0.7298 0.23126 0.78324 0.0
C1887 C 0.73137 0.24439 0.77611 0.0
C1888 C 0.75209 0.22412 0.75678 0.0
C1889 C 0.73607 0.28744 0.74125 0.0
C1890 C 0.73334 0.26909 0.74841 0.0
C1891 C 0.73193 0.22258 0.76998 0.0
C1892 C 0.73138 0.23732 0.76242 0.0
H1893 H 0.74372 0.36821 0.73451 0.0
H1894 H 0.73743 0.33784 0.74617 0.0
H1895 H 0.77011 0.22976 0.74569 0.0
H1896 H 0.73025 0.14648 0.77914 0.0
H1897 H 0.7328 0.16959 0.76657 0.0
C1898 C 0.74667 0.8204 0.276 0.0
C1899 C 0.74793 0.79787 0.28201 0.0
C1900 C 0.74092 0.80794 0.26884 0.0
C1901 C 0.70833 0.73227 0.25871 0.0
H1902 H 0.76957 0.7609 0.24313 0.0
C1903 C 0.72406 0.65321 0.23229 0.0
C1904 C 0.72636 0.67053 0.22554 0.0
C1905 C 0.72567 0.67102 0.23895 0.0
C1906 C 0.75197 0.75292 0.24739 0.0
H1907 H 0.74277 0.74492 0.28528 0.0
H1908 H 0.73266 0.72349 0.27295 0.0
H1909 H 0.77183 0.78921 0.25513 0.0
H1910 H 0.73085 0.7205 0.22051 0.0
H1911 H 0.73426 0.75153 0.23214 0.0
H1912 H 0.68876 0.69572 0.25106 0.0
C1913 C 0.73602 0.75069 0.27369 0.0
C1914 C 0.7532 0.76923 0.25426 0.0
C1915 C 0.74205 0.763 0.28077 0.0
C1916 C 0.73037 0.70616 0.2256 0.0
C1917 C 0.73202 0.72403 0.23228 0.0
C1918 C 0.70711 0.71601 0.25187 0.0
C1919 C 0.73585 0.77284 0.26761 0.0
C1920 C 0.73185 0.75861 0.26005 0.0
C1921 C 0.72927 0.70671 0.23904 0.0
C1922 C 0.72936 0.72564 0.24616 0.0
H1923 H 0.75125 0.84738 0.27678 0.0
H1924 H 0.74071 0.82569 0.26428 0.0
H1925 H 0.69108 0.72387 0.263 0.0
H1926 H 0.72074 0.6258 0.23241 0.0
H1927 H 0.724 0.65677 0.24404 0.0
C1928 C 0.43053 0.54179 0.97701 0.0
C1929 C 0.41403 0.51117 0.97514 0.0
C1930 C 0.44705 0.54531 0.9838 0.0
C1931 C 0.45708 0.50633 1.00241 0.0
H1932 H 0.546 0.54939 1.00158 0.0
C1933 C 0.55476 0.49756 0.02633 0.0
C1934 C 0.57264 0.52746 0.02814 0.0
C1935 C 0.53425 0.4962 0.02002 0.0
C1936 C 0.52107 0.53764 1.00194 0.0
H1937 H 0.40053 0.46083 0.97914 0.0
H1938 H 0.42959 0.46684 0.99093 0.0
H1939 H 0.51085 0.54691 0.99055 0.0
H1940 H 0.58397 0.57898 0.0246 0.0
H1941 H 0.54831 0.57665 0.01359 0.0
H1942 H 0.46768 0.49668 0.01381 0.0
C1943 C 0.42957 0.48829 0.98718 0.0
C1944 C 0.5008 0.5363 0.99561 0.0
C1945 C 0.41292 0.48481 0.98039 0.0
C1946 C 0.57041 0.5556 0.02337 0.0
C1947 C 0.55002 0.55423 0.01706 0.0
C1948 C 0.47743 0.5076 0.00875 0.0
C1949 C 0.44763 0.51827 0.98889 0.0
C1950 C 0.46852 0.52062 0.99575 0.0
C1951 C 0.5315 0.52459 0.01532 0.0
C1952 C 0.5097 0.52325 0.00859 0.0
H1953 H 0.4317 0.56271 0.97313 0.0
H1954 H 0.45999 0.56906 0.98499 0.0
H1955 H 0.43223 0.49441 1.00276 0.0
H1956 H 0.55685 0.47507 0.02975 0.0
H1957 H 0.52094 0.47272 0.01876 0.0
C1958 C 0.08006 0.50697 0.48197 0.0
C1959 C 0.0778 0.47998 0.47689 0.0
C1960 C 0.06451 0.50452 0.48889 0.0
C1961 C 0.99415 0.45884 0.49812 0.0
H1962 H 0.03259 0.49678 0.51601 0.0
C1963 C 0.93072 0.4386 0.52642 0.0
C1964 C 0.93041 0.466 0.5314 0.0
C1965 C 0.94975 0.44035 0.51992 0.0
C1966 C 0.02134 0.4864 0.51104 0.0
H1967 H 0.05901 0.42851 0.47529 0.0
H1968 H 0.03246 0.42405 0.48737 0.0
H1969 H 0.06536 0.49874 0.50457 0.0
H1970 H 0.94848 0.51745 0.53328 0.0
H1971 H 0.98186 0.52057 0.52192 0.0
H1972 H 0.95009 0.44669 0.50454 0.0
C1973 C 0.04558 0.44743 0.48595 0.0
C1974 C 0.04016 0.48746 0.50449 0.0
C1975 C 0.06107 0.44989 0.47903 0.0
C1976 C 0.94901 0.49554 0.52966 0.0
C1977 C 0.96809 0.49733 0.52314 0.0
C1978 C 0.97537 0.4578 0.50466 0.0
C1979 C 0.04635 0.47502 0.4909 0.0
C1980 C 0.02683 0.47358 0.49794 0.0
C1981 C 0.96872 0.46971 0.51819 0.0
C1982 C 0.98873 0.47144 0.51122 0.0
H1983 H 0.09271 0.53055 0.4805 0.0
H1984 H 0.0655 0.52632 0.49254 0.0
H1985 H 0.98271 0.44861 0.49316 0.0
H1986 H 0.91666 0.41548 0.5276 0.0
H1987 H 0.94994 0.41843 0.5163 0.0
C1988 C 0.94204 0.49336 0.98054 0.0
C1989 C 0.92472 0.5233 0.97853 0.0
C1990 C 0.96261 0.49261 0.98684 0.0
C1991 C 0.97711 0.53663 0.00458 0.0
H1992 H 0.06547 0.4924 0.00386 0.0
C1993 C 0.0693 0.54381 0.02919 0.0
C1994 C 0.08549 0.51328 0.03124 0.0
C1995 C 0.05234 0.54643 0.02244 0.0
C1996 C 0.04076 0.50462 0.00417 0.0
H1997 H 0.9143 0.57551 0.9817 0.0
H1998 H 0.95004 0.57425 0.9927 0.0
H1999 H 0.02945 0.4933 0.99288 0.0
H2000 H 0.09795 0.46209 0.02761 0.0
H2001 H 0.06813 0.46654 0.01588 0.0
H2002 H 0.98806 0.5476 0.01587 0.0
C2003 C 0.94788 0.55134 0.9894 0.0
C2004 C 0.02009 0.50509 0.99788 0.0
C2005 C 0.92744 0.55209 0.98309 0.0
C2006 C 0.0858 0.48602 0.02621 0.0
C2007 C 0.06872 0.48861 0.01946 0.0
C2008 C -0.0023 0.53609 0.01087 0.0
C2009 C 0.96593 0.52167 0.99133 0.0
C2010 C 0.98799 0.52108 0.99801 0.0
C2011 C 0.05104 0.51855 0.01757 0.0
C2012 C 0.0298 0.52007 0.01076 0.0
H2013 H 0.93956 0.47043 0.97726 0.0
H2014 H 0.97556 0.46913 0.98826 0.0
H2015 H 0.95233 0.5487 0.00491 0.0
H2016 H 0.06873 0.5654 0.03291 0.0
H2017 H 0.03966 0.57015 0.02109 0.0
C2018 C 0.53423 0.46914 0.47669 0.0
C2019 C 0.56958 0.46312 0.47676 0.0
C2020 C 0.51581 0.47072 0.48328 0.0
C2021 C 0.52048 0.44294 0.50274 0.0
H2022 H 0.45122 0.51179 0.50605 0.0
C2023 C 0.47486 0.48047 0.53155 0.0
C2024 C 0.44035 0.4883 0.53274 0.0
C2025 C 0.48689 0.47334 0.5245 0.0
C2026 C 0.47003 0.49201 0.50516 0.0
H2027 H 0.61325 0.45381 0.48377 0.0
H2028 H 0.58133 0.45704 0.49528 0.0
H2029 H 0.48026 0.50894 0.49415 0.0
H2030 H 0.39107 0.49385 0.52748 0.0
H2031 H 0.4123 0.48152 0.51502 0.0
H2032 H 0.51087 0.4265 0.51379 0.0
C2033 C 0.56771 0.46029 0.49014 0.0
C2034 C 0.48676 0.49044 0.49835 0.0
C2035 C 0.58608 0.4587 0.48355 0.0
C2036 C 0.41777 0.48775 0.52673 0.0
C2037 C 0.42997 0.48097 0.5196 0.0
C2038 C 0.50383 0.44454 0.50953 0.0
C2039 C 0.53228 0.46595 0.49009 0.0
C2040 C 0.51271 0.46633 0.49712 0.0
C2041 C 0.46479 0.47409 0.51841 0.0
C2042 C 0.47893 0.46954 0.51088 0.0
H2043 H 0.52048 0.47131 0.47154 0.0
H2044 H 0.4885 0.47459 0.48304 0.0
H2045 H 0.53969 0.42348 0.50192 0.0
H2046 H 0.49291 0.48059 0.53607 0.0
H2047 H 0.51388 0.46855 0.52378 0.0
C2048 C 0.22038 0.99639 0.324 0.0
C2049 C 0.24024 0.01363 0.31877 0.0
C2050 C 0.22139 0.96086 0.32443 0.0
C2051 C 0.24733 0.88417 0.314 0.0
H2052 H 0.25222 0.84214 0.33333 0.0
C2053 C 0.27351 0.74298 0.31629 0.0
C2054 C 0.24832 0.72508 0.3202 0.0
C2055 C 0.27709 0.77804 0.3172 0.0
C2056 C 0.25086 0.85361 0.32791 0.0
H2057 H 0.2764 0.00782 0.30986 0.0
H2058 H 0.27823 0.9459 0.31056 0.0
H2059 H 0.24614 0.90405 0.3323 0.0
H2060 H 0.20999 0.72906 0.32877 0.0
H2061 H 0.21619 0.79052 0.33033 0.0
H2062 H 0.25206 0.83397 0.3096 0.0
C2063 C 0.2614 0.95952 0.31426 0.0
C2064 C 0.24712 0.88895 0.32731 0.0
C2065 C 0.26027 0.99496 0.31382 0.0
C2066 C 0.22951 0.7422 0.32565 0.0
C2067 C 0.23303 0.77742 0.32654 0.0
C2068 C 0.25128 0.84903 0.3146 0.0
C2069 C 0.2424 0.94209 0.31964 0.0
C2070 C 0.24535 0.90457 0.32034 0.0
C2071 C 0.25553 0.79583 0.32202 0.0
C2072 C 0.2532 0.83338 0.32155 0.0
H2073 H 0.20485 0.01049 0.32788 0.0
H2074 H 0.20604 0.94812 0.32855 0.0
H2075 H 0.24539 0.89531 0.30856 0.0
H2076 H 0.28881 0.73037 0.31213 0.0
H2077 H 0.29525 0.79157 0.31378 0.0
C2078 C 0.26181 0.96939 0.56588 0.0
C2079 C 0.24038 0.99556 0.56833 0.0
C2080 C 0.29715 0.97253 0.56663 0.0
C2081 C 0.36544 0.03615 0.56925 0.0
H2082 H 0.41801 0.95711 0.57518 0.0
C2083 C 0.50846 0.02005 0.56389 0.0
C2084 C 0.52776 -0.0007 0.56863 0.0
C2085 C 0.47398 0.02581 0.56526 0.0
C2086 C 0.40368 0.97965 0.57366 0.0
H2087 H 0.23835 0.04565 0.57331 0.0
H2088 H 0.29996 0.05106 0.57473 0.0
H2089 H 0.35621 0.95308 0.57444 0.0
H2090 H 0.52706 0.97185 0.57902 0.0
H2091 H 0.46685 0.98238 0.58146 0.0
H2092 H 0.413 0.06267 0.56846 0.0
C2093 C 0.28978 0.02826 0.57218 0.0
C2094 C 0.36831 0.97712 0.57311 0.0
C2095 C 0.25458 0.0251 0.57142 0.0
C2096 C 0.5128 0.98757 0.5752 0.0
C2097 C 0.47824 0.99337 0.57657 0.0
C2098 C 0.40086 0.03869 0.56981 0.0
C2099 C 0.31146 0.00193 0.56984 0.0
C2100 C 0.34886 0.00515 0.57077 0.0
C2101 C 0.45814 0.01108 0.57143 0.0
C2102 C 0.42041 0.01028 0.5719 0.0
H2103 H 0.25122 0.94636 0.56351 0.0
H2104 H 0.31327 0.95202 0.56468 0.0
H2105 H 0.35116 0.05819 0.56741 0.0
H2106 H 0.51928 0.02982 0.55882 0.0
H2107 H 0.45925 0.03956 0.56118 0.0
C2108 C 0.2291 0.27068 0.82228 0.0
C2109 C 0.22373 0.28542 0.81532 0.0
C2110 C 0.22381 0.23582 0.82334 0.0
C2111 C 0.18898 0.15672 0.8151 0.0
H2112 H 0.2721 0.11602 0.82267 0.0
C2113 C 0.26482 0.0206 0.81389 0.0
C2114 C 0.23926 -0.00179 0.81625 0.0
C2115 C 0.25959 0.0558 0.81427 0.0
C2116 C 0.24875 0.12704 0.82055 0.0
H2117 H 0.20472 0.27597 0.80427 0.0
H2118 H 0.19534 0.2153 0.80615 0.0
H2119 H 0.26505 0.17773 0.82302 0.0
H2120 H 0.18818 0.99419 0.82067 0.0
H2121 H 0.17879 0.05584 0.82126 0.0
H2122 H 0.17313 0.10585 0.81248 0.0
C2123 C 0.20394 0.23056 0.81077 0.0
C2124 C 0.24448 0.1623 0.82084 0.0
C2125 C 0.20945 0.26535 0.80968 0.0
C2126 C 0.2082 0.01124 0.81884 0.0
C2127 C 0.20281 0.04637 0.81915 0.0
C2128 C 0.19311 0.12134 0.81488 0.0
C2129 C 0.21271 0.21518 0.81749 0.0
C2130 C 0.21479 0.17756 0.81802 0.0
C2131 C 0.22858 0.06899 0.81693 0.0
C2132 C 0.22331 0.10626 0.81748 0.0
H2133 H 0.23985 0.28544 0.82676 0.0
H2134 H 0.2302 0.22465 0.82863 0.0
H2135 H 0.16585 0.16784 0.8129 0.0
H2136 H 0.28891 0.01087 0.81187 0.0
H2137 H 0.27973 0.07273 0.81245 0.0
C2138 C 0.979 0.9887 0.07143 0.0
C2139 C 0.96401 0.98313 0.06449 0.0
C2140 C 0.01353 0.98154 0.07257 0.0
C2141 C 0.08714 0.95676 0.07406 0.0
H2142 H 0.14215 0.98986 0.05781 0.0
C2143 C 0.23476 0.94828 0.07342 0.0
C2144 C 0.25215 0.97676 0.07063 0.0
C2145 C 0.19924 0.9465 0.07301 0.0
C2146 C 0.12717 0.98069 0.06241 0.0
H2147 H 0.97254 0.96223 0.05358 0.0
H2148 H 0.03247 0.94918 0.05562 0.0
H2149 H 0.08048 0.988 0.05658 0.0
H2150 H 0.24658 0.02601 0.06543 0.0
H2151 H 0.18431 0.0231 0.06471 0.0
H2152 H 0.13408 0.95043 0.07995 0.0
C2153 C 0.01783 0.96005 0.0601 0.0
C2154 C 0.09182 0.9791 0.06167 0.0
C2155 C 0.98342 0.96733 0.05895 0.0
C2156 C 0.23358 0.0037 0.06755 0.0
C2157 C 0.19806 0.00192 0.06712 0.0
C2158 C 0.12263 0.95825 0.0748 0.0
C2159 C 0.03363 0.96852 0.06681 0.0
C2160 C 0.07134 0.96736 0.0675 0.0
C2161 C 0.18053 0.97314 0.06978 0.0
C2162 C 0.14296 0.97061 0.069 0.0
H2163 H 0.96476 0.00074 0.07583 0.0
H2164 H 0.02493 0.98838 0.0778 0.0
H2165 H 0.07206 0.94749 0.07864 0.0
H2166 H 0.24874 0.92708 0.07576 0.0
H2167 H 0.18651 0.92388 0.07504 0.0
C2168 C 0.27709 0.26852 0.19955 0.0
C2169 C 0.26633 0.28837 0.19353 0.0
C2170 C 0.28717 0.23476 0.19852 0.0
C2171 C 0.26811 0.16532 0.18564 0.0
H2172 H 0.3228 0.1136 0.19947 0.0
C2173 C 0.30211 0.01623 0.19377 0.0
C2174 C 0.26947 0.00228 0.19288 0.0
C2175 C 0.30727 0.05125 0.19299 0.0
C2176 C 0.3078 0.12753 0.19547 0.0
H2177 H 0.26213 0.28971 0.18161 0.0
H2178 H 0.28083 0.23107 0.17981 0.0
H2179 H 0.32758 0.17534 0.19918 0.0
H2180 H 0.21664 0.01315 0.19048 0.0
H2181 H 0.22508 0.07472 0.18941 0.0
H2182 H 0.24869 0.11756 0.18186 0.0
C2183 C 0.28014 0.2412 0.18536 0.0
C2184 C 0.31029 0.16306 0.19536 0.0
C2185 C 0.26973 0.27497 0.18639 0.0
C2186 C 0.24198 0.02363 0.19121 0.0
C2187 C 0.247 0.05875 0.19052 0.0
C2188 C 0.26594 0.12981 0.18569 0.0
C2189 C 0.28716 0.22016 0.19145 0.0
C2190 C 0.28966 0.18248 0.19061 0.0
C2191 C 0.27976 0.07302 0.19137 0.0
C2192 C 0.28494 0.1105 0.19076 0.0
H2193 H 0.27518 0.27808 0.20513 0.0
H2194 H 0.2923 0.2195 0.20337 0.0
H2195 H 0.25153 0.17929 0.18195 0.0
H2196 H 0.32371 -9e-05 0.19496 0.0
H2197 H 0.33289 0.06117 0.19357 0.0
C2198 C 0.98546 0.00957 0.43365 0.0
C2199 C 0.97033 0.01574 0.44055 0.0
C2200 C 0.02024 0.01551 0.43262 0.0
C2201 C 0.09819 0.0532 0.44081 0.0
H2202 H 0.14091 0.96997 0.43387 0.0
C2203 C 0.23568 0.97992 0.44271 0.0
C2204 C 0.25765 0.00566 0.44027 0.0
C2205 C 0.2004 0.98452 0.44229 0.0
C2206 C 0.12932 0.99334 0.43583 0.0
H2207 H 0.97885 0.03681 0.45145 0.0
H2208 H 0.03937 0.0472 0.44962 0.0
H2209 H 0.07911 0.97578 0.4333 0.0
H2210 H 0.26089 0.05647 0.43568 0.0
H2211 H 0.19911 0.06474 0.43499 0.0
H2212 H 0.14857 0.07031 0.44351 0.0
C2213 C 0.02451 0.03752 0.44504 0.0
C2214 C 0.09401 -0.0031 0.4354 0.0
C2215 C 0.98981 0.0314 0.4461 0.0
C2216 C 0.24415 0.03633 0.43758 0.0
C2217 C 0.20895 0.04107 0.43722 0.0
C2218 C 0.13363 0.04975 0.44118 0.0
C2219 C 0.04036 0.02802 0.43842 0.0
C2220 C 0.07803 0.02664 0.43799 0.0
C2221 C 0.18674 0.01506 0.43948 0.0
C2222 C 0.14942 0.01952 0.43881 0.0
H2223 H 0.97113 -0.0022 0.42923 0.0
H2224 H 0.03177 0.00855 0.42741 0.0
H2225 H 0.08651 0.07638 0.44284 0.0
H2226 H 0.2458 0.95613 0.44481 0.0
H2227 H 0.18378 0.96422 0.44415 0.0
C2228 C 0.24069 -0.00278 0.68314 0.0
C2229 C 0.22162 0.01439 0.68852 0.0
C2230 C 0.24047 0.96165 0.68282 0.0
C2231 C 0.22198 0.8856 0.69406 0.0
H2232 H 0.21857 0.83953 0.67516 0.0
C2233 C 0.21626 0.74105 0.69305 0.0
C2234 C 0.24144 0.72597 0.68861 0.0
C2235 C 0.20778 0.7753 0.69215 0.0
C2236 C 0.21956 0.85207 0.68047 0.0
H2237 H 0.18721 0.00823 0.69774 0.0
H2238 H 0.18685 0.94611 0.69724 0.0
H2239 H 0.21763 0.90183 0.67562 0.0
H2240 H 0.27487 0.73403 0.67925 0.0
H2241 H 0.26028 0.79402 0.67774 0.0
H2242 H 0.22443 0.83613 0.69891 0.0
C2243 C 0.20239 0.95997 0.69332 0.0
C2244 C 0.21919 0.8877 0.68074 0.0
C2245 C 0.20269 0.99551 0.69364 0.0
C2246 C 0.25546 0.74493 0.68278 0.0
C2247 C 0.24708 0.77935 0.68191 0.0
C2248 C 0.22227 0.8501 0.69379 0.0
C2249 C 0.22111 0.94263 0.68788 0.0
C2250 C 0.22064 0.90484 0.68754 0.0
C2251 C 0.22438 0.79524 0.68682 0.0
C2252 C 0.22124 0.83291 0.68699 0.0
H2253 H 0.25557 0.01137 0.67915 0.0
H2254 H 0.25562 0.94905 0.67864 0.0
H2255 H 0.22372 0.89796 0.69938 0.0
H2256 H 0.20459 0.72698 0.69752 0.0
H2257 H 0.1895 0.78664 0.69589 0.0
C2258 C 0.49683 0.97708 0.94699 0.0
C2259 C 0.51809 0.99414 0.94197 0.0
C2260 C 0.46239 0.97216 0.94542 0.0
C2261 C 0.39409 0.01272 0.93501 0.0
H2262 H 0.34192 0.93413 0.94138 0.0
C2263 C 0.24685 0.95981 0.93473 0.0
C2264 C 0.22973 0.98912 0.93715 0.0
C2265 C 0.28236 0.95878 0.93464 0.0
C2266 C 0.35613 0.95614 0.9395 0.0
H2267 H 0.52039 0.01717 0.9311 0.0
H2268 H 0.4601 0.0083 0.92834 0.0
H2269 H 0.40401 0.93234 0.94185 0.0
H2270 H 0.23566 0.04023 0.94141 0.0
H2271 H 0.29819 0.03842 0.94139 0.0
H2272 H 0.34619 0.03656 0.93268 0.0
C2273 C 0.4701 -0.00072 0.93355 0.0
C2274 C 0.39167 0.95518 0.93982 0.0
C2275 C 0.50466 0.00411 0.93511 0.0
C2276 C 0.24852 0.0174 0.93953 0.0
C2277 C 0.28416 0.01641 0.93944 0.0
C2278 C 0.35854 0.0137 0.9347 0.0
C2279 C 0.44843 0.98418 0.93878 0.0
C2280 C 0.41101 0.98362 0.93767 0.0
C2281 C 0.30142 0.98704 0.937 0.0
C2282 C 0.33918 0.98557 0.93703 0.0
H2283 H 0.50636 0.96891 0.95231 0.0
H2284 H 0.44635 0.96063 0.94958 0.0
H2285 H 0.40827 0.03521 0.9334 0.0
H2286 H 0.23268 0.93765 0.9329 0.0
H2287 H 0.29487 0.93594 0.93266 0.0
C2288 C 0.72883 0.24032 0.68322 0.0
C2289 C 0.71556 0.26264 0.68853 0.0
C2290 C 0.72752 0.20515 0.68434 0.0
C2291 C 0.72443 0.1458 0.70005 0.0
H2292 H 0.72764 0.07764 0.68462 0.0
C2293 C 0.73018 -0.00151 0.70411 0.0
C2294 C 0.75249 0.98119 0.69937 0.0
C2295 C 0.726 0.03374 0.70346 0.0
C2296 C 0.72703 0.09652 0.68897 0.0
H2297 H 0.68655 0.26585 0.69866 0.0
H2298 H 0.68304 0.20441 0.70049 0.0
H2299 H 0.71257 0.13619 0.68154 0.0
H2300 H 0.79022 0.9867 0.69077 0.0
H2301 H 0.78294 0.04845 0.68961 0.0
H2302 H 0.73836 0.10562 0.70749 0.0
C2303 C 0.69584 0.21399 0.69563 0.0
C2304 C 0.71834 0.13002 0.68722 0.0
C2305 C 0.69754 0.24917 0.69455 0.0
C2306 C 0.77289 -0.00025 0.69447 0.0
C2307 C 0.76845 0.03485 0.69375 0.0
C2308 C 0.73265 0.11214 0.70182 0.0
C2309 C 0.71246 0.19167 0.69075 0.0
C2310 C 0.7175 0.15524 0.69271 0.0
C2311 C 0.74391 0.05185 0.69802 0.0
C2312 C 0.73464 0.0874 0.69627 0.0
H2313 H 0.74302 0.24997 0.67854 0.0
H2314 H 0.74069 0.18884 0.68046 0.0
H2315 H 0.7247 0.1646 0.70442 0.0
H2316 H 0.71403 0.98447 0.70788 0.0
H2317 H 0.70699 0.04637 0.70682 0.0
C2318 C 0.73632 0.01303 0.44544 0.0
C2319 C 0.75687 0.99109 0.44962 0.0
C2320 C 0.7014 0.00694 0.44483 0.0
C2321 C 0.62626 0.97055 0.45258 0.0
H2322 H 0.60051 0.94806 0.43251 0.0
C2323 C 0.48616 0.94793 0.4456 0.0
C2324 C 0.47476 0.96516 0.43928 0.0
C2325 C 0.52096 0.94261 0.44676 0.0
C2326 C 0.60711 0.9545 0.43813 0.0
H2327 H 0.75708 0.9476 0.45697 0.0
H2328 H 0.69532 0.9379 0.45617 0.0
H2329 H 0.65997 0.96044 0.43542 0.0
H2330 H 0.49043 0.9875 0.4289 0.0
H2331 H 0.55086 0.97922 0.43097 0.0
H2332 H 0.57343 0.96688 0.45527 0.0
C2333 C 0.70648 0.95925 0.45325 0.0
C2334 C 0.64115 0.96147 0.43979 0.0
C2335 C 0.7416 0.96495 0.45375 0.0
C2336 C 0.49844 0.97398 0.43381 0.0
C2337 C 0.53326 0.9692 0.43502 0.0
C2338 C 0.59204 0.96428 0.4509 0.0
C2339 C 0.68648 0.97936 0.44854 0.0
C2340 C 0.65082 0.97007 0.44699 0.0
C2341 C 0.54506 0.95492 0.44167 0.0
C2342 C 0.58191 0.95676 0.44362 0.0
H2343 H 0.74764 0.03356 0.44228 0.0
H2344 H 0.68622 0.02298 0.44124 0.0
H2345 H 0.63333 0.97712 0.45817 0.0
H2346 H 0.46834 0.94038 0.44985 0.0
H2347 H 0.52901 0.93045 0.45182 0.0
C2348 C 0.79323 0.73305 0.19236 0.0
C2349 C 0.7738 0.72191 0.18632 0.0
C2350 C 0.79818 0.76784 0.19362 0.0
C2351 C 0.78002 0.85474 0.18584 0.0
H2352 H 0.76416 0.87712 0.20639 0.0
C2353 C 0.72158 0.98153 0.19483 0.0
C2354 C 0.74415 0.00175 0.19892 0.0
C2355 C 0.72795 0.94679 0.19391 0.0
C2356 C 0.7688 0.87115 0.20065 0.0
H2357 H 0.74752 0.73825 0.17643 0.0
H2358 H 0.75527 0.79854 0.17867 0.0
H2359 H 0.77551 0.81817 0.20288 0.0
H2360 H 0.78907 0.0014 0.20586 0.0
H2361 H 0.7993 0.93996 0.20455 0.0
H2362 H 0.77113 0.90766 0.18363 0.0
C2363 C 0.76716 0.78077 0.18244 0.0
C2364 C 0.77572 0.83746 0.19862 0.0
C2365 C 0.76273 0.74598 0.18112 0.0
C2366 C 0.77118 0.98617 0.20272 0.0
C2367 C 0.7772 0.95122 0.20192 0.0
C2368 C 0.77241 0.88822 0.18786 0.0
C2369 C 0.78336 0.79219 0.18892 0.0
C2370 C 0.78086 0.82867 0.19116 0.0
C2371 C 0.7565 0.93169 0.19724 0.0
C2372 C 0.7662 0.89653 0.19526 0.0
H2373 H 0.8025 0.71499 0.19641 0.0
H2374 H 0.81189 0.7756 0.19852 0.0
H2375 H 0.78457 0.84924 0.18008 0.0
H2376 H 0.70047 0.99308 0.1919 0.0
H2377 H 0.71142 0.932 0.19035 0.0
C2378 C 0.75025 0.00418 0.95546 0.0
C2379 C 0.73009 0.98118 0.95146 0.0
C2380 C 0.78546 0.0054 0.95431 0.0
C2381 C 0.84352 0.9929 0.93911 0.0
H2382 H 0.91584 0.00194 0.95352 0.0
C2383 C 0.98596 0.98682 0.93159 0.0
C2384 C 0.00958 0.00294 0.93624 0.0
C2385 C 0.95112 0.98845 0.93315 0.0
C2386 C 0.89586 0.00022 0.94941 0.0
H2387 H 0.73052 0.9394 0.9437 0.0
H2388 H 0.79219 0.9414 0.94167 0.0
H2389 H 0.8575 0.99189 0.95764 0.0
H2390 H 0.01532 0.03698 0.94553 0.0
H2391 H 0.95446 0.04105 0.9481 0.0
H2392 H 0.88139 0.00191 0.93088 0.0
C2393 C 0.78087 0.95869 0.94562 0.0
C2394 C 0.86255 0.99407 0.9518 0.0
C2395 C 0.74578 0.95725 0.94684 0.0
C2396 C -0.00239 0.02382 0.94195 0.0
C2397 C 0.96278 0.02583 0.94346 0.0
C2398 C 0.8767 -0.00051 0.93673 0.0
C2399 C 0.80073 0.98381 0.94909 0.0
C2400 C 0.83619 0.98991 0.94666 0.0
C2401 C 0.93928 0.00668 0.93932 0.0
C2402 C 0.90339 0.00287 0.94184 0.0
H2403 H 0.73849 0.02306 0.959 0.0
H2404 H 0.80025 0.02496 0.95705 0.0
H2405 H 0.82343 0.99058 0.93504 0.0
H2406 H 0.99449 0.97031 0.92718 0.0
H2407 H 0.93388 0.97329 0.92984 0.0
C2408 C 0.71497 0.9891 0.80517 0.0
C2409 C 0.73662 0.00875 0.80961 0.0
C2410 C 0.71544 0.95352 0.80569 0.0
C2411 C 0.76402 0.88076 0.81391 0.0
H2412 H 0.67537 0.83678 0.81404 0.0
C2413 C 0.74783 0.7472 0.82558 0.0
C2414 C 0.73761 0.72373 0.82017 0.0
C2415 C 0.74302 0.78208 0.82447 0.0
C2416 C 0.70021 0.84886 0.81401 0.0
H2417 H 0.77735 0.00731 0.81762 0.0
H2418 H 0.77777 0.94558 0.81872 0.0
H2419 H 0.67971 0.89725 0.81089 0.0
H2420 H 0.71046 0.71795 0.80984 0.0
H2421 H 0.7013 0.779 0.80801 0.0
H2422 H 0.78422 0.83258 0.81729 0.0
C2423 C 0.76064 0.95706 0.81476 0.0
C2424 C 0.70285 0.88335 0.81213 0.0
C2425 C 0.7604 0.99248 0.81417 0.0
C2426 C 0.71891 0.7355 0.81406 0.0
C2427 C 0.71364 0.77039 0.81301 0.0
C2428 C 0.76126 0.84658 0.81592 0.0
C2429 C 0.73744 0.93712 0.8107 0.0
C2430 C 0.73481 0.89981 0.81211 0.0
C2431 C 0.7273 0.79396 0.81802 0.0
C2432 C 0.72935 0.83042 0.81605 0.0
H2433 H 0.69642 0.00129 0.80162 0.0
H2434 H 0.69781 0.93898 0.80235 0.0
H2435 H 0.78912 0.89223 0.81379 0.0
H2436 H 0.76236 0.73898 0.83034 0.0
H2437 H 0.7534 0.79989 0.82845 0.0
C2438 C 0.01157 0.94479 0.56147 0.0
C2439 C 0.02335 0.96138 0.56784 0.0
C2440 C 0.97671 0.93949 0.5604 0.0
C2441 C 0.8914 0.94801 0.5694 0.0
H2442 H 0.8632 0.97679 0.54987 0.0
C2443 C 0.7582 0.00026 0.56404 0.0
C2444 C 0.73959 0.98258 0.55867 0.0
C2445 C 0.79337 0.99588 0.56457 0.0
C2446 C 0.87077 0.96846 0.55532 0.0
H2447 H 0.00826 0.98216 0.57842 0.0
H2448 H 0.94774 0.97351 0.57652 0.0
H2449 H 0.92347 0.96667 0.5524 0.0
H2450 H 0.74284 0.94895 0.54925 0.0
H2451 H 0.80497 0.94211 0.55001 0.0
H2452 H 0.83872 0.95148 0.57238 0.0
C2453 C 0.96516 0.96431 0.57235 0.0
C2454 C 0.90522 0.96231 0.55677 0.0
C2455 C 1e-05 0.9693 0.57345 0.0
C2456 C 0.75688 0.96297 0.5534 0.0
C2457 C 0.79224 0.95889 0.55387 0.0
C2458 C 0.8571 0.95464 0.56798 0.0
C2459 C 0.95299 0.95086 0.56566 0.0
C2460 C 0.91604 0.9526 0.56387 0.0
C2461 C 0.81047 0.97415 0.55966 0.0
C2462 C 0.84661 0.96553 0.56097 0.0
H2463 H 0.02909 0.93774 0.55713 0.0
H2464 H 0.96828 0.92805 0.55528 0.0
H2465 H 0.89868 0.93992 0.57489 0.0
H2466 H 0.74519 0.01556 0.56814 0.0
H2467 H 0.80705 0.00837 0.569 0.0
C2468 C 0.79013 0.25442 0.31249 0.0
C2469 C 0.77155 0.26553 0.31866 0.0
C2470 C 0.7966 0.21978 0.31143 0.0
C2471 C 0.78894 0.13396 0.32015 0.0
H2472 H 0.7651 0.10583 0.3003 0.0
C2473 C 0.74614 -0.00199 0.314 0.0
C2474 C 0.76384 0.98137 0.30834 0.0
C2475 C 0.74872 0.03324 0.3148 0.0
C2476 C 0.7721 0.11334 0.30584 0.0
H2477 H 0.74833 0.24951 0.32893 0.0
H2478 H 0.75918 0.18924 0.32706 0.0
H2479 H 0.77207 0.16625 0.30308 0.0
H2480 H 0.79594 0.98811 0.29876 0.0
H2481 H 0.79985 0.05028 0.30006 0.0
H2482 H 0.78767 0.081 0.32295 0.0
C2483 C 0.76895 0.2071 0.32303 0.0
C2484 C 0.7764 0.14792 0.30744 0.0
C2485 C 0.76273 0.24177 0.32412 0.0
C2486 C 0.78188 0.00062 0.30313 0.0
C2487 C 0.78428 0.03603 0.3039 0.0
C2488 C 0.78432 0.09946 0.31857 0.0
C2489 C 0.78448 0.19558 0.3165 0.0
C2490 C 0.78434 0.15869 0.31464 0.0
C2491 C 0.76883 0.0524 0.30993 0.0
C2492 C 0.77526 0.0889 0.31144 0.0
H2493 H 0.79795 0.27227 0.30828 0.0
H2494 H 0.80958 0.21184 0.30645 0.0
H2495 H 0.79562 0.14128 0.32572 0.0
H2496 H 0.73208 0.98348 0.31806 0.0
H2497 H 0.73598 0.04536 0.31941 0.0
C2498 C 0.73491 0.04388 0.05657 0.0
C2499 C 0.75002 0.01208 0.05524 0.0
C2500 C 0.69994 0.04636 0.05784 0.0
C2501 C 0.62273 0.0472 0.05848 0.0
H2502 H 0.58627 0.9749 0.07071 0.0
C2503 C 0.47944 0.02906 0.06429 0.0
C2504 C 0.46941 0.01213 0.07075 0.0
C2505 C 0.51385 0.03493 0.06282 0.0
C2506 C 0.59614 0.99565 0.06741 0.0
H2507 H 0.74087 0.95822 0.0538 0.0
H2508 H 0.67913 0.96246 0.05574 0.0
H2509 H 0.64481 0.97164 0.06645 0.0
H2510 H 0.48722 0.99194 0.08118 0.0
H2511 H 0.54735 0.00336 0.07875 0.0
H2512 H 0.57423 0.07166 0.05962 0.0
C2513 C 0.69435 0.98547 0.05596 0.0
C2514 C 0.62958 0.99339 0.06482 0.0
C2515 C 0.7295 0.98301 0.05473 0.0
C2516 C 0.49414 0.00485 0.07612 0.0
C2517 C 0.52866 0.0109 0.07467 0.0
C2518 C 0.58929 0.04958 0.06111 0.0
C2519 C 0.67937 0.01701 0.0578 0.0
C2520 C 0.64326 0.019 0.06028 0.0
C2521 C 0.53902 0.02433 0.06783 0.0
C2522 C 0.57551 0.02373 0.06558 0.0
H2523 H 0.75057 0.06651 0.05711 0.0
H2524 H 0.68948 0.07098 0.05931 0.0
H2525 H 0.63237 0.06736 0.05498 0.0
H2526 H 0.46087 0.03571 0.06012 0.0
H2527 H 0.52071 0.04546 0.05751 0.0
C2528 C 0.79453 0.48866 0.81372 0.0
C2529 C 0.77387 0.50666 0.81869 0.0
C2530 C 0.79603 0.45312 0.81399 0.0
C2531 C 0.78157 0.38026 0.82636 0.0
H2532 H 0.77427 0.32865 0.80823 0.0
C2533 C 0.74635 0.2376 0.8251 0.0
C2534 C 0.75739 0.21849 0.81901 0.0
C2535 C 0.75532 0.27195 0.82575 0.0
C2536 C 0.77717 0.34256 0.81334 0.0
H2537 H 0.73815 0.50198 0.82772 0.0
H2538 H 0.74072 0.43968 0.8282 0.0
H2539 H 0.77455 0.3905 0.80776 0.0
H2540 H 0.78968 0.21902 0.80932 0.0
H2541 H 0.80641 0.27847 0.81061 0.0
H2542 H 0.78388 0.33223 0.83194 0.0
C2543 C 0.75605 0.45304 0.82416 0.0
C2544 C 0.7771 0.37808 0.81306 0.0
C2545 C 0.75439 0.48857 0.82386 0.0
C2546 C 0.78039 0.23329 0.81402 0.0
C2547 C 0.78971 0.26745 0.81472 0.0
C2548 C 0.78188 0.34465 0.82663 0.0
C2549 C 0.77705 0.43498 0.81925 0.0
C2550 C 0.77884 0.39729 0.81957 0.0
C2551 C 0.77582 0.28765 0.82037 0.0
C2552 C 0.77926 0.32536 0.82013 0.0
H2553 H 0.81034 0.50206 0.80979 0.0
H2554 H 0.81266 0.43988 0.81018 0.0
H2555 H 0.78345 0.3945 0.83145 0.0
H2556 H 0.72856 0.22689 0.82903 0.0
H2557 H 0.7441 0.28671 0.83017 0.0
C2558 C 0.76833 0.49273 0.06882 0.0
C2559 C 0.7484 0.51224 0.06397 0.0
C2560 C 0.80367 0.49694 0.06903 0.0
C2561 C 0.87687 0.52467 0.05827 0.0
H2562 H 0.92055 0.53673 0.07727 0.0
C2563 C 0.02173 0.53441 0.0598 0.0
C2564 C 0.0369 0.51362 0.06518 0.0
C2565 C 0.98709 0.5425 0.06021 0.0
C2566 C 0.90884 0.5332 0.07192 0.0
H2567 H 0.74974 0.55077 0.05543 0.0
H2568 H 0.81177 0.55713 0.05559 0.0
H2569 H 0.85862 0.53134 0.07656 0.0
H2570 H 0.02842 0.48777 0.07559 0.0
H2571 H 0.96811 0.50093 0.0762 0.0
H2572 H 0.92678 0.52475 0.05361 0.0
C2573 C 0.79997 0.53885 0.05927 0.0
C2574 C 0.87337 0.53014 0.07152 0.0
C2575 C 0.76455 0.53499 0.05913 0.0
C2576 C 0.01754 0.50386 0.07134 0.0
C2577 C 0.98278 0.51149 0.07169 0.0
C2578 C 0.91233 0.52725 0.05866 0.0
C2579 C 0.81977 0.52033 0.06432 0.0
C2580 C 0.85714 0.52538 0.0647 0.0
C2581 C 0.96678 0.52952 0.06595 0.0
C2582 C 0.92887 0.53109 0.06551 0.0
H2583 H 0.75645 0.47476 0.07255 0.0
H2584 H 0.81845 0.48191 0.07289 0.0
H2585 H 0.86498 0.5208 0.05295 0.0
H2586 H 0.03611 0.54273 0.05503 0.0
H2587 H 0.9759 0.55744 0.05581 0.0
C2588 C 0.75502 0.75486 0.32388 0.0
C2589 C 0.74528 0.76958 0.31714 0.0
C2590 C 0.74746 0.72075 0.32537 0.0
C2591 C 0.69953 0.64488 0.31867 0.0
H2592 H 0.78121 0.59642 0.32463 0.0
C2593 C 0.76193 0.50212 0.31634 0.0
C2594 C 0.7342 0.48225 0.3186 0.0
C2595 C 0.76045 0.5376 0.31691 0.0
C2596 C 0.75823 0.60958 0.32293 0.0
H2597 H 0.71683 0.7611 0.30704 0.0
H2598 H 0.70407 0.70181 0.3096 0.0
H2599 H 0.7806 0.6584 0.32484 0.0
H2600 H 0.68307 0.48315 0.32308 0.0
H2601 H 0.68048 0.54518 0.32415 0.0
H2602 H 0.67775 0.59594 0.31644 0.0
C2603 C 0.71752 0.71645 0.31375 0.0
C2604 C 0.75765 0.6451 0.32317 0.0
C2605 C 0.72503 0.75049 0.31225 0.0
C2606 C 0.70479 0.49818 0.32133 0.0
C2607 C 0.70326 0.53359 0.3219 0.0
C2608 C 0.70011 0.6093 0.31843 0.0
C2609 C 0.72998 0.7008 0.32016 0.0
C2610 C 0.72852 0.66319 0.32092 0.0
C2611 C 0.73116 0.55369 0.31974 0.0
C2612 C 0.72971 0.59132 0.32042 0.0
H2613 H 0.77031 0.76896 0.32781 0.0
H2614 H 0.75675 0.70954 0.33044 0.0
H2615 H 0.67663 0.65809 0.31694 0.0
H2616 H 0.78486 0.49018 0.31424 0.0
H2617 H 0.78216 0.55245 0.31509 0.0
C2618 C 0.7452 0.45655 0.56358 0.0
C2619 C 0.76311 0.47593 0.56879 0.0
C2620 C 0.70964 0.45574 0.56367 0.0
C2621 C 0.63554 0.47122 0.57576 0.0
H2622 H 0.58638 0.4769 0.55727 0.0
C2623 C 0.49256 0.50503 0.57311 0.0
C2624 C 0.47432 0.4912 0.56715 0.0
C2625 C 0.52708 0.49736 0.57407 0.0
C2626 C 0.59967 0.4746 0.56248 0.0
H2627 H 0.75837 0.51007 0.5781 0.0
H2628 H 0.69597 0.50907 0.57823 0.0
H2629 H 0.6483 0.47699 0.55721 0.0
H2630 H 0.47691 0.45554 0.55803 0.0
H2631 H 0.53681 0.44167 0.5598 0.0
H2632 H 0.58666 0.46949 0.58102 0.0
C2633 C 0.70937 0.49405 0.57414 0.0
C2634 C 0.6352 0.47479 0.56244 0.0
C2635 C 0.74497 0.49484 0.57404 0.0
C2636 C 0.49037 0.46705 0.56261 0.0
C2637 C 0.52477 0.45926 0.56359 0.0
C2638 C 0.59989 0.47103 0.5758 0.0
C2639 C 0.69133 0.47433 0.56898 0.0
C2640 C 0.65355 0.47333 0.56907 0.0
C2641 C 0.54386 0.47556 0.56911 0.0
C2642 C 0.58158 0.4729 0.56915 0.0
H2643 H 0.75867 0.44115 0.55958 0.0
H2644 H 0.69651 0.43993 0.55969 0.0
H2645 H 0.64901 0.46956 0.58095 0.0
H2646 H 0.48091 0.52363 0.57673 0.0
H2647 H 0.54108 0.51035 0.57838 0.0
C2648 C 0.76045 0.49823 0.69424 0.0
C2649 C 0.73401 0.48304 0.6902 0.0
C2650 C 0.76612 0.53322 0.69377 0.0
C2651 C 0.75287 0.60644 0.68162 0.0
H2652 H 0.76757 0.65939 0.69935 0.0
C2653 C 0.73993 0.75225 0.68326 0.0
C2654 C 0.75745 0.76954 0.68888 0.0
C2655 C 0.7441 0.71716 0.68237 0.0
C2656 C 0.76439 0.64494 0.69432 0.0
H2657 H 0.69231 0.49205 0.68265 0.0
H2658 H 0.70216 0.55371 0.68182 0.0
H2659 H 0.75826 0.59839 0.70029 0.0
H2660 H 0.79657 0.76483 0.69726 0.0
H2661 H 0.80487 0.70387 0.69551 0.0
H2662 H 0.75875 0.65315 0.67564 0.0
C2663 C 0.71864 0.53846 0.68529 0.0
C2664 C 0.75875 0.60999 0.69487 0.0
C2665 C 0.7128 0.50342 0.68581 0.0
C2666 C 0.78226 0.752 0.69297 0.0
C2667 C 0.78679 0.71704 0.69201 0.0
C2668 C 0.75878 0.64147 0.68105 0.0
C2669 C 0.7456 0.55358 0.68921 0.0
C2670 C 0.7525 0.59049 0.68855 0.0
C2671 C 0.76624 0.69891 0.68702 0.0
C2672 C 0.7642 0.66119 0.68741 0.0
H2673 H 0.7776 0.48288 0.69753 0.0
H2674 H 0.78725 0.54419 0.6968 0.0
H2675 H 0.74864 0.59181 0.67664 0.0
H2676 H 0.72071 0.76511 0.67999 0.0
H2677 H 0.72788 0.70405 0.67846 0.0
C2678 C 0.48111 0.49828 0.93444 0.0
C2679 C 0.46488 0.50431 0.94122 0.0
C2680 C 0.51564 0.50594 0.93354 0.0
C2681 C 0.59092 0.54794 0.94203 0.0
H2682 H 0.63831 0.46719 0.93514 0.0
C2683 C 0.73243 0.48174 0.94386 0.0
C2684 C 0.75302 0.50891 0.94158 0.0
C2685 C 0.69693 0.48451 0.94347 0.0
C2686 C 0.62544 0.48988 0.9371 0.0
H2687 H 0.47112 0.52703 0.95205 0.0
H2688 H 0.5312 0.5403 0.95046 0.0
H2689 H 0.57638 0.46972 0.93444 0.0
H2690 H 0.75346 0.56039 0.9373 0.0
H2691 H 0.69133 0.56542 0.93665 0.0
H2692 H 0.64019 0.56762 0.94487 0.0
C2693 C 0.51739 0.52941 0.94586 0.0
C2694 C 0.59 0.49158 0.93659 0.0
C2695 C 0.4829 0.52167 0.94677 0.0
C2696 C 0.73783 0.53915 0.93909 0.0
C2697 C 0.70241 0.54205 0.93875 0.0
C2698 C 0.62649 0.54633 0.94249 0.0
C2699 C 0.5345 0.51999 0.93938 0.0
C2700 C 0.5723 0.52043 0.93913 0.0
C2701 C 0.68159 0.5146 0.94085 0.0
C2702 C 0.64403 0.51703 0.94014 0.0
H2703 H 0.46792 0.48531 0.93 0.0
H2704 H 0.52804 0.49911 0.92842 0.0
H2705 H 0.57796 0.57049 0.94403 0.0
H2706 H 0.74378 0.45817 0.94577 0.0
H2707 H 0.68147 0.46309 0.94521 0.0
C2708 C 0.74802 0.4867 0.18299 0.0
C2709 C 0.72962 0.50588 0.18816 0.0
C2710 C 0.74534 0.45118 0.18287 0.0
C2711 C 0.7233 0.37804 0.19448 0.0
H2712 H 0.71195 0.33033 0.17592 0.0
C2713 C 0.70959 0.23345 0.19432 0.0
C2714 C 0.73019 0.21613 0.18921 0.0
C2715 C 0.7035 0.2683 0.19355 0.0
C2716 C 0.7153 0.34325 0.18114 0.0
H2717 H 0.69394 0.50318 0.19725 0.0
H2718 H 0.6899 0.4411 0.19719 0.0
H2719 H 0.71545 0.39254 0.17604 0.0
H2720 H 0.75831 0.22115 0.17899 0.0
H2721 H 0.74838 0.28214 0.17774 0.0
H2722 H 0.72427 0.32911 0.19959 0.0
C2723 C 0.70649 0.45346 0.19323 0.0
C2724 C 0.71734 0.37884 0.18121 0.0
C2725 C 0.70897 0.48896 0.1933 0.0
C2726 C 0.74227 0.23378 0.18301 0.0
C2727 C 0.73654 0.26881 0.18229 0.0
C2728 C 0.72151 0.34253 0.19441 0.0
C2729 C 0.72443 0.43422 0.18798 0.0
C2730 C 0.72153 0.39656 0.18788 0.0
C2731 C 0.71828 0.28672 0.18773 0.0
C2732 C 0.71762 0.32464 0.18775 0.0
H2733 H 0.76426 0.49922 0.17899 0.0
H2734 H 0.75985 0.43697 0.17883 0.0
H2735 H 0.72699 0.39096 0.19969 0.0
H2736 H 0.69956 0.22042 0.19911 0.0
H2737 H 0.68844 0.28109 0.19772 0.0
C2738 C 0.7537 0.45038 0.44579 0.0
C2739 C 0.73822 0.47327 0.44087 0.0
C2740 C 0.78913 0.44708 0.44599 0.0
C2741 C 0.86539 0.4576 0.43478 0.0
H2742 H 0.91329 0.46777 0.45332 0.0
C2743 C 0.00809 0.48925 0.43653 0.0
C2744 C 0.02635 0.48069 0.44292 0.0
C2745 C 0.97364 0.48082 0.43588 0.0
C2746 C 0.90044 0.46394 0.44811 0.0
H2747 H 0.74738 0.51108 0.43242 0.0
H2748 H 0.80952 0.50476 0.43264 0.0
H2749 H 0.85131 0.46898 0.45314 0.0
H2750 H 0.02395 0.45337 0.45329 0.0
H2751 H 0.96426 0.43726 0.45202 0.0
H2752 H 0.91433 0.45229 0.42972 0.0
C2753 C 0.79417 0.48934 0.43632 0.0
C2754 C 0.86488 0.46494 0.44801 0.0
C2755 C 0.75876 0.49304 0.43621 0.0
C2756 C 0.01038 0.46075 0.44834 0.0
C2757 C 0.97606 0.45181 0.44764 0.0
C2758 C 0.90098 0.45603 0.43487 0.0
C2759 C 0.80963 0.46624 0.4412 0.0
C2760 C 0.84711 0.46252 0.44133 0.0
C2761 C 0.95684 0.46313 0.44157 0.0
C2762 C 0.91902 0.45996 0.44152 0.0
H2763 H 0.73842 0.43435 0.44935 0.0
H2764 H 0.8005 0.429 0.44978 0.0
H2765 H 0.85213 0.45515 0.42957 0.0
H2766 H 0.01962 0.50469 0.43225 0.0
H2767 H 0.95978 0.49023 0.43114 0.0
C2768 C 0.22904 0.51556 0.20514 0.0
C2769 C 0.20639 0.49651 0.2008 0.0
C2770 C 0.22798 0.55124 0.20497 0.0
C2771 C 0.20723 0.62019 0.19248 0.0
H2772 H 0.20998 0.67807 0.20976 0.0
C2773 C 0.21905 0.76681 0.18989 0.0
C2774 C 0.24136 0.78225 0.19494 0.0
C2775 C 0.20872 0.73288 0.19091 0.0
C2776 C 0.20952 0.66229 0.20487 0.0
H2777 H 0.16322 0.49944 0.19337 0.0
H2778 H 0.16213 0.56156 0.19289 0.0
H2779 H 0.20477 0.61646 0.21123 0.0
H2780 H 0.27097 0.77386 0.20489 0.0
H2781 H 0.25374 0.71549 0.20656 0.0
H2782 H 0.21378 0.66549 0.1861 0.0
C2783 C 0.18087 0.54906 0.19634 0.0
C2784 C 0.20642 0.62705 0.20573 0.0
C2785 C 0.18163 0.51358 0.1966 0.0
C2786 C 0.25291 0.76322 0.20101 0.0
C2787 C 0.24294 0.72951 0.20198 0.0
C2788 C 0.21091 0.65538 0.19161 0.0
C2789 C 0.20443 0.56822 0.20041 0.0
C2790 C 0.20567 0.60568 0.19955 0.0
C2791 C 0.22087 0.71372 0.19694 0.0
C2792 C 0.21271 0.67686 0.1978 0.0
H2793 H 0.24835 0.50295 0.20842 0.0
H2794 H 0.24648 0.56553 0.20815 0.0
H2795 H 0.20692 0.60415 0.18762 0.0
H2796 H 0.20982 0.78081 0.18515 0.0
H2797 H 0.19144 0.72163 0.18694 0.0
C2798 C 0.97784 0.44065 0.94626 0.0
C2799 C 0.96634 0.45768 0.93991 0.0
C2800 C 0.01233 0.43263 0.9471 0.0
C2801 C 0.09677 0.43371 0.93748 0.0
H2802 H 0.12994 0.46129 0.95672 0.0
C2803 C 0.23408 0.47831 0.94203 0.0
C2804 C 0.25213 0.46258 0.94777 0.0
C2805 C 0.19889 0.47411 0.94143 0.0
C2806 C 0.12103 0.45315 0.95136 0.0
H2807 H 0.98135 0.4765 0.92916 0.0
H2808 H 0.0413 0.4631 0.93065 0.0
H2809 H 0.0688 0.4558 0.95463 0.0
H2810 H 0.24764 0.4319 0.95764 0.0
H2811 H 0.18551 0.42541 0.95672 0.0
H2812 H 0.14914 0.43275 0.93415 0.0
C2813 C 0.02389 0.45562 0.93498 0.0
C2814 C 0.08599 0.44971 0.95015 0.0
C2815 C 0.98935 0.46332 0.93412 0.0
C2816 C 0.23416 0.44445 0.95319 0.0
C2817 C 0.19876 0.44056 0.95263 0.0
C2818 C 0.13174 0.43756 0.93867 0.0
C2819 C 0.03606 0.4417 0.94163 0.0
C2820 C 0.07336 0.44057 0.94315 0.0
C2821 C 0.18101 0.4545 0.94662 0.0
C2822 C 0.14414 0.44796 0.94557 0.0
H2823 H 0.96055 0.43539 0.95076 0.0
H2824 H 0.02063 0.42092 0.95219 0.0
H2825 H 0.08807 0.426 0.93207 0.0
H2826 H 0.24747 0.49265 0.93783 0.0
H2827 H 0.18571 0.48571 0.93682 0.0
C2828 C 0.23854 0.49925 0.6914 0.0
C2829 C 0.25765 0.51467 0.69701 0.0
C2830 C 0.23866 0.46393 0.69058 0.0
C2831 C 0.29224 0.38919 0.69504 0.0
H2832 H 0.21498 0.33965 0.68711 0.0
C2833 C 0.2779 0.24193 0.69309 0.0
C2834 C 0.26059 0.22916 0.68689 0.0
C2835 C 0.28306 0.27696 0.69392 0.0
C2836 C 0.23692 0.35328 0.68923 0.0
H2837 H 0.28985 0.50575 0.70648 0.0
H2838 H 0.28907 0.44354 0.70526 0.0
H2839 H 0.20858 0.39944 0.69034 0.0
H2840 H 0.2391 0.24273 0.67626 0.0
H2841 H 0.24826 0.30378 0.67772 0.0
H2842 H 0.32013 0.34229 0.6941 0.0
C2843 C 0.27482 0.45874 0.70135 0.0
C2844 C 0.23325 0.38754 0.6911 0.0
C2845 C 0.27486 0.49423 0.70213 0.0
C2846 C 0.2523 0.25168 0.68113 0.0
C2847 C 0.25721 0.2867 0.682 0.0
C2848 C 0.29577 0.35468 0.69324 0.0
C2849 C 0.25762 0.44325 0.69542 0.0
C2850 C 0.26092 0.40608 0.69396 0.0
C2851 C 0.27093 0.29973 0.68857 0.0
C2852 C 0.26823 0.33655 0.69024 0.0
H2853 H 0.22516 0.51472 0.68739 0.0
H2854 H 0.22536 0.45308 0.68591 0.0
H2855 H 0.31427 0.40277 0.69711 0.0
H2856 H 0.28503 0.22516 0.69757 0.0
H2857 H 0.29393 0.28633 0.69902 0.0
C2858 C 0.51251 0.53912 0.44406 0.0
C2859 C 0.52304 0.51965 0.43798 0.0
C2860 C 0.47798 0.5461 0.44518 0.0
C2861 C 0.3909 0.53435 0.43692 0.0
H2862 H 0.36522 0.51987 0.45733 0.0
C2863 C 0.25946 0.48443 0.44544 0.0
C2864 C 0.2407 0.50728 0.44977 0.0
C2865 C 0.29441 0.48916 0.44444 0.0
C2866 C 0.37212 0.52419 0.45163 0.0
H2867 H 0.50616 0.49485 0.42797 0.0
H2868 H 0.44612 0.50595 0.42999 0.0
H2869 H 0.42519 0.5268 0.45413 0.0
H2870 H 0.24376 0.55114 0.45698 0.0
H2871 H 0.30561 0.55847 0.45552 0.0
H2872 H 0.33768 0.5295 0.43444 0.0
C2873 C 0.46423 0.51653 0.43386 0.0
C2874 C 0.40643 0.52856 0.44978 0.0
C2875 C 0.49883 0.51015 0.43268 0.0
C2876 C 0.25784 0.53311 0.45364 0.0
C2877 C 0.29302 0.53746 0.45276 0.0
C2878 C 0.35671 0.52928 0.43877 0.0
C2879 C 0.45321 0.53314 0.44032 0.0
C2880 C 0.41639 0.53315 0.44237 0.0
C2881 C 0.31123 0.51631 0.44792 0.0
C2882 C 0.34717 0.52364 0.44611 0.0
H2883 H 0.53075 0.5471 0.4482 0.0
H2884 H 0.47063 0.56003 0.45008 0.0
H2885 H 0.39735 0.53857 0.4312 0.0
H2886 H 0.24672 0.46409 0.44248 0.0
H2887 H 0.30816 0.47223 0.44078 0.0
C2888 C 0.27486 0.49867 0.3158 0.0
C2889 C 0.25518 0.51436 0.31033 0.0
C2890 C 0.27375 0.4634 0.3167 0.0
C2891 C 0.21356 0.39347 0.31359 0.0
H2892 H 0.2882 0.33734 0.32056 0.0
C2893 C 0.21059 0.24676 0.31629 0.0
C2894 C 0.2301 0.23196 0.32193 0.0
C2895 C 0.20954 0.28209 0.31546 0.0
C2896 C 0.26699 0.35288 0.31874 0.0
H2897 H 0.22129 0.50611 0.30111 0.0
H2898 H 0.22008 0.44404 0.3025 0.0
H2899 H 0.29927 0.39588 0.3168 0.0
H2900 H 0.26009 0.24256 0.33172 0.0
H2901 H 0.25776 0.30431 0.33033 0.0
H2902 H 0.1814 0.35015 0.31546 0.0
C2903 C 0.23572 0.45895 0.30621 0.0
C2904 C 0.27339 0.38632 0.31653 0.0
C2905 C 0.23681 0.4943 0.30533 0.0
C2906 C 0.245 0.25318 0.32728 0.0
C2907 C 0.24406 0.28853 0.32643 0.0
C2908 C 0.20719 0.35992 0.31577 0.0
C2909 C 0.25295 0.44333 0.31212 0.0
C2910 C 0.24675 0.40703 0.31395 0.0
C2911 C 0.22793 0.30316 0.32029 0.0
C2912 C 0.23383 0.33937 0.3184 0.0
H2913 H 0.28889 0.51394 0.31975 0.0
H2914 H 0.2872 0.45225 0.32132 0.0
H2915 H 0.19232 0.40899 0.31178 0.0
H2916 H 0.19825 0.231 0.31219 0.0
H2917 H 0.19665 0.29266 0.3107 0.0
C2918 C 0.2708 0.49239 0.0559 0.0
C2919 C 0.24943 0.46485 0.05755 0.0
C2920 C 0.30619 0.48887 0.05655 0.0
C2921 C 0.37636 0.42603 0.05826 0.0
H2922 H 0.4206 0.49853 0.06919 0.0
C2923 C 0.5222 0.44592 0.06047 0.0
C2924 C 0.53502 0.46126 0.0669 0.0
C2925 C 0.48735 0.43938 0.05974 0.0
C2926 C 0.40856 0.47782 0.06622 0.0
H2927 H 0.24758 0.41177 0.06077 0.0
H2928 H 0.30931 0.40544 0.06186 0.0
H2929 H 0.36022 0.50302 0.06627 0.0
H2930 H 0.52202 0.47762 0.07796 0.0
H2931 H 0.46132 0.46558 0.07673 0.0
H2932 H 0.42492 0.40086 0.05824 0.0
C2933 C 0.29906 0.42968 0.06006 0.0
C2934 C 0.37409 0.48071 0.06443 0.0
C2935 C 0.26379 0.4333 0.05946 0.0
C2936 C 0.51298 0.46602 0.07291 0.0
C2937 C 0.4781 0.45953 0.07218 0.0
C2938 C 0.41101 0.42324 0.06002 0.0
C2939 C 0.32061 0.45768 0.05881 0.0
C2940 C 0.35761 0.45493 0.06041 0.0
C2941 C 0.46472 0.44795 0.06544 0.0
C2942 C 0.42746 0.44912 0.06402 0.0
H2943 H 0.26009 0.51695 0.05446 0.0
H2944 H 0.32225 0.51076 0.05546 0.0
H2945 H 0.36433 0.40576 0.05516 0.0
H2946 H 0.53867 0.44138 0.05579 0.0
H2947 H 0.47791 0.43024 0.05449 0.0
C2948 C 0.23074 0.52122 0.80619 0.0
C2949 C 0.25806 0.49848 0.80559 0.0
C2950 C 0.23691 0.5561 0.80702 0.0
C2951 C 0.25687 0.62125 0.81465 0.0
H2952 H 0.33192 0.67008 0.80561 0.0
C2953 C 0.28092 0.75922 0.82273 0.0
C2954 C 0.28411 0.78139 0.81669 0.0
C2955 C 0.28566 0.72416 0.82181 0.0
C2956 C 0.31083 0.65683 0.80818 0.0
H2957 H 0.31292 0.49357 0.80519 0.0
H2958 H 0.32396 0.55436 0.80673 0.0
H2959 H 0.32078 0.61111 0.80212 0.0
H2960 H 0.3 0.78485 0.80529 0.0
H2961 H 0.30699 0.72399 0.80359 0.0
H2962 H 0.24579 0.66716 0.82046 0.0
C2963 C 0.29777 0.54577 0.80639 0.0
C2964 C 0.30456 0.62293 0.80621 0.0
C2965 C 0.29153 0.51099 0.80549 0.0
C2966 C 0.29627 0.76831 0.80998 0.0
C2967 C 0.30065 0.73329 0.80903 0.0
C2968 C 0.26294 0.65513 0.81658 0.0
C2969 C 0.27056 0.56864 0.8074 0.0
C2970 C 0.27727 0.60483 0.80937 0.0
C2971 C 0.29351 0.71063 0.81483 0.0
C2972 C 0.28984 0.67349 0.81333 0.0
H2973 H 0.20477 0.51184 0.80637 0.0
H2974 H 0.21534 0.57309 0.80762 0.0
H2975 H 0.23613 0.60793 0.81734 0.0
H2976 H 0.27201 0.76848 0.82801 0.0
H2977 H 0.28112 0.70749 0.82646 0.0
C2978 C 0.24379 0.48984 0.56573 0.0
C2979 C 0.26014 0.50722 0.55998 0.0
C2980 C 0.20869 0.49307 0.56672 0.0
C2981 C 0.1282 0.51813 0.55805 0.0
H2982 H 0.10183 0.54096 0.57806 0.0
C2983 C 0.98792 0.53748 0.56491 0.0
C2984 C 0.9768 0.51824 0.57099 0.0
C2985 C 0.02256 0.54418 0.56391 0.0
C2986 C 0.10871 0.53451 0.57245 0.0
H2987 H 0.25291 0.53952 0.55045 0.0
H2988 H 0.19101 0.54457 0.55206 0.0
H2989 H 0.16182 0.53194 0.57511 0.0
H2990 H 0.99274 0.49446 0.5812 0.0
H2991 H 0.05301 0.50572 0.57943 0.0
H2992 H 0.07516 0.51938 0.55542 0.0
C2993 C 0.20538 0.52872 0.55583 0.0
C2994 C 0.14304 0.52924 0.57077 0.0
C2995 C 0.24064 0.52566 0.55488 0.0
C2996 C 0.00047 0.50936 0.57646 0.0
C2997 C 0.03517 0.51578 0.57543 0.0
C2998 C 0.09381 0.52308 0.55974 0.0
C2999 C 0.18935 0.51353 0.56193 0.0
C3000 C 0.15304 0.52045 0.56358 0.0
C3001 C 0.04675 0.5316 0.56893 0.0
C3002 C 0.08358 0.53085 0.56699 0.0
H3003 H 0.25851 0.47549 0.56971 0.0
H3004 H 0.19684 0.48051 0.57137 0.0
H3005 H 0.13522 0.51131 0.55247 0.0
H3006 H 0.97014 0.54518 0.56066 0.0
H3007 H 0.03053 0.55742 0.55896 0.0
C3008 C 0.25819 0.10498 0.35637 0.0
C3009 C 0.28123 0.11567 0.35091 0.0
C3010 C 0.27001 0.09476 0.36331 0.0
C3011 C 0.34304 0.10382 0.37594 0.0
H3012 H 0.30907 0.02073 0.38487 0.0
C3013 C 0.40449 0.04936 0.40223 0.0
C3014 C 0.38267 0.03586 0.40763 0.0
C3015 C 0.39211 0.05744 0.39522 0.0
C3016 C 0.31856 0.04422 0.3825 0.0
H3017 H 0.33474 0.1243 0.34849 0.0
H3018 H 0.35518 0.10681 0.36057 0.0
H3019 H 0.28655 0.03924 0.37298 0.0
H3020 H 0.33082 0.01946 0.40982 0.0
H3021 H 0.3091 0.03417 0.39766 0.0
H3022 H 0.37461 0.10929 0.38546 0.0
C3023 C 0.328 0.10637 0.35951 0.0
C3024 C 0.30564 0.05479 0.37568 0.0
C3025 C 0.31626 0.11624 0.35256 0.0
C3026 C 0.34838 0.02972 0.40578 0.0
C3027 C 0.33593 0.03805 0.39879 0.0
C3028 C 0.35575 0.09342 0.38277 0.0
C3029 C 0.30506 0.0954 0.36496 0.0
C3030 C 0.31789 0.08461 0.37231 0.0
C3031 C 0.35752 0.0525 0.39344 0.0
C3032 C 0.34386 0.06337 0.38613 0.0
H3033 H 0.23107 0.10415 0.35527 0.0
H3034 H 0.2517 0.08668 0.36742 0.0
H3035 H 0.35264 0.12719 0.37353 0.0
H3036 H 0.43109 0.05418 0.40344 0.0
H3037 H 0.40969 0.06778 0.3912 0.0
C3038 C 0.22688 0.10576 0.65171 0.0
C3039 C 0.20362 0.12071 0.65664 0.0
C3040 C 0.21644 0.09595 0.64464 0.0
C3041 C 0.14989 0.11169 0.63064 0.0
H3042 H 0.17595 0.02306 0.62305 0.0
C3043 C 0.08984 0.05794 0.60411 0.0
C3044 C 0.1113 0.04062 0.59917 0.0
C3045 C 0.10124 0.06654 0.61117 0.0
C3046 C 0.16876 0.04807 0.62504 0.0
H3047 H 0.15123 0.13747 0.65794 0.0
H3048 H 0.1332 0.12059 0.64564 0.0
H3049 H 0.1966 0.04142 0.63511 0.0
H3050 H 0.16144 0.01806 0.59787 0.0
H3051 H 0.18152 0.03354 0.61012 0.0
H3052 H 0.12237 0.11864 0.62058 0.0
C3053 C 0.15953 0.11654 0.64722 0.0
C3054 C 0.18061 0.05858 0.63195 0.0
C3055 C 0.16986 0.12607 0.65429 0.0
C3056 C 0.14417 0.03132 0.60153 0.0
C3057 C 0.15566 0.0401 0.60858 0.0
C3058 C 0.13821 0.10129 0.62372 0.0
C3059 C 0.18261 0.10119 0.64232 0.0
C3060 C 0.17113 0.09043 0.63485 0.0
C3061 C 0.13451 0.05823 0.61346 0.0
C3062 C 0.14727 0.06924 0.62084 0.0
H3063 H 0.25304 0.10119 0.65334 0.0
H3064 H 0.23491 0.08446 0.64096 0.0
H3065 H 0.14254 0.1366 0.63266 0.0
H3066 H 0.06429 0.06531 0.60249 0.0
H3067 H 0.08395 0.07984 0.61482 0.0
C3068 C 0.19951 0.84587 0.85384 0.0
C3069 C 0.21055 0.86915 0.84846 0.0
C3070 C 0.19003 0.85715 0.86085 0.0
C3071 C 0.19448 0.93183 0.87357 0.0
H3072 H 0.11651 0.88775 0.88261 0.0
C3073 C 0.12679 0.9841 0.89972 0.0
C3074 C 0.12008 0.9599 0.90525 0.0
C3075 C 0.13804 0.9737 0.89275 0.0
C3076 C 0.13844 0.90018 0.88017 0.0
H3077 H 0.22107 0.92252 0.84631 0.0
H3078 H 0.2038 0.94227 0.85846 0.0
H3079 H 0.13679 0.86813 0.87067 0.0
H3080 H 0.11943 0.9058 0.90774 0.0
H3081 H 0.13855 0.88778 0.89559 0.0
H3082 H 0.1955 0.96431 0.88307 0.0
C3083 C 0.20301 0.91519 0.85732 0.0
C3084 C 0.15024 0.88882 0.87334 0.0
C3085 C 0.21281 0.90386 0.85033 0.0
C3086 C 0.12437 0.92513 0.90361 0.0
C3087 C 0.13518 0.91475 0.89664 0.0
C3088 C 0.18242 0.94341 0.88038 0.0
C3089 C 0.19101 0.89205 0.86265 0.0
C3090 C 0.17857 0.90431 0.86995 0.0
C3091 C 0.14233 0.93889 0.89114 0.0
C3092 C 0.15441 0.92756 0.88378 0.0
H3093 H 0.19771 0.81893 0.8526 0.0
H3094 H 0.18171 0.83845 0.86485 0.0
H3095 H 0.21661 0.94413 0.87119 0.0
H3096 H 0.12385 0.01108 0.90081 0.0
H3097 H 0.14313 0.99286 0.8886 0.0
C3098 C 0.36602 0.92893 0.10493 0.0
C3099 C 0.36528 0.96356 0.10293 0.0
C3100 C 0.35744 0.91871 0.11206 0.0
C3101 C 0.30887 0.94436 0.12843 0.0
H3102 H 0.36521 0.87741 0.13837 0.0
C3103 C 0.28827 0.90633 0.15903 0.0
C3104 C 0.29524 0.87249 0.1611 0.0
C3105 C 0.29543 0.91773 0.15189 0.0
C3106 C 0.34882 0.89571 0.13565 0.0
H3107 H 0.35477 0.01462 0.10689 0.0
H3108 H 0.33947 -0.00336 0.11938 0.0
H3109 H 0.38102 0.89716 0.12613 0.0
H3110 H 0.31371 0.8237 0.15716 0.0
H3111 H 0.32516 0.8432 0.14468 0.0
H3112 H 0.27631 0.94251 0.13789 0.0
C3113 C 0.34673 0.97746 0.11539 0.0
C3114 C 0.35804 0.90716 0.12863 0.0
C3115 C 0.35571 0.98776 0.10825 0.0
C3116 C 0.30828 0.85 0.15578 0.0
C3117 C 0.31515 0.86131 0.14862 0.0
C3118 C 0.29945 0.93267 0.13544 0.0
C3119 C 0.34757 0.9428 0.11737 0.0
C3120 C 0.33814 0.93153 0.12493 0.0
C3121 C 0.30949 0.89551 0.14661 0.0
C3122 C 0.31924 0.90807 0.13913 0.0
H3123 H 0.37324 0.90957 0.10097 0.0
H3124 H 0.358 0.89179 0.11339 0.0
H3125 H 0.29281 0.96288 0.12569 0.0
H3126 H 0.27834 0.92439 0.163 0.0
H3127 H 0.29099 0.9443 0.15059 0.0
C3128 C 0.62272 0.9172 0.60169 0.0
C3129 C 0.64995 0.90773 0.59713 0.0
C3130 C 0.62643 0.91684 0.60936 0.0
C3131 C 0.68284 0.88175 0.62418 0.0
H3132 H 0.63111 0.94404 0.63638 0.0
C3133 C 0.67706 0.86624 0.65584 0.0
C3134 C 0.67303 0.89548 0.6602 0.0
C3135 C 0.67553 0.86848 0.64815 0.0
C3136 C 0.64626 0.92674 0.63309 0.0
H3137 H 0.70257 0.89123 0.59692 0.0
H3138 H 0.70983 0.89232 0.61025 0.0
H3139 H 0.6271 0.94822 0.6231 0.0
H3140 H 0.66497 0.95001 0.66 0.0
H3141 H 0.66415 0.95443 0.64661 0.0
H3142 H 0.70341 0.86147 0.63416 0.0
C3143 C 0.68512 0.89886 0.60799 0.0
C3144 C 0.64342 0.92873 0.62542 0.0
C3145 C 0.68114 0.89853 0.60034 0.0
C3146 C 0.66809 0.92707 0.65674 0.0
C3147 C 0.66727 0.92947 0.64906 0.0
C3148 C 0.68618 0.88018 0.63185 0.0
C3149 C 0.65769 0.90752 0.61264 0.0
C3150 C 0.66146 0.9061 0.62084 0.0
C3151 C 0.67046 0.90014 0.64464 0.0
C3152 C 0.66773 0.90247 0.63643 0.0
H3153 H 0.59818 0.92371 0.59935 0.0
H3154 H 0.60444 0.92299 0.6127 0.0
H3155 H 0.69677 0.86341 0.6209 0.0
H3156 H 0.68016 0.84145 0.65838 0.0
H3157 H 0.67738 0.84516 0.64499 0.0
C3158 C 0.87501 0.89218 0.35001 0.0
C3159 C 0.84402 0.89272 0.3461 0.0
C3160 C 0.87601 0.89923 0.35755 0.0
C3161 C 0.82496 0.93772 0.3728 0.0
H3162 H 0.89025 0.88959 0.38503 0.0
C3163 C 0.8201 0.9321 0.40473 0.0
C3164 C 0.85095 0.93703 0.40852 0.0
C3165 C 0.81955 0.93019 0.39704 0.0
C3166 C 0.87215 0.90351 0.38167 0.0
H3167 H 0.78987 0.90316 0.34717 0.0
H3168 H 0.79122 0.91307 0.36034 0.0
H3169 H 0.88785 0.87779 0.37188 0.0
H3170 H 0.90546 0.94359 0.40726 0.0
H3171 H 0.90461 0.93978 0.39378 0.0
H3172 H 0.80846 0.96231 0.38275 0.0
C3173 C 0.81497 0.90754 0.35755 0.0
C3174 C 0.87078 0.89685 0.37411 0.0
C3175 C 0.81405 0.90096 0.34996 0.0
C3176 C 0.88125 0.94045 0.40447 0.0
C3177 C 0.8808 0.93792 0.39677 0.0
C3178 C 0.82599 0.94395 0.3804 0.0
C3179 C 0.84599 0.90679 0.36146 0.0
C3180 C 0.84721 0.91389 0.36955 0.0
C3181 C 0.84997 0.9324 0.39299 0.0
C3182 C 0.84965 0.92695 0.3849 0.0
H3183 H 0.89875 0.88634 0.34724 0.0
H3184 H 0.90055 0.89917 0.36028 0.0
H3185 H 0.8069 0.95188 0.36949 0.0
H3186 H 0.79641 0.92916 0.40774 0.0
H3187 H 0.79549 0.92563 0.39428 0.0
C3188 C 0.80148 0.06413 0.09891 0.0
C3189 C 0.83383 0.05834 0.09586 0.0
C3190 C 0.79691 0.06456 0.10653 0.0
C3191 C 0.83925 0.043 0.12434 0.0
H3192 H 0.77478 0.10896 0.13201 0.0
C3193 C 0.81045 0.05074 0.15538 0.0
C3194 C 0.80539 0.08311 0.15848 0.0
C3195 C 0.81172 0.04657 0.14775 0.0
C3196 C 0.79314 0.09062 0.12999 0.0
H3197 H 0.8869 0.04863 0.09836 0.0
H3198 H 0.87931 0.05025 0.11171 0.0
H3199 H 0.78253 0.10369 0.11881 0.0
H3200 H 0.79817 0.13664 0.15606 0.0
H3201 H 0.80122 0.1297 0.14272 0.0
H3202 H 0.8512 0.03124 0.13553 0.0
C3203 C 0.85712 0.0534 0.10823 0.0
C3204 C 0.7972 0.08716 0.12238 0.0
C3205 C 0.86155 0.05243 0.10058 0.0
C3206 C 0.8013 0.11128 0.1538 0.0
C3207 C 0.80309 0.10722 0.14615 0.0
C3208 C 0.8355 0.04676 0.13195 0.0
C3209 C 0.82478 0.05996 0.11131 0.0
C3210 C 0.82026 0.06325 0.11944 0.0
C3211 C 0.80869 0.07483 0.14302 0.0
C3212 C 0.81235 0.0706 0.13489 0.0
H3213 H 0.77966 0.06864 0.09537 0.0
H3214 H 0.7715 0.06882 0.10866 0.0
H3215 H 0.85697 0.02405 0.12231 0.0
H3216 H 0.8136 0.02858 0.15888 0.0
H3217 H 0.81526 0.02113 0.14557 0.0
C3218 C 0.62506 0.06553 0.90816 0.0
C3219 C 0.65381 0.06795 0.91273 0.0
C3220 C 0.62852 0.06738 0.9005 0.0
C3221 C 0.68949 0.0959 0.88597 0.0
H3222 H 0.62805 0.04598 0.87321 0.0
C3223 C 0.68263 0.12086 0.85455 0.0
C3224 C 0.67424 0.0935 0.84992 0.0
C3225 C 0.68208 0.11679 0.86221 0.0
C3226 C 0.64584 0.05976 0.87666 0.0
H3227 H 0.7087 0.07362 0.91292 0.0
H3228 H 0.71506 0.07536 0.89957 0.0
H3229 H 0.62373 0.03909 0.88645 0.0
H3230 H 0.65985 0.04027 0.84959 0.0
H3231 H 0.66044 0.03259 0.86289 0.0
H3232 H 0.71253 0.11546 0.87617 0.0
C3233 C 0.68967 0.07304 0.90185 0.0
C3234 C 0.64293 0.05624 0.8843 0.0
C3235 C 0.68611 0.07173 0.90951 0.0
C3236 C 0.6663 0.06181 0.85305 0.0
C3237 C 0.66633 0.05755 0.86069 0.0
C3238 C 0.69272 0.09905 0.87832 0.0
C3239 C 0.66089 0.07135 0.89723 0.0
C3240 C 0.66456 0.07442 0.88907 0.0
C3241 C 0.67349 0.08515 0.86539 0.0
C3242 C 0.67082 0.08116 0.87356 0.0
H3243 H 0.59977 0.06345 0.91051 0.0
H3244 H 0.60566 0.06667 0.89716 0.0
H3245 H 0.70632 0.11077 0.88943 0.0
H3246 H 0.68813 0.14576 0.85227 0.0
H3247 H 0.68722 0.13882 0.86563 0.0
C3248 C 0.82176 0.61647 0.85322 0.0
C3249 C 0.78758 0.61339 0.85098 0.0
C3250 C 0.83184 0.60644 0.86027 0.0
C3251 C 0.79909 0.58735 0.87899 0.0
H3252 H 0.88666 0.54251 0.88115 0.0
C3253 C 0.84528 0.53134 0.90681 0.0
C3254 C 0.87913 0.53884 0.90879 0.0
C3255 C 0.83337 0.53842 0.8997 0.0
C3256 C 0.86224 0.5552 0.88065 0.0
H3257 H 0.7371 0.59759 0.85444 0.0
H3258 H 0.7548 0.57963 0.86676 0.0
H3259 H 0.86687 0.55906 0.86894 0.0
H3260 H 0.9272 0.55897 0.9048 0.0
H3261 H 0.9065 0.57116 0.89241 0.0
H3262 H 0.79455 0.58335 0.89072 0.0
C3263 C 0.77375 0.59024 0.86307 0.0
C3264 C 0.8509 0.56479 0.87365 0.0
C3265 C 0.76361 0.60044 0.85601 0.0
C3266 C 0.901 0.55282 0.90346 0.0
C3267 C 0.88916 0.55968 0.89634 0.0
C3268 C 0.81039 0.57759 0.88599 0.0
C3269 C 0.80809 0.59285 0.86528 0.0
C3270 C 0.81935 0.58136 0.87272 0.0
C3271 C 0.85512 0.55291 0.8944 0.0
C3272 C 0.84227 0.56172 0.88691 0.0
H3273 H 0.84091 0.62654 0.84951 0.0
H3274 H 0.85834 0.60953 0.86182 0.0
H3275 H 0.77485 0.60038 0.87851 0.0
H3276 H 0.82772 0.52057 0.91078 0.0
H3277 H 0.80712 0.53253 0.89835 0.0
C3278 C 0.74392 0.59932 0.1504 0.0
C3279 C 0.72039 0.61246 0.15551 0.0
C3280 C 0.73347 0.59047 0.14326 0.0
C3281 C 0.6649 0.60627 0.12966 0.0
H3282 H 0.69508 0.52135 0.1209 0.0
C3283 C 0.60331 0.55464 0.10315 0.0
C3284 C 0.62488 0.54046 0.09778 0.0
C3285 C 0.61563 0.56226 0.11018 0.0
C3286 C 0.6867 0.54534 0.12323 0.0
H3287 H 0.66742 0.62673 0.15708 0.0
H3288 H 0.64935 0.61136 0.14471 0.0
H3289 H 0.71614 0.53789 0.13305 0.0
H3290 H 0.67625 0.52238 0.09569 0.0
H3291 H 0.69784 0.53601 0.10795 0.0
H3292 H 0.63559 0.61391 0.11987 0.0
C3293 C 0.67593 0.60814 0.14617 0.0
C3294 C 0.69881 0.55483 0.13019 0.0
C3295 C 0.6863 0.6168 0.15329 0.0
C3296 C 0.65889 0.53321 0.09969 0.0
C3297 C 0.67125 0.54093 0.10674 0.0
C3298 C 0.65289 0.59686 0.1227 0.0
C3299 C 0.69932 0.59479 0.14107 0.0
C3300 C 0.68781 0.58528 0.13352 0.0
C3301 C 0.6499 0.55604 0.11204 0.0
C3302 C 0.66336 0.56613 0.11941 0.0
H3303 H 0.77036 0.59559 0.15192 0.0
H3304 H 0.75219 0.58053 0.13944 0.0
H3305 H 0.65638 0.63019 0.132 0.0
H3306 H 0.57693 0.56037 0.10189 0.0
H3307 H 0.59824 0.5732 0.11417 0.0
C3308 C 0.6795 0.36924 0.35148 0.0
C3309 C 0.71456 0.36698 0.34993 0.0
C3310 C 0.66814 0.37852 0.35849 0.0
C3311 C 0.69358 0.42437 0.37523 0.0
H3312 H 0.61916 0.37433 0.38421 0.0
C3313 C 0.64968 0.44813 0.4053 0.0
C3314 C 0.61478 0.44466 0.40692 0.0
C3315 C 0.66222 0.43979 0.39831 0.0
C3316 C 0.6396 0.38897 0.38174 0.0
H3317 H 0.7652 0.37278 0.35456 0.0
H3318 H 0.74525 0.38928 0.36684 0.0
H3319 H 0.64069 0.35686 0.37221 0.0
H3320 H 0.56552 0.43108 0.40236 0.0
H3321 H 0.58715 0.41753 0.39014 0.0
H3322 H 0.69217 0.45687 0.38469 0.0
C3323 C 0.72662 0.38385 0.36259 0.0
C3324 C 0.65205 0.3788 0.37488 0.0
C3325 C 0.73803 0.37419 0.35558 0.0
C3326 C 0.59257 0.4338 0.40132 0.0
C3327 C 0.60506 0.42574 0.39432 0.0
C3328 C 0.68093 0.43475 0.38208 0.0
C3329 C 0.69153 0.38608 0.36412 0.0
C3330 C 0.67911 0.39642 0.37153 0.0
C3331 C 0.64014 0.42802 0.39275 0.0
C3332 C 0.65368 0.41724 0.38543 0.0
H3333 H 0.6607 0.36391 0.34726 0.0
H3334 H 0.64095 0.38036 0.35946 0.0
H3335 H 0.7142 0.43869 0.37274 0.0
H3336 H 0.66754 0.4563 0.40949 0.0
H3337 H 0.68941 0.44156 0.39735 0.0
C3338 C 0.7778 0.39373 0.65596 0.0
C3339 C 0.78773 0.36086 0.65819 0.0
C3340 C 0.78664 0.40612 0.64899 0.0
C3341 C 0.84884 0.3914 0.6339 0.0
H3342 H 0.78814 0.44945 0.62263 0.0
C3343 C 0.87374 0.4254 0.60347 0.0
C3344 C 0.86784 0.45917 0.6012 0.0
C3345 C 0.86422 0.41451 0.6105 0.0
C3346 C 0.80552 0.43357 0.62575 0.0
H3347 H 0.81363 0.31477 0.65471 0.0
H3348 H 0.82825 0.33596 0.64251 0.0
H3349 H 0.76982 0.4275 0.63458 0.0
H3350 H 0.84736 0.50804 0.6046 0.0
H3351 H 0.83063 0.48892 0.61692 0.0
H3352 H 0.88432 0.39711 0.62503 0.0
C3353 C 0.81442 0.35259 0.64621 0.0
C3354 C 0.79504 0.42098 0.6326 0.0
C3355 C 0.80577 0.3403 0.65319 0.0
C3356 C 0.85235 0.48188 0.60617 0.0
C3357 C 0.84255 0.47087 0.61321 0.0
C3358 C 0.85921 0.40382 0.62704 0.0
C3359 C 0.80547 0.38586 0.64405 0.0
C3360 C 0.8165 0.39956 0.63676 0.0
C3361 C 0.84834 0.43702 0.61544 0.0
C3362 C 0.83764 0.42492 0.62286 0.0
H3363 H 0.76401 0.41033 0.65968 0.0
H3364 H 0.77957 0.43196 0.64756 0.0
H3365 H 0.86641 0.37566 0.637 0.0
H3366 H 0.88556 0.40718 0.59978 0.0
H3367 H 0.8687 0.38818 0.61201 0.0
C3368 C 0.15576 0.38752 0.10138 0.0
C3369 C 0.15318 0.41854 0.09752 0.0
C3370 C 0.16149 0.38709 0.10896 0.0
C3371 C 0.14928 0.4362 0.12568 0.0
H3372 H 0.21962 0.37792 0.13387 0.0
C3373 C 0.1736 0.43342 0.15688 0.0
C3374 C 0.18104 0.40182 0.16011 0.0
C3375 C 0.17412 0.43728 0.14924 0.0
C3376 C 0.19958 0.39402 0.1317 0.0
H3377 H 0.15657 0.47354 0.09869 0.0
H3378 H 0.16471 0.47269 0.11201 0.0
H3379 H 0.21199 0.38103 0.12055 0.0
H3380 H 0.19498 0.34942 0.15795 0.0
H3381 H 0.19483 0.35562 0.14457 0.0
H3382 H 0.1356 0.44813 0.13676 0.0
C3383 C 0.16195 0.44875 0.1091 0.0
C3384 C 0.19537 0.39592 0.12406 0.0
C3385 C 0.15677 0.44919 0.10147 0.0
C3386 C 0.18977 0.37422 0.15558 0.0
C3387 C 0.18968 0.37788 0.14791 0.0
C3388 C 0.15309 0.43391 0.13332 0.0
C3389 C 0.16454 0.41767 0.11291 0.0
C3390 C 0.17008 0.4169 0.12098 0.0
C3391 C 0.18126 0.40936 0.14462 0.0
C3392 C 0.17823 0.41269 0.13645 0.0
H3393 H 0.15329 0.36338 0.09853 0.0
H3394 H 0.16309 0.36277 0.11177 0.0
H3395 H 0.12932 0.45225 0.12345 0.0
H3396 H 0.16692 0.45513 0.16027 0.0
H3397 H 0.16841 0.46213 0.14695 0.0
C3398 C 0.30242 0.43863 0.85109 0.0
C3399 C 0.30014 0.40739 0.84737 0.0
C3400 C 0.3048 0.4396 0.85877 0.0
C3401 C 0.29743 0.38543 0.87572 0.0
H3402 H 0.35591 0.45536 0.88402 0.0
C3403 C 0.35451 0.37874 0.90504 0.0
C3404 C 0.35088 0.40788 0.9095 0.0
C3405 C 0.34611 0.37965 0.89756 0.0
C3406 C 0.33927 0.43589 0.88178 0.0
H3407 H 0.29879 0.35262 0.8487 0.0
H3408 H 0.30415 0.35399 0.86208 0.0
H3409 H 0.34492 0.4547 0.87082 0.0
H3410 H 0.33369 0.46056 0.90948 0.0
H3411 H 0.32096 0.46253 0.89637 0.0
H3412 H 0.29333 0.36585 0.88671 0.0
C3413 C 0.30283 0.37796 0.85914 0.0
C3414 C 0.33273 0.43556 0.87421 0.0
C3415 C 0.29977 0.37707 0.85146 0.0
C3416 C 0.33844 0.438 0.90625 0.0
C3417 C 0.3306 0.43905 0.89872 0.0
C3418 C 0.3045 0.38545 0.88327 0.0
C3419 C 0.30589 0.40926 0.86291 0.0
C3420 C 0.31177 0.41026 0.87105 0.0
C3421 C 0.33415 0.40982 0.89433 0.0
C3422 C 0.32558 0.41061 0.88637 0.0
H3423 H 0.30271 0.46238 0.84805 0.0
H3424 H 0.30619 0.46424 0.86144 0.0
H3425 H 0.28065 0.36594 0.87356 0.0
H3426 H 0.36389 0.35501 0.90731 0.0
H3427 H 0.34934 0.3568 0.89429 0.0
C3428 C 0.3437 0.57555 0.65628 0.0
C3429 C 0.33468 0.6067 0.65952 0.0
C3430 C 0.34323 0.57175 0.64863 0.0
C3431 C 0.31407 0.61425 0.63124 0.0
H3432 H 0.38354 0.55669 0.62249 0.0
C3433 C 0.35519 0.6198 0.60064 0.0
C3434 C 0.35533 0.58859 0.5968 0.0
C3435 C 0.35038 0.62072 0.60826 0.0
C3436 C 0.36385 0.57261 0.62488 0.0
H3437 H 0.31864 0.65851 0.65738 0.0
H3438 H 0.31917 0.65258 0.64402 0.0
H3439 H 0.37966 0.56115 0.63585 0.0
H3440 H 0.34801 0.53398 0.59811 0.0
H3441 H 0.34192 0.5356 0.61143 0.0
H3442 H 0.29968 0.62692 0.62017 0.0
C3443 C 0.3253 0.6305 0.64733 0.0
C3444 C 0.36139 0.57506 0.63254 0.0
C3445 C 0.32507 0.63403 0.655 0.0
C3446 C 0.34993 0.55835 0.60081 0.0
C3447 C 0.34584 0.55925 0.60847 0.0
C3448 C 0.31703 0.61231 0.62358 0.0
C3449 C 0.33462 0.59934 0.64403 0.0
C3450 C 0.3365 0.59598 0.63584 0.0
C3451 C 0.34598 0.59045 0.61224 0.0
C3452 C 0.34198 0.59153 0.62034 0.0
H3453 H 0.35107 0.55406 0.65968 0.0
H3454 H 0.34976 0.54712 0.64635 0.0
H3455 H 0.29411 0.63005 0.63354 0.0
H3456 H 0.35903 0.64369 0.59777 0.0
H3457 H 0.3507 0.6451 0.61106 0.0
C3458 C 0.17021 0.61899 0.352 0.0
C3459 C 0.15996 0.59283 0.34722 0.0
C3460 C 0.1692 0.61421 0.35963 0.0
C3461 C 0.12957 0.55944 0.37402 0.0
H3462 H 0.19715 0.60247 0.38653 0.0
C3463 C 0.13906 0.53829 0.40576 0.0
C3464 C 0.14172 0.56833 0.40995 0.0
C3465 C 0.14153 0.53943 0.39806 0.0
C3466 C 0.17804 0.5904 0.3831 0.0
H3467 H 0.14076 0.54116 0.34663 0.0
H3468 H 0.14 0.5323 0.35993 0.0
H3469 H 0.20203 0.60743 0.3732 0.0
H3470 H 0.1496 0.62302 0.4093 0.0
H3471 H 0.15447 0.62479 0.39595 0.0
H3472 H 0.10598 0.54204 0.384 0.0
C3473 C 0.14818 0.55681 0.35783 0.0
C3474 C 0.1807 0.59336 0.37546 0.0
C3475 C 0.14882 0.56176 0.35021 0.0
C3476 C 0.14735 0.59937 0.40626 0.0
C3477 C 0.15025 0.60043 0.39861 0.0
C3478 C 0.12716 0.55613 0.38168 0.0
C3479 C 0.15812 0.58306 0.36266 0.0
C3480 C 0.15624 0.57834 0.3708 0.0
C3481 C 0.14746 0.5705 0.39442 0.0
C3482 C 0.1511 0.57199 0.3863 0.0
H3483 H 0.17796 0.64355 0.34986 0.0
H3484 H 0.1763 0.63533 0.36315 0.0
H3485 H 0.10995 0.54792 0.37065 0.0
H3486 H 0.13615 0.51375 0.40839 0.0
H3487 H 0.13973 0.5159 0.39496 0.0
loop_
_geom_bond_atom_site_label_1
_geom_bond_atom_site_label_2
_geom_bond_distance
_geom_bond_site_symmetry_2
_ccdc_geom_bond_type
Co0 O3 1.970 . S
Co0 N17 1.989 . S
Co0 O25 1.967 . S
Co0 O32 1.920 . S
Co1 O4 1.966 . S
Co1 N10 2.022 . S
Co1 N18 1.993 . S
Co1 O26 1.941 . S
C2 O3 1.258 . S
C2 O4 1.263 . S
O3 Co0 1.970 . S
O3 C2 1.258 . S
O4 Co1 1.966 . S
O4 C2 1.263 . S
C5 O6 1.235 . S
C5 O32 1.289 . S
O6 C5 1.235 . S
C7 C9 1.400 . S
C7 N10 1.351 . S
C7 C12 1.501 . S
C8 C9 1.387 . S
C8 N11 1.341 . S
C9 C7 1.400 . S
C9 C8 1.387 . S
N10 Co1 2.022 . S
N10 C7 1.351 . S
N10 N11 1.365 . S
N11 C8 1.341 . S
N11 N10 1.365 . S
N11 H31 0.862 . S
C12 C7 1.501 . S
C12 H13 0.961 . S
C12 H14 0.961 . S
C12 H15 0.960 . S
H13 C12 0.961 . S
H14 C12 0.961 . S
H15 C12 0.960 . S
C16 N17 1.342 . S
C16 C20 1.401 . S
C16 C21 1.499 . S
N17 Co0 1.989 . S
N17 C16 1.342 . S
N17 N18 1.388 . S
N18 Co1 1.993 . S
N18 N17 1.388 . S
N18 C19 1.346 . S
C19 N18 1.346 . S
C19 C20 1.396 . S
C19 C29 1.510 . S
C20 C16 1.401 . S
C20 C19 1.396 . S
C21 C16 1.499 . S
C21 H22 0.959 . S
C21 H23 0.960 . S
C21 H24 0.961 . S
H22 C21 0.959 . S
H23 C21 0.960 . S
H24 C21 0.961 . S
O25 Co0 1.967 . S
O25 C33 1.258 . S
O26 Co1 1.941 . S
O26 C33 1.266 . S
H27 C29 0.959 . S
H28 C29 0.961 . S
C29 C19 1.510 . S
C29 H27 0.959 . S
C29 H28 0.961 . S
C29 H30 0.960 . S
H30 C29 0.960 . S
H31 N11 0.862 . S
O32 Co0 1.920 . S
O32 C5 1.289 . S
C33 O25 1.258 . S
C33 O26 1.266 . S
Co34 O37 1.970 . S
Co34 N51 1.989 . S
Co34 O59 1.967 . S
Co34 O66 1.920 . S
Co35 O38 1.966 . S
Co35 N44 2.022 . S
Co35 N52 1.993 . S
Co35 O60 1.941 . S
C36 O37 1.258 . S
C36 O38 1.263 . S
O37 Co34 1.970 . S
O37 C36 1.258 . S
O38 Co35 1.966 . S
O38 C36 1.263 . S
C39 O40 1.235 . S
C39 O66 1.289 . S
O40 C39 1.235 . S
C41 C43 1.400 . S
C41 N44 1.351 . S
C41 C46 1.502 1_545 S
C42 C43 1.387 . S
C42 N45 1.341 . S
C43 C41 1.400 . S
C43 C42 1.387 . S
N44 Co35 2.022 . S
N44 C41 1.351 . S
N44 N45 1.365 . S
N45 C42 1.341 . S
N45 N44 1.365 . S
N45 H65 0.862 . S
C46 C41 1.502 1_565 S
C46 H47 0.961 1_565 S
C46 H48 0.960 . S
C46 H49 0.960 1_465 S
H47 C46 0.961 1_545 S
H48 C46 0.960 . S
H49 C46 0.960 1_645 S
C50 N51 1.342 . S
C50 C54 1.401 . S
C50 C55 1.499 . S
N51 Co34 1.989 . S
N51 C50 1.342 . S
N51 N52 1.388 . S
N52 Co35 1.993 . S
N52 N51 1.388 . S
N52 C53 1.346 . S
C53 N52 1.346 . S
C53 C54 1.396 . S
C53 C63 1.510 . S
C54 C50 1.401 . S
C54 C53 1.396 . S
C55 C50 1.499 . S
C55 H56 0.959 . S
C55 H57 0.960 . S
C55 H58 0.961 . S
H56 C55 0.959 . S
H57 C55 0.960 . S
H58 C55 0.961 . S
O59 Co34 1.967 . S
O59 C67 1.258 . S
O60 Co35 1.941 . S
O60 C67 1.266 . S
H61 C63 0.959 . S
H62 C63 0.961 1_565 S
C63 C53 1.510 . S
C63 H61 0.959 . S
C63 H62 0.961 1_545 S
C63 H64 0.960 . S
H64 C63 0.960 . S
H65 N45 0.862 . S
O66 Co34 1.920 . S
O66 C39 1.289 . S
C67 O59 1.258 . S
C67 O60 1.266 . S
Co68 O71 1.970 . S
Co68 N85 1.989 . S
Co68 O93 1.967 . S
Co68 O100 1.920 . S
Co69 O72 1.966 . S
Co69 N78 2.022 . S
Co69 N86 1.993 . S
Co69 O94 1.941 . S
C70 O71 1.258 . S
C70 O72 1.263 . S
O71 Co68 1.970 . S
O71 C70 1.258 . S
O72 Co69 1.966 . S
O72 C70 1.263 . S
C73 O74 1.235 . S
C73 O100 1.289 . S
O74 C73 1.235 . S
C75 C77 1.400 . S
C75 N78 1.351 . S
C75 C80 1.501 . S
C76 C77 1.387 . S
C76 N79 1.341 . S
C77 C75 1.400 . S
C77 C76 1.387 . S
N78 Co69 2.022 . S
N78 C75 1.351 . S
N78 N79 1.365 . S
N79 C76 1.341 . S
N79 N78 1.365 . S
N79 H99 0.862 . S
C80 C75 1.501 . S
C80 H81 0.961 . S
C80 H82 0.961 . S
C80 H83 0.960 . S
H81 C80 0.961 . S
H82 C80 0.961 . S
H83 C80 0.960 . S
C84 N85 1.342 . S
C84 C88 1.401 . S
C84 C89 1.499 . S
N85 Co68 1.989 . S
N85 C84 1.342 . S
N85 N86 1.388 . S
N86 Co69 1.993 . S
N86 N85 1.388 . S
N86 C87 1.346 . S
C87 N86 1.346 . S
C87 C88 1.396 . S
C87 C97 1.510 . S
C88 C84 1.401 . S
C88 C87 1.396 . S
C89 C84 1.499 . S
C89 H90 0.959 . S
C89 H91 0.960 . S
C89 H92 0.961 . S
H90 C89 0.959 . S
H91 C89 0.960 . S
H92 C89 0.961 . S
O93 Co68 1.967 . S
O93 C101 1.258 . S
O94 Co69 1.941 . S
O94 C101 1.266 . S
H95 C97 0.959 . S
H96 C97 0.961 . S
C97 C87 1.510 . S
C97 H95 0.959 . S
C97 H96 0.961 . S
C97 H98 0.960 . S
H98 C97 0.960 . S
H99 N79 0.862 . S
O100 Co68 1.920 . S
O100 C73 1.289 . S
C101 O93 1.258 . S
C101 O94 1.266 . S
Co102 O105 1.970 . S
Co102 N119 1.989 . S
Co102 O127 1.967 . S
Co102 O134 1.920 . S
Co103 O106 1.966 . S
Co103 N112 2.022 . S
Co103 N120 1.993 . S
Co103 O128 1.941 . S
C104 O105 1.258 . S
C104 O106 1.263 . S
O105 Co102 1.970 . S
O105 C104 1.258 . S
O106 Co103 1.966 . S
O106 C104 1.263 . S
C107 O108 1.235 . S
C107 O134 1.289 . S
O108 C107 1.235 . S
C109 C111 1.400 . S
C109 N112 1.351 . S
C109 C114 1.502 1_565 S
C110 C111 1.387 . S
C110 N113 1.341 . S
C111 C109 1.400 . S
C111 C110 1.387 . S
N112 Co103 2.022 . S
N112 C109 1.351 . S
N112 N113 1.365 . S
N113 C110 1.341 . S
N113 N112 1.365 . S
N113 H133 0.862 . S
C114 C109 1.502 1_545 S
C114 H115 0.961 1_545 S
C114 H116 0.960 . S
C114 H117 0.960 1_545 S
H115 C114 0.961 1_565 S
H116 C114 0.960 . S
H117 C114 0.960 1_565 S
C118 N119 1.342 . S
C118 C122 1.401 . S
C118 C123 1.499 . S
N119 Co102 1.989 . S
N119 C118 1.342 . S
N119 N120 1.388 . S
N120 Co103 1.993 . S
N120 N119 1.388 . S
N120 C121 1.346 . S
C121 N120 1.346 . S
C121 C122 1.396 . S
C121 C131 1.510 . S
C122 C118 1.401 . S
C122 C121 1.396 . S
C123 C118 1.499 . S
C123 H124 0.959 . S
C123 H125 0.960 . S
C123 H126 0.961 . S
H124 C123 0.959 . S
H125 C123 0.960 . S
H126 C123 0.961 . S
O127 Co102 1.967 . S
O127 C135 1.258 . S
O128 Co103 1.941 . S
O128 C135 1.266 . S
H129 C131 0.959 . S
H130 C131 0.961 1_545 S
C131 C121 1.510 . S
C131 H129 0.959 . S
C131 H130 0.961 1_565 S
C131 H132 0.960 . S
H132 C131 0.960 . S
H133 N113 0.862 . S
O134 Co102 1.920 . S
O134 C107 1.289 . S
C135 O127 1.258 . S
C135 O128 1.266 . S
Co136 O139 1.970 . S
Co136 N153 1.989 . S
Co136 O161 1.967 . S
Co136 O168 1.920 . S
Co137 O140 1.966 . S
Co137 N146 2.022 . S
Co137 N154 1.993 . S
Co137 O162 1.941 . S
C138 O139 1.258 . S
C138 O140 1.263 . S
O139 Co136 1.970 . S
O139 C138 1.258 . S
O140 Co137 1.966 . S
O140 C138 1.263 . S
C141 O142 1.235 . S
C141 O168 1.289 . S
O142 C141 1.235 . S
C143 C145 1.400 . S
C143 N146 1.351 . S
C143 C148 1.501 . S
C144 C145 1.387 . S
C144 N147 1.341 . S
C145 C143 1.400 . S
C145 C144 1.387 . S
N146 Co137 2.022 . S
N146 C143 1.351 . S
N146 N147 1.365 . S
N147 C144 1.341 . S
N147 N146 1.365 . S
N147 H167 0.862 . S
C148 C143 1.501 . S
C148 H149 0.961 . S
C148 H150 0.961 . S
C148 H151 0.960 . S
H149 C148 0.961 . S
H150 C148 0.961 . S
H151 C148 0.960 . S
C152 N153 1.342 . S
C152 C156 1.401 . S
C152 C157 1.499 . S
N153 Co136 1.989 . S
N153 C152 1.342 . S
N153 N154 1.388 . S
N154 Co137 1.993 . S
N154 N153 1.388 . S
N154 C155 1.346 . S
C155 N154 1.346 . S
C155 C156 1.396 . S
C155 C165 1.510 . S
C156 C152 1.401 . S
C156 C155 1.396 . S
C157 C152 1.499 . S
C157 H158 0.959 . S
C157 H159 0.960 . S
C157 H160 0.961 . S
H158 C157 0.959 . S
H159 C157 0.960 . S
H160 C157 0.961 . S
O161 Co136 1.967 . S
O161 C169 1.258 . S
O162 Co137 1.941 . S
O162 C169 1.266 . S
H163 C165 0.959 . S
H164 C165 0.961 . S
C165 C155 1.510 . S
C165 H163 0.959 . S
C165 H164 0.961 . S
C165 H166 0.960 . S
H166 C165 0.960 . S
H167 N147 0.862 . S
O168 Co136 1.920 . S
O168 C141 1.289 . S
C169 O161 1.258 . S
C169 O162 1.266 . S
Co170 O173 1.970 . S
Co170 N187 1.989 . S
Co170 O195 1.967 . S
Co170 O202 1.920 . S
Co171 O174 1.966 . S
Co171 N180 2.022 . S
Co171 N188 1.993 . S
Co171 O196 1.941 . S
C172 O173 1.258 . S
C172 O174 1.263 . S
O173 Co170 1.970 . S
O173 C172 1.258 . S
O174 Co171 1.966 . S
O174 C172 1.263 . S
C175 O176 1.235 . S
C175 O202 1.289 . S
O176 C175 1.235 . S
C177 C179 1.400 . S
C177 N180 1.351 . S
C177 C182 1.502 1_545 S
C178 C179 1.387 . S
C178 N181 1.341 . S
C179 C177 1.400 . S
C179 C178 1.387 . S
N180 Co171 2.022 . S
N180 C177 1.351 . S
N180 N181 1.365 . S
N181 C178 1.341 . S
N181 N180 1.365 . S
N181 H201 0.862 . S
C182 C177 1.502 1_565 S
C182 H183 0.961 1_565 S
C182 H184 0.960 . S
C182 H185 0.960 1_565 S
H183 C182 0.961 1_545 S
H184 C182 0.960 . S
H185 C182 0.960 1_545 S
C186 N187 1.342 . S
C186 C190 1.401 . S
C186 C191 1.499 . S
N187 Co170 1.989 . S
N187 C186 1.342 . S
N187 N188 1.388 . S
N188 Co171 1.993 . S
N188 N187 1.388 . S
N188 C189 1.346 . S
C189 N188 1.346 . S
C189 C190 1.396 . S
C189 C199 1.510 . S
C190 C186 1.401 . S
C190 C189 1.396 . S
C191 C186 1.499 . S
C191 H192 0.959 . S
C191 H193 0.960 . S
C191 H194 0.961 . S
H192 C191 0.959 . S
H193 C191 0.960 . S
H194 C191 0.961 . S
O195 Co170 1.967 . S
O195 C203 1.258 . S
O196 Co171 1.941 . S
O196 C203 1.266 . S
H197 C199 0.959 . S
H198 C199 0.961 1_565 S
C199 C189 1.510 . S
C199 H197 0.959 . S
C199 H198 0.961 1_545 S
C199 H200 0.960 . S
H200 C199 0.960 . S
H201 N181 0.862 . S
O202 Co170 1.920 . S
O202 C175 1.289 . S
C203 O195 1.258 . S
C203 O196 1.266 . S
Co204 O207 1.970 . S
Co204 N221 1.989 . S
Co204 O229 1.967 . S
Co204 O236 1.920 . S
Co205 O208 1.966 . S
Co205 N214 2.022 . S
Co205 N222 1.993 . S
Co205 O230 1.941 . S
C206 O207 1.258 . S
C206 O208 1.263 . S
O207 Co204 1.970 . S
O207 C206 1.258 . S
O208 Co205 1.966 . S
O208 C206 1.263 . S
C209 O210 1.235 . S
C209 O236 1.289 . S
O210 C209 1.235 . S
C211 C213 1.400 . S
C211 N214 1.351 . S
C211 C216 1.501 . S
C212 C213 1.387 . S
C212 N215 1.341 . S
C213 C211 1.400 . S
C213 C212 1.387 . S
N214 Co205 2.022 . S
N214 C211 1.351 . S
N214 N215 1.365 . S
N215 C212 1.341 . S
N215 N214 1.365 . S
N215 H235 0.862 . S
C216 C211 1.501 . S
C216 H217 0.961 . S
C216 H218 0.961 . S
C216 H219 0.960 . S
H217 C216 0.961 . S
H218 C216 0.961 . S
H219 C216 0.960 . S
C220 N221 1.342 . S
C220 C224 1.401 . S
C220 C225 1.499 . S
N221 Co204 1.989 . S
N221 C220 1.342 . S
N221 N222 1.388 . S
N222 Co205 1.993 . S
N222 N221 1.388 . S
N222 C223 1.346 . S
C223 N222 1.346 . S
C223 C224 1.396 . S
C223 C233 1.510 . S
C224 C220 1.401 . S
C224 C223 1.396 . S
C225 C220 1.499 . S
C225 H226 0.959 . S
C225 H227 0.960 . S
C225 H228 0.961 . S
H226 C225 0.959 . S
H227 C225 0.960 . S
H228 C225 0.961 . S
O229 Co204 1.967 . S
O229 C237 1.258 . S
O230 Co205 1.941 . S
O230 C237 1.266 . S
H231 C233 0.959 . S
H232 C233 0.961 . S
C233 C223 1.510 . S
C233 H231 0.959 . S
C233 H232 0.961 . S
C233 H234 0.960 . S
H234 C233 0.960 . S
H235 N215 0.862 . S
O236 Co204 1.920 . S
O236 C209 1.289 . S
C237 O229 1.258 . S
C237 O230 1.266 . S
Co238 O241 1.970 . S
Co238 N255 1.989 . S
Co238 O263 1.967 . S
Co238 O270 1.920 . S
Co239 O242 1.966 . S
Co239 N248 2.022 . S
Co239 N256 1.993 . S
Co239 O264 1.941 . S
C240 O241 1.258 . S
C240 O242 1.263 . S
O241 Co238 1.970 . S
O241 C240 1.258 . S
O242 Co239 1.966 . S
O242 C240 1.263 . S
C243 O244 1.235 . S
C243 O270 1.289 . S
O244 C243 1.235 . S
C245 C247 1.400 . S
C245 N248 1.351 . S
C245 C250 1.502 1_565 S
C246 C247 1.387 . S
C246 N249 1.341 . S
C247 C245 1.400 . S
C247 C246 1.387 . S
N248 Co239 2.022 . S
N248 C245 1.351 . S
N248 N249 1.365 . S
N249 C246 1.341 . S
N249 N248 1.365 . S
N249 H269 0.862 . S
C250 C245 1.502 1_545 S
C250 H251 0.961 1_545 S
C250 H252 0.960 . S
C250 H253 0.960 1_445 S
H251 C250 0.961 1_565 S
H252 C250 0.960 . S
H253 C250 0.960 1_665 S
C254 N255 1.342 . S
C254 C258 1.401 . S
C254 C259 1.499 . S
N255 Co238 1.989 . S
N255 C254 1.342 . S
N255 N256 1.388 . S
N256 Co239 1.993 . S
N256 N255 1.388 . S
N256 C257 1.346 . S
C257 N256 1.346 . S
C257 C258 1.396 . S
C257 C267 1.510 . S
C258 C254 1.401 . S
C258 C257 1.396 . S
C259 C254 1.499 . S
C259 H260 0.959 . S
C259 H261 0.960 . S
C259 H262 0.961 . S
H260 C259 0.959 . S
H261 C259 0.960 . S
H262 C259 0.961 . S
O263 Co238 1.967 . S
O263 C271 1.258 . S
O264 Co239 1.941 . S
O264 C271 1.266 . S
H265 C267 0.959 . S
H266 C267 0.961 1_545 S
C267 C257 1.510 . S
C267 H265 0.959 . S
C267 H266 0.961 1_565 S
C267 H268 0.960 . S
H268 C267 0.960 . S
H269 N249 0.862 . S
O270 Co238 1.920 . S
O270 C243 1.289 . S
C271 O263 1.258 . S
C271 O264 1.266 . S
Co272 O275 1.970 . S
Co272 N289 1.989 . S
Co272 O297 1.967 . S
Co272 O304 1.920 . S
Co273 O276 1.966 . S
Co273 N282 2.022 . S
Co273 N290 1.993 . S
Co273 O298 1.941 . S
C274 O275 1.258 . S
C274 O276 1.263 . S
O275 Co272 1.970 . S
O275 C274 1.258 . S
O276 Co273 1.966 . S
O276 C274 1.263 . S
C277 O278 1.235 . S
C277 O304 1.289 . S
O278 C277 1.235 . S
C279 C281 1.400 . S
C279 N282 1.351 . S
C279 C284 1.501 . S
C280 C281 1.387 . S
C280 N283 1.341 . S
C281 C279 1.400 . S
C281 C280 1.387 . S
N282 Co273 2.022 . S
N282 C279 1.351 . S
N282 N283 1.365 . S
N283 C280 1.341 . S
N283 N282 1.365 . S
N283 H303 0.862 . S
C284 C279 1.501 . S
C284 H285 0.961 . S
C284 H286 0.961 . S
C284 H287 0.960 . S
H285 C284 0.961 . S
H286 C284 0.961 . S
H287 C284 0.960 . S
C288 N289 1.342 . S
C288 C292 1.401 . S
C288 C293 1.499 . S
N289 Co272 1.989 . S
N289 C288 1.342 . S
N289 N290 1.388 . S
N290 Co273 1.993 . S
N290 N289 1.388 . S
N290 C291 1.346 . S
C291 N290 1.346 . S
C291 C292 1.396 . S
C291 C301 1.510 . S
C292 C288 1.401 . S
C292 C291 1.396 . S
C293 C288 1.499 . S
C293 H294 0.959 . S
C293 H295 0.960 . S
C293 H296 0.961 . S
H294 C293 0.959 . S
H295 C293 0.960 . S
H296 C293 0.961 . S
O297 Co272 1.967 . S
O297 C305 1.258 . S
O298 Co273 1.941 . S
O298 C305 1.266 . S
H299 C301 0.959 . S
H300 C301 0.961 . S
C301 C291 1.510 . S
C301 H299 0.959 . S
C301 H300 0.961 . S
C301 H302 0.960 . S
H302 C301 0.960 . S
H303 N283 0.862 . S
O304 Co272 1.920 . S
O304 C277 1.289 . S
C305 O297 1.258 . S
C305 O298 1.266 . S
Co306 O309 1.970 . S
Co306 N323 1.989 . S
Co306 O331 1.967 . S
Co306 O338 1.920 . S
Co307 O310 1.966 . S
Co307 N316 2.022 . S
Co307 N324 1.993 . S
Co307 O332 1.941 . S
C308 O309 1.258 . S
C308 O310 1.263 . S
O309 Co306 1.970 . S
O309 C308 1.258 . S
O310 Co307 1.966 . S
O310 C308 1.263 . S
C311 O312 1.235 1_565 S
C311 O338 1.289 . S
O312 C311 1.235 1_545 S
C313 C315 1.400 . S
C313 N316 1.351 . S
C313 C318 1.501 . S
C314 C315 1.387 . S
C314 N317 1.341 . S
C315 C313 1.400 . S
C315 C314 1.387 . S
N316 Co307 2.022 . S
N316 C313 1.351 . S
N316 N317 1.365 . S
N317 C314 1.341 . S
N317 N316 1.365 . S
N317 H337 0.862 . S
C318 C313 1.501 . S
C318 H319 0.961 . S
C318 H320 0.961 . S
C318 H321 0.960 . S
H319 C318 0.961 . S
H320 C318 0.961 . S
H321 C318 0.960 . S
C322 N323 1.342 . S
C322 C326 1.401 . S
C322 C327 1.499 . S
N323 Co306 1.989 . S
N323 C322 1.342 . S
N323 N324 1.388 . S
N324 Co307 1.993 . S
N324 N323 1.388 . S
N324 C325 1.346 . S
C325 N324 1.346 . S
C325 C326 1.396 . S
C325 C335 1.510 . S
C326 C322 1.401 . S
C326 C325 1.396 . S
C327 C322 1.499 . S
C327 H328 0.959 . S
C327 H329 0.960 . S
C327 H330 0.961 . S
H328 C327 0.959 . S
H329 C327 0.960 . S
H330 C327 0.961 . S
O331 Co306 1.967 . S
O331 C339 1.258 . S
O332 Co307 1.941 . S
O332 C339 1.266 . S
H333 C335 0.959 . S
H334 C335 0.961 . S
C335 C325 1.510 . S
C335 H333 0.959 . S
C335 H334 0.961 . S
C335 H336 0.960 . S
H336 C335 0.960 . S
H337 N317 0.862 . S
O338 Co306 1.920 . S
O338 C311 1.289 . S
C339 O331 1.258 . S
C339 O332 1.266 . S
Co340 O343 1.970 . S
Co340 N357 1.989 . S
Co340 O365 1.967 . S
Co340 O372 1.920 . S
Co341 O344 1.966 . S
Co341 N350 2.022 . S
Co341 N358 1.993 . S
Co341 O366 1.941 . S
C342 O343 1.258 . S
C342 O344 1.263 . S
O343 Co340 1.970 . S
O343 C342 1.258 . S
O344 Co341 1.966 . S
O344 C342 1.263 . S
C345 O346 1.235 . S
C345 O372 1.289 . S
O346 C345 1.235 . S
C347 C349 1.400 . S
C347 N350 1.351 . S
C347 C352 1.501 . S
C348 C349 1.387 . S
C348 N351 1.341 . S
C349 C347 1.400 . S
C349 C348 1.387 . S
N350 Co341 2.022 . S
N350 C347 1.351 . S
N350 N351 1.365 . S
N351 C348 1.341 . S
N351 N350 1.365 . S
N351 H371 0.862 . S
C352 C347 1.501 . S
C352 H353 0.961 . S
C352 H354 0.961 . S
C352 H355 0.960 . S
H353 C352 0.961 . S
H354 C352 0.961 . S
H355 C352 0.960 . S
C356 N357 1.342 . S
C356 C360 1.401 . S
C356 C361 1.499 . S
N357 Co340 1.989 . S
N357 C356 1.342 . S
N357 N358 1.388 . S
N358 Co341 1.993 . S
N358 N357 1.388 . S
N358 C359 1.346 . S
C359 N358 1.346 . S
C359 C360 1.396 . S
C359 C369 1.510 . S
C360 C356 1.401 . S
C360 C359 1.396 . S
C361 C356 1.499 . S
C361 H362 0.959 . S
C361 H363 0.960 . S
C361 H364 0.961 . S
H362 C361 0.959 . S
H363 C361 0.960 . S
H364 C361 0.961 . S
O365 Co340 1.967 . S
O365 C373 1.258 . S
O366 Co341 1.941 . S
O366 C373 1.266 . S
H367 C369 0.959 . S
H368 C369 0.961 . S
C369 C359 1.510 . S
C369 H367 0.959 . S
C369 H368 0.961 . S
C369 H370 0.960 . S
H370 C369 0.960 . S
H371 N351 0.862 . S
O372 Co340 1.920 . S
O372 C345 1.289 . S
C373 O365 1.258 . S
C373 O366 1.266 . S
Co374 O377 1.970 . S
Co374 N391 1.989 . S
Co374 O399 1.967 . S
Co374 O406 1.920 . S
Co375 O378 1.966 . S
Co375 N384 2.022 . S
Co375 N392 1.993 . S
Co375 O400 1.941 . S
C376 O377 1.258 . S
C376 O378 1.263 . S
O377 Co374 1.970 . S
O377 C376 1.258 . S
O378 Co375 1.966 . S
O378 C376 1.263 . S
C379 O380 1.235 1_545 S
C379 O406 1.289 . S
O380 C379 1.235 1_565 S
C381 C383 1.400 . S
C381 N384 1.351 . S
C381 C386 1.501 . S
C382 C383 1.387 . S
C382 N385 1.341 . S
C383 C381 1.400 . S
C383 C382 1.387 . S
N384 Co375 2.022 . S
N384 C381 1.351 . S
N384 N385 1.365 . S
N385 C382 1.341 . S
N385 N384 1.365 . S
N385 H405 0.862 . S
C386 C381 1.501 . S
C386 H387 0.961 . S
C386 H388 0.961 . S
C386 H389 0.960 . S
H387 C386 0.961 . S
H388 C386 0.961 . S
H389 C386 0.960 . S
C390 N391 1.342 . S
C390 C394 1.401 . S
C390 C395 1.499 . S
N391 Co374 1.989 . S
N391 C390 1.342 . S
N391 N392 1.388 . S
N392 Co375 1.993 . S
N392 N391 1.388 . S
N392 C393 1.346 . S
C393 N392 1.346 . S
C393 C394 1.396 . S
C393 C403 1.510 . S
C394 C390 1.401 . S
C394 C393 1.396 . S
C395 C390 1.499 . S
C395 H396 0.959 . S
C395 H397 0.960 . S
C395 H398 0.961 . S
H396 C395 0.959 . S
H397 C395 0.960 . S
H398 C395 0.961 . S
O399 Co374 1.967 . S
O399 C407 1.258 . S
O400 Co375 1.941 . S
O400 C407 1.266 . S
H401 C403 0.959 . S
H402 C403 0.961 . S
C403 C393 1.510 . S
C403 H401 0.959 . S
C403 H402 0.961 . S
C403 H404 0.960 . S
H404 C403 0.960 . S
H405 N385 0.862 . S
O406 Co374 1.920 . S
O406 C379 1.289 . S
C407 O399 1.258 . S
C407 O400 1.266 . S
Co408 O411 1.970 . S
Co408 N425 1.989 . S
Co408 O433 1.967 . S
Co408 O440 1.920 . S
Co409 O412 1.966 . S
Co409 N418 2.022 . S
Co409 N426 1.993 . S
Co409 O434 1.941 . S
C410 O411 1.258 . S
C410 O412 1.263 . S
O411 Co408 1.970 . S
O411 C410 1.258 . S
O412 Co409 1.966 . S
O412 C410 1.263 . S
C413 O414 1.235 . S
C413 O440 1.289 . S
O414 C413 1.235 . S
C415 C417 1.400 . S
C415 N418 1.351 . S
C415 C420 1.501 . S
C416 C417 1.387 . S
C416 N419 1.341 . S
C417 C415 1.400 . S
C417 C416 1.387 . S
N418 Co409 2.022 . S
N418 C415 1.351 . S
N418 N419 1.365 . S
N419 C416 1.341 . S
N419 N418 1.365 . S
N419 H439 0.862 . S
C420 C415 1.501 . S
C420 H421 0.961 . S
C420 H422 0.961 . S
C420 H423 0.960 . S
H421 C420 0.961 . S
H422 C420 0.961 . S
H423 C420 0.960 . S
C424 N425 1.342 . S
C424 C428 1.401 . S
C424 C429 1.499 . S
N425 Co408 1.989 . S
N425 C424 1.342 . S
N425 N426 1.388 . S
N426 Co409 1.993 . S
N426 N425 1.388 . S
N426 C427 1.346 . S
C427 N426 1.346 . S
C427 C428 1.396 . S
C427 C437 1.510 . S
C428 C424 1.401 . S
C428 C427 1.396 . S
C429 C424 1.499 . S
C429 H430 0.959 . S
C429 H431 0.960 . S
C429 H432 0.961 . S
H430 C429 0.959 . S
H431 C429 0.960 . S
H432 C429 0.961 . S
O433 Co408 1.967 . S
O433 C441 1.258 . S
O434 Co409 1.941 . S
O434 C441 1.266 . S
H435 C437 0.959 . S
H436 C437 0.961 . S
C437 C427 1.510 . S
C437 H435 0.959 . S
C437 H436 0.961 . S
C437 H438 0.960 . S
H438 C437 0.960 . S
H439 N419 0.862 . S
O440 Co408 1.920 . S
O440 C413 1.289 . S
C441 O433 1.258 . S
C441 O434 1.266 . S
Co442 O445 1.970 . S
Co442 N459 1.989 . S
Co442 O467 1.967 . S
Co442 O474 1.920 . S
Co443 O446 1.966 . S
Co443 N452 2.022 . S
Co443 N460 1.993 . S
Co443 O468 1.941 . S
C444 O445 1.258 . S
C444 O446 1.263 . S
O445 Co442 1.970 . S
O445 C444 1.258 . S
O446 Co443 1.966 . S
O446 C444 1.263 . S
C447 O448 1.235 1_565 S
C447 O474 1.289 . S
O448 C447 1.235 1_545 S
C449 C451 1.400 . S
C449 N452 1.351 . S
C449 C454 1.501 . S
C450 C451 1.387 . S
C450 N453 1.341 . S
C451 C449 1.400 . S
C451 C450 1.387 . S
N452 Co443 2.022 . S
N452 C449 1.351 . S
N452 N453 1.365 . S
N453 C450 1.341 . S
N453 N452 1.365 . S
N453 H473 0.862 . S
C454 C449 1.501 . S
C454 H455 0.961 . S
C454 H456 0.961 . S
C454 H457 0.960 . S
H455 C454 0.961 . S
H456 C454 0.961 . S
H457 C454 0.960 . S
C458 N459 1.342 . S
C458 C462 1.401 . S
C458 C463 1.499 . S
N459 Co442 1.989 . S
N459 C458 1.342 . S
N459 N460 1.388 . S
N460 Co443 1.993 . S
N460 N459 1.388 . S
N460 C461 1.346 . S
C461 N460 1.346 . S
C461 C462 1.396 . S
C461 C471 1.510 . S
C462 C458 1.401 . S
C462 C461 1.396 . S
C463 C458 1.499 . S
C463 H464 0.959 . S
C463 H465 0.960 . S
C463 H466 0.961 . S
H464 C463 0.959 . S
H465 C463 0.960 . S
H466 C463 0.961 . S
O467 Co442 1.967 . S
O467 C475 1.258 . S
O468 Co443 1.941 . S
O468 C475 1.266 . S
H469 C471 0.959 . S
H470 C471 0.961 . S
C471 C461 1.510 . S
C471 H469 0.959 . S
C471 H470 0.961 . S
C471 H472 0.960 . S
H472 C471 0.960 . S
H473 N453 0.862 . S
O474 Co442 1.920 . S
O474 C447 1.289 . S
C475 O467 1.258 . S
C475 O468 1.266 . S
Co476 O479 1.970 . S
Co476 N493 1.989 . S
Co476 O501 1.967 . S
Co476 O508 1.920 . S
Co477 O480 1.966 . S
Co477 N486 2.022 . S
Co477 N494 1.993 . S
Co477 O502 1.941 . S
C478 O479 1.258 . S
C478 O480 1.263 . S
O479 Co476 1.970 . S
O479 C478 1.258 . S
O480 Co477 1.966 . S
O480 C478 1.263 . S
C481 O482 1.235 . S
C481 O508 1.289 . S
O482 C481 1.235 . S
C483 C485 1.400 . S
C483 N486 1.351 . S
C483 C488 1.501 . S
C484 C485 1.387 . S
C484 N487 1.341 . S
C485 C483 1.400 . S
C485 C484 1.387 . S
N486 Co477 2.022 . S
N486 C483 1.351 . S
N486 N487 1.365 . S
N487 C484 1.341 . S
N487 N486 1.365 . S
N487 H507 0.862 . S
C488 C483 1.501 . S
C488 H489 0.961 . S
C488 H490 0.961 . S
C488 H491 0.960 . S
H489 C488 0.961 . S
H490 C488 0.961 . S
H491 C488 0.960 . S
C492 N493 1.342 . S
C492 C496 1.401 . S
C492 C497 1.499 . S
N493 Co476 1.989 . S
N493 C492 1.342 . S
N493 N494 1.388 . S
N494 Co477 1.993 . S
N494 N493 1.388 . S
N494 C495 1.346 . S
C495 N494 1.346 . S
C495 C496 1.396 . S
C495 C505 1.510 . S
C496 C492 1.401 . S
C496 C495 1.396 . S
C497 C492 1.499 . S
C497 H498 0.959 . S
C497 H499 0.960 . S
C497 H500 0.961 . S
H498 C497 0.959 . S
H499 C497 0.960 . S
H500 C497 0.961 . S
O501 Co476 1.967 . S
O501 C509 1.258 . S
O502 Co477 1.941 . S
O502 C509 1.266 . S
H503 C505 0.959 . S
H504 C505 0.961 . S
C505 C495 1.510 . S
C505 H503 0.959 . S
C505 H504 0.961 . S
C505 H506 0.960 . S
H506 C505 0.960 . S
H507 N487 0.862 . S
O508 Co476 1.920 . S
O508 C481 1.289 . S
C509 O501 1.258 . S
C509 O502 1.266 . S
Co510 O513 1.970 . S
Co510 N527 1.989 . S
Co510 O535 1.967 . S
Co510 O542 1.920 . S
Co511 O514 1.966 . S
Co511 N520 2.022 . S
Co511 N528 1.993 . S
Co511 O536 1.941 . S
C512 O513 1.258 . S
C512 O514 1.263 . S
O513 Co510 1.970 . S
O513 C512 1.258 . S
O514 Co511 1.966 . S
O514 C512 1.263 . S
C515 O516 1.235 1_545 S
C515 O542 1.289 . S
O516 C515 1.235 1_565 S
C517 C519 1.400 . S
C517 N520 1.351 . S
C517 C522 1.501 . S
C518 C519 1.387 . S
C518 N521 1.341 . S
C519 C517 1.400 . S
C519 C518 1.387 . S
N520 Co511 2.022 . S
N520 C517 1.351 . S
N520 N521 1.365 . S
N521 C518 1.341 . S
N521 N520 1.365 . S
N521 H541 0.862 . S
C522 C517 1.501 . S
C522 H523 0.961 . S
C522 H524 0.961 . S
C522 H525 0.960 . S
H523 C522 0.961 . S
H524 C522 0.961 . S
H525 C522 0.960 . S
C526 N527 1.342 . S
C526 C530 1.401 . S
C526 C531 1.499 . S
N527 Co510 1.989 . S
N527 C526 1.342 . S
N527 N528 1.388 . S
N528 Co511 1.993 . S
N528 N527 1.388 . S
N528 C529 1.346 . S
C529 N528 1.346 . S
C529 C530 1.396 . S
C529 C539 1.510 . S
C530 C526 1.401 . S
C530 C529 1.396 . S
C531 C526 1.499 . S
C531 H532 0.959 . S
C531 H533 0.960 . S
C531 H534 0.961 . S
H532 C531 0.959 . S
H533 C531 0.960 . S
H534 C531 0.961 . S
O535 Co510 1.967 . S
O535 C543 1.258 . S
O536 Co511 1.941 . S
O536 C543 1.266 . S
H537 C539 0.959 . S
H538 C539 0.961 . S
C539 C529 1.510 . S
C539 H537 0.959 . S
C539 H538 0.961 . S
C539 H540 0.960 . S
H540 C539 0.960 . S
H541 N521 0.862 . S
O542 Co510 1.920 . S
O542 C515 1.289 . S
C543 O535 1.258 . S
C543 O536 1.266 . S
Co544 O547 1.970 . S
Co544 N561 1.989 . S
Co544 O569 1.967 . S
Co544 O576 1.920 . S
Co545 O548 1.966 . S
Co545 N554 2.022 . S
Co545 N562 1.993 . S
Co545 O570 1.941 . S
C546 O547 1.258 . S
C546 O548 1.263 . S
O547 Co544 1.970 . S
O547 C546 1.258 . S
O548 Co545 1.966 . S
O548 C546 1.263 . S
C549 O550 1.235 . S
C549 O576 1.289 . S
O550 C549 1.235 . S
C551 C553 1.400 . S
C551 N554 1.351 . S
C551 C556 1.501 . S
C552 C553 1.387 . S
C552 N555 1.341 . S
C553 C551 1.400 . S
C553 C552 1.387 . S
N554 Co545 2.022 . S
N554 C551 1.351 . S
N554 N555 1.365 . S
N555 C552 1.341 . S
N555 N554 1.365 . S
N555 H575 0.862 . S
C556 C551 1.501 . S
C556 H557 0.961 . S
C556 H558 0.961 . S
C556 H559 0.960 . S
H557 C556 0.961 . S
H558 C556 0.961 . S
H559 C556 0.960 . S
C560 N561 1.342 . S
C560 C564 1.401 . S
C560 C565 1.499 . S
N561 Co544 1.989 . S
N561 C560 1.342 . S
N561 N562 1.388 . S
N562 Co545 1.993 . S
N562 N561 1.388 . S
N562 C563 1.346 . S
C563 N562 1.346 . S
C563 C564 1.396 . S
C563 C573 1.510 . S
C564 C560 1.401 . S
C564 C563 1.396 . S
C565 C560 1.499 . S
C565 H566 0.959 . S
C565 H567 0.960 . S
C565 H568 0.961 . S
H566 C565 0.959 . S
H567 C565 0.960 . S
H568 C565 0.961 . S
O569 Co544 1.967 . S
O569 C577 1.258 . S
O570 Co545 1.941 . S
O570 C577 1.266 . S
H571 C573 0.959 . S
H572 C573 0.961 . S
C573 C563 1.510 . S
C573 H571 0.959 . S
C573 H572 0.961 . S
C573 H574 0.960 . S
H574 C573 0.960 . S
H575 N555 0.862 . S
O576 Co544 1.920 . S
O576 C549 1.289 . S
C577 O569 1.258 . S
C577 O570 1.266 . S
Co578 O581 1.970 . S
Co578 N595 1.989 . S
Co578 O603 1.967 . S
Co578 O610 1.920 . S
Co579 O582 1.966 . S
Co579 N588 2.022 . S
Co579 N596 1.993 . S
Co579 O604 1.941 . S
C580 O581 1.258 . S
C580 O582 1.263 . S
O581 Co578 1.970 . S
O581 C580 1.258 . S
O582 Co579 1.966 . S
O582 C580 1.263 . S
C583 O584 1.235 . S
C583 O610 1.289 . S
O584 C583 1.235 . S
C585 C587 1.400 . S
C585 N588 1.351 . S
C585 C590 1.501 . S
C586 C587 1.387 . S
C586 N589 1.341 . S
C587 C585 1.400 . S
C587 C586 1.387 . S
N588 Co579 2.022 . S
N588 C585 1.351 . S
N588 N589 1.365 . S
N589 C586 1.341 . S
N589 N588 1.365 . S
N589 H609 0.862 . S
C590 C585 1.501 . S
C590 H591 0.961 . S
C590 H592 0.961 . S
C590 H593 0.960 . S
H591 C590 0.961 . S
H592 C590 0.961 . S
H593 C590 0.960 . S
C594 N595 1.342 . S
C594 C598 1.401 . S
C594 C599 1.499 . S
N595 Co578 1.989 . S
N595 C594 1.342 . S
N595 N596 1.388 . S
N596 Co579 1.993 . S
N596 N595 1.388 . S
N596 C597 1.346 . S
C597 N596 1.346 . S
C597 C598 1.396 . S
C597 C607 1.510 . S
C598 C594 1.401 . S
C598 C597 1.396 . S
C599 C594 1.499 . S
C599 H600 0.959 . S
C599 H601 0.960 . S
C599 H602 0.961 . S
H600 C599 0.959 . S
H601 C599 0.960 . S
H602 C599 0.961 . S
O603 Co578 1.967 . S
O603 C611 1.258 . S
O604 Co579 1.941 . S
O604 C611 1.266 . S
H605 C607 0.959 . S
H606 C607 0.961 . S
C607 C597 1.510 . S
C607 H605 0.959 . S
C607 H606 0.961 . S
C607 H608 0.960 . S
H608 C607 0.960 . S
H609 N589 0.862 . S
O610 Co578 1.920 . S
O610 C583 1.289 . S
C611 O603 1.258 . S
C611 O604 1.266 . S
Co612 O615 1.970 . S
Co612 N629 1.989 . S
Co612 O637 1.967 . S
Co612 O644 1.920 . S
Co613 O616 1.966 . S
Co613 N622 2.022 . S
Co613 N630 1.993 . S
Co613 O638 1.941 . S
C614 O615 1.258 . S
C614 O616 1.263 . S
O615 Co612 1.970 . S
O615 C614 1.258 . S
O616 Co613 1.966 . S
O616 C614 1.263 . S
C617 O618 1.235 . S
C617 O644 1.289 . S
O618 C617 1.235 . S
C619 C621 1.400 . S
C619 N622 1.351 . S
C619 C624 1.501 . S
C620 C621 1.387 . S
C620 N623 1.341 . S
C621 C619 1.400 . S
C621 C620 1.387 . S
N622 Co613 2.022 . S
N622 C619 1.351 . S
N622 N623 1.365 . S
N623 C620 1.341 . S
N623 N622 1.365 . S
N623 H643 0.862 . S
C624 C619 1.501 . S
C624 H625 0.961 . S
C624 H626 0.961 . S
C624 H627 0.960 . S
H625 C624 0.961 . S
H626 C624 0.961 . S
H627 C624 0.960 . S
C628 N629 1.342 . S
C628 C632 1.401 . S
C628 C633 1.499 . S
N629 Co612 1.989 . S
N629 C628 1.342 . S
N629 N630 1.388 . S
N630 Co613 1.993 . S
N630 N629 1.388 . S
N630 C631 1.346 . S
C631 N630 1.346 . S
C631 C632 1.396 . S
C631 C641 1.510 . S
C632 C628 1.401 . S
C632 C631 1.396 . S
C633 C628 1.499 . S
C633 H634 0.959 . S
C633 H635 0.960 . S
C633 H636 0.961 . S
H634 C633 0.959 . S
H635 C633 0.960 . S
H636 C633 0.961 . S
O637 Co612 1.967 . S
O637 C645 1.258 . S
O638 Co613 1.941 . S
O638 C645 1.266 . S
H639 C641 0.959 . S
H640 C641 0.961 . S
C641 C631 1.510 . S
C641 H639 0.959 . S
C641 H640 0.961 . S
C641 H642 0.960 . S
H642 C641 0.960 . S
H643 N623 0.862 . S
O644 Co612 1.920 . S
O644 C617 1.289 . S
C645 O637 1.258 . S
C645 O638 1.266 . S
Co646 O649 1.970 . S
Co646 N663 1.989 . S
Co646 O671 1.967 . S
Co646 O678 1.920 . S
Co647 O650 1.966 . S
Co647 N656 2.022 . S
Co647 N664 1.993 . S
Co647 O672 1.941 . S
C648 O649 1.258 . S
C648 O650 1.263 . S
O649 Co646 1.970 . S
O649 C648 1.258 . S
O650 Co647 1.966 . S
O650 C648 1.263 . S
C651 O652 1.235 . S
C651 O678 1.289 . S
O652 C651 1.235 . S
C653 C655 1.400 . S
C653 N656 1.351 . S
C653 C658 1.501 . S
C654 C655 1.387 . S
C654 N657 1.341 . S
C655 C653 1.400 . S
C655 C654 1.387 . S
N656 Co647 2.022 . S
N656 C653 1.351 . S
N656 N657 1.365 . S
N657 C654 1.341 . S
N657 N656 1.365 . S
N657 H677 0.862 . S
C658 C653 1.501 . S
C658 H659 0.961 . S
C658 H660 0.961 . S
C658 H661 0.960 1_655 S
H659 C658 0.961 . S
H660 C658 0.961 . S
H661 C658 0.960 1_455 S
C662 N663 1.342 . S
C662 C666 1.401 . S
C662 C667 1.499 . S
N663 Co646 1.989 . S
N663 C662 1.342 . S
N663 N664 1.388 . S
N664 Co647 1.993 . S
N664 N663 1.388 . S
N664 C665 1.346 . S
C665 N664 1.346 . S
C665 C666 1.396 . S
C665 C675 1.510 . S
C666 C662 1.401 . S
C666 C665 1.396 . S
C667 C662 1.499 . S
C667 H668 0.959 . S
C667 H669 0.960 . S
C667 H670 0.961 . S
H668 C667 0.959 . S
H669 C667 0.960 . S
H670 C667 0.961 . S
O671 Co646 1.967 . S
O671 C679 1.258 . S
O672 Co647 1.941 . S
O672 C679 1.266 . S
H673 C675 0.959 . S
H674 C675 0.961 . S
C675 C665 1.510 . S
C675 H673 0.959 . S
C675 H674 0.961 . S
C675 H676 0.960 . S
H676 C675 0.960 . S
H677 N657 0.862 . S
O678 Co646 1.920 . S
O678 C651 1.289 . S
C679 O671 1.258 . S
C679 O672 1.266 . S
Co680 O683 1.970 . S
Co680 N697 1.989 . S
Co680 O705 1.967 . S
Co680 O712 1.920 . S
Co681 O684 1.966 . S
Co681 N690 2.022 . S
Co681 N698 1.993 . S
Co681 O706 1.941 . S
C682 O683 1.258 . S
C682 O684 1.263 . S
O683 Co680 1.970 . S
O683 C682 1.258 . S
O684 Co681 1.966 . S
O684 C682 1.263 . S
C685 O686 1.235 . S
C685 O712 1.289 . S
O686 C685 1.235 . S
C687 C689 1.400 . S
C687 N690 1.351 . S
C687 C692 1.501 . S
C688 C689 1.387 . S
C688 N691 1.341 . S
C689 C687 1.400 . S
C689 C688 1.387 . S
N690 Co681 2.022 . S
N690 C687 1.351 . S
N690 N691 1.365 . S
N691 C688 1.341 . S
N691 N690 1.365 . S
N691 H711 0.862 . S
C692 C687 1.501 . S
C692 H693 0.961 . S
C692 H694 0.961 . S
C692 H695 0.960 . S
H693 C692 0.961 . S
H694 C692 0.961 . S
H695 C692 0.960 . S
C696 N697 1.342 . S
C696 C700 1.401 . S
C696 C701 1.499 . S
N697 Co680 1.989 . S
N697 C696 1.342 . S
N697 N698 1.388 . S
N698 Co681 1.993 . S
N698 N697 1.388 . S
N698 C699 1.346 . S
C699 N698 1.346 . S
C699 C700 1.396 . S
C699 C709 1.510 . S
C700 C696 1.401 . S
C700 C699 1.396 . S
C701 C696 1.499 . S
C701 H702 0.959 . S
C701 H703 0.960 . S
C701 H704 0.961 . S
H702 C701 0.959 . S
H703 C701 0.960 . S
H704 C701 0.961 . S
O705 Co680 1.967 . S
O705 C713 1.258 . S
O706 Co681 1.941 . S
O706 C713 1.266 . S
H707 C709 0.959 . S
H708 C709 0.961 . S
C709 C699 1.510 . S
C709 H707 0.959 . S
C709 H708 0.961 . S
C709 H710 0.960 . S
H710 C709 0.960 . S
H711 N691 0.862 . S
O712 Co680 1.920 . S
O712 C685 1.289 . S
C713 O705 1.258 . S
C713 O706 1.266 . S
Co714 O717 1.970 . S
Co714 N731 1.989 . S
Co714 O739 1.967 . S
Co714 O746 1.920 . S
Co715 O718 1.966 . S
Co715 N724 2.022 . S
Co715 N732 1.993 . S
Co715 O740 1.941 . S
C716 O717 1.258 . S
C716 O718 1.263 . S
O717 Co714 1.970 . S
O717 C716 1.258 . S
O718 Co715 1.966 . S
O718 C716 1.263 . S
C719 O720 1.235 . S
C719 O746 1.289 . S
O720 C719 1.235 . S
C721 C723 1.400 . S
C721 N724 1.351 . S
C721 C726 1.501 . S
C722 C723 1.387 . S
C722 N725 1.341 . S
C723 C721 1.400 . S
C723 C722 1.387 . S
N724 Co715 2.022 . S
N724 C721 1.351 . S
N724 N725 1.365 . S
N725 C722 1.341 . S
N725 N724 1.365 . S
N725 H745 0.862 . S
C726 C721 1.501 . S
C726 H727 0.961 . S
C726 H728 0.961 . S
C726 H729 0.960 1_655 S
H727 C726 0.961 . S
H728 C726 0.961 . S
H729 C726 0.960 1_455 S
C730 N731 1.342 . S
C730 C734 1.401 . S
C730 C735 1.499 . S
N731 Co714 1.989 . S
N731 C730 1.342 . S
N731 N732 1.388 . S
N732 Co715 1.993 . S
N732 N731 1.388 . S
N732 C733 1.346 . S
C733 N732 1.346 . S
C733 C734 1.396 . S
C733 C743 1.510 . S
C734 C730 1.401 . S
C734 C733 1.396 . S
C735 C730 1.499 . S
C735 H736 0.959 . S
C735 H737 0.960 . S
C735 H738 0.961 . S
H736 C735 0.959 . S
H737 C735 0.960 . S
H738 C735 0.961 . S
O739 Co714 1.967 . S
O739 C747 1.258 . S
O740 Co715 1.941 . S
O740 C747 1.266 . S
H741 C743 0.959 . S
H742 C743 0.961 . S
C743 C733 1.510 . S
C743 H741 0.959 . S
C743 H742 0.961 . S
C743 H744 0.960 . S
H744 C743 0.960 . S
H745 N725 0.862 . S
O746 Co714 1.920 . S
O746 C719 1.289 . S
C747 O739 1.258 . S
C747 O740 1.266 . S
Co748 O751 1.970 . S
Co748 N765 1.989 . S
Co748 O773 1.967 . S
Co748 O780 1.920 . S
Co749 O752 1.966 . S
Co749 N758 2.022 . S
Co749 N766 1.993 . S
Co749 O774 1.941 . S
C750 O751 1.258 . S
C750 O752 1.263 . S
O751 Co748 1.970 . S
O751 C750 1.258 . S
O752 Co749 1.966 . S
O752 C750 1.263 . S
C753 O754 1.235 . S
C753 O780 1.289 . S
O754 C753 1.235 . S
C755 C757 1.400 . S
C755 N758 1.351 . S
C755 C760 1.501 . S
C756 C757 1.387 . S
C756 N759 1.341 . S
C757 C755 1.400 . S
C757 C756 1.387 . S
N758 Co749 2.022 . S
N758 C755 1.351 . S
N758 N759 1.365 . S
N759 C756 1.341 . S
N759 N758 1.365 . S
N759 H779 0.862 . S
C760 C755 1.501 . S
C760 H761 0.961 . S
C760 H762 0.961 . S
C760 H763 0.960 . S
H761 C760 0.961 . S
H762 C760 0.961 . S
H763 C760 0.960 . S
C764 N765 1.342 . S
C764 C768 1.401 . S
C764 C769 1.499 . S
N765 Co748 1.989 . S
N765 C764 1.342 . S
N765 N766 1.388 . S
N766 Co749 1.993 . S
N766 N765 1.388 . S
N766 C767 1.346 . S
C767 N766 1.346 . S
C767 C768 1.396 . S
C767 C777 1.510 . S
C768 C764 1.401 . S
C768 C767 1.396 . S
C769 C764 1.499 . S
C769 H770 0.959 . S
C769 H771 0.960 . S
C769 H772 0.961 . S
H770 C769 0.959 . S
H771 C769 0.960 . S
H772 C769 0.961 . S
O773 Co748 1.967 . S
O773 C781 1.258 . S
O774 Co749 1.941 . S
O774 C781 1.266 . S
H775 C777 0.959 . S
H776 C777 0.961 . S
C777 C767 1.510 . S
C777 H775 0.959 . S
C777 H776 0.961 . S
C777 H778 0.960 . S
H778 C777 0.960 . S
H779 N759 0.862 . S
O780 Co748 1.920 . S
O780 C753 1.289 . S
C781 O773 1.258 . S
C781 O774 1.266 . S
Co782 O785 1.970 . S
Co782 N799 1.989 . S
Co782 O807 1.967 . S
Co782 O814 1.920 . S
Co783 O786 1.966 . S
Co783 N792 2.022 . S
Co783 N800 1.993 . S
Co783 O808 1.941 . S
C784 O785 1.258 . S
C784 O786 1.263 . S
O785 Co782 1.970 . S
O785 C784 1.258 . S
O786 Co783 1.966 . S
O786 C784 1.263 . S
C787 O788 1.235 . S
C787 O814 1.289 . S
O788 C787 1.235 . S
C789 C791 1.400 . S
C789 N792 1.351 . S
C789 C794 1.501 . S
C790 C791 1.387 . S
C790 N793 1.341 . S
C791 C789 1.400 . S
C791 C790 1.387 . S
N792 Co783 2.022 . S
N792 C789 1.351 . S
N792 N793 1.365 . S
N793 C790 1.341 . S
N793 N792 1.365 . S
N793 H813 0.862 . S
C794 C789 1.501 . S
C794 H795 0.961 . S
C794 H796 0.961 . S
C794 H797 0.960 . S
H795 C794 0.961 . S
H796 C794 0.961 . S
H797 C794 0.960 . S
C798 N799 1.342 . S
C798 C802 1.401 . S
C798 C803 1.499 . S
N799 Co782 1.989 . S
N799 C798 1.342 . S
N799 N800 1.388 . S
N800 Co783 1.993 . S
N800 N799 1.388 . S
N800 C801 1.346 . S
C801 N800 1.346 . S
C801 C802 1.396 . S
C801 C811 1.510 . S
C802 C798 1.401 . S
C802 C801 1.396 . S
C803 C798 1.499 . S
C803 H804 0.959 . S
C803 H805 0.960 . S
C803 H806 0.961 . S
H804 C803 0.959 . S
H805 C803 0.960 . S
H806 C803 0.961 . S
O807 Co782 1.967 . S
O807 C815 1.258 . S
O808 Co783 1.941 . S
O808 C815 1.266 . S
H809 C811 0.959 . S
H810 C811 0.961 . S
C811 C801 1.510 . S
C811 H809 0.959 . S
C811 H810 0.961 . S
C811 H812 0.960 . S
H812 C811 0.960 . S
H813 N793 0.862 . S
O814 Co782 1.920 . S
O814 C787 1.289 . S
C815 O807 1.258 . S
C815 O808 1.266 . S
Co816 O819 1.970 . S
Co816 N833 1.989 . S
Co816 O841 1.967 . S
Co816 O848 1.920 . S
Co817 O820 1.966 . S
Co817 N826 2.022 . S
Co817 N834 1.993 . S
Co817 O842 1.941 . S
C818 O819 1.258 . S
C818 O820 1.263 . S
O819 Co816 1.970 . S
O819 C818 1.258 . S
O820 Co817 1.966 . S
O820 C818 1.263 . S
C821 O822 1.235 . S
C821 O848 1.289 . S
O822 C821 1.235 . S
C823 C825 1.400 . S
C823 N826 1.351 . S
C823 C828 1.501 . S
C824 C825 1.387 . S
C824 N827 1.341 . S
C825 C823 1.400 . S
C825 C824 1.387 . S
N826 Co817 2.022 . S
N826 C823 1.351 . S
N826 N827 1.365 . S
N827 C824 1.341 . S
N827 N826 1.365 . S
N827 H847 0.862 . S
C828 C823 1.501 . S
C828 H829 0.961 . S
C828 H830 0.961 . S
C828 H831 0.960 . S
H829 C828 0.961 . S
H830 C828 0.961 . S
H831 C828 0.960 . S
C832 N833 1.342 . S
C832 C836 1.401 . S
C832 C837 1.499 . S
N833 Co816 1.989 . S
N833 C832 1.342 . S
N833 N834 1.388 . S
N834 Co817 1.993 . S
N834 N833 1.388 . S
N834 C835 1.346 . S
C835 N834 1.346 . S
C835 C836 1.396 . S
C835 C845 1.510 . S
C836 C832 1.401 . S
C836 C835 1.396 . S
C837 C832 1.499 . S
C837 H838 0.959 . S
C837 H839 0.960 . S
C837 H840 0.961 . S
H838 C837 0.959 . S
H839 C837 0.960 . S
H840 C837 0.961 . S
O841 Co816 1.967 . S
O841 C849 1.258 . S
O842 Co817 1.941 . S
O842 C849 1.266 . S
H843 C845 0.959 . S
H844 C845 0.961 . S
C845 C835 1.510 . S
C845 H843 0.959 . S
C845 H844 0.961 . S
C845 H846 0.960 . S
H846 C845 0.960 . S
H847 N827 0.862 . S
O848 Co816 1.920 . S
O848 C821 1.289 . S
C849 O841 1.258 . S
C849 O842 1.266 . S
Co850 O853 1.970 . S
Co850 N867 1.989 . S
Co850 O875 1.967 . S
Co850 O882 1.920 . S
Co851 O854 1.966 . S
Co851 N860 2.022 . S
Co851 N868 1.993 . S
Co851 O876 1.941 . S
C852 O853 1.258 . S
C852 O854 1.263 . S
O853 Co850 1.970 . S
O853 C852 1.258 . S
O854 Co851 1.966 . S
O854 C852 1.263 . S
C855 O856 1.235 . S
C855 O882 1.289 . S
O856 C855 1.235 . S
C857 C859 1.400 . S
C857 N860 1.351 . S
C857 C862 1.501 . S
C858 C859 1.387 . S
C858 N861 1.341 . S
C859 C857 1.400 . S
C859 C858 1.387 . S
N860 Co851 2.022 . S
N860 C857 1.351 . S
N860 N861 1.365 . S
N861 C858 1.341 . S
N861 N860 1.365 . S
N861 H881 0.862 . S
C862 C857 1.501 . S
C862 H863 0.961 . S
C862 H864 0.961 . S
C862 H865 0.960 . S
H863 C862 0.961 . S
H864 C862 0.961 . S
H865 C862 0.960 . S
C866 N867 1.342 . S
C866 C870 1.401 . S
C866 C871 1.499 . S
N867 Co850 1.989 . S
N867 C866 1.342 . S
N867 N868 1.388 . S
N868 Co851 1.993 . S
N868 N867 1.388 . S
N868 C869 1.346 . S
C869 N868 1.346 . S
C869 C870 1.396 . S
C869 C879 1.510 . S
C870 C866 1.401 . S
C870 C869 1.396 . S
C871 C866 1.499 . S
C871 H872 0.959 . S
C871 H873 0.960 . S
C871 H874 0.961 . S
H872 C871 0.959 . S
H873 C871 0.960 . S
H874 C871 0.961 . S
O875 Co850 1.967 . S
O875 C883 1.258 . S
O876 Co851 1.941 . S
O876 C883 1.266 . S
H877 C879 0.959 . S
H878 C879 0.961 . S
C879 C869 1.510 . S
C879 H877 0.959 . S
C879 H878 0.961 . S
C879 H880 0.960 . S
H880 C879 0.960 . S
H881 N861 0.862 . S
O882 Co850 1.920 . S
O882 C855 1.289 . S
C883 O875 1.258 . S
C883 O876 1.266 . S
Co884 O887 1.970 . S
Co884 N901 1.989 . S
Co884 O909 1.967 . S
Co884 O916 1.920 . S
Co885 O888 1.966 . S
Co885 N894 2.022 . S
Co885 N902 1.993 . S
Co885 O910 1.941 . S
C886 O887 1.258 . S
C886 O888 1.263 . S
O887 Co884 1.970 . S
O887 C886 1.258 . S
O888 Co885 1.966 . S
O888 C886 1.263 . S
C889 O890 1.235 . S
C889 O916 1.289 . S
O890 C889 1.235 . S
C891 C893 1.400 . S
C891 N894 1.351 . S
C891 C896 1.501 . S
C892 C893 1.387 . S
C892 N895 1.341 . S
C893 C891 1.400 . S
C893 C892 1.387 . S
N894 Co885 2.022 . S
N894 C891 1.351 . S
N894 N895 1.365 . S
N895 C892 1.341 . S
N895 N894 1.365 . S
N895 H915 0.862 . S
C896 C891 1.501 . S
C896 H897 0.961 . S
C896 H898 0.961 . S
C896 H899 0.960 . S
H897 C896 0.961 . S
H898 C896 0.961 . S
H899 C896 0.960 . S
C900 N901 1.342 . S
C900 C904 1.401 . S
C900 C905 1.499 . S
N901 Co884 1.989 . S
N901 C900 1.342 . S
N901 N902 1.388 . S
N902 Co885 1.993 . S
N902 N901 1.388 . S
N902 C903 1.346 . S
C903 N902 1.346 . S
C903 C904 1.396 . S
C903 C913 1.510 . S
C904 C900 1.401 . S
C904 C903 1.396 . S
C905 C900 1.499 . S
C905 H906 0.959 . S
C905 H907 0.960 . S
C905 H908 0.961 . S
H906 C905 0.959 . S
H907 C905 0.960 . S
H908 C905 0.961 . S
O909 Co884 1.967 . S
O909 C917 1.258 . S
O910 Co885 1.941 . S
O910 C917 1.266 . S
H911 C913 0.959 . S
H912 C913 0.961 . S
C913 C903 1.510 . S
C913 H911 0.959 . S
C913 H912 0.961 . S
C913 H914 0.960 . S
H914 C913 0.960 . S
H915 N895 0.862 . S
O916 Co884 1.920 . S
O916 C889 1.289 . S
C917 O909 1.258 . S
C917 O910 1.266 . S
Co918 O921 1.970 . S
Co918 N935 1.989 . S
Co918 O943 1.967 . S
Co918 O950 1.920 . S
Co919 O922 1.966 . S
Co919 N928 2.022 . S
Co919 N936 1.993 . S
Co919 O944 1.941 . S
C920 O921 1.258 . S
C920 O922 1.263 . S
O921 Co918 1.970 . S
O921 C920 1.258 . S
O922 Co919 1.966 . S
O922 C920 1.263 . S
C923 O924 1.235 . S
C923 O950 1.289 . S
O924 C923 1.235 . S
C925 C927 1.400 . S
C925 N928 1.351 . S
C925 C930 1.501 . S
C926 C927 1.387 . S
C926 N929 1.341 . S
C927 C925 1.400 . S
C927 C926 1.387 . S
N928 Co919 2.022 . S
N928 C925 1.351 . S
N928 N929 1.365 . S
N929 C926 1.341 . S
N929 N928 1.365 . S
N929 H949 0.862 . S
C930 C925 1.501 . S
C930 H931 0.961 . S
C930 H932 0.961 . S
C930 H933 0.960 . S
H931 C930 0.961 . S
H932 C930 0.961 . S
H933 C930 0.960 . S
C934 N935 1.342 . S
C934 C938 1.401 . S
C934 C939 1.499 . S
N935 Co918 1.989 . S
N935 C934 1.342 . S
N935 N936 1.388 . S
N936 Co919 1.993 . S
N936 N935 1.388 . S
N936 C937 1.346 . S
C937 N936 1.346 . S
C937 C938 1.396 . S
C937 C947 1.510 . S
C938 C934 1.401 . S
C938 C937 1.396 . S
C939 C934 1.499 . S
C939 H940 0.959 . S
C939 H941 0.960 . S
C939 H942 0.961 . S
H940 C939 0.959 . S
H941 C939 0.960 . S
H942 C939 0.961 . S
O943 Co918 1.967 . S
O943 C951 1.258 . S
O944 Co919 1.941 . S
O944 C951 1.266 . S
H945 C947 0.959 . S
H946 C947 0.961 . S
C947 C937 1.510 . S
C947 H945 0.959 . S
C947 H946 0.961 . S
C947 H948 0.960 . S
H948 C947 0.960 . S
H949 N929 0.862 . S
O950 Co918 1.920 . S
O950 C923 1.289 . S
C951 O943 1.258 . S
C951 O944 1.266 . S
Co952 O955 1.970 . S
Co952 N969 1.989 . S
Co952 O977 1.967 . S
Co952 O984 1.920 . S
Co953 O956 1.966 . S
Co953 N962 2.022 . S
Co953 N970 1.993 . S
Co953 O978 1.941 . S
C954 O955 1.258 . S
C954 O956 1.263 . S
O955 Co952 1.970 . S
O955 C954 1.258 . S
O956 Co953 1.966 . S
O956 C954 1.263 . S
C957 O958 1.235 . S
C957 O984 1.289 . S
O958 C957 1.235 . S
C959 C961 1.400 . S
C959 N962 1.351 . S
C959 C964 1.501 . S
C960 C961 1.387 . S
C960 N963 1.341 . S
C961 C959 1.400 . S
C961 C960 1.387 . S
N962 Co953 2.022 . S
N962 C959 1.351 . S
N962 N963 1.365 . S
N963 C960 1.341 . S
N963 N962 1.365 . S
N963 H983 0.862 . S
C964 C959 1.501 . S
C964 H965 0.961 . S
C964 H966 0.961 . S
C964 H967 0.960 . S
H965 C964 0.961 . S
H966 C964 0.961 . S
H967 C964 0.960 . S
C968 N969 1.342 . S
C968 C972 1.401 . S
C968 C973 1.499 . S
N969 Co952 1.989 . S
N969 C968 1.342 . S
N969 N970 1.388 . S
N970 Co953 1.993 . S
N970 N969 1.388 . S
N970 C971 1.346 . S
C971 N970 1.346 . S
C971 C972 1.396 . S
C971 C981 1.510 . S
C972 C968 1.401 . S
C972 C971 1.396 . S
C973 C968 1.499 . S
C973 H974 0.959 . S
C973 H975 0.960 . S
C973 H976 0.961 . S
H974 C973 0.959 . S
H975 C973 0.960 . S
H976 C973 0.961 . S
O977 Co952 1.967 . S
O977 C985 1.258 . S
O978 Co953 1.941 . S
O978 C985 1.266 . S
H979 C981 0.959 . S
H980 C981 0.961 . S
C981 C971 1.510 . S
C981 H979 0.959 . S
C981 H980 0.961 . S
C981 H982 0.960 . S
H982 C981 0.960 . S
H983 N963 0.862 . S
O984 Co952 1.920 . S
O984 C957 1.289 . S
C985 O977 1.258 . S
C985 O978 1.266 . S
Co986 O989 1.970 . S
Co986 N1003 1.989 . S
Co986 O1011 1.967 . S
Co986 O1018 1.920 . S
Co987 O990 1.966 . S
Co987 N996 2.022 . S
Co987 N1004 1.993 . S
Co987 O1012 1.941 . S
C988 O989 1.258 . S
C988 O990 1.263 . S
O989 Co986 1.970 . S
O989 C988 1.258 . S
O990 Co987 1.966 . S
O990 C988 1.263 . S
C991 O992 1.235 . S
C991 O1018 1.289 . S
O992 C991 1.235 . S
C993 C995 1.400 . S
C993 N996 1.351 . S
C993 C998 1.501 . S
C994 C995 1.387 . S
C994 N997 1.341 . S
C995 C993 1.400 . S
C995 C994 1.387 . S
N996 Co987 2.022 . S
N996 C993 1.351 . S
N996 N997 1.365 . S
N997 C994 1.341 . S
N997 N996 1.365 . S
N997 H1017 0.862 . S
C998 C993 1.501 . S
C998 H999 0.961 . S
C998 H1000 0.961 . S
C998 H1001 0.960 . S
H999 C998 0.961 . S
H1000 C998 0.961 . S
H1001 C998 0.960 . S
C1002 N1003 1.342 . S
C1002 C1006 1.401 . S
C1002 C1007 1.499 . S
N1003 Co986 1.989 . S
N1003 C1002 1.342 . S
N1003 N1004 1.388 . S
N1004 Co987 1.993 . S
N1004 N1003 1.388 . S
N1004 C1005 1.346 . S
C1005 N1004 1.346 . S
C1005 C1006 1.396 . S
C1005 C1015 1.510 . S
C1006 C1002 1.401 . S
C1006 C1005 1.396 . S
C1007 C1002 1.499 . S
C1007 H1008 0.959 . S
C1007 H1009 0.960 . S
C1007 H1010 0.961 . S
H1008 C1007 0.959 . S
H1009 C1007 0.960 . S
H1010 C1007 0.961 . S
O1011 Co986 1.967 . S
O1011 C1019 1.258 . S
O1012 Co987 1.941 . S
O1012 C1019 1.266 . S
H1013 C1015 0.959 . S
H1014 C1015 0.961 . S
C1015 C1005 1.510 . S
C1015 H1013 0.959 . S
C1015 H1014 0.961 . S
C1015 H1016 0.960 . S
H1016 C1015 0.960 . S
H1017 N997 0.862 . S
O1018 Co986 1.920 . S
O1018 C991 1.289 . S
C1019 O1011 1.258 . S
C1019 O1012 1.266 . S
Co1020 O1023 1.970 . S
Co1020 N1037 1.989 . S
Co1020 O1045 1.967 . S
Co1020 O1052 1.920 . S
Co1021 O1024 1.966 . S
Co1021 N1030 2.022 . S
Co1021 N1038 1.993 . S
Co1021 O1046 1.941 . S
C1022 O1023 1.258 . S
C1022 O1024 1.263 . S
O1023 Co1020 1.970 . S
O1023 C1022 1.258 . S
O1024 Co1021 1.966 . S
O1024 C1022 1.263 . S
C1025 O1026 1.235 . S
C1025 O1052 1.289 . S
O1026 C1025 1.235 . S
C1027 C1029 1.400 . S
C1027 N1030 1.351 . S
C1027 C1032 1.501 . S
C1028 C1029 1.387 . S
C1028 N1031 1.341 . S
C1029 C1027 1.400 . S
C1029 C1028 1.387 . S
N1030 Co1021 2.022 . S
N1030 C1027 1.351 . S
N1030 N1031 1.365 . S
N1031 C1028 1.341 . S
N1031 N1030 1.365 . S
N1031 H1051 0.862 . S
C1032 C1027 1.501 . S
C1032 H1033 0.961 . S
C1032 H1034 0.961 . S
C1032 H1035 0.960 . S
H1033 C1032 0.961 . S
H1034 C1032 0.961 . S
H1035 C1032 0.960 . S
C1036 N1037 1.342 . S
C1036 C1040 1.401 . S
C1036 C1041 1.499 . S
N1037 Co1020 1.989 . S
N1037 C1036 1.342 . S
N1037 N1038 1.388 . S
N1038 Co1021 1.993 . S
N1038 N1037 1.388 . S
N1038 C1039 1.346 . S
C1039 N1038 1.346 . S
C1039 C1040 1.396 . S
C1039 C1049 1.510 . S
C1040 C1036 1.401 . S
C1040 C1039 1.396 . S
C1041 C1036 1.499 . S
C1041 H1042 0.959 . S
C1041 H1043 0.960 . S
C1041 H1044 0.961 . S
H1042 C1041 0.959 . S
H1043 C1041 0.960 . S
H1044 C1041 0.961 . S
O1045 Co1020 1.967 . S
O1045 C1053 1.258 . S
O1046 Co1021 1.941 . S
O1046 C1053 1.266 . S
H1047 C1049 0.959 . S
H1048 C1049 0.961 . S
C1049 C1039 1.510 . S
C1049 H1047 0.959 . S
C1049 H1048 0.961 . S
C1049 H1050 0.960 . S
H1050 C1049 0.960 . S
H1051 N1031 0.862 . S
O1052 Co1020 1.920 . S
O1052 C1025 1.289 . S
C1053 O1045 1.258 . S
C1053 O1046 1.266 . S
Co1054 O1057 1.970 . S
Co1054 N1071 1.989 . S
Co1054 O1079 1.967 . S
Co1054 O1086 1.920 . S
Co1055 O1058 1.966 . S
Co1055 N1064 2.022 . S
Co1055 N1072 1.993 . S
Co1055 O1080 1.941 . S
C1056 O1057 1.258 . S
C1056 O1058 1.263 . S
O1057 Co1054 1.970 . S
O1057 C1056 1.258 . S
O1058 Co1055 1.966 . S
O1058 C1056 1.263 . S
C1059 O1060 1.235 . S
C1059 O1086 1.289 . S
O1060 C1059 1.235 . S
C1061 C1063 1.400 . S
C1061 N1064 1.351 . S
C1061 C1066 1.501 . S
C1062 C1063 1.387 . S
C1062 N1065 1.341 . S
C1063 C1061 1.400 . S
C1063 C1062 1.387 . S
N1064 Co1055 2.022 . S
N1064 C1061 1.351 . S
N1064 N1065 1.365 . S
N1065 C1062 1.341 . S
N1065 N1064 1.365 . S
N1065 H1085 0.862 . S
C1066 C1061 1.501 . S
C1066 H1067 0.961 . S
C1066 H1068 0.961 . S
C1066 H1069 0.960 . S
H1067 C1066 0.961 . S
H1068 C1066 0.961 . S
H1069 C1066 0.960 . S
C1070 N1071 1.342 . S
C1070 C1074 1.401 . S
C1070 C1075 1.499 . S
N1071 Co1054 1.989 . S
N1071 C1070 1.342 . S
N1071 N1072 1.388 . S
N1072 Co1055 1.993 . S
N1072 N1071 1.388 . S
N1072 C1073 1.346 . S
C1073 N1072 1.346 . S
C1073 C1074 1.396 . S
C1073 C1083 1.510 . S
C1074 C1070 1.401 . S
C1074 C1073 1.396 . S
C1075 C1070 1.499 . S
C1075 H1076 0.959 . S
C1075 H1077 0.960 . S
C1075 H1078 0.961 . S
H1076 C1075 0.959 . S
H1077 C1075 0.960 . S
H1078 C1075 0.961 . S
O1079 Co1054 1.967 . S
O1079 C1087 1.258 . S
O1080 Co1055 1.941 . S
O1080 C1087 1.266 . S
H1081 C1083 0.959 . S
H1082 C1083 0.961 . S
C1083 C1073 1.510 . S
C1083 H1081 0.959 . S
C1083 H1082 0.961 . S
C1083 H1084 0.960 . S
H1084 C1083 0.960 . S
H1085 N1065 0.862 . S
O1086 Co1054 1.920 . S
O1086 C1059 1.289 . S
C1087 O1079 1.258 . S
C1087 O1080 1.266 . S
C1088 C1089 1.349 . S
C1088 C1090 1.327 . S
C1088 H1113 0.950 . S
C1089 C1088 1.349 . S
C1089 C1105 1.349 . S
C1090 C1088 1.327 . S
C1090 C1109 1.429 . S
C1090 H1114 0.950 . S
C1091 C1108 1.574 . S
C1091 C1110 1.368 . S
C1091 H1115 0.949 . S
H1092 C1096 0.949 . S
C1093 C1094 1.349 . S
C1093 C1095 1.327 . S
C1093 H1116 0.950 . S
C1094 C1093 1.349 . S
C1094 C1106 1.349 . S
C1095 C1093 1.327 . S
C1095 C1111 1.429 . S
C1095 H1117 0.950 . S
C1096 H1092 0.949 . S
C1096 C1104 1.574 . S
C1096 C1112 1.368 . S
H1097 C1105 0.950 . S
H1098 C1103 0.950 . S
H1099 C1104 0.949 . S
H1100 C1106 0.950 . S
H1101 C1107 0.950 . S
H1102 C1108 0.949 . S
C1103 H1098 0.950 . S
C1103 C1105 1.327 . S
C1103 C1109 1.429 . S
C1104 C1096 1.574 . S
C1104 H1099 0.949 . S
C1104 C1110 1.368 . S
C1105 C1089 1.349 . S
C1105 H1097 0.950 . S
C1105 C1103 1.327 . S
C1106 C1094 1.349 . S
C1106 H1100 0.950 . S
C1106 C1107 1.327 . S
C1107 H1101 0.950 . S
C1107 C1106 1.327 . S
C1107 C1111 1.429 . S
C1108 C1091 1.574 . S
C1108 H1102 0.949 . S
C1108 C1112 1.368 . S
C1109 C1090 1.429 . S
C1109 C1103 1.429 . S
C1109 C1110 1.523 . S
C1110 C1091 1.368 . S
C1110 C1104 1.368 . S
C1110 C1109 1.523 . S
C1111 C1095 1.429 . S
C1111 C1107 1.429 . S
C1111 C1112 1.523 . S
C1112 C1096 1.368 . S
C1112 C1108 1.368 . S
C1112 C1111 1.523 . S
H1113 C1088 0.950 . S
H1114 C1090 0.950 . S
H1115 C1091 0.949 . S
H1116 C1093 0.950 . S
H1117 C1095 0.950 . S
C1118 C1119 1.349 . S
C1118 C1120 1.327 . S
C1118 H1143 0.950 . S
C1119 C1118 1.349 . S
C1119 C1135 1.349 . S
C1120 C1118 1.327 . S
C1120 C1139 1.429 . S
C1120 H1144 0.970 . S
C1121 C1138 1.574 . S
C1121 C1140 1.368 . S
C1121 H1145 0.949 . S
H1122 C1126 0.949 . S
C1123 C1124 1.349 . S
C1123 C1125 1.327 . S
C1123 H1146 0.950 . S
C1124 C1123 1.349 . S
C1124 C1136 1.349 . S
C1125 C1123 1.327 . S
C1125 C1141 1.429 . S
C1125 H1147 0.950 . S
C1126 H1122 0.949 . S
C1126 C1134 1.574 . S
C1126 C1142 1.368 . S
H1127 C1135 0.950 . S
H1128 C1133 0.950 . S
H1129 C1134 0.949 . S
H1130 C1136 0.950 . S
H1131 C1137 0.950 . S
H1132 C1138 0.949 . S
C1133 H1128 0.950 . S
C1133 C1135 1.327 . S
C1133 C1139 1.429 . S
C1134 C1126 1.574 . S
C1134 H1129 0.949 . S
C1134 C1140 1.368 1_455 S
C1135 C1119 1.349 . S
C1135 H1127 0.950 . S
C1135 C1133 1.327 . S
C1136 C1124 1.349 . S
C1136 H1130 0.950 . S
C1136 C1137 1.327 . S
C1137 H1131 0.950 . S
C1137 C1136 1.327 . S
C1137 C1141 1.429 . S
C1138 C1121 1.574 . S
C1138 H1132 0.949 . S
C1138 C1142 1.368 1_655 S
C1139 C1120 1.429 . S
C1139 C1133 1.429 . S
C1139 C1140 1.523 . S
C1140 C1121 1.368 . S
C1140 C1134 1.368 1_655 S
C1140 C1139 1.523 . S
C1141 C1125 1.429 . S
C1141 C1137 1.429 . S
C1141 C1142 1.523 . S
C1142 C1126 1.368 . S
C1142 C1138 1.368 1_455 S
C1142 C1141 1.523 . S
H1143 C1118 0.950 . S
H1144 C1120 0.970 . S
H1145 C1121 0.949 . S
H1146 C1123 0.950 . S
H1147 C1125 0.950 . S
C1148 C1149 1.349 . S
C1148 C1150 1.327 . S
C1148 H1173 0.950 . S
C1149 C1148 1.349 . S
C1149 C1165 1.349 . S
C1150 C1148 1.327 . S
C1150 C1169 1.429 . S
C1150 H1174 0.950 . S
C1151 C1168 1.574 1_655 S
C1151 C1170 1.368 . S
C1151 H1175 0.949 . S
H1152 C1156 0.949 . S
C1153 C1154 1.349 . S
C1153 C1155 1.327 . S
C1153 H1176 0.950 . S
C1154 C1153 1.349 . S
C1154 C1166 1.349 . S
C1155 C1153 1.327 . S
C1155 C1171 1.429 . S
C1155 H1177 0.950 . S
C1156 H1152 0.949 . S
C1156 C1164 1.574 1_455 S
C1156 C1172 1.368 . S
H1157 C1165 0.950 . S
H1158 C1163 0.950 . S
H1159 C1164 0.949 . S
H1160 C1166 0.950 . S
H1161 C1167 0.950 . S
H1162 C1168 0.949 . S
C1163 H1158 0.950 . S
C1163 C1165 1.327 . S
C1163 C1169 1.429 . S
C1164 C1156 1.574 1_655 S
C1164 H1159 0.949 . S
C1164 C1170 1.368 . S
C1165 C1149 1.349 . S
C1165 H1157 0.950 . S
C1165 C1163 1.327 . S
C1166 C1154 1.349 . S
C1166 H1160 0.950 . S
C1166 C1167 1.327 . S
C1167 H1161 0.950 . S
C1167 C1166 1.327 . S
C1167 C1171 1.429 . S
C1168 C1151 1.574 1_455 S
C1168 H1162 0.949 . S
C1168 C1172 1.368 . S
C1169 C1150 1.429 . S
C1169 C1163 1.429 . S
C1169 C1170 1.523 . S
C1170 C1151 1.368 . S
C1170 C1164 1.368 . S
C1170 C1169 1.523 . S
C1171 C1155 1.429 . S
C1171 C1167 1.429 . S
C1171 C1172 1.523 . S
C1172 C1156 1.368 . S
C1172 C1168 1.368 . S
C1172 C1171 1.523 . S
H1173 C1148 0.950 . S
H1174 C1150 0.950 . S
H1175 C1151 0.949 . S
H1176 C1153 0.950 . S
H1177 C1155 0.950 . S
C1178 C1179 1.349 . S
C1178 C1180 1.327 . S
C1178 H1203 0.950 . S
C1179 C1178 1.349 . S
C1179 C1195 1.349 . S
C1180 C1178 1.327 . S
C1180 C1199 1.429 . S
C1180 H1204 0.950 . S
C1181 C1198 1.574 . S
C1181 C1200 1.368 . S
C1181 H1205 0.949 . S
H1182 C1186 0.949 . S
C1183 C1184 1.349 . S
C1183 C1185 1.327 . S
C1183 H1206 0.950 . S
C1184 C1183 1.349 . S
C1184 C1196 1.349 . S
C1185 C1183 1.327 . S
C1185 C1201 1.429 . S
C1185 H1207 0.950 . S
C1186 H1182 0.949 . S
C1186 C1194 1.574 . S
C1186 C1202 1.368 . S
H1187 C1195 0.950 . S
H1188 C1193 0.950 . S
H1189 C1194 0.949 . S
H1190 C1196 0.950 . S
H1191 C1197 0.950 . S
H1192 C1198 0.949 . S
C1193 H1188 0.950 . S
C1193 C1195 1.327 . S
C1193 C1199 1.429 . S
C1194 C1186 1.574 . S
C1194 H1189 0.949 . S
C1194 C1200 1.368 . S
C1195 C1179 1.349 . S
C1195 H1187 0.950 . S
C1195 C1193 1.327 . S
C1196 C1184 1.349 . S
C1196 H1190 0.950 . S
C1196 C1197 1.327 . S
C1197 H1191 0.950 . S
C1197 C1196 1.327 . S
C1197 C1201 1.429 . S
C1198 C1181 1.574 . S
C1198 H1192 0.949 . S
C1198 C1202 1.368 . S
C1199 C1180 1.429 . S
C1199 C1193 1.429 . S
C1199 C1200 1.523 . S
C1200 C1181 1.368 . S
C1200 C1194 1.368 . S
C1200 C1199 1.523 . S
C1201 C1185 1.429 . S
C1201 C1197 1.429 . S
C1201 C1202 1.523 . S
C1202 C1186 1.368 . S
C1202 C1198 1.368 . S
C1202 C1201 1.523 . S
H1203 C1178 0.950 . S
H1204 C1180 0.950 . S
H1205 C1181 0.949 . S
H1206 C1183 0.950 . S
H1207 C1185 0.950 . S
C1208 C1209 1.349 . S
C1208 C1210 1.327 . S
C1208 H1233 0.950 . S
C1209 C1208 1.349 . S
C1209 C1225 1.349 . S
C1210 C1208 1.327 . S
C1210 C1229 1.429 . S
C1210 H1234 0.950 . S
C1211 C1228 1.574 . S
C1211 C1230 1.368 . S
C1211 H1235 0.949 . S
H1212 C1216 0.949 . S
C1213 C1214 1.349 . S
C1213 C1215 1.327 . S
C1213 H1236 0.950 . S
C1214 C1213 1.349 . S
C1214 C1226 1.349 . S
C1215 C1213 1.327 . S
C1215 C1231 1.429 . S
C1215 H1237 0.950 . S
C1216 H1212 0.949 . S
C1216 C1224 1.574 . S
C1216 C1232 1.368 . S
H1217 C1225 0.950 . S
H1218 C1223 0.950 . S
H1219 C1224 0.949 . S
H1220 C1226 0.950 . S
H1221 C1227 0.950 . S
H1222 C1228 0.949 . S
C1223 H1218 0.950 . S
C1223 C1225 1.327 . S
C1223 C1229 1.429 . S
C1224 C1216 1.574 . S
C1224 H1219 0.949 . S
C1224 C1230 1.368 . S
C1225 C1209 1.349 . S
C1225 H1217 0.950 . S
C1225 C1223 1.327 . S
C1226 C1214 1.349 . S
C1226 H1220 0.950 . S
C1226 C1227 1.327 . S
C1227 H1221 0.950 . S
C1227 C1226 1.327 . S
C1227 C1231 1.429 . S
C1228 C1211 1.574 . S
C1228 H1222 0.949 . S
C1228 C1232 1.368 . S
C1229 C1210 1.429 . S
C1229 C1223 1.429 . S
C1229 C1230 1.523 . S
C1230 C1211 1.368 . S
C1230 C1224 1.368 . S
C1230 C1229 1.523 . S
C1231 C1215 1.429 . S
C1231 C1227 1.429 . S
C1231 C1232 1.523 . S
C1232 C1216 1.368 . S
C1232 C1228 1.368 . S
C1232 C1231 1.523 . S
H1233 C1208 0.950 . S
H1234 C1210 0.950 . S
H1235 C1211 0.949 . S
H1236 C1213 0.950 . S
H1237 C1215 0.950 . S
C1238 C1239 1.349 . S
C1238 C1240 1.327 . S
C1238 H1263 0.950 . S
C1239 C1238 1.349 . S
C1239 C1255 1.349 . S
C1240 C1238 1.327 . S
C1240 C1259 1.429 . S
C1240 H1264 0.950 . S
C1241 C1258 1.574 . S
C1241 C1260 1.368 . S
C1241 H1265 0.949 . S
H1242 C1246 0.949 . S
C1243 C1244 1.349 . S
C1243 C1245 1.327 . S
C1243 H1266 0.950 . S
C1244 C1243 1.349 . S
C1244 C1256 1.349 . S
C1245 C1243 1.327 . S
C1245 C1261 1.429 . S
C1245 H1267 0.950 . S
C1246 H1242 0.949 . S
C1246 C1254 1.574 . S
C1246 C1262 1.368 . S
H1247 C1255 0.950 . S
H1248 C1253 0.950 . S
H1249 C1254 0.949 . S
H1250 C1256 0.950 . S
H1251 C1257 0.950 . S
H1252 C1258 0.949 . S
C1253 H1248 0.950 . S
C1253 C1255 1.327 . S
C1253 C1259 1.429 . S
C1254 C1246 1.574 . S
C1254 H1249 0.949 . S
C1254 C1260 1.368 . S
C1255 C1239 1.349 . S
C1255 H1247 0.950 . S
C1255 C1253 1.327 . S
C1256 C1244 1.349 . S
C1256 H1250 0.950 . S
C1256 C1257 1.327 . S
C1257 H1251 0.950 . S
C1257 C1256 1.327 . S
C1257 C1261 1.429 . S
C1258 C1241 1.574 . S
C1258 H1252 0.949 . S
C1258 C1262 1.368 . S
C1259 C1240 1.429 . S
C1259 C1253 1.429 . S
C1259 C1260 1.523 . S
C1260 C1241 1.368 . S
C1260 C1254 1.368 . S
C1260 C1259 1.523 . S
C1261 C1245 1.429 . S
C1261 C1257 1.429 . S
C1261 C1262 1.523 . S
C1262 C1246 1.368 . S
C1262 C1258 1.368 . S
C1262 C1261 1.523 . S
H1263 C1238 0.950 . S
H1264 C1240 0.950 . S
H1265 C1241 0.949 . S
H1266 C1243 0.950 . S
H1267 C1245 0.950 . S
C1268 C1269 1.349 . S
C1268 C1270 1.327 . S
C1268 H1293 0.950 . S
C1269 C1268 1.349 . S
C1269 C1285 1.349 . S
C1270 C1268 1.327 . S
C1270 C1289 1.429 . S
C1270 H1294 0.950 . S
C1271 C1288 1.574 1_455 S
C1271 C1290 1.368 . S
C1271 H1295 0.949 . S
H1272 C1276 0.949 . S
C1273 C1274 1.349 . S
C1273 C1275 1.327 . S
C1273 H1296 0.950 . S
C1274 C1273 1.349 . S
C1274 C1286 1.349 . S
C1275 C1273 1.327 . S
C1275 C1291 1.429 . S
C1275 H1297 0.950 . S
C1276 H1272 0.949 . S
C1276 C1284 1.574 1_655 S
C1276 C1292 1.368 . S
H1277 C1285 0.950 . S
H1278 C1283 0.950 . S
H1279 C1284 0.949 . S
H1280 C1286 0.950 . S
H1281 C1287 0.950 . S
H1282 C1288 0.949 . S
C1283 H1278 0.950 . S
C1283 C1285 1.327 . S
C1283 C1289 1.429 . S
C1284 C1276 1.574 1_455 S
C1284 H1279 0.949 . S
C1284 C1290 1.368 . S
C1285 C1269 1.349 . S
C1285 H1277 0.950 . S
C1285 C1283 1.327 . S
C1286 C1274 1.349 . S
C1286 H1280 0.950 . S
C1286 C1287 1.327 . S
C1287 H1281 0.950 . S
C1287 C1286 1.327 . S
C1287 C1291 1.429 . S
C1288 C1271 1.574 1_655 S
C1288 H1282 0.949 . S
C1288 C1292 1.368 . S
C1289 C1270 1.429 . S
C1289 C1283 1.429 . S
C1289 C1290 1.523 . S
C1290 C1271 1.368 . S
C1290 C1284 1.368 . S
C1290 C1289 1.523 . S
C1291 C1275 1.429 . S
C1291 C1287 1.429 . S
C1291 C1292 1.523 . S
C1292 C1276 1.368 . S
C1292 C1288 1.368 . S
C1292 C1291 1.523 . S
H1293 C1268 0.950 . S
H1294 C1270 0.950 . S
H1295 C1271 0.949 . S
H1296 C1273 0.950 . S
H1297 C1275 0.950 . S
C1298 C1299 1.349 . S
C1298 C1300 1.327 . S
C1298 H1323 0.950 . S
C1299 C1298 1.349 . S
C1299 C1315 1.349 . S
C1300 C1298 1.327 . S
C1300 C1319 1.429 . S
C1300 H1324 0.950 . S
C1301 C1318 1.574 . S
C1301 C1320 1.368 . S
C1301 H1325 0.949 . S
H1302 C1306 0.949 . S
C1303 C1304 1.349 . S
C1303 C1305 1.327 . S
C1303 H1326 0.950 . S
C1304 C1303 1.349 . S
C1304 C1316 1.349 . S
C1305 C1303 1.327 . S
C1305 C1321 1.429 . S
C1305 H1327 0.968 . S
C1306 H1302 0.949 . S
C1306 C1314 1.574 . S
C1306 C1322 1.368 . S
H1307 C1315 0.950 . S
H1308 C1313 0.950 . S
H1309 C1314 0.949 . S
H1310 C1316 0.950 . S
H1311 C1317 0.950 . S
H1312 C1318 0.949 . S
C1313 H1308 0.950 . S
C1313 C1315 1.327 . S
C1313 C1319 1.429 . S
C1314 C1306 1.574 . S
C1314 H1309 0.949 . S
C1314 C1320 1.368 1_655 S
C1315 C1299 1.349 . S
C1315 H1307 0.950 . S
C1315 C1313 1.327 . S
C1316 C1304 1.349 . S
C1316 H1310 0.950 . S
C1316 C1317 1.327 . S
C1317 H1311 0.950 . S
C1317 C1316 1.327 . S
C1317 C1321 1.429 . S
C1318 C1301 1.574 . S
C1318 H1312 0.949 . S
C1318 C1322 1.368 1_455 S
C1319 C1300 1.429 . S
C1319 C1313 1.429 . S
C1319 C1320 1.523 . S
C1320 C1301 1.368 . S
C1320 C1314 1.368 1_455 S
C1320 C1319 1.523 . S
C1321 C1305 1.429 . S
C1321 C1317 1.429 . S
C1321 C1322 1.523 . S
C1322 C1306 1.368 . S
C1322 C1318 1.368 1_655 S
C1322 C1321 1.523 . S
H1323 C1298 0.950 . S
H1324 C1300 0.950 . S
H1325 C1301 0.949 . S
H1326 C1303 0.950 . S
H1327 C1305 0.968 . S
C1328 C1329 1.349 . S
C1328 C1330 1.327 . S
C1328 H1353 0.950 . S
C1329 C1328 1.349 . S
C1329 C1345 1.349 . S
C1330 C1328 1.327 . S
C1330 C1349 1.429 . S
C1330 H1354 0.950 . S
C1331 C1348 1.574 . S
C1331 C1350 1.368 . S
C1331 H1355 0.949 . S
H1332 C1336 0.949 . S
C1333 C1334 1.349 . S
C1333 C1335 1.327 . S
C1333 H1356 0.950 . S
C1334 C1333 1.349 . S
C1334 C1346 1.349 . S
C1335 C1333 1.327 . S
C1335 C1351 1.429 . S
C1335 H1357 0.950 . S
C1336 H1332 0.949 . S
C1336 C1344 1.574 . S
C1336 C1352 1.368 . S
H1337 C1345 0.950 . S
H1338 C1343 0.950 . S
H1339 C1344 0.949 . S
H1340 C1346 0.950 . S
H1341 C1347 0.950 . S
H1342 C1348 0.949 . S
C1343 H1338 0.950 . S
C1343 C1345 1.327 . S
C1343 C1349 1.429 . S
C1344 C1336 1.574 . S
C1344 H1339 0.949 . S
C1344 C1350 1.368 . S
C1345 C1329 1.349 . S
C1345 H1337 0.950 . S
C1345 C1343 1.327 . S
C1346 C1334 1.349 . S
C1346 H1340 0.950 . S
C1346 C1347 1.327 . S
C1347 H1341 0.950 . S
C1347 C1346 1.327 . S
C1347 C1351 1.429 . S
C1348 C1331 1.574 . S
C1348 H1342 0.949 . S
C1348 C1352 1.368 . S
C1349 C1330 1.429 . S
C1349 C1343 1.429 . S
C1349 C1350 1.523 . S
C1350 C1331 1.368 . S
C1350 C1344 1.368 . S
C1350 C1349 1.523 . S
C1351 C1335 1.429 . S
C1351 C1347 1.429 . S
C1351 C1352 1.523 . S
C1352 C1336 1.368 . S
C1352 C1348 1.368 . S
C1352 C1351 1.523 . S
H1353 C1328 0.950 . S
H1354 C1330 0.950 . S
H1355 C1331 0.949 . S
H1356 C1333 0.950 . S
H1357 C1335 0.950 . S
C1358 C1359 1.349 . S
C1358 C1360 1.327 . S
C1358 H1383 0.950 . S
C1359 C1358 1.349 . S
C1359 C1375 1.349 . S
C1360 C1358 1.327 . S
C1360 C1379 1.429 . S
C1360 H1384 0.950 . S
C1361 C1378 1.574 . S
C1361 C1380 1.368 . S
C1361 H1385 0.949 . S
H1362 C1366 0.949 . S
C1363 C1364 1.349 . S
C1363 C1365 1.327 . S
C1363 H1386 0.950 . S
C1364 C1363 1.349 . S
C1364 C1376 1.349 . S
C1365 C1363 1.327 . S
C1365 C1381 1.429 . S
C1365 H1387 0.950 . S
C1366 H1362 0.949 . S
C1366 C1374 1.574 . S
C1366 C1382 1.368 . S
H1367 C1375 0.950 . S
H1368 C1373 0.950 . S
H1369 C1374 0.949 . S
H1370 C1376 0.950 . S
H1371 C1377 0.950 . S
H1372 C1378 0.949 . S
C1373 H1368 0.950 . S
C1373 C1375 1.327 . S
C1373 C1379 1.429 . S
C1374 C1366 1.574 . S
C1374 H1369 0.949 . S
C1374 C1380 1.368 1_655 S
C1375 C1359 1.349 . S
C1375 H1367 0.950 . S
C1375 C1373 1.327 . S
C1376 C1364 1.349 . S
C1376 H1370 0.950 . S
C1376 C1377 1.327 . S
C1377 H1371 0.950 . S
C1377 C1376 1.327 . S
C1377 C1381 1.429 . S
C1378 C1361 1.574 . S
C1378 H1372 0.949 . S
C1378 C1382 1.368 1_455 S
C1379 C1360 1.429 . S
C1379 C1373 1.429 . S
C1379 C1380 1.523 . S
C1380 C1361 1.368 . S
C1380 C1374 1.368 1_455 S
C1380 C1379 1.523 . S
C1381 C1365 1.429 . S
C1381 C1377 1.429 . S
C1381 C1382 1.523 . S
C1382 C1366 1.368 . S
C1382 C1378 1.368 1_655 S
C1382 C1381 1.523 . S
H1383 C1358 0.950 . S
H1384 C1360 0.950 . S
H1385 C1361 0.949 . S
H1386 C1363 0.950 . S
H1387 C1365 0.950 . S
C1388 C1389 1.349 . S
C1388 C1390 1.327 . S
C1388 H1413 0.950 . S
C1389 C1388 1.349 . S
C1389 C1405 1.349 . S
C1390 C1388 1.327 . S
C1390 C1409 1.429 . S
C1390 H1414 0.950 . S
C1391 C1408 1.574 1_655 S
C1391 C1410 1.368 . S
C1391 H1415 0.949 . S
H1392 C1396 0.949 . S
C1393 C1394 1.349 . S
C1393 C1395 1.327 . S
C1393 H1416 0.950 . S
C1394 C1393 1.349 . S
C1394 C1406 1.349 . S
C1395 C1393 1.327 . S
C1395 C1411 1.429 . S
C1395 H1417 0.950 . S
C1396 H1392 0.949 . S
C1396 C1404 1.574 1_455 S
C1396 C1412 1.368 . S
H1397 C1405 0.950 . S
H1398 C1403 0.950 . S
H1399 C1404 0.949 . S
H1400 C1406 0.950 . S
H1401 C1407 0.950 . S
H1402 C1408 0.949 . S
C1403 H1398 0.950 . S
C1403 C1405 1.327 . S
C1403 C1409 1.429 . S
C1404 C1396 1.574 1_655 S
C1404 H1399 0.949 . S
C1404 C1410 1.368 . S
C1405 C1389 1.349 . S
C1405 H1397 0.950 . S
C1405 C1403 1.327 . S
C1406 C1394 1.349 . S
C1406 H1400 0.950 . S
C1406 C1407 1.327 . S
C1407 H1401 0.950 . S
C1407 C1406 1.327 . S
C1407 C1411 1.429 . S
C1408 C1391 1.574 1_455 S
C1408 H1402 0.949 . S
C1408 C1412 1.368 . S
C1409 C1390 1.429 . S
C1409 C1403 1.429 . S
C1409 C1410 1.523 . S
C1410 C1391 1.368 . S
C1410 C1404 1.368 . S
C1410 C1409 1.523 . S
C1411 C1395 1.429 . S
C1411 C1407 1.429 . S
C1411 C1412 1.523 . S
C1412 C1396 1.368 . S
C1412 C1408 1.368 . S
C1412 C1411 1.523 . S
H1413 C1388 0.950 . S
H1414 C1390 0.950 . S
H1415 C1391 0.949 . S
H1416 C1393 0.950 . S
H1417 C1395 0.950 . S
C1418 C1419 1.349 . S
C1418 C1420 1.327 . S
C1418 H1443 0.950 . S
C1419 C1418 1.349 . S
C1419 C1435 1.349 . S
C1420 C1418 1.327 . S
C1420 C1439 1.429 . S
C1420 H1444 0.950 . S
C1421 C1438 1.574 . S
C1421 C1440 1.368 . S
C1421 H1445 0.949 . S
H1422 C1426 0.949 . S
C1423 C1424 1.349 . S
C1423 C1425 1.327 . S
C1423 H1446 0.950 . S
C1424 C1423 1.349 . S
C1424 C1436 1.349 . S
C1425 C1423 1.327 . S
C1425 C1441 1.429 . S
C1425 H1447 0.950 . S
C1426 H1422 0.949 . S
C1426 C1434 1.574 . S
C1426 C1442 1.368 . S
H1427 C1435 0.950 . S
H1428 C1433 0.950 . S
H1429 C1434 0.949 . S
H1430 C1436 0.950 . S
H1431 C1437 0.950 . S
H1432 C1438 0.949 . S
C1433 H1428 0.950 . S
C1433 C1435 1.327 . S
C1433 C1439 1.429 . S
C1434 C1426 1.574 . S
C1434 H1429 0.949 . S
C1434 C1440 1.368 . S
C1435 C1419 1.349 . S
C1435 H1427 0.950 . S
C1435 C1433 1.327 . S
C1436 C1424 1.349 . S
C1436 H1430 0.950 . S
C1436 C1437 1.327 . S
C1437 H1431 0.950 . S
C1437 C1436 1.327 . S
C1437 C1441 1.429 . S
C1438 C1421 1.574 . S
C1438 H1432 0.949 . S
C1438 C1442 1.368 . S
C1439 C1420 1.429 . S
C1439 C1433 1.429 . S
C1439 C1440 1.523 . S
C1440 C1421 1.368 . S
C1440 C1434 1.368 . S
C1440 C1439 1.523 . S
C1441 C1425 1.429 . S
C1441 C1437 1.429 . S
C1441 C1442 1.523 . S
C1442 C1426 1.368 . S
C1442 C1438 1.368 . S
C1442 C1441 1.523 . S
H1443 C1418 0.950 . S
H1444 C1420 0.950 . S
H1445 C1421 0.949 . S
H1446 C1423 0.950 . S
H1447 C1425 0.950 . S
C1448 C1449 1.349 . S
C1448 C1450 1.327 . S
C1448 H1473 0.950 . S
C1449 C1448 1.349 . S
C1449 C1465 1.349 . S
C1450 C1448 1.327 . S
C1450 C1469 1.429 . S
C1450 H1474 0.950 . S
C1451 C1468 1.574 . S
C1451 C1470 1.368 . S
C1451 H1475 0.949 . S
H1452 C1456 0.949 . S
C1453 C1454 1.349 . S
C1453 C1455 1.327 . S
C1453 H1476 0.950 . S
C1454 C1453 1.349 . S
C1454 C1466 1.349 . S
C1455 C1453 1.327 . S
C1455 C1471 1.429 . S
C1455 H1477 0.950 . S
C1456 H1452 0.949 . S
C1456 C1464 1.574 . S
C1456 C1472 1.368 . S
H1457 C1465 0.950 . S
H1458 C1463 0.950 . S
H1459 C1464 0.949 . S
H1460 C1466 0.950 . S
H1461 C1467 0.950 . S
H1462 C1468 0.949 . S
C1463 H1458 0.950 . S
C1463 C1465 1.327 . S
C1463 C1469 1.429 . S
C1464 C1456 1.574 . S
C1464 H1459 0.949 . S
C1464 C1470 1.368 . S
C1465 C1449 1.349 . S
C1465 H1457 0.950 . S
C1465 C1463 1.327 . S
C1466 C1454 1.349 . S
C1466 H1460 0.950 . S
C1466 C1467 1.327 . S
C1467 H1461 0.950 . S
C1467 C1466 1.327 . S
C1467 C1471 1.429 . S
C1468 C1451 1.574 . S
C1468 H1462 0.949 . S
C1468 C1472 1.368 . S
C1469 C1450 1.429 . S
C1469 C1463 1.429 . S
C1469 C1470 1.523 . S
C1470 C1451 1.368 . S
C1470 C1464 1.368 . S
C1470 C1469 1.523 . S
C1471 C1455 1.429 . S
C1471 C1467 1.429 . S
C1471 C1472 1.523 . S
C1472 C1456 1.368 . S
C1472 C1468 1.368 . S
C1472 C1471 1.523 . S
H1473 C1448 0.950 . S
H1474 C1450 0.950 . S
H1475 C1451 0.949 . S
H1476 C1453 0.950 . S
H1477 C1455 0.950 . S
C1478 C1479 1.349 . S
C1478 C1480 1.327 . S
C1478 H1503 0.950 . S
C1479 C1478 1.349 . S
C1479 C1495 1.349 . S
C1480 C1478 1.327 . S
C1480 C1499 1.429 . S
C1480 H1504 0.950 . S
C1481 C1498 1.574 . S
C1481 C1500 1.368 . S
C1481 H1505 0.949 . S
H1482 C1486 0.949 . S
C1483 C1484 1.349 . S
C1483 C1485 1.327 . S
C1483 H1506 0.950 . S
C1484 C1483 1.349 . S
C1484 C1496 1.349 . S
C1485 C1483 1.327 . S
C1485 C1501 1.429 . S
C1485 H1507 0.950 . S
C1486 H1482 0.949 . S
C1486 C1494 1.574 . S
C1486 C1502 1.368 . S
H1487 C1495 0.950 . S
H1488 C1493 0.950 . S
H1489 C1494 0.949 . S
H1490 C1496 0.950 . S
H1491 C1497 0.950 . S
H1492 C1498 0.949 . S
C1493 H1488 0.950 . S
C1493 C1495 1.327 . S
C1493 C1499 1.429 . S
C1494 C1486 1.574 . S
C1494 H1489 0.949 . S
C1494 C1500 1.368 . S
C1495 C1479 1.349 . S
C1495 H1487 0.950 . S
C1495 C1493 1.327 . S
C1496 C1484 1.349 . S
C1496 H1490 0.950 . S
C1496 C1497 1.327 . S
C1497 H1491 0.950 . S
C1497 C1496 1.327 . S
C1497 C1501 1.429 . S
C1498 C1481 1.574 . S
C1498 H1492 0.949 . S
C1498 C1502 1.368 . S
C1499 C1480 1.429 . S
C1499 C1493 1.429 . S
C1499 C1500 1.523 . S
C1500 C1481 1.368 . S
C1500 C1494 1.368 . S
C1500 C1499 1.523 . S
C1501 C1485 1.429 . S
C1501 C1497 1.429 . S
C1501 C1502 1.523 . S
C1502 C1486 1.368 . S
C1502 C1498 1.368 . S
C1502 C1501 1.523 . S
H1503 C1478 0.950 . S
H1504 C1480 0.950 . S
H1505 C1481 0.949 . S
H1506 C1483 0.950 . S
H1507 C1485 0.950 . S
C1508 C1509 1.349 . S
C1508 C1510 1.327 . S
C1508 H1533 0.950 . S
C1509 C1508 1.349 . S
C1509 C1525 1.349 . S
C1510 C1508 1.327 . S
C1510 C1529 1.429 . S
C1510 H1534 0.950 . S
C1511 C1528 1.574 1_455 S
C1511 C1530 1.368 . S
C1511 H1535 0.949 . S
H1512 C1516 0.949 . S
C1513 C1514 1.349 . S
C1513 C1515 1.327 . S
C1513 H1536 0.950 . S
C1514 C1513 1.349 . S
C1514 C1526 1.349 . S
C1515 C1513 1.327 . S
C1515 C1531 1.429 . S
C1515 H1537 0.950 . S
C1516 H1512 0.949 . S
C1516 C1524 1.574 1_655 S
C1516 C1532 1.368 . S
H1517 C1525 0.950 . S
H1518 C1523 0.950 . S
H1519 C1524 0.949 . S
H1520 C1526 0.950 . S
H1521 C1527 0.950 . S
H1522 C1528 0.949 . S
C1523 H1518 0.950 . S
C1523 C1525 1.327 . S
C1523 C1529 1.429 . S
C1524 C1516 1.574 1_455 S
C1524 H1519 0.949 . S
C1524 C1530 1.368 . S
C1525 C1509 1.349 . S
C1525 H1517 0.950 . S
C1525 C1523 1.327 . S
C1526 C1514 1.349 . S
C1526 H1520 0.950 . S
C1526 C1527 1.327 . S
C1527 H1521 0.950 . S
C1527 C1526 1.327 . S
C1527 C1531 1.429 . S
C1528 C1511 1.574 1_655 S
C1528 H1522 0.949 . S
C1528 C1532 1.368 . S
C1529 C1510 1.429 . S
C1529 C1523 1.429 . S
C1529 C1530 1.523 . S
C1530 C1511 1.368 . S
C1530 C1524 1.368 . S
C1530 C1529 1.523 . S
C1531 C1515 1.429 . S
C1531 C1527 1.429 . S
C1531 C1532 1.523 . S
C1532 C1516 1.368 . S
C1532 C1528 1.368 . S
C1532 C1531 1.523 . S
H1533 C1508 0.950 . S
H1534 C1510 0.950 . S
H1535 C1511 0.949 . S
H1536 C1513 0.950 . S
H1537 C1515 0.950 . S
C1538 C1539 1.349 . S
C1538 C1540 1.327 . S
C1538 H1563 0.950 . S
C1539 C1538 1.349 . S
C1539 C1555 1.349 . S
C1540 C1538 1.327 . S
C1540 C1559 1.429 . S
C1540 H1564 0.950 . S
C1541 C1558 1.574 . S
C1541 C1560 1.368 . S
C1541 H1565 0.949 . S
H1542 C1546 0.949 . S
C1543 C1544 1.349 . S
C1543 C1545 1.327 . S
C1543 H1566 0.950 . S
C1544 C1543 1.349 . S
C1544 C1556 1.349 . S
C1545 C1543 1.327 . S
C1545 C1561 1.429 . S
C1545 H1567 0.950 . S
C1546 H1542 0.949 . S
C1546 C1554 1.574 . S
C1546 C1562 1.368 . S
H1547 C1555 0.950 . S
H1548 C1553 0.950 . S
H1549 C1554 0.949 . S
H1550 C1556 0.950 . S
H1551 C1557 0.950 . S
H1552 C1558 0.949 . S
C1553 H1548 0.950 . S
C1553 C1555 1.327 . S
C1553 C1559 1.429 . S
C1554 C1546 1.574 . S
C1554 H1549 0.949 . S
C1554 C1560 1.368 1_455 S
C1555 C1539 1.349 . S
C1555 H1547 0.950 . S
C1555 C1553 1.327 . S
C1556 C1544 1.349 . S
C1556 H1550 0.950 . S
C1556 C1557 1.327 . S
C1557 H1551 0.950 . S
C1557 C1556 1.327 . S
C1557 C1561 1.429 . S
C1558 C1541 1.574 . S
C1558 H1552 0.949 . S
C1558 C1562 1.368 1_655 S
C1559 C1540 1.429 . S
C1559 C1553 1.429 . S
C1559 C1560 1.523 . S
C1560 C1541 1.368 . S
C1560 C1554 1.368 1_655 S
C1560 C1559 1.523 . S
C1561 C1545 1.429 . S
C1561 C1557 1.429 . S
C1561 C1562 1.523 . S
C1562 C1546 1.368 . S
C1562 C1558 1.368 1_455 S
C1562 C1561 1.523 . S
H1563 C1538 0.950 . S
H1564 C1540 0.950 . S
H1565 C1541 0.949 . S
H1566 C1543 0.950 . S
H1567 C1545 0.950 . S
C1568 C1569 1.349 . S
C1568 C1570 1.327 . S
C1568 H1593 0.950 . S
C1569 C1568 1.349 . S
C1569 C1585 1.349 . S
C1570 C1568 1.327 . S
C1570 C1589 1.429 . S
C1570 H1594 0.950 . S
C1571 C1588 1.574 . S
C1571 C1590 1.368 . S
C1571 H1595 0.949 . S
H1572 C1576 0.949 . S
C1573 C1574 1.349 . S
C1573 C1575 1.327 . S
C1573 H1596 0.950 . S
C1574 C1573 1.349 . S
C1574 C1586 1.349 . S
C1575 C1573 1.327 . S
C1575 C1591 1.429 . S
C1575 H1597 0.950 . S
C1576 H1572 0.949 . S
C1576 C1584 1.574 . S
C1576 C1592 1.368 . S
H1577 C1585 0.950 . S
H1578 C1583 0.950 . S
H1579 C1584 0.949 . S
H1580 C1586 0.950 . S
H1581 C1587 0.950 . S
H1582 C1588 0.949 . S
C1583 H1578 0.950 . S
C1583 C1585 1.327 . S
C1583 C1589 1.429 . S
C1584 C1576 1.574 . S
C1584 H1579 0.949 . S
C1584 C1590 1.368 . S
C1585 C1569 1.349 . S
C1585 H1577 0.950 . S
C1585 C1583 1.327 . S
C1586 C1574 1.349 . S
C1586 H1580 0.950 . S
C1586 C1587 1.327 . S
C1587 H1581 0.950 . S
C1587 C1586 1.327 . S
C1587 C1591 1.429 . S
C1588 C1571 1.574 . S
C1588 H1582 0.949 . S
C1588 C1592 1.368 . S
C1589 C1570 1.429 . S
C1589 C1583 1.429 . S
C1589 C1590 1.523 . S
C1590 C1571 1.368 . S
C1590 C1584 1.368 . S
C1590 C1589 1.523 . S
C1591 C1575 1.429 . S
C1591 C1587 1.429 . S
C1591 C1592 1.523 . S
C1592 C1576 1.368 . S
C1592 C1588 1.368 . S
C1592 C1591 1.523 . S
H1593 C1568 0.950 . S
H1594 C1570 0.950 . S
H1595 C1571 0.949 . S
H1596 C1573 0.950 . S
H1597 C1575 0.950 . S
C1598 C1599 1.349 1_545 S
C1598 C1600 1.327 . S
C1598 H1623 0.950 . S
C1599 C1598 1.349 1_565 S
C1599 C1615 1.349 . S
C1600 C1598 1.327 . S
C1600 C1619 1.429 1_545 S
C1600 H1624 0.950 . S
C1601 C1618 1.574 . S
C1601 C1620 1.368 1_455 S
C1601 H1625 0.949 . S
H1602 C1606 0.949 . S
C1603 C1604 1.349 1_565 S
C1603 C1605 1.327 . S
C1603 H1626 0.950 . S
C1604 C1603 1.349 1_545 S
C1604 C1616 1.349 . S
C1605 C1603 1.327 . S
C1605 C1621 1.429 . S
C1605 H1627 0.950 . S
C1606 H1602 0.949 . S
C1606 C1614 1.574 . S
C1606 C1622 1.368 1_645 S
H1607 C1615 0.950 . S
H1608 C1613 0.950 . S
H1609 C1614 0.949 . S
H1610 C1616 0.950 . S
H1611 C1617 0.950 . S
H1612 C1618 0.949 . S
C1613 H1608 0.950 . S
C1613 C1615 1.327 . S
C1613 C1619 1.429 . S
C1614 C1606 1.574 . S
C1614 H1609 0.949 . S
C1614 C1620 1.368 1_545 S
C1615 C1599 1.349 . S
C1615 H1607 0.950 . S
C1615 C1613 1.327 . S
C1616 C1604 1.349 . S
C1616 H1610 0.950 . S
C1616 C1617 1.327 . S
C1617 H1611 0.950 . S
C1617 C1616 1.327 . S
C1617 C1621 1.429 1_545 S
C1618 C1601 1.574 . S
C1618 H1612 0.949 . S
C1618 C1622 1.368 . S
C1619 C1600 1.429 1_565 S
C1619 C1613 1.429 . S
C1619 C1620 1.523 . S
C1620 C1601 1.368 1_655 S
C1620 C1614 1.368 1_565 S
C1620 C1619 1.523 . S
C1621 C1605 1.429 . S
C1621 C1617 1.429 1_565 S
C1621 C1622 1.523 . S
C1622 C1606 1.368 1_465 S
C1622 C1618 1.368 . S
C1622 C1621 1.523 . S
H1623 C1598 0.950 . S
H1624 C1600 0.950 . S
H1625 C1601 0.949 . S
H1626 C1603 0.950 . S
H1627 C1605 0.950 . S
C1628 C1629 1.349 . S
C1628 C1630 1.327 . S
C1628 H1653 0.950 . S
C1629 C1628 1.349 . S
C1629 C1645 1.349 . S
C1630 C1628 1.327 . S
C1630 C1649 1.429 . S
C1630 H1654 0.950 . S
C1631 C1648 1.574 . S
C1631 C1650 1.368 . S
C1631 H1655 0.949 . S
H1632 C1636 0.949 . S
C1633 C1634 1.349 . S
C1633 C1635 1.327 . S
C1633 H1656 0.950 . S
C1634 C1633 1.349 . S
C1634 C1646 1.349 . S
C1635 C1633 1.327 . S
C1635 C1651 1.429 . S
C1635 H1657 0.950 . S
C1636 H1632 0.949 . S
C1636 C1644 1.574 . S
C1636 C1652 1.368 . S
H1637 C1645 0.950 . S
H1638 C1643 0.950 . S
H1639 C1644 0.949 . S
H1640 C1646 0.950 . S
H1641 C1647 0.950 . S
H1642 C1648 0.949 . S
C1643 H1638 0.950 . S
C1643 C1645 1.327 . S
C1643 C1649 1.429 . S
C1644 C1636 1.574 . S
C1644 H1639 0.949 . S
C1644 C1650 1.368 . S
C1645 C1629 1.349 . S
C1645 H1637 0.950 . S
C1645 C1643 1.327 . S
C1646 C1634 1.349 . S
C1646 H1640 0.950 . S
C1646 C1647 1.327 . S
C1647 H1641 0.950 . S
C1647 C1646 1.327 . S
C1647 C1651 1.429 . S
C1648 C1631 1.574 . S
C1648 H1642 0.949 . S
C1648 C1652 1.368 . S
C1649 C1630 1.429 . S
C1649 C1643 1.429 . S
C1649 C1650 1.523 . S
C1650 C1631 1.368 . S
C1650 C1644 1.368 . S
C1650 C1649 1.523 . S
C1651 C1635 1.429 . S
C1651 C1647 1.429 . S
C1651 C1652 1.523 . S
C1652 C1636 1.368 . S
C1652 C1648 1.368 . S
C1652 C1651 1.523 . S
H1653 C1628 0.950 . S
H1654 C1630 0.950 . S
H1655 C1631 0.949 . S
H1656 C1633 0.950 . S
H1657 C1635 0.950 . S
C1658 C1659 1.349 . S
C1658 C1660 1.327 . S
C1658 H1683 0.950 . S
C1659 C1658 1.349 . S
C1659 C1675 1.349 1_565 S
C1660 C1658 1.327 . S
C1660 C1679 1.429 1_565 S
C1660 H1684 0.950 . S
C1661 C1678 1.574 1_554 S
C1661 C1680 1.368 . S
C1661 H1685 0.949 . S
H1662 C1666 0.949 . S
C1663 C1664 1.349 . S
C1663 C1665 1.327 . S
C1663 H1686 0.950 . S
C1664 C1663 1.349 . S
C1664 C1676 1.349 1_545 S
C1665 C1663 1.327 . S
C1665 C1681 1.429 . S
C1665 H1687 0.950 . S
C1666 H1662 0.949 . S
C1666 C1674 1.574 1_556 S
C1666 C1682 1.368 1_565 S
H1667 C1675 0.950 . S
H1668 C1673 0.950 . S
H1669 C1674 0.949 . S
H1670 C1676 0.950 . S
H1671 C1677 0.950 . S
H1672 C1678 0.949 . S
C1673 H1668 0.950 . S
C1673 C1675 1.327 . S
C1673 C1679 1.429 . S
C1674 C1666 1.574 1_554 S
C1674 H1669 0.949 . S
C1674 C1680 1.368 1_565 S
C1675 C1659 1.349 1_545 S
C1675 H1667 0.950 . S
C1675 C1673 1.327 . S
C1676 C1664 1.349 1_565 S
C1676 H1670 0.950 . S
C1676 C1677 1.327 . S
C1677 H1671 0.950 . S
C1677 C1676 1.327 . S
C1677 C1681 1.429 1_565 S
C1678 C1661 1.574 1_556 S
C1678 H1672 0.949 . S
C1678 C1682 1.368 . S
C1679 C1660 1.429 1_545 S
C1679 C1673 1.429 . S
C1679 C1680 1.523 . S
C1680 C1661 1.368 . S
C1680 C1674 1.368 1_545 S
C1680 C1679 1.523 . S
C1681 C1665 1.429 . S
C1681 C1677 1.429 1_545 S
C1681 C1682 1.523 . S
C1682 C1666 1.368 1_545 S
C1682 C1678 1.368 . S
C1682 C1681 1.523 . S
H1683 C1658 0.950 . S
H1684 C1660 0.950 . S
H1685 C1661 0.949 . S
H1686 C1663 0.950 . S
H1687 C1665 0.950 . S
C1688 C1689 1.349 . S
C1688 C1690 1.327 . S
C1688 H1713 0.950 . S
C1689 C1688 1.349 . S
C1689 C1705 1.349 . S
C1690 C1688 1.327 . S
C1690 C1709 1.429 . S
C1690 H1714 0.950 . S
C1691 C1708 1.574 . S
C1691 C1710 1.368 . S
C1691 H1715 0.949 . S
H1692 C1696 0.949 . S
C1693 C1694 1.349 . S
C1693 C1695 1.327 . S
C1693 H1716 0.950 . S
C1694 C1693 1.349 . S
C1694 C1706 1.349 . S
C1695 C1693 1.327 . S
C1695 C1711 1.429 . S
C1695 H1717 0.950 . S
C1696 H1692 0.949 . S
C1696 C1704 1.574 . S
C1696 C1712 1.368 . S
H1697 C1705 0.950 . S
H1698 C1703 0.950 . S
H1699 C1704 0.949 . S
H1700 C1706 0.950 . S
H1701 C1707 0.950 . S
H1702 C1708 0.949 . S
C1703 H1698 0.950 . S
C1703 C1705 1.327 . S
C1703 C1709 1.429 . S
C1704 C1696 1.574 . S
C1704 H1699 0.949 . S
C1704 C1710 1.368 . S
C1705 C1689 1.349 . S
C1705 H1697 0.950 . S
C1705 C1703 1.327 . S
C1706 C1694 1.349 . S
C1706 H1700 0.950 . S
C1706 C1707 1.327 . S
C1707 H1701 0.950 . S
C1707 C1706 1.327 . S
C1707 C1711 1.429 . S
C1708 C1691 1.574 . S
C1708 H1702 0.949 . S
C1708 C1712 1.368 . S
C1709 C1690 1.429 . S
C1709 C1703 1.429 . S
C1709 C1710 1.523 . S
C1710 C1691 1.368 . S
C1710 C1704 1.368 . S
C1710 C1709 1.523 . S
C1711 C1695 1.429 . S
C1711 C1707 1.429 . S
C1711 C1712 1.523 . S
C1712 C1696 1.368 . S
C1712 C1708 1.368 . S
C1712 C1711 1.523 . S
H1713 C1688 0.950 . S
H1714 C1690 0.950 . S
H1715 C1691 0.949 . S
H1716 C1693 0.950 . S
H1717 C1695 0.950 . S
C1718 C1719 1.349 . S
C1718 C1720 1.327 . S
C1718 H1743 0.950 . S
C1719 C1718 1.349 . S
C1719 C1735 1.349 1_545 S
C1720 C1718 1.327 . S
C1720 C1739 1.429 1_545 S
C1720 H1744 0.950 . S
C1721 C1738 1.574 . S
C1721 C1740 1.368 . S
C1721 H1745 0.949 . S
H1722 C1726 0.949 . S
C1723 C1724 1.349 . S
C1723 C1725 1.327 . S
C1723 H1746 0.950 . S
C1724 C1723 1.349 . S
C1724 C1736 1.349 1_565 S
C1725 C1723 1.327 . S
C1725 C1741 1.429 . S
C1725 H1747 0.950 . S
C1726 H1722 0.949 . S
C1726 C1734 1.574 . S
C1726 C1742 1.368 1_545 S
H1727 C1735 0.950 . S
H1728 C1733 0.950 . S
H1729 C1734 0.949 . S
H1730 C1736 0.950 . S
H1731 C1737 0.950 . S
H1732 C1738 0.949 . S
C1733 H1728 0.950 . S
C1733 C1735 1.327 . S
C1733 C1739 1.429 . S
C1734 C1726 1.574 . S
C1734 H1729 0.949 . S
C1734 C1740 1.368 1_545 S
C1735 C1719 1.349 1_565 S
C1735 H1727 0.950 . S
C1735 C1733 1.327 . S
C1736 C1724 1.349 1_545 S
C1736 H1730 0.950 . S
C1736 C1737 1.327 . S
C1737 H1731 0.950 . S
C1737 C1736 1.327 . S
C1737 C1741 1.429 1_545 S
C1738 C1721 1.574 . S
C1738 H1732 0.949 . S
C1738 C1742 1.368 . S
C1739 C1720 1.429 1_565 S
C1739 C1733 1.429 . S
C1739 C1740 1.523 . S
C1740 C1721 1.368 . S
C1740 C1734 1.368 1_565 S
C1740 C1739 1.523 . S
C1741 C1725 1.429 . S
C1741 C1737 1.429 1_565 S
C1741 C1742 1.523 . S
C1742 C1726 1.368 1_565 S
C1742 C1738 1.368 . S
C1742 C1741 1.523 . S
H1743 C1718 0.950 . S
H1744 C1720 0.950 . S
H1745 C1721 0.949 . S
H1746 C1723 0.950 . S
H1747 C1725 0.950 . S
C1748 C1749 1.349 . S
C1748 C1750 1.327 . S
C1748 H1773 0.950 . S
C1749 C1748 1.349 . S
C1749 C1765 1.349 . S
C1750 C1748 1.327 . S
C1750 C1769 1.429 . S
C1750 H1774 0.950 . S
C1751 C1768 1.574 . S
C1751 C1770 1.368 . S
C1751 H1775 0.949 . S
H1752 C1756 0.949 . S
C1753 C1754 1.349 . S
C1753 C1755 1.327 . S
C1753 H1776 0.950 . S
C1754 C1753 1.349 . S
C1754 C1766 1.349 . S
C1755 C1753 1.327 . S
C1755 C1771 1.429 . S
C1755 H1777 0.950 . S
C1756 H1752 0.949 . S
C1756 C1764 1.574 . S
C1756 C1772 1.368 . S
H1757 C1765 0.950 . S
H1758 C1763 0.950 . S
H1759 C1764 0.949 . S
H1760 C1766 0.950 . S
H1761 C1767 0.950 . S
H1762 C1768 0.949 . S
C1763 H1758 0.950 . S
C1763 C1765 1.327 . S
C1763 C1769 1.429 . S
C1764 C1756 1.574 . S
C1764 H1759 0.949 . S
C1764 C1770 1.368 . S
C1765 C1749 1.349 . S
C1765 H1757 0.950 . S
C1765 C1763 1.327 . S
C1766 C1754 1.349 . S
C1766 H1760 0.950 . S
C1766 C1767 1.327 . S
C1767 H1761 0.950 . S
C1767 C1766 1.327 . S
C1767 C1771 1.429 . S
C1768 C1751 1.574 . S
C1768 H1762 0.949 . S
C1768 C1772 1.368 . S
C1769 C1750 1.429 . S
C1769 C1763 1.429 . S
C1769 C1770 1.523 . S
C1770 C1751 1.368 . S
C1770 C1764 1.368 . S
C1770 C1769 1.523 . S
C1771 C1755 1.429 . S
C1771 C1767 1.429 . S
C1771 C1772 1.523 . S
C1772 C1756 1.368 . S
C1772 C1768 1.368 . S
C1772 C1771 1.523 . S
H1773 C1748 0.950 . S
H1774 C1750 0.950 . S
H1775 C1751 0.949 . S
H1776 C1753 0.950 . S
H1777 C1755 0.950 . S
C1778 C1779 1.336 1_565 S
C1778 C1780 1.329 . S
C1778 H1803 0.961 . S
C1779 C1778 1.336 1_545 S
C1779 C1795 1.349 . S
C1780 C1778 1.329 . S
C1780 C1799 1.429 1_565 S
C1780 H1804 0.950 . S
C1781 C1798 1.574 1_554 S
C1781 C1800 1.368 1_455 S
C1781 H1805 0.949 . S
H1782 C1786 0.949 . S
C1783 C1784 1.349 1_545 S
C1783 C1785 1.327 . S
C1783 H1806 0.950 . S
C1784 C1783 1.349 1_565 S
C1784 C1796 1.349 . S
C1785 C1783 1.327 . S
C1785 C1801 1.429 . S
C1785 H1807 0.950 . S
C1786 H1782 0.949 . S
C1786 C1794 1.574 1_556 S
C1786 C1802 1.368 1_665 S
H1787 C1795 0.950 . S
H1788 C1793 0.950 1_455 S
H1789 C1794 0.949 . S
H1790 C1796 0.950 . S
H1791 C1797 0.950 1_655 S
H1792 C1798 0.949 . S
C1793 H1788 0.950 1_655 S
C1793 C1795 1.327 . S
C1793 C1799 1.429 . S
C1794 C1786 1.574 1_554 S
C1794 H1789 0.949 . S
C1794 C1800 1.368 1_565 S
C1795 C1779 1.349 . S
C1795 H1787 0.950 . S
C1795 C1793 1.327 . S
C1796 C1784 1.349 . S
C1796 H1790 0.950 . S
C1796 C1797 1.327 . S
C1797 H1791 0.950 1_455 S
C1797 C1796 1.327 . S
C1797 C1801 1.429 1_565 S
C1798 C1781 1.574 1_556 S
C1798 H1792 0.949 . S
C1798 C1802 1.368 . S
C1799 C1780 1.429 1_545 S
C1799 C1793 1.429 . S
C1799 C1800 1.523 . S
C1800 C1781 1.368 1_655 S
C1800 C1794 1.368 1_545 S
C1800 C1799 1.523 . S
C1801 C1785 1.429 . S
C1801 C1797 1.429 1_545 S
C1801 C1802 1.523 . S
C1802 C1786 1.368 1_445 S
C1802 C1798 1.368 . S
C1802 C1801 1.523 . S
H1803 C1778 0.961 . S
H1804 C1780 0.950 . S
H1805 C1781 0.949 . S
H1806 C1783 0.950 . S
H1807 C1785 0.950 . S
C1808 C1809 1.349 . S
C1808 C1810 1.327 . S
C1808 H1833 0.950 . S
C1809 C1808 1.349 . S
C1809 C1825 1.349 . S
C1810 C1808 1.327 . S
C1810 C1829 1.429 . S
C1810 H1834 0.950 . S
C1811 C1828 1.574 . S
C1811 C1830 1.368 . S
C1811 H1835 0.949 . S
H1812 C1816 0.949 . S
C1813 C1814 1.349 . S
C1813 C1815 1.327 . S
C1813 H1836 0.950 . S
C1814 C1813 1.349 . S
C1814 C1826 1.349 . S
C1815 C1813 1.327 . S
C1815 C1831 1.429 . S
C1815 H1837 0.950 . S
C1816 H1812 0.949 . S
C1816 C1824 1.574 . S
C1816 C1832 1.368 . S
H1817 C1825 0.950 . S
H1818 C1823 0.950 . S
H1819 C1824 0.949 . S
H1820 C1826 0.950 . S
H1821 C1827 0.950 . S
H1822 C1828 0.949 . S
C1823 H1818 0.950 . S
C1823 C1825 1.327 . S
C1823 C1829 1.429 . S
C1824 C1816 1.574 . S
C1824 H1819 0.949 . S
C1824 C1830 1.368 . S
C1825 C1809 1.349 . S
C1825 H1817 0.950 . S
C1825 C1823 1.327 . S
C1826 C1814 1.349 . S
C1826 H1820 0.950 . S
C1826 C1827 1.327 . S
C1827 H1821 0.950 . S
C1827 C1826 1.327 . S
C1827 C1831 1.429 . S
C1828 C1811 1.574 . S
C1828 H1822 0.949 . S
C1828 C1832 1.368 . S
C1829 C1810 1.429 . S
C1829 C1823 1.429 . S
C1829 C1830 1.523 . S
C1830 C1811 1.368 . S
C1830 C1824 1.368 . S
C1830 C1829 1.523 . S
C1831 C1815 1.429 . S
C1831 C1827 1.429 . S
C1831 C1832 1.523 . S
C1832 C1816 1.368 . S
C1832 C1828 1.368 . S
C1832 C1831 1.523 . S
H1833 C1808 0.950 . S
H1834 C1810 0.950 . S
H1835 C1811 0.949 . S
H1836 C1813 0.950 . S
H1837 C1815 0.950 . S
C1838 C1839 1.349 . S
C1838 C1840 1.327 . S
C1838 H1863 0.950 . S
C1839 C1838 1.349 . S
C1839 C1855 1.349 . S
C1840 C1838 1.327 . S
C1840 C1859 1.429 . S
C1840 H1864 0.950 . S
C1841 C1858 1.574 . S
C1841 C1860 1.368 . S
C1841 H1865 0.949 . S
H1842 C1846 0.949 . S
C1843 C1844 1.349 . S
C1843 C1845 1.327 . S
C1843 H1866 0.950 . S
C1844 C1843 1.349 . S
C1844 C1856 1.349 . S
C1845 C1843 1.327 . S
C1845 C1861 1.429 . S
C1845 H1867 0.950 . S
C1846 H1842 0.949 . S
C1846 C1854 1.574 . S
C1846 C1862 1.368 . S
H1847 C1855 0.950 . S
H1848 C1853 0.950 . S
H1849 C1854 0.949 . S
H1850 C1856 0.950 . S
H1851 C1857 0.950 . S
H1852 C1858 0.949 . S
C1853 H1848 0.950 . S
C1853 C1855 1.327 . S
C1853 C1859 1.429 . S
C1854 C1846 1.574 . S
C1854 H1849 0.949 . S
C1854 C1860 1.368 . S
C1855 C1839 1.349 . S
C1855 H1847 0.950 . S
C1855 C1853 1.327 . S
C1856 C1844 1.349 . S
C1856 H1850 0.950 . S
C1856 C1857 1.327 . S
C1857 H1851 0.950 . S
C1857 C1856 1.327 . S
C1857 C1861 1.429 . S
C1858 C1841 1.574 . S
C1858 H1852 0.949 . S
C1858 C1862 1.368 . S
C1859 C1840 1.429 . S
C1859 C1853 1.429 . S
C1859 C1860 1.523 . S
C1860 C1841 1.368 . S
C1860 C1854 1.368 . S
C1860 C1859 1.523 . S
C1861 C1845 1.429 . S
C1861 C1857 1.429 . S
C1861 C1862 1.523 . S
C1862 C1846 1.368 . S
C1862 C1858 1.368 . S
C1862 C1861 1.523 . S
H1863 C1838 0.950 . S
H1864 C1840 0.950 . S
H1865 C1841 0.949 . S
H1866 C1843 0.950 . S
H1867 C1845 0.950 . S
C1868 C1869 1.349 . S
C1868 C1870 1.327 . S
C1868 H1893 0.950 . S
C1869 C1868 1.349 . S
C1869 C1885 1.349 . S
C1870 C1868 1.327 . S
C1870 C1889 1.429 . S
C1870 H1894 0.950 . S
C1871 C1888 1.574 . S
C1871 C1890 1.368 . S
C1871 H1895 0.949 . S
H1872 C1876 0.949 . S
C1873 C1874 1.349 . S
C1873 C1875 1.327 . S
C1873 H1896 0.950 . S
C1874 C1873 1.349 . S
C1874 C1886 1.349 . S
C1875 C1873 1.327 . S
C1875 C1891 1.429 . S
C1875 H1897 0.950 . S
C1876 H1872 0.949 . S
C1876 C1884 1.574 . S
C1876 C1892 1.368 . S
H1877 C1885 0.950 . S
H1878 C1883 0.950 . S
H1879 C1884 0.949 . S
H1880 C1886 0.950 . S
H1881 C1887 0.950 . S
H1882 C1888 0.949 . S
C1883 H1878 0.950 . S
C1883 C1885 1.327 . S
C1883 C1889 1.429 . S
C1884 C1876 1.574 . S
C1884 H1879 0.949 . S
C1884 C1890 1.368 . S
C1885 C1869 1.349 . S
C1885 H1877 0.950 . S
C1885 C1883 1.327 . S
C1886 C1874 1.349 . S
C1886 H1880 0.950 . S
C1886 C1887 1.327 . S
C1887 H1881 0.950 . S
C1887 C1886 1.327 . S
C1887 C1891 1.429 . S
C1888 C1871 1.574 . S
C1888 H1882 0.949 . S
C1888 C1892 1.368 . S
C1889 C1870 1.429 . S
C1889 C1883 1.429 . S
C1889 C1890 1.523 . S
C1890 C1871 1.368 . S
C1890 C1884 1.368 . S
C1890 C1889 1.523 . S
C1891 C1875 1.429 . S
C1891 C1887 1.429 . S
C1891 C1892 1.523 . S
C1892 C1876 1.368 . S
C1892 C1888 1.368 . S
C1892 C1891 1.523 . S
H1893 C1868 0.950 . S
H1894 C1870 0.950 . S
H1895 C1871 0.949 . S
H1896 C1873 0.950 . S
H1897 C1875 0.950 . S
C1898 C1899 1.349 . S
C1898 C1900 1.327 . S
C1898 H1923 0.950 . S
C1899 C1898 1.349 . S
C1899 C1915 1.349 . S
C1900 C1898 1.327 . S
C1900 C1919 1.429 . S
C1900 H1924 0.950 . S
C1901 C1918 1.574 . S
C1901 C1920 1.368 . S
C1901 H1925 0.949 . S
H1902 C1906 0.949 . S
C1903 C1904 1.349 . S
C1903 C1905 1.327 . S
C1903 H1926 0.950 . S
C1904 C1903 1.349 . S
C1904 C1916 1.349 . S
C1905 C1903 1.327 . S
C1905 C1921 1.429 . S
C1905 H1927 0.950 . S
C1906 H1902 0.949 . S
C1906 C1914 1.574 . S
C1906 C1922 1.368 . S
H1907 C1915 0.950 . S
H1908 C1913 0.950 . S
H1909 C1914 0.949 . S
H1910 C1916 0.950 . S
H1911 C1917 0.950 . S
H1912 C1918 0.949 . S
C1913 H1908 0.950 . S
C1913 C1915 1.327 . S
C1913 C1919 1.429 . S
C1914 C1906 1.574 . S
C1914 H1909 0.949 . S
C1914 C1920 1.368 . S
C1915 C1899 1.349 . S
C1915 H1907 0.950 . S
C1915 C1913 1.327 . S
C1916 C1904 1.349 . S
C1916 H1910 0.950 . S
C1916 C1917 1.327 . S
C1917 H1911 0.950 . S
C1917 C1916 1.327 . S
C1917 C1921 1.429 . S
C1918 C1901 1.574 . S
C1918 H1912 0.949 . S
C1918 C1922 1.368 . S
C1919 C1900 1.429 . S
C1919 C1913 1.429 . S
C1919 C1920 1.523 . S
C1920 C1901 1.368 . S
C1920 C1914 1.368 . S
C1920 C1919 1.523 . S
C1921 C1905 1.429 . S
C1921 C1917 1.429 . S
C1921 C1922 1.523 . S
C1922 C1906 1.368 . S
C1922 C1918 1.368 . S
C1922 C1921 1.523 . S
H1923 C1898 0.950 . S
H1924 C1900 0.950 . S
H1925 C1901 0.949 . S
H1926 C1903 0.950 . S
H1927 C1905 0.950 . S
C1928 C1929 1.349 . S
C1928 C1930 1.327 . S
C1928 H1953 0.950 . S
C1929 C1928 1.349 . S
C1929 C1945 1.349 . S
C1930 C1928 1.327 . S
C1930 C1949 1.429 . S
C1930 H1954 0.950 . S
C1931 C1948 1.574 1_556 S
C1931 C1950 1.368 . S
C1931 H1955 0.949 . S
H1932 C1936 0.949 . S
C1933 C1934 1.349 . S
C1933 C1935 1.327 . S
C1933 H1956 0.950 . S
C1934 C1933 1.349 . S
C1934 C1946 1.349 . S
C1935 C1933 1.327 . S
C1935 C1951 1.429 . S
C1935 H1957 0.950 . S
C1936 H1932 0.949 . S
C1936 C1944 1.574 1_554 S
C1936 C1952 1.368 . S
H1937 C1945 0.950 . S
H1938 C1943 0.950 . S
H1939 C1944 0.949 . S
H1940 C1946 0.950 . S
H1941 C1947 0.950 . S
H1942 C1948 0.949 . S
C1943 H1938 0.950 . S
C1943 C1945 1.327 . S
C1943 C1949 1.429 . S
C1944 C1936 1.574 1_556 S
C1944 H1939 0.949 . S
C1944 C1950 1.368 . S
C1945 C1929 1.349 . S
C1945 H1937 0.950 . S
C1945 C1943 1.327 . S
C1946 C1934 1.349 . S
C1946 H1940 0.950 . S
C1946 C1947 1.327 . S
C1947 H1941 0.950 . S
C1947 C1946 1.327 . S
C1947 C1951 1.429 . S
C1948 C1931 1.574 1_554 S
C1948 H1942 0.949 . S
C1948 C1952 1.368 . S
C1949 C1930 1.429 . S
C1949 C1943 1.429 . S
C1949 C1950 1.523 . S
C1950 C1931 1.368 . S
C1950 C1944 1.368 . S
C1950 C1949 1.523 . S
C1951 C1935 1.429 . S
C1951 C1947 1.429 . S
C1951 C1952 1.523 . S
C1952 C1936 1.368 . S
C1952 C1948 1.368 . S
C1952 C1951 1.523 . S
H1953 C1928 0.950 . S
H1954 C1930 0.950 . S
H1955 C1931 0.949 . S
H1956 C1933 0.950 . S
H1957 C1935 0.950 . S
C1958 C1959 1.349 . S
C1958 C1960 1.327 . S
C1958 H1983 0.965 . S
C1959 C1958 1.349 . S
C1959 C1975 1.349 . S
C1960 C1958 1.327 . S
C1960 C1979 1.429 . S
C1960 H1984 0.950 1_455 S
C1961 C1978 1.574 . S
C1961 C1980 1.368 . S
C1961 H1985 0.949 . S
H1962 C1966 0.949 . S
C1963 C1964 1.349 . S
C1963 C1965 1.338 . S
C1963 H1986 0.950 1_655 S
C1964 C1963 1.349 . S
C1964 C1976 1.349 . S
C1965 C1963 1.338 . S
C1965 C1981 1.447 . S
C1965 H1987 0.920 1_655 S
C1966 H1962 0.949 . S
C1966 C1974 1.574 . S
C1966 C1982 1.368 . S
H1967 C1975 0.950 . S
H1968 C1973 0.950 . S
H1969 C1974 0.949 . S
H1970 C1976 0.950 . S
H1971 C1977 0.950 . S
H1972 C1978 0.949 . S
C1973 H1968 0.950 . S
C1973 C1975 1.327 . S
C1973 C1979 1.429 . S
C1974 C1966 1.574 . S
C1974 H1969 0.949 . S
C1974 C1980 1.368 1_655 S
C1975 C1959 1.349 . S
C1975 H1967 0.950 . S
C1975 C1973 1.327 . S
C1976 C1964 1.349 . S
C1976 H1970 0.950 . S
C1976 C1977 1.327 . S
C1977 H1971 0.950 . S
C1977 C1976 1.327 . S
C1977 C1981 1.429 . S
C1978 C1961 1.574 . S
C1978 H1972 0.949 . S
C1978 C1982 1.368 1_455 S
C1979 C1960 1.429 . S
C1979 C1973 1.429 . S
C1979 C1980 1.523 . S
C1980 C1961 1.368 . S
C1980 C1974 1.368 1_455 S
C1980 C1979 1.523 . S
C1981 C1965 1.447 . S
C1981 C1977 1.429 . S
C1981 C1982 1.523 . S
C1982 C1966 1.368 . S
C1982 C1978 1.368 1_655 S
C1982 C1981 1.523 . S
H1983 C1958 0.965 . S
H1984 C1960 0.950 1_655 S
H1985 C1961 0.949 . S
H1986 C1963 0.950 1_455 S
H1987 C1965 0.920 1_455 S
C1988 C1989 1.349 . S
C1988 C1990 1.327 . S
C1988 H2013 0.950 . S
C1989 C1988 1.349 . S
C1989 C2005 1.349 . S
C1990 C1988 1.327 . S
C1990 C2009 1.429 . S
C1990 H2014 0.950 . S
C1991 C2008 1.574 1_556 S
C1991 C2010 1.368 . S
C1991 H2015 0.949 . S
H1992 C1996 0.949 . S
C1993 C1994 1.349 . S
C1993 C1995 1.327 . S
C1993 H2016 0.950 . S
C1994 C1993 1.349 . S
C1994 C2006 1.349 . S
C1995 C1993 1.327 . S
C1995 C2011 1.429 . S
C1995 H2017 0.950 . S
C1996 H1992 0.949 . S
C1996 C2004 1.574 1_554 S
C1996 C2012 1.368 . S
H1997 C2005 0.950 . S
H1998 C2003 0.950 . S
H1999 C2004 0.949 . S
H2000 C2006 0.950 . S
H2001 C2007 0.950 . S
H2002 C2008 0.949 . S
C2003 H1998 0.950 . S
C2003 C2005 1.327 . S
C2003 C2009 1.429 . S
C2004 C1996 1.574 1_556 S
C2004 H1999 0.949 . S
C2004 C2010 1.368 1_455 S
C2005 C1989 1.349 . S
C2005 H1997 0.950 . S
C2005 C2003 1.327 . S
C2006 C1994 1.349 . S
C2006 H2000 0.950 . S
C2006 C2007 1.327 . S
C2007 H2001 0.950 . S
C2007 C2006 1.327 . S
C2007 C2011 1.429 . S
C2008 C1991 1.574 1_554 S
C2008 H2002 0.949 . S
C2008 C2012 1.368 1_655 S
C2009 C1990 1.429 . S
C2009 C2003 1.429 . S
C2009 C2010 1.523 . S
C2010 C1991 1.368 . S
C2010 C2004 1.368 1_655 S
C2010 C2009 1.523 . S
C2011 C1995 1.429 . S
C2011 C2007 1.429 . S
C2011 C2012 1.523 . S
C2012 C1996 1.368 . S
C2012 C2008 1.368 1_455 S
C2012 C2011 1.523 . S
H2013 C1988 0.950 . S
H2014 C1990 0.950 . S
H2015 C1991 0.949 . S
H2016 C1993 0.950 . S
H2017 C1995 0.950 . S
C2018 C2019 1.349 . S
C2018 C2020 1.327 . S
C2018 H2043 0.950 . S
C2019 C2018 1.349 . S
C2019 C2035 1.349 . S
C2020 C2018 1.327 . S
C2020 C2039 1.429 . S
C2020 H2044 0.950 . S
C2021 C2038 1.574 . S
C2021 C2040 1.368 . S
C2021 H2045 0.949 . S
H2022 C2026 0.949 . S
C2023 C2024 1.349 . S
C2023 C2025 1.327 . S
C2023 H2046 0.950 . S
C2024 C2023 1.349 . S
C2024 C2036 1.349 . S
C2025 C2023 1.327 . S
C2025 C2041 1.429 . S
C2025 H2047 0.950 . S
C2026 H2022 0.949 . S
C2026 C2034 1.574 . S
C2026 C2042 1.368 . S
H2027 C2035 0.950 . S
H2028 C2033 0.950 . S
H2029 C2034 0.949 . S
H2030 C2036 0.950 . S
H2031 C2037 0.950 . S
H2032 C2038 0.949 . S
C2033 H2028 0.950 . S
C2033 C2035 1.327 . S
C2033 C2039 1.429 . S
C2034 C2026 1.574 . S
C2034 H2029 0.949 . S
C2034 C2040 1.368 . S
C2035 C2019 1.349 . S
C2035 H2027 0.950 . S
C2035 C2033 1.327 . S
C2036 C2024 1.349 . S
C2036 H2030 0.950 . S
C2036 C2037 1.327 . S
C2037 H2031 0.950 . S
C2037 C2036 1.327 . S
C2037 C2041 1.429 . S
C2038 C2021 1.574 . S
C2038 H2032 0.949 . S
C2038 C2042 1.368 . S
C2039 C2020 1.429 . S
C2039 C2033 1.429 . S
C2039 C2040 1.523 . S
C2040 C2021 1.368 . S
C2040 C2034 1.368 . S
C2040 C2039 1.523 . S
C2041 C2025 1.429 . S
C2041 C2037 1.429 . S
C2041 C2042 1.523 . S
C2042 C2026 1.368 . S
C2042 C2038 1.368 . S
C2042 C2041 1.523 . S
H2043 C2018 0.950 . S
H2044 C2020 0.950 . S
H2045 C2021 0.949 . S
H2046 C2023 0.950 . S
H2047 C2025 0.950 . S
C2048 C2049 1.349 . S
C2048 C2050 1.327 . S
C2048 H2073 0.950 . S
C2049 C2048 1.349 . S
C2049 C2065 1.349 . S
C2050 C2048 1.327 . S
C2050 C2069 1.429 1_545 S
C2050 H2074 0.950 . S
C2051 C2068 1.574 . S
C2051 C2070 1.368 . S
C2051 H2075 0.949 . S
H2052 C2056 0.949 . S
C2053 C2054 1.349 . S
C2053 C2055 1.327 . S
C2053 H2076 0.950 . S
C2054 C2053 1.349 . S
C2054 C2066 1.349 . S
C2055 C2053 1.327 . S
C2055 C2071 1.429 . S
C2055 H2077 0.950 . S
C2056 H2052 0.949 . S
C2056 C2064 1.574 . S
C2056 C2072 1.368 . S
H2057 C2065 0.950 . S
H2058 C2063 0.950 1_565 S
H2059 C2064 0.949 . S
H2060 C2066 0.950 . S
H2061 C2067 0.950 . S
H2062 C2068 0.949 . S
C2063 H2058 0.950 1_545 S
C2063 C2065 1.327 . S
C2063 C2069 1.429 1_545 S
C2064 C2056 1.574 . S
C2064 H2059 0.949 . S
C2064 C2070 1.368 . S
C2065 C2049 1.349 . S
C2065 H2057 0.950 . S
C2065 C2063 1.327 . S
C2066 C2054 1.349 . S
C2066 H2060 0.950 . S
C2066 C2067 1.327 . S
C2067 H2061 0.950 . S
C2067 C2066 1.327 . S
C2067 C2071 1.429 . S
C2068 C2051 1.574 . S
C2068 H2062 0.949 . S
C2068 C2072 1.368 . S
C2069 C2050 1.429 1_565 S
C2069 C2063 1.429 1_565 S
C2069 C2070 1.523 . S
C2070 C2051 1.368 . S
C2070 C2064 1.368 . S
C2070 C2069 1.523 . S
C2071 C2055 1.429 . S
C2071 C2067 1.429 . S
C2071 C2072 1.523 . S
C2072 C2056 1.368 . S
C2072 C2068 1.368 . S
C2072 C2071 1.523 . S
H2073 C2048 0.950 . S
H2074 C2050 0.950 . S
H2075 C2051 0.949 . S
H2076 C2053 0.950 . S
H2077 C2055 0.950 . S
C2078 C2079 1.349 1_565 S
C2078 C2080 1.327 . S
C2078 H2103 0.950 . S
C2079 C2078 1.349 1_545 S
C2079 C2095 1.349 . S
C2080 C2078 1.327 . S
C2080 C2099 1.429 1_565 S
C2080 H2104 0.950 . S
C2081 C2098 1.574 . S
C2081 C2100 1.368 . S
C2081 H2105 0.949 . S
H2082 C2086 0.949 . S
C2083 C2084 1.349 1_545 S
C2083 C2085 1.327 . S
C2083 H2106 0.950 . S
C2084 C2083 1.349 1_565 S
C2084 C2096 1.349 . S
C2085 C2083 1.327 . S
C2085 C2101 1.429 1_545 S
C2085 H2107 0.950 . S
C2086 H2082 0.949 . S
C2086 C2094 1.574 . S
C2086 C2102 1.368 . S
H2087 C2095 0.950 . S
H2088 C2093 0.950 . S
H2089 C2094 0.949 . S
H2090 C2096 0.950 . S
H2091 C2097 0.950 . S
H2092 C2098 0.949 . S
C2093 H2088 0.950 . S
C2093 C2095 1.327 . S
C2093 C2099 1.429 . S
C2094 C2086 1.574 . S
C2094 H2089 0.949 . S
C2094 C2100 1.368 1_565 S
C2095 C2079 1.349 . S
C2095 H2087 0.950 . S
C2095 C2093 1.327 . S
C2096 C2084 1.349 . S
C2096 H2090 0.950 . S
C2096 C2097 1.327 . S
C2097 H2091 0.950 . S
C2097 C2096 1.327 . S
C2097 C2101 1.429 . S
C2098 C2081 1.574 . S
C2098 H2092 0.949 . S
C2098 C2102 1.368 1_545 S
C2099 C2080 1.429 1_545 S
C2099 C2093 1.429 . S
C2099 C2100 1.523 . S
C2100 C2081 1.368 . S
C2100 C2094 1.368 1_545 S
C2100 C2099 1.523 . S
C2101 C2085 1.429 1_565 S
C2101 C2097 1.429 . S
C2101 C2102 1.523 . S
C2102 C2086 1.368 . S
C2102 C2098 1.368 1_565 S
C2102 C2101 1.523 . S
H2103 C2078 0.950 . S
H2104 C2080 0.950 . S
H2105 C2081 0.949 . S
H2106 C2083 0.950 . S
H2107 C2085 0.950 . S
C2108 C2109 1.349 . S
C2108 C2110 1.327 . S
C2108 H2133 0.950 . S
C2109 C2108 1.349 . S
C2109 C2125 1.349 . S
C2110 C2108 1.327 . S
C2110 C2129 1.429 . S
C2110 H2134 0.950 . S
C2111 C2128 1.574 . S
C2111 C2130 1.368 . S
C2111 H2135 0.949 . S
H2112 C2116 0.949 . S
C2113 C2114 1.349 . S
C2113 C2115 1.327 . S
C2113 H2136 0.950 . S
C2114 C2113 1.349 . S
C2114 C2126 1.349 . S
C2115 C2113 1.327 . S
C2115 C2131 1.429 1_565 S
C2115 H2137 0.950 . S
C2116 H2112 0.949 . S
C2116 C2124 1.574 . S
C2116 C2132 1.368 . S
H2117 C2125 0.950 . S
H2118 C2123 0.950 . S
H2119 C2124 0.949 . S
H2120 C2126 0.950 . S
H2121 C2127 0.950 1_545 S
H2122 C2128 0.949 . S
C2123 H2118 0.950 . S
C2123 C2125 1.327 . S
C2123 C2129 1.429 . S
C2124 C2116 1.574 . S
C2124 H2119 0.949 . S
C2124 C2130 1.368 . S
C2125 C2109 1.349 . S
C2125 H2117 0.950 . S
C2125 C2123 1.327 . S
C2126 C2114 1.349 . S
C2126 H2120 0.950 . S
C2126 C2127 1.327 . S
C2127 H2121 0.950 1_565 S
C2127 C2126 1.327 . S
C2127 C2131 1.429 1_565 S
C2128 C2111 1.574 . S
C2128 H2122 0.949 . S
C2128 C2132 1.368 . S
C2129 C2110 1.429 . S
C2129 C2123 1.429 . S
C2129 C2130 1.523 . S
C2130 C2111 1.368 . S
C2130 C2124 1.368 . S
C2130 C2129 1.523 . S
C2131 C2115 1.429 1_545 S
C2131 C2127 1.429 1_545 S
C2131 C2132 1.523 . S
C2132 C2116 1.368 . S
C2132 C2128 1.368 . S
C2132 C2131 1.523 . S
H2133 C2108 0.950 . S
H2134 C2110 0.950 . S
H2135 C2111 0.949 . S
H2136 C2113 0.950 . S
H2137 C2115 0.950 . S
C2138 C2139 1.349 . S
C2138 C2140 1.327 . S
C2138 H2163 0.950 . S
C2139 C2138 1.349 . S
C2139 C2155 1.349 1_545 S
C2140 C2138 1.327 . S
C2140 C2159 1.429 . S
C2140 H2164 0.950 . S
C2141 C2158 1.574 . S
C2141 C2160 1.368 1_565 S
C2141 H2165 0.949 . S
H2142 C2146 0.949 . S
C2143 C2144 1.349 . S
C2143 C2145 1.327 . S
C2143 H2166 0.950 . S
C2144 C2143 1.349 . S
C2144 C2156 1.349 1_565 S
C2145 C2143 1.327 . S
C2145 C2161 1.429 . S
C2145 H2167 0.950 . S
C2146 H2142 0.949 . S
C2146 C2154 1.574 . S
C2146 C2162 1.368 1_545 S
H2147 C2155 0.950 . S
H2148 C2153 0.950 . S
H2149 C2154 0.949 . S
H2150 C2156 0.950 . S
H2151 C2157 0.950 . S
H2152 C2158 0.949 . S
C2153 H2148 0.950 . S
C2153 C2155 1.327 . S
C2153 C2159 1.429 1_565 S
C2154 C2146 1.574 . S
C2154 H2149 0.949 . S
C2154 C2160 1.368 . S
C2155 C2139 1.349 1_565 S
C2155 H2147 0.950 . S
C2155 C2153 1.327 . S
C2156 C2144 1.349 1_545 S
C2156 H2150 0.950 . S
C2156 C2157 1.327 . S
C2157 H2151 0.950 . S
C2157 C2156 1.327 . S
C2157 C2161 1.429 1_545 S
C2158 C2141 1.574 . S
C2158 H2152 0.949 . S
C2158 C2162 1.368 . S
C2159 C2140 1.429 . S
C2159 C2153 1.429 1_545 S
C2159 C2160 1.523 . S
C2160 C2141 1.368 1_545 S
C2160 C2154 1.368 . S
C2160 C2159 1.523 . S
C2161 C2145 1.429 . S
C2161 C2157 1.429 1_565 S
C2161 C2162 1.523 . S
C2162 C2146 1.368 1_565 S
C2162 C2158 1.368 . S
C2162 C2161 1.523 . S
H2163 C2138 0.950 . S
H2164 C2140 0.950 . S
H2165 C2141 0.949 . S
H2166 C2143 0.950 . S
H2167 C2145 0.950 . S
C2168 C2169 1.349 . S
C2168 C2170 1.327 . S
C2168 H2193 0.950 . S
C2169 C2168 1.349 . S
C2169 C2185 1.349 . S
C2170 C2168 1.327 . S
C2170 C2189 1.429 . S
C2170 H2194 0.950 . S
C2171 C2188 1.574 . S
C2171 C2190 1.368 . S
C2171 H2195 0.949 . S
H2172 C2176 0.949 . S
C2173 C2174 1.349 . S
C2173 C2175 1.327 . S
C2173 H2196 0.950 . S
C2174 C2173 1.349 . S
C2174 C2186 1.349 . S
C2175 C2173 1.327 . S
C2175 C2191 1.429 1_565 S
C2175 H2197 0.950 1_565 S
C2176 H2172 0.949 . S
C2176 C2184 1.574 . S
C2176 C2192 1.368 . S
H2177 C2185 0.950 . S
H2178 C2183 0.950 . S
H2179 C2184 0.949 . S
H2180 C2186 0.950 . S
H2181 C2187 0.950 . S
H2182 C2188 0.949 . S
C2183 H2178 0.950 . S
C2183 C2185 1.327 . S
C2183 C2189 1.429 . S
C2184 C2176 1.574 . S
C2184 H2179 0.949 . S
C2184 C2190 1.368 . S
C2185 C2169 1.349 . S
C2185 H2177 0.950 . S
C2185 C2183 1.327 . S
C2186 C2174 1.349 . S
C2186 H2180 0.950 . S
C2186 C2187 1.327 . S
C2187 H2181 0.950 . S
C2187 C2186 1.327 . S
C2187 C2191 1.429 1_565 S
C2188 C2171 1.574 . S
C2188 H2182 0.949 . S
C2188 C2192 1.368 . S
C2189 C2170 1.429 . S
C2189 C2183 1.429 . S
C2189 C2190 1.523 . S
C2190 C2171 1.368 . S
C2190 C2184 1.368 . S
C2190 C2189 1.523 . S
C2191 C2175 1.429 1_545 S
C2191 C2187 1.429 1_545 S
C2191 C2192 1.523 . S
C2192 C2176 1.368 . S
C2192 C2188 1.368 . S
C2192 C2191 1.523 . S
H2193 C2168 0.950 . S
H2194 C2170 0.950 . S
H2195 C2171 0.949 . S
H2196 C2173 0.950 . S
H2197 C2175 0.950 1_545 S
C2198 C2199 1.349 . S
C2198 C2200 1.332 . S
C2198 H2223 0.950 1_565 S
C2199 C2198 1.349 . S
C2199 C2215 1.349 . S
C2200 C2198 1.332 . S
C2200 C2219 1.438 . S
C2200 H2224 0.936 1_565 S
C2201 C2218 1.574 . S
C2201 C2220 1.368 . S
C2201 H2225 0.949 . S
H2202 C2206 0.949 . S
C2203 C2204 1.357 . S
C2203 C2205 1.325 1_545 S
C2203 H2226 0.944 1_545 S
C2204 C2203 1.357 . S
C2204 C2216 1.349 . S
C2205 C2203 1.325 1_565 S
C2205 C2221 1.429 1_565 S
C2205 H2227 0.950 . S
C2206 H2202 0.949 . S
C2206 C2214 1.574 . S
C2206 C2222 1.368 . S
H2207 C2215 0.950 . S
H2208 C2213 0.950 . S
H2209 C2214 0.949 . S
H2210 C2216 0.950 . S
H2211 C2217 0.950 . S
H2212 C2218 0.949 . S
C2213 H2208 0.950 . S
C2213 C2215 1.327 . S
C2213 C2219 1.429 . S
C2214 C2206 1.574 . S
C2214 H2209 0.949 . S
C2214 C2220 1.368 1_545 S
C2215 C2199 1.349 . S
C2215 H2207 0.950 . S
C2215 C2213 1.327 . S
C2216 C2204 1.349 . S
C2216 H2210 0.950 . S
C2216 C2217 1.327 . S
C2217 H2211 0.950 . S
C2217 C2216 1.327 . S
C2217 C2221 1.429 . S
C2218 C2201 1.574 . S
C2218 H2212 0.949 . S
C2218 C2222 1.368 1_565 S
C2219 C2200 1.438 . S
C2219 C2213 1.429 . S
C2219 C2220 1.523 . S
C2220 C2201 1.368 . S
C2220 C2214 1.368 1_565 S
C2220 C2219 1.523 . S
C2221 C2205 1.429 1_545 S
C2221 C2217 1.429 . S
C2221 C2222 1.523 . S
C2222 C2206 1.368 . S
C2222 C2218 1.368 1_545 S
C2222 C2221 1.523 . S
H2223 C2198 0.950 1_545 S
H2224 C2200 0.936 1_545 S
H2225 C2201 0.949 . S
H2226 C2203 0.944 1_565 S
H2227 C2205 0.950 . S
C2228 C2229 1.349 . S
C2228 C2230 1.327 . S
C2228 H2253 0.950 . S
C2229 C2228 1.349 . S
C2229 C2245 1.349 . S
C2230 C2228 1.327 . S
C2230 C2249 1.429 1_545 S
C2230 H2254 0.950 . S
C2231 C2248 1.574 . S
C2231 C2250 1.368 . S
C2231 H2255 0.949 . S
H2232 C2236 0.949 . S
C2233 C2234 1.349 . S
C2233 C2235 1.327 . S
C2233 H2256 0.950 . S
C2234 C2233 1.349 . S
C2234 C2246 1.349 . S
C2235 C2233 1.327 . S
C2235 C2251 1.429 . S
C2235 H2257 0.950 . S
C2236 H2232 0.949 . S
C2236 C2244 1.574 . S
C2236 C2252 1.368 . S
H2237 C2245 0.950 . S
H2238 C2243 0.950 1_565 S
H2239 C2244 0.949 . S
H2240 C2246 0.950 . S
H2241 C2247 0.950 . S
H2242 C2248 0.949 . S
C2243 H2238 0.950 1_545 S
C2243 C2245 1.327 . S
C2243 C2249 1.429 1_545 S
C2244 C2236 1.574 . S
C2244 H2239 0.949 . S
C2244 C2250 1.368 . S
C2245 C2229 1.349 . S
C2245 H2237 0.950 . S
C2245 C2243 1.327 . S
C2246 C2234 1.349 . S
C2246 H2240 0.950 . S
C2246 C2247 1.327 . S
C2247 H2241 0.950 . S
C2247 C2246 1.327 . S
C2247 C2251 1.429 . S
C2248 C2231 1.574 . S
C2248 H2242 0.949 . S
C2248 C2252 1.368 . S
C2249 C2230 1.429 1_565 S
C2249 C2243 1.429 1_565 S
C2249 C2250 1.523 . S
C2250 C2231 1.368 . S
C2250 C2244 1.368 . S
C2250 C2249 1.523 . S
C2251 C2235 1.429 . S
C2251 C2247 1.429 . S
C2251 C2252 1.523 . S
C2252 C2236 1.368 . S
C2252 C2248 1.368 . S
C2252 C2251 1.523 . S
H2253 C2228 0.950 . S
H2254 C2230 0.950 . S
H2255 C2231 0.949 . S
H2256 C2233 0.950 . S
H2257 C2235 0.950 . S
C2258 C2259 1.349 . S
C2258 C2260 1.327 . S
C2258 H2283 0.950 . S
C2259 C2258 1.349 . S
C2259 C2275 1.349 . S
C2260 C2258 1.327 . S
C2260 C2279 1.429 . S
C2260 H2284 0.950 . S
C2261 C2278 1.574 . S
C2261 C2280 1.368 1_565 S
C2261 H2285 0.949 . S
H2262 C2266 0.949 . S
C2263 C2264 1.349 . S
C2263 C2265 1.327 . S
C2263 H2286 0.950 . S
C2264 C2263 1.349 . S
C2264 C2276 1.363 . S
C2265 C2263 1.327 . S
C2265 C2281 1.429 . S
C2265 H2287 0.950 . S
C2266 H2262 0.949 . S
C2266 C2274 1.574 . S
C2266 C2282 1.368 1_545 S
H2267 C2275 0.950 1_565 S
H2268 C2273 0.929 1_565 S
H2269 C2274 0.949 . S
H2270 C2276 0.940 1_545 S
H2271 C2277 0.950 . S
H2272 C2278 0.949 . S
C2273 H2268 0.929 1_545 S
C2273 C2275 1.334 . S
C2273 C2279 1.443 . S
C2274 C2266 1.574 . S
C2274 H2269 0.949 . S
C2274 C2280 1.368 . S
C2275 C2259 1.349 . S
C2275 H2267 0.950 1_545 S
C2275 C2273 1.334 . S
C2276 C2264 1.363 . S
C2276 H2270 0.940 1_565 S
C2276 C2277 1.323 1_565 S
C2277 H2271 0.950 . S
C2277 C2276 1.323 1_545 S
C2277 C2281 1.429 1_545 S
C2278 C2261 1.574 . S
C2278 H2272 0.949 . S
C2278 C2282 1.368 . S
C2279 C2260 1.429 . S
C2279 C2273 1.443 . S
C2279 C2280 1.523 . S
C2280 C2261 1.368 1_545 S
C2280 C2274 1.368 . S
C2280 C2279 1.523 . S
C2281 C2265 1.429 . S
C2281 C2277 1.429 1_565 S
C2281 C2282 1.523 . S
C2282 C2266 1.368 1_565 S
C2282 C2278 1.368 . S
C2282 C2281 1.523 . S
H2283 C2258 0.950 . S
H2284 C2260 0.950 . S
H2285 C2261 0.949 . S
H2286 C2263 0.950 . S
H2287 C2265 0.950 . S
C2288 C2289 1.349 . S
C2288 C2290 1.327 . S
C2288 H2313 0.950 . S
C2289 C2288 1.349 . S
C2289 C2305 1.349 . S
C2290 C2288 1.327 . S
C2290 C2309 1.429 . S
C2290 H2314 0.950 . S
C2291 C2308 1.574 . S
C2291 C2310 1.368 . S
C2291 H2315 0.949 . S
H2292 C2296 0.949 . S
C2293 C2294 1.349 . S
C2293 C2295 1.327 . S
C2293 H2316 0.950 . S
C2294 C2293 1.349 . S
C2294 C2306 1.349 . S
C2295 C2293 1.327 . S
C2295 C2311 1.429 1_565 S
C2295 H2317 0.950 1_565 S
C2296 H2292 0.949 . S
C2296 C2304 1.574 . S
C2296 C2312 1.368 . S
H2297 C2305 0.950 . S
H2298 C2303 0.950 . S
H2299 C2304 0.949 . S
H2300 C2306 0.950 . S
H2301 C2307 0.950 . S
H2302 C2308 0.949 . S
C2303 H2298 0.950 . S
C2303 C2305 1.327 . S
C2303 C2309 1.429 . S
C2304 C2296 1.574 . S
C2304 H2299 0.949 . S
C2304 C2310 1.368 . S
C2305 C2289 1.349 . S
C2305 H2297 0.950 . S
C2305 C2303 1.327 . S
C2306 C2294 1.349 . S
C2306 H2300 0.950 . S
C2306 C2307 1.327 . S
C2307 H2301 0.950 . S
C2307 C2306 1.327 . S
C2307 C2311 1.429 1_565 S
C2308 C2291 1.574 . S
C2308 H2302 0.949 . S
C2308 C2312 1.368 . S
C2309 C2290 1.429 . S
C2309 C2303 1.429 . S
C2309 C2310 1.523 . S
C2310 C2291 1.368 . S
C2310 C2304 1.368 . S
C2310 C2309 1.523 . S
C2311 C2295 1.429 1_545 S
C2311 C2307 1.429 1_545 S
C2311 C2312 1.523 . S
C2312 C2296 1.368 . S
C2312 C2308 1.368 . S
C2312 C2311 1.523 . S
H2313 C2288 0.950 . S
H2314 C2290 0.950 . S
H2315 C2291 0.949 . S
H2316 C2293 0.950 . S
H2317 C2295 0.950 1_545 S
C2318 C2319 1.349 1_545 S
C2318 C2320 1.327 . S
C2318 H2343 0.950 . S
C2319 C2318 1.349 1_565 S
C2319 C2335 1.349 . S
C2320 C2318 1.327 . S
C2320 C2339 1.429 1_545 S
C2320 H2344 0.950 . S
C2321 C2338 1.574 . S
C2321 C2340 1.368 . S
C2321 H2345 0.949 . S
H2322 C2326 0.949 . S
C2323 C2324 1.349 1_565 S
C2323 C2325 1.327 . S
C2323 H2346 0.950 . S
C2324 C2323 1.349 1_545 S
C2324 C2336 1.349 . S
C2325 C2323 1.327 . S
C2325 C2341 1.429 1_565 S
C2325 H2347 0.950 . S
C2326 H2322 0.949 . S
C2326 C2334 1.574 . S
C2326 C2342 1.368 . S
H2327 C2335 0.950 . S
H2328 C2333 0.950 . S
H2329 C2334 0.949 . S
H2330 C2336 0.950 . S
H2331 C2337 0.950 . S
H2332 C2338 0.949 . S
C2333 H2328 0.950 . S
C2333 C2335 1.327 . S
C2333 C2339 1.429 . S
C2334 C2326 1.574 . S
C2334 H2329 0.949 . S
C2334 C2340 1.368 1_545 S
C2335 C2319 1.349 . S
C2335 H2327 0.950 . S
C2335 C2333 1.327 . S
C2336 C2324 1.349 . S
C2336 H2330 0.950 . S
C2336 C2337 1.327 . S
C2337 H2331 0.950 . S
C2337 C2336 1.327 . S
C2337 C2341 1.429 . S
C2338 C2321 1.574 . S
C2338 H2332 0.949 . S
C2338 C2342 1.368 1_565 S
C2339 C2320 1.429 1_565 S
C2339 C2333 1.429 . S
C2339 C2340 1.523 . S
C2340 C2321 1.368 . S
C2340 C2334 1.368 1_565 S
C2340 C2339 1.523 . S
C2341 C2325 1.429 1_545 S
C2341 C2337 1.429 . S
C2341 C2342 1.523 . S
C2342 C2326 1.368 . S
C2342 C2338 1.368 1_545 S
C2342 C2341 1.523 . S
H2343 C2318 0.950 . S
H2344 C2320 0.950 . S
H2345 C2321 0.949 . S
H2346 C2323 0.950 . S
H2347 C2325 0.950 . S
C2348 C2349 1.349 . S
C2348 C2350 1.327 . S
C2348 H2373 0.950 . S
C2349 C2348 1.349 . S
C2349 C2365 1.349 . S
C2350 C2348 1.327 . S
C2350 C2369 1.429 . S
C2350 H2374 0.950 . S
C2351 C2368 1.574 . S
C2351 C2370 1.368 . S
C2351 H2375 0.949 . S
H2352 C2356 0.949 . S
C2353 C2354 1.349 . S
C2353 C2355 1.327 . S
C2353 H2376 0.950 . S
C2354 C2353 1.349 . S
C2354 C2366 1.349 . S
C2355 C2353 1.327 . S
C2355 C2371 1.429 1_545 S
C2355 H2377 0.950 . S
C2356 H2352 0.949 . S
C2356 C2364 1.574 . S
C2356 C2372 1.368 . S
H2357 C2365 0.950 . S
H2358 C2363 0.950 . S
H2359 C2364 0.949 . S
H2360 C2366 0.950 . S
H2361 C2367 0.950 1_565 S
H2362 C2368 0.949 . S
C2363 H2358 0.950 . S
C2363 C2365 1.327 . S
C2363 C2369 1.429 . S
C2364 C2356 1.574 . S
C2364 H2359 0.949 . S
C2364 C2370 1.368 . S
C2365 C2349 1.349 . S
C2365 H2357 0.950 . S
C2365 C2363 1.327 . S
C2366 C2354 1.349 . S
C2366 H2360 0.950 . S
C2366 C2367 1.327 . S
C2367 H2361 0.950 1_545 S
C2367 C2366 1.327 . S
C2367 C2371 1.429 1_545 S
C2368 C2351 1.574 . S
C2368 H2362 0.949 . S
C2368 C2372 1.368 . S
C2369 C2350 1.429 . S
C2369 C2363 1.429 . S
C2369 C2370 1.523 . S
C2370 C2351 1.368 . S
C2370 C2364 1.368 . S
C2370 C2369 1.523 . S
C2371 C2355 1.429 1_565 S
C2371 C2367 1.429 1_565 S
C2371 C2372 1.523 . S
C2372 C2356 1.368 . S
C2372 C2368 1.368 . S
C2372 C2371 1.523 . S
H2373 C2348 0.950 . S
H2374 C2350 0.950 . S
H2375 C2351 0.949 . S
H2376 C2353 0.950 . S
H2377 C2355 0.950 . S
C2378 C2379 1.349 . S
C2378 C2380 1.327 . S
C2378 H2403 0.950 . S
C2379 C2378 1.349 . S
C2379 C2395 1.349 . S
C2380 C2378 1.327 . S
C2380 C2399 1.429 . S
C2380 H2404 0.950 . S
C2381 C2398 1.574 . S
C2381 C2400 1.368 1_565 S
C2381 H2405 0.949 . S
H2382 C2386 0.949 . S
C2383 C2384 1.349 . S
C2383 C2385 1.327 . S
C2383 H2406 0.950 . S
C2384 C2383 1.349 . S
C2384 C2396 1.349 . S
C2385 C2383 1.327 . S
C2385 C2401 1.429 . S
C2385 H2407 0.950 . S
C2386 H2382 0.949 . S
C2386 C2394 1.574 . S
C2386 C2402 1.368 1_545 S
H2387 C2395 0.952 . S
H2388 C2393 0.950 1_565 S
H2389 C2394 0.949 . S
H2390 C2396 0.950 1_545 S
H2391 C2397 0.956 . S
H2392 C2398 0.949 . S
C2393 H2388 0.950 1_545 S
C2393 C2395 1.327 . S
C2393 C2399 1.429 . S
C2394 C2386 1.574 . S
C2394 H2389 0.949 . S
C2394 C2400 1.368 . S
C2395 C2379 1.349 . S
C2395 H2387 0.952 . S
C2395 C2393 1.327 . S
C2396 C2384 1.349 . S
C2396 H2390 0.950 1_565 S
C2396 C2397 1.325 1_565 S
C2397 H2391 0.956 . S
C2397 C2396 1.325 1_545 S
C2397 C2401 1.424 1_545 S
C2398 C2381 1.574 . S
C2398 H2392 0.949 . S
C2398 C2402 1.368 . S
C2399 C2380 1.429 . S
C2399 C2393 1.429 . S
C2399 C2400 1.523 . S
C2400 C2381 1.368 1_545 S
C2400 C2394 1.368 . S
C2400 C2399 1.523 . S
C2401 C2385 1.429 . S
C2401 C2397 1.424 1_565 S
C2401 C2402 1.523 . S
C2402 C2386 1.368 1_565 S
C2402 C2398 1.368 . S
C2402 C2401 1.523 . S
H2403 C2378 0.950 . S
H2404 C2380 0.950 . S
H2405 C2381 0.949 . S
H2406 C2383 0.950 . S
H2407 C2385 0.950 . S
C2408 C2409 1.349 . S
C2408 C2410 1.327 . S
C2408 H2433 0.950 . S
C2409 C2408 1.349 . S
C2409 C2425 1.349 . S
C2410 C2408 1.327 . S
C2410 C2429 1.429 1_545 S
C2410 H2434 0.948 1_545 S
C2411 C2428 1.574 . S
C2411 C2430 1.368 . S
C2411 H2435 0.949 . S
H2412 C2416 0.949 . S
C2413 C2414 1.349 . S
C2413 C2415 1.327 . S
C2413 H2436 0.950 . S
C2414 C2413 1.349 . S
C2414 C2426 1.349 . S
C2415 C2413 1.327 . S
C2415 C2431 1.429 . S
C2415 H2437 0.950 . S
C2416 H2412 0.949 . S
C2416 C2424 1.574 . S
C2416 C2432 1.368 . S
H2417 C2425 0.950 . S
H2418 C2423 0.936 1_565 S
H2419 C2424 0.949 . S
H2420 C2426 0.950 . S
H2421 C2427 0.950 . S
H2422 C2428 0.949 . S
C2423 H2418 0.936 1_545 S
C2423 C2425 1.327 . S
C2423 C2429 1.429 1_545 S
C2424 C2416 1.574 . S
C2424 H2419 0.949 . S
C2424 C2430 1.368 . S
C2425 C2409 1.349 . S
C2425 H2417 0.950 . S
C2425 C2423 1.327 . S
C2426 C2414 1.349 . S
C2426 H2420 0.950 . S
C2426 C2427 1.327 . S
C2427 H2421 0.950 . S
C2427 C2426 1.327 . S
C2427 C2431 1.429 . S
C2428 C2411 1.574 . S
C2428 H2422 0.949 . S
C2428 C2432 1.368 . S
C2429 C2410 1.429 1_565 S
C2429 C2423 1.429 1_565 S
C2429 C2430 1.523 . S
C2430 C2411 1.368 . S
C2430 C2424 1.368 . S
C2430 C2429 1.523 . S
C2431 C2415 1.429 . S
C2431 C2427 1.429 . S
C2431 C2432 1.523 . S
C2432 C2416 1.368 . S
C2432 C2428 1.368 . S
C2432 C2431 1.523 . S
H2433 C2408 0.950 . S
H2434 C2410 0.948 1_565 S
H2435 C2411 0.949 . S
H2436 C2413 0.950 . S
H2437 C2415 0.950 . S
C2438 C2439 1.349 . S
C2438 C2440 1.327 . S
C2438 H2463 0.950 . S
C2439 C2438 1.349 . S
C2439 C2455 1.349 . S
C2440 C2438 1.327 . S
C2440 C2459 1.429 . S
C2440 H2464 0.950 1_545 S
C2441 C2458 1.574 . S
C2441 C2460 1.368 . S
C2441 H2465 0.949 . S
H2442 C2446 0.949 . S
C2443 C2444 1.349 . S
C2443 C2445 1.327 . S
C2443 H2466 0.950 . S
C2444 C2443 1.349 . S
C2444 C2456 1.349 . S
C2445 C2443 1.327 . S
C2445 C2461 1.429 . S
C2445 H2467 0.959 . S
C2446 H2442 0.949 . S
C2446 C2454 1.574 . S
C2446 C2462 1.368 . S
H2447 C2455 0.950 . S
H2448 C2453 0.950 . S
H2449 C2454 0.949 . S
H2450 C2456 0.950 . S
H2451 C2457 0.950 . S
H2452 C2458 0.949 . S
C2453 H2448 0.950 . S
C2453 C2455 1.327 . S
C2453 C2459 1.429 . S
C2454 C2446 1.574 . S
C2454 H2449 0.949 . S
C2454 C2460 1.368 1_565 S
C2455 C2439 1.349 . S
C2455 H2447 0.950 . S
C2455 C2453 1.327 . S
C2456 C2444 1.349 . S
C2456 H2450 0.950 . S
C2456 C2457 1.327 . S
C2457 H2451 0.950 . S
C2457 C2456 1.327 . S
C2457 C2461 1.429 . S
C2458 C2441 1.574 . S
C2458 H2452 0.949 . S
C2458 C2462 1.368 1_545 S
C2459 C2440 1.429 . S
C2459 C2453 1.429 . S
C2459 C2460 1.523 . S
C2460 C2441 1.368 . S
C2460 C2454 1.368 1_545 S
C2460 C2459 1.523 . S
C2461 C2445 1.429 . S
C2461 C2457 1.429 . S
C2461 C2462 1.523 . S
C2462 C2446 1.368 . S
C2462 C2458 1.368 1_565 S
C2462 C2461 1.523 . S
H2463 C2438 0.950 . S
H2464 C2440 0.950 1_565 S
H2465 C2441 0.949 . S
H2466 C2443 0.950 . S
H2467 C2445 0.959 . S
C2468 C2469 1.349 . S
C2468 C2470 1.327 . S
C2468 H2493 0.950 . S
C2469 C2468 1.349 . S
C2469 C2485 1.349 . S
C2470 C2468 1.327 . S
C2470 C2489 1.429 . S
C2470 H2494 0.950 . S
C2471 C2488 1.574 . S
C2471 C2490 1.368 . S
C2471 H2495 0.949 . S
H2472 C2476 0.949 . S
C2473 C2474 1.349 . S
C2473 C2475 1.327 . S
C2473 H2496 0.950 . S
C2474 C2473 1.349 . S
C2474 C2486 1.349 . S
C2475 C2473 1.327 . S
C2475 C2491 1.429 1_565 S
C2475 H2497 0.950 . S
C2476 H2472 0.949 . S
C2476 C2484 1.574 . S
C2476 C2492 1.368 . S
H2477 C2485 0.950 . S
H2478 C2483 0.950 . S
H2479 C2484 0.949 . S
H2480 C2486 0.950 . S
H2481 C2487 0.950 1_545 S
H2482 C2488 0.949 . S
C2483 H2478 0.950 . S
C2483 C2485 1.327 . S
C2483 C2489 1.429 . S
C2484 C2476 1.574 . S
C2484 H2479 0.949 . S
C2484 C2490 1.368 . S
C2485 C2469 1.349 . S
C2485 H2477 0.950 . S
C2485 C2483 1.327 . S
C2486 C2474 1.349 . S
C2486 H2480 0.950 . S
C2486 C2487 1.327 . S
C2487 H2481 0.950 1_565 S
C2487 C2486 1.327 . S
C2487 C2491 1.429 1_565 S
C2488 C2471 1.574 . S
C2488 H2482 0.949 . S
C2488 C2492 1.368 . S
C2489 C2470 1.429 . S
C2489 C2483 1.429 . S
C2489 C2490 1.523 . S
C2490 C2471 1.368 . S
C2490 C2484 1.368 . S
C2490 C2489 1.523 . S
C2491 C2475 1.429 1_545 S
C2491 C2487 1.429 1_545 S
C2491 C2492 1.523 . S
C2492 C2476 1.368 . S
C2492 C2488 1.368 . S
C2492 C2491 1.523 . S
H2493 C2468 0.950 . S
H2494 C2470 0.950 . S
H2495 C2471 0.949 . S
H2496 C2473 0.950 . S
H2497 C2475 0.950 . S
C2498 C2499 1.349 . S
C2498 C2500 1.327 . S
C2498 H2523 0.950 . S
C2499 C2498 1.349 . S
C2499 C2515 1.349 . S
C2500 C2498 1.327 . S
C2500 C2519 1.429 . S
C2500 H2524 0.950 . S
C2501 C2518 1.574 . S
C2501 C2520 1.368 1_565 S
C2501 H2525 0.949 . S
H2502 C2506 0.949 . S
C2503 C2504 1.349 . S
C2503 C2505 1.327 . S
C2503 H2526 0.950 . S
C2504 C2503 1.349 . S
C2504 C2516 1.349 . S
C2505 C2503 1.327 . S
C2505 C2521 1.429 . S
C2505 H2527 0.950 . S
C2506 H2502 0.949 . S
C2506 C2514 1.574 . S
C2506 C2522 1.368 1_545 S
H2507 C2515 0.950 1_565 S
H2508 C2513 0.935 1_565 S
H2509 C2514 0.949 . S
H2510 C2516 0.950 1_545 S
H2511 C2517 0.950 . S
H2512 C2518 0.949 . S
C2513 H2508 0.935 1_545 S
C2513 C2515 1.332 . S
C2513 C2519 1.438 . S
C2514 C2506 1.574 . S
C2514 H2509 0.949 . S
C2514 C2520 1.368 . S
C2515 C2499 1.349 . S
C2515 H2507 0.950 1_545 S
C2515 C2513 1.332 . S
C2516 C2504 1.349 . S
C2516 H2510 0.950 1_565 S
C2516 C2517 1.327 1_565 S
C2517 H2511 0.950 . S
C2517 C2516 1.327 1_545 S
C2517 C2521 1.429 1_545 S
C2518 C2501 1.574 . S
C2518 H2512 0.949 . S
C2518 C2522 1.368 . S
C2519 C2500 1.429 . S
C2519 C2513 1.438 . S
C2519 C2520 1.523 . S
C2520 C2501 1.368 1_545 S
C2520 C2514 1.368 . S
C2520 C2519 1.523 . S
C2521 C2505 1.429 . S
C2521 C2517 1.429 1_565 S
C2521 C2522 1.523 . S
C2522 C2506 1.368 1_565 S
C2522 C2518 1.368 . S
C2522 C2521 1.523 . S
H2523 C2498 0.950 . S
H2524 C2500 0.950 . S
H2525 C2501 0.949 . S
H2526 C2503 0.950 . S
H2527 C2505 0.950 . S
C2528 C2529 1.349 . S
C2528 C2530 1.327 . S
C2528 H2553 0.950 . S
C2529 C2528 1.349 . S
C2529 C2545 1.349 . S
C2530 C2528 1.327 . S
C2530 C2549 1.429 . S
C2530 H2554 0.950 . S
C2531 C2548 1.574 . S
C2531 C2550 1.368 . S
C2531 H2555 0.949 . S
H2532 C2536 0.949 . S
C2533 C2534 1.349 . S
C2533 C2535 1.327 . S
C2533 H2556 0.950 . S
C2534 C2533 1.349 . S
C2534 C2546 1.349 . S
C2535 C2533 1.327 . S
C2535 C2551 1.429 . S
C2535 H2557 0.950 . S
C2536 H2532 0.949 . S
C2536 C2544 1.574 . S
C2536 C2552 1.368 . S
H2537 C2545 0.950 . S
H2538 C2543 0.950 . S
H2539 C2544 0.949 . S
H2540 C2546 0.950 . S
H2541 C2547 0.950 . S
H2542 C2548 0.949 . S
C2543 H2538 0.950 . S
C2543 C2545 1.327 . S
C2543 C2549 1.429 . S
C2544 C2536 1.574 . S
C2544 H2539 0.949 . S
C2544 C2550 1.368 . S
C2545 C2529 1.349 . S
C2545 H2537 0.950 . S
C2545 C2543 1.327 . S
C2546 C2534 1.349 . S
C2546 H2540 0.950 . S
C2546 C2547 1.327 . S
C2547 H2541 0.950 . S
C2547 C2546 1.327 . S
C2547 C2551 1.429 . S
C2548 C2531 1.574 . S
C2548 H2542 0.949 . S
C2548 C2552 1.368 . S
C2549 C2530 1.429 . S
C2549 C2543 1.429 . S
C2549 C2550 1.523 . S
C2550 C2531 1.368 . S
C2550 C2544 1.368 . S
C2550 C2549 1.523 . S
C2551 C2535 1.429 . S
C2551 C2547 1.429 . S
C2551 C2552 1.523 . S
C2552 C2536 1.368 . S
C2552 C2548 1.368 . S
C2552 C2551 1.523 . S
H2553 C2528 0.950 . S
H2554 C2530 0.950 . S
H2555 C2531 0.949 . S
H2556 C2533 0.950 . S
H2557 C2535 0.950 . S
C2558 C2559 1.349 . S
C2558 C2560 1.327 . S
C2558 H2583 0.950 . S
C2559 C2558 1.349 . S
C2559 C2575 1.349 . S
C2560 C2558 1.327 . S
C2560 C2579 1.429 . S
C2560 H2584 0.950 . S
C2561 C2578 1.574 . S
C2561 C2580 1.368 . S
C2561 H2585 0.949 . S
H2562 C2566 0.949 . S
C2563 C2564 1.349 . S
C2563 C2565 1.327 . S
C2563 H2586 0.950 . S
C2564 C2563 1.349 . S
C2564 C2576 1.349 . S
C2565 C2563 1.327 . S
C2565 C2581 1.429 . S
C2565 H2587 0.950 . S
C2566 H2562 0.949 . S
C2566 C2574 1.574 . S
C2566 C2582 1.368 . S
H2567 C2575 0.950 . S
H2568 C2573 0.950 . S
H2569 C2574 0.949 . S
H2570 C2576 0.950 . S
H2571 C2577 0.950 . S
H2572 C2578 0.949 . S
C2573 H2568 0.950 . S
C2573 C2575 1.327 . S
C2573 C2579 1.429 . S
C2574 C2566 1.574 . S
C2574 H2569 0.949 . S
C2574 C2580 1.368 . S
C2575 C2559 1.349 . S
C2575 H2567 0.950 . S
C2575 C2573 1.327 . S
C2576 C2564 1.349 . S
C2576 H2570 0.950 . S
C2576 C2577 1.327 . S
C2577 H2571 0.950 . S
C2577 C2576 1.327 . S
C2577 C2581 1.429 . S
C2578 C2561 1.574 . S
C2578 H2572 0.949 . S
C2578 C2582 1.368 . S
C2579 C2560 1.429 . S
C2579 C2573 1.429 . S
C2579 C2580 1.523 . S
C2580 C2561 1.368 . S
C2580 C2574 1.368 . S
C2580 C2579 1.523 . S
C2581 C2565 1.429 . S
C2581 C2577 1.429 . S
C2581 C2582 1.523 . S
C2582 C2566 1.368 . S
C2582 C2578 1.368 . S
C2582 C2581 1.523 . S
H2583 C2558 0.950 . S
H2584 C2560 0.950 . S
H2585 C2561 0.949 . S
H2586 C2563 0.950 . S
H2587 C2565 0.950 . S
C2588 C2589 1.349 . S
C2588 C2590 1.327 . S
C2588 H2613 0.950 . S
C2589 C2588 1.349 . S
C2589 C2605 1.349 . S
C2590 C2588 1.327 . S
C2590 C2609 1.429 . S
C2590 H2614 0.950 . S
C2591 C2608 1.574 . S
C2591 C2610 1.368 . S
C2591 H2615 0.949 . S
H2592 C2596 0.949 . S
C2593 C2594 1.349 . S
C2593 C2595 1.327 . S
C2593 H2616 0.950 . S
C2594 C2593 1.349 . S
C2594 C2606 1.349 . S
C2595 C2593 1.327 . S
C2595 C2611 1.429 . S
C2595 H2617 0.950 . S
C2596 H2592 0.949 . S
C2596 C2604 1.574 . S
C2596 C2612 1.368 . S
H2597 C2605 0.950 . S
H2598 C2603 0.950 . S
H2599 C2604 0.949 . S
H2600 C2606 0.950 . S
H2601 C2607 0.950 . S
H2602 C2608 0.949 . S
C2603 H2598 0.950 . S
C2603 C2605 1.327 . S
C2603 C2609 1.429 . S
C2604 C2596 1.574 . S
C2604 H2599 0.949 . S
C2604 C2610 1.368 . S
C2605 C2589 1.349 . S
C2605 H2597 0.950 . S
C2605 C2603 1.327 . S
C2606 C2594 1.349 . S
C2606 H2600 0.950 . S
C2606 C2607 1.327 . S
C2607 H2601 0.950 . S
C2607 C2606 1.327 . S
C2607 C2611 1.429 . S
C2608 C2591 1.574 . S
C2608 H2602 0.949 . S
C2608 C2612 1.368 . S
C2609 C2590 1.429 . S
C2609 C2603 1.429 . S
C2609 C2610 1.523 . S
C2610 C2591 1.368 . S
C2610 C2604 1.368 . S
C2610 C2609 1.523 . S
C2611 C2595 1.429 . S
C2611 C2607 1.429 . S
C2611 C2612 1.523 . S
C2612 C2596 1.368 . S
C2612 C2608 1.368 . S
C2612 C2611 1.523 . S
H2613 C2588 0.950 . S
H2614 C2590 0.950 . S
H2615 C2591 0.949 . S
H2616 C2593 0.950 . S
H2617 C2595 0.950 . S
C2618 C2619 1.349 . S
C2618 C2620 1.327 . S
C2618 H2643 0.950 . S
C2619 C2618 1.349 . S
C2619 C2635 1.349 . S
C2620 C2618 1.327 . S
C2620 C2639 1.429 . S
C2620 H2644 0.950 . S
C2621 C2638 1.574 . S
C2621 C2640 1.368 . S
C2621 H2645 0.949 . S
H2622 C2626 0.949 . S
C2623 C2624 1.349 . S
C2623 C2625 1.327 . S
C2623 H2646 0.950 . S
C2624 C2623 1.349 . S
C2624 C2636 1.349 . S
C2625 C2623 1.327 . S
C2625 C2641 1.429 . S
C2625 H2647 0.950 . S
C2626 H2622 0.949 . S
C2626 C2634 1.574 . S
C2626 C2642 1.368 . S
H2627 C2635 0.950 . S
H2628 C2633 0.950 . S
H2629 C2634 0.949 . S
H2630 C2636 0.950 . S
H2631 C2637 0.950 . S
H2632 C2638 0.949 . S
C2633 H2628 0.950 . S
C2633 C2635 1.327 . S
C2633 C2639 1.429 . S
C2634 C2626 1.574 . S
C2634 H2629 0.949 . S
C2634 C2640 1.368 . S
C2635 C2619 1.349 . S
C2635 H2627 0.950 . S
C2635 C2633 1.327 . S
C2636 C2624 1.349 . S
C2636 H2630 0.950 . S
C2636 C2637 1.327 . S
C2637 H2631 0.950 . S
C2637 C2636 1.327 . S
C2637 C2641 1.429 . S
C2638 C2621 1.574 . S
C2638 H2632 0.949 . S
C2638 C2642 1.368 . S
C2639 C2620 1.429 . S
C2639 C2633 1.429 . S
C2639 C2640 1.523 . S
C2640 C2621 1.368 . S
C2640 C2634 1.368 . S
C2640 C2639 1.523 . S
C2641 C2625 1.429 . S
C2641 C2637 1.429 . S
C2641 C2642 1.523 . S
C2642 C2626 1.368 . S
C2642 C2638 1.368 . S
C2642 C2641 1.523 . S
H2643 C2618 0.950 . S
H2644 C2620 0.950 . S
H2645 C2621 0.949 . S
H2646 C2623 0.950 . S
H2647 C2625 0.950 . S
C2648 C2649 1.349 . S
C2648 C2650 1.327 . S
C2648 H2673 0.950 . S
C2649 C2648 1.349 . S
C2649 C2665 1.349 . S
C2650 C2648 1.327 . S
C2650 C2669 1.429 . S
C2650 H2674 0.950 . S
C2651 C2668 1.574 . S
C2651 C2670 1.368 . S
C2651 H2675 0.949 . S
H2652 C2656 0.949 . S
C2653 C2654 1.349 . S
C2653 C2655 1.327 . S
C2653 H2676 0.950 . S
C2654 C2653 1.349 . S
C2654 C2666 1.349 . S
C2655 C2653 1.327 . S
C2655 C2671 1.429 . S
C2655 H2677 0.950 . S
C2656 H2652 0.949 . S
C2656 C2664 1.574 . S
C2656 C2672 1.368 . S
H2657 C2665 0.950 . S
H2658 C2663 0.950 . S
H2659 C2664 0.949 . S
H2660 C2666 0.950 . S
H2661 C2667 0.950 . S
H2662 C2668 0.949 . S
C2663 H2658 0.950 . S
C2663 C2665 1.327 . S
C2663 C2669 1.429 . S
C2664 C2656 1.574 . S
C2664 H2659 0.949 . S
C2664 C2670 1.368 . S
C2665 C2649 1.349 . S
C2665 H2657 0.950 . S
C2665 C2663 1.327 . S
C2666 C2654 1.349 . S
C2666 H2660 0.950 . S
C2666 C2667 1.327 . S
C2667 H2661 0.950 . S
C2667 C2666 1.327 . S
C2667 C2671 1.429 . S
C2668 C2651 1.574 . S
C2668 H2662 0.949 . S
C2668 C2672 1.368 . S
C2669 C2650 1.429 . S
C2669 C2663 1.429 . S
C2669 C2670 1.523 . S
C2670 C2651 1.368 . S
C2670 C2664 1.368 . S
C2670 C2669 1.523 . S
C2671 C2655 1.429 . S
C2671 C2667 1.429 . S
C2671 C2672 1.523 . S
C2672 C2656 1.368 . S
C2672 C2668 1.368 . S
C2672 C2671 1.523 . S
H2673 C2648 0.950 . S
H2674 C2650 0.950 . S
H2675 C2651 0.949 . S
H2676 C2653 0.950 . S
H2677 C2655 0.950 . S
C2678 C2679 1.349 . S
C2678 C2680 1.327 . S
C2678 H2703 0.950 . S
C2679 C2678 1.349 . S
C2679 C2695 1.349 . S
C2680 C2678 1.327 . S
C2680 C2699 1.429 . S
C2680 H2704 0.950 . S
C2681 C2698 1.574 . S
C2681 C2700 1.368 . S
C2681 H2705 0.949 . S
H2682 C2686 0.949 . S
C2683 C2684 1.349 . S
C2683 C2685 1.327 . S
C2683 H2706 0.950 . S
C2684 C2683 1.349 . S
C2684 C2696 1.349 . S
C2685 C2683 1.327 . S
C2685 C2701 1.429 . S
C2685 H2707 0.950 . S
C2686 H2682 0.949 . S
C2686 C2694 1.574 . S
C2686 C2702 1.368 . S
H2687 C2695 0.950 . S
H2688 C2693 0.950 . S
H2689 C2694 0.949 . S
H2690 C2696 0.950 . S
H2691 C2697 0.950 . S
H2692 C2698 0.949 . S
C2693 H2688 0.950 . S
C2693 C2695 1.327 . S
C2693 C2699 1.429 . S
C2694 C2686 1.574 . S
C2694 H2689 0.949 . S
C2694 C2700 1.368 . S
C2695 C2679 1.349 . S
C2695 H2687 0.950 . S
C2695 C2693 1.327 . S
C2696 C2684 1.349 . S
C2696 H2690 0.950 . S
C2696 C2697 1.327 . S
C2697 H2691 0.950 . S
C2697 C2696 1.327 . S
C2697 C2701 1.429 . S
C2698 C2681 1.574 . S
C2698 H2692 0.949 . S
C2698 C2702 1.368 . S
C2699 C2680 1.429 . S
C2699 C2693 1.429 . S
C2699 C2700 1.523 . S
C2700 C2681 1.368 . S
C2700 C2694 1.368 . S
C2700 C2699 1.523 . S
C2701 C2685 1.429 . S
C2701 C2697 1.429 . S
C2701 C2702 1.523 . S
C2702 C2686 1.368 . S
C2702 C2698 1.368 . S
C2702 C2701 1.523 . S
H2703 C2678 0.950 . S
H2704 C2680 0.950 . S
H2705 C2681 0.949 . S
H2706 C2683 0.950 . S
H2707 C2685 0.950 . S
C2708 C2709 1.349 . S
C2708 C2710 1.327 . S
C2708 H2733 0.950 . S
C2709 C2708 1.349 . S
C2709 C2725 1.349 . S
C2710 C2708 1.327 . S
C2710 C2729 1.429 . S
C2710 H2734 0.950 . S
C2711 C2728 1.574 . S
C2711 C2730 1.368 . S
C2711 H2735 0.949 . S
H2712 C2716 0.949 . S
C2713 C2714 1.349 . S
C2713 C2715 1.327 . S
C2713 H2736 0.950 . S
C2714 C2713 1.349 . S
C2714 C2726 1.349 . S
C2715 C2713 1.327 . S
C2715 C2731 1.429 . S
C2715 H2737 0.950 . S
C2716 H2712 0.949 . S
C2716 C2724 1.574 . S
C2716 C2732 1.368 . S
H2717 C2725 0.950 . S
H2718 C2723 0.950 . S
H2719 C2724 0.949 . S
H2720 C2726 0.950 . S
H2721 C2727 0.950 . S
H2722 C2728 0.949 . S
C2723 H2718 0.950 . S
C2723 C2725 1.327 . S
C2723 C2729 1.429 . S
C2724 C2716 1.574 . S
C2724 H2719 0.949 . S
C2724 C2730 1.368 . S
C2725 C2709 1.349 . S
C2725 H2717 0.950 . S
C2725 C2723 1.327 . S
C2726 C2714 1.349 . S
C2726 H2720 0.950 . S
C2726 C2727 1.327 . S
C2727 H2721 0.950 . S
C2727 C2726 1.327 . S
C2727 C2731 1.429 . S
C2728 C2711 1.574 . S
C2728 H2722 0.949 . S
C2728 C2732 1.368 . S
C2729 C2710 1.429 . S
C2729 C2723 1.429 . S
C2729 C2730 1.523 . S
C2730 C2711 1.368 . S
C2730 C2724 1.368 . S
C2730 C2729 1.523 . S
C2731 C2715 1.429 . S
C2731 C2727 1.429 . S
C2731 C2732 1.523 . S
C2732 C2716 1.368 . S
C2732 C2728 1.368 . S
C2732 C2731 1.523 . S
H2733 C2708 0.950 . S
H2734 C2710 0.950 . S
H2735 C2711 0.949 . S
H2736 C2713 0.950 . S
H2737 C2715 0.950 . S
C2738 C2739 1.349 . S
C2738 C2740 1.327 . S
C2738 H2763 0.950 . S
C2739 C2738 1.349 . S
C2739 C2755 1.349 . S
C2740 C2738 1.327 . S
C2740 C2759 1.429 . S
C2740 H2764 0.950 . S
C2741 C2758 1.574 . S
C2741 C2760 1.368 . S
C2741 H2765 0.949 . S
H2742 C2746 0.949 . S
C2743 C2744 1.349 . S
C2743 C2745 1.327 . S
C2743 H2766 0.950 . S
C2744 C2743 1.349 . S
C2744 C2756 1.349 . S
C2745 C2743 1.327 . S
C2745 C2761 1.429 . S
C2745 H2767 0.950 . S
C2746 H2742 0.949 . S
C2746 C2754 1.574 . S
C2746 C2762 1.368 . S
H2747 C2755 0.950 . S
H2748 C2753 0.950 . S
H2749 C2754 0.949 . S
H2750 C2756 0.950 . S
H2751 C2757 0.950 . S
H2752 C2758 0.949 . S
C2753 H2748 0.950 . S
C2753 C2755 1.327 . S
C2753 C2759 1.429 . S
C2754 C2746 1.574 . S
C2754 H2749 0.949 . S
C2754 C2760 1.368 . S
C2755 C2739 1.349 . S
C2755 H2747 0.950 . S
C2755 C2753 1.327 . S
C2756 C2744 1.349 . S
C2756 H2750 0.950 . S
C2756 C2757 1.327 . S
C2757 H2751 0.950 . S
C2757 C2756 1.327 . S
C2757 C2761 1.429 . S
C2758 C2741 1.574 . S
C2758 H2752 0.949 . S
C2758 C2762 1.368 . S
C2759 C2740 1.429 . S
C2759 C2753 1.429 . S
C2759 C2760 1.523 . S
C2760 C2741 1.368 . S
C2760 C2754 1.368 . S
C2760 C2759 1.523 . S
C2761 C2745 1.429 . S
C2761 C2757 1.429 . S
C2761 C2762 1.523 . S
C2762 C2746 1.368 . S
C2762 C2758 1.368 . S
C2762 C2761 1.523 . S
H2763 C2738 0.950 . S
H2764 C2740 0.950 . S
H2765 C2741 0.949 . S
H2766 C2743 0.950 . S
H2767 C2745 0.950 . S
C2768 C2769 1.349 . S
C2768 C2770 1.327 . S
C2768 H2793 0.950 . S
C2769 C2768 1.349 . S
C2769 C2785 1.349 . S
C2770 C2768 1.327 . S
C2770 C2789 1.429 . S
C2770 H2794 0.950 . S
C2771 C2788 1.574 . S
C2771 C2790 1.368 . S
C2771 H2795 0.949 . S
H2772 C2776 0.949 . S
C2773 C2774 1.349 . S
C2773 C2775 1.327 . S
C2773 H2796 0.950 . S
C2774 C2773 1.349 . S
C2774 C2786 1.349 . S
C2775 C2773 1.327 . S
C2775 C2791 1.429 . S
C2775 H2797 0.950 . S
C2776 H2772 0.949 . S
C2776 C2784 1.574 . S
C2776 C2792 1.368 . S
H2777 C2785 0.950 . S
H2778 C2783 0.950 . S
H2779 C2784 0.949 . S
H2780 C2786 0.950 . S
H2781 C2787 0.950 . S
H2782 C2788 0.949 . S
C2783 H2778 0.950 . S
C2783 C2785 1.327 . S
C2783 C2789 1.429 . S
C2784 C2776 1.574 . S
C2784 H2779 0.949 . S
C2784 C2790 1.368 . S
C2785 C2769 1.349 . S
C2785 H2777 0.950 . S
C2785 C2783 1.327 . S
C2786 C2774 1.349 . S
C2786 H2780 0.950 . S
C2786 C2787 1.327 . S
C2787 H2781 0.950 . S
C2787 C2786 1.327 . S
C2787 C2791 1.429 . S
C2788 C2771 1.574 . S
C2788 H2782 0.949 . S
C2788 C2792 1.368 . S
C2789 C2770 1.429 . S
C2789 C2783 1.429 . S
C2789 C2790 1.523 . S
C2790 C2771 1.368 . S
C2790 C2784 1.368 . S
C2790 C2789 1.523 . S
C2791 C2775 1.429 . S
C2791 C2787 1.429 . S
C2791 C2792 1.523 . S
C2792 C2776 1.368 . S
C2792 C2788 1.368 . S
C2792 C2791 1.523 . S
H2793 C2768 0.950 . S
H2794 C2770 0.950 . S
H2795 C2771 0.949 . S
H2796 C2773 0.950 . S
H2797 C2775 0.950 . S
C2798 C2799 1.349 . S
C2798 C2800 1.327 . S
C2798 H2823 0.950 . S
C2799 C2798 1.349 . S
C2799 C2815 1.349 . S
C2800 C2798 1.327 . S
C2800 C2819 1.429 . S
C2800 H2824 0.950 . S
C2801 C2818 1.574 . S
C2801 C2820 1.368 . S
C2801 H2825 0.949 . S
H2802 C2806 0.949 . S
C2803 C2804 1.349 . S
C2803 C2805 1.327 . S
C2803 H2826 0.950 . S
C2804 C2803 1.349 . S
C2804 C2816 1.349 . S
C2805 C2803 1.327 . S
C2805 C2821 1.429 . S
C2805 H2827 0.950 . S
C2806 H2802 0.949 . S
C2806 C2814 1.574 . S
C2806 C2822 1.368 . S
H2807 C2815 0.950 . S
H2808 C2813 0.950 . S
H2809 C2814 0.949 . S
H2810 C2816 0.950 . S
H2811 C2817 0.950 . S
H2812 C2818 0.949 . S
C2813 H2808 0.950 . S
C2813 C2815 1.327 . S
C2813 C2819 1.429 . S
C2814 C2806 1.574 . S
C2814 H2809 0.949 . S
C2814 C2820 1.368 . S
C2815 C2799 1.349 . S
C2815 H2807 0.950 . S
C2815 C2813 1.327 . S
C2816 C2804 1.349 . S
C2816 H2810 0.950 . S
C2816 C2817 1.327 . S
C2817 H2811 0.950 . S
C2817 C2816 1.327 . S
C2817 C2821 1.429 . S
C2818 C2801 1.574 . S
C2818 H2812 0.949 . S
C2818 C2822 1.368 . S
C2819 C2800 1.429 . S
C2819 C2813 1.429 . S
C2819 C2820 1.523 . S
C2820 C2801 1.368 . S
C2820 C2814 1.368 . S
C2820 C2819 1.523 . S
C2821 C2805 1.429 . S
C2821 C2817 1.429 . S
C2821 C2822 1.523 . S
C2822 C2806 1.368 . S
C2822 C2818 1.368 . S
C2822 C2821 1.523 . S
H2823 C2798 0.950 . S
H2824 C2800 0.950 . S
H2825 C2801 0.949 . S
H2826 C2803 0.950 . S
H2827 C2805 0.950 . S
C2828 C2829 1.349 . S
C2828 C2830 1.327 . S
C2828 H2853 0.950 . S
C2829 C2828 1.349 . S
C2829 C2845 1.349 . S
C2830 C2828 1.327 . S
C2830 C2849 1.429 . S
C2830 H2854 0.950 . S
C2831 C2848 1.574 . S
C2831 C2850 1.368 . S
C2831 H2855 0.949 . S
H2832 C2836 0.949 . S
C2833 C2834 1.349 . S
C2833 C2835 1.327 . S
C2833 H2856 0.950 . S
C2834 C2833 1.349 . S
C2834 C2846 1.349 . S
C2835 C2833 1.327 . S
C2835 C2851 1.429 . S
C2835 H2857 0.950 . S
C2836 H2832 0.949 . S
C2836 C2844 1.574 . S
C2836 C2852 1.368 . S
H2837 C2845 0.950 . S
H2838 C2843 0.950 . S
H2839 C2844 0.949 . S
H2840 C2846 0.950 . S
H2841 C2847 0.950 . S
H2842 C2848 0.949 . S
C2843 H2838 0.950 . S
C2843 C2845 1.327 . S
C2843 C2849 1.429 . S
C2844 C2836 1.574 . S
C2844 H2839 0.949 . S
C2844 C2850 1.368 . S
C2845 C2829 1.349 . S
C2845 H2837 0.950 . S
C2845 C2843 1.327 . S
C2846 C2834 1.349 . S
C2846 H2840 0.950 . S
C2846 C2847 1.327 . S
C2847 H2841 0.950 . S
C2847 C2846 1.327 . S
C2847 C2851 1.429 . S
C2848 C2831 1.574 . S
C2848 H2842 0.949 . S
C2848 C2852 1.368 . S
C2849 C2830 1.429 . S
C2849 C2843 1.429 . S
C2849 C2850 1.523 . S
C2850 C2831 1.368 . S
C2850 C2844 1.368 . S
C2850 C2849 1.523 . S
C2851 C2835 1.429 . S
C2851 C2847 1.429 . S
C2851 C2852 1.523 . S
C2852 C2836 1.368 . S
C2852 C2848 1.368 . S
C2852 C2851 1.523 . S
H2853 C2828 0.950 . S
H2854 C2830 0.950 . S
H2855 C2831 0.949 . S
H2856 C2833 0.950 . S
H2857 C2835 0.950 . S
C2858 C2859 1.349 . S
C2858 C2860 1.327 . S
C2858 H2883 0.950 . S
C2859 C2858 1.349 . S
C2859 C2875 1.349 . S
C2860 C2858 1.327 . S
C2860 C2879 1.429 . S
C2860 H2884 0.950 . S
C2861 C2878 1.574 . S
C2861 C2880 1.368 . S
C2861 H2885 0.949 . S
H2862 C2866 0.949 . S
C2863 C2864 1.349 . S
C2863 C2865 1.327 . S
C2863 H2886 0.950 . S
C2864 C2863 1.349 . S
C2864 C2876 1.349 . S
C2865 C2863 1.327 . S
C2865 C2881 1.429 . S
C2865 H2887 0.950 . S
C2866 H2862 0.949 . S
C2866 C2874 1.574 . S
C2866 C2882 1.368 . S
H2867 C2875 0.950 . S
H2868 C2873 0.950 . S
H2869 C2874 0.949 . S
H2870 C2876 0.950 . S
H2871 C2877 0.950 . S
H2872 C2878 0.949 . S
C2873 H2868 0.950 . S
C2873 C2875 1.327 . S
C2873 C2879 1.429 . S
C2874 C2866 1.574 . S
C2874 H2869 0.949 . S
C2874 C2880 1.368 . S
C2875 C2859 1.349 . S
C2875 H2867 0.950 . S
C2875 C2873 1.327 . S
C2876 C2864 1.349 . S
C2876 H2870 0.950 . S
C2876 C2877 1.327 . S
C2877 H2871 0.950 . S
C2877 C2876 1.327 . S
C2877 C2881 1.429 . S
C2878 C2861 1.574 . S
C2878 H2872 0.949 . S
C2878 C2882 1.368 . S
C2879 C2860 1.429 . S
C2879 C2873 1.429 . S
C2879 C2880 1.523 . S
C2880 C2861 1.368 . S
C2880 C2874 1.368 . S
C2880 C2879 1.523 . S
C2881 C2865 1.429 . S
C2881 C2877 1.429 . S
C2881 C2882 1.523 . S
C2882 C2866 1.368 . S
C2882 C2878 1.368 . S
C2882 C2881 1.523 . S
H2883 C2858 0.950 . S
H2884 C2860 0.950 . S
H2885 C2861 0.949 . S
H2886 C2863 0.950 . S
H2887 C2865 0.950 . S
C2888 C2889 1.349 . S
C2888 C2890 1.327 . S
C2888 H2913 0.950 . S
C2889 C2888 1.349 . S
C2889 C2905 1.349 . S
C2890 C2888 1.327 . S
C2890 C2909 1.429 . S
C2890 H2914 0.950 . S
C2891 C2908 1.574 . S
C2891 C2910 1.368 . S
C2891 H2915 0.949 . S
H2892 C2896 0.949 . S
C2893 C2894 1.349 . S
C2893 C2895 1.327 . S
C2893 H2916 0.950 . S
C2894 C2893 1.349 . S
C2894 C2906 1.349 . S
C2895 C2893 1.327 . S
C2895 C2911 1.429 . S
C2895 H2917 0.950 . S
C2896 H2892 0.949 . S
C2896 C2904 1.574 . S
C2896 C2912 1.368 . S
H2897 C2905 0.950 . S
H2898 C2903 0.950 . S
H2899 C2904 0.949 . S
H2900 C2906 0.950 . S
H2901 C2907 0.950 . S
H2902 C2908 0.949 . S
C2903 H2898 0.950 . S
C2903 C2905 1.327 . S
C2903 C2909 1.429 . S
C2904 C2896 1.574 . S
C2904 H2899 0.949 . S
C2904 C2910 1.368 . S
C2905 C2889 1.349 . S
C2905 H2897 0.950 . S
C2905 C2903 1.327 . S
C2906 C2894 1.349 . S
C2906 H2900 0.950 . S
C2906 C2907 1.327 . S
C2907 H2901 0.950 . S
C2907 C2906 1.327 . S
C2907 C2911 1.429 . S
C2908 C2891 1.574 . S
C2908 H2902 0.949 . S
C2908 C2912 1.368 . S
C2909 C2890 1.429 . S
C2909 C2903 1.429 . S
C2909 C2910 1.523 . S
C2910 C2891 1.368 . S
C2910 C2904 1.368 . S
C2910 C2909 1.523 . S
C2911 C2895 1.429 . S
C2911 C2907 1.429 . S
C2911 C2912 1.523 . S
C2912 C2896 1.368 . S
C2912 C2908 1.368 . S
C2912 C2911 1.523 . S
H2913 C2888 0.950 . S
H2914 C2890 0.950 . S
H2915 C2891 0.949 . S
H2916 C2893 0.950 . S
H2917 C2895 0.950 . S
C2918 C2919 1.349 . S
C2918 C2920 1.327 . S
C2918 H2943 0.950 . S
C2919 C2918 1.349 . S
C2919 C2935 1.349 . S
C2920 C2918 1.327 . S
C2920 C2939 1.429 . S
C2920 H2944 0.950 . S
C2921 C2938 1.574 . S
C2921 C2940 1.368 . S
C2921 H2945 0.949 . S
H2922 C2926 0.949 . S
C2923 C2924 1.349 . S
C2923 C2925 1.327 . S
C2923 H2946 0.950 . S
C2924 C2923 1.349 . S
C2924 C2936 1.349 . S
C2925 C2923 1.327 . S
C2925 C2941 1.429 . S
C2925 H2947 0.950 . S
C2926 H2922 0.949 . S
C2926 C2934 1.574 . S
C2926 C2942 1.368 . S
H2927 C2935 0.950 . S
H2928 C2933 0.950 . S
H2929 C2934 0.949 . S
H2930 C2936 0.950 . S
H2931 C2937 0.950 . S
H2932 C2938 0.949 . S
C2933 H2928 0.950 . S
C2933 C2935 1.327 . S
C2933 C2939 1.429 . S
C2934 C2926 1.574 . S
C2934 H2929 0.949 . S
C2934 C2940 1.368 . S
C2935 C2919 1.349 . S
C2935 H2927 0.950 . S
C2935 C2933 1.327 . S
C2936 C2924 1.349 . S
C2936 H2930 0.950 . S
C2936 C2937 1.327 . S
C2937 H2931 0.950 . S
C2937 C2936 1.327 . S
C2937 C2941 1.429 . S
C2938 C2921 1.574 . S
C2938 H2932 0.949 . S
C2938 C2942 1.368 . S
C2939 C2920 1.429 . S
C2939 C2933 1.429 . S
C2939 C2940 1.523 . S
C2940 C2921 1.368 . S
C2940 C2934 1.368 . S
C2940 C2939 1.523 . S
C2941 C2925 1.429 . S
C2941 C2937 1.429 . S
C2941 C2942 1.523 . S
C2942 C2926 1.368 . S
C2942 C2938 1.368 . S
C2942 C2941 1.523 . S
H2943 C2918 0.950 . S
H2944 C2920 0.950 . S
H2945 C2921 0.949 . S
H2946 C2923 0.950 . S
H2947 C2925 0.950 . S
C2948 C2949 1.349 . S
C2948 C2950 1.327 . S
C2948 H2973 0.950 . S
C2949 C2948 1.349 . S
C2949 C2965 1.349 . S
C2950 C2948 1.327 . S
C2950 C2969 1.429 . S
C2950 H2974 0.950 . S
C2951 C2968 1.574 . S
C2951 C2970 1.368 . S
C2951 H2975 0.949 . S
H2952 C2956 0.949 . S
C2953 C2954 1.349 . S
C2953 C2955 1.327 . S
C2953 H2976 0.950 . S
C2954 C2953 1.349 . S
C2954 C2966 1.349 . S
C2955 C2953 1.327 . S
C2955 C2971 1.429 . S
C2955 H2977 0.950 . S
C2956 H2952 0.949 . S
C2956 C2964 1.574 . S
C2956 C2972 1.368 . S
H2957 C2965 0.950 . S
H2958 C2963 0.950 . S
H2959 C2964 0.949 . S
H2960 C2966 0.950 . S
H2961 C2967 0.950 . S
H2962 C2968 0.949 . S
C2963 H2958 0.950 . S
C2963 C2965 1.327 . S
C2963 C2969 1.429 . S
C2964 C2956 1.574 . S
C2964 H2959 0.949 . S
C2964 C2970 1.368 . S
C2965 C2949 1.349 . S
C2965 H2957 0.950 . S
C2965 C2963 1.327 . S
C2966 C2954 1.349 . S
C2966 H2960 0.950 . S
C2966 C2967 1.327 . S
C2967 H2961 0.950 . S
C2967 C2966 1.327 . S
C2967 C2971 1.429 . S
C2968 C2951 1.574 . S
C2968 H2962 0.949 . S
C2968 C2972 1.368 . S
C2969 C2950 1.429 . S
C2969 C2963 1.429 . S
C2969 C2970 1.523 . S
C2970 C2951 1.368 . S
C2970 C2964 1.368 . S
C2970 C2969 1.523 . S
C2971 C2955 1.429 . S
C2971 C2967 1.429 . S
C2971 C2972 1.523 . S
C2972 C2956 1.368 . S
C2972 C2968 1.368 . S
C2972 C2971 1.523 . S
H2973 C2948 0.950 . S
H2974 C2950 0.950 . S
H2975 C2951 0.949 . S
H2976 C2953 0.950 . S
H2977 C2955 0.950 . S
C2978 C2979 1.349 . S
C2978 C2980 1.327 . S
C2978 H3003 0.950 . S
C2979 C2978 1.349 . S
C2979 C2995 1.349 . S
C2980 C2978 1.327 . S
C2980 C2999 1.429 . S
C2980 H3004 0.950 . S
C2981 C2998 1.574 . S
C2981 C3000 1.368 . S
C2981 H3005 0.949 . S
H2982 C2986 0.949 . S
C2983 C2984 1.349 . S
C2983 C2985 1.327 . S
C2983 H3006 0.950 . S
C2984 C2983 1.349 . S
C2984 C2996 1.349 . S
C2985 C2983 1.327 . S
C2985 C3001 1.429 . S
C2985 H3007 0.950 . S
C2986 H2982 0.949 . S
C2986 C2994 1.574 . S
C2986 C3002 1.368 . S
H2987 C2995 0.950 . S
H2988 C2993 0.950 . S
H2989 C2994 0.949 . S
H2990 C2996 0.950 . S
H2991 C2997 0.950 . S
H2992 C2998 0.949 . S
C2993 H2988 0.950 . S
C2993 C2995 1.327 . S
C2993 C2999 1.429 . S
C2994 C2986 1.574 . S
C2994 H2989 0.949 . S
C2994 C3000 1.368 . S
C2995 C2979 1.349 . S
C2995 H2987 0.950 . S
C2995 C2993 1.327 . S
C2996 C2984 1.349 . S
C2996 H2990 0.950 . S
C2996 C2997 1.327 . S
C2997 H2991 0.950 . S
C2997 C2996 1.327 . S
C2997 C3001 1.429 . S
C2998 C2981 1.574 . S
C2998 H2992 0.949 . S
C2998 C3002 1.368 . S
C2999 C2980 1.429 . S
C2999 C2993 1.429 . S
C2999 C3000 1.523 . S
C3000 C2981 1.368 . S
C3000 C2994 1.368 . S
C3000 C2999 1.523 . S
C3001 C2985 1.429 . S
C3001 C2997 1.429 . S
C3001 C3002 1.523 . S
C3002 C2986 1.368 . S
C3002 C2998 1.368 . S
C3002 C3001 1.523 . S
H3003 C2978 0.950 . S
H3004 C2980 0.950 . S
H3005 C2981 0.949 . S
H3006 C2983 0.950 . S
H3007 C2985 0.950 . S
C3008 C3009 1.349 . S
C3008 C3010 1.327 . S
C3008 H3033 0.950 . S
C3009 C3008 1.349 . S
C3009 C3025 1.349 . S
C3010 C3008 1.327 . S
C3010 C3029 1.429 . S
C3010 H3034 0.950 . S
C3011 C3028 1.574 . S
C3011 C3030 1.368 . S
C3011 H3035 0.949 . S
H3012 C3016 0.949 . S
C3013 C3014 1.349 . S
C3013 C3015 1.327 . S
C3013 H3036 0.950 . S
C3014 C3013 1.349 . S
C3014 C3026 1.349 . S
C3015 C3013 1.327 . S
C3015 C3031 1.429 . S
C3015 H3037 0.950 . S
C3016 H3012 0.949 . S
C3016 C3024 1.574 . S
C3016 C3032 1.368 . S
H3017 C3025 0.950 . S
H3018 C3023 0.950 . S
H3019 C3024 0.949 . S
H3020 C3026 0.950 . S
H3021 C3027 0.950 . S
H3022 C3028 0.949 . S
C3023 H3018 0.950 . S
C3023 C3025 1.327 . S
C3023 C3029 1.429 . S
C3024 C3016 1.574 . S
C3024 H3019 0.949 . S
C3024 C3030 1.368 . S
C3025 C3009 1.349 . S
C3025 H3017 0.950 . S
C3025 C3023 1.327 . S
C3026 C3014 1.349 . S
C3026 H3020 0.950 . S
C3026 C3027 1.327 . S
C3027 H3021 0.950 . S
C3027 C3026 1.327 . S
C3027 C3031 1.429 . S
C3028 C3011 1.574 . S
C3028 H3022 0.949 . S
C3028 C3032 1.368 . S
C3029 C3010 1.429 . S
C3029 C3023 1.429 . S
C3029 C3030 1.523 . S
C3030 C3011 1.368 . S
C3030 C3024 1.368 . S
C3030 C3029 1.523 . S
C3031 C3015 1.429 . S
C3031 C3027 1.429 . S
C3031 C3032 1.523 . S
C3032 C3016 1.368 . S
C3032 C3028 1.368 . S
C3032 C3031 1.523 . S
H3033 C3008 0.950 . S
H3034 C3010 0.950 . S
H3035 C3011 0.949 . S
H3036 C3013 0.950 . S
H3037 C3015 0.950 . S
C3038 C3039 1.349 . S
C3038 C3040 1.327 . S
C3038 H3063 0.950 . S
C3039 C3038 1.349 . S
C3039 C3055 1.349 . S
C3040 C3038 1.327 . S
C3040 C3059 1.429 . S
C3040 H3064 0.950 . S
C3041 C3058 1.574 . S
C3041 C3060 1.368 . S
C3041 H3065 0.949 . S
H3042 C3046 0.949 . S
C3043 C3044 1.349 . S
C3043 C3045 1.327 . S
C3043 H3066 0.950 . S
C3044 C3043 1.349 . S
C3044 C3056 1.349 . S
C3045 C3043 1.327 . S
C3045 C3061 1.429 . S
C3045 H3067 0.950 . S
C3046 H3042 0.949 . S
C3046 C3054 1.574 . S
C3046 C3062 1.368 . S
H3047 C3055 0.950 . S
H3048 C3053 0.950 . S
H3049 C3054 0.949 . S
H3050 C3056 0.950 . S
H3051 C3057 0.950 . S
H3052 C3058 0.949 . S
C3053 H3048 0.950 . S
C3053 C3055 1.327 . S
C3053 C3059 1.429 . S
C3054 C3046 1.574 . S
C3054 H3049 0.949 . S
C3054 C3060 1.368 . S
C3055 C3039 1.349 . S
C3055 H3047 0.950 . S
C3055 C3053 1.327 . S
C3056 C3044 1.349 . S
C3056 H3050 0.950 . S
C3056 C3057 1.327 . S
C3057 H3051 0.950 . S
C3057 C3056 1.327 . S
C3057 C3061 1.429 . S
C3058 C3041 1.574 . S
C3058 H3052 0.949 . S
C3058 C3062 1.368 . S
C3059 C3040 1.429 . S
C3059 C3053 1.429 . S
C3059 C3060 1.523 . S
C3060 C3041 1.368 . S
C3060 C3054 1.368 . S
C3060 C3059 1.523 . S
C3061 C3045 1.429 . S
C3061 C3057 1.429 . S
C3061 C3062 1.523 . S
C3062 C3046 1.368 . S
C3062 C3058 1.368 . S
C3062 C3061 1.523 . S
H3063 C3038 0.950 . S
H3064 C3040 0.950 . S
H3065 C3041 0.949 . S
H3066 C3043 0.950 . S
H3067 C3045 0.950 . S
C3068 C3069 1.349 . S
C3068 C3070 1.327 . S
C3068 H3093 0.950 . S
C3069 C3068 1.349 . S
C3069 C3085 1.349 . S
C3070 C3068 1.327 . S
C3070 C3089 1.429 . S
C3070 H3094 0.950 . S
C3071 C3088 1.574 . S
C3071 C3090 1.368 . S
C3071 H3095 0.949 . S
H3072 C3076 0.949 . S
C3073 C3074 1.349 . S
C3073 C3075 1.327 . S
C3073 H3096 0.950 . S
C3074 C3073 1.349 . S
C3074 C3086 1.349 . S
C3075 C3073 1.327 . S
C3075 C3091 1.429 . S
C3075 H3097 0.950 . S
C3076 H3072 0.949 . S
C3076 C3084 1.574 . S
C3076 C3092 1.368 . S
H3077 C3085 0.950 . S
H3078 C3083 0.950 . S
H3079 C3084 0.949 . S
H3080 C3086 0.950 . S
H3081 C3087 0.950 . S
H3082 C3088 0.949 . S
C3083 H3078 0.950 . S
C3083 C3085 1.327 . S
C3083 C3089 1.429 . S
C3084 C3076 1.574 . S
C3084 H3079 0.949 . S
C3084 C3090 1.368 . S
C3085 C3069 1.349 . S
C3085 H3077 0.950 . S
C3085 C3083 1.327 . S
C3086 C3074 1.349 . S
C3086 H3080 0.950 . S
C3086 C3087 1.327 . S
C3087 H3081 0.950 . S
C3087 C3086 1.327 . S
C3087 C3091 1.429 . S
C3088 C3071 1.574 . S
C3088 H3082 0.949 . S
C3088 C3092 1.368 . S
C3089 C3070 1.429 . S
C3089 C3083 1.429 . S
C3089 C3090 1.523 . S
C3090 C3071 1.368 . S
C3090 C3084 1.368 . S
C3090 C3089 1.523 . S
C3091 C3075 1.429 . S
C3091 C3087 1.429 . S
C3091 C3092 1.523 . S
C3092 C3076 1.368 . S
C3092 C3088 1.368 . S
C3092 C3091 1.523 . S
H3093 C3068 0.950 . S
H3094 C3070 0.950 . S
H3095 C3071 0.949 . S
H3096 C3073 0.950 . S
H3097 C3075 0.950 . S
C3098 C3099 1.349 . S
C3098 C3100 1.327 . S
C3098 H3123 0.950 . S
C3099 C3098 1.349 . S
C3099 C3115 1.349 . S
C3100 C3098 1.327 . S
C3100 C3119 1.429 . S
C3100 H3124 0.950 . S
C3101 C3118 1.574 . S
C3101 C3120 1.368 . S
C3101 H3125 0.949 . S
H3102 C3106 0.949 . S
C3103 C3104 1.349 . S
C3103 C3105 1.327 . S
C3103 H3126 0.950 . S
C3104 C3103 1.349 . S
C3104 C3116 1.349 . S
C3105 C3103 1.327 . S
C3105 C3121 1.429 . S
C3105 H3127 0.950 . S
C3106 H3102 0.949 . S
C3106 C3114 1.574 . S
C3106 C3122 1.368 . S
H3107 C3115 0.950 . S
H3108 C3113 0.950 . S
H3109 C3114 0.949 . S
H3110 C3116 0.950 . S
H3111 C3117 0.950 . S
H3112 C3118 0.949 . S
C3113 H3108 0.950 . S
C3113 C3115 1.327 . S
C3113 C3119 1.429 . S
C3114 C3106 1.574 . S
C3114 H3109 0.949 . S
C3114 C3120 1.368 . S
C3115 C3099 1.349 . S
C3115 H3107 0.950 . S
C3115 C3113 1.327 . S
C3116 C3104 1.349 . S
C3116 H3110 0.950 . S
C3116 C3117 1.327 . S
C3117 H3111 0.950 . S
C3117 C3116 1.327 . S
C3117 C3121 1.429 . S
C3118 C3101 1.574 . S
C3118 H3112 0.949 . S
C3118 C3122 1.368 . S
C3119 C3100 1.429 . S
C3119 C3113 1.429 . S
C3119 C3120 1.523 . S
C3120 C3101 1.368 . S
C3120 C3114 1.368 . S
C3120 C3119 1.523 . S
C3121 C3105 1.429 . S
C3121 C3117 1.429 . S
C3121 C3122 1.523 . S
C3122 C3106 1.368 . S
C3122 C3118 1.368 . S
C3122 C3121 1.523 . S
H3123 C3098 0.950 . S
H3124 C3100 0.950 . S
H3125 C3101 0.949 . S
H3126 C3103 0.950 . S
H3127 C3105 0.950 . S
C3128 C3129 1.349 . S
C3128 C3130 1.327 . S
C3128 H3153 0.950 . S
C3129 C3128 1.349 . S
C3129 C3145 1.349 . S
C3130 C3128 1.327 . S
C3130 C3149 1.429 . S
C3130 H3154 0.950 . S
C3131 C3148 1.574 . S
C3131 C3150 1.368 . S
C3131 H3155 0.949 . S
H3132 C3136 0.949 . S
C3133 C3134 1.349 . S
C3133 C3135 1.327 . S
C3133 H3156 0.950 . S
C3134 C3133 1.349 . S
C3134 C3146 1.349 . S
C3135 C3133 1.327 . S
C3135 C3151 1.429 . S
C3135 H3157 0.950 . S
C3136 H3132 0.949 . S
C3136 C3144 1.574 . S
C3136 C3152 1.368 . S
H3137 C3145 0.950 . S
H3138 C3143 0.950 . S
H3139 C3144 0.949 . S
H3140 C3146 0.950 . S
H3141 C3147 0.950 . S
H3142 C3148 0.949 . S
C3143 H3138 0.950 . S
C3143 C3145 1.327 . S
C3143 C3149 1.429 . S
C3144 C3136 1.574 . S
C3144 H3139 0.949 . S
C3144 C3150 1.368 . S
C3145 C3129 1.349 . S
C3145 H3137 0.950 . S
C3145 C3143 1.327 . S
C3146 C3134 1.349 . S
C3146 H3140 0.950 . S
C3146 C3147 1.327 . S
C3147 H3141 0.950 . S
C3147 C3146 1.327 . S
C3147 C3151 1.429 . S
C3148 C3131 1.574 . S
C3148 H3142 0.949 . S
C3148 C3152 1.368 . S
C3149 C3130 1.429 . S
C3149 C3143 1.429 . S
C3149 C3150 1.523 . S
C3150 C3131 1.368 . S
C3150 C3144 1.368 . S
C3150 C3149 1.523 . S
C3151 C3135 1.429 . S
C3151 C3147 1.429 . S
C3151 C3152 1.523 . S
C3152 C3136 1.368 . S
C3152 C3148 1.368 . S
C3152 C3151 1.523 . S
H3153 C3128 0.950 . S
H3154 C3130 0.950 . S
H3155 C3131 0.949 . S
H3156 C3133 0.950 . S
H3157 C3135 0.950 . S
C3158 C3159 1.349 . S
C3158 C3160 1.327 . S
C3158 H3183 0.950 . S
C3159 C3158 1.349 . S
C3159 C3175 1.349 . S
C3160 C3158 1.327 . S
C3160 C3179 1.429 . S
C3160 H3184 0.950 . S
C3161 C3178 1.574 . S
C3161 C3180 1.368 . S
C3161 H3185 0.949 . S
H3162 C3166 0.949 . S
C3163 C3164 1.349 . S
C3163 C3165 1.327 . S
C3163 H3186 0.950 . S
C3164 C3163 1.349 . S
C3164 C3176 1.349 . S
C3165 C3163 1.327 . S
C3165 C3181 1.429 . S
C3165 H3187 0.950 . S
C3166 H3162 0.949 . S
C3166 C3174 1.574 . S
C3166 C3182 1.368 . S
H3167 C3175 0.950 . S
H3168 C3173 0.950 . S
H3169 C3174 0.949 . S
H3170 C3176 0.950 . S
H3171 C3177 0.950 . S
H3172 C3178 0.949 . S
C3173 H3168 0.950 . S
C3173 C3175 1.327 . S
C3173 C3179 1.429 . S
C3174 C3166 1.574 . S
C3174 H3169 0.949 . S
C3174 C3180 1.368 . S
C3175 C3159 1.349 . S
C3175 H3167 0.950 . S
C3175 C3173 1.327 . S
C3176 C3164 1.349 . S
C3176 H3170 0.950 . S
C3176 C3177 1.327 . S
C3177 H3171 0.950 . S
C3177 C3176 1.327 . S
C3177 C3181 1.429 . S
C3178 C3161 1.574 . S
C3178 H3172 0.949 . S
C3178 C3182 1.368 . S
C3179 C3160 1.429 . S
C3179 C3173 1.429 . S
C3179 C3180 1.523 . S
C3180 C3161 1.368 . S
C3180 C3174 1.368 . S
C3180 C3179 1.523 . S
C3181 C3165 1.429 . S
C3181 C3177 1.429 . S
C3181 C3182 1.523 . S
C3182 C3166 1.368 . S
C3182 C3178 1.368 . S
C3182 C3181 1.523 . S
H3183 C3158 0.950 . S
H3184 C3160 0.950 . S
H3185 C3161 0.949 . S
H3186 C3163 0.950 . S
H3187 C3165 0.950 . S
C3188 C3189 1.349 . S
C3188 C3190 1.327 . S
C3188 H3213 0.950 . S
C3189 C3188 1.349 . S
C3189 C3205 1.349 . S
C3190 C3188 1.327 . S
C3190 C3209 1.429 . S
C3190 H3214 0.950 . S
C3191 C3208 1.574 . S
C3191 C3210 1.368 . S
C3191 H3215 0.949 . S
H3192 C3196 0.949 . S
C3193 C3194 1.349 . S
C3193 C3195 1.327 . S
C3193 H3216 0.950 . S
C3194 C3193 1.349 . S
C3194 C3206 1.349 . S
C3195 C3193 1.327 . S
C3195 C3211 1.429 . S
C3195 H3217 0.950 . S
C3196 H3192 0.949 . S
C3196 C3204 1.574 . S
C3196 C3212 1.368 . S
H3197 C3205 0.950 . S
H3198 C3203 0.950 . S
H3199 C3204 0.949 . S
H3200 C3206 0.950 . S
H3201 C3207 0.950 . S
H3202 C3208 0.949 . S
C3203 H3198 0.950 . S
C3203 C3205 1.327 . S
C3203 C3209 1.429 . S
C3204 C3196 1.574 . S
C3204 H3199 0.949 . S
C3204 C3210 1.368 . S
C3205 C3189 1.349 . S
C3205 H3197 0.950 . S
C3205 C3203 1.327 . S
C3206 C3194 1.349 . S
C3206 H3200 0.950 . S
C3206 C3207 1.327 . S
C3207 H3201 0.950 . S
C3207 C3206 1.327 . S
C3207 C3211 1.429 . S
C3208 C3191 1.574 . S
C3208 H3202 0.949 . S
C3208 C3212 1.368 . S
C3209 C3190 1.429 . S
C3209 C3203 1.429 . S
C3209 C3210 1.523 . S
C3210 C3191 1.368 . S
C3210 C3204 1.368 . S
C3210 C3209 1.523 . S
C3211 C3195 1.429 . S
C3211 C3207 1.429 . S
C3211 C3212 1.523 . S
C3212 C3196 1.368 . S
C3212 C3208 1.368 . S
C3212 C3211 1.523 . S
H3213 C3188 0.950 . S
H3214 C3190 0.950 . S
H3215 C3191 0.949 . S
H3216 C3193 0.950 . S
H3217 C3195 0.950 . S
C3218 C3219 1.349 . S
C3218 C3220 1.327 . S
C3218 H3243 0.950 . S
C3219 C3218 1.349 . S
C3219 C3235 1.349 . S
C3220 C3218 1.327 . S
C3220 C3239 1.429 . S
C3220 H3244 0.950 . S
C3221 C3238 1.574 . S
C3221 C3240 1.368 . S
C3221 H3245 0.949 . S
H3222 C3226 0.949 . S
C3223 C3224 1.349 . S
C3223 C3225 1.327 . S
C3223 H3246 0.950 . S
C3224 C3223 1.349 . S
C3224 C3236 1.349 . S
C3225 C3223 1.327 . S
C3225 C3241 1.429 . S
C3225 H3247 0.950 . S
C3226 H3222 0.949 . S
C3226 C3234 1.574 . S
C3226 C3242 1.368 . S
H3227 C3235 0.950 . S
H3228 C3233 0.950 . S
H3229 C3234 0.949 . S
H3230 C3236 0.950 . S
H3231 C3237 0.950 . S
H3232 C3238 0.949 . S
C3233 H3228 0.950 . S
C3233 C3235 1.327 . S
C3233 C3239 1.429 . S
C3234 C3226 1.574 . S
C3234 H3229 0.949 . S
C3234 C3240 1.368 . S
C3235 C3219 1.349 . S
C3235 H3227 0.950 . S
C3235 C3233 1.327 . S
C3236 C3224 1.349 . S
C3236 H3230 0.950 . S
C3236 C3237 1.327 . S
C3237 H3231 0.950 . S
C3237 C3236 1.327 . S
C3237 C3241 1.429 . S
C3238 C3221 1.574 . S
C3238 H3232 0.949 . S
C3238 C3242 1.368 . S
C3239 C3220 1.429 . S
C3239 C3233 1.429 . S
C3239 C3240 1.523 . S
C3240 C3221 1.368 . S
C3240 C3234 1.368 . S
C3240 C3239 1.523 . S
C3241 C3225 1.429 . S
C3241 C3237 1.429 . S
C3241 C3242 1.523 . S
C3242 C3226 1.368 . S
C3242 C3238 1.368 . S
C3242 C3241 1.523 . S
H3243 C3218 0.950 . S
H3244 C3220 0.950 . S
H3245 C3221 0.949 . S
H3246 C3223 0.950 . S
H3247 C3225 0.950 . S
C3248 C3249 1.349 . S
C3248 C3250 1.327 . S
C3248 H3273 0.950 . S
C3249 C3248 1.349 . S
C3249 C3265 1.349 . S
C3250 C3248 1.327 . S
C3250 C3269 1.429 . S
C3250 H3274 0.950 . S
C3251 C3268 1.574 . S
C3251 C3270 1.368 . S
C3251 H3275 0.949 . S
H3252 C3256 0.949 . S
C3253 C3254 1.349 . S
C3253 C3255 1.327 . S
C3253 H3276 0.950 . S
C3254 C3253 1.349 . S
C3254 C3266 1.349 . S
C3255 C3253 1.327 . S
C3255 C3271 1.429 . S
C3255 H3277 0.950 . S
C3256 H3252 0.949 . S
C3256 C3264 1.574 . S
C3256 C3272 1.368 . S
H3257 C3265 0.950 . S
H3258 C3263 0.950 . S
H3259 C3264 0.949 . S
H3260 C3266 0.950 . S
H3261 C3267 0.950 . S
H3262 C3268 0.949 . S
C3263 H3258 0.950 . S
C3263 C3265 1.327 . S
C3263 C3269 1.429 . S
C3264 C3256 1.574 . S
C3264 H3259 0.949 . S
C3264 C3270 1.368 . S
C3265 C3249 1.349 . S
C3265 H3257 0.950 . S
C3265 C3263 1.327 . S
C3266 C3254 1.349 . S
C3266 H3260 0.950 . S
C3266 C3267 1.327 . S
C3267 H3261 0.950 . S
C3267 C3266 1.327 . S
C3267 C3271 1.429 . S
C3268 C3251 1.574 . S
C3268 H3262 0.949 . S
C3268 C3272 1.368 . S
C3269 C3250 1.429 . S
C3269 C3263 1.429 . S
C3269 C3270 1.523 . S
C3270 C3251 1.368 . S
C3270 C3264 1.368 . S
C3270 C3269 1.523 . S
C3271 C3255 1.429 . S
C3271 C3267 1.429 . S
C3271 C3272 1.523 . S
C3272 C3256 1.368 . S
C3272 C3268 1.368 . S
C3272 C3271 1.523 . S
H3273 C3248 0.950 . S
H3274 C3250 0.950 . S
H3275 C3251 0.949 . S
H3276 C3253 0.950 . S
H3277 C3255 0.950 . S
C3278 C3279 1.349 . S
C3278 C3280 1.327 . S
C3278 H3303 0.950 . S
C3279 C3278 1.349 . S
C3279 C3295 1.349 . S
C3280 C3278 1.327 . S
C3280 C3299 1.429 . S
C3280 H3304 0.950 . S
C3281 C3298 1.574 . S
C3281 C3300 1.368 . S
C3281 H3305 0.949 . S
H3282 C3286 0.949 . S
C3283 C3284 1.349 . S
C3283 C3285 1.327 . S
C3283 H3306 0.950 . S
C3284 C3283 1.349 . S
C3284 C3296 1.349 . S
C3285 C3283 1.327 . S
C3285 C3301 1.429 . S
C3285 H3307 0.950 . S
C3286 H3282 0.949 . S
C3286 C3294 1.574 . S
C3286 C3302 1.368 . S
H3287 C3295 0.950 . S
H3288 C3293 0.950 . S
H3289 C3294 0.949 . S
H3290 C3296 0.950 . S
H3291 C3297 0.950 . S
H3292 C3298 0.949 . S
C3293 H3288 0.950 . S
C3293 C3295 1.327 . S
C3293 C3299 1.429 . S
C3294 C3286 1.574 . S
C3294 H3289 0.949 . S
C3294 C3300 1.368 . S
C3295 C3279 1.349 . S
C3295 H3287 0.950 . S
C3295 C3293 1.327 . S
C3296 C3284 1.349 . S
C3296 H3290 0.950 . S
C3296 C3297 1.327 . S
C3297 H3291 0.950 . S
C3297 C3296 1.327 . S
C3297 C3301 1.429 . S
C3298 C3281 1.574 . S
C3298 H3292 0.949 . S
C3298 C3302 1.368 . S
C3299 C3280 1.429 . S
C3299 C3293 1.429 . S
C3299 C3300 1.523 . S
C3300 C3281 1.368 . S
C3300 C3294 1.368 . S
C3300 C3299 1.523 . S
C3301 C3285 1.429 . S
C3301 C3297 1.429 . S
C3301 C3302 1.523 . S
C3302 C3286 1.368 . S
C3302 C3298 1.368 . S
C3302 C3301 1.523 . S
H3303 C3278 0.950 . S
H3304 C3280 0.950 . S
H3305 C3281 0.949 . S
H3306 C3283 0.950 . S
H3307 C3285 0.950 . S
C3308 C3309 1.349 . S
C3308 C3310 1.327 . S
C3308 H3333 0.950 . S
C3309 C3308 1.349 . S
C3309 C3325 1.349 . S
C3310 C3308 1.327 . S
C3310 C3329 1.429 . S
C3310 H3334 0.950 . S
C3311 C3328 1.574 . S
C3311 C3330 1.368 . S
C3311 H3335 0.949 . S
H3312 C3316 0.949 . S
C3313 C3314 1.349 . S
C3313 C3315 1.327 . S
C3313 H3336 0.950 . S
C3314 C3313 1.349 . S
C3314 C3326 1.349 . S
C3315 C3313 1.327 . S
C3315 C3331 1.429 . S
C3315 H3337 0.950 . S
C3316 H3312 0.949 . S
C3316 C3324 1.574 . S
C3316 C3332 1.368 . S
H3317 C3325 0.950 . S
H3318 C3323 0.950 . S
H3319 C3324 0.949 . S
H3320 C3326 0.950 . S
H3321 C3327 0.950 . S
H3322 C3328 0.949 . S
C3323 H3318 0.950 . S
C3323 C3325 1.327 . S
C3323 C3329 1.429 . S
C3324 C3316 1.574 . S
C3324 H3319 0.949 . S
C3324 C3330 1.368 . S
C3325 C3309 1.349 . S
C3325 H3317 0.950 . S
C3325 C3323 1.327 . S
C3326 C3314 1.349 . S
C3326 H3320 0.950 . S
C3326 C3327 1.327 . S
C3327 H3321 0.950 . S
C3327 C3326 1.327 . S
C3327 C3331 1.429 . S
C3328 C3311 1.574 . S
C3328 H3322 0.949 . S
C3328 C3332 1.368 . S
C3329 C3310 1.429 . S
C3329 C3323 1.429 . S
C3329 C3330 1.523 . S
C3330 C3311 1.368 . S
C3330 C3324 1.368 . S
C3330 C3329 1.523 . S
C3331 C3315 1.429 . S
C3331 C3327 1.429 . S
C3331 C3332 1.523 . S
C3332 C3316 1.368 . S
C3332 C3328 1.368 . S
C3332 C3331 1.523 . S
H3333 C3308 0.950 . S
H3334 C3310 0.950 . S
H3335 C3311 0.949 . S
H3336 C3313 0.950 . S
H3337 C3315 0.950 . S
C3338 C3339 1.349 . S
C3338 C3340 1.327 . S
C3338 H3363 0.950 . S
C3339 C3338 1.349 . S
C3339 C3355 1.349 . S
C3340 C3338 1.327 . S
C3340 C3359 1.429 . S
C3340 H3364 0.950 . S
C3341 C3358 1.574 . S
C3341 C3360 1.368 . S
C3341 H3365 0.949 . S
H3342 C3346 0.949 . S
C3343 C3344 1.349 . S
C3343 C3345 1.327 . S
C3343 H3366 0.950 . S
C3344 C3343 1.349 . S
C3344 C3356 1.349 . S
C3345 C3343 1.327 . S
C3345 C3361 1.429 . S
C3345 H3367 0.950 . S
C3346 H3342 0.949 . S
C3346 C3354 1.574 . S
C3346 C3362 1.368 . S
H3347 C3355 0.950 . S
H3348 C3353 0.950 . S
H3349 C3354 0.949 . S
H3350 C3356 0.950 . S
H3351 C3357 0.950 . S
H3352 C3358 0.949 . S
C3353 H3348 0.950 . S
C3353 C3355 1.327 . S
C3353 C3359 1.429 . S
C3354 C3346 1.574 . S
C3354 H3349 0.949 . S
C3354 C3360 1.368 . S
C3355 C3339 1.349 . S
C3355 H3347 0.950 . S
C3355 C3353 1.327 . S
C3356 C3344 1.349 . S
C3356 H3350 0.950 . S
C3356 C3357 1.327 . S
C3357 H3351 0.950 . S
C3357 C3356 1.327 . S
C3357 C3361 1.429 . S
C3358 C3341 1.574 . S
C3358 H3352 0.949 . S
C3358 C3362 1.368 . S
C3359 C3340 1.429 . S
C3359 C3353 1.429 . S
C3359 C3360 1.523 . S
C3360 C3341 1.368 . S
C3360 C3354 1.368 . S
C3360 C3359 1.523 . S
C3361 C3345 1.429 . S
C3361 C3357 1.429 . S
C3361 C3362 1.523 . S
C3362 C3346 1.368 . S
C3362 C3358 1.368 . S
C3362 C3361 1.523 . S
H3363 C3338 0.950 . S
H3364 C3340 0.950 . S
H3365 C3341 0.949 . S
H3366 C3343 0.950 . S
H3367 C3345 0.950 . S
C3368 C3369 1.349 . S
C3368 C3370 1.327 . S
C3368 H3393 0.950 . S
C3369 C3368 1.349 . S
C3369 C3385 1.349 . S
C3370 C3368 1.327 . S
C3370 C3389 1.429 . S
C3370 H3394 0.950 . S
C3371 C3388 1.574 . S
C3371 C3390 1.368 . S
C3371 H3395 0.949 . S
H3372 C3376 0.949 . S
C3373 C3374 1.349 . S
C3373 C3375 1.327 . S
C3373 H3396 0.950 . S
C3374 C3373 1.349 . S
C3374 C3386 1.349 . S
C3375 C3373 1.327 . S
C3375 C3391 1.429 . S
C3375 H3397 0.950 . S
C3376 H3372 0.949 . S
C3376 C3384 1.574 . S
C3376 C3392 1.368 . S
H3377 C3385 0.950 . S
H3378 C3383 0.950 . S
H3379 C3384 0.949 . S
H3380 C3386 0.950 . S
H3381 C3387 0.950 . S
H3382 C3388 0.949 . S
C3383 H3378 0.950 . S
C3383 C3385 1.327 . S
C3383 C3389 1.429 . S
C3384 C3376 1.574 . S
C3384 H3379 0.949 . S
C3384 C3390 1.368 . S
C3385 C3369 1.349 . S
C3385 H3377 0.950 . S
C3385 C3383 1.327 . S
C3386 C3374 1.349 . S
C3386 H3380 0.950 . S
C3386 C3387 1.327 . S
C3387 H3381 0.950 . S
C3387 C3386 1.327 . S
C3387 C3391 1.429 . S
C3388 C3371 1.574 . S
C3388 H3382 0.949 . S
C3388 C3392 1.368 . S
C3389 C3370 1.429 . S
C3389 C3383 1.429 . S
C3389 C3390 1.523 . S
C3390 C3371 1.368 . S
C3390 C3384 1.368 . S
C3390 C3389 1.523 . S
C3391 C3375 1.429 . S
C3391 C3387 1.429 . S
C3391 C3392 1.523 . S
C3392 C3376 1.368 . S
C3392 C3388 1.368 . S
C3392 C3391 1.523 . S
H3393 C3368 0.950 . S
H3394 C3370 0.950 . S
H3395 C3371 0.949 . S
H3396 C3373 0.950 . S
H3397 C3375 0.950 . S
C3398 C3399 1.349 . S
C3398 C3400 1.327 . S
C3398 H3423 0.950 . S
C3399 C3398 1.349 . S
C3399 C3415 1.349 . S
C3400 C3398 1.327 . S
C3400 C3419 1.429 . S
C3400 H3424 0.950 . S
C3401 C3418 1.574 . S
C3401 C3420 1.368 . S
C3401 H3425 0.949 . S
H3402 C3406 0.949 . S
C3403 C3404 1.349 . S
C3403 C3405 1.327 . S
C3403 H3426 0.950 . S
C3404 C3403 1.349 . S
C3404 C3416 1.349 . S
C3405 C3403 1.327 . S
C3405 C3421 1.429 . S
C3405 H3427 0.950 . S
C3406 H3402 0.949 . S
C3406 C3414 1.574 . S
C3406 C3422 1.368 . S
H3407 C3415 0.950 . S
H3408 C3413 0.950 . S
H3409 C3414 0.949 . S
H3410 C3416 0.950 . S
H3411 C3417 0.950 . S
H3412 C3418 0.949 . S
C3413 H3408 0.950 . S
C3413 C3415 1.327 . S
C3413 C3419 1.429 . S
C3414 C3406 1.574 . S
C3414 H3409 0.949 . S
C3414 C3420 1.368 . S
C3415 C3399 1.349 . S
C3415 H3407 0.950 . S
C3415 C3413 1.327 . S
C3416 C3404 1.349 . S
C3416 H3410 0.950 . S
C3416 C3417 1.327 . S
C3417 H3411 0.950 . S
C3417 C3416 1.327 . S
C3417 C3421 1.429 . S
C3418 C3401 1.574 . S
C3418 H3412 0.949 . S
C3418 C3422 1.368 . S
C3419 C3400 1.429 . S
C3419 C3413 1.429 . S
C3419 C3420 1.523 . S
C3420 C3401 1.368 . S
C3420 C3414 1.368 . S
C3420 C3419 1.523 . S
C3421 C3405 1.429 . S
C3421 C3417 1.429 . S
C3421 C3422 1.523 . S
C3422 C3406 1.368 . S
C3422 C3418 1.368 . S
C3422 C3421 1.523 . S
H3423 C3398 0.950 . S
H3424 C3400 0.950 . S
H3425 C3401 0.949 . S
H3426 C3403 0.950 . S
H3427 C3405 0.950 . S
C3428 C3429 1.349 . S
C3428 C3430 1.327 . S
C3428 H3453 0.950 . S
C3429 C3428 1.349 . S
C3429 C3445 1.349 . S
C3430 C3428 1.327 . S
C3430 C3449 1.429 . S
C3430 H3454 0.950 . S
C3431 C3448 1.574 . S
C3431 C3450 1.368 . S
C3431 H3455 0.949 . S
H3432 C3436 0.949 . S
C3433 C3434 1.349 . S
C3433 C3435 1.327 . S
C3433 H3456 0.950 . S
C3434 C3433 1.349 . S
C3434 C3446 1.349 . S
C3435 C3433 1.327 . S
C3435 C3451 1.429 . S
C3435 H3457 0.950 . S
C3436 H3432 0.949 . S
C3436 C3444 1.574 . S
C3436 C3452 1.368 . S
H3437 C3445 0.950 . S
H3438 C3443 0.950 . S
H3439 C3444 0.949 . S
H3440 C3446 0.950 . S
H3441 C3447 0.950 . S
H3442 C3448 0.949 . S
C3443 H3438 0.950 . S
C3443 C3445 1.327 . S
C3443 C3449 1.429 . S
C3444 C3436 1.574 . S
C3444 H3439 0.949 . S
C3444 C3450 1.368 . S
C3445 C3429 1.349 . S
C3445 H3437 0.950 . S
C3445 C3443 1.327 . S
C3446 C3434 1.349 . S
C3446 H3440 0.950 . S
C3446 C3447 1.327 . S
C3447 H3441 0.950 . S
C3447 C3446 1.327 . S
C3447 C3451 1.429 . S
C3448 C3431 1.574 . S
C3448 H3442 0.949 . S
C3448 C3452 1.368 . S
C3449 C3430 1.429 . S
C3449 C3443 1.429 . S
C3449 C3450 1.523 . S
C3450 C3431 1.368 . S
C3450 C3444 1.368 . S
C3450 C3449 1.523 . S
C3451 C3435 1.429 . S
C3451 C3447 1.429 . S
C3451 C3452 1.523 . S
C3452 C3436 1.368 . S
C3452 C3448 1.368 . S
C3452 C3451 1.523 . S
H3453 C3428 0.950 . S
H3454 C3430 0.950 . S
H3455 C3431 0.949 . S
H3456 C3433 0.950 . S
H3457 C3435 0.950 . S
C3458 C3459 1.349 . S
C3458 C3460 1.327 . S
C3458 H3483 0.950 . S
C3459 C3458 1.349 . S
C3459 C3475 1.349 . S
C3460 C3458 1.327 . S
C3460 C3479 1.429 . S
C3460 H3484 0.950 . S
C3461 C3478 1.574 . S
C3461 C3480 1.368 . S
C3461 H3485 0.949 . S
H3462 C3466 0.949 . S
C3463 C3464 1.349 . S
C3463 C3465 1.327 . S
C3463 H3486 0.950 . S
C3464 C3463 1.349 . S
C3464 C3476 1.349 . S
C3465 C3463 1.327 . S
C3465 C3481 1.429 . S
C3465 H3487 0.950 . S
C3466 H3462 0.949 . S
C3466 C3474 1.574 . S
C3466 C3482 1.368 . S
H3467 C3475 0.950 . S
H3468 C3473 0.950 . S
H3469 C3474 0.949 . S
H3470 C3476 0.950 . S
H3471 C3477 0.950 . S
H3472 C3478 0.949 . S
C3473 H3468 0.950 . S
C3473 C3475 1.327 . S
C3473 C3479 1.429 . S
C3474 C3466 1.574 . S
C3474 H3469 0.949 . S
C3474 C3480 1.368 . S
C3475 C3459 1.349 . S
C3475 H3467 0.950 . S
C3475 C3473 1.327 . S
C3476 C3464 1.349 . S
C3476 H3470 0.950 . S
C3476 C3477 1.327 . S
C3477 H3471 0.950 . S
C3477 C3476 1.327 . S
C3477 C3481 1.429 . S
C3478 C3461 1.574 . S
C3478 H3472 0.949 . S
C3478 C3482 1.368 . S
C3479 C3460 1.429 . S
C3479 C3473 1.429 . S
C3479 C3480 1.523 . S
C3480 C3461 1.368 . S
C3480 C3474 1.368 . S
C3480 C3479 1.523 . S
C3481 C3465 1.429 . S
C3481 C3477 1.429 . S
C3481 C3482 1.523 . S
C3482 C3466 1.368 . S
C3482 C3478 1.368 . S
C3482 C3481 1.523 . S
H3483 C3458 0.950 . S
H3484 C3460 0.950 . S
H3485 C3461 0.949 . S
H3486 C3463 0.950 . S
H3487 C3465 0.950 . S
C1089 C33 0.408 . S
C1094 C645 0.408 . S
C1119 C679 0.408 . S
C1124 C67 0.408 . S
C1149 C577 0.408 . S
C1154 C101 0.408 . S
C1179 C135 0.408 . S
C1184 C611 0.408 . S
C1209 C781 0.408 . S
C1214 C169 0.408 . S
C1239 C815 0.408 . S
C1244 C203 0.408 . S
C1269 C237 0.408 . S
C1274 C713 0.408 . S
C1299 C271 0.408 . S
C1304 C747 0.408 . S
C1329 C917 0.539 . S
C1334 C305 0.539 . S
C1359 C951 0.539 . S
C1364 C339 0.539 . S
C1389 C373 0.538 . S
C1394 C849 0.538 . S
C1419 C407 0.539 . S
C1424 C883 0.539 . S
C1449 C441 0.539 . S
C1454 C1053 0.539 . S
C1479 C475 0.539 . S
C1484 C1087 0.539 . S
C1509 C985 0.538 . S
C1514 C509 0.538 . S
C1539 C543 0.539 . S
C1544 C1019 0.539 . S
C1569 C9 1.439 . S
C1574 C821 1.526 . S
C1599 C311 1.526 . S
C1604 C43 1.439 . S
C1629 C889 1.526 . S
C1634 C77 1.439 . S
C1659 C111 1.439 . S
C1664 C379 1.526 . S
C1689 C145 1.439 . S
C1694 C957 1.526 . S
C1719 C179 1.439 . S
C1724 C447 1.526 . S
C1749 C1025 1.526 . S
C1754 C213 1.439 . S
C1779 C515 1.526 . S
C1784 C247 1.439 . S
C1809 C553 1.440 . S
C1814 C277 1.526 . S
C1839 C621 1.440 . S
C1844 C345 1.527 . S
C1869 C689 1.440 . S
C1874 C413 1.527 . S
C1899 C481 1.527 . S
C1904 C757 1.440 . S
C1929 C855 1.526 . S
C1934 C587 1.439 . S
C1959 C923 1.526 . S
C1964 C655 1.439 . S
C1989 C723 1.439 . S
C1994 C991 1.526 . S
C2019 C791 1.439 . S
C2024 C1059 1.526 . S
C2049 C20 1.432 . S
C2054 C954 1.419 . S
C2079 C54 1.433 . S
C2084 C444 1.420 . S
C2109 C1022 1.420 . S
C2114 C88 1.432 . S
C2139 C512 1.420 1_455 S
C2144 C122 1.432 . S
C2169 C818 1.419 . S
C2174 C156 1.432 . S
C2199 C308 1.420 1_455 S
C2204 C190 1.432 . S
C2229 C224 1.432 . S
C2234 C886 1.420 . S
C2259 C376 1.420 . S
C2264 C258 1.433 . S
C2289 C682 1.318 . S
C2294 C292 1.327 . S
C2319 C326 1.327 . S
C2324 C172 1.319 . S
C2349 C750 1.318 . S
C2354 C360 1.327 . S
C2379 C394 1.326 . S
C2384 C240 1.318 1_655 S
C2409 C428 1.327 . S
C2414 C546 1.318 . S
C2439 C36 1.318 1_655 S
C2444 C462 1.326 . S
C2469 C614 1.318 . S
C2474 C496 1.327 . S
C2499 C530 1.327 . S
C2504 C104 1.319 . S
C2529 C564 1.432 . S
C2534 C410 1.420 . S
C2559 C598 1.433 . S
C2564 C988 1.420 1_655 S
C2589 C478 1.419 . S
C2594 C632 1.432 . S
C2619 C666 1.433 . S
C2624 C1056 1.420 . S
C2649 C700 1.432 . S
C2654 C274 1.420 . S
C2679 C852 1.420 . S
C2684 C734 1.433 . S
C2709 C768 1.432 . S
C2714 C342 1.419 . S
C2739 C802 1.433 . S
C2744 C920 1.420 1_655 S
C2769 C836 1.326 . S
C2774 C138 1.318 . S
C2799 C716 1.318 1_455 S
C2804 C870 1.326 . S
C2829 C904 1.326 . S
C2834 C206 1.318 . S
C2859 C784 1.318 . S
C2864 C938 1.327 . S
C2889 C972 1.326 . S
C2894 C2 1.318 . S
C2919 C1006 1.327 . S
C2924 C580 1.318 . S
C2949 C1040 1.326 . S
C2954 C70 1.318 . S
C2979 C1074 1.326 . S
C2984 C648 1.318 1_455 S
C3009 C5 1.980 . S
C3014 C175 1.980 . S
C3039 C209 1.980 . S
C3044 C39 1.980 . S
C3069 C73 1.980 . S
C3074 C243 1.980 . S
C3099 C107 1.980 . S
C3104 C141 1.980 . S
C3129 C451 1.247 . S
C3134 C281 1.247 . S
C3159 C485 1.247 . S
C3164 C315 1.247 . S
C3189 C519 1.247 . S
C3194 C349 1.247 . S
C3219 C383 1.247 . S
C3224 C417 1.247 . S
C3249 C549 1.981 . S
C3254 C719 1.981 . S
C3279 C753 1.981 . S
C3284 C583 1.981 . S
C3309 C617 1.981 . S
C3314 C787 1.981 . S
C3339 C685 1.981 . S
C3344 C651 1.981 . S
C3369 C995 1.246 . S
C3374 C825 1.246 . S
C3399 C1029 1.246 . S
C3404 C859 1.246 . S
C3429 C893 1.246 . S
C3434 C1063 1.246 . S
C3459 C961 1.246 . S
C3464 C927 1.246 . S
