# Generated by pormake.
# Topology rob, (6)-cn, num edge types: 1
# Building blocks:
#     Node 0, Type 0, BuildingBlock: KUMBOL_clean_sbu_1, # of connection points: 6
#     Node 1, Type 0, BuildingBlock: KUMBOL_clean_sbu_1, # of connection points: 6
#     Node 2, Type 0, BuildingBlock: KUMBOL_clean_sbu_1, # of connection points: 6
#     Node 3, Type 0, BuildingBlock: KUMBOL_clean_sbu_1, # of connection points: 6
#     Edge 4, Type (0, 0), BuildingBlock: TEMPAE_clean_linker_10, # of connection points: 2
#     Edge 5, Type (0, 0), BuildingBlock: TEMPAE_clean_linker_10, # of connection points: 2
#     Edge 6, Type (0, 0), BuildingBlock: TEMPAE_clean_linker_10, # of connection points: 2
#     Edge 7, Type (0, 0), BuildingBlock: TEMPAE_clean_linker_10, # of connection points: 2
#     Edge 8, Type (0, 0), BuildingBlock: TEMPAE_clean_linker_10, # of connection points: 2
#     Edge 9, Type (0, 0), BuildingBlock: TEMPAE_clean_linker_10, # of connection points: 2
#     Edge 10, Type (0, 0), BuildingBlock: TEMPAE_clean_linker_10, # of connection points: 2
#     Edge 11, Type (0, 0), BuildingBlock: TEMPAE_clean_linker_10, # of connection points: 2
#     Edge 12, Type (0, 0), BuildingBlock: TEMPAE_clean_linker_10, # of connection points: 2
#     Edge 13, Type (0, 0), BuildingBlock: TEMPAE_clean_linker_10, # of connection points: 2
#     Edge 14, Type (0, 0), BuildingBlock: TEMPAE_clean_linker_10, # of connection points: 2
#     Edge 15, Type (0, 0), BuildingBlock: TEMPAE_clean_linker_10, # of connection points: 2
# Relax obj value: 0.020
# Max RMSD: 0.112
# Mean RMSD: 0.112
data_MOF--net-rob--node1-KUMBOL_clean_sbu_1--edge1-TEMPAE_clean_linker_10
_symmetry_space_group_name_H-M    P1
_symmetry_Int_Tables_number       1
_symmetry_cell_setting            triclinic
loop_
_symmetry_equiv_pos_as_xyz
'x, y, z'
_cell_length_a     18.985246
_cell_length_b     23.544827
_cell_length_c     34.574938
_cell_angle_alpha  109.39878
_cell_angle_beta   89.999016
_cell_angle_gamma 89.797172
loop_
_atom_site_label
_atom_site_type_symbol
_atom_site_fract_x
_atom_site_fract_y
_atom_site_fract_z
_atom_type_partial_charge
C0 C 0.08638 0.43743 0.0615 0.0
C1 C 0.96943 0.39709 0.04172 0.0
C2 C 0.0414 0.38841 0.04849 0.0
C3 C 0.94374 0.45542 0.0479 0.0
C4 C 0.06078 0.49607 0.06759 0.0
C5 C 0.98919 0.50479 0.06099 0.0
N6 N 0.15416 0.42822 0.07057 0.0
C7 C 0.19889 0.47555 0.08606 0.0
C8 C 0.10754 0.54443 0.08121 0.0
C9 C 0.17677 0.5342 0.09083 0.0
Gd10 Gd 0.28871 0.20839 0.96309 0.0
Gd11 Gd 0.18652 0.32862 0.06193 0.0
N12 N 0.06708 0.33281 0.04479 0.0
C13 C 0.92469 0.34722 0.0308 0.0
C14 C 0.02219 0.28547 0.03801 0.0
C15 C 0.95106 0.29127 0.02952 0.0
H16 H 0.03981 0.24405 0.04119 0.0
H17 H 0.91615 0.25304 0.0234 0.0
H18 H 0.44028 0.26498 0.01043 0.0
H19 H 0.25128 0.4682 0.09563 0.0
H20 H 0.55462 0.22641 0.02535 0.0
H21 H 0.8692 0.35197 0.02516 0.0
H22 H 0.88851 0.46295 0.04324 0.0
H23 H 0.18304 0.08803 0.92572 0.0
H24 H 0.09024 0.58988 0.08522 0.0
H25 H 0.21271 0.57155 0.10262 0.0
H26 H 0.52632 0.01192 0.97663 0.0
H27 H 0.9684 0.54961 0.06602 0.0
H28 H 0.29994 0.93216 0.92543 0.0
H29 H 0.18949 0.97829 0.91186 0.0
N30 N 0.28668 0.10432 0.95026 0.0
C31 C 0.34789 0.07994 0.95799 0.0
C32 C 0.23045 0.06867 0.93343 0.0
C33 C 0.29687 0.9805 0.9325 0.0
C34 C 0.23433 0.00639 0.9249 0.0
C35 C 0.35492 0.0172 0.94871 0.0
H36 H 0.42628 0.94504 0.94827 0.0
N37 N 0.39505 0.17835 0.98487 0.0
C38 C 0.40401 0.11787 0.97509 0.0
C39 C 0.52323 0.13341 1.00093 0.0
C40 C 0.46858 0.09381 0.98267 0.0
C41 C 0.44828 0.21719 1.00228 0.0
C42 C 0.51283 0.19541 0.01102 0.0
O43 O 0.16675 0.3417 1.00054 0.0
O44 O 0.18446 0.24739 0.95267 0.0
O45 O 0.34638 0.23873 0.91924 0.0
O46 O 0.30159 0.14941 0.90025 0.0
O47 O 0.1689 0.22742 0.04334 0.0
O48 O 0.17448 0.19395 0.97305 0.0
O49 O 0.3078 0.20131 0.02633 0.0
O50 O 0.29768 0.29964 0.06729 0.0
O51 O 0.14251 0.30034 0.11083 0.0
O52 O 0.19406 0.38639 0.12568 0.0
O53 O 0.33009 0.30342 0.98309 0.0
O54 O 0.28901 0.36681 0.04698 0.0
C55 C 0.16698 0.30453 0.96245 0.0
C56 C 0.15346 0.18779 1.00746 0.0
C57 C 0.31217 0.19605 0.85003 0.0
C58 C 0.34124 0.20303 0.7831 0.0
C59 C 0.21949 0.2092 0.80554 0.0
C60 C 0.24054 0.20234 0.8424 0.0
C61 C 0.26948 0.21023 0.77615 0.0
C62 C 0.36243 0.19568 0.8201 0.0
C63 C 0.3351 0.1892 0.8888 0.0
C64 C 0.47659 0.03123 0.97181 0.0
C65 C 0.41966 0.9931 0.95547 0.0
H66 H 0.57345 0.1166 1.0075 0.0
C67 C 0.31641 0.24407 0.06191 0.0
C68 C 0.32946 0.35482 0.01384 0.0
C69 C 0.09745 0.37915 0.16757 0.0
C70 C 0.01851 0.38051 0.22406 0.0
C71 C 0.00373 0.45361 0.18883 0.0
C72 C 0.06097 0.42888 0.16357 0.0
C73 C 0.98263 0.42981 0.21885 0.0
C74 C 0.07629 0.35531 0.19818 0.0
C75 C 0.15627 0.35119 0.13945 0.0
H76 H 0.16431 0.21393 0.79983 0.0
H77 H 0.20103 0.20201 0.86492 0.0
H78 H 0.25214 0.21591 0.7478 0.0
H79 H 0.41785 0.19031 0.82571 0.0
H80 H 0.97553 0.4915 0.18523 0.0
H81 H 0.0766 0.44891 0.14106 0.0
H82 H 0.93864 0.45065 0.23844 0.0
H83 H 0.10402 0.31683 0.20144 0.0
C84 C 0.59529 0.90403 0.04695 0.0
C85 C 0.48628 0.85197 0.0204 0.0
C86 C 0.55718 0.85075 0.03244 0.0
C87 C 0.4542 0.90716 0.02365 0.0
C88 C 0.56319 0.95948 0.05001 0.0
C89 C 0.49225 0.96074 0.039 0.0
N90 N 0.66308 0.90186 0.05905 0.0
C91 C 0.70188 0.95318 0.07393 0.0
C92 C 0.60297 0.01224 0.06479 0.0
C93 C 0.67273 0.00902 0.07668 0.0
Gd94 Gd 0.82656 0.70029 0.96598 0.0
Gd95 Gd 0.70436 0.80696 0.05701 0.0
N96 N 0.58874 0.79809 0.03116 0.0
C97 C 0.44881 0.7979 1.00689 0.0
C98 C 0.55048 0.74639 0.02117 0.0
C99 C 0.48089 0.74496 1.00772 0.0
H100 H 0.57185 0.70688 0.02529 0.0
H101 H 0.45136 0.70337 0.99927 0.0
H102 H 0.96522 0.79311 0.99279 0.0
H103 H 0.75419 0.95135 0.08538 0.0
H104 H 0.09102 0.78755 1.00807 0.0
H105 H 0.39438 0.79695 0.99727 0.0
H106 H 0.39953 0.90902 0.01511 0.0
H107 H 0.76193 0.56003 0.94589 0.0
H108 H 0.58012 0.05566 0.06752 0.0
H109 H 0.7036 0.04964 0.08879 0.0
H110 H 0.12657 0.58126 0.99771 0.0
H111 H 0.46619 1.00308 0.04246 0.0
H112 H 0.92921 0.44837 0.96234 0.0
H113 H 0.80491 0.46094 0.94536 0.0
N114 N 0.85926 0.60445 0.9665 0.0
C115 C 0.92807 0.59828 0.97552 0.0
C116 C 0.81535 0.55589 0.95526 0.0
C117 C 0.91013 0.49232 0.9636 0.0
C118 C 0.83987 0.49933 0.95418 0.0
C119 C 0.95542 0.54184 0.97395 0.0
H120 H 0.04934 0.49288 0.98005 0.0
N121 N 0.94409 0.70249 0.98708 0.0
C122 C 0.97187 0.6484 0.98554 0.0
C123 C 0.08698 0.69363 1.00218 0.0
C124 C 0.044 0.64276 0.99354 0.0
C125 C 0.98621 0.75162 0.99415 0.0
C126 C 0.058 0.74821 1.00221 0.0
O127 O 0.68878 0.81209 0.99322 0.0
O128 O 0.71426 0.71647 0.95028 0.0
O129 O 0.87385 0.72646 0.91718 0.0
O130 O 0.84412 0.63371 0.90613 0.0
O131 O 0.70463 0.70529 0.04304 0.0
O132 O 0.72023 0.66421 0.97335 0.0
O133 O 0.85207 0.70265 0.03102 0.0
O134 O 0.81587 0.79596 0.07453 0.0
O135 O 0.65923 0.77717 0.10503 0.0
O136 O 0.68169 0.87146 0.11677 0.0
O137 O 0.83191 0.80128 0.98034 0.0
O138 O 0.80845 0.84907 0.04939 0.0
C139 C 0.68505 0.7696 0.95725 0.0
C140 C 0.69614 0.66114 1.00814 0.0
C141 C 0.84069 0.66896 0.84982 0.0
C142 C 0.86296 0.67173 0.78092 0.0
C143 C 0.74503 0.6519 0.80088 0.0
C144 C 0.76956 0.65637 0.83984 0.0
C145 C 0.79128 0.6594 0.77152 0.0
C146 C 0.88696 0.67689 0.82046 0.0
C147 C 0.86829 0.67269 0.89026 0.0
C148 C 0.07129 0.5865 0.99179 0.0
C149 C 0.02722 0.53621 0.98189 0.0
H150 H 0.14264 0.69106 1.00835 0.0
C151 C 0.85026 0.7451 0.06725 0.0
C152 C 0.83986 0.84665 0.01473 0.0
C153 C 0.68843 0.83668 0.17322 0.0
C154 C 0.66518 0.8327 0.24209 0.0
C155 C 0.77519 0.87472 0.22684 0.0
C156 C 0.7541 0.86307 0.18637 0.0
C157 C 0.7308 0.86097 0.25467 0.0
C158 C 0.64546 0.81983 0.20062 0.0
C159 C 0.66115 0.83097 0.13224 0.0
H160 H 0.6902 0.64186 0.79321 0.0
H161 H 0.73341 0.64937 0.862 0.0
H162 H 0.77116 0.65444 0.74127 0.0
H163 H 0.94171 0.68729 0.82859 0.0
H164 H 0.82549 0.89594 0.237 0.0
H165 H 0.78846 0.87572 0.16559 0.0
H166 H 0.74799 0.874 0.28621 0.0
H167 H 0.59626 0.79749 0.18924 0.0
C168 C 0.19481 0.55444 0.4364 0.0
C169 C 0.08068 0.53505 0.46046 0.0
C170 C 0.13324 0.57552 0.45758 0.0
C171 C 0.09359 0.47277 0.44427 0.0
C172 C 0.20659 0.4921 0.4181 0.0
C173 C 0.1567 0.45136 0.42335 0.0
N174 N 0.24153 0.59512 0.43185 0.0
C175 C 0.29916 0.57676 0.40719 0.0
C176 C 0.26739 0.47276 0.39439 0.0
C177 C 0.31341 0.51535 0.38847 0.0
Gd178 Gd 0.33699 0.81385 0.55924 0.0
Gd179 Gd 0.21787 0.69676 0.46837 0.0
N180 N 0.12285 0.63582 0.47294 0.0
C181 C 0.01612 0.55847 0.47837 0.0
C182 C 0.05885 0.65897 0.48857 0.0
C183 C 0.00482 0.6207 0.49206 0.0
H184 H 0.05032 0.70713 0.49927 0.0
H185 H 0.9546 0.63914 0.50527 0.0
H186 H 0.4569 0.70342 0.50832 0.0
H187 H 0.33515 0.60952 0.40291 0.0
H188 H 0.58037 0.69762 0.4883 0.0
H189 H 0.97407 0.52889 0.48057 0.0
H190 H 0.05462 0.44083 0.447 0.0
H191 H 0.29243 0.95872 0.58358 0.0
H192 H 0.27848 0.42523 0.37988 0.0
H193 H 0.35999 0.50092 0.36966 0.0
H194 H 0.65319 0.90333 0.52629 0.0
H195 H 0.16577 0.40331 0.41054 0.0
H196 H 0.47829 0.05691 0.57629 0.0
H197 H 0.35099 0.0553 0.59131 0.0
N198 N 0.38457 0.90619 0.56206 0.0
C199 C 0.45425 0.90579 0.5533 0.0
C200 C 0.34741 0.95882 0.5756 0.0
C201 C 0.45253 0.01438 0.57233 0.0
C202 C 0.38064 0.01365 0.58058 0.0
C203 C 0.49034 0.96017 0.55872 0.0
H204 H 0.59132 1.00023 0.5544 0.0
N205 N 0.4534 0.7989 0.53341 0.0
C206 C 0.48951 0.85083 0.53835 0.0
C207 C 0.59433 0.79369 0.50964 0.0
C208 C 0.56132 0.84948 0.52736 0.0
C209 C 0.48517 0.74451 0.51492 0.0
C210 C 0.55576 0.74105 0.50286 0.0
O211 O 0.17972 0.70228 0.53119 0.0
O212 O 0.24719 0.7707 0.58213 0.0
O213 O 0.40631 0.82753 0.6119 0.0
O214 O 0.30543 0.87671 0.61853 0.0
O215 O 0.16755 0.77937 0.51298 0.0
O216 O 0.2473 0.85661 0.53564 0.0
O217 O 0.3398 0.81802 0.49498 0.0
O218 O 0.33139 0.71763 0.46004 0.0
O219 O 0.21089 0.76019 0.43456 0.0
O220 O 0.15487 0.67575 0.41327 0.0
O221 O 0.34655 0.71505 0.5525 0.0
O222 O 0.31939 0.66087 0.48507 0.0
C223 C 0.19648 0.73056 0.56983 0.0
C224 C 0.18552 0.83568 0.52012 0.0
C225 C 0.37732 0.89724 0.68007 0.0
C226 C 0.42334 0.8963 0.74597 0.0
C227 C 0.36007 0.98391 0.7415 0.0
C228 C 0.35046 0.9554 0.6995 0.0
C229 C 0.39563 0.95443 0.7647 0.0
C230 C 0.41507 0.86814 0.70334 0.0
C231 C 0.36287 0.86656 0.63609 0.0
C232 C 0.59783 0.90365 0.534 0.0
C233 C 0.5626 0.95883 0.54996 0.0
H234 H 0.64915 0.79079 0.50044 0.0
C235 C 0.35276 0.77145 0.46221 0.0
C236 C 0.34158 0.66379 0.5218 0.0
C237 C 0.19356 0.71446 0.36297 0.0
C238 C 0.16161 0.70734 0.2932 0.0
C239 C 0.27785 0.67577 0.30759 0.0
C240 C 0.26013 0.69046 0.34895 0.0
C241 C 0.22868 0.68363 0.27971 0.0
C242 C 0.14454 0.72345 0.33505 0.0
C243 C 0.17224 0.72427 0.40556 0.0
H244 H 0.33921 0.02879 0.75624 0.0
H245 H 0.32183 0.97879 0.68218 0.0
H246 H 0.40181 0.97715 0.79736 0.0
H247 H 0.43552 0.82302 0.68872 0.0
H248 H 0.32932 0.65713 0.29698 0.0
H249 H 0.2975 0.68175 0.36985 0.0
H250 H 0.24278 0.67098 0.24758 0.0
H251 H 0.09239 0.74073 0.34555 0.0
C252 C 0.601 0.07657 0.4671 0.0
C253 C 0.48037 0.11293 0.47973 0.0
C254 C 0.55187 0.12232 0.47275 0.0
C255 C 0.45937 0.05736 0.4825 0.0
C256 C 0.57936 0.01976 0.46788 0.0
C257 C 0.50879 0.01096 0.4766 0.0
N258 N 0.66865 0.0863 0.45794 0.0
C259 C 0.71546 0.03944 0.44588 0.0
C260 C 0.62857 0.97278 0.45822 0.0
C261 C 0.69665 0.98247 0.44667 0.0
Gd262 Gd 0.80645 0.28682 0.55713 0.0
Gd263 Gd 0.69359 0.18387 0.45687 0.0
N264 N 0.57391 0.17583 0.47037 0.0
C265 C 0.43209 0.15948 0.48313 0.0
C266 C 0.52682 0.22043 0.47175 0.0
C267 C 0.45537 0.21328 0.47875 0.0
H268 H 0.5447 0.26157 0.46768 0.0
H269 H 0.41829 0.24912 0.48058 0.0
H270 H 0.94372 0.19144 0.55028 0.0
H271 H 0.76685 0.04493 0.43437 0.0
H272 H 0.06965 0.18584 0.53323 0.0
H273 H 0.3767 0.15402 0.48852 0.0
H274 H 0.40484 0.04935 0.48831 0.0
H275 H 0.75312 0.42413 0.56288 0.0
H276 H 0.61377 0.92833 0.45801 0.0
H277 H 0.73425 0.94573 0.4375 0.0
H278 H 0.11979 0.37752 0.519 0.0
H279 H 0.49137 0.96768 0.47753 0.0
H280 H 0.93062 0.52078 0.54145 0.0
H281 H 0.80414 0.51706 0.55661 0.0
N282 N 0.84953 0.37536 0.54958 0.0
C283 C 0.9197 0.37678 0.5422 0.0
C284 C 0.80816 0.42496 0.5553 0.0
C285 C 0.90868 0.47966 0.54362 0.0
C286 C 0.83702 0.47775 0.55215 0.0
C287 C 0.95108 0.42886 0.5385 0.0
H288 H 0.04858 0.46816 0.52708 0.0
N289 N 0.9278 0.2763 0.54225 0.0
C290 C 0.95971 0.32544 0.53772 0.0
C291 C 0.07193 0.27375 0.52683 0.0
C292 C 0.03254 0.3253 0.52959 0.0
C293 C 0.96697 0.22759 0.54227 0.0
C294 C 0.03912 0.22499 0.5337 0.0
O295 O 0.64133 0.20899 0.51956 0.0
O296 O 0.73714 0.21054 0.5593 0.0
O297 O 0.86111 0.28922 0.61255 0.0
O298 O 0.77415 0.35027 0.6165 0.0
O299 O 0.68507 0.28579 0.4777 0.0
O300 O 0.69783 0.32096 0.54861 0.0
O301 O 0.81969 0.30249 0.49592 0.0
O302 O 0.80757 0.2066 0.45246 0.0
O303 O 0.65598 0.21548 0.40773 0.0
O304 O 0.69055 0.1237 0.39402 0.0
O305 O 0.81748 0.18521 0.53867 0.0
O306 O 0.79981 0.1467 0.46834 0.0
C307 C 0.66888 0.20893 0.55435 0.0
C308 C 0.66858 0.32314 0.51446 0.0
C309 C 0.86549 0.38047 0.66696 0.0
C310 C 0.93646 0.40836 0.72982 0.0
C311 C 0.9288 0.47506 0.68891 0.0
C312 C 0.88461 0.43433 0.66088 0.0
C313 C 0.95507 0.46212 0.72287 0.0
C314 C 0.8906 0.36823 0.70166 0.0
C315 C 0.82435 0.33377 0.6363 0.0
C316 C 0.06395 0.37688 0.52535 0.0
C317 C 0.0234 0.42858 0.52998 0.0
H318 H 0.128 0.27183 0.52063 0.0
C319 C 0.82982 0.26161 0.45979 0.0
C320 C 0.82668 0.14305 0.5027 0.0
C321 C 0.59415 0.13999 0.35606 0.0
C322 C 0.51258 0.14005 0.30119 0.0
C323 C 0.49182 0.07455 0.3416 0.0
C324 C 0.55253 0.096 0.36421 0.0
C325 C 0.47192 0.09624 0.31031 0.0
C326 C 0.57408 0.16181 0.32432 0.0
C327 C 0.65877 0.16205 0.38023 0.0
H328 H 0.94389 0.51638 0.68389 0.0
H329 H 0.86632 0.44458 0.63433 0.0
H330 H 0.99121 0.49377 0.74305 0.0
H331 H 0.87459 0.32684 0.7063 0.0
H332 H 0.46041 0.04049 0.3481 0.0
H333 H 0.56731 0.07744 0.38773 0.0
H334 H 0.42517 0.07783 0.29272 0.0
H335 H 0.60591 0.19574 0.31786 0.0
C336 C 0.64314 0.59196 0.04139 0.0
C337 C 0.64851 0.61126 1.00732 0.0
C338 C 0.59298 0.54879 0.04245 0.0
C339 C 0.5455 0.52623 1.00929 0.0
C340 C 0.55104 0.54551 0.97473 0.0
C341 C 0.60345 0.58689 0.97382 0.0
C342 C 0.59035 0.52776 0.07918 0.0
C343 C 0.50002 0.52413 0.93937 0.0
C344 C 0.44859 0.37931 0.99269 0.0
C345 C 0.38415 0.39918 0.01267 0.0
C346 C 0.50219 0.42001 0.99244 0.0
C347 C 0.48992 0.48252 0.01071 0.0
C348 C 0.42406 0.50316 0.0295 0.0
C349 C 0.37234 0.46117 0.03065 0.0
C350 C 0.57212 0.39602 0.9728 0.0
C351 C 0.40783 0.56959 0.04783 0.0
H352 H 0.67811 0.61078 0.06726 0.0
H353 H 0.60676 0.6026 0.94773 0.0
H354 H 0.53941 0.54107 0.09544 0.0
H355 H 0.5937 0.47788 0.06908 0.0
H356 H 0.63374 0.54686 0.10117 0.0
H357 H 0.511 0.54409 0.91505 0.0
H358 H 0.50238 0.4744 0.92555 0.0
H359 H 0.44542 0.53621 0.95064 0.0
H360 H 0.45781 0.33174 0.97748 0.0
H361 H 0.32191 0.47707 0.04443 0.0
H362 H 0.61559 0.41451 0.99481 0.0
H363 H 0.58128 0.4107 0.94589 0.0
H364 H 0.57487 0.34606 0.96254 0.0
H365 H 0.44544 0.59125 0.07289 0.0
H366 H 0.35342 0.57824 0.0603 0.0
H367 H 0.41436 0.5916 0.02421 0.0
C368 C 0.442 0.62154 0.55074 0.0
C369 C 0.38236 0.61194 0.52541 0.0
C370 C 0.48654 0.57368 0.55034 0.0
C371 C 0.46947 0.51434 0.52535 0.0
C372 C 0.40674 0.50389 0.50184 0.0
C373 C 0.36454 0.55297 0.50173 0.0
C374 C 0.55368 0.58707 0.57513 0.0
C375 C 0.38519 0.44122 0.47573 0.0
C376 C 0.61892 0.40145 0.48833 0.0
C377 C 0.61765 0.37174 0.51731 0.0
C378 C 0.57114 0.44812 0.49074 0.0
C379 C 0.51942 0.46402 0.5221 0.0
C380 C 0.51693 0.43299 0.55087 0.0
C381 C 0.56696 0.38783 0.54854 0.0
C382 C 0.57669 0.48103 0.46008 0.0
C383 C 0.46101 0.44706 0.58377 0.0
H384 H 0.45606 0.66697 0.56937 0.0
H385 H 0.3176 0.54515 0.48303 0.0
H386 H 0.55613 0.56019 0.59604 0.0
H387 H 0.59977 0.57397 0.55426 0.0
H388 H 0.55848 0.6355 0.59366 0.0
H389 H 0.32878 0.43934 0.46684 0.0
H390 H 0.41732 0.42673 0.4473 0.0
H391 H 0.39447 0.40851 0.49207 0.0
H392 H 0.65844 0.38904 0.46428 0.0
H393 H 0.56548 0.36409 0.57057 0.0
H394 H 0.58371 0.52996 0.47637 0.0
H395 H 0.52729 0.47551 0.44211 0.0
H396 H 0.62138 0.4645 0.43847 0.0
H397 H 0.46609 0.49436 0.60434 0.0
H398 H 0.46439 0.41698 0.60258 0.0
H399 H 0.40798 0.44242 0.56956 0.0
C400 C 0.04309 0.12881 0.98862 0.0
C401 C 0.11022 0.13562 1.00615 0.0
C402 C 0.99828 0.08288 0.99104 0.0
C403 C 0.02357 0.04009 1.00846 0.0
C404 C 0.09339 0.04469 0.02372 0.0
C405 C 0.13515 0.09373 0.02363 0.0
C406 C 0.92327 0.08139 0.97619 0.0
C407 C 0.12412 0.9978 0.03992 0.0
C408 C 0.89622 0.94797 0.04837 0.0
C409 C 0.8862 0.89698 0.01357 0.0
C410 C 0.93903 0.99574 0.04682 0.0
C411 C 0.97694 0.9905 0.01049 0.0
C412 C 0.96963 0.93807 0.97583 0.0
C413 C 0.92261 0.89308 0.97733 0.0
C414 C 0.94309 0.05202 0.08394 0.0
C415 C 0.01235 0.92893 0.93733 0.0
H416 H 0.02445 0.1612 0.97479 0.0
H417 H 0.18782 0.09878 0.03646 0.0
H418 H 0.91424 0.03988 0.94975 0.0
H419 H 0.88624 0.08055 1.00084 0.0
H420 H 0.91036 0.12088 0.96667 0.0
H421 H 0.18169 1.00377 0.04548 0.0
H422 H 0.09805 1.00051 0.06917 0.0
H423 H 0.1146 0.95195 0.01792 0.0
H424 H 0.87074 0.95088 0.07692 0.0
H425 H 0.91624 0.85378 0.95022 0.0
H426 H 0.93348 0.09245 0.07493 0.0
H427 H 0.99655 0.05634 0.09748 0.0
H428 H 0.90423 0.05176 0.10791 0.0
H429 H 0.99606 0.96202 0.92251 0.0
H430 H 0.00602 0.88296 0.91478 0.0
H431 H 0.06906 0.93656 0.94506 0.0
C432 C 0.91455 0.0633 0.46667 0.0
C433 C 0.87309 0.0918 0.50127 0.0
C434 C 0.96449 0.01927 0.46715 0.0
C435 C 0.9725 1.00319 0.50295 0.0
C436 C 0.92879 0.03033 0.53736 0.0
C437 C 0.87982 0.07437 0.53612 0.0
C438 C 0.01026 0.99148 0.4299 0.0
C439 C 0.93514 0.01415 0.57599 0.0
C440 C 0.06467 0.85777 0.49918 0.0
C441 C 0.13141 0.87853 0.51514 0.0
C442 C 0.01299 0.89757 0.49412 0.0
C443 C 0.02822 0.95974 0.50531 0.0
C444 C 0.09578 0.98091 0.52072 0.0
C445 C 0.14658 0.94007 0.52526 0.0
C446 C 0.94171 0.87321 0.47734 0.0
C447 C 0.11414 0.04691 0.53294 0.0
H448 H 0.9098 0.07701 0.43978 0.0
H449 H 0.84744 0.09603 0.56283 0.0
H450 H 0.06593 0.0046 0.43761 0.0
H451 H 0.0079 0.94164 0.42026 0.0
H452 H 0.99435 0.00587 0.40364 0.0
H453 H 0.89489 0.03725 0.59927 0.0
H454 H 0.92953 0.96481 0.56872 0.0
H455 H 0.98814 0.0267 0.58961 0.0
H456 H 0.05255 0.81026 0.49059 0.0
H457 H 0.19815 0.95661 0.5369 0.0
H458 H 0.92895 0.8863 0.45013 0.0
H459 H 0.90045 0.89305 0.50071 0.0
H460 H 0.93918 0.82338 0.46845 0.0
H461 H 0.10605 0.06322 0.50662 0.0
H462 H 0.16952 0.05594 0.54353 0.0
H463 H 0.07872 0.07359 0.55796 0.0
C464 C 0.53893 0.16648 0.23779 0.0
C465 C 0.4903 0.16155 0.26709 0.0
C466 C 0.51664 0.18115 0.2034 0.0
C467 C 0.44409 0.19107 0.19826 0.0
C468 C 0.39516 0.18766 0.2283 0.0
C469 C 0.41887 0.17328 0.26234 0.0
C470 C 0.57043 0.18467 0.17214 0.0
C471 C 0.3173 0.19765 0.22396 0.0
C472 C 0.37695 0.27703 0.13009 0.0
C473 C 0.35423 0.23026 0.09528 0.0
C474 C 0.4094 0.26483 0.16298 0.0
C475 C 0.41838 0.2044 0.16141 0.0
C476 C 0.3972 0.15692 0.12591 0.0
C477 C 0.36605 0.17042 0.0931 0.0
C478 C 0.43214 0.31673 0.19997 0.0
C479 C 0.40557 0.09184 0.12302 0.0
H480 H 0.59409 0.15697 0.24105 0.0
H481 H 0.38113 0.17048 0.28516 0.0
H482 H 0.56134 0.14778 0.14277 0.0
H483 H 0.56484 0.22779 0.16596 0.0
H484 H 0.62524 0.18088 0.18231 0.0
H485 H 0.28619 0.19369 0.25015 0.0
H486 H 0.30804 0.243 0.22171 0.0
H487 H 0.2973 0.1642 0.19526 0.0
H488 H 0.36877 0.32344 0.13191 0.0
H489 H 0.34907 0.13398 0.06623 0.0
H490 H 0.48761 0.31046 0.20786 0.0
H491 H 0.39923 0.31815 0.22679 0.0
H492 H 0.42732 0.36077 0.1949 0.0
H493 H 0.46236 0.08037 0.1224 0.0
H494 H 0.38022 0.06061 0.09513 0.0
H495 H 0.38215 0.08428 0.1503 0.0
C496 C 0.64366 0.81154 0.30834 0.0
C497 C 0.61682 0.81903 0.27236 0.0
C498 C 0.5989 0.80382 0.3385 0.0
C499 C 0.52542 0.79898 0.33153 0.0
C500 C 0.49784 0.80273 0.29447 0.0
C501 C 0.54335 0.81475 0.2661 0.0
C502 C 0.63062 0.80101 0.37794 0.0
C503 C 0.42012 0.79444 0.28484 0.0
C504 C 0.4266 0.72828 0.39934 0.0
C505 C 0.3961 0.77879 0.42857 0.0
C506 C 0.4661 0.7338 0.36652 0.0
C507 C 0.47759 0.79155 0.36361 0.0
C508 C 0.44661 0.84277 0.39283 0.0
C509 C 0.40654 0.83586 0.42515 0.0
C510 C 0.49527 0.67775 0.33492 0.0
C511 C 0.45701 0.90498 0.39035 0.0
H512 H 0.69987 0.81192 0.31346 0.0
H513 H 0.52038 0.82159 0.23937 0.0
H514 H 0.59975 0.82889 0.40483 0.0
H515 H 0.62948 0.75395 0.37796 0.0
H516 H 0.68613 0.81668 0.38185 0.0
H517 H 0.40836 0.79131 0.25272 0.0
H518 H 0.40091 0.75296 0.28984 0.0
H519 H 0.38981 0.83276 0.30567 0.0
H520 H 0.4196 0.68412 0.40201 0.0
H521 H 0.38323 0.87515 0.44764 0.0
H522 H 0.55338 0.67674 0.33772 0.0
H523 H 0.48309 0.67781 0.30353 0.0
H524 H 0.4736 0.63599 0.33849 0.0
H525 H 0.51297 0.9181 0.39677 0.0
H526 H 0.42267 0.93895 0.41224 0.0
H527 H 0.44555 0.90573 0.35912 0.0
C528 C 0.63623 0.84162 0.92494 0.0
C529 C 0.64496 0.7821 0.92416 0.0
C530 C 0.60026 0.8547 0.89342 0.0
C531 C 0.57138 0.8072 0.86044 0.0
C532 C 0.57905 0.74703 0.8598 0.0
C533 C 0.61582 0.73519 0.89167 0.0
C534 C 0.59311 0.91951 0.89543 0.0
C535 C 0.54761 0.69527 0.82581 0.0
C536 C 0.42376 0.85858 0.80547 0.0
C537 C 0.45915 0.86555 0.77176 0.0
C538 C 0.45868 0.83627 0.83327 0.0
C539 C 0.53121 0.82151 0.82764 0.0
C540 C 0.56647 0.82598 0.79259 0.0
C541 C 0.5298 0.84758 0.76485 0.0
C542 C 0.41808 0.82937 0.869 0.0
C543 C 0.64372 0.8106 0.78546 0.0
H544 H 0.65846 0.87814 0.94999 0.0
H545 H 0.62087 0.68923 0.89146 0.0
H546 H 0.61781 0.92553 0.86798 0.0
H547 H 0.53661 0.93159 0.89523 0.0
H548 H 0.6181 0.95123 0.92327 0.0
H549 H 0.56216 0.65089 0.82833 0.0
H550 H 0.48938 0.69938 0.82667 0.0
H551 H 0.56524 0.69657 0.79553 0.0
H552 H 0.36878 0.87164 0.81044 0.0
H553 H 0.55718 0.85304 0.7388 0.0
H554 H 0.4471 0.84973 0.89812 0.0
H555 H 0.41189 0.7808 0.86459 0.0
H556 H 0.36486 0.85009 0.87201 0.0
H557 H 0.67525 0.84326 0.80981 0.0
H558 H 0.662 0.81167 0.75519 0.0
H559 H 0.65444 0.76522 0.78731 0.0
C560 C 0.54964 0.19964 0.58299 0.0
C561 C 0.62269 0.20617 0.58837 0.0
C562 C 0.50552 0.19611 0.61467 0.0
C563 C 0.53469 0.20224 0.65356 0.0
C564 C 0.60832 0.20966 0.65946 0.0
C565 C 0.6515 0.21084 0.62671 0.0
C566 C 0.4276 0.18664 0.60633 0.0
C567 C 0.6414 0.21681 0.70049 0.0
C568 C 0.40554 0.256 0.7424 0.0
C569 C 0.39358 0.20327 0.75155 0.0
C570 C 0.45321 0.25658 0.71148 0.0
C571 C 0.48787 0.20257 0.68827 0.0
C572 C 0.476 0.14909 0.6977 0.0
C573 C 0.42965 0.15042 0.72968 0.0
C574 C 0.46653 0.31508 0.70373 0.0
C575 C 0.51145 0.09 0.67465 0.0
H576 H 0.52651 0.19749 0.55405 0.0
H577 H 0.70785 0.21635 0.63143 0.0
H578 H 0.40435 0.15869 0.62331 0.0
H579 H 0.40036 0.2309 0.61639 0.0
H580 H 0.41696 0.16458 0.57311 0.0
H581 H 0.69882 0.22594 0.70083 0.0
H582 H 0.61553 0.25431 0.72484 0.0
H583 H 0.63335 0.17513 0.70816 0.0
H584 H 0.37774 0.29689 0.75966 0.0
H585 H 0.42026 0.10964 0.7369 0.0
H586 H 0.44561 0.31228 0.67322 0.0
H587 H 0.52401 0.32348 0.70349 0.0
H588 H 0.44129 0.35408 0.72723 0.0
H589 H 0.53674 0.08955 0.64567 0.0
H590 H 0.47268 0.0527 0.66761 0.0
H591 H 0.55243 0.08044 0.69457 0.0
C592 C 0.9655 0.73314 0.09818 0.0
C593 C 0.89217 0.73722 0.10097 0.0
C594 C 0.00626 0.72875 0.13092 0.0
C595 C 0.97253 0.72784 0.16729 0.0
C596 C 0.89804 0.73088 0.16995 0.0
C597 C 0.85875 0.73617 0.13682 0.0
C598 C 0.08551 0.72635 0.12686 0.0
C599 C 0.85995 0.72816 0.20758 0.0
C600 C 0.0836 0.66096 0.23309 0.0
C601 C 0.10892 0.71277 0.2631 0.0
C602 C 0.03682 0.6651 0.20268 0.0
C603 C 0.01573 0.72257 0.20198 0.0
C604 C 0.04009 0.77505 0.23291 0.0
C605 C 0.08601 0.76947 0.26338 0.0
C606 C 0.00993 0.60772 0.17168 0.0
C607 C 0.01951 0.83708 0.233 0.0
H608 H 0.99117 0.73516 0.07088 0.0
H609 H 0.80178 0.73886 0.1387 0.0
H610 H 0.10809 0.76897 0.14765 0.0
H611 H 0.10748 0.68916 0.1362 0.0
H612 H 0.10302 0.72015 0.09506 0.0
H613 H 0.80181 0.73029 0.20458 0.0
H614 H 0.8739 0.68577 0.21323 0.0
H615 H 0.87676 0.76603 0.23487 0.0
H616 H 0.10067 0.61707 0.23336 0.0
H617 H 0.10582 0.80944 0.2867 0.0
H618 H 1.00115 0.61247 0.14124 0.0
H619 H 0.9586 0.59627 0.18249 0.0
H620 H 0.04687 0.56961 0.16804 0.0
H621 H 0.04033 0.84427 0.205 0.0
H622 H 0.04 0.8732 0.26029 0.0
H623 H 0.96133 0.84123 0.23234 0.0
C624 C 0.87588 0.33787 0.42972 0.0
C625 C 0.86398 0.27759 0.42616 0.0
C626 C 0.90446 0.35312 0.39693 0.0
C627 C 0.92194 0.30702 0.35975 0.0
C628 C 0.91162 0.24607 0.35639 0.0
C629 C 0.8827 0.23214 0.38953 0.0
C630 C 0.91349 0.41871 0.40161 0.0
C631 C 0.92928 0.19553 0.31735 0.0
C632 C 0.92281 0.34931 0.2627 0.0
C633 C 0.99495 0.35665 0.25682 0.0
C634 C 0.89859 0.33242 0.29566 0.0
C635 C 0.9476 0.32266 0.32369 0.0
C636 C 0.02065 0.32848 0.31739 0.0
C637 C 0.0435 0.34509 0.2839 0.0
C638 C 0.82035 0.32584 0.3008 0.0
C639 C 0.07459 0.31775 0.34626 0.0
H640 H 0.8612 0.37333 0.45774 0.0
H641 H 0.87408 0.18536 0.38649 0.0
H642 H 0.96634 0.42672 0.39079 0.0
H643 H 0.87402 0.43166 0.38236 0.0
H644 H 0.90629 0.4484 0.43386 0.0
H645 H 0.92091 0.15044 0.32026 0.0
H646 H 0.89604 0.19926 0.29191 0.0
H647 H 0.98497 0.19889 0.3087 0.0
H648 H 0.88503 0.35728 0.24153 0.0
H649 H 0.09925 0.35095 0.27968 0.0
H650 H 0.80249 0.35866 0.33037 0.0
H651 H 0.80855 0.28018 0.30171 0.0
H652 H 0.7893 0.33327 0.27566 0.0
H653 H 0.12835 0.33131 0.3402 0.0
H654 H 0.07572 0.26924 0.34288 0.0
H655 H 0.06009 0.34287 0.37853 0.0
C656 C 0.98137 0.33336 0.76213 0.0
C657 C 0.96645 0.39333 0.76543 0.0
C658 C 0.01048 0.31855 0.79495 0.0
C659 C 0.02765 0.36495 0.83194 0.0
C660 C 0.0122 0.42549 0.83567 0.0
C661 C 0.98143 0.43886 0.80269 0.0
C662 C 0.0232 0.25279 0.78867 0.0
C663 C 0.02926 0.47669 0.87422 0.0
C664 C 0.05741 0.3246 0.92904 0.0
C665 C 0.13102 0.3235 0.93094 0.0
C666 C 0.02299 0.33781 0.89693 0.0
C667 C 0.06328 0.35076 0.86632 0.0
C668 C 0.13781 0.34998 0.8685 0.0
C669 C 0.17075 0.3363 0.90079 0.0
C670 C 0.94366 0.3357 0.89485 0.0
C671 C 0.18276 0.36268 0.83633 0.0
H672 H 0.97165 0.29741 0.73352 0.0
H673 H 0.96905 0.4853 0.80634 0.0
H674 H 0.06391 0.23524 0.76455 0.0
H675 H 0.04002 0.24379 0.81678 0.0
H676 H 0.97434 0.22692 0.77711 0.0
H677 H 0.99714 0.51745 0.87712 0.0
H678 H 0.02046 0.46325 0.90157 0.0
H679 H 0.08567 0.48857 0.87375 0.0
H680 H 0.02685 0.3136 0.95206 0.0
H681 H 0.22778 0.33477 0.9022 0.0
H682 H 0.92725 0.29614 0.86852 0.0
H683 H 0.92245 0.37646 0.88952 0.0
H684 H 0.91976 0.33203 0.92327 0.0
H685 H 0.16732 0.33268 0.80533 0.0
H686 H 0.23981 0.35619 0.84078 0.0
H687 H 0.17398 0.40974 0.8373 0.0
C688 C 0.14808 0.76203 0.64132 0.0
C689 C 0.1511 0.71992 0.60158 0.0
C690 C 0.10241 0.75381 0.67095 0.0
C691 C 0.059 0.70213 0.66065 0.0
C692 C 0.06313 0.65878 0.62094 0.0
C693 C 0.10902 0.66824 0.59189 0.0
C694 C 0.09992 0.80082 0.71312 0.0
C695 C 0.01806 0.60295 0.60871 0.0
C696 C 0.98111 0.65455 0.7463 0.0
C697 C 0.91281 0.67879 0.74963 0.0
C698 C 0.02932 0.66205 0.71764 0.0
C699 C 0.00851 0.69384 0.69123 0.0
C700 C 0.93937 0.71756 0.6939 0.0
C701 C 0.89249 0.71006 0.72322 0.0
C702 C 0.10249 0.63583 0.71555 0.0
C703 C 0.91497 0.75103 0.66586 0.0
H704 H 0.18036 0.80215 0.64911 0.0
H705 H 0.11195 0.63491 0.56152 0.0
H706 H 0.04634 0.82077 0.71926 0.0
H707 H 0.11105 0.77968 0.73678 0.0
H708 H 0.13843 0.8376 0.71658 0.0
H709 H 0.03465 0.57024 0.5788 0.0
H710 H 0.0204 0.58038 0.6322 0.0
H711 H 0.96233 0.6157 0.60627 0.0
H712 H 0.99682 0.62918 0.76594 0.0
H713 H 0.84014 0.7295 0.72584 0.0
H714 H 0.14233 0.67191 0.72042 0.0
H715 H 0.11201 0.60255 0.68465 0.0
H716 H 0.11079 0.61326 0.73877 0.0
H717 H 0.94867 0.79102 0.67005 0.0
H718 H 0.85928 0.76616 0.67159 0.0
H719 H 0.92026 0.72169 0.63341 0.0
loop_
_geom_bond_atom_site_label_1
_geom_bond_atom_site_label_2
_geom_bond_distance
_geom_bond_site_symmetry_2
_ccdc_geom_bond_type
C0 C2 1.422 . S
C0 C4 1.415 . S
C0 N6 1.369 . S
C1 C2 1.421 1_655 S
C1 C3 1.417 1_554 S
C1 C13 1.422 1_554 S
C2 C0 1.422 . S
C2 C1 1.421 1_455 S
C2 N12 1.359 . S
C3 C1 1.417 1_556 S
C3 C5 1.329 1_556 S
C3 H22 0.930 . S
C4 C0 1.415 . S
C4 C5 1.437 1_455 S
C4 C8 1.413 . S
C5 C3 1.329 1_554 S
C5 C4 1.437 1_655 S
C5 H27 0.929 . S
N6 C0 1.369 . S
N6 C7 1.338 . S
N6 Gd11 2.622 . S
C7 N6 1.338 . S
C7 C9 1.378 . S
C7 H19 0.929 . S
C8 C4 1.413 . S
C8 C9 1.348 . S
C8 H24 0.931 . S
C9 C7 1.378 . S
C9 C8 1.348 . S
C9 H25 0.930 . S
Gd10 N30 2.622 . S
Gd10 N37 2.570 . S
Gd10 O44 2.353 . S
Gd10 O45 2.468 . S
Gd10 O46 2.427 . S
Gd10 O48 2.388 . S
Gd10 O49 2.386 1_556 S
Gd10 O53 2.307 . S
Gd10 C63 2.805 . S
Gd11 N6 2.622 . S
Gd11 N12 2.570 . S
Gd11 O43 2.386 1_554 S
Gd11 O47 2.307 . S
Gd11 O50 2.353 . S
Gd11 O51 2.468 . S
Gd11 O52 2.427 . S
Gd11 O54 2.388 . S
Gd11 C75 2.805 . S
N12 C2 1.359 . S
N12 Gd11 2.570 . S
N12 C14 1.343 . S
C13 C1 1.422 1_556 S
C13 C15 1.324 . S
C13 H21 0.931 . S
C14 N12 1.343 . S
C14 C15 1.388 1_454 S
C14 H16 0.931 . S
C15 C13 1.324 . S
C15 C14 1.388 1_656 S
C15 H17 0.929 . S
H16 C14 0.931 . S
H17 C15 0.929 . S
H18 C41 0.931 . S
H19 C7 0.929 . S
H20 C42 0.929 . S
H21 C13 0.931 . S
H22 C3 0.930 . S
H23 C32 0.929 . S
H24 C8 0.931 . S
H25 C9 0.930 . S
H26 C64 0.932 . S
H27 C5 0.929 . S
H28 C33 0.931 . S
H29 C34 0.930 . S
N30 Gd10 2.622 . S
N30 C31 1.369 . S
N30 C32 1.338 . S
C31 N30 1.369 . S
C31 C35 1.415 . S
C31 C38 1.422 . S
C32 H23 0.929 . S
C32 N30 1.338 . S
C32 C34 1.378 1_545 S
C33 H28 0.931 . S
C33 C34 1.348 . S
C33 C35 1.413 1_565 S
C34 H29 0.930 . S
C34 C32 1.378 1_565 S
C34 C33 1.348 . S
C35 C31 1.415 . S
C35 C33 1.413 1_545 S
C35 C65 1.437 . S
H36 C65 0.929 1_565 S
N37 Gd10 2.570 . S
N37 C38 1.359 . S
N37 C41 1.343 . S
C38 C31 1.422 . S
C38 N37 1.359 . S
C38 C40 1.421 . S
C39 C40 1.422 1_554 S
C39 C42 1.327 . S
C39 H66 0.931 . S
C40 C38 1.421 . S
C40 C39 1.422 1_556 S
C40 C64 1.415 1_556 S
C41 H18 0.931 . S
C41 N37 1.343 . S
C41 C42 1.385 1_556 S
C42 H20 0.929 . S
C42 C39 1.327 . S
C42 C41 1.385 1_554 S
O43 Gd11 2.386 1_556 S
O43 C55 1.265 . S
O44 Gd10 2.353 . S
O44 C55 1.242 . S
O45 Gd10 2.468 . S
O45 C63 1.263 . S
O46 Gd10 2.427 . S
O46 C63 1.252 . S
O47 Gd11 2.307 . S
O47 C56 1.261 1_554 S
O48 Gd10 2.388 . S
O48 C56 1.252 . S
O49 Gd10 2.386 1_554 S
O49 C67 1.265 . S
O50 Gd11 2.353 . S
O50 C67 1.242 . S
O51 Gd11 2.468 . S
O51 C75 1.263 . S
O52 Gd11 2.427 . S
O52 C75 1.252 . S
O53 Gd10 2.307 . S
O53 C68 1.261 1_556 S
O54 Gd11 2.388 . S
O54 C68 1.252 . S
C55 O43 1.265 . S
C55 O44 1.242 . S
C56 O47 1.261 1_556 S
C56 O48 1.252 . S
C57 C60 1.394 . S
C57 C62 1.370 . S
C57 C63 1.500 . S
C58 C61 1.383 . S
C58 C62 1.395 . S
C59 C60 1.396 . S
C59 C61 1.365 . S
C59 H76 0.929 . S
C60 C57 1.394 . S
C60 C59 1.396 . S
C60 H77 0.930 . S
C61 C58 1.383 . S
C61 C59 1.365 . S
C61 H78 0.931 . S
C62 C57 1.370 . S
C62 C58 1.395 . S
C62 H79 0.930 . S
C63 Gd10 2.805 . S
C63 O45 1.263 . S
C63 O46 1.252 . S
C63 C57 1.500 . S
C64 H26 0.932 . S
C64 C40 1.415 1_554 S
C64 C65 1.329 1_554 S
C65 C35 1.437 . S
C65 H36 0.929 1_545 S
C65 C64 1.329 1_556 S
H66 C39 0.931 . S
C67 O49 1.265 . S
C67 O50 1.242 . S
C68 O53 1.261 1_554 S
C68 O54 1.252 . S
C69 C72 1.394 . S
C69 C74 1.370 . S
C69 C75 1.500 . S
C70 C73 1.383 . S
C70 C74 1.395 . S
C71 C72 1.396 . S
C71 C73 1.365 . S
C71 H80 0.929 . S
C72 C69 1.394 . S
C72 C71 1.396 . S
C72 H81 0.930 . S
C73 C70 1.383 . S
C73 C71 1.365 . S
C73 H82 0.931 . S
C74 C69 1.370 . S
C74 C70 1.395 . S
C74 H83 0.930 . S
C75 Gd11 2.805 . S
C75 O51 1.263 . S
C75 O52 1.252 . S
C75 C69 1.500 . S
H76 C59 0.929 . S
H77 C60 0.930 . S
H78 C61 0.931 . S
H79 C62 0.930 . S
H80 C71 0.929 . S
H81 C72 0.930 . S
H82 C73 0.931 . S
H83 C74 0.930 . S
C84 C86 1.422 . S
C84 C88 1.415 . S
C84 N90 1.369 . S
C85 C86 1.421 . S
C85 C87 1.417 1_554 S
C85 C97 1.422 1_554 S
C86 C84 1.422 . S
C86 C85 1.421 . S
C86 N96 1.359 . S
C87 C85 1.417 1_556 S
C87 C89 1.329 1_556 S
C87 H106 0.930 . S
C88 C84 1.415 . S
C88 C89 1.437 . S
C88 C92 1.413 1_565 S
C89 C87 1.329 1_554 S
C89 C88 1.437 . S
C89 H111 0.929 1_565 S
N90 C84 1.369 . S
N90 C91 1.338 . S
N90 Gd95 2.622 . S
C91 N90 1.338 . S
C91 C93 1.378 1_565 S
C91 H103 0.929 . S
C92 C88 1.413 1_545 S
C92 C93 1.348 . S
C92 H108 0.931 . S
C93 C91 1.378 1_545 S
C93 C92 1.348 . S
C93 H109 0.930 . S
Gd94 N114 2.622 . S
Gd94 N121 2.570 . S
Gd94 O128 2.353 . S
Gd94 O129 2.468 . S
Gd94 O130 2.427 . S
Gd94 O132 2.388 . S
Gd94 O133 2.386 1_556 S
Gd94 O137 2.307 . S
Gd94 C147 2.805 . S
Gd95 N90 2.622 . S
Gd95 N96 2.570 . S
Gd95 O127 2.386 1_554 S
Gd95 O131 2.307 . S
Gd95 O134 2.353 . S
Gd95 O135 2.468 . S
Gd95 O136 2.427 . S
Gd95 O138 2.388 . S
Gd95 C159 2.805 . S
N96 C86 1.359 . S
N96 Gd95 2.570 . S
N96 C98 1.343 . S
C97 C85 1.422 1_556 S
C97 C99 1.324 . S
C97 H105 0.931 . S
C98 N96 1.343 . S
C98 C99 1.388 1_554 S
C98 H100 0.931 . S
C99 C97 1.324 . S
C99 C98 1.388 1_556 S
C99 H101 0.929 . S
H100 C98 0.931 . S
H101 C99 0.929 . S
H102 C125 0.931 . S
H103 C91 0.929 . S
H104 C126 0.929 . S
H105 C97 0.931 . S
H106 C87 0.930 . S
H107 C116 0.929 . S
H108 C92 0.931 . S
H109 C93 0.930 . S
H110 C148 0.932 . S
H111 C89 0.929 1_545 S
H112 C117 0.931 . S
H113 C118 0.930 . S
N114 Gd94 2.622 . S
N114 C115 1.369 . S
N114 C116 1.338 . S
C115 N114 1.369 . S
C115 C119 1.415 . S
C115 C122 1.422 . S
C116 H107 0.929 . S
C116 N114 1.338 . S
C116 C118 1.378 . S
C117 H112 0.931 . S
C117 C118 1.348 . S
C117 C119 1.413 . S
C118 H113 0.930 . S
C118 C116 1.378 . S
C118 C117 1.348 . S
C119 C115 1.415 . S
C119 C117 1.413 . S
C119 C149 1.437 1_655 S
H120 C149 0.929 . S
N121 Gd94 2.570 . S
N121 C122 1.359 . S
N121 C125 1.343 . S
C122 C115 1.422 . S
C122 N121 1.359 . S
C122 C124 1.421 1_655 S
C123 C124 1.422 1_554 S
C123 C126 1.327 . S
C123 H150 0.931 . S
C124 C122 1.421 1_455 S
C124 C123 1.422 1_556 S
C124 C148 1.415 1_556 S
C125 H102 0.931 . S
C125 N121 1.343 . S
C125 C126 1.385 1_656 S
C126 H104 0.929 . S
C126 C123 1.327 . S
C126 C125 1.385 1_454 S
O127 Gd95 2.386 1_556 S
O127 C139 1.265 . S
O128 Gd94 2.353 . S
O128 C139 1.242 . S
O129 Gd94 2.468 . S
O129 C147 1.263 . S
O130 Gd94 2.427 . S
O130 C147 1.252 . S
O131 Gd95 2.307 . S
O131 C140 1.261 1_554 S
O132 Gd94 2.388 . S
O132 C140 1.252 . S
O133 Gd94 2.386 1_554 S
O133 C151 1.265 . S
O134 Gd95 2.353 . S
O134 C151 1.242 . S
O135 Gd95 2.468 . S
O135 C159 1.263 . S
O136 Gd95 2.427 . S
O136 C159 1.252 . S
O137 Gd94 2.307 . S
O137 C152 1.261 1_556 S
O138 Gd95 2.388 . S
O138 C152 1.252 . S
C139 O127 1.265 . S
C139 O128 1.242 . S
C140 O131 1.261 1_556 S
C140 O132 1.252 . S
C141 C144 1.394 . S
C141 C146 1.370 . S
C141 C147 1.500 . S
C142 C145 1.383 . S
C142 C146 1.395 . S
C143 C144 1.396 . S
C143 C145 1.365 . S
C143 H160 0.929 . S
C144 C141 1.394 . S
C144 C143 1.396 . S
C144 H161 0.930 . S
C145 C142 1.383 . S
C145 C143 1.365 . S
C145 H162 0.931 . S
C146 C141 1.370 . S
C146 C142 1.395 . S
C146 H163 0.930 . S
C147 Gd94 2.805 . S
C147 O129 1.263 . S
C147 O130 1.252 . S
C147 C141 1.500 . S
C148 H110 0.932 . S
C148 C124 1.415 1_554 S
C148 C149 1.329 1_554 S
C149 C119 1.437 1_455 S
C149 H120 0.929 . S
C149 C148 1.329 1_556 S
H150 C123 0.931 . S
C151 O133 1.265 . S
C151 O134 1.242 . S
C152 O137 1.261 1_554 S
C152 O138 1.252 . S
C153 C156 1.394 . S
C153 C158 1.370 . S
C153 C159 1.500 . S
C154 C157 1.383 . S
C154 C158 1.395 . S
C155 C156 1.396 . S
C155 C157 1.365 . S
C155 H164 0.929 . S
C156 C153 1.394 . S
C156 C155 1.396 . S
C156 H165 0.930 . S
C157 C154 1.383 . S
C157 C155 1.365 . S
C157 H166 0.931 . S
C158 C153 1.370 . S
C158 C154 1.395 . S
C158 H167 0.930 . S
C159 Gd95 2.805 . S
C159 O135 1.263 . S
C159 O136 1.252 . S
C159 C153 1.500 . S
H160 C143 0.929 . S
H161 C144 0.930 . S
H162 C145 0.931 . S
H163 C146 0.930 . S
H164 C155 0.929 . S
H165 C156 0.930 . S
H166 C157 0.931 . S
H167 C158 0.930 . S
C168 C170 1.422 . S
C168 C172 1.415 . S
C168 N174 1.369 . S
C169 C170 1.421 1_655 S
C169 C171 1.417 . S
C169 C181 1.422 . S
C170 C168 1.422 . S
C170 C169 1.421 1_455 S
C170 N180 1.359 . S
C171 C169 1.417 . S
C171 C173 1.329 . S
C171 H190 0.930 . S
C172 C168 1.415 . S
C172 C173 1.437 1_455 S
C172 C176 1.413 . S
C173 C171 1.329 . S
C173 C172 1.437 1_655 S
C173 H195 0.929 . S
N174 C168 1.369 . S
N174 C175 1.338 . S
N174 Gd179 2.622 . S
C175 N174 1.338 . S
C175 C177 1.378 . S
C175 H187 0.929 . S
C176 C172 1.413 . S
C176 C177 1.348 . S
C176 H192 0.931 . S
C177 C175 1.378 . S
C177 C176 1.348 . S
C177 H193 0.930 . S
Gd178 N198 2.622 . S
Gd178 N205 2.570 . S
Gd178 O212 2.353 . S
Gd178 O213 2.468 . S
Gd178 O214 2.427 . S
Gd178 O216 2.388 . S
Gd178 O217 2.386 . S
Gd178 O221 2.307 . S
Gd178 C231 2.805 . S
Gd179 N174 2.622 . S
Gd179 N180 2.570 . S
Gd179 O211 2.386 . S
Gd179 O215 2.307 . S
Gd179 O218 2.353 . S
Gd179 O219 2.468 . S
Gd179 O220 2.427 . S
Gd179 O222 2.388 . S
Gd179 C243 2.805 . S
N180 C170 1.359 . S
N180 Gd179 2.570 . S
N180 C182 1.343 . S
C181 C169 1.422 . S
C181 C183 1.321 . S
C181 H189 0.931 . S
C182 N180 1.343 . S
C182 C183 1.390 1_455 S
C182 H184 0.931 . S
C183 C181 1.321 . S
C183 C182 1.390 1_655 S
C183 H185 0.930 . S
H184 C182 0.931 . S
H185 C183 0.930 . S
H186 C209 0.931 . S
H187 C175 0.929 . S
H188 C210 0.930 . S
H189 C181 0.931 . S
H190 C171 0.930 . S
H191 C200 0.929 . S
H192 C176 0.931 . S
H193 C177 0.930 . S
H194 C232 0.930 . S
H195 C173 0.929 . S
H196 C201 0.931 . S
H197 C202 0.930 . S
N198 Gd178 2.622 . S
N198 C199 1.369 . S
N198 C200 1.338 . S
C199 N198 1.369 . S
C199 C203 1.415 . S
C199 C206 1.422 . S
C200 H191 0.929 . S
C200 N198 1.338 . S
C200 C202 1.378 1_565 S
C201 H196 0.931 . S
C201 C202 1.348 . S
C201 C203 1.413 1_545 S
C202 H197 0.930 . S
C202 C200 1.378 1_545 S
C202 C201 1.348 . S
C203 C199 1.415 . S
C203 C201 1.413 1_565 S
C203 C233 1.437 . S
H204 C233 0.929 1_545 S
N205 Gd178 2.570 . S
N205 C206 1.359 . S
N205 C209 1.343 . S
C206 C199 1.422 . S
C206 N205 1.359 . S
C206 C208 1.421 . S
C207 C208 1.422 . S
C207 C210 1.321 . S
C207 H234 0.931 . S
C208 C206 1.421 . S
C208 C207 1.422 . S
C208 C232 1.417 . S
C209 H186 0.931 . S
C209 N205 1.343 . S
C209 C210 1.390 . S
C210 H188 0.930 . S
C210 C207 1.321 . S
C210 C209 1.390 . S
O211 Gd179 2.386 . S
O211 C223 1.265 . S
O212 Gd178 2.353 . S
O212 C223 1.242 . S
O213 Gd178 2.468 . S
O213 C231 1.263 . S
O214 Gd178 2.427 . S
O214 C231 1.252 . S
O215 Gd179 2.307 . S
O215 C224 1.261 . S
O216 Gd178 2.388 . S
O216 C224 1.252 . S
O217 Gd178 2.386 . S
O217 C235 1.265 . S
O218 Gd179 2.353 . S
O218 C235 1.242 . S
O219 Gd179 2.468 . S
O219 C243 1.263 . S
O220 Gd179 2.427 . S
O220 C243 1.252 . S
O221 Gd178 2.307 . S
O221 C236 1.261 . S
O222 Gd179 2.388 . S
O222 C236 1.252 . S
C223 O211 1.265 . S
C223 O212 1.242 . S
C224 O215 1.261 . S
C224 O216 1.252 . S
C225 C228 1.394 . S
C225 C230 1.370 . S
C225 C231 1.500 . S
C226 C229 1.383 . S
C226 C230 1.395 . S
C227 C228 1.396 . S
C227 C229 1.365 . S
C227 H244 0.929 . S
C228 C225 1.394 . S
C228 C227 1.396 . S
C228 H245 0.930 . S
C229 C226 1.383 . S
C229 C227 1.365 . S
C229 H246 0.931 . S
C230 C225 1.370 . S
C230 C226 1.395 . S
C230 H247 0.930 . S
C231 Gd178 2.805 . S
C231 O213 1.263 . S
C231 O214 1.252 . S
C231 C225 1.500 . S
C232 H194 0.930 . S
C232 C208 1.417 . S
C232 C233 1.329 . S
C233 C203 1.437 . S
C233 H204 0.929 1_565 S
C233 C232 1.329 . S
H234 C207 0.931 . S
C235 O217 1.265 . S
C235 O218 1.242 . S
C236 O221 1.261 . S
C236 O222 1.252 . S
C237 C240 1.394 . S
C237 C242 1.370 . S
C237 C243 1.500 . S
C238 C241 1.383 . S
C238 C242 1.395 . S
C239 C240 1.396 . S
C239 C241 1.365 . S
C239 H248 0.929 . S
C240 C237 1.394 . S
C240 C239 1.396 . S
C240 H249 0.930 . S
C241 C238 1.383 . S
C241 C239 1.365 . S
C241 H250 0.931 . S
C242 C237 1.370 . S
C242 C238 1.395 . S
C242 H251 0.930 . S
C243 Gd179 2.805 . S
C243 O219 1.263 . S
C243 O220 1.252 . S
C243 C237 1.500 . S
H244 C227 0.929 . S
H245 C228 0.930 . S
H246 C229 0.931 . S
H247 C230 0.930 . S
H248 C239 0.929 . S
H249 C240 0.930 . S
H250 C241 0.931 . S
H251 C242 0.930 . S
C252 C254 1.422 . S
C252 C256 1.415 . S
C252 N258 1.369 . S
C253 C254 1.421 . S
C253 C255 1.417 . S
C253 C265 1.422 . S
C254 C252 1.422 . S
C254 C253 1.421 . S
C254 N264 1.359 . S
C255 C253 1.417 . S
C255 C257 1.329 . S
C255 H274 0.930 . S
C256 C252 1.415 . S
C256 C257 1.437 . S
C256 C260 1.413 1_545 S
C257 C255 1.329 . S
C257 C256 1.437 . S
C257 H279 0.929 1_545 S
N258 C252 1.369 . S
N258 C259 1.338 . S
N258 Gd263 2.622 . S
C259 N258 1.338 . S
C259 C261 1.378 1_545 S
C259 H271 0.929 . S
C260 C256 1.413 1_565 S
C260 C261 1.348 . S
C260 H276 0.931 . S
C261 C259 1.378 1_565 S
C261 C260 1.348 . S
C261 H277 0.930 . S
Gd262 N282 2.622 . S
Gd262 N289 2.570 . S
Gd262 O296 2.353 . S
Gd262 O297 2.468 . S
Gd262 O298 2.427 . S
Gd262 O300 2.388 . S
Gd262 O301 2.386 . S
Gd262 O305 2.307 . S
Gd262 C315 2.805 . S
Gd263 N258 2.622 . S
Gd263 N264 2.570 . S
Gd263 O295 2.386 . S
Gd263 O299 2.307 . S
Gd263 O302 2.353 . S
Gd263 O303 2.468 . S
Gd263 O304 2.427 . S
Gd263 O306 2.388 . S
Gd263 C327 2.805 . S
N264 C254 1.359 . S
N264 Gd263 2.570 . S
N264 C266 1.343 . S
C265 C253 1.422 . S
C265 C267 1.321 . S
C265 H273 0.931 . S
C266 N264 1.343 . S
C266 C267 1.390 . S
C266 H268 0.931 . S
C267 C265 1.321 . S
C267 C266 1.390 . S
C267 H269 0.930 . S
H268 C266 0.931 . S
H269 C267 0.930 . S
H270 C293 0.931 . S
H271 C259 0.929 . S
H272 C294 0.930 . S
H273 C265 0.931 . S
H274 C255 0.930 . S
H275 C284 0.929 . S
H276 C260 0.931 . S
H277 C261 0.930 . S
H278 C316 0.930 . S
H279 C257 0.929 1_565 S
H280 C285 0.931 . S
H281 C286 0.930 . S
N282 Gd262 2.622 . S
N282 C283 1.369 . S
N282 C284 1.338 . S
C283 N282 1.369 . S
C283 C287 1.415 . S
C283 C290 1.422 . S
C284 H275 0.929 . S
C284 N282 1.338 . S
C284 C286 1.378 . S
C285 H280 0.931 . S
C285 C286 1.348 . S
C285 C287 1.413 . S
C286 H281 0.930 . S
C286 C284 1.378 . S
C286 C285 1.348 . S
C287 C283 1.415 . S
C287 C285 1.413 . S
C287 C317 1.437 1_655 S
H288 C317 0.929 . S
N289 Gd262 2.570 . S
N289 C290 1.359 . S
N289 C293 1.343 . S
C290 C283 1.422 . S
C290 N289 1.359 . S
C290 C292 1.421 1_655 S
C291 C292 1.422 . S
C291 C294 1.321 . S
C291 H318 0.931 . S
C292 C290 1.421 1_455 S
C292 C291 1.422 . S
C292 C316 1.417 . S
C293 H270 0.931 . S
C293 N289 1.343 . S
C293 C294 1.390 1_655 S
C294 H272 0.930 . S
C294 C291 1.321 . S
C294 C293 1.390 1_455 S
O295 Gd263 2.386 . S
O295 C307 1.265 . S
O296 Gd262 2.353 . S
O296 C307 1.242 . S
O297 Gd262 2.468 . S
O297 C315 1.263 . S
O298 Gd262 2.427 . S
O298 C315 1.252 . S
O299 Gd263 2.307 . S
O299 C308 1.261 . S
O300 Gd262 2.388 . S
O300 C308 1.252 . S
O301 Gd262 2.386 . S
O301 C319 1.265 . S
O302 Gd263 2.353 . S
O302 C319 1.242 . S
O303 Gd263 2.468 . S
O303 C327 1.263 . S
O304 Gd263 2.427 . S
O304 C327 1.252 . S
O305 Gd262 2.307 . S
O305 C320 1.261 . S
O306 Gd263 2.388 . S
O306 C320 1.252 . S
C307 O295 1.265 . S
C307 O296 1.242 . S
C308 O299 1.261 . S
C308 O300 1.252 . S
C309 C312 1.394 . S
C309 C314 1.370 . S
C309 C315 1.500 . S
C310 C313 1.383 . S
C310 C314 1.395 . S
C311 C312 1.396 . S
C311 C313 1.365 . S
C311 H328 0.929 . S
C312 C309 1.394 . S
C312 C311 1.396 . S
C312 H329 0.930 . S
C313 C310 1.383 . S
C313 C311 1.365 . S
C313 H330 0.931 . S
C314 C309 1.370 . S
C314 C310 1.395 . S
C314 H331 0.930 . S
C315 Gd262 2.805 . S
C315 O297 1.263 . S
C315 O298 1.252 . S
C315 C309 1.500 . S
C316 H278 0.930 . S
C316 C292 1.417 . S
C316 C317 1.329 . S
C317 C287 1.437 1_455 S
C317 H288 0.929 . S
C317 C316 1.329 . S
H318 C291 0.931 . S
C319 O301 1.265 . S
C319 O302 1.242 . S
C320 O305 1.261 . S
C320 O306 1.252 . S
C321 C324 1.394 . S
C321 C326 1.370 . S
C321 C327 1.500 . S
C322 C325 1.383 . S
C322 C326 1.395 . S
C323 C324 1.396 . S
C323 C325 1.365 . S
C323 H332 0.929 . S
C324 C321 1.394 . S
C324 C323 1.396 . S
C324 H333 0.930 . S
C325 C322 1.383 . S
C325 C323 1.365 . S
C325 H334 0.931 . S
C326 C321 1.370 . S
C326 C322 1.395 . S
C326 H335 0.930 . S
C327 Gd263 2.805 . S
C327 O303 1.263 . S
C327 O304 1.252 . S
C327 C321 1.500 . S
H328 C311 0.929 . S
H329 C312 0.930 . S
H330 C313 0.931 . S
H331 C314 0.930 . S
H332 C323 0.929 . S
H333 C324 0.930 . S
H334 C325 0.931 . S
H335 C326 0.930 . S
C336 C337 1.391 . S
C336 C338 1.394 . S
C336 H352 0.931 . S
C337 C336 1.391 . S
C337 C341 1.376 1_554 S
C338 C336 1.394 . S
C338 C339 1.369 . S
C338 C342 1.531 . S
C339 C338 1.369 . S
C339 C340 1.410 1_554 S
C339 C347 1.503 . S
C340 C339 1.410 1_556 S
C340 C341 1.392 . S
C340 C343 1.511 . S
C341 C337 1.376 1_556 S
C341 C340 1.392 . S
C341 H353 0.929 . S
C342 C338 1.531 . S
C342 H354 0.960 . S
C342 H355 0.962 . S
C342 H356 0.960 . S
C343 C340 1.511 . S
C343 H357 0.961 . S
C343 H358 0.961 . S
C343 H359 0.961 . S
C344 C345 1.370 1_556 S
C344 C346 1.363 . S
C344 H360 0.931 . S
C345 C344 1.370 1_554 S
C345 C349 1.408 . S
C346 C344 1.363 . S
C346 C347 1.370 1_556 S
C346 C350 1.524 . S
C347 C339 1.503 . S
C347 C346 1.370 1_554 S
C347 C348 1.403 . S
C348 C347 1.403 . S
C348 C349 1.404 . S
C348 C351 1.539 . S
C349 C345 1.408 . S
C349 C348 1.404 . S
C349 H361 0.930 . S
C350 C346 1.524 . S
C350 H362 0.956 . S
C350 H363 0.961 . S
C350 H364 0.961 . S
C351 C348 1.539 . S
C351 H365 0.958 . S
C351 H366 0.961 . S
C351 H367 0.960 . S
H352 C336 0.931 . S
H353 C341 0.929 . S
H354 C342 0.960 . S
H355 C342 0.962 . S
H356 C342 0.960 . S
H357 C343 0.961 . S
H358 C343 0.961 . S
H359 C343 0.961 . S
H360 C344 0.931 . S
H361 C349 0.930 . S
H362 C350 0.956 . S
H363 C350 0.961 . S
H364 C350 0.961 . S
H365 C351 0.958 . S
H366 C351 0.961 . S
H367 C351 0.960 . S
C368 C369 1.391 . S
C368 C370 1.394 . S
C368 H384 0.931 . S
C369 C368 1.391 . S
C369 C373 1.376 . S
C370 C368 1.394 . S
C370 C371 1.369 . S
C370 C374 1.531 . S
C371 C370 1.369 . S
C371 C372 1.410 . S
C371 C379 1.503 . S
C372 C371 1.410 . S
C372 C373 1.392 . S
C372 C375 1.511 . S
C373 C369 1.376 . S
C373 C372 1.392 . S
C373 H385 0.929 . S
C374 C370 1.531 . S
C374 H386 0.960 . S
C374 H387 0.962 . S
C374 H388 0.960 . S
C375 C372 1.511 . S
C375 H389 0.961 . S
C375 H390 0.961 . S
C375 H391 0.961 . S
C376 C377 1.370 . S
C376 C378 1.363 . S
C376 H392 0.931 . S
C377 C376 1.370 . S
C377 C381 1.408 . S
C378 C376 1.363 . S
C378 C379 1.370 . S
C378 C382 1.524 . S
C379 C371 1.503 . S
C379 C378 1.370 . S
C379 C380 1.403 . S
C380 C379 1.403 . S
C380 C381 1.404 . S
C380 C383 1.539 . S
C381 C377 1.408 . S
C381 C380 1.404 . S
C381 H393 0.930 . S
C382 C378 1.524 . S
C382 H394 0.956 . S
C382 H395 0.961 . S
C382 H396 0.961 . S
C383 C380 1.539 . S
C383 H397 0.958 . S
C383 H398 0.961 . S
C383 H399 0.960 . S
H384 C368 0.931 . S
H385 C373 0.929 . S
H386 C374 0.960 . S
H387 C374 0.962 . S
H388 C374 0.960 . S
H389 C375 0.961 . S
H390 C375 0.961 . S
H391 C375 0.961 . S
H392 C376 0.931 . S
H393 C381 0.930 . S
H394 C382 0.956 . S
H395 C382 0.961 . S
H396 C382 0.961 . S
H397 C383 0.958 . S
H398 C383 0.961 . S
H399 C383 0.960 . S
C400 C401 1.391 . S
C400 C402 1.394 . S
C400 H416 0.931 . S
C401 C400 1.391 . S
C401 C405 1.376 1_556 S
C402 C400 1.394 . S
C402 C403 1.369 . S
C402 C406 1.531 1_455 S
C403 C402 1.369 . S
C403 C404 1.410 1_556 S
C403 C411 1.503 1_445 S
C404 C403 1.410 1_554 S
C404 C405 1.392 . S
C404 C407 1.511 1_545 S
C405 C401 1.376 1_554 S
C405 C404 1.392 . S
C405 H417 0.929 . S
C406 C402 1.531 1_655 S
C406 H418 0.960 . S
C406 H419 0.962 . S
C406 H420 0.960 . S
C407 C404 1.511 1_565 S
C407 H421 0.961 . S
C407 H422 0.961 . S
C407 H423 0.961 1_554 S
C408 C409 1.374 . S
C408 C410 1.363 . S
C408 H424 0.931 . S
C409 C408 1.374 . S
C409 C413 1.402 1_554 S
C410 C408 1.363 . S
C410 C411 1.370 1_554 S
C410 C414 1.524 1_565 S
C411 C403 1.503 1_665 S
C411 C410 1.370 1_556 S
C411 C412 1.403 . S
C412 C411 1.403 . S
C412 C413 1.404 . S
C412 C415 1.539 1_655 S
C413 C409 1.402 1_556 S
C413 C412 1.404 . S
C413 H425 0.930 . S
C414 C410 1.524 1_545 S
C414 H426 0.956 . S
C414 H427 0.961 . S
C414 H428 0.961 . S
C415 C412 1.539 1_455 S
C415 H429 0.958 1_455 S
C415 H430 0.961 . S
C415 H431 0.960 . S
H416 C400 0.931 . S
H417 C405 0.929 . S
H418 C406 0.960 . S
H419 C406 0.962 . S
H420 C406 0.960 . S
H421 C407 0.961 . S
H422 C407 0.961 . S
H423 C407 0.961 1_556 S
H424 C408 0.931 . S
H425 C413 0.930 . S
H426 C414 0.956 . S
H427 C414 0.961 . S
H428 C414 0.961 . S
H429 C415 0.958 1_655 S
H430 C415 0.961 . S
H431 C415 0.960 . S
C432 C433 1.391 . S
C432 C434 1.394 . S
C432 H448 0.931 . S
C433 C432 1.391 . S
C433 C437 1.376 . S
C434 C432 1.394 . S
C434 C435 1.369 . S
C434 C438 1.531 1_655 S
C435 C434 1.369 . S
C435 C436 1.410 . S
C435 C443 1.503 1_645 S
C436 C435 1.410 . S
C436 C437 1.392 . S
C436 C439 1.511 1_545 S
C437 C433 1.376 . S
C437 C436 1.392 . S
C437 H449 0.929 . S
C438 C434 1.531 1_455 S
C438 H450 0.960 . S
C438 H451 0.962 . S
C438 H452 0.960 . S
C439 C436 1.511 1_565 S
C439 H453 0.961 . S
C439 H454 0.961 . S
C439 H455 0.961 . S
C440 C441 1.370 . S
C440 C442 1.363 . S
C440 H456 0.931 . S
C441 C440 1.370 . S
C441 C445 1.408 . S
C442 C440 1.363 . S
C442 C443 1.370 . S
C442 C446 1.524 . S
C443 C435 1.503 1_465 S
C443 C442 1.370 . S
C443 C444 1.403 . S
C444 C443 1.403 . S
C444 C445 1.404 . S
C444 C447 1.539 1_565 S
C445 C441 1.408 . S
C445 C444 1.404 . S
C445 H457 0.930 . S
C446 C442 1.524 . S
C446 H458 0.956 . S
C446 H459 0.961 1_455 S
C446 H460 0.961 . S
C447 C444 1.539 1_545 S
C447 H461 0.958 . S
C447 H462 0.961 1_545 S
C447 H463 0.960 1_455 S
H448 C432 0.931 . S
H449 C437 0.929 . S
H450 C438 0.960 . S
H451 C438 0.962 . S
H452 C438 0.960 . S
H453 C439 0.961 . S
H454 C439 0.961 . S
H455 C439 0.961 . S
H456 C440 0.931 . S
H457 C445 0.930 . S
H458 C446 0.956 . S
H459 C446 0.961 1_655 S
H460 C446 0.961 . S
H461 C447 0.958 . S
H462 C447 0.961 1_565 S
H463 C447 0.960 1_655 S
C464 C465 1.391 . S
C464 C466 1.394 . S
C464 H480 0.931 . S
C465 C464 1.391 . S
C465 C469 1.376 . S
C466 C464 1.394 . S
C466 C467 1.369 . S
C466 C470 1.531 . S
C467 C466 1.369 . S
C467 C468 1.410 . S
C467 C475 1.503 . S
C468 C467 1.410 . S
C468 C469 1.392 . S
C468 C471 1.511 . S
C469 C465 1.376 . S
C469 C468 1.392 . S
C469 H481 0.929 . S
C470 C466 1.531 . S
C470 H482 0.960 . S
C470 H483 0.962 . S
C470 H484 0.960 . S
C471 C468 1.511 . S
C471 H485 0.961 . S
C471 H486 0.961 . S
C471 H487 0.961 . S
C472 C473 1.370 . S
C472 C474 1.363 . S
C472 H488 0.931 . S
C473 C472 1.370 . S
C473 C477 1.408 . S
C474 C472 1.363 . S
C474 C475 1.370 . S
C474 C478 1.524 . S
C475 C467 1.503 . S
C475 C474 1.370 . S
C475 C476 1.403 . S
C476 C475 1.403 . S
C476 C477 1.404 . S
C476 C479 1.539 . S
C477 C473 1.408 . S
C477 C476 1.404 . S
C477 H489 0.930 . S
C478 C474 1.524 . S
C478 H490 0.956 . S
C478 H491 0.961 . S
C478 H492 0.961 . S
C479 C476 1.539 . S
C479 H493 0.958 . S
C479 H494 0.961 . S
C479 H495 0.960 . S
H480 C464 0.931 . S
H481 C469 0.929 . S
H482 C470 0.960 . S
H483 C470 0.962 . S
H484 C470 0.960 . S
H485 C471 0.961 . S
H486 C471 0.961 . S
H487 C471 0.961 . S
H488 C472 0.931 . S
H489 C477 0.930 . S
H490 C478 0.956 . S
H491 C478 0.961 . S
H492 C478 0.961 . S
H493 C479 0.958 . S
H494 C479 0.961 . S
H495 C479 0.960 . S
C496 C497 1.391 . S
C496 C498 1.394 . S
C496 H512 0.931 . S
C497 C496 1.391 . S
C497 C501 1.376 . S
C498 C496 1.394 . S
C498 C499 1.369 . S
C498 C502 1.531 . S
C499 C498 1.369 . S
C499 C500 1.410 . S
C499 C507 1.503 . S
C500 C499 1.410 . S
C500 C501 1.392 . S
C500 C503 1.511 . S
C501 C497 1.376 . S
C501 C500 1.392 . S
C501 H513 0.929 . S
C502 C498 1.531 . S
C502 H514 0.960 . S
C502 H515 0.962 . S
C502 H516 0.960 . S
C503 C500 1.511 . S
C503 H517 0.961 . S
C503 H518 0.961 . S
C503 H519 0.961 . S
C504 C505 1.370 . S
C504 C506 1.363 . S
C504 H520 0.931 . S
C505 C504 1.370 . S
C505 C509 1.408 . S
C506 C504 1.363 . S
C506 C507 1.370 . S
C506 C510 1.524 . S
C507 C499 1.503 . S
C507 C506 1.370 . S
C507 C508 1.403 . S
C508 C507 1.403 . S
C508 C509 1.404 . S
C508 C511 1.539 . S
C509 C505 1.408 . S
C509 C508 1.404 . S
C509 H521 0.930 . S
C510 C506 1.524 . S
C510 H522 0.956 . S
C510 H523 0.961 . S
C510 H524 0.961 . S
C511 C508 1.539 . S
C511 H525 0.958 . S
C511 H526 0.961 . S
C511 H527 0.960 . S
H512 C496 0.931 . S
H513 C501 0.929 . S
H514 C502 0.960 . S
H515 C502 0.962 . S
H516 C502 0.960 . S
H517 C503 0.961 . S
H518 C503 0.961 . S
H519 C503 0.961 . S
H520 C504 0.931 . S
H521 C509 0.930 . S
H522 C510 0.956 . S
H523 C510 0.961 . S
H524 C510 0.961 . S
H525 C511 0.958 . S
H526 C511 0.961 . S
H527 C511 0.960 . S
C528 C529 1.391 . S
C528 C530 1.394 . S
C528 H544 0.931 . S
C529 C528 1.391 . S
C529 C533 1.376 . S
C530 C528 1.394 . S
C530 C531 1.369 . S
C530 C534 1.531 . S
C531 C530 1.369 . S
C531 C532 1.410 . S
C531 C539 1.503 . S
C532 C531 1.410 . S
C532 C533 1.392 . S
C532 C535 1.511 . S
C533 C529 1.376 . S
C533 C532 1.392 . S
C533 H545 0.929 . S
C534 C530 1.531 . S
C534 H546 0.960 . S
C534 H547 0.962 . S
C534 H548 0.960 . S
C535 C532 1.511 . S
C535 H549 0.961 . S
C535 H550 0.961 . S
C535 H551 0.961 . S
C536 C537 1.370 . S
C536 C538 1.363 . S
C536 H552 0.931 . S
C537 C536 1.370 . S
C537 C541 1.408 . S
C538 C536 1.363 . S
C538 C539 1.370 . S
C538 C542 1.524 . S
C539 C531 1.503 . S
C539 C538 1.370 . S
C539 C540 1.403 . S
C540 C539 1.403 . S
C540 C541 1.404 . S
C540 C543 1.539 . S
C541 C537 1.408 . S
C541 C540 1.404 . S
C541 H553 0.930 . S
C542 C538 1.524 . S
C542 H554 0.956 . S
C542 H555 0.961 . S
C542 H556 0.961 . S
C543 C540 1.539 . S
C543 H557 0.958 . S
C543 H558 0.961 . S
C543 H559 0.960 . S
H544 C528 0.931 . S
H545 C533 0.929 . S
H546 C534 0.960 . S
H547 C534 0.962 . S
H548 C534 0.960 . S
H549 C535 0.961 . S
H550 C535 0.961 . S
H551 C535 0.961 . S
H552 C536 0.931 . S
H553 C541 0.930 . S
H554 C542 0.956 . S
H555 C542 0.961 . S
H556 C542 0.961 . S
H557 C543 0.958 . S
H558 C543 0.961 . S
H559 C543 0.960 . S
C560 C561 1.391 . S
C560 C562 1.394 . S
C560 H576 0.931 . S
C561 C560 1.391 . S
C561 C565 1.376 . S
C562 C560 1.394 . S
C562 C563 1.369 . S
C562 C566 1.531 . S
C563 C562 1.369 . S
C563 C564 1.410 . S
C563 C571 1.503 . S
C564 C563 1.410 . S
C564 C565 1.392 . S
C564 C567 1.511 . S
C565 C561 1.376 . S
C565 C564 1.392 . S
C565 H577 0.929 . S
C566 C562 1.531 . S
C566 H578 0.960 . S
C566 H579 0.962 . S
C566 H580 0.960 . S
C567 C564 1.511 . S
C567 H581 0.961 . S
C567 H582 0.961 . S
C567 H583 0.961 . S
C568 C569 1.370 . S
C568 C570 1.363 . S
C568 H584 0.931 . S
C569 C568 1.370 . S
C569 C573 1.408 . S
C570 C568 1.363 . S
C570 C571 1.370 . S
C570 C574 1.524 . S
C571 C563 1.503 . S
C571 C570 1.370 . S
C571 C572 1.403 . S
C572 C571 1.403 . S
C572 C573 1.404 . S
C572 C575 1.539 . S
C573 C569 1.408 . S
C573 C572 1.404 . S
C573 H585 0.930 . S
C574 C570 1.524 . S
C574 H586 0.956 . S
C574 H587 0.961 . S
C574 H588 0.961 . S
C575 C572 1.539 . S
C575 H589 0.958 . S
C575 H590 0.961 . S
C575 H591 0.960 . S
H576 C560 0.931 . S
H577 C565 0.929 . S
H578 C566 0.960 . S
H579 C566 0.962 . S
H580 C566 0.960 . S
H581 C567 0.961 . S
H582 C567 0.961 . S
H583 C567 0.961 . S
H584 C568 0.931 . S
H585 C573 0.930 . S
H586 C574 0.956 . S
H587 C574 0.961 . S
H588 C574 0.961 . S
H589 C575 0.958 . S
H590 C575 0.961 . S
H591 C575 0.960 . S
C592 C593 1.391 . S
C592 C594 1.394 . S
C592 H608 0.931 . S
C593 C592 1.391 . S
C593 C597 1.376 . S
C594 C592 1.394 . S
C594 C595 1.369 . S
C594 C598 1.531 1_655 S
C595 C594 1.369 . S
C595 C596 1.410 . S
C595 C603 1.503 . S
C596 C595 1.410 . S
C596 C597 1.392 . S
C596 C599 1.511 . S
C597 C593 1.376 . S
C597 C596 1.392 . S
C597 H609 0.929 . S
C598 C594 1.531 1_455 S
C598 H610 0.960 . S
C598 H611 0.962 . S
C598 H612 0.960 . S
C599 C596 1.511 . S
C599 H613 0.961 . S
C599 H614 0.961 . S
C599 H615 0.961 . S
C600 C601 1.370 1_655 S
C600 C602 1.363 . S
C600 H616 0.931 . S
C601 C600 1.370 1_455 S
C601 C605 1.408 1_455 S
C602 C600 1.363 . S
C602 C603 1.370 . S
C602 C606 1.524 . S
C603 C595 1.503 . S
C603 C602 1.370 . S
C603 C604 1.403 . S
C604 C603 1.403 . S
C604 C605 1.404 . S
C604 C607 1.539 . S
C605 C601 1.408 1_655 S
C605 C604 1.404 . S
C605 H617 0.930 1_655 S
C606 C602 1.524 . S
C606 H618 0.956 . S
C606 H619 0.961 . S
C606 H620 0.961 . S
C607 C604 1.539 . S
C607 H621 0.958 . S
C607 H622 0.961 . S
C607 H623 0.960 . S
H608 C592 0.931 . S
H609 C597 0.929 . S
H610 C598 0.960 . S
H611 C598 0.962 . S
H612 C598 0.960 . S
H613 C599 0.961 . S
H614 C599 0.961 . S
H615 C599 0.961 . S
H616 C600 0.931 . S
H617 C605 0.930 1_455 S
H618 C606 0.956 . S
H619 C606 0.961 . S
H620 C606 0.961 . S
H621 C607 0.958 . S
H622 C607 0.961 . S
H623 C607 0.960 . S
C624 C625 1.391 . S
C624 C626 1.394 . S
C624 H640 0.931 . S
C625 C624 1.391 . S
C625 C629 1.376 . S
C626 C624 1.394 . S
C626 C627 1.369 . S
C626 C630 1.531 . S
C627 C626 1.369 . S
C627 C628 1.410 . S
C627 C635 1.503 . S
C628 C627 1.410 . S
C628 C629 1.392 . S
C628 C631 1.511 1_655 S
C629 C625 1.376 . S
C629 C628 1.392 . S
C629 H641 0.929 . S
C630 C626 1.531 . S
C630 H642 0.960 . S
C630 H643 0.962 . S
C630 H644 0.960 . S
C631 C628 1.511 1_455 S
C631 H645 0.961 . S
C631 H646 0.961 . S
C631 H647 0.961 . S
C632 C633 1.370 1_655 S
C632 C634 1.363 . S
C632 H648 0.931 . S
C633 C632 1.370 1_455 S
C633 C637 1.408 . S
C634 C632 1.363 . S
C634 C635 1.370 . S
C634 C638 1.524 . S
C635 C627 1.503 . S
C635 C634 1.370 . S
C635 C636 1.403 . S
C636 C635 1.403 . S
C636 C637 1.403 1_655 S
C636 C639 1.539 1_655 S
C637 C633 1.408 . S
C637 C636 1.403 1_455 S
C637 H649 0.930 . S
C638 C634 1.524 . S
C638 H650 0.956 . S
C638 H651 0.961 . S
C638 H652 0.961 . S
C639 C636 1.539 1_455 S
C639 H653 0.958 . S
C639 H654 0.961 . S
C639 H655 0.960 . S
H640 C624 0.931 . S
H641 C629 0.929 . S
H642 C630 0.960 . S
H643 C630 0.962 . S
H644 C630 0.960 . S
H645 C631 0.961 . S
H646 C631 0.961 . S
H647 C631 0.961 . S
H648 C632 0.931 . S
H649 C637 0.930 . S
H650 C638 0.956 . S
H651 C638 0.961 . S
H652 C638 0.961 . S
H653 C639 0.958 . S
H654 C639 0.961 . S
H655 C639 0.960 . S
C656 C657 1.391 . S
C656 C658 1.394 . S
C656 H672 0.931 . S
C657 C656 1.391 . S
C657 C661 1.376 . S
C658 C656 1.394 . S
C658 C659 1.369 . S
C658 C662 1.531 . S
C659 C658 1.369 . S
C659 C660 1.410 . S
C659 C667 1.503 . S
C660 C659 1.410 . S
C660 C661 1.392 . S
C660 C663 1.511 . S
C661 C657 1.376 . S
C661 C660 1.392 . S
C661 H673 0.929 1_455 S
C662 C658 1.531 . S
C662 H674 0.960 . S
C662 H675 0.962 . S
C662 H676 0.960 . S
C663 C660 1.511 . S
C663 H677 0.961 1_455 S
C663 H678 0.961 . S
C663 H679 0.961 . S
C664 C665 1.370 . S
C664 C666 1.363 . S
C664 H680 0.931 . S
C665 C664 1.370 . S
C665 C669 1.408 . S
C666 C664 1.363 . S
C666 C667 1.370 . S
C666 C670 1.524 1_455 S
C667 C659 1.503 . S
C667 C666 1.370 . S
C667 C668 1.403 . S
C668 C667 1.403 . S
C668 C669 1.404 . S
C668 C671 1.539 . S
C669 C665 1.408 . S
C669 C668 1.404 . S
C669 H681 0.930 . S
C670 C666 1.524 1_655 S
C670 H682 0.956 . S
C670 H683 0.961 . S
C670 H684 0.961 . S
C671 C668 1.539 . S
C671 H685 0.958 . S
C671 H686 0.961 . S
C671 H687 0.960 . S
H672 C656 0.931 . S
H673 C661 0.929 1_655 S
H674 C662 0.960 . S
H675 C662 0.962 . S
H676 C662 0.960 . S
H677 C663 0.961 1_655 S
H678 C663 0.961 . S
H679 C663 0.961 . S
H680 C664 0.931 . S
H681 C669 0.930 . S
H682 C670 0.956 . S
H683 C670 0.961 . S
H684 C670 0.961 . S
H685 C671 0.958 . S
H686 C671 0.961 . S
H687 C671 0.960 . S
C688 C689 1.391 . S
C688 C690 1.394 . S
C688 H704 0.931 . S
C689 C688 1.391 . S
C689 C693 1.376 . S
C690 C688 1.394 . S
C690 C691 1.369 . S
C690 C694 1.531 . S
C691 C690 1.369 . S
C691 C692 1.410 . S
C691 C699 1.503 . S
C692 C691 1.410 . S
C692 C693 1.392 . S
C692 C695 1.511 1_455 S
C693 C689 1.376 . S
C693 C692 1.392 . S
C693 H705 0.929 . S
C694 C690 1.531 . S
C694 H706 0.960 . S
C694 H707 0.962 . S
C694 H708 0.960 . S
C695 C692 1.511 1_655 S
C695 H709 0.961 . S
C695 H710 0.961 . S
C695 H711 0.961 . S
C696 C697 1.370 1_455 S
C696 C698 1.363 . S
C696 H712 0.931 . S
C697 C696 1.370 1_655 S
C697 C701 1.408 . S
C698 C696 1.363 . S
C698 C699 1.370 . S
C698 C702 1.524 . S
C699 C691 1.503 . S
C699 C698 1.370 . S
C699 C700 1.403 . S
C700 C699 1.403 . S
C700 C701 1.404 1_455 S
C700 C703 1.539 1_455 S
C701 C697 1.408 . S
C701 C700 1.404 1_655 S
C701 H713 0.930 . S
C702 C698 1.524 . S
C702 H714 0.956 . S
C702 H715 0.961 . S
C702 H716 0.961 . S
C703 C700 1.539 1_655 S
C703 H717 0.958 1_655 S
C703 H718 0.961 . S
C703 H719 0.960 . S
H704 C688 0.931 . S
H705 C693 0.929 . S
H706 C694 0.960 . S
H707 C694 0.962 . S
H708 C694 0.960 . S
H709 C695 0.961 . S
H710 C695 0.961 . S
H711 C695 0.961 . S
H712 C696 0.931 . S
H713 C701 0.930 . S
H714 C702 0.956 . S
H715 C702 0.961 . S
H716 C702 0.961 . S
H717 C703 0.958 1_455 S
H718 C703 0.961 . S
H719 C703 0.960 . S
C337 C140 1.511 1_554 S
C345 C68 1.509 . S
C369 C236 1.525 . S
C377 C308 1.503 . S
C401 C56 1.494 . S
C409 C152 1.517 . S
C433 C320 1.524 . S
C441 C224 1.502 . S
C465 C322 1.197 . S
C473 C67 1.303 . S
C497 C154 1.185 . S
C505 C235 1.305 . S
C529 C139 1.292 . S
C537 C226 1.234 . S
C561 C307 1.296 . S
C569 C58 1.222 . S
C593 C151 1.314 . S
C601 C238 1.250 . S
C625 C319 1.312 . S
C633 C70 1.213 . S
C657 C310 1.232 1_455 S
C665 C55 1.307 . S
C689 C223 1.321 . S
C697 C142 1.244 . S
