# Generated by pormake.
# Topology tfs, (6)-cn, num edge types: 1
# Building blocks:
#     Node 0, Type 0, BuildingBlock: FUNLAD_clean_sbu_0, # of connection points: 6
#     Node 1, Type 0, BuildingBlock: FUNLAD_clean_sbu_0, # of connection points: 6
#     Node 2, Type 0, BuildingBlock: FUNLAD_clean_sbu_0, # of connection points: 6
#     Node 3, Type 0, BuildingBlock: FUNLAD_clean_sbu_0, # of connection points: 6
#     Node 4, Type 0, BuildingBlock: FUNLAD_clean_sbu_0, # of connection points: 6
#     Node 5, Type 0, BuildingBlock: FUNLAD_clean_sbu_0, # of connection points: 6
#     Edge 6, Type (0, 0), BuildingBlock: AJUNOK_clean_linker_0, # of connection points: 2
#     Edge 7, Type (0, 0), BuildingBlock: AJUNOK_clean_linker_0, # of connection points: 2
#     Edge 8, Type (0, 0), BuildingBlock: AJUNOK_clean_linker_0, # of connection points: 2
#     Edge 9, Type (0, 0), BuildingBlock: AJUNOK_clean_linker_0, # of connection points: 2
#     Edge 10, Type (0, 0), BuildingBlock: AJUNOK_clean_linker_0, # of connection points: 2
#     Edge 11, Type (0, 0), BuildingBlock: AJUNOK_clean_linker_0, # of connection points: 2
#     Edge 12, Type (0, 0), BuildingBlock: AJUNOK_clean_linker_0, # of connection points: 2
#     Edge 13, Type (0, 0), BuildingBlock: AJUNOK_clean_linker_0, # of connection points: 2
#     Edge 14, Type (0, 0), BuildingBlock: AJUNOK_clean_linker_0, # of connection points: 2
#     Edge 15, Type (0, 0), BuildingBlock: AJUNOK_clean_linker_0, # of connection points: 2
#     Edge 16, Type (0, 0), BuildingBlock: AJUNOK_clean_linker_0, # of connection points: 2
#     Edge 17, Type (0, 0), BuildingBlock: AJUNOK_clean_linker_0, # of connection points: 2
#     Edge 18, Type (0, 0), BuildingBlock: AJUNOK_clean_linker_0, # of connection points: 2
#     Edge 19, Type (0, 0), BuildingBlock: AJUNOK_clean_linker_0, # of connection points: 2
#     Edge 20, Type (0, 0), BuildingBlock: AJUNOK_clean_linker_0, # of connection points: 2
#     Edge 21, Type (0, 0), BuildingBlock: AJUNOK_clean_linker_0, # of connection points: 2
#     Edge 22, Type (0, 0), BuildingBlock: AJUNOK_clean_linker_0, # of connection points: 2
#     Edge 23, Type (0, 0), BuildingBlock: AJUNOK_clean_linker_0, # of connection points: 2
# Relax obj value: 0.097
# Max RMSD: 0.154
# Mean RMSD: 0.153
data_MOF--net-tfs--node1-FUNLAD_clean_sbu_0--edge1-AJUNOK_clean_linker_0
_symmetry_space_group_name_H-M    P1
_symmetry_Int_Tables_number       1
_symmetry_cell_setting            triclinic
loop_
_symmetry_equiv_pos_as_xyz
'x, y, z'
_cell_length_a     30.301034
_cell_length_b     30.400202
_cell_length_c     17.678709
_cell_angle_alpha  90.511182
_cell_angle_beta   90.792681
_cell_angle_gamma 119.73051
loop_
_atom_site_label
_atom_site_type_symbol
_atom_site_fract_x
_atom_site_fract_y
_atom_site_fract_z
_atom_type_partial_charge
C0 C 0.08869 0.33391 0.0519 0.0
N1 N 0.19212 0.40969 0.2306 0.0
C2 C 0.15298 0.40969 0.26747 0.0
C3 C 0.15256 0.4104 0.3464 0.0
C4 C 0.19291 0.41139 0.38775 0.0
C5 C 0.23273 0.4112 0.34834 0.0
C6 C 0.23161 0.41041 0.26932 0.0
Zn7 Zn 0.19108 0.4084 0.11503 0.0
C8 C 0.21858 0.33489 0.05166 0.0
N9 N 0.18763 0.40608 0.87378 0.0
C10 C 0.14856 0.40574 0.83438 0.0
C11 C 0.22732 0.40676 0.8376 0.0
C12 C 0.22909 0.40781 0.75881 0.0
C13 C 0.18974 0.40835 0.71679 0.0
C14 C 0.14878 0.40672 0.75539 0.0
Zn15 Zn 0.18826 0.40699 0.98935 0.0
O16 O 0.11358 0.35148 0.1137 0.0
C17 C 0.16281 0.4821 0.05262 0.0
O18 O 0.11111 0.35036 0.98973 0.0
H19 H 0.25786 0.40674 0.86994 0.0
H20 H 0.12198 0.40914 0.23561 0.0
H21 H 0.11738 0.40517 0.86429 0.0
O22 O 0.17004 0.46506 0.11409 0.0
O23 O 0.16733 0.46383 0.99015 0.0
H24 H 0.26221 0.41019 0.23888 0.0
O25 O 0.26526 0.4642 0.99063 0.0
O26 O 0.26851 0.466 0.11449 0.0
O27 O 0.20999 0.35095 0.99026 0.0
O28 O 0.21294 0.35231 0.11417 0.0
C29 C 0.29026 0.4829 0.05193 0.0
H30 H 0.12125 0.41065 0.37486 0.0
H31 H 0.26406 0.41101 0.37827 0.0
H32 H 0.26078 0.40794 0.73102 0.0
H33 H 0.11772 0.40707 0.72484 0.0
C34 C 0.86886 0.22192 0.0581 0.0
N35 N 0.76511 0.19269 0.88017 0.0
C36 C 0.80371 0.23226 0.84444 0.0
C37 C 0.80438 0.23389 0.76561 0.0
C38 C 0.7649 0.19449 0.7231 0.0
C39 C 0.72581 0.15385 0.76127 0.0
C40 C 0.72657 0.15377 0.84031 0.0
Zn41 Zn 0.76576 0.19258 0.99574 0.0
C42 C 0.74085 0.0927 0.05743 0.0
N43 N 0.76926 0.19443 0.23699 0.0
C44 C 0.80742 0.234 0.27635 0.0
C45 C 0.73064 0.15517 0.2732 0.0
C46 C 0.72924 0.15488 0.35208 0.0
C47 C 0.76777 0.19552 0.39404 0.0
C48 C 0.80744 0.23529 0.35533 0.0
Zn49 Zn 0.76875 0.19419 0.12143 0.0
O50 O 0.84331 0.21386 0.99697 0.0
C51 C 0.79221 0.29384 0.06053 0.0
O52 O 0.84682 0.216 0.1209 0.0
H53 H 0.70062 0.12414 0.24085 0.0
H54 H 0.83414 0.26266 0.87716 0.0
H55 H 0.83784 0.26472 0.24644 0.0
O56 O 0.78526 0.26989 0.99821 0.0
O57 O 0.78792 0.27099 0.12209 0.0
H58 H 0.6963 0.12268 0.86985 0.0
O59 O 0.69075 0.17317 0.11998 0.0
O60 O 0.68818 0.17189 0.99606 0.0
O61 O 0.74905 0.11736 0.11925 0.0
O62 O 0.7456 0.11524 0.99531 0.0
C63 C 0.66589 0.16657 0.05845 0.0
H64 H 0.83574 0.26538 0.73817 0.0
H65 H 0.69471 0.12277 0.73031 0.0
H66 H 0.69797 0.12358 0.37996 0.0
H67 H 0.83835 0.26684 0.3858 0.0
C68 C 0.62911 0.74389 0.05509 0.0
N69 N 0.55736 0.77398 0.23238 0.0
C70 C 0.55695 0.7349 0.26993 0.0
C71 C 0.5578 0.73482 0.34891 0.0
C72 C 0.55935 0.77546 0.38952 0.0
C73 C 0.55945 0.81513 0.34938 0.0
C74 C 0.55851 0.81367 0.27042 0.0
Zn75 Zn 0.55655 0.7734 0.11685 0.0
C76 C 0.63093 0.87367 0.05636 0.0
N77 N 0.55585 0.77292 0.87567 0.0
C78 C 0.55521 0.73377 0.83676 0.0
C79 C 0.55669 0.81249 0.83901 0.0
C80 C 0.55754 0.81401 0.76015 0.0
C81 C 0.55766 0.7745 0.71865 0.0
C82 C 0.55597 0.73374 0.7578 0.0
Zn83 Zn 0.55637 0.77304 0.9912 0.0
O84 O 0.61242 0.75141 0.11651 0.0
C85 C 0.48063 0.67308 0.05156 0.0
O86 O 0.61232 0.75067 0.99257 0.0
H87 H 0.55685 0.84306 0.871 0.0
H88 H 0.55608 0.70376 0.23858 0.0
H89 H 0.55445 0.70265 0.86703 0.0
O90 O 0.49866 0.69647 0.11424 0.0
O91 O 0.49847 0.69628 0.9903 0.0
H92 H 0.55861 0.84424 0.23947 0.0
O93 O 0.49974 0.7946 0.99171 0.0
O94 O 0.49997 0.79473 0.11561 0.0
O95 O 0.61373 0.84994 0.99378 0.0
O96 O 0.61378 0.8503 0.11766 0.0
C97 C 0.48228 0.80074 0.05341 0.0
H98 H 0.5578 0.7036 0.37796 0.0
H99 H 0.55966 0.84668 0.3787 0.0
H100 H 0.55774 0.84558 0.73191 0.0
H101 H 0.55601 0.70258 0.72768 0.0
C102 C 0.73865 0.63282 0.05748 0.0
N103 N 0.76609 0.55767 0.87977 0.0
C104 C 0.72678 0.55702 0.84059 0.0
C105 C 0.7259 0.55607 0.76157 0.0
C106 C 0.7657 0.55555 0.72264 0.0
C107 C 0.80585 0.55645 0.76446 0.0
C108 C 0.80524 0.55742 0.84336 0.0
Zn109 Zn 0.76672 0.55907 0.99533 0.0
C110 C 0.86827 0.63336 0.05961 0.0
N111 N 0.7684 0.56133 0.23654 0.0
C112 C 0.7293 0.56107 0.27387 0.0
C113 C 0.80759 0.56112 0.27478 0.0
C114 C 0.80811 0.55999 0.35369 0.0
C115 C 0.76785 0.5589 0.39356 0.0
C116 C 0.72834 0.55999 0.35278 0.0
Zn117 Zn 0.76765 0.56045 0.12101 0.0
O118 O 0.74508 0.61547 0.99545 0.0
C119 C 0.66649 0.48475 0.05657 0.0
O120 O 0.74614 0.61649 0.11945 0.0
H121 H 0.83841 0.56158 0.24403 0.0
H122 H 0.69604 0.55721 0.87066 0.0
H123 H 0.69854 0.56125 0.24236 0.0
O124 O 0.68954 0.50198 0.99505 0.0
O125 O 0.69026 0.50303 0.11899 0.0
H126 H 0.8362 0.55814 0.87559 0.0
O127 O 0.78842 0.5038 0.12102 0.0
O128 O 0.78747 0.50193 0.99715 0.0
O129 O 0.84502 0.61711 0.12125 0.0
O130 O 0.84412 0.61568 0.99732 0.0
C131 C 0.79378 0.48518 0.0596 0.0
H132 H 0.69423 0.55532 0.7312 0.0
H133 H 0.83773 0.55708 0.73647 0.0
H134 H 0.83981 0.56026 0.38321 0.0
H135 H 0.69662 0.55916 0.38159 0.0
C136 C 0.29114 0.80073 0.05536 0.0
N137 N 0.18765 0.7731 0.87726 0.0
C138 C 0.22654 0.81259 0.84184 0.0
C139 C 0.22753 0.81435 0.76305 0.0
C140 C 0.18802 0.77521 0.72022 0.0
C141 C 0.14858 0.73467 0.75808 0.0
C142 C 0.14907 0.73442 0.83712 0.0
Zn143 Zn 0.1882 0.7729 0.99279 0.0
C144 C 0.16461 0.67354 0.0544 0.0
N145 N 0.19215 0.77551 0.23402 0.0
C146 C 0.23081 0.81471 0.27325 0.0
C147 C 0.15333 0.73655 0.27038 0.0
C148 C 0.15216 0.73625 0.34927 0.0
C149 C 0.19119 0.77653 0.39111 0.0
C150 C 0.23113 0.81593 0.35225 0.0
Zn151 Zn 0.19142 0.77524 0.11846 0.0
O152 O 0.26608 0.79388 0.99398 0.0
C153 C 0.21634 0.8748 0.05647 0.0
O154 O 0.26907 0.79569 0.1179 0.0
H155 H 0.12296 0.70575 0.23813 0.0
H156 H 0.25699 0.84282 0.87478 0.0
H157 H 0.26141 0.84517 0.24322 0.0
O158 O 0.20791 0.84982 0.99492 0.0
O159 O 0.21179 0.85257 0.11878 0.0
H160 H 0.11857 0.70339 0.86643 0.0
O161 O 0.11385 0.75414 0.1174 0.0
O162 O 0.11022 0.75113 0.9935 0.0
O163 O 0.17162 0.69799 0.11622 0.0
O164 O 0.16899 0.6959 0.99223 0.0
C165 C 0.08822 0.74561 0.05625 0.0
H166 H 0.25917 0.84574 0.73591 0.0
H167 H 0.11743 0.7038 0.72689 0.0
H168 H 0.12068 0.70522 0.37725 0.0
H169 H 0.26244 0.84717 0.3826 0.0
C170 C 0.32818 0.22374 0.05338 0.0
N171 N 0.40144 0.19579 0.23385 0.0
C172 C 0.40204 0.23513 0.27212 0.0
C173 C 0.4012 0.23555 0.35106 0.0
C174 C 0.39947 0.195 0.3909 0.0
C175 C 0.39958 0.15526 0.35005 0.0
C176 C 0.4005 0.15638 0.27115 0.0
Zn177 Zn 0.40105 0.19525 0.11832 0.0
C178 C 0.32617 0.09378 0.05413 0.0
N179 N 0.39964 0.19272 0.87716 0.0
C180 C 0.4005 0.23233 0.84058 0.0
C181 C 0.39816 0.15319 0.83817 0.0
C182 C 0.39727 0.15245 0.75914 0.0
C183 C 0.39773 0.19266 0.72005 0.0
C184 C 0.39971 0.23313 0.7617 0.0
Zn185 Zn 0.40032 0.1932 0.99268 0.0
O186 O 0.34512 0.21761 0.11621 0.0
C187 C 0.47646 0.29439 0.05633 0.0
O188 O 0.34456 0.21535 0.99235 0.0
H189 H 0.39752 0.12211 0.86839 0.0
H190 H 0.40307 0.2662 0.24136 0.0
H191 H 0.40187 0.26346 0.87262 0.0
O192 O 0.45919 0.27229 0.11858 0.0
O193 O 0.45804 0.26986 0.99467 0.0
H194 H 0.40012 0.12553 0.23964 0.0
O195 O 0.45686 0.17173 0.99463 0.0
O196 O 0.45757 0.17367 0.11859 0.0
O197 O 0.34315 0.11651 0.99233 0.0
O198 O 0.34356 0.11815 0.11625 0.0
C199 C 0.47475 0.16659 0.05729 0.0
H200 H 0.40226 0.26743 0.38061 0.0
H201 H 0.39823 0.1233 0.37879 0.0
H202 H 0.39568 0.12053 0.72888 0.0
H203 H 0.40116 0.26533 0.73362 0.0
C204 C 0.28142 0.26085 0.11931 0.0
C205 C 0.29362 0.24518 0.05143 0.0
C206 C 0.25496 0.28771 0.11888 0.0
C207 C 0.2396 0.30003 0.05056 0.0
H208 H 0.29405 0.2541 0.17338 0.0
H209 H 0.24828 0.30055 0.17265 0.0
S210 S 0.25658 0.26232 0.85733 0.0
N211 N 0.28409 0.23983 0.91406 0.0
N212 N 0.2344 0.2903 0.91325 0.0
C213 C 0.24888 0.28198 0.98235 0.0
C214 C 0.27586 0.25458 0.98279 0.0
C215 C 0.00723 0.289 0.12151 0.0
C216 C 0.03314 0.2985 0.05282 0.0
C217 C 0.95407 0.26186 0.12308 0.0
C218 C 0.92466 0.24308 0.05604 0.0
H219 H 0.02796 0.30446 0.17442 0.0
H220 H 0.93602 0.25755 0.17709 0.0
S221 S 0.97407 0.25112 0.86243 0.0
N222 N 0.02542 0.28218 0.91684 0.0
N223 N 0.92555 0.2311 0.91974 0.0
C224 C 0.95012 0.2494 0.98745 0.0
C225 C 0.00431 0.27711 0.98585 0.0
C226 C 0.70314 0.00898 0.98978 0.0
C227 C 0.72071 0.03723 0.05786 0.0
C228 C 0.67655 0.95598 0.98956 0.0
C229 C 0.66639 0.92906 0.05741 0.0
H230 H 0.7079 0.0278 0.9363 0.0
H231 H 0.66189 0.93614 0.93589 0.0
S232 S 0.71103 -0.01506 0.24999 0.0
N233 N 0.73121 0.03423 0.19427 0.0
N234 N 0.68115 0.9346 0.19378 0.0
C235 C 0.68682 0.95674 0.12542 0.0
C236 C 0.71399 0.0108 0.12566 0.0
C237 C 0.69952 0.67711 0.98925 0.0
C238 C 0.71785 0.66785 0.05738 0.0
C239 C 0.67305 0.70397 0.98866 0.0
C240 C 0.66382 0.72266 0.05619 0.0
H241 H 0.70371 0.66172 0.93605 0.0
H242 H 0.65791 0.70818 0.93505 0.0
S243 S 0.71017 0.71501 0.2486 0.0
N244 N 0.72961 0.68423 0.19334 0.0
N245 N 0.67987 0.73468 0.19224 0.0
C246 C 0.68472 0.71647 0.1242 0.0
C247 C 0.71171 0.68909 0.1248 0.0
C248 C 0.00332 0.70695 0.99059 0.0
C249 C 0.03239 0.72433 0.05814 0.0
C250 C 0.95017 0.67974 0.99146 0.0
C251 C 0.92386 0.66875 0.05994 0.0
H252 H 0.02165 0.7125 0.93656 0.0
H253 H 0.92973 0.66549 0.93804 0.0
S254 S -0.01808 0.71176 0.25194 0.0
N255 N 0.03075 0.73316 0.19503 0.0
N256 N 0.93086 0.68195 0.19663 0.0
C257 C 0.95233 0.68867 0.12761 0.0
C258 C 0.00656 0.71646 0.12672 0.0
C259 C 0.25491 0.95897 0.123 0.0
C260 C 0.23647 0.93026 0.05543 0.0
C261 C 0.28148 0.01197 0.1224 0.0
C262 C 0.29073 0.03841 0.05421 0.0
H263 H 0.25088 0.94052 0.17664 0.0
H264 H 0.29685 0.03219 0.17563 0.0
S265 S 0.24353 0.98119 0.86294 0.0
N266 N 0.22414 0.9323 0.91931 0.0
N267 N 0.27415 0.03192 0.91824 0.0
C268 C 0.26943 0.01025 0.9868 0.0
C269 C 0.24229 0.9562 0.9874 0.0
C270 C 0.15925 0.59851 0.98648 0.0
C271 C 0.15613 0.62112 0.05453 0.0
C272 C 0.15862 0.55215 0.986 0.0
C273 C 0.15485 0.52646 0.05356 0.0
H274 H 0.16437 0.61769 0.93325 0.0
H275 H 0.16336 0.53755 0.93245 0.0
S276 S 0.13767 0.56552 0.24565 0.0
N277 N 0.14325 0.61139 0.19036 0.0
N278 N 0.14206 0.52427 0.18947 0.0
C279 C 0.14827 0.54694 0.12145 0.0
C280 C 0.14892 0.59423 0.12193 0.0
C281 C 0.54367 0.16025 0.99074 0.0
C282 C 0.51884 0.15794 0.05853 0.0
C283 C 0.58988 0.16029 0.99104 0.0
C284 C 0.61325 0.15803 0.05913 0.0
H285 H 0.52854 0.1643 0.93701 0.0
H286 H 0.6084 0.16435 0.93751 0.0
S287 S 0.55985 0.14322 0.25116 0.0
N288 N 0.5181 0.14724 0.19495 0.0
N289 N 0.60498 0.14733 0.1955 0.0
C290 C 0.5871 0.1521 0.1269 0.0
C291 C 0.53993 0.15206 0.1266 0.0
C292 C 0.4125 0.59874 0.11839 0.0
C293 C 0.43621 0.62104 0.05025 0.0
C294 C 0.36656 0.55279 0.11854 0.0
C295 C 0.34241 0.52719 0.05055 0.0
H296 H 0.42843 0.61778 0.17221 0.0
H297 H 0.34897 0.53834 0.17241 0.0
S298 S 0.39213 0.56597 0.85704 0.0
N299 N 0.43456 0.61139 0.91316 0.0
N300 N 0.34832 0.52506 0.9134 0.0
C301 C 0.36725 0.54745 0.98217 0.0
C302 C 0.41409 0.59433 0.98203 0.0
C303 C 0.79708 0.41408 0.99283 0.0
C304 C 0.80171 0.44081 0.06062 0.0
C305 C 0.79651 0.36775 0.99311 0.0
C306 C 0.80056 0.34622 0.06118 0.0
H307 H 0.79167 0.42786 0.93916 0.0
H308 H 0.79078 0.3478 0.93961 0.0
S309 S 0.82107 0.40459 0.25328 0.0
N310 N 0.81605 0.445 0.19705 0.0
N311 N 0.81496 0.35795 0.19757 0.0
C312 C 0.80856 0.37412 0.12897 0.0
C313 C 0.80915 0.42138 0.12868 0.0
C314 C 0.36704 0.80606 0.12176 0.0
C315 C 0.34376 0.80924 0.05419 0.0
C316 C 0.41325 0.8061 0.12126 0.0
C317 C 0.43815 0.80931 0.05316 0.0
H318 H 0.34845 0.80127 0.1754 0.0
H319 H 0.42832 0.80134 0.17457 0.0
S320 S 0.39737 0.82667 0.86192 0.0
N321 N 0.35219 0.82181 0.91816 0.0
N322 N 0.43904 0.82184 0.91723 0.0
C323 C 0.41713 0.81609 0.98572 0.0
C324 C 0.36998 0.81606 0.98623 0.0
C325 C 0.59338 0.4153 0.12368 0.0
C326 C 0.61433 0.44045 0.05584 0.0
C327 C 0.5475 0.36927 0.12365 0.0
C328 C 0.52067 0.34649 0.05577 0.0
H329 H 0.6135 0.43011 0.17719 0.0
H330 H 0.53414 0.35051 0.17711 0.0
S331 S 0.55534 0.40053 0.86379 0.0
N332 N 0.60187 0.4418 0.91969 0.0
N333 N 0.51569 0.35537 0.9196 0.0
C334 C 0.53952 0.3728 0.98799 0.0
C335 C 0.5863 0.41973 0.98803 0.0
C336 C 0.14863 0.37587 0.5893 0.0
C337 C 0.19125 0.41033 0.63301 0.0
C338 C 0.14945 0.37659 0.51005 0.0
C339 C 0.19291 0.41178 0.47166 0.0
H340 H 0.11465 0.34765 0.61657 0.0
H341 H 0.11604 0.34889 0.47858 0.0
S342 S 0.3127 0.513 0.55993 0.0
N343 N 0.27695 0.48257 0.6322 0.0
N344 N 0.27848 0.48386 0.48322 0.0
C345 C 0.23545 0.447 0.51468 0.0
C346 C 0.23462 0.44629 0.59534 0.0
C347 C 0.75796 0.1528 0.59737 0.0
C348 C 0.7649 0.19541 0.63925 0.0
C349 C 0.75882 0.15312 0.51812 0.0
C350 C 0.76664 0.19605 0.47789 0.0
H351 H 0.75263 0.11924 0.62613 0.0
H352 H 0.75406 0.11975 0.48813 0.0
S353 S 0.78194 0.3155 0.56071 0.0
N354 N 0.77669 0.28048 0.6346 0.0
N355 N 0.77825 0.28105 0.48559 0.0
C356 C 0.77268 0.23855 0.51903 0.0
C357 C 0.77182 0.23823 0.59969 0.0
C358 C 0.5243 0.73286 0.59185 0.0
C359 C 0.55921 0.77555 0.63484 0.0
C360 C 0.52474 0.73309 0.51259 0.0
C361 C 0.5601 0.776 0.47344 0.0
H362 H 0.49596 0.69926 0.6197 0.0
H363 H 0.4967 0.69966 0.48169 0.0
S364 S 0.66236 0.89576 0.55965 0.0
N365 N 0.63196 0.86075 0.63256 0.0
N366 N 0.63277 0.86117 0.48352 0.0
C367 C 0.59574 0.81862 0.51573 0.0
C368 C 0.59529 0.8184 0.59642 0.0
C369 C 0.75704 0.58994 0.59865 0.0
C370 C 0.76578 0.55511 0.63873 0.0
C371 C 0.75768 0.59084 0.51942 0.0
C372 C 0.76709 0.55695 0.47736 0.0
H373 H 0.75039 0.61722 0.62882 0.0
H374 H 0.75146 0.61875 0.49088 0.0
S375 S 0.78773 0.45543 0.555 0.0
N376 N 0.78119 0.484 0.6304 0.0
N377 N 0.78235 0.48565 0.48141 0.0
C378 C 0.77506 0.52138 0.51668 0.0
C379 C 0.77442 0.52048 0.59735 0.0
C380 C 0.18155 0.73383 0.51511 0.0
C381 C 0.19026 0.77708 0.47498 0.0
C382 C 0.18061 0.73344 0.59435 0.0
C383 C 0.18833 0.77629 0.63635 0.0
H384 H 0.1761 0.70023 0.48504 0.0
H385 H 0.17454 0.69958 0.62301 0.0
S386 S 0.20816 0.89747 0.55813 0.0
N387 N 0.20379 0.8628 0.48293 0.0
N388 N 0.20201 0.86207 0.63191 0.0
C389 C 0.19625 0.81949 0.5969 0.0
C390 C 0.19722 0.81989 0.51624 0.0
C391 C 0.43079 0.18284 0.59576 0.0
C392 C 0.39687 0.19272 0.63614 0.0
C393 C 0.43131 0.18356 0.51651 0.0
C394 C 0.39792 0.19417 0.47475 0.0
H395 H 0.45769 0.17526 0.6257 0.0
H396 H 0.45857 0.17646 0.48773 0.0
S397 S 0.29867 0.21803 0.55335 0.0
N398 N 0.32705 0.21045 0.62846 0.0
N399 N 0.32797 0.21174 0.47947 0.0
C400 C 0.36322 0.20324 0.5144 0.0
C401 C 0.36271 0.20252 0.59507 0.0
loop_
_geom_bond_atom_site_label_1
_geom_bond_atom_site_label_2
_geom_bond_distance
_geom_bond_site_symmetry_2
_ccdc_geom_bond_type
C0 O16 1.251 . S
C0 O18 1.254 1_554 S
N1 C2 1.333 . S
N1 C6 1.307 . S
N1 Zn7 2.020 . S
C2 N1 1.333 . S
C2 C3 1.379 . S
C2 H20 0.952 . S
C3 C2 1.379 . S
C3 C4 1.390 . S
C3 H30 0.949 . S
C4 C3 1.390 . S
C4 C5 1.357 . S
C5 C4 1.357 . S
C5 C6 1.370 . S
C5 H31 0.950 . S
C6 N1 1.307 . S
C6 C5 1.370 . S
C6 H24 0.948 . S
Zn7 N1 2.020 . S
Zn7 O16 2.039 . S
Zn7 O22 2.034 . S
Zn7 O26 2.025 . S
Zn7 O28 2.024 . S
C8 O27 1.246 1_554 S
C8 O28 1.249 . S
N9 C10 1.307 . S
N9 C11 1.333 . S
N9 Zn15 2.020 . S
C10 N9 1.307 . S
C10 C14 1.370 . S
C10 H21 0.948 . S
C11 N9 1.333 . S
C11 C12 1.379 . S
C11 H19 0.952 . S
C12 C11 1.379 . S
C12 C13 1.390 . S
C12 H32 0.949 . S
C13 C12 1.390 . S
C13 C14 1.357 . S
C14 C10 1.370 . S
C14 C13 1.357 . S
C14 H33 0.950 . S
Zn15 N9 2.020 . S
Zn15 O18 2.025 . S
Zn15 O23 2.024 . S
Zn15 O25 2.039 . S
Zn15 O27 2.034 . S
O16 C0 1.251 . S
O16 Zn7 2.039 . S
C17 O22 1.246 . S
C17 O23 1.249 1_554 S
O18 C0 1.254 1_556 S
O18 Zn15 2.025 . S
H19 C11 0.952 . S
H20 C2 0.952 . S
H21 C10 0.948 . S
O22 Zn7 2.034 . S
O22 C17 1.246 . S
O23 Zn15 2.024 . S
O23 C17 1.249 1_556 S
H24 C6 0.948 . S
O25 Zn15 2.039 . S
O25 C29 1.251 1_556 S
O26 Zn7 2.025 . S
O26 C29 1.254 . S
O27 C8 1.246 1_556 S
O27 Zn15 2.034 . S
O28 Zn7 2.024 . S
O28 C8 1.249 . S
C29 O25 1.251 1_554 S
C29 O26 1.254 . S
H30 C3 0.949 . S
H31 C5 0.950 . S
H32 C12 0.949 . S
H33 C14 0.950 . S
C34 O50 1.251 1_554 S
C34 O52 1.254 . S
N35 C36 1.333 . S
N35 C40 1.307 . S
N35 Zn41 2.020 . S
C36 N35 1.333 . S
C36 C37 1.379 . S
C36 H54 0.952 . S
C37 C36 1.379 . S
C37 C38 1.390 . S
C37 H64 0.949 . S
C38 C37 1.390 . S
C38 C39 1.357 . S
C39 C38 1.357 . S
C39 C40 1.370 . S
C39 H65 0.950 . S
C40 N35 1.307 . S
C40 C39 1.370 . S
C40 H58 0.948 . S
Zn41 N35 2.020 . S
Zn41 O50 2.039 . S
Zn41 O56 2.034 . S
Zn41 O60 2.025 . S
Zn41 O62 2.024 . S
C42 O61 1.246 . S
C42 O62 1.249 1_554 S
N43 C44 1.307 . S
N43 C45 1.333 . S
N43 Zn49 2.020 . S
C44 N43 1.307 . S
C44 C48 1.370 . S
C44 H55 0.948 . S
C45 N43 1.333 . S
C45 C46 1.379 . S
C45 H53 0.952 . S
C46 C45 1.379 . S
C46 C47 1.390 . S
C46 H66 0.949 . S
C47 C46 1.390 . S
C47 C48 1.357 . S
C48 C44 1.370 . S
C48 C47 1.357 . S
C48 H67 0.950 . S
Zn49 N43 2.020 . S
Zn49 O52 2.025 . S
Zn49 O57 2.024 . S
Zn49 O59 2.039 . S
Zn49 O61 2.034 . S
O50 C34 1.251 1_556 S
O50 Zn41 2.039 . S
C51 O56 1.246 1_554 S
C51 O57 1.249 . S
O52 C34 1.254 . S
O52 Zn49 2.025 . S
H53 C45 0.952 . S
H54 C36 0.952 . S
H55 C44 0.948 . S
O56 Zn41 2.034 . S
O56 C51 1.246 1_556 S
O57 Zn49 2.024 . S
O57 C51 1.249 . S
H58 C40 0.948 . S
O59 Zn49 2.039 . S
O59 C63 1.251 . S
O60 Zn41 2.025 . S
O60 C63 1.254 1_556 S
O61 C42 1.246 . S
O61 Zn49 2.034 . S
O62 Zn41 2.024 . S
O62 C42 1.249 1_556 S
C63 O59 1.251 . S
C63 O60 1.254 1_554 S
H64 C37 0.949 . S
H65 C39 0.950 . S
H66 C46 0.949 . S
H67 C48 0.950 . S
C68 O84 1.251 . S
C68 O86 1.254 1_554 S
N69 C70 1.333 . S
N69 C74 1.307 . S
N69 Zn75 2.020 . S
C70 N69 1.333 . S
C70 C71 1.379 . S
C70 H88 0.952 . S
C71 C70 1.379 . S
C71 C72 1.390 . S
C71 H98 0.949 . S
C72 C71 1.390 . S
C72 C73 1.357 . S
C73 C72 1.357 . S
C73 C74 1.370 . S
C73 H99 0.950 . S
C74 N69 1.307 . S
C74 C73 1.370 . S
C74 H92 0.948 . S
Zn75 N69 2.020 . S
Zn75 O84 2.039 . S
Zn75 O90 2.034 . S
Zn75 O94 2.025 . S
Zn75 O96 2.024 . S
C76 O95 1.246 1_554 S
C76 O96 1.249 . S
N77 C78 1.307 . S
N77 C79 1.333 . S
N77 Zn83 2.020 . S
C78 N77 1.307 . S
C78 C82 1.370 . S
C78 H89 0.948 . S
C79 N77 1.333 . S
C79 C80 1.379 . S
C79 H87 0.952 . S
C80 C79 1.379 . S
C80 C81 1.390 . S
C80 H100 0.949 . S
C81 C80 1.390 . S
C81 C82 1.357 . S
C82 C78 1.370 . S
C82 C81 1.357 . S
C82 H101 0.950 . S
Zn83 N77 2.020 . S
Zn83 O86 2.025 . S
Zn83 O91 2.024 . S
Zn83 O93 2.039 . S
Zn83 O95 2.034 . S
O84 C68 1.251 . S
O84 Zn75 2.039 . S
C85 O90 1.246 . S
C85 O91 1.249 1_554 S
O86 C68 1.254 1_556 S
O86 Zn83 2.025 . S
H87 C79 0.952 . S
H88 C70 0.952 . S
H89 C78 0.948 . S
O90 Zn75 2.034 . S
O90 C85 1.246 . S
O91 Zn83 2.024 . S
O91 C85 1.249 1_556 S
H92 C74 0.948 . S
O93 Zn83 2.039 . S
O93 C97 1.251 1_556 S
O94 Zn75 2.025 . S
O94 C97 1.254 . S
O95 C76 1.246 1_556 S
O95 Zn83 2.034 . S
O96 Zn75 2.024 . S
O96 C76 1.249 . S
C97 O93 1.251 1_554 S
C97 O94 1.254 . S
H98 C71 0.949 . S
H99 C73 0.950 . S
H100 C80 0.949 . S
H101 C82 0.950 . S
C102 O118 1.251 1_554 S
C102 O120 1.254 . S
N103 C104 1.333 . S
N103 C108 1.307 . S
N103 Zn109 2.020 . S
C104 N103 1.333 . S
C104 C105 1.379 . S
C104 H122 0.952 . S
C105 C104 1.379 . S
C105 C106 1.390 . S
C105 H132 0.949 . S
C106 C105 1.390 . S
C106 C107 1.357 . S
C107 C106 1.357 . S
C107 C108 1.370 . S
C107 H133 0.950 . S
C108 N103 1.307 . S
C108 C107 1.370 . S
C108 H126 0.948 . S
Zn109 N103 2.020 . S
Zn109 O118 2.039 . S
Zn109 O124 2.034 . S
Zn109 O128 2.025 . S
Zn109 O130 2.024 . S
C110 O129 1.246 . S
C110 O130 1.249 1_554 S
N111 C112 1.307 . S
N111 C113 1.333 . S
N111 Zn117 2.020 . S
C112 N111 1.307 . S
C112 C116 1.370 . S
C112 H123 0.948 . S
C113 N111 1.333 . S
C113 C114 1.379 . S
C113 H121 0.952 . S
C114 C113 1.379 . S
C114 C115 1.390 . S
C114 H134 0.949 . S
C115 C114 1.390 . S
C115 C116 1.357 . S
C116 C112 1.370 . S
C116 C115 1.357 . S
C116 H135 0.950 . S
Zn117 N111 2.020 . S
Zn117 O120 2.025 . S
Zn117 O125 2.024 . S
Zn117 O127 2.039 . S
Zn117 O129 2.034 . S
O118 C102 1.251 1_556 S
O118 Zn109 2.039 . S
C119 O124 1.246 1_554 S
C119 O125 1.249 . S
O120 C102 1.254 . S
O120 Zn117 2.025 . S
H121 C113 0.952 . S
H122 C104 0.952 . S
H123 C112 0.948 . S
O124 Zn109 2.034 . S
O124 C119 1.246 1_556 S
O125 Zn117 2.024 . S
O125 C119 1.249 . S
H126 C108 0.948 . S
O127 Zn117 2.039 . S
O127 C131 1.251 . S
O128 Zn109 2.025 . S
O128 C131 1.254 1_556 S
O129 C110 1.246 . S
O129 Zn117 2.034 . S
O130 Zn109 2.024 . S
O130 C110 1.249 1_556 S
C131 O127 1.251 . S
C131 O128 1.254 1_554 S
H132 C105 0.949 . S
H133 C107 0.950 . S
H134 C114 0.949 . S
H135 C116 0.950 . S
C136 O152 1.251 1_554 S
C136 O154 1.254 . S
N137 C138 1.333 . S
N137 C142 1.307 . S
N137 Zn143 2.020 . S
C138 N137 1.333 . S
C138 C139 1.379 . S
C138 H156 0.952 . S
C139 C138 1.379 . S
C139 C140 1.390 . S
C139 H166 0.949 . S
C140 C139 1.390 . S
C140 C141 1.357 . S
C141 C140 1.357 . S
C141 C142 1.370 . S
C141 H167 0.950 . S
C142 N137 1.307 . S
C142 C141 1.370 . S
C142 H160 0.948 . S
Zn143 N137 2.020 . S
Zn143 O152 2.039 . S
Zn143 O158 2.034 . S
Zn143 O162 2.025 . S
Zn143 O164 2.024 . S
C144 O163 1.246 . S
C144 O164 1.249 1_554 S
N145 C146 1.307 . S
N145 C147 1.333 . S
N145 Zn151 2.020 . S
C146 N145 1.307 . S
C146 C150 1.370 . S
C146 H157 0.948 . S
C147 N145 1.333 . S
C147 C148 1.379 . S
C147 H155 0.952 . S
C148 C147 1.379 . S
C148 C149 1.390 . S
C148 H168 0.949 . S
C149 C148 1.390 . S
C149 C150 1.357 . S
C150 C146 1.370 . S
C150 C149 1.357 . S
C150 H169 0.950 . S
Zn151 N145 2.020 . S
Zn151 O154 2.025 . S
Zn151 O159 2.024 . S
Zn151 O161 2.039 . S
Zn151 O163 2.034 . S
O152 C136 1.251 1_556 S
O152 Zn143 2.039 . S
C153 O158 1.246 1_554 S
C153 O159 1.249 . S
O154 C136 1.254 . S
O154 Zn151 2.025 . S
H155 C147 0.952 . S
H156 C138 0.952 . S
H157 C146 0.948 . S
O158 Zn143 2.034 . S
O158 C153 1.246 1_556 S
O159 Zn151 2.024 . S
O159 C153 1.249 . S
H160 C142 0.948 . S
O161 Zn151 2.039 . S
O161 C165 1.251 . S
O162 Zn143 2.025 . S
O162 C165 1.254 1_556 S
O163 C144 1.246 . S
O163 Zn151 2.034 . S
O164 Zn143 2.024 . S
O164 C144 1.249 1_556 S
C165 O161 1.251 . S
C165 O162 1.254 1_554 S
H166 C139 0.949 . S
H167 C141 0.950 . S
H168 C148 0.949 . S
H169 C150 0.950 . S
C170 O186 1.251 . S
C170 O188 1.254 1_554 S
N171 C172 1.333 . S
N171 C176 1.307 . S
N171 Zn177 2.020 . S
C172 N171 1.333 . S
C172 C173 1.379 . S
C172 H190 0.952 . S
C173 C172 1.379 . S
C173 C174 1.390 . S
C173 H200 0.949 . S
C174 C173 1.390 . S
C174 C175 1.357 . S
C175 C174 1.357 . S
C175 C176 1.370 . S
C175 H201 0.950 . S
C176 N171 1.307 . S
C176 C175 1.370 . S
C176 H194 0.948 . S
Zn177 N171 2.020 . S
Zn177 O186 2.039 . S
Zn177 O192 2.034 . S
Zn177 O196 2.025 . S
Zn177 O198 2.024 . S
C178 O197 1.246 1_554 S
C178 O198 1.249 . S
N179 C180 1.307 . S
N179 C181 1.333 . S
N179 Zn185 2.020 . S
C180 N179 1.307 . S
C180 C184 1.370 . S
C180 H191 0.948 . S
C181 N179 1.333 . S
C181 C182 1.379 . S
C181 H189 0.952 . S
C182 C181 1.379 . S
C182 C183 1.390 . S
C182 H202 0.949 . S
C183 C182 1.390 . S
C183 C184 1.357 . S
C184 C180 1.370 . S
C184 C183 1.357 . S
C184 H203 0.950 . S
Zn185 N179 2.020 . S
Zn185 O188 2.025 . S
Zn185 O193 2.024 . S
Zn185 O195 2.039 . S
Zn185 O197 2.034 . S
O186 C170 1.251 . S
O186 Zn177 2.039 . S
C187 O192 1.246 . S
C187 O193 1.249 1_554 S
O188 C170 1.254 1_556 S
O188 Zn185 2.025 . S
H189 C181 0.952 . S
H190 C172 0.952 . S
H191 C180 0.948 . S
O192 Zn177 2.034 . S
O192 C187 1.246 . S
O193 Zn185 2.024 . S
O193 C187 1.249 1_556 S
H194 C176 0.948 . S
O195 Zn185 2.039 . S
O195 C199 1.251 1_556 S
O196 Zn177 2.025 . S
O196 C199 1.254 . S
O197 C178 1.246 1_556 S
O197 Zn185 2.034 . S
O198 Zn177 2.024 . S
O198 C178 1.249 . S
C199 O195 1.251 1_554 S
C199 O196 1.254 . S
H200 C173 0.949 . S
H201 C175 0.950 . S
H202 C182 0.949 . S
H203 C184 0.950 . S
C204 C205 1.369 . S
C204 C206 1.419 . S
C204 H208 0.930 . S
C205 C204 1.369 . S
C205 C214 1.429 . S
C206 C204 1.419 . S
C206 C207 1.363 . S
C206 H209 0.929 . S
C207 C206 1.363 . S
C207 C213 1.428 . S
H208 C204 0.930 . S
H209 C206 0.929 . S
S210 N211 1.613 . S
S210 N212 1.610 . S
N211 S210 1.613 . S
N211 C214 1.350 1_556 S
N212 S210 1.610 . S
N212 C213 1.351 1_556 S
C213 C207 1.428 . S
C213 N212 1.351 1_554 S
C213 C214 1.434 . S
C214 C205 1.429 . S
C214 N211 1.350 1_554 S
C214 C213 1.434 . S
C215 C216 1.369 . S
C215 C217 1.419 1_455 S
C215 H219 0.930 . S
C216 C215 1.369 . S
C216 C225 1.429 1_554 S
C217 C215 1.419 1_655 S
C217 C218 1.363 . S
C217 H220 0.929 . S
C218 C217 1.363 . S
C218 C224 1.428 1_554 S
H219 C215 0.930 . S
H220 C217 0.929 . S
S221 N222 1.613 1_655 S
S221 N223 1.610 . S
N222 S221 1.613 1_455 S
N222 C225 1.350 . S
N223 S221 1.610 . S
N223 C224 1.351 . S
C224 C218 1.428 1_556 S
C224 N223 1.351 . S
C224 C225 1.434 1_655 S
C225 C216 1.429 1_556 S
C225 N222 1.350 . S
C225 C224 1.434 1_455 S
C226 C227 1.369 1_556 S
C226 C228 1.419 1_545 S
C226 H230 0.930 . S
C227 C226 1.369 1_554 S
C227 C236 1.429 . S
C228 C226 1.419 1_565 S
C228 C229 1.363 1_556 S
C228 H231 0.929 . S
C229 C228 1.363 1_554 S
C229 C235 1.428 . S
H230 C226 0.930 . S
H231 C228 0.929 . S
S232 N233 1.613 1_565 S
S232 N234 1.610 . S
N233 S232 1.613 1_545 S
N233 C236 1.350 . S
N234 S232 1.610 . S
N234 C235 1.351 . S
C235 C229 1.428 . S
C235 N234 1.351 . S
C235 C236 1.434 1_565 S
C236 C227 1.429 . S
C236 N233 1.350 . S
C236 C235 1.434 1_545 S
C237 C238 1.369 1_556 S
C237 C239 1.419 . S
C237 H241 0.930 . S
C238 C237 1.369 1_554 S
C238 C247 1.429 . S
C239 C237 1.419 . S
C239 C240 1.363 1_556 S
C239 H242 0.929 . S
C240 C239 1.363 1_554 S
C240 C246 1.428 . S
H241 C237 0.930 . S
H242 C239 0.929 . S
S243 N244 1.613 . S
S243 N245 1.610 . S
N244 S243 1.613 . S
N244 C247 1.350 . S
N245 S243 1.610 . S
N245 C246 1.351 . S
C246 C240 1.428 . S
C246 N245 1.351 . S
C246 C247 1.434 . S
C247 C238 1.429 . S
C247 N244 1.350 . S
C247 C246 1.434 . S
C248 C249 1.369 1_556 S
C248 C250 1.419 1_455 S
C248 H252 0.930 . S
C249 C248 1.369 1_554 S
C249 C258 1.429 . S
C250 C248 1.419 1_655 S
C250 C251 1.363 1_556 S
C250 H253 0.929 . S
C251 C250 1.363 1_554 S
C251 C257 1.428 . S
H252 C248 0.930 . S
H253 C250 0.929 . S
S254 N255 1.613 . S
S254 N256 1.610 1_455 S
N255 S254 1.613 . S
N255 C258 1.350 . S
N256 S254 1.610 1_655 S
N256 C257 1.351 . S
C257 C251 1.428 . S
C257 N256 1.351 . S
C257 C258 1.434 1_655 S
C258 C249 1.429 . S
C258 N255 1.350 . S
C258 C257 1.434 1_455 S
C259 C260 1.369 . S
C259 C261 1.419 1_565 S
C259 H263 0.930 . S
C260 C259 1.369 . S
C260 C269 1.429 1_554 S
C261 C259 1.419 1_545 S
C261 C262 1.363 . S
C261 H264 0.929 . S
C262 C261 1.363 . S
C262 C268 1.428 1_554 S
H263 C259 0.930 . S
H264 C261 0.929 . S
S265 N266 1.613 . S
S265 N267 1.610 1_565 S
N266 S265 1.613 . S
N266 C269 1.350 . S
N267 S265 1.610 1_545 S
N267 C268 1.351 . S
C268 C262 1.428 1_556 S
C268 N267 1.351 . S
C268 C269 1.434 1_545 S
C269 C260 1.429 1_556 S
C269 N266 1.350 . S
C269 C268 1.434 1_565 S
C270 C271 1.369 1_556 S
C270 C272 1.419 . S
C270 H274 0.930 . S
C271 C270 1.369 1_554 S
C271 C280 1.429 . S
C272 C270 1.419 . S
C272 C273 1.363 1_556 S
C272 H275 0.929 . S
C273 C272 1.363 1_554 S
C273 C279 1.428 . S
H274 C270 0.930 . S
H275 C272 0.929 . S
S276 N277 1.613 . S
S276 N278 1.610 . S
N277 S276 1.613 . S
N277 C280 1.350 . S
N278 S276 1.610 . S
N278 C279 1.351 . S
C279 C273 1.428 . S
C279 N278 1.351 . S
C279 C280 1.434 . S
C280 C271 1.429 . S
C280 N277 1.350 . S
C280 C279 1.434 . S
C281 C282 1.369 1_556 S
C281 C283 1.419 . S
C281 H285 0.930 . S
C282 C281 1.369 1_554 S
C282 C291 1.429 . S
C283 C281 1.419 . S
C283 C284 1.363 1_556 S
C283 H286 0.929 . S
C284 C283 1.363 1_554 S
C284 C290 1.428 . S
H285 C281 0.930 . S
H286 C283 0.929 . S
S287 N288 1.613 . S
S287 N289 1.610 . S
N288 S287 1.613 . S
N288 C291 1.350 . S
N289 S287 1.610 . S
N289 C290 1.351 . S
C290 C284 1.428 . S
C290 N289 1.351 . S
C290 C291 1.434 . S
C291 C282 1.429 . S
C291 N288 1.350 . S
C291 C290 1.434 . S
C292 C293 1.369 . S
C292 C294 1.419 . S
C292 H296 0.930 . S
C293 C292 1.369 . S
C293 C302 1.429 . S
C294 C292 1.419 . S
C294 C295 1.363 . S
C294 H297 0.929 . S
C295 C294 1.363 . S
C295 C301 1.428 . S
H296 C292 0.930 . S
H297 C294 0.929 . S
S298 N299 1.613 . S
S298 N300 1.610 . S
N299 S298 1.613 . S
N299 C302 1.350 . S
N300 S298 1.610 . S
N300 C301 1.351 . S
C301 C295 1.428 . S
C301 N300 1.351 . S
C301 C302 1.434 . S
C302 C293 1.429 . S
C302 N299 1.350 . S
C302 C301 1.434 . S
C303 C304 1.369 . S
C303 C305 1.419 . S
C303 H307 0.930 . S
C304 C303 1.369 . S
C304 C313 1.429 . S
C305 C303 1.419 . S
C305 C306 1.363 . S
C305 H308 0.929 . S
C306 C305 1.363 . S
C306 C312 1.428 . S
H307 C303 0.930 . S
H308 C305 0.929 . S
S309 N310 1.613 . S
S309 N311 1.610 . S
N310 S309 1.613 . S
N310 C313 1.350 . S
N311 S309 1.610 . S
N311 C312 1.351 . S
C312 C306 1.428 . S
C312 N311 1.351 . S
C312 C313 1.434 . S
C313 C304 1.429 . S
C313 N310 1.350 . S
C313 C312 1.434 . S
C314 C315 1.369 . S
C314 C316 1.419 . S
C314 H318 0.930 . S
C315 C314 1.369 . S
C315 C324 1.429 1_554 S
C316 C314 1.419 . S
C316 C317 1.363 . S
C316 H319 0.929 . S
C317 C316 1.363 . S
C317 C323 1.428 1_554 S
H318 C314 0.930 . S
H319 C316 0.929 . S
S320 N321 1.613 . S
S320 N322 1.610 . S
N321 S320 1.613 . S
N321 C324 1.350 . S
N322 S320 1.610 . S
N322 C323 1.351 . S
C323 C317 1.428 1_556 S
C323 N322 1.351 . S
C323 C324 1.434 . S
C324 C315 1.429 1_556 S
C324 N321 1.350 . S
C324 C323 1.434 . S
C325 C326 1.369 . S
C325 C327 1.419 . S
C325 H329 0.930 . S
C326 C325 1.369 . S
C326 C335 1.429 1_554 S
C327 C325 1.419 . S
C327 C328 1.363 . S
C327 H330 0.929 . S
C328 C327 1.363 . S
C328 C334 1.428 1_554 S
H329 C325 0.930 . S
H330 C327 0.929 . S
S331 N332 1.613 . S
S331 N333 1.610 . S
N332 S331 1.613 . S
N332 C335 1.350 . S
N333 S331 1.610 . S
N333 C334 1.351 . S
C334 C328 1.428 1_556 S
C334 N333 1.351 . S
C334 C335 1.434 . S
C335 C326 1.429 1_556 S
C335 N332 1.350 . S
C335 C334 1.434 . S
C336 C337 1.369 . S
C336 C338 1.419 . S
C336 H340 0.930 . S
C337 C336 1.369 . S
C337 C346 1.429 . S
C338 C336 1.419 . S
C338 C339 1.363 . S
C338 H341 0.929 . S
C339 C338 1.363 . S
C339 C345 1.428 . S
H340 C336 0.930 . S
H341 C338 0.929 . S
S342 N343 1.613 . S
S342 N344 1.610 . S
N343 S342 1.613 . S
N343 C346 1.350 . S
N344 S342 1.610 . S
N344 C345 1.351 . S
C345 C339 1.428 . S
C345 N344 1.351 . S
C345 C346 1.434 . S
C346 C337 1.429 . S
C346 N343 1.350 . S
C346 C345 1.434 . S
C347 C348 1.369 . S
C347 C349 1.419 . S
C347 H351 0.930 . S
C348 C347 1.369 . S
C348 C357 1.429 . S
C349 C347 1.419 . S
C349 C350 1.363 . S
C349 H352 0.929 . S
C350 C349 1.363 . S
C350 C356 1.428 . S
H351 C347 0.930 . S
H352 C349 0.929 . S
S353 N354 1.613 . S
S353 N355 1.610 . S
N354 S353 1.613 . S
N354 C357 1.350 . S
N355 S353 1.610 . S
N355 C356 1.351 . S
C356 C350 1.428 . S
C356 N355 1.351 . S
C356 C357 1.434 . S
C357 C348 1.429 . S
C357 N354 1.350 . S
C357 C356 1.434 . S
C358 C359 1.369 . S
C358 C360 1.419 . S
C358 H362 0.930 . S
C359 C358 1.369 . S
C359 C368 1.429 . S
C360 C358 1.419 . S
C360 C361 1.363 . S
C360 H363 0.929 . S
C361 C360 1.363 . S
C361 C367 1.428 . S
H362 C358 0.930 . S
H363 C360 0.929 . S
S364 N365 1.613 . S
S364 N366 1.610 . S
N365 S364 1.613 . S
N365 C368 1.350 . S
N366 S364 1.610 . S
N366 C367 1.351 . S
C367 C361 1.428 . S
C367 N366 1.351 . S
C367 C368 1.434 . S
C368 C359 1.429 . S
C368 N365 1.350 . S
C368 C367 1.434 . S
C369 C370 1.369 . S
C369 C371 1.419 . S
C369 H373 0.930 . S
C370 C369 1.369 . S
C370 C379 1.429 . S
C371 C369 1.419 . S
C371 C372 1.363 . S
C371 H374 0.929 . S
C372 C371 1.363 . S
C372 C378 1.428 . S
H373 C369 0.930 . S
H374 C371 0.929 . S
S375 N376 1.613 . S
S375 N377 1.610 . S
N376 S375 1.613 . S
N376 C379 1.350 . S
N377 S375 1.610 . S
N377 C378 1.351 . S
C378 C372 1.428 . S
C378 N377 1.351 . S
C378 C379 1.434 . S
C379 C370 1.429 . S
C379 N376 1.350 . S
C379 C378 1.434 . S
C380 C381 1.369 . S
C380 C382 1.419 . S
C380 H384 0.930 . S
C381 C380 1.369 . S
C381 C390 1.429 . S
C382 C380 1.419 . S
C382 C383 1.363 . S
C382 H385 0.929 . S
C383 C382 1.363 . S
C383 C389 1.428 . S
H384 C380 0.930 . S
H385 C382 0.929 . S
S386 N387 1.613 . S
S386 N388 1.610 . S
N387 S386 1.613 . S
N387 C390 1.350 . S
N388 S386 1.610 . S
N388 C389 1.351 . S
C389 C383 1.428 . S
C389 N388 1.351 . S
C389 C390 1.434 . S
C390 C381 1.429 . S
C390 N387 1.350 . S
C390 C389 1.434 . S
C391 C392 1.369 . S
C391 C393 1.419 . S
C391 H395 0.930 . S
C392 C391 1.369 . S
C392 C401 1.429 . S
C393 C391 1.419 . S
C393 C394 1.363 . S
C393 H396 0.929 . S
C394 C393 1.363 . S
C394 C400 1.428 . S
H395 C391 0.930 . S
H396 C393 0.929 . S
S397 N398 1.613 . S
S397 N399 1.610 . S
N398 S397 1.613 . S
N398 C401 1.350 . S
N399 S397 1.610 . S
N399 C400 1.351 . S
C400 C394 1.428 . S
C400 N399 1.351 . S
C400 C401 1.434 . S
C401 C392 1.429 . S
C401 N398 1.350 . S
C401 C400 1.434 . S
C205 C170 1.457 . S
C207 C8 1.446 . S
C216 C0 1.452 . S
C218 C34 1.453 . S
C227 C42 1.443 . S
C229 C76 1.441 . S
C238 C102 1.455 . S
C240 C68 1.456 . S
C249 C165 1.462 . S
C251 C110 1.448 . S
C260 C153 1.444 . S
C262 C178 1.445 . S
C271 C144 1.508 . S
C273 C17 1.508 . S
C282 C199 1.497 . S
C284 C63 1.498 . S
C293 C85 1.500 . S
C295 C29 1.495 . S
C304 C131 1.498 . S
C306 C51 1.503 . S
C315 C136 1.501 . S
C317 C97 1.500 . S
C326 C119 1.510 . S
C328 C187 1.508 . S
C337 C13 1.501 . S
C339 C4 1.500 . S
C348 C38 1.502 . S
C350 C47 1.500 . S
C359 C81 1.505 . S
C361 C72 1.505 . S
C370 C106 1.508 . S
C372 C115 1.512 . S
C381 C149 1.497 . S
C383 C140 1.498 . S
C392 C183 1.505 . S
C394 C174 1.508 . S
