# Generated by pormake.
# Topology uni, (4)-cn, num edge types: 1
# Building blocks:
#     Node 0, Type 0, BuildingBlock: KUFVIS_clean_sbu_0, # of connection points: 4
#     Node 1, Type 0, BuildingBlock: KUFVIS_clean_sbu_0, # of connection points: 4
#     Node 2, Type 0, BuildingBlock: KUFVIS_clean_sbu_0, # of connection points: 4
#     Node 3, Type 0, BuildingBlock: KUFVIS_clean_sbu_0, # of connection points: 4
#     Node 4, Type 0, BuildingBlock: KUFVIS_clean_sbu_0, # of connection points: 4
#     Node 5, Type 0, BuildingBlock: KUFVIS_clean_sbu_0, # of connection points: 4
#     Edge 6, Type (0, 0), BuildingBlock: EZIPEK_clean_linker_0, # of connection points: 2
#     Edge 7, Type (0, 0), BuildingBlock: EZIPEK_clean_linker_0, # of connection points: 2
#     Edge 8, Type (0, 0), BuildingBlock: EZIPEK_clean_linker_0, # of connection points: 2
#     Edge 9, Type (0, 0), BuildingBlock: EZIPEK_clean_linker_0, # of connection points: 2
#     Edge 10, Type (0, 0), BuildingBlock: EZIPEK_clean_linker_0, # of connection points: 2
#     Edge 11, Type (0, 0), BuildingBlock: EZIPEK_clean_linker_0, # of connection points: 2
#     Edge 12, Type (0, 0), BuildingBlock: EZIPEK_clean_linker_0, # of connection points: 2
#     Edge 13, Type (0, 0), BuildingBlock: EZIPEK_clean_linker_0, # of connection points: 2
#     Edge 14, Type (0, 0), BuildingBlock: EZIPEK_clean_linker_0, # of connection points: 2
#     Edge 15, Type (0, 0), BuildingBlock: EZIPEK_clean_linker_0, # of connection points: 2
#     Edge 16, Type (0, 0), BuildingBlock: EZIPEK_clean_linker_0, # of connection points: 2
#     Edge 17, Type (0, 0), BuildingBlock: EZIPEK_clean_linker_0, # of connection points: 2
# Relax obj value: 0.055
# Max RMSD: 0.074
# Mean RMSD: 0.074
data_MOF--net-uni--node1-KUFVIS_clean_sbu_0--edge1-EZIPEK_clean_linker_0
_symmetry_space_group_name_H-M    P1
_symmetry_Int_Tables_number       1
_symmetry_cell_setting            triclinic
loop_
_symmetry_equiv_pos_as_xyz
'x, y, z'
_cell_length_a     27.946008
_cell_length_b     27.965339
_cell_length_c     16.765037
_cell_angle_alpha  89.97702
_cell_angle_beta   89.818784
_cell_angle_gamma 120.0974
loop_
_atom_site_label
_atom_site_type_symbol
_atom_site_fract_x
_atom_site_fract_y
_atom_site_fract_z
_atom_type_partial_charge
Mn0 Mn 0.64489 0.01982 0.05682 0.0
Mn1 Mn 0.6561 0.14304 0.10238 0.0
C2 C 0.58892 0.02526 0.15609 0.0
C3 C 0.66624 0.9496 0.07496 0.0
C4 C 0.59872 0.07852 0.95361 0.0
O5 O 0.72028 0.07507 1.00898 0.0
O6 O 0.72458 0.15475 0.04687 0.0
C7 C 0.74588 0.18144 0.22155 0.0
N8 N 0.69338 0.16821 0.20217 0.0
C9 C 0.6779 0.19334 0.33305 0.0
C10 C 0.7318 0.20716 0.35439 0.0
C11 C 0.76586 0.20103 0.29844 0.0
C12 C 0.66012 0.17359 0.25575 0.0
H13 H 0.77229 0.17723 0.17857 0.0
C14 C 0.74508 0.1278 0.01308 0.0
O15 O 0.64689 0.95592 1.00802 0.0
O16 O 0.67791 0.98704 0.12906 0.0
N17 N 0.59319 0.13781 0.15654 0.0
C18 C 0.54211 0.12222 0.1268 0.0
C19 C 0.5027 0.12507 0.17562 0.0
C20 C 0.51647 0.14477 0.25406 0.0
C21 C 0.56966 0.16166 0.28285 0.0
C22 C 0.60718 0.15779 0.23145 0.0
H23 H 0.53154 0.10792 0.06621 0.0
O24 O 0.57464 0.97892 0.1203 0.0
O25 O 0.6354 0.06716 0.13196 0.0
O26 O 0.60564 0.03751 0.96744 0.0
O27 O 0.61585 0.12019 0.99979 0.0
C28 C 0.58684 0.18199 0.36063 0.0
C29 C 0.64094 0.19788 0.38569 0.0
H30 H 0.74738 0.22236 0.41361 0.0
H31 H 0.80751 0.21159 0.31446 0.0
H32 H 0.46183 0.11219 0.15279 0.0
H33 H 0.48589 0.14671 0.29166 0.0
H34 H 0.55864 0.18518 0.40185 0.0
H35 H 0.65351 0.21294 0.44589 0.0
Mn36 Mn 0.66717 0.65042 0.21895 0.0
Mn37 Mn 0.54544 0.64333 0.26401 0.0
C38 C 0.60697 0.58693 0.31345 0.0
C39 C 0.76039 0.67839 0.23951 0.0
C40 C 0.56487 0.59736 0.11104 0.0
O41 O 0.6796 0.72494 0.17662 0.0
O42 O 0.59687 0.71479 0.21176 0.0
C43 C 0.58742 0.73176 0.38582 0.0
N44 N 0.55247 0.67821 0.36486 0.0
C45 C 0.50951 0.65733 0.4946 0.0
C46 C 0.54486 0.71231 0.51741 0.0
C47 C 0.58418 0.74959 0.46291 0.0
C48 C 0.51515 0.64178 0.41731 0.0
H49 H 0.61751 0.76067 0.34402 0.0
C50 C 0.64509 0.74243 0.18023 0.0
O51 O 0.73716 0.66144 0.17053 0.0
O52 O 0.73143 0.6854 0.29416 0.0
N53 N 0.49167 0.57679 0.31633 0.0
C54 C 0.45944 0.52563 0.28454 0.0
C55 C 0.41932 0.48296 0.33223 0.0
C56 C 0.41124 0.49383 0.41137 0.0
C57 C 0.44292 0.54747 0.44168 0.0
C58 C 0.48292 0.5881 0.39163 0.0
H59 H 0.46371 0.51769 0.22301 0.0
O60 O 0.64278 0.57852 0.27613 0.0
O61 O 0.6066 0.63156 0.29311 0.0
O62 O 0.61475 0.61103 0.12597 0.0
O63 O 0.53411 0.60561 0.15924 0.0
C64 C 0.43606 0.56232 0.5194 0.0
C65 C 0.46926 0.61724 0.5458 0.0
H66 H 0.54236 0.72627 0.57673 0.0
H67 H 0.61175 0.79205 0.48016 0.0
H68 H 0.39419 0.44197 0.30769 0.0
H69 H 0.38007 0.4609 0.4479 0.0
H70 H 0.40548 0.53179 0.55944 0.0
H71 H 0.46394 0.62805 0.60591 0.0
Mn72 Mn 0.0579 0.67583 0.38824 0.0
Mn73 Mn 0.9423 0.55501 0.43407 0.0
C74 C 0.06003 0.61688 0.4853 0.0
C75 C 0.12422 0.76876 0.40709 0.0
C76 C 1.00868 0.57257 0.28208 0.0
O77 O 0.99635 0.68853 0.34474 0.0
O78 O 0.92288 0.60625 0.38003 0.0
C79 C 0.89464 0.59759 0.55344 0.0
N80 N 0.91367 0.56278 0.53402 0.0
C81 C 0.89112 0.52126 0.66461 0.0
C82 C 0.87107 0.55651 0.68586 0.0
C83 C 0.87309 0.59501 0.63013 0.0
C84 C 0.91259 0.52609 0.58755 0.0
H85 H 0.89583 0.6271 0.51076 0.0
C86 C 0.94412 0.65442 0.3483 0.0
O87 O 0.11766 0.74476 0.33865 0.0
O88 O 0.08777 0.74088 0.46197 0.0
N89 N 0.95489 0.50194 0.48828 0.0
C90 C 0.97502 0.47024 0.45832 0.0
C91 C 0.97805 0.43123 0.50758 0.0
C92 C 0.95853 0.42379 0.58645 0.0
C93 C 0.93557 0.45504 0.61498 0.0
C94 C 0.93446 0.49391 0.56339 0.0
H95 H 0.98789 0.47414 0.39709 0.0
O96 O 0.10458 0.65161 0.44727 0.0
O97 O 1.01521 0.61637 0.46352 0.0
O98 O 0.04501 0.6225 0.29649 0.0
O99 O 0.96917 0.54252 0.33015 0.0
C100 C 0.91359 0.44899 0.69248 0.0
C101 C 0.89122 0.48196 0.7172 0.0
H102 H 0.85433 0.55458 0.7449 0.0
H103 H 0.85786 0.62249 0.64617 0.0
H104 H 0.9948 0.40649 0.48449 0.0
H105 H 0.96071 0.39351 0.62423 0.0
H106 H 0.91388 0.41927 0.73367 0.0
H107 H 0.87489 0.4773 0.77718 0.0
Mn108 Mn 0.42172 0.06459 0.56375 0.0
Mn109 Mn 0.43088 0.95058 0.60113 0.0
C110 C 0.48139 0.06645 0.66186 0.0
C111 C 0.38626 0.12285 0.59215 0.0
C112 C 0.48225 0.02407 0.45514 0.0
O113 O 0.35134 1.00318 0.51137 0.0
O114 O 0.35952 0.92977 0.54785 0.0
C115 C 0.34028 0.89659 0.71965 0.0
N116 N 0.39463 0.91829 0.70001 0.0
C117 C 0.41515 0.89603 0.82952 0.0
C118 C 0.35937 0.87325 0.85097 0.0
C119 C 0.32182 0.87368 0.79585 0.0
C120 C 0.43116 0.91837 0.75276 0.0
H121 H 0.31125 0.89688 0.67757 0.0
C122 C 0.33311 0.95107 0.51497 0.0
O123 O 0.41037 0.12552 0.52457 0.0
O124 O 0.37732 0.08218 0.6387 0.0
N125 N 0.4974 0.96476 0.65417 0.0
C126 C 0.54968 0.98789 0.62417 0.0
C127 C 0.59261 0.99238 0.67268 0.0
C128 C 0.58108 0.97156 0.75091 0.0
C129 C 0.52655 0.94579 0.77949 0.0
C130 C 0.48557 0.94294 0.7285 0.0
H131 H 0.55839 1.00226 0.56352 0.0
O132 O 0.48892 0.11171 0.62931 0.0
O133 O 0.43934 0.02121 0.63533 0.0
O134 O 0.46886 0.06019 0.47296 0.0
O135 O 0.47023 0.98173 0.49838 0.0
C136 C 0.51129 0.92296 0.85666 0.0
C137 C 0.45562 0.8981 0.88165 0.0
H138 H 0.34498 0.85565 0.90974 0.0
H139 H 0.27874 0.85638 0.81208 0.0
H140 H 0.63442 1.01149 0.64962 0.0
H141 H 0.61428 0.97513 0.78824 0.0
H142 H 0.54207 0.92463 0.89745 0.0
H143 H 0.44449 0.88122 0.9414 0.0
Mn144 Mn 0.40035 0.43013 0.71791 0.0
Mn145 Mn 0.51525 0.42386 0.76263 0.0
C146 C 0.46356 0.49095 0.81097 0.0
C147 C 0.30739 0.40525 0.73946 0.0
C148 C 0.50053 0.47052 0.60681 0.0
O149 O 0.38086 0.35321 0.6789 0.0
O150 O 0.45616 0.35041 0.72183 0.0
C151 C 0.47532 0.34495 0.89808 0.0
N152 N 0.51027 0.39634 0.86886 0.0
C153 C 0.55728 0.42532 0.99501 0.0
C154 C 0.52101 0.37289 0.02662 0.0
C155 C 0.47985 0.3325 0.97786 0.0
C156 C 0.55033 0.4354 0.9152 0.0
H157 H 0.44479 0.31365 0.86045 0.0
C158 C 0.40826 0.3283 0.6887 0.0
O159 O 0.3313 0.42194 0.67065 0.0
O160 O 0.33678 0.39957 0.7944 0.0
N161 N 0.57442 0.4921 0.80332 0.0
C162 C 0.60755 0.54003 0.76322 0.0
C163 C 0.6509 0.58469 0.80347 0.0
C164 C 0.66069 0.57925 0.88412 0.0
C165 C 0.62724 0.529 0.9236 0.0
C166 C 0.58437 0.48604 0.88046 0.0
H167 H 0.60149 0.54399 0.70074 0.0
O168 O 0.43017 0.5031 0.7742 0.0
O169 O 0.45973 0.44443 0.79033 0.0
O170 O 0.45391 0.46586 0.62383 0.0
O171 O 0.52617 0.45468 0.65301 0.0
C172 C 0.63486 0.51986 1.00402 0.0
C173 C 0.59992 0.46803 0.0397 0.0
H174 H 0.52452 0.36314 0.0881 0.0
H175 H 0.45198 0.29172 1.00151 0.0
H176 H 0.67697 0.62309 0.7722 0.0
H177 H 0.69419 0.61377 0.91499 0.0
H178 H 0.66745 0.55241 0.03898 0.0
H179 H 0.60606 0.46153 0.10165 0.0
Mn180 Mn 1.01123 0.40923 0.88488 0.0
Mn181 Mn 0.13285 0.52225 0.93406 0.0
C182 C 1.01364 0.47009 0.98215 0.0
C183 C 0.94285 0.31557 0.90231 0.0
C184 C 0.07172 0.51425 0.78101 0.0
O185 O 0.0681 0.39017 0.8419 0.0
O186 O 0.1467 0.46602 0.88179 0.0
C187 C 0.16893 0.47173 0.05802 0.0
N188 N 0.15557 0.51046 0.03618 0.0
C189 C 0.17646 0.55072 0.16737 0.0
C190 C 0.19031 0.51114 0.19126 0.0
C191 C 0.18638 0.47138 0.13638 0.0
C192 C 0.15885 0.54867 0.0887 0.0
H193 H 0.16648 0.44149 0.01589 0.0
C194 C 0.12065 0.4184 0.84834 0.0
O195 O 0.94987 0.34127 0.83518 0.0
O196 O 0.97791 0.34385 0.9579 0.0
N197 N 0.12557 0.57946 0.98553 0.0
C198 C 0.11075 0.61483 0.95312 0.0
C199 C 0.11186 0.65679 1.00045 0.0
C200 C 0.12912 0.66261 0.0802 0.0
C201 C 0.14533 0.62651 0.11179 0.0
C202 C 0.14327 0.5854 0.06176 0.0
H203 H 0.09843 0.61126 0.89154 0.0
O204 O 0.96811 0.43767 0.94457 0.0
O205 O 0.05636 0.46641 0.96038 0.0
O206 O 0.03052 0.46601 0.79408 0.0
O207 O 0.11226 0.5392 0.82904 0.0
C208 C 0.16339 0.62966 0.191 0.0
C209 C 0.17898 0.5918 0.21876 0.0
H210 H 0.20388 0.51081 0.25161 0.0
H211 H 0.19701 0.4407 0.15433 0.0
H212 H 0.09957 0.68468 0.97545 0.0
H213 H 0.12976 0.69491 0.11661 0.0
H214 H 0.16515 0.66083 0.23119 0.0
H215 H 0.19232 0.59432 0.27998 0.0
C216 C 0.50367 1.00701 0.23483 0.0
C217 C 0.56133 0.0257 0.23249 0.0
C218 C 0.56784 0.04746 0.37577 0.0
C219 C 0.51059 0.02934 0.37756 0.0
N220 N 0.42692 1.00497 0.30588 0.0
N221 N 0.6447 0.04939 0.30572 0.0
C222 C 0.47929 1.01276 0.30625 0.0
C223 C 0.59252 0.04216 0.30438 0.0
N224 N 0.47145 0.98127 0.17006 0.0
N225 N 0.59931 0.07314 0.44115 0.0
H226 H 0.66375 0.04373 0.25602 0.0
H227 H 0.66738 0.05572 0.35767 0.0
H228 H 0.58278 0.08118 0.49171 0.0
H229 H 0.64223 0.0921 0.44238 0.0
H230 H 0.42845 0.96136 0.17071 0.0
H231 H 0.48704 0.97458 0.11763 0.0
H232 H 0.40428 0.99955 0.25413 0.0
H233 H 0.4078 1.00924 0.35667 0.0
C234 C 0.54786 0.4975 0.389 0.0
C235 C 0.58073 0.55616 0.38868 0.0
C236 C 0.56029 0.55811 0.53077 0.0
C237 C 0.52856 0.49958 0.53173 0.0
N238 N 0.50164 0.4129 0.46726 0.0
N239 N 0.63233 0.63989 0.46549 0.0
C240 C 0.5252 0.46903 0.46238 0.0
C241 C 0.59115 0.58581 0.46145 0.0
N242 N 0.53707 0.46906 0.31895 0.0
N243 N 0.56027 0.58742 0.59589 0.0
H244 H 0.65774 0.66132 0.41733 0.0
H245 H 0.6454 0.66198 0.51859 0.0
H246 H 0.53749 0.56844 0.6471 0.0
H247 H 0.57873 0.6303 0.59686 0.0
H248 H 0.50794 0.42728 0.31336 0.0
H249 H 0.55467 0.48812 0.26484 0.0
H250 H 0.50249 0.38844 0.42113 0.0
H251 H 0.48527 0.39113 0.52025 0.0
C252 C 0.04219 0.57277 0.70453 0.0
C253 C 0.07182 0.54392 0.70703 0.0
C254 C 0.09338 0.56233 0.56451 0.0
C255 C 0.06426 0.59181 0.56176 0.0
N256 N 0.02823 0.64111 0.63622 0.0
N257 N 0.14236 0.53021 0.64733 0.0
C258 C 0.04367 0.60183 0.63391 0.0
C259 C 0.10243 0.54427 0.63934 0.0
N260 N 1.01293 0.57275 0.76986 0.0
N261 N 0.11135 0.55028 0.49566 0.0
H262 H 0.15239 0.52042 0.70247 0.0
H263 H 0.16969 0.53472 0.60164 0.0
H264 H 0.1061 0.56313 0.43971 0.0
H265 H 0.12716 0.52356 0.49364 0.0
H266 H 0.98656 0.58896 0.77008 0.0
H267 H 1.01221 0.55293 0.82272 0.0
H268 H 1.0177 0.6537 0.68858 0.0
H269 H 0.03141 0.66556 0.58736 0.0
C270 C 0.50975 0.04657 0.87806 0.0
C271 C 0.56838 0.07753 0.88023 0.0
C272 C 0.57005 0.10072 0.73863 0.0
C273 C 0.51134 0.06951 0.73666 0.0
N274 N 0.42524 0.02427 0.81121 0.0
N275 N 0.65196 0.14956 0.82013 0.0
C276 C 0.48129 0.04619 0.8083 0.0
C277 C 0.59794 0.10918 0.81266 0.0
N278 N 0.47938 0.01824 0.94283 0.0
N279 N 0.59944 0.12106 0.66952 0.0
H280 H 0.67273 0.15879 0.87444 0.0
H281 H 0.67415 0.17783 0.77506 0.0
H282 H 0.58068 0.11648 0.61432 0.0
H283 H 0.64219 0.13824 0.66605 0.0
H284 H 0.49664 0.01648 0.99695 0.0
H285 H 0.49664 0.01648 0.99695 0.0
H286 H 0.4021 1.00647 0.8629 0.0
H287 H 0.40223 0.02609 0.76376 0.0
C288 C 0.50182 0.51293 0.03164 0.0
C289 C 0.54117 0.57009 0.03333 0.0
C290 C 0.52989 0.57632 0.88881 0.0
C291 C 0.48999 0.51902 0.88738 0.0
N292 N 0.42768 0.43639 0.96132 0.0
N293 N 0.6028 0.65342 0.96137 0.0
C294 C 0.47311 0.48831 0.9599 0.0
C295 C 0.55796 0.60115 0.96131 0.0
N296 N 0.49507 0.48121 0.09732 0.0
N297 N 0.53966 0.60748 0.82148 0.0
H298 H 0.62509 0.67268 0.01268 0.0
H299 H 0.62136 0.67604 0.90986 0.0
H300 H 0.52014 0.59085 0.76755 0.0
H301 H 0.56344 0.6504 0.82024 0.0
H302 H 0.47114 0.43828 0.0983 0.0
H303 H 0.519 0.49741 0.14828 0.0
H304 H 0.40967 0.41459 0.01364 0.0
H305 H 0.40427 0.41678 0.91109 0.0
C306 C 0.99435 0.53623 0.06025 0.0
C307 C 1.01204 0.49663 0.05873 0.0
C308 C 0.02987 0.50889 0.20309 0.0
C309 C 1.01225 0.54836 0.20458 0.0
N310 N 0.99154 0.61014 0.13178 0.0
N311 N 0.03248 0.43476 0.13259 0.0
C312 C 0.99813 0.56487 0.1324 0.0
C313 C 0.02592 0.48006 0.13128 0.0
N314 N 0.97215 0.54525 0.99338 0.0
N315 N 0.05456 0.50221 0.26897 0.0
H316 H 0.02841 0.41121 0.0823 0.0
H317 H 0.0366 0.41703 0.18481 0.0
H318 H 0.06256 0.5265 0.31968 0.0
H319 H 0.07323 0.47805 0.27029 0.0
H320 H 0.95266 0.56866 0.9927 0.0
H321 H 0.96859 0.52526 0.93963 0.0
H322 H 0.98786 0.62847 0.0799 0.0
H323 H 0.99521 0.63308 0.18266 0.0
C324 C 0.70473 0.847 0.16356 0.0
C325 C 0.65773 0.7958 0.14191 0.0
C326 C 0.61675 0.84571 0.07812 0.0
C327 C 0.66535 0.89698 0.09392 0.0
N328 N 0.76038 0.94554 0.13688 0.0
N329 N 0.57708 0.74772 0.0581 0.0
C330 C 0.71093 0.89736 0.13202 0.0
C331 C 0.61673 0.79577 0.092 0.0
N332 N 0.74174 0.84807 0.21757 0.0
N333 N 0.5687 0.84389 0.0564 0.0
H334 H 0.57473 0.70981 0.06753 0.0
H335 H 0.55002 0.74661 0.01449 0.0
H336 H 0.56431 0.87863 0.05213 0.0
H337 H 0.53099 0.80711 0.05235 0.0
H338 H 0.77317 0.88448 0.24225 0.0
H339 H 0.73855 0.81249 0.24264 0.0
H340 H 0.79648 0.94745 0.15726 0.0
H341 H 0.76652 0.98272 0.11321 0.0
C342 C 0.86381 0.62784 0.25792 0.0
C343 C 0.90398 0.66775 0.30988 0.0
C344 C 0.85599 0.72134 0.30137 0.0
C345 C 0.81168 0.67697 0.25995 0.0
N346 N 0.76867 0.58143 0.21678 0.0
N347 N 0.93484 0.75018 0.38898 0.0
C348 C 0.81448 0.62868 0.24223 0.0
C349 C 0.8996 0.71435 0.33319 0.0
N350 N 0.8724 0.5884 0.22369 0.0
N351 N 0.85687 0.77037 0.30927 0.0
H352 H 0.96687 0.7464 0.41405 0.0
H353 H 0.92972 0.78116 0.4149 0.0
H354 H 0.82594 0.77682 0.28608 0.0
H355 H 0.89053 0.80594 0.33209 0.0
H356 H 0.84757 0.5625 0.17822 0.0
H357 H 0.90713 0.58497 0.23513 0.0
H358 H 0.76738 0.54366 0.21173 0.0
H359 H 0.72987 0.5775 0.20991 0.0
C360 C 0.22837 0.82218 0.40854 0.0
C361 C 0.17741 0.81978 0.42685 0.0
C362 C 0.22876 0.90738 0.50037 0.0
C363 C 0.27955 0.91134 0.47655 0.0
N364 N 0.32685 0.87995 0.38903 0.0
N365 N 0.13007 0.86587 0.47632 0.0
C366 C 0.2789 0.87132 0.42401 0.0
C367 C 0.17791 0.86429 0.46842 0.0
N368 N 0.22935 0.77622 0.38286 0.0
N369 N 0.22854 0.94252 0.55677 0.0
H370 H 0.09251 0.8354 0.4528 0.0
H371 H 0.1287 0.89976 0.49933 0.0
H372 H 0.26451 0.97416 0.58215 0.0
H373 H 0.19247 0.93755 0.58294 0.0
H374 H 0.26577 0.77483 0.37703 0.0
H375 H 0.19425 0.73746 0.37671 0.0
H376 H 0.32769 0.85496 0.34357 0.0
H377 H 0.36505 0.91503 0.39969 0.0
C378 C 0.37517 0.23007 0.72163 0.0
C379 C 0.38355 0.26965 0.66322 0.0
C380 C 0.36795 0.20077 0.56094 0.0
C381 C 0.37706 0.16883 0.61886 0.0
N382 N 0.39949 0.16238 0.75824 0.0
N383 N 0.38356 0.29154 0.52424 0.0
C384 C 0.38232 0.18507 0.70075 0.0
C385 C 0.37799 0.25453 0.58171 0.0
N386 N 0.36045 0.23561 0.79713 0.0
N387 N 0.34826 0.1793 0.48723 0.0
H388 H 0.38761 0.32978 0.53773 0.0
H389 H 0.38661 0.2851 0.46367 0.0
H390 H 0.33659 0.13869 0.47227 0.0
H391 H 0.33721 0.19926 0.44485 0.0
H392 H 0.34999 0.20543 0.84096 0.0
H393 H 0.35307 0.26761 0.81223 0.0
H394 H 0.40729 0.17715 0.81665 0.0
H395 H 0.4135 0.13494 0.74731 0.0
C396 C 0.1755 0.41611 0.73341 0.0
C397 C 0.15495 0.39774 0.81075 0.0
C398 C 0.21978 0.36351 0.82322 0.0
C399 C 0.25104 0.39728 0.75729 0.0
N400 N 0.25899 0.46499 0.65739 0.0
N401 N 0.15483 0.34975 0.92967 0.0
C402 C 0.22872 0.42541 0.71309 0.0
C403 C 0.17618 0.36994 0.85593 0.0
N404 N 0.14453 0.42527 0.67967 0.0
N405 N 0.22977 0.32371 0.8522 0.0
H406 H 0.12032 0.35052 0.95208 0.0
H407 H 0.17285 0.33461 0.96913 0.0
H408 H 0.25694 0.31359 0.82442 0.0
H409 H 0.20576 0.29593 0.89678 0.0
H410 H 0.15602 0.43432 0.61987 0.0
H411 H 0.10487 0.41775 0.69355 0.0
H412 H 0.24399 0.48813 0.62936 0.0
H413 H 0.30089 0.48092 0.6468 0.0
C414 C 0.84423 0.23512 0.87479 0.0
C415 C 0.89516 0.25818 0.91812 0.0
C416 C 0.84932 0.18289 0.01647 0.0
C417 C 0.79953 0.1614 0.97314 0.0
N418 N 0.75943 0.15054 0.8438 0.0
N419 N 0.94918 0.23695 1.00929 0.0
C420 C 0.80051 0.18184 0.89618 0.0
C421 C 0.8988 0.22675 0.98265 0.0
N422 N 0.83437 0.2645 0.81854 0.0
N423 N 0.84936 0.16174 0.08977 0.0
H424 H 0.98603 0.26432 0.98037 0.0
H425 H 0.95375 0.2129 0.05276 0.0
H426 H 0.81438 0.12725 0.11313 0.0
H427 H 0.8832 0.17996 0.12803 0.0
H428 H 0.79571 0.24933 0.79203 0.0
H429 H 0.86085 0.30573 0.80467 0.0
H430 H 0.76079 0.16162 0.78405 0.0
H431 H 0.72751 0.11094 0.85863 0.0
loop_
_geom_bond_atom_site_label_1
_geom_bond_atom_site_label_2
_geom_bond_distance
_geom_bond_site_symmetry_2
_ccdc_geom_bond_type
Mn0 O5 2.095 1_554 S
Mn0 O15 2.162 1_545 S
Mn0 O16 2.297 1_545 S
Mn0 O24 2.385 1_545 S
Mn0 O25 2.209 . S
Mn0 O26 2.094 1_544 S
Mn1 O6 2.121 . S
Mn1 N8 2.257 . S
Mn1 N17 2.282 . S
Mn1 O25 2.215 . S
Mn1 O27 2.117 1_554 S
C2 O24 1.234 1_545 S
C2 O25 1.283 . S
C3 O15 1.281 . S
C3 O16 1.236 . S
C4 O26 1.240 1_545 S
C4 O27 1.264 . S
O5 Mn0 2.095 1_556 S
O5 C14 1.250 1_556 S
O6 Mn1 2.121 . S
O6 C14 1.258 . S
C7 N8 1.326 . S
C7 C11 1.460 . S
C7 H13 0.929 . S
N8 Mn1 2.257 . S
N8 C7 1.326 . S
N8 C12 1.362 . S
C9 C10 1.258 . S
C9 C12 1.431 . S
C9 C29 1.449 . S
C10 C9 1.258 . S
C10 C11 1.477 . S
C10 H30 0.931 . S
C11 C7 1.460 . S
C11 C10 1.477 . S
C11 H31 0.930 . S
C12 N8 1.362 . S
C12 C9 1.431 . S
C12 C22 1.476 . S
H13 C7 0.929 . S
C14 O5 1.250 1_554 S
C14 O6 1.258 . S
O15 Mn0 2.162 1_565 S
O15 C3 1.281 . S
O16 Mn0 2.297 1_565 S
O16 C3 1.236 . S
N17 Mn1 2.282 . S
N17 C18 1.328 . S
N17 C22 1.318 . S
C18 N17 1.328 . S
C18 C19 1.457 . S
C18 H23 0.929 . S
C19 C18 1.457 . S
C19 C20 1.291 . S
C19 H32 0.931 . S
C20 C19 1.291 . S
C20 C21 1.373 . S
C20 H33 0.929 . S
C21 C20 1.373 . S
C21 C22 1.396 . S
C21 C28 1.403 . S
C22 C12 1.476 . S
C22 N17 1.318 . S
C22 C21 1.396 . S
H23 C18 0.929 . S
O24 Mn0 2.385 1_565 S
O24 C2 1.234 1_565 S
O25 Mn0 2.209 . S
O25 Mn1 2.215 . S
O25 C2 1.283 . S
O26 Mn0 2.094 1_566 S
O26 C4 1.240 1_565 S
O27 Mn1 2.117 1_556 S
O27 C4 1.264 . S
C28 C21 1.403 . S
C28 C29 1.399 . S
C28 H34 0.929 . S
C29 C9 1.449 . S
C29 C28 1.399 . S
C29 H35 0.930 . S
H30 C10 0.931 . S
H31 C11 0.930 . S
H32 C19 0.931 . S
H33 C20 0.929 . S
H34 C28 0.929 . S
H35 C29 0.930 . S
Mn36 O41 2.095 . S
Mn36 O51 2.162 . S
Mn36 O52 2.297 . S
Mn36 O60 2.385 . S
Mn36 O61 2.209 . S
Mn36 O62 2.094 . S
Mn37 O42 2.121 . S
Mn37 N44 2.257 . S
Mn37 N53 2.282 . S
Mn37 O61 2.215 . S
Mn37 O63 2.117 . S
C38 O60 1.234 . S
C38 O61 1.283 . S
C39 O51 1.281 . S
C39 O52 1.236 . S
C40 O62 1.240 . S
C40 O63 1.264 . S
O41 Mn36 2.095 . S
O41 C50 1.250 . S
O42 Mn37 2.121 . S
O42 C50 1.258 . S
C43 N44 1.326 . S
C43 C47 1.460 . S
C43 H49 0.929 . S
N44 Mn37 2.257 . S
N44 C43 1.326 . S
N44 C48 1.362 . S
C45 C46 1.258 . S
C45 C48 1.431 . S
C45 C65 1.449 . S
C46 C45 1.258 . S
C46 C47 1.477 . S
C46 H66 0.931 . S
C47 C43 1.460 . S
C47 C46 1.477 . S
C47 H67 0.930 . S
C48 N44 1.362 . S
C48 C45 1.431 . S
C48 C58 1.476 . S
H49 C43 0.929 . S
C50 O41 1.250 . S
C50 O42 1.258 . S
O51 Mn36 2.162 . S
O51 C39 1.281 . S
O52 Mn36 2.297 . S
O52 C39 1.236 . S
N53 Mn37 2.282 . S
N53 C54 1.328 . S
N53 C58 1.318 . S
C54 N53 1.328 . S
C54 C55 1.457 . S
C54 H59 0.929 . S
C55 C54 1.457 . S
C55 C56 1.291 . S
C55 H68 0.931 . S
C56 C55 1.291 . S
C56 C57 1.373 . S
C56 H69 0.929 . S
C57 C56 1.373 . S
C57 C58 1.396 . S
C57 C64 1.403 . S
C58 C48 1.476 . S
C58 N53 1.318 . S
C58 C57 1.396 . S
H59 C54 0.929 . S
O60 Mn36 2.385 . S
O60 C38 1.234 . S
O61 Mn36 2.209 . S
O61 Mn37 2.215 . S
O61 C38 1.283 . S
O62 Mn36 2.094 . S
O62 C40 1.240 . S
O63 Mn37 2.117 . S
O63 C40 1.264 . S
C64 C57 1.403 . S
C64 C65 1.399 . S
C64 H70 0.929 . S
C65 C45 1.449 . S
C65 C64 1.399 . S
C65 H71 0.930 . S
H66 C46 0.931 . S
H67 C47 0.930 . S
H68 C55 0.931 . S
H69 C56 0.929 . S
H70 C64 0.929 . S
H71 C65 0.930 . S
Mn72 O77 2.095 1_455 S
Mn72 O87 2.162 . S
Mn72 O88 2.297 . S
Mn72 O96 2.385 . S
Mn72 O97 2.209 1_455 S
Mn72 O98 2.094 . S
Mn73 O78 2.121 . S
Mn73 N80 2.257 . S
Mn73 N89 2.282 . S
Mn73 O97 2.215 . S
Mn73 O99 2.117 . S
C74 O96 1.234 . S
C74 O97 1.283 1_455 S
C75 O87 1.281 . S
C75 O88 1.236 . S
C76 O98 1.240 . S
C76 O99 1.264 1_455 S
O77 Mn72 2.095 1_655 S
O77 C86 1.250 . S
O78 Mn73 2.121 . S
O78 C86 1.258 . S
C79 N80 1.326 . S
C79 C83 1.460 . S
C79 H85 0.929 . S
N80 Mn73 2.257 . S
N80 C79 1.326 . S
N80 C84 1.362 . S
C81 C82 1.258 . S
C81 C84 1.431 . S
C81 C101 1.449 . S
C82 C81 1.258 . S
C82 C83 1.477 . S
C82 H102 0.931 . S
C83 C79 1.460 . S
C83 C82 1.477 . S
C83 H103 0.930 . S
C84 N80 1.362 . S
C84 C81 1.431 . S
C84 C94 1.476 . S
H85 C79 0.929 . S
C86 O77 1.250 . S
C86 O78 1.258 . S
O87 Mn72 2.162 . S
O87 C75 1.281 . S
O88 Mn72 2.297 . S
O88 C75 1.236 . S
N89 Mn73 2.282 . S
N89 C90 1.328 . S
N89 C94 1.318 . S
C90 N89 1.328 . S
C90 C91 1.457 . S
C90 H95 0.929 . S
C91 C90 1.457 . S
C91 C92 1.291 . S
C91 H104 0.931 . S
C92 C91 1.291 . S
C92 C93 1.373 . S
C92 H105 0.929 . S
C93 C92 1.373 . S
C93 C94 1.396 . S
C93 C100 1.403 . S
C94 C84 1.476 . S
C94 N89 1.318 . S
C94 C93 1.396 . S
H95 C90 0.929 . S
O96 Mn72 2.385 . S
O96 C74 1.234 . S
O97 Mn72 2.209 1_655 S
O97 Mn73 2.215 . S
O97 C74 1.283 1_655 S
O98 Mn72 2.094 . S
O98 C76 1.240 . S
O99 Mn73 2.117 . S
O99 C76 1.264 1_655 S
C100 C93 1.403 . S
C100 C101 1.399 . S
C100 H106 0.929 . S
C101 C81 1.449 . S
C101 C100 1.399 . S
C101 H107 0.930 . S
H102 C82 0.931 . S
H103 C83 0.930 . S
H104 C91 0.931 . S
H105 C92 0.929 . S
H106 C100 0.929 . S
H107 C101 0.930 . S
Mn108 O113 2.095 1_545 S
Mn108 O123 2.162 . S
Mn108 O124 2.297 . S
Mn108 O132 2.385 . S
Mn108 O133 2.209 1_545 S
Mn108 O134 2.094 . S
Mn109 O114 2.121 . S
Mn109 N116 2.257 . S
Mn109 N125 2.282 . S
Mn109 O133 2.215 . S
Mn109 O135 2.117 . S
C110 O132 1.234 . S
C110 O133 1.283 1_545 S
C111 O123 1.281 . S
C111 O124 1.236 . S
C112 O134 1.240 . S
C112 O135 1.264 1_545 S
O113 Mn108 2.095 1_565 S
O113 C122 1.250 . S
O114 Mn109 2.121 . S
O114 C122 1.258 . S
C115 N116 1.326 . S
C115 C119 1.460 . S
C115 H121 0.929 . S
N116 Mn109 2.257 . S
N116 C115 1.326 . S
N116 C120 1.362 . S
C117 C118 1.258 . S
C117 C120 1.431 . S
C117 C137 1.449 . S
C118 C117 1.258 . S
C118 C119 1.477 . S
C118 H138 0.931 . S
C119 C115 1.460 . S
C119 C118 1.477 . S
C119 H139 0.930 . S
C120 N116 1.362 . S
C120 C117 1.431 . S
C120 C130 1.476 . S
H121 C115 0.929 . S
C122 O113 1.250 . S
C122 O114 1.258 . S
O123 Mn108 2.162 . S
O123 C111 1.281 . S
O124 Mn108 2.297 . S
O124 C111 1.236 . S
N125 Mn109 2.282 . S
N125 C126 1.328 . S
N125 C130 1.318 . S
C126 N125 1.328 . S
C126 C127 1.457 . S
C126 H131 0.929 . S
C127 C126 1.457 . S
C127 C128 1.291 . S
C127 H140 0.931 1_565 S
C128 C127 1.291 . S
C128 C129 1.373 . S
C128 H141 0.929 . S
C129 C128 1.373 . S
C129 C130 1.396 . S
C129 C136 1.403 . S
C130 C120 1.476 . S
C130 N125 1.318 . S
C130 C129 1.396 . S
H131 C126 0.929 . S
O132 Mn108 2.385 . S
O132 C110 1.234 . S
O133 Mn108 2.209 1_565 S
O133 Mn109 2.215 . S
O133 C110 1.283 1_565 S
O134 Mn108 2.094 . S
O134 C112 1.240 . S
O135 Mn109 2.117 . S
O135 C112 1.264 1_565 S
C136 C129 1.403 . S
C136 C137 1.399 . S
C136 H142 0.929 . S
C137 C117 1.449 . S
C137 C136 1.399 . S
C137 H143 0.930 . S
H138 C118 0.931 . S
H139 C119 0.930 . S
H140 C127 0.931 1_545 S
H141 C128 0.929 . S
H142 C136 0.929 . S
H143 C137 0.930 . S
Mn144 O149 2.095 . S
Mn144 O159 2.162 . S
Mn144 O160 2.297 . S
Mn144 O168 2.385 . S
Mn144 O169 2.209 . S
Mn144 O170 2.094 . S
Mn145 O150 2.121 . S
Mn145 N152 2.257 . S
Mn145 N161 2.282 . S
Mn145 O169 2.215 . S
Mn145 O171 2.117 . S
C146 O168 1.234 . S
C146 O169 1.283 . S
C147 O159 1.281 . S
C147 O160 1.236 . S
C148 O170 1.240 . S
C148 O171 1.264 . S
O149 Mn144 2.095 . S
O149 C158 1.250 . S
O150 Mn145 2.121 . S
O150 C158 1.258 . S
C151 N152 1.326 . S
C151 C155 1.460 . S
C151 H157 0.929 . S
N152 Mn145 2.257 . S
N152 C151 1.326 . S
N152 C156 1.362 . S
C153 C154 1.258 . S
C153 C156 1.431 . S
C153 C173 1.449 . S
C154 C153 1.258 . S
C154 C155 1.477 . S
C154 H174 0.931 . S
C155 C151 1.460 . S
C155 C154 1.477 . S
C155 H175 0.930 . S
C156 N152 1.362 . S
C156 C153 1.431 . S
C156 C166 1.476 . S
H157 C151 0.929 . S
C158 O149 1.250 . S
C158 O150 1.258 . S
O159 Mn144 2.162 . S
O159 C147 1.281 . S
O160 Mn144 2.297 . S
O160 C147 1.236 . S
N161 Mn145 2.282 . S
N161 C162 1.328 . S
N161 C166 1.318 . S
C162 N161 1.328 . S
C162 C163 1.457 . S
C162 H167 0.929 . S
C163 C162 1.457 . S
C163 C164 1.291 . S
C163 H176 0.931 . S
C164 C163 1.291 . S
C164 C165 1.373 . S
C164 H177 0.929 . S
C165 C164 1.373 . S
C165 C166 1.396 . S
C165 C172 1.403 . S
C166 C156 1.476 . S
C166 N161 1.318 . S
C166 C165 1.396 . S
H167 C162 0.929 . S
O168 Mn144 2.385 . S
O168 C146 1.234 . S
O169 Mn144 2.209 . S
O169 Mn145 2.215 . S
O169 C146 1.283 . S
O170 Mn144 2.094 . S
O170 C148 1.240 . S
O171 Mn145 2.117 . S
O171 C148 1.264 . S
C172 C165 1.403 . S
C172 C173 1.399 . S
C172 H178 0.929 . S
C173 C153 1.449 . S
C173 C172 1.399 . S
C173 H179 0.930 1_556 S
H174 C154 0.931 . S
H175 C155 0.930 . S
H176 C163 0.931 . S
H177 C164 0.929 . S
H178 C172 0.929 . S
H179 C173 0.930 1_554 S
Mn180 O185 2.095 1_655 S
Mn180 O195 2.162 . S
Mn180 O196 2.297 . S
Mn180 O204 2.385 . S
Mn180 O205 2.209 1_655 S
Mn180 O206 2.094 . S
Mn181 O186 2.121 . S
Mn181 N188 2.257 1_556 S
Mn181 N197 2.282 . S
Mn181 O205 2.215 . S
Mn181 O207 2.117 . S
C182 O204 1.231 1_454 S
C182 O205 1.281 1_554 S
C183 O195 1.281 . S
C183 O196 1.236 . S
C184 O206 1.240 1_455 S
C184 O207 1.264 . S
O185 Mn180 2.095 1_455 S
O185 C194 1.250 . S
O186 Mn181 2.121 . S
O186 C194 1.258 . S
C187 N188 1.326 . S
C187 C191 1.460 . S
C187 H193 0.929 . S
N188 Mn181 2.257 1_554 S
N188 C187 1.326 . S
N188 C192 1.362 . S
C189 C190 1.258 . S
C189 C192 1.431 . S
C189 C209 1.449 . S
C190 C189 1.258 . S
C190 C191 1.477 . S
C190 H210 0.931 . S
C191 C187 1.460 . S
C191 C190 1.477 . S
C191 H211 0.930 . S
C192 N188 1.362 . S
C192 C189 1.431 . S
C192 C202 1.476 . S
H193 C187 0.929 . S
C194 O185 1.250 . S
C194 O186 1.258 . S
O195 Mn180 2.162 . S
O195 C183 1.281 . S
O196 Mn180 2.297 . S
O196 C183 1.236 . S
N197 Mn181 2.282 . S
N197 C198 1.328 . S
N197 C202 1.318 1_556 S
C198 N197 1.328 . S
C198 C199 1.457 . S
C198 H203 0.929 . S
C199 C198 1.457 . S
C199 C200 1.291 1_556 S
C199 H212 0.931 . S
C200 C199 1.291 1_554 S
C200 C201 1.373 . S
C200 H213 0.929 . S
C201 C200 1.373 . S
C201 C202 1.396 . S
C201 C208 1.403 . S
C202 C192 1.476 . S
C202 N197 1.318 1_554 S
C202 C201 1.396 . S
H203 C198 0.929 . S
O204 Mn180 2.385 . S
O204 C182 1.231 1_656 S
O205 Mn180 2.209 1_455 S
O205 Mn181 2.215 . S
O205 C182 1.281 1_556 S
O206 Mn180 2.094 . S
O206 C184 1.240 1_655 S
O207 Mn181 2.117 . S
O207 C184 1.264 . S
C208 C201 1.403 . S
C208 C209 1.399 . S
C208 H214 0.929 . S
C209 C189 1.449 . S
C209 C208 1.399 . S
C209 H215 0.930 . S
H210 C190 0.931 . S
H211 C191 0.930 . S
H212 C199 0.931 . S
H213 C200 0.929 . S
H214 C208 0.929 . S
H215 C209 0.930 . S
C216 C217 1.363 1_565 S
C216 C222 1.379 . S
C216 N224 1.356 . S
C217 C216 1.363 1_545 S
C217 C223 1.363 . S
C218 C219 1.363 . S
C218 C223 1.379 . S
C218 N225 1.356 . S
C219 C218 1.363 . S
C219 C222 1.363 1_545 S
N220 C222 1.356 . S
N220 H232 0.984 . S
N220 H233 0.985 . S
N221 C223 1.356 . S
N221 H226 0.984 . S
N221 H227 0.985 . S
C222 C216 1.379 . S
C222 C219 1.363 1_565 S
C222 N220 1.356 . S
C223 C217 1.363 . S
C223 C218 1.379 . S
C223 N221 1.356 . S
N224 C216 1.356 . S
N224 H230 0.984 . S
N224 H231 0.984 . S
N225 C218 1.356 . S
N225 H228 0.984 . S
N225 H229 0.985 . S
H226 N221 0.984 . S
H227 N221 0.985 . S
H228 N225 0.984 . S
H229 N225 0.985 . S
H230 N224 0.984 . S
H231 N224 0.984 . S
H232 N220 0.984 . S
H233 N220 0.985 . S
C234 C235 1.363 . S
C234 C240 1.379 . S
C234 N242 1.356 . S
C235 C234 1.363 . S
C235 C241 1.363 . S
C236 C237 1.363 . S
C236 C241 1.379 . S
C236 N243 1.356 . S
C237 C236 1.363 . S
C237 C240 1.363 . S
N238 C240 1.356 . S
N238 H250 0.984 . S
N238 H251 0.985 . S
N239 C241 1.356 . S
N239 H244 0.984 . S
N239 H245 0.985 . S
C240 C234 1.379 . S
C240 C237 1.363 . S
C240 N238 1.356 . S
C241 C235 1.363 . S
C241 C236 1.379 . S
C241 N239 1.356 . S
N242 C234 1.356 . S
N242 H248 0.984 . S
N242 H249 0.984 . S
N243 C236 1.356 . S
N243 H246 0.984 . S
N243 H247 0.985 . S
H244 N239 0.984 . S
H245 N239 0.985 . S
H246 N243 0.984 . S
H247 N243 0.985 . S
H248 N242 0.984 . S
H249 N242 0.984 . S
H250 N238 0.984 . S
H251 N238 0.985 . S
C252 C253 1.363 1_655 S
C252 C258 1.379 . S
C252 N260 1.356 . S
C253 C252 1.363 1_455 S
C253 C259 1.363 . S
C254 C255 1.363 . S
C254 C259 1.379 . S
C254 N261 1.356 . S
C255 C254 1.363 . S
C255 C258 1.363 1_455 S
N256 C258 1.356 . S
N256 H268 0.984 . S
N256 H269 0.985 . S
N257 C259 1.356 . S
N257 H262 0.984 . S
N257 H263 0.985 . S
C258 C252 1.379 . S
C258 C255 1.363 1_655 S
C258 N256 1.356 . S
C259 C253 1.363 . S
C259 C254 1.379 . S
C259 N257 1.356 . S
N260 C252 1.356 . S
N260 H266 0.984 . S
N260 H267 0.984 . S
N261 C254 1.356 . S
N261 H264 0.984 . S
N261 H265 0.985 . S
H262 N257 0.984 . S
H263 N257 0.985 . S
H264 N261 0.984 . S
H265 N261 0.985 . S
H266 N260 0.984 . S
H267 N260 0.984 . S
H268 N256 0.984 . S
H269 N256 0.985 . S
C270 C271 1.363 1_565 S
C270 C276 1.379 . S
C270 N278 1.356 . S
C271 C270 1.363 1_545 S
C271 C277 1.363 . S
C272 C273 1.363 . S
C272 C277 1.379 . S
C272 N279 1.356 . S
C273 C272 1.363 . S
C273 C276 1.363 1_545 S
N274 C276 1.356 . S
N274 H286 0.984 . S
N274 H287 0.985 . S
N275 C277 1.356 . S
N275 H280 0.984 . S
N275 H281 0.985 . S
C276 C270 1.379 . S
C276 C273 1.363 1_565 S
C276 N274 1.356 . S
C277 C271 1.363 . S
C277 C272 1.379 . S
C277 N275 1.356 . S
N278 C270 1.356 . S
N278 H284 0.984 . S
N278 H285 0.984 . S
N279 C272 1.356 . S
N279 H282 0.984 . S
N279 H283 0.985 . S
H280 N275 0.984 . S
H281 N275 0.985 . S
H282 N279 0.984 . S
H283 N279 0.985 . S
H284 N278 0.984 . S
H285 N278 0.984 . S
H286 N274 0.984 . S
H287 N274 0.985 . S
C288 C289 1.363 1_556 S
C288 C294 1.379 . S
C288 N296 1.356 1_556 S
C289 C288 1.363 1_554 S
C289 C295 1.363 1_554 S
C290 C291 1.363 . S
C290 C295 1.379 . S
C290 N297 1.356 . S
C291 C290 1.363 . S
C291 C294 1.363 . S
N292 C294 1.356 . S
N292 H304 0.984 . S
N292 H305 0.985 . S
N293 C295 1.356 1_554 S
N293 H298 0.984 . S
N293 H299 0.985 . S
C294 C288 1.379 . S
C294 C291 1.363 . S
C294 N292 1.356 . S
C295 C289 1.363 1_556 S
C295 C290 1.379 . S
C295 N293 1.356 1_556 S
N296 C288 1.356 1_554 S
N296 H302 0.984 . S
N296 H303 0.984 . S
N297 C290 1.356 . S
N297 H300 0.984 . S
N297 H301 0.985 . S
H298 N293 0.984 . S
H299 N293 0.985 . S
H300 N297 0.984 . S
H301 N297 0.985 . S
H302 N296 0.984 . S
H303 N296 0.984 . S
H304 N292 0.984 . S
H305 N292 0.985 . S
C306 C307 1.363 . S
C306 C312 1.379 . S
C306 N314 1.356 1_554 S
C307 C306 1.363 . S
C307 C313 1.363 . S
C308 C309 1.363 . S
C308 C313 1.379 . S
C308 N315 1.356 . S
C309 C308 1.363 . S
C309 C312 1.363 . S
N310 C312 1.356 . S
N310 H322 0.984 . S
N310 H323 0.985 . S
N311 C313 1.356 . S
N311 H316 0.984 . S
N311 H317 0.985 . S
C312 C306 1.379 . S
C312 C309 1.363 . S
C312 N310 1.356 . S
C313 C307 1.363 . S
C313 C308 1.379 . S
C313 N311 1.356 . S
N314 C306 1.356 1_556 S
N314 H320 0.984 . S
N314 H321 0.984 . S
N315 C308 1.356 . S
N315 H318 0.984 . S
N315 H319 0.985 . S
H316 N311 0.984 . S
H317 N311 0.985 . S
H318 N315 0.984 . S
H319 N315 0.985 . S
H320 N314 0.984 . S
H321 N314 0.984 . S
H322 N310 0.984 . S
H323 N310 0.985 . S
C324 C325 1.363 . S
C324 C330 1.379 . S
C324 N332 1.356 . S
C325 C324 1.363 . S
C325 C331 1.363 . S
C326 C327 1.363 . S
C326 C331 1.379 . S
C326 N333 1.356 . S
C327 C326 1.363 . S
C327 C330 1.363 . S
N328 C330 1.356 . S
N328 H340 0.984 . S
N328 H341 0.985 . S
N329 C331 1.356 . S
N329 H334 0.984 . S
N329 H335 0.985 . S
C330 C324 1.379 . S
C330 C327 1.363 . S
C330 N328 1.356 . S
C331 C325 1.363 . S
C331 C326 1.379 . S
C331 N329 1.356 . S
N332 C324 1.356 . S
N332 H338 0.984 . S
N332 H339 0.984 . S
N333 C326 1.356 . S
N333 H336 0.984 . S
N333 H337 0.985 . S
H334 N329 0.984 . S
H335 N329 0.985 . S
H336 N333 0.984 . S
H337 N333 0.985 . S
H338 N332 0.984 . S
H339 N332 0.984 . S
H340 N328 0.984 . S
H341 N328 0.985 . S
C342 C343 1.363 . S
C342 C348 1.379 . S
C342 N350 1.356 . S
C343 C342 1.363 . S
C343 C349 1.363 . S
C344 C345 1.363 . S
C344 C349 1.379 . S
C344 N351 1.356 . S
C345 C344 1.363 . S
C345 C348 1.363 . S
N346 C348 1.356 . S
N346 H358 0.984 . S
N346 H359 0.985 . S
N347 C349 1.356 . S
N347 H352 0.984 . S
N347 H353 0.985 . S
C348 C342 1.379 . S
C348 C345 1.363 . S
C348 N346 1.356 . S
C349 C343 1.363 . S
C349 C344 1.379 . S
C349 N347 1.356 . S
N350 C342 1.356 . S
N350 H356 0.984 . S
N350 H357 0.984 . S
N351 C344 1.356 . S
N351 H354 0.984 . S
N351 H355 0.985 . S
H352 N347 0.984 . S
H353 N347 0.985 . S
H354 N351 0.984 . S
H355 N351 0.985 . S
H356 N350 0.984 . S
H357 N350 0.984 . S
H358 N346 0.984 . S
H359 N346 0.985 . S
C360 C361 1.363 . S
C360 C366 1.379 . S
C360 N368 1.356 . S
C361 C360 1.363 . S
C361 C367 1.363 . S
C362 C363 1.363 . S
C362 C367 1.379 . S
C362 N369 1.356 . S
C363 C362 1.363 . S
C363 C366 1.363 . S
N364 C366 1.356 . S
N364 H376 0.984 . S
N364 H377 0.985 . S
N365 C367 1.356 . S
N365 H370 0.984 . S
N365 H371 0.985 . S
C366 C360 1.379 . S
C366 C363 1.363 . S
C366 N364 1.356 . S
C367 C361 1.363 . S
C367 C362 1.379 . S
C367 N365 1.356 . S
N368 C360 1.356 . S
N368 H374 0.984 . S
N368 H375 0.984 . S
N369 C362 1.356 . S
N369 H372 0.984 . S
N369 H373 0.985 . S
H370 N365 0.984 . S
H371 N365 0.985 . S
H372 N369 0.984 . S
H373 N369 0.985 . S
H374 N368 0.984 . S
H375 N368 0.984 . S
H376 N364 0.984 . S
H377 N364 0.985 . S
C378 C379 1.363 . S
C378 C384 1.379 . S
C378 N386 1.356 . S
C379 C378 1.363 . S
C379 C385 1.363 . S
C380 C381 1.363 . S
C380 C385 1.379 . S
C380 N387 1.356 . S
C381 C380 1.363 . S
C381 C384 1.363 . S
N382 C384 1.356 . S
N382 H394 0.984 . S
N382 H395 0.985 . S
N383 C385 1.356 . S
N383 H388 0.984 . S
N383 H389 0.985 . S
C384 C378 1.379 . S
C384 C381 1.363 . S
C384 N382 1.356 . S
C385 C379 1.363 . S
C385 C380 1.379 . S
C385 N383 1.356 . S
N386 C378 1.356 . S
N386 H392 0.984 . S
N386 H393 0.984 . S
N387 C380 1.356 . S
N387 H390 0.984 . S
N387 H391 0.985 . S
H388 N383 0.984 . S
H389 N383 0.985 . S
H390 N387 0.984 . S
H391 N387 0.985 . S
H392 N386 0.984 . S
H393 N386 0.984 . S
H394 N382 0.984 . S
H395 N382 0.985 . S
C396 C397 1.363 . S
C396 C402 1.379 . S
C396 N404 1.356 . S
C397 C396 1.363 . S
C397 C403 1.363 . S
C398 C399 1.363 . S
C398 C403 1.379 . S
C398 N405 1.356 . S
C399 C398 1.363 . S
C399 C402 1.363 . S
N400 C402 1.356 . S
N400 H412 0.984 . S
N400 H413 0.985 . S
N401 C403 1.356 . S
N401 H406 0.984 . S
N401 H407 0.985 . S
C402 C396 1.379 . S
C402 C399 1.363 . S
C402 N400 1.356 . S
C403 C397 1.363 . S
C403 C398 1.379 . S
C403 N401 1.356 . S
N404 C396 1.356 . S
N404 H410 0.984 . S
N404 H411 0.984 . S
N405 C398 1.356 . S
N405 H408 0.984 . S
N405 H409 0.985 . S
H406 N401 0.984 . S
H407 N401 0.985 . S
H408 N405 0.984 . S
H409 N405 0.985 . S
H410 N404 0.984 . S
H411 N404 0.984 . S
H412 N400 0.984 . S
H413 N400 0.985 . S
C414 C415 1.363 . S
C414 C420 1.379 . S
C414 N422 1.356 . S
C415 C414 1.363 . S
C415 C421 1.363 1_556 S
C416 C417 1.363 . S
C416 C421 1.379 . S
C416 N423 1.356 . S
C417 C416 1.363 . S
C417 C420 1.363 1_554 S
N418 C420 1.356 . S
N418 H430 0.984 . S
N418 H431 0.985 . S
N419 C421 1.356 . S
N419 H424 0.984 . S
N419 H425 0.985 . S
C420 C414 1.379 . S
C420 C417 1.363 1_556 S
C420 N418 1.356 . S
C421 C415 1.363 1_554 S
C421 C416 1.379 . S
C421 N419 1.356 . S
N422 C414 1.356 . S
N422 H428 0.984 . S
N422 H429 0.984 . S
N423 C416 1.356 . S
N423 H426 0.984 . S
N423 H427 0.985 . S
H424 N419 0.984 . S
H425 N419 0.985 . S
H426 N423 0.984 . S
H427 N423 0.985 . S
H428 N422 0.984 . S
H429 N422 0.984 . S
H430 N418 0.984 . S
H431 N418 0.985 . S
C217 C2 1.562 . S
C219 C112 1.569 . S
C235 C38 1.562 . S
C237 C148 1.569 . S
C253 C184 1.569 . S
C255 C74 1.563 . S
C271 C4 1.569 . S
C273 C110 1.563 . S
C289 C40 1.569 . S
C291 C146 1.562 . S
C307 C182 1.567 . S
C309 C76 1.569 . S
C325 C50 1.351 . S
C327 C3 1.420 . S
C343 C86 1.351 . S
C345 C39 1.420 . S
C361 C75 1.420 . S
C363 C122 1.351 . S
C379 C158 1.351 . S
C381 C111 1.420 . S
C397 C194 1.351 . S
C399 C147 1.420 . S
C415 C183 1.420 . S
C417 C14 1.350 . S
