# Generated by pormake.
# Topology wjh, (4)-cn, num edge types: 1
# Building blocks:
#     Node 0, Type 0, BuildingBlock: ESEHIV_clean_sbu_0, # of connection points: 4
#     Node 1, Type 0, BuildingBlock: ESEHIV_clean_sbu_0, # of connection points: 4
#     Node 2, Type 0, BuildingBlock: ESEHIV_clean_sbu_0, # of connection points: 4
#     Node 3, Type 0, BuildingBlock: ESEHIV_clean_sbu_0, # of connection points: 4
#     Node 4, Type 0, BuildingBlock: ESEHIV_clean_sbu_0, # of connection points: 4
#     Node 5, Type 0, BuildingBlock: ESEHIV_clean_sbu_0, # of connection points: 4
#     Node 6, Type 0, BuildingBlock: ESEHIV_clean_sbu_0, # of connection points: 4
#     Node 7, Type 0, BuildingBlock: ESEHIV_clean_sbu_0, # of connection points: 4
#     Node 8, Type 0, BuildingBlock: ESEHIV_clean_sbu_0, # of connection points: 4
#     Node 9, Type 0, BuildingBlock: ESEHIV_clean_sbu_0, # of connection points: 4
#     Node 10, Type 0, BuildingBlock: ESEHIV_clean_sbu_0, # of connection points: 4
#     Node 11, Type 0, BuildingBlock: ESEHIV_clean_sbu_0, # of connection points: 4
#     Edge 12, Type (0, 0), None
#     Edge 13, Type (0, 0), None
#     Edge 14, Type (0, 0), None
#     Edge 15, Type (0, 0), None
#     Edge 16, Type (0, 0), None
#     Edge 17, Type (0, 0), None
#     Edge 18, Type (0, 0), None
#     Edge 19, Type (0, 0), None
#     Edge 20, Type (0, 0), None
#     Edge 21, Type (0, 0), None
#     Edge 22, Type (0, 0), None
#     Edge 23, Type (0, 0), None
#     Edge 24, Type (0, 0), None
#     Edge 25, Type (0, 0), None
#     Edge 26, Type (0, 0), None
#     Edge 27, Type (0, 0), None
#     Edge 28, Type (0, 0), None
#     Edge 29, Type (0, 0), None
#     Edge 30, Type (0, 0), None
#     Edge 31, Type (0, 0), None
#     Edge 32, Type (0, 0), None
#     Edge 33, Type (0, 0), None
#     Edge 34, Type (0, 0), None
#     Edge 35, Type (0, 0), None
# Relax obj value: 0.035
# Max RMSD: 0.105
# Mean RMSD: 0.105
data_MOF--net-wjh--node1-ESEHIV_clean_sbu_0--edge1-none
_symmetry_space_group_name_H-M    P1
_symmetry_Int_Tables_number       1
_symmetry_cell_setting            triclinic
loop_
_symmetry_equiv_pos_as_xyz
'x, y, z'
_cell_length_a     34.819301
_cell_length_b     34.825684
_cell_length_c     12.873341
_cell_angle_alpha  89.997338
_cell_angle_beta   90.00028
_cell_angle_gamma 119.99789
loop_
_atom_site_label
_atom_site_type_symbol
_atom_site_fract_x
_atom_site_fract_y
_atom_site_fract_z
_atom_type_partial_charge
Cu0 Cu 0.58994 0.17672 0.12864 0.0
N1 N 0.54921 0.11689 0.15268 0.0
N2 N 0.50815 0.0439 0.12995 0.0
C3 C 0.53452 0.08333 0.08388 0.0
C4 C 0.50596 0.05257 0.23099 0.0
C5 C 0.53126 0.09781 0.24466 0.0
O6 O 0.6177 0.18188 0.99434 0.0
C7 C 0.63796 0.19877 0.32975 0.0
O8 O 0.67318 0.20387 0.37809 0.0
H9 H 0.5441 0.0876 1.00292 0.0
H10 H 0.53684 0.11538 0.3172 0.0
N11 N 0.56029 0.20918 0.13136 0.0
N12 N 0.53974 0.25859 0.17139 0.0
C13 C 0.57421 0.25125 0.16226 0.0
C14 C 0.5162 0.19035 0.1176 0.0
C15 C 0.50336 0.22064 0.14246 0.0
C16 C 0.59913 0.17972 0.90785 0.0
O17 O 0.55922 0.17484 0.90608 0.0
H18 H 0.60785 0.27439 0.18601 0.0
H19 H 0.49453 0.15604 0.09636 0.0
O20 O 0.63679 0.19443 0.23129 0.0
H21 H 0.48783 0.02813 0.2904 0.0
H22 H 0.46971 0.21458 0.14307 0.0
Cu23 Cu 0.43508 0.57916 0.29506 0.0
N24 N 0.45412 0.53838 0.31914 0.0
N25 N 0.48594 0.49721 0.29642 0.0
C26 C 0.47292 0.52361 0.25033 0.0
C27 C 0.47512 0.49508 0.39748 0.0
C28 C 0.45524 0.52044 0.41113 0.0
O29 O 0.45773 0.60691 0.16077 0.0
C30 C 0.4611 0.62716 0.49618 0.0
O31 O 0.49124 0.66237 0.54452 0.0
H32 H 0.47822 0.53316 0.16935 0.0
H33 H 0.44329 0.52606 0.48368 0.0
N34 N 0.37298 0.5496 0.29775 0.0
N35 N 0.30303 0.5291 0.33791 0.0
C36 C 0.34485 0.56353 0.32884 0.0
C37 C 0.34768 0.50553 0.28381 0.0
C38 C 0.30455 0.49272 0.30875 0.0
C39 C 0.44131 0.58834 0.07428 0.0
O40 O 0.40625 0.54847 0.0725 0.0
H41 H 0.35538 0.59715 0.35279 0.0
H42 H 0.36029 0.48385 0.2624 0.0
O43 O 0.46426 0.626 0.39772 0.0
H44 H 0.48141 0.47694 0.4569 0.0
H45 H 0.27695 0.45909 0.30926 0.0
Cu46 Cu 0.8777 0.42396 0.462 0.0
N47 N 0.93754 0.44303 0.48604 0.0
N48 N 1.01054 0.47494 0.46331 0.0
C49 C 0.97111 0.4619 0.41725 0.0
C50 C 1.00186 0.46407 0.56435 0.0
C51 C 0.95662 0.44414 0.57801 0.0
O52 O 0.87256 0.44658 0.3277 0.0
C53 C 0.85568 0.44995 0.66311 0.0
O54 O 0.85061 0.48008 0.71146 0.0
H55 H 0.96685 0.46723 0.3363 0.0
H56 H 0.93904 0.43214 0.65055 0.0
N57 N 0.8452 0.36187 0.46472 0.0
N58 N 0.79573 0.29193 0.5048 0.0
C59 C 0.80312 0.33374 0.49569 0.0
C60 C 0.86399 0.33658 0.4509 0.0
C61 C 0.83367 0.29346 0.47579 0.0
C62 C 0.87473 0.43017 0.24121 0.0
O63 O 0.8796 0.39514 0.23944 0.0
H64 H 0.78 0.34426 0.51951 0.0
H65 H 0.89829 0.34919 0.4296 0.0
O66 O 0.86002 0.45312 0.56465 0.0
H67 H 1.02631 0.47037 0.62375 0.0
H68 H 0.8397 0.26586 0.47637 0.0
Cu69 Cu 0.47547 0.86675 0.62864 0.0
N70 N 0.51619 0.92658 0.6527 0.0
N71 N 0.55726 0.99957 0.62996 0.0
C72 C 0.53089 0.96015 0.58389 0.0
C73 C 0.55944 0.9909 0.73101 0.0
C74 C 0.53414 0.94566 0.74467 0.0
O75 O 0.44771 0.8616 0.49434 0.0
C76 C 0.42744 0.8447 0.82975 0.0
O77 O 0.39222 0.8396 0.87809 0.0
H78 H 0.52131 0.95588 0.50293 0.0
H79 H 0.52856 0.92809 0.81721 0.0
N80 N 0.50512 0.83431 0.63136 0.0
N81 N 0.52567 0.78489 0.67135 0.0
C82 C 0.49121 0.79223 0.66224 0.0
C83 C 0.54922 0.85314 0.61761 0.0
C84 C 0.56206 0.82285 0.64244 0.0
C85 C 0.46628 0.86376 0.40785 0.0
O86 O 0.50618 0.86863 0.40608 0.0
H87 H 0.45756 0.76908 0.68596 0.0
H88 H 0.57088 0.88745 0.59638 0.0
O89 O 0.42861 0.84904 0.73129 0.0
H90 H 0.57757 1.01534 0.79042 0.0
H91 H 0.5957 0.82891 0.64305 0.0
Cu92 Cu 0.63033 0.46431 0.79514 0.0
N93 N 0.61128 0.50509 0.81918 0.0
N94 N 0.57946 0.54625 0.79643 0.0
C95 C 0.59248 0.51985 0.75036 0.0
C96 C 0.59027 0.54838 0.89749 0.0
C97 C 0.61015 0.52302 0.91117 0.0
O98 O 0.6077 0.43656 0.66085 0.0
C99 C 0.60431 0.41631 0.99627 0.0
O100 O 0.57417 0.38111 0.04461 0.0
H101 H 0.58719 0.5103 0.66938 0.0
H102 H 0.62209 0.5174 0.98372 0.0
N103 N 0.69244 0.49389 0.79784 0.0
N104 N 0.76239 0.51439 0.83797 0.0
C105 C 0.72057 0.47996 0.8289 0.0
C106 C 0.71773 0.53796 0.78393 0.0
C107 C 0.76086 0.55077 0.80885 0.0
C108 C 0.6241 0.45513 0.57435 0.0
O109 O 0.65914 0.49503 0.57257 0.0
H110 H 0.71005 0.44633 0.85281 0.0
H111 H 0.70511 0.55963 0.76254 0.0
O112 O 0.60115 0.41747 0.8978 0.0
H113 H 0.58397 0.56652 0.95691 0.0
H114 H 0.78846 0.5844 0.80937 0.0
Cu115 Cu 0.18771 0.61952 0.962 0.0
N116 N 0.12788 0.60045 0.98603 0.0
N117 N 0.05488 0.56853 0.96329 0.0
C118 C 0.09431 0.58158 0.91723 0.0
C119 C 0.06355 0.5794 0.06432 0.0
C120 C 0.10879 0.59933 0.078 0.0
O121 O 0.19286 0.59691 0.82772 0.0
C122 C 0.20973 0.59353 0.16313 0.0
O123 O 0.21478 0.56339 0.21148 0.0
H124 H 0.09857 0.57624 0.83629 0.0
H125 H 0.12636 0.61133 0.15054 0.0
N126 N 0.22021 0.68161 0.96473 0.0
N127 N 0.26967 0.75155 1.00481 0.0
C128 C 0.26229 0.70974 0.99571 0.0
C129 C 0.20142 0.7069 0.9509 0.0
C130 C 0.23174 0.75002 0.97579 0.0
C131 C 0.19069 0.61331 0.74122 0.0
O132 O 0.1858 0.64832 0.73944 0.0
H133 H 0.28541 0.69922 1.01952 0.0
H134 H 0.16712 0.69429 0.92959 0.0
O135 O 0.20539 0.59036 0.06467 0.0
H136 H 0.0391 0.57309 0.12373 0.0
H137 H 0.22571 0.77762 0.97636 0.0
Cu138 Cu 0.88015 0.46261 0.92266 0.0
N139 N 0.93987 0.50266 0.8951 0.0
N140 N 1.01273 0.5459 0.91611 0.0
C141 C 0.97332 0.52165 0.9642 0.0
C142 C 1.00413 0.54232 0.81354 0.0
C143 C 0.959 0.51568 0.80087 0.0
O144 O 0.87635 0.43543 0.05717 0.0
C145 C 0.85531 0.41364 0.72278 0.0
O146 O 0.84813 0.3776 0.67488 0.0
H147 H 0.96901 0.51658 0.04726 0.0
H148 H 0.9416 0.50582 0.72772 0.0
N149 N 0.8482 0.49281 0.92183 0.0
N150 N 0.79928 0.51412 0.8827 0.0
C151 C 0.80619 0.47937 0.89113 0.0
C152 C 0.86743 0.53689 0.93624 0.0
C153 C 0.83743 0.55019 0.912 0.0
C154 C 0.87425 0.45189 0.14366 0.0
O155 O 0.87373 0.48931 0.14578 0.0
H156 H 0.78283 0.44589 0.86675 0.0
H157 H 0.90181 0.55824 0.95735 0.0
O158 O 0.86054 0.41513 0.821 0.0
H159 H 1.02857 0.5574 0.75248 0.0
H160 H 0.84385 0.58396 0.91183 0.0
Cu161 Cu 0.43927 0.8692 0.0893 0.0
N162 N 0.45897 0.92891 0.06174 0.0
N163 N 0.48862 1.00177 0.08276 0.0
C164 C 0.47347 0.96237 0.13084 0.0
C165 C 0.48357 0.99317 0.98019 0.0
C166 C 0.46506 0.94805 0.96752 0.0
O167 O 0.46264 0.86539 0.22381 0.0
C168 C 0.46338 0.84433 0.88942 0.0
O169 O 0.49224 0.83712 0.84153 0.0
H170 H 0.47424 0.95805 0.2139 0.0
H171 H 0.45749 0.93064 0.89437 0.0
N172 N 0.37712 0.83732 0.08848 0.0
N173 N 0.30687 0.78844 0.04943 0.0
C174 C 0.34852 0.79531 0.05788 0.0
C175 C 0.35229 0.85658 0.10281 0.0
C176 C 0.30898 0.82661 0.07862 0.0
C177 C 0.44408 0.86329 0.31031 0.0
O178 O 0.40613 0.86277 0.31242 0.0
H179 H 0.35861 0.77191 0.03359 0.0
H180 H 0.36536 0.89098 0.12384 0.0
O181 O 0.46712 0.84956 0.98764 0.0
H182 H 0.49291 1.0176 0.91913 0.0
H183 H 0.28165 0.83307 0.07841 0.0
Cu184 Cu 0.59163 0.42816 0.2558 0.0
N185 N 0.55162 0.44787 0.22824 0.0
N186 N 0.50849 0.47761 0.24925 0.0
C187 C 0.53272 0.46244 0.29733 0.0
C188 C 0.51199 0.47251 0.14668 0.0
C189 C 0.53857 0.45395 0.13402 0.0
O190 O 0.61882 0.45151 0.39031 0.0
C191 C 0.64062 0.45224 0.05593 0.0
O192 O 0.67669 0.48109 1.00804 0.0
H193 H 0.53783 0.46324 0.38039 0.0
H194 H 0.54837 0.44634 0.06088 0.0
N195 N 0.56137 0.36602 0.25497 0.0
N196 N 0.54002 0.29578 0.21594 0.0
C197 C 0.5748 0.33743 0.22442 0.0
C198 C 0.51726 0.34119 0.26923 0.0
C199 C 0.50394 0.29789 0.24506 0.0
C200 C 0.60237 0.43295 0.47681 0.0
O201 O 0.56494 0.395 0.47893 0.0
H202 H 0.60829 0.34752 0.2002 0.0
H203 H 0.49592 0.35425 0.29021 0.0
O204 O 0.63912 0.45599 0.15415 0.0
H205 H 0.4969 0.48186 0.08562 0.0
H206 H 0.47016 0.27056 0.24482 0.0
Cu207 Cu 0.18526 0.58086 0.42268 0.0
N208 N 0.12555 0.5408 0.39512 0.0
N209 N 0.05268 0.49756 0.41614 0.0
C210 C 0.09209 0.52182 0.46422 0.0
C211 C 0.06129 0.50114 0.31356 0.0
C212 C 0.10642 0.52778 0.3009 0.0
O213 O 0.18905 0.60804 0.55718 0.0
C214 C 0.21009 0.62983 0.22279 0.0
O215 O 0.21727 0.66587 0.17488 0.0
H216 H 0.0964 0.52689 0.54729 0.0
H217 H 0.12382 0.53765 0.22775 0.0
N218 N 0.21722 0.55068 0.42186 0.0
N219 N 0.26615 0.52938 0.38269 0.0
C220 C 0.25923 0.56412 0.39112 0.0
C221 C 0.19801 0.5066 0.4363 0.0
C222 C 0.22801 0.4933 0.41204 0.0
C223 C 0.19117 0.5916 0.64368 0.0
O224 O 0.19172 0.55419 0.64581 0.0
H225 H 0.28258 0.5976 0.3667 0.0
H226 H 0.16363 0.48525 0.45745 0.0
O227 O 0.20487 0.62834 0.32101 0.0
H228 H 0.03685 0.48606 0.2525 0.0
H229 H 0.22159 0.45954 0.41188 0.0
Cu230 Cu 0.62614 0.17427 0.5893 0.0
N231 N 0.60644 0.11456 0.56175 0.0
N232 N 0.57679 0.04171 0.58278 0.0
C233 C 0.59193 0.08111 0.63086 0.0
C234 C 0.58184 0.05031 0.4802 0.0
C235 C 0.60036 0.09543 0.46753 0.0
O236 O 0.60276 0.17809 0.72381 0.0
C237 C 0.60202 0.19914 0.38942 0.0
O238 O 0.57316 0.20633 0.34153 0.0
H239 H 0.59117 0.08542 0.71391 0.0
H240 H 0.60793 0.11284 0.39438 0.0
N241 N 0.68828 0.20616 0.58848 0.0
N242 N 0.75854 0.25504 0.54942 0.0
C243 C 0.71688 0.24817 0.55786 0.0
C244 C 0.71312 0.1869 0.60282 0.0
C245 C 0.75643 0.21687 0.57863 0.0
C246 C 0.62133 0.1802 0.81031 0.0
O247 O 0.65928 0.18073 0.81242 0.0
H248 H 0.70679 0.27156 0.53356 0.0
H249 H 0.70005 0.15251 0.62388 0.0
O250 O 0.59828 0.19391 0.48764 0.0
H251 H 0.57251 0.02588 0.41915 0.0
H252 H 0.78376 0.21041 0.57844 0.0
Cu253 Cu 0.47378 0.61532 0.75573 0.0
N254 N 0.51378 0.59559 0.72819 0.0
N255 N 0.55691 0.56584 0.74923 0.0
C256 C 0.53267 0.58102 0.7973 0.0
C257 C 0.5534 0.57094 0.64666 0.0
C258 C 0.52683 0.5895 0.63398 0.0
O259 O 0.44658 0.59197 0.89024 0.0
C260 C 0.42479 0.59123 0.55585 0.0
O261 O 0.38873 0.56238 0.50796 0.0
H262 H 0.52756 0.58023 0.88035 0.0
H263 H 0.51703 0.59711 0.56083 0.0
N264 N 0.50405 0.67745 0.75486 0.0
N265 N 0.5254 0.74769 0.71585 0.0
C266 C 0.49062 0.70605 0.72434 0.0
C267 C 0.54815 0.70227 0.76909 0.0
C268 C 0.56148 0.74558 0.74493 0.0
C269 C 0.46305 0.61052 0.97673 0.0
O270 O 0.5005 0.64845 0.97884 0.0
H271 H 0.45712 0.69596 0.70016 0.0
H272 H 0.5695 0.68921 0.79005 0.0
O273 O 0.42629 0.58748 0.65407 0.0
H274 H 0.5685 0.56159 0.58561 0.0
H275 H 0.59526 0.7729 0.74467 0.0
loop_
_geom_bond_atom_site_label_1
_geom_bond_atom_site_label_2
_geom_bond_distance
_geom_bond_site_symmetry_2
_ccdc_geom_bond_type
Cu0 N1 1.999 . S
Cu0 O6 1.974 1_554 S
Cu0 N11 1.985 . S
Cu0 O20 1.959 . S
N1 Cu0 1.999 . S
N1 C3 1.263 . S
N1 C5 1.389 . S
N2 C3 1.358 . S
N2 C4 1.400 . S
C3 N1 1.263 . S
C3 N2 1.358 . S
C3 H9 0.930 1_554 S
C4 N2 1.400 . S
C4 C5 1.351 . S
C4 H21 0.930 1_545 S
C5 N1 1.389 . S
C5 C4 1.351 . S
C5 H10 0.930 . S
O6 Cu0 1.974 1_556 S
O6 C16 1.282 . S
C7 O8 1.261 . S
C7 O20 1.251 . S
O8 C7 1.261 . S
H9 C3 0.930 1_556 S
H10 C5 0.930 . S
N11 Cu0 1.985 . S
N11 C13 1.335 . S
N11 C14 1.390 . S
N12 C13 1.345 . S
N12 C15 1.336 . S
C13 N11 1.335 . S
C13 N12 1.345 . S
C13 H18 0.930 . S
C14 N11 1.390 . S
C14 C15 1.346 . S
C14 H19 0.930 1_554 S
C15 N12 1.336 . S
C15 C14 1.346 . S
C15 H22 0.929 . S
C16 O6 1.282 . S
C16 O17 1.216 . S
O17 C16 1.216 . S
H18 C13 0.930 . S
H19 C14 0.930 1_556 S
O20 Cu0 1.959 . S
O20 C7 1.251 . S
H21 C4 0.930 1_565 S
H22 C15 0.929 . S
Cu23 N24 1.999 . S
Cu23 O29 1.974 . S
Cu23 N34 1.985 . S
Cu23 O43 1.959 . S
N24 Cu23 1.999 . S
N24 C26 1.263 . S
N24 C28 1.389 . S
N25 C26 1.358 . S
N25 C27 1.400 . S
C26 N24 1.263 . S
C26 N25 1.358 . S
C26 H32 0.930 . S
C27 N25 1.400 . S
C27 C28 1.351 . S
C27 H44 0.930 . S
C28 N24 1.389 . S
C28 C27 1.351 . S
C28 H33 0.930 . S
O29 Cu23 1.974 . S
O29 C39 1.282 . S
C30 O31 1.261 . S
C30 O43 1.251 . S
O31 C30 1.261 . S
H32 C26 0.930 . S
H33 C28 0.930 . S
N34 Cu23 1.985 . S
N34 C36 1.335 . S
N34 C37 1.390 . S
N35 C36 1.345 . S
N35 C38 1.336 . S
C36 N34 1.335 . S
C36 N35 1.345 . S
C36 H41 0.930 . S
C37 N34 1.390 . S
C37 C38 1.346 . S
C37 H42 0.930 . S
C38 N35 1.336 . S
C38 C37 1.346 . S
C38 H45 0.929 . S
C39 O29 1.282 . S
C39 O40 1.216 . S
O40 C39 1.216 . S
H41 C36 0.930 . S
H42 C37 0.930 . S
O43 Cu23 1.959 . S
O43 C30 1.251 . S
H44 C27 0.930 . S
H45 C38 0.929 . S
Cu46 N47 1.999 . S
Cu46 O52 1.974 . S
Cu46 N57 1.985 . S
Cu46 O66 1.959 . S
N47 Cu46 1.999 . S
N47 C49 1.263 . S
N47 C51 1.389 . S
N48 C49 1.358 . S
N48 C50 1.400 . S
C49 N47 1.263 . S
C49 N48 1.358 . S
C49 H55 0.930 . S
C50 N48 1.400 . S
C50 C51 1.351 . S
C50 H67 0.930 1_655 S
C51 N47 1.389 . S
C51 C50 1.351 . S
C51 H56 0.930 . S
O52 Cu46 1.974 . S
O52 C62 1.282 . S
C53 O54 1.261 . S
C53 O66 1.251 . S
O54 C53 1.261 . S
H55 C49 0.930 . S
H56 C51 0.930 . S
N57 Cu46 1.985 . S
N57 C59 1.335 . S
N57 C60 1.390 . S
N58 C59 1.345 . S
N58 C61 1.336 . S
C59 N57 1.335 . S
C59 N58 1.345 . S
C59 H64 0.930 . S
C60 N57 1.390 . S
C60 C61 1.346 . S
C60 H65 0.930 . S
C61 N58 1.336 . S
C61 C60 1.346 . S
C61 H68 0.929 . S
C62 O52 1.282 . S
C62 O63 1.216 . S
O63 C62 1.216 . S
H64 C59 0.930 . S
H65 C60 0.930 . S
O66 Cu46 1.959 . S
O66 C53 1.251 . S
H67 C50 0.930 1_455 S
H68 C61 0.929 . S
Cu69 N70 1.999 . S
Cu69 O75 1.974 . S
Cu69 N80 1.985 . S
Cu69 O89 1.959 . S
N70 Cu69 1.999 . S
N70 C72 1.263 . S
N70 C74 1.389 . S
N71 C72 1.358 . S
N71 C73 1.400 . S
C72 N70 1.263 . S
C72 N71 1.358 . S
C72 H78 0.930 . S
C73 N71 1.400 . S
C73 C74 1.351 . S
C73 H90 0.930 1_565 S
C74 N70 1.389 . S
C74 C73 1.351 . S
C74 H79 0.930 . S
O75 Cu69 1.974 . S
O75 C85 1.282 . S
C76 O77 1.261 . S
C76 O89 1.251 . S
O77 C76 1.261 . S
H78 C72 0.930 . S
H79 C74 0.930 . S
N80 Cu69 1.985 . S
N80 C82 1.335 . S
N80 C83 1.390 . S
N81 C82 1.345 . S
N81 C84 1.336 . S
C82 N80 1.335 . S
C82 N81 1.345 . S
C82 H87 0.930 . S
C83 N80 1.390 . S
C83 C84 1.346 . S
C83 H88 0.930 . S
C84 N81 1.336 . S
C84 C83 1.346 . S
C84 H91 0.929 . S
C85 O75 1.282 . S
C85 O86 1.216 . S
O86 C85 1.216 . S
H87 C82 0.930 . S
H88 C83 0.930 . S
O89 Cu69 1.959 . S
O89 C76 1.251 . S
H90 C73 0.930 1_545 S
H91 C84 0.929 . S
Cu92 N93 1.999 . S
Cu92 O98 1.974 . S
Cu92 N103 1.985 . S
Cu92 O112 1.959 . S
N93 Cu92 1.999 . S
N93 C95 1.263 . S
N93 C97 1.389 . S
N94 C95 1.358 . S
N94 C96 1.400 . S
C95 N93 1.263 . S
C95 N94 1.358 . S
C95 H101 0.930 . S
C96 N94 1.400 . S
C96 C97 1.351 . S
C96 H113 0.930 . S
C97 N93 1.389 . S
C97 C96 1.351 . S
C97 H102 0.930 . S
O98 Cu92 1.974 . S
O98 C108 1.282 . S
C99 O100 1.261 . S
C99 O112 1.251 . S
O100 C99 1.261 . S
H101 C95 0.930 . S
H102 C97 0.930 . S
N103 Cu92 1.985 . S
N103 C105 1.335 . S
N103 C106 1.390 . S
N104 C105 1.345 . S
N104 C107 1.336 . S
C105 N103 1.335 . S
C105 N104 1.345 . S
C105 H110 0.930 . S
C106 N103 1.390 . S
C106 C107 1.346 . S
C106 H111 0.930 . S
C107 N104 1.336 . S
C107 C106 1.346 . S
C107 H114 0.929 . S
C108 O98 1.282 . S
C108 O109 1.216 . S
O109 C108 1.216 . S
H110 C105 0.930 . S
H111 C106 0.930 . S
O112 Cu92 1.959 . S
O112 C99 1.251 . S
H113 C96 0.930 . S
H114 C107 0.929 . S
Cu115 N116 1.999 . S
Cu115 O121 1.974 . S
Cu115 N126 1.985 . S
Cu115 O135 1.959 1_556 S
N116 Cu115 1.999 . S
N116 C118 1.263 . S
N116 C120 1.389 1_556 S
N117 C118 1.358 . S
N117 C119 1.400 . S
C118 N116 1.263 . S
C118 N117 1.358 . S
C118 H124 0.930 . S
C119 N117 1.400 . S
C119 C120 1.351 1_556 S
C119 H136 0.930 1_456 S
C120 N116 1.389 1_554 S
C120 C119 1.351 1_554 S
C120 H125 0.930 . S
O121 Cu115 1.974 . S
O121 C131 1.282 . S
C122 O123 1.261 . S
C122 O135 1.251 . S
O123 C122 1.261 . S
H124 C118 0.930 . S
H125 C120 0.930 . S
N126 Cu115 1.985 . S
N126 C128 1.335 . S
N126 C129 1.390 . S
N127 C128 1.345 . S
N127 C130 1.336 . S
C128 N126 1.335 . S
C128 N127 1.345 . S
C128 H133 0.930 1_556 S
C129 N126 1.390 . S
C129 C130 1.346 . S
C129 H134 0.930 . S
C130 N127 1.336 . S
C130 C129 1.346 . S
C130 H137 0.929 . S
C131 O121 1.282 . S
C131 O132 1.216 . S
O132 C131 1.216 . S
H133 C128 0.930 1_554 S
H134 C129 0.930 . S
O135 Cu115 1.959 1_554 S
O135 C122 1.251 . S
H136 C119 0.930 1_654 S
H137 C130 0.929 . S
Cu138 N139 1.999 . S
Cu138 O144 1.974 1_556 S
Cu138 N149 1.985 . S
Cu138 O158 1.959 . S
N139 Cu138 1.999 . S
N139 C141 1.263 . S
N139 C143 1.389 . S
N140 C141 1.358 . S
N140 C142 1.400 . S
C141 N139 1.263 . S
C141 N140 1.358 . S
C141 H147 0.930 1_556 S
C142 N140 1.400 . S
C142 C143 1.351 . S
C142 H159 0.930 1_655 S
C143 N139 1.389 . S
C143 C142 1.351 . S
C143 H148 0.930 . S
O144 Cu138 1.974 1_554 S
O144 C154 1.282 . S
C145 O146 1.261 . S
C145 O158 1.251 . S
O146 C145 1.261 . S
H147 C141 0.930 1_554 S
H148 C143 0.930 . S
N149 Cu138 1.985 . S
N149 C151 1.335 . S
N149 C152 1.390 . S
N150 C151 1.345 . S
N150 C153 1.336 . S
C151 N149 1.335 . S
C151 N150 1.345 . S
C151 H156 0.930 . S
C152 N149 1.390 . S
C152 C153 1.346 . S
C152 H157 0.930 1_556 S
C153 N150 1.336 . S
C153 C152 1.346 . S
C153 H160 0.929 . S
C154 O144 1.282 . S
C154 O155 1.216 . S
O155 C154 1.216 . S
H156 C151 0.930 . S
H157 C152 0.930 1_554 S
O158 Cu138 1.959 . S
O158 C145 1.251 . S
H159 C142 0.930 1_455 S
H160 C153 0.929 . S
Cu161 N162 1.999 . S
Cu161 O167 1.974 . S
Cu161 N172 1.985 . S
Cu161 O181 1.959 1_554 S
N162 Cu161 1.999 . S
N162 C164 1.263 . S
N162 C166 1.389 1_554 S
N163 C164 1.358 . S
N163 C165 1.400 . S
C164 N162 1.263 . S
C164 N163 1.358 . S
C164 H170 0.930 . S
C165 N163 1.400 . S
C165 C166 1.351 1_554 S
C165 H182 0.930 1_564 S
C166 N162 1.389 1_556 S
C166 C165 1.351 1_556 S
C166 H171 0.930 . S
O167 Cu161 1.974 . S
O167 C177 1.282 . S
C168 O169 1.261 . S
C168 O181 1.251 . S
O169 C168 1.261 . S
H170 C164 0.930 . S
H171 C166 0.930 . S
N172 Cu161 1.985 . S
N172 C174 1.335 1_554 S
N172 C175 1.390 . S
N173 C174 1.345 1_554 S
N173 C176 1.336 . S
C174 N172 1.335 1_556 S
C174 N173 1.345 1_556 S
C174 H179 0.930 . S
C175 N172 1.390 . S
C175 C176 1.346 . S
C175 H180 0.930 . S
C176 N173 1.336 . S
C176 C175 1.346 . S
C176 H183 0.929 . S
C177 O167 1.282 . S
C177 O178 1.216 . S
O178 C177 1.216 . S
H179 C174 0.930 . S
H180 C175 0.930 . S
O181 Cu161 1.959 1_556 S
O181 C168 1.251 . S
H182 C165 0.930 1_546 S
H183 C176 0.929 . S
Cu184 N185 1.999 . S
Cu184 O190 1.974 . S
Cu184 N195 1.985 . S
Cu184 O204 1.959 . S
N185 Cu184 1.999 . S
N185 C187 1.263 . S
N185 C189 1.389 . S
N186 C187 1.358 . S
N186 C188 1.400 . S
C187 N185 1.263 . S
C187 N186 1.358 . S
C187 H193 0.930 . S
C188 N186 1.400 . S
C188 C189 1.351 . S
C188 H205 0.930 . S
C189 N185 1.389 . S
C189 C188 1.351 . S
C189 H194 0.930 . S
O190 Cu184 1.974 . S
O190 C200 1.282 . S
C191 O192 1.261 . S
C191 O204 1.251 . S
O192 C191 1.261 . S
H193 C187 0.930 . S
H194 C189 0.930 . S
N195 Cu184 1.985 . S
N195 C197 1.335 . S
N195 C198 1.390 . S
N196 C197 1.345 . S
N196 C199 1.336 . S
C197 N195 1.335 . S
C197 N196 1.345 . S
C197 H202 0.930 . S
C198 N195 1.390 . S
C198 C199 1.346 . S
C198 H203 0.930 . S
C199 N196 1.336 . S
C199 C198 1.346 . S
C199 H206 0.929 . S
C200 O190 1.282 . S
C200 O201 1.216 . S
O201 C200 1.216 . S
H202 C197 0.930 . S
H203 C198 0.930 . S
O204 Cu184 1.959 . S
O204 C191 1.251 . S
H205 C188 0.930 . S
H206 C199 0.929 . S
Cu207 N208 1.999 . S
Cu207 O213 1.974 . S
Cu207 N218 1.985 . S
Cu207 O227 1.959 . S
N208 Cu207 1.999 . S
N208 C210 1.263 . S
N208 C212 1.389 . S
N209 C210 1.358 . S
N209 C211 1.400 . S
C210 N208 1.263 . S
C210 N209 1.358 . S
C210 H216 0.930 . S
C211 N209 1.400 . S
C211 C212 1.351 . S
C211 H228 0.930 1_455 S
C212 N208 1.389 . S
C212 C211 1.351 . S
C212 H217 0.930 . S
O213 Cu207 1.974 . S
O213 C223 1.282 . S
C214 O215 1.261 . S
C214 O227 1.251 . S
O215 C214 1.261 . S
H216 C210 0.930 . S
H217 C212 0.930 . S
N218 Cu207 1.985 . S
N218 C220 1.335 . S
N218 C221 1.390 . S
N219 C220 1.345 . S
N219 C222 1.336 . S
C220 N218 1.335 . S
C220 N219 1.345 . S
C220 H225 0.930 . S
C221 N218 1.390 . S
C221 C222 1.346 . S
C221 H226 0.930 . S
C222 N219 1.336 . S
C222 C221 1.346 . S
C222 H229 0.929 . S
C223 O213 1.282 . S
C223 O224 1.216 . S
O224 C223 1.216 . S
H225 C220 0.930 . S
H226 C221 0.930 . S
O227 Cu207 1.959 . S
O227 C214 1.251 . S
H228 C211 0.930 1_655 S
H229 C222 0.929 . S
Cu230 N231 1.999 . S
Cu230 O236 1.974 . S
Cu230 N241 1.985 . S
Cu230 O250 1.959 . S
N231 Cu230 1.999 . S
N231 C233 1.263 . S
N231 C235 1.389 . S
N232 C233 1.358 . S
N232 C234 1.400 . S
C233 N231 1.263 . S
C233 N232 1.358 . S
C233 H239 0.930 . S
C234 N232 1.400 . S
C234 C235 1.351 . S
C234 H251 0.930 1_545 S
C235 N231 1.389 . S
C235 C234 1.351 . S
C235 H240 0.930 . S
O236 Cu230 1.974 . S
O236 C246 1.282 . S
C237 O238 1.261 . S
C237 O250 1.251 . S
O238 C237 1.261 . S
H239 C233 0.930 . S
H240 C235 0.930 . S
N241 Cu230 1.985 . S
N241 C243 1.335 . S
N241 C244 1.390 . S
N242 C243 1.345 . S
N242 C245 1.336 . S
C243 N241 1.335 . S
C243 N242 1.345 . S
C243 H248 0.930 . S
C244 N241 1.390 . S
C244 C245 1.346 . S
C244 H249 0.930 . S
C245 N242 1.336 . S
C245 C244 1.346 . S
C245 H252 0.929 . S
C246 O236 1.282 . S
C246 O247 1.216 . S
O247 C246 1.216 . S
H248 C243 0.930 . S
H249 C244 0.930 . S
O250 Cu230 1.959 . S
O250 C237 1.251 . S
H251 C234 0.930 1_565 S
H252 C245 0.929 . S
Cu253 N254 1.999 . S
Cu253 O259 1.974 . S
Cu253 N264 1.985 . S
Cu253 O273 1.959 . S
N254 Cu253 1.999 . S
N254 C256 1.263 . S
N254 C258 1.389 . S
N255 C256 1.358 . S
N255 C257 1.400 . S
C256 N254 1.263 . S
C256 N255 1.358 . S
C256 H262 0.930 . S
C257 N255 1.400 . S
C257 C258 1.351 . S
C257 H274 0.930 . S
C258 N254 1.389 . S
C258 C257 1.351 . S
C258 H263 0.930 . S
O259 Cu253 1.974 . S
O259 C269 1.282 . S
C260 O261 1.261 . S
C260 O273 1.251 . S
O261 C260 1.261 . S
H262 C256 0.930 . S
H263 C258 0.930 . S
N264 Cu253 1.985 . S
N264 C266 1.335 . S
N264 C267 1.390 . S
N265 C266 1.345 . S
N265 C268 1.336 . S
C266 N264 1.335 . S
C266 N265 1.345 . S
C266 H271 0.930 . S
C267 N264 1.390 . S
C267 C268 1.346 . S
C267 H272 0.930 . S
C268 N265 1.336 . S
C268 C267 1.346 . S
C268 H275 0.929 . S
C269 O259 1.282 . S
C269 O270 1.216 . S
O270 C269 1.216 . S
H271 C266 0.930 . S
H272 C267 0.930 . S
O273 Cu253 1.959 . S
O273 C260 1.251 . S
H274 C257 0.930 . S
H275 C268 0.929 . S
C7 C237 1.391 . S
C30 C260 1.392 . S
C145 C53 1.392 . S
C76 C168 1.392 . S
C191 C99 1.392 1_554 S
C214 C122 1.392 . S
N196 N12 1.776 . S
N35 N219 1.776 . S
N242 N58 1.775 . S
N81 N265 1.775 . S
N104 N150 1.775 . S
N127 N173 1.775 1_556 S
C246 C16 2.061 . S
C269 C39 2.061 1_556 S
C154 C62 2.061 . S
C85 C177 2.061 . S
C108 C200 2.061 . S
C223 C131 2.061 . S
N2 N163 1.654 1_545 S
N186 N25 1.655 . S
N209 N48 1.654 1_455 S
N71 N232 1.654 1_565 S
N94 N255 1.654 . S
N117 N140 1.654 1_455 S
