# Generated by pormake.
# Topology crs, (6)-cn, num edge types: 1
# Building blocks:
#     Node 0, Type 0, BuildingBlock: NUHQIS_clean_sbu_0, # of connection points: 6
#     Node 1, Type 0, BuildingBlock: NUHQIS_clean_sbu_0, # of connection points: 6
#     Node 2, Type 0, BuildingBlock: NUHQIS_clean_sbu_0, # of connection points: 6
#     Node 3, Type 0, BuildingBlock: NUHQIS_clean_sbu_0, # of connection points: 6
#     Node 4, Type 0, BuildingBlock: NUHQIS_clean_sbu_0, # of connection points: 6
#     Node 5, Type 0, BuildingBlock: NUHQIS_clean_sbu_0, # of connection points: 6
#     Node 6, Type 0, BuildingBlock: NUHQIS_clean_sbu_0, # of connection points: 6
#     Node 7, Type 0, BuildingBlock: NUHQIS_clean_sbu_0, # of connection points: 6
#     Node 8, Type 0, BuildingBlock: NUHQIS_clean_sbu_0, # of connection points: 6
#     Node 9, Type 0, BuildingBlock: NUHQIS_clean_sbu_0, # of connection points: 6
#     Node 10, Type 0, BuildingBlock: NUHQIS_clean_sbu_0, # of connection points: 6
#     Node 11, Type 0, BuildingBlock: NUHQIS_clean_sbu_0, # of connection points: 6
#     Node 12, Type 0, BuildingBlock: NUHQIS_clean_sbu_0, # of connection points: 6
#     Node 13, Type 0, BuildingBlock: NUHQIS_clean_sbu_0, # of connection points: 6
#     Node 14, Type 0, BuildingBlock: NUHQIS_clean_sbu_0, # of connection points: 6
#     Node 15, Type 0, BuildingBlock: NUHQIS_clean_sbu_0, # of connection points: 6
#     Edge 16, Type (0, 0), BuildingBlock: KIFKEQ_clean_linker_1, # of connection points: 2
#     Edge 17, Type (0, 0), BuildingBlock: KIFKEQ_clean_linker_1, # of connection points: 2
#     Edge 18, Type (0, 0), BuildingBlock: KIFKEQ_clean_linker_1, # of connection points: 2
#     Edge 19, Type (0, 0), BuildingBlock: KIFKEQ_clean_linker_1, # of connection points: 2
#     Edge 20, Type (0, 0), BuildingBlock: KIFKEQ_clean_linker_1, # of connection points: 2
#     Edge 21, Type (0, 0), BuildingBlock: KIFKEQ_clean_linker_1, # of connection points: 2
#     Edge 22, Type (0, 0), BuildingBlock: KIFKEQ_clean_linker_1, # of connection points: 2
#     Edge 23, Type (0, 0), BuildingBlock: KIFKEQ_clean_linker_1, # of connection points: 2
#     Edge 24, Type (0, 0), BuildingBlock: KIFKEQ_clean_linker_1, # of connection points: 2
#     Edge 25, Type (0, 0), BuildingBlock: KIFKEQ_clean_linker_1, # of connection points: 2
#     Edge 26, Type (0, 0), BuildingBlock: KIFKEQ_clean_linker_1, # of connection points: 2
#     Edge 27, Type (0, 0), BuildingBlock: KIFKEQ_clean_linker_1, # of connection points: 2
#     Edge 28, Type (0, 0), BuildingBlock: KIFKEQ_clean_linker_1, # of connection points: 2
#     Edge 29, Type (0, 0), BuildingBlock: KIFKEQ_clean_linker_1, # of connection points: 2
#     Edge 30, Type (0, 0), BuildingBlock: KIFKEQ_clean_linker_1, # of connection points: 2
#     Edge 31, Type (0, 0), BuildingBlock: KIFKEQ_clean_linker_1, # of connection points: 2
#     Edge 32, Type (0, 0), BuildingBlock: KIFKEQ_clean_linker_1, # of connection points: 2
#     Edge 33, Type (0, 0), BuildingBlock: KIFKEQ_clean_linker_1, # of connection points: 2
#     Edge 34, Type (0, 0), BuildingBlock: KIFKEQ_clean_linker_1, # of connection points: 2
#     Edge 35, Type (0, 0), BuildingBlock: KIFKEQ_clean_linker_1, # of connection points: 2
#     Edge 36, Type (0, 0), BuildingBlock: KIFKEQ_clean_linker_1, # of connection points: 2
#     Edge 37, Type (0, 0), BuildingBlock: KIFKEQ_clean_linker_1, # of connection points: 2
#     Edge 38, Type (0, 0), BuildingBlock: KIFKEQ_clean_linker_1, # of connection points: 2
#     Edge 39, Type (0, 0), BuildingBlock: KIFKEQ_clean_linker_1, # of connection points: 2
#     Edge 40, Type (0, 0), BuildingBlock: KIFKEQ_clean_linker_1, # of connection points: 2
#     Edge 41, Type (0, 0), BuildingBlock: KIFKEQ_clean_linker_1, # of connection points: 2
#     Edge 42, Type (0, 0), BuildingBlock: KIFKEQ_clean_linker_1, # of connection points: 2
#     Edge 43, Type (0, 0), BuildingBlock: KIFKEQ_clean_linker_1, # of connection points: 2
#     Edge 44, Type (0, 0), BuildingBlock: KIFKEQ_clean_linker_1, # of connection points: 2
#     Edge 45, Type (0, 0), BuildingBlock: KIFKEQ_clean_linker_1, # of connection points: 2
#     Edge 46, Type (0, 0), BuildingBlock: KIFKEQ_clean_linker_1, # of connection points: 2
#     Edge 47, Type (0, 0), BuildingBlock: KIFKEQ_clean_linker_1, # of connection points: 2
#     Edge 48, Type (0, 0), BuildingBlock: KIFKEQ_clean_linker_1, # of connection points: 2
#     Edge 49, Type (0, 0), BuildingBlock: KIFKEQ_clean_linker_1, # of connection points: 2
#     Edge 50, Type (0, 0), BuildingBlock: KIFKEQ_clean_linker_1, # of connection points: 2
#     Edge 51, Type (0, 0), BuildingBlock: KIFKEQ_clean_linker_1, # of connection points: 2
#     Edge 52, Type (0, 0), BuildingBlock: KIFKEQ_clean_linker_1, # of connection points: 2
#     Edge 53, Type (0, 0), BuildingBlock: KIFKEQ_clean_linker_1, # of connection points: 2
#     Edge 54, Type (0, 0), BuildingBlock: KIFKEQ_clean_linker_1, # of connection points: 2
#     Edge 55, Type (0, 0), BuildingBlock: KIFKEQ_clean_linker_1, # of connection points: 2
#     Edge 56, Type (0, 0), BuildingBlock: KIFKEQ_clean_linker_1, # of connection points: 2
#     Edge 57, Type (0, 0), BuildingBlock: KIFKEQ_clean_linker_1, # of connection points: 2
#     Edge 58, Type (0, 0), BuildingBlock: KIFKEQ_clean_linker_1, # of connection points: 2
#     Edge 59, Type (0, 0), BuildingBlock: KIFKEQ_clean_linker_1, # of connection points: 2
#     Edge 60, Type (0, 0), BuildingBlock: KIFKEQ_clean_linker_1, # of connection points: 2
#     Edge 61, Type (0, 0), BuildingBlock: KIFKEQ_clean_linker_1, # of connection points: 2
#     Edge 62, Type (0, 0), BuildingBlock: KIFKEQ_clean_linker_1, # of connection points: 2
#     Edge 63, Type (0, 0), BuildingBlock: KIFKEQ_clean_linker_1, # of connection points: 2
# Relax obj value: 0.459
# Max RMSD: 0.362
# Mean RMSD: 0.311
data_MOF--net-crs--node1-NUHQIS_clean_sbu_0--edge1-KIFKEQ_clean_linker_1
_symmetry_space_group_name_H-M    P1
_symmetry_Int_Tables_number       1
_symmetry_cell_setting            triclinic
loop_
_symmetry_equiv_pos_as_xyz
'x, y, z'
_cell_length_a     51.840119
_cell_length_b     58.538384
_cell_length_c     45.095316
_cell_angle_alpha  75.488692
_cell_angle_beta   76.451854
_cell_angle_gamma 66.917125
loop_
_atom_site_label
_atom_site_type_symbol
_atom_site_fract_x
_atom_site_fract_y
_atom_site_fract_z
_atom_type_partial_charge
Tb0 Tb 0.97967 1.00036 0.03893 0.0
Eu1 Eu -0.01751 0.04063 0.97308 0.0
C2 C 0.03528 1.01162 1.00851 0.0
C3 C 0.97248 0.05631 0.03999 0.0
C4 C 0.96159 0.94982 0.09157 0.0
C5 C 0.95245 0.9116 0.11826 0.0
C6 C 0.96593 0.92881 0.11557 0.0
C7 C 0.94341 0.95372 0.07073 0.0
C8 C 0.93018 0.93663 0.07324 0.0
C9 C 0.9349 0.91519 0.09668 0.0
C10 C 0.9775 0.96677 0.0859 0.0
O11 O 0.93548 0.02104 0.03291 0.0
O12 O 0.94038 0.03639 0.98038 0.0
O13 O -0.00191 1.00171 0.96113 0.0
O14 O 0.97382 0.98419 1.00371 0.0
C15 C 0.92495 0.03125 1.00689 0.0
O16 O 0.9636 0.07558 0.9419 0.0
O17 O 0.00599 0.0501 0.92783 0.0
O18 O 0.0207 0.03352 0.9937 0.0
O19 O 0.0242 0.99403 0.02043 0.0
O20 O -0.01784 0.03235 0.0529 0.0
O21 O 0.96673 0.06353 1.01144 0.0
C22 C -0.01244 0.98406 0.97536 0.0
O23 O -0.00216 0.96342 0.06234 0.0
O24 O 0.96207 0.99061 0.08514 0.0
C25 C -0.00186 0.09329 0.91468 0.0
C26 C 0.02761 0.12655 0.90501 0.0
C27 C 0.00782 0.12481 0.93193 0.0
C28 C -0.00666 0.10822 0.93682 0.0
C29 C 0.01672 0.09597 0.88703 0.0
C30 C 0.03142 0.11245 0.88223 0.0
C31 C -0.01295 0.07264 0.92213 0.0
H32 H 0.9564 0.89518 0.13653 0.0
H33 H 0.98012 0.92544 0.13169 0.0
H34 H 0.93998 0.96975 0.05197 0.0
H35 H 0.91637 0.94013 0.05664 0.0
H36 H 0.00477 0.13515 0.95008 0.0
H37 H 0.97945 0.1062 0.95859 0.0
H38 H 0.02085 0.08445 0.86982 0.0
H39 H 0.04647 0.11355 0.86121 0.0
Tb40 Tb -0.0001 0.27398 0.28404 0.0
Eu41 Eu 0.96399 0.2592 0.24347 0.0
C42 C 0.0203 0.21859 0.27036 0.0
C43 C 0.01763 0.27429 0.21178 0.0
C44 C 0.02092 0.30421 0.33461 0.0
C45 C 0.03887 0.32488 0.3612 0.0
C46 C 0.0437 0.30724 0.34272 0.0
C47 C -0.00693 0.31885 0.34554 0.0
C48 C -0.01183 0.33651 0.36416 0.0
C49 C 0.01105 0.33988 0.37206 0.0
C50 C 0.02687 0.28695 0.31308 0.0
O51 O 0.95973 0.30537 0.28227 0.0
O52 O 0.94739 0.30173 0.23829 0.0
O53 O 0.9374 0.2654 0.28952 0.0
O54 O 0.97234 0.25675 0.31826 0.0
C55 C 0.945 0.31498 0.25914 0.0
O56 O 0.94822 0.2632 0.2009 0.0
O57 O 0.9373 0.23847 0.24239 0.0
O58 O -0.00499 0.2226 0.2646 0.0
O59 O 0.02764 0.23702 0.27311 0.0
O60 O 0.01336 0.2858 0.23498 0.0
O61 O 0.0046 0.25895 0.21261 0.0
C62 C 0.94659 0.25886 0.31621 0.0
O63 O 0.01888 0.26751 0.32337 0.0
O64 O 0.02106 0.2977 0.28529 0.0
C65 C 0.94113 0.2271 0.19446 0.0
C66 C 0.94958 0.18945 0.16065 0.0
C67 C 0.92283 0.20094 0.17742 0.0
C68 C 0.91868 0.21958 0.1941 0.0
C69 C 0.96792 0.21573 0.17782 0.0
C70 C 0.97207 0.19713 0.16093 0.0
C71 C 0.93612 0.24644 0.21284 0.0
H72 H 0.05703 0.3272 0.36623 0.0
H73 H 0.06534 0.29631 0.33419 0.0
H74 H 0.97519 0.31685 0.33933 0.0
H75 H 0.96648 0.34751 0.37235 0.0
H76 H 0.90498 0.19571 0.1774 0.0
H77 H 0.89786 0.22812 0.20682 0.0
H78 H -0.01437 0.22111 0.17802 0.0
H79 H -0.007 0.18847 0.14853 0.0
Tb80 Tb 0.73905 0.27353 0.53548 0.0
Eu81 Eu 0.72354 0.25367 0.4825 0.0
C82 C 0.67687 0.27759 0.5361 0.0
C83 C 0.73347 0.2178 0.55031 0.0
C84 C 0.76974 0.29864 0.58136 0.0
C85 C 0.79297 0.30833 0.61486 0.0
C86 C 0.77291 0.29932 0.61106 0.0
C87 C 0.78686 0.30697 0.55536 0.0
C88 C 0.80689 0.31608 0.55911 0.0
C89 C 0.81017 0.31685 0.58894 0.0
C90 C 0.74911 0.28847 0.57801 0.0
O91 O 0.78089 0.25634 0.51017 0.0
O92 O 0.76954 0.24791 0.46852 0.0
O93 O 0.71746 0.29546 0.46454 0.0
O94 O 0.74426 0.30162 0.49348 0.0
C95 C 0.78795 0.24872 0.48342 0.0
O96 O 0.73105 0.22729 0.45207 0.0
O97 O 0.69621 0.2633 0.44788 0.0
O98 O 0.686 0.25952 0.51995 0.0
O99 O 0.69319 0.28958 0.5373 0.0
O100 O 0.73242 0.23775 0.56008 0.0
O101 O 0.73342 0.21874 0.52072 0.0
C102 C 0.73072 0.3091 0.46932 0.0
O103 O 0.73089 0.30274 0.55938 0.0
O104 O 0.75954 0.26512 0.57391 0.0
C105 C 0.69076 0.22993 0.4333 0.0
C106 C 0.65338 0.20965 0.42295 0.0
C107 C 0.66227 0.22718 0.39966 0.0
C108 C 0.68085 0.2372 0.40481 0.0
C109 C 0.68206 0.21241 0.45669 0.0
C110 C 0.66357 0.20221 0.45147 0.0
C111 C 0.70917 0.24179 0.43827 0.0
H112 H 0.79525 0.3083 0.63814 0.0
H113 H 0.75999 0.29271 0.63136 0.0
H114 H 0.78474 0.30641 0.53224 0.0
H115 H 0.81956 0.32279 0.53866 0.0
H116 H 0.655 0.23301 0.37737 0.0
H117 H 0.68734 0.2508 0.38659 0.0
H118 H 0.68933 0.20683 0.47896 0.0
H119 H 0.65683 0.18889 0.46989 0.0
Tb120 Tb 0.72144 1.00458 0.74013 0.0
Eu121 Eu 0.73914 0.02729 0.78827 0.0
C122 C 0.78489 0.98226 0.7547 0.0
C123 C 0.72797 0.97428 0.81189 0.0
C124 C 0.69624 0.99111 0.67702 0.0
C125 C 0.68373 0.97761 0.6376 0.0
C126 C 0.6943 0.97199 0.66527 0.0
C127 C 0.68767 0.01601 0.66081 0.0
C128 C 0.67697 0.0217 0.63304 0.0
C129 C 0.67495 1.0025 0.62116 0.0
C130 C 0.70845 0.98425 0.70549 0.0
O131 O 0.68565 0.03888 0.74764 0.0
O132 O 0.69176 0.03897 0.79587 0.0
O133 O 0.74049 0.05467 0.74196 0.0
O134 O 0.72635 0.039 0.70903 0.0
C135 C 0.67625 0.04745 0.77374 0.0
O136 O 0.72452 0.04692 0.82736 0.0
O137 O 0.76711 0.04131 0.80213 0.0
O138 O 0.77844 0.99408 0.77805 0.0
O139 O 0.76725 0.98746 0.73529 0.0
O140 O 0.71794 0.97887 0.78562 0.0
O141 O 0.73877 0.98956 0.81732 0.0
C142 C 0.73412 0.05638 0.71455 0.0
O143 O 0.73316 0.98623 0.7022 0.0
O144 O 0.69158 0.99281 0.72982 0.0
C145 C 0.75855 0.04562 0.8547 0.0
C146 C 0.77626 0.03932 0.91147 0.0
C147 C 0.77236 0.06208 0.89013 0.0
C148 C 0.76354 0.06517 0.86206 0.0
C149 C 0.76219 0.02285 0.87579 0.0
C150 C 0.77107 0.01969 0.90405 0.0
C151 C 0.74844 0.05003 0.82541 0.0
H152 H 0.68185 0.9625 0.62947 0.0
H153 H 0.70096 0.95267 0.67754 0.0
H154 H 0.68932 0.03093 0.66958 0.0
H155 H 0.67041 0.04103 0.62082 0.0
H156 H 0.77689 0.07733 0.89467 0.0
H157 H 0.76072 0.08288 0.84598 0.0
H158 H 0.75819 1.00762 0.8704 0.0
H159 H 0.77394 1.00195 0.92001 0.0
Tb160 Tb 0.49664 0.76988 0.28315 0.0
Eu161 Eu 0.4624 0.75885 0.23718 0.0
C162 C 0.51813 0.71581 0.26405 0.0
C163 C 0.51461 0.77692 0.2108 0.0
C164 C 0.51953 0.80243 0.32892 0.0
C165 C 0.53888 0.82033 0.35772 0.0
C166 C 0.54043 0.8 0.34552 0.0
C167 C 0.49736 0.82575 0.32388 0.0
C168 C 0.49577 0.84616 0.33609 0.0
C169 C 0.51628 0.84357 0.35363 0.0
C170 C 0.52027 0.77999 0.31897 0.0
O171 O 0.45773 0.80264 0.27957 0.0
O172 O 0.44609 0.80116 0.23396 0.0
O173 O 0.43603 0.7625 0.28383 0.0
O174 O 0.47295 0.74624 0.31116 0.0
C175 C 0.44368 0.81335 0.25594 0.0
O176 O 0.44936 0.76354 0.19267 0.0
O177 O 0.43406 0.7407 0.23333 0.0
O178 O 0.4941 0.72101 0.25426 0.0
O179 O 0.52432 0.73287 0.27241 0.0
O180 O 0.50906 0.78692 0.23572 0.0
O181 O 0.50329 0.76089 0.20923 0.0
C182 C 0.44631 0.75105 0.30965 0.0
O183 O 0.49718 0.77467 0.32751 0.0
O184 O 0.53113 0.77737 0.29035 0.0
C185 C 0.44068 0.72855 0.18536 0.0
C186 C 0.44971 0.68992 0.15283 0.0
C187 C 0.42204 0.70514 0.16383 0.0
C188 C 0.41761 0.72425 0.17987 0.0
C189 C 0.46836 0.71343 0.17466 0.0
C190 C 0.47285 0.69433 0.15845 0.0
C191 C 0.43533 0.74814 0.20342 0.0
H192 H 0.55531 0.81776 0.3706 0.0
H193 H 0.55772 0.78217 0.34962 0.0
H194 H 0.48093 0.82799 0.31117 0.0
H195 H 0.47796 0.86368 0.33268 0.0
H196 H 0.40372 0.70203 0.16053 0.0
H197 H 0.3961 0.73554 0.1883 0.0
H198 H 0.48648 0.71633 0.17894 0.0
H199 H 0.49442 0.68318 0.1501 0.0
Tb200 Tb 0.24882 0.76972 0.53925 0.0
Eu201 Eu 0.22379 0.75436 0.4902 0.0
C202 C 0.18367 0.77728 0.54926 0.0
C203 C 0.23792 0.71656 0.55549 0.0
C204 C 0.28746 0.79289 0.57928 0.0
C205 C 0.30815 0.80789 0.60994 0.0
C206 C 0.28917 0.797 0.60791 0.0
C207 C 0.30467 0.80003 0.55249 0.0
C208 C 0.32374 0.81091 0.55448 0.0
C209 C 0.32578 0.81482 0.58329 0.0
C210 C 0.26857 0.78003 0.57828 0.0
O211 O 0.28273 0.76301 0.5004 0.0
O212 O 0.27134 0.7358 0.48198 0.0
O213 O 0.23422 0.78927 0.46405 0.0
O214 O 0.23547 0.80541 0.50484 0.0
C215 C 0.28958 0.74573 0.48347 0.0
O216 O 0.22527 0.72674 0.46456 0.0
O217 O 0.19655 0.76541 0.45498 0.0
O218 O 0.18494 0.77602 0.52029 0.0
O219 O 0.20651 0.7717 0.56132 0.0
O220 O 0.25362 0.72934 0.55716 0.0
O221 O 0.22153 0.72474 0.53379 0.0
C222 C 0.23434 0.80811 0.47498 0.0
O223 O 0.2444 0.79416 0.56874 0.0
O224 O 0.28055 0.75945 0.5665 0.0
C225 C 0.18344 0.73378 0.44604 0.0
C226 C 0.14256 0.71569 0.4394 0.0
C227 C 0.16157 0.7216 0.41355 0.0
C228 C 0.18183 0.73057 0.41688 0.0
C229 C 0.16437 0.72826 0.47191 0.0
C230 C 0.14403 0.71929 0.46862 0.0
C231 C 0.20531 0.74272 0.44885 0.0
H232 H 0.30943 0.81039 0.63248 0.0
H233 H 0.2761 0.79142 0.62882 0.0
H234 H 0.30356 0.79694 0.53018 0.0
H235 H 0.33678 0.81637 0.53349 0.0
H236 H 0.16074 0.71935 0.39071 0.0
H237 H 0.19637 0.73488 0.39667 0.0
H238 H 0.16541 0.73066 0.49461 0.0
H239 H 0.12989 0.71463 0.48902 0.0
Tb240 Tb 0.22113 0.50514 0.74454 0.0
Eu241 Eu 0.24134 0.52599 0.79234 0.0
C242 C 0.28402 0.47927 0.76095 0.0
C243 C 0.22589 0.47487 0.81517 0.0
C244 C 0.19735 0.49205 0.67913 0.0
C245 C 0.18373 0.47674 0.64237 0.0
C246 C 0.1934 0.47261 0.67019 0.0
C247 C 0.19171 0.51581 0.65988 0.0
C248 C 0.18187 0.52003 0.63186 0.0
C249 C 0.17787 0.50045 0.62282 0.0
C250 C 0.20858 0.48628 0.70802 0.0
O251 O 0.1862 0.53986 0.75202 0.0
O252 O 0.19363 0.54015 0.7997 0.0
O253 O 0.23753 0.55668 0.74918 0.0
O254 O 0.2349 0.53591 0.71355 0.0
C255 C 0.17769 0.54877 0.77788 0.0
O256 O 0.22806 0.5426 0.83389 0.0
O257 O 0.27038 0.53741 0.80843 0.0
O258 O 0.28241 0.49895 0.77114 0.0
O259 O 0.26189 0.47754 0.75383 0.0
O260 O 0.21225 0.48229 0.79091 0.0
O261 O 0.2411 0.48734 0.81847 0.0
C262 C 0.23707 0.55584 0.72034 0.0
O263 O 0.23332 0.48807 0.7055 0.0
O264 O 0.19099 0.49509 0.7319 0.0
C265 C 0.26357 0.53454 0.86337 0.0
C266 C 0.284 0.52165 0.92021 0.0
C267 C 0.25513 0.53536 0.9185 0.0
C268 C 0.24507 0.54183 0.89032 0.0
C269 C 0.29217 0.5198 0.86529 0.0
C270 C 0.30228 0.51343 0.89346 0.0
C271 C 0.25277 0.5436 0.83351 0.0
H272 H 0.18014 0.46146 0.63659 0.0
H273 H 0.19775 0.45416 0.68483 0.0
H274 H 0.19492 0.53095 0.66651 0.0
H275 H 0.17743 0.53851 0.61731 0.0
H276 H 0.2405 0.54179 0.93873 0.0
H277 H 0.22288 0.55318 0.88944 0.0
H278 H 0.30694 0.51387 0.84491 0.0
H279 H 0.32475 0.50322 0.89383 0.0
Tb280 Tb 0.97756 0.48978 0.55612 0.0
Eu281 Eu 0.97674 0.53271 0.49221 0.0
C282 C 0.03246 0.50262 0.52465 0.0
C283 C 0.96912 0.54557 0.55919 0.0
C284 C 0.96646 0.43442 0.60775 0.0
C285 C 0.96594 0.3994 0.58846 0.0
C286 C 0.97828 0.41697 0.5874 0.0
C287 C 0.94314 0.43296 0.63035 0.0
C288 C 0.93068 0.41546 0.63131 0.0
C289 C 0.94143 0.39901 0.60973 0.0
C290 C 0.97565 0.45611 0.603 0.0
O291 O 0.94012 0.49599 0.53725 0.0
O292 O 0.93163 0.53688 0.51304 0.0
O293 O 0.97555 0.49937 0.47712 0.0
O294 O -0.00592 0.46887 0.51769 0.0
C295 C 0.92291 0.51786 0.52518 0.0
O296 O 0.95693 0.5712 0.46871 0.0
O297 O -0.00634 0.54545 0.44457 0.0
O298 O 0.02249 0.51281 0.49836 0.0
O299 O 0.01686 0.49637 0.55052 0.0
O300 O 0.96092 0.52618 0.57165 0.0
O301 O 0.98127 0.54851 0.53028 0.0
C302 C -0.01319 0.47557 0.48979 0.0
O303 O -0.00126 0.45552 0.58337 0.0
O304 O 0.95558 0.47817 0.59894 0.0
C305 C -0.0078 0.58665 0.44022 0.0
C306 C 0.01873 0.62153 0.43484 0.0
C307 C 0.00215 0.62432 0.41259 0.0
C308 C -0.0112 0.60699 0.41538 0.0
C309 C 0.00916 0.58363 0.462 0.0
C310 C 0.0223 0.60084 0.45935 0.0
C311 C 0.9773 0.56896 0.44508 0.0
H312 H 0.97507 0.38666 0.57191 0.0
H313 H -0.00366 0.41753 0.56976 0.0
H314 H 0.93361 0.44627 0.6462 0.0
H315 H 0.91169 0.41583 0.64783 0.0
H316 H -0.00096 0.64013 0.39349 0.0
H317 H 0.97564 0.60963 0.39847 0.0
H318 H 0.01199 0.56803 0.48133 0.0
H319 H 0.03538 0.59787 0.4765 0.0
Tb320 Tb 0.24383 0.27335 0.03969 0.0
Eu321 Eu 0.22678 0.25313 0.98804 0.0
C322 C 0.17971 0.27782 0.04316 0.0
C323 C 0.23566 0.21862 0.0562 0.0
C324 C 0.27781 0.30024 0.08026 0.0
C325 C 0.28866 0.32593 0.10678 0.0
C326 C 0.27124 0.3135 0.10455 0.0
C327 C 0.30178 0.29991 0.0578 0.0
C328 C 0.31936 0.31217 0.06015 0.0
C329 C 0.31308 0.32515 0.08481 0.0
C330 C 0.26001 0.28615 0.07955 0.0
O331 O 0.27941 0.26799 1.0022 0.0
O332 O 0.27406 0.2369 0.98517 0.0
O333 O 0.23193 0.29067 0.96321 0.0
O334 O 0.23276 0.30779 1.00347 0.0
C335 C 0.28949 0.24967 0.98624 0.0
O336 O 0.23442 0.22371 0.96212 0.0
O337 O 0.20415 0.26126 0.94935 0.0
O338 O 0.18493 0.26985 0.01692 0.0
O339 O 0.1993 0.27925 0.05579 0.0
O340 O 0.24846 0.23321 0.05983 0.0
O341 O 0.2227 0.22444 0.03195 0.0
C342 C 0.23139 0.30993 0.97385 0.0
O343 O 0.23627 0.29918 0.06864 0.0
O344 O 0.27306 0.2648 0.06952 0.0
C345 C 0.19578 0.22735 0.93971 0.0
C346 C 0.15812 0.20736 0.92931 0.0
C347 C 0.16903 0.22314 0.90521 0.0
C348 C 0.18778 0.23299 0.91038 0.0
C349 C 0.18472 0.21184 0.964 0.0
C350 C 0.16611 0.20181 0.95878 0.0
C351 C 0.21539 0.2381 0.94438 0.0
H352 H 0.28342 0.3356 0.12614 0.0
H353 H 0.25283 0.31392 0.12209 0.0
H354 H 0.30711 0.28991 0.03872 0.0
H355 H 0.33785 0.31154 0.04269 0.0
H356 H 0.16343 0.22752 0.88222 0.0
H357 H 0.1961 0.245 0.89144 0.0
H358 H 0.19047 0.20751 0.98691 0.0
H359 H 0.15774 0.18991 0.97783 0.0
Tb360 Tb 0.22431 1.00472 0.24429 0.0
Eu361 Eu 0.23956 0.02719 0.29412 0.0
C362 C 0.28642 0.98282 0.26038 0.0
C363 C 0.22925 0.97373 0.31641 0.0
C364 C 0.2016 0.9919 0.17863 0.0
C365 C 0.20683 0.98561 0.12601 0.0
C366 C 0.21826 0.98094 0.15295 0.0
C367 C 0.17355 1.00836 0.17662 0.0
C368 C 0.16204 1.01291 0.14975 0.0
C369 C 0.17839 1.00118 0.12437 0.0
C370 C 0.21355 0.98467 0.20756 0.0
O371 O 0.18755 0.03876 0.25091 0.0
O372 O 0.19207 0.0403 0.29927 0.0
O373 O 0.24238 0.05475 0.24808 0.0
O374 O 0.22801 0.03997 0.21443 0.0
C375 C 0.17737 0.04824 0.27642 0.0
O376 O 0.22426 0.04654 0.3335 0.0
O377 O 0.26725 0.04069 0.3093 0.0
O378 O 0.27832 0.99284 0.28549 0.0
O379 O 0.27023 0.99043 0.23889 0.0
O380 O 0.22167 0.97751 0.28886 0.0
O381 O 0.23767 0.99 0.32339 0.0
C382 C 0.2359 0.05706 0.22052 0.0
O383 O 0.2378 0.98728 0.20527 0.0
O384 O 0.19638 0.99155 0.23261 0.0
C385 C 0.2579 0.04373 0.36231 0.0
C386 C 0.27592 0.03483 0.41961 0.0
C387 C 0.27051 0.05863 0.40026 0.0
C388 C 0.26154 0.06301 0.37193 0.0
C389 C 0.26272 0.02001 0.38154 0.0
C390 C 0.27173 0.01557 0.41007 0.0
C391 C 0.24827 0.04919 0.33252 0.0
H392 H 0.22008 0.97658 0.10673 0.0
H393 H 0.23999 0.96823 0.15399 0.0
H394 H 0.16024 0.01713 0.19607 0.0
H395 H 0.13994 0.02472 0.14945 0.0
H396 H 0.27423 0.0737 0.40641 0.0
H397 H 0.25777 0.08144 0.3573 0.0
H398 H 0.25971 1.00499 0.37441 0.0
H399 H 0.27572 0.99705 0.42445 0.0
Tb400 Tb 0.49972 0.27231 0.77998 0.0
Eu401 Eu 0.46454 0.25682 0.73952 0.0
C402 C 0.52015 0.21733 0.76517 0.0
C403 C 0.51748 0.2741 0.70812 0.0
C404 C 0.52076 0.30337 0.82911 0.0
C405 C 0.53663 0.31939 0.86354 0.0
C406 C 0.54075 0.30054 0.8472 0.0
C407 C 0.49631 0.3252 0.8278 0.0
C408 C 0.4922 0.34417 0.84406 0.0
C409 C 0.51241 0.34153 0.86202 0.0
C410 C 0.52639 0.28383 0.81087 0.0
O411 O 0.47034 0.30823 0.75975 0.0
O412 O 0.43685 0.29551 0.74957 0.0
O413 O 0.45281 0.24407 0.79068 0.0
O414 O 0.45917 0.27447 0.80842 0.0
C415 C 0.44506 0.31318 0.75308 0.0
O416 O 0.44628 0.26097 0.69849 0.0
O417 O 0.44162 0.23275 0.73862 0.0
O418 O 0.50705 0.22612 0.74088 0.0
O419 O 0.51508 0.23103 0.78647 0.0
O420 O 0.52602 0.26718 0.73529 0.0
O421 O 0.4923 0.27563 0.70496 0.0
C422 C 0.44767 0.25742 0.81221 0.0
O423 O 0.51338 0.26773 0.82225 0.0
O424 O 0.52598 0.29156 0.7812 0.0
C425 C 0.44286 0.22384 0.69 0.0
C426 C 0.45218 0.18755 0.65356 0.0
C427 C 0.42455 0.20128 0.66661 0.0
C428 C 0.41998 0.21921 0.68458 0.0
C429 C 0.47052 0.21028 0.67716 0.0
C430 C 0.47515 0.19232 0.65906 0.0
C431 C 0.43729 0.24217 0.71006 0.0
H432 H 0.55277 0.31686 0.87679 0.0
H433 H 0.5598 0.28386 0.84836 0.0
H434 H 0.4806 0.32766 0.814 0.0
H435 H 0.47317 0.36083 0.84267 0.0
H436 H 0.40638 0.19786 0.66346 0.0
H437 H 0.3985 0.2293 0.69456 0.0
H438 H 0.4885 0.21351 0.68125 0.0
H439 H 0.49668 0.18232 0.64918 0.0
Tb440 Tb -0.00073 0.77355 0.78492 0.0
Eu441 Eu 0.96633 0.75933 0.7404 0.0
C442 C 0.02074 0.71861 0.76942 0.0
C443 C 0.01605 0.78045 0.71272 0.0
C444 C 0.01796 0.80466 0.8358 0.0
C445 C 0.03133 0.82086 0.8722 0.0
C446 C 0.03594 0.80146 0.85654 0.0
C447 C -0.00502 0.82743 0.8312 0.0
C448 C -0.00961 0.84692 0.84678 0.0
C449 C 0.00864 0.84393 0.86733 0.0
C450 C 0.02435 0.78459 0.81812 0.0
O451 O 0.96896 0.81003 0.76798 0.0
O452 O 0.93951 0.79913 0.74688 0.0
O453 O 0.9547 0.74358 0.79057 0.0
O454 O 0.95815 0.7742 0.81064 0.0
C455 C 0.94593 0.81571 0.75592 0.0
O456 O 0.96487 0.75108 0.69656 0.0
O457 O 0.93058 0.75053 0.73462 0.0
O458 O 0.00765 0.72725 0.7451 0.0
O459 O 0.01588 0.73238 0.79057 0.0
O460 O 0.02519 0.77104 0.73957 0.0
O461 O -0.00921 0.78267 0.70917 0.0
C462 C 0.94781 0.75658 0.81288 0.0
O463 O 0.01029 0.76925 0.82863 0.0
O464 O 0.02611 0.79157 0.78814 0.0
C465 C 0.94119 0.72349 0.69848 0.0
C466 C 0.94273 0.68213 0.67569 0.0
C467 C 0.91925 0.70487 0.67378 0.0
C468 C 0.91854 0.72533 0.68502 0.0
C469 C 0.96415 0.70053 0.70173 0.0
C470 C 0.9649 0.68 0.69045 0.0
C471 C 0.94149 0.74627 0.70649 0.0
H472 H 0.04599 0.81801 0.88753 0.0
H473 H 0.05387 0.78406 0.86025 0.0
H474 H 0.98084 0.83024 0.81527 0.0
H475 H 0.97253 0.86431 0.84279 0.0
H476 H 0.90161 0.70702 0.66304 0.0
H477 H 0.90062 0.74287 0.68238 0.0
H478 H -0.01811 0.69876 0.71204 0.0
H479 H -0.01662 0.66286 0.69212 0.0
Tb480 Tb 0.72652 0.50366 0.2383 0.0
Eu481 Eu 0.73647 0.52801 0.29022 0.0
C482 C 0.78646 0.4839 0.25906 0.0
C483 C 0.72839 0.47359 0.31107 0.0
C484 C 0.70847 0.48732 0.17217 0.0
C485 C 0.69516 0.47262 0.13449 0.0
C486 C 0.70637 0.46772 0.16158 0.0
C487 C 0.6998 0.51192 0.15513 0.0
C488 C 0.68858 0.51688 0.12787 0.0
C489 C 0.68591 0.49727 0.11743 0.0
C490 C 0.71982 0.48146 0.20101 0.0
O491 O 0.68784 0.53661 0.24401 0.0
O492 O 0.68949 0.53983 0.29283 0.0
O493 O 0.73964 0.55553 0.24417 0.0
O494 O 0.72885 0.53939 0.20902 0.0
C495 C 0.67595 0.54642 0.26922 0.0
O496 O 0.71995 0.54648 0.33047 0.0
O497 O 0.76198 0.54377 0.3053 0.0
O498 O 0.77576 0.49368 0.28431 0.0
O499 O 0.77227 0.49122 0.23579 0.0
O500 O 0.7238 0.47621 0.28243 0.0
O501 O 0.73399 0.49099 0.31939 0.0
C502 C 0.73481 0.55723 0.216 0.0
O503 O 0.74254 0.48657 0.19899 0.0
O504 O 0.70147 0.48804 0.22545 0.0
C505 C 0.75363 0.54462 0.35868 0.0
C506 C 0.77546 0.5337 0.41411 0.0
C507 C 0.76684 0.55847 0.39724 0.0
C508 C 0.756 0.56385 0.36978 0.0
C509 C 0.76151 0.51996 0.37563 0.0
C510 C 0.77235 0.51452 0.40322 0.0
C511 C 0.74309 0.55071 0.32929 0.0
H512 H 0.69286 0.45719 0.12753 0.0
H513 H 0.71303 0.44863 0.17455 0.0
H514 H 0.70148 0.52723 0.16304 0.0
H515 H 0.68177 0.53603 0.11516 0.0
H516 H 0.76948 0.57357 0.40458 0.0
H517 H 0.74995 0.58299 0.35688 0.0
H518 H 0.75961 0.50493 0.36731 0.0
H519 H 0.77865 0.4953 0.41579 0.0
Tb520 Tb 0.74221 0.77323 0.03741 0.0
Eu521 Eu 0.72146 0.75543 0.98635 0.0
C522 C 0.67703 0.78037 0.04282 0.0
C523 C 0.73257 0.71943 0.05321 0.0
C524 C 0.77829 0.79652 0.08047 0.0
C525 C 0.7971 0.81168 0.11286 0.0
C526 C 0.7787 0.80068 0.10957 0.0
C527 C 0.79628 0.80365 0.0545 0.0
C528 C 0.81478 0.81466 0.05777 0.0
C529 C 0.81544 0.81869 0.08704 0.0
C530 C 0.75974 0.78382 0.07812 0.0
O531 O 0.7774 0.76704 0.9996 0.0
O532 O 0.76899 0.73844 0.98041 0.0
O533 O 0.72887 0.79199 0.96138 0.0
O534 O 0.73195 0.80804 1.00151 0.0
C535 C 0.78578 0.74967 0.9824 0.0
O536 O 0.72568 0.72668 0.96096 0.0
O537 O 0.69729 0.76515 0.94859 0.0
O538 O 0.68066 0.77412 0.01577 0.0
O539 O 0.69793 0.77936 0.05537 0.0
O540 O 0.74685 0.73304 0.05602 0.0
O541 O 0.71796 0.72643 0.03011 0.0
C542 C 0.72995 0.81063 0.97196 0.0
O543 O 0.73634 0.79804 0.06701 0.0
O544 O 0.77223 0.76303 0.06684 0.0
C545 C 0.68523 0.73283 0.94026 0.0
C546 C 0.64408 0.7156 0.93244 0.0
C547 C 0.66059 0.72499 0.90655 0.0
C548 C 0.68101 0.73351 0.91047 0.0
C549 C 0.66869 0.72374 0.96623 0.0
C550 C 0.64828 0.71513 0.96235 0.0
C551 C 0.70665 0.74204 0.94367 0.0
H552 H 0.79735 0.81428 0.13574 0.0
H553 H 0.765 0.79511 0.12984 0.0
H554 H 0.79616 0.80053 0.03185 0.0
H555 H 0.82841 0.82016 0.0374 0.0
H556 H 0.65759 0.72596 0.88323 0.0
H557 H 0.6935 0.7407 0.8902 0.0
H558 H 0.67167 0.72322 0.98943 0.0
H559 H 0.63613 0.70774 0.98275 0.0
Tb560 Tb 0.4887 0.99815 0.52703 0.0
Eu561 Eu 0.48495 0.04079 0.46277 0.0
C562 C 0.54031 1.01498 0.49446 0.0
C563 C 0.4774 0.05466 0.53042 0.0
C564 C 0.47612 0.94469 0.57842 0.0
C565 C 0.46841 0.9059 0.60541 0.0
C566 C 0.48168 0.9234 0.602 0.0
C567 C 0.45702 0.94851 0.55867 0.0
C568 C 0.44403 0.93112 0.56186 0.0
C569 C 0.44983 0.90947 0.58496 0.0
C570 C 0.49111 0.96244 0.57238 0.0
O571 O 0.44351 0.01699 0.52528 0.0
O572 O 0.44412 0.03374 0.47322 0.0
O573 O 0.50293 1.0025 0.44859 0.0
O574 O 0.48204 0.98248 0.49174 0.0
C575 C 0.43084 0.02725 0.50066 0.0
O576 O 0.4621 0.07583 0.43421 0.0
O577 O 0.50485 0.05311 0.41656 0.0
O578 O 0.5235 0.03636 0.48097 0.0
O579 O 0.53187 0.99569 0.50601 0.0
O580 O 0.48918 0.0306 0.54208 0.0
O581 O 0.46988 0.06216 0.50262 0.0
C582 C 0.4944 0.98363 0.46279 0.0
O583 O 0.5099 0.96083 0.54735 0.0
O584 O 0.47488 0.98582 0.57383 0.0
C585 C 0.49341 0.0968 0.40601 0.0
C586 C 0.52095 0.13144 0.39709 0.0
C587 C 0.52377 0.11884 0.37309 0.0
C588 C 0.51004 0.10165 0.37753 0.0
C589 C 0.48929 0.11042 0.42936 0.0
C590 C 0.50281 0.1277 0.42487 0.0
C591 C 0.48432 0.07496 0.413 0.0
H592 H 0.47318 0.88933 0.62342 0.0
H593 H 0.49651 0.92012 0.61733 0.0
H594 H 0.45249 0.96481 0.54035 0.0
H595 H 0.42941 0.93463 0.54616 0.0
H596 H 0.53751 0.12152 0.35139 0.0
H597 H 0.51364 0.09116 0.35936 0.0
H598 H 0.47692 0.10672 0.45175 0.0
H599 H 0.50055 0.13684 0.44394 0.0
Tb600 Tb 0.48812 0.49452 0.03744 0.0
Eu601 Eu 0.48574 0.53588 0.97201 0.0
C602 C 0.54074 0.50959 1.00445 0.0
C603 C 0.47651 0.55149 0.03842 0.0
C604 C 0.47175 0.44437 0.09513 0.0
C605 C 0.46924 0.40293 0.10017 0.0
C606 C 0.48522 0.41823 0.09625 0.0
C607 C 0.44192 0.45472 0.09978 0.0
C608 C 0.42597 0.4394 0.10397 0.0
C609 C 0.43948 0.41348 0.10335 0.0
C610 C 0.48878 0.46089 0.08487 0.0
O611 O 0.44315 0.51278 0.03411 0.0
O612 O 0.44506 0.52875 0.98173 0.0
O613 O 0.50276 0.49727 0.95901 0.0
O614 O 0.4821 0.4776 1.00299 0.0
C615 C 0.43122 0.52253 1.00894 0.0
O616 O 0.4631 0.56983 0.94175 0.0
O617 O 0.50722 0.54851 0.92686 0.0
O618 O 0.52416 0.53104 0.99079 0.0
O619 O 0.53172 0.49073 0.0169 0.0
O620 O 0.48891 0.52768 0.0505 0.0
O621 O 0.46875 0.55817 1.01085 0.0
C622 C 0.49414 0.47856 0.97388 0.0
O623 O 0.50663 0.45706 0.05932 0.0
O624 O 0.47512 0.48491 0.08515 0.0
C625 C 0.49346 0.59265 0.9165 0.0
C626 C 0.51581 0.63018 0.91319 0.0
C627 C 0.4921 0.62866 0.93521 0.0
C628 C 0.48112 0.61001 0.93697 0.0
C629 C 0.51583 0.59527 0.89309 0.0
C630 C 0.52696 0.61384 0.89146 0.0
C631 C 0.48612 0.56985 0.92223 0.0
H632 H 0.48017 0.38295 0.09989 0.0
H633 H 0.50817 0.40983 0.09263 0.0
H634 H 0.43081 0.47482 0.09877 0.0
H635 H 0.40309 0.4481 0.10603 0.0
H636 H 0.48269 0.64126 0.9519 0.0
H637 H 0.46386 0.60849 0.95533 0.0
H638 H 0.52576 0.58201 0.87718 0.0
H639 H 0.54537 0.61435 0.87437 0.0
H640 H 0.97711 0.04971 0.10111 0.0
H641 H 0.96054 0.10707 0.01913 0.0
H642 H 0.97251 0.0815 0.13003 0.0
H643 H 0.95569 0.13886 0.04822 0.0
H644 H 0.97867 0.1836 0.1022 0.0
H645 H -0.01527 0.15127 0.07316 0.0
H646 H 0.93555 0.11821 0.15015 0.0
H647 H 0.93005 0.15013 0.17938 0.0
C648 C 0.97241 0.06909 0.08923 0.0
C649 C 0.96913 0.07578 0.05776 0.0
C650 C 0.96964 0.08735 0.10589 0.0
C651 C 0.96372 0.11274 0.09146 0.0
C652 C 0.96056 0.11943 0.05996 0.0
C653 C 0.96313 0.1012 0.04334 0.0
C654 C 0.96939 0.16928 0.11302 0.0
C655 C 0.95383 0.16949 0.14309 0.0
C656 C 0.97261 0.15091 0.09626 0.0
C657 C 0.96057 0.13218 0.1093 0.0
C658 C 0.9453 0.13223 0.13951 0.0
C659 C 0.94191 0.15068 0.15615 0.0
H660 H 0.82542 0.27074 0.48443 0.0
H661 H 0.81628 0.21454 0.44548 0.0
H662 H 0.86863 0.26914 0.44717 0.0
H663 H 0.85969 0.21236 0.40906 0.0
H664 H 0.89666 0.25299 0.31912 0.0
H665 H 0.86348 0.24557 0.36459 0.0
H666 H 0.91862 0.24517 0.42337 0.0
H667 H 0.95226 0.25298 0.3772 0.0
C668 C 0.83326 0.25738 0.4687 0.0
C669 C 0.81735 0.24309 0.46734 0.0
C670 C 0.85798 0.25645 0.44741 0.0
C671 C 0.86711 0.24105 0.42477 0.0
C672 C 0.85273 0.22486 0.42575 0.0
C673 C 0.82796 0.22603 0.44665 0.0
C674 C 0.90192 0.25126 0.34165 0.0
C675 C 0.9271 0.25365 0.3445 0.0
C676 C 0.88298 0.24671 0.36781 0.0
C677 C 0.88862 0.24443 0.3976 0.0
C678 C 0.9138 0.24678 0.40066 0.0
C679 C 0.93303 0.25118 0.37428 0.0
H680 H 0.75259 0.09461 0.71559 0.0
H681 H 0.71709 0.07123 0.65618 0.0
H682 H 0.75301 0.13183 0.67678 0.0
H683 H 0.71661 0.10903 0.61745 0.0
H684 H 0.73785 0.17108 0.54064 0.0
H685 H 0.73866 0.1328 0.57851 0.0
H686 H 0.72942 0.17164 0.65221 0.0
H687 H 0.72954 0.20942 0.61428 0.0
C688 C 0.74473 0.09733 0.69426 0.0
C689 C 0.73488 0.07936 0.68953 0.0
C690 C 0.74472 0.11913 0.67175 0.0
C691 C 0.73466 0.1243 0.64328 0.0
C692 C 0.72495 0.10616 0.63849 0.0
C693 C 0.72509 0.08424 0.66103 0.0
C694 C 0.73607 0.17152 0.56492 0.0
C695 C 0.73376 0.19381 0.57387 0.0
C696 C 0.73633 0.14934 0.58698 0.0
C697 C 0.73421 0.14833 0.61917 0.0
C698 C 0.73172 0.1708 0.628 0.0
C699 C 0.73157 0.19288 0.60596 0.0
H700 H 0.89546 1.00071 0.03914 0.0
H701 H 0.88838 0.06949 0.9727 0.0
H702 H 0.85087 1.00161 0.02825 0.0
H703 H 0.8436 0.07087 0.96263 0.0
H704 H 0.81753 0.9976 0.93651 0.0
H705 H 0.84614 0.9962 0.97317 0.0
H706 H 0.79188 0.07185 0.98611 0.0
H707 H 0.76255 0.07307 0.95012 0.0
C708 C 0.88385 0.01646 0.0231 0.0
C709 C 0.89538 0.03487 1.0064 0.0
C710 C 0.85841 0.01696 0.01692 0.0
C711 C 0.84389 0.0363 0.99467 0.0
C712 C 0.85421 0.05591 0.98017 0.0
C713 C 0.87991 0.05505 0.98573 0.0
C714 C 0.81086 1.0135 0.94822 0.0
C715 C 0.78827 0.03572 0.93979 0.0
C716 C 0.82724 1.01266 0.96929 0.0
C717 C 0.82136 0.03408 0.98201 0.0
C718 C 0.79691 0.05521 0.97632 0.0
C719 C 0.78035 0.05595 0.95554 0.0
H720 H 0.06455 0.04409 0.98918 0.0
H721 H 0.06931 0.9707 0.04357 0.0
H722 H 0.10611 0.04113 1.00851 0.0
H723 H 0.11018 0.96808 0.06338 0.0
H724 H 0.18632 0.9639 0.0932 0.0
H725 H 0.15861 0.96552 0.05555 0.0
H726 H 0.11097 0.04438 0.05913 0.0
H727 H 0.13973 0.04311 0.09547 0.0
C728 C 0.07473 0.02714 1.00482 0.0
C729 C 0.06334 1.00781 0.01528 0.0
C730 C 0.09847 0.02551 0.01597 0.0
C731 C 0.1112 1.00456 0.03779 0.0
C732 C 0.10107 0.98441 0.04638 0.0
C733 C 0.07744 0.986 0.03518 0.0
C734 C 0.17061 0.98181 0.08517 0.0
C735 C 0.16493 1.00332 0.0977 0.0
C736 C 0.15452 0.98265 0.06381 0.0
C737 C 0.13229 1.00494 0.05473 0.0
C738 C 0.12802 0.02691 0.06549 0.0
C739 C 0.14423 0.02611 0.08669 0.0
H740 H 0.98043 0.48096 0.42943 0.0
H741 H 0.00111 0.42479 0.51155 0.0
H742 H -0.01437 0.44816 0.40187 0.0
H743 H 0.00539 0.39217 0.48437 0.0
H744 H 0.0406 0.33654 0.41711 0.0
H745 H 0.03501 0.36921 0.44489 0.0
H746 H 0.96398 0.41984 0.39846 0.0
H747 H 0.9706 0.38755 0.36934 0.0
C748 C -0.014 0.46163 0.44167 0.0
C749 C -0.0095 0.45556 0.4727 0.0
C750 C -0.01124 0.44281 0.42591 0.0
C751 C -0.0041 0.41742 0.44082 0.0
C752 C 0.00032 0.4114 0.47191 0.0
C753 C -0.00225 0.43019 0.48758 0.0
C754 C 0.02392 0.35469 0.41258 0.0
C755 C 0.00619 0.35937 0.39075 0.0
C756 C 0.02046 0.37339 0.42887 0.0
C757 C -0.00094 0.39729 0.42396 0.0
C758 C 0.98097 0.40182 0.40256 0.0
C759 C -0.0155 0.38313 0.38615 0.0
H760 H 0.63832 0.25491 0.54214 0.0
H761 H 0.65205 0.31198 0.57502 0.0
H762 H 0.59632 0.25825 0.58126 0.0
H763 H 0.60979 0.31551 0.61381 0.0
H764 H 0.5676 0.27963 0.70617 0.0
H765 H 0.60223 0.28512 0.66095 0.0
H766 H 0.54768 0.28528 0.60165 0.0
H767 H 0.51285 0.27948 0.64718 0.0
C768 C 0.63205 0.26856 0.55724 0.0
C769 C 0.64879 0.28289 0.55579 0.0
C770 C 0.60788 0.27057 0.57954 0.0
C771 C 0.60002 0.2869 0.60082 0.0
C772 C 0.61566 0.30245 0.59801 0.0
C773 C 0.63979 0.30049 0.57569 0.0
C774 C 0.56284 0.28098 0.68352 0.0
C775 C 0.53757 0.27892 0.68029 0.0
C776 C 0.58258 0.28439 0.65756 0.0
C777 C 0.57759 0.28574 0.62776 0.0
C778 C 0.55209 0.28419 0.62439 0.0
C779 C 0.53217 0.28094 0.65043 0.0
H780 H 0.70517 0.93849 0.81178 0.0
H781 H 0.74958 0.95607 0.86758 0.0
H782 H 0.70487 0.90075 0.84992 0.0
H783 H 0.75014 0.91791 0.90538 0.0
H784 H 0.7297 0.85581 0.98262 0.0
H785 H 0.72836 0.8947 0.94564 0.0
H786 H 0.72854 0.85983 0.87181 0.0
H787 H 0.729 0.82155 0.9088 0.0
C788 C 0.715 0.93437 0.83213 0.0
C789 C 0.72734 0.95086 0.8361 0.0
C790 C 0.71508 0.91231 0.85422 0.0
C791 C 0.72763 0.90546 0.88141 0.0
C792 C 0.73982 0.92212 0.8854 0.0
C793 C 0.73966 0.94424 0.86333 0.0
C794 C 0.72937 0.8564 0.95852 0.0
C795 C 0.72935 0.83506 0.94924 0.0
C796 C 0.72879 0.8789 0.93696 0.0
C797 C 0.72823 0.88118 0.90501 0.0
C798 C 0.72836 0.85969 0.89589 0.0
C799 C 0.72885 0.8373 0.91739 0.0
H800 H 0.15178 0.31363 0.07927 0.0
H801 H 0.14409 0.25264 0.04887 0.0
H802 H 0.10845 0.31719 0.11635 0.0
H803 H 0.10188 0.25483 0.08729 0.0
H804 H 0.01994 0.26838 0.15288 0.0
H805 H 0.05475 0.27428 0.10764 0.0
H806 H 0.09691 0.29443 0.16393 0.0
H807 H 0.06127 0.28997 0.20829 0.0
C808 C 0.14056 0.30116 0.0804 0.0
C809 C 0.1512 0.28281 0.06142 0.0
C810 C 0.11592 0.30296 0.10186 0.0
C811 C 0.1019 0.28592 0.10545 0.0
C812 C 0.11181 0.26847 0.08512 0.0
C813 C 0.13609 0.26712 0.0631 0.0
C814 C 0.03655 0.27431 0.15536 0.0
C815 C 0.03797 0.27867 0.18407 0.0
C816 C 0.05659 0.27759 0.12949 0.0
C817 C 0.0788 0.28482 0.13195 0.0
C818 C 0.07984 0.28946 0.16075 0.0
C819 C 0.05951 0.28667 0.18638 0.0
H820 H 0.72159 0.43084 0.30288 0.0
H821 H 0.73495 0.46135 0.3732 0.0
H822 H 0.72269 0.39223 0.33991 0.0
H823 H 0.73521 0.4231 0.41062 0.0
H824 H 0.75784 0.3423 0.46774 0.0
H825 H 0.7575 0.38082 0.43055 0.0
H826 H 0.70142 0.37058 0.38192 0.0
H827 H 0.70255 0.33186 0.41849 0.0
C828 C 0.7245 0.42954 0.32633 0.0
C829 C 0.72806 0.44976 0.33457 0.0
C830 C 0.72499 0.40716 0.34795 0.0
C831 C 0.72899 0.40383 0.37901 0.0
C832 C 0.73249 0.42416 0.38718 0.0
C833 C 0.73209 0.44651 0.36552 0.0
C834 C 0.7454 0.3482 0.44914 0.0
C835 C 0.73025 0.33347 0.44659 0.0
C836 C 0.74503 0.37066 0.42761 0.0
C837 C 0.72943 0.37953 0.40249 0.0
C838 C 0.71422 0.36473 0.40016 0.0
C839 C 0.71467 0.34229 0.42159 0.0
H840 H 0.55917 0.05396 0.4865 0.0
H841 H 0.58228 0.97345 0.51844 0.0
H842 H 0.59817 0.0535 0.50843 0.0
H843 H 0.621 0.97311 0.54046 0.0
H844 H 0.69291 0.97587 0.57369 0.0
H845 H 0.66627 0.98048 0.53316 0.0
H846 H 0.60115 0.04669 0.56448 0.0
H847 H 0.62755 0.04198 0.60504 0.0
C848 C 0.57299 0.03606 0.49747 0.0
C849 C 0.56736 1.01378 0.50124 0.0
C850 C 0.59524 0.03586 0.51011 0.0
C851 C 0.61238 1.01335 0.52645 0.0
C852 C 0.60827 0.99074 0.52782 0.0
C853 C 0.58593 0.99096 0.51538 0.0
C854 C 0.6731 0.99163 0.57156 0.0
C855 C 0.66202 1.00829 0.59289 0.0
C856 C 0.65795 0.9943 0.54832 0.0
C857 C 0.63153 1.01376 0.54589 0.0
C858 C 0.62161 0.03163 0.56557 0.0
C859 C 0.63672 0.02892 0.58888 0.0
H860 H 0.01286 0.97755 0.91577 0.0
H861 H 0.96828 0.9448 0.99811 0.0
H862 H 0.01743 0.94398 0.88965 0.0
H863 H 0.97245 0.91166 0.97188 0.0
H864 H 0.01335 0.84085 0.92757 0.0
H865 H 0.00851 0.87477 0.95302 0.0
H866 H -0.01101 0.92849 0.86881 0.0
H867 H -0.00526 0.89438 0.84301 0.0
C868 C 0.00396 0.96328 0.92828 0.0
C869 C -0.00972 0.96389 0.95908 0.0
C870 C 0.00642 0.94412 0.91324 0.0
C871 C -0.00465 0.92508 0.92867 0.0
C872 C -0.01842 0.92579 0.95943 0.0
C873 C 0.97906 0.94493 0.97442 0.0
C874 C 0.00819 0.85987 0.91441 0.0
C875 C 0.00449 0.86486 0.88322 0.0
C876 C 0.00514 0.87938 0.9291 0.0
C877 C -0.00164 0.90439 0.91298 0.0
C878 C -0.00549 0.90942 0.88182 0.0
C879 C -0.00254 0.8899 0.86714 0.0
H880 H 0.01262 0.17395 0.91721 0.0
H881 H 0.08492 0.11081 0.88838 0.0
H882 H 0.04452 0.19449 0.92077 0.0
H883 H 0.11669 0.13148 0.89145 0.0
H884 H 0.1604 0.15866 0.94675 0.0
H885 H 0.12868 0.14054 0.93708 0.0
H886 H 0.08077 0.21329 0.88866 0.0
H887 H 0.11233 0.23154 0.89874 0.0
C888 C 0.03529 0.16469 0.91117 0.0
C889 C 0.04632 0.14079 0.90259 0.0
C890 C 0.0535 0.17647 0.91305 0.0
C891 C 0.08304 0.16443 0.90665 0.0
C892 C 0.094 0.14102 0.89685 0.0
C893 C 0.07581 0.12935 0.89474 0.0
C894 C 0.143 0.17079 0.9342 0.0
C895 C 0.13876 0.19648 0.92354 0.0
C896 C 0.12506 0.16038 0.92836 0.0
C897 C 0.10241 0.17551 0.91195 0.0
C898 C 0.09805 0.20124 0.90142 0.0
C899 C 0.11617 0.21162 0.90703 0.0
H900 H 0.64511 0.56981 0.31818 0.0
H901 H 0.6449 0.57245 0.22158 0.0
H902 H 0.60521 0.60952 0.31734 0.0
H903 H 0.60472 0.61247 0.22086 0.0
H904 H 0.56657 0.69568 0.29039 0.0
H905 H 0.60173 0.65324 0.29217 0.0
H906 H 0.55334 0.6341 0.24258 0.0
H907 H 0.51797 0.6768 0.2406 0.0
C908 C 0.63631 0.57862 0.29683 0.0
C909 C 0.64847 0.56796 0.26985 0.0
C910 C 0.61351 0.60152 0.29634 0.0
C911 C 0.60211 0.61438 0.26891 0.0
C912 C 0.61303 0.60301 0.24237 0.0
C913 C 0.63605 0.58006 0.24281 0.0
C914 C 0.56328 0.68248 0.2799 0.0
C915 C 0.53932 0.68972 0.26544 0.0
C916 C 0.5834 0.65806 0.28111 0.0
C917 C 0.58024 0.64022 0.26771 0.0
C918 C 0.55642 0.64743 0.25303 0.0
C919 C 0.53609 0.67187 0.25205 0.0
H920 H 0.38084 0.80418 0.55477 0.0
H921 H 0.31712 0.85049 0.61734 0.0
H922 H 0.41423 0.82321 0.55782 0.0
H923 H 0.35044 0.86951 0.62036 0.0
H924 H 0.4225 0.88746 0.63673 0.0
H925 H 0.39495 0.86122 0.63862 0.0
H926 H 0.41846 0.86455 0.53955 0.0
H927 H 0.4464 0.89004 0.5379 0.0
C928 C 0.37394 0.81849 0.56908 0.0
C929 C 0.3463 0.82596 0.58566 0.0
C930 C 0.39309 0.82931 0.57092 0.0
C931 C 0.38498 0.84784 0.58936 0.0
C932 C 0.35751 0.85496 0.60639 0.0
C933 C 0.33838 0.84414 0.60456 0.0
C934 C 0.4222 0.88207 0.61555 0.0
C935 C 0.43629 0.89095 0.58714 0.0
C936 C 0.40625 0.86729 0.61655 0.0
C937 C 0.40433 0.86101 0.58919 0.0
C938 C 0.41964 0.86888 0.56107 0.0
C939 C 0.43544 0.88368 0.56007 0.0
H940 H 0.04113 0.68823 0.82213 0.0
H941 H 0.04752 0.68998 0.72442 0.0
H942 H 0.07561 0.64528 0.82731 0.0
H943 H 0.08295 0.6478 0.72907 0.0
H944 H 0.13298 0.56557 0.74592 0.0
H945 H 0.09246 0.60497 0.74666 0.0
H946 H 0.12371 0.62245 0.81597 0.0
H947 H 0.16311 0.58253 0.81639 0.0
C948 C 0.05006 0.67949 0.80172 0.0
C949 C 0.04163 0.69252 0.77287 0.0
C950 C 0.06995 0.65487 0.80462 0.0
C951 C 0.08224 0.64286 0.77862 0.0
C952 C 0.07361 0.65602 0.74982 0.0
C953 C 0.05342 0.68041 0.74705 0.0
C954 C 0.13084 0.57767 0.76169 0.0
C955 C 0.15126 0.57095 0.78104 0.0
C956 C 0.10776 0.60042 0.76192 0.0
C957 C 0.10487 0.61726 0.78104 0.0
C958 C 0.12484 0.60998 0.80121 0.0
C959 C 0.1476 0.58703 0.80138 0.0
H960 H 0.80385 0.34713 0.62947 0.0
H961 H 0.86422 0.30885 0.55769 0.0
H962 H 0.83809 0.36388 0.6357 0.0
H963 H 0.89837 0.32593 0.56372 0.0
H964 H 0.93171 0.39049 0.55726 0.0
H965 H 0.90207 0.36822 0.55327 0.0
H966 H 0.88473 0.35037 0.65311 0.0
H967 H 0.91481 0.37245 0.65721 0.0
C968 C 0.82455 0.34202 0.61528 0.0
C969 C 0.83128 0.32668 0.59304 0.0
C970 C 0.84417 0.35161 0.61889 0.0
C971 C 0.87092 0.34617 0.60024 0.0
C972 C 0.87779 0.33065 0.57819 0.0
C973 C 0.8582 0.32096 0.57467 0.0
C974 C 0.92217 0.38131 0.5784 0.0
C975 C 0.92564 0.38326 0.60758 0.0
C976 C 0.90511 0.3686 0.57608 0.0
C977 C 0.89099 0.35766 0.60288 0.0
C978 C 0.89506 0.35895 0.63207 0.0
C979 C 0.91226 0.37158 0.6344 0.0
H980 H 0.30287 0.95179 0.21823 0.0
H981 H 0.33006 0.96329 0.29511 0.0
H982 H 0.34232 0.91248 0.2164 0.0
H983 H 0.37105 0.92423 0.29212 0.0
H984 H 0.4183 0.83853 0.3045 0.0
H985 H 0.38314 0.88081 0.30397 0.0
H986 H 0.38981 0.89079 0.20443 0.0
H987 H 0.42367 0.84782 0.20549 0.0
C988 C 0.31774 0.94627 0.23431 0.0
C989 C 0.31316 0.96079 0.2569 0.0
C990 C 0.34067 0.92359 0.23311 0.0
C991 C 0.36015 0.91485 0.25412 0.0
C992 C 0.35627 0.92996 0.27592 0.0
C993 C 0.33291 0.95255 0.27747 0.0
C994 C 0.41227 0.8498 0.28249 0.0
C995 C 0.42352 0.8397 0.25507 0.0
C996 C 0.39223 0.87425 0.28211 0.0
C997 C 0.38327 0.88948 0.25418 0.0
C998 C 0.39546 0.87957 0.22657 0.0
C999 C 0.41505 0.85492 0.22707 0.0
H1000 H 0.34051 0.47499 0.75159 0.0
H1001 H 0.28582 0.4315 0.77097 0.0
H1002 H 0.38225 0.43595 0.74723 0.0
H1003 H 0.32659 0.3933 0.76735 0.0
H1004 H 0.39759 0.33352 0.7256 0.0
H1005 H 0.36137 0.37523 0.72598 0.0
H1006 H 0.40919 0.39402 0.77679 0.0
H1007 H 0.44617 0.35229 0.77546 0.0
C1008 C 0.33744 0.45718 0.75515 0.0
C1009 C 0.30994 0.45639 0.76089 0.0
C1010 C 0.36123 0.43488 0.75267 0.0
C1011 C 0.35769 0.41161 0.75609 0.0
C1012 C 0.33014 0.41094 0.76342 0.0
C1013 C 0.3067 0.43294 0.76564 0.0
C1014 C 0.40055 0.34656 0.73665 0.0
C1015 C 0.42453 0.33941 0.75094 0.0
C1016 C 0.37974 0.37048 0.73696 0.0
C1017 C 0.38209 0.38779 0.75202 0.0
C1018 C 0.40675 0.38115 0.76499 0.0
C1019 C 0.42784 0.35719 0.76435 0.0
H1020 H 0.12959 0.792 0.53547 0.0
H1021 H 0.17586 0.77453 0.61143 0.0
H1022 H 0.08534 0.79852 0.57231 0.0
H1023 H 0.13275 0.77974 0.64764 0.0
H1024 H 0.05357 0.80272 0.71014 0.0
H1025 H 0.0904 0.80818 0.6673 0.0
H1026 H 0.06119 0.77527 0.61188 0.0
H1027 H 0.02301 0.77158 0.65429 0.0
C1028 C 0.13033 0.78967 0.55989 0.0
C1029 C 0.15628 0.7828 0.57042 0.0
C1030 C 0.10504 0.79326 0.58102 0.0
C1031 C 0.10533 0.78988 0.61302 0.0
C1032 C 0.13135 0.78327 0.62322 0.0
C1033 C 0.15633 0.78 0.60228 0.0
C1034 C 0.05479 0.79711 0.68855 0.0
C1035 C 0.03584 0.78646 0.68551 0.0
C1036 C 0.07597 0.80005 0.66404 0.0
C1037 C 0.07932 0.79153 0.63633 0.0
C1038 C 0.05924 0.78216 0.63275 0.0
C1039 C 0.03747 0.77988 0.65708 0.0
H1040 H 0.21079 0.93561 0.31367 0.0
H1041 H 0.24742 0.95697 0.37398 0.0
H1042 H 0.21119 0.89745 0.35135 0.0
H1043 H 0.24877 0.91846 0.41131 0.0
H1044 H 0.23059 0.85428 0.48655 0.0
H1045 H 0.2284 0.89352 0.44992 0.0
H1046 H 0.23477 0.85729 0.37474 0.0
H1047 H 0.23599 0.81869 0.41137 0.0
C1048 C 0.21905 0.93225 0.33492 0.0
C1049 C 0.22897 0.94995 0.34026 0.0
C1050 C 0.21955 0.90993 0.35678 0.0
C1051 C 0.23017 0.90399 0.38513 0.0
C1052 C 0.23997 0.92186 0.39043 0.0
C1053 C 0.23934 0.94422 0.36862 0.0
C1054 C 0.23146 0.85464 0.46222 0.0
C1055 C 0.23338 0.8328 0.45248 0.0
C1056 C 0.23038 0.87738 0.44083 0.0
C1057 C 0.23127 0.87942 0.40858 0.0
C1058 C 0.23338 0.8574 0.39902 0.0
C1059 C 0.23433 0.8348 0.42034 0.0
H1060 H 0.96198 0.63088 0.69723 0.0
H1061 H 0.92873 0.68664 0.61927 0.0
H1062 H 0.96783 0.59726 0.67026 0.0
H1063 H 0.93382 0.65327 0.59291 0.0
H1064 H 0.98096 0.58889 0.53921 0.0
H1065 H 0.97387 0.62087 0.56865 0.0
H1066 H 0.94029 0.57851 0.65072 0.0
H1067 H 0.94766 0.546 0.62115 0.0
C1068 C 0.95579 0.63597 0.67446 0.0
C1069 C 0.94489 0.66147 0.66044 0.0
C1070 C 0.9589 0.61672 0.65914 0.0
C1071 C 0.95142 0.62259 0.62937 0.0
C1072 C 0.9401 0.64809 0.61566 0.0
C1073 C 0.93687 0.66725 0.63096 0.0
C1074 C 0.97204 0.58625 0.56353 0.0
C1075 C 0.96475 0.56484 0.57775 0.0
C1076 C 0.96783 0.60474 0.58038 0.0
C1077 C 0.95629 0.60237 0.61198 0.0
C1078 C 0.94935 0.58082 0.62643 0.0
C1079 C 0.95343 0.56227 0.60945 0.0
H1080 H 0.33236 0.76304 0.47964 0.0
H1081 H 0.30934 0.71471 0.4404 0.0
H1082 H 0.37402 0.75879 0.43993 0.0
H1083 H 0.35134 0.7102 0.40097 0.0
H1084 H 0.39465 0.74884 0.31129 0.0
H1085 H 0.36078 0.74178 0.35656 0.0
H1086 H 0.42044 0.73078 0.41615 0.0
H1087 H 0.45457 0.73813 0.37046 0.0
C1088 C 0.33647 0.75108 0.46295 0.0
C1089 C 0.31723 0.73957 0.46286 0.0
C1090 C 0.3605 0.7485 0.44032 0.0
C1091 C 0.36575 0.7344 0.41713 0.0
C1092 C 0.34756 0.72151 0.4183 0.0
C1093 C 0.32356 0.72404 0.44096 0.0
C1094 C 0.40073 0.74467 0.33401 0.0
C1095 C 0.42718 0.74427 0.33733 0.0
C1096 C 0.38139 0.74036 0.35997 0.0
C1097 C 0.38796 0.73567 0.38992 0.0
C1098 C 0.41478 0.73447 0.39331 0.0
C1099 C 0.43431 0.73859 0.36721 0.0
H1100 H 0.24578 0.09911 0.22574 0.0
H1101 H 0.22738 0.06871 0.15883 0.0
H1102 H 0.24545 0.13686 0.18752 0.0
H1103 H 0.22802 0.1061 0.12002 0.0
H1104 H 0.20791 0.18555 0.0602 0.0
H1105 H 0.20791 0.14783 0.09851 0.0
H1106 H 0.26535 0.15846 0.14483 0.0
H1107 H 0.26442 0.19667 0.10704 0.0
C1108 C 0.24192 0.10023 0.20275 0.0
C1109 C 0.23667 0.0803 0.1959 0.0
C1110 C 0.2419 0.12215 0.18038 0.0
C1111 C 0.23677 0.12533 0.14982 0.0
C1112 C 0.23165 0.10523 0.143 0.0
C1113 C 0.23151 0.08335 0.16547 0.0
C1114 C 0.2206 0.17993 0.07852 0.0
C1115 C 0.23616 0.19468 0.08 0.0
C1116 C 0.22078 0.15787 0.10073 0.0
C1117 C 0.23666 0.14926 0.12557 0.0
C1118 C 0.25232 0.16407 0.12686 0.0
C1119 C 0.25199 0.18621 0.10475 0.0
H1120 H 0.8031 0.72772 0.931 0.0
H1121 H 0.83046 0.76173 0.98667 0.0
H1122 H 0.84473 0.72663 0.89227 0.0
H1123 H 0.87294 0.75956 0.94859 0.0
H1124 H 0.91909 0.78717 0.85547 0.0
H1125 H 0.88299 0.78178 0.8989 0.0
H1126 H 0.89419 0.71038 0.87684 0.0
H1127 H 0.92962 0.71643 0.83231 0.0
C1128 C 0.81841 0.73435 0.93537 0.0
C1129 C 0.81334 0.74507 0.96173 0.0
C1130 C 0.84243 0.73363 0.91316 0.0
C1131 C 0.86212 0.74331 0.91702 0.0
C1132 C 0.85788 0.75255 0.94442 0.0
C1133 C 0.83364 0.75361 0.96641 0.0
C1134 C 0.91401 0.77022 0.85997 0.0
C1135 C 0.92708 0.7523 0.84033 0.0
C1136 C 0.89342 0.767 0.88512 0.0
C1137 C 0.88563 0.74558 0.89156 0.0
C1138 C 0.89931 0.72729 0.87234 0.0
C1139 C 0.9197 0.73069 0.84687 0.0
H1140 H 0.24439 0.59899 0.72544 0.0
H1141 H 0.23214 0.56542 0.65749 0.0
H1142 H 0.24474 0.63623 0.68658 0.0
H1143 H 0.23296 0.60272 0.61813 0.0
H1144 H 0.20969 0.68381 0.55942 0.0
H1145 H 0.20994 0.64573 0.59747 0.0
H1146 H 0.26839 0.65546 0.64311 0.0
H1147 H 0.2677 0.6937 0.60538 0.0
C1148 C 0.24198 0.59932 0.70212 0.0
C1149 C 0.23835 0.57861 0.69513 0.0
C1150 C 0.24235 0.62093 0.67944 0.0
C1151 C 0.23899 0.62314 0.64848 0.0
C1152 C 0.23534 0.60239 0.64145 0.0
C1153 C 0.2351 0.58063 0.6642 0.0
C1154 C 0.2227 0.67789 0.5775 0.0
C1155 C 0.23866 0.69235 0.57882 0.0
C1156 C 0.22298 0.6557 0.5995 0.0
C1157 C 0.23914 0.64686 0.6241 0.0
C1158 C 0.2552 0.66134 0.62524 0.0
C1159 C 0.25499 0.68346 0.60318 0.0
H1160 H 0.2627 0.06561 0.46196 0.0
H1161 H 0.31933 0.99281 0.4401 0.0
H1162 H 0.2944 0.06352 0.49576 0.0
H1163 H 0.35023 0.99045 0.47471 0.0
H1164 H 0.40494 0.99446 0.53504 0.0
H1165 H 0.3592 0.99412 0.52933 0.0
H1166 H 0.3445 0.06535 0.46618 0.0
H1167 H 0.3904 0.06518 0.47096 0.0
C1168 C 0.28134 0.04878 0.46523 0.0
C1169 C 0.28905 0.02976 0.44756 0.0
C1170 C 0.29927 0.04752 0.48478 0.0
C1171 C 0.32485 0.02703 0.48736 0.0
C1172 C 0.33051 1.00642 0.47318 0.0
C1173 C 0.31279 1.00781 0.45329 0.0
C1174 C 0.39152 1.01032 0.52064 0.0
C1175 C 0.40119 0.02968 0.50304 0.0
C1176 C 0.36541 1.01014 0.51748 0.0
C1177 C 0.3484 0.02974 0.49746 0.0
C1178 C 0.35706 0.05018 0.48211 0.0
C1179 C 0.38339 0.05 0.48459 0.0
H1180 H 0.87114 0.80836 0.06118 0.0
H1181 H 0.8043 0.85477 0.1214 0.0
H1182 H 0.90323 0.82801 0.06631 0.0
H1183 H 0.83631 0.87441 0.12648 0.0
H1184 H 0.90597 0.89341 0.14709 0.0
H1185 H 0.87946 0.86674 0.14718 0.0
H1186 H 0.90684 0.86964 0.04854 0.0
H1187 H 0.93377 0.89553 0.04869 0.0
C1188 C 0.8633 0.82281 0.07542 0.0
C1189 C 0.83517 0.83013 0.09074 0.0
C1190 C 0.88168 0.83398 0.07845 0.0
C1191 C 0.8723 0.85273 0.09682 0.0
C1192 C 0.84433 0.8597 0.1126 0.0
C1193 C 0.82596 0.84852 0.10959 0.0
C1194 C 0.90671 0.88786 0.12563 0.0
C1195 C 0.92161 0.89671 0.09784 0.0
C1196 C 0.89137 0.87283 0.1256 0.0
C1197 C 0.89089 0.86628 0.09782 0.0
C1198 C 0.90694 0.87418 0.07036 0.0
C1199 C 0.92213 0.88922 0.07038 0.0
H1200 H 0.60491 0.23541 0.39729 0.0
H1201 H 0.6571 0.16051 0.43595 0.0
H1202 H 0.57257 0.21811 0.38703 0.0
H1203 H 0.62455 0.14329 0.42617 0.0
H1204 H 0.57763 0.11763 0.37636 0.0
H1205 H 0.6096 0.13781 0.38019 0.0
H1206 H 0.53834 0.1971 0.41861 0.0
H1207 H 0.50619 0.17713 0.41423 0.0
C1208 C 0.60947 0.21525 0.40349 0.0
C1209 C 0.6335 0.19926 0.41736 0.0
C1210 C 0.5909 0.20541 0.39781 0.0
C1211 C 0.59618 0.17938 0.40563 0.0
C1212 C 0.6202 0.1634 0.41952 0.0
C1213 C 0.63863 0.17326 0.42543 0.0
C1214 C 0.5687 0.13532 0.38486 0.0
C1215 C 0.53943 0.14583 0.39501 0.0
C1216 C 0.58703 0.14667 0.38743 0.0
C1217 C 0.57645 0.16882 0.40003 0.0
C1218 C 0.54704 0.18005 0.40873 0.0
C1219 C 0.52869 0.16859 0.40636 0.0
H1220 H 0.81444 0.45371 0.30723 0.0
H1221 H 0.81962 0.46447 0.20799 0.0
H1222 H 0.85439 0.414 0.30616 0.0
H1223 H 0.8602 0.42521 0.20671 0.0
H1224 H 0.90405 0.33924 0.22154 0.0
H1225 H 0.86845 0.38142 0.22074 0.0
H1226 H 0.90363 0.3927 0.29154 0.0
H1227 H 0.93866 0.35016 0.29306 0.0
C1228 C 0.82458 0.44795 0.28506 0.0
C1229 C 0.81373 0.46224 0.25772 0.0
C1230 C 0.84757 0.42512 0.28442 0.0
C1231 C 0.86043 0.41612 0.25637 0.0
C1232 C 0.85046 0.43117 0.22884 0.0
C1233 C 0.82733 0.45385 0.22952 0.0
C1234 C 0.90431 0.35074 0.23684 0.0
C1235 C 0.92418 0.3412 0.25745 0.0
C1236 C 0.88396 0.37508 0.23624 0.0
C1237 C 0.88306 0.39063 0.25606 0.0
C1238 C 0.90332 0.38121 0.27627 0.0
C1239 C 0.92355 0.3568 0.27702 0.0
H1240 H 0.04839 0.64189 0.3837 0.0
H1241 H 0.02051 0.64227 0.4817 0.0
H1242 H 0.07561 0.66825 0.38217 0.0
H1243 H 0.04832 0.66775 0.48046 0.0
H1244 H 0.08669 0.72751 0.46565 0.0
H1245 H 0.0535 0.70854 0.46175 0.0
H1246 H 0.11881 0.66081 0.40173 0.0
H1247 H 0.15184 0.6798 0.40553 0.0
C1248 C 0.04778 0.6479 0.40478 0.0
C1249 C 0.0326 0.63981 0.43287 0.0
C1250 C 0.06356 0.66276 0.404 0.0
C1251 C 0.06433 0.6699 0.43126 0.0
C1252 C 0.04804 0.66276 0.45901 0.0
C1253 C 0.03235 0.64792 0.45979 0.0
C1254 C 0.09391 0.71297 0.45163 0.0
C1255 C 0.1219 0.70509 0.436 0.0
C1256 C 0.0749 0.70215 0.44933 0.0
C1257 C 0.08352 0.68317 0.43142 0.0
C1258 C 0.11133 0.6757 0.41526 0.0
C1259 C 0.1303 0.68654 0.41752 0.0
H1260 H 0.65976 0.07991 0.81423 0.0
H1261 H 0.63302 0.06513 0.7394 0.0
H1262 H 0.62047 0.11981 0.81367 0.0
H1263 H 0.59248 0.10453 0.73996 0.0
H1264 H 0.54867 0.18983 0.71948 0.0
H1265 H 0.58366 0.14743 0.72406 0.0
H1266 H 0.57236 0.14277 0.82328 0.0
H1267 H 0.53841 0.18595 0.81823 0.0
C1268 C 0.64498 0.08487 0.7982 0.0
C1269 C 0.64962 0.06943 0.7767 0.0
C1270 C 0.62226 0.10781 0.79795 0.0
C1271 C 0.60328 0.11572 0.77654 0.0
C1272 C 0.60704 0.09948 0.75624 0.0
C1273 C 0.63011 0.07672 0.7561 0.0
C1274 C 0.55364 0.17973 0.74229 0.0
C1275 C 0.54094 0.19127 0.76848 0.0
C1276 C 0.57355 0.15523 0.745 0.0
C1277 C 0.58091 0.14141 0.77409 0.0
C1278 C 0.56769 0.15288 0.80041 0.0
C1279 C 0.54814 0.17763 0.79758 0.0
H1280 H 0.72693 0.56862 0.15422 0.0
H1281 H 0.74324 0.59978 0.22189 0.0
H1282 H 0.72695 0.6063 0.11564 0.0
H1283 H 0.74246 0.63773 0.18379 0.0
H1284 H 0.76245 0.69685 0.10297 0.0
H1285 H 0.7637 0.65847 0.14052 0.0
H1286 H 0.70484 0.64864 0.0955 0.0
H1287 H 0.70433 0.68668 0.05745 0.0
C1288 C 0.7305 0.58347 0.16106 0.0
C1289 C 0.73524 0.5806 0.19162 0.0
C1290 C 0.73028 0.60547 0.13874 0.0
C1291 C 0.73471 0.62578 0.14588 0.0
C1292 C 0.73944 0.6228 0.17654 0.0
C1293 C 0.73973 0.60079 0.19878 0.0
C1294 C 0.74977 0.68655 0.1009 0.0
C1295 C 0.73333 0.69533 0.07665 0.0
C1296 C 0.7503 0.66433 0.12286 0.0
C1297 C 0.73433 0.64976 0.12181 0.0
C1298 C 0.71791 0.65861 0.09743 0.0
C1299 C 0.71744 0.68081 0.07542 0.0
H1300 H 0.90139 0.48009 0.53733 0.0
H1301 H 0.88091 0.56004 0.50233 0.0
H1302 H 0.85935 0.48178 0.52017 0.0
H1303 H 0.83914 0.56158 0.48502 0.0
H1304 H 0.82251 0.49314 0.42849 0.0
H1305 H 0.85234 0.48797 0.46568 0.0
H1306 H 0.79235 0.55606 0.4974 0.0
H1307 H 0.76208 0.5611 0.46029 0.0
C1308 C 0.88762 0.49814 0.52661 0.0
C1309 C 0.89478 0.51986 0.5206 0.0
C1310 C 0.86358 0.49905 0.51677 0.0
C1311 C 0.84617 0.52172 0.50098 0.0
C1312 C 0.85204 0.54385 0.49733 0.0
C1313 C 0.87614 0.54292 0.50701 0.0
C1314 C 0.8151 0.50652 0.44413 0.0
C1315 C 0.79017 0.52776 0.44108 0.0
C1316 C 0.83223 0.50355 0.46551 0.0
C1317 C 0.8248 0.52179 0.48418 0.0
C1318 C 0.79875 0.54193 0.48294 0.0
C1319 C 0.78152 0.54484 0.46165 0.0
H1320 H 0.13344 0.54115 0.60176 0.0
H1321 H 0.1935 0.46918 0.58073 0.0
H1322 H 0.10462 0.54231 0.56534 0.0
H1323 H 0.16406 0.47006 0.54509 0.0
H1324 H 0.05816 0.53667 0.4956 0.0
H1325 H 0.10083 0.53855 0.50802 0.0
H1326 H 0.11323 0.46711 0.5703 0.0
H1327 H 0.07026 0.46569 0.55878 0.0
C1328 C 0.14108 0.52608 0.58849 0.0
C1329 C 0.1653 0.50475 0.5947 0.0
C1330 C 0.12458 0.52676 0.5676 0.0
C1331 C 0.13202 0.50608 0.55288 0.0
C1332 C 0.15784 0.4861 0.55644 0.0
C1333 C 0.1745 0.48555 0.57699 0.0
C1334 C 0.07052 0.52108 0.51125 0.0
C1335 C 0.06099 0.50109 0.52646 0.0
C1336 C 0.09482 0.52219 0.51832 0.0
C1337 C 0.11025 0.50294 0.53995 0.0
C1338 C 0.10188 0.48202 0.55322 0.0
C1339 C 0.07726 0.48126 0.54681 0.0
H1340 H 0.55979 0.78979 0.21062 0.0
H1341 H 0.51424 0.77828 0.15025 0.0
H1342 H 0.59603 0.79488 0.16685 0.0
H1343 H 0.54935 0.78498 0.10596 0.0
H1344 H 0.6371 0.76019 0.04599 0.0
H1345 H 0.59502 0.76341 0.08476 0.0
H1346 H 0.61075 0.8178 0.12101 0.0
H1347 H 0.6539 0.81311 0.08337 0.0
C1348 C 0.55721 0.789 0.18778 0.0
C1349 C 0.53447 0.78337 0.18382 0.0
C1350 C 0.57788 0.79209 0.16254 0.0
C1351 C 0.57589 0.79016 0.13266 0.0
C1352 C 0.55212 0.78593 0.12862 0.0
C1353 C 0.53185 0.78226 0.15397 0.0
C1354 C 0.63118 0.77319 0.06188 0.0
C1355 C 0.64877 0.78626 0.0619 0.0
C1356 C 0.60695 0.77515 0.08415 0.0
C1357 C 0.59949 0.79066 0.10648 0.0
C1358 C 0.61617 0.8051 0.10489 0.0
C1359 C 0.64074 0.80265 0.0831 0.0
H1360 H 0.63834 0.5371 0.10258 0.0
H1361 H 0.69997 0.46908 0.07195 0.0
H1362 H 0.60894 0.54119 0.0654 0.0
H1363 H 0.67009 0.47299 0.035 0.0
H1364 H 0.56206 0.54747 0.99201 0.0
H1365 H 0.60328 0.54648 1.01021 0.0
H1366 H 0.62312 0.46705 0.04763 0.0
H1367 H 0.58208 0.46791 0.02939 0.0
C1368 C 0.64608 0.52346 0.08724 0.0
C1369 C 0.67126 0.50253 0.09058 0.0
C1370 C 0.6292 0.52581 0.06589 0.0
C1371 C 0.63712 0.50723 0.04758 0.0
C1372 C 0.66334 0.48737 0.04918 0.0
C1373 C 0.68033 0.48511 0.07039 0.0
C1374 C 0.57559 0.52964 1.00345 0.0
C1375 C 0.56854 0.50783 1.00977 0.0
C1376 C 0.59914 0.52913 0.01391 0.0
C1377 C 0.61619 0.50678 0.03057 0.0
C1378 C 0.61047 0.48453 0.03464 0.0
C1379 C 0.58681 0.48506 0.0244 0.0
H1380 H 0.3903 0.41222 0.1413 0.0
H1381 H 0.45022 0.38061 0.06481 0.0
H1382 H 0.36036 0.38979 0.13801 0.0
H1383 H 0.42013 0.35863 0.06099 0.0
H1384 H 0.37087 0.30575 0.07907 0.0
H1385 H 0.40233 0.32541 0.08576 0.0
H1386 H 0.32977 0.39199 0.10418 0.0
H1387 H 0.29839 0.37205 0.09812 0.0
C1388 C 0.39707 0.4004 0.12385 0.0
C1389 C 0.42259 0.39811 0.10336 0.0
C1390 C 0.37988 0.38767 0.12183 0.0
C1391 C 0.38772 0.37254 0.09908 0.0
C1392 C 0.41361 0.36981 0.07907 0.0
C1393 C 0.43088 0.3824 0.08125 0.0
C1394 C 0.36172 0.32465 0.08436 0.0
C1395 C 0.3322 0.33739 0.08806 0.0
C1396 C 0.37972 0.33593 0.0882 0.0
C1397 C 0.3686 0.36027 0.0956 0.0
C1398 C 0.33904 0.37303 0.09911 0.0
C1399 C 0.32105 0.36168 0.0955 0.0
H1400 H 0.07146 0.20093 0.29099 0.0
H1401 H 0.01754 0.17716 0.25506 0.0
H1402 H 0.10689 0.15847 0.29394 0.0
H1403 H 0.05309 0.13457 0.25818 0.0
H1404 H 0.14182 0.07241 0.23264 0.0
H1405 H 0.10228 0.11272 0.23245 0.0
H1406 H 0.11327 0.11522 0.32341 0.0
H1407 H 0.15272 0.07513 0.32368 0.0
C1408 C 0.06708 0.18666 0.28382 0.0
C1409 C 0.04159 0.19252 0.27282 0.0
C1410 C 0.08734 0.16224 0.28572 0.0
C1411 C 0.08277 0.14309 0.27642 0.0
C1412 C 0.05731 0.14892 0.26536 0.0
C1413 C 0.03688 0.17332 0.26375 0.0
C1414 C 0.1355 0.08132 0.25284 0.0
C1415 C 0.15062 0.07051 0.2781 0.0
C1416 C 0.1128 0.10443 0.25272 0.0
C1417 C 0.10486 0.11733 0.27776 0.0
C1418 C 0.11917 0.10598 0.30354 0.0
C1419 C 0.14169 0.08285 0.30376 0.0
H1420 H 0.23173 0.3549 0.98419 0.0
H1421 H 0.22729 0.32169 0.91124 0.0
H1422 H 0.22919 0.39412 0.94746 0.0
H1423 H 0.22532 0.36053 0.87444 0.0
H1424 H 0.19964 0.44093 0.81681 0.0
H1425 H 0.20003 0.40264 0.85461 0.0
H1426 H 0.25172 0.41617 0.90579 0.0
H1427 H 0.25078 0.45453 0.86845 0.0
C1428 C 0.23026 0.3558 0.96034 0.0
C1429 C 0.2297 0.33462 0.9512 0.0
C1430 C 0.22898 0.3785 0.93892 0.0
C1431 C 0.227 0.38118 0.9073 0.0
C1432 C 0.22635 0.35994 0.89832 0.0
C1433 C 0.2277 0.33728 0.91968 0.0
C1434 C 0.21096 0.4359 0.8362 0.0
C1435 C 0.22505 0.45138 0.83915 0.0
C1436 C 0.21143 0.41357 0.85803 0.0
C1437 C 0.22597 0.40561 0.88391 0.0
C1438 C 0.23985 0.4213 0.88686 0.0
C1439 C 0.23943 0.44354 0.86504 0.0
H1440 H 0.33117 0.267 0.98722 0.0
H1441 H 0.30935 0.22442 0.93766 0.0
H1442 H 0.37309 0.26571 0.94842 0.0
H1443 H 0.35016 0.22421 0.89825 0.0
H1444 H 0.43308 0.21584 0.83701 0.0
H1445 H 0.39915 0.21016 0.88314 0.0
H1446 H 0.38296 0.28533 0.89717 0.0
H1447 H 0.41799 0.29034 0.85204 0.0
C1448 C 0.33546 0.25719 0.96818 0.0
C1449 C 0.31689 0.24593 0.96542 0.0
C1450 C 0.35935 0.25664 0.94577 0.0
C1451 C 0.36492 0.24514 0.91988 0.0
C1452 C 0.34691 0.23294 0.91798 0.0
C1453 C 0.32333 0.23316 0.94059 0.0
C1454 C 0.42239 0.23104 0.85015 0.0
C1455 C 0.428 0.25359 0.84085 0.0
C1456 C 0.40284 0.22785 0.87654 0.0
C1457 C 0.38805 0.24734 0.89387 0.0
C1458 C 0.39422 0.2697 0.88482 0.0
C1459 C 0.41416 0.2727 0.85875 0.0
H1460 H 0.39134 0.55986 0.97812 0.0
H1461 H 0.40595 0.48892 0.04176 0.0
H1462 H 0.34709 0.55871 0.97036 0.0
H1463 H 0.36148 0.48745 0.03358 0.0
H1464 H 0.32512 0.48062 0.94712 0.0
H1465 H 0.35382 0.48124 0.98249 0.0
H1466 H 0.29837 0.5573 0.99232 0.0
H1467 H 0.27024 0.55707 0.95626 0.0
C1468 C 0.38455 0.5444 0.99113 0.0
C1469 C 0.40197 0.52441 1.01026 0.0
C1470 C 0.35911 0.5438 0.98694 0.0
C1471 C 0.35089 0.52293 1.00135 0.0
C1472 C 0.36736 0.50374 0.02227 0.0
C1473 C 0.39267 0.50462 0.02698 0.0
C1474 C 0.31863 0.49721 0.9575 0.0
C1475 C 0.29592 0.51902 0.94824 0.0
C1476 C 0.33482 0.49745 0.9781 0.0
C1477 C 0.32853 0.51951 0.98967 0.0
C1478 C 0.30379 0.54016 0.98342 0.0
C1479 C 0.28763 0.53995 0.96283 0.0
H1480 H 0.5906 0.72242 0.9648 0.0
H1481 H 0.64983 0.68675 0.89047 0.0
H1482 H 0.55666 0.70505 0.95887 0.0
H1483 H 0.61586 0.66962 0.88443 0.0
H1484 H 0.54004 0.65842 0.86528 0.0
H1485 H 0.56893 0.68186 0.86871 0.0
H1486 H 0.55434 0.66251 0.96858 0.0
H1487 H 0.52588 0.63898 0.96524 0.0
C1488 C 0.59639 0.71085 0.94724 0.0
C1489 C 0.62294 0.70589 0.92818 0.0
C1490 C 0.57692 0.70099 0.94378 0.0
C1491 C 0.58359 0.68603 0.92114 0.0
C1492 C 0.60991 0.68146 0.90172 0.0
C1493 C 0.62939 0.69124 0.90522 0.0
C1494 C 0.5429 0.6593 0.88794 0.0
C1495 C 0.53066 0.64683 0.91496 0.0
C1496 C 0.55942 0.6727 0.88991 0.0
C1497 C 0.56394 0.67395 0.91891 0.0
C1498 C 0.5509 0.66222 0.94592 0.0
C1499 C 0.53451 0.64877 0.94397 0.0
H1500 H 0.92991 0.84736 0.7973 0.0
H1501 H 0.91708 0.84306 0.70808 0.0
H1502 H 0.8934 0.88931 0.79488 0.0
H1503 H 0.88233 0.88572 0.70411 0.0
H1504 H 0.79597 0.94437 0.72409 0.0
H1505 H 0.83655 0.90598 0.723 0.0
H1506 H 0.87623 0.93206 0.77558 0.0
H1507 H 0.83398 0.97026 0.77844 0.0
C1508 C 0.91963 0.85572 0.77685 0.0
C1509 C 0.9259 0.84196 0.75307 0.0
C1510 C 0.89883 0.87989 0.77527 0.0
C1511 C 0.88439 0.89106 0.74945 0.0
C1512 C 0.89209 0.8776 0.72489 0.0
C1513 C 0.9122 0.85318 0.72696 0.0
C1514 C 0.81346 0.94219 0.73511 0.0
C1515 C 0.81173 0.96049 0.75128 0.0
C1516 C 0.83705 0.92005 0.73429 0.0
C1517 C 0.8601 0.91567 0.749 0.0
C1518 C 0.8588 0.93443 0.76438 0.0
C1519 C 0.83471 0.95649 0.7658 0.0
H1520 H 0.49493 0.1412 0.65237 0.0
H1521 H 0.41987 0.19003 0.61176 0.0
H1522 H 0.50169 0.10949 0.62221 0.0
H1523 H 0.42579 0.15792 0.58289 0.0
H1524 H 0.45937 0.10601 0.51183 0.0
H1525 H 0.45458 0.13782 0.54062 0.0
H1526 H 0.48197 0.07947 0.61898 0.0
H1527 H 0.48755 0.04751 0.5898 0.0
C1528 C 0.47991 0.14525 0.63695 0.0
C1529 C 0.45681 0.16825 0.63463 0.0
C1530 C 0.48357 0.12688 0.61994 0.0
C1531 C 0.46424 0.131 0.60012 0.0
C1532 C 0.44131 0.1541 0.59761 0.0
C1533 C 0.4377 0.17246 0.61453 0.0
C1534 C 0.46434 0.09989 0.53522 0.0
C1535 C 0.47377 0.07411 0.54846 0.0
C1536 C 0.46146 0.11822 0.55184 0.0
C1537 C 0.4678 0.11133 0.58225 0.0
C1538 C 0.47725 0.08552 0.59549 0.0
C1539 C 0.48025 0.06716 0.57881 0.0
H1540 H 0.52286 0.33647 0.92056 0.0
H1541 H 0.49359 0.39268 0.84123 0.0
H1542 H 0.51875 0.36955 0.94707 0.0
H1543 H 0.48863 0.42588 0.86817 0.0
H1544 H 0.51451 0.47509 0.91256 0.0
H1545 H 0.51835 0.44223 0.88569 0.0
H1546 H 0.48292 0.40425 0.97075 0.0
H1547 H 0.47947 0.43675 0.9977 0.0
C1548 C 0.51551 0.3559 0.90878 0.0
C1549 C 0.50863 0.36189 0.87872 0.0
C1550 C 0.51289 0.3749 0.92411 0.0
C1551 C 0.50338 0.4004 0.90976 0.0
C1552 C 0.49631 0.40642 0.87977 0.0
C1553 C 0.49883 0.38741 0.86448 0.0
C1554 C 0.50759 0.45971 0.92555 0.0
C1555 C 0.49674 0.45859 0.95733 0.0
C1556 C 0.50961 0.44095 0.91009 0.0
C1557 C 0.50095 0.42057 0.92604 0.0
C1558 C 0.49012 0.41948 0.95781 0.0
C1559 C 0.48802 0.43824 0.97324 0.0
H1560 H 0.52619 0.84024 0.41182 0.0
H1561 H 0.50004 0.89445 0.3299 0.0
H1562 H 0.5217 0.87412 0.43698 0.0
H1563 H 0.49462 0.9286 0.35559 0.0
H1564 H 0.51661 0.97983 0.40171 0.0
H1565 H 0.52218 0.94639 0.37471 0.0
H1566 H 0.48463 0.90895 0.45865 0.0
H1567 H 0.47948 0.94193 0.48564 0.0
C1568 C 0.51963 0.85939 0.39907 0.0
C1569 C 0.51359 0.86454 0.36873 0.0
C1570 C 0.51671 0.87889 0.41368 0.0
C1571 C 0.50767 0.90416 0.39841 0.0
C1572 C 0.50184 0.90936 0.36796 0.0
C1573 C 0.50467 0.8898 0.35334 0.0
C1574 C 0.50957 0.96445 0.4144 0.0
C1575 C 0.4977 0.96359 0.44591 0.0
C1576 C 0.51261 0.94534 0.39886 0.0
C1577 C 0.50397 0.92488 0.41451 0.0
C1578 C 0.49195 0.92417 0.44596 0.0
C1579 C 0.48884 0.94324 0.46142 0.0
H1580 H 0.484 0.54627 0.09837 0.0
H1581 H 0.46044 0.60232 0.0169 0.0
H1582 H 0.47775 0.57947 0.12592 0.0
H1583 H 0.45505 0.6353 0.04402 0.0
H1584 H 0.41877 0.69099 0.11047 0.0
H1585 H 0.42485 0.6574 0.08402 0.0
H1586 H 0.49792 0.60931 0.12852 0.0
H1587 H 0.49087 0.64253 0.15638 0.0
C1588 C 0.47758 0.56564 0.08628 0.0
C1589 C 0.47254 0.57159 0.05546 0.0
C1590 C 0.47419 0.5847 0.10202 0.0
C1591 C 0.46583 0.61015 0.08728 0.0
C1592 C 0.46099 0.61601 0.05637 0.0
C1593 C 0.4642 0.59702 0.04073 0.0
C1594 C 0.43596 0.67318 0.11495 0.0
C1595 C 0.45424 0.66953 0.13574 0.0
C1596 C 0.43969 0.65396 0.09941 0.0
C1597 C 0.46193 0.63057 0.10401 0.0
C1598 C 0.48035 0.62695 0.12465 0.0
C1599 C 0.47654 0.64616 0.14032 0.0
loop_
_geom_bond_atom_site_label_1
_geom_bond_atom_site_label_2
_geom_bond_distance
_geom_bond_site_symmetry_2
_ccdc_geom_bond_type
Tb0 C10 2.825 . S
Tb0 O11 2.347 1_564 S
Tb0 O14 2.366 1_654 S
Tb0 O19 2.418 1_655 S
Tb0 O20 2.384 1_565 S
Tb0 O23 2.479 . S
Tb0 O24 2.471 . S
Eu1 O12 2.418 1_455 S
Eu1 O13 2.384 1_545 S
Eu1 O16 2.479 . S
Eu1 O17 2.471 . S
Eu1 O18 2.347 1_546 S
Eu1 O21 2.366 1_456 S
Eu1 C31 2.825 . S
C2 O18 1.259 . S
C2 O19 1.265 . S
C3 O20 1.255 . S
C3 O21 1.265 . S
C4 C6 1.380 . S
C4 C7 1.374 . S
C4 C10 1.507 . S
C5 C6 1.384 . S
C5 C9 1.387 . S
C5 H32 0.930 . S
C6 C4 1.380 . S
C6 C5 1.384 . S
C6 H33 0.931 . S
C7 C4 1.374 . S
C7 C8 1.390 . S
C7 H34 0.933 1_554 S
C8 C7 1.390 . S
C8 C9 1.391 . S
C8 H35 0.930 . S
C9 C5 1.387 . S
C9 C8 1.391 . S
C10 Tb0 2.825 . S
C10 C4 1.507 . S
C10 O23 1.238 . S
C10 O24 1.247 . S
O11 Tb0 2.347 1_546 S
O11 C15 1.259 . S
O12 Eu1 2.418 1_655 S
O12 C15 1.265 . S
O13 Eu1 2.384 1_565 S
O13 C22 1.255 . S
O14 Tb0 2.366 1_456 S
O14 C22 1.265 . S
C15 O11 1.259 . S
C15 O12 1.265 . S
O16 Eu1 2.479 . S
O16 C31 1.238 . S
O17 Eu1 2.471 . S
O17 C31 1.247 . S
O18 Eu1 2.347 1_564 S
O18 C2 1.259 . S
O19 Tb0 2.418 1_455 S
O19 C2 1.265 . S
O20 Tb0 2.384 1_545 S
O20 C3 1.255 . S
O21 Eu1 2.366 1_654 S
O21 C3 1.265 . S
C22 O13 1.255 . S
C22 O14 1.265 . S
O23 Tb0 2.479 . S
O23 C10 1.238 . S
O24 Tb0 2.471 . S
O24 C10 1.247 . S
C25 C28 1.380 . S
C25 C29 1.374 . S
C25 C31 1.507 . S
C26 C27 1.387 . S
C26 C30 1.391 . S
C27 C26 1.387 . S
C27 C28 1.384 . S
C27 H36 0.930 . S
C28 C25 1.380 . S
C28 C27 1.384 . S
C28 H37 0.931 . S
C29 C25 1.374 . S
C29 C30 1.390 . S
C29 H38 0.920 1_556 S
C30 C26 1.391 . S
C30 C29 1.390 . S
C30 H39 0.930 . S
C31 Eu1 2.825 . S
C31 O16 1.238 . S
C31 O17 1.247 . S
C31 C25 1.507 . S
H32 C5 0.930 . S
H33 C6 0.931 . S
H34 C7 0.933 1_556 S
H35 C8 0.930 . S
H36 C27 0.930 . S
H37 C28 0.931 . S
H38 C29 0.920 1_554 S
H39 C30 0.930 . S
Tb40 C50 2.825 . S
Tb40 O51 2.347 1_455 S
Tb40 O54 2.366 1_455 S
Tb40 O59 2.418 . S
Tb40 O60 2.384 . S
Tb40 O63 2.479 . S
Tb40 O64 2.471 1_455 S
Eu41 O52 2.418 . S
Eu41 O53 2.384 . S
Eu41 O56 2.479 . S
Eu41 O57 2.471 1_655 S
Eu41 O58 2.347 1_655 S
Eu41 O61 2.366 1_655 S
Eu41 C71 2.825 . S
C42 O58 1.259 . S
C42 O59 1.265 . S
C43 O60 1.255 . S
C43 O61 1.265 . S
C44 C46 1.380 . S
C44 C47 1.374 1_455 S
C44 C50 1.507 . S
C45 C46 1.384 . S
C45 C49 1.387 1_455 S
C45 H72 0.930 . S
C46 C44 1.380 . S
C46 C45 1.384 . S
C46 H73 0.931 . S
C47 C44 1.374 1_655 S
C47 C48 1.390 . S
C47 H74 0.930 . S
C48 C47 1.390 . S
C48 C49 1.391 . S
C48 H75 0.930 . S
C49 C45 1.387 1_655 S
C49 C48 1.391 . S
C50 Tb40 2.825 . S
C50 C44 1.507 . S
C50 O63 1.238 . S
C50 O64 1.247 1_455 S
O51 Tb40 2.347 1_655 S
O51 C55 1.259 . S
O52 Eu41 2.418 . S
O52 C55 1.265 . S
O53 Eu41 2.384 . S
O53 C62 1.255 . S
O54 Tb40 2.366 1_655 S
O54 C62 1.265 . S
C55 O51 1.259 . S
C55 O52 1.265 . S
O56 Eu41 2.479 . S
O56 C71 1.238 . S
O57 Eu41 2.471 1_455 S
O57 C71 1.247 1_455 S
O58 Eu41 2.347 1_455 S
O58 C42 1.259 . S
O59 Tb40 2.418 . S
O59 C42 1.265 . S
O60 Tb40 2.384 . S
O60 C43 1.255 . S
O61 Eu41 2.366 1_455 S
O61 C43 1.265 . S
C62 O53 1.255 . S
C62 O54 1.265 . S
O63 Tb40 2.479 . S
O63 C50 1.238 . S
O64 Tb40 2.471 1_655 S
O64 C50 1.247 1_655 S
C65 C68 1.380 . S
C65 C69 1.374 1_655 S
C65 C71 1.507 . S
C66 C67 1.387 1_455 S
C66 C70 1.391 . S
C67 C66 1.387 1_655 S
C67 C68 1.384 . S
C67 H76 0.930 . S
C68 C65 1.380 . S
C68 C67 1.384 . S
C68 H77 0.931 . S
C69 C65 1.374 1_455 S
C69 C70 1.390 . S
C69 H78 0.930 . S
C70 C66 1.391 . S
C70 C69 1.390 . S
C70 H79 0.930 . S
C71 Eu41 2.825 . S
C71 O56 1.238 . S
C71 O57 1.247 1_655 S
C71 C65 1.507 . S
H72 C45 0.930 . S
H73 C46 0.931 . S
H74 C47 0.930 . S
H75 C48 0.930 . S
H76 C67 0.930 . S
H77 C68 0.931 . S
H78 C69 0.930 . S
H79 C70 0.930 . S
Tb80 C90 2.825 . S
Tb80 O91 2.347 . S
Tb80 O94 2.366 . S
Tb80 O99 2.418 . S
Tb80 O100 2.384 . S
Tb80 O103 2.479 . S
Tb80 O104 2.471 . S
Eu81 O92 2.418 . S
Eu81 O93 2.384 . S
Eu81 O96 2.479 . S
Eu81 O97 2.471 . S
Eu81 O98 2.347 . S
Eu81 O101 2.366 . S
Eu81 C111 2.825 . S
C82 O98 1.259 . S
C82 O99 1.265 . S
C83 O100 1.255 . S
C83 O101 1.265 . S
C84 C86 1.380 . S
C84 C87 1.374 . S
C84 C90 1.507 . S
C85 C86 1.384 . S
C85 C89 1.387 . S
C85 H112 0.930 . S
C86 C84 1.380 . S
C86 C85 1.384 . S
C86 H113 0.931 . S
C87 C84 1.374 . S
C87 C88 1.390 . S
C87 H114 0.930 . S
C88 C87 1.390 . S
C88 C89 1.391 . S
C88 H115 0.930 . S
C89 C85 1.387 . S
C89 C88 1.391 . S
C90 Tb80 2.825 . S
C90 C84 1.507 . S
C90 O103 1.238 . S
C90 O104 1.247 . S
O91 Tb80 2.347 . S
O91 C95 1.259 . S
O92 Eu81 2.418 . S
O92 C95 1.265 . S
O93 Eu81 2.384 . S
O93 C102 1.255 . S
O94 Tb80 2.366 . S
O94 C102 1.265 . S
C95 O91 1.259 . S
C95 O92 1.265 . S
O96 Eu81 2.479 . S
O96 C111 1.238 . S
O97 Eu81 2.471 . S
O97 C111 1.247 . S
O98 Eu81 2.347 . S
O98 C82 1.259 . S
O99 Tb80 2.418 . S
O99 C82 1.265 . S
O100 Tb80 2.384 . S
O100 C83 1.255 . S
O101 Eu81 2.366 . S
O101 C83 1.265 . S
C102 O93 1.255 . S
C102 O94 1.265 . S
O103 Tb80 2.479 . S
O103 C90 1.238 . S
O104 Tb80 2.471 . S
O104 C90 1.247 . S
C105 C108 1.380 . S
C105 C109 1.374 . S
C105 C111 1.507 . S
C106 C107 1.387 . S
C106 C110 1.391 . S
C107 C106 1.387 . S
C107 C108 1.384 . S
C107 H116 0.930 . S
C108 C105 1.380 . S
C108 C107 1.384 . S
C108 H117 0.931 . S
C109 C105 1.374 . S
C109 C110 1.390 . S
C109 H118 0.930 . S
C110 C106 1.391 . S
C110 C109 1.390 . S
C110 H119 0.930 . S
C111 Eu81 2.825 . S
C111 O96 1.238 . S
C111 O97 1.247 . S
C111 C105 1.507 . S
H112 C85 0.930 . S
H113 C86 0.931 . S
H114 C87 0.930 . S
H115 C88 0.930 . S
H116 C107 0.930 . S
H117 C108 0.931 . S
H118 C109 0.930 . S
H119 C110 0.930 . S
Tb120 C130 2.825 . S
Tb120 O131 2.347 1_565 S
Tb120 O134 2.366 1_565 S
Tb120 O139 2.418 . S
Tb120 O140 2.384 . S
Tb120 O143 2.479 . S
Tb120 O144 2.471 1_565 S
Eu121 O132 2.418 . S
Eu121 O133 2.384 . S
Eu121 O136 2.479 . S
Eu121 O137 2.471 1_545 S
Eu121 O138 2.347 1_545 S
Eu121 O141 2.366 1_545 S
Eu121 C151 2.825 . S
C122 O138 1.259 . S
C122 O139 1.265 . S
C123 O140 1.255 . S
C123 O141 1.265 . S
C124 C126 1.380 1_545 S
C124 C127 1.374 . S
C124 C130 1.507 1_545 S
C125 C126 1.384 . S
C125 C129 1.387 1_565 S
C125 H152 0.930 . S
C126 C124 1.380 1_565 S
C126 C125 1.384 . S
C126 H153 0.931 . S
C127 C124 1.374 . S
C127 C128 1.390 . S
C127 H154 0.930 . S
C128 C127 1.390 . S
C128 C129 1.391 . S
C128 H155 0.930 . S
C129 C125 1.387 1_545 S
C129 C128 1.391 . S
C130 Tb120 2.825 . S
C130 C124 1.507 1_565 S
C130 O143 1.238 . S
C130 O144 1.247 1_565 S
O131 Tb120 2.347 1_545 S
O131 C135 1.259 . S
O132 Eu121 2.418 . S
O132 C135 1.265 . S
O133 Eu121 2.384 . S
O133 C142 1.255 . S
O134 Tb120 2.366 1_545 S
O134 C142 1.265 . S
C135 O131 1.259 . S
C135 O132 1.265 . S
O136 Eu121 2.479 . S
O136 C151 1.238 . S
O137 Eu121 2.471 1_565 S
O137 C151 1.247 1_565 S
O138 Eu121 2.347 1_565 S
O138 C122 1.259 . S
O139 Tb120 2.418 . S
O139 C122 1.265 . S
O140 Tb120 2.384 . S
O140 C123 1.255 . S
O141 Eu121 2.366 1_565 S
O141 C123 1.265 . S
C142 O133 1.255 . S
C142 O134 1.265 . S
O143 Tb120 2.479 . S
O143 C130 1.238 . S
O144 Tb120 2.471 1_545 S
O144 C130 1.247 1_545 S
C145 C148 1.380 1_565 S
C145 C149 1.374 . S
C145 C151 1.507 1_565 S
C146 C147 1.387 1_565 S
C146 C150 1.391 . S
C147 C146 1.387 1_545 S
C147 C148 1.384 . S
C147 H156 0.930 . S
C148 C145 1.380 1_545 S
C148 C147 1.384 . S
C148 H157 0.931 . S
C149 C145 1.374 . S
C149 C150 1.390 . S
C149 H158 0.930 . S
C150 C146 1.391 . S
C150 C149 1.390 . S
C150 H159 0.930 . S
C151 Eu121 2.825 . S
C151 O136 1.238 . S
C151 O137 1.247 1_545 S
C151 C145 1.507 1_545 S
H152 C125 0.930 . S
H153 C126 0.931 . S
H154 C127 0.930 . S
H155 C128 0.930 . S
H156 C147 0.930 . S
H157 C148 0.931 . S
H158 C149 0.930 . S
H159 C150 0.930 . S
Tb160 C170 2.825 . S
Tb160 O171 2.347 . S
Tb160 O174 2.366 . S
Tb160 O179 2.418 . S
Tb160 O180 2.384 . S
Tb160 O183 2.479 . S
Tb160 O184 2.471 . S
Eu161 O172 2.418 . S
Eu161 O173 2.384 . S
Eu161 O176 2.479 . S
Eu161 O177 2.471 . S
Eu161 O178 2.347 . S
Eu161 O181 2.366 . S
Eu161 C191 2.825 . S
C162 O178 1.259 . S
C162 O179 1.265 . S
C163 O180 1.255 . S
C163 O181 1.265 . S
C164 C166 1.380 . S
C164 C167 1.374 . S
C164 C170 1.507 . S
C165 C166 1.384 . S
C165 C169 1.387 . S
C165 H192 0.930 . S
C166 C164 1.380 . S
C166 C165 1.384 . S
C166 H193 0.931 . S
C167 C164 1.374 . S
C167 C168 1.390 . S
C167 H194 0.930 . S
C168 C167 1.390 . S
C168 C169 1.391 . S
C168 H195 0.930 . S
C169 C165 1.387 . S
C169 C168 1.391 . S
C170 Tb160 2.825 . S
C170 C164 1.507 . S
C170 O183 1.238 . S
C170 O184 1.247 . S
O171 Tb160 2.347 . S
O171 C175 1.259 . S
O172 Eu161 2.418 . S
O172 C175 1.265 . S
O173 Eu161 2.384 . S
O173 C182 1.255 . S
O174 Tb160 2.366 . S
O174 C182 1.265 . S
C175 O171 1.259 . S
C175 O172 1.265 . S
O176 Eu161 2.479 . S
O176 C191 1.238 . S
O177 Eu161 2.471 . S
O177 C191 1.247 . S
O178 Eu161 2.347 . S
O178 C162 1.259 . S
O179 Tb160 2.418 . S
O179 C162 1.265 . S
O180 Tb160 2.384 . S
O180 C163 1.255 . S
O181 Eu161 2.366 . S
O181 C163 1.265 . S
C182 O173 1.255 . S
C182 O174 1.265 . S
O183 Tb160 2.479 . S
O183 C170 1.238 . S
O184 Tb160 2.471 . S
O184 C170 1.247 . S
C185 C188 1.380 . S
C185 C189 1.374 . S
C185 C191 1.507 . S
C186 C187 1.387 . S
C186 C190 1.391 . S
C187 C186 1.387 . S
C187 C188 1.384 . S
C187 H196 0.930 . S
C188 C185 1.380 . S
C188 C187 1.384 . S
C188 H197 0.931 . S
C189 C185 1.374 . S
C189 C190 1.390 . S
C189 H198 0.930 . S
C190 C186 1.391 . S
C190 C189 1.390 . S
C190 H199 0.930 . S
C191 Eu161 2.825 . S
C191 O176 1.238 . S
C191 O177 1.247 . S
C191 C185 1.507 . S
H192 C165 0.930 . S
H193 C166 0.931 . S
H194 C167 0.930 . S
H195 C168 0.930 . S
H196 C187 0.930 . S
H197 C188 0.931 . S
H198 C189 0.930 . S
H199 C190 0.930 . S
Tb200 C210 2.825 . S
Tb200 O211 2.347 . S
Tb200 O214 2.366 . S
Tb200 O219 2.418 . S
Tb200 O220 2.384 . S
Tb200 O223 2.479 . S
Tb200 O224 2.471 . S
Eu201 O212 2.418 . S
Eu201 O213 2.384 . S
Eu201 O216 2.479 . S
Eu201 O217 2.471 . S
Eu201 O218 2.347 . S
Eu201 O221 2.366 . S
Eu201 C231 2.825 . S
C202 O218 1.259 . S
C202 O219 1.265 . S
C203 O220 1.255 . S
C203 O221 1.265 . S
C204 C206 1.380 . S
C204 C207 1.374 . S
C204 C210 1.507 . S
C205 C206 1.384 . S
C205 C209 1.387 . S
C205 H232 0.930 . S
C206 C204 1.380 . S
C206 C205 1.384 . S
C206 H233 0.931 . S
C207 C204 1.374 . S
C207 C208 1.390 . S
C207 H234 0.930 . S
C208 C207 1.390 . S
C208 C209 1.391 . S
C208 H235 0.930 . S
C209 C205 1.387 . S
C209 C208 1.391 . S
C210 Tb200 2.825 . S
C210 C204 1.507 . S
C210 O223 1.238 . S
C210 O224 1.247 . S
O211 Tb200 2.347 . S
O211 C215 1.259 . S
O212 Eu201 2.418 . S
O212 C215 1.265 . S
O213 Eu201 2.384 . S
O213 C222 1.255 . S
O214 Tb200 2.366 . S
O214 C222 1.265 . S
C215 O211 1.259 . S
C215 O212 1.265 . S
O216 Eu201 2.479 . S
O216 C231 1.238 . S
O217 Eu201 2.471 . S
O217 C231 1.247 . S
O218 Eu201 2.347 . S
O218 C202 1.259 . S
O219 Tb200 2.418 . S
O219 C202 1.265 . S
O220 Tb200 2.384 . S
O220 C203 1.255 . S
O221 Eu201 2.366 . S
O221 C203 1.265 . S
C222 O213 1.255 . S
C222 O214 1.265 . S
O223 Tb200 2.479 . S
O223 C210 1.238 . S
O224 Tb200 2.471 . S
O224 C210 1.247 . S
C225 C228 1.380 . S
C225 C229 1.374 . S
C225 C231 1.507 . S
C226 C227 1.387 . S
C226 C230 1.391 . S
C227 C226 1.387 . S
C227 C228 1.384 . S
C227 H236 0.930 . S
C228 C225 1.380 . S
C228 C227 1.384 . S
C228 H237 0.931 . S
C229 C225 1.374 . S
C229 C230 1.390 . S
C229 H238 0.930 . S
C230 C226 1.391 . S
C230 C229 1.390 . S
C230 H239 0.930 . S
C231 Eu201 2.825 . S
C231 O216 1.238 . S
C231 O217 1.247 . S
C231 C225 1.507 . S
H232 C205 0.930 . S
H233 C206 0.931 . S
H234 C207 0.930 . S
H235 C208 0.930 . S
H236 C227 0.930 . S
H237 C228 0.931 . S
H238 C229 0.930 . S
H239 C230 0.930 . S
Tb240 C250 2.825 . S
Tb240 O251 2.347 . S
Tb240 O254 2.366 . S
Tb240 O259 2.418 . S
Tb240 O260 2.384 . S
Tb240 O263 2.479 . S
Tb240 O264 2.471 . S
Eu241 O252 2.418 . S
Eu241 O253 2.384 . S
Eu241 O256 2.479 . S
Eu241 O257 2.471 . S
Eu241 O258 2.347 . S
Eu241 O261 2.366 . S
Eu241 C271 2.825 . S
C242 O258 1.259 . S
C242 O259 1.265 . S
C243 O260 1.255 . S
C243 O261 1.265 . S
C244 C246 1.380 . S
C244 C247 1.374 . S
C244 C250 1.507 . S
C245 C246 1.384 . S
C245 C249 1.387 . S
C245 H272 0.930 . S
C246 C244 1.380 . S
C246 C245 1.384 . S
C246 H273 0.931 . S
C247 C244 1.374 . S
C247 C248 1.390 . S
C247 H274 0.930 . S
C248 C247 1.390 . S
C248 C249 1.391 . S
C248 H275 0.930 . S
C249 C245 1.387 . S
C249 C248 1.391 . S
C250 Tb240 2.825 . S
C250 C244 1.507 . S
C250 O263 1.238 . S
C250 O264 1.247 . S
O251 Tb240 2.347 . S
O251 C255 1.259 . S
O252 Eu241 2.418 . S
O252 C255 1.265 . S
O253 Eu241 2.384 . S
O253 C262 1.255 . S
O254 Tb240 2.366 . S
O254 C262 1.265 . S
C255 O251 1.259 . S
C255 O252 1.265 . S
O256 Eu241 2.479 . S
O256 C271 1.238 . S
O257 Eu241 2.471 . S
O257 C271 1.247 . S
O258 Eu241 2.347 . S
O258 C242 1.259 . S
O259 Tb240 2.418 . S
O259 C242 1.265 . S
O260 Tb240 2.384 . S
O260 C243 1.255 . S
O261 Eu241 2.366 . S
O261 C243 1.265 . S
C262 O253 1.255 . S
C262 O254 1.265 . S
O263 Tb240 2.479 . S
O263 C250 1.238 . S
O264 Tb240 2.471 . S
O264 C250 1.247 . S
C265 C268 1.380 . S
C265 C269 1.374 . S
C265 C271 1.507 . S
C266 C267 1.387 . S
C266 C270 1.391 . S
C267 C266 1.387 . S
C267 C268 1.384 . S
C267 H276 0.930 . S
C268 C265 1.380 . S
C268 C267 1.384 . S
C268 H277 0.931 . S
C269 C265 1.374 . S
C269 C270 1.390 . S
C269 H278 0.930 . S
C270 C266 1.391 . S
C270 C269 1.390 . S
C270 H279 0.930 . S
C271 Eu241 2.825 . S
C271 O256 1.238 . S
C271 O257 1.247 . S
C271 C265 1.507 . S
H272 C245 0.930 . S
H273 C246 0.931 . S
H274 C247 0.930 . S
H275 C248 0.930 . S
H276 C267 0.930 . S
H277 C268 0.931 . S
H278 C269 0.930 . S
H279 C270 0.930 . S
Tb280 C290 2.825 . S
Tb280 O291 2.347 . S
Tb280 O294 2.366 1_655 S
Tb280 O299 2.418 1_655 S
Tb280 O300 2.384 . S
Tb280 O303 2.479 . S
Tb280 O304 2.471 . S
Eu281 O292 2.418 1_455 S
Eu281 O293 2.384 . S
Eu281 O296 2.479 . S
Eu281 O297 2.471 . S
Eu281 O298 2.347 . S
Eu281 O301 2.366 1_455 S
Eu281 C311 2.825 . S
C282 O298 1.259 . S
C282 O299 1.265 . S
C283 O300 1.255 . S
C283 O301 1.265 . S
C284 C286 1.380 . S
C284 C287 1.374 . S
C284 C290 1.507 . S
C285 C286 1.384 . S
C285 C289 1.387 . S
C285 H312 0.930 . S
C286 C284 1.380 . S
C286 C285 1.384 . S
C286 H313 0.931 . S
C287 C284 1.374 . S
C287 C288 1.390 . S
C287 H314 0.930 . S
C288 C287 1.390 . S
C288 C289 1.391 . S
C288 H315 0.930 . S
C289 C285 1.387 . S
C289 C288 1.391 . S
C290 Tb280 2.825 . S
C290 C284 1.507 . S
C290 O303 1.238 . S
C290 O304 1.247 . S
O291 Tb280 2.347 . S
O291 C295 1.259 . S
O292 Eu281 2.418 1_655 S
O292 C295 1.265 . S
O293 Eu281 2.384 . S
O293 C302 1.255 . S
O294 Tb280 2.366 1_455 S
O294 C302 1.265 . S
C295 O291 1.259 . S
C295 O292 1.265 . S
O296 Eu281 2.479 . S
O296 C311 1.238 . S
O297 Eu281 2.471 . S
O297 C311 1.247 . S
O298 Eu281 2.347 . S
O298 C282 1.259 . S
O299 Tb280 2.418 1_455 S
O299 C282 1.265 . S
O300 Tb280 2.384 . S
O300 C283 1.255 . S
O301 Eu281 2.366 1_655 S
O301 C283 1.265 . S
C302 O293 1.255 . S
C302 O294 1.265 . S
O303 Tb280 2.479 . S
O303 C290 1.238 . S
O304 Tb280 2.471 . S
O304 C290 1.247 . S
C305 C308 1.380 . S
C305 C309 1.374 . S
C305 C311 1.507 . S
C306 C307 1.387 . S
C306 C310 1.391 . S
C307 C306 1.387 . S
C307 C308 1.384 . S
C307 H316 0.930 . S
C308 C305 1.380 . S
C308 C307 1.384 . S
C308 H317 0.931 . S
C309 C305 1.374 . S
C309 C310 1.390 . S
C309 H318 0.930 . S
C310 C306 1.391 . S
C310 C309 1.390 . S
C310 H319 0.930 . S
C311 Eu281 2.825 . S
C311 O296 1.238 . S
C311 O297 1.247 . S
C311 C305 1.507 . S
H312 C285 0.930 . S
H313 C286 0.931 . S
H314 C287 0.930 . S
H315 C288 0.930 . S
H316 C307 0.930 . S
H317 C308 0.931 . S
H318 C309 0.930 . S
H319 C310 0.930 . S
Tb320 C330 2.825 . S
Tb320 O331 2.347 1_554 S
Tb320 O334 2.366 1_554 S
Tb320 O339 2.418 . S
Tb320 O340 2.384 . S
Tb320 O343 2.479 . S
Tb320 O344 2.471 . S
Eu321 O332 2.418 . S
Eu321 O333 2.384 . S
Eu321 O336 2.479 . S
Eu321 O337 2.471 . S
Eu321 O338 2.347 1_556 S
Eu321 O341 2.366 1_556 S
Eu321 C351 2.825 . S
C322 O338 1.259 . S
C322 O339 1.265 . S
C323 O340 1.255 . S
C323 O341 1.265 . S
C324 C326 1.380 . S
C324 C327 1.374 1_554 S
C324 C330 1.507 . S
C325 C326 1.384 . S
C325 C329 1.387 . S
C325 H352 0.930 . S
C326 C324 1.380 . S
C326 C325 1.384 . S
C326 H353 0.931 . S
C327 C324 1.374 1_556 S
C327 C328 1.390 . S
C327 H354 0.930 . S
C328 C327 1.390 . S
C328 C329 1.391 1_556 S
C328 H355 0.930 . S
C329 C325 1.387 . S
C329 C328 1.391 1_554 S
C330 Tb320 2.825 . S
C330 C324 1.507 . S
C330 O343 1.238 . S
C330 O344 1.247 . S
O331 Tb320 2.347 1_556 S
O331 C335 1.259 . S
O332 Eu321 2.418 . S
O332 C335 1.265 . S
O333 Eu321 2.384 . S
O333 C342 1.255 . S
O334 Tb320 2.366 1_556 S
O334 C342 1.265 . S
C335 O331 1.259 . S
C335 O332 1.265 . S
O336 Eu321 2.479 . S
O336 C351 1.238 . S
O337 Eu321 2.471 . S
O337 C351 1.247 . S
O338 Eu321 2.347 1_554 S
O338 C322 1.259 . S
O339 Tb320 2.418 . S
O339 C322 1.265 . S
O340 Tb320 2.384 . S
O340 C323 1.255 . S
O341 Eu321 2.366 1_554 S
O341 C323 1.265 . S
C342 O333 1.255 . S
C342 O334 1.265 . S
O343 Tb320 2.479 . S
O343 C330 1.238 . S
O344 Tb320 2.471 . S
O344 C330 1.247 . S
C345 C348 1.380 . S
C345 C349 1.374 1_556 S
C345 C351 1.507 . S
C346 C347 1.387 . S
C346 C350 1.391 1_556 S
C347 C346 1.387 . S
C347 C348 1.384 . S
C347 H356 0.930 . S
C348 C345 1.380 . S
C348 C347 1.384 . S
C348 H357 0.931 . S
C349 C345 1.374 1_554 S
C349 C350 1.390 . S
C349 H358 0.930 . S
C350 C346 1.391 1_554 S
C350 C349 1.390 . S
C350 H359 0.930 . S
C351 Eu321 2.825 . S
C351 O336 1.238 . S
C351 O337 1.247 . S
C351 C345 1.507 . S
H352 C325 0.930 . S
H353 C326 0.931 . S
H354 C327 0.930 . S
H355 C328 0.930 . S
H356 C347 0.930 . S
H357 C348 0.931 . S
H358 C349 0.930 . S
H359 C350 0.930 . S
Tb360 C370 2.825 . S
Tb360 O371 2.347 1_565 S
Tb360 O374 2.366 1_565 S
Tb360 O379 2.418 . S
Tb360 O380 2.384 . S
Tb360 O383 2.479 . S
Tb360 O384 2.471 1_565 S
Eu361 O372 2.418 . S
Eu361 O373 2.384 . S
Eu361 O376 2.479 . S
Eu361 O377 2.471 1_545 S
Eu361 O378 2.347 1_545 S
Eu361 O381 2.366 1_545 S
Eu361 C391 2.825 . S
C362 O378 1.259 . S
C362 O379 1.265 . S
C363 O380 1.255 . S
C363 O381 1.265 . S
C364 C366 1.380 1_545 S
C364 C367 1.374 . S
C364 C370 1.507 1_545 S
C365 C366 1.384 . S
C365 C369 1.387 1_565 S
C365 H392 0.930 . S
C366 C364 1.380 1_565 S
C366 C365 1.384 . S
C366 H393 0.931 . S
C367 C364 1.374 . S
C367 C368 1.390 . S
C367 H394 0.930 . S
C368 C367 1.390 . S
C368 C369 1.391 . S
C368 H395 0.930 . S
C369 C365 1.387 1_545 S
C369 C368 1.391 . S
C370 Tb360 2.825 . S
C370 C364 1.507 1_565 S
C370 O383 1.238 . S
C370 O384 1.247 1_565 S
O371 Tb360 2.347 1_545 S
O371 C375 1.259 . S
O372 Eu361 2.418 . S
O372 C375 1.265 . S
O373 Eu361 2.384 . S
O373 C382 1.255 . S
O374 Tb360 2.366 1_545 S
O374 C382 1.265 . S
C375 O371 1.259 . S
C375 O372 1.265 . S
O376 Eu361 2.479 . S
O376 C391 1.238 . S
O377 Eu361 2.471 1_565 S
O377 C391 1.247 1_565 S
O378 Eu361 2.347 1_565 S
O378 C362 1.259 . S
O379 Tb360 2.418 . S
O379 C362 1.265 . S
O380 Tb360 2.384 . S
O380 C363 1.255 . S
O381 Eu361 2.366 1_565 S
O381 C363 1.265 . S
C382 O373 1.255 . S
C382 O374 1.265 . S
O383 Tb360 2.479 . S
O383 C370 1.238 . S
O384 Tb360 2.471 1_545 S
O384 C370 1.247 1_545 S
C385 C388 1.380 1_565 S
C385 C389 1.374 . S
C385 C391 1.507 1_565 S
C386 C387 1.387 1_565 S
C386 C390 1.391 . S
C387 C386 1.387 1_545 S
C387 C388 1.384 . S
C387 H396 0.930 . S
C388 C385 1.380 1_545 S
C388 C387 1.384 . S
C388 H397 0.931 . S
C389 C385 1.374 . S
C389 C390 1.390 . S
C389 H398 0.930 . S
C390 C386 1.391 . S
C390 C389 1.390 . S
C390 H399 0.930 . S
C391 Eu361 2.825 . S
C391 O376 1.238 . S
C391 O377 1.247 1_545 S
C391 C385 1.507 1_545 S
H392 C365 0.930 . S
H393 C366 0.931 . S
H394 C367 0.930 . S
H395 C368 0.930 . S
H396 C387 0.930 . S
H397 C388 0.931 . S
H398 C389 0.930 . S
H399 C390 0.930 . S
Tb400 C410 2.825 . S
Tb400 O411 2.347 . S
Tb400 O414 2.366 . S
Tb400 O419 2.418 . S
Tb400 O420 2.384 . S
Tb400 O423 2.479 . S
Tb400 O424 2.471 . S
Eu401 O412 2.418 . S
Eu401 O413 2.384 . S
Eu401 O416 2.479 . S
Eu401 O417 2.471 . S
Eu401 O418 2.347 . S
Eu401 O421 2.366 . S
Eu401 C431 2.825 . S
C402 O418 1.259 . S
C402 O419 1.265 . S
C403 O420 1.255 . S
C403 O421 1.265 . S
C404 C406 1.380 . S
C404 C407 1.374 . S
C404 C410 1.507 . S
C405 C406 1.384 . S
C405 C409 1.387 . S
C405 H432 0.930 . S
C406 C404 1.380 . S
C406 C405 1.384 . S
C406 H433 0.931 . S
C407 C404 1.374 . S
C407 C408 1.390 . S
C407 H434 0.930 . S
C408 C407 1.390 . S
C408 C409 1.391 . S
C408 H435 0.930 . S
C409 C405 1.387 . S
C409 C408 1.391 . S
C410 Tb400 2.825 . S
C410 C404 1.507 . S
C410 O423 1.238 . S
C410 O424 1.247 . S
O411 Tb400 2.347 . S
O411 C415 1.259 . S
O412 Eu401 2.418 . S
O412 C415 1.265 . S
O413 Eu401 2.384 . S
O413 C422 1.255 . S
O414 Tb400 2.366 . S
O414 C422 1.265 . S
C415 O411 1.259 . S
C415 O412 1.265 . S
O416 Eu401 2.479 . S
O416 C431 1.238 . S
O417 Eu401 2.471 . S
O417 C431 1.247 . S
O418 Eu401 2.347 . S
O418 C402 1.259 . S
O419 Tb400 2.418 . S
O419 C402 1.265 . S
O420 Tb400 2.384 . S
O420 C403 1.255 . S
O421 Eu401 2.366 . S
O421 C403 1.265 . S
C422 O413 1.255 . S
C422 O414 1.265 . S
O423 Tb400 2.479 . S
O423 C410 1.238 . S
O424 Tb400 2.471 . S
O424 C410 1.247 . S
C425 C428 1.380 . S
C425 C429 1.374 . S
C425 C431 1.507 . S
C426 C427 1.387 . S
C426 C430 1.391 . S
C427 C426 1.387 . S
C427 C428 1.384 . S
C427 H436 0.930 . S
C428 C425 1.380 . S
C428 C427 1.384 . S
C428 H437 0.931 . S
C429 C425 1.374 . S
C429 C430 1.390 . S
C429 H438 0.930 . S
C430 C426 1.391 . S
C430 C429 1.390 . S
C430 H439 0.930 . S
C431 Eu401 2.825 . S
C431 O416 1.238 . S
C431 O417 1.247 . S
C431 C425 1.507 . S
H432 C405 0.930 . S
H433 C406 0.931 . S
H434 C407 0.930 . S
H435 C408 0.930 . S
H436 C427 0.930 . S
H437 C428 0.931 . S
H438 C429 0.930 . S
H439 C430 0.930 . S
Tb440 C450 2.825 . S
Tb440 O451 2.347 1_455 S
Tb440 O454 2.366 1_455 S
Tb440 O459 2.418 . S
Tb440 O460 2.384 . S
Tb440 O463 2.479 . S
Tb440 O464 2.471 1_455 S
Eu441 O452 2.418 . S
Eu441 O453 2.384 . S
Eu441 O456 2.479 . S
Eu441 O457 2.471 1_655 S
Eu441 O458 2.347 1_655 S
Eu441 O461 2.366 1_655 S
Eu441 C471 2.825 . S
C442 O458 1.259 . S
C442 O459 1.265 . S
C443 O460 1.255 . S
C443 O461 1.265 . S
C444 C446 1.380 . S
C444 C447 1.374 1_455 S
C444 C450 1.507 . S
C445 C446 1.384 . S
C445 C449 1.387 1_455 S
C445 H472 0.930 . S
C446 C444 1.380 . S
C446 C445 1.384 . S
C446 H473 0.931 . S
C447 C444 1.374 1_655 S
C447 C448 1.390 . S
C447 H474 0.930 . S
C448 C447 1.390 . S
C448 C449 1.391 . S
C448 H475 0.930 . S
C449 C445 1.387 1_655 S
C449 C448 1.391 . S
C450 Tb440 2.825 . S
C450 C444 1.507 . S
C450 O463 1.238 . S
C450 O464 1.247 1_455 S
O451 Tb440 2.347 1_655 S
O451 C455 1.259 . S
O452 Eu441 2.418 . S
O452 C455 1.265 . S
O453 Eu441 2.384 . S
O453 C462 1.255 . S
O454 Tb440 2.366 1_655 S
O454 C462 1.265 . S
C455 O451 1.259 . S
C455 O452 1.265 . S
O456 Eu441 2.479 . S
O456 C471 1.238 . S
O457 Eu441 2.471 1_455 S
O457 C471 1.247 1_455 S
O458 Eu441 2.347 1_455 S
O458 C442 1.259 . S
O459 Tb440 2.418 . S
O459 C442 1.265 . S
O460 Tb440 2.384 . S
O460 C443 1.255 . S
O461 Eu441 2.366 1_455 S
O461 C443 1.265 . S
C462 O453 1.255 . S
C462 O454 1.265 . S
O463 Tb440 2.479 . S
O463 C450 1.238 . S
O464 Tb440 2.471 1_655 S
O464 C450 1.247 1_655 S
C465 C468 1.380 . S
C465 C469 1.374 1_655 S
C465 C471 1.507 . S
C466 C467 1.387 1_455 S
C466 C470 1.391 . S
C467 C466 1.387 1_655 S
C467 C468 1.384 . S
C467 H476 0.930 . S
C468 C465 1.380 . S
C468 C467 1.384 . S
C468 H477 0.931 . S
C469 C465 1.374 1_455 S
C469 C470 1.390 . S
C469 H478 0.930 . S
C470 C466 1.391 . S
C470 C469 1.390 . S
C470 H479 0.930 . S
C471 Eu441 2.825 . S
C471 O456 1.238 . S
C471 O457 1.247 1_655 S
C471 C465 1.507 . S
H472 C445 0.930 . S
H473 C446 0.931 . S
H474 C447 0.930 . S
H475 C448 0.930 . S
H476 C467 0.930 . S
H477 C468 0.931 . S
H478 C469 0.930 . S
H479 C470 0.930 . S
Tb480 C490 2.825 . S
Tb480 O491 2.347 . S
Tb480 O494 2.366 . S
Tb480 O499 2.418 . S
Tb480 O500 2.384 . S
Tb480 O503 2.479 . S
Tb480 O504 2.471 . S
Eu481 O492 2.418 . S
Eu481 O493 2.384 . S
Eu481 O496 2.479 . S
Eu481 O497 2.471 . S
Eu481 O498 2.347 . S
Eu481 O501 2.366 . S
Eu481 C511 2.825 . S
C482 O498 1.259 . S
C482 O499 1.265 . S
C483 O500 1.255 . S
C483 O501 1.265 . S
C484 C486 1.380 . S
C484 C487 1.374 . S
C484 C490 1.507 . S
C485 C486 1.384 . S
C485 C489 1.387 . S
C485 H512 0.930 . S
C486 C484 1.380 . S
C486 C485 1.384 . S
C486 H513 0.931 . S
C487 C484 1.374 . S
C487 C488 1.390 . S
C487 H514 0.930 . S
C488 C487 1.390 . S
C488 C489 1.391 . S
C488 H515 0.930 . S
C489 C485 1.387 . S
C489 C488 1.391 . S
C490 Tb480 2.825 . S
C490 C484 1.507 . S
C490 O503 1.238 . S
C490 O504 1.247 . S
O491 Tb480 2.347 . S
O491 C495 1.259 . S
O492 Eu481 2.418 . S
O492 C495 1.265 . S
O493 Eu481 2.384 . S
O493 C502 1.255 . S
O494 Tb480 2.366 . S
O494 C502 1.265 . S
C495 O491 1.259 . S
C495 O492 1.265 . S
O496 Eu481 2.479 . S
O496 C511 1.238 . S
O497 Eu481 2.471 . S
O497 C511 1.247 . S
O498 Eu481 2.347 . S
O498 C482 1.259 . S
O499 Tb480 2.418 . S
O499 C482 1.265 . S
O500 Tb480 2.384 . S
O500 C483 1.255 . S
O501 Eu481 2.366 . S
O501 C483 1.265 . S
C502 O493 1.255 . S
C502 O494 1.265 . S
O503 Tb480 2.479 . S
O503 C490 1.238 . S
O504 Tb480 2.471 . S
O504 C490 1.247 . S
C505 C508 1.380 . S
C505 C509 1.374 . S
C505 C511 1.507 . S
C506 C507 1.387 . S
C506 C510 1.391 . S
C507 C506 1.387 . S
C507 C508 1.384 . S
C507 H516 0.930 . S
C508 C505 1.380 . S
C508 C507 1.384 . S
C508 H517 0.931 . S
C509 C505 1.374 . S
C509 C510 1.390 . S
C509 H518 0.930 . S
C510 C506 1.391 . S
C510 C509 1.390 . S
C510 H519 0.930 . S
C511 Eu481 2.825 . S
C511 O496 1.238 . S
C511 O497 1.247 . S
C511 C505 1.507 . S
H512 C485 0.930 . S
H513 C486 0.931 . S
H514 C487 0.930 . S
H515 C488 0.930 . S
H516 C507 0.930 . S
H517 C508 0.931 . S
H518 C509 0.930 . S
H519 C510 0.930 . S
Tb520 C530 2.825 . S
Tb520 O531 2.347 1_554 S
Tb520 O534 2.366 1_554 S
Tb520 O539 2.418 . S
Tb520 O540 2.384 . S
Tb520 O543 2.479 . S
Tb520 O544 2.471 . S
Eu521 O532 2.418 . S
Eu521 O533 2.384 . S
Eu521 O536 2.479 . S
Eu521 O537 2.471 . S
Eu521 O538 2.347 1_556 S
Eu521 O541 2.366 1_556 S
Eu521 C551 2.825 . S
C522 O538 1.259 . S
C522 O539 1.265 . S
C523 O540 1.255 . S
C523 O541 1.265 . S
C524 C526 1.380 . S
C524 C527 1.374 1_554 S
C524 C530 1.507 . S
C525 C526 1.384 . S
C525 C529 1.387 . S
C525 H552 0.930 . S
C526 C524 1.380 . S
C526 C525 1.384 . S
C526 H553 0.931 . S
C527 C524 1.374 1_556 S
C527 C528 1.390 . S
C527 H554 0.930 . S
C528 C527 1.390 . S
C528 C529 1.391 1_556 S
C528 H555 0.930 . S
C529 C525 1.387 . S
C529 C528 1.391 1_554 S
C530 Tb520 2.825 . S
C530 C524 1.507 . S
C530 O543 1.238 . S
C530 O544 1.247 . S
O531 Tb520 2.347 1_556 S
O531 C535 1.259 . S
O532 Eu521 2.418 . S
O532 C535 1.265 . S
O533 Eu521 2.384 . S
O533 C542 1.255 . S
O534 Tb520 2.366 1_556 S
O534 C542 1.265 . S
C535 O531 1.259 . S
C535 O532 1.265 . S
O536 Eu521 2.479 . S
O536 C551 1.238 . S
O537 Eu521 2.471 . S
O537 C551 1.247 . S
O538 Eu521 2.347 1_554 S
O538 C522 1.259 . S
O539 Tb520 2.418 . S
O539 C522 1.265 . S
O540 Tb520 2.384 . S
O540 C523 1.255 . S
O541 Eu521 2.366 1_554 S
O541 C523 1.265 . S
C542 O533 1.255 . S
C542 O534 1.265 . S
O543 Tb520 2.479 . S
O543 C530 1.238 . S
O544 Tb520 2.471 . S
O544 C530 1.247 . S
C545 C548 1.380 . S
C545 C549 1.374 1_556 S
C545 C551 1.507 . S
C546 C547 1.387 . S
C546 C550 1.391 1_556 S
C547 C546 1.387 . S
C547 C548 1.384 . S
C547 H556 0.930 . S
C548 C545 1.380 . S
C548 C547 1.384 . S
C548 H557 0.931 . S
C549 C545 1.374 1_554 S
C549 C550 1.390 . S
C549 H558 0.930 . S
C550 C546 1.391 1_554 S
C550 C549 1.390 . S
C550 H559 0.930 . S
C551 Eu521 2.825 . S
C551 O536 1.238 . S
C551 O537 1.247 . S
C551 C545 1.507 . S
H552 C525 0.930 . S
H553 C526 0.931 . S
H554 C527 0.930 . S
H555 C528 0.930 . S
H556 C547 0.930 . S
H557 C548 0.931 . S
H558 C549 0.930 . S
H559 C550 0.930 . S
Tb560 C570 2.825 . S
Tb560 O571 2.347 1_565 S
Tb560 O574 2.366 . S
Tb560 O579 2.418 . S
Tb560 O580 2.384 1_565 S
Tb560 O583 2.479 . S
Tb560 O584 2.471 . S
Eu561 O572 2.418 . S
Eu561 O573 2.384 1_545 S
Eu561 O576 2.479 . S
Eu561 O577 2.471 . S
Eu561 O578 2.347 1_545 S
Eu561 O581 2.366 . S
Eu561 C591 2.825 . S
C562 O578 1.259 . S
C562 O579 1.265 . S
C563 O580 1.255 . S
C563 O581 1.265 . S
C564 C566 1.380 . S
C564 C567 1.374 . S
C564 C570 1.507 . S
C565 C566 1.384 . S
C565 C569 1.387 . S
C565 H592 0.930 . S
C566 C564 1.380 . S
C566 C565 1.384 . S
C566 H593 0.931 . S
C567 C564 1.374 . S
C567 C568 1.390 . S
C567 H594 0.930 . S
C568 C567 1.390 . S
C568 C569 1.391 . S
C568 H595 0.930 . S
C569 C565 1.387 . S
C569 C568 1.391 . S
C570 Tb560 2.825 . S
C570 C564 1.507 . S
C570 O583 1.238 . S
C570 O584 1.247 . S
O571 Tb560 2.347 1_545 S
O571 C575 1.259 . S
O572 Eu561 2.418 . S
O572 C575 1.265 . S
O573 Eu561 2.384 1_565 S
O573 C582 1.255 . S
O574 Tb560 2.366 . S
O574 C582 1.265 . S
C575 O571 1.259 . S
C575 O572 1.265 . S
O576 Eu561 2.479 . S
O576 C591 1.238 . S
O577 Eu561 2.471 . S
O577 C591 1.247 . S
O578 Eu561 2.347 1_565 S
O578 C562 1.259 . S
O579 Tb560 2.418 . S
O579 C562 1.265 . S
O580 Tb560 2.384 1_545 S
O580 C563 1.255 . S
O581 Eu561 2.366 . S
O581 C563 1.265 . S
C582 O573 1.255 . S
C582 O574 1.265 . S
O583 Tb560 2.479 . S
O583 C570 1.238 . S
O584 Tb560 2.471 . S
O584 C570 1.247 . S
C585 C588 1.380 . S
C585 C589 1.374 . S
C585 C591 1.507 . S
C586 C587 1.387 . S
C586 C590 1.391 . S
C587 C586 1.387 . S
C587 C588 1.384 . S
C587 H596 0.930 . S
C588 C585 1.380 . S
C588 C587 1.384 . S
C588 H597 0.931 . S
C589 C585 1.374 . S
C589 C590 1.390 . S
C589 H598 0.930 . S
C590 C586 1.391 . S
C590 C589 1.390 . S
C590 H599 0.930 . S
C591 Eu561 2.825 . S
C591 O576 1.238 . S
C591 O577 1.247 . S
C591 C585 1.507 . S
H592 C565 0.930 . S
H593 C566 0.931 . S
H594 C567 0.930 . S
H595 C568 0.930 . S
H596 C587 0.930 . S
H597 C588 0.931 . S
H598 C589 0.930 . S
H599 C590 0.930 . S
Tb600 C610 2.825 . S
Tb600 O611 2.347 1_554 S
Tb600 O614 2.366 1_554 S
Tb600 O619 2.418 . S
Tb600 O620 2.384 . S
Tb600 O623 2.479 . S
Tb600 O624 2.471 . S
Eu601 O612 2.418 . S
Eu601 O613 2.384 . S
Eu601 O616 2.479 . S
Eu601 O617 2.471 . S
Eu601 O618 2.347 1_556 S
Eu601 O621 2.366 1_556 S
Eu601 C631 2.825 . S
C602 O618 1.259 . S
C602 O619 1.265 . S
C603 O620 1.255 . S
C603 O621 1.265 . S
C604 C606 1.380 . S
C604 C607 1.374 . S
C604 C610 1.507 . S
C605 C606 1.384 . S
C605 C609 1.387 . S
C605 H632 0.930 . S
C606 C604 1.380 . S
C606 C605 1.384 . S
C606 H633 0.931 . S
C607 C604 1.374 . S
C607 C608 1.390 . S
C607 H634 0.933 1_554 S
C608 C607 1.390 . S
C608 C609 1.391 . S
C608 H635 0.930 . S
C609 C605 1.387 . S
C609 C608 1.391 . S
C610 Tb600 2.825 . S
C610 C604 1.507 . S
C610 O623 1.238 . S
C610 O624 1.247 . S
O611 Tb600 2.347 1_556 S
O611 C615 1.259 . S
O612 Eu601 2.418 . S
O612 C615 1.265 . S
O613 Eu601 2.384 . S
O613 C622 1.255 . S
O614 Tb600 2.366 1_556 S
O614 C622 1.265 . S
C615 O611 1.259 . S
C615 O612 1.265 . S
O616 Eu601 2.479 . S
O616 C631 1.238 . S
O617 Eu601 2.471 . S
O617 C631 1.247 . S
O618 Eu601 2.347 1_554 S
O618 C602 1.259 . S
O619 Tb600 2.418 . S
O619 C602 1.265 . S
O620 Tb600 2.384 . S
O620 C603 1.255 . S
O621 Eu601 2.366 1_554 S
O621 C603 1.265 . S
C622 O613 1.255 . S
C622 O614 1.265 . S
O623 Tb600 2.479 . S
O623 C610 1.238 . S
O624 Tb600 2.471 . S
O624 C610 1.247 . S
C625 C628 1.380 . S
C625 C629 1.374 . S
C625 C631 1.507 . S
C626 C627 1.387 . S
C626 C630 1.391 . S
C627 C626 1.387 . S
C627 C628 1.384 . S
C627 H636 0.930 . S
C628 C625 1.380 . S
C628 C627 1.384 . S
C628 H637 0.931 . S
C629 C625 1.374 . S
C629 C630 1.390 . S
C629 H638 0.920 1_556 S
C630 C626 1.391 . S
C630 C629 1.390 . S
C630 H639 0.930 . S
C631 Eu601 2.825 . S
C631 O616 1.238 . S
C631 O617 1.247 . S
C631 C625 1.507 . S
H632 C605 0.930 . S
H633 C606 0.931 . S
H634 C607 0.933 1_556 S
H635 C608 0.930 . S
H636 C627 0.930 . S
H637 C628 0.931 . S
H638 C629 0.920 1_554 S
H639 C630 0.930 . S
H640 C648 0.950 . S
H641 C653 0.950 . S
H642 C650 0.950 . S
H643 C652 0.950 . S
H644 C654 0.950 . S
H645 C656 0.950 . S
H646 C658 0.950 . S
H647 C659 0.950 . S
C648 H640 0.950 . S
C648 C649 1.386 . S
C648 C650 1.391 . S
C649 C648 1.386 . S
C649 C653 1.393 1_655 S
C650 H642 0.950 . S
C650 C648 1.391 . S
C650 C651 1.400 . S
C651 C650 1.400 . S
C651 C652 1.398 1_655 S
C651 C657 1.491 . S
C652 H643 0.950 . S
C652 C651 1.398 1_455 S
C652 C653 1.391 . S
C653 H641 0.950 . S
C653 C649 1.393 1_455 S
C653 C652 1.391 . S
C654 H644 0.950 . S
C654 C655 1.386 . S
C654 C656 1.391 . S
C655 C654 1.386 . S
C655 C659 1.393 1_455 S
C656 H645 0.950 . S
C656 C654 1.391 . S
C656 C657 1.400 1_455 S
C657 C651 1.491 . S
C657 C656 1.400 1_655 S
C657 C658 1.398 . S
C658 H646 0.950 . S
C658 C657 1.398 . S
C658 C659 1.391 . S
C659 H647 0.950 . S
C659 C655 1.393 1_655 S
C659 C658 1.391 . S
H660 C668 0.950 . S
H661 C673 0.950 . S
H662 C670 0.950 . S
H663 C672 0.950 . S
H664 C674 0.950 . S
H665 C676 0.950 . S
H666 C678 0.950 . S
H667 C679 0.950 . S
C668 H660 0.950 . S
C668 C669 1.386 . S
C668 C670 1.391 . S
C669 C668 1.386 . S
C669 C673 1.393 . S
C670 H662 0.950 . S
C670 C668 1.391 . S
C670 C671 1.400 . S
C671 C670 1.400 . S
C671 C672 1.398 . S
C671 C677 1.491 . S
C672 H663 0.950 . S
C672 C671 1.398 . S
C672 C673 1.391 . S
C673 H661 0.950 . S
C673 C669 1.393 . S
C673 C672 1.391 . S
C674 H664 0.950 . S
C674 C675 1.386 . S
C674 C676 1.391 . S
C675 C674 1.386 . S
C675 C679 1.393 . S
C676 H665 0.950 . S
C676 C674 1.391 . S
C676 C677 1.400 . S
C677 C671 1.491 . S
C677 C676 1.400 . S
C677 C678 1.398 . S
C678 H666 0.950 . S
C678 C677 1.398 . S
C678 C679 1.391 . S
C679 H667 0.950 . S
C679 C675 1.393 . S
C679 C678 1.391 . S
H680 C688 0.950 . S
H681 C693 0.950 . S
H682 C690 0.950 . S
H683 C692 0.950 . S
H684 C694 0.950 . S
H685 C696 0.950 . S
H686 C698 0.950 . S
H687 C699 0.950 . S
C688 H680 0.950 . S
C688 C689 1.386 . S
C688 C690 1.391 . S
C689 C688 1.386 . S
C689 C693 1.393 . S
C690 H682 0.950 . S
C690 C688 1.391 . S
C690 C691 1.400 . S
C691 C690 1.400 . S
C691 C692 1.398 . S
C691 C697 1.491 . S
C692 H683 0.950 . S
C692 C691 1.398 . S
C692 C693 1.391 . S
C693 H681 0.950 . S
C693 C689 1.393 . S
C693 C692 1.391 . S
C694 H684 0.950 . S
C694 C695 1.386 . S
C694 C696 1.391 . S
C695 C694 1.386 . S
C695 C699 1.393 . S
C696 H685 0.950 . S
C696 C694 1.391 . S
C696 C697 1.400 . S
C697 C691 1.491 . S
C697 C696 1.400 . S
C697 C698 1.398 . S
C698 H686 0.950 . S
C698 C697 1.398 . S
C698 C699 1.391 . S
C699 H687 0.950 . S
C699 C695 1.393 . S
C699 C698 1.391 . S
H700 C708 0.950 . S
H701 C713 0.950 . S
H702 C710 0.950 . S
H703 C712 0.950 . S
H704 C714 0.950 . S
H705 C716 0.950 . S
H706 C718 0.950 . S
H707 C719 0.950 . S
C708 H700 0.950 . S
C708 C709 1.386 . S
C708 C710 1.391 . S
C709 C708 1.386 . S
C709 C713 1.393 . S
C710 H702 0.950 . S
C710 C708 1.391 . S
C710 C711 1.400 . S
C711 C710 1.400 . S
C711 C712 1.398 . S
C711 C717 1.491 1_545 S
C712 H703 0.950 . S
C712 C711 1.398 . S
C712 C713 1.391 . S
C713 H701 0.950 . S
C713 C709 1.393 . S
C713 C712 1.391 . S
C714 H704 0.950 . S
C714 C715 1.386 . S
C714 C716 1.391 . S
C715 C714 1.386 . S
C715 C719 1.393 . S
C716 H705 0.950 . S
C716 C714 1.391 . S
C716 C717 1.400 . S
C717 C711 1.491 1_565 S
C717 C716 1.400 . S
C717 C718 1.398 . S
C718 H706 0.950 . S
C718 C717 1.398 . S
C718 C719 1.391 . S
C719 H707 0.950 . S
C719 C715 1.393 . S
C719 C718 1.391 . S
H720 C728 0.950 . S
H721 C733 0.950 . S
H722 C730 0.949 1_545 S
H723 C732 0.950 . S
H724 C734 0.950 . S
H725 C736 0.950 . S
H726 C738 0.950 . S
H727 C739 0.950 . S
C728 H720 0.950 . S
C728 C729 1.386 . S
C728 C730 1.392 . S
C729 C728 1.386 . S
C729 C733 1.393 . S
C730 H722 0.949 1_565 S
C730 C728 1.392 . S
C730 C731 1.400 . S
C731 C730 1.400 . S
C731 C732 1.398 . S
C731 C737 1.491 1_565 S
C732 H723 0.950 . S
C732 C731 1.398 . S
C732 C733 1.391 . S
C733 H721 0.950 . S
C733 C729 1.393 . S
C733 C732 1.391 . S
C734 H724 0.950 . S
C734 C735 1.386 . S
C734 C736 1.391 1_545 S
C735 C734 1.386 . S
C735 C739 1.393 . S
C736 H725 0.950 . S
C736 C734 1.391 1_565 S
C736 C737 1.400 1_565 S
C737 C731 1.491 1_545 S
C737 C736 1.400 1_545 S
C737 C738 1.398 . S
C738 H726 0.950 . S
C738 C737 1.398 . S
C738 C739 1.391 . S
C739 H727 0.950 . S
C739 C735 1.393 . S
C739 C738 1.391 . S
H740 C748 0.945 1_655 S
H741 C753 0.950 . S
H742 C750 0.950 . S
H743 C752 0.950 . S
H744 C754 0.950 . S
H745 C756 0.950 . S
H746 C758 0.950 . S
H747 C759 0.950 . S
C748 H740 0.945 1_455 S
C748 C749 1.403 . S
C748 C750 1.378 1_455 S
C749 C748 1.403 . S
C749 C753 1.393 . S
C750 H742 0.950 . S
C750 C748 1.378 1_655 S
C750 C751 1.400 1_655 S
C751 C750 1.400 1_455 S
C751 C752 1.398 . S
C751 C757 1.491 . S
C752 H743 0.950 . S
C752 C751 1.398 . S
C752 C753 1.391 . S
C753 H741 0.950 . S
C753 C749 1.393 . S
C753 C752 1.391 . S
C754 H744 0.950 . S
C754 C755 1.386 1_455 S
C754 C756 1.391 . S
C755 C754 1.386 1_655 S
C755 C759 1.393 . S
C756 H745 0.950 . S
C756 C754 1.391 . S
C756 C757 1.400 . S
C757 C751 1.491 . S
C757 C756 1.400 . S
C757 C758 1.398 1_455 S
C758 H746 0.950 . S
C758 C757 1.398 1_655 S
C758 C759 1.391 . S
C759 H747 0.950 . S
C759 C755 1.393 . S
C759 C758 1.391 . S
H760 C768 0.950 . S
H761 C773 0.950 . S
H762 C770 0.950 . S
H763 C772 0.950 . S
H764 C774 0.950 . S
H765 C776 0.950 . S
H766 C778 0.950 . S
H767 C779 0.950 . S
C768 H760 0.950 . S
C768 C769 1.386 . S
C768 C770 1.391 . S
C769 C768 1.386 . S
C769 C773 1.393 . S
C770 H762 0.950 . S
C770 C768 1.391 . S
C770 C771 1.400 . S
C771 C770 1.400 . S
C771 C772 1.398 . S
C771 C777 1.491 . S
C772 H763 0.950 . S
C772 C771 1.398 . S
C772 C773 1.391 . S
C773 H761 0.950 . S
C773 C769 1.393 . S
C773 C772 1.391 . S
C774 H764 0.950 . S
C774 C775 1.386 . S
C774 C776 1.391 . S
C775 C774 1.386 . S
C775 C779 1.393 . S
C776 H765 0.950 . S
C776 C774 1.391 . S
C776 C777 1.400 . S
C777 C771 1.491 . S
C777 C776 1.400 . S
C777 C778 1.398 . S
C778 H766 0.950 . S
C778 C777 1.398 . S
C778 C779 1.391 . S
C779 H767 0.950 . S
C779 C775 1.393 . S
C779 C778 1.391 . S
H780 C788 0.950 . S
H781 C793 0.950 . S
H782 C790 0.950 . S
H783 C792 0.950 . S
H784 C794 0.950 . S
H785 C796 0.950 . S
H786 C798 0.950 . S
H787 C799 0.950 . S
C788 H780 0.950 . S
C788 C789 1.386 . S
C788 C790 1.391 . S
C789 C788 1.386 . S
C789 C793 1.393 . S
C790 H782 0.950 . S
C790 C788 1.391 . S
C790 C791 1.400 . S
C791 C790 1.400 . S
C791 C792 1.398 . S
C791 C797 1.491 . S
C792 H783 0.950 . S
C792 C791 1.398 . S
C792 C793 1.391 . S
C793 H781 0.950 . S
C793 C789 1.393 . S
C793 C792 1.391 . S
C794 H784 0.950 . S
C794 C795 1.386 . S
C794 C796 1.391 . S
C795 C794 1.386 . S
C795 C799 1.393 . S
C796 H785 0.950 . S
C796 C794 1.391 . S
C796 C797 1.400 . S
C797 C791 1.491 . S
C797 C796 1.400 . S
C797 C798 1.398 . S
C798 H786 0.950 . S
C798 C797 1.398 . S
C798 C799 1.391 . S
C799 H787 0.950 . S
C799 C795 1.393 . S
C799 C798 1.391 . S
H800 C808 0.950 . S
H801 C813 0.950 . S
H802 C810 0.950 . S
H803 C812 0.950 . S
H804 C814 0.950 . S
H805 C816 0.950 . S
H806 C818 0.950 . S
H807 C819 0.950 . S
C808 H800 0.950 . S
C808 C809 1.386 . S
C808 C810 1.391 . S
C809 C808 1.386 . S
C809 C813 1.393 . S
C810 H802 0.950 . S
C810 C808 1.391 . S
C810 C811 1.400 . S
C811 C810 1.400 . S
C811 C812 1.398 . S
C811 C817 1.491 . S
C812 H803 0.950 . S
C812 C811 1.398 . S
C812 C813 1.391 . S
C813 H801 0.950 . S
C813 C809 1.393 . S
C813 C812 1.391 . S
C814 H804 0.950 . S
C814 C815 1.386 . S
C814 C816 1.391 . S
C815 C814 1.386 . S
C815 C819 1.393 . S
C816 H805 0.950 . S
C816 C814 1.391 . S
C816 C817 1.400 . S
C817 C811 1.491 . S
C817 C816 1.400 . S
C817 C818 1.398 . S
C818 H806 0.950 . S
C818 C817 1.398 . S
C818 C819 1.391 . S
C819 H807 0.950 . S
C819 C815 1.393 . S
C819 C818 1.391 . S
H820 C828 0.950 . S
H821 C833 0.950 . S
H822 C830 0.950 . S
H823 C832 0.950 . S
H824 C834 0.950 . S
H825 C836 0.950 . S
H826 C838 0.950 . S
H827 C839 0.950 . S
C828 H820 0.950 . S
C828 C829 1.386 . S
C828 C830 1.391 . S
C829 C828 1.386 . S
C829 C833 1.393 . S
C830 H822 0.950 . S
C830 C828 1.391 . S
C830 C831 1.400 . S
C831 C830 1.400 . S
C831 C832 1.398 . S
C831 C837 1.491 . S
C832 H823 0.950 . S
C832 C831 1.398 . S
C832 C833 1.391 . S
C833 H821 0.950 . S
C833 C829 1.393 . S
C833 C832 1.391 . S
C834 H824 0.950 . S
C834 C835 1.386 . S
C834 C836 1.391 . S
C835 C834 1.386 . S
C835 C839 1.393 . S
C836 H825 0.950 . S
C836 C834 1.391 . S
C836 C837 1.400 . S
C837 C831 1.491 . S
C837 C836 1.400 . S
C837 C838 1.398 . S
C838 H826 0.950 . S
C838 C837 1.398 . S
C838 C839 1.391 . S
C839 H827 0.950 . S
C839 C835 1.393 . S
C839 C838 1.391 . S
H840 C848 0.950 1_545 S
H841 C853 0.950 . S
H842 C850 0.950 . S
H843 C852 0.950 . S
H844 C854 0.950 . S
H845 C856 0.950 . S
H846 C858 0.950 . S
H847 C859 0.950 . S
C848 H840 0.950 1_565 S
C848 C849 1.386 . S
C848 C850 1.391 1_565 S
C849 C848 1.386 . S
C849 C853 1.393 . S
C850 H842 0.950 . S
C850 C848 1.391 1_545 S
C850 C851 1.400 1_545 S
C851 C850 1.400 1_565 S
C851 C852 1.398 . S
C851 C857 1.491 1_565 S
C852 H843 0.950 . S
C852 C851 1.398 . S
C852 C853 1.391 . S
C853 H841 0.950 . S
C853 C849 1.393 . S
C853 C852 1.391 . S
C854 H844 0.950 . S
C854 C855 1.386 1_565 S
C854 C856 1.391 . S
C855 C854 1.386 1_545 S
C855 C859 1.393 . S
C856 H845 0.950 . S
C856 C854 1.391 . S
C856 C857 1.400 1_565 S
C857 C851 1.491 1_545 S
C857 C856 1.400 1_545 S
C857 C858 1.398 . S
C858 H846 0.950 . S
C858 C857 1.398 . S
C858 C859 1.391 . S
C859 H847 0.950 . S
C859 C855 1.393 . S
C859 C858 1.391 . S
H860 C868 0.950 1_655 S
H861 C873 0.950 . S
H862 C870 0.950 . S
H863 C872 0.950 . S
H864 C874 0.950 . S
H865 C876 0.950 . S
H866 C878 0.950 . S
H867 C879 0.950 . S
C868 H860 0.950 1_455 S
C868 C869 1.386 . S
C868 C870 1.391 1_455 S
C869 C868 1.386 . S
C869 C873 1.393 . S
C870 H862 0.950 . S
C870 C868 1.391 1_655 S
C870 C871 1.400 1_655 S
C871 C870 1.400 1_455 S
C871 C872 1.398 . S
C871 C877 1.491 . S
C872 H863 0.950 . S
C872 C871 1.398 . S
C872 C873 1.391 . S
C873 H861 0.950 . S
C873 C869 1.393 . S
C873 C872 1.391 . S
C874 H864 0.950 . S
C874 C875 1.386 1_455 S
C874 C876 1.391 . S
C875 C874 1.386 1_655 S
C875 C879 1.393 . S
C876 H865 0.950 . S
C876 C874 1.391 . S
C876 C877 1.400 . S
C877 C871 1.491 . S
C877 C876 1.400 . S
C877 C878 1.398 1_455 S
C878 H866 0.950 . S
C878 C877 1.398 1_655 S
C878 C879 1.391 . S
C879 H867 0.950 . S
C879 C875 1.393 . S
C879 C878 1.391 . S
H880 C888 0.950 . S
H881 C893 0.950 . S
H882 C890 0.950 . S
H883 C892 0.950 1_554 S
H884 C894 0.950 . S
H885 C896 0.950 . S
H886 C898 0.950 . S
H887 C899 0.950 . S
C888 H880 0.950 . S
C888 C889 1.386 . S
C888 C890 1.391 . S
C889 C888 1.386 . S
C889 C893 1.393 . S
C890 H882 0.950 . S
C890 C888 1.391 . S
C890 C891 1.400 . S
C891 C890 1.400 . S
C891 C892 1.398 . S
C891 C897 1.491 . S
C892 H883 0.950 1_556 S
C892 C891 1.398 . S
C892 C893 1.391 . S
C893 H881 0.950 . S
C893 C889 1.393 . S
C893 C892 1.391 . S
C894 H884 0.950 . S
C894 C895 1.386 1_554 S
C894 C896 1.391 . S
C895 C894 1.386 1_556 S
C895 C899 1.393 . S
C896 H885 0.950 . S
C896 C894 1.391 . S
C896 C897 1.400 1_554 S
C897 C891 1.491 . S
C897 C896 1.400 1_556 S
C897 C898 1.398 . S
C898 H886 0.950 . S
C898 C897 1.398 . S
C898 C899 1.391 . S
C899 H887 0.950 . S
C899 C895 1.393 . S
C899 C898 1.391 . S
H900 C908 0.950 . S
H901 C913 0.950 . S
H902 C910 0.950 . S
H903 C912 0.950 . S
H904 C914 0.950 . S
H905 C916 0.950 . S
H906 C918 0.950 . S
H907 C919 0.950 . S
C908 H900 0.950 . S
C908 C909 1.386 . S
C908 C910 1.391 . S
C909 C908 1.386 . S
C909 C913 1.393 . S
C910 H902 0.950 . S
C910 C908 1.391 . S
C910 C911 1.400 . S
C911 C910 1.400 . S
C911 C912 1.398 . S
C911 C917 1.491 . S
C912 H903 0.950 . S
C912 C911 1.398 . S
C912 C913 1.391 . S
C913 H901 0.950 . S
C913 C909 1.393 . S
C913 C912 1.391 . S
C914 H904 0.950 . S
C914 C915 1.386 . S
C914 C916 1.391 . S
C915 C914 1.386 . S
C915 C919 1.393 . S
C916 H905 0.950 . S
C916 C914 1.391 . S
C916 C917 1.400 . S
C917 C911 1.491 . S
C917 C916 1.400 . S
C917 C918 1.398 . S
C918 H906 0.950 . S
C918 C917 1.398 . S
C918 C919 1.391 . S
C919 H907 0.950 . S
C919 C915 1.393 . S
C919 C918 1.391 . S
H920 C928 0.950 . S
H921 C933 0.950 . S
H922 C930 0.950 . S
H923 C932 0.950 . S
H924 C934 0.950 . S
H925 C936 0.950 . S
H926 C938 0.950 . S
H927 C939 0.950 . S
C928 H920 0.950 . S
C928 C929 1.386 . S
C928 C930 1.391 . S
C929 C928 1.386 . S
C929 C933 1.393 . S
C930 H922 0.950 . S
C930 C928 1.391 . S
C930 C931 1.400 . S
C931 C930 1.400 . S
C931 C932 1.398 . S
C931 C937 1.491 . S
C932 H923 0.950 . S
C932 C931 1.398 . S
C932 C933 1.391 . S
C933 H921 0.950 . S
C933 C929 1.393 . S
C933 C932 1.391 . S
C934 H924 0.950 . S
C934 C935 1.386 . S
C934 C936 1.391 . S
C935 C934 1.386 . S
C935 C939 1.393 . S
C936 H925 0.950 . S
C936 C934 1.391 . S
C936 C937 1.400 . S
C937 C931 1.491 . S
C937 C936 1.400 . S
C937 C938 1.398 . S
C938 H926 0.950 . S
C938 C937 1.398 . S
C938 C939 1.391 . S
C939 H927 0.950 . S
C939 C935 1.393 . S
C939 C938 1.391 . S
H940 C948 0.950 . S
H941 C953 0.950 . S
H942 C950 0.950 . S
H943 C952 0.950 . S
H944 C954 0.950 . S
H945 C956 0.950 . S
H946 C958 0.950 . S
H947 C959 0.950 . S
C948 H940 0.950 . S
C948 C949 1.386 . S
C948 C950 1.391 . S
C949 C948 1.386 . S
C949 C953 1.393 . S
C950 H942 0.950 . S
C950 C948 1.391 . S
C950 C951 1.400 . S
C951 C950 1.400 . S
C951 C952 1.398 . S
C951 C957 1.491 . S
C952 H943 0.950 . S
C952 C951 1.398 . S
C952 C953 1.391 . S
C953 H941 0.950 . S
C953 C949 1.393 . S
C953 C952 1.391 . S
C954 H944 0.950 . S
C954 C955 1.386 . S
C954 C956 1.391 . S
C955 C954 1.386 . S
C955 C959 1.393 . S
C956 H945 0.950 . S
C956 C954 1.391 . S
C956 C957 1.400 . S
C957 C951 1.491 . S
C957 C956 1.400 . S
C957 C958 1.398 . S
C958 H946 0.950 . S
C958 C957 1.398 . S
C958 C959 1.391 . S
C959 H947 0.950 . S
C959 C955 1.393 . S
C959 C958 1.391 . S
H960 C968 0.950 . S
H961 C973 0.950 . S
H962 C970 0.950 . S
H963 C972 0.950 . S
H964 C974 0.950 . S
H965 C976 0.950 . S
H966 C978 0.950 . S
H967 C979 0.950 . S
C968 H960 0.950 . S
C968 C969 1.386 . S
C968 C970 1.391 . S
C969 C968 1.386 . S
C969 C973 1.393 . S
C970 H962 0.950 . S
C970 C968 1.391 . S
C970 C971 1.400 . S
C971 C970 1.400 . S
C971 C972 1.398 . S
C971 C977 1.491 . S
C972 H963 0.950 . S
C972 C971 1.398 . S
C972 C973 1.391 . S
C973 H961 0.950 . S
C973 C969 1.393 . S
C973 C972 1.391 . S
C974 H964 0.950 . S
C974 C975 1.386 . S
C974 C976 1.391 . S
C975 C974 1.386 . S
C975 C979 1.393 . S
C976 H965 0.950 . S
C976 C974 1.391 . S
C976 C977 1.400 . S
C977 C971 1.491 . S
C977 C976 1.400 . S
C977 C978 1.398 . S
C978 H966 0.950 . S
C978 C977 1.398 . S
C978 C979 1.391 . S
C979 H967 0.950 . S
C979 C975 1.393 . S
C979 C978 1.391 . S
H980 C988 0.950 . S
H981 C993 0.950 . S
H982 C990 0.950 . S
H983 C992 0.950 . S
H984 C994 0.950 . S
H985 C996 0.950 . S
H986 C998 0.950 . S
H987 C999 0.950 . S
C988 H980 0.950 . S
C988 C989 1.386 . S
C988 C990 1.391 . S
C989 C988 1.386 . S
C989 C993 1.393 . S
C990 H982 0.950 . S
C990 C988 1.391 . S
C990 C991 1.400 . S
C991 C990 1.400 . S
C991 C992 1.398 . S
C991 C997 1.491 . S
C992 H983 0.950 . S
C992 C991 1.398 . S
C992 C993 1.391 . S
C993 H981 0.950 . S
C993 C989 1.393 . S
C993 C992 1.391 . S
C994 H984 0.950 . S
C994 C995 1.386 . S
C994 C996 1.391 . S
C995 C994 1.386 . S
C995 C999 1.393 . S
C996 H985 0.950 . S
C996 C994 1.391 . S
C996 C997 1.400 . S
C997 C991 1.491 . S
C997 C996 1.400 . S
C997 C998 1.398 . S
C998 H986 0.950 . S
C998 C997 1.398 . S
C998 C999 1.391 . S
C999 H987 0.950 . S
C999 C995 1.393 . S
C999 C998 1.391 . S
H1000 C1008 0.950 . S
H1001 C1013 0.950 . S
H1002 C1010 0.950 . S
H1003 C1012 0.950 . S
H1004 C1014 0.950 . S
H1005 C1016 0.950 . S
H1006 C1018 0.950 . S
H1007 C1019 0.950 . S
C1008 H1000 0.950 . S
C1008 C1009 1.386 . S
C1008 C1010 1.391 . S
C1009 C1008 1.386 . S
C1009 C1013 1.393 . S
C1010 H1002 0.950 . S
C1010 C1008 1.391 . S
C1010 C1011 1.400 . S
C1011 C1010 1.400 . S
C1011 C1012 1.398 . S
C1011 C1017 1.491 . S
C1012 H1003 0.950 . S
C1012 C1011 1.398 . S
C1012 C1013 1.391 . S
C1013 H1001 0.950 . S
C1013 C1009 1.393 . S
C1013 C1012 1.391 . S
C1014 H1004 0.950 . S
C1014 C1015 1.386 . S
C1014 C1016 1.391 . S
C1015 C1014 1.386 . S
C1015 C1019 1.393 . S
C1016 H1005 0.950 . S
C1016 C1014 1.391 . S
C1016 C1017 1.400 . S
C1017 C1011 1.491 . S
C1017 C1016 1.400 . S
C1017 C1018 1.398 . S
C1018 H1006 0.950 . S
C1018 C1017 1.398 . S
C1018 C1019 1.391 . S
C1019 H1007 0.950 . S
C1019 C1015 1.393 . S
C1019 C1018 1.391 . S
H1020 C1028 0.950 . S
H1021 C1033 0.950 . S
H1022 C1030 0.950 . S
H1023 C1032 0.950 . S
H1024 C1034 0.950 . S
H1025 C1036 0.950 . S
H1026 C1038 0.950 . S
H1027 C1039 0.950 . S
C1028 H1020 0.950 . S
C1028 C1029 1.386 . S
C1028 C1030 1.391 . S
C1029 C1028 1.386 . S
C1029 C1033 1.393 . S
C1030 H1022 0.950 . S
C1030 C1028 1.391 . S
C1030 C1031 1.400 . S
C1031 C1030 1.400 . S
C1031 C1032 1.398 . S
C1031 C1037 1.491 . S
C1032 H1023 0.950 . S
C1032 C1031 1.398 . S
C1032 C1033 1.391 . S
C1033 H1021 0.950 . S
C1033 C1029 1.393 . S
C1033 C1032 1.391 . S
C1034 H1024 0.950 . S
C1034 C1035 1.386 . S
C1034 C1036 1.391 . S
C1035 C1034 1.386 . S
C1035 C1039 1.393 . S
C1036 H1025 0.950 . S
C1036 C1034 1.391 . S
C1036 C1037 1.400 . S
C1037 C1031 1.491 . S
C1037 C1036 1.400 . S
C1037 C1038 1.398 . S
C1038 H1026 0.950 . S
C1038 C1037 1.398 . S
C1038 C1039 1.391 . S
C1039 H1027 0.950 . S
C1039 C1035 1.393 . S
C1039 C1038 1.391 . S
H1040 C1048 0.950 . S
H1041 C1053 0.950 . S
H1042 C1050 0.950 . S
H1043 C1052 0.950 . S
H1044 C1054 0.950 . S
H1045 C1056 0.950 . S
H1046 C1058 0.950 . S
H1047 C1059 0.950 . S
C1048 H1040 0.950 . S
C1048 C1049 1.386 . S
C1048 C1050 1.391 . S
C1049 C1048 1.386 . S
C1049 C1053 1.393 . S
C1050 H1042 0.950 . S
C1050 C1048 1.391 . S
C1050 C1051 1.400 . S
C1051 C1050 1.400 . S
C1051 C1052 1.398 . S
C1051 C1057 1.491 . S
C1052 H1043 0.950 . S
C1052 C1051 1.398 . S
C1052 C1053 1.391 . S
C1053 H1041 0.950 . S
C1053 C1049 1.393 . S
C1053 C1052 1.391 . S
C1054 H1044 0.950 . S
C1054 C1055 1.386 . S
C1054 C1056 1.391 . S
C1055 C1054 1.386 . S
C1055 C1059 1.393 . S
C1056 H1045 0.950 . S
C1056 C1054 1.391 . S
C1056 C1057 1.400 . S
C1057 C1051 1.491 . S
C1057 C1056 1.400 . S
C1057 C1058 1.398 . S
C1058 H1046 0.950 . S
C1058 C1057 1.398 . S
C1058 C1059 1.391 . S
C1059 H1047 0.950 . S
C1059 C1055 1.393 . S
C1059 C1058 1.391 . S
H1060 C1068 0.950 . S
H1061 C1073 0.950 . S
H1062 C1070 0.950 . S
H1063 C1072 0.950 . S
H1064 C1074 0.950 . S
H1065 C1076 0.950 . S
H1066 C1078 0.950 . S
H1067 C1079 0.950 . S
C1068 H1060 0.950 . S
C1068 C1069 1.386 . S
C1068 C1070 1.391 . S
C1069 C1068 1.386 . S
C1069 C1073 1.393 1_455 S
C1070 H1062 0.950 . S
C1070 C1068 1.391 . S
C1070 C1071 1.400 1_455 S
C1071 C1070 1.400 1_655 S
C1071 C1072 1.398 . S
C1071 C1077 1.491 . S
C1072 H1063 0.950 . S
C1072 C1071 1.398 . S
C1072 C1073 1.391 . S
C1073 H1061 0.950 . S
C1073 C1069 1.393 1_655 S
C1073 C1072 1.391 . S
C1074 H1064 0.950 . S
C1074 C1075 1.386 . S
C1074 C1076 1.391 . S
C1075 C1074 1.386 . S
C1075 C1079 1.393 1_655 S
C1076 H1065 0.950 . S
C1076 C1074 1.391 . S
C1076 C1077 1.400 . S
C1077 C1071 1.491 . S
C1077 C1076 1.400 . S
C1077 C1078 1.398 1_655 S
C1078 H1066 0.950 . S
C1078 C1077 1.398 1_455 S
C1078 C1079 1.391 . S
C1079 H1067 0.950 . S
C1079 C1075 1.393 1_455 S
C1079 C1078 1.391 . S
H1080 C1088 0.950 . S
H1081 C1093 0.950 . S
H1082 C1090 0.950 . S
H1083 C1092 0.950 . S
H1084 C1094 0.950 . S
H1085 C1096 0.950 . S
H1086 C1098 0.950 . S
H1087 C1099 0.950 . S
C1088 H1080 0.950 . S
C1088 C1089 1.386 . S
C1088 C1090 1.391 . S
C1089 C1088 1.386 . S
C1089 C1093 1.393 . S
C1090 H1082 0.950 . S
C1090 C1088 1.391 . S
C1090 C1091 1.400 . S
C1091 C1090 1.400 . S
C1091 C1092 1.398 . S
C1091 C1097 1.491 . S
C1092 H1083 0.950 . S
C1092 C1091 1.398 . S
C1092 C1093 1.391 . S
C1093 H1081 0.950 . S
C1093 C1089 1.393 . S
C1093 C1092 1.391 . S
C1094 H1084 0.950 . S
C1094 C1095 1.386 . S
C1094 C1096 1.391 . S
C1095 C1094 1.386 . S
C1095 C1099 1.393 . S
C1096 H1085 0.950 . S
C1096 C1094 1.391 . S
C1096 C1097 1.400 . S
C1097 C1091 1.491 . S
C1097 C1096 1.400 . S
C1097 C1098 1.398 . S
C1098 H1086 0.950 . S
C1098 C1097 1.398 . S
C1098 C1099 1.391 . S
C1099 H1087 0.950 . S
C1099 C1095 1.393 . S
C1099 C1098 1.391 . S
H1100 C1108 0.950 . S
H1101 C1113 0.950 . S
H1102 C1110 0.950 . S
H1103 C1112 0.950 . S
H1104 C1114 0.950 . S
H1105 C1116 0.950 . S
H1106 C1118 0.950 . S
H1107 C1119 0.950 . S
C1108 H1100 0.950 . S
C1108 C1109 1.386 . S
C1108 C1110 1.391 . S
C1109 C1108 1.386 . S
C1109 C1113 1.393 . S
C1110 H1102 0.950 . S
C1110 C1108 1.391 . S
C1110 C1111 1.400 . S
C1111 C1110 1.400 . S
C1111 C1112 1.398 . S
C1111 C1117 1.491 . S
C1112 H1103 0.950 . S
C1112 C1111 1.398 . S
C1112 C1113 1.391 . S
C1113 H1101 0.950 . S
C1113 C1109 1.393 . S
C1113 C1112 1.391 . S
C1114 H1104 0.950 . S
C1114 C1115 1.386 . S
C1114 C1116 1.391 . S
C1115 C1114 1.386 . S
C1115 C1119 1.393 . S
C1116 H1105 0.950 . S
C1116 C1114 1.391 . S
C1116 C1117 1.400 . S
C1117 C1111 1.491 . S
C1117 C1116 1.400 . S
C1117 C1118 1.398 . S
C1118 H1106 0.950 . S
C1118 C1117 1.398 . S
C1118 C1119 1.391 . S
C1119 H1107 0.950 . S
C1119 C1115 1.393 . S
C1119 C1118 1.391 . S
H1120 C1128 0.950 . S
H1121 C1133 0.950 . S
H1122 C1130 0.950 . S
H1123 C1132 0.950 . S
H1124 C1134 0.950 . S
H1125 C1136 0.950 . S
H1126 C1138 0.950 . S
H1127 C1139 0.950 . S
C1128 H1120 0.950 . S
C1128 C1129 1.386 . S
C1128 C1130 1.391 . S
C1129 C1128 1.386 . S
C1129 C1133 1.393 . S
C1130 H1122 0.950 . S
C1130 C1128 1.391 . S
C1130 C1131 1.400 . S
C1131 C1130 1.400 . S
C1131 C1132 1.398 . S
C1131 C1137 1.491 . S
C1132 H1123 0.950 . S
C1132 C1131 1.398 . S
C1132 C1133 1.391 . S
C1133 H1121 0.950 . S
C1133 C1129 1.393 . S
C1133 C1132 1.391 . S
C1134 H1124 0.950 . S
C1134 C1135 1.386 . S
C1134 C1136 1.391 . S
C1135 C1134 1.386 . S
C1135 C1139 1.393 . S
C1136 H1125 0.950 . S
C1136 C1134 1.391 . S
C1136 C1137 1.400 . S
C1137 C1131 1.491 . S
C1137 C1136 1.400 . S
C1137 C1138 1.398 . S
C1138 H1126 0.950 . S
C1138 C1137 1.398 . S
C1138 C1139 1.391 . S
C1139 H1127 0.950 . S
C1139 C1135 1.393 . S
C1139 C1138 1.391 . S
H1140 C1148 0.950 . S
H1141 C1153 0.950 . S
H1142 C1150 0.950 . S
H1143 C1152 0.950 . S
H1144 C1154 0.950 . S
H1145 C1156 0.950 . S
H1146 C1158 0.950 . S
H1147 C1159 0.950 . S
C1148 H1140 0.950 . S
C1148 C1149 1.386 . S
C1148 C1150 1.391 . S
C1149 C1148 1.386 . S
C1149 C1153 1.393 . S
C1150 H1142 0.950 . S
C1150 C1148 1.391 . S
C1150 C1151 1.400 . S
C1151 C1150 1.400 . S
C1151 C1152 1.398 . S
C1151 C1157 1.491 . S
C1152 H1143 0.950 . S
C1152 C1151 1.398 . S
C1152 C1153 1.391 . S
C1153 H1141 0.950 . S
C1153 C1149 1.393 . S
C1153 C1152 1.391 . S
C1154 H1144 0.950 . S
C1154 C1155 1.386 . S
C1154 C1156 1.391 . S
C1155 C1154 1.386 . S
C1155 C1159 1.393 . S
C1156 H1145 0.950 . S
C1156 C1154 1.391 . S
C1156 C1157 1.400 . S
C1157 C1151 1.491 . S
C1157 C1156 1.400 . S
C1157 C1158 1.398 . S
C1158 H1146 0.950 . S
C1158 C1157 1.398 . S
C1158 C1159 1.391 . S
C1159 H1147 0.950 . S
C1159 C1155 1.393 . S
C1159 C1158 1.391 . S
H1160 C1168 0.950 . S
H1161 C1173 0.950 . S
H1162 C1170 0.950 . S
H1163 C1172 0.950 . S
H1164 C1174 0.950 1_565 S
H1165 C1176 0.950 . S
H1166 C1178 0.950 . S
H1167 C1179 0.950 . S
C1168 H1160 0.950 . S
C1168 C1169 1.381 1_545 S
C1168 C1170 1.395 . S
C1169 C1168 1.381 1_565 S
C1169 C1173 1.393 . S
C1170 H1162 0.950 . S
C1170 C1168 1.395 . S
C1170 C1171 1.400 1_545 S
C1171 C1170 1.400 1_565 S
C1171 C1172 1.398 . S
C1171 C1177 1.491 1_565 S
C1172 H1163 0.950 . S
C1172 C1171 1.398 . S
C1172 C1173 1.391 . S
C1173 H1161 0.950 . S
C1173 C1169 1.393 . S
C1173 C1172 1.391 . S
C1174 H1164 0.950 1_545 S
C1174 C1175 1.386 . S
C1174 C1176 1.391 1_545 S
C1175 C1174 1.386 . S
C1175 C1179 1.393 . S
C1176 H1165 0.950 . S
C1176 C1174 1.391 1_565 S
C1176 C1177 1.400 1_565 S
C1177 C1171 1.491 1_545 S
C1177 C1176 1.400 1_545 S
C1177 C1178 1.398 . S
C1178 H1166 0.950 . S
C1178 C1177 1.398 . S
C1178 C1179 1.391 . S
C1179 H1167 0.950 . S
C1179 C1175 1.393 . S
C1179 C1178 1.391 . S
H1180 C1188 0.950 . S
H1181 C1193 0.950 . S
H1182 C1190 0.950 . S
H1183 C1192 0.950 . S
H1184 C1194 0.950 . S
H1185 C1196 0.950 . S
H1186 C1198 0.950 . S
H1187 C1199 0.950 . S
C1188 H1180 0.950 . S
C1188 C1189 1.386 . S
C1188 C1190 1.391 . S
C1189 C1188 1.386 . S
C1189 C1193 1.393 . S
C1190 H1182 0.950 . S
C1190 C1188 1.391 . S
C1190 C1191 1.400 . S
C1191 C1190 1.400 . S
C1191 C1192 1.398 . S
C1191 C1197 1.491 . S
C1192 H1183 0.950 . S
C1192 C1191 1.398 . S
C1192 C1193 1.391 . S
C1193 H1181 0.950 . S
C1193 C1189 1.393 . S
C1193 C1192 1.391 . S
C1194 H1184 0.950 . S
C1194 C1195 1.386 . S
C1194 C1196 1.391 . S
C1195 C1194 1.386 . S
C1195 C1199 1.393 . S
C1196 H1185 0.950 . S
C1196 C1194 1.391 . S
C1196 C1197 1.400 . S
C1197 C1191 1.491 . S
C1197 C1196 1.400 . S
C1197 C1198 1.398 . S
C1198 H1186 0.950 . S
C1198 C1197 1.398 . S
C1198 C1199 1.391 . S
C1199 H1187 0.950 . S
C1199 C1195 1.393 . S
C1199 C1198 1.391 . S
H1200 C1208 0.950 . S
H1201 C1213 0.950 . S
H1202 C1210 0.950 . S
H1203 C1212 0.950 . S
H1204 C1214 0.950 . S
H1205 C1216 0.950 . S
H1206 C1218 0.950 . S
H1207 C1219 0.950 . S
C1208 H1200 0.950 . S
C1208 C1209 1.386 . S
C1208 C1210 1.391 . S
C1209 C1208 1.386 . S
C1209 C1213 1.393 . S
C1210 H1202 0.950 . S
C1210 C1208 1.391 . S
C1210 C1211 1.400 . S
C1211 C1210 1.400 . S
C1211 C1212 1.398 . S
C1211 C1217 1.491 . S
C1212 H1203 0.950 . S
C1212 C1211 1.398 . S
C1212 C1213 1.391 . S
C1213 H1201 0.950 . S
C1213 C1209 1.393 . S
C1213 C1212 1.391 . S
C1214 H1204 0.950 . S
C1214 C1215 1.386 . S
C1214 C1216 1.391 . S
C1215 C1214 1.386 . S
C1215 C1219 1.393 . S
C1216 H1205 0.950 . S
C1216 C1214 1.391 . S
C1216 C1217 1.400 . S
C1217 C1211 1.491 . S
C1217 C1216 1.400 . S
C1217 C1218 1.398 . S
C1218 H1206 0.950 . S
C1218 C1217 1.398 . S
C1218 C1219 1.391 . S
C1219 H1207 0.950 . S
C1219 C1215 1.393 . S
C1219 C1218 1.391 . S
H1220 C1228 0.950 . S
H1221 C1233 0.950 . S
H1222 C1230 0.950 . S
H1223 C1232 0.950 . S
H1224 C1234 0.950 . S
H1225 C1236 0.950 . S
H1226 C1238 0.950 . S
H1227 C1239 0.950 . S
C1228 H1220 0.950 . S
C1228 C1229 1.386 . S
C1228 C1230 1.391 . S
C1229 C1228 1.386 . S
C1229 C1233 1.393 . S
C1230 H1222 0.950 . S
C1230 C1228 1.391 . S
C1230 C1231 1.400 . S
C1231 C1230 1.400 . S
C1231 C1232 1.398 . S
C1231 C1237 1.491 . S
C1232 H1223 0.950 . S
C1232 C1231 1.398 . S
C1232 C1233 1.391 . S
C1233 H1221 0.950 . S
C1233 C1229 1.393 . S
C1233 C1232 1.391 . S
C1234 H1224 0.950 . S
C1234 C1235 1.386 . S
C1234 C1236 1.391 . S
C1235 C1234 1.386 . S
C1235 C1239 1.393 . S
C1236 H1225 0.950 . S
C1236 C1234 1.391 . S
C1236 C1237 1.400 . S
C1237 C1231 1.491 . S
C1237 C1236 1.400 . S
C1237 C1238 1.398 . S
C1238 H1226 0.950 . S
C1238 C1237 1.398 . S
C1238 C1239 1.391 . S
C1239 H1227 0.950 . S
C1239 C1235 1.393 . S
C1239 C1238 1.391 . S
H1240 C1248 0.950 . S
H1241 C1253 0.950 . S
H1242 C1250 0.950 . S
H1243 C1252 0.950 . S
H1244 C1254 0.950 . S
H1245 C1256 0.950 . S
H1246 C1258 0.950 . S
H1247 C1259 0.950 . S
C1248 H1240 0.950 . S
C1248 C1249 1.386 . S
C1248 C1250 1.391 . S
C1249 C1248 1.386 . S
C1249 C1253 1.393 . S
C1250 H1242 0.950 . S
C1250 C1248 1.391 . S
C1250 C1251 1.400 . S
C1251 C1250 1.400 . S
C1251 C1252 1.398 . S
C1251 C1257 1.491 . S
C1252 H1243 0.950 . S
C1252 C1251 1.398 . S
C1252 C1253 1.391 . S
C1253 H1241 0.950 . S
C1253 C1249 1.393 . S
C1253 C1252 1.391 . S
C1254 H1244 0.950 . S
C1254 C1255 1.386 . S
C1254 C1256 1.391 . S
C1255 C1254 1.386 . S
C1255 C1259 1.393 . S
C1256 H1245 0.950 . S
C1256 C1254 1.391 . S
C1256 C1257 1.400 . S
C1257 C1251 1.491 . S
C1257 C1256 1.400 . S
C1257 C1258 1.398 . S
C1258 H1246 0.950 . S
C1258 C1257 1.398 . S
C1258 C1259 1.391 . S
C1259 H1247 0.950 . S
C1259 C1255 1.393 . S
C1259 C1258 1.391 . S
H1260 C1268 0.950 . S
H1261 C1273 0.950 . S
H1262 C1270 0.950 . S
H1263 C1272 0.950 . S
H1264 C1274 0.950 . S
H1265 C1276 0.950 . S
H1266 C1278 0.950 . S
H1267 C1279 0.950 . S
C1268 H1260 0.950 . S
C1268 C1269 1.386 . S
C1268 C1270 1.391 . S
C1269 C1268 1.386 . S
C1269 C1273 1.393 . S
C1270 H1262 0.950 . S
C1270 C1268 1.391 . S
C1270 C1271 1.400 . S
C1271 C1270 1.400 . S
C1271 C1272 1.398 . S
C1271 C1277 1.491 . S
C1272 H1263 0.950 . S
C1272 C1271 1.398 . S
C1272 C1273 1.391 . S
C1273 H1261 0.950 . S
C1273 C1269 1.393 . S
C1273 C1272 1.391 . S
C1274 H1264 0.950 . S
C1274 C1275 1.386 . S
C1274 C1276 1.391 . S
C1275 C1274 1.386 . S
C1275 C1279 1.393 . S
C1276 H1265 0.950 . S
C1276 C1274 1.391 . S
C1276 C1277 1.400 . S
C1277 C1271 1.491 . S
C1277 C1276 1.400 . S
C1277 C1278 1.398 . S
C1278 H1266 0.950 . S
C1278 C1277 1.398 . S
C1278 C1279 1.391 . S
C1279 H1267 0.950 . S
C1279 C1275 1.393 . S
C1279 C1278 1.391 . S
H1280 C1288 0.950 . S
H1281 C1293 0.950 . S
H1282 C1290 0.950 . S
H1283 C1292 0.950 . S
H1284 C1294 0.950 . S
H1285 C1296 0.950 . S
H1286 C1298 0.950 . S
H1287 C1299 0.950 . S
C1288 H1280 0.950 . S
C1288 C1289 1.386 . S
C1288 C1290 1.391 . S
C1289 C1288 1.386 . S
C1289 C1293 1.393 . S
C1290 H1282 0.950 . S
C1290 C1288 1.391 . S
C1290 C1291 1.400 . S
C1291 C1290 1.400 . S
C1291 C1292 1.398 . S
C1291 C1297 1.491 . S
C1292 H1283 0.950 . S
C1292 C1291 1.398 . S
C1292 C1293 1.391 . S
C1293 H1281 0.950 . S
C1293 C1289 1.393 . S
C1293 C1292 1.391 . S
C1294 H1284 0.950 . S
C1294 C1295 1.386 . S
C1294 C1296 1.391 . S
C1295 C1294 1.386 . S
C1295 C1299 1.393 . S
C1296 H1285 0.950 . S
C1296 C1294 1.391 . S
C1296 C1297 1.400 . S
C1297 C1291 1.491 . S
C1297 C1296 1.400 . S
C1297 C1298 1.398 . S
C1298 H1286 0.950 . S
C1298 C1297 1.398 . S
C1298 C1299 1.391 . S
C1299 H1287 0.950 . S
C1299 C1295 1.393 . S
C1299 C1298 1.391 . S
H1300 C1308 0.950 . S
H1301 C1313 0.950 . S
H1302 C1310 0.950 . S
H1303 C1312 0.950 . S
H1304 C1314 0.950 . S
H1305 C1316 0.950 . S
H1306 C1318 0.950 . S
H1307 C1319 0.950 . S
C1308 H1300 0.950 . S
C1308 C1309 1.386 . S
C1308 C1310 1.391 . S
C1309 C1308 1.386 . S
C1309 C1313 1.393 . S
C1310 H1302 0.950 . S
C1310 C1308 1.391 . S
C1310 C1311 1.400 . S
C1311 C1310 1.400 . S
C1311 C1312 1.398 . S
C1311 C1317 1.491 . S
C1312 H1303 0.950 . S
C1312 C1311 1.398 . S
C1312 C1313 1.391 . S
C1313 H1301 0.950 . S
C1313 C1309 1.393 . S
C1313 C1312 1.391 . S
C1314 H1304 0.950 . S
C1314 C1315 1.386 . S
C1314 C1316 1.391 . S
C1315 C1314 1.386 . S
C1315 C1319 1.393 . S
C1316 H1305 0.950 . S
C1316 C1314 1.391 . S
C1316 C1317 1.400 . S
C1317 C1311 1.491 . S
C1317 C1316 1.400 . S
C1317 C1318 1.398 . S
C1318 H1306 0.950 . S
C1318 C1317 1.398 . S
C1318 C1319 1.391 . S
C1319 H1307 0.950 . S
C1319 C1315 1.393 . S
C1319 C1318 1.391 . S
H1320 C1328 0.950 . S
H1321 C1333 0.950 . S
H1322 C1330 0.950 . S
H1323 C1332 0.950 . S
H1324 C1334 0.950 . S
H1325 C1336 0.950 . S
H1326 C1338 0.950 . S
H1327 C1339 0.950 . S
C1328 H1320 0.950 . S
C1328 C1329 1.386 . S
C1328 C1330 1.391 . S
C1329 C1328 1.386 . S
C1329 C1333 1.393 . S
C1330 H1322 0.950 . S
C1330 C1328 1.391 . S
C1330 C1331 1.400 . S
C1331 C1330 1.400 . S
C1331 C1332 1.398 . S
C1331 C1337 1.491 . S
C1332 H1323 0.950 . S
C1332 C1331 1.398 . S
C1332 C1333 1.391 . S
C1333 H1321 0.950 . S
C1333 C1329 1.393 . S
C1333 C1332 1.391 . S
C1334 H1324 0.950 . S
C1334 C1335 1.386 . S
C1334 C1336 1.391 . S
C1335 C1334 1.386 . S
C1335 C1339 1.393 . S
C1336 H1325 0.950 . S
C1336 C1334 1.391 . S
C1336 C1337 1.400 . S
C1337 C1331 1.491 . S
C1337 C1336 1.400 . S
C1337 C1338 1.398 . S
C1338 H1326 0.950 . S
C1338 C1337 1.398 . S
C1338 C1339 1.391 . S
C1339 H1327 0.950 . S
C1339 C1335 1.393 . S
C1339 C1338 1.391 . S
H1340 C1348 0.950 . S
H1341 C1353 0.950 . S
H1342 C1350 0.950 . S
H1343 C1352 0.950 . S
H1344 C1354 0.950 . S
H1345 C1356 0.950 . S
H1346 C1358 0.950 . S
H1347 C1359 0.950 . S
C1348 H1340 0.950 . S
C1348 C1349 1.386 . S
C1348 C1350 1.391 . S
C1349 C1348 1.386 . S
C1349 C1353 1.393 . S
C1350 H1342 0.950 . S
C1350 C1348 1.391 . S
C1350 C1351 1.400 . S
C1351 C1350 1.400 . S
C1351 C1352 1.398 . S
C1351 C1357 1.491 . S
C1352 H1343 0.950 . S
C1352 C1351 1.398 . S
C1352 C1353 1.391 . S
C1353 H1341 0.950 . S
C1353 C1349 1.393 . S
C1353 C1352 1.391 . S
C1354 H1344 0.950 . S
C1354 C1355 1.386 . S
C1354 C1356 1.391 . S
C1355 C1354 1.386 . S
C1355 C1359 1.393 . S
C1356 H1345 0.950 . S
C1356 C1354 1.391 . S
C1356 C1357 1.400 . S
C1357 C1351 1.491 . S
C1357 C1356 1.400 . S
C1357 C1358 1.398 . S
C1358 H1346 0.950 . S
C1358 C1357 1.398 . S
C1358 C1359 1.391 . S
C1359 H1347 0.950 . S
C1359 C1355 1.393 . S
C1359 C1358 1.391 . S
H1360 C1368 0.950 . S
H1361 C1373 0.950 . S
H1362 C1370 0.950 . S
H1363 C1372 0.950 . S
H1364 C1374 0.950 . S
H1365 C1376 0.950 . S
H1366 C1378 0.950 . S
H1367 C1379 0.950 . S
C1368 H1360 0.950 . S
C1368 C1369 1.386 . S
C1368 C1370 1.391 . S
C1369 C1368 1.386 . S
C1369 C1373 1.393 . S
C1370 H1362 0.950 . S
C1370 C1368 1.391 . S
C1370 C1371 1.400 . S
C1371 C1370 1.400 . S
C1371 C1372 1.398 . S
C1371 C1377 1.491 . S
C1372 H1363 0.950 . S
C1372 C1371 1.398 . S
C1372 C1373 1.391 . S
C1373 H1361 0.950 . S
C1373 C1369 1.393 . S
C1373 C1372 1.391 . S
C1374 H1364 0.950 . S
C1374 C1375 1.386 . S
C1374 C1376 1.391 . S
C1375 C1374 1.386 . S
C1375 C1379 1.393 . S
C1376 H1365 0.950 . S
C1376 C1374 1.391 . S
C1376 C1377 1.400 . S
C1377 C1371 1.491 . S
C1377 C1376 1.400 . S
C1377 C1378 1.398 . S
C1378 H1366 0.950 . S
C1378 C1377 1.398 . S
C1378 C1379 1.391 . S
C1379 H1367 0.950 . S
C1379 C1375 1.393 . S
C1379 C1378 1.391 . S
H1380 C1388 0.950 . S
H1381 C1393 0.950 . S
H1382 C1390 0.950 . S
H1383 C1392 0.950 . S
H1384 C1394 0.950 . S
H1385 C1396 0.950 . S
H1386 C1398 0.950 . S
H1387 C1399 0.950 . S
C1388 H1380 0.950 . S
C1388 C1389 1.386 . S
C1388 C1390 1.391 . S
C1389 C1388 1.386 . S
C1389 C1393 1.393 . S
C1390 H1382 0.950 . S
C1390 C1388 1.391 . S
C1390 C1391 1.400 . S
C1391 C1390 1.400 . S
C1391 C1392 1.398 . S
C1391 C1397 1.491 . S
C1392 H1383 0.950 . S
C1392 C1391 1.398 . S
C1392 C1393 1.391 . S
C1393 H1381 0.950 . S
C1393 C1389 1.393 . S
C1393 C1392 1.391 . S
C1394 H1384 0.950 . S
C1394 C1395 1.386 . S
C1394 C1396 1.391 . S
C1395 C1394 1.386 . S
C1395 C1399 1.393 . S
C1396 H1385 0.950 . S
C1396 C1394 1.391 . S
C1396 C1397 1.400 . S
C1397 C1391 1.491 . S
C1397 C1396 1.400 . S
C1397 C1398 1.398 . S
C1398 H1386 0.950 . S
C1398 C1397 1.398 . S
C1398 C1399 1.391 . S
C1399 H1387 0.950 . S
C1399 C1395 1.393 . S
C1399 C1398 1.391 . S
H1400 C1408 0.950 . S
H1401 C1413 0.950 . S
H1402 C1410 0.950 . S
H1403 C1412 0.950 . S
H1404 C1414 0.950 . S
H1405 C1416 0.950 . S
H1406 C1418 0.950 . S
H1407 C1419 0.950 . S
C1408 H1400 0.950 . S
C1408 C1409 1.386 . S
C1408 C1410 1.391 . S
C1409 C1408 1.386 . S
C1409 C1413 1.393 . S
C1410 H1402 0.950 . S
C1410 C1408 1.391 . S
C1410 C1411 1.400 . S
C1411 C1410 1.400 . S
C1411 C1412 1.398 . S
C1411 C1417 1.491 . S
C1412 H1403 0.950 . S
C1412 C1411 1.398 . S
C1412 C1413 1.391 . S
C1413 H1401 0.950 . S
C1413 C1409 1.393 . S
C1413 C1412 1.391 . S
C1414 H1404 0.950 . S
C1414 C1415 1.386 . S
C1414 C1416 1.391 . S
C1415 C1414 1.386 . S
C1415 C1419 1.393 . S
C1416 H1405 0.950 . S
C1416 C1414 1.391 . S
C1416 C1417 1.400 . S
C1417 C1411 1.491 . S
C1417 C1416 1.400 . S
C1417 C1418 1.398 . S
C1418 H1406 0.950 . S
C1418 C1417 1.398 . S
C1418 C1419 1.391 . S
C1419 H1407 0.950 . S
C1419 C1415 1.393 . S
C1419 C1418 1.391 . S
H1420 C1428 0.950 . S
H1421 C1433 0.950 . S
H1422 C1430 0.950 . S
H1423 C1432 0.950 . S
H1424 C1434 0.950 . S
H1425 C1436 0.950 . S
H1426 C1438 0.950 . S
H1427 C1439 0.950 . S
C1428 H1420 0.950 . S
C1428 C1429 1.386 . S
C1428 C1430 1.391 . S
C1429 C1428 1.386 . S
C1429 C1433 1.393 . S
C1430 H1422 0.950 . S
C1430 C1428 1.391 . S
C1430 C1431 1.400 . S
C1431 C1430 1.400 . S
C1431 C1432 1.398 . S
C1431 C1437 1.491 . S
C1432 H1423 0.950 . S
C1432 C1431 1.398 . S
C1432 C1433 1.391 . S
C1433 H1421 0.950 . S
C1433 C1429 1.393 . S
C1433 C1432 1.391 . S
C1434 H1424 0.950 . S
C1434 C1435 1.386 . S
C1434 C1436 1.391 . S
C1435 C1434 1.386 . S
C1435 C1439 1.393 . S
C1436 H1425 0.950 . S
C1436 C1434 1.391 . S
C1436 C1437 1.400 . S
C1437 C1431 1.491 . S
C1437 C1436 1.400 . S
C1437 C1438 1.398 . S
C1438 H1426 0.950 . S
C1438 C1437 1.398 . S
C1438 C1439 1.391 . S
C1439 H1427 0.950 . S
C1439 C1435 1.393 . S
C1439 C1438 1.391 . S
H1440 C1448 0.950 . S
H1441 C1453 0.950 . S
H1442 C1450 0.950 . S
H1443 C1452 0.950 . S
H1444 C1454 0.950 . S
H1445 C1456 0.950 . S
H1446 C1458 0.950 . S
H1447 C1459 0.950 . S
C1448 H1440 0.950 . S
C1448 C1449 1.386 . S
C1448 C1450 1.391 . S
C1449 C1448 1.386 . S
C1449 C1453 1.393 . S
C1450 H1442 0.950 . S
C1450 C1448 1.391 . S
C1450 C1451 1.400 . S
C1451 C1450 1.400 . S
C1451 C1452 1.398 . S
C1451 C1457 1.491 . S
C1452 H1443 0.950 . S
C1452 C1451 1.398 . S
C1452 C1453 1.391 . S
C1453 H1441 0.950 . S
C1453 C1449 1.393 . S
C1453 C1452 1.391 . S
C1454 H1444 0.950 . S
C1454 C1455 1.386 . S
C1454 C1456 1.391 . S
C1455 C1454 1.386 . S
C1455 C1459 1.393 . S
C1456 H1445 0.950 . S
C1456 C1454 1.391 . S
C1456 C1457 1.400 . S
C1457 C1451 1.491 . S
C1457 C1456 1.400 . S
C1457 C1458 1.398 . S
C1458 H1446 0.950 . S
C1458 C1457 1.398 . S
C1458 C1459 1.391 . S
C1459 H1447 0.950 . S
C1459 C1455 1.393 . S
C1459 C1458 1.391 . S
H1460 C1468 0.950 . S
H1461 C1473 0.950 . S
H1462 C1470 0.950 . S
H1463 C1472 0.950 . S
H1464 C1474 0.950 . S
H1465 C1476 0.950 . S
H1466 C1478 0.950 . S
H1467 C1479 0.950 . S
C1468 H1460 0.950 . S
C1468 C1469 1.386 . S
C1468 C1470 1.391 . S
C1469 C1468 1.386 . S
C1469 C1473 1.393 . S
C1470 H1462 0.950 . S
C1470 C1468 1.391 . S
C1470 C1471 1.400 . S
C1471 C1470 1.400 . S
C1471 C1472 1.398 . S
C1471 C1477 1.491 . S
C1472 H1463 0.950 . S
C1472 C1471 1.398 . S
C1472 C1473 1.391 . S
C1473 H1461 0.950 . S
C1473 C1469 1.393 . S
C1473 C1472 1.391 . S
C1474 H1464 0.950 . S
C1474 C1475 1.386 . S
C1474 C1476 1.391 . S
C1475 C1474 1.386 . S
C1475 C1479 1.393 . S
C1476 H1465 0.950 . S
C1476 C1474 1.391 . S
C1476 C1477 1.400 . S
C1477 C1471 1.491 . S
C1477 C1476 1.400 . S
C1477 C1478 1.398 . S
C1478 H1466 0.950 . S
C1478 C1477 1.398 . S
C1478 C1479 1.391 . S
C1479 H1467 0.950 . S
C1479 C1475 1.393 . S
C1479 C1478 1.391 . S
H1480 C1488 0.950 1_554 S
H1481 C1493 0.950 . S
H1482 C1490 0.950 . S
H1483 C1492 0.950 . S
H1484 C1494 0.950 . S
H1485 C1496 0.950 . S
H1486 C1498 0.950 . S
H1487 C1499 0.950 . S
C1488 H1480 0.950 1_556 S
C1488 C1489 1.386 . S
C1488 C1490 1.391 . S
C1489 C1488 1.386 . S
C1489 C1493 1.393 . S
C1490 H1482 0.950 . S
C1490 C1488 1.391 . S
C1490 C1491 1.400 . S
C1491 C1490 1.400 . S
C1491 C1492 1.398 . S
C1491 C1497 1.491 . S
C1492 H1483 0.950 . S
C1492 C1491 1.398 . S
C1492 C1493 1.391 . S
C1493 H1481 0.950 . S
C1493 C1489 1.393 . S
C1493 C1492 1.391 . S
C1494 H1484 0.950 . S
C1494 C1495 1.386 . S
C1494 C1496 1.391 . S
C1495 C1494 1.386 . S
C1495 C1499 1.393 . S
C1496 H1485 0.950 . S
C1496 C1494 1.391 . S
C1496 C1497 1.400 . S
C1497 C1491 1.491 . S
C1497 C1496 1.400 . S
C1497 C1498 1.398 . S
C1498 H1486 0.950 . S
C1498 C1497 1.398 . S
C1498 C1499 1.391 . S
C1499 H1487 0.950 . S
C1499 C1495 1.393 . S
C1499 C1498 1.391 . S
H1500 C1508 0.950 . S
H1501 C1513 0.950 . S
H1502 C1510 0.950 . S
H1503 C1512 0.950 . S
H1504 C1514 0.950 . S
H1505 C1516 0.950 . S
H1506 C1518 0.950 . S
H1507 C1519 0.950 . S
C1508 H1500 0.950 . S
C1508 C1509 1.386 . S
C1508 C1510 1.391 . S
C1509 C1508 1.386 . S
C1509 C1513 1.393 . S
C1510 H1502 0.950 . S
C1510 C1508 1.391 . S
C1510 C1511 1.400 . S
C1511 C1510 1.400 . S
C1511 C1512 1.398 . S
C1511 C1517 1.491 . S
C1512 H1503 0.950 . S
C1512 C1511 1.398 . S
C1512 C1513 1.391 . S
C1513 H1501 0.950 . S
C1513 C1509 1.393 . S
C1513 C1512 1.391 . S
C1514 H1504 0.950 . S
C1514 C1515 1.386 . S
C1514 C1516 1.391 . S
C1515 C1514 1.386 . S
C1515 C1519 1.393 . S
C1516 H1505 0.950 . S
C1516 C1514 1.391 . S
C1516 C1517 1.400 . S
C1517 C1511 1.491 . S
C1517 C1516 1.400 . S
C1517 C1518 1.398 . S
C1518 H1506 0.950 . S
C1518 C1517 1.398 . S
C1518 C1519 1.391 . S
C1519 H1507 0.950 . S
C1519 C1515 1.393 . S
C1519 C1518 1.391 . S
H1520 C1528 0.950 . S
H1521 C1533 0.950 . S
H1522 C1530 0.950 . S
H1523 C1532 0.950 . S
H1524 C1534 0.950 . S
H1525 C1536 0.950 . S
H1526 C1538 0.950 . S
H1527 C1539 0.950 . S
C1528 H1520 0.950 . S
C1528 C1529 1.386 . S
C1528 C1530 1.391 . S
C1529 C1528 1.386 . S
C1529 C1533 1.393 . S
C1530 H1522 0.950 . S
C1530 C1528 1.391 . S
C1530 C1531 1.400 . S
C1531 C1530 1.400 . S
C1531 C1532 1.398 . S
C1531 C1537 1.491 . S
C1532 H1523 0.950 . S
C1532 C1531 1.398 . S
C1532 C1533 1.391 . S
C1533 H1521 0.950 . S
C1533 C1529 1.393 . S
C1533 C1532 1.391 . S
C1534 H1524 0.950 . S
C1534 C1535 1.386 . S
C1534 C1536 1.391 . S
C1535 C1534 1.386 . S
C1535 C1539 1.393 . S
C1536 H1525 0.950 . S
C1536 C1534 1.391 . S
C1536 C1537 1.400 . S
C1537 C1531 1.491 . S
C1537 C1536 1.400 . S
C1537 C1538 1.398 . S
C1538 H1526 0.950 . S
C1538 C1537 1.398 . S
C1538 C1539 1.391 . S
C1539 H1527 0.950 . S
C1539 C1535 1.393 . S
C1539 C1538 1.391 . S
H1540 C1548 0.950 . S
H1541 C1553 0.950 . S
H1542 C1550 0.950 . S
H1543 C1552 0.950 . S
H1544 C1554 0.950 . S
H1545 C1556 0.950 . S
H1546 C1558 0.950 . S
H1547 C1559 0.950 . S
C1548 H1540 0.950 . S
C1548 C1549 1.386 . S
C1548 C1550 1.391 . S
C1549 C1548 1.386 . S
C1549 C1553 1.393 . S
C1550 H1542 0.950 . S
C1550 C1548 1.391 . S
C1550 C1551 1.400 . S
C1551 C1550 1.400 . S
C1551 C1552 1.398 . S
C1551 C1557 1.491 . S
C1552 H1543 0.950 . S
C1552 C1551 1.398 . S
C1552 C1553 1.391 . S
C1553 H1541 0.950 . S
C1553 C1549 1.393 . S
C1553 C1552 1.391 . S
C1554 H1544 0.950 . S
C1554 C1555 1.386 . S
C1554 C1556 1.391 . S
C1555 C1554 1.386 . S
C1555 C1559 1.393 . S
C1556 H1545 0.950 . S
C1556 C1554 1.391 . S
C1556 C1557 1.400 . S
C1557 C1551 1.491 . S
C1557 C1556 1.400 . S
C1557 C1558 1.398 . S
C1558 H1546 0.950 . S
C1558 C1557 1.398 . S
C1558 C1559 1.391 . S
C1559 H1547 0.950 . S
C1559 C1555 1.393 . S
C1559 C1558 1.391 . S
H1560 C1568 0.950 . S
H1561 C1573 0.950 . S
H1562 C1570 0.950 . S
H1563 C1572 0.950 . S
H1564 C1574 0.950 . S
H1565 C1576 0.950 . S
H1566 C1578 0.950 . S
H1567 C1579 0.950 . S
C1568 H1560 0.950 . S
C1568 C1569 1.386 . S
C1568 C1570 1.391 . S
C1569 C1568 1.386 . S
C1569 C1573 1.393 . S
C1570 H1562 0.950 . S
C1570 C1568 1.391 . S
C1570 C1571 1.400 . S
C1571 C1570 1.400 . S
C1571 C1572 1.398 . S
C1571 C1577 1.491 . S
C1572 H1563 0.950 . S
C1572 C1571 1.398 . S
C1572 C1573 1.391 . S
C1573 H1561 0.950 . S
C1573 C1569 1.393 . S
C1573 C1572 1.391 . S
C1574 H1564 0.950 . S
C1574 C1575 1.386 . S
C1574 C1576 1.391 . S
C1575 C1574 1.386 . S
C1575 C1579 1.393 . S
C1576 H1565 0.950 . S
C1576 C1574 1.391 . S
C1576 C1577 1.400 . S
C1577 C1571 1.491 . S
C1577 C1576 1.400 . S
C1577 C1578 1.398 . S
C1578 H1566 0.950 . S
C1578 C1577 1.398 . S
C1578 C1579 1.391 . S
C1579 H1567 0.950 . S
C1579 C1575 1.393 . S
C1579 C1578 1.391 . S
H1580 C1588 0.950 . S
H1581 C1593 0.950 . S
H1582 C1590 0.950 . S
H1583 C1592 0.950 . S
H1584 C1594 0.950 . S
H1585 C1596 0.950 . S
H1586 C1598 0.950 . S
H1587 C1599 0.950 . S
C1588 H1580 0.950 . S
C1588 C1589 1.386 . S
C1588 C1590 1.391 . S
C1589 C1588 1.386 . S
C1589 C1593 1.393 . S
C1590 H1582 0.950 . S
C1590 C1588 1.391 . S
C1590 C1591 1.400 . S
C1591 C1590 1.400 . S
C1591 C1592 1.398 . S
C1591 C1597 1.491 . S
C1592 H1583 0.950 . S
C1592 C1591 1.398 . S
C1592 C1593 1.391 . S
C1593 H1581 0.950 . S
C1593 C1589 1.393 . S
C1593 C1592 1.391 . S
C1594 H1584 0.950 . S
C1594 C1595 1.386 . S
C1594 C1596 1.391 . S
C1595 C1594 1.386 . S
C1595 C1599 1.393 . S
C1596 H1585 0.950 . S
C1596 C1594 1.391 . S
C1596 C1597 1.400 . S
C1597 C1591 1.491 . S
C1597 C1596 1.400 . S
C1597 C1598 1.398 . S
C1598 H1586 0.950 . S
C1598 C1597 1.398 . S
C1598 C1599 1.391 . S
C1599 H1587 0.950 . S
C1599 C1595 1.393 . S
C1599 C1598 1.391 . S
C649 C3 1.493 . S
C655 C66 1.444 . S
C669 C95 1.544 . S
C675 C62 1.525 . S
C689 C142 2.425 . S
C695 C83 2.458 . S
C709 C15 0.975 . S
C715 C146 0.950 . S
C729 C2 0.933 . S
C735 C369 0.920 . S
C749 C302 1.509 . S
C755 C49 1.454 . S
C769 C82 1.528 . S
C775 C403 1.526 . S
C789 C123 2.412 . S
C795 C542 2.463 . S
C809 C322 1.544 . S
C815 C43 1.528 . S
C829 C483 2.414 . S
C835 C102 2.465 . S
C849 C562 0.958 . S
C855 C129 0.951 . S
C869 C22 1.509 . S
C875 C449 1.454 . S
C889 C26 0.544 . S
C895 C346 0.570 . S
C909 C495 1.746 . S
C915 C162 1.799 . S
C929 C209 0.569 . S
C935 C569 0.539 . S
C949 C442 1.801 . S
C955 C255 1.744 . S
C969 C89 0.503 . S
C975 C289 0.475 . S
C989 C362 1.765 . S
C995 C175 1.788 . S
C1009 C242 1.750 . S
C1015 C415 1.797 . S
C1029 C202 1.525 . S
C1035 C443 1.534 . S
C1049 C363 2.417 . S
C1055 C222 2.465 . S
C1069 C466 1.421 . S
C1075 C283 1.488 . S
C1089 C215 1.543 . S
C1095 C182 1.529 . S
C1109 C382 2.423 . S
C1115 C323 2.458 . S
C1129 C535 1.526 . S
C1135 C462 1.530 . S
C1149 C262 2.422 . S
C1155 C203 2.458 . S
C1169 C386 0.953 . S
C1175 C575 0.965 . S
C1189 C529 0.570 . S
C1195 C9 0.540 . S
C1209 C106 0.551 . S
C1215 C586 0.526 . S
C1229 C482 1.748 . S
C1235 C55 1.798 . S
C1249 C306 0.551 . S
C1255 C226 0.579 . S
C1269 C135 1.744 . S
C1275 C402 1.800 . S
C1289 C502 2.421 . S
C1295 C523 2.464 . S
C1309 C295 0.971 . S
C1315 C506 0.922 . S
C1329 C249 0.953 . S
C1335 C282 0.965 . S
C1349 C163 1.519 . S
C1355 C522 1.540 . S
C1369 C489 0.922 . S
C1375 C602 0.971 . S
C1389 C609 0.495 . S
C1395 C329 0.519 . S
C1409 C42 1.799 . S
C1415 C375 1.747 . S
C1429 C342 2.458 . S
C1435 C243 2.424 . S
C1449 C335 1.543 . S
C1455 C422 1.520 . S
C1469 C615 0.947 . S
C1475 C266 0.941 . S
C1489 C546 0.515 . S
C1495 C626 0.490 . S
C1509 C455 1.794 . S
C1515 C122 1.755 . S
C1529 C426 1.433 . S
C1535 C563 1.488 . S
C1549 C409 1.421 . S
C1555 C622 1.488 . S
C1569 C169 1.427 . S
C1575 C582 1.487 . S
C1589 C603 1.488 . S
C1595 C186 1.422 . S
