# Generated by pormake.
# Topology wme, (6)-cn, num edge types: 1
# Building blocks:
#     Node 0, Type 0, BuildingBlock: KUMBUR_clean_sbu_1, # of connection points: 6
#     Node 1, Type 0, BuildingBlock: KUMBUR_clean_sbu_1, # of connection points: 6
#     Node 2, Type 0, BuildingBlock: KUMBUR_clean_sbu_1, # of connection points: 6
#     Node 3, Type 0, BuildingBlock: KUMBUR_clean_sbu_1, # of connection points: 6
#     Node 4, Type 0, BuildingBlock: KUMBUR_clean_sbu_1, # of connection points: 6
#     Node 5, Type 0, BuildingBlock: KUMBUR_clean_sbu_1, # of connection points: 6
#     Node 6, Type 0, BuildingBlock: KUMBUR_clean_sbu_1, # of connection points: 6
#     Node 7, Type 0, BuildingBlock: KUMBUR_clean_sbu_1, # of connection points: 6
#     Node 8, Type 0, BuildingBlock: KUMBUR_clean_sbu_1, # of connection points: 6
#     Node 9, Type 0, BuildingBlock: KUMBUR_clean_sbu_1, # of connection points: 6
#     Node 10, Type 0, BuildingBlock: KUMBUR_clean_sbu_1, # of connection points: 6
#     Node 11, Type 0, BuildingBlock: KUMBUR_clean_sbu_1, # of connection points: 6
#     Edge 12, Type (0, 0), BuildingBlock: MIFKUJ_clean_linker_0, # of connection points: 2
#     Edge 13, Type (0, 0), BuildingBlock: MIFKUJ_clean_linker_0, # of connection points: 2
#     Edge 14, Type (0, 0), BuildingBlock: MIFKUJ_clean_linker_0, # of connection points: 2
#     Edge 15, Type (0, 0), BuildingBlock: MIFKUJ_clean_linker_0, # of connection points: 2
#     Edge 16, Type (0, 0), BuildingBlock: MIFKUJ_clean_linker_0, # of connection points: 2
#     Edge 17, Type (0, 0), BuildingBlock: MIFKUJ_clean_linker_0, # of connection points: 2
#     Edge 18, Type (0, 0), BuildingBlock: MIFKUJ_clean_linker_0, # of connection points: 2
#     Edge 19, Type (0, 0), BuildingBlock: MIFKUJ_clean_linker_0, # of connection points: 2
#     Edge 20, Type (0, 0), BuildingBlock: MIFKUJ_clean_linker_0, # of connection points: 2
#     Edge 21, Type (0, 0), BuildingBlock: MIFKUJ_clean_linker_0, # of connection points: 2
#     Edge 22, Type (0, 0), BuildingBlock: MIFKUJ_clean_linker_0, # of connection points: 2
#     Edge 23, Type (0, 0), BuildingBlock: MIFKUJ_clean_linker_0, # of connection points: 2
#     Edge 24, Type (0, 0), BuildingBlock: MIFKUJ_clean_linker_0, # of connection points: 2
#     Edge 25, Type (0, 0), BuildingBlock: MIFKUJ_clean_linker_0, # of connection points: 2
#     Edge 26, Type (0, 0), BuildingBlock: MIFKUJ_clean_linker_0, # of connection points: 2
#     Edge 27, Type (0, 0), BuildingBlock: MIFKUJ_clean_linker_0, # of connection points: 2
#     Edge 28, Type (0, 0), BuildingBlock: MIFKUJ_clean_linker_0, # of connection points: 2
#     Edge 29, Type (0, 0), BuildingBlock: MIFKUJ_clean_linker_0, # of connection points: 2
#     Edge 30, Type (0, 0), BuildingBlock: MIFKUJ_clean_linker_0, # of connection points: 2
#     Edge 31, Type (0, 0), BuildingBlock: MIFKUJ_clean_linker_0, # of connection points: 2
#     Edge 32, Type (0, 0), BuildingBlock: MIFKUJ_clean_linker_0, # of connection points: 2
#     Edge 33, Type (0, 0), BuildingBlock: MIFKUJ_clean_linker_0, # of connection points: 2
#     Edge 34, Type (0, 0), BuildingBlock: MIFKUJ_clean_linker_0, # of connection points: 2
#     Edge 35, Type (0, 0), BuildingBlock: MIFKUJ_clean_linker_0, # of connection points: 2
#     Edge 36, Type (0, 0), BuildingBlock: MIFKUJ_clean_linker_0, # of connection points: 2
#     Edge 37, Type (0, 0), BuildingBlock: MIFKUJ_clean_linker_0, # of connection points: 2
#     Edge 38, Type (0, 0), BuildingBlock: MIFKUJ_clean_linker_0, # of connection points: 2
#     Edge 39, Type (0, 0), BuildingBlock: MIFKUJ_clean_linker_0, # of connection points: 2
#     Edge 40, Type (0, 0), BuildingBlock: MIFKUJ_clean_linker_0, # of connection points: 2
#     Edge 41, Type (0, 0), BuildingBlock: MIFKUJ_clean_linker_0, # of connection points: 2
#     Edge 42, Type (0, 0), BuildingBlock: MIFKUJ_clean_linker_0, # of connection points: 2
#     Edge 43, Type (0, 0), BuildingBlock: MIFKUJ_clean_linker_0, # of connection points: 2
#     Edge 44, Type (0, 0), BuildingBlock: MIFKUJ_clean_linker_0, # of connection points: 2
#     Edge 45, Type (0, 0), BuildingBlock: MIFKUJ_clean_linker_0, # of connection points: 2
#     Edge 46, Type (0, 0), BuildingBlock: MIFKUJ_clean_linker_0, # of connection points: 2
#     Edge 47, Type (0, 0), BuildingBlock: MIFKUJ_clean_linker_0, # of connection points: 2
# Relax obj value: 0.062
# Max RMSD: 0.165
# Mean RMSD: 0.165
data_MOF--net-wme--node1-KUMBUR_clean_sbu_1--edge1-MIFKUJ_clean_linker_0
_symmetry_space_group_name_H-M    P1
_symmetry_Int_Tables_number       1
_symmetry_cell_setting            triclinic
loop_
_symmetry_equiv_pos_as_xyz
'x, y, z'
_cell_length_a     48.235582
_cell_length_b     48.220532
_cell_length_c     70.165255
_cell_angle_alpha  89.937061
_cell_angle_beta   90.07833
_cell_angle_gamma 120.03676
loop_
_atom_site_label
_atom_site_type_symbol
_atom_site_fract_x
_atom_site_fract_y
_atom_site_fract_z
_atom_type_partial_charge
Tb0 Tb 0.2332 0.31583 0.13888 0.0
C1 C 0.13652 0.34 0.09126 0.0
N2 N 0.16826 0.35209 0.08798 0.0
C3 C 0.15824 0.34378 0.05439 0.0
C4 C 0.11423 0.32892 0.07618 0.0
C5 C 0.17944 0.35469 0.06982 0.0
C6 C 0.12546 0.33068 0.05758 0.0
C7 C 0.09389 0.32719 0.11387 0.0
C8 C 0.1265 0.339 0.10987 0.0
C9 C 0.07148 0.3159 0.09894 0.0
C10 C 0.08162 0.31669 0.08013 0.0
Tb11 Tb 0.2006 0.36969 0.11414 0.0
N12 N 0.14879 0.34931 0.12402 0.0
C13 C 0.08484 0.32739 0.13275 0.0
C14 C 0.14017 0.35079 0.14234 0.0
C15 C 0.10808 0.33932 0.14704 0.0
H16 H 0.20477 0.36613 0.06712 0.0
H17 H 0.1014 0.3404 0.16163 0.0
H18 H 0.22265 0.31656 0.18551 0.0
H19 H 0.33924 0.35401 0.09585 0.0
H20 H 0.15782 0.36188 0.15332 0.0
H21 H 0.06015 0.31926 0.1363 0.0
H22 H 0.28171 0.33008 0.1017 0.0
H23 H 0.16726 0.34587 0.04003 0.0
H24 H 0.04627 0.30659 0.10177 0.0
H25 H 0.06409 0.30801 0.06874 0.0
H26 H 0.25709 0.34032 0.21357 0.0
H27 H 0.10911 0.32243 0.04558 0.0
H28 H 0.37725 0.37452 0.12291 0.0
N29 N 0.26185 0.33115 0.16647 0.0
C30 C 0.29409 0.34465 0.16466 0.0
C31 C 0.2677 0.34079 0.20005 0.0
C32 C 0.31445 0.35642 0.18063 0.0
C33 C 0.24834 0.32822 0.18395 0.0
C34 C 0.30083 0.3546 0.19849 0.0
N35 N 0.2863 0.33772 0.13148 0.0
C36 C 0.29765 0.33929 0.11351 0.0
C37 C 0.34003 0.36149 0.14401 0.0
C38 C 0.30673 0.34752 0.14659 0.0
C39 C 0.35181 0.36401 0.12551 0.0
C40 C 0.33047 0.35263 0.11021 0.0
H41 H 0.31565 0.36404 0.21109 0.0
H42 H 0.36371 0.37949 0.19031 0.0
H43 H 0.38611 0.38357 0.15823 0.0
O44 O 0.22859 0.27401 0.12639 0.0
O45 O 0.26523 0.36859 0.13915 0.0
O46 O 0.25075 0.38386 0.11188 0.0
O47 O 0.22417 0.27713 0.15669 0.0
O48 O 0.22089 0.30897 0.10842 0.0
O49 O 0.22915 0.35652 0.09509 0.0
O50 O 0.20326 0.41177 0.12532 0.0
O51 O 0.169 0.31714 0.1134 0.0
O52 O 0.18218 0.30008 0.14072 0.0
O53 O 0.21031 0.40788 0.09562 0.0
O54 O 0.21307 0.37686 0.14516 0.0
O55 O 0.20206 0.32701 0.15554 0.0
C56 C 0.27014 0.39045 0.12629 0.0
C57 C 0.2416 0.24205 0.14581 0.0
C58 C 0.24223 0.19157 0.14463 0.0
C59 C 0.27252 0.2072 0.15351 0.0
C60 C 0.27194 0.25707 0.15434 0.0
C61 C 0.28726 0.23966 0.15816 0.0
C62 C 0.22692 0.20943 0.14083 0.0
C63 C 0.22828 0.32858 0.09381 0.0
C64 C 0.22427 0.25953 0.1427 0.0
C65 C 0.34767 0.37033 0.17819 0.0
C66 C 0.36043 0.37271 0.15992 0.0
C67 C 0.1625 0.29519 0.1265 0.0
C68 C 0.18419 0.43686 0.10395 0.0
C69 C 0.16548 0.47537 0.10827 0.0
C70 C 0.14104 0.45816 0.09496 0.0
C71 C 0.16002 0.42096 0.09024 0.0
C72 C 0.18711 0.46458 0.11285 0.0
C73 C 0.13846 0.43128 0.08598 0.0
C74 C 0.20794 0.35618 0.15902 0.0
C75 C 0.20638 0.42475 0.10863 0.0
H76 H 0.28474 0.19427 0.15722 0.0
H77 H 0.28356 0.28205 0.15832 0.0
H78 H 0.31051 0.25128 0.16498 0.0
H79 H 0.20363 0.19811 0.13401 0.0
H80 H 0.12429 0.46603 0.09115 0.0
H81 H 0.15793 0.40078 0.08246 0.0
H82 H 0.20586 0.47748 0.12325 0.0
H83 H 0.11989 0.41859 0.07547 0.0
Tb84 Tb 0.92869 0.23042 0.63668 0.0
C85 C 0.80627 0.12381 0.60135 0.0
N86 N 0.82731 0.15316 0.59419 0.0
C87 C 0.82672 0.12977 0.56395 0.0
C88 C 0.79501 0.09607 0.59008 0.0
C89 C 0.83728 0.15663 0.57567 0.0
C90 C 0.80554 0.09935 0.57119 0.0
C91 C 0.77516 0.09161 0.62816 0.0
C92 C 0.79707 0.12167 0.62031 0.0
C93 C 0.76387 0.06385 0.61699 0.0
C94 C 0.77391 0.06605 0.59804 0.0
Tb95 Tb 0.84116 0.19516 0.61424 0.0
N96 N 0.80865 0.14907 0.63078 0.0
C97 C 0.76438 0.09048 0.64679 0.0
C98 C 0.79596 0.14807 0.64836 0.0
C99 C 0.77457 0.11885 0.65684 0.0
H100 H 0.85313 0.1801 0.56986 0.0
H101 H 0.76503 0.11833 0.67087 0.0
H102 H 0.92399 0.21957 0.68342 0.0
H103 H 0.99422 0.33605 0.59313 0.0
H104 H 0.80057 0.16955 0.65568 0.0
H105 H 0.74697 0.06809 0.65322 0.0
H106 H 0.96148 0.27843 0.59931 0.0
H107 H 0.83477 0.13255 0.54932 0.0
H108 H 0.74697 0.04058 0.62275 0.0
H109 H 0.765 0.04442 0.58963 0.0
H110 H 0.94176 0.25335 0.71222 0.0
H111 H 0.79746 0.07858 0.56207 0.0
H112 H 0.01231 0.37437 0.62002 0.0
N113 N 0.94414 0.25901 0.66428 0.0
C114 C 0.96219 0.29129 0.66231 0.0
C115 C 0.94739 0.26438 0.69827 0.0
C116 C 0.97335 0.31152 0.67831 0.0
C117 C 0.93692 0.24529 0.68193 0.0
C118 C 0.96575 0.29765 0.69643 0.0
N119 N 0.95884 0.28348 0.6291 0.0
C120 C 0.96809 0.29462 0.61102 0.0
C121 C 0.98928 0.33728 0.64138 0.0
C122 C 0.97008 0.304 0.64412 0.0
C123 C 0.99747 0.34895 0.62276 0.0
C124 C 0.98714 0.32744 0.60753 0.0
H125 H 0.97461 0.31249 0.70899 0.0
H126 H 1.00082 0.36079 0.68788 0.0
H127 H 0.01475 0.38336 0.65549 0.0
O128 O 0.96536 0.2268 0.6226 0.0
O129 O 0.90814 0.26284 0.63615 0.0
O130 O 0.87297 0.24636 0.61076 0.0
O131 O 0.96034 0.22212 0.65301 0.0
O132 O 0.92069 0.21649 0.60659 0.0
O133 O 0.8807 0.22395 0.59394 0.0
O134 O 0.79939 0.19856 0.62057 0.0
O135 O 0.86545 0.1667 0.61292 0.0
O136 O 0.89467 0.17911 0.64049 0.0
O137 O 0.81313 0.19536 0.59161 0.0
O138 O 0.8493 0.21202 0.64457 0.0
O139 O 0.88788 0.20058 0.65464 0.0
C140 C 0.89036 0.26758 0.62369 0.0
C141 C 0.01204 0.24059 0.64069 0.0
C142 C 0.06267 0.24073 0.64181 0.0
C143 C 0.07802 0.27262 0.64812 0.0
C144 C 0.02785 0.27256 0.64681 0.0
C145 C 0.06071 0.28849 0.65044 0.0
C146 C 0.02963 0.22483 0.63794 0.0
C147 C 0.90858 0.22492 0.59244 0.0
C148 C 0.97704 0.22264 0.63838 0.0
C149 C 0.9921 0.34481 0.67572 0.0
C150 C 1.00003 0.35767 0.65728 0.0
C151 C 0.87765 0.15853 0.62708 0.0
C152 C 0.76434 0.19759 0.5944 0.0
C153 C 0.71028 0.19033 0.5962 0.0
C154 C 0.71164 0.1965 0.57654 0.0
C155 C 0.76491 0.20415 0.57483 0.0
C156 C 0.73673 0.19055 0.60517 0.0
C157 C 0.73877 0.2035 0.56602 0.0
C158 C 0.86453 0.2062 0.65837 0.0
C159 C 0.79212 0.1964 0.60258 0.0
H160 H 0.10346 0.28527 0.65117 0.0
H161 H 0.01479 0.28503 0.64908 0.0
H162 H 0.07274 0.3131 0.65527 0.0
H163 H 0.01751 0.20002 0.63335 0.0
H164 H 0.69164 0.1962 0.5693 0.0
H165 H 0.78561 0.20958 0.56617 0.0
H166 H 0.73584 0.18545 0.62028 0.0
H167 H 0.73955 0.20847 0.55092 0.0
Tb168 Tb 0.706 0.93016 0.13708 0.0
C169 C 0.68734 0.80909 0.09374 0.0
N170 N 0.67432 0.82776 0.08981 0.0
C171 C 0.68463 0.82639 0.0565 0.0
C172 C 0.69987 0.79855 0.07914 0.0
C173 C 0.67241 0.83618 0.07147 0.0
C174 C 0.69851 0.80757 0.06035 0.0
C175 C 0.70155 0.78144 0.11727 0.0
C176 C 0.6882 0.80072 0.11257 0.0
C177 C 0.71421 0.77096 0.10278 0.0
C178 C 0.71338 0.7795 0.08377 0.0
Tb179 Tb 0.65487 0.84183 0.11531 0.0
N180 N 0.67648 0.81204 0.12626 0.0
C181 C 0.70177 0.7733 0.13639 0.0
C182 C 0.67484 0.80244 0.14474 0.0
C183 C 0.68803 0.78357 0.15014 0.0
H184 H 0.6609 0.84991 0.06822 0.0
H185 H 0.68707 0.77647 0.16488 0.0
H186 H 0.69744 0.92154 0.18412 0.0
H187 H 0.68086 1.00005 0.0872 0.0
H188 H 0.66254 0.80817 0.15537 0.0
H189 H 0.71187 0.75859 0.14061 0.0
H190 H 0.70698 0.97027 0.09823 0.0
H191 H 0.68312 0.83316 0.042 0.0
H192 H 0.7247 0.75624 0.10614 0.0
H193 H 0.72324 0.77124 0.07276 0.0
H194 H 0.6695 0.93369 0.20931 0.0
H195 H 0.7079 0.79998 0.04871 0.0
H196 H 0.64813 0.01123 0.10968 0.0
N197 N 0.68356 0.94218 0.16196 0.0
C198 C 0.6693 0.95953 0.15743 0.0
C199 C 0.66901 0.94084 0.19474 0.0
C200 C 0.65353 0.96752 0.17137 0.0
C201 C 0.68434 0.93346 0.18038 0.0
C202 C 0.65333 0.95774 0.1902 0.0
N203 N 0.6849 0.95976 0.12543 0.0
C204 C 0.69065 0.97257 0.10758 0.0
C205 C 0.6557 0.98674 0.13325 0.0
C206 C 0.66995 0.96857 0.13854 0.0
C207 C 0.65865 0.99711 0.11434 0.0
C208 C 0.67684 0.99059 0.10155 0.0
H209 H 0.64146 0.9634 0.20135 0.0
H210 H 0.62613 0.99118 0.17656 0.0
H211 H 0.62831 0.0083 0.14325 0.0
O212 O 0.74979 0.96766 0.12643 0.0
O213 O 0.65281 0.90505 0.13854 0.0
O214 O 0.63661 0.87441 0.11162 0.0
O215 O 0.7379 0.96537 0.15599 0.0
O216 O 0.71246 0.92323 0.10669 0.0
O217 O 0.66396 0.88171 0.09589 0.0
O218 O 0.61332 0.80268 0.12717 0.0
O219 O 0.70764 0.86556 0.1139 0.0
O220 O 0.72674 0.89894 0.14005 0.0
O221 O 0.61784 0.81045 0.09703 0.0
O222 O 0.64955 0.84928 0.14615 0.0
O223 O 0.69889 0.891 0.15557 0.0
C224 C 0.63121 0.88926 0.12536 0.0
C225 C 0.79209 0.9857 0.14869 0.0
C226 C 0.85007 0.0207 0.14974 0.0
C227 C 0.8525 0.99776 0.16087 0.0
C228 C 0.79509 0.96339 0.16007 0.0
C229 C 0.82516 0.96921 0.16589 0.0
C230 C 0.81974 0.01432 0.14335 0.0
C231 C 0.69155 0.90831 0.09297 0.0
C232 C 0.76007 0.97976 0.14327 0.0
C233 C 0.63848 0.98487 0.16606 0.0
C234 C 0.63963 0.99453 0.14706 0.0
C235 C 0.72949 0.88067 0.12712 0.0
C236 C 0.58887 0.75648 0.10736 0.0
C237 C 0.54725 0.70022 0.11062 0.0
C238 C 0.5657 0.69133 0.09954 0.0
C239 C 0.60645 0.74677 0.09598 0.0
C240 C 0.55901 0.73289 0.11475 0.0
C241 C 0.59515 0.71448 0.09232 0.0
C242 C 0.67117 0.86552 0.15945 0.0
C243 C 0.60079 0.79105 0.11059 0.0
H244 H 0.87563 1.00208 0.1658 0.0
H245 H 0.77404 0.94174 0.16479 0.0
H246 H 0.82723 0.9518 0.17461 0.0
H247 H 0.81757 0.03196 0.13488 0.0
H248 H 0.557 0.66635 0.09623 0.0
H249 H 0.62856 0.76405 0.08943 0.0
H250 H 0.54473 0.73991 0.1232 0.0
H251 H 0.60902 0.70744 0.08354 0.0
Tb252 Tb 0.78399 0.70071 0.63793 0.0
C253 C 0.8882 0.6894 0.58996 0.0
N254 N 0.85583 0.67128 0.58831 0.0
C255 C 0.86024 0.67393 0.55422 0.0
C256 C 0.90789 0.70096 0.57372 0.0
C257 C 0.84166 0.663 0.57075 0.0
C258 C 0.89348 0.69312 0.5557 0.0
C259 C 0.93497 0.71565 0.61044 0.0
C260 C 0.90158 0.69665 0.60808 0.0
C261 C 0.95471 0.72736 0.59429 0.0
C262 C 0.94121 0.72003 0.57599 0.0
Tb263 Tb 0.82836 0.65627 0.61636 0.0
N264 N 0.88161 0.6861 0.6234 0.0
C265 C 0.94744 0.72254 0.62896 0.0
C266 C 0.89375 0.69126 0.64146 0.0
C267 C 0.92675 0.70997 0.64452 0.0
H268 H 0.81608 0.64745 0.56941 0.0
H269 H 0.93622 0.71463 0.65888 0.0
H270 H 0.77538 0.6828 0.68386 0.0
H271 H 0.69717 0.67882 0.58261 0.0
H272 H 0.87829 0.68115 0.65358 0.0
H273 H 0.97297 0.73724 0.63139 0.0
H274 H 0.7501 0.7073 0.5979 0.0
H275 H 0.84893 0.66742 0.54035 0.0
H276 H 0.98044 0.74216 0.59581 0.0
H277 H 0.95675 0.72924 0.56367 0.0
H278 H 0.73156 0.64744 0.70559 0.0
H279 H 0.90779 0.70156 0.54286 0.0
H280 H 0.65071 0.63761 0.60074 0.0
N281 N 0.74518 0.67134 0.65966 0.0
C282 C 0.71471 0.65548 0.65287 0.0
C283 C 0.72651 0.64937 0.69077 0.0
C284 C 0.68889 0.63519 0.66471 0.0
C285 C 0.75137 0.66913 0.67841 0.0
C286 C 0.69514 0.63215 0.68387 0.0
N287 N 0.73554 0.67851 0.62281 0.0
C288 C 0.73088 0.68747 0.6052 0.0
C289 C 0.67861 0.64302 0.6261 0.0
C290 C 0.70981 0.65887 0.63374 0.0
C291 C 0.6743 0.64922 0.60717 0.0
C292 C 0.70049 0.67222 0.59683 0.0
H293 H 0.67596 0.6167 0.69345 0.0
H294 H 0.63769 0.60244 0.66582 0.0
H295 H 0.62861 0.60966 0.63207 0.0
O296 O 0.78511 0.74295 0.62875 0.0
O297 O 0.76277 0.64791 0.64012 0.0
O298 O 0.77683 0.63277 0.61255 0.0
O299 O 0.77904 0.72998 0.65826 0.0
O300 O 0.80044 0.7092 0.6083 0.0
O301 O 0.79539 0.66208 0.5968 0.0
O302 O 0.82686 0.61767 0.63153 0.0
O303 O 0.85404 0.70891 0.61556 0.0
O304 O 0.8362 0.72593 0.64102 0.0
O305 O 0.83455 0.62199 0.60137 0.0
O306 O 0.81964 0.65291 0.64778 0.0
O307 O 0.81722 0.69774 0.65749 0.0
C308 C 0.75637 0.6271 0.62632 0.0
C309 C 0.81108 0.78487 0.6509 0.0
C310 C 0.83479 0.84314 0.65099 0.0
C311 C 0.86217 0.84591 0.65993 0.0
C312 C 0.83852 0.78843 0.66019 0.0
C313 C 0.86399 0.81875 0.66443 0.0
C314 C 0.80939 0.81242 0.64614 0.0
C315 C 0.79519 0.68919 0.59421 0.0
C316 C 0.78473 0.75246 0.64602 0.0
C317 C 0.65788 0.61837 0.65699 0.0
C318 C 0.65274 0.62233 0.63774 0.0
C319 C 0.8581 0.73041 0.62838 0.0
C320 C 0.81296 0.57009 0.61431 0.0
C321 C 0.81043 0.51802 0.61381 0.0
C322 C 0.77872 0.50401 0.60717 0.0
C323 C 0.7813 0.55547 0.60778 0.0
C324 C 0.82742 0.55123 0.61757 0.0
C325 C 0.76433 0.5226 0.60423 0.0
C326 C 0.82114 0.67314 0.66111 0.0
C327 C 0.8319 0.60518 0.61642 0.0
H328 H 0.88223 0.86923 0.6635 0.0
H329 H 0.84023 0.76775 0.66432 0.0
H330 H 0.88513 0.82121 0.67142 0.0
H331 H 0.78821 0.80992 0.63914 0.0
H332 H 0.76506 0.47857 0.60419 0.0
H333 H 0.77 0.56962 0.60504 0.0
H334 H 0.8521 0.56252 0.62233 0.0
H335 H 0.74003 0.51153 0.59891 0.0
Tb336 Tb 0.09391 0.79019 0.13613 0.0
C337 C 0.21073 0.88939 0.09563 0.0
N338 N 0.19247 0.85744 0.09197 0.0
C339 C 0.18926 0.86916 0.05898 0.0
C340 C 0.21778 0.91244 0.08126 0.0
C341 C 0.18368 0.84723 0.07358 0.0
C342 C 0.20592 0.90191 0.06289 0.0
C343 C 0.24489 0.93163 0.11773 0.0
C344 C 0.22427 0.89902 0.11358 0.0
C345 C 0.25095 0.9547 0.10368 0.0
C346 C 0.2375 0.94512 0.08548 0.0
Tb347 Tb 0.18505 0.82468 0.11763 0.0
N348 N 0.21725 0.87616 0.12701 0.0
C349 C 0.25915 0.93994 0.1358 0.0
C350 C 0.23239 0.88382 0.14428 0.0
C351 C 0.2532 0.91588 0.14904 0.0
H352 H 0.17325 0.82235 0.06974 0.0
H353 H 0.26462 0.92201 0.16289 0.0
H354 H 0.09885 0.78935 0.18344 0.0
H355 H 0.01966 0.69797 0.08561 0.0
H356 H 0.228 0.86517 0.15442 0.0
H357 H 0.27518 0.96476 0.13954 0.0
H358 H 0.05406 0.75337 0.09653 0.0
H359 H 0.18147 0.8608 0.04459 0.0
H360 H 0.26652 0.97995 0.10661 0.0
H361 H 0.24322 0.96317 0.07462 0.0
H362 H 0.08035 0.74876 0.20881 0.0
H363 H 0.21076 0.91883 0.05145 0.0
H364 H 1.00173 0.65322 0.10857 0.0
N365 N 0.07754 0.75522 0.16103 0.0
C366 C 0.05737 0.72402 0.15651 0.0
C367 C 0.07404 0.74143 0.19413 0.0
C368 C 0.04569 0.70003 0.17061 0.0
C369 C 0.08501 0.76437 0.17961 0.0
C370 C 0.05458 0.70906 0.1896 0.0
N371 N 0.05994 0.74025 0.12445 0.0
C372 C 0.04863 0.73412 0.10622 0.0
C373 C 0.02742 0.68423 0.1323 0.0
C374 C 0.04844 0.71627 0.13758 0.0
C375 C 0.01786 0.67753 0.11323 0.0
C376 C 0.02811 0.70268 0.1002 0.0
H377 H 0.04606 0.69134 0.20088 0.0
H378 H 0.0162 0.64912 0.17597 0.0
H379 H 1.00021 0.63527 0.14244 0.0
O380 O 0.04958 0.78599 0.12964 0.0
O381 O 0.11546 0.75881 0.13899 0.0
O382 O 0.15079 0.77407 0.11394 0.0
O383 O 0.07539 0.81144 0.15474 0.0
O384 O 0.10436 0.80308 0.10595 0.0
O385 O 0.1459 0.79486 0.09696 0.0
O386 O 0.21826 0.8127 0.12928 0.0
O387 O 0.17044 0.85603 0.13141 0.0
O388 O 0.11963 0.83567 0.1206 0.0
O389 O 0.2248 0.83273 0.10128 0.0
O390 O 0.17513 0.81022 0.148 0.0
O391 O 0.13269 0.81803 0.15647 0.0
C392 C 0.13462 0.7541 0.12771 0.0
C393 C 0.01864 0.78935 0.15422 0.0
C394 C 0.96759 0.78825 0.15676 0.0
C395 C 0.95665 0.76213 0.1693 0.0
C396 C 1.00734 0.76335 0.1668 0.0
C397 C 0.97652 0.74996 0.17438 0.0
C398 C 0.99881 0.80198 0.14939 0.0
C399 C 0.1188 0.79472 0.09322 0.0
C400 C 0.04961 0.80199 0.14451 0.0
C401 C 0.02532 0.66796 0.16535 0.0
C402 C 0.01624 0.66007 0.14624 0.0
C403 C 0.14661 0.86005 0.12635 0.0
C404 C 0.25302 0.80566 0.10818 0.0
C405 C 0.30241 0.80311 0.10636 0.0
C406 C 0.2867 0.77671 0.09401 0.0
C407 C 0.23828 0.78001 0.09538 0.0
C408 C 0.28507 0.81711 0.1137 0.0
C409 C 0.25491 0.76526 0.08864 0.0
C410 C 0.15737 0.81442 0.16082 0.0
C411 C 0.23686 0.82307 0.11446 0.0
H412 H 0.93273 0.75123 0.17523 0.0
H413 H 0.022 0.75309 0.17057 0.0
H414 H 0.96785 0.72982 0.18405 0.0
H415 H 1.00726 0.82174 0.13939 0.0
H416 H 0.29914 0.76504 0.08835 0.0
H417 H 0.2141 0.77166 0.0904 0.0
H418 H 0.29688 0.83777 0.12301 0.0
H419 H 0.24334 0.74528 0.07889 0.0
Tb420 Tb 0.31724 0.09023 0.63309 0.0
C421 C 0.32981 0.21069 0.59708 0.0
N422 N 0.34389 0.19374 0.5913 0.0
C423 C 0.32866 0.19539 0.55897 0.0
C424 C 0.31389 0.22005 0.58396 0.0
C425 C 0.34388 0.18631 0.57252 0.0
C426 C 0.31354 0.21226 0.56471 0.0
C427 C 0.31401 0.23302 0.62304 0.0
C428 C 0.32969 0.21684 0.61645 0.0
C429 C 0.29827 0.24257 0.60999 0.0
C430 C 0.29823 0.23613 0.59052 0.0
Tb431 Tb 0.3685 0.18114 0.61463 0.0
N432 N 0.34416 0.20617 0.62881 0.0
C433 C 0.31459 0.23912 0.64255 0.0
C434 C 0.34697 0.21448 0.64762 0.0
C435 C 0.33157 0.23024 0.65484 0.0
H436 H 0.35609 0.17391 0.56786 0.0
H437 H 0.33338 0.23614 0.66984 0.0
H438 H 0.3239 0.0933 0.68011 0.0
H439 H 0.33946 0.02233 0.5803 0.0
H440 H 0.36197 0.21035 0.65713 0.0
H441 H 0.30275 0.2514 0.64819 0.0
H442 H 0.31384 0.05155 0.59299 0.0
H443 H 0.32867 0.18944 0.54411 0.0
H444 H 0.28595 0.25487 0.61484 0.0
H445 H 0.28573 0.24339 0.58067 0.0
H446 H 0.35013 0.07751 0.70436 0.0
H447 H 0.30155 0.21904 0.55419 0.0
H448 H 0.36866 1.00548 0.60212 0.0
N449 N 0.33597 0.07254 0.65723 0.0
C450 C 0.34873 0.05417 0.65202 0.0
C451 C 0.34963 0.07046 0.68977 0.0
C452 C 0.36277 0.04337 0.66555 0.0
C453 C 0.33544 0.08009 0.67588 0.0
C454 C 0.36333 0.05199 0.68464 0.0
N455 N 0.33499 0.05837 0.62037 0.0
C456 C 0.32935 0.04744 0.60208 0.0
C457 C 0.36111 0.0278 0.62681 0.0
C458 C 0.34837 0.04696 0.63291 0.0
C459 C 0.3589 0.01988 0.60748 0.0
C460 C 0.34254 0.02942 0.59511 0.0
H461 H 0.37422 0.04452 0.6955 0.0
H462 H 0.38724 0.01643 0.66969 0.0
H463 H 0.38551 1.00253 0.63576 0.0
O464 O 0.27334 0.05761 0.62026 0.0
O465 O 0.37028 0.11269 0.63494 0.0
O466 O 0.39225 0.15306 0.61223 0.0
O467 O 0.2805 0.05587 0.65039 0.0
O468 O 0.31576 0.10158 0.60285 0.0
O469 O 0.36466 0.14465 0.59382 0.0
O470 O 0.4085 0.2228 0.62578 0.0
O471 O 0.31603 0.15323 0.61118 0.0
O472 O 0.29896 0.12288 0.63809 0.0
O473 O 0.40014 0.21676 0.59574 0.0
O474 O 0.37486 0.17164 0.64501 0.0
O475 O 0.32596 0.12819 0.65323 0.0
C476 C 0.39476 0.13426 0.62484 0.0
C477 C 0.24347 1.00749 0.63541 0.0
C478 C 0.19251 0.95705 0.63355 0.0
C479 C 0.20957 0.94044 0.63496 0.0
C480 C 0.25981 0.99038 0.63658 0.0
C481 C 0.2429 0.95702 0.63634 0.0
C482 C 0.20988 0.99084 0.63379 0.0
C483 C 0.3389 0.11645 0.59031 0.0
C484 C 0.2609 0.04265 0.63618 0.0
C485 C 0.37619 0.02486 0.65952 0.0
C486 C 0.37531 0.01704 0.64019 0.0
C487 C 0.2947 0.13922 0.62466 0.0
C488 C 0.45354 0.25202 0.60548 0.0
C489 C 0.50593 0.30121 0.60645 0.0
C490 C 0.51884 0.28538 0.59608 0.0
C491 C 0.46694 0.23726 0.59463 0.0
C492 C 0.4732 0.28407 0.61147 0.0
C493 C 0.49951 0.25366 0.59031 0.0
C494 C 0.35392 0.15271 0.65796 0.0
C495 C 0.4187 0.23547 0.60907 0.0
H496 H 0.19719 0.91453 0.63536 0.0
H497 H 0.28553 1.00269 0.63793 0.0
H498 H 0.25565 0.94393 0.63741 0.0
H499 H 0.19744 1.00426 0.63263 0.0
H500 H 0.54397 0.29774 0.59224 0.0
H501 H 0.45215 0.2131 0.58931 0.0
H502 H 0.46278 0.29602 0.61927 0.0
H503 H 0.50972 0.24195 0.58212 0.0
Tb504 Tb 0.70928 0.78899 0.38394 0.0
C505 C 0.68817 0.88757 0.42882 0.0
N506 N 0.67444 0.85543 0.43155 0.0
C507 C 0.68155 0.86378 0.46538 0.0
C508 C 0.69996 0.90912 0.44426 0.0
C509 C 0.66917 0.84334 0.44968 0.0
C510 C 0.6975 0.89687 0.46264 0.0
C511 C 0.69864 0.93136 0.40743 0.0
C512 C 0.68756 0.89864 0.4107 0.0
C513 C 0.71174 0.9531 0.42261 0.0
C514 C 0.71215 0.94194 0.441 0.0
Tb515 Tb 0.65556 0.82484 0.40451 0.0
N516 N 0.67456 0.87692 0.3964 0.0
C517 C 0.69496 0.94095 0.3892 0.0
C518 C 0.66882 0.8857 0.37895 0.0
C519 C 0.6795 0.91793 0.37498 0.0
H520 H 0.6546 0.81797 0.45227 0.0
H521 H 0.67566 0.92496 0.361 0.0
H522 H 0.70908 0.79374 0.33676 0.0
H523 H 0.67137 0.68805 0.43164 0.0
H524 H 0.65632 0.86786 0.36808 0.0
H525 H 0.7031 0.96589 0.38612 0.0
H526 H 0.69943 0.74497 0.42307 0.0
H527 H 0.67793 0.85398 0.47964 0.0
H528 H 0.72052 0.9784 0.42042 0.0
H529 H 0.72063 0.95868 0.45276 0.0
H530 H 0.68485 0.75658 0.30977 0.0
H531 H 0.7064 0.91266 0.47487 0.0
H532 H 0.644 0.64693 0.4067 0.0
N533 N 0.68973 0.75715 0.35776 0.0
C534 C 0.67464 0.72512 0.36117 0.0
C535 C 0.68135 0.74741 0.32419 0.0
C536 C 0.66101 0.70287 0.34619 0.0
C537 C 0.69442 0.76852 0.33955 0.0
C538 C 0.66423 0.71443 0.32753 0.0
N539 N 0.68626 0.73699 0.39392 0.0
C540 C 0.68663 0.72769 0.41222 0.0
C541 C 0.65695 0.68168 0.38398 0.0
C542 C 0.67278 0.71469 0.37984 0.0
C543 C 0.65592 0.67208 0.40291 0.0
C544 C 0.67116 0.69521 0.41705 0.0
H545 H 0.65418 0.6981 0.3156 0.0
H546 H 0.63419 0.65244 0.33896 0.0
H547 H 0.63078 0.63392 0.37202 0.0
O548 O 0.74528 0.77768 0.38973 0.0
O549 O 0.65601 0.76153 0.38209 0.0
O550 O 0.64104 0.77514 0.40973 0.0
O551 O 0.75006 0.8088 0.36632 0.0
O552 O 0.7155 0.80167 0.41404 0.0
O553 O 0.66891 0.79839 0.42571 0.0
O554 O 0.61107 0.80966 0.39109 0.0
O555 O 0.70227 0.8576 0.39193 0.0
O556 O 0.73278 0.83498 0.39926 0.0
O557 O 0.62037 0.83038 0.41899 0.0
O558 O 0.65223 0.81269 0.37369 0.0
O559 O 0.70212 0.82062 0.36492 0.0
C560 C 0.63511 0.75482 0.3959 0.0
C561 C 0.78124 0.78315 0.3652 0.0
C562 C 0.83137 0.78272 0.36047 0.0
C563 C 0.81727 0.76253 0.3446 0.0
C564 C 0.76761 0.76253 0.34965 0.0
C565 C 0.78564 0.75237 0.33939 0.0
C566 C 0.81292 0.79294 0.37069 0.0
C567 C 0.69606 0.79791 0.42818 0.0
C568 C 0.76341 0.79536 0.37587 0.0
C569 C 0.64493 0.66994 0.35028 0.0
C570 C 0.64293 0.65938 0.36912 0.0
C571 C 0.73001 0.86025 0.39591 0.0
C572 C 0.56601 0.79983 0.4097 0.0
C573 C 0.51243 0.79366 0.4098 0.0
C574 C 0.50056 0.76319 0.41809 0.0
C575 C 0.55379 0.76981 0.41832 0.0
C576 C 0.54539 0.81186 0.40561 0.0
C577 C 0.52114 0.75148 0.42237 0.0
C578 C 0.67485 0.81939 0.36081 0.0
C579 C 0.60016 0.81932 0.40497 0.0
H580 H 0.83072 0.75479 0.33597 0.0
H581 H 0.74323 0.75444 0.34535 0.0
H582 H 0.77514 0.73673 0.32722 0.0
H583 H 0.82297 0.80831 0.38303 0.0
H584 H 0.47545 0.74866 0.4217 0.0
H585 H 0.56956 0.76084 0.42205 0.0
H586 H 0.55498 0.83524 0.39902 0.0
H587 H 0.51179 0.72823 0.42901 0.0
Tb588 Tb 0.93255 0.70009 0.88687 0.0
C589 C 0.81619 0.69658 0.92094 0.0
N590 N 0.83232 0.68232 0.92789 0.0
C591 C 0.83442 0.70419 0.95885 0.0
C592 C 0.80928 0.71601 0.93266 0.0
C593 C 0.84098 0.6853 0.94665 0.0
C594 C 0.81866 0.71975 0.95182 0.0
C595 C 0.79158 0.70747 0.89399 0.0
C596 C 0.80812 0.69286 0.90172 0.0
C597 C 0.78471 0.72699 0.90559 0.0
C598 C 0.79365 0.73135 0.92486 0.0
Tb599 Tb 0.84196 0.65265 0.90657 0.0
N600 N 0.81657 0.67506 0.89064 0.0
C601 C 0.7824 0.70197 0.87482 0.0
C602 C 0.80504 0.66735 0.87246 0.0
C603 C 0.78865 0.68134 0.86412 0.0
H604 H 0.85274 0.673 0.95225 0.0
H605 H 0.7803 0.67569 0.84955 0.0
H606 H 0.92605 0.69451 0.83947 0.0
H607 H 1.00455 0.6774 0.93621 0.0
H608 H 0.80707 0.64945 0.86445 0.0
H609 H 0.76971 0.71279 0.86832 0.0
H610 H 0.97185 0.70069 0.92571 0.0
H611 H 0.8415 0.70671 0.97368 0.0
H612 H 0.77246 0.73879 0.89981 0.0
H613 H 0.78831 0.74659 0.9336 0.0
H614 H 0.94105 0.6694 0.81391 0.0
H615 H 0.8138 0.73452 0.9613 0.0
H616 H 0.01938 0.64829 0.91305 0.0
N617 N 0.9468 0.68041 0.86154 0.0
C618 C 0.96509 0.6671 0.86583 0.0
C619 C 0.9477 0.66845 0.82848 0.0
C620 C 0.97491 0.65333 0.85159 0.0
C621 C 0.93878 0.68213 0.84308 0.0
C622 C 0.96563 0.65379 0.83275 0.0
N623 N 0.96376 0.68061 0.89798 0.0
C624 C 0.97596 0.68593 0.91599 0.0
C625 C 0.99402 0.65501 0.88964 0.0
C626 C 0.97417 0.66754 0.88464 0.0
C627 C 1.00408 0.65759 0.9086 0.0
C628 C 0.99552 0.67373 0.92175 0.0
H629 H 0.97262 0.64339 0.82137 0.0
H630 H 1.00153 0.62901 0.84583 0.0
H631 H 0.01849 0.63072 0.87914 0.0
O632 O 0.96677 0.74323 0.89983 0.0
O633 O 0.90923 0.64691 0.88736 0.0
O634 O 0.868 0.62705 0.90965 0.0
O635 O 0.96976 0.73499 0.87005 0.0
O636 O 0.9232 0.70286 0.91732 0.0
O637 O 0.87814 0.65606 0.92747 0.0
O638 O 0.79956 0.61175 0.897 0.0
O639 O 0.87254 0.70499 0.90935 0.0
O640 O 0.90106 0.71972 0.8818 0.0
O641 O 0.8066 0.6243 0.92656 0.0
O642 O 0.85066 0.6442 0.8765 0.0
O643 O 0.89421 0.69229 0.86727 0.0
C644 C 0.88672 0.62335 0.8976 0.0
C645 C 0.98745 0.78806 0.87948 0.0
C646 C 0.02332 0.84599 0.87818 0.0
C647 C 0.99836 0.84934 0.87033 0.0
C648 C 0.96306 0.79206 0.87141 0.0
C649 C 0.9684 0.82253 0.86715 0.0
C650 C 0.01762 0.8152 0.88307 0.0
C651 C 0.90755 0.68049 0.93022 0.0
C652 C 0.98155 0.75567 0.88386 0.0
C653 C 0.99384 0.63983 0.85658 0.0
C654 C 1.00347 0.64077 0.87555 0.0
C655 C 0.88593 0.72528 0.89535 0.0
C656 C 0.77063 0.56969 0.91925 0.0
C657 C 0.72145 0.51675 0.91881 0.0
C658 C 0.73561 0.50667 0.93279 0.0
C659 C 0.78415 0.55831 0.9326 0.0
C660 C 0.73949 0.54876 0.91215 0.0
C661 C 0.76664 0.52706 0.93934 0.0
C662 C 0.86904 0.66446 0.86317 0.0
C663 C 0.78741 0.60399 0.91399 0.0
H664 H 1.00206 0.8728 0.86668 0.0
H665 H 0.93995 0.7717 0.86815 0.0
H666 H 0.94926 0.82527 0.86124 0.0
H667 H 0.03671 0.81233 0.88915 0.0
H668 H 0.72263 0.48315 0.93919 0.0
H669 H 0.80796 0.57383 0.93823 0.0
H670 H 0.72947 0.55772 0.90163 0.0
H671 H 0.77685 0.51884 0.95012 0.0
Tb672 Tb 0.23246 0.92158 0.38505 0.0
C673 C 0.12248 0.80379 0.42143 0.0
N674 N 0.15259 0.82385 0.42794 0.0
C675 C 0.13158 0.82848 0.45794 0.0
C676 C 0.09553 0.7961 0.43279 0.0
C677 C 0.15761 0.83548 0.44612 0.0
C678 C 0.1004 0.80888 0.45121 0.0
C679 C 0.08799 0.77089 0.39581 0.0
C680 C 0.11885 0.79172 0.40308 0.0
C681 C 0.06098 0.76335 0.40699 0.0
C682 C 0.06474 0.77597 0.42542 0.0
Tb683 Tb 0.19296 0.83238 0.40778 0.0
N684 N 0.14553 0.80016 0.39245 0.0
C685 C 0.08517 0.75809 0.37756 0.0
C686 C 0.14283 0.7859 0.37516 0.0
C687 C 0.11274 0.76531 0.36731 0.0
H688 H 0.18164 0.85016 0.45151 0.0
H689 H 0.11086 0.75456 0.35349 0.0
H690 H 0.21673 0.91265 0.33826 0.0
H691 H 0.34148 0.99407 0.42414 0.0
H692 H 0.16359 0.78911 0.36754 0.0
H693 H 0.06189 0.74203 0.37145 0.0
H694 H 0.28281 0.96098 0.41998 0.0
H695 H 0.13557 0.83805 0.47226 0.0
H696 H 0.03708 0.74762 0.40156 0.0
H697 H 0.04368 0.76985 0.43389 0.0
H698 H 0.24784 0.92585 0.30851 0.0
H699 H 0.08029 0.80352 0.4604 0.0
H700 H 0.37715 0.00775 0.39613 0.0
N701 N 0.25794 0.93287 0.35628 0.0
C702 C 0.29037 0.95093 0.35711 0.0
C703 C 0.26012 0.93282 0.3221 0.0
C704 C 0.30907 0.96007 0.34041 0.0
C705 C 0.24257 0.92486 0.33905 0.0
C706 C 0.29353 0.95025 0.32277 0.0
N707 N 0.28581 0.95318 0.39045 0.0
C708 C 0.29833 0.9661 0.40786 0.0
C709 C 0.33818 0.98155 0.37626 0.0
C710 C 0.30477 0.9617 0.37475 0.0
C711 C 0.35151 0.99271 0.39432 0.0
C712 C 0.33146 0.98509 0.41018 0.0
H713 H 0.30706 0.95671 0.30961 0.0
H714 H 0.35733 0.98649 0.32916 0.0
H715 H 0.38281 1.00514 0.36056 0.0
O716 O 0.22104 0.95284 0.39957 0.0
O717 O 0.2668 0.90605 0.3947 0.0
O718 O 0.23969 0.85036 0.39512 0.0
O719 O 0.2341 0.96026 0.37011 0.0
O720 O 0.21958 0.91339 0.41512 0.0
O721 O 0.22638 0.87241 0.42685 0.0
O722 O 0.18278 0.78436 0.40518 0.0
O723 O 0.16882 0.86103 0.40868 0.0
O724 O 0.18165 0.88737 0.38021 0.0
O725 O 0.20303 0.81129 0.43126 0.0
O726 O 0.20781 0.83757 0.37738 0.0
O727 O 0.20328 0.88043 0.36677 0.0
C728 C 0.2661 0.87828 0.39439 0.0
C729 C 0.19627 0.97418 0.38019 0.0
C730 C 0.17301 0.00896 0.3788 0.0
C731 C 0.14485 0.98347 0.37111 0.0
C732 C 0.16807 0.94926 0.37222 0.0
C733 C 0.14244 0.95384 0.36792 0.0
C734 C 0.19862 1.00405 0.38361 0.0
C735 C 0.22947 0.9013 0.4285 0.0
C736 C 0.22352 0.96937 0.38437 0.0
C737 C 0.34252 0.97931 0.34183 0.0
C738 C 0.35704 0.98997 0.35971 0.0
C739 C 0.16099 0.87219 0.39387 0.0
C740 C 0.19214 0.75586 0.43094 0.0
C741 C 0.18856 0.70324 0.42869 0.0
C742 C 0.19065 0.70289 0.44868 0.0
C743 C 0.1945 0.75468 0.45081 0.0
C744 C 0.18874 0.72974 0.41981 0.0
C745 C 0.19356 0.72833 0.45958 0.0
C746 C 0.20697 0.8557 0.3635 0.0
C747 C 0.19244 0.78413 0.42237 0.0
H748 H 0.12467 0.98652 0.36754 0.0
H749 H 0.16593 0.92639 0.36905 0.0
H750 H 0.12079 0.93446 0.36187 0.0
H751 H 0.22052 0.02357 0.38948 0.0
H752 H 0.18996 0.68273 0.45596 0.0
H753 H 0.19672 0.77408 0.45967 0.0
H754 H 0.18691 0.7303 0.40443 0.0
H755 H 0.1952 0.72763 0.47493 0.0
Tb756 Tb 0.31789 0.23332 0.88158 0.0
C757 C 0.32871 0.12774 0.92249 0.0
N758 N 0.34364 0.15897 0.92792 0.0
C759 C 0.32781 0.14322 0.96031 0.0
C760 C 0.3123 0.10291 0.93579 0.0
C761 C 0.34372 0.16704 0.94658 0.0
C762 C 0.31192 0.11101 0.9549 0.0
C763 C 0.31457 0.08883 0.89715 0.0
C764 C 0.32972 0.12089 0.90339 0.0
C765 C 0.29778 0.06393 0.91029 0.0
C766 C 0.29669 0.07095 0.92956 0.0
Tb767 Tb 0.36806 0.19586 0.90431 0.0
N768 N 0.34565 0.14571 0.89102 0.0
C769 C 0.31712 0.08277 0.87794 0.0
C770 C 0.35059 0.13969 0.87269 0.0
C771 C 0.33572 0.10831 0.86575 0.0
H772 H 0.35636 0.19182 0.95098 0.0
H773 H 0.3392 0.10382 0.85108 0.0
H774 H 0.30569 0.21762 0.8354 0.0
H775 H 0.37191 0.3437 0.92161 0.0
H776 H 0.36686 0.15859 0.86344 0.0
H777 H 0.30579 0.05848 0.87255 0.0
H778 H 0.34355 0.28522 0.9177 0.0
H779 H 0.32787 0.1497 0.97508 0.0
H780 H 0.28579 0.03915 0.90571 0.0
H781 H 0.28376 0.05149 0.93954 0.0
H782 H 0.31859 0.24856 0.80543 0.0
H783 H 0.29956 0.09262 0.96557 0.0
H784 H 0.38543 0.37884 0.89338 0.0
N785 N 0.32731 0.25889 0.85307 0.0
C786 C 0.342 0.29131 0.85398 0.0
C787 C 0.3255 0.26089 0.81899 0.0
C788 C 0.34922 0.30994 0.83732 0.0
C789 C 0.31872 0.24344 0.83594 0.0
C790 C 0.34081 0.2943 0.81967 0.0
N791 N 0.34325 0.28696 0.88744 0.0
C792 C 0.34991 0.30009 0.90524 0.0
C793 C 0.36525 0.33941 0.87334 0.0
C794 C 0.34987 0.30583 0.87175 0.0
C795 C 0.37329 0.3531 0.89153 0.0
C796 C 0.36561 0.33333 0.90752 0.0
H797 H 0.34587 0.30777 0.80652 0.0
H798 H 0.37032 0.35822 0.82615 0.0
H799 H 0.38442 0.38403 0.8577 0.0
O800 O 0.27776 0.22566 0.89745 0.0
O801 O 0.37112 0.2646 0.88158 0.0
O802 O 0.38722 0.24691 0.90737 0.0
O803 O 0.27807 0.22969 0.86692 0.0
O804 O 0.31366 0.22414 0.91228 0.0
O805 O 0.35982 0.22673 0.92438 0.0
O806 O 0.41072 0.19909 0.89403 0.0
O807 O 0.31537 0.17056 0.90658 0.0
O808 O 0.29941 0.18185 0.87843 0.0
O809 O 0.40181 0.19714 0.92394 0.0
O810 O 0.37581 0.21013 0.87358 0.0
O811 O 0.32658 0.20155 0.86399 0.0
C812 C 0.39353 0.26748 0.89361 0.0
C813 C 0.2452 0.24415 0.88405 0.0
C814 C 0.1948 0.24437 0.88636 0.0
C815 C 0.21231 0.27792 0.8882 0.0
C816 C 0.2622 0.27755 0.88592 0.0
C817 C 0.24576 0.29432 0.88794 0.0
C818 C 0.21154 0.22762 0.88418 0.0
C819 C 0.33316 0.22812 0.92648 0.0
C820 C 0.26195 0.22591 0.88245 0.0
C821 C 0.36452 0.34346 0.83881 0.0
C822 C 0.37252 0.35815 0.85678 0.0
C823 C 0.2945 0.16236 0.89271 0.0
C824 C 0.43019 0.17186 0.91287 0.0
C825 C 0.46899 0.15385 0.90806 0.0
C826 C 0.44674 0.12377 0.9155 0.0
C827 C 0.40887 0.14178 0.92073 0.0
C828 C 0.46066 0.17802 0.90674 0.0
C829 C 0.41698 0.11789 0.92187 0.0
C830 C 0.35498 0.20581 0.85998 0.0
C831 C 0.42045 0.19642 0.91084 0.0
H832 H 0.20014 0.29153 0.88965 0.0
H833 H 0.28808 0.29062 0.88591 0.0
H834 H 0.25897 0.32014 0.88934 0.0
H835 H 0.19845 0.20172 0.88296 0.0
H836 H 0.45271 0.10496 0.91675 0.0
H837 H 0.38602 0.13668 0.92621 0.0
H838 H 0.47761 0.20124 0.90087 0.0
H839 H 0.4002 0.09478 0.92788 0.0
Tb840 Tb 0.09983 0.31555 0.38424 0.0
C841 C 0.22233 0.34514 0.43212 0.0
N842 N 0.20279 0.3577 0.43406 0.0
C843 C 0.20643 0.35603 0.4681 0.0
C844 C 0.23475 0.33752 0.44819 0.0
C845 C 0.19508 0.36369 0.45174 0.0
C846 C 0.22632 0.34286 0.46634 0.0
C847 C 0.25065 0.32764 0.41124 0.0
C848 C 0.22993 0.33991 0.41387 0.0
C849 C 0.26362 0.32065 0.42722 0.0
C850 C 0.25542 0.32521 0.44564 0.0
Tb851 Tb 0.18737 0.37018 0.40618 0.0
N852 N 0.21648 0.34643 0.39872 0.0
C853 C 0.25798 0.32314 0.39261 0.0
C854 C 0.22433 0.34302 0.38054 0.0
C855 C 0.24474 0.33082 0.37721 0.0
H856 H 0.18103 0.37527 0.45335 0.0
H857 H 0.25074 0.32795 0.36277 0.0
H858 H 0.10157 0.30157 0.33811 0.0
H859 H 0.03864 0.36472 0.424 0.0
H860 H 0.21553 0.35019 0.36856 0.0
H861 H 0.27428 0.31435 0.38994 0.0
H862 H 0.06972 0.33739 0.41999 0.0
H863 H 0.20024 0.36078 0.48207 0.0
H864 H 0.28022 0.312 0.42551 0.0
H865 H 0.26549 0.31949 0.45781 0.0
H866 H 0.08491 0.31557 0.30803 0.0
H867 H 0.23534 0.33726 0.47905 0.0
H868 H 0.02007 0.38131 0.39563 0.0
N869 N 0.08378 0.32507 0.35563 0.0
C870 C 0.06684 0.34058 0.35638 0.0
C871 C 0.07989 0.32299 0.32153 0.0
C872 C 0.05608 0.34836 0.33964 0.0
C873 C 0.08983 0.31559 0.33856 0.0
C874 C 0.06306 0.33959 0.32206 0.0
N875 N 0.07092 0.3404 0.38986 0.0
C876 C 0.06274 0.34533 0.4076 0.0
C877 C 0.04166 0.36358 0.37561 0.0
C878 C 0.05978 0.34814 0.37409 0.0
C879 C 0.03432 0.36988 0.39381 0.0
C880 C 0.04474 0.36053 0.40987 0.0
H881 H 0.0552 0.34511 0.30884 0.0
H882 H 0.0301 0.37063 0.32831 0.0
H883 H 0.0174 0.38387 0.35982 0.0
O884 O 0.06277 0.27821 0.39997 0.0
O885 O 0.12134 0.36868 0.38304 0.0
O886 O 0.15492 0.3887 0.40906 0.0
O887 O 0.06743 0.27333 0.3699 0.0
O888 O 0.11054 0.31152 0.41409 0.0
O889 O 0.14724 0.36077 0.42572 0.0
O890 O 0.22503 0.40834 0.39122 0.0
O891 O 0.16687 0.31766 0.40729 0.0
O892 O 0.13312 0.29737 0.38134 0.0
O893 O 0.22319 0.40907 0.42173 0.0
O894 O 0.17997 0.37453 0.3751 0.0
O895 O 0.13961 0.32451 0.36597 0.0
C896 C 0.1384 0.39186 0.39529 0.0
C897 C 0.01584 0.24274 0.38294 0.0
C898 C 0.96471 0.19231 0.3839 0.0
C899 C 0.94958 0.20881 0.37688 0.0
C900 C 1.00013 0.25861 0.37625 0.0
C901 C 0.96714 0.24167 0.37326 0.0
C902 C 0.99812 0.2097 0.38687 0.0
C903 C 0.12038 0.33297 0.42767 0.0
C904 C 0.0508 0.25979 0.38511 0.0
C905 C 0.03849 0.36431 0.34102 0.0
C906 C 0.03125 0.37185 0.35897 0.0
C907 C 0.15113 0.29498 0.39461 0.0
C908 C 0.25359 0.45907 0.40613 0.0
C909 C 0.30141 0.51238 0.40454 0.0
C910 C 0.28175 0.52598 0.40676 0.0
C911 C 0.23447 0.47318 0.40813 0.0
C912 C 0.28706 0.47873 0.40406 0.0
C913 C 0.24854 0.5065 0.40838 0.0
C914 C 0.16403 0.35275 0.36185 0.0
C915 C 0.23933 0.424 0.40662 0.0
H916 H 0.92415 0.19632 0.37387 0.0
H917 H 0.01335 0.28391 0.37311 0.0
H918 H 0.95516 0.25398 0.36788 0.0
H919 H 1.01046 0.19773 0.39228 0.0
H920 H 0.29213 0.55177 0.4071 0.0
H921 H 0.20878 0.45842 0.40965 0.0
H922 H 0.30195 0.4679 0.40255 0.0
H923 H 0.23366 0.51729 0.40996 0.0
Tb924 Tb 0.78469 0.08651 0.88355 0.0
C925 C 0.89392 0.20796 0.92145 0.0
N926 N 0.86267 0.1905 0.92673 0.0
C927 C 0.87817 0.19303 0.95945 0.0
C928 C 0.91864 0.21834 0.93506 0.0
C929 C 0.85445 0.1833 0.94547 0.0
C930 C 0.9104 0.21057 0.95424 0.0
C931 C 0.93323 0.23222 0.8962 0.0
C932 C 0.9011 0.21435 0.90219 0.0
C933 C 0.95795 0.24271 0.90972 0.0
C934 C 0.95068 0.23569 0.92908 0.0
Tb935 Tb 0.82666 0.17677 0.90253 0.0
N936 N 0.87659 0.20273 0.88935 0.0
C937 C 0.93954 0.23932 0.87683 0.0
C938 C 0.88268 0.21118 0.87059 0.0
C939 C 0.91414 0.229 0.86401 0.0
H940 H 0.82967 0.17076 0.9498 0.0
H941 H 0.91871 0.23546 0.8491 0.0
H942 H 0.78573 0.08461 0.83633 0.0
H943 H 0.68738 0.03211 0.93419 0.0
H944 H 0.86369 0.20574 0.86069 0.0
H945 H 0.96388 0.25356 0.87172 0.0
H946 H 0.74336 0.05659 0.92378 0.0
H947 H 0.87157 0.18721 0.97427 0.0
H948 H 0.98279 0.25624 0.90534 0.0
H949 H 0.97003 0.24379 0.93932 0.0
H950 H 0.74673 0.06894 0.8101 0.0
H951 H 0.92872 0.21804 0.96512 0.0
H952 H 0.64454 0.01784 0.91027 0.0
N953 N 0.75078 0.07065 0.8581 0.0
C954 C 0.71907 0.05567 0.86234 0.0
C955 C 0.7386 0.06548 0.82472 0.0
C956 C 0.69579 0.04586 0.84788 0.0
C957 C 0.76077 0.07495 0.8396 0.0
C958 C 0.70595 0.05114 0.82888 0.0
N959 N 0.73337 0.06087 0.89486 0.0
C960 C 0.72543 0.05278 0.91348 0.0
C961 C 0.67742 0.03514 0.88642 0.0
C962 C 0.71001 0.05043 0.88135 0.0
C963 C 0.66932 0.0295 0.90574 0.0
C964 C 0.69344 0.03779 0.9193 0.0
H965 H 0.68875 0.04373 0.81736 0.0
H966 H 0.64498 0.02355 0.84193 0.0
H967 H 0.6289 0.01416 0.87568 0.0
O968 O 0.78831 0.04985 0.89775 0.0
O969 O 0.75698 0.11206 0.88272 0.0
O970 O 0.7755 0.14831 0.90748 0.0
O971 O 0.78161 0.04824 0.86753 0.0
O972 O 0.80068 0.0969 0.91337 0.0
O973 O 0.79579 0.13991 0.92355 0.0
O974 O 0.82437 0.21561 0.89019 0.0
O975 O 0.85249 0.15009 0.90436 0.0
O976 O 0.83643 0.11659 0.87846 0.0
O977 O 0.83274 0.21461 0.9201 0.0
O978 O 0.8108 0.16709 0.8722 0.0
O979 O 0.81493 0.12321 0.86303 0.0
C980 C 0.75346 0.13083 0.89493 0.0
C981 C 0.81343 0.02789 0.87936 0.0
C982 C 0.83503 0.99193 0.88258 0.0
C983 C 0.86436 0.016 0.87522 0.0
C984 C 0.8426 0.0511 0.87145 0.0
C985 C 0.86802 0.04533 0.86958 0.0
C986 C 0.80945 0.99795 0.88468 0.0
C987 C 0.79522 0.11257 0.92683 0.0
C988 C 0.78742 0.03516 0.88201 0.0
C989 C 0.66325 0.0311 0.85285 0.0
C990 C 0.65409 0.02578 0.87207 0.0
C991 C 0.85833 0.13471 0.89102 0.0
C992 C 0.81031 0.24599 0.91048 0.0
C993 C 0.8048 0.29386 0.90992 0.0
C994 C 0.77675 0.27708 0.92095 0.0
C995 C 0.78253 0.23012 0.92152 0.0
C996 C 0.82137 0.27781 0.90462 0.0
C997 C 0.76566 0.24547 0.92653 0.0
C998 C 0.81337 0.14902 0.85889 0.0
C999 C 0.82945 0.23068 0.90632 0.0
H1000 H 0.88424 0.01177 0.87337 0.0
H1001 H 0.84553 0.07352 0.86649 0.0
H1002 H 0.89049 0.06351 0.86355 0.0
H1003 H 0.78679 0.9796 0.89047 0.0
H1004 H 0.7637 0.28858 0.92582 0.0
H1005 H 0.77452 0.20623 0.92675 0.0
H1006 H 0.84302 0.29002 0.89617 0.0
H1007 H 0.74431 0.23308 0.93519 0.0
H1008 H 0.11024 0.88286 0.10968 0.0
H1009 H 0.11883 0.93742 0.11165 0.0
H1010 H 0.20111 0.9648 0.14778 0.0
H1011 H 0.19055 0.91008 0.14738 0.0
H1012 H 0.17263 0.99136 0.16087 0.0
H1013 H 0.20224 0.98126 0.09603 0.0
H1014 H 0.19216 0.95768 0.06374 0.0
H1015 H 0.1171 0.97959 0.05538 0.0
H1016 H 0.12638 1.00294 0.08763 0.0
H1017 H 0.27118 0.15824 0.13228 0.0
H1018 H 0.24713 0.10053 0.12809 0.0
H1019 H 0.15403 0.08775 0.14051 0.0
H1020 H 0.17802 0.14543 0.14597 0.0
H1021 H 0.1811 0.05369 0.10269 0.0
H1022 H 0.149 0.05742 0.17042 0.0
H1023 H 0.16287 0.08321 0.20205 0.0
H1024 H 0.2473 0.07463 0.2036 0.0
H1025 H 0.23411 0.04931 0.17179 0.0
C1026 C 0.12993 0.90053 0.11818 0.0
C1027 C 0.15033 0.89238 0.12793 0.0
C1028 C 0.13509 0.93184 0.11912 0.0
C1029 C 0.16118 0.95569 0.12947 0.0
C1030 C 0.18094 0.94714 0.13956 0.0
C1031 C 0.17523 0.91583 0.13905 0.0
C1032 C 0.16811 0.98952 0.1302 0.0
C1033 C 0.1743 1.00471 0.14805 0.0
C1034 C 0.17006 1.00736 0.11364 0.0
C1035 C 0.16476 0.9935 0.09427 0.0
C1036 C 0.18346 0.98084 0.08733 0.0
C1037 C 0.17791 0.96754 0.06907 0.0
C1038 C 0.15397 0.96702 0.05759 0.0
C1039 C 0.13558 0.97993 0.06431 0.0
C1040 C 0.14097 0.99321 0.08256 0.0
C1041 C 0.24561 0.1433 0.13434 0.0
C1042 C 0.22675 0.15671 0.13987 0.0
C1043 C 0.23188 0.1103 0.1317 0.0
C1044 C 0.19892 0.08995 0.13418 0.0
C1045 C 0.17961 0.10314 0.13869 0.0
C1046 C 0.19339 0.1362 0.14164 0.0
C1047 C 0.18545 0.05484 0.1332 0.0
C1048 C 0.17857 0.03975 0.11538 0.0
C1049 C 0.18299 0.03701 0.14968 0.0
C1050 C 0.19085 0.052 0.16872 0.0
C1051 C 0.17069 0.0614 0.17745 0.0
C1052 C 0.17839 0.07585 0.1954 0.0
C1053 C 0.20602 0.08068 0.20481 0.0
C1054 C 0.22597 0.07098 0.19628 0.0
C1055 C 0.21841 0.05662 0.17829 0.0
H1056 H 0.21192 0.09183 0.21872 0.0
H1057 H 0.14974 0.95669 0.04346 0.0
H1058 H 0.26294 0.14019 0.65659 0.0
H1059 H 0.22057 0.1539 0.65872 0.0
H1060 H 0.22338 0.16606 0.59766 0.0
H1061 H 0.26572 0.15235 0.59551 0.0
H1062 H 0.22132 0.21364 0.61425 0.0
H1063 H 0.16205 0.10037 0.61956 0.0
H1064 H 0.14816 0.04717 0.63207 0.0
H1065 H 0.1309 0.07358 0.68736 0.0
H1066 H 0.14529 0.12718 0.67525 0.0
H1067 H 0.0752 0.21826 0.6092 0.0
H1068 H 0.112 0.19718 0.60548 0.0
H1069 H 0.12908 0.20542 0.66611 0.0
H1070 H 0.09304 0.22724 0.66976 0.0
H1071 H 0.11918 0.1458 0.64852 0.0
H1072 H 0.18127 0.2609 0.6418 0.0
H1073 H 0.19385 0.31275 0.62771 0.0
H1074 H 0.20367 0.28006 0.57257 0.0
H1075 H 0.19053 0.22774 0.5863 0.0
C1076 C 0.25419 0.14537 0.64361 0.0
C1077 C 0.26763 0.14529 0.62588 0.0
C1078 C 0.23001 0.15324 0.64483 0.0
C1079 C 0.21852 0.16074 0.62833 0.0
C1080 C 0.23181 0.16038 0.6106 0.0
C1081 C 0.25599 0.15255 0.60938 0.0
C1082 C 0.19307 0.16948 0.62958 0.0
C1083 C 0.19881 0.19851 0.62149 0.0
C1084 C 0.16378 0.15002 0.6392 0.0
C1085 C 0.15505 0.11786 0.64655 0.0
C1086 C 0.15556 0.09491 0.63443 0.0
C1087 C 0.14757 0.06469 0.64144 0.0
C1088 C 0.13872 0.05702 0.66051 0.0
C1089 C 0.13781 0.07957 0.6726 0.0
C1090 C 0.14587 0.10988 0.66567 0.0
C1091 C 0.08651 0.21509 0.62171 0.0
C1092 C 0.08145 0.22431 0.63975 0.0
C1093 C 0.10753 0.20318 0.61959 0.0
C1094 C 0.1233 0.19987 0.63553 0.0
C1095 C 0.11709 0.20774 0.65366 0.0
C1096 C 0.09661 0.22021 0.65572 0.0
C1097 C 0.1476 0.18986 0.63326 0.0
C1098 C 0.14165 0.16071 0.64119 0.0
C1099 C 0.1765 0.20893 0.62325 0.0
C1100 C 0.18447 0.24032 0.61502 0.0
C1101 C 0.18576 0.26466 0.62664 0.0
C1102 C 0.19305 0.29414 0.61872 0.0
C1103 C 0.19944 0.29966 0.59924 0.0
C1104 C 0.19863 0.27572 0.58764 0.0
C1105 C 0.19125 0.24615 0.59548 0.0
H1106 H 0.20511 0.32253 0.59314 0.0
H1107 H 0.13252 0.03358 0.66591 0.0
H1108 H 0.87389 0.04864 0.11504 0.0
H1109 H 0.92598 0.09695 0.10883 0.0
H1110 H 0.94397 0.10996 0.16932 0.0
H1111 H 0.89237 0.06191 0.1755 0.0
H1112 H 0.96094 0.16678 0.15063 0.0
H1113 H 0.97576 0.07516 0.14449 0.0
H1114 H 0.96461 0.02345 0.13089 0.0
H1115 H 0.99026 0.06598 0.07522 0.0
H1116 H 1.00104 0.11784 0.08848 0.0
H1117 H 0.13771 0.24834 0.15376 0.0
H1118 H 0.08337 0.20253 0.15565 0.0
H1119 H 0.05865 0.23179 0.10331 0.0
H1120 H 0.1136 0.27629 0.10047 0.0
H1121 H 0.04444 0.15537 0.11609 0.0
H1122 H 0.98435 0.22723 0.131 0.0
H1123 H 0.99345 0.2773 0.14614 0.0
H1124 H 0.05904 0.27283 0.18578 0.0
H1125 H 0.04931 0.22215 0.17134 0.0
C1126 C 0.88886 0.06219 0.12695 0.0
C1127 C 0.87936 0.0516 0.14573 0.0
C1128 C 0.91857 0.08957 0.12341 0.0
C1129 C 0.93889 0.10683 0.13863 0.0
C1130 C 0.92868 0.09699 0.15739 0.0
C1131 C 0.8993 0.06953 0.1609 0.0
C1132 C 0.97138 0.13445 0.13527 0.0
C1133 C 0.9791 0.16425 0.14299 0.0
C1134 C 0.99515 0.13124 0.12534 0.0
C1135 C 0.98879 0.10019 0.11741 0.0
C1136 C 0.97872 0.07338 0.12932 0.0
C1137 C 0.97252 0.04407 0.12169 0.0
C1138 C 0.97662 0.04139 0.10219 0.0
C1139 C 0.98702 0.06806 0.09031 0.0
C1140 C 0.99317 0.0974 0.09787 0.0
C1141 C 0.12087 0.24504 0.14255 0.0
C1142 C 0.12989 0.26669 0.12721 0.0
C1143 C 0.0898 0.21889 0.14372 0.0
C1144 C 0.06697 0.21435 0.12986 0.0
C1145 C 0.0759 0.23532 0.11431 0.0
C1146 C 0.10725 0.26098 0.11284 0.0
C1147 C 0.03384 0.18741 0.13159 0.0
C1148 C 0.02606 0.15786 0.12349 0.0
C1149 C 1.01005 0.19071 0.1413 0.0
C1150 C 0.01669 0.22141 0.14982 0.0
C1151 C 1.00073 0.23702 0.14294 0.0
C1152 C 1.00576 0.26531 0.15151 0.0
C1153 C 0.02681 0.27823 0.16692 0.0
C1154 C 0.04281 0.26284 0.17382 0.0
C1155 C 0.03757 0.23435 0.16543 0.0
H1156 H 0.03082 0.30025 0.17347 0.0
H1157 H 0.97182 0.01868 0.09631 0.0
H1158 H 0.82009 0.86322 0.61769 0.0
H1159 H 0.82357 0.91523 0.61179 0.0
H1160 H 0.8502 0.94158 0.67053 0.0
H1161 H 0.84633 0.88991 0.67647 0.0
H1162 H 0.80796 0.95846 0.65926 0.0
H1163 H 0.90586 0.96834 0.63511 0.0
H1164 H 0.93811 0.95348 0.61485 0.0
H1165 H 0.89822 0.97115 0.56466 0.0
H1166 H 0.86529 0.98559 0.58465 0.0
H1167 H 0.87895 0.12682 0.65902 0.0
H1168 H 0.86769 0.07163 0.66149 0.0
H1169 H 0.84866 0.05881 0.60108 0.0
H1170 H 0.86188 0.11473 0.59839 0.0
H1171 H 0.88349 0.03335 0.61101 0.0
H1172 H 0.77664 0.00855 0.63471 0.0
H1173 H 0.7388 0.01608 0.65465 0.0
H1174 H 0.79567 0.02729 0.70427 0.0
H1175 H 0.8326 0.01757 0.68476 0.0
C1176 C 0.82618 0.88 0.62935 0.0
C1177 C 0.83314 0.87267 0.64751 0.0
C1178 C 0.82847 0.90977 0.62595 0.0
C1179 C 0.83759 0.93251 0.64067 0.0
C1180 C 0.84325 0.92455 0.65894 0.0
C1181 C 0.84114 0.89505 0.6623 0.0
C1182 C 0.84177 0.96485 0.63729 0.0
C1183 C 0.82468 0.97485 0.64878 0.0
C1184 C 0.86299 0.98614 0.62335 0.0
C1185 C 0.88286 0.97766 0.61136 0.0
C1186 C 0.90377 0.96878 0.61975 0.0
C1187 C 0.92219 0.96047 0.60832 0.0
C1188 C 0.92016 0.96129 0.58848 0.0
C1189 C 0.89972 0.97047 0.58003 0.0
C1190 C 0.88117 0.97871 0.5914 0.0
C1191 C 0.87242 0.11227 0.64625 0.0
C1192 C 0.8708 0.125 0.62854 0.0
C1193 C 0.86549 0.0805 0.64772 0.0
C1194 C 0.85643 0.06061 0.63156 0.0
C1195 C 0.85521 0.07345 0.61381 0.0
C1196 C 0.86247 0.10535 0.61231 0.0
C1197 C 0.84982 0.02699 0.63312 0.0
C1198 C 0.86655 0.01681 0.62134 0.0
C1199 C 0.82828 1.00538 0.64675 0.0
C1200 C 0.80753 0.01302 0.65831 0.0
C1201 C 0.78114 0.01294 0.64985 0.0
C1202 C 0.75979 0.01737 0.66107 0.0
C1203 C 0.76522 0.02294 0.68063 0.0
C1204 C 0.79164 0.02328 0.68909 0.0
C1205 C 0.81255 0.0179 0.67802 0.0
H1206 H 0.74877 0.02664 0.68925 0.0
H1207 H 0.93448 0.95491 0.57965 0.0
H1208 H 0.97846 0.84947 0.15964 0.0
H1209 H 0.94031 0.86812 0.15299 0.0
H1210 H 0.8704 0.77327 0.13427 0.0
H1211 H 0.90797 0.75433 0.14142 0.0
H1212 H 0.889 0.84173 0.11075 0.0
H1213 H 0.84874 0.77549 0.1699 0.0
H1214 H 0.85901 0.7637 0.20253 0.0
H1215 H 0.89289 0.86136 0.21879 0.0
H1216 H 0.88332 0.87378 0.18613 0.0
H1217 H 0.74946 0.85218 0.10092 0.0
H1218 H 0.78883 0.83558 0.10526 0.0
H1219 H 0.8161 0.88543 0.15925 0.0
H1220 H 0.77143 0.89496 0.15682 0.0
H1221 H 0.82284 0.84161 0.16483 0.0
H1222 H 0.86084 0.91095 0.11032 0.0
H1223 H 0.85779 0.93066 0.07836 0.0
H1224 H 0.83874 0.84135 0.05365 0.0
H1225 H 0.84132 0.821 0.08549 0.0
C1226 C 0.95506 0.83276 0.15393 0.0
C1227 C 0.94599 0.80044 0.15115 0.0
C1228 C 0.93336 0.84339 0.15016 0.0
C1229 C 0.90263 0.82199 0.14319 0.0
C1230 C 0.89404 0.79008 0.13965 0.0
C1231 C 0.91541 0.77929 0.14379 0.0
C1232 C 0.87871 0.83234 0.14057 0.0
C1233 C 0.87431 0.84167 0.12247 0.0
C1234 C 0.86054 0.8333 0.156 0.0
C1235 C 0.86571 0.82561 0.1756 0.0
C1236 C 0.85868 0.79448 0.1804 0.0
C1237 C 0.86431 0.78768 0.1989 0.0
C1238 C 0.87669 0.81179 0.21272 0.0
C1239 C 0.88337 0.84273 0.20808 0.0
C1240 C 0.87785 0.84965 0.18959 0.0
C1241 C 0.76304 0.8586 0.11401 0.0
C1242 C 0.75672 0.87453 0.12862 0.0
C1243 C 0.78663 0.8501 0.11622 0.0
C1244 C 0.80675 0.86004 0.13233 0.0
C1245 C 0.80121 0.87718 0.14662 0.0
C1246 C 0.77601 0.88349 0.14502 0.0
C1247 C 0.8326 0.85164 0.13474 0.0
C1248 C 0.83747 0.84237 0.1529 0.0
C1249 C 0.85211 0.85205 0.11941 0.0
C1250 C 0.85109 0.86443 0.10026 0.0
C1251 C 0.85593 0.89552 0.09806 0.0
C1252 C 0.85426 0.90678 0.07998 0.0
C1253 C 0.84802 0.88725 0.06399 0.0
C1254 C 0.84355 0.85645 0.06604 0.0
C1255 C 0.84517 0.84506 0.08409 0.0
H1256 H 0.8467 0.89601 0.05001 0.0
H1257 H 0.88104 0.80648 0.22703 0.0
H1258 H 0.88928 0.7627 0.66058 0.0
H1259 H 0.94478 0.80682 0.66307 0.0
H1260 H 0.95514 0.80541 0.60209 0.0
H1261 H 0.8998 0.76135 0.59952 0.0
H1262 H 0.99965 0.80406 0.65056 0.0
H1263 H 1.00315 0.88602 0.5891 0.0
H1264 H 0.96641 0.90074 0.57355 0.0
H1265 H 0.91162 0.87964 0.62514 0.0
H1266 H 0.94832 0.86533 0.64107 0.0
H1267 H 0.15466 0.90074 0.61462 0.0
H1268 H 0.09656 0.86752 0.61554 0.0
H1269 H 0.09049 0.93891 0.64927 0.0
H1270 H 0.14903 0.97194 0.64927 0.0
H1271 H 0.04256 0.90962 0.61857 0.0
H1272 H 0.08387 0.88156 0.67273 0.0
H1273 H 0.11949 0.86667 0.68947 0.0
H1274 H 0.08264 0.78106 0.6558 0.0
H1275 H 0.0472 0.79577 0.63861 0.0
C1276 C 0.9032 0.77233 0.64769 0.0
C1277 C 0.89022 0.75896 0.62984 0.0
C1278 C 0.93492 0.79724 0.64915 0.0
C1279 C 0.95388 0.80946 0.63275 0.0
C1280 C 0.94073 0.79655 0.61488 0.0
C1281 C 0.90919 0.77142 0.61344 0.0
C1282 C 0.98794 0.83465 0.63429 0.0
C1283 C 1.00901 0.82721 0.64368 0.0
C1284 C 0.99998 0.86494 0.62551 0.0
C1285 C 0.97833 0.87434 0.6162 0.0
C1286 C 0.98338 0.88472 0.59715 0.0
C1287 C 0.96254 0.89295 0.58827 0.0
C1288 C 0.93662 0.89097 0.59833 0.0
C1289 C 0.93161 0.88101 0.61734 0.0
C1290 C 0.95241 0.87281 0.62629 0.0
C1291 C 0.14116 0.90944 0.6224 0.0
C1292 C 0.1568 0.93883 0.63222 0.0
C1293 C 0.10787 0.89049 0.62273 0.0
C1294 C 0.08931 0.90063 0.63262 0.0
C1295 C 0.10447 0.93069 0.64155 0.0
C1296 C 0.13796 0.94958 0.64147 0.0
C1297 C 0.05433 0.8787 0.63449 0.0
C1298 C 0.03314 0.88663 0.62564 0.0
C1299 C 0.04202 0.84892 0.64397 0.0
C1300 C 0.06317 0.83993 0.65427 0.0
C1301 C 0.0836 0.85972 0.66878 0.0
C1302 C 0.10372 0.85129 0.67836 0.0
C1303 C 0.10339 0.82298 0.67367 0.0
C1304 C 0.0829 0.80301 0.6594 0.0
C1305 C 0.0628 0.81138 0.64973 0.0
H1306 H 0.11897 0.81647 0.68112 0.0
H1307 H 0.9204 0.89717 0.59139 0.0
H1308 H 0.11771 0.8302 0.36898 0.0
H1309 H 0.06147 0.81433 0.36596 0.0
H1310 H 0.07438 0.88542 0.40796 0.0
H1311 H 0.12952 0.89707 0.41317 0.0
H1312 H 0.0204 0.84362 0.41277 0.0
H1313 H 0.06919 0.89198 0.35363 0.0
H1314 H 0.10268 0.90093 0.32515 0.0
H1315 H 0.03912 0.80431 0.30688 0.0
H1316 H 1.00574 0.79473 0.33547 0.0
H1317 H 0.87725 0.84052 0.37599 0.0
H1318 H 0.93309 0.85749 0.38358 0.0
H1319 H 0.91861 0.76627 0.36451 0.0
H1320 H 0.86259 0.74834 0.35788 0.0
H1321 H 0.97298 0.82236 0.34796 0.0
H1322 H 0.92349 0.77924 0.40969 0.0
H1323 H 0.89222 0.77742 0.43792 0.0
H1324 H 0.95964 0.87622 0.44968 0.0
H1325 H 0.99103 0.87874 0.42133 0.0
C1326 C 0.10826 0.84196 0.37775 0.0
C1327 C 0.12759 0.86446 0.39142 0.0
C1328 C 0.07618 0.83345 0.37574 0.0
C1329 C 0.06345 0.84951 0.3861 0.0
C1330 C 0.0832 0.87251 0.39969 0.0
C1331 C 0.11481 0.87943 0.40258 0.0
C1332 C 0.0297 0.84217 0.38278 0.0
C1333 C 1.01047 0.83964 0.3985 0.0
C1334 C 0.01599 0.83674 0.36425 0.0
C1335 C 0.03527 0.84263 0.34673 0.0
C1336 C 0.06256 0.87268 0.34356 0.0
C1337 C 0.08149 0.87783 0.32742 0.0
C1338 C 0.07308 0.85317 0.31423 0.0
C1339 C 0.04563 0.82337 0.31712 0.0
C1340 C 0.02669 0.81809 0.33327 0.0
C1341 C 0.88563 0.82374 0.37375 0.0
C1342 C 0.86517 0.79305 0.36607 0.0
C1343 C 0.91769 0.83363 0.37799 0.0
C1344 C 0.92998 0.81318 0.3745 0.0
C1345 C 0.90965 0.78252 0.36715 0.0
C1346 C 0.87759 0.77243 0.36321 0.0
C1347 C 0.96427 0.82379 0.37786 0.0
C1348 C 0.9834 0.82683 0.36212 0.0
C1349 C 0.97814 0.83096 0.39623 0.0
C1350 C 0.95939 0.82925 0.41332 0.0
C1351 C 0.93148 0.80064 0.41821 0.0
C1352 C 0.91377 0.79947 0.43425 0.0
C1353 C 0.92389 0.82671 0.44557 0.0
C1354 C 0.9518 0.85515 0.44089 0.0
C1355 C 0.96956 0.85646 0.42486 0.0
H1356 H 0.91015 0.82575 0.45798 0.0
H1357 H 0.08779 0.85716 0.30175 0.0
H1358 H 0.05953 0.88877 0.85103 0.0
H1359 H 0.10846 0.94041 0.85545 0.0
H1360 H 0.10709 0.92113 0.91559 0.0
H1361 H 0.05795 0.86899 0.91113 0.0
H1362 H 0.11442 0.98156 0.90745 0.0
H1363 H 0.16277 0.92031 0.88973 0.0
H1364 H 0.17105 0.88252 0.87032 0.0
H1365 H 0.19535 0.94516 0.82198 0.0
H1366 H 0.18664 0.98308 0.84103 0.0
H1367 H 0.26485 0.12263 0.92277 0.0
H1368 H 0.22167 0.06678 0.9218 0.0
H1369 H 0.21874 0.07168 0.86047 0.0
H1370 H 0.26274 0.1273 0.86135 0.0
H1371 H 0.21533 0.01678 0.87167 0.0
H1372 H 0.16279 0.07561 0.88819 0.0
H1373 H 0.15371 0.11346 0.90705 0.0
H1374 H 0.13663 0.05555 0.95701 0.0
H1375 H 0.1461 0.0176 0.93848 0.0
C1376 C 0.06999 0.89536 0.86514 0.0
C1377 C 0.05513 0.87498 0.88074 0.0
C1378 C 0.09792 0.92481 0.86765 0.0
C1379 C 0.11146 0.93458 0.88584 0.0
C1380 C 0.09702 0.91399 0.90144 0.0
C1381 C 0.06919 0.8842 0.89887 0.0
C1382 C 0.13979 0.96699 0.88848 0.0
C1383 C 0.13672 0.9891 0.89994 0.0
C1384 C 0.16856 0.97707 0.87828 0.0
C1385 C 0.17378 0.95437 0.86676 0.0
C1386 C 0.16959 0.92588 0.87491 0.0
C1387 C 0.1744 0.90446 0.86398 0.0
C1388 C 0.18366 0.91139 0.84492 0.0
C1389 C 0.18815 0.9398 0.83675 0.0
C1390 C 0.18329 0.96127 0.8476 0.0
C1391 C 0.25505 0.11173 0.90908 0.0
C1392 C 0.26714 0.12926 0.89214 0.0
C1393 C 0.23025 0.07989 0.90855 0.0
C1394 C 0.21673 0.06511 0.89108 0.0
C1395 C 0.22879 0.0826 0.87412 0.0
C1396 C 0.25369 0.11445 0.87465 0.0
C1397 C 0.18983 0.03149 0.89045 0.0
C1398 C 0.19315 0.00918 0.87933 0.0
C1399 C 0.16121 0.02128 0.90088 0.0
C1400 C 0.15546 0.04398 0.91202 0.0
C1401 C 0.15735 0.0711 0.90324 0.0
C1402 C 0.1521 0.09254 0.91385 0.0
C1403 C 0.14467 0.08695 0.93323 0.0
C1404 C 0.14243 0.05988 0.94201 0.0
C1405 C 0.14772 0.03839 0.93146 0.0
H1406 H 0.14057 0.10357 0.94142 0.0
H1407 H 0.18741 0.89479 0.83648 0.0
H1408 H 0.17398 0.27273 0.42303 0.0
H1409 H 0.18083 0.22589 0.42219 0.0
H1410 H 0.14924 0.20912 0.36357 0.0
H1411 H 0.1411 0.25503 0.36464 0.0
H1412 H 0.12017 0.15659 0.38057 0.0
H1413 H 0.23842 0.23354 0.37876 0.0
H1414 H 0.29136 0.27578 0.39019 0.0
H1415 H 0.26922 0.23561 0.44653 0.0
H1416 H 0.21683 0.19231 0.43517 0.0
H1417 H 0.16077 0.04246 0.3523 0.0
H1418 H 0.15937 0.09192 0.35673 0.0
H1419 H 0.18756 0.09561 0.41552 0.0
H1420 H 0.19022 0.04652 0.41082 0.0
H1421 H 0.21614 0.15268 0.40197 0.0
H1422 H 0.10732 0.06901 0.4012 0.0
H1423 H 0.05935 0.02118 0.38887 0.0
H1424 H 0.06203 0.07281 0.33834 0.0
H1425 H 0.11036 0.12079 0.35023 0.0
C1426 C 0.16873 0.25916 0.40992 0.0
C1427 C 0.15675 0.26747 0.39395 0.0
C1428 C 0.17301 0.2325 0.40938 0.0
C1429 C 0.16597 0.21394 0.39273 0.0
C1430 C 0.15475 0.22282 0.37664 0.0
C1431 C 0.15003 0.24911 0.37727 0.0
C1432 C 0.16775 0.18392 0.39228 0.0
C1433 C 0.14144 0.156 0.385 0.0
C1434 C 0.19456 0.18219 0.39893 0.0
C1435 C 0.22375 0.2102 0.40623 0.0
C1436 C 0.24475 0.23409 0.39363 0.0
C1437 C 0.27475 0.25793 0.40004 0.0
C1438 C 0.28359 0.25842 0.41908 0.0
C1439 C 0.26238 0.23517 0.43179 0.0
C1440 C 0.23266 0.21088 0.42536 0.0
C1441 C 0.16684 0.05396 0.36614 0.0
C1442 C 0.17526 0.04054 0.38129 0.0
C1443 C 0.16578 0.08209 0.36872 0.0
C1444 C 0.17234 0.09703 0.38663 0.0
C1445 C 0.18205 0.08436 0.40161 0.0
C1446 C 0.18365 0.0564 0.39893 0.0
C1447 C 0.16917 0.1259 0.38959 0.0
C1448 C 0.19491 0.15334 0.39754 0.0
C1449 C 0.14169 0.12708 0.38368 0.0
C1450 C 0.11255 0.09837 0.37655 0.0
C1451 C 0.09778 0.07008 0.38741 0.0
C1452 C 0.07053 0.04295 0.3805 0.0
C1453 C 0.05768 0.04394 0.36282 0.0
C1454 C 0.07203 0.07207 0.35202 0.0
C1455 C 0.09933 0.09924 0.35884 0.0
H1456 H 0.03656 0.02291 0.3575 0.0
H1457 H 0.30685 0.27691 0.42399 0.0
H1458 H 0.15662 0.25395 0.91093 0.0
H1459 H 0.09829 0.22841 0.91063 0.0
H1460 H 0.09389 0.17012 0.86286 0.0
H1461 H 0.15256 0.19604 0.8629 0.0
H1462 H 0.05686 0.1988 0.85776 0.0
H1463 H 0.07136 0.13636 0.90563 0.0
H1464 H 0.09503 0.12828 0.93479 0.0
H1465 H 0.05702 0.1766 0.96778 0.0
H1466 H 0.03357 0.18543 0.93875 0.0
H1467 H 0.88762 0.12413 0.86045 0.0
H1468 H 0.94181 0.13267 0.85901 0.0
H1469 H 0.9593 0.17089 0.91626 0.0
H1470 H 0.90354 0.1561 0.91893 0.0
H1471 H 0.98994 0.14517 0.91443 0.0
H1472 H 0.9859 0.21808 0.86716 0.0
H1473 H 0.96567 0.23144 0.83816 0.0
H1474 H 0.98589 0.16885 0.80507 0.0
H1475 H 1.00639 0.15541 0.8338 0.0
C1476 C 0.14326 0.2357 0.90035 0.0
C1477 C 0.15921 0.22716 0.88686 0.0
C1478 C 0.10991 0.22094 0.90029 0.0
C1479 C 0.09174 0.19722 0.8868 0.0
C1480 C 0.10749 0.18833 0.87342 0.0
C1481 C 0.14095 0.20299 0.87354 0.0
C1482 C 0.05638 0.18264 0.88638 0.0
C1483 C 0.04206 0.18666 0.87005 0.0
C1484 C 0.03723 0.16738 0.90251 0.0
C1485 C 0.05088 0.1617 0.92001 0.0
C1486 C 0.06822 0.14542 0.91909 0.0
C1487 C 0.08158 0.1407 0.93559 0.0
C1488 C 0.07756 0.15196 0.95313 0.0
C1489 C 0.06012 0.1679 0.95419 0.0
C1490 C 0.04676 0.17274 0.93772 0.0
C1491 C 0.90271 0.13325 0.87294 0.0
C1492 C 0.89116 0.13956 0.88979 0.0
C1493 C 0.93422 0.13918 0.87192 0.0
C1494 C 0.95561 0.15372 0.88724 0.0
C1495 C 0.94378 0.15976 0.9041 0.0
C1496 C 0.91185 0.15192 0.90551 0.0
C1497 C 0.99014 0.16271 0.88606 0.0
C1498 C 1.00445 0.15734 0.90207 0.0
C1499 C 1.00945 0.17743 0.86976 0.0
C1500 C 0.9972 0.18551 0.85258 0.0
C1501 C 0.98578 0.20711 0.85369 0.0
C1502 C 0.97431 0.21468 0.83734 0.0
C1503 C 0.97421 0.20078 0.81985 0.0
C1504 C 0.98585 0.1795 0.81863 0.0
C1505 C 0.99749 0.17199 0.83491 0.0
H1506 H 0.96525 0.20663 0.80723 0.0
H1507 H 0.08794 0.14829 0.96589 0.0
H1508 H 0.98216 0.14613 0.37906 0.0
H1509 H 0.94913 0.0884 0.384 0.0
H1510 H 0.87002 0.10068 0.40106 0.0
H1511 H 0.90351 0.15829 0.39781 0.0
H1512 H 0.86918 0.05803 0.42204 0.0
H1513 H 0.88057 0.07579 0.35371 0.0
H1514 H 0.91103 0.09494 0.3237 0.0
H1515 H 0.95191 0.03482 0.3332 0.0
H1516 H 0.92194 0.01562 0.36336 0.0
H1517 H 0.73615 0.9147 0.38018 0.0
H1518 H 0.78167 0.96888 0.38186 0.0
H1519 H 0.83709 0.93327 0.40999 0.0
H1520 H 0.79021 0.87888 0.40991 0.0
H1521 H 0.85562 0.98435 0.369 0.0
H1522 H 0.83906 0.96483 0.43785 0.0
H1523 H 0.80597 0.94705 0.46689 0.0
H1524 H 0.77293 0.01319 0.45538 0.0
H1525 H 0.8045 0.03006 0.42571 0.0
C1526 C 0.95795 0.13667 0.38424 0.0
C1527 C 0.94548 0.15711 0.38774 0.0
C1528 C 0.93888 0.10348 0.38679 0.0
C1529 C 0.90672 0.0899 0.39247 0.0
C1530 C 0.89463 0.11035 0.39654 0.0
C1531 C 0.91379 0.14345 0.39439 0.0
C1532 C 0.88516 0.05451 0.39394 0.0
C1533 C 0.8664 0.04203 0.41041 0.0
C1534 C 0.88161 0.03321 0.37898 0.0
C1535 C 0.89934 0.04457 0.36083 0.0
C1536 C 0.8962 0.06682 0.34942 0.0
C1537 C 0.91335 0.07766 0.33239 0.0
C1538 C 0.93346 0.06617 0.32657 0.0
C1539 C 0.93638 0.04374 0.33773 0.0
C1540 C 0.91931 0.03287 0.35478 0.0
C1541 C 0.75751 0.91839 0.38736 0.0
C1542 C 0.75896 0.8926 0.39565 0.0
C1543 C 0.78374 0.94937 0.38802 0.0
C1544 C 0.81246 0.95514 0.39644 0.0
C1545 C 0.81481 0.92933 0.40384 0.0
C1546 C 0.78811 0.89829 0.40366 0.0
C1547 C 0.83982 0.98833 0.39697 0.0
C1548 C 0.85921 1.00039 0.38077 0.0
C1549 C 0.8437 0.00934 0.41204 0.0
C1550 C 0.82359 0.99816 0.42937 0.0
C1551 C 0.82405 0.97491 0.44123 0.0
C1552 C 0.80565 0.96508 0.45785 0.0
C1553 C 0.78725 0.97888 0.46295 0.0
C1554 C 0.78711 1.00243 0.45139 0.0
C1555 C 0.80502 0.01193 0.43459 0.0
H1556 H 0.77313 0.97136 0.47587 0.0
H1557 H 0.94673 0.0746 0.31339 0.0
H1558 H 0.85851 0.73816 0.86554 0.0
H1559 H 0.8416 0.77787 0.86414 0.0
H1560 H 0.88656 0.81501 0.91882 0.0
H1561 H 0.89839 0.77147 0.92137 0.0
H1562 H 0.84088 0.82008 0.91994 0.0
H1563 H 0.91618 0.85358 0.86554 0.0
H1564 H 0.93596 0.84599 0.83453 0.0
H1565 H 0.84385 0.81462 0.80936 0.0
H1566 H 0.82377 0.82267 0.83998 0.0
H1567 H 0.87086 0.97995 0.90743 0.0
H1568 H 0.87268 0.93029 0.91056 0.0
H1569 H 0.79494 0.88402 0.87035 0.0
H1570 H 0.79288 0.93378 0.86735 0.0
H1571 H 0.84979 0.88049 0.8609 0.0
H1572 H 0.78129 0.86001 0.91476 0.0
H1573 H 0.765 0.87289 0.94525 0.0
H1574 H 0.85023 0.88431 0.97199 0.0
H1575 H 0.8673 0.87202 0.94157 0.0
C1576 C 0.86486 0.75503 0.87713 0.0
C1577 C 0.87983 0.75207 0.89349 0.0
C1578 C 0.85568 0.77825 0.87623 0.0
C1579 C 0.86369 0.80075 0.89102 0.0
C1580 C 0.87975 0.79816 0.90715 0.0
C1581 C 0.88697 0.77356 0.90856 0.0
C1582 C 0.85451 0.82618 0.89022 0.0
C1583 C 0.84365 0.83361 0.90703 0.0
C1584 C 0.8563 0.84326 0.87331 0.0
C1585 C 0.86844 0.83834 0.85503 0.0
C1586 C 0.90018 0.84493 0.85338 0.0
C1587 C 0.91143 0.84059 0.8359 0.0
C1588 C 0.89108 0.82947 0.8201 0.0
C1589 C 0.85955 0.82308 0.82163 0.0
C1590 C 0.84828 0.82771 0.83899 0.0
C1591 C 0.85362 0.95888 0.89967 0.0
C1592 C 0.83162 0.96048 0.88724 0.0
C1593 C 0.85467 0.93058 0.90145 0.0
C1594 C 0.8339 0.90349 0.89071 0.0
C1595 C 0.81107 0.90467 0.8788 0.0
C1596 C 0.80973 0.93292 0.87722 0.0
C1597 C 0.8381 0.87507 0.89071 0.0
C1598 C 0.84756 0.86698 0.87375 0.0
C1599 C 0.83593 0.85806 0.90755 0.0
C1600 C 0.82565 0.86532 0.92586 0.0
C1601 C 0.79668 0.86553 0.9271 0.0
C1602 C 0.78729 0.87269 0.94438 0.0
C1603 C 0.80659 0.87947 0.96054 0.0
C1604 C 0.83531 0.87907 0.95946 0.0
C1605 C 0.84484 0.87198 0.94221 0.0
H1606 H 0.79926 0.88499 0.97391 0.0
H1607 H 0.89982 0.826 0.80662 0.0
H1608 H 0.187 0.7504 0.11915 0.0
H1609 H 0.19405 0.70388 0.11929 0.0
H1610 H 0.09903 0.64659 0.14242 0.0
H1611 H 0.09226 0.69386 0.14237 0.0
H1612 H 0.14136 0.6309 0.15835 0.0
H1613 H 0.11293 0.64423 0.09493 0.0
H1614 H 0.1178 0.67479 0.06571 0.0
H1615 H 0.21352 0.69255 0.05736 0.0
H1616 H 0.20949 0.66274 0.0868 0.0
H1617 H 0.12086 0.47977 0.12947 0.0
H1618 H 0.11819 0.52809 0.13635 0.0
H1619 H 0.21148 0.58599 0.1111 0.0
H1620 H 0.2138 0.53732 0.1039 0.0
H1621 H 0.17003 0.60147 0.0967 0.0
H1622 H 0.19883 0.58787 0.15948 0.0
H1623 H 0.19542 0.55912 0.18924 0.0
H1624 H 0.10045 0.54261 0.19901 0.0
H1625 H 0.1031 0.57082 0.16912 0.0
C1626 C 0.16754 0.72791 0.1241 0.0
C1627 C 0.13876 0.72573 0.13011 0.0
C1628 C 0.17161 0.70126 0.12428 0.0
C1629 C 0.14676 0.67138 0.13036 0.0
C1630 C 0.11846 0.66931 0.13744 0.0
C1631 C 0.11454 0.69633 0.13738 0.0
C1632 C 0.15028 0.64245 0.12856 0.0
C1633 C 0.14713 0.62415 0.14482 0.0
C1634 C 0.15872 0.63407 0.11102 0.0
C1635 C 0.16097 0.65144 0.09312 0.0
C1636 C 0.13508 0.65481 0.08692 0.0
C1637 C 0.13771 0.67204 0.07033 0.0
C1638 C 0.16599 0.68567 0.05971 0.0
C1639 C 0.19165 0.68201 0.06562 0.0
C1640 C 0.18922 0.66498 0.08225 0.0
C1641 C 0.14122 0.50292 0.12596 0.0
C1642 C 0.16781 0.50486 0.1165 0.0
C1643 C 0.13967 0.53056 0.12985 0.0
C1644 C 0.1647 0.56087 0.12437 0.0
C1645 C 0.19189 0.56295 0.11555 0.0
C1646 C 0.19347 0.5352 0.1117 0.0
C1647 C 0.16127 0.58985 0.12653 0.0
C1648 C 0.16431 0.60815 0.11027 0.0
C1649 C 0.15279 0.5982 0.14407 0.0
C1650 C 0.15105 0.58117 0.16199 0.0
C1651 C 0.17711 0.57785 0.16789 0.0
C1652 C 0.17533 0.56169 0.18479 0.0
C1653 C 0.1477 0.54897 0.19598 0.0
C1654 C 0.12181 0.55243 0.19031 0.0
C1655 C 0.12344 0.56851 0.1734 0.0
H1656 H 0.14638 0.5365 0.20908 0.0
H1657 H 0.16799 0.69902 0.04688 0.0
H1658 H 0.68548 0.22967 0.59754 0.0
H1659 H 0.6322 0.21672 0.60796 0.0
H1660 H 0.61456 0.12473 0.62817 0.0
H1661 H 0.66819 0.13754 0.61711 0.0
H1662 H 0.56478 0.11755 0.60775 0.0
H1663 H 0.62389 0.18514 0.65947 0.0
H1664 H 0.66708 0.23316 0.6751 0.0
H1665 H 0.63505 0.29174 0.64758 0.0
H1666 H 0.59199 0.24413 0.63152 0.0
H1667 H 0.41161 0.09072 0.63877 0.0
H1668 H 0.4652 0.09711 0.64002 0.0
H1669 H 0.50492 0.19295 0.61767 0.0
H1670 H 0.45173 0.18683 0.61737 0.0
H1671 H 0.54262 0.19243 0.64419 0.0
H1672 H 0.48901 0.12607 0.58911 0.0
H1673 H 0.44411 0.07821 0.57433 0.0
H1674 H 0.46509 0.01749 0.60897 0.0
H1675 H 0.50981 0.06505 0.62416 0.0
C1676 C 0.67055 0.20698 0.60462 0.0
C1677 C 0.68109 0.18471 0.60664 0.0
C1678 C 0.64002 0.19956 0.61061 0.0
C1679 C 0.61923 0.16981 0.61905 0.0
C1680 C 0.63012 0.14788 0.62175 0.0
C1681 C 0.66088 0.15534 0.61568 0.0
C1682 C 0.58574 0.1614 0.62394 0.0
C1683 C 0.55999 0.13361 0.61608 0.0
C1684 C 0.57913 0.18243 0.63455 0.0
C1685 C 0.60485 0.2111 0.64424 0.0
C1686 C 0.6262 0.2083 0.65666 0.0
C1687 C 0.65064 0.23544 0.6656 0.0
C1688 C 0.65383 0.26549 0.66232 0.0
C1689 C 0.63255 0.26845 0.65011 0.0
C1690 C 0.6081 0.24139 0.6411 0.0
C1691 C 0.43164 0.11304 0.63414 0.0
C1692 C 0.42706 0.13778 0.62714 0.0
C1693 C 0.46241 0.11672 0.63481 0.0
C1694 C 0.48922 0.14529 0.62849 0.0
C1695 C 0.48476 0.1705 0.62241 0.0
C1696 C 0.45418 0.1668 0.62187 0.0
C1697 C 0.52189 0.14912 0.62761 0.0
C1698 C 0.54746 0.17611 0.63616 0.0
C1699 C 0.52828 0.12743 0.61762 0.0
C1700 C 0.50252 0.09901 0.60784 0.0
C1701 C 0.484 0.10249 0.59356 0.0
C1702 C 0.45857 0.07544 0.58515 0.0
C1703 C 0.45171 0.04482 0.59074 0.0
C1704 C 0.4704 0.04121 0.60467 0.0
C1705 C 0.4958 0.06819 0.61318 0.0
H1706 H 0.43192 0.0239 0.58426 0.0
H1707 H 0.67278 0.28649 0.66926 0.0
H1708 H 0.53035 0.66983 0.14498 0.0
H1709 H 0.4813 0.61894 0.15198 0.0
H1710 H 0.44473 0.62057 0.09607 0.0
H1711 H 0.49342 0.67149 0.08928 0.0
H1712 H 0.39722 0.59698 0.12174 0.0
H1713 H 0.48457 0.5795 0.10514 0.0
H1714 H 0.53859 0.58664 0.10902 0.0
H1715 H 0.51466 0.54801 0.16568 0.0
H1716 H 0.46065 0.54114 0.16222 0.0
H1717 H 0.29071 0.43736 0.0994 0.0
H1718 H 0.33649 0.49121 0.1008 0.0
H1719 H 0.36101 0.47165 0.15641 0.0
H1720 H 0.31522 0.4168 0.15492 0.0
H1721 H 0.41359 0.50522 0.13561 0.0
H1722 H 0.32366 0.51656 0.15071 0.0
H1723 H 0.26947 0.50878 0.14648 0.0
H1724 H 0.29761 0.5587 0.093 0.0
H1725 H 0.3518 0.56621 0.09672 0.0
C1726 C 0.51125 0.65978 0.13452 0.0
C1727 C 0.51526 0.67465 0.11674 0.0
C1728 C 0.48346 0.63056 0.1384 0.0
C1729 C 0.45948 0.61562 0.12444 0.0
C1730 C 0.46279 0.63156 0.10708 0.0
C1731 C 0.49051 0.6607 0.10323 0.0
C1732 C 0.43205 0.58252 0.12719 0.0
C1733 C 0.40082 0.57692 0.1247 0.0
C1734 C 0.43654 0.55631 0.13151 0.0
C1735 C 0.46881 0.56019 0.13351 0.0
C1736 C 0.49095 0.57276 0.11847 0.0
C1737 C 0.52153 0.57673 0.12059 0.0
C1738 C 0.53009 0.56787 0.13761 0.0
C1739 C 0.50803 0.55493 0.15253 0.0
C1740 C 0.47745 0.551 0.1505 0.0
C1741 C 0.30581 0.44429 0.11196 0.0
C1742 C 0.29913 0.4227 0.12712 0.0
C1743 C 0.33195 0.47531 0.11278 0.0
C1744 C 0.35182 0.48587 0.1289 0.0
C1745 C 0.34585 0.46415 0.14388 0.0
C1746 C 0.31968 0.43282 0.14301 0.0
C1747 C 0.37874 0.51959 0.12987 0.0
C1748 C 0.40988 0.52531 0.13299 0.0
C1749 C 0.37415 0.54592 0.12615 0.0
C1750 C 0.34173 0.5418 0.12396 0.0
C1751 C 0.31823 0.52571 0.13799 0.0
C1752 C 0.28752 0.52134 0.13568 0.0
C1753 C 0.28013 0.53324 0.11948 0.0
C1754 C 0.3034 0.54951 0.10555 0.0
C1755 C 0.33412 0.55385 0.10775 0.0
H1756 H 0.2564 0.52994 0.11776 0.0
H1757 H 0.55378 0.57096 0.13923 0.0
H1758 H 0.83924 0.50934 0.64539 0.0
H1759 H 0.85712 0.47004 0.64935 0.0
H1760 H 0.83389 0.44214 0.59044 0.0
H1761 H 0.81481 0.48012 0.58684 0.0
H1762 H 0.81085 0.39179 0.61004 0.0
H1763 H 0.91491 0.48824 0.61081 0.0
H1764 H 0.95544 0.54124 0.62301 0.0
H1765 H 0.95082 0.5004 0.67816 0.0
H1766 H 0.90992 0.44725 0.66634 0.0
H1767 H 0.87679 0.29476 0.59383 0.0
H1768 H 0.86857 0.34056 0.59409 0.0
H1769 H 0.89196 0.35468 0.65397 0.0
H1770 H 0.90169 0.30919 0.65356 0.0
H1771 H 0.91362 0.41097 0.6377 0.0
H1772 H 0.81168 0.31449 0.6366 0.0
H1773 H 0.76917 0.26181 0.62511 0.0
H1774 H 0.76871 0.30319 0.57098 0.0
H1775 H 0.81155 0.35596 0.582 0.0
C1776 C 0.83845 0.49508 0.63327 0.0
C1777 C 0.82551 0.49769 0.61583 0.0
C1778 C 0.84878 0.47265 0.63549 0.0
C1779 C 0.84712 0.45297 0.62017 0.0
C1780 C 0.83532 0.45667 0.60257 0.0
C1781 C 0.8245 0.47853 0.60047 0.0
C1782 C 0.85559 0.42711 0.62241 0.0
C1783 C 0.83362 0.3963 0.61583 0.0
C1784 C 0.88456 0.43213 0.63075 0.0
C1785 C 0.90921 0.46394 0.63776 0.0
C1786 C 0.92242 0.49065 0.62557 0.0
C1787 C 0.94545 0.52069 0.63241 0.0
C1788 C 0.95564 0.52421 0.65136 0.0
C1789 C 0.94287 0.49766 0.6635 0.0
C1790 C 0.91979 0.46759 0.65674 0.0
C1791 C 0.88055 0.30775 0.60706 0.0
C1792 C 0.88952 0.29801 0.62375 0.0
C1793 C 0.87559 0.33391 0.60722 0.0
C1794 C 0.87851 0.35062 0.62419 0.0
C1795 C 0.88914 0.34204 0.64071 0.0
C1796 C 0.89473 0.31605 0.64048 0.0
C1797 C 0.86938 0.37613 0.62458 0.0
C1798 C 0.89096 0.40662 0.63185 0.0
C1799 C 0.83997 0.37092 0.61686 0.0
C1800 C 0.81486 0.33907 0.61009 0.0
C1801 C 0.8027 0.31226 0.62219 0.0
C1802 C 0.77855 0.28243 0.61577 0.0
C1803 C 0.76629 0.2793 0.59736 0.0
C1804 C 0.77826 0.30577 0.58524 0.0
C1805 C 0.80244 0.33561 0.59156 0.0
H1806 H 0.74735 0.25646 0.59248 0.0
H1807 H 0.97348 0.54749 0.65663 0.0
H1808 H 0.59919 0.89587 0.15591 0.0
H1809 H 0.54423 0.8869 0.15599 0.0
H1810 H 0.53762 0.86977 0.09539 0.0
H1811 H 0.59188 0.87841 0.09523 0.0
H1812 H 0.51226 0.90747 0.10593 0.0
H1813 H 0.50603 0.80831 0.12461 0.0
H1814 H 0.51944 0.77471 0.14473 0.0
H1815 H 0.48073 0.79688 0.19369 0.0
H1816 H 0.4676 0.83109 0.17386 0.0
H1817 H 0.35004 0.81436 0.0813 0.0
H1818 H 0.40654 0.83425 0.08795 0.0
H1819 H 0.39061 0.84317 0.14753 0.0
H1820 H 0.33347 0.8227 0.14095 0.0
H1821 H 0.42805 0.81475 0.14176 0.0
H1822 H 0.42828 0.90905 0.12151 0.0
H1823 H 0.41518 0.94221 0.10079 0.0
H1824 H 0.46541 0.9291 0.05435 0.0
H1825 H 0.47833 0.89538 0.07472 0.0
C1826 C 0.58609 0.89062 0.14261 0.0
C1827 C 0.59973 0.88761 0.1256 0.0
C1828 C 0.55469 0.88535 0.14268 0.0
C1829 C 0.53673 0.87741 0.1257 0.0
C1830 C 0.55096 0.87583 0.10864 0.0
C1831 C 0.58198 0.88065 0.10861 0.0
C1832 C 0.50266 0.86938 0.12553 0.0
C1833 C 0.49385 0.88718 0.11375 0.0
C1834 C 0.47867 0.84328 0.13598 0.0
C1835 C 0.48624 0.82254 0.14784 0.0
C1836 C 0.50065 0.80623 0.1397 0.0
C1837 C 0.50816 0.78705 0.15104 0.0
C1838 C 0.50104 0.78375 0.1705 0.0
C1839 C 0.4863 0.79953 0.17863 0.0
C1840 C 0.47883 0.81882 0.16735 0.0
C1841 C 0.35844 0.82038 0.09586 0.0
C1842 C 0.33714 0.81668 0.11062 0.0
C1843 C 0.39086 0.83201 0.09962 0.0
C1844 C 0.40293 0.84041 0.11822 0.0
C1845 C 0.38183 0.83686 0.13306 0.0
C1846 C 0.34926 0.82538 0.12926 0.0
C1847 C 0.43757 0.85262 0.12193 0.0
C1848 C 0.44649 0.83547 0.13426 0.0
C1849 C 0.46172 0.87928 0.11191 0.0
C1850 C 0.45406 0.89952 0.0996 0.0
C1851 C 0.43631 0.91303 0.10683 0.0
C1852 C 0.42894 0.93195 0.09516 0.0
C1853 C 0.43941 0.93772 0.07626 0.0
C1854 C 0.4573 0.9246 0.06899 0.0
C1855 C 0.46467 0.90559 0.0806 0.0
H1856 H 0.4337 0.9524 0.06724 0.0
H1857 H 0.50687 0.76889 0.17926 0.0
H1858 H 0.71879 0.59433 0.65708 0.0
H1859 H 0.67133 0.54045 0.65711 0.0
H1860 H 0.68046 0.53421 0.59633 0.0
H1861 H 0.72699 0.58804 0.59615 0.0
H1862 H 0.61891 0.51105 0.60614 0.0
H1863 H 0.70718 0.49853 0.62762 0.0
H1864 H 0.75251 0.51032 0.64895 0.0
H1865 H 0.68851 0.4759 0.69682 0.0
H1866 H 0.64296 0.46436 0.67571 0.0
H1867 H 0.54434 0.34856 0.58193 0.0
H1868 H 0.58208 0.40469 0.58896 0.0
H1869 H 0.55289 0.38905 0.6479 0.0
H1870 H 0.51481 0.33225 0.64086 0.0
H1871 H 0.6197 0.42409 0.64361 0.0
H1872 H 0.53012 0.43022 0.62142 0.0
H1873 H 0.48519 0.41975 0.60017 0.0
H1874 H 0.55099 0.46713 0.5542 0.0
H1875 H 0.59629 0.47739 0.57511 0.0
C1876 C 0.71029 0.58163 0.64371 0.0
C1877 C 0.72662 0.59543 0.62662 0.0
C1878 C 0.68336 0.55073 0.64376 0.0
C1879 C 0.67244 0.53308 0.62673 0.0
C1880 C 0.68833 0.54727 0.60964 0.0
C1881 C 0.71508 0.57802 0.60958 0.0
C1882 C 0.64502 0.49955 0.6265 0.0
C1883 C 0.61918 0.49204 0.61428 0.0
C1884 C 0.64476 0.47479 0.63753 0.0
C1885 C 0.67186 0.48093 0.65014 0.0
C1886 C 0.70291 0.49365 0.6427 0.0
C1887 C 0.7286 0.50028 0.65474 0.0
C1888 C 0.7234 0.49396 0.67425 0.0
C1889 C 0.6925 0.48084 0.68172 0.0
C1890 C 0.66675 0.47424 0.66972 0.0
C1891 C 0.54584 0.35704 0.5964 0.0
C1892 C 0.52669 0.33593 0.61085 0.0
C1893 C 0.56735 0.3892 0.60039 0.0
C1894 C 0.57032 0.40121 0.61895 0.0
C1895 C 0.55103 0.38032 0.63347 0.0
C1896 C 0.52913 0.34799 0.62941 0.0
C1897 C 0.59394 0.43552 0.62289 0.0
C1898 C 0.61912 0.44316 0.63573 0.0
C1899 C 0.59361 0.4605 0.61246 0.0
C1900 C 0.56654 0.45435 0.59979 0.0
C1901 C 0.53497 0.43816 0.60673 0.0
C1902 C 0.50945 0.43229 0.59475 0.0
C1903 C 0.51522 0.44271 0.57583 0.0
C1904 C 0.54655 0.45905 0.56885 0.0
C1905 C 0.57216 0.46491 0.58077 0.0
H1906 H 0.49542 0.43818 0.56658 0.0
H1907 H 0.74331 0.49916 0.68358 0.0
H1908 H 0.27146 0.82959 0.37947 0.0
H1909 H 0.31622 0.82025 0.38119 0.0
H1910 H 0.37386 0.91232 0.40786 0.0
H1911 H 0.32833 0.9221 0.4061 0.0
H1912 H 0.40919 0.89871 0.38319 0.0
H1913 H 0.33714 0.84224 0.43458 0.0
H1914 H 0.28543 0.80543 0.44983 0.0
H1915 H 0.27703 0.72766 0.41575 0.0
H1916 H 0.32844 0.76409 0.40009 0.0
H1917 H 0.52233 0.8541 0.41666 0.0
H1918 H 0.48406 0.87299 0.41282 0.0
H1919 H 0.41446 0.78081 0.39011 0.0
H1920 H 0.45232 0.76169 0.39434 0.0
H1921 H 0.38669 0.79737 0.41467 0.0
H1922 H 0.4569 0.85274 0.36238 0.0
H1923 H 0.50856 0.88856 0.3468 0.0
H1924 H 0.52008 0.967 0.38148 0.0
H1925 H 0.46875 0.9315 0.39748 0.0
C1926 C 0.29366 0.84817 0.38562 0.0
C1927 C 0.296 0.87647 0.39294 0.0
C1928 C 0.31931 0.84263 0.38665 0.0
C1929 C 0.34818 0.86503 0.39522 0.0
C1930 C 0.35161 0.89441 0.40143 0.0
C1931 C 0.32566 0.9001 0.40033 0.0
C1932 C 0.37394 0.8568 0.39804 0.0
C1933 C 0.40445 0.87683 0.39037 0.0
C1934 C 0.36766 0.82777 0.40693 0.0
C1935 C 0.33652 0.80594 0.4161 0.0
C1936 C 0.32412 0.81735 0.43023 0.0
C1937 C 0.29491 0.79656 0.43895 0.0
C1938 C 0.27805 0.76427 0.43377 0.0
C1939 C 0.29018 0.75269 0.41976 0.0
C1940 C 0.31935 0.77339 0.41097 0.0
C1941 C 0.49903 0.83802 0.41059 0.0
C1942 C 0.49036 0.80631 0.4059 0.0
C1943 C 0.47712 0.84889 0.40835 0.0
C1944 C 0.44627 0.82849 0.40102 0.0
C1945 C 0.43797 0.79707 0.39589 0.0
C1946 C 0.45966 0.78612 0.39832 0.0
C1947 C 0.42196 0.83903 0.39956 0.0
C1948 C 0.39161 0.81935 0.40753 0.0
C1949 C 0.42838 0.86818 0.39082 0.0
C1950 C 0.4592 0.88942 0.38125 0.0
C1951 C 0.47061 0.87756 0.36679 0.0
C1952 C 0.4998 0.89781 0.35787 0.0
C1953 C 0.51763 0.93001 0.36318 0.0
C1954 C 0.50628 0.94204 0.3774 0.0
C1955 C 0.47715 0.92188 0.3864 0.0
H1956 H 0.54022 0.94567 0.35624 0.0
H1957 H 0.25569 0.74818 0.4407 0.0
H1958 H 0.67529 0.52996 0.90423 0.0
H1959 H 0.62053 0.492 0.89474 0.0
H1960 H 0.63496 0.41353 0.91035 0.0
H1961 H 0.69046 0.45069 0.91695 0.0
H1962 H 0.59975 0.39344 0.88376 0.0
H1963 H 0.59263 0.44974 0.93914 0.0
H1964 H 0.60141 0.49714 0.95746 0.0
H1965 H 0.5516 0.51901 0.91456 0.0
H1966 H 0.54287 0.47193 0.89592 0.0
H1967 H 0.44583 0.27526 0.91292 0.0
H1968 H 0.49994 0.32087 0.9128 0.0
H1969 H 0.4711 0.37037 0.87342 0.0
H1970 H 0.41637 0.32402 0.87306 0.0
H1971 H 0.51085 0.40802 0.90705 0.0
H1972 H 0.5116 0.34264 0.85533 0.0
H1973 H 0.50027 0.29127 0.84112 0.0
H1974 H 0.56111 0.2826 0.88257 0.0
H1975 H 0.57237 0.33368 0.89723 0.0
C1976 C 0.66723 0.50466 0.90523 0.0
C1977 C 0.68785 0.49391 0.91196 0.0
C1978 C 0.63534 0.48276 0.90016 0.0
C1979 C 0.62267 0.44951 0.90241 0.0
C1980 C 0.6435 0.43885 0.90854 0.0
C1981 C 0.67553 0.46052 0.91281 0.0
C1982 C 0.58802 0.42547 0.89856 0.0
C1983 C 0.58056 0.39683 0.88909 0.0
C1984 C 0.56225 0.42951 0.90487 0.0
C1985 C 0.56747 0.45765 0.91607 0.0
C1986 C 0.58374 0.4648 0.93359 0.0
C1987 C 0.58868 0.49158 0.94403 0.0
C1988 C 0.57717 0.51114 0.93715 0.0
C1989 C 0.56058 0.5039 0.91985 0.0
C1990 C 0.55562 0.47719 0.90935 0.0
C1991 C 0.4507 0.2958 0.90423 0.0
C1992 C 0.4264 0.29596 0.89313 0.0
C1993 C 0.48182 0.3219 0.90418 0.0
C1994 C 0.48964 0.34905 0.89312 0.0
C1995 C 0.46554 0.34967 0.88212 0.0
C1996 C 0.43426 0.32316 0.88194 0.0
C1997 C 0.52328 0.37619 0.893 0.0
C1998 C 0.53036 0.40518 0.90165 0.0
C1999 C 0.54875 0.37213 0.88651 0.0
C2000 C 0.54271 0.34189 0.8774 0.0
C2001 C 0.52244 0.3297 0.86146 0.0
C2002 C 0.51603 0.30064 0.85333 0.0
C2003 C 0.52995 0.28367 0.86094 0.0
C2004 C 0.55037 0.29577 0.87668 0.0
C2005 C 0.5568 0.3248 0.88489 0.0
H2006 H 0.52493 0.26115 0.85464 0.0
H2007 H 0.58102 0.53186 0.94524 0.0
H2008 H 0.22635 0.67661 0.4326 0.0
H2009 H 0.21641 0.625 0.42075 0.0
H2010 H 0.13563 0.6147 0.38843 0.0
H2011 H 0.14496 0.66633 0.40097 0.0
H2012 H 0.11835 0.56208 0.40746 0.0
H2013 H 0.20816 0.62646 0.36735 0.0
H2014 H 0.26302 0.66886 0.35942 0.0
H2015 H 0.30152 0.62347 0.39482 0.0
H2016 H 0.24694 0.58114 0.40321 0.0
H2017 H 0.13579 0.42403 0.36363 0.0
H2018 H 0.14311 0.47846 0.3627 0.0
H2019 H 0.14823 0.48279 0.42404 0.0
H2020 H 0.14175 0.42918 0.42505 0.0
H2021 H 0.20057 0.53762 0.38361 0.0
H2022 H 0.09708 0.51358 0.43339 0.0
H2023 H 0.04259 0.46965 0.44083 0.0
H2024 H 0.03202 0.4347 0.38346 0.0
H2025 H 0.08635 0.4783 0.37574 0.0
C2026 C 0.20677 0.66364 0.42269 0.0
C2027 C 0.1863 0.67551 0.41785 0.0
C2028 C 0.20122 0.63411 0.41578 0.0
C2029 C 0.17534 0.61575 0.40354 0.0
C2030 C 0.15577 0.62831 0.39786 0.0
C2031 C 0.16129 0.658 0.40487 0.0
C2032 C 0.16734 0.58248 0.39814 0.0
C2033 C 0.13635 0.55701 0.40197 0.0
C2034 C 0.19059 0.5753 0.391 0.0
C2035 C 0.22344 0.60077 0.386 0.0
C2036 C 0.22833 0.62567 0.37355 0.0
C2037 C 0.2594 0.64968 0.36896 0.0
C2038 C 0.28576 0.6489 0.37663 0.0
C2039 C 0.28111 0.62408 0.38889 0.0
C2040 C 0.25011 0.60006 0.39356 0.0
C2041 C 0.13806 0.43652 0.37688 0.0
C2042 C 0.13828 0.42247 0.3944 0.0
C2043 C 0.1425 0.46762 0.37633 0.0
C2044 C 0.14634 0.48464 0.39331 0.0
C2045 C 0.14534 0.47008 0.41079 0.0
C2046 C 0.14155 0.43943 0.41134 0.0
C2047 C 0.15203 0.51791 0.39314 0.0
C2048 C 0.1826 0.54313 0.38862 0.0
C2049 C 0.12852 0.52495 0.39955 0.0
C2050 C 0.09574 0.49903 0.40405 0.0
C2051 C 0.08304 0.49653 0.42238 0.0
C2052 C 0.05224 0.47163 0.42666 0.0
C2053 C 0.03391 0.44926 0.41266 0.0
C2054 C 0.0463 0.45183 0.39434 0.0
C2055 C 0.07712 0.47656 0.39003 0.0
H2056 H 1.01006 0.43 0.416 0.0
H2057 H 0.30979 0.66751 0.37305 0.0
H2058 H 0.73351 0.15682 0.92219 0.0
H2059 H 0.68824 0.16541 0.92138 0.0
H2060 H 0.65672 0.11275 0.86854 0.0
H2061 H 0.70511 0.10817 0.868 0.0
H2062 H 0.6448 0.15837 0.86651 0.0
H2063 H 0.6229 0.08086 0.9149 0.0
H2064 H 0.63451 0.05855 0.94344 0.0
H2065 H 0.64188 0.13625 0.97718 0.0
H2066 H 0.63093 0.15936 0.94875 0.0
H2067 H 0.48219 0.12313 0.88025 0.0
H2068 H 0.5322 0.12238 0.87577 0.0
H2069 H 0.57692 0.19344 0.91993 0.0
H2070 H 0.52683 0.19446 0.92426 0.0
H2071 H 0.58103 0.13779 0.92562 0.0
H2072 H 0.60072 0.21334 0.87532 0.0
H2073 H 0.5874 0.23244 0.84601 0.0
H2074 H 0.57987 0.15212 0.81509 0.0
H2075 H 0.59259 0.13223 0.84432 0.0
C2076 C 0.71762 0.14793 0.91006 0.0
C2077 C 0.72351 0.13246 0.89497 0.0
C2078 C 0.69107 0.15212 0.90986 0.0
C2079 C 0.66834 0.13907 0.89515 0.0
C2080 C 0.67376 0.12302 0.88012 0.0
C2081 C 0.70124 0.12 0.87994 0.0
C2082 C 0.63911 0.14231 0.89566 0.0
C2083 C 0.63061 0.15334 0.87937 0.0
C2084 C 0.62059 0.13623 0.91247 0.0
C2085 C 0.62625 0.12191 0.92969 0.0
C2086 C 0.62708 0.09322 0.9284 0.0
C2087 C 0.63359 0.08046 0.94455 0.0
C2088 C 0.63895 0.09598 0.96212 0.0
C2089 C 0.63773 0.12425 0.96357 0.0
C2090 C 0.63135 0.13719 0.94745 0.0
C2091 C 0.50305 0.13934 0.88854 0.0
C2092 C 0.50088 0.15915 0.90243 0.0
C2093 C 0.53155 0.13881 0.88603 0.0
C2094 C 0.55832 0.15786 0.8975 0.0
C2095 C 0.55657 0.17861 0.91089 0.0
C2096 C 0.52813 0.17945 0.91323 0.0
C2097 C 0.58708 0.15409 0.89657 0.0
C2098 C 0.59531 0.14277 0.91279 0.0
C2099 C 0.60479 0.15916 0.8796 0.0
C2100 C 0.5973 0.17116 0.86203 0.0
C2101 C 0.59594 0.1996 0.86231 0.0
C2102 C 0.58854 0.21059 0.8457 0.0
C2103 C 0.58272 0.19347 0.8287 0.0
C2104 C 0.58434 0.16534 0.82827 0.0
C2105 C 0.59166 0.15421 0.84484 0.0
H2106 H 0.57701 0.20203 0.81586 0.0
H2107 H 0.64402 0.08608 0.97461 0.0
H2108 H 0.34079 0.55755 0.42995 0.0
H2109 H 0.39803 0.59559 0.42694 0.0
H2110 H 0.39883 0.55492 0.37229 0.0
H2111 H 0.34169 0.51539 0.37598 0.0
H2112 H 0.45162 0.5706 0.38747 0.0
H2113 H 0.39744 0.62897 0.37926 0.0
H2114 H 0.36136 0.65009 0.38608 0.0
H2115 H 0.41467 0.69539 0.43685 0.0
H2116 H 0.45074 0.67407 0.43052 0.0
H2117 H 0.603 0.71597 0.3652 0.0
H2118 H 0.54695 0.67194 0.36454 0.0
H2119 H 0.53868 0.6846 0.42469 0.0
H2120 H 0.59436 0.72744 0.42555 0.0
H2121 H 0.48997 0.68453 0.40276 0.0
H2122 H 0.54347 0.62227 0.4093 0.0
H2123 H 0.58164 0.60582 0.39835 0.0
H2124 H 0.53018 0.5725 0.34558 0.0
H2125 H 0.49198 0.58926 0.35611 0.0
C2126 C 0.3533 0.55658 0.41738 0.0
C2127 C 0.33676 0.53368 0.40314 0.0
C2128 C 0.38603 0.57859 0.41554 0.0
C2129 C 0.40292 0.57909 0.39907 0.0
C2130 C 0.38656 0.55541 0.38509 0.0
C2131 C 0.35387 0.53279 0.38718 0.0
C2132 C 0.43738 0.60443 0.39648 0.0
C2133 C 0.45973 0.59553 0.3906 0.0
C2134 C 0.44858 0.63727 0.40044 0.0
C2135 C 0.42654 0.64958 0.40452 0.0
C2136 C 0.40124 0.64313 0.39199 0.0
C2137 C 0.38081 0.65517 0.39576 0.0
C2138 C 0.3856 0.67394 0.41194 0.0
C2139 C 0.41089 0.68074 0.42437 0.0
C2140 C 0.43133 0.66868 0.4207 0.0
C2141 C 0.58931 0.70897 0.3783 0.0
C2142 C 0.6029 0.72566 0.39535 0.0
C2143 C 0.55728 0.68391 0.37791 0.0
C2144 C 0.53847 0.67521 0.39455 0.0
C2145 C 0.55254 0.69106 0.41164 0.0
C2146 C 0.58443 0.71562 0.41208 0.0
C2147 C 0.50383 0.65039 0.39437 0.0
C2148 C 0.48155 0.65952 0.39966 0.0
C2149 C 0.4927 0.61809 0.38945 0.0
C2150 C 0.51506 0.60721 0.38342 0.0
C2151 C 0.5404 0.61157 0.39532 0.0
C2152 C 0.56203 0.6022 0.3892 0.0
C2153 C 0.55836 0.58816 0.37127 0.0
C2154 C 0.533 0.58339 0.35946 0.0
C2155 C 0.51134 0.59279 0.3655 0.0
H2156 H 0.57515 0.58093 0.36654 0.0
H2157 H 0.36979 0.6833 0.4148 0.0
H2158 H 0.83179 0.56787 0.9042 0.0
H2159 H 0.82277 0.51364 0.90418 0.0
H2160 H 0.92119 0.54936 0.88794 0.0
H2161 H 0.9299 0.60398 0.88725 0.0
H2162 H 0.88545 0.49538 0.87043 0.0
H2163 H 0.89386 0.52769 0.93476 0.0
H2164 H 0.88324 0.5495 0.96382 0.0
H2165 H 0.78543 0.47301 0.96362 0.0
H2166 H 0.79513 0.45141 0.93417 0.0
H2167 H 0.86755 0.34344 0.90691 0.0
H2168 H 0.8863 0.40047 0.90191 0.0
H2169 H 0.78865 0.37964 0.8975 0.0
H2170 H 0.76965 0.32271 0.90125 0.0
H2171 H 0.83105 0.42762 0.92679 0.0
H2172 H 0.82494 0.39896 0.86001 0.0
H2173 H 0.83903 0.37749 0.83213 0.0
H2174 H 0.93832 0.44779 0.8396 0.0
H2175 H 0.92483 0.4693 0.86777 0.0
C2176 C 0.85165 0.56432 0.90072 0.0
C2177 C 0.8819 0.59051 0.89625 0.0
C2178 C 0.84644 0.53318 0.90072 0.0
C2179 C 0.87154 0.52732 0.89668 0.0
C2180 C 0.9015 0.55323 0.89137 0.0
C2181 C 0.90656 0.58455 0.89104 0.0
C2182 C 0.86618 0.49415 0.89832 0.0
C2183 C 0.87406 0.48081 0.88292 0.0
C2184 C 0.85128 0.47487 0.91458 0.0
C2185 C 0.84519 0.48806 0.93216 0.0
C2186 C 0.86999 0.51573 0.94078 0.0
C2187 C 0.86412 0.52808 0.95732 0.0
C2188 C 0.83366 0.51269 0.96554 0.0
C2189 C 0.80901 0.48493 0.95723 0.0
C2190 C 0.81464 0.4727 0.94057 0.0
C2191 C 0.85 0.35076 0.90437 0.0
C2192 C 0.81693 0.32822 0.90482 0.0
C2193 C 0.86083 0.38346 0.90164 0.0
C2194 C 0.83882 0.39422 0.89951 0.0
C2195 C 0.806 0.37181 0.89929 0.0
C2196 C 0.7952 0.33922 0.90162 0.0
C2197 C 0.84951 0.42889 0.89877 0.0
C2198 C 0.84271 0.44244 0.91443 0.0
C2199 C 0.86591 0.44841 0.88297 0.0
C2200 C 0.87395 0.43542 0.86613 0.0
C2201 C 0.84982 0.40957 0.85585 0.0
C2202 C 0.85768 0.39745 0.83996 0.0
C2203 C 0.88957 0.41118 0.83414 0.0
C2204 C 0.91364 0.43711 0.84416 0.0
C2205 C 0.90591 0.44927 0.86008 0.0
H2206 H 0.89561 0.40179 0.82182 0.0
H2207 H 0.82916 0.52226 0.97836 0.0
H2208 H 0.19904 0.40999 0.34228 0.0
H2209 H 0.21132 0.41659 0.30796 0.0
H2210 H 0.16299 0.31374 0.30163 0.0
H2211 H 0.15373 0.30743 0.3356 0.0
H2212 H 0.20888 0.33429 0.2808 0.0
H2213 H 0.13015 0.36658 0.28981 0.0
H2214 H 0.10919 0.39956 0.30353 0.0
H2215 H 0.18759 0.4841 0.27909 0.0
H2216 H 0.20932 0.45172 0.26551 0.0
H2217 H 0.15464 0.32636 0.18089 0.0
H2218 H 0.15056 0.33127 0.21542 0.0
H2219 H 0.25042 0.40357 0.21757 0.0
H2220 H 0.25393 0.40045 0.18262 0.0
H2221 H 0.1825 0.40194 0.24004 0.0
H2222 H 0.25869 0.34426 0.26017 0.0
H2223 H 0.271 0.30284 0.2496 0.0
H2224 H 0.18375 0.25705 0.2172 0.0
H2225 H 0.17013 0.29704 0.22842 0.0
C2226 C 0.19165 0.38894 0.33353 0.0
C2227 C 0.17476 0.35818 0.34163 0.0
C2228 C 0.19822 0.39266 0.31384 0.0
C2229 C 0.18745 0.36565 0.30189 0.0
C2230 C 0.1716 0.33511 0.31027 0.0
C2231 C 0.16592 0.33149 0.32981 0.0
C2232 C 0.19242 0.36833 0.28071 0.0
C2233 C 0.20315 0.34923 0.27198 0.0
C2234 C 0.18481 0.38753 0.26893 0.0
C2235 C 0.17151 0.40683 0.27684 0.0
C2236 C 0.14299 0.39223 0.28747 0.0
C2237 C 0.13098 0.41078 0.29522 0.0
C2238 C 0.14708 0.44387 0.29223 0.0
C2239 C 0.17518 0.45847 0.28143 0.0
C2240 C 0.18736 0.44005 0.27371 0.0
C2241 C 0.17542 0.34414 0.18864 0.0
C2242 C 0.20439 0.36363 0.17904 0.0
C2243 C 0.1732 0.34657 0.2084 0.0
C2244 C 0.20037 0.36718 0.21915 0.0
C2245 C 0.22921 0.38729 0.20957 0.0
C2246 C 0.23111 0.3858 0.18962 0.0
C2247 C 0.19839 0.36747 0.24035 0.0
C2248 C 0.18848 0.38731 0.24899 0.0
C2249 C 0.20548 0.3479 0.25209 0.0
C2250 C 0.21415 0.32466 0.24437 0.0
C2251 C 0.24225 0.32547 0.25068 0.0
C2252 C 0.24927 0.30198 0.24478 0.0
C2253 C 0.22835 0.27752 0.23256 0.0
C2254 C 0.20017 0.27627 0.22643 0.0
C2255 C 0.19285 0.29946 0.2325 0.0
H2256 H 0.2339 0.25946 0.22791 0.0
H2257 H 0.13773 0.45819 0.29824 0.0
H2258 H 0.83647 0.236 0.67767 0.0
H2259 H 0.82404 0.23204 0.71206 0.0
H2260 H 0.85785 0.16518 0.71912 0.0
H2261 H 0.86903 0.16799 0.68509 0.0
H2262 H 0.78831 0.15282 0.73496 0.0
H2263 H 0.91575 0.22739 0.76046 0.0
H2264 H 0.96659 0.27812 0.75612 0.0
H2265 H 0.91598 0.32028 0.72981 0.0
H2266 H 0.86481 0.27004 0.73445 0.0
H2267 H 0.83584 0.12893 0.8293 0.0
H2268 H 0.83719 0.14128 0.79546 0.0
H2269 H 0.80238 0.20587 0.80805 0.0
H2270 H 0.7988 0.19193 0.84207 0.0
H2271 H 0.8673 0.22505 0.78274 0.0
H2272 H 0.75307 0.15841 0.78885 0.0
H2273 H 0.70209 0.11027 0.79728 0.0
H2274 H 0.72589 0.05278 0.76172 0.0
H2275 H 0.77743 0.10049 0.75346 0.0
C2276 C 0.84092 0.22027 0.68657 0.0
C2277 C 0.85408 0.20263 0.67865 0.0
C2278 C 0.83426 0.21835 0.70624 0.0
C2279 C 0.84093 0.19901 0.71827 0.0
C2280 C 0.85314 0.18076 0.71023 0.0
C2281 C 0.85943 0.18238 0.69072 0.0
C2282 C 0.83362 0.19584 0.73905 0.0
C2283 C 0.80541 0.16889 0.7454 0.0
C2284 C 0.85599 0.21642 0.75276 0.0
C2285 C 0.88662 0.24486 0.74745 0.0
C2286 C 0.91559 0.24739 0.75351 0.0
C2287 C 0.94438 0.27614 0.75122 0.0
C2288 C 0.94443 0.30249 0.7429 0.0
C2289 C 0.91584 0.29986 0.73634 0.0
C2290 C 0.88694 0.27119 0.7387 0.0
C2291 C 0.82763 0.14516 0.82492 0.0
C2292 C 0.81619 0.15862 0.83843 0.0
C2293 C 0.82863 0.15231 0.80553 0.0
C2294 C 0.81922 0.17392 0.79918 0.0
C2295 C 0.80917 0.18863 0.81263 0.0
C2296 C 0.80733 0.1808 0.83207 0.0
C2297 C 0.82195 0.18231 0.7786 0.0
C2298 C 0.84976 0.20953 0.7723 0.0
C2299 C 0.79929 0.16189 0.76497 0.0
C2300 C 0.76923 0.13295 0.77072 0.0
C2301 C 0.74771 0.13542 0.78311 0.0
C2302 C 0.71862 0.10824 0.78776 0.0
C2303 C 0.71067 0.07853 0.77993 0.0
C2304 C 0.73202 0.07584 0.76769 0.0
C2305 C 0.76119 0.10292 0.76306 0.0
H2306 H 0.68799 0.05757 0.78338 0.0
H2307 H 0.96669 0.32492 0.74143 0.0
H2308 H 0.71565 0.87197 0.1853 0.0
H2309 H 0.70856 0.85993 0.21925 0.0
H2310 H 0.607 0.82324 0.21357 0.0
H2311 H 0.61414 0.83571 0.17919 0.0
H2312 H 0.63333 0.86369 0.24513 0.0
H2313 H 0.63254 0.77212 0.22002 0.0
H2314 H 0.65133 0.74287 0.20001 0.0
H2315 H 0.7404 0.78575 0.23064 0.0
H2316 H 0.72242 0.81585 0.25056 0.0
H2317 H 0.61776 0.80122 0.34229 0.0
H2318 H 0.60998 0.80536 0.30793 0.0
H2319 H 0.71209 0.85283 0.29937 0.0
H2320 H 0.72011 0.84997 0.33344 0.0
H2321 H 0.67618 0.79936 0.27483 0.0
H2322 H 0.67864 0.89514 0.29716 0.0
H2323 H 0.66017 0.92507 0.31681 0.0
H2324 H 0.56682 0.87294 0.29131 0.0
H2325 H 0.58461 0.8422 0.27179 0.0
C2326 C 0.69171 0.86109 0.19121 0.0
C2327 C 0.66541 0.8547 0.17958 0.0
C2328 C 0.68769 0.85418 0.21064 0.0
C2329 C 0.65722 0.8405 0.219 0.0
C2330 C 0.63073 0.83377 0.20742 0.0
C2331 C 0.63475 0.84056 0.18779 0.0
C2332 C 0.65374 0.83363 0.23985 0.0
C2333 C 0.64199 0.849 0.25159 0.0
C2334 C 0.66545 0.81486 0.24838 0.0
C2335 C 0.67619 0.79638 0.23671 0.0
C2336 C 0.65621 0.77547 0.22241 0.0
C2337 C 0.66672 0.75874 0.21108 0.0
C2338 C 0.69706 0.76247 0.21403 0.0
C2339 C 0.71691 0.7829 0.22836 0.0
C2340 C 0.70657 0.79979 0.23969 0.0
C2341 C 0.63854 0.813 0.33311 0.0
C2342 C 0.66952 0.82474 0.34058 0.0
C2343 C 0.63405 0.81519 0.31348 0.0
C2344 C 0.66046 0.82901 0.30106 0.0
C2345 C 0.69136 0.8417 0.30863 0.0
C2346 C 0.69586 0.84005 0.32816 0.0
C2347 C 0.65639 0.82991 0.28008 0.0
C2348 C 0.66688 0.81348 0.26834 0.0
C2349 C 0.6434 0.84755 0.27159 0.0
C2350 C 0.63279 0.86608 0.28323 0.0
C2351 C 0.65407 0.88982 0.2959 0.0
C2352 C 0.64375 0.90697 0.30699 0.0
C2353 C 0.6123 0.90085 0.30536 0.0
C2354 C 0.59114 0.8776 0.2926 0.0
C2355 C 0.60132 0.86029 0.28153 0.0
H2356 H 0.60436 0.91418 0.31393 0.0
H2357 H 0.70516 0.7495 0.20524 0.0
H2358 H 0.82353 0.62243 0.67817 0.0
H2359 H 0.83241 0.61664 0.7121 0.0
H2360 H 0.84205 0.70902 0.72352 0.0
H2361 H 0.83567 0.71585 0.69001 0.0
H2362 H 0.88251 0.70562 0.7435 0.0
H2363 H 0.77052 0.63181 0.73232 0.0
H2364 H 0.72546 0.5863 0.71596 0.0
H2365 H 0.75903 0.52369 0.7353 0.0
H2366 H 0.8046 0.56901 0.75153 0.0
H2367 H 0.85872 0.70422 0.84106 0.0
H2368 H 0.84802 0.70043 0.80695 0.0
H2369 H 0.84835 0.61113 0.80503 0.0
H2370 H 0.85673 0.61391 0.83981 0.0
H2371 H 0.80576 0.60936 0.78002 0.0
H2372 H 0.91743 0.68676 0.79218 0.0
H2373 H 0.96025 0.73384 0.80903 0.0
H2374 H 0.92295 0.79205 0.78745 0.0
H2375 H 0.87987 0.74519 0.77077 0.0
C2376 C 0.82794 0.6416 0.68792 0.0
C2377 C 0.82835 0.66935 0.6813 0.0
C2378 C 0.83267 0.63815 0.70739 0.0
C2379 C 0.83726 0.6621 0.72062 0.0
C2380 C 0.83855 0.69008 0.7138 0.0
C2381 C 0.8346 0.69383 0.69449 0.0
C2382 C 0.84065 0.65867 0.74159 0.0
C2383 C 0.86546 0.68458 0.7514 0.0
C2384 C 0.81897 0.63115 0.75213 0.0
C2385 C 0.79106 0.60377 0.74297 0.0
C2386 C 0.76831 0.60833 0.73304 0.0
C2387 C 0.74271 0.5826 0.72377 0.0
C2388 C 0.73942 0.55213 0.72455 0.0
C2389 C 0.76164 0.54731 0.73468 0.0
C2390 C 0.78734 0.573 0.74392 0.0
C2391 C 0.85575 0.68341 0.83344 0.0
C2392 C 0.85835 0.65927 0.84305 0.0
C2393 C 0.85003 0.68141 0.81385 0.0
C2394 C 0.84842 0.65602 0.80315 0.0
C2395 C 0.8497 0.6311 0.81287 0.0
C2396 C 0.8544 0.63261 0.83273 0.0
C2397 C 0.84708 0.65664 0.78184 0.0
C2398 C 0.82282 0.63023 0.77201 0.0
C2399 C 0.86882 0.68403 0.77123 0.0
C2400 C 0.89548 0.71251 0.78045 0.0
C2401 C 0.91849 0.70964 0.79116 0.0
C2402 C 0.94271 0.73623 0.80066 0.0
C2403 C 0.94424 0.7659 0.79937 0.0
C2404 C 0.92172 0.76907 0.78846 0.0
C2405 C 0.89745 0.74251 0.77895 0.0
H2406 H 0.96293 0.78644 0.80679 0.0
H2407 H 0.71963 0.53224 0.71733 0.0
H2408 H 0.15808 0.76957 0.1841 0.0
H2409 H 0.16674 0.77324 0.21872 0.0
H2410 H 0.18848 0.87168 0.21731 0.0
H2411 H 0.17735 0.86698 0.18305 0.0
H2412 H 0.20946 0.8017 0.24297 0.0
H2413 H 0.16764 0.89444 0.25666 0.0
H2414 H 0.1302 0.90957 0.24255 0.0
H2415 H 0.07518 0.81565 0.21816 0.0
H2416 H 0.11188 0.79978 0.23246 0.0
H2417 H 0.25134 0.85886 0.33829 0.0
H2418 H 0.24438 0.84995 0.30379 0.0
H2419 H 0.14354 0.81767 0.30976 0.0
H2420 H 0.15148 0.82954 0.34375 0.0
H2421 H 0.15954 0.85078 0.28184 0.0
H2422 H 0.17863 0.76664 0.29839 0.0
H2423 H 0.20639 0.74073 0.31305 0.0
H2424 H 0.28921 0.79805 0.27845 0.0
H2425 H 0.26208 0.82464 0.2638 0.0
C2426 C 0.16501 0.79201 0.19127 0.0
C2427 C 0.16704 0.81799 0.18104 0.0
C2428 C 0.16997 0.79416 0.21106 0.0
C2429 C 0.17765 0.82256 0.22093 0.0
C2430 C 0.18155 0.84912 0.21033 0.0
C2431 C 0.17556 0.84661 0.1907 0.0
C2432 C 0.18049 0.82413 0.24227 0.0
C2433 C 0.19849 0.81242 0.25144 0.0
C2434 C 0.16536 0.837 0.25366 0.0
C2435 C 0.1427 0.84608 0.24545 0.0
C2436 C 0.14743 0.87698 0.24839 0.0
C2437 C 0.12634 0.88567 0.24036 0.0
C2438 C 0.10038 0.86362 0.22942 0.0
C2439 C 0.09532 0.83274 0.2266 0.0
C2440 C 0.11624 0.82388 0.23468 0.0
C2441 C 0.22761 0.84907 0.33218 0.0
C2442 C 0.20171 0.8439 0.34369 0.0
C2443 C 0.22354 0.84394 0.31243 0.0
C2444 C 0.19323 0.83253 0.30389 0.0
C2445 C 0.16723 0.82651 0.31571 0.0
C2446 C 0.17158 0.83272 0.33526 0.0
C2447 C 0.18873 0.82853 0.28267 0.0
C2448 C 0.17046 0.83991 0.27346 0.0
C2449 C 0.20209 0.8137 0.27142 0.0
C2450 C 0.21846 0.7978 0.28014 0.0
C2451 C 0.20284 0.77385 0.29401 0.0
C2452 C 0.21845 0.75904 0.30231 0.0
C2453 C 0.24957 0.76779 0.29672 0.0
C2454 C 0.26512 0.79133 0.28279 0.0
C2455 C 0.24965 0.80627 0.27448 0.0
H2456 H 0.26162 0.75628 0.30315 0.0
H2457 H 0.08416 0.87045 0.22315 0.0
H2458 H 0.4124 0.22906 0.84056 0.0
H2459 H 0.41941 0.22169 0.80648 0.0
H2460 H 0.31685 0.16371 0.80016 0.0
H2461 H 0.31008 0.16929 0.83385 0.0
H2462 H 0.34167 0.13709 0.78167 0.0
H2463 H 0.36514 0.2471 0.78602 0.0
H2464 H 0.39554 0.30277 0.79773 0.0
H2465 H 0.48199 0.31254 0.77404 0.0
H2466 H 0.45222 0.25679 0.76244 0.0
H2467 H 0.30862 0.14177 0.68452 0.0
H2468 H 0.31542 0.15219 0.71861 0.0
H2469 H 0.41751 0.19349 0.7127 0.0
H2470 H 0.41085 0.18381 0.67802 0.0
H2471 H 0.40096 0.22834 0.73738 0.0
H2472 H 0.37732 0.112 0.74638 0.0
H2473 H 0.34651 0.05402 0.73942 0.0
H2474 H 0.25936 0.05769 0.73813 0.0
H2475 H 0.28958 0.11529 0.74611 0.0
C2476 C 0.3915 0.21448 0.83185 0.0
C2477 C 0.36068 0.20029 0.83986 0.0
C2478 C 0.39545 0.21056 0.81233 0.0
C2479 C 0.36861 0.1926 0.8005 0.0
C2480 C 0.33803 0.17779 0.80877 0.0
C2481 C 0.33417 0.18128 0.82813 0.0
C2482 C 0.37148 0.18834 0.77958 0.0
C2483 C 0.35455 0.15726 0.77208 0.0
C2484 C 0.3889 0.21423 0.76684 0.0
C2485 C 0.40657 0.24776 0.77356 0.0
C2486 C 0.39067 0.26109 0.78342 0.0
C2487 C 0.40776 0.29262 0.79003 0.0
C2488 C 0.44065 0.31112 0.78669 0.0
C2489 C 0.45652 0.29817 0.77666 0.0
C2490 C 0.43957 0.26662 0.77006 0.0
C2491 C 0.33261 0.15302 0.69041 0.0
C2492 C 0.3592 0.16153 0.67854 0.0
C2493 C 0.33641 0.15861 0.71002 0.0
C2494 C 0.36684 0.17246 0.71848 0.0
C2495 C 0.39369 0.18225 0.7066 0.0
C2496 C 0.38991 0.17686 0.68678 0.0
C2497 C 0.37015 0.17725 0.7396 0.0
C2498 C 0.38836 0.20833 0.74708 0.0
C2499 C 0.35357 0.1515 0.75246 0.0
C2500 C 0.33572 0.1179 0.74616 0.0
C2501 C 0.35162 0.1004 0.7444 0.0
C2502 C 0.33421 0.06754 0.74063 0.0
C2503 C 0.30104 0.05225 0.7381 0.0
C2504 C 0.28509 0.06962 0.73985 0.0
C2505 C 0.30229 0.10227 0.74418 0.0
H2506 H 0.28767 0.02691 0.73491 0.0
H2507 H 0.45383 0.33553 0.79183 0.0
H2508 H 0.27329 0.21028 0.93859 0.0
H2509 H 0.25701 0.22852 0.96634 0.0
H2510 H 0.35542 0.28274 0.9848 0.0
H2511 H 0.37213 0.26486 0.95634 0.0
H2512 H 0.25702 0.2211 1.00177 0.0
H2513 H 0.36781 0.34813 1.00811 0.0
H2514 H 0.40675 0.39112 0.98709 0.0
H2515 H 0.33835 0.3559 0.94131 0.0
H2516 H 0.29947 0.31242 0.96192 0.0
H2517 H 0.23418 0.27574 0.0885 0.0
H2518 H 0.25503 0.26134 0.06161 0.0
H2519 H 0.26284 0.34176 0.03 0.0
H2520 H 0.2466 0.35946 0.05845 0.0
H2521 H 0.30699 0.33619 0.01839 0.0
H2522 H 0.19818 0.2534 0.02463 0.0
H2523 H 0.14986 0.21169 0.04088 0.0
H2524 H 0.19808 0.15927 0.05342 0.0
H2525 H 0.24679 0.20087 0.03746 0.0
C2526 C 0.29163 0.22594 0.94857 0.0
C2527 C 0.32411 0.2361 0.94516 0.0
C2528 C 0.28218 0.23634 0.96455 0.0
C2529 C 0.30485 0.25734 0.97774 0.0
C2530 C 0.33737 0.2669 0.97475 0.0
C2531 C 0.34693 0.25633 0.95862 0.0
C2532 C 0.2939 0.26882 0.99446 0.0
C2533 C 0.26811 0.24628 1.00544 0.0
C2534 C 0.30724 0.30166 0.999 0.0
C2535 C 0.33101 0.32694 0.98645 0.0
C2536 C 0.36129 0.3495 0.99351 0.0
C2537 C 0.38336 0.37386 0.98164 0.0
C2538 C 0.37517 0.37606 0.9628 0.0
C2539 C 0.3449 0.35391 0.95579 0.0
C2540 C 0.32292 0.32931 0.96751 0.0
C2541 C 0.24018 0.29063 0.07592 0.0
C2542 C 0.23792 0.31869 0.07583 0.0
C2543 C 0.25183 0.28191 0.06022 0.0
C2544 C 0.25935 0.29936 0.04313 0.0
C2545 C 0.25695 0.32738 0.04281 0.0
C2546 C 0.24695 0.33724 0.05906 0.0
C2547 C 0.27008 0.28839 0.02595 0.0
C2548 C 0.29588 0.31096 0.01488 0.0
C2549 C 0.25552 0.25556 0.02063 0.0
C2550 C 0.22614 0.23032 0.02998 0.0
C2551 C 0.19847 0.23302 0.03092 0.0
C2552 C 0.17104 0.20941 0.04008 0.0
C2553 C 0.17092 0.18288 0.04821 0.0
C2554 C 0.1982 0.17983 0.04713 0.0
C2555 C 0.22571 0.20339 0.03801 0.0
H2556 H 0.14966 0.16464 0.05531 0.0
H2557 H 0.39222 0.39503 0.95367 0.0
H2558 H 0.12676 0.36999 0.45972 0.0
H2559 H 0.09154 0.35364 0.48791 0.0
H2560 H 0.03242 0.26037 0.46293 0.0
H2561 H 0.06827 0.27524 0.43617 0.0
H2562 H 0.03199 0.33593 0.49524 0.0
H2563 H 0.99782 0.20201 0.49316 0.0
H2564 H 0.02255 0.1697 0.4845 0.0
H2565 H 0.11602 0.25054 0.4948 0.0
H2566 H 0.09181 0.28316 0.5038 0.0
H2567 H 0.89839 0.25002 0.55899 0.0
H2568 H 0.93346 0.26954 0.53083 0.0
H2569 H 0.99813 0.24403 0.55775 0.0
H2570 H 0.96256 0.22244 0.58456 0.0
H2571 H 0.99802 0.23042 0.52502 0.0
H2572 H 1.00925 0.32639 0.55308 0.0
H2573 H 0.99108 0.36297 0.56472 0.0
H2574 H 0.95483 0.36469 0.50909 0.0
H2575 H 0.97259 0.32801 0.49713 0.0
C2576 C 0.10666 0.3458 0.4605 0.0
C2577 C 0.1008 0.32398 0.44559 0.0
C2578 C 0.08623 0.33655 0.47653 0.0
C2579 C 0.05938 0.30542 0.47789 0.0
C2580 C 0.05329 0.28415 0.46274 0.0
C2581 C 0.07391 0.29298 0.44715 0.0
C2582 C 0.0377 0.29444 0.49502 0.0
C2583 C 0.02473 0.31294 0.50183 0.0
C2584 C 0.02829 0.26466 0.50401 0.0
C2585 C 0.04301 0.24505 0.499 0.0
C2586 C 0.02364 0.2128 0.49368 0.0
C2587 C 0.03756 0.19446 0.48869 0.0
C2588 C 0.07084 0.20808 0.48905 0.0
C2589 C 0.09026 0.24004 0.49448 0.0
C2590 C 0.07645 0.25847 0.49952 0.0
C2591 C 0.91981 0.24809 0.55868 0.0
C2592 C 0.92744 0.23463 0.57423 0.0
C2593 C 0.94023 0.25977 0.54267 0.0
C2594 C 0.96914 0.25898 0.54205 0.0
C2595 C 0.9762 0.24503 0.55751 0.0
C2596 C 0.95561 0.2327 0.57309 0.0
C2597 C 0.99216 0.27189 0.52551 0.0
C2598 C 1.0053 0.25356 0.51864 0.0
C2599 C 1.00262 0.30235 0.51709 0.0
C2600 C 0.99192 0.32426 0.52428 0.0
C2601 C 0.99721 0.33443 0.54337 0.0
C2602 C 0.98701 0.35516 0.55002 0.0
C2603 C 0.97168 0.36598 0.53769 0.0
C2604 C 0.96663 0.35622 0.51865 0.0
C2605 C 0.97679 0.33551 0.51191 0.0
H2606 H 0.9638 0.38203 0.54288 0.0
H2607 H 0.08158 0.19385 0.48514 0.0
H2608 H 0.65405 0.92531 0.07263 0.0
H2609 H 0.67062 0.96264 0.04584 0.0
H2610 H 0.76096 0.96423 0.04359 0.0
H2611 H 0.74561 0.93009 0.07186 0.0
H2612 H 0.77563 0.0185 0.03803 0.0
H2613 H 0.68967 0.9248 1.00845 0.0
H2614 H 0.63455 0.87951 1.00491 0.0
H2615 H 0.59864 0.94496 1.00292 0.0
H2616 H 0.65351 0.99058 1.00671 0.0
H2617 H 0.81804 0.07682 0.94296 0.0
H2618 H 0.79901 0.04393 0.97169 0.0
H2619 H 0.73398 0.07897 0.98247 0.0
H2620 H 0.7534 0.11251 0.95359 0.0
H2621 H 0.7053 0.00993 0.98409 0.0
H2622 H 0.79634 0.10369 1.01012 0.0
H2623 H 0.85315 0.14604 0.01065 0.0
H2624 H 0.88141 0.0749 0.01599 0.0
H2625 H 0.82478 0.03208 0.01508 0.0
C2626 C 0.67715 0.93315 0.06608 0.0
C2627 C 0.69844 0.92455 0.07417 0.0
C2628 C 0.6867 0.95454 0.05062 0.0
C2629 C 0.71706 0.96629 0.04209 0.0
C2630 C 0.73756 0.95612 0.04974 0.0
C2631 C 0.72863 0.93611 0.06578 0.0
C2632 C 0.72834 0.99025 0.02594 0.0
C2633 C 0.76012 0.01599 0.02617 0.0
C2634 C 0.70843 0.98832 1.01043 0.0
C2635 C 0.67557 0.961 1.00804 0.0
C2636 C 0.66997 0.92947 1.00736 0.0
C2637 C 0.63879 0.90376 1.00531 0.0
C2638 C 0.6131 0.90935 1.00374 0.0
C2639 C 0.61855 0.94066 1.00417 0.0
C2640 C 0.64966 0.96644 1.00625 0.0
C2641 C 0.80018 0.07812 0.95166 0.0
C2642 C 0.78751 0.0976 0.9461 0.0
C2643 C 0.78921 0.05916 0.96806 0.0
C2644 C 0.76504 0.05889 0.97931 0.0
C2645 C 0.75269 0.0788 0.97405 0.0
C2646 C 0.76409 0.09829 0.9577 0.0
C2647 C 0.75237 0.03708 0.9962 0.0
C2648 C 0.72048 0.01202 0.99607 0.0
C2649 C 0.77239 0.03898 0.01148 0.0
C2650 C 0.80636 0.06471 0.01242 0.0
C2651 C 0.81469 0.09708 0.01129 0.0
C2652 C 0.84685 0.12117 0.01165 0.0
C2653 C 0.87088 0.11317 0.01333 0.0
C2654 C 0.86278 0.08106 0.01468 0.0
C2655 C 0.83066 0.05688 0.01425 0.0
H2656 H 0.89577 0.13185 0.01361 0.0
H2657 H 0.58897 0.88941 1.00216 0.0
H2658 H 0.76094 0.65069 0.56352 0.0
H2659 H 0.74364 0.66758 0.53481 0.0
H2660 H 0.79317 0.76512 0.55517 0.0
H2661 H 0.81244 0.74908 0.5824 0.0
H2662 H 0.70737 0.69051 0.5276 0.0
H2663 H 0.81825 0.82022 0.52314 0.0
H2664 H 0.87673 0.84691 0.52777 0.0
H2665 H 0.87413 0.75759 0.51858 0.0
H2666 H 0.81576 0.7305 0.51356 0.0
H2667 H 0.66086 0.7743 0.46208 0.0
H2668 H 0.67712 0.75666 0.49071 0.0
H2669 H 0.76648 0.78021 0.46333 0.0
H2670 H 0.75285 0.80213 0.43681 0.0
H2671 H 0.78207 0.79147 0.49442 0.0
H2672 H 0.69022 0.69711 0.47006 0.0
H2673 H 0.63384 0.66347 0.46013 0.0
H2674 H 0.60258 0.66907 0.51654 0.0
H2675 H 0.65874 0.70304 0.52674 0.0
C2676 C 0.769 0.67585 0.56142 0.0
C2677 C 0.78832 0.69849 0.57523 0.0
C2678 C 0.75864 0.68547 0.54518 0.0
C2679 C 0.76732 0.71786 0.54249 0.0
C2680 C 0.78677 0.74022 0.55632 0.0
C2681 C 0.79773 0.73088 0.57209 0.0
C2682 C 0.75624 0.72889 0.52554 0.0
C2683 C 0.7238 0.71239 0.52016 0.0
C2684 C 0.77744 0.75704 0.51536 0.0
C2685 C 0.81262 0.77331 0.51815 0.0
C2686 C 0.8302 0.80633 0.522 0.0
C2687 C 0.86332 0.82151 0.52471 0.0
C2688 C 0.87913 0.80394 0.52352 0.0
C2689 C 0.86186 0.77116 0.51955 0.0
C2690 C 0.82876 0.75588 0.51678 0.0
C2691 C 0.68442 0.7768 0.46254 0.0
C2692 C 0.70536 0.78985 0.44693 0.0
C2693 C 0.69348 0.76583 0.47879 0.0
C2694 C 0.72298 0.76611 0.47938 0.0
C2695 C 0.7438 0.77971 0.46383 0.0
C2696 C 0.73563 0.79214 0.4483 0.0
C2697 C 0.73307 0.75278 0.4958 0.0
C2698 C 0.76546 0.7692 0.50141 0.0
C2699 C 0.7122 0.7234 0.50514 0.0
C2700 C 0.67857 0.70282 0.49909 0.0
C2701 C 0.67128 0.69125 0.48031 0.0
C2702 C 0.6394 0.67216 0.47463 0.0
C2703 C 0.61466 0.66424 0.48767 0.0
C2704 C 0.62176 0.67529 0.50645 0.0
C2705 C 0.65359 0.69444 0.51218 0.0
H2706 H 0.58999 0.64946 0.48325 0.0
H2707 H 0.90477 0.81574 0.52565 0.0
H2708 H 0.92821 0.64437 0.94894 0.0
H2709 H 0.96644 0.66192 0.97538 0.0
H2710 H 0.95952 0.74746 0.98116 0.0
H2711 H 0.92404 0.73123 0.95347 0.0
H2712 H 0.016 0.76606 0.98417 0.0
H2713 H 0.9275 0.67484 0.01494 0.0
H2714 H 0.88598 0.61791 0.01793 0.0
H2715 H 0.95836 0.5909 0.01645 0.0
H2716 H 1.00024 0.64765 0.01321 0.0
H2717 H 0.08452 0.81763 0.07536 0.0
H2718 H 0.04959 0.79553 0.04776 0.0
H2719 H 0.08072 0.72654 0.04035 0.0
H2720 H 0.11548 0.74835 0.06863 0.0
H2721 H 0.01607 0.69799 0.03713 0.0
H2722 H 0.10449 0.79144 1.0097 0.0
H2723 H 0.14478 0.84894 1.00833 0.0
H2724 H 0.06996 0.87241 1.00497 0.0
H2725 H 0.02923 0.81507 1.0067 0.0
C2726 C 0.93417 0.66642 0.95629 0.0
C2727 C 0.92274 0.68619 0.94935 0.0
C2728 C 0.95618 0.6766 0.9715 0.0
C2729 C 0.96604 0.70608 0.98079 0.0
C2730 C 0.9529 0.7248 0.97439 0.0
C2731 C 0.93208 0.71528 0.95871 0.0
C2732 C 0.99121 0.7186 0.99632 0.0
C2733 C 0.01543 0.75105 0.99585 0.0
C2734 C 0.99197 0.6993 0.01143 0.0
C2735 C 0.96689 0.66536 0.01367 0.0
C2736 C 0.9345 0.65671 0.01518 0.0
C2737 C 0.91092 0.6245 0.01691 0.0
C2738 C 0.91952 0.60079 0.01733 0.0
C2739 C 0.95173 0.60927 0.0161 0.0
C2740 C 0.97539 0.64144 0.01433 0.0
C2741 C 0.08451 0.79816 0.06765 0.0
C2742 C 0.1031 0.78498 0.07413 0.0
C2743 C 0.06439 0.78546 0.05181 0.0
C2744 C 0.06251 0.75943 0.04169 0.0
C2745 C 0.08171 0.74666 0.04781 0.0
C2746 C 0.10197 0.75944 0.06381 0.0
C2747 C 0.03981 0.7454 0.02515 0.0
C2748 C 0.01635 0.71278 0.02539 0.0
C2749 C 0.03939 0.7646 1.00997 0.0
C2750 C 0.06385 0.799 1.00842 0.0
C2751 C 0.09665 0.80888 1.00874 0.0
C2752 C 0.11956 0.84144 1.00792 0.0
C2753 C 0.10994 0.86432 1.00658 0.0
C2754 C 0.07739 0.85467 1.00601 0.0
C2755 C 0.05438 0.82215 1.0069 0.0
H2756 H 0.12772 0.88952 1.00596 0.0
H2757 H 0.90122 0.57585 0.01864 0.0
H2758 H 0.21103 0.94246 0.44192 0.0
H2759 H 0.23157 0.97848 0.46899 0.0
H2760 H 0.2925 0.94011 0.48388 0.0
H2761 H 0.27115 0.9029 0.45657 0.0
H2762 H 0.269 0.95286 0.51583 0.0
H2763 H 0.32143 0.01391 0.4592 0.0
H2764 H 0.323 0.0341 0.42662 0.0
H2765 H 0.26709 0.07585 0.44474 0.0
H2766 H 0.26522 0.0561 0.47742 0.0
H2767 H 0.37684 0.09941 0.57006 0.0
H2768 H 0.35972 0.06166 0.54302 0.0
H2769 H 0.2701 0.06087 0.54055 0.0
H2770 H 0.28636 0.09703 0.56807 0.0
H2771 H 0.31174 0.06834 0.50254 0.0
H2772 H 0.25477 1.00546 0.55723 0.0
H2773 H 0.24771 0.9831 0.5896 0.0
H2774 H 0.30608 0.94211 0.57518 0.0
H2775 H 0.31441 0.96524 0.54288 0.0
C2776 C 0.22863 0.94129 0.45097 0.0
C2777 C 0.23955 0.91972 0.44686 0.0
C2778 C 0.24059 0.96225 0.46649 0.0
C2779 C 0.26443 0.96298 0.47834 0.0
C2780 C 0.27437 0.94041 0.47491 0.0
C2781 C 0.26206 0.91899 0.45932 0.0
C2782 C 0.27913 0.98784 0.49387 0.0
C2783 C 0.27892 0.97814 0.51281 0.0
C2784 C 0.29133 0.02098 0.49027 0.0
C2785 C 0.29303 0.03337 0.47071 0.0
C2786 C 0.30939 0.02731 0.45622 0.0
C2787 C 0.3103 0.03862 0.43774 0.0
C2788 C 0.29497 0.05598 0.4336 0.0
C2789 C 0.2789 0.06234 0.44796 0.0
C2790 C 0.27801 0.05121 0.46647 0.0
C2791 C 0.35393 0.09194 0.56334 0.0
C2792 C 0.33313 0.10156 0.57103 0.0
C2793 C 0.34393 0.06996 0.54809 0.0
C2794 C 0.31337 0.05798 0.53989 0.0
C2795 C 0.29361 0.06944 0.54671 0.0
C2796 C 0.30309 0.09043 0.5623 0.0
C2797 C 0.3017 0.03331 0.52437 0.0
C2798 C 0.30236 0.04309 0.50548 0.0
C2799 C 0.28949 1.00027 0.52807 0.0
C2800 C 0.28587 0.98778 0.54777 0.0
C2801 C 0.26678 0.99239 0.56108 0.0
C2802 C 0.2623 0.97933 0.57938 0.0
C2803 C 0.27641 0.96117 0.58444 0.0
C2804 C 0.29513 0.95615 0.57124 0.0
C2805 C 0.29986 0.96937 0.55296 0.0
H2806 H 0.27293 0.95107 0.5986 0.0
H2807 H 0.29564 0.06459 0.41926 0.0
loop_
_geom_bond_atom_site_label_1
_geom_bond_atom_site_label_2
_geom_bond_distance
_geom_bond_site_symmetry_2
_ccdc_geom_bond_type
Tb0 N29 2.617 . S
Tb0 N35 2.572 . S
Tb0 O44 2.465 . S
Tb0 O45 2.387 . S
Tb0 O47 2.428 . S
Tb0 O48 2.308 . S
Tb0 O52 2.349 . S
Tb0 O55 2.393 . S
Tb0 C64 2.802 . S
C1 N2 1.379 . S
C1 C4 1.416 . S
C1 C8 1.424 . S
N2 C1 1.379 . S
N2 C5 1.334 . S
N2 Tb11 2.617 . S
C3 C5 1.390 . S
C3 C6 1.339 . S
C3 H23 0.930 . S
C4 C1 1.416 . S
C4 C6 1.416 . S
C4 C10 1.448 . S
C5 N2 1.334 . S
C5 C3 1.390 . S
C5 H16 0.930 . S
C6 C3 1.339 . S
C6 C4 1.416 . S
C6 H27 0.930 . S
C7 C8 1.413 . S
C7 C9 1.427 . S
C7 C13 1.416 . S
C8 C1 1.424 . S
C8 C7 1.413 . S
C8 N12 1.361 . S
C9 C7 1.427 . S
C9 C10 1.328 . S
C9 H24 0.929 . S
C10 C4 1.448 . S
C10 C9 1.328 . S
C10 H25 0.930 . S
Tb11 N2 2.617 . S
Tb11 N12 2.572 . S
Tb11 O46 2.349 . S
Tb11 O49 2.393 . S
Tb11 O50 2.465 . S
Tb11 O51 2.387 . S
Tb11 O53 2.428 . S
Tb11 O54 2.308 . S
Tb11 C75 2.802 . S
N12 C8 1.361 . S
N12 Tb11 2.572 . S
N12 C14 1.340 . S
C13 C7 1.416 . S
C13 C15 1.332 . S
C13 H21 0.931 . S
C14 N12 1.340 . S
C14 C15 1.407 . S
C14 H20 0.930 . S
C15 C13 1.332 . S
C15 C14 1.407 . S
C15 H17 0.929 . S
H16 C5 0.930 . S
H17 C15 0.929 . S
H18 C33 0.930 . S
H19 C40 0.929 . S
H20 C14 0.930 . S
H21 C13 0.931 . S
H22 C36 0.930 . S
H23 C3 0.930 . S
H24 C9 0.929 . S
H25 C10 0.930 . S
H26 C31 0.930 . S
H27 C6 0.930 . S
H28 C39 0.931 . S
N29 Tb0 2.617 . S
N29 C30 1.379 . S
N29 C33 1.334 . S
C30 N29 1.379 . S
C30 C32 1.416 . S
C30 C38 1.424 . S
C31 H26 0.930 . S
C31 C33 1.390 . S
C31 C34 1.339 . S
C32 C30 1.416 . S
C32 C34 1.416 . S
C32 C65 1.448 . S
C33 H18 0.930 . S
C33 N29 1.334 . S
C33 C31 1.390 . S
C34 C31 1.339 . S
C34 C32 1.416 . S
C34 H41 0.930 . S
N35 Tb0 2.572 . S
N35 C36 1.340 . S
N35 C38 1.361 . S
C36 H22 0.930 . S
C36 N35 1.340 . S
C36 C40 1.407 . S
C37 C38 1.413 . S
C37 C39 1.416 . S
C37 C66 1.427 . S
C38 C30 1.424 . S
C38 N35 1.361 . S
C38 C37 1.413 . S
C39 H28 0.931 . S
C39 C37 1.416 . S
C39 C40 1.332 . S
C40 H19 0.929 . S
C40 C36 1.407 . S
C40 C39 1.332 . S
H41 C34 0.930 . S
H42 C65 0.930 . S
H43 C66 0.929 . S
O44 Tb0 2.465 . S
O44 C64 1.264 . S
O45 Tb0 2.387 . S
O45 C56 1.264 . S
O46 Tb11 2.349 . S
O46 C56 1.243 . S
O47 Tb0 2.428 . S
O47 C64 1.256 . S
O48 Tb0 2.308 . S
O48 C63 1.266 . S
O49 Tb11 2.393 . S
O49 C63 1.248 . S
O50 Tb11 2.465 . S
O50 C75 1.264 . S
O51 Tb11 2.387 . S
O51 C67 1.264 . S
O52 Tb0 2.349 . S
O52 C67 1.243 . S
O53 Tb11 2.428 . S
O53 C75 1.256 . S
O54 Tb11 2.308 . S
O54 C74 1.266 . S
O55 Tb0 2.393 . S
O55 C74 1.248 . S
C56 O45 1.264 . S
C56 O46 1.243 . S
C57 C60 1.399 . S
C57 C62 1.383 . S
C57 C64 1.496 . S
C58 C59 1.399 . S
C58 C62 1.389 . S
C59 C58 1.399 . S
C59 C61 1.380 . S
C59 H76 0.929 . S
C60 C57 1.399 . S
C60 C61 1.392 . S
C60 H77 0.929 . S
C61 C59 1.380 . S
C61 C60 1.392 . S
C61 H78 0.929 . S
C62 C57 1.383 . S
C62 C58 1.389 . S
C62 H79 0.931 . S
C63 O48 1.266 . S
C63 O49 1.248 . S
C64 Tb0 2.802 . S
C64 O44 1.264 . S
C64 O47 1.256 . S
C64 C57 1.496 . S
C65 C32 1.448 . S
C65 H42 0.930 . S
C65 C66 1.328 . S
C66 C37 1.427 . S
C66 H43 0.929 . S
C66 C65 1.328 . S
C67 O51 1.264 . S
C67 O52 1.243 . S
C68 C71 1.399 . S
C68 C72 1.383 . S
C68 C75 1.496 . S
C69 C70 1.399 . S
C69 C72 1.389 . S
C70 C69 1.399 . S
C70 C73 1.380 . S
C70 H80 0.929 . S
C71 C68 1.399 . S
C71 C73 1.392 . S
C71 H81 0.929 . S
C72 C68 1.383 . S
C72 C69 1.389 . S
C72 H82 0.931 . S
C73 C70 1.380 . S
C73 C71 1.392 . S
C73 H83 0.929 . S
C74 O54 1.266 . S
C74 O55 1.248 . S
C75 Tb11 2.802 . S
C75 O50 1.264 . S
C75 O53 1.256 . S
C75 C68 1.496 . S
H76 C59 0.929 . S
H77 C60 0.929 . S
H78 C61 0.929 . S
H79 C62 0.931 . S
H80 C70 0.929 . S
H81 C71 0.929 . S
H82 C72 0.931 . S
H83 C73 0.929 . S
Tb84 N113 2.617 . S
Tb84 N119 2.572 . S
Tb84 O128 2.465 . S
Tb84 O129 2.387 . S
Tb84 O131 2.428 . S
Tb84 O132 2.308 . S
Tb84 O136 2.349 . S
Tb84 O139 2.393 . S
Tb84 C148 2.802 . S
C85 N86 1.379 . S
C85 C88 1.416 . S
C85 C92 1.424 . S
N86 C85 1.379 . S
N86 C89 1.334 . S
N86 Tb95 2.617 . S
C87 C89 1.390 . S
C87 C90 1.339 . S
C87 H107 0.930 . S
C88 C85 1.416 . S
C88 C90 1.416 . S
C88 C94 1.448 . S
C89 N86 1.334 . S
C89 C87 1.390 . S
C89 H100 0.930 . S
C90 C87 1.339 . S
C90 C88 1.416 . S
C90 H111 0.930 . S
C91 C92 1.413 . S
C91 C93 1.427 . S
C91 C97 1.416 . S
C92 C85 1.424 . S
C92 C91 1.413 . S
C92 N96 1.361 . S
C93 C91 1.427 . S
C93 C94 1.328 . S
C93 H108 0.929 . S
C94 C88 1.448 . S
C94 C93 1.328 . S
C94 H109 0.930 . S
Tb95 N86 2.617 . S
Tb95 N96 2.572 . S
Tb95 O130 2.349 . S
Tb95 O133 2.393 . S
Tb95 O134 2.465 . S
Tb95 O135 2.387 . S
Tb95 O137 2.428 . S
Tb95 O138 2.308 . S
Tb95 C159 2.802 . S
N96 C92 1.361 . S
N96 Tb95 2.572 . S
N96 C98 1.340 . S
C97 C91 1.416 . S
C97 C99 1.332 . S
C97 H105 0.931 . S
C98 N96 1.340 . S
C98 C99 1.407 . S
C98 H104 0.930 . S
C99 C97 1.332 . S
C99 C98 1.407 . S
C99 H101 0.929 . S
H100 C89 0.930 . S
H101 C99 0.929 . S
H102 C117 0.930 . S
H103 C124 0.929 . S
H104 C98 0.930 . S
H105 C97 0.931 . S
H106 C120 0.930 . S
H107 C87 0.930 . S
H108 C93 0.929 . S
H109 C94 0.930 . S
H110 C115 0.930 . S
H111 C90 0.930 . S
H112 C123 0.931 . S
N113 Tb84 2.617 . S
N113 C114 1.379 . S
N113 C117 1.334 . S
C114 N113 1.379 . S
C114 C116 1.416 . S
C114 C122 1.424 . S
C115 H110 0.930 . S
C115 C117 1.390 . S
C115 C118 1.339 . S
C116 C114 1.416 . S
C116 C118 1.416 . S
C116 C149 1.448 . S
C117 H102 0.930 . S
C117 N113 1.334 . S
C117 C115 1.390 . S
C118 C115 1.339 . S
C118 C116 1.416 . S
C118 H125 0.930 . S
N119 Tb84 2.572 . S
N119 C120 1.340 . S
N119 C122 1.361 . S
C120 H106 0.930 . S
C120 N119 1.340 . S
C120 C124 1.407 . S
C121 C122 1.413 . S
C121 C123 1.416 . S
C121 C150 1.427 . S
C122 C114 1.424 . S
C122 N119 1.361 . S
C122 C121 1.413 . S
C123 H112 0.931 . S
C123 C121 1.416 . S
C123 C124 1.332 . S
C124 H103 0.929 . S
C124 C120 1.407 . S
C124 C123 1.332 . S
H125 C118 0.930 . S
H126 C149 0.930 . S
H127 C150 0.929 . S
O128 Tb84 2.465 . S
O128 C148 1.264 . S
O129 Tb84 2.387 . S
O129 C140 1.264 . S
O130 Tb95 2.349 . S
O130 C140 1.243 . S
O131 Tb84 2.428 . S
O131 C148 1.256 . S
O132 Tb84 2.308 . S
O132 C147 1.266 . S
O133 Tb95 2.393 . S
O133 C147 1.248 . S
O134 Tb95 2.465 . S
O134 C159 1.264 . S
O135 Tb95 2.387 . S
O135 C151 1.264 . S
O136 Tb84 2.349 . S
O136 C151 1.243 . S
O137 Tb95 2.428 . S
O137 C159 1.256 . S
O138 Tb95 2.308 . S
O138 C158 1.266 . S
O139 Tb84 2.393 . S
O139 C158 1.248 . S
C140 O129 1.264 . S
C140 O130 1.243 . S
C141 C144 1.399 . S
C141 C146 1.383 . S
C141 C148 1.496 . S
C142 C143 1.399 . S
C142 C146 1.389 1_455 S
C143 C142 1.399 . S
C143 C145 1.380 . S
C143 H160 0.929 . S
C144 C141 1.399 . S
C144 C145 1.392 1_655 S
C144 H161 0.929 . S
C145 C143 1.380 . S
C145 C144 1.392 1_455 S
C145 H162 0.929 . S
C146 C141 1.383 . S
C146 C142 1.389 1_655 S
C146 H163 0.931 . S
C147 O132 1.266 . S
C147 O133 1.248 . S
C148 Tb84 2.802 . S
C148 O128 1.264 . S
C148 O131 1.256 . S
C148 C141 1.496 . S
C149 C116 1.448 . S
C149 H126 0.930 . S
C149 C150 1.328 . S
C150 C121 1.427 . S
C150 H127 0.929 . S
C150 C149 1.328 . S
C151 O135 1.264 . S
C151 O136 1.243 . S
C152 C155 1.399 . S
C152 C156 1.383 . S
C152 C159 1.496 . S
C153 C154 1.399 . S
C153 C156 1.389 . S
C154 C153 1.399 . S
C154 C157 1.380 . S
C154 H164 0.929 . S
C155 C152 1.399 . S
C155 C157 1.392 . S
C155 H165 0.929 . S
C156 C152 1.383 . S
C156 C153 1.389 . S
C156 H166 0.931 . S
C157 C154 1.380 . S
C157 C155 1.392 . S
C157 H167 0.929 . S
C158 O138 1.266 . S
C158 O139 1.248 . S
C159 Tb95 2.802 . S
C159 O134 1.264 . S
C159 O137 1.256 . S
C159 C152 1.496 . S
H160 C143 0.929 . S
H161 C144 0.929 . S
H162 C145 0.929 . S
H163 C146 0.931 . S
H164 C154 0.929 . S
H165 C155 0.929 . S
H166 C156 0.931 . S
H167 C157 0.929 . S
Tb168 N197 2.617 . S
Tb168 N203 2.572 . S
Tb168 O212 2.465 . S
Tb168 O213 2.387 . S
Tb168 O215 2.428 . S
Tb168 O216 2.308 . S
Tb168 O220 2.349 . S
Tb168 O223 2.393 . S
Tb168 C232 2.802 . S
C169 N170 1.379 . S
C169 C172 1.416 . S
C169 C176 1.424 . S
N170 C169 1.379 . S
N170 C173 1.334 . S
N170 Tb179 2.617 . S
C171 C173 1.390 . S
C171 C174 1.339 . S
C171 H191 0.930 . S
C172 C169 1.416 . S
C172 C174 1.416 . S
C172 C178 1.448 . S
C173 N170 1.334 . S
C173 C171 1.390 . S
C173 H184 0.930 . S
C174 C171 1.339 . S
C174 C172 1.416 . S
C174 H195 0.930 . S
C175 C176 1.413 . S
C175 C177 1.427 . S
C175 C181 1.416 . S
C176 C169 1.424 . S
C176 C175 1.413 . S
C176 N180 1.361 . S
C177 C175 1.427 . S
C177 C178 1.328 . S
C177 H192 0.929 . S
C178 C172 1.448 . S
C178 C177 1.328 . S
C178 H193 0.930 . S
Tb179 N170 2.617 . S
Tb179 N180 2.572 . S
Tb179 O214 2.349 . S
Tb179 O217 2.393 . S
Tb179 O218 2.465 . S
Tb179 O219 2.387 . S
Tb179 O221 2.428 . S
Tb179 O222 2.308 . S
Tb179 C243 2.802 . S
N180 C176 1.361 . S
N180 Tb179 2.572 . S
N180 C182 1.340 . S
C181 C175 1.416 . S
C181 C183 1.332 . S
C181 H189 0.931 . S
C182 N180 1.340 . S
C182 C183 1.407 . S
C182 H188 0.930 . S
C183 C181 1.332 . S
C183 C182 1.407 . S
C183 H185 0.929 . S
H184 C173 0.930 . S
H185 C183 0.929 . S
H186 C201 0.930 . S
H187 C208 0.929 . S
H188 C182 0.930 . S
H189 C181 0.931 . S
H190 C204 0.930 . S
H191 C171 0.930 . S
H192 C177 0.929 . S
H193 C178 0.930 . S
H194 C199 0.930 . S
H195 C174 0.930 . S
H196 C207 0.931 . S
N197 Tb168 2.617 . S
N197 C198 1.379 . S
N197 C201 1.334 . S
C198 N197 1.379 . S
C198 C200 1.416 . S
C198 C206 1.424 . S
C199 H194 0.930 . S
C199 C201 1.390 . S
C199 C202 1.339 . S
C200 C198 1.416 . S
C200 C202 1.416 . S
C200 C233 1.448 . S
C201 H186 0.930 . S
C201 N197 1.334 . S
C201 C199 1.390 . S
C202 C199 1.339 . S
C202 C200 1.416 . S
C202 H209 0.930 . S
N203 Tb168 2.572 . S
N203 C204 1.340 . S
N203 C206 1.361 . S
C204 H190 0.930 . S
C204 N203 1.340 . S
C204 C208 1.407 . S
C205 C206 1.413 . S
C205 C207 1.416 . S
C205 C234 1.427 . S
C206 C198 1.424 . S
C206 N203 1.361 . S
C206 C205 1.413 . S
C207 H196 0.931 . S
C207 C205 1.416 . S
C207 C208 1.332 . S
C208 H187 0.929 . S
C208 C204 1.407 . S
C208 C207 1.332 . S
H209 C202 0.930 . S
H210 C233 0.930 . S
H211 C234 0.929 . S
O212 Tb168 2.465 . S
O212 C232 1.264 . S
O213 Tb168 2.387 . S
O213 C224 1.264 . S
O214 Tb179 2.349 . S
O214 C224 1.243 . S
O215 Tb168 2.428 . S
O215 C232 1.256 . S
O216 Tb168 2.308 . S
O216 C231 1.266 . S
O217 Tb179 2.393 . S
O217 C231 1.248 . S
O218 Tb179 2.465 . S
O218 C243 1.264 . S
O219 Tb179 2.387 . S
O219 C235 1.264 . S
O220 Tb168 2.349 . S
O220 C235 1.243 . S
O221 Tb179 2.428 . S
O221 C243 1.256 . S
O222 Tb179 2.308 . S
O222 C242 1.266 . S
O223 Tb168 2.393 . S
O223 C242 1.248 . S
C224 O213 1.264 . S
C224 O214 1.243 . S
C225 C228 1.399 . S
C225 C230 1.383 . S
C225 C232 1.496 . S
C226 C227 1.399 . S
C226 C230 1.389 1_545 S
C227 C226 1.399 . S
C227 C229 1.380 . S
C227 H244 0.929 . S
C228 C225 1.399 . S
C228 C229 1.392 1_565 S
C228 H245 0.929 . S
C229 C227 1.380 . S
C229 C228 1.392 1_545 S
C229 H246 0.929 . S
C230 C225 1.383 . S
C230 C226 1.389 1_565 S
C230 H247 0.931 . S
C231 O216 1.266 . S
C231 O217 1.248 . S
C232 Tb168 2.802 . S
C232 O212 1.264 . S
C232 O215 1.256 . S
C232 C225 1.496 . S
C233 C200 1.448 . S
C233 H210 0.930 . S
C233 C234 1.328 . S
C234 C205 1.427 . S
C234 H211 0.929 . S
C234 C233 1.328 . S
C235 O219 1.264 . S
C235 O220 1.243 . S
C236 C239 1.399 . S
C236 C240 1.383 . S
C236 C243 1.496 . S
C237 C238 1.399 . S
C237 C240 1.389 . S
C238 C237 1.399 . S
C238 C241 1.380 . S
C238 H248 0.929 . S
C239 C236 1.399 . S
C239 C241 1.392 . S
C239 H249 0.929 . S
C240 C236 1.383 . S
C240 C237 1.389 . S
C240 H250 0.931 . S
C241 C238 1.380 . S
C241 C239 1.392 . S
C241 H251 0.929 . S
C242 O222 1.266 . S
C242 O223 1.248 . S
C243 Tb179 2.802 . S
C243 O218 1.264 . S
C243 O221 1.256 . S
C243 C236 1.496 . S
H244 C227 0.929 . S
H245 C228 0.929 . S
H246 C229 0.929 . S
H247 C230 0.931 . S
H248 C238 0.929 . S
H249 C239 0.929 . S
H250 C240 0.931 . S
H251 C241 0.929 . S
Tb252 N281 2.617 . S
Tb252 N287 2.572 . S
Tb252 O296 2.465 . S
Tb252 O297 2.387 . S
Tb252 O299 2.428 . S
Tb252 O300 2.308 . S
Tb252 O304 2.349 . S
Tb252 O307 2.393 . S
Tb252 C316 2.802 . S
C253 N254 1.379 . S
C253 C256 1.416 . S
C253 C260 1.424 . S
N254 C253 1.379 . S
N254 C257 1.334 . S
N254 Tb263 2.617 . S
C255 C257 1.390 . S
C255 C258 1.339 . S
C255 H275 0.930 . S
C256 C253 1.416 . S
C256 C258 1.416 . S
C256 C262 1.448 . S
C257 N254 1.334 . S
C257 C255 1.390 . S
C257 H268 0.930 . S
C258 C255 1.339 . S
C258 C256 1.416 . S
C258 H279 0.930 . S
C259 C260 1.413 . S
C259 C261 1.427 . S
C259 C265 1.416 . S
C260 C253 1.424 . S
C260 C259 1.413 . S
C260 N264 1.361 . S
C261 C259 1.427 . S
C261 C262 1.328 . S
C261 H276 0.929 . S
C262 C256 1.448 . S
C262 C261 1.328 . S
C262 H277 0.930 . S
Tb263 N254 2.617 . S
Tb263 N264 2.572 . S
Tb263 O298 2.349 . S
Tb263 O301 2.393 . S
Tb263 O302 2.465 . S
Tb263 O303 2.387 . S
Tb263 O305 2.428 . S
Tb263 O306 2.308 . S
Tb263 C327 2.802 . S
N264 C260 1.361 . S
N264 Tb263 2.572 . S
N264 C266 1.340 . S
C265 C259 1.416 . S
C265 C267 1.332 . S
C265 H273 0.931 . S
C266 N264 1.340 . S
C266 C267 1.407 . S
C266 H272 0.930 . S
C267 C265 1.332 . S
C267 C266 1.407 . S
C267 H269 0.929 . S
H268 C257 0.930 . S
H269 C267 0.929 . S
H270 C285 0.930 . S
H271 C292 0.929 . S
H272 C266 0.930 . S
H273 C265 0.931 . S
H274 C288 0.930 . S
H275 C255 0.930 . S
H276 C261 0.929 . S
H277 C262 0.930 . S
H278 C283 0.930 . S
H279 C258 0.930 . S
H280 C291 0.931 . S
N281 Tb252 2.617 . S
N281 C282 1.379 . S
N281 C285 1.334 . S
C282 N281 1.379 . S
C282 C284 1.416 . S
C282 C290 1.424 . S
C283 H278 0.930 . S
C283 C285 1.390 . S
C283 C286 1.339 . S
C284 C282 1.416 . S
C284 C286 1.416 . S
C284 C317 1.448 . S
C285 H270 0.930 . S
C285 N281 1.334 . S
C285 C283 1.390 . S
C286 C283 1.339 . S
C286 C284 1.416 . S
C286 H293 0.930 . S
N287 Tb252 2.572 . S
N287 C288 1.340 . S
N287 C290 1.361 . S
C288 H274 0.930 . S
C288 N287 1.340 . S
C288 C292 1.407 . S
C289 C290 1.413 . S
C289 C291 1.416 . S
C289 C318 1.427 . S
C290 C282 1.424 . S
C290 N287 1.361 . S
C290 C289 1.413 . S
C291 H280 0.931 . S
C291 C289 1.416 . S
C291 C292 1.332 . S
C292 H271 0.929 . S
C292 C288 1.407 . S
C292 C291 1.332 . S
H293 C286 0.930 . S
H294 C317 0.930 . S
H295 C318 0.929 . S
O296 Tb252 2.465 . S
O296 C316 1.264 . S
O297 Tb252 2.387 . S
O297 C308 1.264 . S
O298 Tb263 2.349 . S
O298 C308 1.243 . S
O299 Tb252 2.428 . S
O299 C316 1.256 . S
O300 Tb252 2.308 . S
O300 C315 1.266 . S
O301 Tb263 2.393 . S
O301 C315 1.248 . S
O302 Tb263 2.465 . S
O302 C327 1.264 . S
O303 Tb263 2.387 . S
O303 C319 1.264 . S
O304 Tb252 2.349 . S
O304 C319 1.243 . S
O305 Tb263 2.428 . S
O305 C327 1.256 . S
O306 Tb263 2.308 . S
O306 C326 1.266 . S
O307 Tb252 2.393 . S
O307 C326 1.248 . S
C308 O297 1.264 . S
C308 O298 1.243 . S
C309 C312 1.399 . S
C309 C314 1.383 . S
C309 C316 1.496 . S
C310 C311 1.399 . S
C310 C314 1.389 . S
C311 C310 1.399 . S
C311 C313 1.380 . S
C311 H328 0.929 . S
C312 C309 1.399 . S
C312 C313 1.392 . S
C312 H329 0.929 . S
C313 C311 1.380 . S
C313 C312 1.392 . S
C313 H330 0.929 . S
C314 C309 1.383 . S
C314 C310 1.389 . S
C314 H331 0.931 . S
C315 O300 1.266 . S
C315 O301 1.248 . S
C316 Tb252 2.802 . S
C316 O296 1.264 . S
C316 O299 1.256 . S
C316 C309 1.496 . S
C317 C284 1.448 . S
C317 H294 0.930 . S
C317 C318 1.328 . S
C318 C289 1.427 . S
C318 H295 0.929 . S
C318 C317 1.328 . S
C319 O303 1.264 . S
C319 O304 1.243 . S
C320 C323 1.399 . S
C320 C324 1.383 . S
C320 C327 1.496 . S
C321 C322 1.399 . S
C321 C324 1.389 . S
C322 C321 1.399 . S
C322 C325 1.380 . S
C322 H332 0.929 . S
C323 C320 1.399 . S
C323 C325 1.392 . S
C323 H333 0.929 . S
C324 C320 1.383 . S
C324 C321 1.389 . S
C324 H334 0.931 . S
C325 C322 1.380 . S
C325 C323 1.392 . S
C325 H335 0.929 . S
C326 O306 1.266 . S
C326 O307 1.248 . S
C327 Tb263 2.802 . S
C327 O302 1.264 . S
C327 O305 1.256 . S
C327 C320 1.496 . S
H328 C311 0.929 . S
H329 C312 0.929 . S
H330 C313 0.929 . S
H331 C314 0.931 . S
H332 C322 0.929 . S
H333 C323 0.929 . S
H334 C324 0.931 . S
H335 C325 0.929 . S
Tb336 N365 2.617 . S
Tb336 N371 2.572 . S
Tb336 O380 2.465 . S
Tb336 O381 2.387 . S
Tb336 O383 2.428 . S
Tb336 O384 2.308 . S
Tb336 O388 2.349 . S
Tb336 O391 2.393 . S
Tb336 C400 2.802 . S
C337 N338 1.379 . S
C337 C340 1.416 . S
C337 C344 1.424 . S
N338 C337 1.379 . S
N338 C341 1.334 . S
N338 Tb347 2.617 . S
C339 C341 1.390 . S
C339 C342 1.339 . S
C339 H359 0.930 . S
C340 C337 1.416 . S
C340 C342 1.416 . S
C340 C346 1.448 . S
C341 N338 1.334 . S
C341 C339 1.390 . S
C341 H352 0.930 . S
C342 C339 1.339 . S
C342 C340 1.416 . S
C342 H363 0.930 . S
C343 C344 1.413 . S
C343 C345 1.427 . S
C343 C349 1.416 . S
C344 C337 1.424 . S
C344 C343 1.413 . S
C344 N348 1.361 . S
C345 C343 1.427 . S
C345 C346 1.328 . S
C345 H360 0.929 . S
C346 C340 1.448 . S
C346 C345 1.328 . S
C346 H361 0.930 . S
Tb347 N338 2.617 . S
Tb347 N348 2.572 . S
Tb347 O382 2.349 . S
Tb347 O385 2.393 . S
Tb347 O386 2.465 . S
Tb347 O387 2.387 . S
Tb347 O389 2.428 . S
Tb347 O390 2.308 . S
Tb347 C411 2.802 . S
N348 C344 1.361 . S
N348 Tb347 2.572 . S
N348 C350 1.340 . S
C349 C343 1.416 . S
C349 C351 1.332 . S
C349 H357 0.931 . S
C350 N348 1.340 . S
C350 C351 1.407 . S
C350 H356 0.930 . S
C351 C349 1.332 . S
C351 C350 1.407 . S
C351 H353 0.929 . S
H352 C341 0.930 . S
H353 C351 0.929 . S
H354 C369 0.930 . S
H355 C376 0.929 . S
H356 C350 0.930 . S
H357 C349 0.931 . S
H358 C372 0.930 . S
H359 C339 0.930 . S
H360 C345 0.929 . S
H361 C346 0.930 . S
H362 C367 0.930 . S
H363 C342 0.930 . S
H364 C375 0.931 . S
N365 Tb336 2.617 . S
N365 C366 1.379 . S
N365 C369 1.334 . S
C366 N365 1.379 . S
C366 C368 1.416 . S
C366 C374 1.424 . S
C367 H362 0.930 . S
C367 C369 1.390 . S
C367 C370 1.339 . S
C368 C366 1.416 . S
C368 C370 1.416 . S
C368 C401 1.448 . S
C369 H354 0.930 . S
C369 N365 1.334 . S
C369 C367 1.390 . S
C370 C367 1.339 . S
C370 C368 1.416 . S
C370 H377 0.930 . S
N371 Tb336 2.572 . S
N371 C372 1.340 . S
N371 C374 1.361 . S
C372 H358 0.930 . S
C372 N371 1.340 . S
C372 C376 1.407 . S
C373 C374 1.413 . S
C373 C375 1.416 . S
C373 C402 1.427 . S
C374 C366 1.424 . S
C374 N371 1.361 . S
C374 C373 1.413 . S
C375 H364 0.931 . S
C375 C373 1.416 . S
C375 C376 1.332 . S
C376 H355 0.929 . S
C376 C372 1.407 . S
C376 C375 1.332 . S
H377 C370 0.930 . S
H378 C401 0.930 . S
H379 C402 0.929 . S
O380 Tb336 2.465 . S
O380 C400 1.264 . S
O381 Tb336 2.387 . S
O381 C392 1.264 . S
O382 Tb347 2.349 . S
O382 C392 1.243 . S
O383 Tb336 2.428 . S
O383 C400 1.256 . S
O384 Tb336 2.308 . S
O384 C399 1.266 . S
O385 Tb347 2.393 . S
O385 C399 1.248 . S
O386 Tb347 2.465 . S
O386 C411 1.264 . S
O387 Tb347 2.387 . S
O387 C403 1.264 . S
O388 Tb336 2.349 . S
O388 C403 1.243 . S
O389 Tb347 2.428 . S
O389 C411 1.256 . S
O390 Tb347 2.308 . S
O390 C410 1.266 . S
O391 Tb336 2.393 . S
O391 C410 1.248 . S
C392 O381 1.264 . S
C392 O382 1.243 . S
C393 C396 1.399 . S
C393 C398 1.383 . S
C393 C400 1.496 . S
C394 C395 1.399 . S
C394 C398 1.389 1_655 S
C395 C394 1.399 . S
C395 C397 1.380 . S
C395 H412 0.929 . S
C396 C393 1.399 . S
C396 C397 1.392 1_455 S
C396 H413 0.929 . S
C397 C395 1.380 . S
C397 C396 1.392 1_655 S
C397 H414 0.929 . S
C398 C393 1.383 . S
C398 C394 1.389 1_455 S
C398 H415 0.931 . S
C399 O384 1.266 . S
C399 O385 1.248 . S
C400 Tb336 2.802 . S
C400 O380 1.264 . S
C400 O383 1.256 . S
C400 C393 1.496 . S
C401 C368 1.448 . S
C401 H378 0.930 . S
C401 C402 1.328 . S
C402 C373 1.427 . S
C402 H379 0.929 . S
C402 C401 1.328 . S
C403 O387 1.264 . S
C403 O388 1.243 . S
C404 C407 1.399 . S
C404 C408 1.383 . S
C404 C411 1.496 . S
C405 C406 1.399 . S
C405 C408 1.389 . S
C406 C405 1.399 . S
C406 C409 1.380 . S
C406 H416 0.929 . S
C407 C404 1.399 . S
C407 C409 1.392 . S
C407 H417 0.929 . S
C408 C404 1.383 . S
C408 C405 1.389 . S
C408 H418 0.931 . S
C409 C406 1.380 . S
C409 C407 1.392 . S
C409 H419 0.929 . S
C410 O390 1.266 . S
C410 O391 1.248 . S
C411 Tb347 2.802 . S
C411 O386 1.264 . S
C411 O389 1.256 . S
C411 C404 1.496 . S
H412 C395 0.929 . S
H413 C396 0.929 . S
H414 C397 0.929 . S
H415 C398 0.931 . S
H416 C406 0.929 . S
H417 C407 0.929 . S
H418 C408 0.931 . S
H419 C409 0.929 . S
Tb420 N449 2.617 . S
Tb420 N455 2.572 . S
Tb420 O464 2.465 . S
Tb420 O465 2.387 . S
Tb420 O467 2.428 . S
Tb420 O468 2.308 . S
Tb420 O472 2.349 . S
Tb420 O475 2.393 . S
Tb420 C484 2.802 . S
C421 N422 1.379 . S
C421 C424 1.416 . S
C421 C428 1.424 . S
N422 C421 1.379 . S
N422 C425 1.334 . S
N422 Tb431 2.617 . S
C423 C425 1.390 . S
C423 C426 1.339 . S
C423 H443 0.930 . S
C424 C421 1.416 . S
C424 C426 1.416 . S
C424 C430 1.448 . S
C425 N422 1.334 . S
C425 C423 1.390 . S
C425 H436 0.930 . S
C426 C423 1.339 . S
C426 C424 1.416 . S
C426 H447 0.930 . S
C427 C428 1.413 . S
C427 C429 1.427 . S
C427 C433 1.416 . S
C428 C421 1.424 . S
C428 C427 1.413 . S
C428 N432 1.361 . S
C429 C427 1.427 . S
C429 C430 1.328 . S
C429 H444 0.929 . S
C430 C424 1.448 . S
C430 C429 1.328 . S
C430 H445 0.930 . S
Tb431 N422 2.617 . S
Tb431 N432 2.572 . S
Tb431 O466 2.349 . S
Tb431 O469 2.393 . S
Tb431 O470 2.465 . S
Tb431 O471 2.387 . S
Tb431 O473 2.428 . S
Tb431 O474 2.308 . S
Tb431 C495 2.802 . S
N432 C428 1.361 . S
N432 Tb431 2.572 . S
N432 C434 1.340 . S
C433 C427 1.416 . S
C433 C435 1.332 . S
C433 H441 0.931 . S
C434 N432 1.340 . S
C434 C435 1.407 . S
C434 H440 0.930 . S
C435 C433 1.332 . S
C435 C434 1.407 . S
C435 H437 0.929 . S
H436 C425 0.930 . S
H437 C435 0.929 . S
H438 C453 0.930 . S
H439 C460 0.929 . S
H440 C434 0.930 . S
H441 C433 0.931 . S
H442 C456 0.930 . S
H443 C423 0.930 . S
H444 C429 0.929 . S
H445 C430 0.930 . S
H446 C451 0.930 . S
H447 C426 0.930 . S
H448 C459 0.931 . S
N449 Tb420 2.617 . S
N449 C450 1.379 . S
N449 C453 1.334 . S
C450 N449 1.379 . S
C450 C452 1.416 . S
C450 C458 1.424 . S
C451 H446 0.930 . S
C451 C453 1.390 . S
C451 C454 1.339 . S
C452 C450 1.416 . S
C452 C454 1.416 . S
C452 C485 1.448 . S
C453 H438 0.930 . S
C453 N449 1.334 . S
C453 C451 1.390 . S
C454 C451 1.339 . S
C454 C452 1.416 . S
C454 H461 0.930 . S
N455 Tb420 2.572 . S
N455 C456 1.340 . S
N455 C458 1.361 . S
C456 H442 0.930 . S
C456 N455 1.340 . S
C456 C460 1.407 . S
C457 C458 1.413 . S
C457 C459 1.416 . S
C457 C486 1.427 . S
C458 C450 1.424 . S
C458 N455 1.361 . S
C458 C457 1.413 . S
C459 H448 0.931 . S
C459 C457 1.416 . S
C459 C460 1.332 . S
C460 H439 0.929 . S
C460 C456 1.407 . S
C460 C459 1.332 . S
H461 C454 0.930 . S
H462 C485 0.930 . S
H463 C486 0.929 . S
O464 Tb420 2.465 . S
O464 C484 1.264 . S
O465 Tb420 2.387 . S
O465 C476 1.264 . S
O466 Tb431 2.349 . S
O466 C476 1.243 . S
O467 Tb420 2.428 . S
O467 C484 1.256 . S
O468 Tb420 2.308 . S
O468 C483 1.266 . S
O469 Tb431 2.393 . S
O469 C483 1.248 . S
O470 Tb431 2.465 . S
O470 C495 1.264 . S
O471 Tb431 2.387 . S
O471 C487 1.264 . S
O472 Tb420 2.349 . S
O472 C487 1.243 . S
O473 Tb431 2.428 . S
O473 C495 1.256 . S
O474 Tb431 2.308 . S
O474 C494 1.266 . S
O475 Tb420 2.393 . S
O475 C494 1.248 . S
C476 O465 1.264 . S
C476 O466 1.243 . S
C477 C480 1.399 . S
C477 C482 1.383 . S
C477 C484 1.496 . S
C478 C479 1.399 . S
C478 C482 1.389 1_565 S
C479 C478 1.399 . S
C479 C481 1.380 . S
C479 H496 0.929 . S
C480 C477 1.399 . S
C480 C481 1.392 1_545 S
C480 H497 0.929 . S
C481 C479 1.380 . S
C481 C480 1.392 1_565 S
C481 H498 0.929 . S
C482 C477 1.383 . S
C482 C478 1.389 1_545 S
C482 H499 0.931 . S
C483 O468 1.266 . S
C483 O469 1.248 . S
C484 Tb420 2.802 . S
C484 O464 1.264 . S
C484 O467 1.256 . S
C484 C477 1.496 . S
C485 C452 1.448 . S
C485 H462 0.930 . S
C485 C486 1.328 . S
C486 C457 1.427 . S
C486 H463 0.929 . S
C486 C485 1.328 . S
C487 O471 1.264 . S
C487 O472 1.243 . S
C488 C491 1.399 . S
C488 C492 1.383 . S
C488 C495 1.496 . S
C489 C490 1.399 . S
C489 C492 1.389 . S
C490 C489 1.399 . S
C490 C493 1.380 . S
C490 H500 0.929 . S
C491 C488 1.399 . S
C491 C493 1.392 . S
C491 H501 0.929 . S
C492 C488 1.383 . S
C492 C489 1.389 . S
C492 H502 0.931 . S
C493 C490 1.380 . S
C493 C491 1.392 . S
C493 H503 0.929 . S
C494 O474 1.266 . S
C494 O475 1.248 . S
C495 Tb431 2.802 . S
C495 O470 1.264 . S
C495 O473 1.256 . S
C495 C488 1.496 . S
H496 C479 0.929 . S
H497 C480 0.929 . S
H498 C481 0.929 . S
H499 C482 0.931 . S
H500 C490 0.929 . S
H501 C491 0.929 . S
H502 C492 0.931 . S
H503 C493 0.929 . S
Tb504 N533 2.617 . S
Tb504 N539 2.572 . S
Tb504 O548 2.465 . S
Tb504 O549 2.387 . S
Tb504 O551 2.428 . S
Tb504 O552 2.308 . S
Tb504 O556 2.349 . S
Tb504 O559 2.393 . S
Tb504 C568 2.802 . S
C505 N506 1.379 . S
C505 C508 1.416 . S
C505 C512 1.424 . S
N506 C505 1.379 . S
N506 C509 1.334 . S
N506 Tb515 2.617 . S
C507 C509 1.390 . S
C507 C510 1.339 . S
C507 H527 0.930 . S
C508 C505 1.416 . S
C508 C510 1.416 . S
C508 C514 1.448 . S
C509 N506 1.334 . S
C509 C507 1.390 . S
C509 H520 0.930 . S
C510 C507 1.339 . S
C510 C508 1.416 . S
C510 H531 0.930 . S
C511 C512 1.413 . S
C511 C513 1.427 . S
C511 C517 1.416 . S
C512 C505 1.424 . S
C512 C511 1.413 . S
C512 N516 1.361 . S
C513 C511 1.427 . S
C513 C514 1.328 . S
C513 H528 0.929 . S
C514 C508 1.448 . S
C514 C513 1.328 . S
C514 H529 0.930 . S
Tb515 N506 2.617 . S
Tb515 N516 2.572 . S
Tb515 O550 2.349 . S
Tb515 O553 2.393 . S
Tb515 O554 2.465 . S
Tb515 O555 2.387 . S
Tb515 O557 2.428 . S
Tb515 O558 2.308 . S
Tb515 C579 2.802 . S
N516 C512 1.361 . S
N516 Tb515 2.572 . S
N516 C518 1.340 . S
C517 C511 1.416 . S
C517 C519 1.332 . S
C517 H525 0.931 . S
C518 N516 1.340 . S
C518 C519 1.407 . S
C518 H524 0.930 . S
C519 C517 1.332 . S
C519 C518 1.407 . S
C519 H521 0.929 . S
H520 C509 0.930 . S
H521 C519 0.929 . S
H522 C537 0.930 . S
H523 C544 0.929 . S
H524 C518 0.930 . S
H525 C517 0.931 . S
H526 C540 0.930 . S
H527 C507 0.930 . S
H528 C513 0.929 . S
H529 C514 0.930 . S
H530 C535 0.930 . S
H531 C510 0.930 . S
H532 C543 0.931 . S
N533 Tb504 2.617 . S
N533 C534 1.379 . S
N533 C537 1.334 . S
C534 N533 1.379 . S
C534 C536 1.416 . S
C534 C542 1.424 . S
C535 H530 0.930 . S
C535 C537 1.390 . S
C535 C538 1.339 . S
C536 C534 1.416 . S
C536 C538 1.416 . S
C536 C569 1.448 . S
C537 H522 0.930 . S
C537 N533 1.334 . S
C537 C535 1.390 . S
C538 C535 1.339 . S
C538 C536 1.416 . S
C538 H545 0.930 . S
N539 Tb504 2.572 . S
N539 C540 1.340 . S
N539 C542 1.361 . S
C540 H526 0.930 . S
C540 N539 1.340 . S
C540 C544 1.407 . S
C541 C542 1.413 . S
C541 C543 1.416 . S
C541 C570 1.427 . S
C542 C534 1.424 . S
C542 N539 1.361 . S
C542 C541 1.413 . S
C543 H532 0.931 . S
C543 C541 1.416 . S
C543 C544 1.332 . S
C544 H523 0.929 . S
C544 C540 1.407 . S
C544 C543 1.332 . S
H545 C538 0.930 . S
H546 C569 0.930 . S
H547 C570 0.929 . S
O548 Tb504 2.465 . S
O548 C568 1.264 . S
O549 Tb504 2.387 . S
O549 C560 1.264 . S
O550 Tb515 2.349 . S
O550 C560 1.243 . S
O551 Tb504 2.428 . S
O551 C568 1.256 . S
O552 Tb504 2.308 . S
O552 C567 1.266 . S
O553 Tb515 2.393 . S
O553 C567 1.248 . S
O554 Tb515 2.465 . S
O554 C579 1.264 . S
O555 Tb515 2.387 . S
O555 C571 1.264 . S
O556 Tb504 2.349 . S
O556 C571 1.243 . S
O557 Tb515 2.428 . S
O557 C579 1.256 . S
O558 Tb515 2.308 . S
O558 C578 1.266 . S
O559 Tb504 2.393 . S
O559 C578 1.248 . S
C560 O549 1.264 . S
C560 O550 1.243 . S
C561 C564 1.399 . S
C561 C566 1.383 . S
C561 C568 1.496 . S
C562 C563 1.399 . S
C562 C566 1.389 . S
C563 C562 1.399 . S
C563 C565 1.380 . S
C563 H580 0.929 . S
C564 C561 1.399 . S
C564 C565 1.392 . S
C564 H581 0.929 . S
C565 C563 1.380 . S
C565 C564 1.392 . S
C565 H582 0.929 . S
C566 C561 1.383 . S
C566 C562 1.389 . S
C566 H583 0.931 . S
C567 O552 1.266 . S
C567 O553 1.248 . S
C568 Tb504 2.802 . S
C568 O548 1.264 . S
C568 O551 1.256 . S
C568 C561 1.496 . S
C569 C536 1.448 . S
C569 H546 0.930 . S
C569 C570 1.328 . S
C570 C541 1.427 . S
C570 H547 0.929 . S
C570 C569 1.328 . S
C571 O555 1.264 . S
C571 O556 1.243 . S
C572 C575 1.399 . S
C572 C576 1.383 . S
C572 C579 1.496 . S
C573 C574 1.399 . S
C573 C576 1.389 . S
C574 C573 1.399 . S
C574 C577 1.380 . S
C574 H584 0.929 . S
C575 C572 1.399 . S
C575 C577 1.392 . S
C575 H585 0.929 . S
C576 C572 1.383 . S
C576 C573 1.389 . S
C576 H586 0.931 . S
C577 C574 1.380 . S
C577 C575 1.392 . S
C577 H587 0.929 . S
C578 O558 1.266 . S
C578 O559 1.248 . S
C579 Tb515 2.802 . S
C579 O554 1.264 . S
C579 O557 1.256 . S
C579 C572 1.496 . S
H580 C563 0.929 . S
H581 C564 0.929 . S
H582 C565 0.929 . S
H583 C566 0.931 . S
H584 C574 0.929 . S
H585 C575 0.929 . S
H586 C576 0.931 . S
H587 C577 0.929 . S
Tb588 N617 2.617 . S
Tb588 N623 2.572 . S
Tb588 O632 2.465 . S
Tb588 O633 2.387 . S
Tb588 O635 2.428 . S
Tb588 O636 2.308 . S
Tb588 O640 2.349 . S
Tb588 O643 2.393 . S
Tb588 C652 2.802 . S
C589 N590 1.379 . S
C589 C592 1.416 . S
C589 C596 1.424 . S
N590 C589 1.379 . S
N590 C593 1.334 . S
N590 Tb599 2.617 . S
C591 C593 1.390 . S
C591 C594 1.339 . S
C591 H611 0.930 . S
C592 C589 1.416 . S
C592 C594 1.416 . S
C592 C598 1.448 . S
C593 N590 1.334 . S
C593 C591 1.390 . S
C593 H604 0.930 . S
C594 C591 1.339 . S
C594 C592 1.416 . S
C594 H615 0.930 . S
C595 C596 1.413 . S
C595 C597 1.427 . S
C595 C601 1.416 . S
C596 C589 1.424 . S
C596 C595 1.413 . S
C596 N600 1.361 . S
C597 C595 1.427 . S
C597 C598 1.328 . S
C597 H612 0.929 . S
C598 C592 1.448 . S
C598 C597 1.328 . S
C598 H613 0.930 . S
Tb599 N590 2.617 . S
Tb599 N600 2.572 . S
Tb599 O634 2.349 . S
Tb599 O637 2.393 . S
Tb599 O638 2.465 . S
Tb599 O639 2.387 . S
Tb599 O641 2.428 . S
Tb599 O642 2.308 . S
Tb599 C663 2.802 . S
N600 C596 1.361 . S
N600 Tb599 2.572 . S
N600 C602 1.340 . S
C601 C595 1.416 . S
C601 C603 1.332 . S
C601 H609 0.931 . S
C602 N600 1.340 . S
C602 C603 1.407 . S
C602 H608 0.930 . S
C603 C601 1.332 . S
C603 C602 1.407 . S
C603 H605 0.929 . S
H604 C593 0.930 . S
H605 C603 0.929 . S
H606 C621 0.930 . S
H607 C628 0.929 . S
H608 C602 0.930 . S
H609 C601 0.931 . S
H610 C624 0.930 . S
H611 C591 0.930 . S
H612 C597 0.929 . S
H613 C598 0.930 . S
H614 C619 0.930 . S
H615 C594 0.930 . S
H616 C627 0.931 . S
N617 Tb588 2.617 . S
N617 C618 1.379 . S
N617 C621 1.334 . S
C618 N617 1.379 . S
C618 C620 1.416 . S
C618 C626 1.424 . S
C619 H614 0.930 . S
C619 C621 1.390 . S
C619 C622 1.339 . S
C620 C618 1.416 . S
C620 C622 1.416 . S
C620 C653 1.448 . S
C621 H606 0.930 . S
C621 N617 1.334 . S
C621 C619 1.390 . S
C622 C619 1.339 . S
C622 C620 1.416 . S
C622 H629 0.930 . S
N623 Tb588 2.572 . S
N623 C624 1.340 . S
N623 C626 1.361 . S
C624 H610 0.930 . S
C624 N623 1.340 . S
C624 C628 1.407 . S
C625 C626 1.413 . S
C625 C627 1.416 . S
C625 C654 1.427 . S
C626 C618 1.424 . S
C626 N623 1.361 . S
C626 C625 1.413 . S
C627 H616 0.931 . S
C627 C625 1.416 . S
C627 C628 1.332 . S
C628 H607 0.929 . S
C628 C624 1.407 . S
C628 C627 1.332 . S
H629 C622 0.930 . S
H630 C653 0.930 . S
H631 C654 0.929 . S
O632 Tb588 2.465 . S
O632 C652 1.264 . S
O633 Tb588 2.387 . S
O633 C644 1.264 . S
O634 Tb599 2.349 . S
O634 C644 1.243 . S
O635 Tb588 2.428 . S
O635 C652 1.256 . S
O636 Tb588 2.308 . S
O636 C651 1.266 . S
O637 Tb599 2.393 . S
O637 C651 1.248 . S
O638 Tb599 2.465 . S
O638 C663 1.264 . S
O639 Tb599 2.387 . S
O639 C655 1.264 . S
O640 Tb588 2.349 . S
O640 C655 1.243 . S
O641 Tb599 2.428 . S
O641 C663 1.256 . S
O642 Tb599 2.308 . S
O642 C662 1.266 . S
O643 Tb588 2.393 . S
O643 C662 1.248 . S
C644 O633 1.264 . S
C644 O634 1.243 . S
C645 C648 1.399 . S
C645 C650 1.383 . S
C645 C652 1.496 . S
C646 C647 1.399 . S
C646 C650 1.389 1_455 S
C647 C646 1.399 . S
C647 C649 1.380 . S
C647 H664 0.929 . S
C648 C645 1.399 . S
C648 C649 1.392 1_655 S
C648 H665 0.929 . S
C649 C647 1.380 . S
C649 C648 1.392 1_455 S
C649 H666 0.929 . S
C650 C645 1.383 . S
C650 C646 1.389 1_655 S
C650 H667 0.931 . S
C651 O636 1.266 . S
C651 O637 1.248 . S
C652 Tb588 2.802 . S
C652 O632 1.264 . S
C652 O635 1.256 . S
C652 C645 1.496 . S
C653 C620 1.448 . S
C653 H630 0.930 . S
C653 C654 1.328 . S
C654 C625 1.427 . S
C654 H631 0.929 . S
C654 C653 1.328 . S
C655 O639 1.264 . S
C655 O640 1.243 . S
C656 C659 1.399 . S
C656 C660 1.383 . S
C656 C663 1.496 . S
C657 C658 1.399 . S
C657 C660 1.389 . S
C658 C657 1.399 . S
C658 C661 1.380 . S
C658 H668 0.929 . S
C659 C656 1.399 . S
C659 C661 1.392 . S
C659 H669 0.929 . S
C660 C656 1.383 . S
C660 C657 1.389 . S
C660 H670 0.931 . S
C661 C658 1.380 . S
C661 C659 1.392 . S
C661 H671 0.929 . S
C662 O642 1.266 . S
C662 O643 1.248 . S
C663 Tb599 2.802 . S
C663 O638 1.264 . S
C663 O641 1.256 . S
C663 C656 1.496 . S
H664 C647 0.929 . S
H665 C648 0.929 . S
H666 C649 0.929 . S
H667 C650 0.931 . S
H668 C658 0.929 . S
H669 C659 0.929 . S
H670 C660 0.931 . S
H671 C661 0.929 . S
Tb672 N701 2.617 . S
Tb672 N707 2.572 . S
Tb672 O716 2.465 . S
Tb672 O717 2.387 . S
Tb672 O719 2.428 . S
Tb672 O720 2.308 . S
Tb672 O724 2.349 . S
Tb672 O727 2.393 . S
Tb672 C736 2.802 . S
C673 N674 1.379 . S
C673 C676 1.416 . S
C673 C680 1.424 . S
N674 C673 1.379 . S
N674 C677 1.334 . S
N674 Tb683 2.617 . S
C675 C677 1.390 . S
C675 C678 1.339 . S
C675 H695 0.930 . S
C676 C673 1.416 . S
C676 C678 1.416 . S
C676 C682 1.448 . S
C677 N674 1.334 . S
C677 C675 1.390 . S
C677 H688 0.930 . S
C678 C675 1.339 . S
C678 C676 1.416 . S
C678 H699 0.930 . S
C679 C680 1.413 . S
C679 C681 1.427 . S
C679 C685 1.416 . S
C680 C673 1.424 . S
C680 C679 1.413 . S
C680 N684 1.361 . S
C681 C679 1.427 . S
C681 C682 1.328 . S
C681 H696 0.929 . S
C682 C676 1.448 . S
C682 C681 1.328 . S
C682 H697 0.930 . S
Tb683 N674 2.617 . S
Tb683 N684 2.572 . S
Tb683 O718 2.349 . S
Tb683 O721 2.393 . S
Tb683 O722 2.465 . S
Tb683 O723 2.387 . S
Tb683 O725 2.428 . S
Tb683 O726 2.308 . S
Tb683 C747 2.802 . S
N684 C680 1.361 . S
N684 Tb683 2.572 . S
N684 C686 1.340 . S
C685 C679 1.416 . S
C685 C687 1.332 . S
C685 H693 0.931 . S
C686 N684 1.340 . S
C686 C687 1.407 . S
C686 H692 0.930 . S
C687 C685 1.332 . S
C687 C686 1.407 . S
C687 H689 0.929 . S
H688 C677 0.930 . S
H689 C687 0.929 . S
H690 C705 0.930 . S
H691 C712 0.929 . S
H692 C686 0.930 . S
H693 C685 0.931 . S
H694 C708 0.930 . S
H695 C675 0.930 . S
H696 C681 0.929 . S
H697 C682 0.930 . S
H698 C703 0.930 . S
H699 C678 0.930 . S
H700 C711 0.931 . S
N701 Tb672 2.617 . S
N701 C702 1.379 . S
N701 C705 1.334 . S
C702 N701 1.379 . S
C702 C704 1.416 . S
C702 C710 1.424 . S
C703 H698 0.930 . S
C703 C705 1.390 . S
C703 C706 1.339 . S
C704 C702 1.416 . S
C704 C706 1.416 . S
C704 C737 1.448 . S
C705 H690 0.930 . S
C705 N701 1.334 . S
C705 C703 1.390 . S
C706 C703 1.339 . S
C706 C704 1.416 . S
C706 H713 0.930 . S
N707 Tb672 2.572 . S
N707 C708 1.340 . S
N707 C710 1.361 . S
C708 H694 0.930 . S
C708 N707 1.340 . S
C708 C712 1.407 . S
C709 C710 1.413 . S
C709 C711 1.416 . S
C709 C738 1.427 . S
C710 C702 1.424 . S
C710 N707 1.361 . S
C710 C709 1.413 . S
C711 H700 0.931 . S
C711 C709 1.416 . S
C711 C712 1.332 . S
C712 H691 0.929 . S
C712 C708 1.407 . S
C712 C711 1.332 . S
H713 C706 0.930 . S
H714 C737 0.930 . S
H715 C738 0.929 . S
O716 Tb672 2.465 . S
O716 C736 1.264 . S
O717 Tb672 2.387 . S
O717 C728 1.264 . S
O718 Tb683 2.349 . S
O718 C728 1.243 . S
O719 Tb672 2.428 . S
O719 C736 1.256 . S
O720 Tb672 2.308 . S
O720 C735 1.266 . S
O721 Tb683 2.393 . S
O721 C735 1.248 . S
O722 Tb683 2.465 . S
O722 C747 1.264 . S
O723 Tb683 2.387 . S
O723 C739 1.264 . S
O724 Tb672 2.349 . S
O724 C739 1.243 . S
O725 Tb683 2.428 . S
O725 C747 1.256 . S
O726 Tb683 2.308 . S
O726 C746 1.266 . S
O727 Tb672 2.393 . S
O727 C746 1.248 . S
C728 O717 1.264 . S
C728 O718 1.243 . S
C729 C732 1.399 . S
C729 C734 1.383 . S
C729 C736 1.496 . S
C730 C731 1.399 . S
C730 C734 1.389 1_545 S
C731 C730 1.399 . S
C731 C733 1.380 . S
C731 H748 0.929 . S
C732 C729 1.399 . S
C732 C733 1.392 1_565 S
C732 H749 0.929 . S
C733 C731 1.380 . S
C733 C732 1.392 1_545 S
C733 H750 0.929 . S
C734 C729 1.383 . S
C734 C730 1.389 1_565 S
C734 H751 0.931 . S
C735 O720 1.266 . S
C735 O721 1.248 . S
C736 Tb672 2.802 . S
C736 O716 1.264 . S
C736 O719 1.256 . S
C736 C729 1.496 . S
C737 C704 1.448 . S
C737 H714 0.930 . S
C737 C738 1.328 . S
C738 C709 1.427 . S
C738 H715 0.929 . S
C738 C737 1.328 . S
C739 O723 1.264 . S
C739 O724 1.243 . S
C740 C743 1.399 . S
C740 C744 1.383 . S
C740 C747 1.496 . S
C741 C742 1.399 . S
C741 C744 1.389 . S
C742 C741 1.399 . S
C742 C745 1.380 . S
C742 H752 0.929 . S
C743 C740 1.399 . S
C743 C745 1.392 . S
C743 H753 0.929 . S
C744 C740 1.383 . S
C744 C741 1.389 . S
C744 H754 0.931 . S
C745 C742 1.380 . S
C745 C743 1.392 . S
C745 H755 0.929 . S
C746 O726 1.266 . S
C746 O727 1.248 . S
C747 Tb683 2.802 . S
C747 O722 1.264 . S
C747 O725 1.256 . S
C747 C740 1.496 . S
H748 C731 0.929 . S
H749 C732 0.929 . S
H750 C733 0.929 . S
H751 C734 0.931 . S
H752 C742 0.929 . S
H753 C743 0.929 . S
H754 C744 0.931 . S
H755 C745 0.929 . S
Tb756 N785 2.617 . S
Tb756 N791 2.572 . S
Tb756 O800 2.465 . S
Tb756 O801 2.387 . S
Tb756 O803 2.428 . S
Tb756 O804 2.308 . S
Tb756 O808 2.349 . S
Tb756 O811 2.393 . S
Tb756 C820 2.802 . S
C757 N758 1.379 . S
C757 C760 1.416 . S
C757 C764 1.424 . S
N758 C757 1.379 . S
N758 C761 1.334 . S
N758 Tb767 2.617 . S
C759 C761 1.390 . S
C759 C762 1.339 . S
C759 H779 0.930 . S
C760 C757 1.416 . S
C760 C762 1.416 . S
C760 C766 1.448 . S
C761 N758 1.334 . S
C761 C759 1.390 . S
C761 H772 0.930 . S
C762 C759 1.339 . S
C762 C760 1.416 . S
C762 H783 0.930 . S
C763 C764 1.413 . S
C763 C765 1.427 . S
C763 C769 1.416 . S
C764 C757 1.424 . S
C764 C763 1.413 . S
C764 N768 1.361 . S
C765 C763 1.427 . S
C765 C766 1.328 . S
C765 H780 0.929 . S
C766 C760 1.448 . S
C766 C765 1.328 . S
C766 H781 0.930 . S
Tb767 N758 2.617 . S
Tb767 N768 2.572 . S
Tb767 O802 2.349 . S
Tb767 O805 2.393 . S
Tb767 O806 2.465 . S
Tb767 O807 2.387 . S
Tb767 O809 2.428 . S
Tb767 O810 2.308 . S
Tb767 C831 2.802 . S
N768 C764 1.361 . S
N768 Tb767 2.572 . S
N768 C770 1.340 . S
C769 C763 1.416 . S
C769 C771 1.332 . S
C769 H777 0.931 . S
C770 N768 1.340 . S
C770 C771 1.407 . S
C770 H776 0.930 . S
C771 C769 1.332 . S
C771 C770 1.407 . S
C771 H773 0.929 . S
H772 C761 0.930 . S
H773 C771 0.929 . S
H774 C789 0.930 . S
H775 C796 0.929 . S
H776 C770 0.930 . S
H777 C769 0.931 . S
H778 C792 0.930 . S
H779 C759 0.930 . S
H780 C765 0.929 . S
H781 C766 0.930 . S
H782 C787 0.930 . S
H783 C762 0.930 . S
H784 C795 0.931 . S
N785 Tb756 2.617 . S
N785 C786 1.379 . S
N785 C789 1.334 . S
C786 N785 1.379 . S
C786 C788 1.416 . S
C786 C794 1.424 . S
C787 H782 0.930 . S
C787 C789 1.390 . S
C787 C790 1.339 . S
C788 C786 1.416 . S
C788 C790 1.416 . S
C788 C821 1.448 . S
C789 H774 0.930 . S
C789 N785 1.334 . S
C789 C787 1.390 . S
C790 C787 1.339 . S
C790 C788 1.416 . S
C790 H797 0.930 . S
N791 Tb756 2.572 . S
N791 C792 1.340 . S
N791 C794 1.361 . S
C792 H778 0.930 . S
C792 N791 1.340 . S
C792 C796 1.407 . S
C793 C794 1.413 . S
C793 C795 1.416 . S
C793 C822 1.427 . S
C794 C786 1.424 . S
C794 N791 1.361 . S
C794 C793 1.413 . S
C795 H784 0.931 . S
C795 C793 1.416 . S
C795 C796 1.332 . S
C796 H775 0.929 . S
C796 C792 1.407 . S
C796 C795 1.332 . S
H797 C790 0.930 . S
H798 C821 0.930 . S
H799 C822 0.929 . S
O800 Tb756 2.465 . S
O800 C820 1.264 . S
O801 Tb756 2.387 . S
O801 C812 1.264 . S
O802 Tb767 2.349 . S
O802 C812 1.243 . S
O803 Tb756 2.428 . S
O803 C820 1.256 . S
O804 Tb756 2.308 . S
O804 C819 1.266 . S
O805 Tb767 2.393 . S
O805 C819 1.248 . S
O806 Tb767 2.465 . S
O806 C831 1.264 . S
O807 Tb767 2.387 . S
O807 C823 1.264 . S
O808 Tb756 2.349 . S
O808 C823 1.243 . S
O809 Tb767 2.428 . S
O809 C831 1.256 . S
O810 Tb767 2.308 . S
O810 C830 1.266 . S
O811 Tb756 2.393 . S
O811 C830 1.248 . S
C812 O801 1.264 . S
C812 O802 1.243 . S
C813 C816 1.399 . S
C813 C818 1.383 . S
C813 C820 1.496 . S
C814 C815 1.399 . S
C814 C818 1.389 . S
C815 C814 1.399 . S
C815 C817 1.380 . S
C815 H832 0.929 . S
C816 C813 1.399 . S
C816 C817 1.392 . S
C816 H833 0.929 . S
C817 C815 1.380 . S
C817 C816 1.392 . S
C817 H834 0.929 . S
C818 C813 1.383 . S
C818 C814 1.389 . S
C818 H835 0.931 . S
C819 O804 1.266 . S
C819 O805 1.248 . S
C820 Tb756 2.802 . S
C820 O800 1.264 . S
C820 O803 1.256 . S
C820 C813 1.496 . S
C821 C788 1.448 . S
C821 H798 0.930 . S
C821 C822 1.328 . S
C822 C793 1.427 . S
C822 H799 0.929 . S
C822 C821 1.328 . S
C823 O807 1.264 . S
C823 O808 1.243 . S
C824 C827 1.399 . S
C824 C828 1.383 . S
C824 C831 1.496 . S
C825 C826 1.399 . S
C825 C828 1.389 . S
C826 C825 1.399 . S
C826 C829 1.380 . S
C826 H836 0.929 . S
C827 C824 1.399 . S
C827 C829 1.392 . S
C827 H837 0.929 . S
C828 C824 1.383 . S
C828 C825 1.389 . S
C828 H838 0.931 . S
C829 C826 1.380 . S
C829 C827 1.392 . S
C829 H839 0.929 . S
C830 O810 1.266 . S
C830 O811 1.248 . S
C831 Tb767 2.802 . S
C831 O806 1.264 . S
C831 O809 1.256 . S
C831 C824 1.496 . S
H832 C815 0.929 . S
H833 C816 0.929 . S
H834 C817 0.929 . S
H835 C818 0.931 . S
H836 C826 0.929 . S
H837 C827 0.929 . S
H838 C828 0.931 . S
H839 C829 0.929 . S
Tb840 N869 2.617 . S
Tb840 N875 2.572 . S
Tb840 O884 2.465 . S
Tb840 O885 2.387 . S
Tb840 O887 2.428 . S
Tb840 O888 2.308 . S
Tb840 O892 2.349 . S
Tb840 O895 2.393 . S
Tb840 C904 2.802 . S
C841 N842 1.379 . S
C841 C844 1.416 . S
C841 C848 1.424 . S
N842 C841 1.379 . S
N842 C845 1.334 . S
N842 Tb851 2.617 . S
C843 C845 1.390 . S
C843 C846 1.339 . S
C843 H863 0.930 . S
C844 C841 1.416 . S
C844 C846 1.416 . S
C844 C850 1.448 . S
C845 N842 1.334 . S
C845 C843 1.390 . S
C845 H856 0.930 . S
C846 C843 1.339 . S
C846 C844 1.416 . S
C846 H867 0.930 . S
C847 C848 1.413 . S
C847 C849 1.427 . S
C847 C853 1.416 . S
C848 C841 1.424 . S
C848 C847 1.413 . S
C848 N852 1.361 . S
C849 C847 1.427 . S
C849 C850 1.328 . S
C849 H864 0.929 . S
C850 C844 1.448 . S
C850 C849 1.328 . S
C850 H865 0.930 . S
Tb851 N842 2.617 . S
Tb851 N852 2.572 . S
Tb851 O886 2.349 . S
Tb851 O889 2.393 . S
Tb851 O890 2.465 . S
Tb851 O891 2.387 . S
Tb851 O893 2.428 . S
Tb851 O894 2.308 . S
Tb851 C915 2.802 . S
N852 C848 1.361 . S
N852 Tb851 2.572 . S
N852 C854 1.340 . S
C853 C847 1.416 . S
C853 C855 1.332 . S
C853 H861 0.931 . S
C854 N852 1.340 . S
C854 C855 1.407 . S
C854 H860 0.930 . S
C855 C853 1.332 . S
C855 C854 1.407 . S
C855 H857 0.929 . S
H856 C845 0.930 . S
H857 C855 0.929 . S
H858 C873 0.930 . S
H859 C880 0.929 . S
H860 C854 0.930 . S
H861 C853 0.931 . S
H862 C876 0.930 . S
H863 C843 0.930 . S
H864 C849 0.929 . S
H865 C850 0.930 . S
H866 C871 0.930 . S
H867 C846 0.930 . S
H868 C879 0.931 . S
N869 Tb840 2.617 . S
N869 C870 1.379 . S
N869 C873 1.334 . S
C870 N869 1.379 . S
C870 C872 1.416 . S
C870 C878 1.424 . S
C871 H866 0.930 . S
C871 C873 1.390 . S
C871 C874 1.339 . S
C872 C870 1.416 . S
C872 C874 1.416 . S
C872 C905 1.448 . S
C873 H858 0.930 . S
C873 N869 1.334 . S
C873 C871 1.390 . S
C874 C871 1.339 . S
C874 C872 1.416 . S
C874 H881 0.930 . S
N875 Tb840 2.572 . S
N875 C876 1.340 . S
N875 C878 1.361 . S
C876 H862 0.930 . S
C876 N875 1.340 . S
C876 C880 1.407 . S
C877 C878 1.413 . S
C877 C879 1.416 . S
C877 C906 1.427 . S
C878 C870 1.424 . S
C878 N875 1.361 . S
C878 C877 1.413 . S
C879 H868 0.931 . S
C879 C877 1.416 . S
C879 C880 1.332 . S
C880 H859 0.929 . S
C880 C876 1.407 . S
C880 C879 1.332 . S
H881 C874 0.930 . S
H882 C905 0.930 . S
H883 C906 0.929 . S
O884 Tb840 2.465 . S
O884 C904 1.264 . S
O885 Tb840 2.387 . S
O885 C896 1.264 . S
O886 Tb851 2.349 . S
O886 C896 1.243 . S
O887 Tb840 2.428 . S
O887 C904 1.256 . S
O888 Tb840 2.308 . S
O888 C903 1.266 . S
O889 Tb851 2.393 . S
O889 C903 1.248 . S
O890 Tb851 2.465 . S
O890 C915 1.264 . S
O891 Tb851 2.387 . S
O891 C907 1.264 . S
O892 Tb840 2.349 . S
O892 C907 1.243 . S
O893 Tb851 2.428 . S
O893 C915 1.256 . S
O894 Tb851 2.308 . S
O894 C914 1.266 . S
O895 Tb840 2.393 . S
O895 C914 1.248 . S
C896 O885 1.264 . S
C896 O886 1.243 . S
C897 C900 1.399 . S
C897 C902 1.383 . S
C897 C904 1.496 . S
C898 C899 1.399 . S
C898 C902 1.389 1_655 S
C899 C898 1.399 . S
C899 C901 1.380 . S
C899 H916 0.929 . S
C900 C897 1.399 . S
C900 C901 1.392 1_455 S
C900 H917 0.929 . S
C901 C899 1.380 . S
C901 C900 1.392 1_655 S
C901 H918 0.929 . S
C902 C897 1.383 . S
C902 C898 1.389 1_455 S
C902 H919 0.931 . S
C903 O888 1.266 . S
C903 O889 1.248 . S
C904 Tb840 2.802 . S
C904 O884 1.264 . S
C904 O887 1.256 . S
C904 C897 1.496 . S
C905 C872 1.448 . S
C905 H882 0.930 . S
C905 C906 1.328 . S
C906 C877 1.427 . S
C906 H883 0.929 . S
C906 C905 1.328 . S
C907 O891 1.264 . S
C907 O892 1.243 . S
C908 C911 1.399 . S
C908 C912 1.383 . S
C908 C915 1.496 . S
C909 C910 1.399 . S
C909 C912 1.389 . S
C910 C909 1.399 . S
C910 C913 1.380 . S
C910 H920 0.929 . S
C911 C908 1.399 . S
C911 C913 1.392 . S
C911 H921 0.929 . S
C912 C908 1.383 . S
C912 C909 1.389 . S
C912 H922 0.931 . S
C913 C910 1.380 . S
C913 C911 1.392 . S
C913 H923 0.929 . S
C914 O894 1.266 . S
C914 O895 1.248 . S
C915 Tb851 2.802 . S
C915 O890 1.264 . S
C915 O893 1.256 . S
C915 C908 1.496 . S
H916 C899 0.929 . S
H917 C900 0.929 . S
H918 C901 0.929 . S
H919 C902 0.931 . S
H920 C910 0.929 . S
H921 C911 0.929 . S
H922 C912 0.931 . S
H923 C913 0.929 . S
Tb924 N953 2.617 . S
Tb924 N959 2.572 . S
Tb924 O968 2.465 . S
Tb924 O969 2.387 . S
Tb924 O971 2.428 . S
Tb924 O972 2.308 . S
Tb924 O976 2.349 . S
Tb924 O979 2.393 . S
Tb924 C988 2.802 . S
C925 N926 1.379 . S
C925 C928 1.416 . S
C925 C932 1.424 . S
N926 C925 1.379 . S
N926 C929 1.334 . S
N926 Tb935 2.617 . S
C927 C929 1.390 . S
C927 C930 1.339 . S
C927 H947 0.930 . S
C928 C925 1.416 . S
C928 C930 1.416 . S
C928 C934 1.448 . S
C929 N926 1.334 . S
C929 C927 1.390 . S
C929 H940 0.930 . S
C930 C927 1.339 . S
C930 C928 1.416 . S
C930 H951 0.930 . S
C931 C932 1.413 . S
C931 C933 1.427 . S
C931 C937 1.416 . S
C932 C925 1.424 . S
C932 C931 1.413 . S
C932 N936 1.361 . S
C933 C931 1.427 . S
C933 C934 1.328 . S
C933 H948 0.929 . S
C934 C928 1.448 . S
C934 C933 1.328 . S
C934 H949 0.930 . S
Tb935 N926 2.617 . S
Tb935 N936 2.572 . S
Tb935 O970 2.349 . S
Tb935 O973 2.393 . S
Tb935 O974 2.465 . S
Tb935 O975 2.387 . S
Tb935 O977 2.428 . S
Tb935 O978 2.308 . S
Tb935 C999 2.802 . S
N936 C932 1.361 . S
N936 Tb935 2.572 . S
N936 C938 1.340 . S
C937 C931 1.416 . S
C937 C939 1.332 . S
C937 H945 0.931 . S
C938 N936 1.340 . S
C938 C939 1.407 . S
C938 H944 0.930 . S
C939 C937 1.332 . S
C939 C938 1.407 . S
C939 H941 0.929 . S
H940 C929 0.930 . S
H941 C939 0.929 . S
H942 C957 0.930 . S
H943 C964 0.929 . S
H944 C938 0.930 . S
H945 C937 0.931 . S
H946 C960 0.930 . S
H947 C927 0.930 . S
H948 C933 0.929 . S
H949 C934 0.930 . S
H950 C955 0.930 . S
H951 C930 0.930 . S
H952 C963 0.931 . S
N953 Tb924 2.617 . S
N953 C954 1.379 . S
N953 C957 1.334 . S
C954 N953 1.379 . S
C954 C956 1.416 . S
C954 C962 1.424 . S
C955 H950 0.930 . S
C955 C957 1.390 . S
C955 C958 1.339 . S
C956 C954 1.416 . S
C956 C958 1.416 . S
C956 C989 1.448 . S
C957 H942 0.930 . S
C957 N953 1.334 . S
C957 C955 1.390 . S
C958 C955 1.339 . S
C958 C956 1.416 . S
C958 H965 0.930 . S
N959 Tb924 2.572 . S
N959 C960 1.340 . S
N959 C962 1.361 . S
C960 H946 0.930 . S
C960 N959 1.340 . S
C960 C964 1.407 . S
C961 C962 1.413 . S
C961 C963 1.416 . S
C961 C990 1.427 . S
C962 C954 1.424 . S
C962 N959 1.361 . S
C962 C961 1.413 . S
C963 H952 0.931 . S
C963 C961 1.416 . S
C963 C964 1.332 . S
C964 H943 0.929 . S
C964 C960 1.407 . S
C964 C963 1.332 . S
H965 C958 0.930 . S
H966 C989 0.930 . S
H967 C990 0.929 . S
O968 Tb924 2.465 . S
O968 C988 1.264 . S
O969 Tb924 2.387 . S
O969 C980 1.264 . S
O970 Tb935 2.349 . S
O970 C980 1.243 . S
O971 Tb924 2.428 . S
O971 C988 1.256 . S
O972 Tb924 2.308 . S
O972 C987 1.266 . S
O973 Tb935 2.393 . S
O973 C987 1.248 . S
O974 Tb935 2.465 . S
O974 C999 1.264 . S
O975 Tb935 2.387 . S
O975 C991 1.264 . S
O976 Tb924 2.349 . S
O976 C991 1.243 . S
O977 Tb935 2.428 . S
O977 C999 1.256 . S
O978 Tb935 2.308 . S
O978 C998 1.266 . S
O979 Tb924 2.393 . S
O979 C998 1.248 . S
C980 O969 1.264 . S
C980 O970 1.243 . S
C981 C984 1.399 . S
C981 C986 1.383 . S
C981 C988 1.496 . S
C982 C983 1.399 . S
C982 C986 1.389 1_565 S
C983 C982 1.399 . S
C983 C985 1.380 . S
C983 H1000 0.929 . S
C984 C981 1.399 . S
C984 C985 1.392 1_545 S
C984 H1001 0.929 . S
C985 C983 1.380 . S
C985 C984 1.392 1_565 S
C985 H1002 0.929 . S
C986 C981 1.383 . S
C986 C982 1.389 1_545 S
C986 H1003 0.931 . S
C987 O972 1.266 . S
C987 O973 1.248 . S
C988 Tb924 2.802 . S
C988 O968 1.264 . S
C988 O971 1.256 . S
C988 C981 1.496 . S
C989 C956 1.448 . S
C989 H966 0.930 . S
C989 C990 1.328 . S
C990 C961 1.427 . S
C990 H967 0.929 . S
C990 C989 1.328 . S
C991 O975 1.264 . S
C991 O976 1.243 . S
C992 C995 1.399 . S
C992 C996 1.383 . S
C992 C999 1.496 . S
C993 C994 1.399 . S
C993 C996 1.389 . S
C994 C993 1.399 . S
C994 C997 1.380 . S
C994 H1004 0.929 . S
C995 C992 1.399 . S
C995 C997 1.392 . S
C995 H1005 0.929 . S
C996 C992 1.383 . S
C996 C993 1.389 . S
C996 H1006 0.931 . S
C997 C994 1.380 . S
C997 C995 1.392 . S
C997 H1007 0.929 . S
C998 O978 1.266 . S
C998 O979 1.248 . S
C999 Tb935 2.802 . S
C999 O974 1.264 . S
C999 O977 1.256 . S
C999 C992 1.496 . S
H1000 C983 0.929 . S
H1001 C984 0.929 . S
H1002 C985 0.929 . S
H1003 C986 0.931 . S
H1004 C994 0.929 . S
H1005 C995 0.929 . S
H1006 C996 0.931 . S
H1007 C997 0.929 . S
H1008 C1026 0.951 . S
H1009 C1028 0.951 . S
H1010 C1030 0.950 . S
H1011 C1031 0.950 . S
H1012 C1033 0.947 1_565 S
H1013 C1036 0.950 . S
H1014 C1037 0.950 . S
H1015 C1039 0.950 . S
H1016 C1040 0.950 . S
H1017 C1041 0.951 . S
H1018 C1043 0.951 . S
H1019 C1045 0.950 . S
H1020 C1046 0.950 . S
H1021 C1048 0.950 . S
H1022 C1051 0.950 . S
H1023 C1052 0.950 . S
H1024 C1054 0.950 . S
H1025 C1055 0.950 . S
C1026 H1008 0.951 . S
C1026 C1027 1.366 . S
C1026 C1028 1.388 . S
C1027 C1026 1.366 . S
C1027 C1031 1.385 . S
C1028 H1009 0.951 . S
C1028 C1026 1.388 . S
C1028 C1029 1.366 . S
C1029 C1028 1.366 . S
C1029 C1030 1.414 . S
C1029 C1032 1.499 . S
C1030 H1010 0.950 . S
C1030 C1029 1.414 . S
C1030 C1031 1.374 . S
C1031 H1011 0.950 . S
C1031 C1027 1.385 . S
C1031 C1030 1.374 . S
C1032 C1029 1.499 . S
C1032 C1033 1.373 1_565 S
C1032 C1034 1.389 1_565 S
C1033 H1012 0.947 1_545 S
C1033 C1032 1.373 1_545 S
C1033 C1049 1.377 . S
C1034 C1032 1.389 1_545 S
C1034 C1035 1.524 1_545 S
C1034 C1048 1.377 . S
C1035 C1034 1.524 1_565 S
C1035 C1036 1.397 . S
C1035 C1040 1.363 . S
C1036 H1013 0.950 . S
C1036 C1035 1.397 . S
C1036 C1037 1.334 . S
C1037 H1014 0.950 . S
C1037 C1036 1.334 . S
C1037 C1038 1.287 . S
C1038 C1037 1.287 . S
C1038 C1039 1.524 . S
C1038 H1057 0.913 . S
C1039 H1015 0.950 . S
C1039 C1038 1.524 . S
C1039 C1040 1.415 . S
C1040 H1016 0.950 . S
C1040 C1035 1.363 . S
C1040 C1039 1.415 . S
C1041 H1017 0.951 . S
C1041 C1042 1.366 . S
C1041 C1043 1.388 . S
C1042 C1041 1.366 . S
C1042 C1046 1.385 . S
C1043 H1018 0.951 . S
C1043 C1041 1.388 . S
C1043 C1044 1.366 . S
C1044 C1043 1.366 . S
C1044 C1045 1.414 . S
C1044 C1047 1.499 . S
C1045 H1019 0.950 . S
C1045 C1044 1.414 . S
C1045 C1046 1.374 . S
C1046 H1020 0.950 . S
C1046 C1042 1.385 . S
C1046 C1045 1.374 . S
C1047 C1044 1.499 . S
C1047 C1048 1.373 . S
C1047 C1049 1.389 . S
C1048 H1021 0.950 . S
C1048 C1034 1.377 . S
C1048 C1047 1.373 . S
C1049 C1033 1.377 . S
C1049 C1047 1.389 . S
C1049 C1050 1.524 . S
C1050 C1049 1.524 . S
C1050 C1051 1.397 . S
C1050 C1055 1.363 . S
C1051 H1022 0.950 . S
C1051 C1050 1.397 . S
C1051 C1052 1.334 . S
C1052 H1023 0.950 . S
C1052 C1051 1.334 . S
C1052 C1053 1.287 . S
C1053 C1052 1.287 . S
C1053 C1054 1.524 . S
C1053 H1056 0.999 . S
C1054 H1024 0.950 . S
C1054 C1053 1.524 . S
C1054 C1055 1.415 . S
C1055 H1025 0.950 . S
C1055 C1050 1.363 . S
C1055 C1054 1.415 . S
H1056 C1053 0.999 . S
H1057 C1038 0.913 . S
H1058 C1076 0.951 . S
H1059 C1078 0.951 . S
H1060 C1080 0.950 . S
H1061 C1081 0.950 . S
H1062 C1083 0.950 . S
H1063 C1086 0.950 . S
H1064 C1087 0.950 . S
H1065 C1089 0.950 . S
H1066 C1090 0.950 . S
H1067 C1091 0.951 . S
H1068 C1093 0.951 . S
H1069 C1095 0.950 . S
H1070 C1096 0.950 . S
H1071 C1098 0.950 . S
H1072 C1101 0.950 . S
H1073 C1102 0.950 . S
H1074 C1104 0.950 . S
H1075 C1105 0.950 . S
C1076 H1058 0.951 . S
C1076 C1077 1.366 . S
C1076 C1078 1.388 . S
C1077 C1076 1.366 . S
C1077 C1081 1.385 . S
C1078 H1059 0.951 . S
C1078 C1076 1.388 . S
C1078 C1079 1.366 . S
C1079 C1078 1.366 . S
C1079 C1080 1.414 . S
C1079 C1082 1.499 . S
C1080 H1060 0.950 . S
C1080 C1079 1.414 . S
C1080 C1081 1.374 . S
C1081 H1061 0.950 . S
C1081 C1077 1.385 . S
C1081 C1080 1.374 . S
C1082 C1079 1.499 . S
C1082 C1083 1.373 . S
C1082 C1084 1.389 . S
C1083 H1062 0.950 . S
C1083 C1082 1.373 . S
C1083 C1099 1.377 . S
C1084 C1082 1.389 . S
C1084 C1085 1.524 . S
C1084 C1098 1.377 . S
C1085 C1084 1.524 . S
C1085 C1086 1.397 . S
C1085 C1090 1.363 . S
C1086 H1063 0.950 . S
C1086 C1085 1.397 . S
C1086 C1087 1.334 . S
C1087 H1064 0.950 . S
C1087 C1086 1.334 . S
C1087 C1088 1.287 . S
C1088 C1087 1.287 . S
C1088 C1089 1.524 . S
C1088 H1107 0.913 . S
C1089 H1065 0.950 . S
C1089 C1088 1.524 . S
C1089 C1090 1.415 . S
C1090 H1066 0.950 . S
C1090 C1085 1.363 . S
C1090 C1089 1.415 . S
C1091 H1067 0.951 . S
C1091 C1092 1.366 . S
C1091 C1093 1.388 . S
C1092 C1091 1.366 . S
C1092 C1096 1.385 . S
C1093 H1068 0.951 . S
C1093 C1091 1.388 . S
C1093 C1094 1.366 . S
C1094 C1093 1.366 . S
C1094 C1095 1.414 . S
C1094 C1097 1.499 . S
C1095 H1069 0.950 . S
C1095 C1094 1.414 . S
C1095 C1096 1.374 . S
C1096 H1070 0.950 . S
C1096 C1092 1.385 . S
C1096 C1095 1.374 . S
C1097 C1094 1.499 . S
C1097 C1098 1.373 . S
C1097 C1099 1.389 . S
C1098 H1071 0.950 . S
C1098 C1084 1.377 . S
C1098 C1097 1.373 . S
C1099 C1083 1.377 . S
C1099 C1097 1.389 . S
C1099 C1100 1.524 . S
C1100 C1099 1.524 . S
C1100 C1101 1.397 . S
C1100 C1105 1.363 . S
C1101 H1072 0.950 . S
C1101 C1100 1.397 . S
C1101 C1102 1.334 . S
C1102 H1073 0.950 . S
C1102 C1101 1.334 . S
C1102 C1103 1.287 . S
C1103 C1102 1.287 . S
C1103 C1104 1.524 . S
C1103 H1106 0.999 . S
C1104 H1074 0.950 . S
C1104 C1103 1.524 . S
C1104 C1105 1.415 . S
C1105 H1075 0.950 . S
C1105 C1100 1.363 . S
C1105 C1104 1.415 . S
H1106 C1103 0.999 . S
H1107 C1088 0.913 . S
H1108 C1126 0.951 . S
H1109 C1128 0.951 . S
H1110 C1130 0.950 . S
H1111 C1131 0.950 . S
H1112 C1133 0.950 . S
H1113 C1136 0.950 . S
H1114 C1137 0.950 . S
H1115 C1139 0.950 . S
H1116 C1140 0.950 . S
H1117 C1141 0.951 . S
H1118 C1143 0.951 . S
H1119 C1145 0.950 . S
H1120 C1146 0.950 . S
H1121 C1148 0.950 . S
H1122 C1151 0.933 1_455 S
H1123 C1152 0.950 . S
H1124 C1154 0.950 . S
H1125 C1155 0.950 . S
C1126 H1108 0.951 . S
C1126 C1127 1.366 . S
C1126 C1128 1.388 . S
C1127 C1126 1.366 . S
C1127 C1131 1.385 . S
C1128 H1109 0.951 . S
C1128 C1126 1.388 . S
C1128 C1129 1.366 . S
C1129 C1128 1.366 . S
C1129 C1130 1.414 . S
C1129 C1132 1.499 . S
C1130 H1110 0.950 . S
C1130 C1129 1.414 . S
C1130 C1131 1.374 . S
C1131 H1111 0.950 . S
C1131 C1127 1.385 . S
C1131 C1130 1.374 . S
C1132 C1129 1.499 . S
C1132 C1133 1.373 . S
C1132 C1134 1.389 . S
C1133 H1112 0.950 . S
C1133 C1132 1.373 . S
C1133 C1149 1.377 . S
C1134 C1132 1.389 . S
C1134 C1135 1.524 . S
C1134 C1148 1.377 1_655 S
C1135 C1134 1.524 . S
C1135 C1136 1.397 . S
C1135 C1140 1.363 . S
C1136 H1113 0.950 . S
C1136 C1135 1.397 . S
C1136 C1137 1.334 . S
C1137 H1114 0.950 . S
C1137 C1136 1.334 . S
C1137 C1138 1.287 . S
C1138 C1137 1.287 . S
C1138 C1139 1.524 . S
C1138 H1157 0.913 . S
C1139 H1115 0.950 . S
C1139 C1138 1.524 . S
C1139 C1140 1.415 . S
C1140 H1116 0.950 . S
C1140 C1135 1.363 . S
C1140 C1139 1.415 . S
C1141 H1117 0.951 . S
C1141 C1142 1.366 . S
C1141 C1143 1.388 . S
C1142 C1141 1.366 . S
C1142 C1146 1.385 . S
C1143 H1118 0.951 . S
C1143 C1141 1.388 . S
C1143 C1144 1.366 . S
C1144 C1143 1.366 . S
C1144 C1145 1.414 . S
C1144 C1147 1.499 . S
C1145 H1119 0.950 . S
C1145 C1144 1.414 . S
C1145 C1146 1.374 . S
C1146 H1120 0.950 . S
C1146 C1142 1.385 . S
C1146 C1145 1.374 . S
C1147 C1144 1.499 . S
C1147 C1148 1.373 . S
C1147 C1149 1.389 1_455 S
C1148 H1121 0.950 . S
C1148 C1134 1.377 1_455 S
C1148 C1147 1.373 . S
C1149 C1133 1.377 . S
C1149 C1147 1.389 1_655 S
C1149 C1150 1.524 . S
C1150 C1149 1.524 . S
C1150 C1151 1.397 . S
C1150 C1155 1.363 . S
C1151 H1122 0.933 1_655 S
C1151 C1150 1.397 . S
C1151 C1152 1.352 1_655 S
C1152 H1123 0.950 . S
C1152 C1151 1.352 1_455 S
C1152 C1153 1.287 1_455 S
C1153 C1152 1.287 1_655 S
C1153 C1154 1.524 . S
C1153 H1156 0.999 . S
C1154 H1124 0.950 . S
C1154 C1153 1.524 . S
C1154 C1155 1.415 . S
C1155 H1125 0.950 . S
C1155 C1150 1.363 . S
C1155 C1154 1.415 . S
H1156 C1153 0.999 . S
H1157 C1138 0.913 . S
H1158 C1176 0.951 . S
H1159 C1178 0.951 . S
H1160 C1180 0.950 . S
H1161 C1181 0.950 . S
H1162 C1183 0.950 . S
H1163 C1186 0.950 . S
H1164 C1187 0.950 . S
H1165 C1189 0.950 . S
H1166 C1190 0.950 . S
H1167 C1191 0.951 . S
H1168 C1193 0.951 . S
H1169 C1195 0.950 . S
H1170 C1196 0.950 . S
H1171 C1198 0.950 . S
H1172 C1201 0.946 1_545 S
H1173 C1202 0.950 . S
H1174 C1204 0.950 . S
H1175 C1205 0.950 . S
C1176 H1158 0.951 . S
C1176 C1177 1.366 . S
C1176 C1178 1.388 . S
C1177 C1176 1.366 . S
C1177 C1181 1.385 . S
C1178 H1159 0.951 . S
C1178 C1176 1.388 . S
C1178 C1179 1.366 . S
C1179 C1178 1.366 . S
C1179 C1180 1.414 . S
C1179 C1182 1.499 . S
C1180 H1160 0.950 . S
C1180 C1179 1.414 . S
C1180 C1181 1.374 . S
C1181 H1161 0.950 . S
C1181 C1177 1.385 . S
C1181 C1180 1.374 . S
C1182 C1179 1.499 . S
C1182 C1183 1.373 . S
C1182 C1184 1.389 . S
C1183 H1162 0.950 . S
C1183 C1182 1.373 . S
C1183 C1199 1.377 . S
C1184 C1182 1.389 . S
C1184 C1185 1.524 . S
C1184 C1198 1.377 1_565 S
C1185 C1184 1.524 . S
C1185 C1186 1.397 . S
C1185 C1190 1.363 . S
C1186 H1163 0.950 . S
C1186 C1185 1.397 . S
C1186 C1187 1.334 . S
C1187 H1164 0.950 . S
C1187 C1186 1.334 . S
C1187 C1188 1.287 . S
C1188 C1187 1.287 . S
C1188 C1189 1.524 . S
C1188 H1207 0.913 . S
C1189 H1165 0.950 . S
C1189 C1188 1.524 . S
C1189 C1190 1.415 . S
C1190 H1166 0.950 . S
C1190 C1185 1.363 . S
C1190 C1189 1.415 . S
C1191 H1167 0.951 . S
C1191 C1192 1.366 . S
C1191 C1193 1.388 . S
C1192 C1191 1.366 . S
C1192 C1196 1.385 . S
C1193 H1168 0.951 . S
C1193 C1191 1.388 . S
C1193 C1194 1.366 . S
C1194 C1193 1.366 . S
C1194 C1195 1.414 . S
C1194 C1197 1.499 . S
C1195 H1169 0.950 . S
C1195 C1194 1.414 . S
C1195 C1196 1.374 . S
C1196 H1170 0.950 . S
C1196 C1192 1.385 . S
C1196 C1195 1.374 . S
C1197 C1194 1.499 . S
C1197 C1198 1.373 . S
C1197 C1199 1.389 1_545 S
C1198 H1171 0.950 . S
C1198 C1184 1.377 1_545 S
C1198 C1197 1.373 . S
C1199 C1183 1.377 . S
C1199 C1197 1.389 1_565 S
C1199 C1200 1.524 . S
C1200 C1199 1.524 . S
C1200 C1201 1.415 . S
C1200 C1205 1.363 . S
C1201 H1172 0.946 1_565 S
C1201 C1200 1.415 . S
C1201 C1202 1.320 1_565 S
C1202 H1173 0.950 . S
C1202 C1201 1.320 1_545 S
C1202 C1203 1.287 1_545 S
C1203 C1202 1.287 1_565 S
C1203 C1204 1.524 . S
C1203 H1206 0.999 . S
C1204 H1174 0.950 . S
C1204 C1203 1.524 . S
C1204 C1205 1.415 . S
C1205 H1175 0.950 . S
C1205 C1200 1.363 . S
C1205 C1204 1.415 . S
H1206 C1203 0.999 . S
H1207 C1188 0.913 . S
H1208 C1226 0.951 . S
H1209 C1228 0.951 . S
H1210 C1230 0.950 . S
H1211 C1231 0.950 . S
H1212 C1233 0.950 . S
H1213 C1236 0.950 . S
H1214 C1237 0.950 . S
H1215 C1239 0.950 . S
H1216 C1240 0.950 . S
H1217 C1241 0.951 . S
H1218 C1243 0.951 . S
H1219 C1245 0.950 . S
H1220 C1246 0.950 . S
H1221 C1248 0.950 . S
H1222 C1251 0.950 . S
H1223 C1252 0.950 . S
H1224 C1254 0.950 . S
H1225 C1255 0.950 . S
C1226 H1208 0.951 . S
C1226 C1227 1.366 . S
C1226 C1228 1.388 . S
C1227 C1226 1.366 . S
C1227 C1231 1.385 . S
C1228 H1209 0.951 . S
C1228 C1226 1.388 . S
C1228 C1229 1.366 . S
C1229 C1228 1.366 . S
C1229 C1230 1.414 . S
C1229 C1232 1.499 . S
C1230 H1210 0.950 . S
C1230 C1229 1.414 . S
C1230 C1231 1.374 . S
C1231 H1211 0.950 . S
C1231 C1227 1.385 . S
C1231 C1230 1.374 . S
C1232 C1229 1.499 . S
C1232 C1233 1.373 . S
C1232 C1234 1.389 . S
C1233 H1212 0.950 . S
C1233 C1232 1.373 . S
C1233 C1249 1.377 . S
C1234 C1232 1.389 . S
C1234 C1235 1.524 . S
C1234 C1248 1.377 . S
C1235 C1234 1.524 . S
C1235 C1236 1.397 . S
C1235 C1240 1.363 . S
C1236 H1213 0.950 . S
C1236 C1235 1.397 . S
C1236 C1237 1.334 . S
C1237 H1214 0.950 . S
C1237 C1236 1.334 . S
C1237 C1238 1.287 . S
C1238 C1237 1.287 . S
C1238 C1239 1.524 . S
C1238 H1257 0.913 . S
C1239 H1215 0.950 . S
C1239 C1238 1.524 . S
C1239 C1240 1.415 . S
C1240 H1216 0.950 . S
C1240 C1235 1.363 . S
C1240 C1239 1.415 . S
C1241 H1217 0.951 . S
C1241 C1242 1.366 . S
C1241 C1243 1.388 . S
C1242 C1241 1.366 . S
C1242 C1246 1.385 . S
C1243 H1218 0.951 . S
C1243 C1241 1.388 . S
C1243 C1244 1.366 . S
C1244 C1243 1.366 . S
C1244 C1245 1.414 . S
C1244 C1247 1.499 . S
C1245 H1219 0.950 . S
C1245 C1244 1.414 . S
C1245 C1246 1.374 . S
C1246 H1220 0.950 . S
C1246 C1242 1.385 . S
C1246 C1245 1.374 . S
C1247 C1244 1.499 . S
C1247 C1248 1.373 . S
C1247 C1249 1.389 . S
C1248 H1221 0.950 . S
C1248 C1234 1.377 . S
C1248 C1247 1.373 . S
C1249 C1233 1.377 . S
C1249 C1247 1.389 . S
C1249 C1250 1.524 . S
C1250 C1249 1.524 . S
C1250 C1251 1.397 . S
C1250 C1255 1.363 . S
C1251 H1222 0.950 . S
C1251 C1250 1.397 . S
C1251 C1252 1.334 . S
C1252 H1223 0.950 . S
C1252 C1251 1.334 . S
C1252 C1253 1.287 . S
C1253 C1252 1.287 . S
C1253 C1254 1.524 . S
C1253 H1256 0.999 . S
C1254 H1224 0.950 . S
C1254 C1253 1.524 . S
C1254 C1255 1.415 . S
C1255 H1225 0.950 . S
C1255 C1250 1.363 . S
C1255 C1254 1.415 . S
H1256 C1253 0.999 . S
H1257 C1238 0.913 . S
H1258 C1276 0.951 . S
H1259 C1278 0.951 . S
H1260 C1280 0.950 . S
H1261 C1281 0.950 . S
H1262 C1283 0.950 . S
H1263 C1286 0.950 . S
H1264 C1287 0.950 . S
H1265 C1289 0.950 . S
H1266 C1290 0.950 . S
H1267 C1291 0.951 . S
H1268 C1293 0.951 . S
H1269 C1295 0.950 . S
H1270 C1296 0.950 . S
H1271 C1298 0.950 . S
H1272 C1301 0.950 . S
H1273 C1302 0.950 . S
H1274 C1304 0.950 . S
H1275 C1305 0.950 . S
C1276 H1258 0.951 . S
C1276 C1277 1.366 . S
C1276 C1278 1.388 . S
C1277 C1276 1.366 . S
C1277 C1281 1.385 . S
C1278 H1259 0.951 . S
C1278 C1276 1.388 . S
C1278 C1279 1.366 . S
C1279 C1278 1.366 . S
C1279 C1280 1.414 . S
C1279 C1282 1.499 . S
C1280 H1260 0.950 . S
C1280 C1279 1.414 . S
C1280 C1281 1.374 . S
C1281 H1261 0.950 . S
C1281 C1277 1.385 . S
C1281 C1280 1.374 . S
C1282 C1279 1.499 . S
C1282 C1283 1.373 1_655 S
C1282 C1284 1.389 . S
C1283 H1262 0.950 . S
C1283 C1282 1.373 1_455 S
C1283 C1299 1.377 . S
C1284 C1282 1.389 . S
C1284 C1285 1.524 . S
C1284 C1298 1.377 1_655 S
C1285 C1284 1.524 . S
C1285 C1286 1.397 . S
C1285 C1290 1.363 . S
C1286 H1263 0.950 . S
C1286 C1285 1.397 . S
C1286 C1287 1.334 . S
C1287 H1264 0.950 . S
C1287 C1286 1.334 . S
C1287 C1288 1.287 . S
C1288 C1287 1.287 . S
C1288 C1289 1.524 . S
C1288 H1307 0.913 . S
C1289 H1265 0.950 . S
C1289 C1288 1.524 . S
C1289 C1290 1.415 . S
C1290 H1266 0.950 . S
C1290 C1285 1.363 . S
C1290 C1289 1.415 . S
C1291 H1267 0.951 . S
C1291 C1292 1.366 . S
C1291 C1293 1.388 . S
C1292 C1291 1.366 . S
C1292 C1296 1.385 . S
C1293 H1268 0.951 . S
C1293 C1291 1.388 . S
C1293 C1294 1.366 . S
C1294 C1293 1.366 . S
C1294 C1295 1.414 . S
C1294 C1297 1.499 . S
C1295 H1269 0.950 . S
C1295 C1294 1.414 . S
C1295 C1296 1.374 . S
C1296 H1270 0.950 . S
C1296 C1292 1.385 . S
C1296 C1295 1.374 . S
C1297 C1294 1.499 . S
C1297 C1298 1.373 . S
C1297 C1299 1.389 . S
C1298 H1271 0.950 . S
C1298 C1284 1.377 1_455 S
C1298 C1297 1.373 . S
C1299 C1283 1.377 . S
C1299 C1297 1.389 . S
C1299 C1300 1.524 . S
C1300 C1299 1.524 . S
C1300 C1301 1.397 . S
C1300 C1305 1.363 . S
C1301 H1272 0.950 . S
C1301 C1300 1.397 . S
C1301 C1302 1.334 . S
C1302 H1273 0.950 . S
C1302 C1301 1.334 . S
C1302 C1303 1.287 . S
C1303 C1302 1.287 . S
C1303 C1304 1.524 . S
C1303 H1306 0.999 . S
C1304 H1274 0.950 . S
C1304 C1303 1.524 . S
C1304 C1305 1.415 . S
C1305 H1275 0.950 . S
C1305 C1300 1.363 . S
C1305 C1304 1.415 . S
H1306 C1303 0.999 . S
H1307 C1288 0.913 . S
H1308 C1326 0.951 . S
H1309 C1328 0.951 . S
H1310 C1330 0.950 . S
H1311 C1331 0.950 . S
H1312 C1333 0.954 . S
H1313 C1336 0.950 . S
H1314 C1337 0.950 . S
H1315 C1339 0.950 . S
H1316 C1340 0.950 . S
H1317 C1341 0.951 . S
H1318 C1343 0.951 . S
H1319 C1345 0.950 . S
H1320 C1346 0.950 . S
H1321 C1348 0.950 . S
H1322 C1351 0.950 . S
H1323 C1352 0.950 . S
H1324 C1354 0.950 . S
H1325 C1355 0.950 . S
C1326 H1308 0.951 . S
C1326 C1327 1.366 . S
C1326 C1328 1.388 . S
C1327 C1326 1.366 . S
C1327 C1331 1.385 . S
C1328 H1309 0.951 . S
C1328 C1326 1.388 . S
C1328 C1329 1.366 . S
C1329 C1328 1.366 . S
C1329 C1330 1.414 . S
C1329 C1332 1.499 . S
C1330 H1310 0.950 . S
C1330 C1329 1.414 . S
C1330 C1331 1.374 . S
C1331 H1311 0.950 . S
C1331 C1327 1.385 . S
C1331 C1330 1.374 . S
C1332 C1329 1.499 . S
C1332 C1333 1.378 . S
C1332 C1334 1.389 1_455 S
C1333 H1312 0.954 . S
C1333 C1332 1.378 . S
C1333 C1349 1.368 1_455 S
C1334 C1332 1.389 1_655 S
C1334 C1335 1.524 . S
C1334 C1348 1.377 . S
C1335 C1334 1.524 . S
C1335 C1336 1.397 1_655 S
C1335 C1340 1.363 . S
C1336 H1313 0.950 . S
C1336 C1335 1.397 1_455 S
C1336 C1337 1.334 . S
C1337 H1314 0.950 . S
C1337 C1336 1.334 . S
C1337 C1338 1.287 . S
C1338 C1337 1.287 . S
C1338 C1339 1.524 1_455 S
C1338 H1357 0.913 . S
C1339 H1315 0.950 . S
C1339 C1338 1.524 1_655 S
C1339 C1340 1.415 . S
C1340 H1316 0.950 . S
C1340 C1335 1.363 . S
C1340 C1339 1.415 . S
C1341 H1317 0.951 . S
C1341 C1342 1.366 . S
C1341 C1343 1.388 . S
C1342 C1341 1.366 . S
C1342 C1346 1.385 . S
C1343 H1318 0.951 . S
C1343 C1341 1.388 . S
C1343 C1344 1.366 . S
C1344 C1343 1.366 . S
C1344 C1345 1.414 . S
C1344 C1347 1.499 . S
C1345 H1319 0.950 . S
C1345 C1344 1.414 . S
C1345 C1346 1.374 . S
C1346 H1320 0.950 . S
C1346 C1342 1.385 . S
C1346 C1345 1.374 . S
C1347 C1344 1.499 . S
C1347 C1348 1.373 . S
C1347 C1349 1.389 . S
C1348 H1321 0.950 . S
C1348 C1334 1.377 . S
C1348 C1347 1.373 . S
C1349 C1333 1.368 1_655 S
C1349 C1347 1.389 . S
C1349 C1350 1.524 . S
C1350 C1349 1.524 . S
C1350 C1351 1.397 . S
C1350 C1355 1.363 . S
C1351 H1322 0.950 . S
C1351 C1350 1.397 . S
C1351 C1352 1.334 . S
C1352 H1323 0.950 . S
C1352 C1351 1.334 . S
C1352 C1353 1.287 . S
C1353 C1352 1.287 . S
C1353 C1354 1.524 . S
C1353 H1356 0.999 . S
C1354 H1324 0.950 . S
C1354 C1353 1.524 . S
C1354 C1355 1.415 . S
C1355 H1325 0.950 . S
C1355 C1350 1.363 . S
C1355 C1354 1.415 . S
H1356 C1353 0.999 . S
H1357 C1338 0.913 . S
H1358 C1376 0.951 . S
H1359 C1378 0.951 . S
H1360 C1380 0.950 . S
H1361 C1381 0.950 . S
H1362 C1383 0.950 . S
H1363 C1386 0.950 . S
H1364 C1387 0.950 . S
H1365 C1389 0.950 . S
H1366 C1390 0.950 . S
H1367 C1391 0.951 . S
H1368 C1393 0.951 . S
H1369 C1395 0.950 . S
H1370 C1396 0.950 . S
H1371 C1398 0.950 . S
H1372 C1401 0.950 . S
H1373 C1402 0.950 . S
H1374 C1404 0.950 . S
H1375 C1405 0.950 . S
C1376 H1358 0.951 . S
C1376 C1377 1.366 . S
C1376 C1378 1.388 . S
C1377 C1376 1.366 . S
C1377 C1381 1.385 . S
C1378 H1359 0.951 . S
C1378 C1376 1.388 . S
C1378 C1379 1.366 . S
C1379 C1378 1.366 . S
C1379 C1380 1.414 . S
C1379 C1382 1.499 . S
C1380 H1360 0.950 . S
C1380 C1379 1.414 . S
C1380 C1381 1.374 . S
C1381 H1361 0.950 . S
C1381 C1377 1.385 . S
C1381 C1380 1.374 . S
C1382 C1379 1.499 . S
C1382 C1383 1.373 . S
C1382 C1384 1.389 . S
C1383 H1362 0.950 . S
C1383 C1382 1.373 . S
C1383 C1399 1.377 1_565 S
C1384 C1382 1.389 . S
C1384 C1385 1.524 . S
C1384 C1398 1.377 . S
C1385 C1384 1.524 . S
C1385 C1386 1.397 . S
C1385 C1390 1.363 . S
C1386 H1363 0.950 . S
C1386 C1385 1.397 . S
C1386 C1387 1.334 . S
C1387 H1364 0.950 . S
C1387 C1386 1.334 . S
C1387 C1388 1.287 . S
C1388 C1387 1.287 . S
C1388 C1389 1.524 . S
C1388 H1407 0.913 . S
C1389 H1365 0.950 . S
C1389 C1388 1.524 . S
C1389 C1390 1.415 . S
C1390 H1366 0.950 . S
C1390 C1385 1.363 . S
C1390 C1389 1.415 . S
C1391 H1367 0.951 . S
C1391 C1392 1.366 . S
C1391 C1393 1.388 . S
C1392 C1391 1.366 . S
C1392 C1396 1.385 . S
C1393 H1368 0.951 . S
C1393 C1391 1.388 . S
C1393 C1394 1.366 . S
C1394 C1393 1.366 . S
C1394 C1395 1.414 . S
C1394 C1397 1.499 . S
C1395 H1369 0.950 . S
C1395 C1394 1.414 . S
C1395 C1396 1.374 . S
C1396 H1370 0.950 . S
C1396 C1392 1.385 . S
C1396 C1395 1.374 . S
C1397 C1394 1.499 . S
C1397 C1398 1.373 1_545 S
C1397 C1399 1.389 . S
C1398 H1371 0.950 . S
C1398 C1384 1.377 . S
C1398 C1397 1.373 1_565 S
C1399 C1383 1.377 1_545 S
C1399 C1397 1.389 . S
C1399 C1400 1.524 . S
C1400 C1399 1.524 . S
C1400 C1401 1.397 . S
C1400 C1405 1.363 . S
C1401 H1372 0.950 . S
C1401 C1400 1.397 . S
C1401 C1402 1.334 . S
C1402 H1373 0.950 . S
C1402 C1401 1.334 . S
C1402 C1403 1.287 . S
C1403 C1402 1.287 . S
C1403 C1404 1.524 . S
C1403 H1406 0.999 . S
C1404 H1374 0.950 . S
C1404 C1403 1.524 . S
C1404 C1405 1.415 . S
C1405 H1375 0.950 . S
C1405 C1400 1.363 . S
C1405 C1404 1.415 . S
H1406 C1403 0.999 . S
H1407 C1388 0.913 . S
H1408 C1426 0.951 . S
H1409 C1428 0.951 . S
H1410 C1430 0.950 . S
H1411 C1431 0.950 . S
H1412 C1433 0.950 . S
H1413 C1436 0.950 . S
H1414 C1437 0.950 . S
H1415 C1439 0.950 . S
H1416 C1440 0.950 . S
H1417 C1441 0.951 . S
H1418 C1443 0.951 . S
H1419 C1445 0.950 . S
H1420 C1446 0.950 . S
H1421 C1448 0.950 . S
H1422 C1451 0.950 . S
H1423 C1452 0.950 . S
H1424 C1454 0.950 . S
H1425 C1455 0.950 . S
C1426 H1408 0.951 . S
C1426 C1427 1.366 . S
C1426 C1428 1.388 . S
C1427 C1426 1.366 . S
C1427 C1431 1.385 . S
C1428 H1409 0.951 . S
C1428 C1426 1.388 . S
C1428 C1429 1.366 . S
C1429 C1428 1.366 . S
C1429 C1430 1.414 . S
C1429 C1432 1.499 . S
C1430 H1410 0.950 . S
C1430 C1429 1.414 . S
C1430 C1431 1.374 . S
C1431 H1411 0.950 . S
C1431 C1427 1.385 . S
C1431 C1430 1.374 . S
C1432 C1429 1.499 . S
C1432 C1433 1.373 . S
C1432 C1434 1.389 . S
C1433 H1412 0.950 . S
C1433 C1432 1.373 . S
C1433 C1449 1.377 . S
C1434 C1432 1.389 . S
C1434 C1435 1.524 . S
C1434 C1448 1.377 . S
C1435 C1434 1.524 . S
C1435 C1436 1.397 . S
C1435 C1440 1.363 . S
C1436 H1413 0.950 . S
C1436 C1435 1.397 . S
C1436 C1437 1.334 . S
C1437 H1414 0.950 . S
C1437 C1436 1.334 . S
C1437 C1438 1.287 . S
C1438 C1437 1.287 . S
C1438 C1439 1.524 . S
C1438 H1457 0.913 . S
C1439 H1415 0.950 . S
C1439 C1438 1.524 . S
C1439 C1440 1.415 . S
C1440 H1416 0.950 . S
C1440 C1435 1.363 . S
C1440 C1439 1.415 . S
C1441 H1417 0.951 . S
C1441 C1442 1.366 . S
C1441 C1443 1.388 . S
C1442 C1441 1.366 . S
C1442 C1446 1.385 . S
C1443 H1418 0.951 . S
C1443 C1441 1.388 . S
C1443 C1444 1.366 . S
C1444 C1443 1.366 . S
C1444 C1445 1.414 . S
C1444 C1447 1.499 . S
C1445 H1419 0.950 . S
C1445 C1444 1.414 . S
C1445 C1446 1.374 . S
C1446 H1420 0.950 . S
C1446 C1442 1.385 . S
C1446 C1445 1.374 . S
C1447 C1444 1.499 . S
C1447 C1448 1.373 . S
C1447 C1449 1.389 . S
C1448 H1421 0.950 . S
C1448 C1434 1.377 . S
C1448 C1447 1.373 . S
C1449 C1433 1.377 . S
C1449 C1447 1.389 . S
C1449 C1450 1.524 . S
C1450 C1449 1.524 . S
C1450 C1451 1.397 . S
C1450 C1455 1.363 . S
C1451 H1422 0.950 . S
C1451 C1450 1.397 . S
C1451 C1452 1.334 . S
C1452 H1423 0.950 . S
C1452 C1451 1.334 . S
C1452 C1453 1.287 . S
C1453 C1452 1.287 . S
C1453 C1454 1.524 . S
C1453 H1456 0.999 . S
C1454 H1424 0.950 . S
C1454 C1453 1.524 . S
C1454 C1455 1.415 . S
C1455 H1425 0.950 . S
C1455 C1450 1.363 . S
C1455 C1454 1.415 . S
H1456 C1453 0.999 . S
H1457 C1438 0.913 . S
H1458 C1476 0.951 . S
H1459 C1478 0.951 . S
H1460 C1480 0.950 . S
H1461 C1481 0.950 . S
H1462 C1483 0.950 . S
H1463 C1486 0.950 . S
H1464 C1487 0.950 . S
H1465 C1489 0.950 . S
H1466 C1490 0.950 . S
H1467 C1491 0.951 . S
H1468 C1493 0.951 . S
H1469 C1495 0.950 . S
H1470 C1496 0.950 . S
H1471 C1498 0.938 1_655 S
H1472 C1501 0.950 . S
H1473 C1502 0.950 . S
H1474 C1504 0.950 . S
H1475 C1505 0.950 . S
C1476 H1458 0.951 . S
C1476 C1477 1.366 . S
C1476 C1478 1.388 . S
C1477 C1476 1.366 . S
C1477 C1481 1.385 . S
C1478 H1459 0.951 . S
C1478 C1476 1.388 . S
C1478 C1479 1.366 . S
C1479 C1478 1.366 . S
C1479 C1480 1.414 . S
C1479 C1482 1.499 . S
C1480 H1460 0.950 . S
C1480 C1479 1.414 . S
C1480 C1481 1.374 . S
C1481 H1461 0.950 . S
C1481 C1477 1.385 . S
C1481 C1480 1.374 . S
C1482 C1479 1.499 . S
C1482 C1483 1.373 . S
C1482 C1484 1.389 . S
C1483 H1462 0.950 . S
C1483 C1482 1.373 . S
C1483 C1499 1.377 . S
C1484 C1482 1.389 . S
C1484 C1485 1.524 . S
C1484 C1498 1.377 . S
C1485 C1484 1.524 . S
C1485 C1486 1.397 . S
C1485 C1490 1.363 . S
C1486 H1463 0.950 . S
C1486 C1485 1.397 . S
C1486 C1487 1.334 . S
C1487 H1464 0.950 . S
C1487 C1486 1.334 . S
C1487 C1488 1.287 . S
C1488 C1487 1.287 . S
C1488 C1489 1.524 . S
C1488 H1507 0.913 . S
C1489 H1465 0.950 . S
C1489 C1488 1.524 . S
C1489 C1490 1.415 . S
C1490 H1466 0.950 . S
C1490 C1485 1.363 . S
C1490 C1489 1.415 . S
C1491 H1467 0.951 . S
C1491 C1492 1.366 . S
C1491 C1493 1.388 . S
C1492 C1491 1.366 . S
C1492 C1496 1.385 . S
C1493 H1468 0.951 . S
C1493 C1491 1.388 . S
C1493 C1494 1.366 . S
C1494 C1493 1.366 . S
C1494 C1495 1.414 . S
C1494 C1497 1.499 . S
C1495 H1469 0.950 . S
C1495 C1494 1.414 . S
C1495 C1496 1.374 . S
C1496 H1470 0.950 . S
C1496 C1492 1.385 . S
C1496 C1495 1.374 . S
C1497 C1494 1.499 . S
C1497 C1498 1.373 1_655 S
C1497 C1499 1.389 1_655 S
C1498 H1471 0.938 1_455 S
C1498 C1484 1.377 . S
C1498 C1497 1.373 1_455 S
C1499 C1483 1.377 . S
C1499 C1497 1.389 1_455 S
C1499 C1500 1.524 1_455 S
C1500 C1499 1.524 1_655 S
C1500 C1501 1.397 . S
C1500 C1505 1.363 . S
C1501 H1472 0.950 . S
C1501 C1500 1.397 . S
C1501 C1502 1.334 . S
C1502 H1473 0.950 . S
C1502 C1501 1.334 . S
C1502 C1503 1.287 . S
C1503 C1502 1.287 . S
C1503 C1504 1.524 . S
C1503 H1506 0.999 . S
C1504 H1474 0.950 . S
C1504 C1503 1.524 . S
C1504 C1505 1.415 . S
C1505 H1475 0.950 . S
C1505 C1500 1.363 . S
C1505 C1504 1.415 . S
H1506 C1503 0.999 . S
H1507 C1488 0.913 . S
H1508 C1526 0.951 . S
H1509 C1528 0.951 . S
H1510 C1530 0.950 . S
H1511 C1531 0.950 . S
H1512 C1533 0.950 . S
H1513 C1536 0.950 . S
H1514 C1537 0.950 . S
H1515 C1539 0.950 . S
H1516 C1540 0.950 . S
H1517 C1541 0.951 . S
H1518 C1543 0.951 . S
H1519 C1545 0.950 . S
H1520 C1546 0.950 . S
H1521 C1548 0.950 1_565 S
H1522 C1551 0.950 . S
H1523 C1552 0.950 . S
H1524 C1554 0.950 . S
H1525 C1555 0.950 . S
C1526 H1508 0.951 . S
C1526 C1527 1.366 . S
C1526 C1528 1.388 . S
C1527 C1526 1.366 . S
C1527 C1531 1.385 . S
C1528 H1509 0.951 . S
C1528 C1526 1.388 . S
C1528 C1529 1.366 . S
C1529 C1528 1.366 . S
C1529 C1530 1.414 . S
C1529 C1532 1.499 . S
C1530 H1510 0.950 . S
C1530 C1529 1.414 . S
C1530 C1531 1.374 . S
C1531 H1511 0.950 . S
C1531 C1527 1.385 . S
C1531 C1530 1.374 . S
C1532 C1529 1.499 . S
C1532 C1533 1.373 . S
C1532 C1534 1.389 . S
C1533 H1512 0.950 . S
C1533 C1532 1.373 . S
C1533 C1549 1.377 . S
C1534 C1532 1.389 . S
C1534 C1535 1.524 . S
C1534 C1548 1.377 . S
C1535 C1534 1.524 . S
C1535 C1536 1.397 . S
C1535 C1540 1.363 . S
C1536 H1513 0.950 . S
C1536 C1535 1.397 . S
C1536 C1537 1.334 . S
C1537 H1514 0.950 . S
C1537 C1536 1.334 . S
C1537 C1538 1.287 . S
C1538 C1537 1.287 . S
C1538 C1539 1.524 . S
C1538 H1557 0.913 . S
C1539 H1515 0.950 . S
C1539 C1538 1.524 . S
C1539 C1540 1.415 . S
C1540 H1516 0.950 . S
C1540 C1535 1.363 . S
C1540 C1539 1.415 . S
C1541 H1517 0.951 . S
C1541 C1542 1.366 . S
C1541 C1543 1.388 . S
C1542 C1541 1.366 . S
C1542 C1546 1.385 . S
C1543 H1518 0.951 . S
C1543 C1541 1.388 . S
C1543 C1544 1.366 . S
C1544 C1543 1.366 . S
C1544 C1545 1.414 . S
C1544 C1547 1.499 . S
C1545 H1519 0.950 . S
C1545 C1544 1.414 . S
C1545 C1546 1.374 . S
C1546 H1520 0.950 . S
C1546 C1542 1.385 . S
C1546 C1545 1.374 . S
C1547 C1544 1.499 . S
C1547 C1548 1.373 1_565 S
C1547 C1549 1.389 1_565 S
C1548 H1521 0.950 1_545 S
C1548 C1534 1.377 . S
C1548 C1547 1.373 1_545 S
C1549 C1533 1.377 . S
C1549 C1547 1.389 1_545 S
C1549 C1550 1.524 . S
C1550 C1549 1.524 . S
C1550 C1551 1.397 1_545 S
C1550 C1555 1.362 . S
C1551 H1522 0.950 . S
C1551 C1550 1.397 1_565 S
C1551 C1552 1.334 . S
C1552 H1523 0.950 . S
C1552 C1551 1.334 . S
C1552 C1553 1.287 . S
C1553 C1552 1.287 . S
C1553 C1554 1.524 1_565 S
C1553 H1556 0.999 . S
C1554 H1524 0.950 . S
C1554 C1553 1.524 1_545 S
C1554 C1555 1.415 . S
C1555 H1525 0.950 . S
C1555 C1550 1.362 . S
C1555 C1554 1.415 . S
H1556 C1553 0.999 . S
H1557 C1538 0.913 . S
H1558 C1576 0.951 . S
H1559 C1578 0.951 . S
H1560 C1580 0.950 . S
H1561 C1581 0.950 . S
H1562 C1583 0.950 . S
H1563 C1586 0.950 . S
H1564 C1587 0.950 . S
H1565 C1589 0.950 . S
H1566 C1590 0.950 . S
H1567 C1591 0.951 . S
H1568 C1593 0.951 . S
H1569 C1595 0.950 . S
H1570 C1596 0.950 . S
H1571 C1598 0.950 . S
H1572 C1601 0.950 . S
H1573 C1602 0.950 . S
H1574 C1604 0.950 . S
H1575 C1605 0.950 . S
C1576 H1558 0.951 . S
C1576 C1577 1.366 . S
C1576 C1578 1.388 . S
C1577 C1576 1.366 . S
C1577 C1581 1.385 . S
C1578 H1559 0.951 . S
C1578 C1576 1.388 . S
C1578 C1579 1.366 . S
C1579 C1578 1.366 . S
C1579 C1580 1.414 . S
C1579 C1582 1.499 . S
C1580 H1560 0.950 . S
C1580 C1579 1.414 . S
C1580 C1581 1.374 . S
C1581 H1561 0.950 . S
C1581 C1577 1.385 . S
C1581 C1580 1.374 . S
C1582 C1579 1.499 . S
C1582 C1583 1.373 . S
C1582 C1584 1.389 . S
C1583 H1562 0.950 . S
C1583 C1582 1.373 . S
C1583 C1599 1.377 . S
C1584 C1582 1.389 . S
C1584 C1585 1.524 . S
C1584 C1598 1.377 . S
C1585 C1584 1.524 . S
C1585 C1586 1.397 . S
C1585 C1590 1.363 . S
C1586 H1563 0.950 . S
C1586 C1585 1.397 . S
C1586 C1587 1.334 . S
C1587 H1564 0.950 . S
C1587 C1586 1.334 . S
C1587 C1588 1.287 . S
C1588 C1587 1.287 . S
C1588 C1589 1.524 . S
C1588 H1607 0.913 . S
C1589 H1565 0.950 . S
C1589 C1588 1.524 . S
C1589 C1590 1.415 . S
C1590 H1566 0.950 . S
C1590 C1585 1.363 . S
C1590 C1589 1.415 . S
C1591 H1567 0.951 . S
C1591 C1592 1.366 . S
C1591 C1593 1.388 . S
C1592 C1591 1.366 . S
C1592 C1596 1.385 . S
C1593 H1568 0.951 . S
C1593 C1591 1.388 . S
C1593 C1594 1.366 . S
C1594 C1593 1.366 . S
C1594 C1595 1.414 . S
C1594 C1597 1.499 . S
C1595 H1569 0.950 . S
C1595 C1594 1.414 . S
C1595 C1596 1.374 . S
C1596 H1570 0.950 . S
C1596 C1592 1.385 . S
C1596 C1595 1.374 . S
C1597 C1594 1.499 . S
C1597 C1598 1.373 . S
C1597 C1599 1.389 . S
C1598 H1571 0.950 . S
C1598 C1584 1.377 . S
C1598 C1597 1.373 . S
C1599 C1583 1.377 . S
C1599 C1597 1.389 . S
C1599 C1600 1.524 . S
C1600 C1599 1.524 . S
C1600 C1601 1.397 . S
C1600 C1605 1.363 . S
C1601 H1572 0.950 . S
C1601 C1600 1.397 . S
C1601 C1602 1.334 . S
C1602 H1573 0.950 . S
C1602 C1601 1.334 . S
C1602 C1603 1.287 . S
C1603 C1602 1.287 . S
C1603 C1604 1.524 . S
C1603 H1606 0.999 . S
C1604 H1574 0.950 . S
C1604 C1603 1.524 . S
C1604 C1605 1.415 . S
C1605 H1575 0.950 . S
C1605 C1600 1.363 . S
C1605 C1604 1.415 . S
H1606 C1603 0.999 . S
H1607 C1588 0.913 . S
H1608 C1626 0.951 . S
H1609 C1628 0.951 . S
H1610 C1630 0.950 . S
H1611 C1631 0.950 . S
H1612 C1633 0.950 . S
H1613 C1636 0.950 . S
H1614 C1637 0.950 . S
H1615 C1639 0.950 . S
H1616 C1640 0.950 . S
H1617 C1641 0.951 . S
H1618 C1643 0.951 . S
H1619 C1645 0.950 . S
H1620 C1646 0.950 . S
H1621 C1648 0.950 . S
H1622 C1651 0.950 . S
H1623 C1652 0.950 . S
H1624 C1654 0.950 . S
H1625 C1655 0.950 . S
C1626 H1608 0.951 . S
C1626 C1627 1.366 . S
C1626 C1628 1.388 . S
C1627 C1626 1.366 . S
C1627 C1631 1.385 . S
C1628 H1609 0.951 . S
C1628 C1626 1.388 . S
C1628 C1629 1.366 . S
C1629 C1628 1.366 . S
C1629 C1630 1.414 . S
C1629 C1632 1.499 . S
C1630 H1610 0.950 . S
C1630 C1629 1.414 . S
C1630 C1631 1.374 . S
C1631 H1611 0.950 . S
C1631 C1627 1.385 . S
C1631 C1630 1.374 . S
C1632 C1629 1.499 . S
C1632 C1633 1.373 . S
C1632 C1634 1.389 . S
C1633 H1612 0.950 . S
C1633 C1632 1.373 . S
C1633 C1649 1.377 . S
C1634 C1632 1.389 . S
C1634 C1635 1.524 . S
C1634 C1648 1.377 . S
C1635 C1634 1.524 . S
C1635 C1636 1.397 . S
C1635 C1640 1.363 . S
C1636 H1613 0.950 . S
C1636 C1635 1.397 . S
C1636 C1637 1.334 . S
C1637 H1614 0.950 . S
C1637 C1636 1.334 . S
C1637 C1638 1.287 . S
C1638 C1637 1.287 . S
C1638 C1639 1.524 . S
C1638 H1657 0.913 . S
C1639 H1615 0.950 . S
C1639 C1638 1.524 . S
C1639 C1640 1.415 . S
C1640 H1616 0.950 . S
C1640 C1635 1.363 . S
C1640 C1639 1.415 . S
C1641 H1617 0.951 . S
C1641 C1642 1.366 . S
C1641 C1643 1.388 . S
C1642 C1641 1.366 . S
C1642 C1646 1.385 . S
C1643 H1618 0.951 . S
C1643 C1641 1.388 . S
C1643 C1644 1.366 . S
C1644 C1643 1.366 . S
C1644 C1645 1.414 . S
C1644 C1647 1.499 . S
C1645 H1619 0.950 . S
C1645 C1644 1.414 . S
C1645 C1646 1.374 . S
C1646 H1620 0.950 . S
C1646 C1642 1.385 . S
C1646 C1645 1.374 . S
C1647 C1644 1.499 . S
C1647 C1648 1.373 . S
C1647 C1649 1.389 . S
C1648 H1621 0.950 . S
C1648 C1634 1.377 . S
C1648 C1647 1.373 . S
C1649 C1633 1.377 . S
C1649 C1647 1.389 . S
C1649 C1650 1.524 . S
C1650 C1649 1.524 . S
C1650 C1651 1.397 . S
C1650 C1655 1.363 . S
C1651 H1622 0.950 . S
C1651 C1650 1.397 . S
C1651 C1652 1.334 . S
C1652 H1623 0.950 . S
C1652 C1651 1.334 . S
C1652 C1653 1.287 . S
C1653 C1652 1.287 . S
C1653 C1654 1.524 . S
C1653 H1656 0.999 . S
C1654 H1624 0.950 . S
C1654 C1653 1.524 . S
C1654 C1655 1.415 . S
C1655 H1625 0.950 . S
C1655 C1650 1.363 . S
C1655 C1654 1.415 . S
H1656 C1653 0.999 . S
H1657 C1638 0.913 . S
H1658 C1676 0.951 . S
H1659 C1678 0.951 . S
H1660 C1680 0.950 . S
H1661 C1681 0.950 . S
H1662 C1683 0.950 . S
H1663 C1686 0.950 . S
H1664 C1687 0.950 . S
H1665 C1689 0.950 . S
H1666 C1690 0.950 . S
H1667 C1691 0.951 . S
H1668 C1693 0.951 . S
H1669 C1695 0.950 . S
H1670 C1696 0.950 . S
H1671 C1698 0.950 . S
H1672 C1701 0.950 . S
H1673 C1702 0.950 . S
H1674 C1704 0.950 . S
H1675 C1705 0.950 . S
C1676 H1658 0.951 . S
C1676 C1677 1.366 . S
C1676 C1678 1.388 . S
C1677 C1676 1.366 . S
C1677 C1681 1.385 . S
C1678 H1659 0.951 . S
C1678 C1676 1.388 . S
C1678 C1679 1.366 . S
C1679 C1678 1.366 . S
C1679 C1680 1.414 . S
C1679 C1682 1.499 . S
C1680 H1660 0.950 . S
C1680 C1679 1.414 . S
C1680 C1681 1.374 . S
C1681 H1661 0.950 . S
C1681 C1677 1.385 . S
C1681 C1680 1.374 . S
C1682 C1679 1.499 . S
C1682 C1683 1.373 . S
C1682 C1684 1.389 . S
C1683 H1662 0.950 . S
C1683 C1682 1.373 . S
C1683 C1699 1.377 . S
C1684 C1682 1.389 . S
C1684 C1685 1.524 . S
C1684 C1698 1.377 . S
C1685 C1684 1.524 . S
C1685 C1686 1.397 . S
C1685 C1690 1.363 . S
C1686 H1663 0.950 . S
C1686 C1685 1.397 . S
C1686 C1687 1.334 . S
C1687 H1664 0.950 . S
C1687 C1686 1.334 . S
C1687 C1688 1.287 . S
C1688 C1687 1.287 . S
C1688 C1689 1.524 . S
C1688 H1707 0.913 . S
C1689 H1665 0.950 . S
C1689 C1688 1.524 . S
C1689 C1690 1.415 . S
C1690 H1666 0.950 . S
C1690 C1685 1.363 . S
C1690 C1689 1.415 . S
C1691 H1667 0.951 . S
C1691 C1692 1.366 . S
C1691 C1693 1.388 . S
C1692 C1691 1.366 . S
C1692 C1696 1.385 . S
C1693 H1668 0.951 . S
C1693 C1691 1.388 . S
C1693 C1694 1.366 . S
C1694 C1693 1.366 . S
C1694 C1695 1.414 . S
C1694 C1697 1.499 . S
C1695 H1669 0.950 . S
C1695 C1694 1.414 . S
C1695 C1696 1.374 . S
C1696 H1670 0.950 . S
C1696 C1692 1.385 . S
C1696 C1695 1.374 . S
C1697 C1694 1.499 . S
C1697 C1698 1.373 . S
C1697 C1699 1.389 . S
C1698 H1671 0.950 . S
C1698 C1684 1.377 . S
C1698 C1697 1.373 . S
C1699 C1683 1.377 . S
C1699 C1697 1.389 . S
C1699 C1700 1.524 . S
C1700 C1699 1.524 . S
C1700 C1701 1.397 . S
C1700 C1705 1.363 . S
C1701 H1672 0.950 . S
C1701 C1700 1.397 . S
C1701 C1702 1.334 . S
C1702 H1673 0.950 . S
C1702 C1701 1.334 . S
C1702 C1703 1.287 . S
C1703 C1702 1.287 . S
C1703 C1704 1.524 . S
C1703 H1706 0.999 . S
C1704 H1674 0.950 . S
C1704 C1703 1.524 . S
C1704 C1705 1.415 . S
C1705 H1675 0.950 . S
C1705 C1700 1.363 . S
C1705 C1704 1.415 . S
H1706 C1703 0.999 . S
H1707 C1688 0.913 . S
H1708 C1726 0.951 . S
H1709 C1728 0.951 . S
H1710 C1730 0.950 . S
H1711 C1731 0.950 . S
H1712 C1733 0.950 . S
H1713 C1736 0.950 . S
H1714 C1737 0.950 . S
H1715 C1739 0.950 . S
H1716 C1740 0.950 . S
H1717 C1741 0.951 . S
H1718 C1743 0.951 . S
H1719 C1745 0.950 . S
H1720 C1746 0.950 . S
H1721 C1748 0.950 . S
H1722 C1751 0.950 . S
H1723 C1752 0.950 . S
H1724 C1754 0.950 . S
H1725 C1755 0.950 . S
C1726 H1708 0.951 . S
C1726 C1727 1.366 . S
C1726 C1728 1.388 . S
C1727 C1726 1.366 . S
C1727 C1731 1.385 . S
C1728 H1709 0.951 . S
C1728 C1726 1.388 . S
C1728 C1729 1.366 . S
C1729 C1728 1.366 . S
C1729 C1730 1.414 . S
C1729 C1732 1.499 . S
C1730 H1710 0.950 . S
C1730 C1729 1.414 . S
C1730 C1731 1.374 . S
C1731 H1711 0.950 . S
C1731 C1727 1.385 . S
C1731 C1730 1.374 . S
C1732 C1729 1.499 . S
C1732 C1733 1.373 . S
C1732 C1734 1.389 . S
C1733 H1712 0.950 . S
C1733 C1732 1.373 . S
C1733 C1749 1.377 . S
C1734 C1732 1.389 . S
C1734 C1735 1.524 . S
C1734 C1748 1.377 . S
C1735 C1734 1.524 . S
C1735 C1736 1.397 . S
C1735 C1740 1.363 . S
C1736 H1713 0.950 . S
C1736 C1735 1.397 . S
C1736 C1737 1.334 . S
C1737 H1714 0.950 . S
C1737 C1736 1.334 . S
C1737 C1738 1.287 . S
C1738 C1737 1.287 . S
C1738 C1739 1.524 . S
C1738 H1757 0.913 . S
C1739 H1715 0.950 . S
C1739 C1738 1.524 . S
C1739 C1740 1.415 . S
C1740 H1716 0.950 . S
C1740 C1735 1.363 . S
C1740 C1739 1.415 . S
C1741 H1717 0.951 . S
C1741 C1742 1.366 . S
C1741 C1743 1.388 . S
C1742 C1741 1.366 . S
C1742 C1746 1.385 . S
C1743 H1718 0.951 . S
C1743 C1741 1.388 . S
C1743 C1744 1.366 . S
C1744 C1743 1.366 . S
C1744 C1745 1.414 . S
C1744 C1747 1.499 . S
C1745 H1719 0.950 . S
C1745 C1744 1.414 . S
C1745 C1746 1.374 . S
C1746 H1720 0.950 . S
C1746 C1742 1.385 . S
C1746 C1745 1.374 . S
C1747 C1744 1.499 . S
C1747 C1748 1.373 . S
C1747 C1749 1.389 . S
C1748 H1721 0.950 . S
C1748 C1734 1.377 . S
C1748 C1747 1.373 . S
C1749 C1733 1.377 . S
C1749 C1747 1.389 . S
C1749 C1750 1.524 . S
C1750 C1749 1.524 . S
C1750 C1751 1.397 . S
C1750 C1755 1.363 . S
C1751 H1722 0.950 . S
C1751 C1750 1.397 . S
C1751 C1752 1.334 . S
C1752 H1723 0.950 . S
C1752 C1751 1.334 . S
C1752 C1753 1.287 . S
C1753 C1752 1.287 . S
C1753 C1754 1.524 . S
C1753 H1756 0.999 . S
C1754 H1724 0.950 . S
C1754 C1753 1.524 . S
C1754 C1755 1.415 . S
C1755 H1725 0.950 . S
C1755 C1750 1.363 . S
C1755 C1754 1.415 . S
H1756 C1753 0.999 . S
H1757 C1738 0.913 . S
H1758 C1776 0.951 . S
H1759 C1778 0.951 . S
H1760 C1780 0.950 . S
H1761 C1781 0.950 . S
H1762 C1783 0.950 . S
H1763 C1786 0.950 . S
H1764 C1787 0.950 . S
H1765 C1789 0.950 . S
H1766 C1790 0.950 . S
H1767 C1791 0.951 . S
H1768 C1793 0.951 . S
H1769 C1795 0.950 . S
H1770 C1796 0.950 . S
H1771 C1798 0.950 . S
H1772 C1801 0.950 . S
H1773 C1802 0.950 . S
H1774 C1804 0.950 . S
H1775 C1805 0.950 . S
C1776 H1758 0.951 . S
C1776 C1777 1.366 . S
C1776 C1778 1.388 . S
C1777 C1776 1.366 . S
C1777 C1781 1.385 . S
C1778 H1759 0.951 . S
C1778 C1776 1.388 . S
C1778 C1779 1.366 . S
C1779 C1778 1.366 . S
C1779 C1780 1.414 . S
C1779 C1782 1.499 . S
C1780 H1760 0.950 . S
C1780 C1779 1.414 . S
C1780 C1781 1.374 . S
C1781 H1761 0.950 . S
C1781 C1777 1.385 . S
C1781 C1780 1.374 . S
C1782 C1779 1.499 . S
C1782 C1783 1.373 . S
C1782 C1784 1.389 . S
C1783 H1762 0.950 . S
C1783 C1782 1.373 . S
C1783 C1799 1.377 . S
C1784 C1782 1.389 . S
C1784 C1785 1.524 . S
C1784 C1798 1.377 . S
C1785 C1784 1.524 . S
C1785 C1786 1.397 . S
C1785 C1790 1.363 . S
C1786 H1763 0.950 . S
C1786 C1785 1.397 . S
C1786 C1787 1.334 . S
C1787 H1764 0.950 . S
C1787 C1786 1.334 . S
C1787 C1788 1.287 . S
C1788 C1787 1.287 . S
C1788 C1789 1.524 . S
C1788 H1807 0.913 . S
C1789 H1765 0.950 . S
C1789 C1788 1.524 . S
C1789 C1790 1.415 . S
C1790 H1766 0.950 . S
C1790 C1785 1.363 . S
C1790 C1789 1.415 . S
C1791 H1767 0.951 . S
C1791 C1792 1.366 . S
C1791 C1793 1.388 . S
C1792 C1791 1.366 . S
C1792 C1796 1.385 . S
C1793 H1768 0.951 . S
C1793 C1791 1.388 . S
C1793 C1794 1.366 . S
C1794 C1793 1.366 . S
C1794 C1795 1.414 . S
C1794 C1797 1.499 . S
C1795 H1769 0.950 . S
C1795 C1794 1.414 . S
C1795 C1796 1.374 . S
C1796 H1770 0.950 . S
C1796 C1792 1.385 . S
C1796 C1795 1.374 . S
C1797 C1794 1.499 . S
C1797 C1798 1.373 . S
C1797 C1799 1.389 . S
C1798 H1771 0.950 . S
C1798 C1784 1.377 . S
C1798 C1797 1.373 . S
C1799 C1783 1.377 . S
C1799 C1797 1.389 . S
C1799 C1800 1.524 . S
C1800 C1799 1.524 . S
C1800 C1801 1.397 . S
C1800 C1805 1.363 . S
C1801 H1772 0.950 . S
C1801 C1800 1.397 . S
C1801 C1802 1.334 . S
C1802 H1773 0.950 . S
C1802 C1801 1.334 . S
C1802 C1803 1.287 . S
C1803 C1802 1.287 . S
C1803 C1804 1.524 . S
C1803 H1806 0.999 . S
C1804 H1774 0.950 . S
C1804 C1803 1.524 . S
C1804 C1805 1.415 . S
C1805 H1775 0.950 . S
C1805 C1800 1.363 . S
C1805 C1804 1.415 . S
H1806 C1803 0.999 . S
H1807 C1788 0.913 . S
H1808 C1826 0.951 . S
H1809 C1828 0.951 . S
H1810 C1830 0.950 . S
H1811 C1831 0.950 . S
H1812 C1833 0.950 . S
H1813 C1836 0.950 . S
H1814 C1837 0.950 . S
H1815 C1839 0.950 . S
H1816 C1840 0.950 . S
H1817 C1841 0.951 . S
H1818 C1843 0.951 . S
H1819 C1845 0.950 . S
H1820 C1846 0.950 . S
H1821 C1848 0.950 . S
H1822 C1851 0.950 . S
H1823 C1852 0.950 . S
H1824 C1854 0.950 . S
H1825 C1855 0.950 . S
C1826 H1808 0.951 . S
C1826 C1827 1.366 . S
C1826 C1828 1.388 . S
C1827 C1826 1.366 . S
C1827 C1831 1.385 . S
C1828 H1809 0.951 . S
C1828 C1826 1.388 . S
C1828 C1829 1.366 . S
C1829 C1828 1.366 . S
C1829 C1830 1.414 . S
C1829 C1832 1.499 . S
C1830 H1810 0.950 . S
C1830 C1829 1.414 . S
C1830 C1831 1.374 . S
C1831 H1811 0.950 . S
C1831 C1827 1.385 . S
C1831 C1830 1.374 . S
C1832 C1829 1.499 . S
C1832 C1833 1.373 . S
C1832 C1834 1.389 . S
C1833 H1812 0.950 . S
C1833 C1832 1.373 . S
C1833 C1849 1.377 . S
C1834 C1832 1.389 . S
C1834 C1835 1.524 . S
C1834 C1848 1.377 . S
C1835 C1834 1.524 . S
C1835 C1836 1.397 . S
C1835 C1840 1.363 . S
C1836 H1813 0.950 . S
C1836 C1835 1.397 . S
C1836 C1837 1.334 . S
C1837 H1814 0.950 . S
C1837 C1836 1.334 . S
C1837 C1838 1.287 . S
C1838 C1837 1.287 . S
C1838 C1839 1.524 . S
C1838 H1857 0.913 . S
C1839 H1815 0.950 . S
C1839 C1838 1.524 . S
C1839 C1840 1.415 . S
C1840 H1816 0.950 . S
C1840 C1835 1.363 . S
C1840 C1839 1.415 . S
C1841 H1817 0.951 . S
C1841 C1842 1.366 . S
C1841 C1843 1.388 . S
C1842 C1841 1.366 . S
C1842 C1846 1.385 . S
C1843 H1818 0.951 . S
C1843 C1841 1.388 . S
C1843 C1844 1.366 . S
C1844 C1843 1.366 . S
C1844 C1845 1.414 . S
C1844 C1847 1.499 . S
C1845 H1819 0.950 . S
C1845 C1844 1.414 . S
C1845 C1846 1.374 . S
C1846 H1820 0.950 . S
C1846 C1842 1.385 . S
C1846 C1845 1.374 . S
C1847 C1844 1.499 . S
C1847 C1848 1.373 . S
C1847 C1849 1.389 . S
C1848 H1821 0.950 . S
C1848 C1834 1.377 . S
C1848 C1847 1.373 . S
C1849 C1833 1.377 . S
C1849 C1847 1.389 . S
C1849 C1850 1.524 . S
C1850 C1849 1.524 . S
C1850 C1851 1.397 . S
C1850 C1855 1.363 . S
C1851 H1822 0.950 . S
C1851 C1850 1.397 . S
C1851 C1852 1.334 . S
C1852 H1823 0.950 . S
C1852 C1851 1.334 . S
C1852 C1853 1.287 . S
C1853 C1852 1.287 . S
C1853 C1854 1.524 . S
C1853 H1856 0.999 . S
C1854 H1824 0.950 . S
C1854 C1853 1.524 . S
C1854 C1855 1.415 . S
C1855 H1825 0.950 . S
C1855 C1850 1.363 . S
C1855 C1854 1.415 . S
H1856 C1853 0.999 . S
H1857 C1838 0.913 . S
H1858 C1876 0.951 . S
H1859 C1878 0.951 . S
H1860 C1880 0.950 . S
H1861 C1881 0.950 . S
H1862 C1883 0.950 . S
H1863 C1886 0.950 . S
H1864 C1887 0.950 . S
H1865 C1889 0.950 . S
H1866 C1890 0.950 . S
H1867 C1891 0.951 . S
H1868 C1893 0.951 . S
H1869 C1895 0.950 . S
H1870 C1896 0.950 . S
H1871 C1898 0.950 . S
H1872 C1901 0.950 . S
H1873 C1902 0.950 . S
H1874 C1904 0.950 . S
H1875 C1905 0.950 . S
C1876 H1858 0.951 . S
C1876 C1877 1.366 . S
C1876 C1878 1.388 . S
C1877 C1876 1.366 . S
C1877 C1881 1.385 . S
C1878 H1859 0.951 . S
C1878 C1876 1.388 . S
C1878 C1879 1.366 . S
C1879 C1878 1.366 . S
C1879 C1880 1.414 . S
C1879 C1882 1.499 . S
C1880 H1860 0.950 . S
C1880 C1879 1.414 . S
C1880 C1881 1.374 . S
C1881 H1861 0.950 . S
C1881 C1877 1.385 . S
C1881 C1880 1.374 . S
C1882 C1879 1.499 . S
C1882 C1883 1.373 . S
C1882 C1884 1.389 . S
C1883 H1862 0.950 . S
C1883 C1882 1.373 . S
C1883 C1899 1.377 . S
C1884 C1882 1.389 . S
C1884 C1885 1.524 . S
C1884 C1898 1.377 . S
C1885 C1884 1.524 . S
C1885 C1886 1.397 . S
C1885 C1890 1.363 . S
C1886 H1863 0.950 . S
C1886 C1885 1.397 . S
C1886 C1887 1.334 . S
C1887 H1864 0.950 . S
C1887 C1886 1.334 . S
C1887 C1888 1.287 . S
C1888 C1887 1.287 . S
C1888 C1889 1.524 . S
C1888 H1907 0.913 . S
C1889 H1865 0.950 . S
C1889 C1888 1.524 . S
C1889 C1890 1.415 . S
C1890 H1866 0.950 . S
C1890 C1885 1.363 . S
C1890 C1889 1.415 . S
C1891 H1867 0.951 . S
C1891 C1892 1.366 . S
C1891 C1893 1.388 . S
C1892 C1891 1.366 . S
C1892 C1896 1.385 . S
C1893 H1868 0.951 . S
C1893 C1891 1.388 . S
C1893 C1894 1.366 . S
C1894 C1893 1.366 . S
C1894 C1895 1.414 . S
C1894 C1897 1.499 . S
C1895 H1869 0.950 . S
C1895 C1894 1.414 . S
C1895 C1896 1.374 . S
C1896 H1870 0.950 . S
C1896 C1892 1.385 . S
C1896 C1895 1.374 . S
C1897 C1894 1.499 . S
C1897 C1898 1.373 . S
C1897 C1899 1.389 . S
C1898 H1871 0.950 . S
C1898 C1884 1.377 . S
C1898 C1897 1.373 . S
C1899 C1883 1.377 . S
C1899 C1897 1.389 . S
C1899 C1900 1.524 . S
C1900 C1899 1.524 . S
C1900 C1901 1.397 . S
C1900 C1905 1.363 . S
C1901 H1872 0.950 . S
C1901 C1900 1.397 . S
C1901 C1902 1.334 . S
C1902 H1873 0.950 . S
C1902 C1901 1.334 . S
C1902 C1903 1.287 . S
C1903 C1902 1.287 . S
C1903 C1904 1.524 . S
C1903 H1906 0.999 . S
C1904 H1874 0.950 . S
C1904 C1903 1.524 . S
C1904 C1905 1.415 . S
C1905 H1875 0.950 . S
C1905 C1900 1.363 . S
C1905 C1904 1.415 . S
H1906 C1903 0.999 . S
H1907 C1888 0.913 . S
H1908 C1926 0.951 . S
H1909 C1928 0.951 . S
H1910 C1930 0.950 . S
H1911 C1931 0.950 . S
H1912 C1933 0.950 . S
H1913 C1936 0.950 . S
H1914 C1937 0.950 . S
H1915 C1939 0.950 . S
H1916 C1940 0.950 . S
H1917 C1941 0.951 . S
H1918 C1943 0.951 . S
H1919 C1945 0.950 . S
H1920 C1946 0.950 . S
H1921 C1948 0.950 . S
H1922 C1951 0.950 . S
H1923 C1952 0.950 . S
H1924 C1954 0.950 . S
H1925 C1955 0.950 . S
C1926 H1908 0.951 . S
C1926 C1927 1.366 . S
C1926 C1928 1.388 . S
C1927 C1926 1.366 . S
C1927 C1931 1.385 . S
C1928 H1909 0.951 . S
C1928 C1926 1.388 . S
C1928 C1929 1.366 . S
C1929 C1928 1.366 . S
C1929 C1930 1.414 . S
C1929 C1932 1.499 . S
C1930 H1910 0.950 . S
C1930 C1929 1.414 . S
C1930 C1931 1.374 . S
C1931 H1911 0.950 . S
C1931 C1927 1.385 . S
C1931 C1930 1.374 . S
C1932 C1929 1.499 . S
C1932 C1933 1.373 . S
C1932 C1934 1.389 . S
C1933 H1912 0.950 . S
C1933 C1932 1.373 . S
C1933 C1949 1.377 . S
C1934 C1932 1.389 . S
C1934 C1935 1.524 . S
C1934 C1948 1.377 . S
C1935 C1934 1.524 . S
C1935 C1936 1.397 . S
C1935 C1940 1.363 . S
C1936 H1913 0.950 . S
C1936 C1935 1.397 . S
C1936 C1937 1.334 . S
C1937 H1914 0.950 . S
C1937 C1936 1.334 . S
C1937 C1938 1.287 . S
C1938 C1937 1.287 . S
C1938 C1939 1.524 . S
C1938 H1957 0.913 . S
C1939 H1915 0.950 . S
C1939 C1938 1.524 . S
C1939 C1940 1.415 . S
C1940 H1916 0.950 . S
C1940 C1935 1.363 . S
C1940 C1939 1.415 . S
C1941 H1917 0.951 . S
C1941 C1942 1.366 . S
C1941 C1943 1.388 . S
C1942 C1941 1.366 . S
C1942 C1946 1.385 . S
C1943 H1918 0.951 . S
C1943 C1941 1.388 . S
C1943 C1944 1.366 . S
C1944 C1943 1.366 . S
C1944 C1945 1.414 . S
C1944 C1947 1.499 . S
C1945 H1919 0.950 . S
C1945 C1944 1.414 . S
C1945 C1946 1.374 . S
C1946 H1920 0.950 . S
C1946 C1942 1.385 . S
C1946 C1945 1.374 . S
C1947 C1944 1.499 . S
C1947 C1948 1.373 . S
C1947 C1949 1.389 . S
C1948 H1921 0.950 . S
C1948 C1934 1.377 . S
C1948 C1947 1.373 . S
C1949 C1933 1.377 . S
C1949 C1947 1.389 . S
C1949 C1950 1.524 . S
C1950 C1949 1.524 . S
C1950 C1951 1.397 . S
C1950 C1955 1.363 . S
C1951 H1922 0.950 . S
C1951 C1950 1.397 . S
C1951 C1952 1.334 . S
C1952 H1923 0.950 . S
C1952 C1951 1.334 . S
C1952 C1953 1.287 . S
C1953 C1952 1.287 . S
C1953 C1954 1.524 . S
C1953 H1956 0.999 . S
C1954 H1924 0.950 . S
C1954 C1953 1.524 . S
C1954 C1955 1.415 . S
C1955 H1925 0.950 . S
C1955 C1950 1.363 . S
C1955 C1954 1.415 . S
H1956 C1953 0.999 . S
H1957 C1938 0.913 . S
H1958 C1976 0.951 . S
H1959 C1978 0.951 . S
H1960 C1980 0.950 . S
H1961 C1981 0.950 . S
H1962 C1983 0.950 . S
H1963 C1986 0.950 . S
H1964 C1987 0.950 . S
H1965 C1989 0.950 . S
H1966 C1990 0.950 . S
H1967 C1991 0.951 . S
H1968 C1993 0.951 . S
H1969 C1995 0.950 . S
H1970 C1996 0.950 . S
H1971 C1998 0.950 . S
H1972 C2001 0.950 . S
H1973 C2002 0.950 . S
H1974 C2004 0.950 . S
H1975 C2005 0.950 . S
C1976 H1958 0.951 . S
C1976 C1977 1.366 . S
C1976 C1978 1.388 . S
C1977 C1976 1.366 . S
C1977 C1981 1.385 . S
C1978 H1959 0.951 . S
C1978 C1976 1.388 . S
C1978 C1979 1.366 . S
C1979 C1978 1.366 . S
C1979 C1980 1.414 . S
C1979 C1982 1.499 . S
C1980 H1960 0.950 . S
C1980 C1979 1.414 . S
C1980 C1981 1.374 . S
C1981 H1961 0.950 . S
C1981 C1977 1.385 . S
C1981 C1980 1.374 . S
C1982 C1979 1.499 . S
C1982 C1983 1.373 . S
C1982 C1984 1.389 . S
C1983 H1962 0.950 . S
C1983 C1982 1.373 . S
C1983 C1999 1.377 . S
C1984 C1982 1.389 . S
C1984 C1985 1.524 . S
C1984 C1998 1.377 . S
C1985 C1984 1.524 . S
C1985 C1986 1.397 . S
C1985 C1990 1.363 . S
C1986 H1963 0.950 . S
C1986 C1985 1.397 . S
C1986 C1987 1.334 . S
C1987 H1964 0.950 . S
C1987 C1986 1.334 . S
C1987 C1988 1.287 . S
C1988 C1987 1.287 . S
C1988 C1989 1.524 . S
C1988 H2007 0.913 . S
C1989 H1965 0.950 . S
C1989 C1988 1.524 . S
C1989 C1990 1.415 . S
C1990 H1966 0.950 . S
C1990 C1985 1.363 . S
C1990 C1989 1.415 . S
C1991 H1967 0.951 . S
C1991 C1992 1.366 . S
C1991 C1993 1.388 . S
C1992 C1991 1.366 . S
C1992 C1996 1.385 . S
C1993 H1968 0.951 . S
C1993 C1991 1.388 . S
C1993 C1994 1.366 . S
C1994 C1993 1.366 . S
C1994 C1995 1.414 . S
C1994 C1997 1.499 . S
C1995 H1969 0.950 . S
C1995 C1994 1.414 . S
C1995 C1996 1.374 . S
C1996 H1970 0.950 . S
C1996 C1992 1.385 . S
C1996 C1995 1.374 . S
C1997 C1994 1.499 . S
C1997 C1998 1.373 . S
C1997 C1999 1.389 . S
C1998 H1971 0.950 . S
C1998 C1984 1.377 . S
C1998 C1997 1.373 . S
C1999 C1983 1.377 . S
C1999 C1997 1.389 . S
C1999 C2000 1.524 . S
C2000 C1999 1.524 . S
C2000 C2001 1.397 . S
C2000 C2005 1.363 . S
C2001 H1972 0.950 . S
C2001 C2000 1.397 . S
C2001 C2002 1.334 . S
C2002 H1973 0.950 . S
C2002 C2001 1.334 . S
C2002 C2003 1.287 . S
C2003 C2002 1.287 . S
C2003 C2004 1.524 . S
C2003 H2006 0.999 . S
C2004 H1974 0.950 . S
C2004 C2003 1.524 . S
C2004 C2005 1.415 . S
C2005 H1975 0.950 . S
C2005 C2000 1.363 . S
C2005 C2004 1.415 . S
H2006 C2003 0.999 . S
H2007 C1988 0.913 . S
H2008 C2026 0.951 . S
H2009 C2028 0.951 . S
H2010 C2030 0.950 . S
H2011 C2031 0.950 . S
H2012 C2033 0.950 . S
H2013 C2036 0.950 . S
H2014 C2037 0.950 . S
H2015 C2039 0.950 . S
H2016 C2040 0.950 . S
H2017 C2041 0.951 . S
H2018 C2043 0.951 . S
H2019 C2045 0.950 . S
H2020 C2046 0.950 . S
H2021 C2048 0.950 . S
H2022 C2051 0.950 . S
H2023 C2052 0.950 . S
H2024 C2054 0.950 . S
H2025 C2055 0.950 . S
C2026 H2008 0.951 . S
C2026 C2027 1.366 . S
C2026 C2028 1.388 . S
C2027 C2026 1.366 . S
C2027 C2031 1.385 . S
C2028 H2009 0.951 . S
C2028 C2026 1.388 . S
C2028 C2029 1.366 . S
C2029 C2028 1.366 . S
C2029 C2030 1.414 . S
C2029 C2032 1.499 . S
C2030 H2010 0.950 . S
C2030 C2029 1.414 . S
C2030 C2031 1.374 . S
C2031 H2011 0.950 . S
C2031 C2027 1.385 . S
C2031 C2030 1.374 . S
C2032 C2029 1.499 . S
C2032 C2033 1.373 . S
C2032 C2034 1.389 . S
C2033 H2012 0.950 . S
C2033 C2032 1.373 . S
C2033 C2049 1.377 . S
C2034 C2032 1.389 . S
C2034 C2035 1.524 . S
C2034 C2048 1.377 . S
C2035 C2034 1.524 . S
C2035 C2036 1.397 . S
C2035 C2040 1.363 . S
C2036 H2013 0.950 . S
C2036 C2035 1.397 . S
C2036 C2037 1.334 . S
C2037 H2014 0.950 . S
C2037 C2036 1.334 . S
C2037 C2038 1.287 . S
C2038 C2037 1.287 . S
C2038 C2039 1.524 . S
C2038 H2057 0.913 . S
C2039 H2015 0.950 . S
C2039 C2038 1.524 . S
C2039 C2040 1.415 . S
C2040 H2016 0.950 . S
C2040 C2035 1.363 . S
C2040 C2039 1.415 . S
C2041 H2017 0.951 . S
C2041 C2042 1.366 . S
C2041 C2043 1.388 . S
C2042 C2041 1.366 . S
C2042 C2046 1.385 . S
C2043 H2018 0.951 . S
C2043 C2041 1.388 . S
C2043 C2044 1.366 . S
C2044 C2043 1.366 . S
C2044 C2045 1.414 . S
C2044 C2047 1.499 . S
C2045 H2019 0.950 . S
C2045 C2044 1.414 . S
C2045 C2046 1.374 . S
C2046 H2020 0.950 . S
C2046 C2042 1.385 . S
C2046 C2045 1.374 . S
C2047 C2044 1.499 . S
C2047 C2048 1.373 . S
C2047 C2049 1.389 . S
C2048 H2021 0.950 . S
C2048 C2034 1.377 . S
C2048 C2047 1.373 . S
C2049 C2033 1.377 . S
C2049 C2047 1.389 . S
C2049 C2050 1.524 . S
C2050 C2049 1.524 . S
C2050 C2051 1.397 . S
C2050 C2055 1.363 . S
C2051 H2022 0.950 . S
C2051 C2050 1.397 . S
C2051 C2052 1.334 . S
C2052 H2023 0.950 . S
C2052 C2051 1.334 . S
C2052 C2053 1.287 . S
C2053 C2052 1.287 . S
C2053 C2054 1.524 . S
C2053 H2056 0.999 . S
C2054 H2024 0.950 . S
C2054 C2053 1.524 . S
C2054 C2055 1.415 . S
C2055 H2025 0.950 . S
C2055 C2050 1.363 . S
C2055 C2054 1.415 . S
H2056 C2053 0.999 . S
H2057 C2038 0.913 . S
H2058 C2076 0.951 . S
H2059 C2078 0.951 . S
H2060 C2080 0.950 . S
H2061 C2081 0.950 . S
H2062 C2083 0.950 . S
H2063 C2086 0.950 . S
H2064 C2087 0.950 . S
H2065 C2089 0.950 . S
H2066 C2090 0.950 . S
H2067 C2091 0.951 . S
H2068 C2093 0.951 . S
H2069 C2095 0.950 . S
H2070 C2096 0.950 . S
H2071 C2098 0.950 . S
H2072 C2101 0.950 . S
H2073 C2102 0.950 . S
H2074 C2104 0.950 . S
H2075 C2105 0.950 . S
C2076 H2058 0.951 . S
C2076 C2077 1.366 . S
C2076 C2078 1.388 . S
C2077 C2076 1.366 . S
C2077 C2081 1.385 . S
C2078 H2059 0.951 . S
C2078 C2076 1.388 . S
C2078 C2079 1.366 . S
C2079 C2078 1.366 . S
C2079 C2080 1.414 . S
C2079 C2082 1.499 . S
C2080 H2060 0.950 . S
C2080 C2079 1.414 . S
C2080 C2081 1.374 . S
C2081 H2061 0.950 . S
C2081 C2077 1.385 . S
C2081 C2080 1.374 . S
C2082 C2079 1.499 . S
C2082 C2083 1.373 . S
C2082 C2084 1.389 . S
C2083 H2062 0.950 . S
C2083 C2082 1.373 . S
C2083 C2099 1.377 . S
C2084 C2082 1.389 . S
C2084 C2085 1.524 . S
C2084 C2098 1.377 . S
C2085 C2084 1.524 . S
C2085 C2086 1.397 . S
C2085 C2090 1.363 . S
C2086 H2063 0.950 . S
C2086 C2085 1.397 . S
C2086 C2087 1.334 . S
C2087 H2064 0.950 . S
C2087 C2086 1.334 . S
C2087 C2088 1.287 . S
C2088 C2087 1.287 . S
C2088 C2089 1.524 . S
C2088 H2107 0.913 . S
C2089 H2065 0.950 . S
C2089 C2088 1.524 . S
C2089 C2090 1.415 . S
C2090 H2066 0.950 . S
C2090 C2085 1.363 . S
C2090 C2089 1.415 . S
C2091 H2067 0.951 . S
C2091 C2092 1.366 . S
C2091 C2093 1.388 . S
C2092 C2091 1.366 . S
C2092 C2096 1.385 . S
C2093 H2068 0.951 . S
C2093 C2091 1.388 . S
C2093 C2094 1.366 . S
C2094 C2093 1.366 . S
C2094 C2095 1.414 . S
C2094 C2097 1.499 . S
C2095 H2069 0.950 . S
C2095 C2094 1.414 . S
C2095 C2096 1.374 . S
C2096 H2070 0.950 . S
C2096 C2092 1.385 . S
C2096 C2095 1.374 . S
C2097 C2094 1.499 . S
C2097 C2098 1.373 . S
C2097 C2099 1.389 . S
C2098 H2071 0.950 . S
C2098 C2084 1.377 . S
C2098 C2097 1.373 . S
C2099 C2083 1.377 . S
C2099 C2097 1.389 . S
C2099 C2100 1.524 . S
C2100 C2099 1.524 . S
C2100 C2101 1.397 . S
C2100 C2105 1.363 . S
C2101 H2072 0.950 . S
C2101 C2100 1.397 . S
C2101 C2102 1.334 . S
C2102 H2073 0.950 . S
C2102 C2101 1.334 . S
C2102 C2103 1.287 . S
C2103 C2102 1.287 . S
C2103 C2104 1.524 . S
C2103 H2106 0.999 . S
C2104 H2074 0.950 . S
C2104 C2103 1.524 . S
C2104 C2105 1.415 . S
C2105 H2075 0.950 . S
C2105 C2100 1.363 . S
C2105 C2104 1.415 . S
H2106 C2103 0.999 . S
H2107 C2088 0.913 . S
H2108 C2126 0.951 . S
H2109 C2128 0.951 . S
H2110 C2130 0.950 . S
H2111 C2131 0.950 . S
H2112 C2133 0.950 . S
H2113 C2136 0.950 . S
H2114 C2137 0.950 . S
H2115 C2139 0.950 . S
H2116 C2140 0.950 . S
H2117 C2141 0.951 . S
H2118 C2143 0.951 . S
H2119 C2145 0.950 . S
H2120 C2146 0.950 . S
H2121 C2148 0.950 . S
H2122 C2151 0.950 . S
H2123 C2152 0.950 . S
H2124 C2154 0.950 . S
H2125 C2155 0.950 . S
C2126 H2108 0.951 . S
C2126 C2127 1.366 . S
C2126 C2128 1.388 . S
C2127 C2126 1.366 . S
C2127 C2131 1.385 . S
C2128 H2109 0.951 . S
C2128 C2126 1.388 . S
C2128 C2129 1.366 . S
C2129 C2128 1.366 . S
C2129 C2130 1.414 . S
C2129 C2132 1.499 . S
C2130 H2110 0.950 . S
C2130 C2129 1.414 . S
C2130 C2131 1.374 . S
C2131 H2111 0.950 . S
C2131 C2127 1.385 . S
C2131 C2130 1.374 . S
C2132 C2129 1.499 . S
C2132 C2133 1.373 . S
C2132 C2134 1.389 . S
C2133 H2112 0.950 . S
C2133 C2132 1.373 . S
C2133 C2149 1.377 . S
C2134 C2132 1.389 . S
C2134 C2135 1.524 . S
C2134 C2148 1.377 . S
C2135 C2134 1.524 . S
C2135 C2136 1.397 . S
C2135 C2140 1.363 . S
C2136 H2113 0.950 . S
C2136 C2135 1.397 . S
C2136 C2137 1.334 . S
C2137 H2114 0.950 . S
C2137 C2136 1.334 . S
C2137 C2138 1.287 . S
C2138 C2137 1.287 . S
C2138 C2139 1.524 . S
C2138 H2157 0.913 . S
C2139 H2115 0.950 . S
C2139 C2138 1.524 . S
C2139 C2140 1.415 . S
C2140 H2116 0.950 . S
C2140 C2135 1.363 . S
C2140 C2139 1.415 . S
C2141 H2117 0.951 . S
C2141 C2142 1.366 . S
C2141 C2143 1.388 . S
C2142 C2141 1.366 . S
C2142 C2146 1.385 . S
C2143 H2118 0.951 . S
C2143 C2141 1.388 . S
C2143 C2144 1.366 . S
C2144 C2143 1.366 . S
C2144 C2145 1.414 . S
C2144 C2147 1.499 . S
C2145 H2119 0.950 . S
C2145 C2144 1.414 . S
C2145 C2146 1.374 . S
C2146 H2120 0.950 . S
C2146 C2142 1.385 . S
C2146 C2145 1.374 . S
C2147 C2144 1.499 . S
C2147 C2148 1.373 . S
C2147 C2149 1.389 . S
C2148 H2121 0.950 . S
C2148 C2134 1.377 . S
C2148 C2147 1.373 . S
C2149 C2133 1.377 . S
C2149 C2147 1.389 . S
C2149 C2150 1.524 . S
C2150 C2149 1.524 . S
C2150 C2151 1.397 . S
C2150 C2155 1.363 . S
C2151 H2122 0.950 . S
C2151 C2150 1.397 . S
C2151 C2152 1.334 . S
C2152 H2123 0.950 . S
C2152 C2151 1.334 . S
C2152 C2153 1.287 . S
C2153 C2152 1.287 . S
C2153 C2154 1.524 . S
C2153 H2156 0.999 . S
C2154 H2124 0.950 . S
C2154 C2153 1.524 . S
C2154 C2155 1.415 . S
C2155 H2125 0.950 . S
C2155 C2150 1.363 . S
C2155 C2154 1.415 . S
H2156 C2153 0.999 . S
H2157 C2138 0.913 . S
H2158 C2176 0.951 . S
H2159 C2178 0.951 . S
H2160 C2180 0.950 . S
H2161 C2181 0.950 . S
H2162 C2183 0.950 . S
H2163 C2186 0.950 . S
H2164 C2187 0.950 . S
H2165 C2189 0.950 . S
H2166 C2190 0.950 . S
H2167 C2191 0.951 . S
H2168 C2193 0.951 . S
H2169 C2195 0.950 . S
H2170 C2196 0.950 . S
H2171 C2198 0.950 . S
H2172 C2201 0.950 . S
H2173 C2202 0.950 . S
H2174 C2204 0.950 . S
H2175 C2205 0.950 . S
C2176 H2158 0.951 . S
C2176 C2177 1.366 . S
C2176 C2178 1.388 . S
C2177 C2176 1.366 . S
C2177 C2181 1.385 . S
C2178 H2159 0.951 . S
C2178 C2176 1.388 . S
C2178 C2179 1.366 . S
C2179 C2178 1.366 . S
C2179 C2180 1.414 . S
C2179 C2182 1.499 . S
C2180 H2160 0.950 . S
C2180 C2179 1.414 . S
C2180 C2181 1.374 . S
C2181 H2161 0.950 . S
C2181 C2177 1.385 . S
C2181 C2180 1.374 . S
C2182 C2179 1.499 . S
C2182 C2183 1.373 . S
C2182 C2184 1.389 . S
C2183 H2162 0.950 . S
C2183 C2182 1.373 . S
C2183 C2199 1.377 . S
C2184 C2182 1.389 . S
C2184 C2185 1.524 . S
C2184 C2198 1.377 . S
C2185 C2184 1.524 . S
C2185 C2186 1.397 . S
C2185 C2190 1.363 . S
C2186 H2163 0.950 . S
C2186 C2185 1.397 . S
C2186 C2187 1.334 . S
C2187 H2164 0.950 . S
C2187 C2186 1.334 . S
C2187 C2188 1.287 . S
C2188 C2187 1.287 . S
C2188 C2189 1.524 . S
C2188 H2207 0.913 . S
C2189 H2165 0.950 . S
C2189 C2188 1.524 . S
C2189 C2190 1.415 . S
C2190 H2166 0.950 . S
C2190 C2185 1.363 . S
C2190 C2189 1.415 . S
C2191 H2167 0.951 . S
C2191 C2192 1.366 . S
C2191 C2193 1.388 . S
C2192 C2191 1.366 . S
C2192 C2196 1.385 . S
C2193 H2168 0.951 . S
C2193 C2191 1.388 . S
C2193 C2194 1.366 . S
C2194 C2193 1.366 . S
C2194 C2195 1.414 . S
C2194 C2197 1.499 . S
C2195 H2169 0.950 . S
C2195 C2194 1.414 . S
C2195 C2196 1.374 . S
C2196 H2170 0.950 . S
C2196 C2192 1.385 . S
C2196 C2195 1.374 . S
C2197 C2194 1.499 . S
C2197 C2198 1.373 . S
C2197 C2199 1.389 . S
C2198 H2171 0.950 . S
C2198 C2184 1.377 . S
C2198 C2197 1.373 . S
C2199 C2183 1.377 . S
C2199 C2197 1.389 . S
C2199 C2200 1.524 . S
C2200 C2199 1.524 . S
C2200 C2201 1.397 . S
C2200 C2205 1.363 . S
C2201 H2172 0.950 . S
C2201 C2200 1.397 . S
C2201 C2202 1.334 . S
C2202 H2173 0.950 . S
C2202 C2201 1.334 . S
C2202 C2203 1.287 . S
C2203 C2202 1.287 . S
C2203 C2204 1.524 . S
C2203 H2206 0.999 . S
C2204 H2174 0.950 . S
C2204 C2203 1.524 . S
C2204 C2205 1.415 . S
C2205 H2175 0.950 . S
C2205 C2200 1.363 . S
C2205 C2204 1.415 . S
H2206 C2203 0.999 . S
H2207 C2188 0.913 . S
H2208 C2226 0.951 . S
H2209 C2228 0.951 . S
H2210 C2230 0.950 . S
H2211 C2231 0.950 . S
H2212 C2233 0.950 . S
H2213 C2236 0.950 . S
H2214 C2237 0.950 . S
H2215 C2239 0.950 . S
H2216 C2240 0.950 . S
H2217 C2241 0.951 . S
H2218 C2243 0.951 . S
H2219 C2245 0.950 . S
H2220 C2246 0.950 . S
H2221 C2248 0.950 . S
H2222 C2251 0.950 . S
H2223 C2252 0.950 . S
H2224 C2254 0.950 . S
H2225 C2255 0.950 . S
C2226 H2208 0.951 . S
C2226 C2227 1.366 . S
C2226 C2228 1.388 . S
C2227 C2226 1.366 . S
C2227 C2231 1.385 . S
C2228 H2209 0.951 . S
C2228 C2226 1.388 . S
C2228 C2229 1.366 . S
C2229 C2228 1.366 . S
C2229 C2230 1.414 . S
C2229 C2232 1.499 . S
C2230 H2210 0.950 . S
C2230 C2229 1.414 . S
C2230 C2231 1.374 . S
C2231 H2211 0.950 . S
C2231 C2227 1.385 . S
C2231 C2230 1.374 . S
C2232 C2229 1.499 . S
C2232 C2233 1.373 . S
C2232 C2234 1.389 . S
C2233 H2212 0.950 . S
C2233 C2232 1.373 . S
C2233 C2249 1.377 . S
C2234 C2232 1.389 . S
C2234 C2235 1.524 . S
C2234 C2248 1.377 . S
C2235 C2234 1.524 . S
C2235 C2236 1.397 . S
C2235 C2240 1.363 . S
C2236 H2213 0.950 . S
C2236 C2235 1.397 . S
C2236 C2237 1.334 . S
C2237 H2214 0.950 . S
C2237 C2236 1.334 . S
C2237 C2238 1.287 . S
C2238 C2237 1.287 . S
C2238 C2239 1.524 . S
C2238 H2257 0.913 . S
C2239 H2215 0.950 . S
C2239 C2238 1.524 . S
C2239 C2240 1.415 . S
C2240 H2216 0.950 . S
C2240 C2235 1.363 . S
C2240 C2239 1.415 . S
C2241 H2217 0.951 . S
C2241 C2242 1.366 . S
C2241 C2243 1.388 . S
C2242 C2241 1.366 . S
C2242 C2246 1.385 . S
C2243 H2218 0.951 . S
C2243 C2241 1.388 . S
C2243 C2244 1.366 . S
C2244 C2243 1.366 . S
C2244 C2245 1.414 . S
C2244 C2247 1.499 . S
C2245 H2219 0.950 . S
C2245 C2244 1.414 . S
C2245 C2246 1.374 . S
C2246 H2220 0.950 . S
C2246 C2242 1.385 . S
C2246 C2245 1.374 . S
C2247 C2244 1.499 . S
C2247 C2248 1.373 . S
C2247 C2249 1.389 . S
C2248 H2221 0.950 . S
C2248 C2234 1.377 . S
C2248 C2247 1.373 . S
C2249 C2233 1.377 . S
C2249 C2247 1.389 . S
C2249 C2250 1.524 . S
C2250 C2249 1.524 . S
C2250 C2251 1.397 . S
C2250 C2255 1.363 . S
C2251 H2222 0.950 . S
C2251 C2250 1.397 . S
C2251 C2252 1.334 . S
C2252 H2223 0.950 . S
C2252 C2251 1.334 . S
C2252 C2253 1.287 . S
C2253 C2252 1.287 . S
C2253 C2254 1.524 . S
C2253 H2256 0.999 . S
C2254 H2224 0.950 . S
C2254 C2253 1.524 . S
C2254 C2255 1.415 . S
C2255 H2225 0.950 . S
C2255 C2250 1.363 . S
C2255 C2254 1.415 . S
H2256 C2253 0.999 . S
H2257 C2238 0.913 . S
H2258 C2276 0.951 . S
H2259 C2278 0.951 . S
H2260 C2280 0.950 . S
H2261 C2281 0.950 . S
H2262 C2283 0.950 . S
H2263 C2286 0.950 . S
H2264 C2287 0.950 . S
H2265 C2289 0.950 . S
H2266 C2290 0.950 . S
H2267 C2291 0.951 . S
H2268 C2293 0.951 . S
H2269 C2295 0.950 . S
H2270 C2296 0.950 . S
H2271 C2298 0.950 . S
H2272 C2301 0.950 . S
H2273 C2302 0.950 . S
H2274 C2304 0.950 . S
H2275 C2305 0.950 . S
C2276 H2258 0.951 . S
C2276 C2277 1.366 . S
C2276 C2278 1.388 . S
C2277 C2276 1.366 . S
C2277 C2281 1.385 . S
C2278 H2259 0.951 . S
C2278 C2276 1.388 . S
C2278 C2279 1.366 . S
C2279 C2278 1.366 . S
C2279 C2280 1.414 . S
C2279 C2282 1.499 . S
C2280 H2260 0.950 . S
C2280 C2279 1.414 . S
C2280 C2281 1.374 . S
C2281 H2261 0.950 . S
C2281 C2277 1.385 . S
C2281 C2280 1.374 . S
C2282 C2279 1.499 . S
C2282 C2283 1.373 . S
C2282 C2284 1.389 . S
C2283 H2262 0.950 . S
C2283 C2282 1.373 . S
C2283 C2299 1.377 . S
C2284 C2282 1.389 . S
C2284 C2285 1.524 . S
C2284 C2298 1.377 . S
C2285 C2284 1.524 . S
C2285 C2286 1.397 . S
C2285 C2290 1.363 . S
C2286 H2263 0.950 . S
C2286 C2285 1.397 . S
C2286 C2287 1.334 . S
C2287 H2264 0.950 . S
C2287 C2286 1.334 . S
C2287 C2288 1.287 . S
C2288 C2287 1.287 . S
C2288 C2289 1.524 . S
C2288 H2307 0.913 . S
C2289 H2265 0.950 . S
C2289 C2288 1.524 . S
C2289 C2290 1.415 . S
C2290 H2266 0.950 . S
C2290 C2285 1.363 . S
C2290 C2289 1.415 . S
C2291 H2267 0.951 . S
C2291 C2292 1.366 . S
C2291 C2293 1.388 . S
C2292 C2291 1.366 . S
C2292 C2296 1.385 . S
C2293 H2268 0.951 . S
C2293 C2291 1.388 . S
C2293 C2294 1.366 . S
C2294 C2293 1.366 . S
C2294 C2295 1.414 . S
C2294 C2297 1.499 . S
C2295 H2269 0.950 . S
C2295 C2294 1.414 . S
C2295 C2296 1.374 . S
C2296 H2270 0.950 . S
C2296 C2292 1.385 . S
C2296 C2295 1.374 . S
C2297 C2294 1.499 . S
C2297 C2298 1.373 . S
C2297 C2299 1.389 . S
C2298 H2271 0.950 . S
C2298 C2284 1.377 . S
C2298 C2297 1.373 . S
C2299 C2283 1.377 . S
C2299 C2297 1.389 . S
C2299 C2300 1.524 . S
C2300 C2299 1.524 . S
C2300 C2301 1.397 . S
C2300 C2305 1.363 . S
C2301 H2272 0.950 . S
C2301 C2300 1.397 . S
C2301 C2302 1.334 . S
C2302 H2273 0.950 . S
C2302 C2301 1.334 . S
C2302 C2303 1.287 . S
C2303 C2302 1.287 . S
C2303 C2304 1.524 . S
C2303 H2306 0.999 . S
C2304 H2274 0.950 . S
C2304 C2303 1.524 . S
C2304 C2305 1.415 . S
C2305 H2275 0.950 . S
C2305 C2300 1.363 . S
C2305 C2304 1.415 . S
H2306 C2303 0.999 . S
H2307 C2288 0.913 . S
H2308 C2326 0.951 . S
H2309 C2328 0.951 . S
H2310 C2330 0.950 . S
H2311 C2331 0.950 . S
H2312 C2333 0.950 . S
H2313 C2336 0.950 . S
H2314 C2337 0.950 . S
H2315 C2339 0.950 . S
H2316 C2340 0.950 . S
H2317 C2341 0.951 . S
H2318 C2343 0.951 . S
H2319 C2345 0.950 . S
H2320 C2346 0.950 . S
H2321 C2348 0.950 . S
H2322 C2351 0.950 . S
H2323 C2352 0.950 . S
H2324 C2354 0.950 . S
H2325 C2355 0.950 . S
C2326 H2308 0.951 . S
C2326 C2327 1.366 . S
C2326 C2328 1.388 . S
C2327 C2326 1.366 . S
C2327 C2331 1.385 . S
C2328 H2309 0.951 . S
C2328 C2326 1.388 . S
C2328 C2329 1.366 . S
C2329 C2328 1.366 . S
C2329 C2330 1.414 . S
C2329 C2332 1.499 . S
C2330 H2310 0.950 . S
C2330 C2329 1.414 . S
C2330 C2331 1.374 . S
C2331 H2311 0.950 . S
C2331 C2327 1.385 . S
C2331 C2330 1.374 . S
C2332 C2329 1.499 . S
C2332 C2333 1.373 . S
C2332 C2334 1.389 . S
C2333 H2312 0.950 . S
C2333 C2332 1.373 . S
C2333 C2349 1.377 . S
C2334 C2332 1.389 . S
C2334 C2335 1.524 . S
C2334 C2348 1.377 . S
C2335 C2334 1.524 . S
C2335 C2336 1.397 . S
C2335 C2340 1.363 . S
C2336 H2313 0.950 . S
C2336 C2335 1.397 . S
C2336 C2337 1.334 . S
C2337 H2314 0.950 . S
C2337 C2336 1.334 . S
C2337 C2338 1.287 . S
C2338 C2337 1.287 . S
C2338 C2339 1.524 . S
C2338 H2357 0.913 . S
C2339 H2315 0.950 . S
C2339 C2338 1.524 . S
C2339 C2340 1.415 . S
C2340 H2316 0.950 . S
C2340 C2335 1.363 . S
C2340 C2339 1.415 . S
C2341 H2317 0.951 . S
C2341 C2342 1.366 . S
C2341 C2343 1.388 . S
C2342 C2341 1.366 . S
C2342 C2346 1.385 . S
C2343 H2318 0.951 . S
C2343 C2341 1.388 . S
C2343 C2344 1.366 . S
C2344 C2343 1.366 . S
C2344 C2345 1.414 . S
C2344 C2347 1.499 . S
C2345 H2319 0.950 . S
C2345 C2344 1.414 . S
C2345 C2346 1.374 . S
C2346 H2320 0.950 . S
C2346 C2342 1.385 . S
C2346 C2345 1.374 . S
C2347 C2344 1.499 . S
C2347 C2348 1.373 . S
C2347 C2349 1.389 . S
C2348 H2321 0.950 . S
C2348 C2334 1.377 . S
C2348 C2347 1.373 . S
C2349 C2333 1.377 . S
C2349 C2347 1.389 . S
C2349 C2350 1.524 . S
C2350 C2349 1.524 . S
C2350 C2351 1.397 . S
C2350 C2355 1.363 . S
C2351 H2322 0.950 . S
C2351 C2350 1.397 . S
C2351 C2352 1.334 . S
C2352 H2323 0.950 . S
C2352 C2351 1.334 . S
C2352 C2353 1.287 . S
C2353 C2352 1.287 . S
C2353 C2354 1.524 . S
C2353 H2356 0.999 . S
C2354 H2324 0.950 . S
C2354 C2353 1.524 . S
C2354 C2355 1.415 . S
C2355 H2325 0.950 . S
C2355 C2350 1.363 . S
C2355 C2354 1.415 . S
H2356 C2353 0.999 . S
H2357 C2338 0.913 . S
H2358 C2376 0.951 . S
H2359 C2378 0.951 . S
H2360 C2380 0.950 . S
H2361 C2381 0.950 . S
H2362 C2383 0.950 . S
H2363 C2386 0.950 . S
H2364 C2387 0.950 . S
H2365 C2389 0.950 . S
H2366 C2390 0.950 . S
H2367 C2391 0.951 . S
H2368 C2393 0.951 . S
H2369 C2395 0.950 . S
H2370 C2396 0.950 . S
H2371 C2398 0.950 . S
H2372 C2401 0.950 . S
H2373 C2402 0.950 . S
H2374 C2404 0.950 . S
H2375 C2405 0.950 . S
C2376 H2358 0.951 . S
C2376 C2377 1.366 . S
C2376 C2378 1.388 . S
C2377 C2376 1.366 . S
C2377 C2381 1.385 . S
C2378 H2359 0.951 . S
C2378 C2376 1.388 . S
C2378 C2379 1.366 . S
C2379 C2378 1.366 . S
C2379 C2380 1.414 . S
C2379 C2382 1.499 . S
C2380 H2360 0.950 . S
C2380 C2379 1.414 . S
C2380 C2381 1.374 . S
C2381 H2361 0.950 . S
C2381 C2377 1.385 . S
C2381 C2380 1.374 . S
C2382 C2379 1.499 . S
C2382 C2383 1.373 . S
C2382 C2384 1.389 . S
C2383 H2362 0.950 . S
C2383 C2382 1.373 . S
C2383 C2399 1.377 . S
C2384 C2382 1.389 . S
C2384 C2385 1.524 . S
C2384 C2398 1.377 . S
C2385 C2384 1.524 . S
C2385 C2386 1.397 . S
C2385 C2390 1.363 . S
C2386 H2363 0.950 . S
C2386 C2385 1.397 . S
C2386 C2387 1.334 . S
C2387 H2364 0.950 . S
C2387 C2386 1.334 . S
C2387 C2388 1.287 . S
C2388 C2387 1.287 . S
C2388 C2389 1.524 . S
C2388 H2407 0.913 . S
C2389 H2365 0.950 . S
C2389 C2388 1.524 . S
C2389 C2390 1.415 . S
C2390 H2366 0.950 . S
C2390 C2385 1.363 . S
C2390 C2389 1.415 . S
C2391 H2367 0.951 . S
C2391 C2392 1.366 . S
C2391 C2393 1.388 . S
C2392 C2391 1.366 . S
C2392 C2396 1.385 . S
C2393 H2368 0.951 . S
C2393 C2391 1.388 . S
C2393 C2394 1.366 . S
C2394 C2393 1.366 . S
C2394 C2395 1.414 . S
C2394 C2397 1.499 . S
C2395 H2369 0.950 . S
C2395 C2394 1.414 . S
C2395 C2396 1.374 . S
C2396 H2370 0.950 . S
C2396 C2392 1.385 . S
C2396 C2395 1.374 . S
C2397 C2394 1.499 . S
C2397 C2398 1.373 . S
C2397 C2399 1.389 . S
C2398 H2371 0.950 . S
C2398 C2384 1.377 . S
C2398 C2397 1.373 . S
C2399 C2383 1.377 . S
C2399 C2397 1.389 . S
C2399 C2400 1.524 . S
C2400 C2399 1.524 . S
C2400 C2401 1.397 . S
C2400 C2405 1.363 . S
C2401 H2372 0.950 . S
C2401 C2400 1.397 . S
C2401 C2402 1.334 . S
C2402 H2373 0.950 . S
C2402 C2401 1.334 . S
C2402 C2403 1.287 . S
C2403 C2402 1.287 . S
C2403 C2404 1.524 . S
C2403 H2406 0.999 . S
C2404 H2374 0.950 . S
C2404 C2403 1.524 . S
C2404 C2405 1.415 . S
C2405 H2375 0.950 . S
C2405 C2400 1.363 . S
C2405 C2404 1.415 . S
H2406 C2403 0.999 . S
H2407 C2388 0.913 . S
H2408 C2426 0.951 . S
H2409 C2428 0.951 . S
H2410 C2430 0.950 . S
H2411 C2431 0.950 . S
H2412 C2433 0.950 . S
H2413 C2436 0.950 . S
H2414 C2437 0.950 . S
H2415 C2439 0.950 . S
H2416 C2440 0.950 . S
H2417 C2441 0.951 . S
H2418 C2443 0.951 . S
H2419 C2445 0.950 . S
H2420 C2446 0.950 . S
H2421 C2448 0.950 . S
H2422 C2451 0.950 . S
H2423 C2452 0.950 . S
H2424 C2454 0.950 . S
H2425 C2455 0.950 . S
C2426 H2408 0.951 . S
C2426 C2427 1.366 . S
C2426 C2428 1.388 . S
C2427 C2426 1.366 . S
C2427 C2431 1.385 . S
C2428 H2409 0.951 . S
C2428 C2426 1.388 . S
C2428 C2429 1.366 . S
C2429 C2428 1.366 . S
C2429 C2430 1.414 . S
C2429 C2432 1.499 . S
C2430 H2410 0.950 . S
C2430 C2429 1.414 . S
C2430 C2431 1.374 . S
C2431 H2411 0.950 . S
C2431 C2427 1.385 . S
C2431 C2430 1.374 . S
C2432 C2429 1.499 . S
C2432 C2433 1.373 . S
C2432 C2434 1.389 . S
C2433 H2412 0.950 . S
C2433 C2432 1.373 . S
C2433 C2449 1.377 . S
C2434 C2432 1.389 . S
C2434 C2435 1.524 . S
C2434 C2448 1.377 . S
C2435 C2434 1.524 . S
C2435 C2436 1.397 . S
C2435 C2440 1.363 . S
C2436 H2413 0.950 . S
C2436 C2435 1.397 . S
C2436 C2437 1.334 . S
C2437 H2414 0.950 . S
C2437 C2436 1.334 . S
C2437 C2438 1.287 . S
C2438 C2437 1.287 . S
C2438 C2439 1.524 . S
C2438 H2457 0.913 . S
C2439 H2415 0.950 . S
C2439 C2438 1.524 . S
C2439 C2440 1.415 . S
C2440 H2416 0.950 . S
C2440 C2435 1.363 . S
C2440 C2439 1.415 . S
C2441 H2417 0.951 . S
C2441 C2442 1.366 . S
C2441 C2443 1.388 . S
C2442 C2441 1.366 . S
C2442 C2446 1.385 . S
C2443 H2418 0.951 . S
C2443 C2441 1.388 . S
C2443 C2444 1.366 . S
C2444 C2443 1.366 . S
C2444 C2445 1.414 . S
C2444 C2447 1.499 . S
C2445 H2419 0.950 . S
C2445 C2444 1.414 . S
C2445 C2446 1.374 . S
C2446 H2420 0.950 . S
C2446 C2442 1.385 . S
C2446 C2445 1.374 . S
C2447 C2444 1.499 . S
C2447 C2448 1.373 . S
C2447 C2449 1.389 . S
C2448 H2421 0.950 . S
C2448 C2434 1.377 . S
C2448 C2447 1.373 . S
C2449 C2433 1.377 . S
C2449 C2447 1.389 . S
C2449 C2450 1.524 . S
C2450 C2449 1.524 . S
C2450 C2451 1.397 . S
C2450 C2455 1.363 . S
C2451 H2422 0.950 . S
C2451 C2450 1.397 . S
C2451 C2452 1.334 . S
C2452 H2423 0.950 . S
C2452 C2451 1.334 . S
C2452 C2453 1.287 . S
C2453 C2452 1.287 . S
C2453 C2454 1.524 . S
C2453 H2456 0.999 . S
C2454 H2424 0.950 . S
C2454 C2453 1.524 . S
C2454 C2455 1.415 . S
C2455 H2425 0.950 . S
C2455 C2450 1.363 . S
C2455 C2454 1.415 . S
H2456 C2453 0.999 . S
H2457 C2438 0.913 . S
H2458 C2476 0.951 . S
H2459 C2478 0.951 . S
H2460 C2480 0.950 . S
H2461 C2481 0.950 . S
H2462 C2483 0.950 . S
H2463 C2486 0.950 . S
H2464 C2487 0.950 . S
H2465 C2489 0.950 . S
H2466 C2490 0.950 . S
H2467 C2491 0.951 . S
H2468 C2493 0.951 . S
H2469 C2495 0.950 . S
H2470 C2496 0.950 . S
H2471 C2498 0.950 . S
H2472 C2501 0.950 . S
H2473 C2502 0.950 . S
H2474 C2504 0.950 . S
H2475 C2505 0.950 . S
C2476 H2458 0.951 . S
C2476 C2477 1.366 . S
C2476 C2478 1.388 . S
C2477 C2476 1.366 . S
C2477 C2481 1.385 . S
C2478 H2459 0.951 . S
C2478 C2476 1.388 . S
C2478 C2479 1.366 . S
C2479 C2478 1.366 . S
C2479 C2480 1.414 . S
C2479 C2482 1.499 . S
C2480 H2460 0.950 . S
C2480 C2479 1.414 . S
C2480 C2481 1.374 . S
C2481 H2461 0.950 . S
C2481 C2477 1.385 . S
C2481 C2480 1.374 . S
C2482 C2479 1.499 . S
C2482 C2483 1.373 . S
C2482 C2484 1.389 . S
C2483 H2462 0.950 . S
C2483 C2482 1.373 . S
C2483 C2499 1.377 . S
C2484 C2482 1.389 . S
C2484 C2485 1.524 . S
C2484 C2498 1.377 . S
C2485 C2484 1.524 . S
C2485 C2486 1.397 . S
C2485 C2490 1.363 . S
C2486 H2463 0.950 . S
C2486 C2485 1.397 . S
C2486 C2487 1.334 . S
C2487 H2464 0.950 . S
C2487 C2486 1.334 . S
C2487 C2488 1.287 . S
C2488 C2487 1.287 . S
C2488 C2489 1.524 . S
C2488 H2507 0.913 . S
C2489 H2465 0.950 . S
C2489 C2488 1.524 . S
C2489 C2490 1.415 . S
C2490 H2466 0.950 . S
C2490 C2485 1.363 . S
C2490 C2489 1.415 . S
C2491 H2467 0.951 . S
C2491 C2492 1.366 . S
C2491 C2493 1.388 . S
C2492 C2491 1.366 . S
C2492 C2496 1.385 . S
C2493 H2468 0.951 . S
C2493 C2491 1.388 . S
C2493 C2494 1.366 . S
C2494 C2493 1.366 . S
C2494 C2495 1.414 . S
C2494 C2497 1.499 . S
C2495 H2469 0.950 . S
C2495 C2494 1.414 . S
C2495 C2496 1.374 . S
C2496 H2470 0.950 . S
C2496 C2492 1.385 . S
C2496 C2495 1.374 . S
C2497 C2494 1.499 . S
C2497 C2498 1.373 . S
C2497 C2499 1.389 . S
C2498 H2471 0.950 . S
C2498 C2484 1.377 . S
C2498 C2497 1.373 . S
C2499 C2483 1.377 . S
C2499 C2497 1.389 . S
C2499 C2500 1.524 . S
C2500 C2499 1.524 . S
C2500 C2501 1.397 . S
C2500 C2505 1.363 . S
C2501 H2472 0.950 . S
C2501 C2500 1.397 . S
C2501 C2502 1.334 . S
C2502 H2473 0.950 . S
C2502 C2501 1.334 . S
C2502 C2503 1.287 . S
C2503 C2502 1.287 . S
C2503 C2504 1.524 . S
C2503 H2506 0.999 . S
C2504 H2474 0.950 . S
C2504 C2503 1.524 . S
C2504 C2505 1.415 . S
C2505 H2475 0.950 . S
C2505 C2500 1.363 . S
C2505 C2504 1.415 . S
H2506 C2503 0.999 . S
H2507 C2488 0.913 . S
H2508 C2526 0.951 . S
H2509 C2528 0.951 . S
H2510 C2530 0.950 . S
H2511 C2531 0.950 . S
H2512 C2533 0.950 . S
H2513 C2536 0.950 . S
H2514 C2537 0.950 . S
H2515 C2539 0.950 . S
H2516 C2540 0.950 . S
H2517 C2541 0.951 . S
H2518 C2543 0.951 . S
H2519 C2545 0.950 . S
H2520 C2546 0.950 . S
H2521 C2548 0.950 . S
H2522 C2551 0.950 . S
H2523 C2552 0.950 . S
H2524 C2554 0.950 . S
H2525 C2555 0.950 . S
C2526 H2508 0.951 . S
C2526 C2527 1.366 . S
C2526 C2528 1.388 . S
C2527 C2526 1.366 . S
C2527 C2531 1.385 . S
C2528 H2509 0.951 . S
C2528 C2526 1.388 . S
C2528 C2529 1.366 . S
C2529 C2528 1.366 . S
C2529 C2530 1.414 . S
C2529 C2532 1.499 . S
C2530 H2510 0.950 . S
C2530 C2529 1.414 . S
C2530 C2531 1.374 . S
C2531 H2511 0.950 . S
C2531 C2527 1.385 . S
C2531 C2530 1.374 . S
C2532 C2529 1.499 . S
C2532 C2533 1.373 1_556 S
C2532 C2534 1.389 . S
C2533 H2512 0.950 . S
C2533 C2532 1.373 1_554 S
C2533 C2549 1.377 . S
C2534 C2532 1.389 . S
C2534 C2535 1.524 . S
C2534 C2548 1.377 . S
C2535 C2534 1.524 . S
C2535 C2536 1.397 . S
C2535 C2540 1.363 . S
C2536 H2513 0.950 . S
C2536 C2535 1.397 . S
C2536 C2537 1.334 . S
C2537 H2514 0.950 . S
C2537 C2536 1.334 . S
C2537 C2538 1.287 . S
C2538 C2537 1.287 . S
C2538 C2539 1.524 . S
C2538 H2557 0.913 . S
C2539 H2515 0.950 . S
C2539 C2538 1.524 . S
C2539 C2540 1.415 . S
C2540 H2516 0.950 . S
C2540 C2535 1.363 . S
C2540 C2539 1.415 . S
C2541 H2517 0.951 . S
C2541 C2542 1.366 . S
C2541 C2543 1.388 . S
C2542 C2541 1.366 . S
C2542 C2546 1.385 . S
C2543 H2518 0.951 . S
C2543 C2541 1.388 . S
C2543 C2544 1.366 . S
C2544 C2543 1.366 . S
C2544 C2545 1.414 . S
C2544 C2547 1.499 . S
C2545 H2519 0.950 . S
C2545 C2544 1.414 . S
C2545 C2546 1.374 . S
C2546 H2520 0.950 . S
C2546 C2542 1.385 . S
C2546 C2545 1.374 . S
C2547 C2544 1.499 . S
C2547 C2548 1.373 1_554 S
C2547 C2549 1.389 . S
C2548 H2521 0.950 . S
C2548 C2534 1.377 . S
C2548 C2547 1.373 1_556 S
C2549 C2533 1.377 . S
C2549 C2547 1.389 . S
C2549 C2550 1.524 . S
C2550 C2549 1.524 . S
C2550 C2551 1.397 . S
C2550 C2555 1.363 . S
C2551 H2522 0.950 . S
C2551 C2550 1.397 . S
C2551 C2552 1.334 . S
C2552 H2523 0.950 . S
C2552 C2551 1.334 . S
C2552 C2553 1.287 . S
C2553 C2552 1.287 . S
C2553 C2554 1.524 . S
C2553 H2556 0.999 . S
C2554 H2524 0.950 . S
C2554 C2553 1.524 . S
C2554 C2555 1.415 . S
C2555 H2525 0.950 . S
C2555 C2550 1.363 . S
C2555 C2554 1.415 . S
H2556 C2553 0.999 . S
H2557 C2538 0.913 . S
H2558 C2576 0.951 . S
H2559 C2578 0.951 . S
H2560 C2580 0.950 . S
H2561 C2581 0.950 . S
H2562 C2583 0.950 . S
H2563 C2586 0.950 . S
H2564 C2587 0.950 . S
H2565 C2589 0.950 . S
H2566 C2590 0.950 . S
H2567 C2591 0.951 . S
H2568 C2593 0.951 . S
H2569 C2595 0.950 . S
H2570 C2596 0.950 . S
H2571 C2598 0.950 . S
H2572 C2601 0.950 . S
H2573 C2602 0.950 . S
H2574 C2604 0.950 . S
H2575 C2605 0.950 . S
C2576 H2558 0.951 . S
C2576 C2577 1.366 . S
C2576 C2578 1.388 . S
C2577 C2576 1.366 . S
C2577 C2581 1.385 . S
C2578 H2559 0.951 . S
C2578 C2576 1.388 . S
C2578 C2579 1.366 . S
C2579 C2578 1.366 . S
C2579 C2580 1.414 . S
C2579 C2582 1.499 . S
C2580 H2560 0.950 . S
C2580 C2579 1.414 . S
C2580 C2581 1.374 . S
C2581 H2561 0.950 . S
C2581 C2577 1.385 . S
C2581 C2580 1.374 . S
C2582 C2579 1.499 . S
C2582 C2583 1.373 . S
C2582 C2584 1.389 . S
C2583 H2562 0.950 . S
C2583 C2582 1.373 . S
C2583 C2599 1.377 1_455 S
C2584 C2582 1.389 . S
C2584 C2585 1.524 . S
C2584 C2598 1.377 1_455 S
C2585 C2584 1.524 . S
C2585 C2586 1.397 . S
C2585 C2590 1.363 . S
C2586 H2563 0.950 . S
C2586 C2585 1.397 . S
C2586 C2587 1.334 . S
C2587 H2564 0.950 . S
C2587 C2586 1.334 . S
C2587 C2588 1.287 . S
C2588 C2587 1.287 . S
C2588 C2589 1.524 . S
C2588 H2607 0.913 . S
C2589 H2565 0.950 . S
C2589 C2588 1.524 . S
C2589 C2590 1.415 . S
C2590 H2566 0.950 . S
C2590 C2585 1.363 . S
C2590 C2589 1.415 . S
C2591 H2567 0.951 . S
C2591 C2592 1.366 . S
C2591 C2593 1.388 . S
C2592 C2591 1.366 . S
C2592 C2596 1.385 . S
C2593 H2568 0.951 . S
C2593 C2591 1.388 . S
C2593 C2594 1.366 . S
C2594 C2593 1.366 . S
C2594 C2595 1.414 . S
C2594 C2597 1.499 . S
C2595 H2569 0.950 . S
C2595 C2594 1.414 . S
C2595 C2596 1.374 . S
C2596 H2570 0.950 . S
C2596 C2592 1.385 . S
C2596 C2595 1.374 . S
C2597 C2594 1.499 . S
C2597 C2598 1.373 . S
C2597 C2599 1.389 . S
C2598 H2571 0.950 . S
C2598 C2584 1.377 1_655 S
C2598 C2597 1.373 . S
C2599 C2583 1.377 1_655 S
C2599 C2597 1.389 . S
C2599 C2600 1.524 . S
C2600 C2599 1.524 . S
C2600 C2601 1.397 . S
C2600 C2605 1.363 . S
C2601 H2572 0.950 . S
C2601 C2600 1.397 . S
C2601 C2602 1.334 . S
C2602 H2573 0.950 . S
C2602 C2601 1.334 . S
C2602 C2603 1.287 . S
C2603 C2602 1.287 . S
C2603 C2604 1.524 . S
C2603 H2606 0.999 . S
C2604 H2574 0.950 . S
C2604 C2603 1.524 . S
C2604 C2605 1.415 . S
C2605 H2575 0.950 . S
C2605 C2600 1.363 . S
C2605 C2604 1.415 . S
H2606 C2603 0.999 . S
H2607 C2588 0.913 . S
H2608 C2626 0.951 . S
H2609 C2628 0.951 . S
H2610 C2630 0.950 . S
H2611 C2631 0.950 . S
H2612 C2633 0.950 . S
H2613 C2636 0.950 . S
H2614 C2637 0.950 . S
H2615 C2639 0.950 . S
H2616 C2640 0.950 1_545 S
H2617 C2641 0.951 . S
H2618 C2643 0.951 . S
H2619 C2645 0.950 . S
H2620 C2646 0.950 . S
H2621 C2648 0.950 . S
H2622 C2651 0.950 . S
H2623 C2652 0.950 . S
H2624 C2654 0.950 . S
H2625 C2655 0.950 1_565 S
C2626 H2608 0.951 . S
C2626 C2627 1.366 . S
C2626 C2628 1.388 . S
C2627 C2626 1.366 . S
C2627 C2631 1.385 . S
C2628 H2609 0.951 . S
C2628 C2626 1.388 . S
C2628 C2629 1.366 . S
C2629 C2628 1.366 . S
C2629 C2630 1.414 . S
C2629 C2632 1.499 . S
C2630 H2610 0.950 . S
C2630 C2629 1.414 . S
C2630 C2631 1.374 . S
C2631 H2611 0.950 . S
C2631 C2627 1.385 . S
C2631 C2630 1.374 . S
C2632 C2629 1.499 . S
C2632 C2633 1.373 . S
C2632 C2634 1.389 . S
C2633 H2612 0.950 . S
C2633 C2632 1.373 . S
C2633 C2649 1.377 1_564 S
C2634 C2632 1.389 . S
C2634 C2635 1.524 . S
C2634 C2648 1.377 1_564 S
C2635 C2634 1.524 . S
C2635 C2636 1.397 . S
C2635 C2640 1.363 . S
C2636 H2613 0.950 . S
C2636 C2635 1.397 . S
C2636 C2637 1.334 . S
C2637 H2614 0.950 . S
C2637 C2636 1.334 . S
C2637 C2638 1.287 . S
C2638 C2637 1.287 . S
C2638 C2639 1.524 . S
C2638 H2657 0.913 . S
C2639 H2615 0.950 . S
C2639 C2638 1.524 . S
C2639 C2640 1.415 . S
C2640 H2616 0.950 1_565 S
C2640 C2635 1.363 . S
C2640 C2639 1.415 . S
C2641 H2617 0.951 . S
C2641 C2642 1.366 . S
C2641 C2643 1.388 . S
C2642 C2641 1.366 . S
C2642 C2646 1.385 . S
C2643 H2618 0.951 . S
C2643 C2641 1.388 . S
C2643 C2644 1.366 . S
C2644 C2643 1.366 . S
C2644 C2645 1.414 . S
C2644 C2647 1.499 . S
C2645 H2619 0.950 . S
C2645 C2644 1.414 . S
C2645 C2646 1.374 . S
C2646 H2620 0.950 . S
C2646 C2642 1.385 . S
C2646 C2645 1.374 . S
C2647 C2644 1.499 . S
C2647 C2648 1.373 . S
C2647 C2649 1.389 . S
C2648 H2621 0.950 . S
C2648 C2634 1.377 1_546 S
C2648 C2647 1.373 . S
C2649 C2633 1.377 1_546 S
C2649 C2647 1.389 . S
C2649 C2650 1.524 . S
C2650 C2649 1.524 . S
C2650 C2651 1.397 . S
C2650 C2655 1.363 . S
C2651 H2622 0.950 . S
C2651 C2650 1.397 . S
C2651 C2652 1.334 . S
C2652 H2623 0.950 . S
C2652 C2651 1.334 . S
C2652 C2653 1.287 . S
C2653 C2652 1.287 . S
C2653 C2654 1.524 . S
C2653 H2656 0.999 . S
C2654 H2624 0.950 . S
C2654 C2653 1.524 . S
C2654 C2655 1.415 . S
C2655 H2625 0.950 1_545 S
C2655 C2650 1.363 . S
C2655 C2654 1.415 . S
H2656 C2653 0.999 . S
H2657 C2638 0.913 . S
H2658 C2676 0.951 . S
H2659 C2678 0.951 . S
H2660 C2680 0.950 . S
H2661 C2681 0.950 . S
H2662 C2683 0.950 . S
H2663 C2686 0.950 . S
H2664 C2687 0.950 . S
H2665 C2689 0.950 . S
H2666 C2690 0.950 . S
H2667 C2691 0.951 . S
H2668 C2693 0.951 . S
H2669 C2695 0.950 . S
H2670 C2696 0.950 . S
H2671 C2698 0.950 . S
H2672 C2701 0.950 . S
H2673 C2702 0.950 . S
H2674 C2704 0.950 . S
H2675 C2705 0.950 . S
C2676 H2658 0.951 . S
C2676 C2677 1.366 . S
C2676 C2678 1.388 . S
C2677 C2676 1.366 . S
C2677 C2681 1.385 . S
C2678 H2659 0.951 . S
C2678 C2676 1.388 . S
C2678 C2679 1.366 . S
C2679 C2678 1.366 . S
C2679 C2680 1.414 . S
C2679 C2682 1.499 . S
C2680 H2660 0.950 . S
C2680 C2679 1.414 . S
C2680 C2681 1.374 . S
C2681 H2661 0.950 . S
C2681 C2677 1.385 . S
C2681 C2680 1.374 . S
C2682 C2679 1.499 . S
C2682 C2683 1.373 . S
C2682 C2684 1.389 . S
C2683 H2662 0.950 . S
C2683 C2682 1.373 . S
C2683 C2699 1.377 . S
C2684 C2682 1.389 . S
C2684 C2685 1.524 . S
C2684 C2698 1.377 . S
C2685 C2684 1.524 . S
C2685 C2686 1.397 . S
C2685 C2690 1.363 . S
C2686 H2663 0.950 . S
C2686 C2685 1.397 . S
C2686 C2687 1.334 . S
C2687 H2664 0.950 . S
C2687 C2686 1.334 . S
C2687 C2688 1.287 . S
C2688 C2687 1.287 . S
C2688 C2689 1.524 . S
C2688 H2707 0.913 . S
C2689 H2665 0.950 . S
C2689 C2688 1.524 . S
C2689 C2690 1.415 . S
C2690 H2666 0.950 . S
C2690 C2685 1.363 . S
C2690 C2689 1.415 . S
C2691 H2667 0.951 . S
C2691 C2692 1.366 . S
C2691 C2693 1.388 . S
C2692 C2691 1.366 . S
C2692 C2696 1.385 . S
C2693 H2668 0.951 . S
C2693 C2691 1.388 . S
C2693 C2694 1.366 . S
C2694 C2693 1.366 . S
C2694 C2695 1.414 . S
C2694 C2697 1.499 . S
C2695 H2669 0.950 . S
C2695 C2694 1.414 . S
C2695 C2696 1.374 . S
C2696 H2670 0.950 . S
C2696 C2692 1.385 . S
C2696 C2695 1.374 . S
C2697 C2694 1.499 . S
C2697 C2698 1.373 . S
C2697 C2699 1.389 . S
C2698 H2671 0.950 . S
C2698 C2684 1.377 . S
C2698 C2697 1.373 . S
C2699 C2683 1.377 . S
C2699 C2697 1.389 . S
C2699 C2700 1.524 . S
C2700 C2699 1.524 . S
C2700 C2701 1.397 . S
C2700 C2705 1.363 . S
C2701 H2672 0.950 . S
C2701 C2700 1.397 . S
C2701 C2702 1.334 . S
C2702 H2673 0.950 . S
C2702 C2701 1.334 . S
C2702 C2703 1.287 . S
C2703 C2702 1.287 . S
C2703 C2704 1.524 . S
C2703 H2706 0.999 . S
C2704 H2674 0.950 . S
C2704 C2703 1.524 . S
C2704 C2705 1.415 . S
C2705 H2675 0.950 . S
C2705 C2700 1.363 . S
C2705 C2704 1.415 . S
H2706 C2703 0.999 . S
H2707 C2688 0.913 . S
H2708 C2726 0.951 . S
H2709 C2728 0.951 . S
H2710 C2730 0.950 . S
H2711 C2731 0.950 . S
H2712 C2733 0.950 . S
H2713 C2736 0.950 . S
H2714 C2737 0.950 . S
H2715 C2739 0.950 1_455 S
H2716 C2740 0.950 . S
H2717 C2741 0.951 . S
H2718 C2743 0.951 . S
H2719 C2745 0.950 . S
H2720 C2746 0.950 . S
H2721 C2748 0.950 . S
H2722 C2751 0.950 . S
H2723 C2752 0.950 . S
H2724 C2754 0.950 1_655 S
H2725 C2755 0.950 . S
C2726 H2708 0.951 . S
C2726 C2727 1.366 . S
C2726 C2728 1.388 . S
C2727 C2726 1.366 . S
C2727 C2731 1.385 . S
C2728 H2709 0.951 . S
C2728 C2726 1.388 . S
C2728 C2729 1.366 . S
C2729 C2728 1.366 . S
C2729 C2730 1.414 . S
C2729 C2732 1.499 . S
C2730 H2710 0.950 . S
C2730 C2729 1.414 . S
C2730 C2731 1.374 . S
C2731 H2711 0.950 . S
C2731 C2727 1.385 . S
C2731 C2730 1.374 . S
C2732 C2729 1.499 . S
C2732 C2733 1.373 . S
C2732 C2734 1.389 . S
C2733 H2712 0.950 . S
C2733 C2732 1.373 . S
C2733 C2749 1.377 1_656 S
C2734 C2732 1.389 . S
C2734 C2735 1.524 . S
C2734 C2748 1.377 1_656 S
C2735 C2734 1.524 . S
C2735 C2736 1.397 . S
C2735 C2740 1.363 1_655 S
C2736 H2713 0.950 . S
C2736 C2735 1.397 . S
C2736 C2737 1.334 . S
C2737 H2714 0.950 . S
C2737 C2736 1.334 . S
C2737 C2738 1.287 . S
C2738 C2737 1.287 . S
C2738 C2739 1.524 . S
C2738 H2757 0.913 . S
C2739 H2715 0.950 1_655 S
C2739 C2738 1.524 . S
C2739 C2740 1.415 1_655 S
C2740 H2716 0.950 . S
C2740 C2735 1.363 1_455 S
C2740 C2739 1.415 1_455 S
C2741 H2717 0.951 . S
C2741 C2742 1.366 . S
C2741 C2743 1.388 . S
C2742 C2741 1.366 . S
C2742 C2746 1.385 . S
C2743 H2718 0.951 . S
C2743 C2741 1.388 . S
C2743 C2744 1.366 . S
C2744 C2743 1.366 . S
C2744 C2745 1.414 . S
C2744 C2747 1.499 . S
C2745 H2719 0.950 . S
C2745 C2744 1.414 . S
C2745 C2746 1.374 . S
C2746 H2720 0.950 . S
C2746 C2742 1.385 . S
C2746 C2745 1.374 . S
C2747 C2744 1.499 . S
C2747 C2748 1.373 . S
C2747 C2749 1.389 . S
C2748 H2721 0.950 . S
C2748 C2734 1.377 1_454 S
C2748 C2747 1.373 . S
C2749 C2733 1.377 1_454 S
C2749 C2747 1.389 . S
C2749 C2750 1.524 . S
C2750 C2749 1.524 . S
C2750 C2751 1.397 . S
C2750 C2755 1.363 1_455 S
C2751 H2722 0.950 . S
C2751 C2750 1.397 . S
C2751 C2752 1.334 . S
C2752 H2723 0.950 . S
C2752 C2751 1.334 . S
C2752 C2753 1.287 . S
C2753 C2752 1.287 . S
C2753 C2754 1.524 . S
C2753 H2756 0.999 . S
C2754 H2724 0.950 1_455 S
C2754 C2753 1.524 . S
C2754 C2755 1.415 1_455 S
C2755 H2725 0.950 . S
C2755 C2750 1.363 1_655 S
C2755 C2754 1.415 1_655 S
H2756 C2753 0.999 . S
H2757 C2738 0.913 . S
H2758 C2776 0.951 . S
H2759 C2778 0.951 . S
H2760 C2780 0.950 . S
H2761 C2781 0.950 . S
H2762 C2783 0.950 . S
H2763 C2786 0.950 . S
H2764 C2787 0.950 . S
H2765 C2789 0.950 . S
H2766 C2790 0.950 . S
H2767 C2791 0.951 . S
H2768 C2793 0.951 . S
H2769 C2795 0.950 . S
H2770 C2796 0.950 . S
H2771 C2798 0.950 . S
H2772 C2801 0.950 . S
H2773 C2802 0.950 . S
H2774 C2804 0.950 . S
H2775 C2805 0.950 . S
C2776 H2758 0.951 . S
C2776 C2777 1.366 . S
C2776 C2778 1.388 . S
C2777 C2776 1.366 . S
C2777 C2781 1.385 . S
C2778 H2759 0.951 . S
C2778 C2776 1.388 . S
C2778 C2779 1.366 . S
C2779 C2778 1.366 . S
C2779 C2780 1.414 . S
C2779 C2782 1.499 . S
C2780 H2760 0.950 . S
C2780 C2779 1.414 . S
C2780 C2781 1.374 . S
C2781 H2761 0.950 . S
C2781 C2777 1.385 . S
C2781 C2780 1.374 . S
C2782 C2779 1.499 . S
C2782 C2783 1.373 . S
C2782 C2784 1.389 1_565 S
C2783 H2762 0.950 . S
C2783 C2782 1.373 . S
C2783 C2799 1.377 . S
C2784 C2782 1.389 1_545 S
C2784 C2785 1.524 . S
C2784 C2798 1.377 . S
C2785 C2784 1.524 . S
C2785 C2786 1.397 . S
C2785 C2790 1.363 . S
C2786 H2763 0.950 . S
C2786 C2785 1.397 . S
C2786 C2787 1.334 . S
C2787 H2764 0.950 . S
C2787 C2786 1.334 . S
C2787 C2788 1.287 . S
C2788 C2787 1.287 . S
C2788 C2789 1.524 . S
C2788 H2807 0.913 . S
C2789 H2765 0.950 . S
C2789 C2788 1.524 . S
C2789 C2790 1.415 . S
C2790 H2766 0.950 . S
C2790 C2785 1.363 . S
C2790 C2789 1.415 . S
C2791 H2767 0.951 . S
C2791 C2792 1.366 . S
C2791 C2793 1.388 . S
C2792 C2791 1.366 . S
C2792 C2796 1.385 . S
C2793 H2768 0.951 . S
C2793 C2791 1.388 . S
C2793 C2794 1.366 . S
C2794 C2793 1.366 . S
C2794 C2795 1.414 . S
C2794 C2797 1.499 . S
C2795 H2769 0.950 . S
C2795 C2794 1.414 . S
C2795 C2796 1.374 . S
C2796 H2770 0.950 . S
C2796 C2792 1.385 . S
C2796 C2795 1.374 . S
C2797 C2794 1.499 . S
C2797 C2798 1.373 . S
C2797 C2799 1.389 1_545 S
C2798 H2771 0.950 . S
C2798 C2784 1.377 . S
C2798 C2797 1.373 . S
C2799 C2783 1.377 . S
C2799 C2797 1.389 1_565 S
C2799 C2800 1.524 . S
C2800 C2799 1.524 . S
C2800 C2801 1.397 . S
C2800 C2805 1.363 . S
C2801 H2772 0.950 . S
C2801 C2800 1.397 . S
C2801 C2802 1.334 . S
C2802 H2773 0.950 . S
C2802 C2801 1.334 . S
C2802 C2803 1.287 . S
C2803 C2802 1.287 . S
C2803 C2804 1.524 . S
C2803 H2806 0.999 . S
C2804 H2774 0.950 . S
C2804 C2803 1.524 . S
C2804 C2805 1.415 . S
C2805 H2775 0.950 . S
C2805 C2800 1.363 . S
C2805 C2804 1.415 . S
H2806 C2803 0.999 . S
H2807 C2788 0.913 . S
C1027 C403 1.330 . S
C1042 C58 1.178 . S
C1077 C487 1.329 . S
C1092 C142 1.177 . S
C1127 C226 1.177 . S
C1142 C67 1.330 . S
C1177 C310 1.177 . S
C1192 C151 1.329 . S
C1227 C394 1.178 . S
C1242 C235 1.330 . S
C1277 C319 1.330 . S
C1292 C478 1.178 . S
C1327 C739 1.329 . S
C1342 C562 1.176 . S
C1377 C646 1.177 . S
C1392 C823 1.329 . S
C1427 C907 1.330 . S
C1442 C730 1.177 . S
C1477 C814 1.176 . S
C1492 C991 1.329 . S
C1527 C898 1.178 . S
C1542 C571 1.330 . S
C1577 C655 1.329 . S
C1592 C982 1.176 . S
C1627 C392 1.422 . S
C1642 C69 1.270 . S
C1677 C153 1.270 . S
C1692 C476 1.422 . S
C1727 C237 1.271 . S
C1742 C56 1.422 . S
C1777 C321 1.270 . S
C1792 C140 1.422 . S
C1827 C224 1.422 . S
C1842 C405 1.271 . S
C1877 C308 1.422 . S
C1892 C489 1.271 . S
C1927 C728 1.422 . S
C1942 C573 1.270 . S
C1977 C657 1.271 . S
C1992 C812 1.422 . S
C2027 C741 1.270 . S
C2042 C896 1.422 . S
C2077 C980 1.422 . S
C2092 C825 1.270 . S
C2127 C909 1.271 . S
C2142 C560 1.422 . S
C2177 C644 1.422 . S
C2192 C993 1.269 . S
C2227 C914 1.827 . S
C2242 C74 1.827 . S
C2277 C158 1.827 . S
C2292 C998 1.827 . S
C2327 C242 1.826 . S
C2342 C578 1.826 . S
C2377 C326 1.826 . S
C2392 C662 1.827 . S
C2427 C410 1.827 . S
C2442 C746 1.826 . S
C2477 C830 1.827 . S
C2492 C494 1.827 . S
C2527 C819 1.931 . S
C2542 C63 1.930 . S
C2577 C903 1.930 . S
C2592 C147 1.931 . S
C2627 C231 1.931 . S
C2642 C987 1.930 . S
C2677 C315 1.930 . S
C2692 C567 1.931 . S
C2727 C651 1.931 . S
C2742 C399 1.930 . S
C2777 C735 1.931 . S
C2792 C483 1.931 . S
