# Generated by pormake.
# Topology unf, (4)-cn, num edge types: 1
# Building blocks:
#     Node 0, Type 0, BuildingBlock: ICAMEG_clean_sbu_1, # of connection points: 4
#     Node 1, Type 0, BuildingBlock: ICAMEG_clean_sbu_1, # of connection points: 4
#     Node 2, Type 0, BuildingBlock: ICAMEG_clean_sbu_1, # of connection points: 4
#     Node 3, Type 0, BuildingBlock: ICAMEG_clean_sbu_1, # of connection points: 4
#     Node 4, Type 0, BuildingBlock: ICAMEG_clean_sbu_1, # of connection points: 4
#     Node 5, Type 0, BuildingBlock: ICAMEG_clean_sbu_1, # of connection points: 4
#     Node 6, Type 0, BuildingBlock: ICAMEG_clean_sbu_1, # of connection points: 4
#     Node 7, Type 0, BuildingBlock: ICAMEG_clean_sbu_1, # of connection points: 4
#     Node 8, Type 0, BuildingBlock: ICAMEG_clean_sbu_1, # of connection points: 4
#     Node 9, Type 0, BuildingBlock: ICAMEG_clean_sbu_1, # of connection points: 4
#     Node 10, Type 0, BuildingBlock: ICAMEG_clean_sbu_1, # of connection points: 4
#     Node 11, Type 0, BuildingBlock: ICAMEG_clean_sbu_1, # of connection points: 4
#     Edge 12, Type (0, 0), BuildingBlock: AJUNOK_clean_linker_0, # of connection points: 2
#     Edge 13, Type (0, 0), BuildingBlock: AJUNOK_clean_linker_0, # of connection points: 2
#     Edge 14, Type (0, 0), BuildingBlock: AJUNOK_clean_linker_0, # of connection points: 2
#     Edge 15, Type (0, 0), BuildingBlock: AJUNOK_clean_linker_0, # of connection points: 2
#     Edge 16, Type (0, 0), BuildingBlock: AJUNOK_clean_linker_0, # of connection points: 2
#     Edge 17, Type (0, 0), BuildingBlock: AJUNOK_clean_linker_0, # of connection points: 2
#     Edge 18, Type (0, 0), BuildingBlock: AJUNOK_clean_linker_0, # of connection points: 2
#     Edge 19, Type (0, 0), BuildingBlock: AJUNOK_clean_linker_0, # of connection points: 2
#     Edge 20, Type (0, 0), BuildingBlock: AJUNOK_clean_linker_0, # of connection points: 2
#     Edge 21, Type (0, 0), BuildingBlock: AJUNOK_clean_linker_0, # of connection points: 2
#     Edge 22, Type (0, 0), BuildingBlock: AJUNOK_clean_linker_0, # of connection points: 2
#     Edge 23, Type (0, 0), BuildingBlock: AJUNOK_clean_linker_0, # of connection points: 2
#     Edge 24, Type (0, 0), BuildingBlock: AJUNOK_clean_linker_0, # of connection points: 2
#     Edge 25, Type (0, 0), BuildingBlock: AJUNOK_clean_linker_0, # of connection points: 2
#     Edge 26, Type (0, 0), BuildingBlock: AJUNOK_clean_linker_0, # of connection points: 2
#     Edge 27, Type (0, 0), BuildingBlock: AJUNOK_clean_linker_0, # of connection points: 2
#     Edge 28, Type (0, 0), BuildingBlock: AJUNOK_clean_linker_0, # of connection points: 2
#     Edge 29, Type (0, 0), BuildingBlock: AJUNOK_clean_linker_0, # of connection points: 2
#     Edge 30, Type (0, 0), BuildingBlock: AJUNOK_clean_linker_0, # of connection points: 2
#     Edge 31, Type (0, 0), BuildingBlock: AJUNOK_clean_linker_0, # of connection points: 2
#     Edge 32, Type (0, 0), BuildingBlock: AJUNOK_clean_linker_0, # of connection points: 2
#     Edge 33, Type (0, 0), BuildingBlock: AJUNOK_clean_linker_0, # of connection points: 2
#     Edge 34, Type (0, 0), BuildingBlock: AJUNOK_clean_linker_0, # of connection points: 2
#     Edge 35, Type (0, 0), BuildingBlock: AJUNOK_clean_linker_0, # of connection points: 2
# Relax obj value: 0.240
# Max RMSD: 0.196
# Mean RMSD: 0.196
data_MOF--net-unf--node1-ICAMEG_clean_sbu_1--edge1-AJUNOK_clean_linker_0
_symmetry_space_group_name_H-M    P1
_symmetry_Int_Tables_number       1
_symmetry_cell_setting            triclinic
loop_
_symmetry_equiv_pos_as_xyz
'x, y, z'
_cell_length_a     28.699396
_cell_length_b     28.695237
_cell_length_c     29.609579
_cell_angle_alpha  90.215714
_cell_angle_beta   90.100733
_cell_angle_gamma 120.37186
loop_
_atom_site_label
_atom_site_type_symbol
_atom_site_fract_x
_atom_site_fract_y
_atom_site_fract_z
_atom_type_partial_charge
Co0 Co 0.16477 0.44207 0.0437 0.0
Co1 Co 0.10292 0.43293 0.14563 0.0
O2 O 0.1652 0.44532 0.10968 0.0
C3 C 0.20309 0.3654 0.06432 0.0
O4 O 0.15915 0.33542 0.0878 0.0
C5 C 0.20361 0.51834 0.19562 0.0
O6 O 0.23266 0.52795 0.15905 0.0
O7 O 0.09453 0.48773 0.10874 0.0
O8 O 0.1165 0.47334 0.03931 0.0
H9 H 0.91333 0.39574 0.16852 0.0
H10 H 0.27111 0.49177 0.08956 0.0
O11 O 0.21119 0.40898 0.04605 0.0
H12 H 0.27698 0.63685 0.99674 0.0
H13 H 0.25152 0.46101 0.89201 0.0
H14 H 0.08155 0.40918 0.97157 0.0
H15 H 0.19568 0.54596 0.99701 0.0
H16 H 0.24983 0.46617 0.97505 0.0
O17 O 0.15208 0.48842 0.19316 0.0
H18 H 0.99126 0.40822 0.12413 0.0
H19 H 0.08021 0.42855 0.24468 0.0
H20 H 0.08139 0.40381 0.88849 0.0
H21 H 0.35363 0.58139 0.0892 0.0
H22 H 0.16692 0.42986 0.8481 0.0
H23 H 0.35649 0.65456 0.04326 0.0
O24 O 0.09955 0.36931 0.04384 0.0
H25 H 0.20038 0.35266 0.22721 0.0
H26 H 0.0235 0.32177 0.17564 0.0
H27 H 0.02834 0.25025 0.21733 0.0
H28 H 0.11719 0.26553 0.24366 0.0
H29 H 0.19395 0.4225 0.18461 0.0
H30 H 0.0036 0.4173 0.29032 0.0
H31 H 0.91931 0.40072 0.25229 0.0
O32 O 0.05301 0.37642 0.1019 0.0
C33 C 0.09293 0.49047 0.0653 0.0
C34 C 0.94999 0.40337 0.1855 0.0
C35 C 1.00066 0.41555 0.25383 0.0
N36 N 0.04101 0.42071 0.18157 0.0
C37 C 0.99439 0.41062 0.1605 0.0
C38 C 0.0442 0.42249 0.22771 0.0
C39 C 0.95335 0.40615 0.23248 0.0
C40 C 0.27235 0.52321 0.06873 0.0
N41 N 0.22849 0.51361 0.04341 0.0
C42 C 0.31913 0.57392 0.06884 0.0
C43 C 0.32077 0.61499 0.04285 0.0
C44 C 0.27599 0.60508 1.01706 0.0
C45 C 0.22991 0.55372 1.01767 0.0
C46 C 0.21403 0.44971 0.90919 0.0
C47 C 0.1189 0.42084 0.9543 0.0
C48 C 0.2128 0.4525 0.95624 0.0
N49 N 0.16568 0.43854 0.97821 0.0
C50 C 0.11858 0.4176 0.9072 0.0
C51 C 0.16655 0.43222 0.88457 0.0
C52 C 0.05674 0.3526 0.06688 0.0
C53 C 0.16133 0.34575 0.21634 0.0
C54 C 0.06236 0.32904 0.18721 0.0
C55 C 0.06483 0.28826 0.21075 0.0
C56 C 0.11468 0.29686 0.22553 0.0
N57 N 0.10817 0.37737 0.17897 0.0
C58 C 0.15733 0.38556 0.19258 0.0
Co59 Co 0.57913 0.71744 1.02388 0.0
Co60 Co 0.56594 0.66915 0.13165 0.0
O61 O 0.56005 0.71582 0.08709 0.0
C62 C 0.64743 0.83069 0.05209 0.0
O63 O 0.67143 0.8149 0.0808 0.0
C64 C 0.48191 0.69619 0.16511 0.0
O65 O 0.47805 0.71377 0.12526 0.0
O66 O 0.51741 0.60384 0.09239 0.0
O67 O 0.54937 0.63743 1.02318 0.0
H68 H 0.58921 0.51468 0.18167 0.0
H69 H 0.51555 0.77009 0.04686 0.0
O70 O 0.61023 0.79737 1.02562 0.0
H71 H 0.41041 0.63586 0.92899 0.0
H72 H 0.60564 0.78689 0.86465 0.0
H73 H 0.62775 0.66594 0.96908 0.0
H74 H 0.49242 0.64174 0.96097 0.0
H75 H 0.57689 0.77913 0.94406 0.0
O76 O 0.50411 0.66704 0.16853 0.0
H77 H 0.58656 0.5776 0.1268 0.0
H78 H 0.5543 0.65807 0.2322 0.0
H79 H 0.65685 0.6723 0.88997 0.0
H80 H 0.43694 0.76971 1.01239 0.0
H81 H 0.6461 0.73341 0.83718 0.0
H82 H 0.3834 0.70173 0.95339 0.0
O83 O 0.64998 0.72755 0.04066 0.0
H84 H 0.64185 0.85681 0.1978 0.0
H85 H 0.66783 0.70048 0.18142 0.0
H86 H 0.73365 0.7797 0.22529 0.0
H87 H 0.72083 0.85857 0.23397 0.0
H88 H 0.57809 0.77789 0.15333 0.0
H89 H 0.55597 0.59557 0.2881 0.0
H90 H 0.57376 0.52336 0.26301 0.0
O91 O 0.62914 0.6725 0.09968 0.0
C92 C 0.52489 0.59756 0.05018 0.0
C93 C 0.58129 0.54591 0.19302 0.0
C94 C 0.56253 0.59123 0.25272 0.0
N95 N 0.5696 0.62117 0.17601 0.0
C96 C 0.5797 0.58169 0.16206 0.0
C97 C 0.56121 0.62627 0.22079 0.0
C98 C 0.57256 0.55075 0.23864 0.0
C99 C 0.49303 0.7412 1.02074 0.0
N100 N 0.50928 0.70676 1.00554 0.0
C101 C 0.44822 0.7407 1.00166 0.0
C102 C 0.41838 0.70276 0.9683 0.0
C103 C 0.43339 0.6657 0.95473 0.0
C104 C 0.47942 0.66858 0.97359 0.0
C105 C 0.6104 0.76005 0.88729 0.0
C106 C 0.62229 0.69207 0.9462 0.0
C107 C 0.5942 0.75549 0.93229 0.0
N108 N 0.59992 0.72154 0.96104 0.0
C109 C 0.63906 0.69568 0.90146 0.0
C110 C 0.63303 0.72994 0.87188 0.0
C111 C 0.66112 0.70087 0.0682 0.0
C112 C 0.64734 0.82226 0.19501 0.0
C113 C 0.66117 0.7341 0.1856 0.0
C114 C 0.69891 0.77908 0.21031 0.0
C115 C 0.69172 0.82331 0.21517 0.0
N116 N 0.6168 0.73257 0.1668 0.0
C117 C 0.61051 0.77663 0.17046 0.0
Co118 Co 0.2934 0.84442 0.09001 0.0
Co119 Co 0.32913 0.90712 0.19428 0.0
O120 O 0.2866 0.84407 0.15559 0.0
C121 C 0.17542 0.79755 0.09987 0.0
O122 O 0.18464 0.83405 0.13088 0.0
C123 C 0.3203 0.80951 0.24354 0.0
O124 O 0.31064 0.78342 0.20515 0.0
O125 O 0.39941 0.92375 0.16412 0.0
O126 O 0.37185 0.89815 0.09294 0.0
H127 H 0.46968 0.10068 0.22636 0.0
H128 H 0.23064 0.73348 0.1276 0.0
O129 O 0.21409 0.79357 0.08306 0.0
H130 H 0.40779 0.75711 0.08813 0.0
H131 H 0.25887 0.75461 0.93754 0.0
H132 H 0.34633 0.92857 1.01936 0.0
H133 H 0.385 0.82607 0.06673 0.0
H134 H 0.25215 0.75728 1.02038 0.0
O135 O 0.33474 0.85975 0.24346 0.0
H136 H 0.41242 0.0219 0.17806 0.0
H137 H 0.33576 0.92737 0.29403 0.0
H138 H 0.35403 0.9278 0.9365 0.0
H139 H 0.25014 0.66147 0.14516 0.0
H140 H 0.31014 0.84033 0.895 0.0
H141 H 0.34047 0.67446 0.12786 0.0
O142 O 0.28113 0.90664 0.08491 0.0
H143 H 0.14196 0.79184 0.25765 0.0
H144 H 0.28486 0.97706 0.22113 0.0
H145 H 0.19873 0.9617 0.25207 0.0
H146 H 0.12622 0.86849 0.27001 0.0
H147 H 0.22821 0.80891 0.22586 0.0
H148 H 0.39472 0.00398 0.34351 0.0
H149 H 0.46168 0.09184 0.30983 0.0
O150 O 0.32207 0.95436 0.14788 0.0
C151 C 0.40884 0.92619 0.12145 0.0
C152 C 0.44056 0.06268 0.24149 0.0
C153 C 0.3984 0.00851 0.30722 0.0
N154 N 0.37108 0.96971 0.23304 0.0
C155 C 0.40775 0.01794 0.21428 0.0
C156 C 0.36559 0.96494 0.27894 0.0
C157 C 0.43607 0.05771 0.2883 0.0
C158 C 0.26874 0.73818 0.117 0.0
N159 N 0.30664 0.78453 0.09631 0.0
C160 C 0.27989 0.69747 0.12786 0.0
C161 C 0.33054 0.70473 0.1181 0.0
C162 C 0.36836 0.75119 0.09577 0.0
C163 C 0.35533 0.79045 0.08428 0.0
C164 C 0.27844 0.79298 0.95524 0.0
C165 C 0.32731 0.89034 1.00161 0.0
C166 C 0.27494 0.79475 1.0022 0.0
N167 N 0.29944 0.84304 1.02482 0.0
C168 C 0.33175 0.89016 0.95466 0.0
C169 C 0.30713 0.84108 0.93139 0.0
C170 C 0.30074 0.94977 0.10881 0.0
C171 C 0.17325 0.83269 0.2499 0.0
C172 C 0.25377 0.93644 0.22903 0.0
C173 C 0.20503 0.92797 0.24666 0.0
C174 C 0.16444 0.87566 0.2569 0.0
N175 N 0.26212 0.89415 0.22185 0.0
C176 C 0.22255 0.84274 0.2322 0.0
Co177 Co 0.54153 0.83653 0.48562 0.0
Co178 Co 0.56249 0.90828 0.38814 0.0
O179 O 0.5507 0.84444 0.42076 0.0
C180 C 0.62888 0.81144 0.47621 0.0
O181 O 0.65856 0.85733 0.45509 0.0
C182 C 0.4843 0.80948 0.33256 0.0
O183 O 0.4641 0.78258 0.36996 0.0
O184 O 0.49808 0.90645 0.4182 0.0
O185 O 0.50449 0.87895 0.48744 0.0
H186 H 0.58086 0.09105 0.36944 0.0
H187 H 0.51035 0.73435 0.43593 0.0
O188 O 0.58041 0.79617 0.48691 0.0
H189 H 0.33956 0.71374 0.49164 0.0
H190 H 0.49428 0.73031 0.63001 0.0
H191 H 0.56181 0.91045 0.56351 0.0
H192 H 0.42632 0.79456 0.51166 0.0
H193 H 0.50414 0.74274 0.54763 0.0
O194 O 0.51824 0.86039 0.33456 0.0
H195 H 0.56597 0.0108 0.41167 0.0
H196 H 0.58551 0.94116 0.29181 0.0
H197 H 0.55338 0.89993 0.64615 0.0
H198 H 0.42498 0.65093 0.41889 0.0
H199 H 0.51893 0.80927 0.67994 0.0
H200 H 0.3385 0.64075 0.44584 0.0
O201 O 0.61073 0.90542 0.49549 0.0
H202 H 0.66814 0.8326 0.31416 0.0
H203 H 0.67602 0.99676 0.3747 0.0
H204 H 0.75811 0.00275 0.34265 0.0
H205 H 0.75445 0.92029 0.31188 0.0
H206 H 0.58727 0.82837 0.34653 0.0
H207 H 0.60153 0.02056 0.24844 0.0
H208 H 0.599 0.09648 0.28703 0.0
O209 O 0.60839 0.95692 0.43926 0.0
C210 C 0.48848 0.90279 0.46096 0.0
C211 C 0.58189 0.0583 0.35211 0.0
C212 C 0.59324 0.01876 0.28415 0.0
N213 N 0.57445 0.97117 0.35434 0.0
C214 C 0.57339 0.01274 0.37591 0.0
C215 C 0.584 0.97368 0.30896 0.0
C216 C 0.59198 0.06128 0.30588 0.0
C217 C 0.47332 0.72948 0.44966 0.0
N218 N 0.47361 0.76968 0.47493 0.0
C219 C 0.4249 0.68229 0.43926 0.0
C220 C 0.37641 0.67663 0.45433 0.0
C221 C 0.377 0.71756 0.48019 0.0
C222 C 0.42625 0.76365 0.49084 0.0
C223 C 0.50896 0.76997 0.61569 0.0
C224 C 0.54697 0.87086 0.57787 0.0
C225 C 0.51442 0.77725 0.56898 0.0
N226 N 0.53265 0.82714 0.55056 0.0
C227 C 0.54223 0.86516 0.62474 0.0
C228 C 0.52289 0.81429 0.64368 0.0
C229 C 0.62698 0.95113 0.47691 0.0
C230 C 0.67016 0.86894 0.32702 0.0
C231 C 0.67403 0.96072 0.36125 0.0
C232 C 0.72067 0.96437 0.34315 0.0
C233 C 0.71859 0.9181 0.32589 0.0
N234 N 0.62647 0.91247 0.36174 0.0
C235 C 0.62431 0.86686 0.34522 0.0
Co236 Co 0.15299 0.71445 0.55148 0.0
Co237 Co 0.10973 0.65452 0.4472 0.0
O238 O 0.16327 0.71002 0.48715 0.0
C239 C 0.1725 0.8202 0.51985 0.0
O240 O 0.12948 0.79504 0.49408 0.0
C241 C 0.22171 0.6901 0.41066 0.0
O242 O 0.24386 0.70773 0.45048 0.0
O243 O 0.10594 0.59635 0.48831 0.0
O244 O 0.11489 0.63354 0.55745 0.0
H245 H 0.93861 0.48073 0.41088 0.0
H246 H 0.26386 0.78531 0.51687 0.0
O247 O 0.18803 0.79448 0.54492 0.0
H248 H 0.28155 0.67543 0.63583 0.0
H249 H 0.20731 0.80257 0.70472 0.0
H250 H 0.06252 0.65487 0.61524 0.0
H251 H 0.19168 0.65904 0.61299 0.0
H252 H 0.22125 0.79059 0.62432 0.0
O253 O 0.17036 0.6587 0.40762 0.0
H254 H 0.00362 0.55444 0.46028 0.0
H255 H 0.10295 0.63458 0.34742 0.0
H256 H 0.04693 0.66496 0.69526 0.0
H257 H 0.35411 0.80447 0.53976 0.0
H258 H 0.11954 0.73983 0.74073 0.0
H259 H 0.36379 0.7492 0.5995 0.0
O260 O 0.08304 0.70823 0.54078 0.0
H261 H 0.19506 0.83682 0.37165 0.0
H262 H 0.02473 0.66777 0.40176 0.0
H263 H 0.02286 0.73961 0.35815 0.0
H264 H 0.10827 0.82507 0.34331 0.0
H265 H 0.19512 0.76483 0.41591 0.0
H266 H 0.03935 0.56142 0.29693 0.0
H267 H 0.95648 0.48371 0.32855 0.0
O268 O 0.04821 0.65148 0.48219 0.0
C269 C 0.0991 0.59227 0.53158 0.0
C270 C 0.97468 0.51428 0.39669 0.0
C271 C 0.03124 0.55953 0.33277 0.0
N272 N 0.05757 0.59849 0.40703 0.0
C273 C 0.0117 0.55618 0.42454 0.0
C274 C 0.06735 0.60069 0.36165 0.0
C275 C 0.98472 0.51596 0.35052 0.0
C276 C 0.26746 0.76101 0.54289 0.0
N277 N 0.22251 0.72107 0.56353 0.0
C278 C 0.31884 0.77207 0.55577 0.0
C279 C 0.32413 0.74115 0.58935 0.0
C280 C 0.27801 0.69972 0.60967 0.0
C281 C 0.22717 0.69007 0.59614 0.0
C282 C 0.17547 0.76976 0.68543 0.0
C283 C 0.09468 0.68676 0.6349 0.0
C284 C 0.18315 0.76272 0.63992 0.0
N285 N 0.14309 0.72138 0.61536 0.0
C286 C 0.08551 0.69256 0.68026 0.0
C287 C 0.12621 0.73444 0.70564 0.0
C288 C 0.04418 0.67854 0.51472 0.0
C289 C 0.15758 0.79949 0.37755 0.0
C290 C 0.06238 0.70428 0.3946 0.0
C291 C 0.06096 0.745 0.37006 0.0
C292 C 0.10893 0.7929 0.36161 0.0
N293 N 0.11028 0.7107 0.40999 0.0
C294 C 0.15742 0.75795 0.4021 0.0
Co295 Co 0.27371 0.44369 0.52182 0.0
Co296 Co 0.32834 0.44561 0.41815 0.0
O297 O 0.27385 0.44809 0.456 0.0
C298 C 0.15927 0.35475 0.50754 0.0
O299 O 0.17525 0.32587 0.48501 0.0
C300 C 0.29814 0.52192 0.37228 0.0
O301 O 0.27881 0.52855 0.41025 0.0
O302 O 0.38866 0.50566 0.45479 0.0
O303 O 0.35436 0.48399 0.52467 0.0
H304 H 0.49809 0.43973 0.38957 0.0
H305 H 0.20446 0.481 0.48063 0.0
O306 O 0.1933 0.40206 0.52155 0.0
H307 H 0.33626 0.63428 0.57359 0.0
H308 H 0.20495 0.44845 0.67717 0.0
H309 H 0.33259 0.41674 0.58989 0.0
H310 H 0.3395 0.54995 0.56962 0.0
H311 H 0.20941 0.45737 0.5943 0.0
O312 O 0.32502 0.49732 0.37246 0.0
H313 H 0.42748 0.4403 0.4363 0.0
H314 H 0.34522 0.44467 0.31842 0.0
H315 H 0.32948 0.40741 0.67271 0.0
H316 H 0.19899 0.56374 0.48458 0.0
H317 H 0.26543 0.42347 0.71698 0.0
H318 H 0.26506 0.64092 0.53079 0.0
O319 O 0.27555 0.37577 0.51841 0.0
H320 H 0.1476 0.3442 0.33929 0.0
H321 H 0.31046 0.33971 0.38522 0.0
H322 H 0.23803 0.26243 0.34362 0.0
H323 H 0.15596 0.2644 0.32019 0.0
H324 H 0.22026 0.41998 0.38168 0.0
H325 H 0.41529 0.44472 0.27046 0.0
H326 H 0.49237 0.4421 0.30596 0.0
O327 O 0.33136 0.39254 0.46002 0.0
C328 C 0.39453 0.50722 0.49805 0.0
C329 C 0.4648 0.44108 0.37368 0.0
C330 C 0.41838 0.44397 0.30686 0.0
N331 N 0.38259 0.44342 0.38031 0.0
C332 C 0.42467 0.44148 0.40001 0.0
C333 C 0.37899 0.44435 0.33428 0.0
C334 C 0.4616 0.44245 0.32679 0.0
C335 C 0.23314 0.51419 0.50149 0.0
N336 N 0.27226 0.51053 0.52491 0.0
C337 C 0.22992 0.56104 0.50339 0.0
C338 C 0.2671 0.60441 0.52951 0.0
C339 C 0.30707 0.60064 0.55327 0.0
C340 C 0.30903 0.55302 0.55058 0.0
C341 C 0.23328 0.44168 0.6583 0.0
C342 C 0.30481 0.42412 0.60888 0.0
C343 C 0.23605 0.44675 0.61134 0.0
N344 N 0.27185 0.43843 0.58725 0.0
C345 C 0.30314 0.41863 0.6558 0.0
C346 C 0.26717 0.4276 0.6806 0.0
C347 C 0.30629 0.36538 0.49487 0.0
C348 C 0.18341 0.34308 0.34896 0.0
C349 C 0.27506 0.34116 0.37495 0.0
C350 C 0.23411 0.29716 0.35144 0.0
C351 C 0.18808 0.29831 0.33827 0.0
N352 N 0.27067 0.3854 0.38476 0.0
C353 C 0.22512 0.38628 0.37264 0.0
Co354 Co 0.85745 0.56975 1.02051 0.0
Co355 Co 0.92247 0.60903 0.91756 0.0
O356 O 0.86043 0.58737 0.95672 0.0
C357 C 0.82843 0.65425 1.02188 0.0
O358 O 0.87031 0.68351 0.99603 0.0
C359 C 0.82198 0.53447 0.86155 0.0
O360 O 0.79327 0.51741 0.89847 0.0
O361 O 0.93359 0.5483 0.94009 0.0
O362 O 0.90075 0.5347 1.01057 0.0
H363 H 0.11236 0.65506 0.88241 0.0
H364 H 0.75184 0.54544 0.98194 0.0
O365 O 0.81699 0.60722 1.03392 0.0
H366 H 0.7368 0.36815 0.99926 0.0
H367 H 0.76057 0.4979 0.16786 0.0
H368 H 0.93618 0.57861 0.09041 0.0
H369 H 0.81792 0.45055 1.0278 0.0
H370 H 0.76809 0.52292 0.08754 0.0
O371 O 0.87355 0.56451 0.86446 0.0
H372 H 0.03339 0.62818 0.93116 0.0
H373 H 0.94535 0.63907 0.82024 0.0
H374 H 0.9305 0.55417 0.17072 0.0
H375 H 0.66912 0.46398 0.95767 0.0
H376 H 0.84213 0.51324 0.20998 0.0
H377 H 0.66224 0.37469 0.96434 0.0
O378 O 0.92688 0.63803 1.03325 0.0
H379 H 0.81924 0.70005 0.86896 0.0
H380 H 0.99926 0.726 0.90143 0.0
H381 H 0.99115 0.80374 0.87787 0.0
H382 H 0.90059 0.79101 0.86107 0.0
H383 H 0.82903 0.62389 0.89345 0.0
H384 H 0.02297 0.66563 0.77043 0.0
H385 H 0.10742 0.67343 0.8012 0.0
O386 O 0.97162 0.65497 0.96745 0.0
C387 C 0.92994 0.53032 0.98053 0.0
C388 C 0.07578 0.65141 0.86843 0.0
C389 C 0.02565 0.65718 0.80553 0.0
N390 N 0.98448 0.63139 0.87855 0.0
C391 C 0.03087 0.63618 0.89589 0.0
C392 C 0.98157 0.64179 0.83395 0.0
C393 C 0.07298 0.66177 0.82289 0.0
C394 C 0.74836 0.50676 0.98798 0.0
N395 N 0.79012 0.50327 1.00683 0.0
C396 C 0.70146 0.46063 0.97323 0.0
C397 C 0.6976 0.41057 0.97703 0.0
C398 C 0.7397 0.407 0.99681 0.0
C399 C 0.78566 0.4539 1.0123 0.0
C400 C 0.79923 0.51531 0.15105 0.0
C401 C 0.89752 0.56054 0.10711 0.0
C402 C 0.80372 0.5294 0.1055 0.0
N403 N 0.85232 0.55106 0.08394 0.0
C404 C 0.89459 0.54692 0.15267 0.0
C405 C 0.84501 0.52399 0.17468 0.0
C406 C 0.96953 0.6643 1.00945 0.0
C407 C 0.859 0.70602 0.87569 0.0
C408 C 0.95975 0.71996 0.89429 0.0
C409 C 0.95539 0.76422 0.88086 0.0
C410 C 0.90461 0.75706 0.87141 0.0
N411 N 0.91494 0.66973 0.89786 0.0
C412 C 0.86493 0.66272 0.8892 0.0
Co413 Co 0.4313 0.27027 1.02479 0.0
Co414 Co 0.41165 0.3007 0.91654 0.0
O415 O 0.42636 0.25733 0.95939 0.0
C416 C 0.35406 0.1515 1.02203 0.0
O417 O 0.32722 0.15794 0.98908 0.0
C418 C 0.48266 0.26635 0.86538 0.0
O419 O 0.49141 0.24698 0.90243 0.0
O420 O 0.47411 0.37024 0.9419 0.0
O421 O 0.46405 0.34948 1.01551 0.0
H422 H 0.38588 0.45481 0.86977 0.0
H423 H 0.47491 0.20376 0.98872 0.0
O424 O 0.39748 0.19136 1.03736 0.0
H425 H 0.62946 0.35934 0.06301 0.0
H426 H 0.47192 0.24554 0.1857 0.0
H427 H 0.40544 0.33658 0.08573 0.0
H428 H 0.54013 0.35226 0.06052 0.0
H429 H 0.46602 0.22997 0.10343 0.0
O430 O 0.45798 0.29313 0.86755 0.0
H431 H 0.40378 0.40003 0.92303 0.0
H432 H 0.38865 0.29297 0.81734 0.0
H433 H 0.41088 0.35344 0.16775 0.0
H434 H 0.5636 0.20942 0.99013 0.0
H435 H 0.44438 0.30781 0.21839 0.0
H436 H 0.64147 0.28747 1.02757 0.0
O437 O 0.35867 0.26319 1.02495 0.0
H438 H 0.30997 0.10626 0.86373 0.0
H439 H 0.29807 0.26866 0.89539 0.0
H440 H 0.21799 0.18644 0.86672 0.0
H441 H 0.22376 0.10462 0.85007 0.0
H442 H 0.3884 0.18855 0.89332 0.0
H443 H 0.37133 0.34696 0.76264 0.0
H444 H 0.36957 0.42843 0.78872 0.0
O445 O 0.3644 0.30899 0.96188 0.0
C446 C 0.48074 0.38424 0.98392 0.0
C447 C 0.38641 0.41934 0.85794 0.0
C448 C 0.37843 0.35893 0.79784 0.0
N449 N 0.39728 0.34328 0.87365 0.0
C450 C 0.39636 0.38804 0.88811 0.0
C451 C 0.38857 0.32866 0.82902 0.0
C452 C 0.37737 0.40458 0.8125 0.0
C453 C 0.50872 0.23799 1.00494 0.0
N454 N 0.50235 0.2776 1.02449 0.0
C455 C 0.55881 0.24094 1.00567 0.0
C456 C 0.60249 0.28474 1.02677 0.0
C457 C 0.59578 0.32515 0.04649 0.0
C458 C 0.54521 0.32112 0.0447 0.0
C459 C 0.45748 0.26586 0.16398 0.0
C460 C 0.42026 0.31669 0.10744 0.0
C461 C 0.45408 0.25724 0.11733 0.0
N462 N 0.43596 0.28279 0.08963 0.0
C463 C 0.42317 0.32635 0.15391 0.0
C464 C 0.44197 0.30074 0.1823 0.0
C465 C 0.34379 0.2897 1.00039 0.0
C466 C 0.30716 0.14192 0.87015 0.0
C467 C 0.30111 0.23334 0.88818 0.0
C468 C 0.25552 0.18683 0.87197 0.0
C469 C 0.25876 0.14095 0.86266 0.0
N470 N 0.34896 0.23454 0.89442 0.0
C471 C 0.35191 0.18915 0.88642 0.0
Co472 Co 0.73105 0.15605 0.05506 0.0
Co473 Co 0.67212 0.10677 0.95144 0.0
O474 O 0.72605 0.16408 0.99019 0.0
C475 C 0.84189 0.1892 1.02577 0.0
O476 O 0.82256 0.14537 1.00085 0.0
C477 C 0.70585 0.21363 0.90517 0.0
O478 O 0.73207 0.24135 0.94118 0.0
O479 O 0.61203 0.10123 0.99162 0.0
O480 O 0.6506 0.11163 0.06013 0.0
H481 H 0.50622 0.92635 0.91988 0.0
H482 H 0.79187 0.26719 1.01895 0.0
O483 O 0.8113 0.19912 0.05007 0.0
H484 H 0.66994 0.27214 0.13311 0.0
H485 H 0.8092 0.22069 0.21058 0.0
H486 H 0.67647 0.06538 0.11973 0.0
H487 H 0.66607 0.18665 0.11392 0.0
H488 H 0.80066 0.22998 0.12864 0.0
O489 O 0.67199 0.1628 0.9086 0.0
H490 H 0.57691 0.99748 0.96751 0.0
H491 H 0.65161 0.09304 0.85169 0.0
H492 H 0.68393 0.05425 0.2014 0.0
H493 H 0.80142 0.35445 0.04032 0.0
H494 H 0.75025 0.13237 0.24756 0.0
H495 H 0.73918 0.35736 0.09714 0.0
O496 O 0.73301 0.08888 0.04567 0.0
H497 H 0.85371 0.19467 0.87334 0.0
H498 H 0.68959 0.02246 0.90946 0.0
H499 H 0.7601 0.02197 0.86272 0.0
H500 H 0.84254 0.1086 0.84355 0.0
H501 H 0.78332 0.19332 0.92074 0.0
H502 H 0.58123 0.02334 0.80285 0.0
H503 H 0.50782 0.9391 0.83684 0.0
O504 O 0.67225 0.05008 0.98983 0.0
C505 C 0.6088 0.0946 1.03497 0.0
C506 C 0.53772 0.96306 0.90466 0.0
C507 C 0.57973 0.01752 0.83903 0.0
N508 N 0.61766 0.0503 0.91278 0.0
C509 C 0.57784 0.00366 0.93155 0.0
C510 C 0.61918 0.05723 0.867 0.0
C511 C 0.53864 0.97023 0.8581 0.0
C512 C 0.76559 0.2682 0.0443 0.0
N513 N 0.72891 0.22184 0.06539 0.0
C514 C 0.77072 0.31769 0.05603 0.0
C515 C 0.73601 0.31928 0.08804 0.0
C516 C 0.6971 0.27149 0.10813 0.0
C517 C 0.6944 0.22293 0.09656 0.0
C518 C 0.77988 0.18642 0.1909 0.0
C519 C 0.70544 0.09963 0.13952 0.0
C520 C 0.77488 0.19143 0.14448 0.0
N521 N 0.73758 0.14847 0.1195 0.0
C522 C 0.70946 0.09306 0.1858 0.0
C523 C 0.7468 0.13687 0.21163 0.0
C524 C 0.70095 0.04836 1.02181 0.0
C525 C 0.81734 0.15674 0.88043 0.0
C526 C 0.72487 0.06053 0.90089 0.0
C527 C 0.76492 0.0599 0.87459 0.0
C528 C 0.81119 0.10845 0.86393 0.0
N529 N 0.72998 0.10823 0.91549 0.0
C530 C 0.7765 0.15577 0.90674 0.0
Co531 Co 0.4106 0.13983 0.52745 0.0
Co532 Co 0.39633 0.08374 0.63249 0.0
O533 O 0.41825 0.14642 0.59345 0.0
C534 C 0.35601 0.20046 0.54861 0.0
O535 O 0.32694 0.16254 0.57786 0.0
C536 C 0.48351 0.18117 0.68456 0.0
O537 O 0.49407 0.21247 0.64931 0.0
O538 O 0.44533 0.06452 0.59729 0.0
O539 O 0.42734 0.08057 0.52686 0.0
H540 H 0.32846 0.8871 0.66298 0.0
H541 H 0.48596 0.2484 0.56725 0.0
O542 O 0.39315 0.19869 0.52664 0.0
H543 H 0.59677 0.20456 0.4681 0.0
H544 H 0.43224 0.21359 0.36993 0.0
H545 H 0.35904 0.04864 0.46173 0.0
H546 H 0.49894 0.14292 0.47392 0.0
H547 H 0.4446 0.21964 0.45263 0.0
O548 O 0.45397 0.12977 0.67983 0.0
H549 H 0.3563 0.967 0.61544 0.0
H550 H 0.38756 0.06493 0.73239 0.0
H551 H 0.34426 0.04066 0.37953 0.0
H552 H 0.58439 0.31182 0.56243 0.0
H553 H 0.38176 0.12353 0.33279 0.0
H554 H 0.64014 0.28908 0.51215 0.0
O555 O 0.33268 0.08477 0.53255 0.0
H556 H 0.33387 0.20332 0.7039 0.0
H557 H 0.28292 0.01665 0.66369 0.0
H558 H 0.21761 0.03371 0.70314 0.0
H559 H 0.24311 0.12754 0.7242 0.0
H560 H 0.39718 0.18479 0.66357 0.0
H561 H 0.36147 0.98632 0.78113 0.0
H562 H 0.3313 0.89643 0.74652 0.0
O563 O 0.33796 0.03677 0.58959 0.0
C564 C 0.44405 0.05773 0.55397 0.0
C565 C 0.34193 0.92613 0.6785 0.0
C566 C 0.36058 0.98181 0.74477 0.0
N567 N 0.37499 0.02117 0.67091 0.0
C568 C 0.35784 0.97167 0.65171 0.0
C569 C 0.37602 0.02642 0.71691 0.0
C570 C 0.34353 0.93138 0.72534 0.0
C571 C 0.51025 0.23878 0.54558 0.0
N572 N 0.48692 0.19166 0.5215 0.0
C573 C 0.56586 0.27476 0.54289 0.0
C574 C 0.59717 0.2622 0.51494 0.0
C575 C 0.57288 0.2145 0.49005 0.0
C576 C 0.51744 0.1796 0.49372 0.0
C577 C 0.41595 0.17714 0.38986 0.0
C578 C 0.37511 0.08485 0.44185 0.0
C579 C 0.42276 0.18031 0.43672 0.0
N580 N 0.40252 0.13446 0.46212 0.0
C581 C 0.36689 0.08012 0.39518 0.0
C582 C 0.38768 0.12663 0.36903 0.0
C583 C 0.31392 0.04162 0.55545 0.0
C584 C 0.32269 0.16211 0.69587 0.0
C585 C 0.29483 0.05763 0.6731 0.0
C586 C 0.25742 0.06702 0.69529 0.0
C587 C 0.2717 0.11964 0.70704 0.0
N588 N 0.34555 0.09929 0.66344 0.0
C589 C 0.35901 0.15117 0.67362 0.0
Co590 Co 0.84923 0.2685 0.56828 0.0
Co591 Co 0.9049 0.29906 0.67469 0.0
O592 O 0.84266 0.25992 0.63404 0.0
C593 C 0.78927 0.14723 0.56812 0.0
O594 O 0.82949 0.14802 0.59004 0.0
C595 C 0.80649 0.28579 0.72665 0.0
O596 O 0.77799 0.27211 0.68931 0.0
O597 O 0.92212 0.37086 0.6474 0.0
O598 O 0.90808 0.34593 0.5745 0.0
H599 H 0.09736 0.43769 0.71292 0.0
H600 H 0.74026 0.22269 0.60843 0.0
O601 O 0.79051 0.19127 0.55934 0.0
H602 H 0.77694 0.39108 0.53396 0.0
H603 H 0.77662 0.24163 0.40942 0.0
H604 H 0.94094 0.31944 0.5038 0.0
H605 H 0.8423 0.36014 0.52935 0.0
H606 H 0.76992 0.23286 0.49225 0.0
O607 O 0.85723 0.30252 0.7248 0.0
H608 H 0.01906 0.38656 0.66263 0.0
H609 H 0.92352 0.29517 0.77372 0.0
H610 H 0.9495 0.32964 0.42118 0.0
H611 H 0.67401 0.25304 0.61521 0.0
H612 H 0.86692 0.29061 0.37332 0.0
H613 H 0.69317 0.33896 0.57968 0.0
O614 O 0.9058 0.24793 0.56775 0.0
H615 H 0.78887 0.11016 0.73463 0.0
H616 H 0.97383 0.25179 0.69516 0.0
H617 H 0.95824 0.16544 0.72604 0.0
H618 H 0.86527 0.09411 0.74656 0.0
H619 H 0.80603 0.19638 0.70286 0.0
H620 H 1.00069 0.34582 0.82534 0.0
H621 H 0.08843 0.41767 0.79502 0.0
O622 O 0.9537 0.29588 0.62805 0.0
C623 C 0.93109 0.38217 0.60505 0.0
C624 C 0.05933 0.40649 0.72656 0.0
C625 C 0.00505 0.35502 0.78964 0.0
N626 N 0.96654 0.33795 0.71503 0.0
C627 C 0.0148 0.37726 0.69816 0.0
C628 C 0.96137 0.32665 0.76021 0.0
C629 C 0.0543 0.39526 0.77261 0.0
C630 C 0.74835 0.25969 0.59217 0.0
N631 N 0.79547 0.29017 0.56927 0.0
C632 C 0.71082 0.27674 0.59626 0.0
C633 C 0.72157 0.32495 0.57613 0.0
C634 C 0.76865 0.35451 0.55108 0.0
C635 C 0.80555 0.33665 0.54833 0.0
C636 C 0.81291 0.25892 0.4299 0.0
C637 C 0.90481 0.30252 0.48334 0.0
C638 C 0.80938 0.25397 0.47685 0.0
N639 N 0.85502 0.27598 0.50301 0.0
C640 C 0.90991 0.30834 0.4365 0.0
C641 C 0.86357 0.2864 0.40967 0.0
C642 C 0.94971 0.27248 0.59024 0.0
C643 C 0.82966 0.14118 0.72635 0.0
C644 C 0.93323 0.22102 0.704 0.0
C645 C 0.92466 0.17215 0.72146 0.0
C646 C 0.87251 0.13214 0.73293 0.0
N647 N 0.89118 0.23015 0.69858 0.0
C648 C 0.83975 0.19051 0.70872 0.0
Co649 Co 0.71889 0.59861 0.53684 0.0
Co650 Co 0.68887 0.61425 0.64582 0.0
O651 O 0.72767 0.59529 0.602 0.0
C652 C 0.83611 0.65899 0.54858 0.0
O653 O 0.82906 0.68892 0.57825 0.0
C654 C 0.71409 0.53426 0.69168 0.0
O655 O 0.72712 0.52192 0.6529 0.0
O656 O 0.61693 0.5591 0.61711 0.0
O657 O 0.64158 0.57603 0.54427 0.0
H658 H 0.54813 0.65923 0.69478 0.0
H659 H 0.76684 0.53605 0.57097 0.0
O660 O 0.79583 0.62112 0.52809 0.0
H661 H 0.60772 0.4066 0.48211 0.0
H662 H 0.75005 0.57302 0.37348 0.0
H663 H 0.66317 0.63954 0.47833 0.0
H664 H 0.62979 0.5012 0.49111 0.0
H665 H 0.759 0.56742 0.45583 0.0
O666 O 0.68981 0.56155 0.69232 0.0
H667 H 0.5998 0.63868 0.64003 0.0
H668 H 0.69387 0.62855 0.74623 0.0
H669 H 0.65294 0.64562 0.39634 0.0
H670 H 0.74509 0.44213 0.56479 0.0
H671 H 0.69644 0.61207 0.34321 0.0
H672 H 0.66695 0.37739 0.51771 0.0
O673 O 0.73811 0.67485 0.54231 0.0
H674 H 0.88252 0.69509 0.69828 0.0
H675 H 0.73162 0.72811 0.67458 0.0
H676 H 0.81748 0.80058 0.70607 0.0
H677 H 0.89357 0.78416 0.71866 0.0
H678 H 0.79689 0.62454 0.66599 0.0
H679 H 0.64238 0.64765 0.80219 0.0
H680 H 0.56906 0.66352 0.77667 0.0
O681 O 0.68892 0.66823 0.60309 0.0
C682 C 0.6054 0.55853 0.57474 0.0
C683 C 0.57999 0.65243 0.70637 0.0
C684 C 0.63279 0.64585 0.76664 0.0
N685 N 0.64964 0.63199 0.68967 0.0
C686 C 0.60953 0.6409 0.67543 0.0
C687 C 0.66156 0.63458 0.73471 0.0
C688 C 0.5917 0.65477 0.75229 0.0
C689 C 0.73169 0.50773 0.55176 0.0
N690 N 0.69957 0.52394 0.53154 0.0
C691 C 0.71982 0.45454 0.54793 0.0
C692 C 0.67549 0.41816 0.52217 0.0
C693 C 0.64246 0.43474 0.50195 0.0
C694 C 0.65502 0.48818 0.5073 0.0
C695 C 0.73083 0.5877 0.39627 0.0
C696 C 0.68223 0.62482 0.45555 0.0
C697 C 0.73588 0.58478 0.44296 0.0
N698 N 0.7114 0.60288 0.47198 0.0
C699 C 0.6763 0.6284 0.40909 0.0
C700 C 0.70075 0.60961 0.37931 0.0
C701 C 0.71282 0.69135 0.5665 0.0
C702 C 0.84932 0.70242 0.69385 0.0
C703 C 0.76424 0.72028 0.68031 0.0
C704 C 0.81291 0.76165 0.69803 0.0
C705 C 0.85558 0.75244 0.70506 0.0
N706 N 0.75774 0.67069 0.67046 0.0
C707 C 0.80006 0.66203 0.6762 0.0
C708 C 0.2257 0.29151 0.05683 0.0
C709 C 0.24139 0.34661 0.05403 0.0
C710 C 0.25945 0.27279 0.04055 0.0
C711 C 0.30935 0.3086 1.02062 0.0
H712 H 0.1864 0.26243 0.07 0.0
H713 H 0.24566 0.23003 0.04203 0.0
S714 S 0.37254 0.45737 1.01187 0.0
N715 N 0.31317 0.43719 1.03487 0.0
N716 N 0.37542 0.40196 1.00414 0.0
C717 C 0.32655 0.36388 1.02016 0.0
C718 C 0.29287 0.38293 1.03694 0.0
C719 C 0.71624 0.92717 0.04072 0.0
C720 C 0.66281 0.88744 0.05069 0.0
C721 C 0.72962 0.98074 1.03324 0.0
C722 C 0.68971 0.99514 1.03571 0.0
H723 H 0.74706 0.91628 1.03666 0.0
H724 H 0.77049 0.0103 1.02356 0.0
S725 S 0.54683 0.90798 0.06898 0.0
N726 N 0.57214 0.86756 0.06888 0.0
N727 N 0.597 0.96789 0.05417 0.0
C728 C 0.63722 0.95652 0.04855 0.0
C729 C 0.62377 0.90249 0.05625 0.0
C730 C 0.0743 0.73953 0.1021 0.0
C731 C 0.12229 0.76799 0.07738 0.0
C732 C 0.02443 0.70783 0.07994 0.0
C733 C 0.02093 0.70415 1.0323 0.0
H734 H 0.07557 0.74013 0.13868 0.0
H735 H 0.98878 0.68474 0.10039 0.0
S736 S 0.13529 0.77935 0.95282 0.0
N737 N 0.16312 0.79595 1.00344 0.0
N738 N 0.0704 0.73774 0.96171 0.0
C739 C 0.06877 0.73563 1.00755 0.0
C740 C 0.11918 0.76714 1.0301 0.0
C741 C 0.64066 0.70983 0.54742 0.0
C742 C 0.69542 0.72565 0.54449 0.0
C743 C 0.61971 0.73647 0.5234 0.0
C744 C 0.65273 0.78099 0.49585 0.0
H745 H 0.61296 0.67521 0.56725 0.0
H746 H 0.577 0.72195 0.52715 0.0
S747 S 0.7987 0.83608 0.47434 0.0
N748 N 0.78211 0.78586 0.5099 0.0
N749 N 0.74297 0.83824 0.46535 0.0
C750 C 0.70763 0.79675 0.49171 0.0
C751 C 0.7289 0.76855 0.51588 0.0
C752 C 0.25997 0.90311 0.51005 0.0
C753 C 0.20477 0.87895 0.51921 0.0
C754 C 0.29428 0.95813 0.51746 0.0
C755 C 0.27451 0.99057 0.53457 0.0
H756 H 0.27715 0.87885 0.49928 0.0
H757 H 0.33723 0.97453 0.51305 0.0
S758 S 0.13256 0.94651 0.56194 0.0
N759 N 0.13076 0.89113 0.54355 0.0
N760 N 0.19638 0.99542 0.55882 0.0
C761 C 0.21898 0.96754 0.54161 0.0
C762 C 0.18367 0.91128 0.53346 0.0
C763 C 0.03922 0.34549 0.56712 0.0
C764 C 1.00075 0.29014 0.5662 0.0
C765 C 0.08873 0.36575 0.54574 0.0
C766 C 0.10269 0.33148 0.52289 0.0
H767 H 0.03103 0.37381 0.5845 0.0
H768 H 0.11677 0.40882 0.5483 0.0
S769 S 0.01351 0.18349 0.50677 0.0
N770 N 0.97704 0.20157 0.53736 0.0
N771 N 0.07187 0.23932 0.49778 0.0
C772 C 0.06354 0.27605 0.5198 0.0
C773 C 0.01215 0.25546 0.54129 0.0
C774 C 0.71881 0.66138 0.0857 0.0
C775 C 0.71001 0.69722 0.05984 0.0
C776 C 0.75889 0.64972 0.07407 0.0
C777 C 0.79214 0.6737 1.03633 0.0
H778 H 0.69318 0.64023 0.11414 0.0
H779 H 0.76273 0.62036 0.0942 0.0
S780 S 0.79071 0.77554 0.96066 0.0
N781 N 0.74193 0.76103 0.99722 0.0
N782 N 0.81718 0.7384 0.97537 0.0
C783 C 0.78648 0.71232 1.01188 0.0
C784 C 0.74544 0.72427 1.02365 0.0
C785 C 0.31092 0.05038 1.01983 0.0
C786 C 0.33271 0.09877 0.04465 0.0
C787 C 0.29746 1.00142 0.0412 0.0
C788 C 0.30529 0.99926 0.08814 0.0
H789 H 0.30663 0.05076 0.98349 0.0
H790 H 0.28304 0.96562 1.02037 0.0
S791 S 0.35117 0.11399 0.16891 0.0
N792 N 0.35397 0.14051 0.11898 0.0
N793 N 0.32932 0.04957 0.15909 0.0
C794 C 0.32321 0.04706 0.11348 0.0
C795 C 0.33684 0.09653 0.09174 0.0
C796 C 0.98828 0.25521 0.0585 0.0
C797 C 0.00632 0.30938 0.04814 0.0
C798 C 0.93535 0.2148 0.0477 0.0
C799 C 0.89974 0.22811 1.0266 0.0
H800 H 0.01411 0.24459 0.07709 0.0
H801 H 0.92118 0.17374 0.05846 0.0
S802 S 0.93019 0.36348 0.98883 0.0
N803 N 0.98639 0.37384 1.01335 0.0
N804 N 0.88759 0.2978 0.99196 0.0
C805 C 0.91867 0.28162 1.01371 0.0
C806 C 0.97202 0.32248 1.02487 0.0
C807 C 0.36569 0.27398 0.4983 0.0
C808 C 0.34269 0.24253 0.53709 0.0
C809 C 0.35277 0.31258 0.4848 0.0
C810 C 0.31647 0.32194 0.50959 0.0
H811 H 0.3937 0.26856 0.47761 0.0
H812 H 0.37189 0.33536 0.45458 0.0
S813 S 0.24565 0.25095 0.61457 0.0
N814 N 0.28221 0.2235 0.6007 0.0
N815 N 0.25766 0.29636 0.57534 0.0
C816 C 0.29308 0.29082 0.54866 0.0
C817 C 0.30628 0.25116 0.56241 0.0
C818 C 0.75074 0.04988 0.5452 0.0
C819 C 0.7451 0.09585 0.54839 0.0
C820 C 0.71209 0.00285 0.5225 0.0
C821 C 0.66674 1.00028 0.50173 0.0
H822 H 0.78592 0.05058 0.55931 0.0
H823 H 0.71844 0.96876 0.52022 0.0
S824 S 0.62828 0.10568 0.506 0.0
N825 N 0.68688 0.13299 0.5327 0.0
N826 N 0.61506 0.04498 0.49014 0.0
C827 C 0.65933 0.04483 0.50631 0.0
C828 C 0.69826 0.09247 0.52962 0.0
C829 C 0.94567 0.63797 0.49941 0.0
C830 C 0.99205 0.67564 0.52313 0.0
C831 C 0.89572 0.63355 0.5076 0.0
C832 C 0.89011 0.66669 0.53978 0.0
H833 H 0.94764 0.61115 0.47462 0.0
H834 H 0.86116 0.60339 0.48867 0.0
S835 S 0.99951 0.77362 0.60986 0.0
N836 N 0.02958 0.74831 0.57935 0.0
N837 N 0.93537 0.73942 0.59472 0.0
C838 C 0.93622 0.70518 0.56329 0.0
C839 C 0.98724 0.70978 0.55499 0.0
C840 C 0.30393 0.53179 0.28726 0.0
C841 C 0.27809 0.53088 0.32796 0.0
C842 C 0.28128 0.53145 0.24486 0.0
C843 C 0.23105 0.52908 0.24092 0.0
H844 H 0.34128 0.53104 0.28807 0.0
H845 H 0.30212 0.53007 0.21487 0.0
S846 S 0.14858 0.53066 0.3367 0.0
N847 N 0.20089 0.53178 0.36116 0.0
N848 N 0.15826 0.52998 0.2818 0.0
C849 C 0.20595 0.53067 0.28125 0.0
C850 C 0.22944 0.53194 0.32452 0.0
C851 C 0.47054 0.69958 0.25004 0.0
C852 C 0.47458 0.72219 0.20699 0.0
C853 C 0.47093 0.72687 0.29004 0.0
C854 C 0.47665 0.77877 0.28918 0.0
H855 H 0.46817 0.66083 0.253 0.0
H856 H 0.46911 0.70797 0.32211 0.0
S857 S 0.48499 0.85512 0.18576 0.0
N858 N 0.48105 0.79913 0.1665 0.0
N859 N 0.48324 0.85022 0.24135 0.0
C860 C 0.47909 0.80122 0.2465 0.0
C861 C 0.47756 0.77304 0.20566 0.0
C862 C 0.2589 0.72349 0.28576 0.0
C863 C 0.30174 0.77772 0.28669 0.0
C864 C 0.23482 0.6947 0.32575 0.0
C865 C 0.25321 0.71811 0.36878 0.0
H866 H 0.24182 0.70372 0.25375 0.0
H867 H 0.20045 0.65418 0.3228 0.0
S868 S 0.36715 0.85764 0.39023 0.0
N869 N 0.36322 0.85262 0.33463 0.0
N870 N 0.31957 0.79866 0.40945 0.0
C871 C 0.29798 0.77144 0.37019 0.0
C872 C 0.32169 0.80112 0.32939 0.0
C873 C 0.74161 0.52379 0.81724 0.0
C874 C 0.79339 0.52906 0.81744 0.0
C875 C 0.71577 0.52442 0.77676 0.0
C876 C 0.73965 0.52876 0.73431 0.0
H877 H 0.72151 0.52116 0.84885 0.0
H878 H 0.67694 0.52204 0.7788 0.0
S879 S 0.87444 0.54274 0.71561 0.0
N880 N 0.8673 0.53869 0.77103 0.0
N881 N 0.8186 0.5381 0.6953 0.0
C882 C 0.79085 0.53264 0.73395 0.0
C883 C 0.81767 0.53329 0.77526 0.0
C884 C 0.49188 0.27529 0.78034 0.0
C885 C 0.49106 0.24784 0.81997 0.0
C886 C 0.49287 0.25508 0.73704 0.0
C887 C 0.49189 0.20571 0.73103 0.0
H888 H 0.4904 0.31221 0.78267 0.0
H889 H 0.49168 0.27724 0.70796 0.0
S890 S 0.4922 0.11873 0.82335 0.0
N891 N 0.49213 0.16941 0.84992 0.0
N892 N 0.49254 0.13119 0.76891 0.0
C893 C 0.49268 0.1786 0.7703 0.0
C894 C 0.4927 0.19967 0.8145 0.0
C895 C 0.78323 0.27637 0.85479 0.0
C896 C 0.728 0.23696 0.85942 0.0
C897 C 0.80778 0.29313 0.81207 0.0
C898 C 0.77819 0.27223 0.77168 0.0
H899 H 0.80863 0.2927 0.88448 0.0
H900 H 0.85072 0.32192 0.81079 0.0
S901 S 0.63116 0.17137 0.76479 0.0
N902 N 0.64388 0.17985 0.81954 0.0
N903 N 0.68915 0.21165 0.73962 0.0
C904 C 0.72228 0.23462 0.77585 0.0
C905 C 0.69751 0.21695 0.81944 0.0
C906 C 0.01074 0.50087 0.067 0.0
C907 C 0.05449 0.50464 0.04278 0.0
C908 C 0.9687 0.50387 0.04543 0.0
C909 C 0.96907 0.51412 0.99856 0.0
H910 H 0.00799 0.49434 0.10306 0.0
H911 H 0.93588 0.49903 0.0665 0.0
S912 S 0.07375 0.526 0.91844 0.0
N913 N 0.09462 0.51729 0.96799 0.0
N914 N 0.01673 0.52517 0.92822 0.0
C915 C 0.01237 0.5176 0.9736 0.0
C916 C 0.05481 0.51301 0.99547 0.0
C917 C 0.50287 0.50106 0.06147 0.0
C918 C 0.51217 0.54306 1.03192 0.0
C919 C 0.49717 0.45215 0.04554 0.0
C920 C 0.49861 0.44131 0.9989 0.0
H921 H 0.50033 0.50587 0.09748 0.0
H922 H 0.49008 0.42192 0.07054 0.0
S923 S 0.52388 0.53824 0.90661 0.0
N924 N 0.52439 0.57071 0.95288 0.0
N925 N 0.51284 0.47879 0.92354 0.0
C926 C 0.50899 0.48327 0.9689 0.0
C927 C 0.5155 0.53364 0.98514 0.0
C928 C 0.46714 0.97364 0.05367 0.0
C929 C 0.46175 0.96892 0.10136 0.0
C930 C 0.5121 0.01677 1.03245 0.0
C931 C 0.55561 0.05686 0.05752 0.0
H932 H 0.43613 0.94368 1.0319 0.0
H933 H 0.51318 0.01751 0.99597 0.0
S934 S 0.56125 0.06706 0.18312 0.0
N935 N 0.5038 0.01083 0.17276 0.0
N936 N 0.58823 0.09113 0.13338 0.0
C937 C 0.55044 0.0535 0.10526 0.0
C938 C 0.50413 0.00975 0.12692 0.0
C939 C 0.46764 0.97863 0.46091 0.0
C940 C 0.46867 0.93648 0.48391 0.0
C941 C 0.4616 0.01807 0.48421 0.0
C942 C 0.45642 0.01787 0.53192 0.0
H943 H 0.4728 0.98214 0.42465 0.0
H944 H 0.46092 0.04911 0.46412 0.0
S945 S 0.44801 0.91162 0.60789 0.0
N946 N 0.45611 0.89291 0.55716 0.0
N947 N 0.44891 0.969 0.60059 0.0
C948 C 0.45555 0.97498 0.55519 0.0
C949 C 0.46014 0.9338 0.53134 0.0
C950 C 0.98698 0.44451 0.54193 0.0
C951 C 0.97486 0.43697 0.58867 0.0
C952 C 0.02963 0.49283 0.52442 0.0
C953 C 0.06222 0.5375 0.55231 0.0
H954 H 0.96325 0.41265 0.51793 0.0
H955 H 0.03582 0.49545 0.48827 0.0
S956 S 0.05166 0.5389 0.6778 0.0
N957 N 0.00212 0.4784 0.66291 0.0
N958 N 0.08183 0.56916 0.6304 0.0
C959 C 0.05196 0.53022 0.59944 0.0
C960 C 0.00847 0.48046 0.61738 0.0
C961 C 0.49311 0.53574 0.49163 0.0
C962 C 0.44951 0.52707 0.51888 0.0
C963 C 0.54143 0.54321 0.51039 0.0
C964 C 0.54993 0.5438 0.55771 0.0
H965 H 0.48964 0.53529 0.45522 0.0
H966 H 0.5726 0.54868 0.48688 0.0
S967 S 0.45082 0.52892 0.64491 0.0
N968 N 0.41988 0.5241 0.59658 0.0
N969 N 0.51037 0.53739 0.63136 0.0
C970 C 0.50733 0.53681 0.58558 0.0
C971 C 0.45771 0.52916 0.56639 0.0
loop_
_geom_bond_atom_site_label_1
_geom_bond_atom_site_label_2
_geom_bond_distance
_geom_bond_site_symmetry_2
_ccdc_geom_bond_type
Co0 O2 2.143 . S
Co0 O8 2.074 . S
Co0 O11 2.093 1_554 S
Co0 O24 2.099 . S
Co0 N41 2.151 . S
Co0 N49 2.214 1_554 S
Co1 O2 2.160 . S
Co1 O7 2.058 . S
Co1 O17 2.057 . S
Co1 O32 2.037 . S
Co1 N36 2.145 . S
Co1 N57 2.257 . S
O2 Co0 2.143 . S
O2 Co1 2.160 . S
C3 O4 1.278 . S
C3 O11 1.224 1_554 S
O4 C3 1.278 . S
C5 O6 1.245 . S
C5 O17 1.232 . S
O6 C5 1.245 . S
O7 Co1 2.058 . S
O7 C33 1.269 . S
O8 Co0 2.074 . S
O8 C33 1.257 . S
H9 C34 0.930 . S
H10 C40 0.930 . S
O11 Co0 2.093 1_556 S
O11 C3 1.224 1_556 S
H12 C44 0.929 . S
H13 C46 0.930 . S
H14 C47 0.930 . S
H15 C45 0.929 . S
H16 C48 0.928 . S
O17 Co1 2.057 . S
O17 C5 1.232 . S
H18 C37 0.929 . S
H19 C38 0.929 . S
H20 C50 0.931 . S
H21 C42 0.929 . S
H22 C51 0.930 . S
H23 C43 0.931 . S
O24 Co0 2.099 . S
O24 C52 1.227 . S
H25 C53 0.929 . S
H26 C54 0.929 1_655 S
H27 C55 0.930 1_655 S
H28 C56 0.929 . S
H29 C58 0.930 . S
H30 C35 0.930 . S
H31 C39 0.930 . S
O32 Co1 2.037 . S
O32 C52 1.234 . S
C33 O7 1.269 . S
C33 O8 1.257 . S
C34 H9 0.930 . S
C34 C37 1.388 . S
C34 C39 1.418 . S
C35 H30 0.930 . S
C35 C38 1.404 1_655 S
C35 C39 1.353 . S
N36 Co1 2.145 . S
N36 C37 1.397 1_455 S
N36 C38 1.334 . S
C37 H18 0.929 . S
C37 C34 1.388 . S
C37 N36 1.397 1_655 S
C38 H19 0.929 . S
C38 C35 1.404 1_455 S
C38 N36 1.334 . S
C39 H31 0.930 . S
C39 C34 1.418 . S
C39 C35 1.353 . S
C40 H10 0.930 . S
C40 N41 1.330 . S
C40 C42 1.446 . S
N41 Co0 2.151 . S
N41 C40 1.330 . S
N41 C45 1.418 1_554 S
C42 H21 0.929 . S
C42 C40 1.446 . S
C42 C43 1.332 1_554 S
C43 H23 0.931 . S
C43 C42 1.332 1_556 S
C43 C44 1.267 . S
C44 H12 0.929 . S
C44 C43 1.267 . S
C44 C45 1.251 . S
C45 H15 0.929 . S
C45 N41 1.418 1_556 S
C45 C44 1.251 . S
C46 H13 0.930 . S
C46 C48 1.406 . S
C46 C51 1.261 . S
C47 H14 0.930 . S
C47 N49 1.325 . S
C47 C50 1.357 . S
C48 H16 0.928 . S
C48 C46 1.406 . S
C48 N49 1.261 . S
N49 Co0 2.214 1_556 S
N49 C47 1.325 . S
N49 C48 1.261 . S
C50 H20 0.931 . S
C50 C47 1.357 . S
C50 C51 1.312 . S
C51 H22 0.930 . S
C51 C46 1.261 . S
C51 C50 1.312 . S
C52 O24 1.227 . S
C52 O32 1.234 . S
C53 H25 0.929 . S
C53 C56 1.391 . S
C53 C58 1.391 . S
C54 H26 0.929 1_455 S
C54 C55 1.390 . S
C54 N57 1.391 . S
C55 H27 0.930 1_455 S
C55 C54 1.390 . S
C55 C56 1.392 . S
C56 H28 0.929 . S
C56 C53 1.391 . S
C56 C55 1.392 . S
N57 Co1 2.257 . S
N57 C54 1.391 . S
N57 C58 1.388 . S
C58 H29 0.930 . S
C58 C53 1.391 . S
C58 N57 1.388 . S
Co59 O61 2.143 . S
Co59 O67 2.074 . S
Co59 O70 2.093 1_554 S
Co59 O83 2.099 . S
Co59 N100 2.151 . S
Co59 N108 2.214 1_554 S
Co60 O61 2.160 . S
Co60 O66 2.058 . S
Co60 O76 2.057 . S
Co60 O91 2.037 . S
Co60 N95 2.145 . S
Co60 N116 2.257 . S
O61 Co59 2.143 . S
O61 Co60 2.160 . S
C62 O63 1.278 . S
C62 O70 1.224 1_554 S
O63 C62 1.278 . S
C64 O65 1.245 . S
C64 O76 1.232 . S
O65 C64 1.245 . S
O66 Co60 2.058 . S
O66 C92 1.269 . S
O67 Co59 2.074 . S
O67 C92 1.257 . S
H68 C93 0.930 . S
H69 C99 0.930 . S
O70 Co59 2.093 1_556 S
O70 C62 1.224 1_556 S
H71 C103 0.929 . S
H72 C105 0.930 . S
H73 C106 0.930 . S
H74 C104 0.929 . S
H75 C107 0.928 . S
O76 Co60 2.057 . S
O76 C64 1.232 . S
H77 C96 0.929 . S
H78 C97 0.929 . S
H79 C109 0.931 . S
H80 C101 0.929 . S
H81 C110 0.930 . S
H82 C102 0.931 . S
O83 Co59 2.099 . S
O83 C111 1.227 . S
H84 C112 0.929 . S
H85 C113 0.929 . S
H86 C114 0.930 . S
H87 C115 0.929 . S
H88 C117 0.930 . S
H89 C94 0.930 . S
H90 C98 0.930 . S
O91 Co60 2.037 . S
O91 C111 1.234 . S
C92 O66 1.269 . S
C92 O67 1.257 . S
C93 H68 0.930 . S
C93 C96 1.388 . S
C93 C98 1.418 . S
C94 H89 0.930 . S
C94 C97 1.404 . S
C94 C98 1.353 . S
N95 Co60 2.145 . S
N95 C96 1.397 . S
N95 C97 1.334 . S
C96 H77 0.929 . S
C96 C93 1.388 . S
C96 N95 1.397 . S
C97 H78 0.929 . S
C97 C94 1.404 . S
C97 N95 1.334 . S
C98 H90 0.930 . S
C98 C93 1.418 . S
C98 C94 1.353 . S
C99 H69 0.930 . S
C99 N100 1.330 . S
C99 C101 1.446 . S
N100 Co59 2.151 . S
N100 C99 1.330 . S
N100 C104 1.418 1_554 S
C101 H80 0.929 . S
C101 C99 1.446 . S
C101 C102 1.332 1_554 S
C102 H82 0.931 . S
C102 C101 1.332 1_556 S
C102 C103 1.267 . S
C103 H71 0.929 . S
C103 C102 1.267 . S
C103 C104 1.251 . S
C104 H74 0.929 . S
C104 N100 1.418 1_556 S
C104 C103 1.251 . S
C105 H72 0.930 . S
C105 C107 1.406 . S
C105 C110 1.261 . S
C106 H73 0.930 . S
C106 N108 1.325 . S
C106 C109 1.357 . S
C107 H75 0.928 . S
C107 C105 1.406 . S
C107 N108 1.261 . S
N108 Co59 2.214 1_556 S
N108 C106 1.325 . S
N108 C107 1.261 . S
C109 H79 0.931 . S
C109 C106 1.357 . S
C109 C110 1.312 . S
C110 H81 0.930 . S
C110 C105 1.261 . S
C110 C109 1.312 . S
C111 O83 1.227 . S
C111 O91 1.234 . S
C112 H84 0.929 . S
C112 C115 1.391 . S
C112 C117 1.391 . S
C113 H85 0.929 . S
C113 C114 1.390 . S
C113 N116 1.391 . S
C114 H86 0.930 . S
C114 C113 1.390 . S
C114 C115 1.392 . S
C115 H87 0.929 . S
C115 C112 1.391 . S
C115 C114 1.392 . S
N116 Co60 2.257 . S
N116 C113 1.391 . S
N116 C117 1.388 . S
C117 H88 0.930 . S
C117 C112 1.391 . S
C117 N116 1.388 . S
Co118 O120 2.143 . S
Co118 O126 2.074 . S
Co118 O129 2.093 1_554 S
Co118 O142 2.099 . S
Co118 N159 2.151 . S
Co118 N167 2.214 1_554 S
Co119 O120 2.160 . S
Co119 O125 2.058 . S
Co119 O135 2.057 . S
Co119 O150 2.037 . S
Co119 N154 2.145 . S
Co119 N175 2.257 . S
O120 Co118 2.143 . S
O120 Co119 2.160 . S
C121 O122 1.278 . S
C121 O129 1.224 1_554 S
O122 C121 1.278 . S
C123 O124 1.245 . S
C123 O135 1.232 . S
O124 C123 1.245 . S
O125 Co119 2.058 . S
O125 C151 1.269 . S
O126 Co118 2.074 . S
O126 C151 1.257 . S
H127 C152 0.930 . S
H128 C158 0.930 . S
O129 Co118 2.093 1_556 S
O129 C121 1.224 1_556 S
H130 C162 0.929 . S
H131 C164 0.930 . S
H132 C165 0.930 . S
H133 C163 0.929 . S
H134 C166 0.928 . S
O135 Co119 2.057 . S
O135 C123 1.232 . S
H136 C155 0.929 . S
H137 C156 0.929 . S
H138 C168 0.931 . S
H139 C160 0.929 . S
H140 C169 0.930 . S
H141 C161 0.931 . S
O142 Co118 2.099 . S
O142 C170 1.227 . S
H143 C171 0.929 . S
H144 C172 0.929 1_545 S
H145 C173 0.930 1_545 S
H146 C174 0.929 . S
H147 C176 0.930 . S
H148 C153 0.930 . S
H149 C157 0.930 . S
O150 Co119 2.037 . S
O150 C170 1.234 . S
C151 O125 1.269 . S
C151 O126 1.257 . S
C152 H127 0.930 . S
C152 C155 1.388 . S
C152 C157 1.418 . S
C153 H148 0.930 . S
C153 C156 1.404 1_545 S
C153 C157 1.353 . S
N154 Co119 2.145 . S
N154 C155 1.397 1_565 S
N154 C156 1.334 . S
C155 H136 0.929 . S
C155 C152 1.388 . S
C155 N154 1.397 1_545 S
C156 H137 0.929 . S
C156 C153 1.404 1_565 S
C156 N154 1.334 . S
C157 H149 0.930 . S
C157 C152 1.418 . S
C157 C153 1.353 . S
C158 H128 0.930 . S
C158 N159 1.330 . S
C158 C160 1.446 . S
N159 Co118 2.151 . S
N159 C158 1.330 . S
N159 C163 1.418 1_554 S
C160 H139 0.929 . S
C160 C158 1.446 . S
C160 C161 1.332 1_554 S
C161 H141 0.931 . S
C161 C160 1.332 1_556 S
C161 C162 1.267 . S
C162 H130 0.929 . S
C162 C161 1.267 . S
C162 C163 1.251 . S
C163 H133 0.929 . S
C163 N159 1.418 1_556 S
C163 C162 1.251 . S
C164 H131 0.930 . S
C164 C166 1.406 . S
C164 C169 1.261 . S
C165 H132 0.930 . S
C165 N167 1.325 . S
C165 C168 1.357 . S
C166 H134 0.928 . S
C166 C164 1.406 . S
C166 N167 1.261 . S
N167 Co118 2.214 1_556 S
N167 C165 1.325 . S
N167 C166 1.261 . S
C168 H138 0.931 . S
C168 C165 1.357 . S
C168 C169 1.312 . S
C169 H140 0.930 . S
C169 C164 1.261 . S
C169 C168 1.312 . S
C170 O142 1.227 . S
C170 O150 1.234 . S
C171 H143 0.929 . S
C171 C174 1.391 . S
C171 C176 1.391 . S
C172 H144 0.929 1_565 S
C172 C173 1.390 . S
C172 N175 1.391 . S
C173 H145 0.930 1_565 S
C173 C172 1.390 . S
C173 C174 1.392 . S
C174 H146 0.929 . S
C174 C171 1.391 . S
C174 C173 1.392 . S
N175 Co119 2.257 . S
N175 C172 1.391 . S
N175 C176 1.388 . S
C176 H147 0.930 . S
C176 C171 1.391 . S
C176 N175 1.388 . S
Co177 O179 2.143 . S
Co177 O185 2.074 . S
Co177 O188 2.093 . S
Co177 O201 2.097 . S
Co177 N218 2.151 . S
Co177 N226 2.214 . S
Co178 O179 2.160 . S
Co178 O184 2.058 . S
Co178 O194 2.057 . S
Co178 O209 2.037 . S
Co178 N213 2.145 . S
Co178 N234 2.257 . S
O179 Co177 2.143 . S
O179 Co178 2.160 . S
C180 O181 1.278 . S
C180 O188 1.224 . S
O181 C180 1.278 . S
C182 O183 1.245 . S
C182 O194 1.232 . S
O183 C182 1.245 . S
O184 Co178 2.058 . S
O184 C210 1.269 . S
O185 Co177 2.074 . S
O185 C210 1.257 . S
H186 C211 0.930 . S
H187 C217 0.930 . S
O188 Co177 2.093 . S
O188 C180 1.224 . S
H189 C221 0.929 . S
H190 C223 0.930 . S
H191 C224 0.930 . S
H192 C222 0.929 . S
H193 C225 0.928 . S
O194 Co178 2.057 . S
O194 C182 1.232 . S
H195 C214 0.929 . S
H196 C215 0.929 . S
H197 C227 0.931 . S
H198 C219 0.929 . S
H199 C228 0.930 . S
H200 C220 0.931 . S
O201 Co177 2.097 . S
O201 C229 1.214 . S
H202 C230 0.929 . S
H203 C231 0.929 1_545 S
H204 C232 0.930 1_545 S
H205 C233 0.929 . S
H206 C235 0.930 . S
H207 C212 0.930 . S
H208 C216 0.930 . S
O209 Co178 2.037 . S
O209 C229 1.234 . S
C210 O184 1.269 . S
C210 O185 1.257 . S
C211 H186 0.930 . S
C211 C214 1.388 . S
C211 C216 1.418 . S
C212 H207 0.930 . S
C212 C215 1.404 1_545 S
C212 C216 1.353 . S
N213 Co178 2.145 . S
N213 C214 1.397 1_565 S
N213 C215 1.334 . S
C214 H195 0.929 . S
C214 C211 1.388 . S
C214 N213 1.397 1_545 S
C215 H196 0.929 . S
C215 C212 1.404 1_565 S
C215 N213 1.334 . S
C216 H208 0.930 . S
C216 C211 1.418 . S
C216 C212 1.353 . S
C217 H187 0.930 . S
C217 N218 1.330 . S
C217 C219 1.446 . S
N218 Co177 2.151 . S
N218 C217 1.330 . S
N218 C222 1.418 . S
C219 H198 0.929 . S
C219 C217 1.446 . S
C219 C220 1.332 . S
C220 H200 0.931 . S
C220 C219 1.332 . S
C220 C221 1.267 . S
C221 H189 0.929 . S
C221 C220 1.267 . S
C221 C222 1.251 . S
C222 H192 0.929 . S
C222 N218 1.418 . S
C222 C221 1.251 . S
C223 H190 0.930 . S
C223 C225 1.406 . S
C223 C228 1.261 . S
C224 H191 0.930 . S
C224 N226 1.325 . S
C224 C227 1.357 . S
C225 H193 0.928 . S
C225 C223 1.406 . S
C225 N226 1.261 . S
N226 Co177 2.214 . S
N226 C224 1.325 . S
N226 C225 1.261 . S
C227 H197 0.931 . S
C227 C224 1.357 . S
C227 C228 1.312 . S
C228 H199 0.930 . S
C228 C223 1.261 . S
C228 C227 1.312 . S
C229 O201 1.214 . S
C229 O209 1.234 . S
C230 H202 0.929 . S
C230 C233 1.391 . S
C230 C235 1.391 . S
C231 H203 0.929 1_565 S
C231 C232 1.390 . S
C231 N234 1.391 . S
C232 H204 0.930 1_565 S
C232 C231 1.390 . S
C232 C233 1.392 . S
C233 H205 0.929 . S
C233 C230 1.391 . S
C233 C232 1.392 . S
N234 Co178 2.257 . S
N234 C231 1.391 . S
N234 C235 1.388 . S
C235 H206 0.930 . S
C235 C230 1.391 . S
C235 N234 1.388 . S
Co236 O238 2.143 . S
Co236 O244 2.074 . S
Co236 O247 2.093 . S
Co236 O260 2.097 . S
Co236 N277 2.151 . S
Co236 N285 2.214 . S
Co237 O238 2.160 . S
Co237 O243 2.058 . S
Co237 O253 2.057 . S
Co237 O268 2.037 . S
Co237 N272 2.145 . S
Co237 N293 2.257 . S
O238 Co236 2.143 . S
O238 Co237 2.160 . S
C239 O240 1.278 . S
C239 O247 1.224 . S
O240 C239 1.278 . S
C241 O242 1.245 . S
C241 O253 1.232 . S
O242 C241 1.245 . S
O243 Co237 2.058 . S
O243 C269 1.269 . S
O244 Co236 2.074 . S
O244 C269 1.257 . S
H245 C270 0.930 . S
H246 C276 0.930 . S
O247 Co236 2.093 . S
O247 C239 1.224 . S
H248 C280 0.929 . S
H249 C282 0.930 . S
H250 C283 0.930 . S
H251 C281 0.929 . S
H252 C284 0.928 . S
O253 Co237 2.057 . S
O253 C241 1.232 . S
H254 C273 0.929 . S
H255 C274 0.929 . S
H256 C286 0.931 . S
H257 C278 0.929 . S
H258 C287 0.930 . S
H259 C279 0.931 . S
O260 Co236 2.097 . S
O260 C288 1.214 . S
H261 C289 0.929 . S
H262 C290 0.929 1_655 S
H263 C291 0.930 1_655 S
H264 C292 0.929 . S
H265 C294 0.930 . S
H266 C271 0.930 . S
H267 C275 0.930 . S
O268 Co237 2.037 . S
O268 C288 1.234 . S
C269 O243 1.269 . S
C269 O244 1.257 . S
C270 H245 0.930 . S
C270 C273 1.388 . S
C270 C275 1.418 . S
C271 H266 0.930 . S
C271 C274 1.404 1_655 S
C271 C275 1.353 . S
N272 Co237 2.145 . S
N272 C273 1.397 1_455 S
N272 C274 1.334 . S
C273 H254 0.929 . S
C273 C270 1.388 . S
C273 N272 1.397 1_655 S
C274 H255 0.929 . S
C274 C271 1.404 1_455 S
C274 N272 1.334 . S
C275 H267 0.930 . S
C275 C270 1.418 . S
C275 C271 1.353 . S
C276 H246 0.930 . S
C276 N277 1.330 . S
C276 C278 1.446 . S
N277 Co236 2.151 . S
N277 C276 1.330 . S
N277 C281 1.418 . S
C278 H257 0.929 . S
C278 C276 1.446 . S
C278 C279 1.332 . S
C279 H259 0.931 . S
C279 C278 1.332 . S
C279 C280 1.267 . S
C280 H248 0.929 . S
C280 C279 1.267 . S
C280 C281 1.251 . S
C281 H251 0.929 . S
C281 N277 1.418 . S
C281 C280 1.251 . S
C282 H249 0.930 . S
C282 C284 1.406 . S
C282 C287 1.261 . S
C283 H250 0.930 . S
C283 N285 1.325 . S
C283 C286 1.357 . S
C284 H252 0.928 . S
C284 C282 1.406 . S
C284 N285 1.261 . S
N285 Co236 2.214 . S
N285 C283 1.325 . S
N285 C284 1.261 . S
C286 H256 0.931 . S
C286 C283 1.357 . S
C286 C287 1.312 . S
C287 H258 0.930 . S
C287 C282 1.261 . S
C287 C286 1.312 . S
C288 O260 1.214 . S
C288 O268 1.234 . S
C289 H261 0.929 . S
C289 C292 1.391 . S
C289 C294 1.391 . S
C290 H262 0.929 1_455 S
C290 C291 1.390 . S
C290 N293 1.391 . S
C291 H263 0.930 1_455 S
C291 C290 1.390 . S
C291 C292 1.392 . S
C292 H264 0.929 . S
C292 C289 1.391 . S
C292 C291 1.392 . S
N293 Co237 2.257 . S
N293 C290 1.391 . S
N293 C294 1.388 . S
C294 H265 0.930 . S
C294 C289 1.391 . S
C294 N293 1.388 . S
Co295 O297 2.143 . S
Co295 O303 2.074 . S
Co295 O306 2.093 . S
Co295 O319 2.097 . S
Co295 N336 2.151 . S
Co295 N344 2.214 . S
Co296 O297 2.160 . S
Co296 O302 2.058 . S
Co296 O312 2.057 . S
Co296 O327 2.037 . S
Co296 N331 2.145 . S
Co296 N352 2.257 . S
O297 Co295 2.143 . S
O297 Co296 2.160 . S
C298 O299 1.278 . S
C298 O306 1.224 . S
O299 C298 1.278 . S
C300 O301 1.245 . S
C300 O312 1.232 . S
O301 C300 1.245 . S
O302 Co296 2.058 . S
O302 C328 1.269 . S
O303 Co295 2.074 . S
O303 C328 1.257 . S
H304 C329 0.930 . S
H305 C335 0.930 . S
O306 Co295 2.093 . S
O306 C298 1.224 . S
H307 C339 0.929 . S
H308 C341 0.930 . S
H309 C342 0.930 . S
H310 C340 0.929 . S
H311 C343 0.928 . S
O312 Co296 2.057 . S
O312 C300 1.232 . S
H313 C332 0.929 . S
H314 C333 0.929 . S
H315 C345 0.931 . S
H316 C337 0.929 . S
H317 C346 0.930 . S
H318 C338 0.931 . S
O319 Co295 2.097 . S
O319 C347 1.214 . S
H320 C348 0.929 . S
H321 C349 0.929 . S
H322 C350 0.930 . S
H323 C351 0.929 . S
H324 C353 0.930 . S
H325 C330 0.930 . S
H326 C334 0.930 . S
O327 Co296 2.037 . S
O327 C347 1.234 . S
C328 O302 1.269 . S
C328 O303 1.257 . S
C329 H304 0.930 . S
C329 C332 1.388 . S
C329 C334 1.418 . S
C330 H325 0.930 . S
C330 C333 1.404 . S
C330 C334 1.353 . S
N331 Co296 2.145 . S
N331 C332 1.397 . S
N331 C333 1.334 . S
C332 H313 0.929 . S
C332 C329 1.388 . S
C332 N331 1.397 . S
C333 H314 0.929 . S
C333 C330 1.404 . S
C333 N331 1.334 . S
C334 H326 0.930 . S
C334 C329 1.418 . S
C334 C330 1.353 . S
C335 H305 0.930 . S
C335 N336 1.330 . S
C335 C337 1.446 . S
N336 Co295 2.151 . S
N336 C335 1.330 . S
N336 C340 1.418 . S
C337 H316 0.929 . S
C337 C335 1.446 . S
C337 C338 1.332 . S
C338 H318 0.931 . S
C338 C337 1.332 . S
C338 C339 1.267 . S
C339 H307 0.929 . S
C339 C338 1.267 . S
C339 C340 1.251 . S
C340 H310 0.929 . S
C340 N336 1.418 . S
C340 C339 1.251 . S
C341 H308 0.930 . S
C341 C343 1.406 . S
C341 C346 1.261 . S
C342 H309 0.930 . S
C342 N344 1.325 . S
C342 C345 1.357 . S
C343 H311 0.928 . S
C343 C341 1.406 . S
C343 N344 1.261 . S
N344 Co295 2.214 . S
N344 C342 1.325 . S
N344 C343 1.261 . S
C345 H315 0.931 . S
C345 C342 1.357 . S
C345 C346 1.312 . S
C346 H317 0.930 . S
C346 C341 1.261 . S
C346 C345 1.312 . S
C347 O319 1.214 . S
C347 O327 1.234 . S
C348 H320 0.929 . S
C348 C351 1.391 . S
C348 C353 1.391 . S
C349 H321 0.929 . S
C349 C350 1.390 . S
C349 N352 1.391 . S
C350 H322 0.930 . S
C350 C349 1.390 . S
C350 C351 1.392 . S
C351 H323 0.929 . S
C351 C348 1.391 . S
C351 C350 1.392 . S
N352 Co296 2.257 . S
N352 C349 1.391 . S
N352 C353 1.388 . S
C353 H324 0.930 . S
C353 C348 1.391 . S
C353 N352 1.388 . S
Co354 O356 2.143 . S
Co354 O362 2.074 . S
Co354 O365 2.093 1_556 S
Co354 O378 2.099 . S
Co354 N395 2.151 . S
Co354 N403 2.214 1_556 S
Co355 O356 2.160 . S
Co355 O361 2.058 . S
Co355 O371 2.057 . S
Co355 O386 2.037 . S
Co355 N390 2.145 . S
Co355 N411 2.257 . S
O356 Co354 2.143 . S
O356 Co355 2.160 . S
C357 O358 1.278 . S
C357 O365 1.224 1_556 S
O358 C357 1.278 . S
C359 O360 1.245 . S
C359 O371 1.232 . S
O360 C359 1.245 . S
O361 Co355 2.058 . S
O361 C387 1.269 . S
O362 Co354 2.074 . S
O362 C387 1.257 . S
H363 C388 0.930 . S
H364 C394 0.930 . S
O365 Co354 2.093 1_554 S
O365 C357 1.224 1_554 S
H366 C398 0.929 . S
H367 C400 0.930 . S
H368 C401 0.930 . S
H369 C399 0.929 . S
H370 C402 0.928 . S
O371 Co355 2.057 . S
O371 C359 1.232 . S
H372 C391 0.929 . S
H373 C392 0.929 . S
H374 C404 0.931 . S
H375 C396 0.929 . S
H376 C405 0.930 . S
H377 C397 0.931 . S
O378 Co354 2.099 . S
O378 C406 1.227 . S
H379 C407 0.929 . S
H380 C408 0.929 1_455 S
H381 C409 0.930 1_455 S
H382 C410 0.929 . S
H383 C412 0.930 . S
H384 C389 0.930 . S
H385 C393 0.930 . S
O386 Co355 2.037 . S
O386 C406 1.234 . S
C387 O361 1.269 . S
C387 O362 1.257 . S
C388 H363 0.930 . S
C388 C391 1.388 . S
C388 C393 1.418 . S
C389 H384 0.930 . S
C389 C392 1.404 1_455 S
C389 C393 1.353 . S
N390 Co355 2.145 . S
N390 C391 1.397 1_655 S
N390 C392 1.334 . S
C391 H372 0.929 . S
C391 C388 1.388 . S
C391 N390 1.397 1_455 S
C392 H373 0.929 . S
C392 C389 1.404 1_655 S
C392 N390 1.334 . S
C393 H385 0.930 . S
C393 C388 1.418 . S
C393 C389 1.353 . S
C394 H364 0.930 . S
C394 N395 1.330 . S
C394 C396 1.446 . S
N395 Co354 2.151 . S
N395 C394 1.330 . S
N395 C399 1.418 1_556 S
C396 H375 0.929 . S
C396 C394 1.446 . S
C396 C397 1.332 1_556 S
C397 H377 0.931 . S
C397 C396 1.332 1_554 S
C397 C398 1.267 . S
C398 H366 0.929 . S
C398 C397 1.267 . S
C398 C399 1.251 . S
C399 H369 0.929 . S
C399 N395 1.418 1_554 S
C399 C398 1.251 . S
C400 H367 0.930 . S
C400 C402 1.406 . S
C400 C405 1.261 . S
C401 H368 0.930 . S
C401 N403 1.325 . S
C401 C404 1.357 . S
C402 H370 0.928 . S
C402 C400 1.406 . S
C402 N403 1.261 . S
N403 Co354 2.214 1_554 S
N403 C401 1.325 . S
N403 C402 1.261 . S
C404 H374 0.931 . S
C404 C401 1.357 . S
C404 C405 1.312 . S
C405 H376 0.930 . S
C405 C400 1.261 . S
C405 C404 1.312 . S
C406 O378 1.227 . S
C406 O386 1.234 . S
C407 H379 0.929 . S
C407 C410 1.391 . S
C407 C412 1.391 . S
C408 H380 0.929 1_655 S
C408 C409 1.390 . S
C408 N411 1.391 . S
C409 H381 0.930 1_655 S
C409 C408 1.390 . S
C409 C410 1.392 . S
C410 H382 0.929 . S
C410 C407 1.391 . S
C410 C409 1.392 . S
N411 Co355 2.257 . S
N411 C408 1.391 . S
N411 C412 1.388 . S
C412 H383 0.930 . S
C412 C407 1.391 . S
C412 N411 1.388 . S
Co413 O415 2.143 . S
Co413 O421 2.074 . S
Co413 O424 2.093 1_556 S
Co413 O437 2.099 . S
Co413 N454 2.151 . S
Co413 N462 2.214 1_556 S
Co414 O415 2.160 . S
Co414 O420 2.058 . S
Co414 O430 2.057 . S
Co414 O445 2.037 . S
Co414 N449 2.145 . S
Co414 N470 2.257 . S
O415 Co413 2.143 . S
O415 Co414 2.160 . S
C416 O417 1.278 . S
C416 O424 1.224 1_556 S
O417 C416 1.278 . S
C418 O419 1.245 . S
C418 O430 1.232 . S
O419 C418 1.245 . S
O420 Co414 2.058 . S
O420 C446 1.269 . S
O421 Co413 2.074 . S
O421 C446 1.257 . S
H422 C447 0.930 . S
H423 C453 0.930 . S
O424 Co413 2.093 1_554 S
O424 C416 1.224 1_554 S
H425 C457 0.929 . S
H426 C459 0.930 . S
H427 C460 0.930 . S
H428 C458 0.929 . S
H429 C461 0.928 . S
O430 Co414 2.057 . S
O430 C418 1.232 . S
H431 C450 0.929 . S
H432 C451 0.929 . S
H433 C463 0.931 . S
H434 C455 0.929 . S
H435 C464 0.930 . S
H436 C456 0.931 . S
O437 Co413 2.099 . S
O437 C465 1.227 . S
H438 C466 0.929 . S
H439 C467 0.929 . S
H440 C468 0.930 . S
H441 C469 0.929 . S
H442 C471 0.930 . S
H443 C448 0.930 . S
H444 C452 0.930 . S
O445 Co414 2.037 . S
O445 C465 1.234 . S
C446 O420 1.269 . S
C446 O421 1.257 . S
C447 H422 0.930 . S
C447 C450 1.388 . S
C447 C452 1.418 . S
C448 H443 0.930 . S
C448 C451 1.404 . S
C448 C452 1.353 . S
N449 Co414 2.145 . S
N449 C450 1.397 . S
N449 C451 1.334 . S
C450 H431 0.929 . S
C450 C447 1.388 . S
C450 N449 1.397 . S
C451 H432 0.929 . S
C451 C448 1.404 . S
C451 N449 1.334 . S
C452 H444 0.930 . S
C452 C447 1.418 . S
C452 C448 1.353 . S
C453 H423 0.930 . S
C453 N454 1.330 . S
C453 C455 1.446 . S
N454 Co413 2.151 . S
N454 C453 1.330 . S
N454 C458 1.418 1_556 S
C455 H434 0.929 . S
C455 C453 1.446 . S
C455 C456 1.332 1_556 S
C456 H436 0.931 . S
C456 C455 1.332 1_554 S
C456 C457 1.267 . S
C457 H425 0.929 . S
C457 C456 1.267 . S
C457 C458 1.251 . S
C458 H428 0.929 . S
C458 N454 1.418 1_554 S
C458 C457 1.251 . S
C459 H426 0.930 . S
C459 C461 1.406 . S
C459 C464 1.261 . S
C460 H427 0.930 . S
C460 N462 1.325 . S
C460 C463 1.357 . S
C461 H429 0.928 . S
C461 C459 1.406 . S
C461 N462 1.261 . S
N462 Co413 2.214 1_554 S
N462 C460 1.325 . S
N462 C461 1.261 . S
C463 H433 0.931 . S
C463 C460 1.357 . S
C463 C464 1.312 . S
C464 H435 0.930 . S
C464 C459 1.261 . S
C464 C463 1.312 . S
C465 O437 1.227 . S
C465 O445 1.234 . S
C466 H438 0.929 . S
C466 C469 1.391 . S
C466 C471 1.391 . S
C467 H439 0.929 . S
C467 C468 1.390 . S
C467 N470 1.391 . S
C468 H440 0.930 . S
C468 C467 1.390 . S
C468 C469 1.392 . S
C469 H441 0.929 . S
C469 C466 1.391 . S
C469 C468 1.392 . S
N470 Co414 2.257 . S
N470 C467 1.391 . S
N470 C471 1.388 . S
C471 H442 0.930 . S
C471 C466 1.391 . S
C471 N470 1.388 . S
Co472 O474 2.143 . S
Co472 O480 2.074 . S
Co472 O483 2.093 1_556 S
Co472 O496 2.099 . S
Co472 N513 2.151 . S
Co472 N521 2.214 1_556 S
Co473 O474 2.160 . S
Co473 O479 2.058 . S
Co473 O489 2.057 . S
Co473 O504 2.037 . S
Co473 N508 2.145 . S
Co473 N529 2.257 . S
O474 Co472 2.143 . S
O474 Co473 2.160 . S
C475 O476 1.278 . S
C475 O483 1.224 1_556 S
O476 C475 1.278 . S
C477 O478 1.245 . S
C477 O489 1.232 . S
O478 C477 1.245 . S
O479 Co473 2.058 . S
O479 C505 1.269 . S
O480 Co472 2.074 . S
O480 C505 1.257 . S
H481 C506 0.930 . S
H482 C512 0.930 . S
O483 Co472 2.093 1_554 S
O483 C475 1.224 1_554 S
H484 C516 0.929 . S
H485 C518 0.930 . S
H486 C519 0.930 . S
H487 C517 0.929 . S
H488 C520 0.928 . S
O489 Co473 2.057 . S
O489 C477 1.232 . S
H490 C509 0.929 . S
H491 C510 0.929 . S
H492 C522 0.931 . S
H493 C514 0.929 . S
H494 C523 0.930 . S
H495 C515 0.931 . S
O496 Co472 2.099 . S
O496 C524 1.227 . S
H497 C525 0.929 . S
H498 C526 0.929 1_565 S
H499 C527 0.930 1_565 S
H500 C528 0.929 . S
H501 C530 0.930 . S
H502 C507 0.930 . S
H503 C511 0.930 . S
O504 Co473 2.037 . S
O504 C524 1.234 . S
C505 O479 1.269 . S
C505 O480 1.257 . S
C506 H481 0.930 . S
C506 C509 1.388 . S
C506 C511 1.418 . S
C507 H502 0.930 . S
C507 C510 1.404 1_565 S
C507 C511 1.353 . S
N508 Co473 2.145 . S
N508 C509 1.397 1_545 S
N508 C510 1.334 . S
C509 H490 0.929 . S
C509 C506 1.388 . S
C509 N508 1.397 1_565 S
C510 H491 0.929 . S
C510 C507 1.404 1_545 S
C510 N508 1.334 . S
C511 H503 0.930 . S
C511 C506 1.418 . S
C511 C507 1.353 . S
C512 H482 0.930 . S
C512 N513 1.330 . S
C512 C514 1.446 . S
N513 Co472 2.151 . S
N513 C512 1.330 . S
N513 C517 1.418 1_556 S
C514 H493 0.929 . S
C514 C512 1.446 . S
C514 C515 1.332 1_556 S
C515 H495 0.931 . S
C515 C514 1.332 1_554 S
C515 C516 1.267 . S
C516 H484 0.929 . S
C516 C515 1.267 . S
C516 C517 1.251 . S
C517 H487 0.929 . S
C517 N513 1.418 1_554 S
C517 C516 1.251 . S
C518 H485 0.930 . S
C518 C520 1.406 . S
C518 C523 1.261 . S
C519 H486 0.930 . S
C519 N521 1.325 . S
C519 C522 1.357 . S
C520 H488 0.928 . S
C520 C518 1.406 . S
C520 N521 1.261 . S
N521 Co472 2.214 1_554 S
N521 C519 1.325 . S
N521 C520 1.261 . S
C522 H492 0.931 . S
C522 C519 1.357 . S
C522 C523 1.312 . S
C523 H494 0.930 . S
C523 C518 1.261 . S
C523 C522 1.312 . S
C524 O496 1.227 . S
C524 O504 1.234 . S
C525 H497 0.929 . S
C525 C528 1.391 . S
C525 C530 1.391 . S
C526 H498 0.929 1_545 S
C526 C527 1.390 . S
C526 N529 1.391 . S
C527 H499 0.930 1_545 S
C527 C526 1.390 . S
C527 C528 1.392 . S
C528 H500 0.929 . S
C528 C525 1.391 . S
C528 C527 1.392 . S
N529 Co473 2.257 . S
N529 C526 1.391 . S
N529 C530 1.388 . S
C530 H501 0.930 . S
C530 C525 1.391 . S
C530 N529 1.388 . S
Co531 O533 2.143 . S
Co531 O539 2.074 . S
Co531 O542 2.093 . S
Co531 O555 2.097 . S
Co531 N572 2.151 . S
Co531 N580 2.214 . S
Co532 O533 2.160 . S
Co532 O538 2.058 . S
Co532 O548 2.057 . S
Co532 O563 2.037 . S
Co532 N567 2.145 . S
Co532 N588 2.257 . S
O533 Co531 2.143 . S
O533 Co532 2.160 . S
C534 O535 1.278 . S
C534 O542 1.224 . S
O535 C534 1.278 . S
C536 O537 1.245 . S
C536 O548 1.232 . S
O537 C536 1.245 . S
O538 Co532 2.058 . S
O538 C564 1.269 . S
O539 Co531 2.074 . S
O539 C564 1.257 . S
H540 C565 0.930 . S
H541 C571 0.930 . S
O542 Co531 2.093 . S
O542 C534 1.224 . S
H543 C575 0.929 . S
H544 C577 0.930 . S
H545 C578 0.930 . S
H546 C576 0.929 . S
H547 C579 0.928 . S
O548 Co532 2.057 . S
O548 C536 1.232 . S
H549 C568 0.929 . S
H550 C569 0.929 . S
H551 C581 0.931 . S
H552 C573 0.929 . S
H553 C582 0.930 . S
H554 C574 0.931 . S
O555 Co531 2.097 . S
O555 C583 1.214 . S
H556 C584 0.929 . S
H557 C585 0.929 1_565 S
H558 C586 0.930 1_565 S
H559 C587 0.929 . S
H560 C589 0.930 . S
H561 C566 0.930 . S
H562 C570 0.930 . S
O563 Co532 2.037 . S
O563 C583 1.234 . S
C564 O538 1.269 . S
C564 O539 1.257 . S
C565 H540 0.930 . S
C565 C568 1.388 . S
C565 C570 1.418 . S
C566 H561 0.930 . S
C566 C569 1.404 1_565 S
C566 C570 1.353 . S
N567 Co532 2.145 . S
N567 C568 1.397 1_545 S
N567 C569 1.334 . S
C568 H549 0.929 . S
C568 C565 1.388 . S
C568 N567 1.397 1_565 S
C569 H550 0.929 . S
C569 C566 1.404 1_545 S
C569 N567 1.334 . S
C570 H562 0.930 . S
C570 C565 1.418 . S
C570 C566 1.353 . S
C571 H541 0.930 . S
C571 N572 1.330 . S
C571 C573 1.446 . S
N572 Co531 2.151 . S
N572 C571 1.330 . S
N572 C576 1.418 . S
C573 H552 0.929 . S
C573 C571 1.446 . S
C573 C574 1.332 . S
C574 H554 0.931 . S
C574 C573 1.332 . S
C574 C575 1.267 . S
C575 H543 0.929 . S
C575 C574 1.267 . S
C575 C576 1.251 . S
C576 H546 0.929 . S
C576 N572 1.418 . S
C576 C575 1.251 . S
C577 H544 0.930 . S
C577 C579 1.406 . S
C577 C582 1.261 . S
C578 H545 0.930 . S
C578 N580 1.325 . S
C578 C581 1.357 . S
C579 H547 0.928 . S
C579 C577 1.406 . S
C579 N580 1.261 . S
N580 Co531 2.214 . S
N580 C578 1.325 . S
N580 C579 1.261 . S
C581 H551 0.931 . S
C581 C578 1.357 . S
C581 C582 1.312 . S
C582 H553 0.930 . S
C582 C577 1.261 . S
C582 C581 1.312 . S
C583 O555 1.214 . S
C583 O563 1.234 . S
C584 H556 0.929 . S
C584 C587 1.391 . S
C584 C589 1.391 . S
C585 H557 0.929 1_545 S
C585 C586 1.390 . S
C585 N588 1.391 . S
C586 H558 0.930 1_545 S
C586 C585 1.390 . S
C586 C587 1.392 . S
C587 H559 0.929 . S
C587 C584 1.391 . S
C587 C586 1.392 . S
N588 Co532 2.257 . S
N588 C585 1.391 . S
N588 C589 1.388 . S
C589 H560 0.930 . S
C589 C584 1.391 . S
C589 N588 1.388 . S
Co590 O592 2.143 . S
Co590 O598 2.074 . S
Co590 O601 2.093 . S
Co590 O614 2.097 . S
Co590 N631 2.151 . S
Co590 N639 2.214 . S
Co591 O592 2.160 . S
Co591 O597 2.058 . S
Co591 O607 2.057 . S
Co591 O622 2.037 . S
Co591 N626 2.145 . S
Co591 N647 2.257 . S
O592 Co590 2.143 . S
O592 Co591 2.160 . S
C593 O594 1.278 . S
C593 O601 1.224 . S
O594 C593 1.278 . S
C595 O596 1.245 . S
C595 O607 1.232 . S
O596 C595 1.245 . S
O597 Co591 2.058 . S
O597 C623 1.269 . S
O598 Co590 2.074 . S
O598 C623 1.257 . S
H599 C624 0.930 . S
H600 C630 0.930 . S
O601 Co590 2.093 . S
O601 C593 1.224 . S
H602 C634 0.929 . S
H603 C636 0.930 . S
H604 C637 0.930 . S
H605 C635 0.929 . S
H606 C638 0.928 . S
O607 Co591 2.057 . S
O607 C595 1.232 . S
H608 C627 0.929 . S
H609 C628 0.929 . S
H610 C640 0.931 . S
H611 C632 0.929 . S
H612 C641 0.930 . S
H613 C633 0.931 . S
O614 Co590 2.097 . S
O614 C642 1.214 . S
H615 C643 0.929 . S
H616 C644 0.929 1_455 S
H617 C645 0.930 1_455 S
H618 C646 0.929 . S
H619 C648 0.930 . S
H620 C625 0.930 . S
H621 C629 0.930 . S
O622 Co591 2.037 . S
O622 C642 1.234 . S
C623 O597 1.269 . S
C623 O598 1.257 . S
C624 H599 0.930 . S
C624 C627 1.388 . S
C624 C629 1.418 . S
C625 H620 0.930 . S
C625 C628 1.404 1_455 S
C625 C629 1.353 . S
N626 Co591 2.145 . S
N626 C627 1.397 1_655 S
N626 C628 1.334 . S
C627 H608 0.929 . S
C627 C624 1.388 . S
C627 N626 1.397 1_455 S
C628 H609 0.929 . S
C628 C625 1.404 1_655 S
C628 N626 1.334 . S
C629 H621 0.930 . S
C629 C624 1.418 . S
C629 C625 1.353 . S
C630 H600 0.930 . S
C630 N631 1.330 . S
C630 C632 1.446 . S
N631 Co590 2.151 . S
N631 C630 1.330 . S
N631 C635 1.418 . S
C632 H611 0.929 . S
C632 C630 1.446 . S
C632 C633 1.332 . S
C633 H613 0.931 . S
C633 C632 1.332 . S
C633 C634 1.267 . S
C634 H602 0.929 . S
C634 C633 1.267 . S
C634 C635 1.251 . S
C635 H605 0.929 . S
C635 N631 1.418 . S
C635 C634 1.251 . S
C636 H603 0.930 . S
C636 C638 1.406 . S
C636 C641 1.261 . S
C637 H604 0.930 . S
C637 N639 1.325 . S
C637 C640 1.357 . S
C638 H606 0.928 . S
C638 C636 1.406 . S
C638 N639 1.261 . S
N639 Co590 2.214 . S
N639 C637 1.325 . S
N639 C638 1.261 . S
C640 H610 0.931 . S
C640 C637 1.357 . S
C640 C641 1.312 . S
C641 H612 0.930 . S
C641 C636 1.261 . S
C641 C640 1.312 . S
C642 O614 1.214 . S
C642 O622 1.234 . S
C643 H615 0.929 . S
C643 C646 1.391 . S
C643 C648 1.391 . S
C644 H616 0.929 1_655 S
C644 C645 1.390 . S
C644 N647 1.391 . S
C645 H617 0.930 1_655 S
C645 C644 1.390 . S
C645 C646 1.392 . S
C646 H618 0.929 . S
C646 C643 1.391 . S
C646 C645 1.392 . S
N647 Co591 2.257 . S
N647 C644 1.391 . S
N647 C648 1.388 . S
C648 H619 0.930 . S
C648 C643 1.391 . S
C648 N647 1.388 . S
Co649 O651 2.143 . S
Co649 O657 2.074 . S
Co649 O660 2.093 . S
Co649 O673 2.097 . S
Co649 N690 2.151 . S
Co649 N698 2.214 . S
Co650 O651 2.160 . S
Co650 O656 2.058 . S
Co650 O666 2.057 . S
Co650 O681 2.037 . S
Co650 N685 2.145 . S
Co650 N706 2.257 . S
O651 Co649 2.143 . S
O651 Co650 2.160 . S
C652 O653 1.278 . S
C652 O660 1.224 . S
O653 C652 1.278 . S
C654 O655 1.245 . S
C654 O666 1.232 . S
O655 C654 1.245 . S
O656 Co650 2.058 . S
O656 C682 1.269 . S
O657 Co649 2.074 . S
O657 C682 1.257 . S
H658 C683 0.930 . S
H659 C689 0.930 . S
O660 Co649 2.093 . S
O660 C652 1.224 . S
H661 C693 0.929 . S
H662 C695 0.930 . S
H663 C696 0.930 . S
H664 C694 0.929 . S
H665 C697 0.928 . S
O666 Co650 2.057 . S
O666 C654 1.232 . S
H667 C686 0.929 . S
H668 C687 0.929 . S
H669 C699 0.931 . S
H670 C691 0.929 . S
H671 C700 0.930 . S
H672 C692 0.931 . S
O673 Co649 2.097 . S
O673 C701 1.214 . S
H674 C702 0.929 . S
H675 C703 0.929 . S
H676 C704 0.930 . S
H677 C705 0.929 . S
H678 C707 0.930 . S
H679 C684 0.930 . S
H680 C688 0.930 . S
O681 Co650 2.037 . S
O681 C701 1.234 . S
C682 O656 1.269 . S
C682 O657 1.257 . S
C683 H658 0.930 . S
C683 C686 1.388 . S
C683 C688 1.418 . S
C684 H679 0.930 . S
C684 C687 1.404 . S
C684 C688 1.353 . S
N685 Co650 2.145 . S
N685 C686 1.397 . S
N685 C687 1.334 . S
C686 H667 0.929 . S
C686 C683 1.388 . S
C686 N685 1.397 . S
C687 H668 0.929 . S
C687 C684 1.404 . S
C687 N685 1.334 . S
C688 H680 0.930 . S
C688 C683 1.418 . S
C688 C684 1.353 . S
C689 H659 0.930 . S
C689 N690 1.330 . S
C689 C691 1.446 . S
N690 Co649 2.151 . S
N690 C689 1.330 . S
N690 C694 1.418 . S
C691 H670 0.929 . S
C691 C689 1.446 . S
C691 C692 1.332 . S
C692 H672 0.931 . S
C692 C691 1.332 . S
C692 C693 1.267 . S
C693 H661 0.929 . S
C693 C692 1.267 . S
C693 C694 1.251 . S
C694 H664 0.929 . S
C694 N690 1.418 . S
C694 C693 1.251 . S
C695 H662 0.930 . S
C695 C697 1.406 . S
C695 C700 1.261 . S
C696 H663 0.930 . S
C696 N698 1.325 . S
C696 C699 1.357 . S
C697 H665 0.928 . S
C697 C695 1.406 . S
C697 N698 1.261 . S
N698 Co649 2.214 . S
N698 C696 1.325 . S
N698 C697 1.261 . S
C699 H669 0.931 . S
C699 C696 1.357 . S
C699 C700 1.312 . S
C700 H671 0.930 . S
C700 C695 1.261 . S
C700 C699 1.312 . S
C701 O673 1.214 . S
C701 O681 1.234 . S
C702 H674 0.929 . S
C702 C705 1.391 . S
C702 C707 1.391 . S
C703 H675 0.929 . S
C703 C704 1.390 . S
C703 N706 1.391 . S
C704 H676 0.930 . S
C704 C703 1.390 . S
C704 C705 1.392 . S
C705 H677 0.929 . S
C705 C702 1.391 . S
C705 C704 1.392 . S
N706 Co650 2.257 . S
N706 C703 1.391 . S
N706 C707 1.388 . S
C707 H678 0.930 . S
C707 C702 1.391 . S
C707 N706 1.388 . S
C708 C709 1.369 . S
C708 C710 1.419 . S
C708 H712 0.930 . S
C709 C708 1.369 . S
C709 C718 1.429 1_554 S
C710 C708 1.419 . S
C710 C711 1.363 1_554 S
C710 H713 0.929 . S
C711 C710 1.363 1_556 S
C711 C717 1.428 . S
H712 C708 0.930 . S
H713 C710 0.929 . S
S714 N715 1.613 . S
S714 N716 1.610 . S
N715 S714 1.613 . S
N715 C718 1.350 . S
N716 S714 1.610 . S
N716 C717 1.351 . S
C717 C711 1.428 . S
C717 N716 1.351 . S
C717 C718 1.434 . S
C718 C709 1.429 1_556 S
C718 N715 1.350 . S
C718 C717 1.434 . S
C719 C720 1.369 . S
C719 C721 1.419 . S
C719 H723 0.930 . S
C720 C719 1.369 . S
C720 C729 1.429 1_554 S
C721 C719 1.419 . S
C721 C722 1.363 1_554 S
C721 H724 0.929 . S
C722 C721 1.363 1_556 S
C722 C728 1.428 . S
H723 C719 0.930 . S
H724 C721 0.929 . S
S725 N726 1.613 . S
S725 N727 1.610 . S
N726 S725 1.613 . S
N726 C729 1.350 . S
N727 S725 1.610 . S
N727 C728 1.351 . S
C728 C722 1.428 . S
C728 N727 1.351 . S
C728 C729 1.434 . S
C729 C720 1.429 1_556 S
C729 N726 1.350 . S
C729 C728 1.434 . S
C730 C731 1.369 . S
C730 C732 1.419 . S
C730 H734 0.930 . S
C731 C730 1.369 . S
C731 C740 1.429 1_554 S
C732 C730 1.419 . S
C732 C733 1.363 1_554 S
C732 H735 0.929 . S
C733 C732 1.363 1_556 S
C733 C739 1.428 . S
H734 C730 0.930 . S
H735 C732 0.929 . S
S736 N737 1.613 . S
S736 N738 1.610 . S
N737 S736 1.613 . S
N737 C740 1.350 . S
N738 S736 1.610 . S
N738 C739 1.351 . S
C739 C733 1.428 . S
C739 N738 1.351 . S
C739 C740 1.434 . S
C740 C731 1.429 1_556 S
C740 N737 1.350 . S
C740 C739 1.434 . S
C741 C742 1.369 . S
C741 C743 1.419 . S
C741 H745 0.930 . S
C742 C741 1.369 . S
C742 C751 1.429 . S
C743 C741 1.419 . S
C743 C744 1.363 . S
C743 H746 0.929 . S
C744 C743 1.363 . S
C744 C750 1.428 . S
H745 C741 0.930 . S
H746 C743 0.929 . S
S747 N748 1.613 . S
S747 N749 1.610 . S
N748 S747 1.613 . S
N748 C751 1.350 . S
N749 S747 1.610 . S
N749 C750 1.351 . S
C750 C744 1.428 . S
C750 N749 1.351 . S
C750 C751 1.434 . S
C751 C742 1.429 . S
C751 N748 1.350 . S
C751 C750 1.434 . S
C752 C753 1.369 . S
C752 C754 1.419 . S
C752 H756 0.930 . S
C753 C752 1.369 . S
C753 C762 1.429 . S
C754 C752 1.419 . S
C754 C755 1.363 . S
C754 H757 0.929 . S
C755 C754 1.363 . S
C755 C761 1.428 . S
H756 C752 0.930 . S
H757 C754 0.929 . S
S758 N759 1.613 . S
S758 N760 1.606 1_565 S
N759 S758 1.613 . S
N759 C762 1.350 . S
N760 S758 1.606 1_545 S
N760 C761 1.331 1_545 S
C761 C755 1.428 . S
C761 N760 1.331 1_565 S
C761 C762 1.434 . S
C762 C753 1.429 . S
C762 N759 1.350 . S
C762 C761 1.434 . S
C763 C764 1.369 . S
C763 C765 1.419 . S
C763 H767 0.930 . S
C764 C763 1.369 . S
C764 C773 1.429 . S
C765 C763 1.419 . S
C765 C766 1.363 . S
C765 H768 0.929 . S
C766 C765 1.363 . S
C766 C772 1.428 . S
H767 C763 0.930 . S
H768 C765 0.929 . S
S769 N770 1.613 1_455 S
S769 N771 1.610 . S
N770 S769 1.613 1_655 S
N770 C773 1.350 1_655 S
N771 S769 1.610 . S
N771 C772 1.351 . S
C772 C766 1.428 . S
C772 N771 1.351 . S
C772 C773 1.434 . S
C773 C764 1.429 . S
C773 N770 1.350 1_455 S
C773 C772 1.434 . S
C774 C775 1.369 1_556 S
C774 C776 1.419 . S
C774 H778 0.930 . S
C775 C774 1.369 1_554 S
C775 C784 1.429 . S
C776 C774 1.419 . S
C776 C777 1.363 . S
C776 H779 0.929 . S
C777 C776 1.363 . S
C777 C783 1.428 1_556 S
H778 C774 0.930 . S
H779 C776 0.929 . S
S780 N781 1.613 . S
S780 N782 1.610 . S
N781 S780 1.613 . S
N781 C784 1.350 . S
N782 S780 1.610 . S
N782 C783 1.351 . S
C783 C777 1.428 1_554 S
C783 N782 1.351 . S
C783 C784 1.434 . S
C784 C775 1.429 . S
C784 N781 1.350 . S
C784 C783 1.434 . S
C785 C786 1.369 . S
C785 C787 1.419 . S
C785 H789 0.930 . S
C786 C785 1.369 . S
C786 C795 1.429 1_556 S
C787 C785 1.419 . S
C787 C788 1.363 1_556 S
C787 H790 0.929 . S
C788 C787 1.363 1_554 S
C788 C794 1.428 . S
H789 C785 0.930 . S
H790 C787 0.929 . S
S791 N792 1.613 . S
S791 N793 1.610 . S
N792 S791 1.613 . S
N792 C795 1.350 . S
N793 S791 1.610 . S
N793 C794 1.351 . S
C794 C788 1.428 . S
C794 N793 1.351 . S
C794 C795 1.434 . S
C795 C786 1.429 1_554 S
C795 N792 1.350 . S
C795 C794 1.434 . S
C796 C797 1.369 . S
C796 C798 1.419 1_554 S
C796 H800 0.930 . S
C797 C796 1.369 . S
C797 C806 1.429 . S
C798 C796 1.419 1_556 S
C798 C799 1.363 . S
C798 H801 0.929 . S
C799 C798 1.363 . S
C799 C805 1.431 . S
H800 C796 0.930 . S
H801 C798 0.929 . S
S802 N803 1.613 . S
S802 N804 1.610 1_554 S
N803 S802 1.613 . S
N803 C806 1.350 . S
N804 S802 1.610 1_556 S
N804 C805 1.351 . S
C805 C799 1.431 . S
C805 N804 1.351 . S
C805 C806 1.430 1_556 S
C806 C797 1.429 . S
C806 N803 1.350 . S
C806 C805 1.430 1_554 S
C807 C808 1.369 . S
C807 C809 1.419 . S
C807 H811 0.930 . S
C808 C807 1.369 . S
C808 C817 1.429 . S
C809 C807 1.419 . S
C809 C810 1.363 . S
C809 H812 0.929 . S
C810 C809 1.363 . S
C810 C816 1.428 . S
H811 C807 0.930 . S
H812 C809 0.929 . S
S813 N814 1.613 . S
S813 N815 1.610 . S
N814 S813 1.613 . S
N814 C817 1.350 . S
N815 S813 1.610 . S
N815 C816 1.351 . S
C816 C810 1.428 . S
C816 N815 1.351 . S
C816 C817 1.434 . S
C817 C808 1.429 . S
C817 N814 1.350 . S
C817 C816 1.434 . S
C818 C819 1.369 . S
C818 C820 1.419 . S
C818 H822 0.930 . S
C819 C818 1.369 . S
C819 C828 1.429 . S
C820 C818 1.419 . S
C820 C821 1.363 . S
C820 H823 0.929 . S
C821 C820 1.363 . S
C821 C827 1.428 . S
H822 C818 0.930 . S
H823 C820 0.929 . S
S824 N825 1.613 . S
S824 N826 1.610 . S
N825 S824 1.613 . S
N825 C828 1.350 . S
N826 S824 1.610 . S
N826 C827 1.351 . S
C827 C821 1.428 . S
C827 N826 1.351 . S
C827 C828 1.434 . S
C828 C819 1.429 . S
C828 N825 1.350 . S
C828 C827 1.434 . S
C829 C830 1.369 . S
C829 C831 1.419 . S
C829 H833 0.930 . S
C830 C829 1.369 . S
C830 C839 1.429 . S
C831 C829 1.419 . S
C831 C832 1.363 . S
C831 H834 0.929 . S
C832 C831 1.363 . S
C832 C838 1.428 . S
H833 C829 0.930 . S
H834 C831 0.929 . S
S835 N836 1.613 1_655 S
S835 N837 1.610 . S
N836 S835 1.613 1_455 S
N836 C839 1.350 1_455 S
N837 S835 1.610 . S
N837 C838 1.351 . S
C838 C832 1.428 . S
C838 N837 1.351 . S
C838 C839 1.434 . S
C839 C830 1.429 . S
C839 N836 1.350 1_655 S
C839 C838 1.434 . S
C840 C841 1.369 . S
C840 C842 1.419 . S
C840 H844 0.930 . S
C841 C840 1.369 . S
C841 C850 1.429 . S
C842 C840 1.419 . S
C842 C843 1.363 . S
C842 H845 0.929 . S
C843 C842 1.363 . S
C843 C849 1.428 . S
H844 C840 0.930 . S
H845 C842 0.929 . S
S846 N847 1.613 . S
S846 N848 1.610 . S
N847 S846 1.613 . S
N847 C850 1.350 . S
N848 S846 1.610 . S
N848 C849 1.351 . S
C849 C843 1.428 . S
C849 N848 1.351 . S
C849 C850 1.434 . S
C850 C841 1.429 . S
C850 N847 1.350 . S
C850 C849 1.434 . S
C851 C852 1.369 . S
C851 C853 1.419 . S
C851 H855 0.930 . S
C852 C851 1.369 . S
C852 C861 1.429 . S
C853 C851 1.419 . S
C853 C854 1.363 . S
C853 H856 0.929 . S
C854 C853 1.363 . S
C854 C860 1.428 . S
H855 C851 0.930 . S
H856 C853 0.929 . S
S857 N858 1.613 . S
S857 N859 1.610 . S
N858 S857 1.613 . S
N858 C861 1.350 . S
N859 S857 1.610 . S
N859 C860 1.351 . S
C860 C854 1.428 . S
C860 N859 1.351 . S
C860 C861 1.434 . S
C861 C852 1.429 . S
C861 N858 1.350 . S
C861 C860 1.434 . S
C862 C863 1.369 . S
C862 C864 1.419 . S
C862 H866 0.930 . S
C863 C862 1.369 . S
C863 C872 1.429 . S
C864 C862 1.419 . S
C864 C865 1.363 . S
C864 H867 0.929 . S
C865 C864 1.363 . S
C865 C871 1.428 . S
H866 C862 0.930 . S
H867 C864 0.929 . S
S868 N869 1.613 . S
S868 N870 1.610 . S
N869 S868 1.613 . S
N869 C872 1.350 . S
N870 S868 1.610 . S
N870 C871 1.351 . S
C871 C865 1.428 . S
C871 N870 1.351 . S
C871 C872 1.434 . S
C872 C863 1.429 . S
C872 N869 1.350 . S
C872 C871 1.434 . S
C873 C874 1.369 . S
C873 C875 1.419 . S
C873 H877 0.930 . S
C874 C873 1.369 . S
C874 C883 1.429 . S
C875 C873 1.419 . S
C875 C876 1.363 . S
C875 H878 0.929 . S
C876 C875 1.363 . S
C876 C882 1.428 . S
H877 C873 0.930 . S
H878 C875 0.929 . S
S879 N880 1.613 . S
S879 N881 1.610 . S
N880 S879 1.613 . S
N880 C883 1.350 . S
N881 S879 1.610 . S
N881 C882 1.351 . S
C882 C876 1.428 . S
C882 N881 1.351 . S
C882 C883 1.434 . S
C883 C874 1.429 . S
C883 N880 1.350 . S
C883 C882 1.434 . S
C884 C885 1.369 . S
C884 C886 1.419 . S
C884 H888 0.930 . S
C885 C884 1.369 . S
C885 C894 1.429 . S
C886 C884 1.419 . S
C886 C887 1.363 . S
C886 H889 0.929 . S
C887 C886 1.363 . S
C887 C893 1.428 . S
H888 C884 0.930 . S
H889 C886 0.929 . S
S890 N891 1.613 . S
S890 N892 1.610 . S
N891 S890 1.613 . S
N891 C894 1.350 . S
N892 S890 1.610 . S
N892 C893 1.351 . S
C893 C887 1.428 . S
C893 N892 1.351 . S
C893 C894 1.434 . S
C894 C885 1.429 . S
C894 N891 1.350 . S
C894 C893 1.434 . S
C895 C896 1.369 . S
C895 C897 1.419 . S
C895 H899 0.930 . S
C896 C895 1.369 . S
C896 C905 1.429 . S
C897 C895 1.419 . S
C897 C898 1.363 . S
C897 H900 0.929 . S
C898 C897 1.363 . S
C898 C904 1.428 . S
H899 C895 0.930 . S
H900 C897 0.929 . S
S901 N902 1.613 . S
S901 N903 1.610 . S
N902 S901 1.613 . S
N902 C905 1.350 . S
N903 S901 1.610 . S
N903 C904 1.351 . S
C904 C898 1.428 . S
C904 N903 1.351 . S
C904 C905 1.434 . S
C905 C896 1.429 . S
C905 N902 1.350 . S
C905 C904 1.434 . S
C906 C907 1.369 . S
C906 C908 1.419 1_455 S
C906 H910 0.930 . S
C907 C906 1.369 . S
C907 C916 1.429 1_554 S
C908 C906 1.419 1_655 S
C908 C909 1.363 1_554 S
C908 H911 0.929 . S
C909 C908 1.363 1_556 S
C909 C915 1.414 1_655 S
H910 C906 0.930 . S
H911 C908 0.929 . S
S912 N913 1.613 . S
S912 N914 1.610 . S
N913 S912 1.613 . S
N913 C916 1.350 . S
N914 S912 1.610 . S
N914 C915 1.355 . S
C915 C909 1.414 1_455 S
C915 N914 1.355 . S
C915 C916 1.447 . S
C916 C907 1.429 1_556 S
C916 N913 1.350 . S
C916 C915 1.447 . S
C917 C918 1.369 . S
C917 C919 1.419 . S
C917 H921 0.930 . S
C918 C917 1.369 . S
C918 C927 1.429 1_554 S
C919 C917 1.419 . S
C919 C920 1.363 1_554 S
C919 H922 0.929 . S
C920 C919 1.363 1_556 S
C920 C926 1.428 . S
H921 C917 0.930 . S
H922 C919 0.929 . S
S923 N924 1.613 . S
S923 N925 1.610 . S
N924 S923 1.613 . S
N924 C927 1.350 . S
N925 S923 1.610 . S
N925 C926 1.351 . S
C926 C920 1.428 . S
C926 N925 1.351 . S
C926 C927 1.434 . S
C927 C918 1.429 1_556 S
C927 N924 1.350 . S
C927 C926 1.434 . S
C928 C929 1.369 . S
C928 C930 1.419 1_554 S
C928 H932 0.930 . S
C929 C928 1.369 . S
C929 C938 1.429 1_565 S
C930 C928 1.419 1_556 S
C930 C931 1.363 1_565 S
C930 H933 0.929 . S
C931 C930 1.363 1_545 S
C931 C937 1.428 . S
H932 C928 0.930 . S
H933 C930 0.929 . S
S934 N935 1.613 . S
S934 N936 1.610 1_554 S
N935 S934 1.613 . S
N935 C938 1.350 . S
N936 S934 1.610 1_556 S
N936 C937 1.351 . S
C937 C931 1.428 . S
C937 N936 1.351 . S
C937 C938 1.434 1_556 S
C938 C929 1.429 1_545 S
C938 N935 1.350 . S
C938 C937 1.434 1_554 S
C939 C940 1.369 1_545 S
C939 C941 1.419 . S
C939 H943 0.930 . S
C940 C939 1.369 1_565 S
C940 C949 1.429 . S
C941 C939 1.419 . S
C941 C942 1.363 . S
C941 H944 0.929 . S
C942 C941 1.363 . S
C942 C948 1.428 1_545 S
H943 C939 0.930 . S
H944 C941 0.929 . S
S945 N946 1.613 . S
S945 N947 1.610 . S
N946 S945 1.613 . S
N946 C949 1.350 . S
N947 S945 1.610 . S
N947 C948 1.351 . S
C948 C942 1.428 1_565 S
C948 N947 1.351 . S
C948 C949 1.434 . S
C949 C940 1.429 . S
C949 N946 1.350 . S
C949 C948 1.434 . S
C950 C951 1.369 . S
C950 C952 1.419 1_655 S
C950 H954 0.930 . S
C951 C950 1.369 . S
C951 C960 1.429 . S
C952 C950 1.419 1_455 S
C952 C953 1.363 . S
C952 H955 0.929 . S
C953 C952 1.363 . S
C953 C959 1.428 . S
H954 C950 0.930 . S
H955 C952 0.929 . S
S956 N957 1.613 1_455 S
S956 N958 1.610 . S
N957 S956 1.613 1_655 S
N957 C960 1.350 . S
N958 S956 1.610 . S
N958 C959 1.351 . S
C959 C953 1.428 . S
C959 N958 1.351 . S
C959 C960 1.434 1_455 S
C960 C951 1.429 . S
C960 N957 1.350 . S
C960 C959 1.434 1_655 S
C961 C962 1.369 . S
C961 C963 1.419 . S
C961 H965 0.930 . S
C962 C961 1.369 . S
C962 C971 1.429 . S
C963 C961 1.419 . S
C963 C964 1.363 . S
C963 H966 0.929 . S
C964 C963 1.363 . S
C964 C970 1.428 . S
H965 C961 0.930 . S
H966 C963 0.929 . S
S967 N968 1.613 . S
S967 N969 1.610 . S
N968 S967 1.613 . S
N968 C971 1.350 . S
N969 S967 1.610 . S
N969 C970 1.351 . S
C970 C964 1.428 . S
C970 N969 1.351 . S
C970 C971 1.434 . S
C971 C962 1.429 . S
C971 N968 1.350 . S
C971 C970 1.434 . S
C709 C3 1.061 . S
C711 C465 1.053 . S
C720 C62 1.061 . S
C722 C524 1.052 1_565 S
C731 C121 1.057 . S
C733 C406 1.055 1_455 S
C742 C701 1.054 . S
C744 C180 1.058 . S
C753 C239 1.056 . S
C755 C583 1.058 1_565 S
C764 C642 1.057 1_455 S
C766 C298 1.056 . S
C775 C111 1.057 . S
C777 C357 1.056 . S
C786 C416 1.059 . S
C788 C170 1.053 1_545 S
C797 C52 1.053 1_655 S
C799 C475 1.062 . S
C808 C534 1.058 . S
C810 C347 1.054 . S
C819 C593 1.060 . S
C821 C229 1.057 1_545 S
C830 C288 1.060 1_655 S
C832 C652 1.057 . S
C841 C300 1.682 . S
C843 C5 1.686 . S
C852 C64 1.683 . S
C854 C182 1.686 . S
C863 C123 1.686 . S
C865 C241 1.684 . S
C874 C359 1.686 . S
C876 C654 1.684 . S
C885 C418 1.682 . S
C887 C536 1.685 . S
C896 C477 1.684 . S
C898 C595 1.682 . S
C907 C33 1.824 . S
C909 C387 1.827 . S
C918 C92 1.830 . S
C920 C446 1.822 . S
C929 C151 1.821 . S
C931 C505 1.829 . S
C940 C210 1.831 . S
C942 C564 1.822 . S
C951 C623 1.830 . S
C953 C269 1.822 . S
C962 C328 1.824 . S
C964 C682 1.827 . S
