# Generated by pormake.
# Topology lta, (4)-cn, num edge types: 1
# Building blocks:
#     Node 0, Type 0, BuildingBlock: KUFVIS_clean_sbu_0, # of connection points: 4
#     Node 1, Type 0, BuildingBlock: KUFVIS_clean_sbu_0, # of connection points: 4
#     Node 2, Type 0, BuildingBlock: KUFVIS_clean_sbu_0, # of connection points: 4
#     Node 3, Type 0, BuildingBlock: KUFVIS_clean_sbu_0, # of connection points: 4
#     Node 4, Type 0, BuildingBlock: KUFVIS_clean_sbu_0, # of connection points: 4
#     Node 5, Type 0, BuildingBlock: KUFVIS_clean_sbu_0, # of connection points: 4
#     Node 6, Type 0, BuildingBlock: KUFVIS_clean_sbu_0, # of connection points: 4
#     Node 7, Type 0, BuildingBlock: KUFVIS_clean_sbu_0, # of connection points: 4
#     Node 8, Type 0, BuildingBlock: KUFVIS_clean_sbu_0, # of connection points: 4
#     Node 9, Type 0, BuildingBlock: KUFVIS_clean_sbu_0, # of connection points: 4
#     Node 10, Type 0, BuildingBlock: KUFVIS_clean_sbu_0, # of connection points: 4
#     Node 11, Type 0, BuildingBlock: KUFVIS_clean_sbu_0, # of connection points: 4
#     Node 12, Type 0, BuildingBlock: KUFVIS_clean_sbu_0, # of connection points: 4
#     Node 13, Type 0, BuildingBlock: KUFVIS_clean_sbu_0, # of connection points: 4
#     Node 14, Type 0, BuildingBlock: KUFVIS_clean_sbu_0, # of connection points: 4
#     Node 15, Type 0, BuildingBlock: KUFVIS_clean_sbu_0, # of connection points: 4
#     Node 16, Type 0, BuildingBlock: KUFVIS_clean_sbu_0, # of connection points: 4
#     Node 17, Type 0, BuildingBlock: KUFVIS_clean_sbu_0, # of connection points: 4
#     Node 18, Type 0, BuildingBlock: KUFVIS_clean_sbu_0, # of connection points: 4
#     Node 19, Type 0, BuildingBlock: KUFVIS_clean_sbu_0, # of connection points: 4
#     Node 20, Type 0, BuildingBlock: KUFVIS_clean_sbu_0, # of connection points: 4
#     Node 21, Type 0, BuildingBlock: KUFVIS_clean_sbu_0, # of connection points: 4
#     Node 22, Type 0, BuildingBlock: KUFVIS_clean_sbu_0, # of connection points: 4
#     Node 23, Type 0, BuildingBlock: KUFVIS_clean_sbu_0, # of connection points: 4
#     Edge 24, Type (0, 0), BuildingBlock: TEMPAE_clean_linker_10, # of connection points: 2
#     Edge 25, Type (0, 0), BuildingBlock: TEMPAE_clean_linker_10, # of connection points: 2
#     Edge 26, Type (0, 0), BuildingBlock: TEMPAE_clean_linker_10, # of connection points: 2
#     Edge 27, Type (0, 0), BuildingBlock: TEMPAE_clean_linker_10, # of connection points: 2
#     Edge 28, Type (0, 0), BuildingBlock: TEMPAE_clean_linker_10, # of connection points: 2
#     Edge 29, Type (0, 0), BuildingBlock: TEMPAE_clean_linker_10, # of connection points: 2
#     Edge 30, Type (0, 0), BuildingBlock: TEMPAE_clean_linker_10, # of connection points: 2
#     Edge 31, Type (0, 0), BuildingBlock: TEMPAE_clean_linker_10, # of connection points: 2
#     Edge 32, Type (0, 0), BuildingBlock: TEMPAE_clean_linker_10, # of connection points: 2
#     Edge 33, Type (0, 0), BuildingBlock: TEMPAE_clean_linker_10, # of connection points: 2
#     Edge 34, Type (0, 0), BuildingBlock: TEMPAE_clean_linker_10, # of connection points: 2
#     Edge 35, Type (0, 0), BuildingBlock: TEMPAE_clean_linker_10, # of connection points: 2
#     Edge 36, Type (0, 0), BuildingBlock: TEMPAE_clean_linker_10, # of connection points: 2
#     Edge 37, Type (0, 0), BuildingBlock: TEMPAE_clean_linker_10, # of connection points: 2
#     Edge 38, Type (0, 0), BuildingBlock: TEMPAE_clean_linker_10, # of connection points: 2
#     Edge 39, Type (0, 0), BuildingBlock: TEMPAE_clean_linker_10, # of connection points: 2
#     Edge 40, Type (0, 0), BuildingBlock: TEMPAE_clean_linker_10, # of connection points: 2
#     Edge 41, Type (0, 0), BuildingBlock: TEMPAE_clean_linker_10, # of connection points: 2
#     Edge 42, Type (0, 0), BuildingBlock: TEMPAE_clean_linker_10, # of connection points: 2
#     Edge 43, Type (0, 0), BuildingBlock: TEMPAE_clean_linker_10, # of connection points: 2
#     Edge 44, Type (0, 0), BuildingBlock: TEMPAE_clean_linker_10, # of connection points: 2
#     Edge 45, Type (0, 0), BuildingBlock: TEMPAE_clean_linker_10, # of connection points: 2
#     Edge 46, Type (0, 0), BuildingBlock: TEMPAE_clean_linker_10, # of connection points: 2
#     Edge 47, Type (0, 0), BuildingBlock: TEMPAE_clean_linker_10, # of connection points: 2
#     Edge 48, Type (0, 0), BuildingBlock: TEMPAE_clean_linker_10, # of connection points: 2
#     Edge 49, Type (0, 0), BuildingBlock: TEMPAE_clean_linker_10, # of connection points: 2
#     Edge 50, Type (0, 0), BuildingBlock: TEMPAE_clean_linker_10, # of connection points: 2
#     Edge 51, Type (0, 0), BuildingBlock: TEMPAE_clean_linker_10, # of connection points: 2
#     Edge 52, Type (0, 0), BuildingBlock: TEMPAE_clean_linker_10, # of connection points: 2
#     Edge 53, Type (0, 0), BuildingBlock: TEMPAE_clean_linker_10, # of connection points: 2
#     Edge 54, Type (0, 0), BuildingBlock: TEMPAE_clean_linker_10, # of connection points: 2
#     Edge 55, Type (0, 0), BuildingBlock: TEMPAE_clean_linker_10, # of connection points: 2
#     Edge 56, Type (0, 0), BuildingBlock: TEMPAE_clean_linker_10, # of connection points: 2
#     Edge 57, Type (0, 0), BuildingBlock: TEMPAE_clean_linker_10, # of connection points: 2
#     Edge 58, Type (0, 0), BuildingBlock: TEMPAE_clean_linker_10, # of connection points: 2
#     Edge 59, Type (0, 0), BuildingBlock: TEMPAE_clean_linker_10, # of connection points: 2
#     Edge 60, Type (0, 0), BuildingBlock: TEMPAE_clean_linker_10, # of connection points: 2
#     Edge 61, Type (0, 0), BuildingBlock: TEMPAE_clean_linker_10, # of connection points: 2
#     Edge 62, Type (0, 0), BuildingBlock: TEMPAE_clean_linker_10, # of connection points: 2
#     Edge 63, Type (0, 0), BuildingBlock: TEMPAE_clean_linker_10, # of connection points: 2
#     Edge 64, Type (0, 0), BuildingBlock: TEMPAE_clean_linker_10, # of connection points: 2
#     Edge 65, Type (0, 0), BuildingBlock: TEMPAE_clean_linker_10, # of connection points: 2
#     Edge 66, Type (0, 0), BuildingBlock: TEMPAE_clean_linker_10, # of connection points: 2
#     Edge 67, Type (0, 0), BuildingBlock: TEMPAE_clean_linker_10, # of connection points: 2
#     Edge 68, Type (0, 0), BuildingBlock: TEMPAE_clean_linker_10, # of connection points: 2
#     Edge 69, Type (0, 0), BuildingBlock: TEMPAE_clean_linker_10, # of connection points: 2
#     Edge 70, Type (0, 0), BuildingBlock: TEMPAE_clean_linker_10, # of connection points: 2
#     Edge 71, Type (0, 0), BuildingBlock: TEMPAE_clean_linker_10, # of connection points: 2
# Relax obj value: 0.252
# Max RMSD: 0.133
# Mean RMSD: 0.133
data_MOF--net-lta--node1-KUFVIS_clean_sbu_0--edge1-TEMPAE_clean_linker_10
_symmetry_space_group_name_H-M    P1
_symmetry_Int_Tables_number       1
_symmetry_cell_setting            triclinic
loop_
_symmetry_equiv_pos_as_xyz
'x, y, z'
_cell_length_a     57.14302
_cell_length_b     57.109555
_cell_length_c     57.13843
_cell_angle_alpha  89.983944
_cell_angle_beta   90.003859
_cell_angle_gamma 89.996126
loop_
_atom_site_label
_atom_site_type_symbol
_atom_site_fract_x
_atom_site_fract_y
_atom_site_fract_z
_atom_type_partial_charge
Mn0 Mn 0.12735 0.32419 0.50961 0.0
Mn1 Mn 0.17874 0.35294 0.51375 0.0
C2 C 0.14034 0.33766 0.54559 0.0
C3 C 0.08694 0.32382 0.50433 0.0
C4 C 0.17553 0.30037 0.50938 0.0
O5 O 0.13288 0.33429 0.476 0.0
O6 O 0.168 0.35152 0.48067 0.0
C7 C 0.16246 0.40007 0.49921 0.0
N8 N 0.17324 0.38595 0.51514 0.0
C9 C 0.18429 0.41909 0.5387 0.0
C10 C 0.17328 0.43397 0.52257 0.0
C11 C 0.16224 0.4244 0.50279 0.0
C12 C 0.18372 0.39497 0.53433 0.0
H13 H 0.15422 0.39285 0.48382 0.0
C14 C 0.15074 0.34496 0.46794 0.0
O15 O 0.0995 0.30533 0.50016 0.0
O16 O 0.09788 0.34254 0.51099 0.0
N17 N 0.19127 0.35627 0.54459 0.0
C18 C 0.19972 0.33942 0.55919 0.0
C19 C 0.21129 0.34602 0.57982 0.0
C20 C 0.21411 0.36985 0.58516 0.0
C21 C 0.20463 0.38688 0.57023 0.0
C22 C 0.19342 0.37924 0.54985 0.0
H23 H 0.19772 0.32112 0.55504 0.0
O24 O 0.12594 0.32013 0.54429 0.0
O25 O 0.14719 0.34649 0.52573 0.0
O26 O 0.15336 0.29934 0.50688 0.0
O27 O 0.18665 0.31942 0.51283 0.0
C28 C 0.20592 0.41112 0.57472 0.0
C29 C 0.19565 0.4272 0.55903 0.0
H30 H 0.17315 0.45275 0.52524 0.0
H31 H 0.15375 0.43577 0.49023 0.0
H32 H 0.21824 0.33278 0.59145 0.0
H33 H 0.22347 0.37483 0.60086 0.0
H34 H 0.21459 0.41759 0.59028 0.0
H35 H 0.19648 0.44576 0.56283 0.0
Mn36 Mn 0.67975 0.12443 0.50262 0.0
Mn37 Mn 0.64925 0.17496 0.49886 0.0
C38 C 0.66146 0.13954 0.53558 0.0
C39 C 0.68182 0.08379 0.49987 0.0
C40 C 0.7021 0.17317 0.50023 0.0
O41 O 0.67409 0.12745 0.4675 0.0
O42 O 0.65388 0.1613 0.46739 0.0
C43 C 0.60392 0.15665 0.48165 0.0
N44 N 0.61641 0.16874 0.49798 0.0
C45 C 0.58122 0.18107 0.5175 0.0
C46 C 0.56797 0.1687 0.50094 0.0
C47 C 0.57938 0.15638 0.48298 0.0
C48 C 0.60561 0.18056 0.51538 0.0
H49 H 0.6126 0.14748 0.46758 0.0
C50 C 0.6632 0.14383 0.45693 0.0
O51 O 0.70036 0.09671 0.49747 0.0
O52 O 0.66212 0.09445 0.5035 0.0
N53 N 0.64315 0.19011 0.52803 0.0
C54 C 0.65854 0.20047 0.54298 0.0
C55 C 0.64998 0.21325 0.56214 0.0
C56 C 0.62573 0.21554 0.56548 0.0
C57 C 0.61022 0.20454 0.54995 0.0
C58 C 0.61978 0.19191 0.53128 0.0
H59 H 0.67719 0.19915 0.54015 0.0
O60 O 0.67915 0.12541 0.53754 0.0
O61 O 0.65514 0.14472 0.51429 0.0
O62 O 0.70411 0.15097 0.50164 0.0
O63 O 0.68248 0.18376 0.49951 0.0
C64 C 0.58568 0.20572 0.55215 0.0
C65 C 0.57119 0.19389 0.53602 0.0
H66 H 0.54903 0.16857 0.50183 0.0
H67 H 0.56928 0.14692 0.47004 0.0
H68 H 0.66204 0.2216 0.57413 0.0
H69 H 0.61922 0.22575 0.58006 0.0
H70 H 0.57772 0.21565 0.56619 0.0
H71 H 0.55236 0.19473 0.53806 0.0
Mn72 Mn 0.873 0.67232 0.5084 0.0
Mn73 Mn 0.82163 0.64344 0.51195 0.0
C74 C 0.85873 0.66024 0.54467 0.0
C75 C 0.91359 0.67219 0.50396 0.0
C76 C 0.82538 0.69559 0.5025 0.0
O77 O 0.86795 0.66076 0.47469 0.0
O78 O 0.83538 0.63931 0.48057 0.0
C79 C 0.83803 0.59443 0.50728 0.0
N80 N 0.82612 0.61114 0.51942 0.0
C81 C 0.81187 0.58263 0.54695 0.0
C82 C 0.82355 0.56503 0.53445 0.0
C83 C 0.83692 0.571 0.5147 0.0
C84 C 0.81373 0.60568 0.5388 0.0
H85 H 0.84828 0.59895 0.49209 0.0
C86 C 0.85224 0.64643 0.46764 0.0
O87 O 0.90122 0.69058 0.49891 0.0
O88 O 0.90236 0.65375 0.511 0.0
N89 N 0.80673 0.64571 0.54181 0.0
C90 C 0.79782 0.66497 0.55267 0.0
C91 C 0.78501 0.66222 0.57346 0.0
C92 C 0.78119 0.63971 0.58262 0.0
C93 C 0.79065 0.62015 0.57116 0.0
C94 C 0.8035 0.62401 0.55069 0.0
H95 H 0.80031 0.68225 0.54541 0.0
O96 O 0.87364 0.67734 0.54324 0.0
O97 O 0.85241 0.65112 0.52485 0.0
O98 O 0.8475 0.69733 0.50461 0.0
O99 O 0.81432 0.6763 0.50428 0.0
C100 C 0.78787 0.59699 0.57926 0.0
C101 C 0.79862 0.57827 0.56727 0.0
H102 H 0.82261 0.54693 0.54002 0.0
H103 H 0.84623 0.55756 0.50513 0.0
H104 H 0.77785 0.6774 0.58226 0.0
H105 H 0.77113 0.63765 0.59855 0.0
H106 H 0.77761 0.59339 0.59477 0.0
H107 H 0.79673 0.5606 0.57393 0.0
Mn108 Mn 0.32078 0.87352 0.50504 0.0
Mn109 Mn 0.35064 0.82297 0.49809 0.0
C110 C 0.341 0.85748 0.5364 0.0
C111 C 0.31919 0.91415 0.50281 0.0
C112 C 0.29787 0.8252 0.50262 0.0
O113 O 0.32367 0.87097 0.46949 0.0
O114 O 0.34499 0.83785 0.46737 0.0
C115 C 0.39543 0.84183 0.48013 0.0
N116 N 0.38347 0.82891 0.49622 0.0
C117 C 0.41924 0.81596 0.51422 0.0
C118 C 0.43197 0.82909 0.49784 0.0
C119 C 0.42 0.84219 0.4808 0.0
C120 C 0.39479 0.81645 0.51282 0.0
H121 H 0.3863 0.85167 0.46683 0.0
C122 C 0.33463 0.85532 0.45792 0.0
O123 O 0.30024 0.90161 0.50243 0.0
O124 O 0.33899 0.90317 0.50431 0.0
N125 N 0.35766 0.80672 0.52647 0.0
C126 C 0.34274 0.79608 0.54171 0.0
C127 C 0.35189 0.78281 0.56027 0.0
C128 C 0.37623 0.7803 0.56269 0.0
C129 C 0.39124 0.79149 0.54683 0.0
C130 C 0.38112 0.80464 0.52882 0.0
H131 H 0.32401 0.79763 0.53961 0.0
O132 O 0.32394 0.87209 0.53979 0.0
O133 O 0.34585 0.85272 0.51464 0.0
O134 O 0.29613 0.84726 0.50565 0.0
O135 O 0.31728 0.81459 0.49968 0.0
C136 C 0.41584 0.7901 0.54811 0.0
C137 C 0.42983 0.80246 0.53194 0.0
H138 H 0.45092 0.82931 0.49823 0.0
H139 H 0.42969 0.85236 0.4681 0.0
H140 H 0.34021 0.77429 0.57251 0.0
H141 H 0.3832 0.7698 0.57686 0.0
H142 H 0.42422 0.77963 0.5615 0.0
H143 H 0.44871 0.80155 0.53335 0.0
Mn144 Mn 0.1307 0.67399 0.4937 0.0
Mn145 Mn 0.18249 0.64565 0.49101 0.0
C146 C 0.14492 0.66094 0.45797 0.0
C147 C 0.09012 0.67359 0.49816 0.0
C148 C 0.17838 0.69814 0.49751 0.0
O149 O 0.13586 0.66379 0.52758 0.0
O150 O 0.16997 0.64442 0.52329 0.0
C151 C 0.16663 0.59727 0.50087 0.0
N152 N 0.17769 0.61283 0.48659 0.0
C153 C 0.18974 0.58208 0.46046 0.0
C154 C 0.1785 0.5657 0.47489 0.0
C155 C 0.16679 0.57335 0.49512 0.0
C156 C 0.18883 0.60569 0.46699 0.0
H157 H 0.15786 0.60304 0.51659 0.0
C158 C 0.15281 0.65168 0.53573 0.0
O159 O 0.10229 0.69228 0.50259 0.0
O160 O 0.10156 0.65507 0.49173 0.0
N161 N 0.19648 0.64522 0.46064 0.0
C162 C 0.20548 0.66338 0.44809 0.0
C163 C 0.21739 0.6588 0.4271 0.0
C164 C 0.22017 0.63559 0.41942 0.0
C165 C 0.21054 0.6172 0.43253 0.0
C166 C 0.19881 0.62285 0.45326 0.0
H167 H 0.20373 0.68121 0.45416 0.0
O168 O 0.12995 0.67802 0.45891 0.0
O169 O 0.1514 0.65231 0.47802 0.0
O170 O 0.1561 0.69931 0.49676 0.0
O171 O 0.18977 0.67904 0.49549 0.0
C172 C 0.21216 0.59348 0.42589 0.0
C173 C 0.20166 0.57595 0.43977 0.0
H174 H 0.17865 0.54724 0.47055 0.0
H175 H 0.15807 0.56083 0.50635 0.0
H176 H 0.22465 0.67308 0.41699 0.0
H177 H 0.22958 0.63212 0.40334 0.0
H178 H 0.22138 0.58851 0.41011 0.0
H179 H 0.20274 0.55782 0.4343 0.0
Mn180 Mn 0.32319 0.13076 0.49489 0.0
Mn181 Mn 0.35217 0.18225 0.49695 0.0
C182 C 0.34219 0.14491 0.46184 0.0
C183 C 0.3214 0.0903 0.49919 0.0
C184 C 0.29955 0.17899 0.49305 0.0
O185 O 0.32764 0.13537 0.52994 0.0
O186 O 0.34608 0.17017 0.52896 0.0
C187 C 0.39667 0.16515 0.51746 0.0
N188 N 0.38501 0.17668 0.50014 0.0
C189 C 0.42116 0.18852 0.48209 0.0
C190 C 0.43355 0.1768 0.49975 0.0
C191 C 0.42124 0.16495 0.51743 0.0
C192 C 0.39668 0.18788 0.48289 0.0
H193 H 0.38731 0.15627 0.53127 0.0
C194 C 0.33745 0.1527 0.54004 0.0
O195 O 0.30265 0.10309 0.49988 0.0
O196 O 0.34125 0.10096 0.49637 0.0
N197 N 0.35987 0.19605 0.46747 0.0
C198 C 0.3453 0.20536 0.45106 0.0
C199 C 0.35482 0.2177 0.43206 0.0
C200 C 0.37916 0.22054 0.4303 0.0
C201 C 0.39385 0.2104 0.44715 0.0
C202 C 0.38335 0.19831 0.46569 0.0
H203 H 0.32658 0.20347 0.45253 0.0
O204 O 0.32493 0.13026 0.45999 0.0
O205 O 0.34784 0.15107 0.48304 0.0
O206 O 0.29832 0.15673 0.49407 0.0
O207 O 0.31882 0.19026 0.49338 0.0
C208 C 0.41846 0.21186 0.44636 0.0
C209 C 0.43211 0.20076 0.4637 0.0
H210 H 0.45251 0.17674 0.49987 0.0
H211 H 0.43069 0.15587 0.53111 0.0
H212 H 0.3434 0.22526 0.41897 0.0
H213 H 0.38639 0.23046 0.41586 0.0
H214 H 0.42711 0.22133 0.4324 0.0
H215 H 0.45102 0.20171 0.46269 0.0
Mn216 Mn 0.87012 0.32375 0.49358 0.0
Mn217 Mn 0.81833 0.35216 0.49437 0.0
C218 C 0.85488 0.33919 0.45923 0.0
C219 C 0.91072 0.32351 0.49696 0.0
C220 C 0.82261 0.29941 0.49748 0.0
O221 O 0.86614 0.33188 0.52818 0.0
O222 O 0.83199 0.35155 0.52617 0.0
C223 C 0.8341 0.39997 0.50673 0.0
N224 N 0.82285 0.3852 0.49176 0.0
C225 C 0.80981 0.41737 0.46792 0.0
C226 C 0.82127 0.43295 0.48305 0.0
C227 C 0.83353 0.42419 0.5025 0.0
C228 C 0.8111 0.39342 0.47296 0.0
H229 H 0.84328 0.39335 0.52187 0.0
C230 C 0.84958 0.34361 0.53756 0.0
O231 O 0.89848 0.30469 0.50049 0.0
O232 O 0.89937 0.34253 0.49193 0.0
N233 N 0.80338 0.3543 0.46453 0.0
C234 C 0.79415 0.33685 0.45117 0.0
C235 C 0.78168 0.3426 0.43079 0.0
C236 C 0.77859 0.36621 0.42457 0.0
C237 C 0.78843 0.38385 0.43852 0.0
C238 C 0.80077 0.37705 0.45854 0.0
H239 H 0.79616 0.31871 0.45613 0.0
O240 O 0.86974 0.322 0.45861 0.0
O241 O 0.84903 0.34648 0.47999 0.0
O242 O 0.84481 0.29832 0.49577 0.0
O243 O 0.81115 0.31855 0.49718 0.0
C244 C 0.78646 0.40791 0.43338 0.0
C245 C 0.79724 0.42465 0.448 0.0
H246 H 0.82081 0.45164 0.47987 0.0
H247 H 0.84236 0.4361 0.5143 0.0
H248 H 0.77425 0.3289 0.42003 0.0
H249 H 0.76878 0.37057 0.40894 0.0
H250 H 0.77673 0.41375 0.41821 0.0
H251 H 0.79583 0.44307 0.44369 0.0
Mn252 Mn 0.67871 0.86687 0.49284 0.0
Mn253 Mn 0.64776 0.81696 0.49953 0.0
C254 C 0.65904 0.85078 0.46118 0.0
C255 C 0.68138 0.90754 0.49412 0.0
C256 C 0.70055 0.81789 0.49609 0.0
O257 O 0.67424 0.86526 0.52821 0.0
O258 O 0.65375 0.83165 0.53034 0.0
C259 C 0.60346 0.83695 0.51758 0.0
N260 N 0.61509 0.82386 0.50139 0.0
C261 C 0.57898 0.81199 0.48332 0.0
C262 C 0.5666 0.82533 0.4998 0.0
C263 C 0.57892 0.83795 0.51694 0.0
C264 C 0.60344 0.81182 0.48472 0.0
H265 H 0.61283 0.84642 0.53099 0.0
C266 C 0.66355 0.84945 0.53979 0.0
O267 O 0.69984 0.89446 0.49627 0.0
O268 O 0.66144 0.89704 0.49149 0.0
N269 N 0.64028 0.80097 0.47113 0.0
C270 C 0.65491 0.78995 0.45587 0.0
C271 C 0.6454 0.77706 0.43723 0.0
C272 C 0.62099 0.77532 0.43474 0.0
C273 C 0.6063 0.7869 0.45063 0.0
C274 C 0.61678 0.79966 0.4687 0.0
H275 H 0.67367 0.79091 0.45802 0.0
O276 O 0.67681 0.86459 0.458 0.0
O277 O 0.65348 0.84652 0.48286 0.0
O278 O 0.70273 0.84002 0.49394 0.0
O279 O 0.68084 0.80757 0.4979 0.0
C280 C 0.58167 0.78624 0.44931 0.0
C281 C 0.56803 0.79891 0.46553 0.0
H282 H 0.54766 0.82604 0.49944 0.0
H283 H 0.56949 0.84824 0.52975 0.0
H284 H 0.65683 0.76825 0.42498 0.0
H285 H 0.61373 0.76512 0.42051 0.0
H286 H 0.57301 0.77608 0.43586 0.0
H287 H 0.54913 0.79853 0.46411 0.0
Mn288 Mn 0.50995 0.12842 0.32282 0.0
Mn289 Mn 0.51441 0.17985 0.35145 0.0
C290 C 0.54603 0.14126 0.33616 0.0
C291 C 0.50463 0.08797 0.32269 0.0
C292 C 0.50952 0.17658 0.29886 0.0
O293 O 0.4764 0.13411 0.33319 0.0
O294 O 0.48132 0.1691 0.35066 0.0
C295 C 0.50065 0.16369 0.39882 0.0
N296 N 0.51638 0.17437 0.38442 0.0
C297 C 0.54088 0.18482 0.41705 0.0
C298 C 0.52494 0.17395 0.43223 0.0
C299 C 0.50479 0.16325 0.42305 0.0
C300 C 0.53592 0.18452 0.39305 0.0
H301 H 0.48499 0.15568 0.39192 0.0
C302 C 0.46851 0.15186 0.34419 0.0
O303 O 0.50038 0.10046 0.30416 0.0
O304 O 0.51133 0.09903 0.34131 0.0
N305 N 0.54538 0.19222 0.35417 0.0
C306 C 0.55969 0.2006 0.33706 0.0
C307 C 0.58079 0.21155 0.34325 0.0
C308 C 0.58684 0.21392 0.36696 0.0
C309 C 0.57204 0.20475 0.38427 0.0
C310 C 0.55123 0.19407 0.37703 0.0
H311 H 0.55498 0.19902 0.31884 0.0
O312 O 0.54463 0.12685 0.31865 0.0
O313 O 0.52622 0.14825 0.34495 0.0
O314 O 0.50727 0.15436 0.29788 0.0
O315 O 0.51286 0.18771 0.31793 0.0
C316 C 0.5771 0.20581 0.40839 0.0
C317 C 0.56159 0.19573 0.42476 0.0
H318 H 0.52806 0.17361 0.45093 0.0
H319 H 0.49238 0.15484 0.43464 0.0
H320 H 0.59226 0.21836 0.3298 0.0
H321 H 0.60297 0.22268 0.37165 0.0
H322 H 0.59292 0.2142 0.41457 0.0
H323 H 0.56586 0.19632 0.44323 0.0
Mn324 Mn 0.87126 0.50435 0.31695 0.0
Mn325 Mn 0.81778 0.50595 0.34169 0.0
C326 C 0.8561 0.53997 0.33015 0.0
C327 C 0.91172 0.50004 0.31959 0.0
C328 C 0.82582 0.49926 0.28977 0.0
O329 O 0.86571 0.47022 0.32639 0.0
O330 O 0.83121 0.47421 0.34515 0.0
C331 C 0.828 0.49743 0.39169 0.0
N332 N 0.81896 0.51141 0.37462 0.0
C333 C 0.79854 0.53491 0.40294 0.0
C334 C 0.80774 0.52087 0.42087 0.0
C335 C 0.82277 0.50222 0.41522 0.0
C336 C 0.80515 0.52987 0.37991 0.0
H337 H 0.8387 0.48246 0.38733 0.0
C338 C 0.84876 0.46199 0.33847 0.0
O339 O 0.90064 0.49591 0.30021 0.0
O340 O 0.89927 0.50609 0.33759 0.0
N341 N 0.80285 0.53581 0.3397 0.0
C342 C 0.7952 0.54741 0.32031 0.0
C343 C 0.7812 0.56746 0.32297 0.0
C344 C 0.77458 0.57486 0.34546 0.0
C345 C 0.7822 0.56226 0.36511 0.0
C346 C 0.79687 0.54299 0.36142 0.0
H347 H 0.79965 0.54134 0.30298 0.0
O348 O 0.87192 0.53921 0.31385 0.0
O349 O 0.84912 0.51964 0.33767 0.0
O350 O 0.84793 0.5017 0.28979 0.0
O351 O 0.81335 0.50008 0.30816 0.0
C352 C 0.77519 0.5676 0.38815 0.0
C353 C 0.783 0.55366 0.407 0.0
H354 H 0.80336 0.52422 0.439 0.0
H355 H 0.82981 0.4912 0.42894 0.0
H356 H 0.77518 0.57692 0.3077 0.0
H357 H 0.76336 0.59002 0.34742 0.0
H358 H 0.76362 0.58223 0.39154 0.0
H359 H 0.77741 0.55787 0.42462 0.0
Mn360 Mn 0.48816 0.87146 0.3256 0.0
Mn361 Mn 0.48173 0.81995 0.35378 0.0
C362 C 0.45147 0.85955 0.33828 0.0
C363 C 0.49448 0.91175 0.3253 0.0
C364 C 0.48786 0.82348 0.3014 0.0
O365 O 0.52139 0.86474 0.33654 0.0
O366 O 0.51513 0.82977 0.35366 0.0
C367 C 0.49502 0.83518 0.40156 0.0
N368 N 0.47928 0.82511 0.38675 0.0
C369 C 0.45412 0.81453 0.41883 0.0
C370 C 0.47008 0.82475 0.43442 0.0
C371 C 0.49055 0.83523 0.42573 0.0
C372 C 0.45941 0.81522 0.39491 0.0
H373 H 0.51095 0.84297 0.39501 0.0
C374 C 0.52858 0.84664 0.34749 0.0
O375 O 0.4988 0.899 0.30699 0.0
O376 O 0.48722 0.90101 0.34393 0.0
N377 N 0.45041 0.80837 0.35578 0.0
C378 C 0.43622 0.80054 0.3383 0.0
C379 C 0.41485 0.78985 0.34398 0.0
C380 C 0.40841 0.78715 0.36755 0.0
C381 C 0.42305 0.79582 0.38523 0.0
C382 C 0.44415 0.80627 0.3785 0.0
H383 H 0.44126 0.80233 0.32019 0.0
O384 O 0.45359 0.87395 0.32082 0.0
O385 O 0.47094 0.85197 0.34738 0.0
O386 O 0.4907 0.84561 0.30067 0.0
O387 O 0.48372 0.81227 0.32025 0.0
C388 C 0.41762 0.79442 0.40926 0.0
C389 C 0.43309 0.80385 0.42604 0.0
H390 H 0.46675 0.82472 0.45308 0.0
H391 H 0.50296 0.84315 0.43766 0.0
H392 H 0.4035 0.78344 0.33024 0.0
H393 H 0.39209 0.77853 0.37184 0.0
H394 H 0.40153 0.78625 0.41505 0.0
H395 H 0.42857 0.80294 0.44443 0.0
Mn396 Mn 0.12878 0.49545 0.32483 0.0
Mn397 Mn 0.1805 0.4976 0.35315 0.0
C398 C 0.14417 0.46201 0.34197 0.0
C399 C 0.08809 0.49819 0.32402 0.0
C400 C 0.17683 0.49554 0.30069 0.0
O401 O 0.13215 0.53026 0.33117 0.0
O402 O 0.16806 0.52959 0.34729 0.0
C403 C 0.16331 0.51759 0.39786 0.0
N404 N 0.1749 0.50041 0.38604 0.0
C405 C 0.1866 0.48194 0.42204 0.0
C406 C 0.17481 0.49944 0.43459 0.0
C407 C 0.16303 0.51728 0.42244 0.0
C408 C 0.1861 0.48306 0.39756 0.0
H409 H 0.15446 0.53152 0.38866 0.0
C410 C 0.14993 0.54052 0.3399 0.0
O411 O 0.10047 0.50109 0.30519 0.0
O412 O 0.09933 0.49416 0.34332 0.0
N413 N 0.19471 0.46822 0.36061 0.0
C414 C 0.20439 0.45216 0.3459 0.0
C415 C 0.21679 0.43313 0.35526 0.0
C416 C 0.21934 0.43098 0.37961 0.0
C417 C 0.20889 0.44751 0.39444 0.0
C418 C 0.19676 0.46611 0.38409 0.0
H419 H 0.20275 0.45395 0.3272 0.0
O420 O 0.12964 0.46049 0.32457 0.0
O421 O 0.14968 0.48311 0.3486 0.0
O422 O 0.15458 0.49723 0.2997 0.0
O423 O 0.18831 0.49437 0.31978 0.0
C424 C 0.21011 0.44635 0.41905 0.0
C425 C 0.19883 0.46344 0.43284 0.0
H426 H 0.17466 0.49933 0.45355 0.0
H427 H 0.15392 0.53086 0.432 0.0
H428 H 0.22463 0.4203 0.34373 0.0
H429 H 0.22932 0.41651 0.38672 0.0
H430 H 0.21956 0.4323 0.42758 0.0
H431 H 0.19963 0.46217 0.45174 0.0
Mn432 Mn 0.5106 0.87174 0.67327 0.0
Mn433 Mn 0.51549 0.81989 0.64532 0.0
C434 C 0.54685 0.85893 0.6601 0.0
C435 C 0.50481 0.91218 0.67322 0.0
C436 C 0.51039 0.82388 0.69784 0.0
O437 O 0.47707 0.86559 0.66292 0.0
O438 O 0.48239 0.83054 0.64568 0.0
C439 C 0.50207 0.8352 0.59758 0.0
N440 N 0.51768 0.82476 0.61228 0.0
C441 C 0.54201 0.81301 0.57998 0.0
C442 C 0.5262 0.82363 0.56449 0.0
C443 C 0.50621 0.83488 0.57335 0.0
C444 C 0.5371 0.81414 0.60396 0.0
H445 H 0.4865 0.84357 0.60425 0.0
C446 C 0.46938 0.8477 0.65197 0.0
O447 O 0.5007 0.89968 0.69175 0.0
O448 O 0.5117 0.90114 0.65463 0.0
N449 N 0.54647 0.80747 0.64304 0.0
C450 C 0.56063 0.79936 0.6604 0.0
C451 C 0.58148 0.78777 0.65454 0.0
C452 C 0.58743 0.78451 0.63092 0.0
C453 C 0.57287 0.79355 0.61335 0.0
C454 C 0.55229 0.80487 0.62025 0.0
H455 H 0.55597 0.80159 0.67856 0.0
O456 O 0.54531 0.87362 0.67738 0.0
O457 O 0.52709 0.8517 0.65139 0.0
O458 O 0.50811 0.8461 0.69852 0.0
O459 O 0.51374 0.81251 0.67893 0.0
C460 C 0.57789 0.79168 0.58926 0.0
C461 C 0.56254 0.80151 0.57259 0.0
H462 H 0.52928 0.82332 0.54578 0.0
H463 H 0.49391 0.8431 0.56151 0.0
H464 H 0.5928 0.78111 0.66819 0.0
H465 H 0.60332 0.77518 0.62651 0.0
H466 H 0.59358 0.78284 0.58334 0.0
H467 H 0.56675 0.80023 0.55416 0.0
Mn468 Mn 0.12919 0.50293 0.68073 0.0
Mn469 Mn 0.17976 0.49819 0.65063 0.0
C470 C 0.14521 0.53558 0.6628 0.0
C471 C 0.08861 0.50139 0.68257 0.0
C472 C 0.17764 0.49946 0.70343 0.0
O473 O 0.13127 0.46781 0.67486 0.0
O474 O 0.16547 0.46697 0.65529 0.0
C475 C 0.16114 0.48125 0.60531 0.0
N476 N 0.17358 0.49734 0.61777 0.0
C477 C 0.18588 0.51685 0.58255 0.0
C478 C 0.17319 0.50051 0.56933 0.0
C479 C 0.16069 0.48268 0.58078 0.0
C480 C 0.18555 0.51462 0.60694 0.0
H481 H 0.15178 0.46731 0.614 0.0
C482 C 0.14759 0.45688 0.66426 0.0
O483 O 0.10132 0.49844 0.70118 0.0
O484 O 0.09944 0.50479 0.66293 0.0
N485 N 0.19542 0.52711 0.64445 0.0
C486 C 0.20591 0.542 0.65982 0.0
C487 C 0.21869 0.56116 0.65123 0.0
C488 C 0.22084 0.56456 0.62697 0.0
C489 C 0.20978 0.54904 0.61149 0.0
C490 C 0.19714 0.53038 0.62108 0.0
H491 H 0.20463 0.53917 0.67847 0.0
O492 O 0.13109 0.5378 0.68047 0.0
O493 O 0.14986 0.51421 0.65635 0.0
O494 O 0.15545 0.50105 0.70519 0.0
O495 O 0.18843 0.49883 0.68391 0.0
C496 C 0.21086 0.55128 0.58694 0.0
C497 C 0.19882 0.53528 0.57249 0.0
H498 H 0.17291 0.50148 0.5504 0.0
H499 H 0.15094 0.46994 0.5707 0.0
H500 H 0.22709 0.57313 0.66326 0.0
H501 H 0.23098 0.57918 0.62042 0.0
H502 H 0.22086 0.56526 0.57896 0.0
H503 H 0.19954 0.53738 0.55366 0.0
Mn504 Mn 0.49152 0.12933 0.6739 0.0
Mn505 Mn 0.49063 0.18083 0.64485 0.0
C506 C 0.45632 0.14424 0.6601 0.0
C507 C 0.49532 0.08865 0.67413 0.0
C508 C 0.49612 0.17724 0.69747 0.0
O509 O 0.5257 0.13357 0.66417 0.0
O510 O 0.52254 0.16735 0.64402 0.0
C511 C 0.50048 0.16419 0.59675 0.0
N512 N 0.48638 0.17582 0.61206 0.0
C513 C 0.46103 0.18851 0.58092 0.0
C514 C 0.47529 0.17669 0.5648 0.0
C515 C 0.49504 0.16438 0.57278 0.0
C516 C 0.46723 0.18753 0.6046 0.0
H517 H 0.51585 0.15497 0.60277 0.0
C518 C 0.53442 0.14998 0.65173 0.0
O519 O 0.49958 0.10102 0.69272 0.0
O520 O 0.4893 0.09993 0.65537 0.0
N521 N 0.46069 0.1957 0.64397 0.0
C522 C 0.44821 0.20523 0.66191 0.0
C523 C 0.42766 0.21777 0.65698 0.0
C524 C 0.42035 0.22062 0.63368 0.0
C525 C 0.43336 0.21045 0.61552 0.0
C526 C 0.45364 0.1981 0.62151 0.0
H527 H 0.45403 0.20342 0.67981 0.0
O528 O 0.45667 0.1294 0.67732 0.0
O529 O 0.47665 0.15014 0.6517 0.0
O530 O 0.49458 0.15501 0.69896 0.0
O531 O 0.49502 0.18842 0.67818 0.0
C532 C 0.42708 0.21214 0.59172 0.0
C533 C 0.44083 0.20108 0.57444 0.0
H534 H 0.47119 0.17687 0.5463 0.0
H535 H 0.50613 0.15523 0.56046 0.0
H536 H 0.41762 0.22545 0.67109 0.0
H537 H 0.40462 0.23053 0.62995 0.0
H538 H 0.41168 0.22186 0.58649 0.0
H539 H 0.43564 0.20225 0.55625 0.0
Mn540 Mn 0.87217 0.49535 0.67904 0.0
Mn541 Mn 0.82148 0.49654 0.64893 0.0
C542 C 0.85789 0.46144 0.66193 0.0
C543 C 0.91264 0.49865 0.68111 0.0
C544 C 0.82343 0.49539 0.70158 0.0
O545 O 0.86857 0.53003 0.67214 0.0
O546 O 0.83348 0.52882 0.65435 0.0
C547 C 0.84007 0.51539 0.6043 0.0
N548 N 0.82805 0.49855 0.61618 0.0
C549 C 0.81747 0.47915 0.58034 0.0
C550 C 0.82971 0.49629 0.56771 0.0
C551 C 0.84116 0.51441 0.57977 0.0
C552 C 0.81721 0.4809 0.60477 0.0
H553 H 0.84866 0.52952 0.61343 0.0
C554 C 0.85117 0.54001 0.6624 0.0
O555 O 0.89967 0.50167 0.69952 0.0
O556 O 0.90211 0.49423 0.66151 0.0
N557 N 0.80772 0.46688 0.64182 0.0
C558 C 0.79783 0.45107 0.65666 0.0
C559 C 0.7856 0.43186 0.64745 0.0
C560 C 0.78357 0.42921 0.62311 0.0
C561 C 0.79446 0.44535 0.60816 0.0
C562 C 0.80625 0.46424 0.61836 0.0
H563 H 0.79916 0.45319 0.67536 0.0
O564 O 0.87183 0.46044 0.67985 0.0
O565 O 0.85226 0.48236 0.65477 0.0
O566 O 0.84562 0.49704 0.70329 0.0
O567 O 0.81262 0.4941 0.68211 0.0
C568 C 0.79401 0.44351 0.58356 0.0
C569 C 0.80564 0.46031 0.56966 0.0
H570 H 0.8305 0.49566 0.54878 0.0
H571 H 0.85068 0.52769 0.57017 0.0
H572 H 0.77751 0.41928 0.65908 0.0
H573 H 0.77367 0.41464 0.61611 0.0
H574 H 0.78497 0.42913 0.57514 0.0
H575 H 0.80548 0.45851 0.55079 0.0
Mn576 Mn 0.32587 0.51074 0.13289 0.0
Mn577 Mn 0.35577 0.5101 0.18383 0.0
C578 C 0.34314 0.54474 0.14673 0.0
C579 C 0.3239 0.50634 0.09258 0.0
C580 C 0.30291 0.51094 0.18138 0.0
O581 O 0.33223 0.476 0.13738 0.0
O582 O 0.35159 0.47778 0.17165 0.0
C583 C 0.40131 0.49249 0.16628 0.0
N584 N 0.38868 0.50911 0.17781 0.0
C585 C 0.42369 0.52977 0.18878 0.0
C586 C 0.43707 0.51289 0.17701 0.0
C587 C 0.42582 0.4942 0.16565 0.0
C588 C 0.39932 0.52722 0.18867 0.0
H589 H 0.39278 0.47793 0.15775 0.0
C590 C 0.34311 0.46636 0.15432 0.0
O591 O 0.30531 0.50465 0.1055 0.0
O592 O 0.34368 0.51023 0.103 0.0
N593 N 0.36168 0.54004 0.19757 0.0
C594 C 0.34618 0.55545 0.20706 0.0
C595 C 0.35458 0.57524 0.21897 0.0
C596 C 0.37879 0.57882 0.22117 0.0
C597 C 0.39443 0.56293 0.21089 0.0
C598 C 0.38503 0.54353 0.19927 0.0
H599 H 0.32757 0.5526 0.20564 0.0
O600 O 0.32561 0.54564 0.13233 0.0
O601 O 0.35009 0.52388 0.15281 0.0
O602 O 0.30138 0.51024 0.15914 0.0
O603 O 0.32237 0.51141 0.19232 0.0
C604 C 0.41895 0.56554 0.21174 0.0
C605 C 0.43356 0.54907 0.20056 0.0
H606 H 0.45599 0.51413 0.17655 0.0
H607 H 0.43602 0.48105 0.15659 0.0
H608 H 0.34242 0.58756 0.22666 0.0
H609 H 0.38517 0.59389 0.23073 0.0
H610 H 0.42677 0.58023 0.2208 0.0
H611 H 0.45236 0.55146 0.20103 0.0
Mn612 Mn 0.32256 0.49861 0.87639 0.0
Mn613 Mn 0.35216 0.50307 0.82544 0.0
C614 C 0.34142 0.46608 0.86121 0.0
C615 C 0.32126 0.50198 0.91684 0.0
C616 C 0.29933 0.50026 0.8283 0.0
O617 O 0.32654 0.53391 0.87275 0.0
O618 O 0.34756 0.53442 0.83941 0.0
C619 C 0.39773 0.5205 0.84291 0.0
N620 N 0.38511 0.50417 0.83094 0.0
C621 C 0.42018 0.48481 0.818 0.0
C622 C 0.43356 0.50138 0.83022 0.0
C623 C 0.42227 0.51926 0.84279 0.0
C624 C 0.39578 0.48686 0.81888 0.0
H625 H 0.38913 0.53448 0.85229 0.0
C626 C 0.33765 0.54469 0.85666 0.0
O627 O 0.30227 0.50272 0.90438 0.0
O628 O 0.34097 0.49955 0.90586 0.0
N629 N 0.35815 0.47403 0.80999 0.0
C630 C 0.34265 0.45902 0.79986 0.0
C631 C 0.35107 0.43993 0.78688 0.0
C632 C 0.37529 0.43671 0.78416 0.0
C633 C 0.39092 0.4523 0.79491 0.0
C634 C 0.3815 0.47092 0.80772 0.0
H635 H 0.32401 0.46173 0.80154 0.0
O636 O 0.32439 0.46381 0.87605 0.0
O637 O 0.34715 0.48749 0.85573 0.0
O638 O 0.29772 0.49803 0.85044 0.0
O639 O 0.31871 0.50221 0.81742 0.0
C640 C 0.41545 0.45019 0.79334 0.0
C641 C 0.43007 0.46634 0.80498 0.0
H642 H 0.4525 0.50055 0.83007 0.0
H643 H 0.43247 0.53219 0.85215 0.0
H644 H 0.33893 0.42789 0.77873 0.0
H645 H 0.38169 0.42218 0.7738 0.0
H646 H 0.42329 0.43616 0.78329 0.0
H647 H 0.44889 0.46436 0.80386 0.0
Mn648 Mn 0.50765 0.32469 0.86834 0.0
Mn649 Mn 0.50842 0.35398 0.81695 0.0
C650 C 0.54267 0.33925 0.85369 0.0
C651 C 0.50352 0.32402 0.90901 0.0
C652 C 0.50361 0.30126 0.82031 0.0
O653 O 0.47337 0.33403 0.86396 0.0
O654 O 0.47653 0.35438 0.8303 0.0
C655 C 0.4978 0.40196 0.83354 0.0
N656 N 0.51219 0.38684 0.82201 0.0
C657 C 0.53701 0.41838 0.80925 0.0
C658 C 0.52247 0.4343 0.82099 0.0
C659 C 0.50284 0.42603 0.83329 0.0
C660 C 0.53122 0.39458 0.81031 0.0
H661 H 0.4825 0.39571 0.84273 0.0
C662 C 0.46464 0.34651 0.84757 0.0
O663 O 0.49965 0.3055 0.89642 0.0
O664 O 0.50941 0.34298 0.89799 0.0
N665 N 0.53841 0.35529 0.80221 0.0
C666 C 0.55114 0.33753 0.79269 0.0
C667 C 0.57157 0.34277 0.78008 0.0
C668 C 0.57848 0.36619 0.77716 0.0
C669 C 0.56521 0.38416 0.78735 0.0
C670 C 0.54509 0.37787 0.79978 0.0
H671 H 0.54561 0.31953 0.79451 0.0
O672 O 0.54261 0.32191 0.86841 0.0
O673 O 0.52223 0.34724 0.84771 0.0
O674 O 0.50508 0.29971 0.84253 0.0
O675 O 0.5045 0.32061 0.80923 0.0
C676 C 0.57109 0.40807 0.78558 0.0
C677 C 0.55709 0.42516 0.79665 0.0
H678 H 0.52626 0.45288 0.82076 0.0
H679 H 0.49151 0.4382 0.84237 0.0
H680 H 0.58181 0.32881 0.7724 0.0
H681 H 0.59412 0.37016 0.76721 0.0
H682 H 0.58635 0.41354 0.7758 0.0
H683 H 0.56198 0.44344 0.79543 0.0
Mn684 Mn 0.6725 0.50829 0.86815 0.0
Mn685 Mn 0.64443 0.50681 0.81629 0.0
C686 C 0.65527 0.5419 0.85334 0.0
C687 C 0.67336 0.50437 0.90863 0.0
C688 C 0.69692 0.50906 0.82031 0.0
O689 O 0.66649 0.47351 0.86403 0.0
O690 O 0.65004 0.47459 0.8283 0.0
C691 C 0.59952 0.48666 0.83276 0.0
N692 N 0.6115 0.50404 0.82162 0.0
C693 C 0.57567 0.52289 0.81003 0.0
C694 C 0.56296 0.50521 0.82138 0.0
C695 C 0.57495 0.48706 0.83286 0.0
C696 C 0.60013 0.52165 0.81066 0.0
H697 H 0.60861 0.47251 0.84137 0.0
C698 C 0.65758 0.46346 0.84625 0.0
O699 O 0.69221 0.50204 0.89618 0.0
O700 O 0.654 0.50868 0.89759 0.0
N701 N 0.63721 0.53644 0.80251 0.0
C702 C 0.65206 0.55264 0.79327 0.0
C703 C 0.64287 0.57198 0.7812 0.0
C704 C 0.61855 0.57429 0.77855 0.0
C705 C 0.60358 0.55761 0.78856 0.0
C706 C 0.61375 0.53872 0.80038 0.0
H707 H 0.67076 0.55076 0.79504 0.0
O708 O 0.67254 0.54323 0.86806 0.0
O709 O 0.64876 0.52087 0.84739 0.0
O710 O 0.69771 0.50737 0.84254 0.0
O711 O 0.67788 0.50999 0.8087 0.0
C712 C 0.57898 0.55892 0.78722 0.0
C713 C 0.56504 0.54167 0.79809 0.0
H714 H 0.544 0.50539 0.8214 0.0
H715 H 0.56528 0.4733 0.8416 0.0
H716 H 0.65451 0.58492 0.77372 0.0
H717 H 0.61157 0.58901 0.76885 0.0
H718 H 0.57057 0.57319 0.778 0.0
H719 H 0.54615 0.54305 0.7972 0.0
Mn720 Mn 0.48901 0.68113 0.87202 0.0
Mn721 Mn 0.48443 0.65188 0.82095 0.0
C722 C 0.453 0.66707 0.85968 0.0
C723 C 0.49474 0.68192 0.91241 0.0
C724 C 0.48839 0.70453 0.82358 0.0
O725 O 0.52264 0.67117 0.86615 0.0
O726 O 0.51763 0.65368 0.8312 0.0
C727 C 0.49968 0.60503 0.83738 0.0
N728 N 0.48343 0.61891 0.82677 0.0
C729 C 0.45992 0.58547 0.81655 0.0
C730 C 0.47639 0.57083 0.82738 0.0
C731 C 0.49631 0.58068 0.83792 0.0
C732 C 0.46411 0.60963 0.81677 0.0
H733 H 0.51517 0.61245 0.84525 0.0
C734 C 0.53053 0.6604 0.84827 0.0
O735 O 0.49862 0.70032 0.89962 0.0
O736 O 0.48813 0.66305 0.9017 0.0
N737 N 0.45342 0.64817 0.80895 0.0
C738 C 0.43855 0.6648 0.80055 0.0
C739 C 0.41771 0.65791 0.78954 0.0
C740 C 0.41246 0.63401 0.78718 0.0
C741 C 0.42772 0.6172 0.79651 0.0
C742 C 0.44828 0.62513 0.8072 0.0
H743 H 0.44265 0.68316 0.80215 0.0
O744 O 0.45428 0.68481 0.87383 0.0
O745 O 0.47287 0.65847 0.85262 0.0
O746 O 0.4912 0.70577 0.84571 0.0
O747 O 0.48494 0.68534 0.81271 0.0
C748 C 0.42341 0.59291 0.79558 0.0
C749 C 0.43943 0.57707 0.80571 0.0
H750 H 0.47388 0.55203 0.82777 0.0
H751 H 0.50913 0.5695 0.84628 0.0
H752 H 0.40584 0.67098 0.78266 0.0
H753 H 0.39656 0.62878 0.77829 0.0
H754 H 0.40775 0.58621 0.78727 0.0
H755 H 0.43575 0.55846 0.80518 0.0
Mn756 Mn 0.67413 0.4885 0.12487 0.0
Mn757 Mn 0.64559 0.48899 0.17657 0.0
C758 C 0.65864 0.45408 0.13974 0.0
C759 C 0.67447 0.49262 0.08441 0.0
C760 C 0.69835 0.49097 0.17261 0.0
O761 O 0.66654 0.52308 0.12919 0.0
O762 O 0.64751 0.52114 0.16365 0.0
C763 C 0.59854 0.50322 0.16008 0.0
N764 N 0.61255 0.48768 0.17154 0.0
C765 C 0.57931 0.46496 0.18385 0.0
C766 C 0.56452 0.48069 0.17216 0.0
C767 C 0.57419 0.49986 0.16016 0.0
C768 C 0.60344 0.46911 0.18301 0.0
H769 H 0.60588 0.51814 0.15107 0.0
C770 C 0.65556 0.53258 0.14614 0.0
O771 O 0.69332 0.49573 0.09671 0.0
O772 O 0.65542 0.48742 0.0956 0.0
N773 N 0.64208 0.45903 0.19108 0.0
C774 C 0.65885 0.4449 0.20044 0.0
C775 C 0.65213 0.42467 0.21268 0.0
C776 C 0.62828 0.41939 0.21544 0.0
C777 C 0.61134 0.4341 0.20548 0.0
C778 C 0.61909 0.45396 0.19341 0.0
H779 H 0.67719 0.44916 0.19871 0.0
O780 O 0.67576 0.45358 0.1248 0.0
O781 O 0.65123 0.47479 0.14573 0.0
O782 O 0.69939 0.49022 0.15034 0.0
O783 O 0.67919 0.49033 0.18406 0.0
C784 C 0.58708 0.42992 0.20712 0.0
C785 C 0.57108 0.44525 0.19619 0.0
H786 H 0.54573 0.47817 0.17223 0.0
H787 H 0.5629 0.51211 0.15113 0.0
H788 H 0.6653 0.41332 0.22022 0.0
H789 H 0.62318 0.40393 0.22516 0.0
H790 H 0.58049 0.41494 0.21667 0.0
H791 H 0.5525 0.44164 0.19727 0.0
Mn792 Mn 0.5101 0.6794 0.12906 0.0
Mn793 Mn 0.51072 0.65043 0.18052 0.0
C794 C 0.54439 0.66241 0.14265 0.0
C795 C 0.50567 0.68076 0.08853 0.0
C796 C 0.51123 0.70308 0.17735 0.0
O797 O 0.47559 0.67225 0.13388 0.0
O798 O 0.47817 0.65523 0.16933 0.0
C799 C 0.4914 0.60505 0.16429 0.0
N800 N 0.50874 0.61745 0.175 0.0
C801 C 0.52862 0.58207 0.18627 0.0
C802 C 0.511 0.56892 0.17534 0.0
C803 C 0.49235 0.58048 0.16423 0.0
C804 C 0.52683 0.60651 0.18559 0.0
H805 H 0.47683 0.6138 0.15602 0.0
C806 C 0.46634 0.66265 0.15178 0.0
O807 O 0.50295 0.69935 0.10131 0.0
O808 O 0.51044 0.66135 0.09931 0.0
N809 N 0.5409 0.64395 0.1934 0.0
C810 C 0.55696 0.65921 0.2022 0.0
C811 C 0.5768 0.65048 0.21376 0.0
C812 C 0.57976 0.6262 0.21638 0.0
C813 C 0.5632 0.61082 0.2068 0.0
C814 C 0.54381 0.62055 0.19544 0.0
H815 H 0.55456 0.67787 0.20051 0.0
O816 O 0.54508 0.68013 0.12842 0.0
O817 O 0.52365 0.65557 0.1491 0.0
O818 O 0.509 0.70424 0.15516 0.0
O819 O 0.51306 0.68384 0.18851 0.0
C820 C 0.56508 0.58625 0.20819 0.0
C821 C 0.5479 0.57188 0.1978 0.0
H822 H 0.51162 0.54996 0.17536 0.0
H823 H 0.47863 0.57046 0.15584 0.0
H824 H 0.58964 0.66244 0.22091 0.0
H825 H 0.59488 0.61958 0.22569 0.0
H826 H 0.57972 0.57818 0.21712 0.0
H827 H 0.54971 0.55302 0.19872 0.0
Mn828 Mn 0.49075 0.32197 0.12625 0.0
Mn829 Mn 0.49249 0.34967 0.1784 0.0
C830 C 0.45717 0.33905 0.14155 0.0
C831 C 0.49415 0.32171 0.0855 0.0
C832 C 0.49059 0.29712 0.17405 0.0
O833 O 0.52554 0.32827 0.13009 0.0
O834 O 0.52454 0.34436 0.166 0.0
C835 C 0.51219 0.39489 0.16212 0.0
N836 N 0.49506 0.3827 0.17341 0.0
C837 C 0.47656 0.41833 0.18615 0.0
C838 C 0.49397 0.43126 0.17465 0.0
C839 C 0.51181 0.41948 0.16251 0.0
C840 C 0.47772 0.39387 0.18496 0.0
H841 H 0.52614 0.38596 0.15304 0.0
C842 C 0.53562 0.33714 0.14791 0.0
O843 O 0.49677 0.30271 0.0977 0.0
O844 O 0.48989 0.34085 0.09695 0.0
N845 N 0.46304 0.35663 0.19263 0.0
C846 C 0.44706 0.34161 0.20197 0.0
C847 C 0.42816 0.35056 0.21484 0.0
C848 C 0.42602 0.37482 0.21815 0.0
C849 C 0.44237 0.39 0.2079 0.0
C850 C 0.46087 0.38005 0.19533 0.0
H851 H 0.44884 0.32295 0.19972 0.0
O852 O 0.45576 0.32186 0.12674 0.0
O853 O 0.47822 0.3455 0.14738 0.0
O854 O 0.49218 0.29641 0.15177 0.0
O855 O 0.48954 0.31612 0.18571 0.0
C856 C 0.44113 0.41458 0.20979 0.0
C857 C 0.4581 0.42874 0.19877 0.0
H858 H 0.49382 0.45023 0.17503 0.0
H859 H 0.52537 0.42933 0.15366 0.0
H860 H 0.41545 0.33877 0.22246 0.0
H861 H 0.4117 0.38159 0.22854 0.0
H862 H 0.42712 0.42281 0.21954 0.0
H863 H 0.45678 0.44762 0.20008 0.0
C864 C 0.15009 0.41894 0.34762 0.0
C865 C 0.14792 0.44144 0.35717 0.0
C866 C 0.15107 0.39906 0.36217 0.0
C867 C 0.14998 0.4019 0.38677 0.0
C868 C 0.14799 0.42466 0.39641 0.0
C869 C 0.1464 0.44404 0.38146 0.0
C870 C 0.15287 0.37507 0.35128 0.0
C871 C 0.14718 0.42859 0.42255 0.0
C872 C 0.12931 0.35864 0.43227 0.0
C873 C 0.15051 0.3533 0.44342 0.0
C874 C 0.12897 0.3726 0.412 0.0
C875 C 0.1503 0.38134 0.40283 0.0
C876 C 0.17175 0.37343 0.41235 0.0
C877 C 0.17159 0.35965 0.43262 0.0
C878 C 0.10569 0.37977 0.40179 0.0
C879 C 0.19506 0.3813 0.40296 0.0
H880 H 0.15066 0.41689 0.32876 0.0
H881 H 0.14345 0.46126 0.38882 0.0
H882 H 0.16877 0.36601 0.35776 0.0
H883 H 0.13758 0.3643 0.35654 0.0
H884 H 0.15359 0.37584 0.33187 0.0
H885 H 0.14652 0.44746 0.42718 0.0
H886 H 0.13155 0.41989 0.43008 0.0
H887 H 0.16284 0.42068 0.43092 0.0
H888 H 0.11291 0.35359 0.44036 0.0
H889 H 0.18809 0.35513 0.44086 0.0
H890 H 0.10635 0.37963 0.38239 0.0
H891 H 0.1015 0.39789 0.40741 0.0
H892 H 0.09133 0.36807 0.4077 0.0
H893 H 0.19411 0.3871 0.38448 0.0
H894 H 0.20817 0.36699 0.40434 0.0
H895 H 0.20139 0.39602 0.41387 0.0
C896 C 0.65445 0.16209 0.41863 0.0
C897 C 0.65796 0.14167 0.43175 0.0
C898 C 0.64136 0.16164 0.39796 0.0
C899 C 0.63149 0.14022 0.39036 0.0
C900 C 0.63847 0.11907 0.40135 0.0
C901 C 0.65153 0.12003 0.42219 0.0
C902 C 0.6366 0.18467 0.386 0.0
C903 C 0.62996 0.09564 0.39265 0.0
C904 C 0.56731 0.14099 0.37396 0.0
C905 C 0.56808 0.14264 0.34956 0.0
C906 C 0.58784 0.14063 0.3873 0.0
C907 C 0.60985 0.14054 0.37585 0.0
C908 C 0.61079 0.14113 0.35109 0.0
C909 C 0.58982 0.14239 0.33819 0.0
C910 C 0.58587 0.14026 0.41369 0.0
C911 C 0.63387 0.14039 0.33831 0.0
H912 H 0.66021 0.17881 0.42558 0.0
H913 H 0.65463 0.1041 0.43204 0.0
H914 H 0.62564 0.18309 0.37012 0.0
H915 H 0.62802 0.19677 0.39852 0.0
H916 H 0.65349 0.19287 0.38099 0.0
H917 H 0.64159 0.08123 0.39861 0.0
H918 H 0.61215 0.09224 0.39958 0.0
H919 H 0.62897 0.09539 0.37325 0.0
H920 H 0.55055 0.13956 0.38269 0.0
H921 H 0.59039 0.14287 0.31924 0.0
H922 H 0.59589 0.15506 0.42131 0.0
H923 H 0.59344 0.12384 0.42075 0.0
H924 H 0.56745 0.14142 0.41977 0.0
H925 H 0.64385 0.15666 0.34188 0.0
H926 H 0.63155 0.13865 0.31909 0.0
H927 H 0.64458 0.12549 0.34474 0.0
C928 C 0.86822 0.64417 0.42618 0.0
C929 C 0.85424 0.63516 0.44429 0.0
C930 C 0.87021 0.63217 0.40462 0.0
C931 C 0.85847 0.6105 0.40152 0.0
C932 C 0.84469 0.60144 0.4199 0.0
C933 C 0.84237 0.61398 0.44065 0.0
C934 C 0.88528 0.64228 0.38546 0.0
C935 C 0.833 0.57791 0.4181 0.0
C936 C 0.84272 0.57917 0.34515 0.0
C937 C 0.8575 0.55973 0.34664 0.0
C938 C 0.84398 0.59717 0.36196 0.0
C939 C 0.86113 0.59606 0.37993 0.0
C940 C 0.87748 0.57744 0.37998 0.0
C941 C 0.8752 0.55935 0.36359 0.0
C942 C 0.82575 0.61626 0.36163 0.0
C943 C 0.89635 0.57564 0.39839 0.0
H944 H 0.87753 0.66049 0.42883 0.0
H945 H 0.83162 0.60658 0.45441 0.0
H946 H 0.90062 0.63075 0.3825 0.0
H947 H 0.87534 0.64302 0.3688 0.0
H948 H 0.89165 0.66013 0.3898 0.0
H949 H 0.82015 0.57495 0.43238 0.0
H950 H 0.82407 0.57637 0.40101 0.0
H951 H 0.84637 0.56386 0.41901 0.0
H952 H 0.82976 0.57996 0.33138 0.0
H953 H 0.88713 0.5446 0.36424 0.0
H954 H 0.83381 0.63355 0.36525 0.0
H955 H 0.81271 0.6128 0.37561 0.0
H956 H 0.81638 0.61705 0.34461 0.0
H957 H 0.90432 0.593 0.40185 0.0
H958 H 0.91038 0.56323 0.39316 0.0
H959 H 0.88857 0.5693 0.41502 0.0
C960 C 0.34554 0.88048 0.42394 0.0
C961 C 0.3389 0.85855 0.43268 0.0
C962 C 0.35846 0.88211 0.40304 0.0
C963 C 0.36514 0.86133 0.39121 0.0
C964 C 0.35489 0.83979 0.39793 0.0
C965 C 0.34188 0.83868 0.41865 0.0
C966 C 0.36723 0.90575 0.39522 0.0
C967 C 0.35916 0.8172 0.385 0.0
C968 C 0.40759 0.85977 0.3396 0.0
C969 C 0.42915 0.85868 0.35129 0.0
C970 C 0.38645 0.86126 0.35221 0.0
C971 C 0.387 0.8612 0.37699 0.0
C972 C 0.40884 0.86038 0.38875 0.0
C973 C 0.42955 0.85983 0.37572 0.0
C974 C 0.3636 0.86287 0.3391 0.0
C975 C 0.41044 0.86003 0.41516 0.0
H976 H 0.34285 0.89602 0.43451 0.0
H977 H 0.33595 0.82178 0.42499 0.0
H978 H 0.38498 0.9088 0.40246 0.0
H979 H 0.36842 0.90667 0.37585 0.0
H980 H 0.35563 0.92003 0.40156 0.0
H981 H 0.34213 0.81002 0.379 0.0
H982 H 0.37072 0.81911 0.36961 0.0
H983 H 0.36676 0.80411 0.39716 0.0
H984 H 0.4073 0.8597 0.32063 0.0
H985 H 0.4462 0.86065 0.38473 0.0
H986 H 0.35286 0.87748 0.3461 0.0
H987 H 0.35348 0.84649 0.34161 0.0
H988 H 0.36628 0.8656 0.32003 0.0
H989 H 0.40308 0.87638 0.42255 0.0
H990 H 0.42874 0.85837 0.42145 0.0
H991 H 0.40005 0.84521 0.42224 0.0
C992 C 0.15169 0.5784 0.65646 0.0
C993 C 0.14903 0.55583 0.64722 0.0
C994 C 0.15229 0.59813 0.6417 0.0
C995 C 0.15047 0.59505 0.61718 0.0
C996 C 0.14795 0.57221 0.60784 0.0
C997 C 0.1466 0.55301 0.62303 0.0
C998 C 0.15458 0.62221 0.65228 0.0
C999 C 0.14646 0.56803 0.58177 0.0
C1000 C 0.13065 0.63816 0.57109 0.0
C1001 C 0.15202 0.6432 0.56017 0.0
C1002 C 0.12998 0.62438 0.59149 0.0
C1003 C 0.15113 0.6154 0.60089 0.0
C1004 C 0.17276 0.62296 0.59152 0.0
C1005 C 0.17292 0.63667 0.57123 0.0
C1006 C 0.10656 0.61783 0.60177 0.0
C1007 C 0.19599 0.61507 0.60121 0.0
H1008 H 0.15288 0.58065 0.67527 0.0
H1009 H 0.14306 0.53578 0.61596 0.0
H1010 H 0.13979 0.63341 0.64649 0.0
H1011 H 0.15485 0.62172 0.67171 0.0
H1012 H 0.17094 0.63062 0.64605 0.0
H1013 H 0.14527 0.54913 0.57736 0.0
H1014 H 0.13085 0.57697 0.57446 0.0
H1015 H 0.16209 0.57551 0.57298 0.0
H1016 H 0.11441 0.64342 0.5628 0.0
H1017 H 0.18956 0.64107 0.56322 0.0
H1018 H 0.10726 0.61811 0.62118 0.0
H1019 H 0.10191 0.59978 0.5963 0.0
H1020 H 0.09247 0.62983 0.59578 0.0
H1021 H 0.19472 0.60754 0.61902 0.0
H1022 H 0.20844 0.63 0.60167 0.0
H1023 H 0.2035 0.60177 0.58927 0.0
C1024 C 0.34856 0.17172 0.57754 0.0
C1025 C 0.34327 0.15117 0.56522 0.0
C1026 C 0.36225 0.17105 0.59787 0.0
C1027 C 0.37081 0.14926 0.60603 0.0
C1028 C 0.3621 0.12831 0.59596 0.0
C1029 C 0.34856 0.12948 0.57544 0.0
C1030 C 0.36841 0.194 0.60934 0.0
C1031 C 0.36906 0.10465 0.6054 0.0
C1032 C 0.43498 0.14519 0.62233 0.0
C1033 C 0.43447 0.14748 0.64669 0.0
C1034 C 0.41442 0.14627 0.60904 0.0
C1035 C 0.39252 0.14843 0.62049 0.0
C1036 C 0.39177 0.14998 0.64523 0.0
C1037 C 0.41283 0.14961 0.65807 0.0
C1038 C 0.41623 0.14502 0.58268 0.0
C1039 C 0.3688 0.15197 0.65804 0.0
H1040 H 0.34362 0.18855 0.57026 0.0
H1041 H 0.34409 0.11344 0.56633 0.0
H1042 H 0.38259 0.19249 0.6224 0.0
H1043 H 0.37341 0.20713 0.59592 0.0
H1044 H 0.35264 0.20088 0.61836 0.0
H1045 H 0.35649 0.09085 0.59994 0.0
H1046 H 0.3866 0.09985 0.59861 0.0
H1047 H 0.37007 0.10498 0.6248 0.0
H1048 H 0.45153 0.14209 0.61362 0.0
H1049 H 0.41238 0.15069 0.677 0.0
H1050 H 0.40739 0.16038 0.5747 0.0
H1051 H 0.40732 0.1291 0.5761 0.0
H1052 H 0.43466 0.14454 0.57654 0.0
H1053 H 0.36076 0.16925 0.65426 0.0
H1054 H 0.37098 0.15026 0.67729 0.0
H1055 H 0.35645 0.13831 0.65186 0.0
C1056 C 0.85685 0.44265 0.62271 0.0
C1057 C 0.85506 0.4405 0.64703 0.0
C1058 C 0.85596 0.42295 0.60814 0.0
C1059 C 0.85458 0.40031 0.61821 0.0
C1060 C 0.85366 0.39792 0.64287 0.0
C1061 C 0.85374 0.4181 0.65701 0.0
C1062 C 0.85656 0.42641 0.58192 0.0
C1063 C 0.8527 0.3741 0.65422 0.0
C1064 C 0.83107 0.35711 0.57438 0.0
C1065 C 0.85151 0.35125 0.56219 0.0
C1066 C 0.83188 0.37111 0.59443 0.0
C1067 C 0.85373 0.37948 0.60254 0.0
C1068 C 0.87461 0.37088 0.59222 0.0
C1069 C 0.87328 0.35692 0.57197 0.0
C1070 C 0.80894 0.3787 0.60491 0.0
C1071 C 0.89834 0.37813 0.60124 0.0
H1072 H 0.85937 0.45981 0.61504 0.0
H1073 H 0.85308 0.41638 0.67589 0.0
H1074 H 0.87227 0.41785 0.57442 0.0
H1075 H 0.84098 0.41809 0.57381 0.0
H1076 H 0.85691 0.4452 0.57693 0.0
H1077 H 0.85356 0.37515 0.67362 0.0
H1078 H 0.83624 0.3651 0.64923 0.0
H1079 H 0.86742 0.36312 0.64788 0.0
H1080 H 0.81417 0.35224 0.56722 0.0
H1081 H 0.8892 0.35217 0.5628 0.0
H1082 H 0.80068 0.39152 0.59291 0.0
H1083 H 0.81079 0.3867 0.62246 0.0
H1084 H 0.79686 0.36352 0.60626 0.0
H1085 H 0.90248 0.39602 0.5949 0.0
H1086 H 0.91232 0.3661 0.59508 0.0
H1087 H 0.89849 0.37856 0.62066 0.0
C1088 C 0.56841 0.858 0.62247 0.0
C1089 C 0.569 0.85713 0.64692 0.0
C1090 C 0.58902 0.85757 0.60926 0.0
C1091 C 0.61098 0.85765 0.62081 0.0
C1092 C 0.61176 0.85799 0.64559 0.0
C1093 C 0.59069 0.8575 0.6584 0.0
C1094 C 0.58717 0.857 0.58286 0.0
C1095 C 0.63477 0.85884 0.65848 0.0
C1096 C 0.65507 0.83323 0.57907 0.0
C1097 C 0.65882 0.85291 0.56494 0.0
C1098 C 0.64215 0.83494 0.5998 0.0
C1099 C 0.63269 0.85688 0.6064 0.0
C1100 C 0.64007 0.87733 0.59441 0.0
C1101 C 0.65293 0.87511 0.57354 0.0
C1102 C 0.63716 0.81262 0.61294 0.0
C1103 C 0.63216 0.90132 0.60208 0.0
H1104 H 0.55172 0.85934 0.6136 0.0
H1105 H 0.59115 0.85764 0.67736 0.0
H1106 H 0.59507 0.87299 0.57523 0.0
H1107 H 0.59694 0.84173 0.57586 0.0
H1108 H 0.56876 0.85597 0.57674 0.0
H1109 H 0.63237 0.86182 0.67754 0.0
H1110 H 0.64425 0.84207 0.65602 0.0
H1111 H 0.64598 0.87297 0.65126 0.0
H1112 H 0.66045 0.81609 0.5729 0.0
H1113 H 0.65624 0.8905 0.56292 0.0
H1114 H 0.62587 0.81509 0.62845 0.0
H1115 H 0.65396 0.80481 0.6188 0.0
H1116 H 0.62892 0.79978 0.60094 0.0
H1117 H 0.61446 0.90491 0.59494 0.0
H1118 H 0.64419 0.91514 0.59556 0.0
H1119 H 0.63113 0.90242 0.62145 0.0
C1120 C 0.38203 0.14745 0.44452 0.0
C1121 C 0.35777 0.14875 0.44157 0.0
C1122 C 0.39723 0.14902 0.42533 0.0
C1123 C 0.38789 0.15075 0.40241 0.0
C1124 C 0.36332 0.15163 0.39925 0.0
C1125 C 0.34853 0.15068 0.41892 0.0
C1126 C 0.42332 0.14846 0.42958 0.0
C1127 C 0.35273 0.15313 0.37512 0.0
C1128 C 0.43339 0.17248 0.35965 0.0
C1129 C 0.4442 0.15145 0.35314 0.0
C1130 C 0.41339 0.17255 0.37383 0.0
C1131 C 0.40417 0.15106 0.38202 0.0
C1132 C 0.41344 0.12974 0.37332 0.0
C1133 C 0.4334 0.13017 0.35893 0.0
C1134 C 0.40389 0.19583 0.38167 0.0
C1135 C 0.40355 0.10641 0.3808 0.0
H1136 H 0.38915 0.14466 0.46187 0.0
H1137 H 0.3297 0.15108 0.4166 0.0
H1138 H 0.4311 0.13286 0.42104 0.0
H1139 H 0.43163 0.16417 0.42172 0.0
H1140 H 0.42772 0.14791 0.44851 0.0
H1141 H 0.3333 0.15368 0.37563 0.0
H1142 H 0.35916 0.16904 0.36601 0.0
H1143 H 0.35827 0.13781 0.36455 0.0
H1144 H 0.44138 0.18903 0.35486 0.0
H1145 H 0.44155 0.11381 0.35382 0.0
H1146 H 0.41454 0.20203 0.39663 0.0
H1147 H 0.38533 0.19482 0.38716 0.0
H1148 H 0.40548 0.20907 0.36751 0.0
H1149 H 0.40914 0.10257 0.39899 0.0
H1150 H 0.40968 0.09194 0.36934 0.0
H1151 H 0.38413 0.10681 0.38058 0.0
C1152 C 0.85402 0.37822 0.44016 0.0
C1153 C 0.85176 0.3539 0.4382 0.0
C1154 C 0.85327 0.39268 0.42038 0.0
C1155 C 0.85148 0.38249 0.39784 0.0
C1156 C 0.84973 0.35784 0.39567 0.0
C1157 C 0.84981 0.3438 0.41594 0.0
C1158 C 0.85445 0.41891 0.42364 0.0
C1159 C 0.84779 0.34639 0.37198 0.0
C1160 C 0.82922 0.42627 0.3537 0.0
C1161 C 0.85 0.43782 0.34767 0.0
C1162 C 0.82944 0.40652 0.36821 0.0
C1163 C 0.85104 0.39807 0.37692 0.0
C1164 C 0.87222 0.4078 0.36835 0.0
C1165 C 0.87148 0.42775 0.3539 0.0
C1166 C 0.80622 0.3958 0.37472 0.0
C1167 C 0.89566 0.39822 0.37581 0.0
H1168 H 0.85688 0.38596 0.45722 0.0
H1169 H 0.84867 0.32492 0.41439 0.0
H1170 H 0.87036 0.426 0.4151 0.0
H1171 H 0.83909 0.42733 0.41522 0.0
H1172 H 0.85486 0.42402 0.44239 0.0
H1173 H 0.83082 0.3512 0.36384 0.0
H1174 H 0.86189 0.35282 0.36027 0.0
H1175 H 0.84885 0.327 0.37309 0.0
H1176 H 0.81254 0.43349 0.34818 0.0
H1177 H 0.88765 0.43637 0.34898 0.0
H1178 H 0.79355 0.40971 0.37955 0.0
H1179 H 0.80742 0.38298 0.38915 0.0
H1180 H 0.79896 0.3867 0.35916 0.0
H1181 H 0.89972 0.40426 0.39381 0.0
H1182 H 0.90994 0.40418 0.36403 0.0
H1183 H 0.89536 0.37878 0.37604 0.0
C1184 C 0.56267 0.82454 0.36342 0.0
C1185 C 0.55296 0.84594 0.35632 0.0
C1186 C 0.5831 0.82374 0.37697 0.0
C1187 C 0.59394 0.84491 0.38389 0.0
C1188 C 0.5857 0.86641 0.37459 0.0
C1189 C 0.56524 0.86669 0.36092 0.0
C1190 C 0.59148 0.80015 0.38526 0.0
C1191 C 0.59741 0.88932 0.3806 0.0
C1192 C 0.61857 0.84996 0.44532 0.0
C1193 C 0.64256 0.84677 0.44166 0.0
C1194 C 0.6026 0.84852 0.42676 0.0
C1195 C 0.61095 0.84503 0.40368 0.0
C1196 C 0.63527 0.84221 0.39977 0.0
C1197 C 0.65081 0.84303 0.41887 0.0
C1198 C 0.57678 0.85109 0.43185 0.0
C1199 C 0.64482 0.8387 0.37541 0.0
H1200 H 0.55361 0.80832 0.35948 0.0
H1201 H 0.55803 0.88332 0.35528 0.0
H1202 H 0.60961 0.80048 0.39207 0.0
H1203 H 0.57959 0.79393 0.39924 0.0
H1204 H 0.59053 0.78721 0.37077 0.0
H1205 H 0.59176 0.90367 0.36874 0.0
H1206 H 0.59287 0.89432 0.39881 0.0
H1207 H 0.61673 0.8876 0.37963 0.0
H1208 H 0.61228 0.85419 0.46269 0.0
H1209 H 0.66947 0.84119 0.41595 0.0
H1210 H 0.56716 0.83562 0.42509 0.0
H1211 H 0.56975 0.86675 0.42277 0.0
H1212 H 0.57313 0.85289 0.45085 0.0
H1213 H 0.63721 0.82264 0.36759 0.0
H1214 H 0.66419 0.83713 0.37525 0.0
H1215 H 0.63965 0.85363 0.3641 0.0
C1216 C 0.1452 0.62326 0.43655 0.0
C1217 C 0.14746 0.64763 0.43599 0.0
C1218 C 0.14565 0.61001 0.41597 0.0
C1219 C 0.14714 0.62151 0.39403 0.0
C1220 C 0.14866 0.64626 0.39325 0.0
C1221 C 0.14893 0.65907 0.41433 0.0
C1222 C 0.14443 0.58362 0.4178 0.0
C1223 C 0.14996 0.65912 0.37025 0.0
C1224 C 0.16918 0.57822 0.35 0.0
C1225 C 0.14853 0.56572 0.34566 0.0
C1226 C 0.16886 0.59884 0.36325 0.0
C1227 C 0.14733 0.60706 0.37234 0.0
C1228 C 0.12617 0.5968 0.36445 0.0
C1229 C 0.12698 0.576 0.35134 0.0
C1230 C 0.19188 0.61067 0.36832 0.0
C1231 C 0.10272 0.60634 0.37192 0.0
H1232 H 0.14261 0.61451 0.45317 0.0
H1233 H 0.14999 0.67801 0.41388 0.0
H1234 H 0.12815 0.57708 0.40953 0.0
H1235 H 0.1594 0.57559 0.40837 0.0
H1236 H 0.14464 0.57745 0.43623 0.0
H1237 H 0.14791 0.67834 0.37248 0.0
H1238 H 0.16716 0.6557 0.36192 0.0
H1239 H 0.13621 0.65268 0.35813 0.0
H1240 H 0.18586 0.57092 0.3446 0.0
H1241 H 0.11084 0.56679 0.3475 0.0
H1242 H 0.19095 0.62313 0.38308 0.0
H1243 H 0.19739 0.62054 0.35252 0.0
H1244 H 0.2057 0.59749 0.37191 0.0
H1245 H 0.09836 0.5997 0.38964 0.0
H1246 H 0.08861 0.60078 0.35975 0.0
H1247 H 0.10309 0.62576 0.37274 0.0
C1248 C 0.38131 0.85467 0.55255 0.0
C1249 C 0.35717 0.85235 0.55588 0.0
C1250 C 0.39695 0.85241 0.57132 0.0
C1251 C 0.38816 0.84898 0.59426 0.0
C1252 C 0.36372 0.84696 0.59781 0.0
C1253 C 0.34849 0.84859 0.57852 0.0
C1254 C 0.42291 0.85414 0.56664 0.0
C1255 C 0.35368 0.84359 0.62199 0.0
C1256 C 0.43489 0.82673 0.63544 0.0
C1257 C 0.44508 0.84778 0.64293 0.0
C1258 C 0.41482 0.82667 0.62136 0.0
C1259 C 0.40481 0.84821 0.61433 0.0
C1260 C 0.41344 0.86938 0.624 0.0
C1261 C 0.43354 0.86893 0.6382 0.0
C1262 C 0.40599 0.80344 0.61254 0.0
C1263 C 0.4026 0.89268 0.61787 0.0
H1264 H 0.38795 0.85892 0.53531 0.0
H1265 H 0.32974 0.84742 0.58118 0.0
H1266 H 0.43034 0.86947 0.57595 0.0
H1267 H 0.4319 0.83829 0.57342 0.0
H1268 H 0.42691 0.85595 0.5477 0.0
H1269 H 0.33428 0.84242 0.62182 0.0
H1270 H 0.36083 0.82738 0.62995 0.0
H1271 H 0.35894 0.85841 0.6334 0.0
H1272 H 0.44339 0.81022 0.63944 0.0
H1273 H 0.44114 0.88529 0.64409 0.0
H1274 H 0.41743 0.79762 0.59804 0.0
H1275 H 0.38771 0.80425 0.60618 0.0
H1276 H 0.40712 0.78997 0.62653 0.0
H1277 H 0.40768 0.89761 0.59978 0.0
H1278 H 0.40845 0.90679 0.62991 0.0
H1279 H 0.38322 0.89157 0.61842 0.0
C1280 C 0.12284 0.42279 0.65258 0.0
C1281 C 0.14479 0.43182 0.65874 0.0
C1282 C 0.12119 0.40219 0.63922 0.0
C1283 C 0.14194 0.3909 0.63163 0.0
C1284 C 0.1637 0.39792 0.64118 0.0
C1285 C 0.16483 0.41833 0.65464 0.0
C1286 C 0.09743 0.39412 0.63103 0.0
C1287 C 0.18641 0.38584 0.63547 0.0
C1288 C 0.14216 0.33919 0.58937 0.0
C1289 C 0.14224 0.35081 0.56774 0.0
C1290 C 0.14158 0.35187 0.61049 0.0
C1291 C 0.14151 0.37666 0.60983 0.0
C1292 C 0.14142 0.38836 0.58795 0.0
C1293 C 0.14108 0.37525 0.56727 0.0
C1294 C 0.14098 0.33884 0.63344 0.0
C1295 C 0.14163 0.41479 0.58628 0.0
H1296 H 0.10718 0.43292 0.65614 0.0
H1297 H 0.1818 0.42484 0.66015 0.0
H1298 H 0.09385 0.4014 0.61339 0.0
H1299 H 0.09674 0.37474 0.62976 0.0
H1300 H 0.08338 0.4002 0.64302 0.0
H1301 H 0.19561 0.38127 0.65197 0.0
H1302 H 0.18423 0.36969 0.62501 0.0
H1303 H 0.19789 0.39822 0.62589 0.0
H1304 H 0.14227 0.32021 0.58973 0.0
H1305 H 0.13954 0.3842 0.55063 0.0
H1306 H 0.12634 0.34535 0.64442 0.0
H1307 H 0.15743 0.34207 0.64324 0.0
H1308 H 0.13894 0.31965 0.63095 0.0
H1309 H 0.12559 0.42214 0.59433 0.0
H1310 H 0.1425 0.42105 0.56791 0.0
H1311 H 0.15684 0.42193 0.59602 0.0
C1312 C 0.57072 0.16871 0.63687 0.0
C1313 C 0.55885 0.14824 0.64336 0.0
C1314 C 0.59099 0.1678 0.62316 0.0
C1315 C 0.59952 0.14583 0.61551 0.0
C1316 C 0.58932 0.12503 0.62448 0.0
C1317 C 0.56895 0.12646 0.63826 0.0
C1318 C 0.60163 0.19069 0.61553 0.0
C1319 C 0.59878 0.10124 0.61802 0.0
C1320 C 0.62166 0.14099 0.5531 0.0
C1321 C 0.64588 0.14309 0.55592 0.0
C1322 C 0.60648 0.1424 0.57231 0.0
C1323 C 0.61583 0.14461 0.59517 0.0
C1324 C 0.64039 0.14588 0.59826 0.0
C1325 C 0.65515 0.14529 0.57854 0.0
C1326 C 0.58039 0.14141 0.5681 0.0
C1327 C 0.65101 0.14773 0.62236 0.0
H1328 H 0.56336 0.18565 0.64132 0.0
H1329 H 0.56004 0.11054 0.6435 0.0
H1330 H 0.61905 0.18874 0.60732 0.0
H1331 H 0.58961 0.19927 0.60296 0.0
H1332 H 0.60331 0.20262 0.63079 0.0
H1333 H 0.5924 0.08742 0.63014 0.0
H1334 H 0.59305 0.09665 0.60005 0.0
H1335 H 0.6182 0.10129 0.61819 0.0
H1336 H 0.61455 0.13775 0.53583 0.0
H1337 H 0.67397 0.14617 0.5808 0.0
H1338 H 0.57189 0.15716 0.57566 0.0
H1339 H 0.57279 0.12589 0.57693 0.0
H1340 H 0.57598 0.1404 0.5492 0.0
H1341 H 0.64563 0.16445 0.63064 0.0
H1342 H 0.67044 0.147 0.62191 0.0
H1343 H 0.64445 0.13332 0.63362 0.0
C1344 C 0.87431 0.57569 0.65194 0.0
C1345 C 0.85262 0.56522 0.65663 0.0
C1346 C 0.87552 0.59675 0.63928 0.0
C1347 C 0.85462 0.6071 0.63083 0.0
C1348 C 0.83283 0.59873 0.63911 0.0
C1349 C 0.83208 0.57774 0.6518 0.0
C1350 C 0.89917 0.60654 0.63284 0.0
C1351 C 0.81012 0.61111 0.63395 0.0
C1352 C 0.85394 0.65888 0.58836 0.0
C1353 C 0.85616 0.64726 0.56687 0.0
C1354 C 0.85371 0.64624 0.60956 0.0
C1355 C 0.85548 0.62148 0.60907 0.0
C1356 C 0.85783 0.60983 0.58729 0.0
C1357 C 0.85876 0.62292 0.56664 0.0
C1358 C 0.85146 0.65933 0.63235 0.0
C1359 C 0.85939 0.58343 0.58568 0.0
H1360 H 0.89034 0.56649 0.65625 0.0
H1361 H 0.81527 0.57033 0.65657 0.0
H1362 H 0.90427 0.60013 0.61524 0.0
H1363 H 0.89868 0.62596 0.63223 0.0
H1364 H 0.91282 0.60091 0.6455 0.0
H1365 H 0.80621 0.62319 0.64865 0.0
H1366 H 0.8109 0.62166 0.61776 0.0
H1367 H 0.79537 0.59852 0.63275 0.0
H1368 H 0.85257 0.67781 0.58857 0.0
H1369 H 0.86192 0.61405 0.55019 0.0
H1370 H 0.8635 0.652 0.64573 0.0
H1371 H 0.83333 0.65743 0.63903 0.0
H1372 H 0.85519 0.6783 0.6302 0.0
H1373 H 0.86009 0.57716 0.56731 0.0
H1374 H 0.84409 0.5753 0.59446 0.0
H1375 H 0.87535 0.57708 0.59469 0.0
C1376 C 0.35575 0.42909 0.1729 0.0
C1377 C 0.34982 0.44141 0.15255 0.0
C1378 C 0.36896 0.40847 0.17179 0.0
C1379 C 0.37668 0.40011 0.14979 0.0
C1380 C 0.36805 0.41075 0.12909 0.0
C1381 C 0.35471 0.43138 0.13069 0.0
C1382 C 0.37643 0.39747 0.19453 0.0
C1383 C 0.3748 0.40171 0.10521 0.0
C1384 C 0.43925 0.37857 0.14469 0.0
C1385 C 0.43658 0.35423 0.14546 0.0
C1386 C 0.41994 0.39354 0.14678 0.0
C1387 C 0.39714 0.38394 0.14846 0.0
C1388 C 0.39421 0.35931 0.14857 0.0
C1389 C 0.41403 0.34471 0.14716 0.0
C1390 C 0.424 0.4197 0.14697 0.0
C1391 C 0.37018 0.34847 0.14989 0.0
H1392 H 0.35153 0.43647 0.18988 0.0
H1393 H 0.34997 0.44066 0.11484 0.0
H1394 H 0.38322 0.37945 0.19238 0.0
H1395 H 0.39019 0.40859 0.20247 0.0
H1396 H 0.36152 0.39704 0.207 0.0
H1397 H 0.36291 0.40843 0.09137 0.0
H1398 H 0.39286 0.40746 0.10101 0.0
H1399 H 0.37455 0.38228 0.10487 0.0
H1400 H 0.4565 0.38595 0.14201 0.0
H1401 H 0.4119 0.32584 0.14712 0.0
H1402 H 0.41615 0.4275 0.16294 0.0
H1403 H 0.41534 0.42789 0.13165 0.0
H1404 H 0.44288 0.42427 0.14645 0.0
H1405 H 0.36145 0.35377 0.1664 0.0
H1406 H 0.37081 0.32904 0.14915 0.0
H1407 H 0.3592 0.35495 0.13524 0.0
C1408 C 0.40921 0.66447 0.85889 0.0
C1409 C 0.43111 0.65339 0.85852 0.0
C1410 C 0.38842 0.65129 0.86015 0.0
C1411 C 0.38969 0.62652 0.86061 0.0
C1412 C 0.41185 0.61537 0.86045 0.0
C1413 C 0.4322 0.62898 0.8601 0.0
C1414 C 0.36518 0.66376 0.861 0.0
C1415 C 0.41418 0.58899 0.86068 0.0
C1416 C 0.34863 0.57946 0.88071 0.0
C1417 C 0.34239 0.56994 0.859 0.0
C1418 C 0.36138 0.60049 0.88184 0.0
C1419 C 0.36824 0.61172 0.8608 0.0
C1420 C 0.35853 0.60411 0.83931 0.0
C1421 C 0.34575 0.58324 0.8387 0.0
C1422 C 0.36973 0.60914 0.90534 0.0
C1423 C 0.36325 0.6162 0.81637 0.0
H1424 H 0.40839 0.68343 0.85846 0.0
H1425 H 0.44907 0.62047 0.86143 0.0
H1426 H 0.35522 0.66017 0.84473 0.0
H1427 H 0.35458 0.6571 0.87586 0.0
H1428 H 0.36724 0.68302 0.86286 0.0
H1429 H 0.43267 0.58316 0.8595 0.0
H1430 H 0.40669 0.58174 0.87704 0.0
H1431 H 0.40427 0.58131 0.84584 0.0
H1432 H 0.34566 0.56944 0.89656 0.0
H1433 H 0.34017 0.57629 0.82193 0.0
H1434 H 0.37046 0.62856 0.90573 0.0
H1435 H 0.38763 0.60242 0.90872 0.0
H1436 H 0.35816 0.60292 0.91968 0.0
H1437 H 0.34635 0.62066 0.80788 0.0
H1438 H 0.37241 0.6039 0.80447 0.0
H1439 H 0.37368 0.63242 0.8181 0.0
C1440 C 0.42868 0.36228 0.82908 0.0
C1441 C 0.44036 0.35521 0.84946 0.0
C1442 C 0.40911 0.37696 0.83014 0.0
C1443 C 0.40105 0.38486 0.85217 0.0
C1444 C 0.41092 0.37535 0.87288 0.0
C1445 C 0.43062 0.36065 0.8713 0.0
C1446 C 0.399 0.38567 0.8074 0.0
C1447 C 0.40198 0.38225 0.89674 0.0
C1448 C 0.38083 0.44789 0.85783 0.0
C1449 C 0.35651 0.44567 0.8564 0.0
C1450 C 0.39545 0.42828 0.85575 0.0
C1451 C 0.38542 0.40569 0.85356 0.0
C1452 C 0.36078 0.40326 0.85274 0.0
C1453 C 0.3466 0.42334 0.85399 0.0
C1454 C 0.42166 0.43175 0.85618 0.0
C1455 C 0.34946 0.37946 0.85095 0.0
H1456 H 0.43584 0.3577 0.8121 0.0
H1457 H 0.43944 0.35506 0.88714 0.0
H1458 H 0.38101 0.39261 0.80928 0.0
H1459 H 0.41045 0.39975 0.80058 0.0
H1460 H 0.39881 0.37144 0.79415 0.0
H1461 H 0.40807 0.36997 0.91054 0.0
H1462 H 0.40839 0.40004 0.90115 0.0
H1463 H 0.38256 0.38279 0.8969 0.0
H1464 H 0.38844 0.46493 0.86118 0.0
H1465 H 0.32772 0.42156 0.85361 0.0
H1466 H 0.42959 0.42407 0.8402 0.0
H1467 H 0.42934 0.42257 0.87146 0.0
H1468 H 0.42662 0.45053 0.8572 0.0
H1469 H 0.35493 0.37075 0.83448 0.0
H1470 H 0.33005 0.3805 0.85128 0.0
H1471 H 0.35538 0.36821 0.86564 0.0
C1472 C 0.64713 0.42586 0.82686 0.0
C1473 C 0.65193 0.43821 0.8475 0.0
C1474 C 0.63443 0.40489 0.8274 0.0
C1475 C 0.62629 0.39619 0.84912 0.0
C1476 C 0.63456 0.40646 0.87012 0.0
C1477 C 0.64716 0.42757 0.86911 0.0
C1478 C 0.62905 0.39305 0.80445 0.0
C1479 C 0.62814 0.39647 0.8937 0.0
C1480 C 0.5628 0.37765 0.85326 0.0
C1481 C 0.56413 0.35334 0.85075 0.0
C1482 C 0.58286 0.39165 0.85223 0.0
C1483 C 0.60513 0.38095 0.84988 0.0
C1484 C 0.60672 0.35626 0.84812 0.0
C1485 C 0.58612 0.3427 0.84845 0.0
C1486 C 0.58015 0.41795 0.85377 0.0
C1487 C 0.6301 0.34424 0.84588 0.0
H1488 H 0.65184 0.43343 0.8101 0.0
H1489 H 0.65138 0.43665 0.88522 0.0
H1490 H 0.61444 0.38046 0.80567 0.0
H1491 H 0.6251 0.40621 0.7907 0.0
H1492 H 0.64483 0.38332 0.79866 0.0
H1493 H 0.64054 0.40231 0.9075 0.0
H1494 H 0.61035 0.40246 0.89866 0.0
H1495 H 0.62796 0.37703 0.89316 0.0
H1496 H 0.54597 0.38578 0.85645 0.0
H1497 H 0.58719 0.32379 0.84717 0.0
H1498 H 0.58881 0.42645 0.8386 0.0
H1499 H 0.58871 0.42462 0.86985 0.0
H1500 H 0.56153 0.42347 0.85422 0.0
H1501 H 0.63759 0.34794 0.82835 0.0
H1502 H 0.62864 0.32496 0.848 0.0
H1503 H 0.64253 0.35112 0.85913 0.0
C1504 C 0.64993 0.58504 0.84787 0.0
C1505 C 0.6402 0.56258 0.84967 0.0
C1506 C 0.63555 0.60504 0.84711 0.0
C1507 C 0.61092 0.6024 0.84807 0.0
C1508 C 0.6011 0.57967 0.84965 0.0
C1509 C 0.61588 0.56015 0.85101 0.0
C1510 C 0.64665 0.62897 0.84572 0.0
C1511 C 0.57492 0.57596 0.85029 0.0
C1512 C 0.56605 0.64602 0.86945 0.0
C1513 C 0.55499 0.6519 0.84834 0.0
C1514 C 0.58604 0.63167 0.86956 0.0
C1515 C 0.59506 0.62311 0.84809 0.0
C1516 C 0.58566 0.63152 0.82677 0.0
C1517 C 0.56565 0.64567 0.82716 0.0
C1518 C 0.5961 0.62392 0.89272 0.0
C1519 C 0.59489 0.62379 0.80334 0.0
H1520 H 0.6688 0.58696 0.84743 0.0
H1521 H 0.60838 0.54293 0.85367 0.0
H1522 H 0.64016 0.63842 0.83005 0.0
H1523 H 0.64157 0.63946 0.86126 0.0
H1524 H 0.66605 0.62804 0.84488 0.0
H1525 H 0.57012 0.55711 0.85064 0.0
H1526 H 0.5674 0.58447 0.86603 0.0
H1527 H 0.56668 0.58418 0.83473 0.0
H1528 H 0.55803 0.65093 0.88593 0.0
H1529 H 0.55745 0.65055 0.81074 0.0
H1530 H 0.61551 0.62383 0.8921 0.0
H1531 H 0.59026 0.60579 0.89654 0.0
H1532 H 0.59031 0.6354 0.9073 0.0
H1533 H 0.61342 0.61816 0.80414 0.0
H1534 H 0.59326 0.63808 0.79025 0.0
H1535 H 0.58408 0.60895 0.79712 0.0
C1536 C 0.64352 0.56801 0.12335 0.0
C1537 C 0.64922 0.55761 0.14482 0.0
C1538 C 0.63108 0.58924 0.12267 0.0
C1539 C 0.62413 0.60001 0.14392 0.0
C1540 C 0.63283 0.5912 0.16538 0.0
C1541 C 0.64511 0.57 0.16556 0.0
C1542 C 0.62346 0.59888 0.0993 0.0
C1543 C 0.62758 0.60248 0.1886 0.0
C1544 C 0.58774 0.65606 0.14508 0.0
C1545 C 0.56498 0.6469 0.14463 0.0
C1546 C 0.60735 0.64113 0.14461 0.0
C1547 C 0.60399 0.61656 0.14398 0.0
C1548 C 0.58097 0.60735 0.14348 0.0
C1549 C 0.56186 0.62266 0.14315 0.0
C1550 C 0.6316 0.65155 0.14464 0.0
C1551 C 0.57646 0.58126 0.14316 0.0
H1552 H 0.647 0.55867 0.1072 0.0
H1553 H 0.65016 0.56237 0.18221 0.0
H1554 H 0.60509 0.59362 0.09583 0.0
H1555 H 0.62417 0.6183 0.09926 0.0
H1556 H 0.63454 0.59211 0.08482 0.0
H1557 H 0.61553 0.591 0.19855 0.0
H1558 H 0.64392 0.6039 0.19904 0.0
H1559 H 0.61976 0.62014 0.187 0.0
H1560 H 0.59017 0.67488 0.14552 0.0
H1561 H 0.54437 0.6156 0.14132 0.0
H1562 H 0.64175 0.64477 0.12953 0.0
H1563 H 0.64102 0.64622 0.16076 0.0
H1564 H 0.63126 0.67098 0.14377 0.0
H1565 H 0.58397 0.5734 0.12709 0.0
H1566 H 0.55751 0.57702 0.14367 0.0
H1567 H 0.58514 0.57284 0.15837 0.0
C1568 C 0.38203 0.56413 0.14832 0.0
C1569 C 0.35769 0.56583 0.15009 0.0
C1570 C 0.39622 0.58411 0.14937 0.0
C1571 C 0.38571 0.60654 0.1509 0.0
C1572 C 0.36103 0.60845 0.15204 0.0
C1573 C 0.34729 0.58801 0.15177 0.0
C1574 C 0.42249 0.58118 0.14851 0.0
C1575 C 0.34921 0.63204 0.15312 0.0
C1576 C 0.42994 0.65042 0.17215 0.0
C1577 C 0.44139 0.65582 0.15114 0.0
C1578 C 0.4098 0.63648 0.17231 0.0
C1579 C 0.40095 0.62769 0.15091 0.0
C1580 C 0.4104 0.636 0.12953 0.0
C1581 C 0.43067 0.64995 0.12987 0.0
C1582 C 0.4 0.62935 0.1957 0.0
C1583 C 0.40063 0.62821 0.10627 0.0
H1584 H 0.39 0.54714 0.14559 0.0
H1585 H 0.32837 0.58935 0.15243 0.0
H1586 H 0.42963 0.58971 0.1326 0.0
H1587 H 0.43063 0.58982 0.16389 0.0
H1588 H 0.42786 0.56249 0.1483 0.0
H1589 H 0.32983 0.63056 0.15343 0.0
H1590 H 0.35496 0.64162 0.169 0.0
H1591 H 0.35442 0.64274 0.13776 0.0
H1592 H 0.4378 0.65545 0.18868 0.0
H1593 H 0.43922 0.65435 0.11351 0.0
H1594 H 0.38219 0.62181 0.19451 0.0
H1595 H 0.39948 0.64464 0.2077 0.0
H1596 H 0.41189 0.61625 0.20365 0.0
H1597 H 0.40705 0.61032 0.10225 0.0
H1598 H 0.40616 0.64004 0.09186 0.0
H1599 H 0.38123 0.62756 0.1068 0.0
C1600 C 0.62011 0.43417 0.14168 0.0
C1601 C 0.64448 0.43277 0.14331 0.0
C1602 C 0.60615 0.41406 0.14298 0.0
C1603 C 0.61691 0.39176 0.14463 0.0
C1604 C 0.64162 0.39012 0.14553 0.0
C1605 C 0.65515 0.41072 0.14502 0.0
C1606 C 0.57983 0.41674 0.14231 0.0
C1607 C 0.65369 0.36667 0.14675 0.0
C1608 C 0.57295 0.34841 0.16723 0.0
C1609 C 0.56072 0.34337 0.14657 0.0
C1610 C 0.59344 0.36185 0.1668 0.0
C1611 C 0.60181 0.3705 0.14515 0.0
C1612 C 0.59165 0.36227 0.12406 0.0
C1613 C 0.57103 0.34887 0.125 0.0
C1614 C 0.60444 0.36816 0.18991 0.0
C1615 C 0.60108 0.36961 0.10052 0.0
H1616 H 0.61192 0.45104 0.13886 0.0
H1617 H 0.67408 0.4096 0.14555 0.0
H1618 H 0.57266 0.40816 0.12646 0.0
H1619 H 0.57189 0.40801 0.15775 0.0
H1620 H 0.57428 0.43537 0.14211 0.0
H1621 H 0.67304 0.36831 0.14594 0.0
H1622 H 0.64892 0.35767 0.16329 0.0
H1623 H 0.64772 0.35537 0.13212 0.0
H1624 H 0.56554 0.34345 0.184 0.0
H1625 H 0.56197 0.34463 0.10888 0.0
H1626 H 0.62082 0.37835 0.18817 0.0
H1627 H 0.60833 0.35191 0.19985 0.0
H1628 H 0.59171 0.37828 0.20049 0.0
H1629 H 0.59466 0.38744 0.09624 0.0
H1630 H 0.59526 0.35753 0.08644 0.0
H1631 H 0.6205 0.37019 0.10073 0.0
C1632 C 0.04787 0.33851 0.51672 0.0
C1633 C 0.06117 0.32346 0.50265 0.0
C1634 C 0.02335 0.33807 0.51603 0.0
C1635 C 0.01187 0.32271 0.50034 0.0
C1636 C 0.02525 0.30773 0.48579 0.0
C1637 C 0.04979 0.30801 0.4874 0.0
C1638 C 0.00972 0.35386 0.53228 0.0
C1639 C 0.01365 0.29161 0.46835 0.0
C1640 C 0.94828 0.30686 0.51187 0.0
C1641 C 0.93652 0.3232 0.49787 0.0
C1642 C 0.97283 0.30657 0.51295 0.0
C1643 C 0.98586 0.32251 0.49911 0.0
C1644 C 0.97401 0.33871 0.48457 0.0
C1645 C 0.94945 0.33911 0.48441 0.0
C1646 C 0.98482 0.28951 0.5292 0.0
C1647 C 0.98726 0.35557 0.46909 0.0
H1648 H 0.05667 0.35031 0.52871 0.0
H1649 H 0.06009 0.29645 0.47643 0.0
H1650 H 0.99893 0.36628 0.52198 0.0
H1651 H 0.99758 0.34328 0.54314 0.0
H1652 H 0.02131 0.36409 0.54408 0.0
H1653 H 0.02657 0.28157 0.45785 0.0
H1654 H 0.00209 0.27905 0.47759 0.0
H1655 H 0.00246 0.30193 0.45627 0.0
H1656 H 0.93826 0.29463 0.52236 0.0
H1657 H 0.94035 0.35159 0.47338 0.0
H1658 H 0.99581 0.2992 0.54195 0.0
H1659 H 0.99663 0.27787 0.51911 0.0
H1660 H 0.97215 0.27849 0.539 0.0
H1661 H 0.99783 0.36765 0.47999 0.0
H1662 H 0.97542 0.36615 0.45786 0.0
H1663 H 0.99958 0.3458 0.45769 0.0
C1664 C 0.66785 0.04466 0.51292 0.0
C1665 C 0.68301 0.05802 0.49904 0.0
C1666 C 0.6687 0.02012 0.51255 0.0
C1667 C 0.68449 0.00868 0.49724 0.0
C1668 C 0.6997 0.02213 0.48299 0.0
C1669 C 0.69908 0.0467 0.48439 0.0
C1670 C 0.65271 0.00643 0.52855 0.0
C1671 C 0.71621 0.01061 0.46588 0.0
C1672 C 0.69938 0.9447 0.50847 0.0
C1673 C 0.68286 0.93331 0.4944 0.0
C1674 C 0.70011 0.96928 0.50964 0.0
C1675 C 0.68452 0.98265 0.49572 0.0
C1676 C 0.66833 0.97113 0.4809 0.0
C1677 C 0.66741 0.94658 0.48077 0.0
C1678 C 0.71707 0.9809 0.52623 0.0
C1679 C 0.65193 0.98472 0.46524 0.0
H1680 H 0.65558 0.05345 0.52443 0.0
H1681 H 0.71069 0.05708 0.47355 0.0
H1682 H 0.64014 0.99604 0.51803 0.0
H1683 H 0.66306 0.99391 0.5392 0.0
H1684 H 0.64265 0.01797 0.54054 0.0
H1685 H 0.72675 0.02357 0.45594 0.0
H1686 H 0.72829 0.99865 0.47526 0.0
H1687 H 0.7061 0.99982 0.45328 0.0
H1688 H 0.71121 0.93439 0.51914 0.0
H1689 H 0.65478 0.93772 0.46971 0.0
H1690 H 0.70728 0.99159 0.53916 0.0
H1691 H 0.72877 0.99295 0.51651 0.0
H1692 H 0.72801 0.96799 0.53583 0.0
H1693 H 0.63953 0.99503 0.47604 0.0
H1694 H 0.64168 0.97312 0.45348 0.0
H1695 H 0.66197 0.99732 0.45438 0.0
C1696 C 0.9511 0.68819 0.48802 0.0
C1697 C 0.93943 0.67246 0.50277 0.0
C1698 C 0.97568 0.68864 0.48697 0.0
C1699 C 0.98883 0.67347 0.50155 0.0
C1700 C 0.97706 0.6578 0.51673 0.0
C1701 C 0.95251 0.65725 0.51691 0.0
C1702 C 0.98756 0.70514 0.47008 0.0
C1703 C 0.99042 0.64176 0.53297 0.0
C1704 C 0.05146 0.65778 0.48561 0.0
C1705 C 0.06429 0.67355 0.49935 0.0
C1706 C 0.0269 0.65789 0.48583 0.0
C1707 C 0.01488 0.67368 0.50068 0.0
C1708 C 0.02779 0.68942 0.51486 0.0
C1709 C 0.05237 0.68941 0.51376 0.0
C1710 C 0.01381 0.64125 0.47 0.0
C1711 C 0.01564 0.70608 0.53138 0.0
H1712 H 0.94101 0.69991 0.47701 0.0
H1713 H 0.94352 0.64524 0.52853 0.0
H1714 H 0.99898 0.71748 0.47977 0.0
H1715 H 0.99892 0.69508 0.45795 0.0
H1716 H 0.97482 0.71542 0.45959 0.0
H1717 H 0.97864 0.63132 0.54439 0.0
H1718 H 0.00142 0.62954 0.52265 0.0
H1719 H 0.00236 0.65217 0.5442 0.0
H1720 H 0.06064 0.64566 0.47426 0.0
H1721 H 0.06227 0.70154 0.52447 0.0
H1722 H 0.00169 0.65119 0.45852 0.0
H1723 H 0.00303 0.62909 0.48061 0.0
H1724 H 0.02575 0.63075 0.45881 0.0
H1725 H 0.004 0.71801 0.52143 0.0
H1726 H 0.02821 0.71681 0.54163 0.0
H1727 H 0.00445 0.69611 0.54375 0.0
C1728 C 0.33615 0.05212 0.51425 0.0
C1729 C 0.32012 0.06461 0.50059 0.0
C1730 C 0.33524 0.02757 0.51541 0.0
C1731 C 0.31861 0.01529 0.50169 0.0
C1732 C 0.30256 0.02794 0.48763 0.0
C1733 C 0.30319 0.05251 0.48766 0.0
C1734 C 0.35203 0.01479 0.53132 0.0
C1735 C 0.2852 0.01552 0.47205 0.0
C1736 C 0.33376 0.95212 0.48733 0.0
C1737 C 0.31839 0.93988 0.50195 0.0
C1738 C 0.33354 0.97668 0.48659 0.0
C1739 C 0.31834 0.98922 0.50165 0.0
C1740 C 0.303 0.97683 0.51671 0.0
C1741 C 0.30286 0.95224 0.51629 0.0
C1742 C 0.34948 0.98919 0.46962 0.0
C1743 C 0.2872 0.98953 0.53365 0.0
H1744 H 0.34913 0.0616 0.52435 0.0
H1745 H 0.29096 0.06228 0.47692 0.0
H1746 H 0.34225 0.00282 0.54309 0.0
H1747 H 0.36413 0.00388 0.52078 0.0
H1748 H 0.36259 0.02698 0.54218 0.0
H1749 H 0.2743 0.02793 0.46179 0.0
H1750 H 0.29462 0.00384 0.45971 0.0
H1751 H 0.27346 0.00432 0.4827 0.0
H1752 H 0.34567 0.94243 0.47617 0.0
H1753 H 0.29118 0.94265 0.52777 0.0
H1754 H 0.36249 0.99981 0.47934 0.0
H1755 H 0.33916 0.00141 0.45857 0.0
H1756 H 0.35903 0.97684 0.45802 0.0
H1757 H 0.29781 0.00095 0.54525 0.0
H1758 H 0.27689 0.97729 0.5447 0.0
H1759 H 0.2749 0.00102 0.524 0.0
C1760 C 0.48278 0.95118 0.33976 0.0
C1761 C 0.49645 0.93752 0.32466 0.0
C1762 C 0.48356 0.97571 0.33882 0.0
C1763 C 0.49891 0.98683 0.32285 0.0
C1764 C 0.51302 0.97309 0.30778 0.0
C1765 C 0.51136 0.94856 0.30862 0.0
C1766 C 0.46783 0.98973 0.35478 0.0
C1767 C 0.53007 0.9843 0.29098 0.0
C1768 C 0.48823 0.05061 0.30673 0.0
C1769 C 0.503 0.06218 0.3225 0.0
C1770 C 0.48657 0.02605 0.30673 0.0
C1771 C 0.50056 0.01283 0.32238 0.0
C1772 C 0.51585 0.02449 0.33801 0.0
C1773 C 0.51662 0.04903 0.33811 0.0
C1774 C 0.46961 0.01427 0.29025 0.0
C1775 C 0.53148 0.01103 0.35457 0.0
H1776 H 0.47102 0.94267 0.35199 0.0
H1777 H 0.52199 0.938 0.29698 0.0
H1778 H 0.47855 0.00052 0.36684 0.0
H1779 H 0.4569 0.00191 0.34431 0.0
H1780 H 0.45611 0.9784 0.3654 0.0
H1781 H 0.54004 0.97114 0.28072 0.0
H1782 H 0.52059 0.99592 0.27865 0.0
H1783 H 0.54265 0.99538 0.30079 0.0
H1784 H 0.47762 0.06078 0.29472 0.0
H1785 H 0.52826 0.05794 0.35015 0.0
H1786 H 0.4569 0.00363 0.30039 0.0
H1787 H 0.47911 0.00214 0.27846 0.0
H1788 H 0.45977 0.02706 0.2794 0.0
H1789 H 0.52068 0.00074 0.36699 0.0
H1790 H 0.5432 0.02271 0.36478 0.0
H1791 H 0.5424 0.99842 0.34462 0.0
C1792 C 0.95007 0.48395 0.3062 0.0
C1793 C 0.93748 0.49907 0.32082 0.0
C1794 C 0.97463 0.48332 0.30688 0.0
C1795 C 0.98684 0.49878 0.32194 0.0
C1796 C 0.97415 0.51427 0.33656 0.0
C1797 C 0.94959 0.51394 0.33611 0.0
C1798 C 0.9875 0.46603 0.29158 0.0
C1799 C 0.98651 0.53148 0.35236 0.0
C1800 C 0.0495 0.48535 0.33971 0.0
C1801 C 0.06227 0.49863 0.32352 0.0
C1802 C 0.02495 0.48492 0.33913 0.0
C1803 C 0.0129 0.49873 0.32244 0.0
C1804 C 0.02574 0.51252 0.3063 0.0
C1805 C 0.05032 0.51198 0.30678 0.0
C1806 C 0.01193 0.46946 0.35618 0.0
C1807 C 0.01352 0.528 0.28871 0.0
H1808 H 0.94067 0.47238 0.29446 0.0
H1809 H 0.93985 0.52583 0.34723 0.0
H1810 H 0.99879 0.4755 0.27895 0.0
H1811 H 0.99911 0.4549 0.30248 0.0
H1812 H 0.97538 0.45453 0.28163 0.0
H1813 H 0.97408 0.54281 0.36211 0.0
H1814 H 0.99758 0.52198 0.36518 0.0
H1815 H 0.9983 0.5428 0.34185 0.0
H1816 H 0.05874 0.47483 0.35252 0.0
H1817 H 0.06021 0.52236 0.29434 0.0
H1818 H 0.00043 0.45717 0.34649 0.0
H1819 H 0.00051 0.48027 0.36756 0.0
H1820 H 0.02394 0.45915 0.36747 0.0
H1821 H 0.00259 0.51721 0.27684 0.0
H1822 H 0.02605 0.53828 0.27796 0.0
H1823 H 0.00163 0.54032 0.29788 0.0
C1824 C 0.51635 0.95146 0.6581 0.0
C1825 C 0.50279 0.93798 0.67347 0.0
C1826 C 0.51546 0.97602 0.65863 0.0
C1827 C 0.50008 0.98735 0.67441 0.0
C1828 C 0.48602 0.97378 0.6897 0.0
C1829 C 0.48782 0.94923 0.6893 0.0
C1830 C 0.53117 0.98983 0.64247 0.0
C1831 C 0.46893 0.98519 0.70632 0.0
C1832 C 0.5112 0.05114 0.69023 0.0
C1833 C 0.49658 0.06281 0.67438 0.0
C1834 C 0.51266 0.02657 0.69034 0.0
C1835 C 0.49859 0.0134 0.67472 0.0
C1836 C 0.48344 0.02515 0.65901 0.0
C1837 C 0.48289 0.04973 0.65879 0.0
C1838 C 0.52951 0.01472 0.7069 0.0
C1839 C 0.46771 0.01176 0.64252 0.0
H1840 H 0.52813 0.9428 0.64601 0.0
H1841 H 0.47724 0.93882 0.70112 0.0
H1842 H 0.52046 0.00062 0.63039 0.0
H1843 H 0.54222 0.00202 0.6528 0.0
H1844 H 0.54277 0.97837 0.63188 0.0
H1845 H 0.45879 0.97214 0.71657 0.0
H1846 H 0.4784 0.99677 0.71867 0.0
H1847 H 0.4565 0.99632 0.69638 0.0
H1848 H 0.52188 0.06125 0.70222 0.0
H1849 H 0.47138 0.05872 0.64667 0.0
H1850 H 0.54211 0.0039 0.69683 0.0
H1851 H 0.51989 0.00276 0.71878 0.0
H1852 H 0.53947 0.02748 0.71766 0.0
H1853 H 0.47842 0.00132 0.63015 0.0
H1854 H 0.45609 0.0235 0.63224 0.0
H1855 H 0.45668 0.99929 0.65253 0.0
C1856 C 0.95162 0.48519 0.66739 0.0
C1857 C 0.93837 0.49932 0.6824 0.0
C1858 C 0.97613 0.48519 0.66847 0.0
C1859 C 0.98761 0.50031 0.6844 0.0
C1860 C 0.97427 0.51482 0.69944 0.0
C1861 C 0.94972 0.51384 0.69854 0.0
C1862 C 0.98971 0.46896 0.65262 0.0
C1863 C 0.98592 0.5317 0.7161 0.0
C1864 C 0.05101 0.48757 0.69996 0.0
C1865 C 0.06287 0.50147 0.68363 0.0
C1866 C 0.02644 0.48699 0.70044 0.0
C1867 C 0.01359 0.50129 0.68477 0.0
C1868 C 0.02559 0.51592 0.66876 0.0
C1869 C 0.05011 0.51551 0.66811 0.0
C1870 C 0.01426 0.47063 0.71725 0.0
C1871 C 0.01253 0.53193 0.65225 0.0
H1872 H 0.94279 0.47377 0.65507 0.0
H1873 H 0.93941 0.52486 0.71005 0.0
H1874 H 0.00054 0.47932 0.64028 0.0
H1875 H 0.00181 0.45798 0.66313 0.0
H1876 H 0.97808 0.45727 0.64231 0.0
H1877 H 0.97302 0.54193 0.72645 0.0
H1878 H 0.99748 0.52207 0.72836 0.0
H1879 H 0.99711 0.54408 0.70615 0.0
H1880 H 0.06094 0.47663 0.71187 0.0
H1881 H 0.05934 0.52646 0.65565 0.0
H1882 H 0.00341 0.45793 0.70732 0.0
H1883 H 0.00229 0.48061 0.72881 0.0
H1884 H 0.0268 0.46073 0.72834 0.0
H1885 H 0.00211 0.52139 0.63972 0.0
H1886 H 0.0245 0.54345 0.64214 0.0
H1887 H 1.0001 0.54306 0.66219 0.0
C1888 C 0.33645 0.51734 0.95456 0.0
C1889 C 0.32053 0.50318 0.94249 0.0
C1890 C 0.33632 0.51826 0.97909 0.0
C1891 C 0.32061 0.50383 0.99175 0.0
C1892 C 0.3047 0.48925 0.97954 0.0
C1893 C 0.30452 0.4895 0.95497 0.0
C1894 C 0.3529 0.53473 0.99144 0.0
C1895 C 0.28833 0.47295 0.99239 0.0
C1896 C 0.33804 0.4907 0.05454 0.0
C1897 C 0.32249 0.50493 0.06697 0.0
C1898 C 0.3371 0.48957 0.03002 0.0
C1899 C 0.32097 0.50389 0.01776 0.0
C1900 C 0.30543 0.51854 0.03036 0.0
C1901 C 0.30604 0.51847 0.05491 0.0
C1902 C 0.35331 0.47304 0.01726 0.0
C1903 C 0.28865 0.53474 0.01792 0.0
H1904 H 0.34874 0.52798 0.94475 0.0
H1905 H 0.29242 0.47836 0.9455 0.0
H1906 H 0.34303 0.54619 0.00364 0.0
H1907 H 0.36561 0.52459 0.00205 0.0
H1908 H 0.36279 0.54593 0.979 0.0
H1909 H 0.27757 0.46222 0.98027 0.0
H1910 H 0.29856 0.46102 0.00383 0.0
H1911 H 0.27644 0.48312 0.00387 0.0
H1912 H 0.35066 0.48017 0.06404 0.0
H1913 H 0.29423 0.52966 0.06468 0.0
H1914 H 0.36573 0.48313 0.00628 0.0
H1915 H 0.34309 0.46157 0.00536 0.0
H1916 H 0.36352 0.46185 0.02946 0.0
H1917 H 0.29851 0.54667 0.00618 0.0
H1918 H 0.27819 0.54547 0.03032 0.0
H1919 H 0.27647 0.52451 0.00681 0.0
C1920 C 0.48661 0.3079 0.94604 0.0
C1921 C 0.50192 0.32344 0.93482 0.0
C1922 C 0.48488 0.30737 0.97058 0.0
C1923 C 0.49941 0.32216 0.9842 0.0
C1924 C 0.51522 0.33756 0.97291 0.0
C1925 C 0.51599 0.3383 0.94834 0.0
C1926 C 0.46728 0.29124 0.98191 0.0
C1927 C 0.5315 0.35311 0.98676 0.0
C1928 C 0.48253 0.33789 0.04665 0.0
C1929 C 0.49549 0.32162 0.05966 0.0
C1930 C 0.48324 0.3379 0.02208 0.0
C1931 C 0.49789 0.32176 0.01026 0.0
C1932 C 0.51127 0.30549 0.02338 0.0
C1933 C 0.50959 0.30535 0.04793 0.0
C1934 C 0.46816 0.35506 0.00877 0.0
C1935 C 0.52764 0.28849 0.01149 0.0
H1936 H 0.47562 0.2965 0.93558 0.0
H1937 H 0.52801 0.35017 0.93969 0.0
H1938 H 0.47635 0.27854 0.99345 0.0
H1939 H 0.45515 0.30153 0.99307 0.0
H1940 H 0.45683 0.28136 0.96883 0.0
H1941 H 0.54351 0.36327 0.97534 0.0
H1942 H 0.52122 0.36557 0.99752 0.0
H1943 H 0.54212 0.34235 0.99896 0.0
H1944 H 0.47144 0.35036 0.0557 0.0
H1945 H 0.51973 0.29286 0.058 0.0
H1946 H 0.45683 0.34555 0.99618 0.0
H1947 H 0.47935 0.36713 0.99847 0.0
H1948 H 0.45687 0.36565 0.02054 0.0
H1949 H 0.51768 0.27694 0.99949 0.0
H1950 H 0.53726 0.27737 0.02422 0.0
H1951 H 0.54055 0.29823 0.00073 0.0
C1952 C 0.69024 0.48811 0.94546 0.0
C1953 C 0.67391 0.50262 0.93434 0.0
C1954 C 0.69064 0.48608 0.96994 0.0
C1955 C 0.67486 0.49952 0.98355 0.0
C1956 C 0.65866 0.51457 0.97235 0.0
C1957 C 0.65811 0.51563 0.94783 0.0
C1958 C 0.70766 0.46929 0.98123 0.0
C1959 C 0.64203 0.52969 0.98626 0.0
C1960 C 0.65939 0.48071 0.04534 0.0
C1961 C 0.67471 0.49441 0.0587 0.0
C1962 C 0.65964 0.48181 0.02082 0.0
C1963 C 0.67502 0.4976 0.00949 0.0
C1964 C 0.6903 0.51174 0.02296 0.0
C1965 C 0.69025 0.50967 0.04745 0.0
C1966 C 0.6436 0.46594 0.00705 0.0
C1967 C 0.70642 0.5293 0.01153 0.0
H1968 H 0.70236 0.47795 0.93497 0.0
H1969 H 0.64563 0.52703 0.9392 0.0
H1970 H 0.71959 0.47891 0.99313 0.0
H1971 H 0.69799 0.45634 0.99201 0.0
H1972 H 0.71836 0.45971 0.96812 0.0
H1973 H 0.63134 0.54132 0.9749 0.0
H1974 H 0.63005 0.51852 0.99667 0.0
H1975 H 0.65198 0.5407 0.99879 0.0
H1976 H 0.64753 0.46874 0.05408 0.0
H1977 H 0.70198 0.52037 0.05783 0.0
H1978 H 0.65393 0.4554 0.99444 0.0
H1979 H 0.63103 0.47656 0.99676 0.0
H1980 H 0.63355 0.45385 0.01851 0.0
H1981 H 0.71869 0.52024 0.99953 0.0
H1982 H 0.71678 0.53937 0.02454 0.0
H1983 H 0.69606 0.54178 0.00084 0.0
C1984 C 0.51222 0.69789 0.94927 0.0
C1985 C 0.4967 0.68251 0.93817 0.0
C1986 C 0.51425 0.6982 0.97379 0.0
C1987 C 0.49984 0.68332 0.98745 0.0
C1988 C 0.48378 0.66813 0.97626 0.0
C1989 C 0.48268 0.66764 0.95175 0.0
C1990 C 0.53207 0.71412 0.98506 0.0
C1991 C 0.46765 0.65247 0.99018 0.0
C1992 C 0.51718 0.66587 0.04922 0.0
C1993 C 0.50422 0.68168 0.06275 0.0
C1994 C 0.51645 0.66669 0.02468 0.0
C1995 C 0.5018 0.68323 0.01344 0.0
C1996 C 0.4885 0.69912 0.02707 0.0
C1997 C 0.49017 0.69841 0.0516 0.0
C1998 C 0.53139 0.64987 0.01079 0.0
C1999 C 0.47214 0.71653 0.01576 0.0
H2000 H 0.52314 0.70931 0.93875 0.0
H2001 H 0.47047 0.6559 0.94318 0.0
H2002 H 0.52326 0.72654 0.99709 0.0
H2003 H 0.54447 0.70361 0.9957 0.0
H2004 H 0.5422 0.72432 0.97195 0.0
H2005 H 0.45532 0.64261 0.97884 0.0
H2006 H 0.47805 0.63972 0.0005 0.0
H2007 H 0.45737 0.66308 0.00279 0.0
H2008 H 0.52826 0.65309 0.05783 0.0
H2009 H 0.48007 0.71058 0.06209 0.0
H2010 H 0.54247 0.65967 0.9982 0.0
H2011 H 0.52008 0.63795 0.00046 0.0
H2012 H 0.54292 0.6391 0.02217 0.0
H2013 H 0.48201 0.72814 0.00373 0.0
H2014 H 0.46291 0.72757 0.02884 0.0
H2015 H 0.4589 0.70712 0.00511 0.0
C2016 C 0.20946 0.27621 0.52199 0.0
C2017 C 0.18954 0.27866 0.50791 0.0
C2018 C 0.22462 0.25714 0.51933 0.0
C2019 C 0.2202 0.24042 0.50159 0.0
C2020 C 0.19965 0.24231 0.48781 0.0
C2021 C 0.18435 0.26131 0.49135 0.0
C2022 C 0.24599 0.25554 0.53482 0.0
C2023 C 0.19457 0.2251 0.46843 0.0
C2024 C 0.27709 0.21417 0.48036 0.0
C2025 C 0.27768 0.19281 0.49241 0.0
C2026 C 0.25759 0.22897 0.48175 0.0
C2027 C 0.23846 0.22262 0.49617 0.0
C2028 C 0.23849 0.2006 0.50759 0.0
C2029 C 0.25803 0.18578 0.50533 0.0
C2030 C 0.25806 0.25203 0.46879 0.0
C2031 C 0.21868 0.19339 0.52349 0.0
H2032 H 0.21349 0.28947 0.5349 0.0
H2033 H 0.16903 0.26326 0.48033 0.0
H2034 H 0.24767 0.23765 0.54223 0.0
H2035 H 0.26194 0.25903 0.52431 0.0
H2036 H 0.24541 0.26831 0.54948 0.0
H2037 H 0.17661 0.22724 0.4613 0.0
H2038 H 0.20729 0.22777 0.45399 0.0
H2039 H 0.19671 0.20685 0.47471 0.0
H2040 H 0.29215 0.2196 0.4702 0.0
H2041 H 0.25849 0.16932 0.51477 0.0
H2042 H 0.26027 0.26657 0.48147 0.0
H2043 H 0.24128 0.25492 0.45946 0.0
H2044 H 0.27259 0.25288 0.4559 0.0
H2045 H 0.21923 0.20411 0.53968 0.0
H2046 H 0.21978 0.17462 0.5285 0.0
H2047 H 0.20153 0.19662 0.515 0.0
C2048 C 0.72326 0.20737 0.48389 0.0
C2049 C 0.72331 0.18785 0.49873 0.0
C2050 C 0.74211 0.22302 0.48347 0.0
C2051 C 0.76128 0.21943 0.49875 0.0
C2052 C 0.76182 0.19927 0.51324 0.0
C2053 C 0.74288 0.1835 0.51285 0.0
C2054 C 0.74101 0.24397 0.46734 0.0
C2055 C 0.78174 0.19507 0.53006 0.0
C2056 C 0.81433 0.25778 0.48643 0.0
C2057 C 0.80902 0.27756 0.49991 0.0
C2058 C 0.7995 0.2381 0.48658 0.0
C2059 C 0.77932 0.23812 0.50101 0.0
C2060 C 0.77484 0.25751 0.51579 0.0
C2061 C 0.78954 0.27711 0.51479 0.0
C2062 C 0.80462 0.21799 0.47025 0.0
C2063 C 0.75384 0.25806 0.53184 0.0
H2064 H 0.70823 0.21058 0.47274 0.0
H2065 H 0.74286 0.16843 0.5244 0.0
H2066 H 0.73887 0.26018 0.47782 0.0
H2067 H 0.75755 0.24566 0.45731 0.0
H2068 H 0.72621 0.2428 0.45478 0.0
H2069 H 0.7809 0.17739 0.53813 0.0
H2070 H 0.79882 0.19705 0.52105 0.0
H2071 H 0.78111 0.20835 0.54422 0.0
H2072 H 0.82935 0.25818 0.47485 0.0
H2073 H 0.7856 0.29233 0.52543 0.0
H2074 H 0.79151 0.21786 0.45592 0.0
H2075 H 0.80315 0.20102 0.47958 0.0
H2076 H 0.82234 0.21931 0.46237 0.0
H2077 H 0.73762 0.25958 0.52128 0.0
H2078 H 0.7545 0.27302 0.54425 0.0
H2079 H 0.75266 0.24156 0.54202 0.0
C2080 C 0.79261 0.71626 0.48275 0.0
C2081 C 0.8113 0.71689 0.49858 0.0
C2082 C 0.77698 0.7351 0.48089 0.0
C2083 C 0.77966 0.75472 0.49581 0.0
C2084 C 0.7991 0.75584 0.51118 0.0
C2085 C 0.81492 0.73698 0.51216 0.0
C2086 C 0.75687 0.73342 0.46382 0.0
C2087 C 0.80229 0.77616 0.52775 0.0
C2088 C 0.74153 0.80814 0.48349 0.0
C2089 C 0.72175 0.80307 0.4971 0.0
C2090 C 0.76085 0.79283 0.48317 0.0
C2091 C 0.76053 0.7724 0.49727 0.0
C2092 C 0.74099 0.76786 0.51182 0.0
C2093 C 0.72176 0.78307 0.51131 0.0
C2094 C 0.78113 0.79798 0.46707 0.0
C2095 C 0.7401 0.74659 0.52752 0.0
H2096 H 0.78993 0.70075 0.47213 0.0
H2097 H 0.82928 0.73734 0.52456 0.0
H2098 H 0.74028 0.73074 0.47356 0.0
H2099 H 0.75512 0.74993 0.45374 0.0
H2100 H 0.75908 0.71867 0.45134 0.0
H2101 H 0.81964 0.77578 0.53653 0.0
H2102 H 0.80039 0.79305 0.51836 0.0
H2103 H 0.78848 0.77555 0.54139 0.0
H2104 H 0.7415 0.82355 0.47241 0.0
H2105 H 0.70661 0.77927 0.52209 0.0
H2106 H 0.78198 0.7844 0.45321 0.0
H2107 H 0.79789 0.79728 0.47683 0.0
H2108 H 0.77954 0.81542 0.45858 0.0
H2109 H 0.73939 0.73047 0.51671 0.0
H2110 H 0.72463 0.74676 0.53929 0.0
H2111 H 0.75616 0.74558 0.5384 0.0
C2112 C 0.21358 0.71872 0.51272 0.0
C2113 C 0.19216 0.71981 0.50081 0.0
C2114 C 0.22819 0.73836 0.51434 0.0
C2115 C 0.22149 0.75952 0.50331 0.0
C2116 C 0.19944 0.76102 0.49202 0.0
C2117 C 0.18489 0.74115 0.49111 0.0
C2118 C 0.25132 0.73608 0.52694 0.0
C2119 C 0.19185 0.78315 0.47975 0.0
C2120 C 0.259 0.81252 0.51851 0.0
C2121 C 0.2765 0.8108 0.50145 0.0
C2122 C 0.24025 0.79651 0.51889 0.0
C2123 C 0.23883 0.7789 0.50144 0.0
C2124 C 0.25575 0.7782 0.48335 0.0
C2125 C 0.27453 0.79392 0.48379 0.0
C2126 C 0.22281 0.79757 0.53868 0.0
C2127 C 0.25466 0.76008 0.46412 0.0
H2128 H 0.21912 0.70233 0.52053 0.0
H2129 H 0.16835 0.74201 0.48185 0.0
H2130 H 0.26584 0.73677 0.51407 0.0
H2131 H 0.25378 0.75085 0.5393 0.0
H2132 H 0.25269 0.71938 0.53683 0.0
H2133 H 0.1732 0.78244 0.4743 0.0
H2134 H 0.19444 0.79858 0.49124 0.0
H2135 H 0.20279 0.78582 0.46393 0.0
H2136 H 0.26063 0.82554 0.53222 0.0
H2137 H 0.28799 0.7928 0.47045 0.0
H2138 H 0.22553 0.78234 0.55045 0.0
H2139 H 0.20467 0.79644 0.53189 0.0
H2140 H 0.22461 0.81386 0.54914 0.0
H2141 H 0.25841 0.7425 0.47149 0.0
H2142 H 0.26749 0.76365 0.44995 0.0
H2143 H 0.23687 0.75948 0.45637 0.0
C2144 C 0.49457 0.18298 0.25792 0.0
C2145 C 0.50798 0.19058 0.27703 0.0
C2146 C 0.49119 0.19749 0.23826 0.0
C2147 C 0.50188 0.21988 0.23757 0.0
C2148 C 0.51645 0.22703 0.25629 0.0
C2149 C 0.51908 0.21245 0.27584 0.0
C2150 C 0.47525 0.18939 0.21884 0.0
C2151 C 0.52856 0.25055 0.25615 0.0
C2152 C 0.50735 0.25757 0.18287 0.0
C2153 C 0.4908 0.27505 0.18758 0.0
C2154 C 0.51043 0.23862 0.19835 0.0
C2155 C 0.49623 0.23696 0.21865 0.0
C2156 C 0.47832 0.25367 0.2224 0.0
C2157 C 0.47607 0.27267 0.20703 0.0
C2158 C 0.52996 0.22142 0.1939 0.0
C2159 C 0.46241 0.25233 0.24347 0.0
H2160 H 0.48586 0.16613 0.25875 0.0
H2161 H 0.52965 0.21841 0.29042 0.0
H2162 H 0.45898 0.2 0.21901 0.0
H2163 H 0.48367 0.19204 0.20155 0.0
H2164 H 0.47043 0.17063 0.22067 0.0
H2165 H 0.54116 0.25243 0.27083 0.0
H2166 H 0.53809 0.25314 0.23943 0.0
H2167 H 0.51534 0.26471 0.25757 0.0
H2168 H 0.51888 0.25949 0.16792 0.0
H2169 H 0.46314 0.28604 0.21062 0.0
H2170 H 0.52381 0.20319 0.19653 0.0
H2171 H 0.54431 0.22458 0.2066 0.0
H2172 H 0.53718 0.22309 0.17593 0.0
H2173 H 0.4554 0.23434 0.24557 0.0
H2174 H 0.44748 0.26473 0.24216 0.0
H2175 H 0.4725 0.25658 0.25951 0.0
C2176 C 0.79758 0.47678 0.26601 0.0
C2177 C 0.81334 0.49546 0.26762 0.0
C2178 C 0.7818 0.47521 0.24734 0.0
C2179 C 0.78134 0.49317 0.23026 0.0
C2180 C 0.79823 0.51134 0.23105 0.0
C2181 C 0.81425 0.51217 0.24973 0.0
C2182 C 0.76443 0.45528 0.24694 0.0
C2183 C 0.79813 0.53096 0.21337 0.0
C2184 C 0.74126 0.4832 0.17796 0.0
C2185 C 0.72029 0.49296 0.18617 0.0
C2186 C 0.76165 0.48371 0.19177 0.0
C2187 C 0.76105 0.49464 0.21401 0.0
C2188 C 0.74016 0.50546 0.22183 0.0
C2189 C 0.72002 0.50426 0.20794 0.0
C2190 C 0.78348 0.47169 0.18304 0.0
C2191 C 0.73885 0.51768 0.24525 0.0
H2192 H 0.79697 0.46389 0.27995 0.0
H2193 H 0.82631 0.52675 0.25123 0.0
H2194 H 0.74686 0.46192 0.25187 0.0
H2195 H 0.76305 0.44777 0.22909 0.0
H2196 H 0.76931 0.44109 0.25932 0.0
H2197 H 0.81446 0.54149 0.21411 0.0
H2198 H 0.79593 0.52402 0.19537 0.0
H2199 H 0.78309 0.54272 0.21694 0.0
H2200 H 0.74151 0.47442 0.16115 0.0
H2201 H 0.70393 0.51214 0.2142 0.0
H2202 H 0.78703 0.45601 0.19395 0.0
H2203 H 0.79883 0.48346 0.18468 0.0
H2204 H 0.78183 0.46607 0.1645 0.0
H2205 H 0.74084 0.50467 0.25953 0.0
H2206 H 0.72197 0.52702 0.24776 0.0
H2207 H 0.75333 0.53051 0.24699 0.0
C2208 C 0.49544 0.74322 0.18531 0.0
C2209 C 0.51054 0.72483 0.19135 0.0
C2210 C 0.49185 0.76214 0.20068 0.0
C2211 C 0.50405 0.76284 0.22226 0.0
C2212 C 0.52058 0.74514 0.22756 0.0
C2213 C 0.52337 0.72622 0.21221 0.0
C2214 C 0.47383 0.78045 0.19454 0.0
C2215 C 0.53438 0.74545 0.25011 0.0
C2216 C 0.50545 0.81652 0.26176 0.0
C2217 C 0.49001 0.80967 0.27958 0.0
C2218 C 0.50963 0.80188 0.24238 0.0
C2219 C 0.49769 0.78021 0.24063 0.0
C2220 C 0.48107 0.77395 0.25791 0.0
C2221 C 0.47768 0.78858 0.27728 0.0
C2222 C 0.52776 0.80899 0.22455 0.0
C2223 C 0.46756 0.75125 0.25649 0.0
H2224 H 0.48538 0.74212 0.16926 0.0
H2225 H 0.53521 0.71215 0.21686 0.0
H2226 H 0.45821 0.77811 0.20585 0.0
H2227 H 0.48074 0.79829 0.19785 0.0
H2228 H 0.46822 0.77924 0.17597 0.0
H2229 H 0.54856 0.73214 0.25021 0.0
H2230 H 0.54225 0.76297 0.25301 0.0
H2231 H 0.52251 0.74183 0.26505 0.0
H2232 H 0.51512 0.83276 0.26352 0.0
H2233 H 0.46558 0.78327 0.29088 0.0
H2234 H 0.52088 0.80676 0.20654 0.0
H2235 H 0.54331 0.79748 0.22626 0.0
H2236 H 0.53345 0.82745 0.22685 0.0
H2237 H 0.45955 0.74924 0.23892 0.0
H2238 H 0.4535 0.75021 0.26989 0.0
H2239 H 0.47965 0.73628 0.25914 0.0
C2240 C 0.20888 0.47988 0.27591 0.0
C2241 C 0.19052 0.49582 0.27884 0.0
C2242 C 0.22458 0.48201 0.2572 0.0
C2243 C 0.22227 0.50101 0.24144 0.0
C2244 C 0.20304 0.51654 0.24367 0.0
C2245 C 0.18717 0.51358 0.26226 0.0
C2246 C 0.24446 0.46469 0.25515 0.0
C2247 C 0.20018 0.53723 0.22748 0.0
C2248 C 0.28101 0.52056 0.21789 0.0
C2249 C 0.2812 0.51054 0.1955 0.0
C2250 C 0.26135 0.51873 0.23242 0.0
C2251 C 0.24155 0.50602 0.22465 0.0
C2252 C 0.24131 0.49644 0.20179 0.0
C2253 C 0.26108 0.49905 0.18735 0.0
C2254 C 0.26217 0.52966 0.25648 0.0
C2255 C 0.22072 0.4824 0.19305 0.0
H2256 H 0.21134 0.46603 0.28862 0.0
H2257 H 0.17305 0.52603 0.26469 0.0
H2258 H 0.24612 0.45841 0.23685 0.0
H2259 H 0.26116 0.47339 0.25988 0.0
H2260 H 0.24202 0.44932 0.26682 0.0
H2261 H 0.18282 0.54574 0.22952 0.0
H2262 H 0.21396 0.55036 0.23136 0.0
H2263 H 0.20239 0.53183 0.20897 0.0
H2264 H 0.29642 0.52962 0.22423 0.0
H2265 H 0.26118 0.49116 0.1701 0.0
H2266 H 0.26263 0.5157 0.26997 0.0
H2267 H 0.24621 0.54028 0.25962 0.0
H2268 H 0.27776 0.54103 0.25888 0.0
H2269 H 0.21965 0.46569 0.20291 0.0
H2270 H 0.22216 0.4783 0.1741 0.0
H2271 H 0.20412 0.49199 0.19613 0.0
C2272 C 0.50579 0.74388 0.81459 0.0
C2273 C 0.48971 0.72612 0.80929 0.0
C2274 C 0.50944 0.76266 0.79901 0.0
C2275 C 0.49627 0.76389 0.77802 0.0
C2276 C 0.47889 0.74682 0.77349 0.0
C2277 C 0.47608 0.72801 0.78897 0.0
C2278 C 0.5284 0.78027 0.80429 0.0
C2279 C 0.46407 0.74769 0.75161 0.0
C2280 C 0.49459 0.81759 0.73843 0.0
C2281 C 0.5088 0.81019 0.71983 0.0
C2282 C 0.49101 0.80315 0.7581 0.0
C2283 C 0.50233 0.7811 0.75935 0.0
C2284 C 0.51778 0.77426 0.74123 0.0
C2285 C 0.52056 0.7887 0.72161 0.0
C2286 C 0.47411 0.81089 0.77685 0.0
C2287 C 0.53061 0.75113 0.74202 0.0
H2288 H 0.51646 0.74241 0.83021 0.0
H2289 H 0.4635 0.71445 0.78486 0.0
H2290 H 0.54333 0.77742 0.79221 0.0
H2291 H 0.52198 0.79836 0.80139 0.0
H2292 H 0.53488 0.77875 0.82256 0.0
H2293 H 0.44944 0.73488 0.75215 0.0
H2294 H 0.45668 0.76548 0.74911 0.0
H2295 H 0.4751 0.74372 0.73612 0.0
H2296 H 0.48538 0.83413 0.73711 0.0
H2297 H 0.53172 0.78292 0.70742 0.0
H2298 H 0.48185 0.80844 0.79448 0.0
H2299 H 0.4581 0.79992 0.776 0.0
H2300 H 0.46894 0.82953 0.77479 0.0
H2301 H 0.53936 0.74882 0.7592 0.0
H2302 H 0.54398 0.74966 0.72798 0.0
H2303 H 0.51793 0.73657 0.73994 0.0
C2304 C 0.27655 0.51749 0.79571 0.0
C2305 C 0.27786 0.50132 0.81409 0.0
C2306 C 0.25751 0.51757 0.78031 0.0
C2307 C 0.23964 0.50061 0.78296 0.0
C2308 C 0.2404 0.48479 0.80207 0.0
C2309 C 0.25946 0.48553 0.81766 0.0
C2310 C 0.25714 0.53509 0.76049 0.0
C2311 C 0.22191 0.4662 0.80522 0.0
C2312 C 0.18562 0.51014 0.74525 0.0
C2313 C 0.19194 0.49799 0.7249 0.0
C2314 C 0.20053 0.51045 0.76484 0.0
C2315 C 0.22192 0.4979 0.7641 0.0
C2316 C 0.22764 0.48454 0.74404 0.0
C2317 C 0.21273 0.48498 0.72461 0.0
C2318 C 0.19404 0.5252 0.78576 0.0
C2319 C 0.25005 0.47055 0.74267 0.0
H2320 H 0.29068 0.5299 0.79317 0.0
H2321 H 0.26057 0.47298 0.83186 0.0
H2322 H 0.26019 0.52592 0.74365 0.0
H2323 H 0.23978 0.54372 0.75938 0.0
H2324 H 0.27078 0.5488 0.76256 0.0
H2325 H 0.22341 0.45723 0.82241 0.0
H2326 H 0.20415 0.4739 0.80368 0.0
H2327 H 0.22369 0.45291 0.79117 0.0
H2328 H 0.16955 0.52023 0.74547 0.0
H2329 H 0.21748 0.47527 0.70901 0.0
H2330 H 0.20594 0.54052 0.78678 0.0
H2331 H 0.19621 0.51508 0.80218 0.0
H2332 H 0.17573 0.53168 0.78474 0.0
H2333 H 0.26524 0.48263 0.74201 0.0
H2334 H 0.25063 0.45911 0.72696 0.0
H2335 H 0.25209 0.45947 0.7585 0.0
C2336 C 0.48518 0.1872 0.73873 0.0
C2337 C 0.49911 0.19125 0.71896 0.0
C2338 C 0.48566 0.20275 0.75785 0.0
C2339 C 0.50088 0.22236 0.75733 0.0
C2340 C 0.51604 0.22555 0.73798 0.0
C2341 C 0.51469 0.21018 0.71889 0.0
C2342 C 0.46887 0.19901 0.77789 0.0
C2343 C 0.53295 0.24585 0.7369 0.0
C2344 C 0.48626 0.28007 0.78652 0.0
C2345 C 0.50088 0.27975 0.80621 0.0
C2346 C 0.48504 0.26085 0.77133 0.0
C2347 C 0.49932 0.24101 0.77552 0.0
C2348 C 0.51359 0.24027 0.79581 0.0
C2349 C 0.51396 0.25958 0.81113 0.0
C2350 C 0.46915 0.2622 0.75024 0.0
C2351 C 0.52943 0.21969 0.80063 0.0
H2352 H 0.473 0.17265 0.73868 0.0
H2353 H 0.5256 0.21319 0.70365 0.0
H2354 H 0.47808 0.20054 0.79491 0.0
H2355 H 0.45519 0.2128 0.77745 0.0
H2356 H 0.46017 0.18163 0.777 0.0
H2357 H 0.54545 0.2442 0.7221 0.0
H2358 H 0.5231 0.26245 0.73477 0.0
H2359 H 0.54303 0.24713 0.75345 0.0
H2360 H 0.47596 0.29559 0.78283 0.0
H2361 H 0.5254 0.2594 0.82627 0.0
H2362 H 0.4584 0.24608 0.74884 0.0
H2363 H 0.47984 0.26349 0.73409 0.0
H2364 H 0.45727 0.27758 0.75097 0.0
H2365 H 0.51963 0.203 0.7991 0.0
H2366 H 0.53749 0.22063 0.8183 0.0
H2367 H 0.54363 0.21927 0.78739 0.0
C2368 C 0.73807 0.49543 0.814 0.0
C2369 C 0.71904 0.50925 0.80695 0.0
C2370 C 0.75791 0.4931 0.79963 0.0
C2371 C 0.75887 0.50534 0.77808 0.0
C2372 C 0.74035 0.52053 0.77174 0.0
C2373 C 0.72052 0.52201 0.78607 0.0
C2374 C 0.77709 0.47639 0.80678 0.0
C2375 C 0.74089 0.53435 0.74919 0.0
C2376 C 0.81407 0.51112 0.74136 0.0
C2377 C 0.80907 0.4956 0.72304 0.0
C2378 C 0.79837 0.51386 0.76013 0.0
C2379 C 0.77761 0.5003 0.76074 0.0
C2380 C 0.77341 0.48346 0.74307 0.0
C2381 C 0.789 0.48159 0.72427 0.0
C2382 C 0.80324 0.5323 0.7784 0.0
C2383 C 0.7518 0.46821 0.74332 0.0
H2384 H 0.7369 0.48545 0.8301 0.0
H2385 H 0.70596 0.53288 0.78067 0.0
H2386 H 0.77651 0.46069 0.79535 0.0
H2387 H 0.79453 0.48458 0.80448 0.0
H2388 H 0.77524 0.47062 0.82526 0.0
H2389 H 0.72661 0.54751 0.7483 0.0
H2390 H 0.75791 0.5435 0.74726 0.0
H2391 H 0.73902 0.52225 0.73412 0.0
H2392 H 0.82953 0.52208 0.74033 0.0
H2393 H 0.78519 0.46943 0.71024 0.0
H2394 H 0.80033 0.52522 0.79624 0.0
H2395 H 0.79094 0.54714 0.77598 0.0
H2396 H 0.82141 0.53912 0.77723 0.0
H2397 H 0.74943 0.4601 0.76081 0.0
H2398 H 0.75263 0.45408 0.72998 0.0
H2399 H 0.73613 0.4791 0.73975 0.0
loop_
_geom_bond_atom_site_label_1
_geom_bond_atom_site_label_2
_geom_bond_distance
_geom_bond_site_symmetry_2
_ccdc_geom_bond_type
Mn0 O5 2.095 . S
Mn0 O15 2.162 . S
Mn0 O16 2.297 . S
Mn0 O24 2.385 . S
Mn0 O25 2.209 . S
Mn0 O26 2.094 . S
Mn1 O6 2.121 . S
Mn1 N8 2.257 . S
Mn1 N17 2.282 . S
Mn1 O25 2.215 . S
Mn1 O27 2.117 . S
C2 O24 1.234 . S
C2 O25 1.283 . S
C3 O15 1.281 . S
C3 O16 1.236 . S
C4 O26 1.240 . S
C4 O27 1.264 . S
O5 Mn0 2.095 . S
O5 C14 1.250 . S
O6 Mn1 2.121 . S
O6 C14 1.258 . S
C7 N8 1.326 . S
C7 C11 1.460 . S
C7 H13 0.929 . S
N8 Mn1 2.257 . S
N8 C7 1.326 . S
N8 C12 1.362 . S
C9 C10 1.258 . S
C9 C12 1.431 . S
C9 C29 1.449 . S
C10 C9 1.258 . S
C10 C11 1.477 . S
C10 H30 0.931 . S
C11 C7 1.460 . S
C11 C10 1.477 . S
C11 H31 0.930 . S
C12 N8 1.362 . S
C12 C9 1.431 . S
C12 C22 1.476 . S
H13 C7 0.929 . S
C14 O5 1.250 . S
C14 O6 1.258 . S
O15 Mn0 2.162 . S
O15 C3 1.281 . S
O16 Mn0 2.297 . S
O16 C3 1.236 . S
N17 Mn1 2.282 . S
N17 C18 1.328 . S
N17 C22 1.318 . S
C18 N17 1.328 . S
C18 C19 1.457 . S
C18 H23 0.929 . S
C19 C18 1.457 . S
C19 C20 1.291 . S
C19 H32 0.931 . S
C20 C19 1.291 . S
C20 C21 1.373 . S
C20 H33 0.929 . S
C21 C20 1.373 . S
C21 C22 1.396 . S
C21 C28 1.403 . S
C22 C12 1.476 . S
C22 N17 1.318 . S
C22 C21 1.396 . S
H23 C18 0.929 . S
O24 Mn0 2.385 . S
O24 C2 1.234 . S
O25 Mn0 2.209 . S
O25 Mn1 2.215 . S
O25 C2 1.283 . S
O26 Mn0 2.094 . S
O26 C4 1.240 . S
O27 Mn1 2.117 . S
O27 C4 1.264 . S
C28 C21 1.403 . S
C28 C29 1.399 . S
C28 H34 0.929 . S
C29 C9 1.449 . S
C29 C28 1.399 . S
C29 H35 0.930 . S
H30 C10 0.931 . S
H31 C11 0.930 . S
H32 C19 0.931 . S
H33 C20 0.929 . S
H34 C28 0.929 . S
H35 C29 0.930 . S
Mn36 O41 2.095 . S
Mn36 O51 2.162 . S
Mn36 O52 2.297 . S
Mn36 O60 2.385 . S
Mn36 O61 2.209 . S
Mn36 O62 2.094 . S
Mn37 O42 2.121 . S
Mn37 N44 2.257 . S
Mn37 N53 2.282 . S
Mn37 O61 2.215 . S
Mn37 O63 2.117 . S
C38 O60 1.234 . S
C38 O61 1.283 . S
C39 O51 1.281 . S
C39 O52 1.236 . S
C40 O62 1.240 . S
C40 O63 1.264 . S
O41 Mn36 2.095 . S
O41 C50 1.250 . S
O42 Mn37 2.121 . S
O42 C50 1.258 . S
C43 N44 1.326 . S
C43 C47 1.460 . S
C43 H49 0.929 . S
N44 Mn37 2.257 . S
N44 C43 1.326 . S
N44 C48 1.362 . S
C45 C46 1.258 . S
C45 C48 1.431 . S
C45 C65 1.449 . S
C46 C45 1.258 . S
C46 C47 1.477 . S
C46 H66 0.931 . S
C47 C43 1.460 . S
C47 C46 1.477 . S
C47 H67 0.930 . S
C48 N44 1.362 . S
C48 C45 1.431 . S
C48 C58 1.476 . S
H49 C43 0.929 . S
C50 O41 1.250 . S
C50 O42 1.258 . S
O51 Mn36 2.162 . S
O51 C39 1.281 . S
O52 Mn36 2.297 . S
O52 C39 1.236 . S
N53 Mn37 2.282 . S
N53 C54 1.328 . S
N53 C58 1.318 . S
C54 N53 1.328 . S
C54 C55 1.457 . S
C54 H59 0.929 . S
C55 C54 1.457 . S
C55 C56 1.291 . S
C55 H68 0.931 . S
C56 C55 1.291 . S
C56 C57 1.373 . S
C56 H69 0.929 . S
C57 C56 1.373 . S
C57 C58 1.396 . S
C57 C64 1.403 . S
C58 C48 1.476 . S
C58 N53 1.318 . S
C58 C57 1.396 . S
H59 C54 0.929 . S
O60 Mn36 2.385 . S
O60 C38 1.234 . S
O61 Mn36 2.209 . S
O61 Mn37 2.215 . S
O61 C38 1.283 . S
O62 Mn36 2.094 . S
O62 C40 1.240 . S
O63 Mn37 2.117 . S
O63 C40 1.264 . S
C64 C57 1.403 . S
C64 C65 1.399 . S
C64 H70 0.929 . S
C65 C45 1.449 . S
C65 C64 1.399 . S
C65 H71 0.930 . S
H66 C46 0.931 . S
H67 C47 0.930 . S
H68 C55 0.931 . S
H69 C56 0.929 . S
H70 C64 0.929 . S
H71 C65 0.930 . S
Mn72 O77 2.095 . S
Mn72 O87 2.162 . S
Mn72 O88 2.297 . S
Mn72 O96 2.385 . S
Mn72 O97 2.209 . S
Mn72 O98 2.094 . S
Mn73 O78 2.121 . S
Mn73 N80 2.257 . S
Mn73 N89 2.282 . S
Mn73 O97 2.215 . S
Mn73 O99 2.117 . S
C74 O96 1.234 . S
C74 O97 1.283 . S
C75 O87 1.281 . S
C75 O88 1.236 . S
C76 O98 1.240 . S
C76 O99 1.264 . S
O77 Mn72 2.095 . S
O77 C86 1.250 . S
O78 Mn73 2.121 . S
O78 C86 1.258 . S
C79 N80 1.326 . S
C79 C83 1.460 . S
C79 H85 0.929 . S
N80 Mn73 2.257 . S
N80 C79 1.326 . S
N80 C84 1.362 . S
C81 C82 1.258 . S
C81 C84 1.431 . S
C81 C101 1.449 . S
C82 C81 1.258 . S
C82 C83 1.477 . S
C82 H102 0.931 . S
C83 C79 1.460 . S
C83 C82 1.477 . S
C83 H103 0.930 . S
C84 N80 1.362 . S
C84 C81 1.431 . S
C84 C94 1.476 . S
H85 C79 0.929 . S
C86 O77 1.250 . S
C86 O78 1.258 . S
O87 Mn72 2.162 . S
O87 C75 1.281 . S
O88 Mn72 2.297 . S
O88 C75 1.236 . S
N89 Mn73 2.282 . S
N89 C90 1.328 . S
N89 C94 1.318 . S
C90 N89 1.328 . S
C90 C91 1.457 . S
C90 H95 0.929 . S
C91 C90 1.457 . S
C91 C92 1.291 . S
C91 H104 0.931 . S
C92 C91 1.291 . S
C92 C93 1.373 . S
C92 H105 0.929 . S
C93 C92 1.373 . S
C93 C94 1.396 . S
C93 C100 1.403 . S
C94 C84 1.476 . S
C94 N89 1.318 . S
C94 C93 1.396 . S
H95 C90 0.929 . S
O96 Mn72 2.385 . S
O96 C74 1.234 . S
O97 Mn72 2.209 . S
O97 Mn73 2.215 . S
O97 C74 1.283 . S
O98 Mn72 2.094 . S
O98 C76 1.240 . S
O99 Mn73 2.117 . S
O99 C76 1.264 . S
C100 C93 1.403 . S
C100 C101 1.399 . S
C100 H106 0.929 . S
C101 C81 1.449 . S
C101 C100 1.399 . S
C101 H107 0.930 . S
H102 C82 0.931 . S
H103 C83 0.930 . S
H104 C91 0.931 . S
H105 C92 0.929 . S
H106 C100 0.929 . S
H107 C101 0.930 . S
Mn108 O113 2.095 . S
Mn108 O123 2.162 . S
Mn108 O124 2.297 . S
Mn108 O132 2.385 . S
Mn108 O133 2.209 . S
Mn108 O134 2.094 . S
Mn109 O114 2.121 . S
Mn109 N116 2.257 . S
Mn109 N125 2.282 . S
Mn109 O133 2.215 . S
Mn109 O135 2.117 . S
C110 O132 1.234 . S
C110 O133 1.283 . S
C111 O123 1.281 . S
C111 O124 1.236 . S
C112 O134 1.240 . S
C112 O135 1.264 . S
O113 Mn108 2.095 . S
O113 C122 1.250 . S
O114 Mn109 2.121 . S
O114 C122 1.258 . S
C115 N116 1.326 . S
C115 C119 1.460 . S
C115 H121 0.929 . S
N116 Mn109 2.257 . S
N116 C115 1.326 . S
N116 C120 1.362 . S
C117 C118 1.258 . S
C117 C120 1.431 . S
C117 C137 1.449 . S
C118 C117 1.258 . S
C118 C119 1.477 . S
C118 H138 0.931 . S
C119 C115 1.460 . S
C119 C118 1.477 . S
C119 H139 0.930 . S
C120 N116 1.362 . S
C120 C117 1.431 . S
C120 C130 1.476 . S
H121 C115 0.929 . S
C122 O113 1.250 . S
C122 O114 1.258 . S
O123 Mn108 2.162 . S
O123 C111 1.281 . S
O124 Mn108 2.297 . S
O124 C111 1.236 . S
N125 Mn109 2.282 . S
N125 C126 1.328 . S
N125 C130 1.318 . S
C126 N125 1.328 . S
C126 C127 1.457 . S
C126 H131 0.929 . S
C127 C126 1.457 . S
C127 C128 1.291 . S
C127 H140 0.931 . S
C128 C127 1.291 . S
C128 C129 1.373 . S
C128 H141 0.929 . S
C129 C128 1.373 . S
C129 C130 1.396 . S
C129 C136 1.403 . S
C130 C120 1.476 . S
C130 N125 1.318 . S
C130 C129 1.396 . S
H131 C126 0.929 . S
O132 Mn108 2.385 . S
O132 C110 1.234 . S
O133 Mn108 2.209 . S
O133 Mn109 2.215 . S
O133 C110 1.283 . S
O134 Mn108 2.094 . S
O134 C112 1.240 . S
O135 Mn109 2.117 . S
O135 C112 1.264 . S
C136 C129 1.403 . S
C136 C137 1.399 . S
C136 H142 0.929 . S
C137 C117 1.449 . S
C137 C136 1.399 . S
C137 H143 0.930 . S
H138 C118 0.931 . S
H139 C119 0.930 . S
H140 C127 0.931 . S
H141 C128 0.929 . S
H142 C136 0.929 . S
H143 C137 0.930 . S
Mn144 O149 2.095 . S
Mn144 O159 2.162 . S
Mn144 O160 2.297 . S
Mn144 O168 2.385 . S
Mn144 O169 2.209 . S
Mn144 O170 2.094 . S
Mn145 O150 2.121 . S
Mn145 N152 2.257 . S
Mn145 N161 2.282 . S
Mn145 O169 2.215 . S
Mn145 O171 2.117 . S
C146 O168 1.234 . S
C146 O169 1.283 . S
C147 O159 1.281 . S
C147 O160 1.236 . S
C148 O170 1.240 . S
C148 O171 1.264 . S
O149 Mn144 2.095 . S
O149 C158 1.250 . S
O150 Mn145 2.121 . S
O150 C158 1.258 . S
C151 N152 1.326 . S
C151 C155 1.460 . S
C151 H157 0.929 . S
N152 Mn145 2.257 . S
N152 C151 1.326 . S
N152 C156 1.362 . S
C153 C154 1.258 . S
C153 C156 1.431 . S
C153 C173 1.449 . S
C154 C153 1.258 . S
C154 C155 1.477 . S
C154 H174 0.931 . S
C155 C151 1.460 . S
C155 C154 1.477 . S
C155 H175 0.930 . S
C156 N152 1.362 . S
C156 C153 1.431 . S
C156 C166 1.476 . S
H157 C151 0.929 . S
C158 O149 1.250 . S
C158 O150 1.258 . S
O159 Mn144 2.162 . S
O159 C147 1.281 . S
O160 Mn144 2.297 . S
O160 C147 1.236 . S
N161 Mn145 2.282 . S
N161 C162 1.328 . S
N161 C166 1.318 . S
C162 N161 1.328 . S
C162 C163 1.457 . S
C162 H167 0.929 . S
C163 C162 1.457 . S
C163 C164 1.291 . S
C163 H176 0.931 . S
C164 C163 1.291 . S
C164 C165 1.373 . S
C164 H177 0.929 . S
C165 C164 1.373 . S
C165 C166 1.396 . S
C165 C172 1.403 . S
C166 C156 1.476 . S
C166 N161 1.318 . S
C166 C165 1.396 . S
H167 C162 0.929 . S
O168 Mn144 2.385 . S
O168 C146 1.234 . S
O169 Mn144 2.209 . S
O169 Mn145 2.215 . S
O169 C146 1.283 . S
O170 Mn144 2.094 . S
O170 C148 1.240 . S
O171 Mn145 2.117 . S
O171 C148 1.264 . S
C172 C165 1.403 . S
C172 C173 1.399 . S
C172 H178 0.929 . S
C173 C153 1.449 . S
C173 C172 1.399 . S
C173 H179 0.930 . S
H174 C154 0.931 . S
H175 C155 0.930 . S
H176 C163 0.931 . S
H177 C164 0.929 . S
H178 C172 0.929 . S
H179 C173 0.930 . S
Mn180 O185 2.095 . S
Mn180 O195 2.162 . S
Mn180 O196 2.297 . S
Mn180 O204 2.385 . S
Mn180 O205 2.209 . S
Mn180 O206 2.094 . S
Mn181 O186 2.121 . S
Mn181 N188 2.257 . S
Mn181 N197 2.282 . S
Mn181 O205 2.215 . S
Mn181 O207 2.117 . S
C182 O204 1.234 . S
C182 O205 1.283 . S
C183 O195 1.281 . S
C183 O196 1.236 . S
C184 O206 1.240 . S
C184 O207 1.264 . S
O185 Mn180 2.095 . S
O185 C194 1.250 . S
O186 Mn181 2.121 . S
O186 C194 1.258 . S
C187 N188 1.326 . S
C187 C191 1.460 . S
C187 H193 0.929 . S
N188 Mn181 2.257 . S
N188 C187 1.326 . S
N188 C192 1.362 . S
C189 C190 1.258 . S
C189 C192 1.431 . S
C189 C209 1.449 . S
C190 C189 1.258 . S
C190 C191 1.477 . S
C190 H210 0.931 . S
C191 C187 1.460 . S
C191 C190 1.477 . S
C191 H211 0.930 . S
C192 N188 1.362 . S
C192 C189 1.431 . S
C192 C202 1.476 . S
H193 C187 0.929 . S
C194 O185 1.250 . S
C194 O186 1.258 . S
O195 Mn180 2.162 . S
O195 C183 1.281 . S
O196 Mn180 2.297 . S
O196 C183 1.236 . S
N197 Mn181 2.282 . S
N197 C198 1.328 . S
N197 C202 1.318 . S
C198 N197 1.328 . S
C198 C199 1.457 . S
C198 H203 0.929 . S
C199 C198 1.457 . S
C199 C200 1.291 . S
C199 H212 0.931 . S
C200 C199 1.291 . S
C200 C201 1.373 . S
C200 H213 0.929 . S
C201 C200 1.373 . S
C201 C202 1.396 . S
C201 C208 1.403 . S
C202 C192 1.476 . S
C202 N197 1.318 . S
C202 C201 1.396 . S
H203 C198 0.929 . S
O204 Mn180 2.385 . S
O204 C182 1.234 . S
O205 Mn180 2.209 . S
O205 Mn181 2.215 . S
O205 C182 1.283 . S
O206 Mn180 2.094 . S
O206 C184 1.240 . S
O207 Mn181 2.117 . S
O207 C184 1.264 . S
C208 C201 1.403 . S
C208 C209 1.399 . S
C208 H214 0.929 . S
C209 C189 1.449 . S
C209 C208 1.399 . S
C209 H215 0.930 . S
H210 C190 0.931 . S
H211 C191 0.930 . S
H212 C199 0.931 . S
H213 C200 0.929 . S
H214 C208 0.929 . S
H215 C209 0.930 . S
Mn216 O221 2.095 . S
Mn216 O231 2.162 . S
Mn216 O232 2.297 . S
Mn216 O240 2.385 . S
Mn216 O241 2.209 . S
Mn216 O242 2.094 . S
Mn217 O222 2.121 . S
Mn217 N224 2.257 . S
Mn217 N233 2.282 . S
Mn217 O241 2.215 . S
Mn217 O243 2.117 . S
C218 O240 1.234 . S
C218 O241 1.283 . S
C219 O231 1.281 . S
C219 O232 1.236 . S
C220 O242 1.240 . S
C220 O243 1.264 . S
O221 Mn216 2.095 . S
O221 C230 1.250 . S
O222 Mn217 2.121 . S
O222 C230 1.258 . S
C223 N224 1.326 . S
C223 C227 1.460 . S
C223 H229 0.929 . S
N224 Mn217 2.257 . S
N224 C223 1.326 . S
N224 C228 1.362 . S
C225 C226 1.258 . S
C225 C228 1.431 . S
C225 C245 1.449 . S
C226 C225 1.258 . S
C226 C227 1.477 . S
C226 H246 0.931 . S
C227 C223 1.460 . S
C227 C226 1.477 . S
C227 H247 0.930 . S
C228 N224 1.362 . S
C228 C225 1.431 . S
C228 C238 1.476 . S
H229 C223 0.929 . S
C230 O221 1.250 . S
C230 O222 1.258 . S
O231 Mn216 2.162 . S
O231 C219 1.281 . S
O232 Mn216 2.297 . S
O232 C219 1.236 . S
N233 Mn217 2.282 . S
N233 C234 1.328 . S
N233 C238 1.318 . S
C234 N233 1.328 . S
C234 C235 1.457 . S
C234 H239 0.929 . S
C235 C234 1.457 . S
C235 C236 1.291 . S
C235 H248 0.931 . S
C236 C235 1.291 . S
C236 C237 1.373 . S
C236 H249 0.929 . S
C237 C236 1.373 . S
C237 C238 1.396 . S
C237 C244 1.403 . S
C238 C228 1.476 . S
C238 N233 1.318 . S
C238 C237 1.396 . S
H239 C234 0.929 . S
O240 Mn216 2.385 . S
O240 C218 1.234 . S
O241 Mn216 2.209 . S
O241 Mn217 2.215 . S
O241 C218 1.283 . S
O242 Mn216 2.094 . S
O242 C220 1.240 . S
O243 Mn217 2.117 . S
O243 C220 1.264 . S
C244 C237 1.403 . S
C244 C245 1.399 . S
C244 H250 0.929 . S
C245 C225 1.449 . S
C245 C244 1.399 . S
C245 H251 0.930 . S
H246 C226 0.931 . S
H247 C227 0.930 . S
H248 C235 0.931 . S
H249 C236 0.929 . S
H250 C244 0.929 . S
H251 C245 0.930 . S
Mn252 O257 2.095 . S
Mn252 O267 2.162 . S
Mn252 O268 2.297 . S
Mn252 O276 2.385 . S
Mn252 O277 2.209 . S
Mn252 O278 2.094 . S
Mn253 O258 2.121 . S
Mn253 N260 2.257 . S
Mn253 N269 2.282 . S
Mn253 O277 2.215 . S
Mn253 O279 2.117 . S
C254 O276 1.234 . S
C254 O277 1.283 . S
C255 O267 1.281 . S
C255 O268 1.236 . S
C256 O278 1.240 . S
C256 O279 1.264 . S
O257 Mn252 2.095 . S
O257 C266 1.250 . S
O258 Mn253 2.121 . S
O258 C266 1.258 . S
C259 N260 1.326 . S
C259 C263 1.460 . S
C259 H265 0.929 . S
N260 Mn253 2.257 . S
N260 C259 1.326 . S
N260 C264 1.362 . S
C261 C262 1.258 . S
C261 C264 1.431 . S
C261 C281 1.449 . S
C262 C261 1.258 . S
C262 C263 1.477 . S
C262 H282 0.931 . S
C263 C259 1.460 . S
C263 C262 1.477 . S
C263 H283 0.930 . S
C264 N260 1.362 . S
C264 C261 1.431 . S
C264 C274 1.476 . S
H265 C259 0.929 . S
C266 O257 1.250 . S
C266 O258 1.258 . S
O267 Mn252 2.162 . S
O267 C255 1.281 . S
O268 Mn252 2.297 . S
O268 C255 1.236 . S
N269 Mn253 2.282 . S
N269 C270 1.328 . S
N269 C274 1.318 . S
C270 N269 1.328 . S
C270 C271 1.457 . S
C270 H275 0.929 . S
C271 C270 1.457 . S
C271 C272 1.291 . S
C271 H284 0.931 . S
C272 C271 1.291 . S
C272 C273 1.373 . S
C272 H285 0.929 . S
C273 C272 1.373 . S
C273 C274 1.396 . S
C273 C280 1.403 . S
C274 C264 1.476 . S
C274 N269 1.318 . S
C274 C273 1.396 . S
H275 C270 0.929 . S
O276 Mn252 2.385 . S
O276 C254 1.234 . S
O277 Mn252 2.209 . S
O277 Mn253 2.215 . S
O277 C254 1.283 . S
O278 Mn252 2.094 . S
O278 C256 1.240 . S
O279 Mn253 2.117 . S
O279 C256 1.264 . S
C280 C273 1.403 . S
C280 C281 1.399 . S
C280 H286 0.929 . S
C281 C261 1.449 . S
C281 C280 1.399 . S
C281 H287 0.930 . S
H282 C262 0.931 . S
H283 C263 0.930 . S
H284 C271 0.931 . S
H285 C272 0.929 . S
H286 C280 0.929 . S
H287 C281 0.930 . S
Mn288 O293 2.095 . S
Mn288 O303 2.162 . S
Mn288 O304 2.297 . S
Mn288 O312 2.385 . S
Mn288 O313 2.209 . S
Mn288 O314 2.094 . S
Mn289 O294 2.121 . S
Mn289 N296 2.257 . S
Mn289 N305 2.282 . S
Mn289 O313 2.215 . S
Mn289 O315 2.117 . S
C290 O312 1.234 . S
C290 O313 1.283 . S
C291 O303 1.281 . S
C291 O304 1.236 . S
C292 O314 1.240 . S
C292 O315 1.264 . S
O293 Mn288 2.095 . S
O293 C302 1.250 . S
O294 Mn289 2.121 . S
O294 C302 1.258 . S
C295 N296 1.326 . S
C295 C299 1.460 . S
C295 H301 0.929 . S
N296 Mn289 2.257 . S
N296 C295 1.326 . S
N296 C300 1.362 . S
C297 C298 1.258 . S
C297 C300 1.431 . S
C297 C317 1.449 . S
C298 C297 1.258 . S
C298 C299 1.477 . S
C298 H318 0.931 . S
C299 C295 1.460 . S
C299 C298 1.477 . S
C299 H319 0.930 . S
C300 N296 1.362 . S
C300 C297 1.431 . S
C300 C310 1.476 . S
H301 C295 0.929 . S
C302 O293 1.250 . S
C302 O294 1.258 . S
O303 Mn288 2.162 . S
O303 C291 1.281 . S
O304 Mn288 2.297 . S
O304 C291 1.236 . S
N305 Mn289 2.282 . S
N305 C306 1.328 . S
N305 C310 1.318 . S
C306 N305 1.328 . S
C306 C307 1.457 . S
C306 H311 0.929 . S
C307 C306 1.457 . S
C307 C308 1.291 . S
C307 H320 0.931 . S
C308 C307 1.291 . S
C308 C309 1.373 . S
C308 H321 0.929 . S
C309 C308 1.373 . S
C309 C310 1.396 . S
C309 C316 1.403 . S
C310 C300 1.476 . S
C310 N305 1.318 . S
C310 C309 1.396 . S
H311 C306 0.929 . S
O312 Mn288 2.385 . S
O312 C290 1.234 . S
O313 Mn288 2.209 . S
O313 Mn289 2.215 . S
O313 C290 1.283 . S
O314 Mn288 2.094 . S
O314 C292 1.240 . S
O315 Mn289 2.117 . S
O315 C292 1.264 . S
C316 C309 1.403 . S
C316 C317 1.399 . S
C316 H322 0.929 . S
C317 C297 1.449 . S
C317 C316 1.399 . S
C317 H323 0.930 . S
H318 C298 0.931 . S
H319 C299 0.930 . S
H320 C307 0.931 . S
H321 C308 0.929 . S
H322 C316 0.929 . S
H323 C317 0.930 . S
Mn324 O329 2.095 . S
Mn324 O339 2.162 . S
Mn324 O340 2.297 . S
Mn324 O348 2.385 . S
Mn324 O349 2.209 . S
Mn324 O350 2.094 . S
Mn325 O330 2.121 . S
Mn325 N332 2.257 . S
Mn325 N341 2.282 . S
Mn325 O349 2.215 . S
Mn325 O351 2.117 . S
C326 O348 1.234 . S
C326 O349 1.283 . S
C327 O339 1.281 . S
C327 O340 1.236 . S
C328 O350 1.240 . S
C328 O351 1.264 . S
O329 Mn324 2.095 . S
O329 C338 1.250 . S
O330 Mn325 2.121 . S
O330 C338 1.258 . S
C331 N332 1.326 . S
C331 C335 1.460 . S
C331 H337 0.929 . S
N332 Mn325 2.257 . S
N332 C331 1.326 . S
N332 C336 1.362 . S
C333 C334 1.258 . S
C333 C336 1.431 . S
C333 C353 1.449 . S
C334 C333 1.258 . S
C334 C335 1.477 . S
C334 H354 0.931 . S
C335 C331 1.460 . S
C335 C334 1.477 . S
C335 H355 0.930 . S
C336 N332 1.362 . S
C336 C333 1.431 . S
C336 C346 1.476 . S
H337 C331 0.929 . S
C338 O329 1.250 . S
C338 O330 1.258 . S
O339 Mn324 2.162 . S
O339 C327 1.281 . S
O340 Mn324 2.297 . S
O340 C327 1.236 . S
N341 Mn325 2.282 . S
N341 C342 1.328 . S
N341 C346 1.318 . S
C342 N341 1.328 . S
C342 C343 1.457 . S
C342 H347 0.929 . S
C343 C342 1.457 . S
C343 C344 1.291 . S
C343 H356 0.931 . S
C344 C343 1.291 . S
C344 C345 1.373 . S
C344 H357 0.929 . S
C345 C344 1.373 . S
C345 C346 1.396 . S
C345 C352 1.403 . S
C346 C336 1.476 . S
C346 N341 1.318 . S
C346 C345 1.396 . S
H347 C342 0.929 . S
O348 Mn324 2.385 . S
O348 C326 1.234 . S
O349 Mn324 2.209 . S
O349 Mn325 2.215 . S
O349 C326 1.283 . S
O350 Mn324 2.094 . S
O350 C328 1.240 . S
O351 Mn325 2.117 . S
O351 C328 1.264 . S
C352 C345 1.403 . S
C352 C353 1.399 . S
C352 H358 0.929 . S
C353 C333 1.449 . S
C353 C352 1.399 . S
C353 H359 0.930 . S
H354 C334 0.931 . S
H355 C335 0.930 . S
H356 C343 0.931 . S
H357 C344 0.929 . S
H358 C352 0.929 . S
H359 C353 0.930 . S
Mn360 O365 2.095 . S
Mn360 O375 2.162 . S
Mn360 O376 2.297 . S
Mn360 O384 2.385 . S
Mn360 O385 2.209 . S
Mn360 O386 2.094 . S
Mn361 O366 2.121 . S
Mn361 N368 2.257 . S
Mn361 N377 2.282 . S
Mn361 O385 2.215 . S
Mn361 O387 2.117 . S
C362 O384 1.234 . S
C362 O385 1.283 . S
C363 O375 1.281 . S
C363 O376 1.236 . S
C364 O386 1.240 . S
C364 O387 1.264 . S
O365 Mn360 2.095 . S
O365 C374 1.250 . S
O366 Mn361 2.121 . S
O366 C374 1.258 . S
C367 N368 1.326 . S
C367 C371 1.460 . S
C367 H373 0.929 . S
N368 Mn361 2.257 . S
N368 C367 1.326 . S
N368 C372 1.362 . S
C369 C370 1.258 . S
C369 C372 1.431 . S
C369 C389 1.449 . S
C370 C369 1.258 . S
C370 C371 1.477 . S
C370 H390 0.931 . S
C371 C367 1.460 . S
C371 C370 1.477 . S
C371 H391 0.930 . S
C372 N368 1.362 . S
C372 C369 1.431 . S
C372 C382 1.476 . S
H373 C367 0.929 . S
C374 O365 1.250 . S
C374 O366 1.258 . S
O375 Mn360 2.162 . S
O375 C363 1.281 . S
O376 Mn360 2.297 . S
O376 C363 1.236 . S
N377 Mn361 2.282 . S
N377 C378 1.328 . S
N377 C382 1.318 . S
C378 N377 1.328 . S
C378 C379 1.457 . S
C378 H383 0.929 . S
C379 C378 1.457 . S
C379 C380 1.291 . S
C379 H392 0.931 . S
C380 C379 1.291 . S
C380 C381 1.373 . S
C380 H393 0.929 . S
C381 C380 1.373 . S
C381 C382 1.396 . S
C381 C388 1.403 . S
C382 C372 1.476 . S
C382 N377 1.318 . S
C382 C381 1.396 . S
H383 C378 0.929 . S
O384 Mn360 2.385 . S
O384 C362 1.234 . S
O385 Mn360 2.209 . S
O385 Mn361 2.215 . S
O385 C362 1.283 . S
O386 Mn360 2.094 . S
O386 C364 1.240 . S
O387 Mn361 2.117 . S
O387 C364 1.264 . S
C388 C381 1.403 . S
C388 C389 1.399 . S
C388 H394 0.929 . S
C389 C369 1.449 . S
C389 C388 1.399 . S
C389 H395 0.930 . S
H390 C370 0.931 . S
H391 C371 0.930 . S
H392 C379 0.931 . S
H393 C380 0.929 . S
H394 C388 0.929 . S
H395 C389 0.930 . S
Mn396 O401 2.095 . S
Mn396 O411 2.162 . S
Mn396 O412 2.297 . S
Mn396 O420 2.385 . S
Mn396 O421 2.209 . S
Mn396 O422 2.094 . S
Mn397 O402 2.121 . S
Mn397 N404 2.257 . S
Mn397 N413 2.282 . S
Mn397 O421 2.215 . S
Mn397 O423 2.117 . S
C398 O420 1.234 . S
C398 O421 1.283 . S
C399 O411 1.281 . S
C399 O412 1.236 . S
C400 O422 1.240 . S
C400 O423 1.264 . S
O401 Mn396 2.095 . S
O401 C410 1.250 . S
O402 Mn397 2.121 . S
O402 C410 1.258 . S
C403 N404 1.326 . S
C403 C407 1.460 . S
C403 H409 0.929 . S
N404 Mn397 2.257 . S
N404 C403 1.326 . S
N404 C408 1.362 . S
C405 C406 1.258 . S
C405 C408 1.431 . S
C405 C425 1.449 . S
C406 C405 1.258 . S
C406 C407 1.477 . S
C406 H426 0.931 . S
C407 C403 1.460 . S
C407 C406 1.477 . S
C407 H427 0.930 . S
C408 N404 1.362 . S
C408 C405 1.431 . S
C408 C418 1.476 . S
H409 C403 0.929 . S
C410 O401 1.250 . S
C410 O402 1.258 . S
O411 Mn396 2.162 . S
O411 C399 1.281 . S
O412 Mn396 2.297 . S
O412 C399 1.236 . S
N413 Mn397 2.282 . S
N413 C414 1.328 . S
N413 C418 1.318 . S
C414 N413 1.328 . S
C414 C415 1.457 . S
C414 H419 0.929 . S
C415 C414 1.457 . S
C415 C416 1.291 . S
C415 H428 0.931 . S
C416 C415 1.291 . S
C416 C417 1.373 . S
C416 H429 0.929 . S
C417 C416 1.373 . S
C417 C418 1.396 . S
C417 C424 1.403 . S
C418 C408 1.476 . S
C418 N413 1.318 . S
C418 C417 1.396 . S
H419 C414 0.929 . S
O420 Mn396 2.385 . S
O420 C398 1.234 . S
O421 Mn396 2.209 . S
O421 Mn397 2.215 . S
O421 C398 1.283 . S
O422 Mn396 2.094 . S
O422 C400 1.240 . S
O423 Mn397 2.117 . S
O423 C400 1.264 . S
C424 C417 1.403 . S
C424 C425 1.399 . S
C424 H430 0.929 . S
C425 C405 1.449 . S
C425 C424 1.399 . S
C425 H431 0.930 . S
H426 C406 0.931 . S
H427 C407 0.930 . S
H428 C415 0.931 . S
H429 C416 0.929 . S
H430 C424 0.929 . S
H431 C425 0.930 . S
Mn432 O437 2.095 . S
Mn432 O447 2.162 . S
Mn432 O448 2.297 . S
Mn432 O456 2.385 . S
Mn432 O457 2.209 . S
Mn432 O458 2.094 . S
Mn433 O438 2.121 . S
Mn433 N440 2.257 . S
Mn433 N449 2.282 . S
Mn433 O457 2.215 . S
Mn433 O459 2.117 . S
C434 O456 1.234 . S
C434 O457 1.283 . S
C435 O447 1.281 . S
C435 O448 1.236 . S
C436 O458 1.240 . S
C436 O459 1.264 . S
O437 Mn432 2.095 . S
O437 C446 1.250 . S
O438 Mn433 2.121 . S
O438 C446 1.258 . S
C439 N440 1.326 . S
C439 C443 1.460 . S
C439 H445 0.929 . S
N440 Mn433 2.257 . S
N440 C439 1.326 . S
N440 C444 1.362 . S
C441 C442 1.258 . S
C441 C444 1.431 . S
C441 C461 1.449 . S
C442 C441 1.258 . S
C442 C443 1.477 . S
C442 H462 0.931 . S
C443 C439 1.460 . S
C443 C442 1.477 . S
C443 H463 0.930 . S
C444 N440 1.362 . S
C444 C441 1.431 . S
C444 C454 1.476 . S
H445 C439 0.929 . S
C446 O437 1.250 . S
C446 O438 1.258 . S
O447 Mn432 2.162 . S
O447 C435 1.281 . S
O448 Mn432 2.297 . S
O448 C435 1.236 . S
N449 Mn433 2.282 . S
N449 C450 1.328 . S
N449 C454 1.318 . S
C450 N449 1.328 . S
C450 C451 1.457 . S
C450 H455 0.929 . S
C451 C450 1.457 . S
C451 C452 1.291 . S
C451 H464 0.931 . S
C452 C451 1.291 . S
C452 C453 1.373 . S
C452 H465 0.929 . S
C453 C452 1.373 . S
C453 C454 1.396 . S
C453 C460 1.403 . S
C454 C444 1.476 . S
C454 N449 1.318 . S
C454 C453 1.396 . S
H455 C450 0.929 . S
O456 Mn432 2.385 . S
O456 C434 1.234 . S
O457 Mn432 2.209 . S
O457 Mn433 2.215 . S
O457 C434 1.283 . S
O458 Mn432 2.094 . S
O458 C436 1.240 . S
O459 Mn433 2.117 . S
O459 C436 1.264 . S
C460 C453 1.403 . S
C460 C461 1.399 . S
C460 H466 0.929 . S
C461 C441 1.449 . S
C461 C460 1.399 . S
C461 H467 0.930 . S
H462 C442 0.931 . S
H463 C443 0.930 . S
H464 C451 0.931 . S
H465 C452 0.929 . S
H466 C460 0.929 . S
H467 C461 0.930 . S
Mn468 O473 2.095 . S
Mn468 O483 2.162 . S
Mn468 O484 2.297 . S
Mn468 O492 2.385 . S
Mn468 O493 2.209 . S
Mn468 O494 2.094 . S
Mn469 O474 2.121 . S
Mn469 N476 2.257 . S
Mn469 N485 2.282 . S
Mn469 O493 2.215 . S
Mn469 O495 2.117 . S
C470 O492 1.234 . S
C470 O493 1.283 . S
C471 O483 1.281 . S
C471 O484 1.236 . S
C472 O494 1.240 . S
C472 O495 1.264 . S
O473 Mn468 2.095 . S
O473 C482 1.250 . S
O474 Mn469 2.121 . S
O474 C482 1.258 . S
C475 N476 1.326 . S
C475 C479 1.460 . S
C475 H481 0.929 . S
N476 Mn469 2.257 . S
N476 C475 1.326 . S
N476 C480 1.362 . S
C477 C478 1.258 . S
C477 C480 1.431 . S
C477 C497 1.449 . S
C478 C477 1.258 . S
C478 C479 1.477 . S
C478 H498 0.931 . S
C479 C475 1.460 . S
C479 C478 1.477 . S
C479 H499 0.930 . S
C480 N476 1.362 . S
C480 C477 1.431 . S
C480 C490 1.476 . S
H481 C475 0.929 . S
C482 O473 1.250 . S
C482 O474 1.258 . S
O483 Mn468 2.162 . S
O483 C471 1.281 . S
O484 Mn468 2.297 . S
O484 C471 1.236 . S
N485 Mn469 2.282 . S
N485 C486 1.328 . S
N485 C490 1.318 . S
C486 N485 1.328 . S
C486 C487 1.457 . S
C486 H491 0.929 . S
C487 C486 1.457 . S
C487 C488 1.291 . S
C487 H500 0.931 . S
C488 C487 1.291 . S
C488 C489 1.373 . S
C488 H501 0.929 . S
C489 C488 1.373 . S
C489 C490 1.396 . S
C489 C496 1.403 . S
C490 C480 1.476 . S
C490 N485 1.318 . S
C490 C489 1.396 . S
H491 C486 0.929 . S
O492 Mn468 2.385 . S
O492 C470 1.234 . S
O493 Mn468 2.209 . S
O493 Mn469 2.215 . S
O493 C470 1.283 . S
O494 Mn468 2.094 . S
O494 C472 1.240 . S
O495 Mn469 2.117 . S
O495 C472 1.264 . S
C496 C489 1.403 . S
C496 C497 1.399 . S
C496 H502 0.929 . S
C497 C477 1.449 . S
C497 C496 1.399 . S
C497 H503 0.930 . S
H498 C478 0.931 . S
H499 C479 0.930 . S
H500 C487 0.931 . S
H501 C488 0.929 . S
H502 C496 0.929 . S
H503 C497 0.930 . S
Mn504 O509 2.095 . S
Mn504 O519 2.162 . S
Mn504 O520 2.297 . S
Mn504 O528 2.385 . S
Mn504 O529 2.209 . S
Mn504 O530 2.094 . S
Mn505 O510 2.121 . S
Mn505 N512 2.257 . S
Mn505 N521 2.282 . S
Mn505 O529 2.215 . S
Mn505 O531 2.117 . S
C506 O528 1.234 . S
C506 O529 1.283 . S
C507 O519 1.281 . S
C507 O520 1.236 . S
C508 O530 1.240 . S
C508 O531 1.264 . S
O509 Mn504 2.095 . S
O509 C518 1.250 . S
O510 Mn505 2.121 . S
O510 C518 1.258 . S
C511 N512 1.326 . S
C511 C515 1.460 . S
C511 H517 0.929 . S
N512 Mn505 2.257 . S
N512 C511 1.326 . S
N512 C516 1.362 . S
C513 C514 1.258 . S
C513 C516 1.431 . S
C513 C533 1.449 . S
C514 C513 1.258 . S
C514 C515 1.477 . S
C514 H534 0.931 . S
C515 C511 1.460 . S
C515 C514 1.477 . S
C515 H535 0.930 . S
C516 N512 1.362 . S
C516 C513 1.431 . S
C516 C526 1.476 . S
H517 C511 0.929 . S
C518 O509 1.250 . S
C518 O510 1.258 . S
O519 Mn504 2.162 . S
O519 C507 1.281 . S
O520 Mn504 2.297 . S
O520 C507 1.236 . S
N521 Mn505 2.282 . S
N521 C522 1.328 . S
N521 C526 1.318 . S
C522 N521 1.328 . S
C522 C523 1.457 . S
C522 H527 0.929 . S
C523 C522 1.457 . S
C523 C524 1.291 . S
C523 H536 0.931 . S
C524 C523 1.291 . S
C524 C525 1.373 . S
C524 H537 0.929 . S
C525 C524 1.373 . S
C525 C526 1.396 . S
C525 C532 1.403 . S
C526 C516 1.476 . S
C526 N521 1.318 . S
C526 C525 1.396 . S
H527 C522 0.929 . S
O528 Mn504 2.385 . S
O528 C506 1.234 . S
O529 Mn504 2.209 . S
O529 Mn505 2.215 . S
O529 C506 1.283 . S
O530 Mn504 2.094 . S
O530 C508 1.240 . S
O531 Mn505 2.117 . S
O531 C508 1.264 . S
C532 C525 1.403 . S
C532 C533 1.399 . S
C532 H538 0.929 . S
C533 C513 1.449 . S
C533 C532 1.399 . S
C533 H539 0.930 . S
H534 C514 0.931 . S
H535 C515 0.930 . S
H536 C523 0.931 . S
H537 C524 0.929 . S
H538 C532 0.929 . S
H539 C533 0.930 . S
Mn540 O545 2.095 . S
Mn540 O555 2.162 . S
Mn540 O556 2.297 . S
Mn540 O564 2.385 . S
Mn540 O565 2.209 . S
Mn540 O566 2.094 . S
Mn541 O546 2.121 . S
Mn541 N548 2.257 . S
Mn541 N557 2.282 . S
Mn541 O565 2.215 . S
Mn541 O567 2.117 . S
C542 O564 1.234 . S
C542 O565 1.283 . S
C543 O555 1.281 . S
C543 O556 1.236 . S
C544 O566 1.240 . S
C544 O567 1.264 . S
O545 Mn540 2.095 . S
O545 C554 1.250 . S
O546 Mn541 2.121 . S
O546 C554 1.258 . S
C547 N548 1.326 . S
C547 C551 1.460 . S
C547 H553 0.929 . S
N548 Mn541 2.257 . S
N548 C547 1.326 . S
N548 C552 1.362 . S
C549 C550 1.258 . S
C549 C552 1.431 . S
C549 C569 1.449 . S
C550 C549 1.258 . S
C550 C551 1.477 . S
C550 H570 0.931 . S
C551 C547 1.460 . S
C551 C550 1.477 . S
C551 H571 0.930 . S
C552 N548 1.362 . S
C552 C549 1.431 . S
C552 C562 1.476 . S
H553 C547 0.929 . S
C554 O545 1.250 . S
C554 O546 1.258 . S
O555 Mn540 2.162 . S
O555 C543 1.281 . S
O556 Mn540 2.297 . S
O556 C543 1.236 . S
N557 Mn541 2.282 . S
N557 C558 1.328 . S
N557 C562 1.318 . S
C558 N557 1.328 . S
C558 C559 1.457 . S
C558 H563 0.929 . S
C559 C558 1.457 . S
C559 C560 1.291 . S
C559 H572 0.931 . S
C560 C559 1.291 . S
C560 C561 1.373 . S
C560 H573 0.929 . S
C561 C560 1.373 . S
C561 C562 1.396 . S
C561 C568 1.403 . S
C562 C552 1.476 . S
C562 N557 1.318 . S
C562 C561 1.396 . S
H563 C558 0.929 . S
O564 Mn540 2.385 . S
O564 C542 1.234 . S
O565 Mn540 2.209 . S
O565 Mn541 2.215 . S
O565 C542 1.283 . S
O566 Mn540 2.094 . S
O566 C544 1.240 . S
O567 Mn541 2.117 . S
O567 C544 1.264 . S
C568 C561 1.403 . S
C568 C569 1.399 . S
C568 H574 0.929 . S
C569 C549 1.449 . S
C569 C568 1.399 . S
C569 H575 0.930 . S
H570 C550 0.931 . S
H571 C551 0.930 . S
H572 C559 0.931 . S
H573 C560 0.929 . S
H574 C568 0.929 . S
H575 C569 0.930 . S
Mn576 O581 2.095 . S
Mn576 O591 2.162 . S
Mn576 O592 2.297 . S
Mn576 O600 2.385 . S
Mn576 O601 2.209 . S
Mn576 O602 2.094 . S
Mn577 O582 2.121 . S
Mn577 N584 2.257 . S
Mn577 N593 2.282 . S
Mn577 O601 2.215 . S
Mn577 O603 2.117 . S
C578 O600 1.234 . S
C578 O601 1.283 . S
C579 O591 1.281 . S
C579 O592 1.236 . S
C580 O602 1.240 . S
C580 O603 1.264 . S
O581 Mn576 2.095 . S
O581 C590 1.250 . S
O582 Mn577 2.121 . S
O582 C590 1.258 . S
C583 N584 1.326 . S
C583 C587 1.460 . S
C583 H589 0.929 . S
N584 Mn577 2.257 . S
N584 C583 1.326 . S
N584 C588 1.362 . S
C585 C586 1.258 . S
C585 C588 1.431 . S
C585 C605 1.449 . S
C586 C585 1.258 . S
C586 C587 1.477 . S
C586 H606 0.931 . S
C587 C583 1.460 . S
C587 C586 1.477 . S
C587 H607 0.930 . S
C588 N584 1.362 . S
C588 C585 1.431 . S
C588 C598 1.476 . S
H589 C583 0.929 . S
C590 O581 1.250 . S
C590 O582 1.258 . S
O591 Mn576 2.162 . S
O591 C579 1.281 . S
O592 Mn576 2.297 . S
O592 C579 1.236 . S
N593 Mn577 2.282 . S
N593 C594 1.328 . S
N593 C598 1.318 . S
C594 N593 1.328 . S
C594 C595 1.457 . S
C594 H599 0.929 . S
C595 C594 1.457 . S
C595 C596 1.291 . S
C595 H608 0.931 . S
C596 C595 1.291 . S
C596 C597 1.373 . S
C596 H609 0.929 . S
C597 C596 1.373 . S
C597 C598 1.396 . S
C597 C604 1.403 . S
C598 C588 1.476 . S
C598 N593 1.318 . S
C598 C597 1.396 . S
H599 C594 0.929 . S
O600 Mn576 2.385 . S
O600 C578 1.234 . S
O601 Mn576 2.209 . S
O601 Mn577 2.215 . S
O601 C578 1.283 . S
O602 Mn576 2.094 . S
O602 C580 1.240 . S
O603 Mn577 2.117 . S
O603 C580 1.264 . S
C604 C597 1.403 . S
C604 C605 1.399 . S
C604 H610 0.929 . S
C605 C585 1.449 . S
C605 C604 1.399 . S
C605 H611 0.930 . S
H606 C586 0.931 . S
H607 C587 0.930 . S
H608 C595 0.931 . S
H609 C596 0.929 . S
H610 C604 0.929 . S
H611 C605 0.930 . S
Mn612 O617 2.095 . S
Mn612 O627 2.162 . S
Mn612 O628 2.297 . S
Mn612 O636 2.385 . S
Mn612 O637 2.209 . S
Mn612 O638 2.094 . S
Mn613 O618 2.121 . S
Mn613 N620 2.257 . S
Mn613 N629 2.282 . S
Mn613 O637 2.215 . S
Mn613 O639 2.117 . S
C614 O636 1.234 . S
C614 O637 1.283 . S
C615 O627 1.281 . S
C615 O628 1.236 . S
C616 O638 1.240 . S
C616 O639 1.264 . S
O617 Mn612 2.095 . S
O617 C626 1.250 . S
O618 Mn613 2.121 . S
O618 C626 1.258 . S
C619 N620 1.326 . S
C619 C623 1.460 . S
C619 H625 0.929 . S
N620 Mn613 2.257 . S
N620 C619 1.326 . S
N620 C624 1.362 . S
C621 C622 1.258 . S
C621 C624 1.431 . S
C621 C641 1.449 . S
C622 C621 1.258 . S
C622 C623 1.477 . S
C622 H642 0.931 . S
C623 C619 1.460 . S
C623 C622 1.477 . S
C623 H643 0.930 . S
C624 N620 1.362 . S
C624 C621 1.431 . S
C624 C634 1.476 . S
H625 C619 0.929 . S
C626 O617 1.250 . S
C626 O618 1.258 . S
O627 Mn612 2.162 . S
O627 C615 1.281 . S
O628 Mn612 2.297 . S
O628 C615 1.236 . S
N629 Mn613 2.282 . S
N629 C630 1.328 . S
N629 C634 1.318 . S
C630 N629 1.328 . S
C630 C631 1.457 . S
C630 H635 0.929 . S
C631 C630 1.457 . S
C631 C632 1.291 . S
C631 H644 0.931 . S
C632 C631 1.291 . S
C632 C633 1.373 . S
C632 H645 0.929 . S
C633 C632 1.373 . S
C633 C634 1.396 . S
C633 C640 1.403 . S
C634 C624 1.476 . S
C634 N629 1.318 . S
C634 C633 1.396 . S
H635 C630 0.929 . S
O636 Mn612 2.385 . S
O636 C614 1.234 . S
O637 Mn612 2.209 . S
O637 Mn613 2.215 . S
O637 C614 1.283 . S
O638 Mn612 2.094 . S
O638 C616 1.240 . S
O639 Mn613 2.117 . S
O639 C616 1.264 . S
C640 C633 1.403 . S
C640 C641 1.399 . S
C640 H646 0.929 . S
C641 C621 1.449 . S
C641 C640 1.399 . S
C641 H647 0.930 . S
H642 C622 0.931 . S
H643 C623 0.930 . S
H644 C631 0.931 . S
H645 C632 0.929 . S
H646 C640 0.929 . S
H647 C641 0.930 . S
Mn648 O653 2.095 . S
Mn648 O663 2.162 . S
Mn648 O664 2.297 . S
Mn648 O672 2.385 . S
Mn648 O673 2.209 . S
Mn648 O674 2.094 . S
Mn649 O654 2.121 . S
Mn649 N656 2.257 . S
Mn649 N665 2.282 . S
Mn649 O673 2.215 . S
Mn649 O675 2.117 . S
C650 O672 1.234 . S
C650 O673 1.283 . S
C651 O663 1.281 . S
C651 O664 1.236 . S
C652 O674 1.240 . S
C652 O675 1.264 . S
O653 Mn648 2.095 . S
O653 C662 1.250 . S
O654 Mn649 2.121 . S
O654 C662 1.258 . S
C655 N656 1.326 . S
C655 C659 1.460 . S
C655 H661 0.929 . S
N656 Mn649 2.257 . S
N656 C655 1.326 . S
N656 C660 1.362 . S
C657 C658 1.258 . S
C657 C660 1.431 . S
C657 C677 1.449 . S
C658 C657 1.258 . S
C658 C659 1.477 . S
C658 H678 0.931 . S
C659 C655 1.460 . S
C659 C658 1.477 . S
C659 H679 0.930 . S
C660 N656 1.362 . S
C660 C657 1.431 . S
C660 C670 1.476 . S
H661 C655 0.929 . S
C662 O653 1.250 . S
C662 O654 1.258 . S
O663 Mn648 2.162 . S
O663 C651 1.281 . S
O664 Mn648 2.297 . S
O664 C651 1.236 . S
N665 Mn649 2.282 . S
N665 C666 1.328 . S
N665 C670 1.318 . S
C666 N665 1.328 . S
C666 C667 1.457 . S
C666 H671 0.929 . S
C667 C666 1.457 . S
C667 C668 1.291 . S
C667 H680 0.931 . S
C668 C667 1.291 . S
C668 C669 1.373 . S
C668 H681 0.929 . S
C669 C668 1.373 . S
C669 C670 1.396 . S
C669 C676 1.403 . S
C670 C660 1.476 . S
C670 N665 1.318 . S
C670 C669 1.396 . S
H671 C666 0.929 . S
O672 Mn648 2.385 . S
O672 C650 1.234 . S
O673 Mn648 2.209 . S
O673 Mn649 2.215 . S
O673 C650 1.283 . S
O674 Mn648 2.094 . S
O674 C652 1.240 . S
O675 Mn649 2.117 . S
O675 C652 1.264 . S
C676 C669 1.403 . S
C676 C677 1.399 . S
C676 H682 0.929 . S
C677 C657 1.449 . S
C677 C676 1.399 . S
C677 H683 0.930 . S
H678 C658 0.931 . S
H679 C659 0.930 . S
H680 C667 0.931 . S
H681 C668 0.929 . S
H682 C676 0.929 . S
H683 C677 0.930 . S
Mn684 O689 2.095 . S
Mn684 O699 2.162 . S
Mn684 O700 2.297 . S
Mn684 O708 2.385 . S
Mn684 O709 2.209 . S
Mn684 O710 2.094 . S
Mn685 O690 2.121 . S
Mn685 N692 2.257 . S
Mn685 N701 2.282 . S
Mn685 O709 2.215 . S
Mn685 O711 2.117 . S
C686 O708 1.234 . S
C686 O709 1.283 . S
C687 O699 1.281 . S
C687 O700 1.236 . S
C688 O710 1.240 . S
C688 O711 1.264 . S
O689 Mn684 2.095 . S
O689 C698 1.250 . S
O690 Mn685 2.121 . S
O690 C698 1.258 . S
C691 N692 1.326 . S
C691 C695 1.460 . S
C691 H697 0.929 . S
N692 Mn685 2.257 . S
N692 C691 1.326 . S
N692 C696 1.362 . S
C693 C694 1.258 . S
C693 C696 1.431 . S
C693 C713 1.449 . S
C694 C693 1.258 . S
C694 C695 1.477 . S
C694 H714 0.931 . S
C695 C691 1.460 . S
C695 C694 1.477 . S
C695 H715 0.930 . S
C696 N692 1.362 . S
C696 C693 1.431 . S
C696 C706 1.476 . S
H697 C691 0.929 . S
C698 O689 1.250 . S
C698 O690 1.258 . S
O699 Mn684 2.162 . S
O699 C687 1.281 . S
O700 Mn684 2.297 . S
O700 C687 1.236 . S
N701 Mn685 2.282 . S
N701 C702 1.328 . S
N701 C706 1.318 . S
C702 N701 1.328 . S
C702 C703 1.457 . S
C702 H707 0.929 . S
C703 C702 1.457 . S
C703 C704 1.291 . S
C703 H716 0.931 . S
C704 C703 1.291 . S
C704 C705 1.373 . S
C704 H717 0.929 . S
C705 C704 1.373 . S
C705 C706 1.396 . S
C705 C712 1.403 . S
C706 C696 1.476 . S
C706 N701 1.318 . S
C706 C705 1.396 . S
H707 C702 0.929 . S
O708 Mn684 2.385 . S
O708 C686 1.234 . S
O709 Mn684 2.209 . S
O709 Mn685 2.215 . S
O709 C686 1.283 . S
O710 Mn684 2.094 . S
O710 C688 1.240 . S
O711 Mn685 2.117 . S
O711 C688 1.264 . S
C712 C705 1.403 . S
C712 C713 1.399 . S
C712 H718 0.929 . S
C713 C693 1.449 . S
C713 C712 1.399 . S
C713 H719 0.930 . S
H714 C694 0.931 . S
H715 C695 0.930 . S
H716 C703 0.931 . S
H717 C704 0.929 . S
H718 C712 0.929 . S
H719 C713 0.930 . S
Mn720 O725 2.095 . S
Mn720 O735 2.162 . S
Mn720 O736 2.297 . S
Mn720 O744 2.385 . S
Mn720 O745 2.209 . S
Mn720 O746 2.094 . S
Mn721 O726 2.121 . S
Mn721 N728 2.257 . S
Mn721 N737 2.282 . S
Mn721 O745 2.215 . S
Mn721 O747 2.117 . S
C722 O744 1.234 . S
C722 O745 1.283 . S
C723 O735 1.281 . S
C723 O736 1.236 . S
C724 O746 1.240 . S
C724 O747 1.264 . S
O725 Mn720 2.095 . S
O725 C734 1.250 . S
O726 Mn721 2.121 . S
O726 C734 1.258 . S
C727 N728 1.326 . S
C727 C731 1.460 . S
C727 H733 0.929 . S
N728 Mn721 2.257 . S
N728 C727 1.326 . S
N728 C732 1.362 . S
C729 C730 1.258 . S
C729 C732 1.431 . S
C729 C749 1.449 . S
C730 C729 1.258 . S
C730 C731 1.477 . S
C730 H750 0.931 . S
C731 C727 1.460 . S
C731 C730 1.477 . S
C731 H751 0.930 . S
C732 N728 1.362 . S
C732 C729 1.431 . S
C732 C742 1.476 . S
H733 C727 0.929 . S
C734 O725 1.250 . S
C734 O726 1.258 . S
O735 Mn720 2.162 . S
O735 C723 1.281 . S
O736 Mn720 2.297 . S
O736 C723 1.236 . S
N737 Mn721 2.282 . S
N737 C738 1.328 . S
N737 C742 1.318 . S
C738 N737 1.328 . S
C738 C739 1.457 . S
C738 H743 0.929 . S
C739 C738 1.457 . S
C739 C740 1.291 . S
C739 H752 0.931 . S
C740 C739 1.291 . S
C740 C741 1.373 . S
C740 H753 0.929 . S
C741 C740 1.373 . S
C741 C742 1.396 . S
C741 C748 1.403 . S
C742 C732 1.476 . S
C742 N737 1.318 . S
C742 C741 1.396 . S
H743 C738 0.929 . S
O744 Mn720 2.385 . S
O744 C722 1.234 . S
O745 Mn720 2.209 . S
O745 Mn721 2.215 . S
O745 C722 1.283 . S
O746 Mn720 2.094 . S
O746 C724 1.240 . S
O747 Mn721 2.117 . S
O747 C724 1.264 . S
C748 C741 1.403 . S
C748 C749 1.399 . S
C748 H754 0.929 . S
C749 C729 1.449 . S
C749 C748 1.399 . S
C749 H755 0.930 . S
H750 C730 0.931 . S
H751 C731 0.930 . S
H752 C739 0.931 . S
H753 C740 0.929 . S
H754 C748 0.929 . S
H755 C749 0.930 . S
Mn756 O761 2.095 . S
Mn756 O771 2.162 . S
Mn756 O772 2.297 . S
Mn756 O780 2.385 . S
Mn756 O781 2.209 . S
Mn756 O782 2.094 . S
Mn757 O762 2.121 . S
Mn757 N764 2.257 . S
Mn757 N773 2.282 . S
Mn757 O781 2.215 . S
Mn757 O783 2.117 . S
C758 O780 1.234 . S
C758 O781 1.283 . S
C759 O771 1.281 . S
C759 O772 1.236 . S
C760 O782 1.240 . S
C760 O783 1.264 . S
O761 Mn756 2.095 . S
O761 C770 1.250 . S
O762 Mn757 2.121 . S
O762 C770 1.258 . S
C763 N764 1.326 . S
C763 C767 1.460 . S
C763 H769 0.929 . S
N764 Mn757 2.257 . S
N764 C763 1.326 . S
N764 C768 1.362 . S
C765 C766 1.258 . S
C765 C768 1.431 . S
C765 C785 1.449 . S
C766 C765 1.258 . S
C766 C767 1.477 . S
C766 H786 0.931 . S
C767 C763 1.460 . S
C767 C766 1.477 . S
C767 H787 0.930 . S
C768 N764 1.362 . S
C768 C765 1.431 . S
C768 C778 1.476 . S
H769 C763 0.929 . S
C770 O761 1.250 . S
C770 O762 1.258 . S
O771 Mn756 2.162 . S
O771 C759 1.281 . S
O772 Mn756 2.297 . S
O772 C759 1.236 . S
N773 Mn757 2.282 . S
N773 C774 1.328 . S
N773 C778 1.318 . S
C774 N773 1.328 . S
C774 C775 1.457 . S
C774 H779 0.929 . S
C775 C774 1.457 . S
C775 C776 1.291 . S
C775 H788 0.931 . S
C776 C775 1.291 . S
C776 C777 1.373 . S
C776 H789 0.929 . S
C777 C776 1.373 . S
C777 C778 1.396 . S
C777 C784 1.403 . S
C778 C768 1.476 . S
C778 N773 1.318 . S
C778 C777 1.396 . S
H779 C774 0.929 . S
O780 Mn756 2.385 . S
O780 C758 1.234 . S
O781 Mn756 2.209 . S
O781 Mn757 2.215 . S
O781 C758 1.283 . S
O782 Mn756 2.094 . S
O782 C760 1.240 . S
O783 Mn757 2.117 . S
O783 C760 1.264 . S
C784 C777 1.403 . S
C784 C785 1.399 . S
C784 H790 0.929 . S
C785 C765 1.449 . S
C785 C784 1.399 . S
C785 H791 0.930 . S
H786 C766 0.931 . S
H787 C767 0.930 . S
H788 C775 0.931 . S
H789 C776 0.929 . S
H790 C784 0.929 . S
H791 C785 0.930 . S
Mn792 O797 2.095 . S
Mn792 O807 2.162 . S
Mn792 O808 2.297 . S
Mn792 O816 2.385 . S
Mn792 O817 2.209 . S
Mn792 O818 2.094 . S
Mn793 O798 2.121 . S
Mn793 N800 2.257 . S
Mn793 N809 2.282 . S
Mn793 O817 2.215 . S
Mn793 O819 2.117 . S
C794 O816 1.234 . S
C794 O817 1.283 . S
C795 O807 1.281 . S
C795 O808 1.236 . S
C796 O818 1.240 . S
C796 O819 1.264 . S
O797 Mn792 2.095 . S
O797 C806 1.250 . S
O798 Mn793 2.121 . S
O798 C806 1.258 . S
C799 N800 1.326 . S
C799 C803 1.460 . S
C799 H805 0.929 . S
N800 Mn793 2.257 . S
N800 C799 1.326 . S
N800 C804 1.362 . S
C801 C802 1.258 . S
C801 C804 1.431 . S
C801 C821 1.449 . S
C802 C801 1.258 . S
C802 C803 1.477 . S
C802 H822 0.931 . S
C803 C799 1.460 . S
C803 C802 1.477 . S
C803 H823 0.930 . S
C804 N800 1.362 . S
C804 C801 1.431 . S
C804 C814 1.476 . S
H805 C799 0.929 . S
C806 O797 1.250 . S
C806 O798 1.258 . S
O807 Mn792 2.162 . S
O807 C795 1.281 . S
O808 Mn792 2.297 . S
O808 C795 1.236 . S
N809 Mn793 2.282 . S
N809 C810 1.328 . S
N809 C814 1.318 . S
C810 N809 1.328 . S
C810 C811 1.457 . S
C810 H815 0.929 . S
C811 C810 1.457 . S
C811 C812 1.291 . S
C811 H824 0.931 . S
C812 C811 1.291 . S
C812 C813 1.373 . S
C812 H825 0.929 . S
C813 C812 1.373 . S
C813 C814 1.396 . S
C813 C820 1.403 . S
C814 C804 1.476 . S
C814 N809 1.318 . S
C814 C813 1.396 . S
H815 C810 0.929 . S
O816 Mn792 2.385 . S
O816 C794 1.234 . S
O817 Mn792 2.209 . S
O817 Mn793 2.215 . S
O817 C794 1.283 . S
O818 Mn792 2.094 . S
O818 C796 1.240 . S
O819 Mn793 2.117 . S
O819 C796 1.264 . S
C820 C813 1.403 . S
C820 C821 1.399 . S
C820 H826 0.929 . S
C821 C801 1.449 . S
C821 C820 1.399 . S
C821 H827 0.930 . S
H822 C802 0.931 . S
H823 C803 0.930 . S
H824 C811 0.931 . S
H825 C812 0.929 . S
H826 C820 0.929 . S
H827 C821 0.930 . S
Mn828 O833 2.095 . S
Mn828 O843 2.162 . S
Mn828 O844 2.297 . S
Mn828 O852 2.385 . S
Mn828 O853 2.209 . S
Mn828 O854 2.094 . S
Mn829 O834 2.121 . S
Mn829 N836 2.257 . S
Mn829 N845 2.282 . S
Mn829 O853 2.215 . S
Mn829 O855 2.117 . S
C830 O852 1.234 . S
C830 O853 1.283 . S
C831 O843 1.281 . S
C831 O844 1.236 . S
C832 O854 1.240 . S
C832 O855 1.264 . S
O833 Mn828 2.095 . S
O833 C842 1.250 . S
O834 Mn829 2.121 . S
O834 C842 1.258 . S
C835 N836 1.326 . S
C835 C839 1.460 . S
C835 H841 0.929 . S
N836 Mn829 2.257 . S
N836 C835 1.326 . S
N836 C840 1.362 . S
C837 C838 1.258 . S
C837 C840 1.431 . S
C837 C857 1.449 . S
C838 C837 1.258 . S
C838 C839 1.477 . S
C838 H858 0.931 . S
C839 C835 1.460 . S
C839 C838 1.477 . S
C839 H859 0.930 . S
C840 N836 1.362 . S
C840 C837 1.431 . S
C840 C850 1.476 . S
H841 C835 0.929 . S
C842 O833 1.250 . S
C842 O834 1.258 . S
O843 Mn828 2.162 . S
O843 C831 1.281 . S
O844 Mn828 2.297 . S
O844 C831 1.236 . S
N845 Mn829 2.282 . S
N845 C846 1.328 . S
N845 C850 1.318 . S
C846 N845 1.328 . S
C846 C847 1.457 . S
C846 H851 0.929 . S
C847 C846 1.457 . S
C847 C848 1.291 . S
C847 H860 0.931 . S
C848 C847 1.291 . S
C848 C849 1.373 . S
C848 H861 0.929 . S
C849 C848 1.373 . S
C849 C850 1.396 . S
C849 C856 1.403 . S
C850 C840 1.476 . S
C850 N845 1.318 . S
C850 C849 1.396 . S
H851 C846 0.929 . S
O852 Mn828 2.385 . S
O852 C830 1.234 . S
O853 Mn828 2.209 . S
O853 Mn829 2.215 . S
O853 C830 1.283 . S
O854 Mn828 2.094 . S
O854 C832 1.240 . S
O855 Mn829 2.117 . S
O855 C832 1.264 . S
C856 C849 1.403 . S
C856 C857 1.399 . S
C856 H862 0.929 . S
C857 C837 1.449 . S
C857 C856 1.399 . S
C857 H863 0.930 . S
H858 C838 0.931 . S
H859 C839 0.930 . S
H860 C847 0.931 . S
H861 C848 0.929 . S
H862 C856 0.929 . S
H863 C857 0.930 . S
C864 C865 1.391 . S
C864 C866 1.394 . S
C864 H880 0.931 . S
C865 C864 1.391 . S
C865 C869 1.376 . S
C866 C864 1.394 . S
C866 C867 1.369 . S
C866 C870 1.531 . S
C867 C866 1.369 . S
C867 C868 1.410 . S
C867 C875 1.503 . S
C868 C867 1.410 . S
C868 C869 1.392 . S
C868 C871 1.511 . S
C869 C865 1.376 . S
C869 C868 1.392 . S
C869 H881 0.929 . S
C870 C866 1.531 . S
C870 H882 0.960 . S
C870 H883 0.962 . S
C870 H884 0.960 . S
C871 C868 1.511 . S
C871 H885 0.961 . S
C871 H886 0.961 . S
C871 H887 0.961 . S
C872 C873 1.370 . S
C872 C874 1.363 . S
C872 H888 0.931 . S
C873 C872 1.370 . S
C873 C877 1.408 . S
C874 C872 1.363 . S
C874 C875 1.370 . S
C874 C878 1.524 . S
C875 C867 1.503 . S
C875 C874 1.370 . S
C875 C876 1.403 . S
C876 C875 1.403 . S
C876 C877 1.404 . S
C876 C879 1.539 . S
C877 C873 1.408 . S
C877 C876 1.404 . S
C877 H889 0.930 . S
C878 C874 1.524 . S
C878 H890 0.956 . S
C878 H891 0.961 . S
C878 H892 0.961 . S
C879 C876 1.539 . S
C879 H893 0.958 . S
C879 H894 0.961 . S
C879 H895 0.960 . S
H880 C864 0.931 . S
H881 C869 0.929 . S
H882 C870 0.960 . S
H883 C870 0.962 . S
H884 C870 0.960 . S
H885 C871 0.961 . S
H886 C871 0.961 . S
H887 C871 0.961 . S
H888 C872 0.931 . S
H889 C877 0.930 . S
H890 C878 0.956 . S
H891 C878 0.961 . S
H892 C878 0.961 . S
H893 C879 0.958 . S
H894 C879 0.961 . S
H895 C879 0.960 . S
C896 C897 1.391 . S
C896 C898 1.394 . S
C896 H912 0.931 . S
C897 C896 1.391 . S
C897 C901 1.376 . S
C898 C896 1.394 . S
C898 C899 1.369 . S
C898 C902 1.531 . S
C899 C898 1.369 . S
C899 C900 1.410 . S
C899 C907 1.503 . S
C900 C899 1.410 . S
C900 C901 1.392 . S
C900 C903 1.511 . S
C901 C897 1.376 . S
C901 C900 1.392 . S
C901 H913 0.929 . S
C902 C898 1.531 . S
C902 H914 0.960 . S
C902 H915 0.962 . S
C902 H916 0.960 . S
C903 C900 1.511 . S
C903 H917 0.961 . S
C903 H918 0.961 . S
C903 H919 0.961 . S
C904 C905 1.370 . S
C904 C906 1.363 . S
C904 H920 0.931 . S
C905 C904 1.370 . S
C905 C909 1.408 . S
C906 C904 1.363 . S
C906 C907 1.370 . S
C906 C910 1.524 . S
C907 C899 1.503 . S
C907 C906 1.370 . S
C907 C908 1.403 . S
C908 C907 1.403 . S
C908 C909 1.404 . S
C908 C911 1.539 . S
C909 C905 1.408 . S
C909 C908 1.404 . S
C909 H921 0.930 . S
C910 C906 1.524 . S
C910 H922 0.956 . S
C910 H923 0.961 . S
C910 H924 0.961 . S
C911 C908 1.539 . S
C911 H925 0.958 . S
C911 H926 0.961 . S
C911 H927 0.960 . S
H912 C896 0.931 . S
H913 C901 0.929 . S
H914 C902 0.960 . S
H915 C902 0.962 . S
H916 C902 0.960 . S
H917 C903 0.961 . S
H918 C903 0.961 . S
H919 C903 0.961 . S
H920 C904 0.931 . S
H921 C909 0.930 . S
H922 C910 0.956 . S
H923 C910 0.961 . S
H924 C910 0.961 . S
H925 C911 0.958 . S
H926 C911 0.961 . S
H927 C911 0.960 . S
C928 C929 1.391 . S
C928 C930 1.394 . S
C928 H944 0.931 . S
C929 C928 1.391 . S
C929 C933 1.376 . S
C930 C928 1.394 . S
C930 C931 1.369 . S
C930 C934 1.531 . S
C931 C930 1.369 . S
C931 C932 1.410 . S
C931 C939 1.503 . S
C932 C931 1.410 . S
C932 C933 1.392 . S
C932 C935 1.511 . S
C933 C929 1.376 . S
C933 C932 1.392 . S
C933 H945 0.929 . S
C934 C930 1.531 . S
C934 H946 0.960 . S
C934 H947 0.962 . S
C934 H948 0.960 . S
C935 C932 1.511 . S
C935 H949 0.961 . S
C935 H950 0.961 . S
C935 H951 0.961 . S
C936 C937 1.370 . S
C936 C938 1.363 . S
C936 H952 0.931 . S
C937 C936 1.370 . S
C937 C941 1.408 . S
C938 C936 1.363 . S
C938 C939 1.370 . S
C938 C942 1.524 . S
C939 C931 1.503 . S
C939 C938 1.370 . S
C939 C940 1.403 . S
C940 C939 1.403 . S
C940 C941 1.404 . S
C940 C943 1.539 . S
C941 C937 1.408 . S
C941 C940 1.404 . S
C941 H953 0.930 . S
C942 C938 1.524 . S
C942 H954 0.956 . S
C942 H955 0.961 . S
C942 H956 0.961 . S
C943 C940 1.539 . S
C943 H957 0.958 . S
C943 H958 0.961 . S
C943 H959 0.960 . S
H944 C928 0.931 . S
H945 C933 0.929 . S
H946 C934 0.960 . S
H947 C934 0.962 . S
H948 C934 0.960 . S
H949 C935 0.961 . S
H950 C935 0.961 . S
H951 C935 0.961 . S
H952 C936 0.931 . S
H953 C941 0.930 . S
H954 C942 0.956 . S
H955 C942 0.961 . S
H956 C942 0.961 . S
H957 C943 0.958 . S
H958 C943 0.961 . S
H959 C943 0.960 . S
C960 C961 1.391 . S
C960 C962 1.394 . S
C960 H976 0.931 . S
C961 C960 1.391 . S
C961 C965 1.376 . S
C962 C960 1.394 . S
C962 C963 1.369 . S
C962 C966 1.531 . S
C963 C962 1.369 . S
C963 C964 1.410 . S
C963 C971 1.503 . S
C964 C963 1.410 . S
C964 C965 1.392 . S
C964 C967 1.511 . S
C965 C961 1.376 . S
C965 C964 1.392 . S
C965 H977 0.929 . S
C966 C962 1.531 . S
C966 H978 0.960 . S
C966 H979 0.962 . S
C966 H980 0.960 . S
C967 C964 1.511 . S
C967 H981 0.961 . S
C967 H982 0.961 . S
C967 H983 0.961 . S
C968 C969 1.370 . S
C968 C970 1.363 . S
C968 H984 0.931 . S
C969 C968 1.370 . S
C969 C973 1.408 . S
C970 C968 1.363 . S
C970 C971 1.370 . S
C970 C974 1.524 . S
C971 C963 1.503 . S
C971 C970 1.370 . S
C971 C972 1.403 . S
C972 C971 1.403 . S
C972 C973 1.404 . S
C972 C975 1.539 . S
C973 C969 1.408 . S
C973 C972 1.404 . S
C973 H985 0.930 . S
C974 C970 1.524 . S
C974 H986 0.956 . S
C974 H987 0.961 . S
C974 H988 0.961 . S
C975 C972 1.539 . S
C975 H989 0.958 . S
C975 H990 0.961 . S
C975 H991 0.960 . S
H976 C960 0.931 . S
H977 C965 0.929 . S
H978 C966 0.960 . S
H979 C966 0.962 . S
H980 C966 0.960 . S
H981 C967 0.961 . S
H982 C967 0.961 . S
H983 C967 0.961 . S
H984 C968 0.931 . S
H985 C973 0.930 . S
H986 C974 0.956 . S
H987 C974 0.961 . S
H988 C974 0.961 . S
H989 C975 0.958 . S
H990 C975 0.961 . S
H991 C975 0.960 . S
C992 C993 1.391 . S
C992 C994 1.394 . S
C992 H1008 0.931 . S
C993 C992 1.391 . S
C993 C997 1.376 . S
C994 C992 1.394 . S
C994 C995 1.369 . S
C994 C998 1.531 . S
C995 C994 1.369 . S
C995 C996 1.410 . S
C995 C1003 1.503 . S
C996 C995 1.410 . S
C996 C997 1.392 . S
C996 C999 1.511 . S
C997 C993 1.376 . S
C997 C996 1.392 . S
C997 H1009 0.929 . S
C998 C994 1.531 . S
C998 H1010 0.960 . S
C998 H1011 0.962 . S
C998 H1012 0.960 . S
C999 C996 1.511 . S
C999 H1013 0.961 . S
C999 H1014 0.961 . S
C999 H1015 0.961 . S
C1000 C1001 1.370 . S
C1000 C1002 1.363 . S
C1000 H1016 0.931 . S
C1001 C1000 1.370 . S
C1001 C1005 1.408 . S
C1002 C1000 1.363 . S
C1002 C1003 1.370 . S
C1002 C1006 1.524 . S
C1003 C995 1.503 . S
C1003 C1002 1.370 . S
C1003 C1004 1.403 . S
C1004 C1003 1.403 . S
C1004 C1005 1.404 . S
C1004 C1007 1.539 . S
C1005 C1001 1.408 . S
C1005 C1004 1.404 . S
C1005 H1017 0.930 . S
C1006 C1002 1.524 . S
C1006 H1018 0.956 . S
C1006 H1019 0.961 . S
C1006 H1020 0.961 . S
C1007 C1004 1.539 . S
C1007 H1021 0.958 . S
C1007 H1022 0.961 . S
C1007 H1023 0.960 . S
H1008 C992 0.931 . S
H1009 C997 0.929 . S
H1010 C998 0.960 . S
H1011 C998 0.962 . S
H1012 C998 0.960 . S
H1013 C999 0.961 . S
H1014 C999 0.961 . S
H1015 C999 0.961 . S
H1016 C1000 0.931 . S
H1017 C1005 0.930 . S
H1018 C1006 0.956 . S
H1019 C1006 0.961 . S
H1020 C1006 0.961 . S
H1021 C1007 0.958 . S
H1022 C1007 0.961 . S
H1023 C1007 0.960 . S
C1024 C1025 1.391 . S
C1024 C1026 1.394 . S
C1024 H1040 0.931 . S
C1025 C1024 1.391 . S
C1025 C1029 1.376 . S
C1026 C1024 1.394 . S
C1026 C1027 1.369 . S
C1026 C1030 1.531 . S
C1027 C1026 1.369 . S
C1027 C1028 1.410 . S
C1027 C1035 1.503 . S
C1028 C1027 1.410 . S
C1028 C1029 1.392 . S
C1028 C1031 1.511 . S
C1029 C1025 1.376 . S
C1029 C1028 1.392 . S
C1029 H1041 0.929 . S
C1030 C1026 1.531 . S
C1030 H1042 0.960 . S
C1030 H1043 0.962 . S
C1030 H1044 0.960 . S
C1031 C1028 1.511 . S
C1031 H1045 0.961 . S
C1031 H1046 0.961 . S
C1031 H1047 0.961 . S
C1032 C1033 1.370 . S
C1032 C1034 1.363 . S
C1032 H1048 0.931 . S
C1033 C1032 1.370 . S
C1033 C1037 1.408 . S
C1034 C1032 1.363 . S
C1034 C1035 1.370 . S
C1034 C1038 1.524 . S
C1035 C1027 1.503 . S
C1035 C1034 1.370 . S
C1035 C1036 1.403 . S
C1036 C1035 1.403 . S
C1036 C1037 1.404 . S
C1036 C1039 1.539 . S
C1037 C1033 1.408 . S
C1037 C1036 1.404 . S
C1037 H1049 0.930 . S
C1038 C1034 1.524 . S
C1038 H1050 0.956 . S
C1038 H1051 0.961 . S
C1038 H1052 0.961 . S
C1039 C1036 1.539 . S
C1039 H1053 0.958 . S
C1039 H1054 0.961 . S
C1039 H1055 0.960 . S
H1040 C1024 0.931 . S
H1041 C1029 0.929 . S
H1042 C1030 0.960 . S
H1043 C1030 0.962 . S
H1044 C1030 0.960 . S
H1045 C1031 0.961 . S
H1046 C1031 0.961 . S
H1047 C1031 0.961 . S
H1048 C1032 0.931 . S
H1049 C1037 0.930 . S
H1050 C1038 0.956 . S
H1051 C1038 0.961 . S
H1052 C1038 0.961 . S
H1053 C1039 0.958 . S
H1054 C1039 0.961 . S
H1055 C1039 0.960 . S
C1056 C1057 1.391 . S
C1056 C1058 1.394 . S
C1056 H1072 0.931 . S
C1057 C1056 1.391 . S
C1057 C1061 1.376 . S
C1058 C1056 1.394 . S
C1058 C1059 1.369 . S
C1058 C1062 1.531 . S
C1059 C1058 1.369 . S
C1059 C1060 1.410 . S
C1059 C1067 1.503 . S
C1060 C1059 1.410 . S
C1060 C1061 1.392 . S
C1060 C1063 1.511 . S
C1061 C1057 1.376 . S
C1061 C1060 1.392 . S
C1061 H1073 0.929 . S
C1062 C1058 1.531 . S
C1062 H1074 0.960 . S
C1062 H1075 0.962 . S
C1062 H1076 0.960 . S
C1063 C1060 1.511 . S
C1063 H1077 0.961 . S
C1063 H1078 0.961 . S
C1063 H1079 0.961 . S
C1064 C1065 1.370 . S
C1064 C1066 1.363 . S
C1064 H1080 0.931 . S
C1065 C1064 1.370 . S
C1065 C1069 1.408 . S
C1066 C1064 1.363 . S
C1066 C1067 1.370 . S
C1066 C1070 1.524 . S
C1067 C1059 1.503 . S
C1067 C1066 1.370 . S
C1067 C1068 1.403 . S
C1068 C1067 1.403 . S
C1068 C1069 1.404 . S
C1068 C1071 1.539 . S
C1069 C1065 1.408 . S
C1069 C1068 1.404 . S
C1069 H1081 0.930 . S
C1070 C1066 1.524 . S
C1070 H1082 0.956 . S
C1070 H1083 0.961 . S
C1070 H1084 0.961 . S
C1071 C1068 1.539 . S
C1071 H1085 0.958 . S
C1071 H1086 0.961 . S
C1071 H1087 0.960 . S
H1072 C1056 0.931 . S
H1073 C1061 0.929 . S
H1074 C1062 0.960 . S
H1075 C1062 0.962 . S
H1076 C1062 0.960 . S
H1077 C1063 0.961 . S
H1078 C1063 0.961 . S
H1079 C1063 0.961 . S
H1080 C1064 0.931 . S
H1081 C1069 0.930 . S
H1082 C1070 0.956 . S
H1083 C1070 0.961 . S
H1084 C1070 0.961 . S
H1085 C1071 0.958 . S
H1086 C1071 0.961 . S
H1087 C1071 0.960 . S
C1088 C1089 1.391 . S
C1088 C1090 1.394 . S
C1088 H1104 0.931 . S
C1089 C1088 1.391 . S
C1089 C1093 1.376 . S
C1090 C1088 1.394 . S
C1090 C1091 1.369 . S
C1090 C1094 1.531 . S
C1091 C1090 1.369 . S
C1091 C1092 1.410 . S
C1091 C1099 1.503 . S
C1092 C1091 1.410 . S
C1092 C1093 1.392 . S
C1092 C1095 1.511 . S
C1093 C1089 1.376 . S
C1093 C1092 1.392 . S
C1093 H1105 0.929 . S
C1094 C1090 1.531 . S
C1094 H1106 0.960 . S
C1094 H1107 0.962 . S
C1094 H1108 0.960 . S
C1095 C1092 1.511 . S
C1095 H1109 0.961 . S
C1095 H1110 0.961 . S
C1095 H1111 0.961 . S
C1096 C1097 1.370 . S
C1096 C1098 1.363 . S
C1096 H1112 0.931 . S
C1097 C1096 1.370 . S
C1097 C1101 1.408 . S
C1098 C1096 1.363 . S
C1098 C1099 1.370 . S
C1098 C1102 1.524 . S
C1099 C1091 1.503 . S
C1099 C1098 1.370 . S
C1099 C1100 1.403 . S
C1100 C1099 1.403 . S
C1100 C1101 1.404 . S
C1100 C1103 1.539 . S
C1101 C1097 1.408 . S
C1101 C1100 1.404 . S
C1101 H1113 0.930 . S
C1102 C1098 1.524 . S
C1102 H1114 0.956 . S
C1102 H1115 0.961 . S
C1102 H1116 0.961 . S
C1103 C1100 1.539 . S
C1103 H1117 0.958 . S
C1103 H1118 0.961 . S
C1103 H1119 0.960 . S
H1104 C1088 0.931 . S
H1105 C1093 0.929 . S
H1106 C1094 0.960 . S
H1107 C1094 0.962 . S
H1108 C1094 0.960 . S
H1109 C1095 0.961 . S
H1110 C1095 0.961 . S
H1111 C1095 0.961 . S
H1112 C1096 0.931 . S
H1113 C1101 0.930 . S
H1114 C1102 0.956 . S
H1115 C1102 0.961 . S
H1116 C1102 0.961 . S
H1117 C1103 0.958 . S
H1118 C1103 0.961 . S
H1119 C1103 0.960 . S
C1120 C1121 1.391 . S
C1120 C1122 1.394 . S
C1120 H1136 0.931 . S
C1121 C1120 1.391 . S
C1121 C1125 1.376 . S
C1122 C1120 1.394 . S
C1122 C1123 1.369 . S
C1122 C1126 1.531 . S
C1123 C1122 1.369 . S
C1123 C1124 1.410 . S
C1123 C1131 1.503 . S
C1124 C1123 1.410 . S
C1124 C1125 1.392 . S
C1124 C1127 1.511 . S
C1125 C1121 1.376 . S
C1125 C1124 1.392 . S
C1125 H1137 0.929 . S
C1126 C1122 1.531 . S
C1126 H1138 0.960 . S
C1126 H1139 0.962 . S
C1126 H1140 0.960 . S
C1127 C1124 1.511 . S
C1127 H1141 0.961 . S
C1127 H1142 0.961 . S
C1127 H1143 0.961 . S
C1128 C1129 1.370 . S
C1128 C1130 1.363 . S
C1128 H1144 0.931 . S
C1129 C1128 1.370 . S
C1129 C1133 1.408 . S
C1130 C1128 1.363 . S
C1130 C1131 1.370 . S
C1130 C1134 1.524 . S
C1131 C1123 1.503 . S
C1131 C1130 1.370 . S
C1131 C1132 1.403 . S
C1132 C1131 1.403 . S
C1132 C1133 1.404 . S
C1132 C1135 1.539 . S
C1133 C1129 1.408 . S
C1133 C1132 1.404 . S
C1133 H1145 0.930 . S
C1134 C1130 1.524 . S
C1134 H1146 0.956 . S
C1134 H1147 0.961 . S
C1134 H1148 0.961 . S
C1135 C1132 1.539 . S
C1135 H1149 0.958 . S
C1135 H1150 0.961 . S
C1135 H1151 0.960 . S
H1136 C1120 0.931 . S
H1137 C1125 0.929 . S
H1138 C1126 0.960 . S
H1139 C1126 0.962 . S
H1140 C1126 0.960 . S
H1141 C1127 0.961 . S
H1142 C1127 0.961 . S
H1143 C1127 0.961 . S
H1144 C1128 0.931 . S
H1145 C1133 0.930 . S
H1146 C1134 0.956 . S
H1147 C1134 0.961 . S
H1148 C1134 0.961 . S
H1149 C1135 0.958 . S
H1150 C1135 0.961 . S
H1151 C1135 0.960 . S
C1152 C1153 1.391 . S
C1152 C1154 1.394 . S
C1152 H1168 0.931 . S
C1153 C1152 1.391 . S
C1153 C1157 1.376 . S
C1154 C1152 1.394 . S
C1154 C1155 1.369 . S
C1154 C1158 1.531 . S
C1155 C1154 1.369 . S
C1155 C1156 1.410 . S
C1155 C1163 1.503 . S
C1156 C1155 1.410 . S
C1156 C1157 1.392 . S
C1156 C1159 1.511 . S
C1157 C1153 1.376 . S
C1157 C1156 1.392 . S
C1157 H1169 0.929 . S
C1158 C1154 1.531 . S
C1158 H1170 0.960 . S
C1158 H1171 0.962 . S
C1158 H1172 0.960 . S
C1159 C1156 1.511 . S
C1159 H1173 0.961 . S
C1159 H1174 0.961 . S
C1159 H1175 0.961 . S
C1160 C1161 1.370 . S
C1160 C1162 1.363 . S
C1160 H1176 0.931 . S
C1161 C1160 1.370 . S
C1161 C1165 1.408 . S
C1162 C1160 1.363 . S
C1162 C1163 1.370 . S
C1162 C1166 1.524 . S
C1163 C1155 1.503 . S
C1163 C1162 1.370 . S
C1163 C1164 1.403 . S
C1164 C1163 1.403 . S
C1164 C1165 1.404 . S
C1164 C1167 1.539 . S
C1165 C1161 1.408 . S
C1165 C1164 1.404 . S
C1165 H1177 0.930 . S
C1166 C1162 1.524 . S
C1166 H1178 0.956 . S
C1166 H1179 0.961 . S
C1166 H1180 0.961 . S
C1167 C1164 1.539 . S
C1167 H1181 0.958 . S
C1167 H1182 0.961 . S
C1167 H1183 0.960 . S
H1168 C1152 0.931 . S
H1169 C1157 0.929 . S
H1170 C1158 0.960 . S
H1171 C1158 0.962 . S
H1172 C1158 0.960 . S
H1173 C1159 0.961 . S
H1174 C1159 0.961 . S
H1175 C1159 0.961 . S
H1176 C1160 0.931 . S
H1177 C1165 0.930 . S
H1178 C1166 0.956 . S
H1179 C1166 0.961 . S
H1180 C1166 0.961 . S
H1181 C1167 0.958 . S
H1182 C1167 0.961 . S
H1183 C1167 0.960 . S
C1184 C1185 1.391 . S
C1184 C1186 1.394 . S
C1184 H1200 0.931 . S
C1185 C1184 1.391 . S
C1185 C1189 1.376 . S
C1186 C1184 1.394 . S
C1186 C1187 1.369 . S
C1186 C1190 1.531 . S
C1187 C1186 1.369 . S
C1187 C1188 1.410 . S
C1187 C1195 1.503 . S
C1188 C1187 1.410 . S
C1188 C1189 1.392 . S
C1188 C1191 1.511 . S
C1189 C1185 1.376 . S
C1189 C1188 1.392 . S
C1189 H1201 0.929 . S
C1190 C1186 1.531 . S
C1190 H1202 0.960 . S
C1190 H1203 0.962 . S
C1190 H1204 0.960 . S
C1191 C1188 1.511 . S
C1191 H1205 0.961 . S
C1191 H1206 0.961 . S
C1191 H1207 0.961 . S
C1192 C1193 1.370 . S
C1192 C1194 1.363 . S
C1192 H1208 0.931 . S
C1193 C1192 1.370 . S
C1193 C1197 1.408 . S
C1194 C1192 1.363 . S
C1194 C1195 1.370 . S
C1194 C1198 1.524 . S
C1195 C1187 1.503 . S
C1195 C1194 1.370 . S
C1195 C1196 1.403 . S
C1196 C1195 1.403 . S
C1196 C1197 1.404 . S
C1196 C1199 1.539 . S
C1197 C1193 1.408 . S
C1197 C1196 1.404 . S
C1197 H1209 0.930 . S
C1198 C1194 1.524 . S
C1198 H1210 0.956 . S
C1198 H1211 0.961 . S
C1198 H1212 0.961 . S
C1199 C1196 1.539 . S
C1199 H1213 0.958 . S
C1199 H1214 0.961 . S
C1199 H1215 0.960 . S
H1200 C1184 0.931 . S
H1201 C1189 0.929 . S
H1202 C1190 0.960 . S
H1203 C1190 0.962 . S
H1204 C1190 0.960 . S
H1205 C1191 0.961 . S
H1206 C1191 0.961 . S
H1207 C1191 0.961 . S
H1208 C1192 0.931 . S
H1209 C1197 0.930 . S
H1210 C1198 0.956 . S
H1211 C1198 0.961 . S
H1212 C1198 0.961 . S
H1213 C1199 0.958 . S
H1214 C1199 0.961 . S
H1215 C1199 0.960 . S
C1216 C1217 1.391 . S
C1216 C1218 1.394 . S
C1216 H1232 0.931 . S
C1217 C1216 1.391 . S
C1217 C1221 1.376 . S
C1218 C1216 1.394 . S
C1218 C1219 1.369 . S
C1218 C1222 1.531 . S
C1219 C1218 1.369 . S
C1219 C1220 1.410 . S
C1219 C1227 1.503 . S
C1220 C1219 1.410 . S
C1220 C1221 1.392 . S
C1220 C1223 1.511 . S
C1221 C1217 1.376 . S
C1221 C1220 1.392 . S
C1221 H1233 0.929 . S
C1222 C1218 1.531 . S
C1222 H1234 0.960 . S
C1222 H1235 0.962 . S
C1222 H1236 0.960 . S
C1223 C1220 1.511 . S
C1223 H1237 0.961 . S
C1223 H1238 0.961 . S
C1223 H1239 0.961 . S
C1224 C1225 1.370 . S
C1224 C1226 1.363 . S
C1224 H1240 0.931 . S
C1225 C1224 1.370 . S
C1225 C1229 1.408 . S
C1226 C1224 1.363 . S
C1226 C1227 1.370 . S
C1226 C1230 1.524 . S
C1227 C1219 1.503 . S
C1227 C1226 1.370 . S
C1227 C1228 1.403 . S
C1228 C1227 1.403 . S
C1228 C1229 1.404 . S
C1228 C1231 1.539 . S
C1229 C1225 1.408 . S
C1229 C1228 1.404 . S
C1229 H1241 0.930 . S
C1230 C1226 1.524 . S
C1230 H1242 0.956 . S
C1230 H1243 0.961 . S
C1230 H1244 0.961 . S
C1231 C1228 1.539 . S
C1231 H1245 0.958 . S
C1231 H1246 0.961 . S
C1231 H1247 0.960 . S
H1232 C1216 0.931 . S
H1233 C1221 0.929 . S
H1234 C1222 0.960 . S
H1235 C1222 0.962 . S
H1236 C1222 0.960 . S
H1237 C1223 0.961 . S
H1238 C1223 0.961 . S
H1239 C1223 0.961 . S
H1240 C1224 0.931 . S
H1241 C1229 0.930 . S
H1242 C1230 0.956 . S
H1243 C1230 0.961 . S
H1244 C1230 0.961 . S
H1245 C1231 0.958 . S
H1246 C1231 0.961 . S
H1247 C1231 0.960 . S
C1248 C1249 1.391 . S
C1248 C1250 1.394 . S
C1248 H1264 0.931 . S
C1249 C1248 1.391 . S
C1249 C1253 1.376 . S
C1250 C1248 1.394 . S
C1250 C1251 1.369 . S
C1250 C1254 1.531 . S
C1251 C1250 1.369 . S
C1251 C1252 1.410 . S
C1251 C1259 1.503 . S
C1252 C1251 1.410 . S
C1252 C1253 1.392 . S
C1252 C1255 1.511 . S
C1253 C1249 1.376 . S
C1253 C1252 1.392 . S
C1253 H1265 0.929 . S
C1254 C1250 1.531 . S
C1254 H1266 0.960 . S
C1254 H1267 0.962 . S
C1254 H1268 0.960 . S
C1255 C1252 1.511 . S
C1255 H1269 0.961 . S
C1255 H1270 0.961 . S
C1255 H1271 0.961 . S
C1256 C1257 1.370 . S
C1256 C1258 1.363 . S
C1256 H1272 0.931 . S
C1257 C1256 1.370 . S
C1257 C1261 1.408 . S
C1258 C1256 1.363 . S
C1258 C1259 1.370 . S
C1258 C1262 1.524 . S
C1259 C1251 1.503 . S
C1259 C1258 1.370 . S
C1259 C1260 1.403 . S
C1260 C1259 1.403 . S
C1260 C1261 1.404 . S
C1260 C1263 1.539 . S
C1261 C1257 1.408 . S
C1261 C1260 1.404 . S
C1261 H1273 0.930 . S
C1262 C1258 1.524 . S
C1262 H1274 0.956 . S
C1262 H1275 0.961 . S
C1262 H1276 0.961 . S
C1263 C1260 1.539 . S
C1263 H1277 0.958 . S
C1263 H1278 0.961 . S
C1263 H1279 0.960 . S
H1264 C1248 0.931 . S
H1265 C1253 0.929 . S
H1266 C1254 0.960 . S
H1267 C1254 0.962 . S
H1268 C1254 0.960 . S
H1269 C1255 0.961 . S
H1270 C1255 0.961 . S
H1271 C1255 0.961 . S
H1272 C1256 0.931 . S
H1273 C1261 0.930 . S
H1274 C1262 0.956 . S
H1275 C1262 0.961 . S
H1276 C1262 0.961 . S
H1277 C1263 0.958 . S
H1278 C1263 0.961 . S
H1279 C1263 0.960 . S
C1280 C1281 1.391 . S
C1280 C1282 1.394 . S
C1280 H1296 0.931 . S
C1281 C1280 1.391 . S
C1281 C1285 1.376 . S
C1282 C1280 1.394 . S
C1282 C1283 1.369 . S
C1282 C1286 1.531 . S
C1283 C1282 1.369 . S
C1283 C1284 1.410 . S
C1283 C1291 1.503 . S
C1284 C1283 1.410 . S
C1284 C1285 1.392 . S
C1284 C1287 1.511 . S
C1285 C1281 1.376 . S
C1285 C1284 1.392 . S
C1285 H1297 0.929 . S
C1286 C1282 1.531 . S
C1286 H1298 0.960 . S
C1286 H1299 0.962 . S
C1286 H1300 0.960 . S
C1287 C1284 1.511 . S
C1287 H1301 0.961 . S
C1287 H1302 0.961 . S
C1287 H1303 0.961 . S
C1288 C1289 1.370 . S
C1288 C1290 1.363 . S
C1288 H1304 0.931 . S
C1289 C1288 1.370 . S
C1289 C1293 1.408 . S
C1290 C1288 1.363 . S
C1290 C1291 1.370 . S
C1290 C1294 1.524 . S
C1291 C1283 1.503 . S
C1291 C1290 1.370 . S
C1291 C1292 1.403 . S
C1292 C1291 1.403 . S
C1292 C1293 1.404 . S
C1292 C1295 1.539 . S
C1293 C1289 1.408 . S
C1293 C1292 1.404 . S
C1293 H1305 0.930 . S
C1294 C1290 1.524 . S
C1294 H1306 0.956 . S
C1294 H1307 0.961 . S
C1294 H1308 0.961 . S
C1295 C1292 1.539 . S
C1295 H1309 0.958 . S
C1295 H1310 0.961 . S
C1295 H1311 0.960 . S
H1296 C1280 0.931 . S
H1297 C1285 0.929 . S
H1298 C1286 0.960 . S
H1299 C1286 0.962 . S
H1300 C1286 0.960 . S
H1301 C1287 0.961 . S
H1302 C1287 0.961 . S
H1303 C1287 0.961 . S
H1304 C1288 0.931 . S
H1305 C1293 0.930 . S
H1306 C1294 0.956 . S
H1307 C1294 0.961 . S
H1308 C1294 0.961 . S
H1309 C1295 0.958 . S
H1310 C1295 0.961 . S
H1311 C1295 0.960 . S
C1312 C1313 1.391 . S
C1312 C1314 1.394 . S
C1312 H1328 0.931 . S
C1313 C1312 1.391 . S
C1313 C1317 1.376 . S
C1314 C1312 1.394 . S
C1314 C1315 1.369 . S
C1314 C1318 1.531 . S
C1315 C1314 1.369 . S
C1315 C1316 1.410 . S
C1315 C1323 1.503 . S
C1316 C1315 1.410 . S
C1316 C1317 1.392 . S
C1316 C1319 1.511 . S
C1317 C1313 1.376 . S
C1317 C1316 1.392 . S
C1317 H1329 0.929 . S
C1318 C1314 1.531 . S
C1318 H1330 0.960 . S
C1318 H1331 0.962 . S
C1318 H1332 0.960 . S
C1319 C1316 1.511 . S
C1319 H1333 0.961 . S
C1319 H1334 0.961 . S
C1319 H1335 0.961 . S
C1320 C1321 1.370 . S
C1320 C1322 1.363 . S
C1320 H1336 0.931 . S
C1321 C1320 1.370 . S
C1321 C1325 1.408 . S
C1322 C1320 1.363 . S
C1322 C1323 1.370 . S
C1322 C1326 1.524 . S
C1323 C1315 1.503 . S
C1323 C1322 1.370 . S
C1323 C1324 1.403 . S
C1324 C1323 1.403 . S
C1324 C1325 1.404 . S
C1324 C1327 1.539 . S
C1325 C1321 1.408 . S
C1325 C1324 1.404 . S
C1325 H1337 0.930 . S
C1326 C1322 1.524 . S
C1326 H1338 0.956 . S
C1326 H1339 0.961 . S
C1326 H1340 0.961 . S
C1327 C1324 1.539 . S
C1327 H1341 0.958 . S
C1327 H1342 0.961 . S
C1327 H1343 0.960 . S
H1328 C1312 0.931 . S
H1329 C1317 0.929 . S
H1330 C1318 0.960 . S
H1331 C1318 0.962 . S
H1332 C1318 0.960 . S
H1333 C1319 0.961 . S
H1334 C1319 0.961 . S
H1335 C1319 0.961 . S
H1336 C1320 0.931 . S
H1337 C1325 0.930 . S
H1338 C1326 0.956 . S
H1339 C1326 0.961 . S
H1340 C1326 0.961 . S
H1341 C1327 0.958 . S
H1342 C1327 0.961 . S
H1343 C1327 0.960 . S
C1344 C1345 1.391 . S
C1344 C1346 1.394 . S
C1344 H1360 0.931 . S
C1345 C1344 1.391 . S
C1345 C1349 1.376 . S
C1346 C1344 1.394 . S
C1346 C1347 1.369 . S
C1346 C1350 1.531 . S
C1347 C1346 1.369 . S
C1347 C1348 1.410 . S
C1347 C1355 1.503 . S
C1348 C1347 1.410 . S
C1348 C1349 1.392 . S
C1348 C1351 1.511 . S
C1349 C1345 1.376 . S
C1349 C1348 1.392 . S
C1349 H1361 0.929 . S
C1350 C1346 1.531 . S
C1350 H1362 0.960 . S
C1350 H1363 0.962 . S
C1350 H1364 0.960 . S
C1351 C1348 1.511 . S
C1351 H1365 0.961 . S
C1351 H1366 0.961 . S
C1351 H1367 0.961 . S
C1352 C1353 1.370 . S
C1352 C1354 1.363 . S
C1352 H1368 0.931 . S
C1353 C1352 1.370 . S
C1353 C1357 1.408 . S
C1354 C1352 1.363 . S
C1354 C1355 1.370 . S
C1354 C1358 1.524 . S
C1355 C1347 1.503 . S
C1355 C1354 1.370 . S
C1355 C1356 1.403 . S
C1356 C1355 1.403 . S
C1356 C1357 1.404 . S
C1356 C1359 1.539 . S
C1357 C1353 1.408 . S
C1357 C1356 1.404 . S
C1357 H1369 0.930 . S
C1358 C1354 1.524 . S
C1358 H1370 0.956 . S
C1358 H1371 0.961 . S
C1358 H1372 0.961 . S
C1359 C1356 1.539 . S
C1359 H1373 0.958 . S
C1359 H1374 0.961 . S
C1359 H1375 0.960 . S
H1360 C1344 0.931 . S
H1361 C1349 0.929 . S
H1362 C1350 0.960 . S
H1363 C1350 0.962 . S
H1364 C1350 0.960 . S
H1365 C1351 0.961 . S
H1366 C1351 0.961 . S
H1367 C1351 0.961 . S
H1368 C1352 0.931 . S
H1369 C1357 0.930 . S
H1370 C1358 0.956 . S
H1371 C1358 0.961 . S
H1372 C1358 0.961 . S
H1373 C1359 0.958 . S
H1374 C1359 0.961 . S
H1375 C1359 0.960 . S
C1376 C1377 1.391 . S
C1376 C1378 1.394 . S
C1376 H1392 0.931 . S
C1377 C1376 1.391 . S
C1377 C1381 1.376 . S
C1378 C1376 1.394 . S
C1378 C1379 1.369 . S
C1378 C1382 1.531 . S
C1379 C1378 1.369 . S
C1379 C1380 1.410 . S
C1379 C1387 1.503 . S
C1380 C1379 1.410 . S
C1380 C1381 1.392 . S
C1380 C1383 1.511 . S
C1381 C1377 1.376 . S
C1381 C1380 1.392 . S
C1381 H1393 0.929 . S
C1382 C1378 1.531 . S
C1382 H1394 0.960 . S
C1382 H1395 0.962 . S
C1382 H1396 0.960 . S
C1383 C1380 1.511 . S
C1383 H1397 0.961 . S
C1383 H1398 0.961 . S
C1383 H1399 0.961 . S
C1384 C1385 1.370 . S
C1384 C1386 1.363 . S
C1384 H1400 0.931 . S
C1385 C1384 1.370 . S
C1385 C1389 1.408 . S
C1386 C1384 1.363 . S
C1386 C1387 1.370 . S
C1386 C1390 1.524 . S
C1387 C1379 1.503 . S
C1387 C1386 1.370 . S
C1387 C1388 1.403 . S
C1388 C1387 1.403 . S
C1388 C1389 1.404 . S
C1388 C1391 1.539 . S
C1389 C1385 1.408 . S
C1389 C1388 1.404 . S
C1389 H1401 0.930 . S
C1390 C1386 1.524 . S
C1390 H1402 0.956 . S
C1390 H1403 0.961 . S
C1390 H1404 0.961 . S
C1391 C1388 1.539 . S
C1391 H1405 0.958 . S
C1391 H1406 0.961 . S
C1391 H1407 0.960 . S
H1392 C1376 0.931 . S
H1393 C1381 0.929 . S
H1394 C1382 0.960 . S
H1395 C1382 0.962 . S
H1396 C1382 0.960 . S
H1397 C1383 0.961 . S
H1398 C1383 0.961 . S
H1399 C1383 0.961 . S
H1400 C1384 0.931 . S
H1401 C1389 0.930 . S
H1402 C1390 0.956 . S
H1403 C1390 0.961 . S
H1404 C1390 0.961 . S
H1405 C1391 0.958 . S
H1406 C1391 0.961 . S
H1407 C1391 0.960 . S
C1408 C1409 1.391 . S
C1408 C1410 1.394 . S
C1408 H1424 0.931 . S
C1409 C1408 1.391 . S
C1409 C1413 1.376 . S
C1410 C1408 1.394 . S
C1410 C1411 1.369 . S
C1410 C1414 1.531 . S
C1411 C1410 1.369 . S
C1411 C1412 1.410 . S
C1411 C1419 1.503 . S
C1412 C1411 1.410 . S
C1412 C1413 1.392 . S
C1412 C1415 1.511 . S
C1413 C1409 1.376 . S
C1413 C1412 1.392 . S
C1413 H1425 0.929 . S
C1414 C1410 1.531 . S
C1414 H1426 0.960 . S
C1414 H1427 0.962 . S
C1414 H1428 0.960 . S
C1415 C1412 1.511 . S
C1415 H1429 0.961 . S
C1415 H1430 0.961 . S
C1415 H1431 0.961 . S
C1416 C1417 1.370 . S
C1416 C1418 1.363 . S
C1416 H1432 0.931 . S
C1417 C1416 1.370 . S
C1417 C1421 1.408 . S
C1418 C1416 1.363 . S
C1418 C1419 1.370 . S
C1418 C1422 1.524 . S
C1419 C1411 1.503 . S
C1419 C1418 1.370 . S
C1419 C1420 1.403 . S
C1420 C1419 1.403 . S
C1420 C1421 1.404 . S
C1420 C1423 1.539 . S
C1421 C1417 1.408 . S
C1421 C1420 1.404 . S
C1421 H1433 0.930 . S
C1422 C1418 1.524 . S
C1422 H1434 0.956 . S
C1422 H1435 0.961 . S
C1422 H1436 0.961 . S
C1423 C1420 1.539 . S
C1423 H1437 0.958 . S
C1423 H1438 0.961 . S
C1423 H1439 0.960 . S
H1424 C1408 0.931 . S
H1425 C1413 0.929 . S
H1426 C1414 0.960 . S
H1427 C1414 0.962 . S
H1428 C1414 0.960 . S
H1429 C1415 0.961 . S
H1430 C1415 0.961 . S
H1431 C1415 0.961 . S
H1432 C1416 0.931 . S
H1433 C1421 0.930 . S
H1434 C1422 0.956 . S
H1435 C1422 0.961 . S
H1436 C1422 0.961 . S
H1437 C1423 0.958 . S
H1438 C1423 0.961 . S
H1439 C1423 0.960 . S
C1440 C1441 1.391 . S
C1440 C1442 1.394 . S
C1440 H1456 0.931 . S
C1441 C1440 1.391 . S
C1441 C1445 1.376 . S
C1442 C1440 1.394 . S
C1442 C1443 1.369 . S
C1442 C1446 1.531 . S
C1443 C1442 1.369 . S
C1443 C1444 1.410 . S
C1443 C1451 1.503 . S
C1444 C1443 1.410 . S
C1444 C1445 1.392 . S
C1444 C1447 1.511 . S
C1445 C1441 1.376 . S
C1445 C1444 1.392 . S
C1445 H1457 0.929 . S
C1446 C1442 1.531 . S
C1446 H1458 0.960 . S
C1446 H1459 0.962 . S
C1446 H1460 0.960 . S
C1447 C1444 1.511 . S
C1447 H1461 0.961 . S
C1447 H1462 0.961 . S
C1447 H1463 0.961 . S
C1448 C1449 1.370 . S
C1448 C1450 1.363 . S
C1448 H1464 0.931 . S
C1449 C1448 1.370 . S
C1449 C1453 1.408 . S
C1450 C1448 1.363 . S
C1450 C1451 1.370 . S
C1450 C1454 1.524 . S
C1451 C1443 1.503 . S
C1451 C1450 1.370 . S
C1451 C1452 1.403 . S
C1452 C1451 1.403 . S
C1452 C1453 1.404 . S
C1452 C1455 1.539 . S
C1453 C1449 1.408 . S
C1453 C1452 1.404 . S
C1453 H1465 0.930 . S
C1454 C1450 1.524 . S
C1454 H1466 0.956 . S
C1454 H1467 0.961 . S
C1454 H1468 0.961 . S
C1455 C1452 1.539 . S
C1455 H1469 0.958 . S
C1455 H1470 0.961 . S
C1455 H1471 0.960 . S
H1456 C1440 0.931 . S
H1457 C1445 0.929 . S
H1458 C1446 0.960 . S
H1459 C1446 0.962 . S
H1460 C1446 0.960 . S
H1461 C1447 0.961 . S
H1462 C1447 0.961 . S
H1463 C1447 0.961 . S
H1464 C1448 0.931 . S
H1465 C1453 0.930 . S
H1466 C1454 0.956 . S
H1467 C1454 0.961 . S
H1468 C1454 0.961 . S
H1469 C1455 0.958 . S
H1470 C1455 0.961 . S
H1471 C1455 0.960 . S
C1472 C1473 1.391 . S
C1472 C1474 1.394 . S
C1472 H1488 0.931 . S
C1473 C1472 1.391 . S
C1473 C1477 1.376 . S
C1474 C1472 1.394 . S
C1474 C1475 1.369 . S
C1474 C1478 1.531 . S
C1475 C1474 1.369 . S
C1475 C1476 1.410 . S
C1475 C1483 1.503 . S
C1476 C1475 1.410 . S
C1476 C1477 1.392 . S
C1476 C1479 1.511 . S
C1477 C1473 1.376 . S
C1477 C1476 1.392 . S
C1477 H1489 0.929 . S
C1478 C1474 1.531 . S
C1478 H1490 0.960 . S
C1478 H1491 0.962 . S
C1478 H1492 0.960 . S
C1479 C1476 1.511 . S
C1479 H1493 0.961 . S
C1479 H1494 0.961 . S
C1479 H1495 0.961 . S
C1480 C1481 1.370 . S
C1480 C1482 1.363 . S
C1480 H1496 0.931 . S
C1481 C1480 1.370 . S
C1481 C1485 1.408 . S
C1482 C1480 1.363 . S
C1482 C1483 1.370 . S
C1482 C1486 1.524 . S
C1483 C1475 1.503 . S
C1483 C1482 1.370 . S
C1483 C1484 1.403 . S
C1484 C1483 1.403 . S
C1484 C1485 1.404 . S
C1484 C1487 1.539 . S
C1485 C1481 1.408 . S
C1485 C1484 1.404 . S
C1485 H1497 0.930 . S
C1486 C1482 1.524 . S
C1486 H1498 0.956 . S
C1486 H1499 0.961 . S
C1486 H1500 0.961 . S
C1487 C1484 1.539 . S
C1487 H1501 0.958 . S
C1487 H1502 0.961 . S
C1487 H1503 0.960 . S
H1488 C1472 0.931 . S
H1489 C1477 0.929 . S
H1490 C1478 0.960 . S
H1491 C1478 0.962 . S
H1492 C1478 0.960 . S
H1493 C1479 0.961 . S
H1494 C1479 0.961 . S
H1495 C1479 0.961 . S
H1496 C1480 0.931 . S
H1497 C1485 0.930 . S
H1498 C1486 0.956 . S
H1499 C1486 0.961 . S
H1500 C1486 0.961 . S
H1501 C1487 0.958 . S
H1502 C1487 0.961 . S
H1503 C1487 0.960 . S
C1504 C1505 1.391 . S
C1504 C1506 1.394 . S
C1504 H1520 0.931 . S
C1505 C1504 1.391 . S
C1505 C1509 1.376 . S
C1506 C1504 1.394 . S
C1506 C1507 1.369 . S
C1506 C1510 1.531 . S
C1507 C1506 1.369 . S
C1507 C1508 1.410 . S
C1507 C1515 1.503 . S
C1508 C1507 1.410 . S
C1508 C1509 1.392 . S
C1508 C1511 1.511 . S
C1509 C1505 1.376 . S
C1509 C1508 1.392 . S
C1509 H1521 0.929 . S
C1510 C1506 1.531 . S
C1510 H1522 0.960 . S
C1510 H1523 0.962 . S
C1510 H1524 0.960 . S
C1511 C1508 1.511 . S
C1511 H1525 0.961 . S
C1511 H1526 0.961 . S
C1511 H1527 0.961 . S
C1512 C1513 1.370 . S
C1512 C1514 1.363 . S
C1512 H1528 0.931 . S
C1513 C1512 1.370 . S
C1513 C1517 1.408 . S
C1514 C1512 1.363 . S
C1514 C1515 1.370 . S
C1514 C1518 1.524 . S
C1515 C1507 1.503 . S
C1515 C1514 1.370 . S
C1515 C1516 1.403 . S
C1516 C1515 1.403 . S
C1516 C1517 1.404 . S
C1516 C1519 1.539 . S
C1517 C1513 1.408 . S
C1517 C1516 1.404 . S
C1517 H1529 0.930 . S
C1518 C1514 1.524 . S
C1518 H1530 0.956 . S
C1518 H1531 0.961 . S
C1518 H1532 0.961 . S
C1519 C1516 1.539 . S
C1519 H1533 0.958 . S
C1519 H1534 0.961 . S
C1519 H1535 0.960 . S
H1520 C1504 0.931 . S
H1521 C1509 0.929 . S
H1522 C1510 0.960 . S
H1523 C1510 0.962 . S
H1524 C1510 0.960 . S
H1525 C1511 0.961 . S
H1526 C1511 0.961 . S
H1527 C1511 0.961 . S
H1528 C1512 0.931 . S
H1529 C1517 0.930 . S
H1530 C1518 0.956 . S
H1531 C1518 0.961 . S
H1532 C1518 0.961 . S
H1533 C1519 0.958 . S
H1534 C1519 0.961 . S
H1535 C1519 0.960 . S
C1536 C1537 1.391 . S
C1536 C1538 1.394 . S
C1536 H1552 0.931 . S
C1537 C1536 1.391 . S
C1537 C1541 1.376 . S
C1538 C1536 1.394 . S
C1538 C1539 1.369 . S
C1538 C1542 1.531 . S
C1539 C1538 1.369 . S
C1539 C1540 1.410 . S
C1539 C1547 1.503 . S
C1540 C1539 1.410 . S
C1540 C1541 1.392 . S
C1540 C1543 1.511 . S
C1541 C1537 1.376 . S
C1541 C1540 1.392 . S
C1541 H1553 0.929 . S
C1542 C1538 1.531 . S
C1542 H1554 0.960 . S
C1542 H1555 0.962 . S
C1542 H1556 0.960 . S
C1543 C1540 1.511 . S
C1543 H1557 0.961 . S
C1543 H1558 0.961 . S
C1543 H1559 0.961 . S
C1544 C1545 1.370 . S
C1544 C1546 1.363 . S
C1544 H1560 0.931 . S
C1545 C1544 1.370 . S
C1545 C1549 1.408 . S
C1546 C1544 1.363 . S
C1546 C1547 1.370 . S
C1546 C1550 1.524 . S
C1547 C1539 1.503 . S
C1547 C1546 1.370 . S
C1547 C1548 1.403 . S
C1548 C1547 1.403 . S
C1548 C1549 1.404 . S
C1548 C1551 1.539 . S
C1549 C1545 1.408 . S
C1549 C1548 1.404 . S
C1549 H1561 0.930 . S
C1550 C1546 1.524 . S
C1550 H1562 0.956 . S
C1550 H1563 0.961 . S
C1550 H1564 0.961 . S
C1551 C1548 1.539 . S
C1551 H1565 0.958 . S
C1551 H1566 0.961 . S
C1551 H1567 0.960 . S
H1552 C1536 0.931 . S
H1553 C1541 0.929 . S
H1554 C1542 0.960 . S
H1555 C1542 0.962 . S
H1556 C1542 0.960 . S
H1557 C1543 0.961 . S
H1558 C1543 0.961 . S
H1559 C1543 0.961 . S
H1560 C1544 0.931 . S
H1561 C1549 0.930 . S
H1562 C1550 0.956 . S
H1563 C1550 0.961 . S
H1564 C1550 0.961 . S
H1565 C1551 0.958 . S
H1566 C1551 0.961 . S
H1567 C1551 0.960 . S
C1568 C1569 1.391 . S
C1568 C1570 1.394 . S
C1568 H1584 0.931 . S
C1569 C1568 1.391 . S
C1569 C1573 1.376 . S
C1570 C1568 1.394 . S
C1570 C1571 1.369 . S
C1570 C1574 1.531 . S
C1571 C1570 1.369 . S
C1571 C1572 1.410 . S
C1571 C1579 1.503 . S
C1572 C1571 1.410 . S
C1572 C1573 1.392 . S
C1572 C1575 1.511 . S
C1573 C1569 1.376 . S
C1573 C1572 1.392 . S
C1573 H1585 0.929 . S
C1574 C1570 1.531 . S
C1574 H1586 0.960 . S
C1574 H1587 0.962 . S
C1574 H1588 0.960 . S
C1575 C1572 1.511 . S
C1575 H1589 0.961 . S
C1575 H1590 0.961 . S
C1575 H1591 0.961 . S
C1576 C1577 1.370 . S
C1576 C1578 1.363 . S
C1576 H1592 0.931 . S
C1577 C1576 1.370 . S
C1577 C1581 1.408 . S
C1578 C1576 1.363 . S
C1578 C1579 1.370 . S
C1578 C1582 1.524 . S
C1579 C1571 1.503 . S
C1579 C1578 1.370 . S
C1579 C1580 1.403 . S
C1580 C1579 1.403 . S
C1580 C1581 1.404 . S
C1580 C1583 1.539 . S
C1581 C1577 1.408 . S
C1581 C1580 1.404 . S
C1581 H1593 0.930 . S
C1582 C1578 1.524 . S
C1582 H1594 0.956 . S
C1582 H1595 0.961 . S
C1582 H1596 0.961 . S
C1583 C1580 1.539 . S
C1583 H1597 0.958 . S
C1583 H1598 0.961 . S
C1583 H1599 0.960 . S
H1584 C1568 0.931 . S
H1585 C1573 0.929 . S
H1586 C1574 0.960 . S
H1587 C1574 0.962 . S
H1588 C1574 0.960 . S
H1589 C1575 0.961 . S
H1590 C1575 0.961 . S
H1591 C1575 0.961 . S
H1592 C1576 0.931 . S
H1593 C1581 0.930 . S
H1594 C1582 0.956 . S
H1595 C1582 0.961 . S
H1596 C1582 0.961 . S
H1597 C1583 0.958 . S
H1598 C1583 0.961 . S
H1599 C1583 0.960 . S
C1600 C1601 1.391 . S
C1600 C1602 1.394 . S
C1600 H1616 0.931 . S
C1601 C1600 1.391 . S
C1601 C1605 1.376 . S
C1602 C1600 1.394 . S
C1602 C1603 1.369 . S
C1602 C1606 1.531 . S
C1603 C1602 1.369 . S
C1603 C1604 1.410 . S
C1603 C1611 1.503 . S
C1604 C1603 1.410 . S
C1604 C1605 1.392 . S
C1604 C1607 1.511 . S
C1605 C1601 1.376 . S
C1605 C1604 1.392 . S
C1605 H1617 0.929 . S
C1606 C1602 1.531 . S
C1606 H1618 0.960 . S
C1606 H1619 0.962 . S
C1606 H1620 0.960 . S
C1607 C1604 1.511 . S
C1607 H1621 0.961 . S
C1607 H1622 0.961 . S
C1607 H1623 0.961 . S
C1608 C1609 1.370 . S
C1608 C1610 1.363 . S
C1608 H1624 0.931 . S
C1609 C1608 1.370 . S
C1609 C1613 1.408 . S
C1610 C1608 1.363 . S
C1610 C1611 1.370 . S
C1610 C1614 1.524 . S
C1611 C1603 1.503 . S
C1611 C1610 1.370 . S
C1611 C1612 1.403 . S
C1612 C1611 1.403 . S
C1612 C1613 1.404 . S
C1612 C1615 1.539 . S
C1613 C1609 1.408 . S
C1613 C1612 1.404 . S
C1613 H1625 0.930 . S
C1614 C1610 1.524 . S
C1614 H1626 0.956 . S
C1614 H1627 0.961 . S
C1614 H1628 0.961 . S
C1615 C1612 1.539 . S
C1615 H1629 0.958 . S
C1615 H1630 0.961 . S
C1615 H1631 0.960 . S
H1616 C1600 0.931 . S
H1617 C1605 0.929 . S
H1618 C1606 0.960 . S
H1619 C1606 0.962 . S
H1620 C1606 0.960 . S
H1621 C1607 0.961 . S
H1622 C1607 0.961 . S
H1623 C1607 0.961 . S
H1624 C1608 0.931 . S
H1625 C1613 0.930 . S
H1626 C1614 0.956 . S
H1627 C1614 0.961 . S
H1628 C1614 0.961 . S
H1629 C1615 0.958 . S
H1630 C1615 0.961 . S
H1631 C1615 0.960 . S
C1632 C1633 1.391 . S
C1632 C1634 1.394 . S
C1632 H1648 0.931 . S
C1633 C1632 1.391 . S
C1633 C1637 1.376 . S
C1634 C1632 1.394 . S
C1634 C1635 1.369 . S
C1634 C1638 1.531 . S
C1635 C1634 1.369 . S
C1635 C1636 1.410 . S
C1635 C1643 1.503 1_455 S
C1636 C1635 1.410 . S
C1636 C1637 1.392 . S
C1636 C1639 1.511 . S
C1637 C1633 1.376 . S
C1637 C1636 1.392 . S
C1637 H1649 0.929 . S
C1638 C1634 1.531 . S
C1638 H1650 0.960 1_455 S
C1638 H1651 0.962 . S
C1638 H1652 0.960 . S
C1639 C1636 1.511 . S
C1639 H1653 0.961 . S
C1639 H1654 0.961 1_455 S
C1639 H1655 0.961 . S
C1640 C1641 1.370 . S
C1640 C1642 1.363 . S
C1640 H1656 0.931 . S
C1641 C1640 1.370 . S
C1641 C1645 1.408 . S
C1642 C1640 1.363 . S
C1642 C1643 1.370 . S
C1642 C1646 1.524 . S
C1643 C1635 1.503 1_655 S
C1643 C1642 1.370 . S
C1643 C1644 1.403 . S
C1644 C1643 1.403 . S
C1644 C1645 1.404 . S
C1644 C1647 1.539 . S
C1645 C1641 1.408 . S
C1645 C1644 1.404 . S
C1645 H1657 0.930 . S
C1646 C1642 1.524 . S
C1646 H1658 0.976 . S
C1646 H1659 0.961 1_655 S
C1646 H1660 0.961 . S
C1647 C1644 1.539 . S
C1647 H1661 0.958 . S
C1647 H1662 0.961 . S
C1647 H1663 0.984 . S
H1648 C1632 0.931 . S
H1649 C1637 0.929 . S
H1650 C1638 0.960 1_655 S
H1651 C1638 0.962 . S
H1652 C1638 0.960 . S
H1653 C1639 0.961 . S
H1654 C1639 0.961 1_655 S
H1655 C1639 0.961 . S
H1656 C1640 0.931 . S
H1657 C1645 0.930 . S
H1658 C1646 0.976 . S
H1659 C1646 0.961 1_455 S
H1660 C1646 0.961 . S
H1661 C1647 0.958 . S
H1662 C1647 0.961 . S
H1663 C1647 0.984 . S
C1664 C1665 1.391 . S
C1664 C1666 1.394 . S
C1664 H1680 0.931 . S
C1665 C1664 1.391 . S
C1665 C1669 1.376 . S
C1666 C1664 1.394 . S
C1666 C1667 1.369 . S
C1666 C1670 1.531 . S
C1667 C1666 1.369 . S
C1667 C1668 1.410 . S
C1667 C1675 1.503 1_545 S
C1668 C1667 1.410 . S
C1668 C1669 1.392 . S
C1668 C1671 1.511 . S
C1669 C1665 1.376 . S
C1669 C1668 1.392 . S
C1669 H1681 0.929 . S
C1670 C1666 1.531 . S
C1670 H1682 0.960 1_545 S
C1670 H1683 0.962 . S
C1670 H1684 0.960 . S
C1671 C1668 1.511 . S
C1671 H1685 0.961 . S
C1671 H1686 0.961 1_545 S
C1671 H1687 0.961 . S
C1672 C1673 1.370 . S
C1672 C1674 1.363 . S
C1672 H1688 0.931 . S
C1673 C1672 1.370 . S
C1673 C1677 1.408 . S
C1674 C1672 1.363 . S
C1674 C1675 1.370 . S
C1674 C1678 1.524 . S
C1675 C1667 1.503 1_565 S
C1675 C1674 1.370 . S
C1675 C1676 1.403 . S
C1676 C1675 1.403 . S
C1676 C1677 1.404 . S
C1676 C1679 1.539 . S
C1677 C1673 1.408 . S
C1677 C1676 1.404 . S
C1677 H1689 0.930 . S
C1678 C1674 1.524 . S
C1678 H1690 0.978 . S
C1678 H1691 0.961 1_565 S
C1678 H1692 0.961 . S
C1679 C1676 1.539 . S
C1679 H1693 0.958 . S
C1679 H1694 0.961 . S
C1679 H1695 0.980 . S
H1680 C1664 0.931 . S
H1681 C1669 0.929 . S
H1682 C1670 0.960 1_565 S
H1683 C1670 0.962 . S
H1684 C1670 0.960 . S
H1685 C1671 0.961 . S
H1686 C1671 0.961 1_565 S
H1687 C1671 0.961 . S
H1688 C1672 0.931 . S
H1689 C1677 0.930 . S
H1690 C1678 0.978 . S
H1691 C1678 0.961 1_545 S
H1692 C1678 0.961 . S
H1693 C1679 0.958 . S
H1694 C1679 0.961 . S
H1695 C1679 0.980 . S
C1696 C1697 1.391 . S
C1696 C1698 1.394 . S
C1696 H1712 0.931 . S
C1697 C1696 1.391 . S
C1697 C1701 1.376 . S
C1698 C1696 1.394 . S
C1698 C1699 1.369 . S
C1698 C1702 1.531 . S
C1699 C1698 1.369 . S
C1699 C1700 1.410 . S
C1699 C1707 1.503 1_655 S
C1700 C1699 1.410 . S
C1700 C1701 1.392 . S
C1700 C1703 1.511 . S
C1701 C1697 1.376 . S
C1701 C1700 1.392 . S
C1701 H1713 0.929 . S
C1702 C1698 1.531 . S
C1702 H1714 0.960 1_655 S
C1702 H1715 0.962 . S
C1702 H1716 0.960 . S
C1703 C1700 1.511 . S
C1703 H1717 0.961 . S
C1703 H1718 0.961 1_655 S
C1703 H1719 0.961 . S
C1704 C1705 1.370 . S
C1704 C1706 1.363 . S
C1704 H1720 0.931 . S
C1705 C1704 1.370 . S
C1705 C1709 1.408 . S
C1706 C1704 1.363 . S
C1706 C1707 1.370 . S
C1706 C1710 1.524 . S
C1707 C1699 1.503 1_455 S
C1707 C1706 1.370 . S
C1707 C1708 1.403 . S
C1708 C1707 1.403 . S
C1708 C1709 1.404 . S
C1708 C1711 1.539 . S
C1709 C1705 1.408 . S
C1709 C1708 1.404 . S
C1709 H1721 0.930 . S
C1710 C1706 1.524 . S
C1710 H1722 0.956 . S
C1710 H1723 0.961 1_455 S
C1710 H1724 0.961 . S
C1711 C1708 1.539 . S
C1711 H1725 0.958 . S
C1711 H1726 0.961 . S
C1711 H1727 0.967 . S
H1712 C1696 0.931 . S
H1713 C1701 0.929 . S
H1714 C1702 0.960 1_455 S
H1715 C1702 0.962 . S
H1716 C1702 0.960 . S
H1717 C1703 0.961 . S
H1718 C1703 0.961 1_455 S
H1719 C1703 0.961 . S
H1720 C1704 0.931 . S
H1721 C1709 0.930 . S
H1722 C1710 0.956 . S
H1723 C1710 0.961 1_655 S
H1724 C1710 0.961 . S
H1725 C1711 0.958 . S
H1726 C1711 0.961 . S
H1727 C1711 0.967 . S
C1728 C1729 1.391 . S
C1728 C1730 1.394 . S
C1728 H1744 0.931 . S
C1729 C1728 1.391 . S
C1729 C1733 1.376 . S
C1730 C1728 1.394 . S
C1730 C1731 1.369 . S
C1730 C1734 1.531 . S
C1731 C1730 1.369 . S
C1731 C1732 1.410 . S
C1731 C1739 1.503 1_545 S
C1732 C1731 1.410 . S
C1732 C1733 1.392 . S
C1732 C1735 1.511 . S
C1733 C1729 1.376 . S
C1733 C1732 1.392 . S
C1733 H1745 0.929 . S
C1734 C1730 1.531 . S
C1734 H1746 0.960 1_545 S
C1734 H1747 0.962 . S
C1734 H1748 0.960 . S
C1735 C1732 1.511 . S
C1735 H1749 0.961 . S
C1735 H1750 0.961 1_545 S
C1735 H1751 0.961 . S
C1736 C1737 1.370 . S
C1736 C1738 1.363 . S
C1736 H1752 0.931 . S
C1737 C1736 1.370 . S
C1737 C1741 1.408 . S
C1738 C1736 1.363 . S
C1738 C1739 1.370 . S
C1738 C1742 1.524 . S
C1739 C1731 1.503 1_565 S
C1739 C1738 1.370 . S
C1739 C1740 1.403 . S
C1740 C1739 1.403 . S
C1740 C1741 1.404 . S
C1740 C1743 1.539 . S
C1741 C1737 1.408 . S
C1741 C1740 1.404 . S
C1741 H1753 0.930 . S
C1742 C1738 1.524 . S
C1742 H1754 0.981 . S
C1742 H1755 0.961 1_565 S
C1742 H1756 0.961 . S
C1743 C1740 1.539 . S
C1743 H1757 0.958 . S
C1743 H1758 0.961 . S
C1743 H1759 0.978 . S
H1744 C1728 0.931 . S
H1745 C1733 0.929 . S
H1746 C1734 0.960 1_565 S
H1747 C1734 0.962 . S
H1748 C1734 0.960 . S
H1749 C1735 0.961 . S
H1750 C1735 0.961 1_565 S
H1751 C1735 0.961 . S
H1752 C1736 0.931 . S
H1753 C1741 0.930 . S
H1754 C1742 0.981 . S
H1755 C1742 0.961 1_545 S
H1756 C1742 0.961 . S
H1757 C1743 0.958 . S
H1758 C1743 0.961 . S
H1759 C1743 0.978 . S
C1760 C1761 1.391 . S
C1760 C1762 1.394 . S
C1760 H1776 0.931 . S
C1761 C1760 1.391 . S
C1761 C1765 1.376 . S
C1762 C1760 1.394 . S
C1762 C1763 1.369 . S
C1762 C1766 1.531 . S
C1763 C1762 1.369 . S
C1763 C1764 1.410 . S
C1763 C1771 1.503 1_565 S
C1764 C1763 1.410 . S
C1764 C1765 1.392 . S
C1764 C1767 1.511 . S
C1765 C1761 1.376 . S
C1765 C1764 1.392 . S
C1765 H1777 0.929 . S
C1766 C1762 1.531 . S
C1766 H1778 0.960 1_565 S
C1766 H1779 0.962 . S
C1766 H1780 0.960 . S
C1767 C1764 1.511 . S
C1767 H1781 0.961 . S
C1767 H1782 0.961 1_565 S
C1767 H1783 0.961 . S
C1768 C1769 1.370 . S
C1768 C1770 1.363 . S
C1768 H1784 0.931 . S
C1769 C1768 1.370 . S
C1769 C1773 1.408 . S
C1770 C1768 1.363 . S
C1770 C1771 1.370 . S
C1770 C1774 1.524 . S
C1771 C1763 1.503 1_545 S
C1771 C1770 1.370 . S
C1771 C1772 1.403 . S
C1772 C1771 1.403 . S
C1772 C1773 1.404 . S
C1772 C1775 1.539 . S
C1773 C1769 1.408 . S
C1773 C1772 1.404 . S
C1773 H1785 0.930 . S
C1774 C1770 1.524 . S
C1774 H1786 0.980 . S
C1774 H1787 0.961 1_545 S
C1774 H1788 0.961 . S
C1775 C1772 1.539 . S
C1775 H1789 0.958 . S
C1775 H1790 0.961 . S
C1775 H1791 0.975 . S
H1776 C1760 0.931 . S
H1777 C1765 0.929 . S
H1778 C1766 0.960 1_545 S
H1779 C1766 0.962 . S
H1780 C1766 0.960 . S
H1781 C1767 0.961 . S
H1782 C1767 0.961 1_545 S
H1783 C1767 0.961 . S
H1784 C1768 0.931 . S
H1785 C1773 0.930 . S
H1786 C1774 0.980 . S
H1787 C1774 0.961 1_565 S
H1788 C1774 0.961 . S
H1789 C1775 0.958 . S
H1790 C1775 0.961 . S
H1791 C1775 0.975 . S
C1792 C1793 1.391 . S
C1792 C1794 1.394 . S
C1792 H1808 0.931 . S
C1793 C1792 1.391 . S
C1793 C1797 1.376 . S
C1794 C1792 1.394 . S
C1794 C1795 1.369 . S
C1794 C1798 1.531 . S
C1795 C1794 1.369 . S
C1795 C1796 1.410 . S
C1795 C1803 1.503 1_655 S
C1796 C1795 1.410 . S
C1796 C1797 1.392 . S
C1796 C1799 1.511 . S
C1797 C1793 1.376 . S
C1797 C1796 1.392 . S
C1797 H1809 0.929 . S
C1798 C1794 1.531 . S
C1798 H1810 0.960 1_655 S
C1798 H1811 0.962 . S
C1798 H1812 0.960 . S
C1799 C1796 1.511 . S
C1799 H1813 0.961 . S
C1799 H1814 0.961 1_655 S
C1799 H1815 0.961 . S
C1800 C1801 1.370 . S
C1800 C1802 1.363 . S
C1800 H1816 0.931 . S
C1801 C1800 1.370 . S
C1801 C1805 1.408 . S
C1802 C1800 1.363 . S
C1802 C1803 1.370 . S
C1802 C1806 1.524 . S
C1803 C1795 1.503 1_455 S
C1803 C1802 1.370 . S
C1803 C1804 1.403 . S
C1804 C1803 1.403 . S
C1804 C1805 1.404 . S
C1804 C1807 1.539 . S
C1805 C1801 1.408 . S
C1805 C1804 1.404 . S
C1805 H1817 0.930 . S
C1806 C1802 1.524 . S
C1806 H1818 0.956 . S
C1806 H1819 0.961 1_455 S
C1806 H1820 0.961 . S
C1807 C1804 1.539 . S
C1807 H1821 0.958 . S
C1807 H1822 0.961 . S
C1807 H1823 0.970 . S
H1808 C1792 0.931 . S
H1809 C1797 0.929 . S
H1810 C1798 0.960 1_455 S
H1811 C1798 0.962 . S
H1812 C1798 0.960 . S
H1813 C1799 0.961 . S
H1814 C1799 0.961 1_455 S
H1815 C1799 0.961 . S
H1816 C1800 0.931 . S
H1817 C1805 0.930 . S
H1818 C1806 0.956 . S
H1819 C1806 0.961 1_655 S
H1820 C1806 0.961 . S
H1821 C1807 0.958 . S
H1822 C1807 0.961 . S
H1823 C1807 0.970 . S
C1824 C1825 1.391 . S
C1824 C1826 1.394 . S
C1824 H1840 0.931 . S
C1825 C1824 1.391 . S
C1825 C1829 1.376 . S
C1826 C1824 1.394 . S
C1826 C1827 1.369 . S
C1826 C1830 1.531 . S
C1827 C1826 1.369 . S
C1827 C1828 1.410 . S
C1827 C1835 1.503 1_565 S
C1828 C1827 1.410 . S
C1828 C1829 1.392 . S
C1828 C1831 1.511 . S
C1829 C1825 1.376 . S
C1829 C1828 1.392 . S
C1829 H1841 0.929 . S
C1830 C1826 1.531 . S
C1830 H1842 0.960 1_565 S
C1830 H1843 0.962 . S
C1830 H1844 0.960 . S
C1831 C1828 1.511 . S
C1831 H1845 0.961 . S
C1831 H1846 0.961 1_565 S
C1831 H1847 0.961 . S
C1832 C1833 1.370 . S
C1832 C1834 1.363 . S
C1832 H1848 0.931 . S
C1833 C1832 1.370 . S
C1833 C1837 1.408 . S
C1834 C1832 1.363 . S
C1834 C1835 1.370 . S
C1834 C1838 1.524 . S
C1835 C1827 1.503 1_545 S
C1835 C1834 1.370 . S
C1835 C1836 1.403 . S
C1836 C1835 1.403 . S
C1836 C1837 1.404 . S
C1836 C1839 1.539 . S
C1837 C1833 1.408 . S
C1837 C1836 1.404 . S
C1837 H1849 0.930 . S
C1838 C1834 1.524 . S
C1838 H1850 0.977 . S
C1838 H1851 0.961 1_545 S
C1838 H1852 0.961 . S
C1839 C1836 1.539 . S
C1839 H1853 0.958 . S
C1839 H1854 0.961 . S
C1839 H1855 0.982 . S
H1840 C1824 0.931 . S
H1841 C1829 0.929 . S
H1842 C1830 0.960 1_545 S
H1843 C1830 0.962 . S
H1844 C1830 0.960 . S
H1845 C1831 0.961 . S
H1846 C1831 0.961 1_545 S
H1847 C1831 0.961 . S
H1848 C1832 0.931 . S
H1849 C1837 0.930 . S
H1850 C1838 0.977 . S
H1851 C1838 0.961 1_565 S
H1852 C1838 0.961 . S
H1853 C1839 0.958 . S
H1854 C1839 0.961 . S
H1855 C1839 0.982 . S
C1856 C1857 1.391 . S
C1856 C1858 1.394 . S
C1856 H1872 0.931 . S
C1857 C1856 1.391 . S
C1857 C1861 1.376 . S
C1858 C1856 1.394 . S
C1858 C1859 1.369 . S
C1858 C1862 1.531 . S
C1859 C1858 1.369 . S
C1859 C1860 1.410 . S
C1859 C1867 1.503 1_655 S
C1860 C1859 1.410 . S
C1860 C1861 1.392 . S
C1860 C1863 1.511 . S
C1861 C1857 1.376 . S
C1861 C1860 1.392 . S
C1861 H1873 0.929 . S
C1862 C1858 1.531 . S
C1862 H1874 0.960 1_655 S
C1862 H1875 0.962 . S
C1862 H1876 0.960 . S
C1863 C1860 1.511 . S
C1863 H1877 0.961 . S
C1863 H1878 0.961 1_655 S
C1863 H1879 0.961 . S
C1864 C1865 1.370 . S
C1864 C1866 1.363 . S
C1864 H1880 0.931 . S
C1865 C1864 1.370 . S
C1865 C1869 1.408 . S
C1866 C1864 1.363 . S
C1866 C1867 1.370 . S
C1866 C1870 1.524 . S
C1867 C1859 1.503 1_455 S
C1867 C1866 1.370 . S
C1867 C1868 1.403 . S
C1868 C1867 1.403 . S
C1868 C1869 1.404 . S
C1868 C1871 1.539 . S
C1869 C1865 1.408 . S
C1869 C1868 1.404 . S
C1869 H1881 0.930 . S
C1870 C1866 1.524 . S
C1870 H1882 0.980 . S
C1870 H1883 0.961 1_455 S
C1870 H1884 0.961 . S
C1871 C1868 1.539 . S
C1871 H1885 0.958 . S
C1871 H1886 0.961 . S
C1871 H1887 0.976 . S
H1872 C1856 0.931 . S
H1873 C1861 0.929 . S
H1874 C1862 0.960 1_455 S
H1875 C1862 0.962 . S
H1876 C1862 0.960 . S
H1877 C1863 0.961 . S
H1878 C1863 0.961 1_455 S
H1879 C1863 0.961 . S
H1880 C1864 0.931 . S
H1881 C1869 0.930 . S
H1882 C1870 0.980 . S
H1883 C1870 0.961 1_655 S
H1884 C1870 0.961 . S
H1885 C1871 0.958 . S
H1886 C1871 0.961 . S
H1887 C1871 0.976 . S
C1888 C1889 1.391 . S
C1888 C1890 1.394 . S
C1888 H1904 0.931 . S
C1889 C1888 1.391 . S
C1889 C1893 1.376 . S
C1890 C1888 1.394 . S
C1890 C1891 1.369 . S
C1890 C1894 1.531 . S
C1891 C1890 1.369 . S
C1891 C1892 1.410 . S
C1891 C1899 1.503 1_556 S
C1892 C1891 1.410 . S
C1892 C1893 1.392 . S
C1892 C1895 1.511 . S
C1893 C1889 1.376 . S
C1893 C1892 1.392 . S
C1893 H1905 0.929 . S
C1894 C1890 1.531 . S
C1894 H1906 0.960 1_556 S
C1894 H1907 0.962 . S
C1894 H1908 0.960 . S
C1895 C1892 1.511 . S
C1895 H1909 0.961 . S
C1895 H1910 0.961 1_556 S
C1895 H1911 0.961 . S
C1896 C1897 1.370 . S
C1896 C1898 1.363 . S
C1896 H1912 0.931 . S
C1897 C1896 1.370 . S
C1897 C1901 1.408 . S
C1898 C1896 1.363 . S
C1898 C1899 1.370 . S
C1898 C1902 1.524 . S
C1899 C1891 1.503 1_554 S
C1899 C1898 1.370 . S
C1899 C1900 1.403 . S
C1900 C1899 1.403 . S
C1900 C1901 1.404 . S
C1900 C1903 1.539 . S
C1901 C1897 1.408 . S
C1901 C1900 1.404 . S
C1901 H1913 0.930 . S
C1902 C1898 1.524 . S
C1902 H1914 0.980 . S
C1902 H1915 0.961 1_554 S
C1902 H1916 0.961 . S
C1903 C1900 1.539 . S
C1903 H1917 0.958 . S
C1903 H1918 0.961 . S
C1903 H1919 0.979 . S
H1904 C1888 0.931 . S
H1905 C1893 0.929 . S
H1906 C1894 0.960 1_554 S
H1907 C1894 0.962 . S
H1908 C1894 0.960 . S
H1909 C1895 0.961 . S
H1910 C1895 0.961 1_554 S
H1911 C1895 0.961 . S
H1912 C1896 0.931 . S
H1913 C1901 0.930 . S
H1914 C1902 0.980 . S
H1915 C1902 0.961 1_556 S
H1916 C1902 0.961 . S
H1917 C1903 0.958 . S
H1918 C1903 0.961 . S
H1919 C1903 0.979 . S
C1920 C1921 1.391 . S
C1920 C1922 1.394 . S
C1920 H1936 0.931 . S
C1921 C1920 1.391 . S
C1921 C1925 1.376 . S
C1922 C1920 1.394 . S
C1922 C1923 1.369 . S
C1922 C1926 1.531 . S
C1923 C1922 1.369 . S
C1923 C1924 1.410 . S
C1923 C1931 1.503 1_556 S
C1924 C1923 1.410 . S
C1924 C1925 1.392 . S
C1924 C1927 1.511 . S
C1925 C1921 1.376 . S
C1925 C1924 1.392 . S
C1925 H1937 0.929 . S
C1926 C1922 1.531 . S
C1926 H1938 0.960 1_556 S
C1926 H1939 0.962 . S
C1926 H1940 0.960 . S
C1927 C1924 1.511 . S
C1927 H1941 0.961 . S
C1927 H1942 0.961 1_556 S
C1927 H1943 0.961 . S
C1928 C1929 1.370 . S
C1928 C1930 1.363 . S
C1928 H1944 0.931 . S
C1929 C1928 1.370 . S
C1929 C1933 1.408 . S
C1930 C1928 1.363 . S
C1930 C1931 1.370 . S
C1930 C1934 1.524 . S
C1931 C1923 1.503 1_554 S
C1931 C1930 1.370 . S
C1931 C1932 1.403 . S
C1932 C1931 1.403 . S
C1932 C1933 1.404 . S
C1932 C1935 1.539 . S
C1933 C1929 1.408 . S
C1933 C1932 1.404 . S
C1933 H1945 0.930 . S
C1934 C1930 1.524 . S
C1934 H1946 0.956 . S
C1934 H1947 0.961 1_554 S
C1934 H1948 0.961 . S
C1935 C1932 1.539 . S
C1935 H1949 0.958 . S
C1935 H1950 0.961 . S
C1935 H1951 0.960 . S
H1936 C1920 0.931 . S
H1937 C1925 0.929 . S
H1938 C1926 0.960 1_554 S
H1939 C1926 0.962 . S
H1940 C1926 0.960 . S
H1941 C1927 0.961 . S
H1942 C1927 0.961 1_554 S
H1943 C1927 0.961 . S
H1944 C1928 0.931 . S
H1945 C1933 0.930 . S
H1946 C1934 0.956 . S
H1947 C1934 0.961 1_556 S
H1948 C1934 0.961 . S
H1949 C1935 0.958 . S
H1950 C1935 0.961 . S
H1951 C1935 0.960 . S
C1952 C1953 1.391 . S
C1952 C1954 1.394 . S
C1952 H1968 0.931 . S
C1953 C1952 1.391 . S
C1953 C1957 1.376 . S
C1954 C1952 1.394 . S
C1954 C1955 1.369 . S
C1954 C1958 1.531 . S
C1955 C1954 1.369 . S
C1955 C1956 1.410 . S
C1955 C1963 1.503 1_556 S
C1956 C1955 1.410 . S
C1956 C1957 1.392 . S
C1956 C1959 1.511 . S
C1957 C1953 1.376 . S
C1957 C1956 1.392 . S
C1957 H1969 0.929 . S
C1958 C1954 1.531 . S
C1958 H1970 0.960 1_556 S
C1958 H1971 0.962 . S
C1958 H1972 0.960 . S
C1959 C1956 1.511 . S
C1959 H1973 0.961 . S
C1959 H1974 0.961 1_556 S
C1959 H1975 0.961 . S
C1960 C1961 1.370 . S
C1960 C1962 1.363 . S
C1960 H1976 0.931 . S
C1961 C1960 1.370 . S
C1961 C1965 1.408 . S
C1962 C1960 1.363 . S
C1962 C1963 1.370 . S
C1962 C1966 1.524 . S
C1963 C1955 1.503 1_554 S
C1963 C1962 1.370 . S
C1963 C1964 1.403 . S
C1964 C1963 1.403 . S
C1964 C1965 1.404 . S
C1964 C1967 1.539 . S
C1965 C1961 1.408 . S
C1965 C1964 1.404 . S
C1965 H1977 0.930 . S
C1966 C1962 1.524 . S
C1966 H1978 0.956 . S
C1966 H1979 0.961 1_554 S
C1966 H1980 0.961 . S
C1967 C1964 1.539 . S
C1967 H1981 0.958 . S
C1967 H1982 0.961 . S
C1967 H1983 0.956 . S
H1968 C1952 0.931 . S
H1969 C1957 0.929 . S
H1970 C1958 0.960 1_554 S
H1971 C1958 0.962 . S
H1972 C1958 0.960 . S
H1973 C1959 0.961 . S
H1974 C1959 0.961 1_554 S
H1975 C1959 0.961 . S
H1976 C1960 0.931 . S
H1977 C1965 0.930 . S
H1978 C1966 0.956 . S
H1979 C1966 0.961 1_556 S
H1980 C1966 0.961 . S
H1981 C1967 0.958 . S
H1982 C1967 0.961 . S
H1983 C1967 0.956 . S
C1984 C1985 1.391 . S
C1984 C1986 1.394 . S
C1984 H2000 0.931 . S
C1985 C1984 1.391 . S
C1985 C1989 1.376 . S
C1986 C1984 1.394 . S
C1986 C1987 1.369 . S
C1986 C1990 1.531 . S
C1987 C1986 1.369 . S
C1987 C1988 1.410 . S
C1987 C1995 1.503 1_556 S
C1988 C1987 1.410 . S
C1988 C1989 1.392 . S
C1988 C1991 1.511 . S
C1989 C1985 1.376 . S
C1989 C1988 1.392 . S
C1989 H2001 0.929 . S
C1990 C1986 1.531 . S
C1990 H2002 0.960 1_556 S
C1990 H2003 0.962 . S
C1990 H2004 0.960 . S
C1991 C1988 1.511 . S
C1991 H2005 0.961 . S
C1991 H2006 0.961 1_556 S
C1991 H2007 0.961 . S
C1992 C1993 1.370 . S
C1992 C1994 1.363 . S
C1992 H2008 0.931 . S
C1993 C1992 1.370 . S
C1993 C1997 1.408 . S
C1994 C1992 1.363 . S
C1994 C1995 1.370 . S
C1994 C1998 1.524 . S
C1995 C1987 1.503 1_554 S
C1995 C1994 1.370 . S
C1995 C1996 1.403 . S
C1996 C1995 1.403 . S
C1996 C1997 1.404 . S
C1996 C1999 1.539 . S
C1997 C1993 1.408 . S
C1997 C1996 1.404 . S
C1997 H2009 0.930 . S
C1998 C1994 1.524 . S
C1998 H2010 0.956 . S
C1998 H2011 0.961 1_554 S
C1998 H2012 0.961 . S
C1999 C1996 1.539 . S
C1999 H2013 0.958 . S
C1999 H2014 0.961 . S
C1999 H2015 0.959 . S
H2000 C1984 0.931 . S
H2001 C1989 0.929 . S
H2002 C1990 0.960 1_554 S
H2003 C1990 0.962 . S
H2004 C1990 0.960 . S
H2005 C1991 0.961 . S
H2006 C1991 0.961 1_554 S
H2007 C1991 0.961 . S
H2008 C1992 0.931 . S
H2009 C1997 0.930 . S
H2010 C1998 0.956 . S
H2011 C1998 0.961 1_556 S
H2012 C1998 0.961 . S
H2013 C1999 0.958 . S
H2014 C1999 0.961 . S
H2015 C1999 0.959 . S
C2016 C2017 1.391 . S
C2016 C2018 1.394 . S
C2016 H2032 0.931 . S
C2017 C2016 1.391 . S
C2017 C2021 1.376 . S
C2018 C2016 1.394 . S
C2018 C2019 1.369 . S
C2018 C2022 1.531 . S
C2019 C2018 1.369 . S
C2019 C2020 1.410 . S
C2019 C2027 1.503 . S
C2020 C2019 1.410 . S
C2020 C2021 1.392 . S
C2020 C2023 1.511 . S
C2021 C2017 1.376 . S
C2021 C2020 1.392 . S
C2021 H2033 0.929 . S
C2022 C2018 1.531 . S
C2022 H2034 0.960 . S
C2022 H2035 0.962 . S
C2022 H2036 0.960 . S
C2023 C2020 1.511 . S
C2023 H2037 0.961 . S
C2023 H2038 0.961 . S
C2023 H2039 0.961 . S
C2024 C2025 1.370 . S
C2024 C2026 1.363 . S
C2024 H2040 0.931 . S
C2025 C2024 1.370 . S
C2025 C2029 1.408 . S
C2026 C2024 1.363 . S
C2026 C2027 1.370 . S
C2026 C2030 1.524 . S
C2027 C2019 1.503 . S
C2027 C2026 1.370 . S
C2027 C2028 1.403 . S
C2028 C2027 1.403 . S
C2028 C2029 1.404 . S
C2028 C2031 1.539 . S
C2029 C2025 1.408 . S
C2029 C2028 1.404 . S
C2029 H2041 0.930 . S
C2030 C2026 1.524 . S
C2030 H2042 0.956 . S
C2030 H2043 0.961 . S
C2030 H2044 0.961 . S
C2031 C2028 1.539 . S
C2031 H2045 0.958 . S
C2031 H2046 0.961 . S
C2031 H2047 0.960 . S
H2032 C2016 0.931 . S
H2033 C2021 0.929 . S
H2034 C2022 0.960 . S
H2035 C2022 0.962 . S
H2036 C2022 0.960 . S
H2037 C2023 0.961 . S
H2038 C2023 0.961 . S
H2039 C2023 0.961 . S
H2040 C2024 0.931 . S
H2041 C2029 0.930 . S
H2042 C2030 0.956 . S
H2043 C2030 0.961 . S
H2044 C2030 0.961 . S
H2045 C2031 0.958 . S
H2046 C2031 0.961 . S
H2047 C2031 0.960 . S
C2048 C2049 1.391 . S
C2048 C2050 1.394 . S
C2048 H2064 0.931 . S
C2049 C2048 1.391 . S
C2049 C2053 1.376 . S
C2050 C2048 1.394 . S
C2050 C2051 1.369 . S
C2050 C2054 1.531 . S
C2051 C2050 1.369 . S
C2051 C2052 1.410 . S
C2051 C2059 1.503 . S
C2052 C2051 1.410 . S
C2052 C2053 1.392 . S
C2052 C2055 1.511 . S
C2053 C2049 1.376 . S
C2053 C2052 1.392 . S
C2053 H2065 0.929 . S
C2054 C2050 1.531 . S
C2054 H2066 0.960 . S
C2054 H2067 0.962 . S
C2054 H2068 0.960 . S
C2055 C2052 1.511 . S
C2055 H2069 0.961 . S
C2055 H2070 0.961 . S
C2055 H2071 0.961 . S
C2056 C2057 1.370 . S
C2056 C2058 1.363 . S
C2056 H2072 0.931 . S
C2057 C2056 1.370 . S
C2057 C2061 1.408 . S
C2058 C2056 1.363 . S
C2058 C2059 1.370 . S
C2058 C2062 1.524 . S
C2059 C2051 1.503 . S
C2059 C2058 1.370 . S
C2059 C2060 1.403 . S
C2060 C2059 1.403 . S
C2060 C2061 1.404 . S
C2060 C2063 1.539 . S
C2061 C2057 1.408 . S
C2061 C2060 1.404 . S
C2061 H2073 0.930 . S
C2062 C2058 1.524 . S
C2062 H2074 0.956 . S
C2062 H2075 0.961 . S
C2062 H2076 0.961 . S
C2063 C2060 1.539 . S
C2063 H2077 0.958 . S
C2063 H2078 0.961 . S
C2063 H2079 0.960 . S
H2064 C2048 0.931 . S
H2065 C2053 0.929 . S
H2066 C2054 0.960 . S
H2067 C2054 0.962 . S
H2068 C2054 0.960 . S
H2069 C2055 0.961 . S
H2070 C2055 0.961 . S
H2071 C2055 0.961 . S
H2072 C2056 0.931 . S
H2073 C2061 0.930 . S
H2074 C2062 0.956 . S
H2075 C2062 0.961 . S
H2076 C2062 0.961 . S
H2077 C2063 0.958 . S
H2078 C2063 0.961 . S
H2079 C2063 0.960 . S
C2080 C2081 1.391 . S
C2080 C2082 1.394 . S
C2080 H2096 0.931 . S
C2081 C2080 1.391 . S
C2081 C2085 1.376 . S
C2082 C2080 1.394 . S
C2082 C2083 1.369 . S
C2082 C2086 1.531 . S
C2083 C2082 1.369 . S
C2083 C2084 1.410 . S
C2083 C2091 1.503 . S
C2084 C2083 1.410 . S
C2084 C2085 1.392 . S
C2084 C2087 1.511 . S
C2085 C2081 1.376 . S
C2085 C2084 1.392 . S
C2085 H2097 0.929 . S
C2086 C2082 1.531 . S
C2086 H2098 0.960 . S
C2086 H2099 0.962 . S
C2086 H2100 0.960 . S
C2087 C2084 1.511 . S
C2087 H2101 0.961 . S
C2087 H2102 0.961 . S
C2087 H2103 0.961 . S
C2088 C2089 1.370 . S
C2088 C2090 1.363 . S
C2088 H2104 0.931 . S
C2089 C2088 1.370 . S
C2089 C2093 1.408 . S
C2090 C2088 1.363 . S
C2090 C2091 1.370 . S
C2090 C2094 1.524 . S
C2091 C2083 1.503 . S
C2091 C2090 1.370 . S
C2091 C2092 1.403 . S
C2092 C2091 1.403 . S
C2092 C2093 1.404 . S
C2092 C2095 1.539 . S
C2093 C2089 1.408 . S
C2093 C2092 1.404 . S
C2093 H2105 0.930 . S
C2094 C2090 1.524 . S
C2094 H2106 0.956 . S
C2094 H2107 0.961 . S
C2094 H2108 0.961 . S
C2095 C2092 1.539 . S
C2095 H2109 0.958 . S
C2095 H2110 0.961 . S
C2095 H2111 0.960 . S
H2096 C2080 0.931 . S
H2097 C2085 0.929 . S
H2098 C2086 0.960 . S
H2099 C2086 0.962 . S
H2100 C2086 0.960 . S
H2101 C2087 0.961 . S
H2102 C2087 0.961 . S
H2103 C2087 0.961 . S
H2104 C2088 0.931 . S
H2105 C2093 0.930 . S
H2106 C2094 0.956 . S
H2107 C2094 0.961 . S
H2108 C2094 0.961 . S
H2109 C2095 0.958 . S
H2110 C2095 0.961 . S
H2111 C2095 0.960 . S
C2112 C2113 1.391 . S
C2112 C2114 1.394 . S
C2112 H2128 0.931 . S
C2113 C2112 1.391 . S
C2113 C2117 1.376 . S
C2114 C2112 1.394 . S
C2114 C2115 1.369 . S
C2114 C2118 1.531 . S
C2115 C2114 1.369 . S
C2115 C2116 1.410 . S
C2115 C2123 1.503 . S
C2116 C2115 1.410 . S
C2116 C2117 1.392 . S
C2116 C2119 1.511 . S
C2117 C2113 1.376 . S
C2117 C2116 1.392 . S
C2117 H2129 0.929 . S
C2118 C2114 1.531 . S
C2118 H2130 0.960 . S
C2118 H2131 0.962 . S
C2118 H2132 0.960 . S
C2119 C2116 1.511 . S
C2119 H2133 0.961 . S
C2119 H2134 0.961 . S
C2119 H2135 0.961 . S
C2120 C2121 1.370 . S
C2120 C2122 1.363 . S
C2120 H2136 0.931 . S
C2121 C2120 1.370 . S
C2121 C2125 1.408 . S
C2122 C2120 1.363 . S
C2122 C2123 1.370 . S
C2122 C2126 1.524 . S
C2123 C2115 1.503 . S
C2123 C2122 1.370 . S
C2123 C2124 1.403 . S
C2124 C2123 1.403 . S
C2124 C2125 1.404 . S
C2124 C2127 1.539 . S
C2125 C2121 1.408 . S
C2125 C2124 1.404 . S
C2125 H2137 0.930 . S
C2126 C2122 1.524 . S
C2126 H2138 0.956 . S
C2126 H2139 0.961 . S
C2126 H2140 0.961 . S
C2127 C2124 1.539 . S
C2127 H2141 0.958 . S
C2127 H2142 0.961 . S
C2127 H2143 0.960 . S
H2128 C2112 0.931 . S
H2129 C2117 0.929 . S
H2130 C2118 0.960 . S
H2131 C2118 0.962 . S
H2132 C2118 0.960 . S
H2133 C2119 0.961 . S
H2134 C2119 0.961 . S
H2135 C2119 0.961 . S
H2136 C2120 0.931 . S
H2137 C2125 0.930 . S
H2138 C2126 0.956 . S
H2139 C2126 0.961 . S
H2140 C2126 0.961 . S
H2141 C2127 0.958 . S
H2142 C2127 0.961 . S
H2143 C2127 0.960 . S
C2144 C2145 1.391 . S
C2144 C2146 1.394 . S
C2144 H2160 0.931 . S
C2145 C2144 1.391 . S
C2145 C2149 1.376 . S
C2146 C2144 1.394 . S
C2146 C2147 1.369 . S
C2146 C2150 1.531 . S
C2147 C2146 1.369 . S
C2147 C2148 1.410 . S
C2147 C2155 1.503 . S
C2148 C2147 1.410 . S
C2148 C2149 1.392 . S
C2148 C2151 1.511 . S
C2149 C2145 1.376 . S
C2149 C2148 1.392 . S
C2149 H2161 0.929 . S
C2150 C2146 1.531 . S
C2150 H2162 0.960 . S
C2150 H2163 0.962 . S
C2150 H2164 0.960 . S
C2151 C2148 1.511 . S
C2151 H2165 0.961 . S
C2151 H2166 0.961 . S
C2151 H2167 0.961 . S
C2152 C2153 1.370 . S
C2152 C2154 1.363 . S
C2152 H2168 0.931 . S
C2153 C2152 1.370 . S
C2153 C2157 1.408 . S
C2154 C2152 1.363 . S
C2154 C2155 1.370 . S
C2154 C2158 1.524 . S
C2155 C2147 1.503 . S
C2155 C2154 1.370 . S
C2155 C2156 1.403 . S
C2156 C2155 1.403 . S
C2156 C2157 1.404 . S
C2156 C2159 1.539 . S
C2157 C2153 1.408 . S
C2157 C2156 1.404 . S
C2157 H2169 0.930 . S
C2158 C2154 1.524 . S
C2158 H2170 0.956 . S
C2158 H2171 0.961 . S
C2158 H2172 0.961 . S
C2159 C2156 1.539 . S
C2159 H2173 0.958 . S
C2159 H2174 0.961 . S
C2159 H2175 0.960 . S
H2160 C2144 0.931 . S
H2161 C2149 0.929 . S
H2162 C2150 0.960 . S
H2163 C2150 0.962 . S
H2164 C2150 0.960 . S
H2165 C2151 0.961 . S
H2166 C2151 0.961 . S
H2167 C2151 0.961 . S
H2168 C2152 0.931 . S
H2169 C2157 0.930 . S
H2170 C2158 0.956 . S
H2171 C2158 0.961 . S
H2172 C2158 0.961 . S
H2173 C2159 0.958 . S
H2174 C2159 0.961 . S
H2175 C2159 0.960 . S
C2176 C2177 1.391 . S
C2176 C2178 1.394 . S
C2176 H2192 0.931 . S
C2177 C2176 1.391 . S
C2177 C2181 1.376 . S
C2178 C2176 1.394 . S
C2178 C2179 1.369 . S
C2178 C2182 1.531 . S
C2179 C2178 1.369 . S
C2179 C2180 1.410 . S
C2179 C2187 1.503 . S
C2180 C2179 1.410 . S
C2180 C2181 1.392 . S
C2180 C2183 1.511 . S
C2181 C2177 1.376 . S
C2181 C2180 1.392 . S
C2181 H2193 0.929 . S
C2182 C2178 1.531 . S
C2182 H2194 0.960 . S
C2182 H2195 0.962 . S
C2182 H2196 0.960 . S
C2183 C2180 1.511 . S
C2183 H2197 0.961 . S
C2183 H2198 0.961 . S
C2183 H2199 0.961 . S
C2184 C2185 1.370 . S
C2184 C2186 1.363 . S
C2184 H2200 0.931 . S
C2185 C2184 1.370 . S
C2185 C2189 1.408 . S
C2186 C2184 1.363 . S
C2186 C2187 1.370 . S
C2186 C2190 1.524 . S
C2187 C2179 1.503 . S
C2187 C2186 1.370 . S
C2187 C2188 1.403 . S
C2188 C2187 1.403 . S
C2188 C2189 1.404 . S
C2188 C2191 1.539 . S
C2189 C2185 1.408 . S
C2189 C2188 1.404 . S
C2189 H2201 0.930 . S
C2190 C2186 1.524 . S
C2190 H2202 0.956 . S
C2190 H2203 0.961 . S
C2190 H2204 0.961 . S
C2191 C2188 1.539 . S
C2191 H2205 0.958 . S
C2191 H2206 0.961 . S
C2191 H2207 0.960 . S
H2192 C2176 0.931 . S
H2193 C2181 0.929 . S
H2194 C2182 0.960 . S
H2195 C2182 0.962 . S
H2196 C2182 0.960 . S
H2197 C2183 0.961 . S
H2198 C2183 0.961 . S
H2199 C2183 0.961 . S
H2200 C2184 0.931 . S
H2201 C2189 0.930 . S
H2202 C2190 0.956 . S
H2203 C2190 0.961 . S
H2204 C2190 0.961 . S
H2205 C2191 0.958 . S
H2206 C2191 0.961 . S
H2207 C2191 0.960 . S
C2208 C2209 1.391 . S
C2208 C2210 1.394 . S
C2208 H2224 0.931 . S
C2209 C2208 1.391 . S
C2209 C2213 1.376 . S
C2210 C2208 1.394 . S
C2210 C2211 1.369 . S
C2210 C2214 1.531 . S
C2211 C2210 1.369 . S
C2211 C2212 1.410 . S
C2211 C2219 1.503 . S
C2212 C2211 1.410 . S
C2212 C2213 1.392 . S
C2212 C2215 1.511 . S
C2213 C2209 1.376 . S
C2213 C2212 1.392 . S
C2213 H2225 0.929 . S
C2214 C2210 1.531 . S
C2214 H2226 0.960 . S
C2214 H2227 0.962 . S
C2214 H2228 0.960 . S
C2215 C2212 1.511 . S
C2215 H2229 0.961 . S
C2215 H2230 0.961 . S
C2215 H2231 0.961 . S
C2216 C2217 1.370 . S
C2216 C2218 1.363 . S
C2216 H2232 0.931 . S
C2217 C2216 1.370 . S
C2217 C2221 1.408 . S
C2218 C2216 1.363 . S
C2218 C2219 1.370 . S
C2218 C2222 1.524 . S
C2219 C2211 1.503 . S
C2219 C2218 1.370 . S
C2219 C2220 1.403 . S
C2220 C2219 1.403 . S
C2220 C2221 1.404 . S
C2220 C2223 1.539 . S
C2221 C2217 1.408 . S
C2221 C2220 1.404 . S
C2221 H2233 0.930 . S
C2222 C2218 1.524 . S
C2222 H2234 0.956 . S
C2222 H2235 0.961 . S
C2222 H2236 0.961 . S
C2223 C2220 1.539 . S
C2223 H2237 0.958 . S
C2223 H2238 0.961 . S
C2223 H2239 0.960 . S
H2224 C2208 0.931 . S
H2225 C2213 0.929 . S
H2226 C2214 0.960 . S
H2227 C2214 0.962 . S
H2228 C2214 0.960 . S
H2229 C2215 0.961 . S
H2230 C2215 0.961 . S
H2231 C2215 0.961 . S
H2232 C2216 0.931 . S
H2233 C2221 0.930 . S
H2234 C2222 0.956 . S
H2235 C2222 0.961 . S
H2236 C2222 0.961 . S
H2237 C2223 0.958 . S
H2238 C2223 0.961 . S
H2239 C2223 0.960 . S
C2240 C2241 1.391 . S
C2240 C2242 1.394 . S
C2240 H2256 0.931 . S
C2241 C2240 1.391 . S
C2241 C2245 1.376 . S
C2242 C2240 1.394 . S
C2242 C2243 1.369 . S
C2242 C2246 1.531 . S
C2243 C2242 1.369 . S
C2243 C2244 1.410 . S
C2243 C2251 1.503 . S
C2244 C2243 1.410 . S
C2244 C2245 1.392 . S
C2244 C2247 1.511 . S
C2245 C2241 1.376 . S
C2245 C2244 1.392 . S
C2245 H2257 0.929 . S
C2246 C2242 1.531 . S
C2246 H2258 0.960 . S
C2246 H2259 0.962 . S
C2246 H2260 0.960 . S
C2247 C2244 1.511 . S
C2247 H2261 0.961 . S
C2247 H2262 0.961 . S
C2247 H2263 0.961 . S
C2248 C2249 1.370 . S
C2248 C2250 1.363 . S
C2248 H2264 0.931 . S
C2249 C2248 1.370 . S
C2249 C2253 1.408 . S
C2250 C2248 1.363 . S
C2250 C2251 1.370 . S
C2250 C2254 1.524 . S
C2251 C2243 1.503 . S
C2251 C2250 1.370 . S
C2251 C2252 1.403 . S
C2252 C2251 1.403 . S
C2252 C2253 1.404 . S
C2252 C2255 1.539 . S
C2253 C2249 1.408 . S
C2253 C2252 1.404 . S
C2253 H2265 0.930 . S
C2254 C2250 1.524 . S
C2254 H2266 0.956 . S
C2254 H2267 0.961 . S
C2254 H2268 0.961 . S
C2255 C2252 1.539 . S
C2255 H2269 0.958 . S
C2255 H2270 0.961 . S
C2255 H2271 0.960 . S
H2256 C2240 0.931 . S
H2257 C2245 0.929 . S
H2258 C2246 0.960 . S
H2259 C2246 0.962 . S
H2260 C2246 0.960 . S
H2261 C2247 0.961 . S
H2262 C2247 0.961 . S
H2263 C2247 0.961 . S
H2264 C2248 0.931 . S
H2265 C2253 0.930 . S
H2266 C2254 0.956 . S
H2267 C2254 0.961 . S
H2268 C2254 0.961 . S
H2269 C2255 0.958 . S
H2270 C2255 0.961 . S
H2271 C2255 0.960 . S
C2272 C2273 1.391 . S
C2272 C2274 1.394 . S
C2272 H2288 0.931 . S
C2273 C2272 1.391 . S
C2273 C2277 1.376 . S
C2274 C2272 1.394 . S
C2274 C2275 1.369 . S
C2274 C2278 1.531 . S
C2275 C2274 1.369 . S
C2275 C2276 1.410 . S
C2275 C2283 1.503 . S
C2276 C2275 1.410 . S
C2276 C2277 1.392 . S
C2276 C2279 1.511 . S
C2277 C2273 1.376 . S
C2277 C2276 1.392 . S
C2277 H2289 0.929 . S
C2278 C2274 1.531 . S
C2278 H2290 0.960 . S
C2278 H2291 0.962 . S
C2278 H2292 0.960 . S
C2279 C2276 1.511 . S
C2279 H2293 0.961 . S
C2279 H2294 0.961 . S
C2279 H2295 0.961 . S
C2280 C2281 1.370 . S
C2280 C2282 1.363 . S
C2280 H2296 0.931 . S
C2281 C2280 1.370 . S
C2281 C2285 1.408 . S
C2282 C2280 1.363 . S
C2282 C2283 1.370 . S
C2282 C2286 1.524 . S
C2283 C2275 1.503 . S
C2283 C2282 1.370 . S
C2283 C2284 1.403 . S
C2284 C2283 1.403 . S
C2284 C2285 1.404 . S
C2284 C2287 1.539 . S
C2285 C2281 1.408 . S
C2285 C2284 1.404 . S
C2285 H2297 0.930 . S
C2286 C2282 1.524 . S
C2286 H2298 0.956 . S
C2286 H2299 0.961 . S
C2286 H2300 0.961 . S
C2287 C2284 1.539 . S
C2287 H2301 0.958 . S
C2287 H2302 0.961 . S
C2287 H2303 0.960 . S
H2288 C2272 0.931 . S
H2289 C2277 0.929 . S
H2290 C2278 0.960 . S
H2291 C2278 0.962 . S
H2292 C2278 0.960 . S
H2293 C2279 0.961 . S
H2294 C2279 0.961 . S
H2295 C2279 0.961 . S
H2296 C2280 0.931 . S
H2297 C2285 0.930 . S
H2298 C2286 0.956 . S
H2299 C2286 0.961 . S
H2300 C2286 0.961 . S
H2301 C2287 0.958 . S
H2302 C2287 0.961 . S
H2303 C2287 0.960 . S
C2304 C2305 1.391 . S
C2304 C2306 1.394 . S
C2304 H2320 0.931 . S
C2305 C2304 1.391 . S
C2305 C2309 1.376 . S
C2306 C2304 1.394 . S
C2306 C2307 1.369 . S
C2306 C2310 1.531 . S
C2307 C2306 1.369 . S
C2307 C2308 1.410 . S
C2307 C2315 1.503 . S
C2308 C2307 1.410 . S
C2308 C2309 1.392 . S
C2308 C2311 1.511 . S
C2309 C2305 1.376 . S
C2309 C2308 1.392 . S
C2309 H2321 0.929 . S
C2310 C2306 1.531 . S
C2310 H2322 0.960 . S
C2310 H2323 0.962 . S
C2310 H2324 0.960 . S
C2311 C2308 1.511 . S
C2311 H2325 0.961 . S
C2311 H2326 0.961 . S
C2311 H2327 0.961 . S
C2312 C2313 1.370 . S
C2312 C2314 1.363 . S
C2312 H2328 0.931 . S
C2313 C2312 1.370 . S
C2313 C2317 1.408 . S
C2314 C2312 1.363 . S
C2314 C2315 1.370 . S
C2314 C2318 1.524 . S
C2315 C2307 1.503 . S
C2315 C2314 1.370 . S
C2315 C2316 1.403 . S
C2316 C2315 1.403 . S
C2316 C2317 1.404 . S
C2316 C2319 1.539 . S
C2317 C2313 1.408 . S
C2317 C2316 1.404 . S
C2317 H2329 0.930 . S
C2318 C2314 1.524 . S
C2318 H2330 0.956 . S
C2318 H2331 0.961 . S
C2318 H2332 0.961 . S
C2319 C2316 1.539 . S
C2319 H2333 0.958 . S
C2319 H2334 0.961 . S
C2319 H2335 0.960 . S
H2320 C2304 0.931 . S
H2321 C2309 0.929 . S
H2322 C2310 0.960 . S
H2323 C2310 0.962 . S
H2324 C2310 0.960 . S
H2325 C2311 0.961 . S
H2326 C2311 0.961 . S
H2327 C2311 0.961 . S
H2328 C2312 0.931 . S
H2329 C2317 0.930 . S
H2330 C2318 0.956 . S
H2331 C2318 0.961 . S
H2332 C2318 0.961 . S
H2333 C2319 0.958 . S
H2334 C2319 0.961 . S
H2335 C2319 0.960 . S
C2336 C2337 1.391 . S
C2336 C2338 1.394 . S
C2336 H2352 0.931 . S
C2337 C2336 1.391 . S
C2337 C2341 1.376 . S
C2338 C2336 1.394 . S
C2338 C2339 1.369 . S
C2338 C2342 1.531 . S
C2339 C2338 1.369 . S
C2339 C2340 1.410 . S
C2339 C2347 1.503 . S
C2340 C2339 1.410 . S
C2340 C2341 1.392 . S
C2340 C2343 1.511 . S
C2341 C2337 1.376 . S
C2341 C2340 1.392 . S
C2341 H2353 0.929 . S
C2342 C2338 1.531 . S
C2342 H2354 0.960 . S
C2342 H2355 0.962 . S
C2342 H2356 0.960 . S
C2343 C2340 1.511 . S
C2343 H2357 0.961 . S
C2343 H2358 0.961 . S
C2343 H2359 0.961 . S
C2344 C2345 1.370 . S
C2344 C2346 1.363 . S
C2344 H2360 0.931 . S
C2345 C2344 1.370 . S
C2345 C2349 1.408 . S
C2346 C2344 1.363 . S
C2346 C2347 1.370 . S
C2346 C2350 1.524 . S
C2347 C2339 1.503 . S
C2347 C2346 1.370 . S
C2347 C2348 1.403 . S
C2348 C2347 1.403 . S
C2348 C2349 1.404 . S
C2348 C2351 1.539 . S
C2349 C2345 1.408 . S
C2349 C2348 1.404 . S
C2349 H2361 0.930 . S
C2350 C2346 1.524 . S
C2350 H2362 0.956 . S
C2350 H2363 0.961 . S
C2350 H2364 0.961 . S
C2351 C2348 1.539 . S
C2351 H2365 0.958 . S
C2351 H2366 0.961 . S
C2351 H2367 0.960 . S
H2352 C2336 0.931 . S
H2353 C2341 0.929 . S
H2354 C2342 0.960 . S
H2355 C2342 0.962 . S
H2356 C2342 0.960 . S
H2357 C2343 0.961 . S
H2358 C2343 0.961 . S
H2359 C2343 0.961 . S
H2360 C2344 0.931 . S
H2361 C2349 0.930 . S
H2362 C2350 0.956 . S
H2363 C2350 0.961 . S
H2364 C2350 0.961 . S
H2365 C2351 0.958 . S
H2366 C2351 0.961 . S
H2367 C2351 0.960 . S
C2368 C2369 1.391 . S
C2368 C2370 1.394 . S
C2368 H2384 0.931 . S
C2369 C2368 1.391 . S
C2369 C2373 1.376 . S
C2370 C2368 1.394 . S
C2370 C2371 1.369 . S
C2370 C2374 1.531 . S
C2371 C2370 1.369 . S
C2371 C2372 1.410 . S
C2371 C2379 1.503 . S
C2372 C2371 1.410 . S
C2372 C2373 1.392 . S
C2372 C2375 1.511 . S
C2373 C2369 1.376 . S
C2373 C2372 1.392 . S
C2373 H2385 0.929 . S
C2374 C2370 1.531 . S
C2374 H2386 0.960 . S
C2374 H2387 0.962 . S
C2374 H2388 0.960 . S
C2375 C2372 1.511 . S
C2375 H2389 0.961 . S
C2375 H2390 0.961 . S
C2375 H2391 0.961 . S
C2376 C2377 1.370 . S
C2376 C2378 1.363 . S
C2376 H2392 0.931 . S
C2377 C2376 1.370 . S
C2377 C2381 1.408 . S
C2378 C2376 1.363 . S
C2378 C2379 1.370 . S
C2378 C2382 1.524 . S
C2379 C2371 1.503 . S
C2379 C2378 1.370 . S
C2379 C2380 1.403 . S
C2380 C2379 1.403 . S
C2380 C2381 1.404 . S
C2380 C2383 1.539 . S
C2381 C2377 1.408 . S
C2381 C2380 1.404 . S
C2381 H2393 0.930 . S
C2382 C2378 1.524 . S
C2382 H2394 0.956 . S
C2382 H2395 0.961 . S
C2382 H2396 0.961 . S
C2383 C2380 1.539 . S
C2383 H2397 0.958 . S
C2383 H2398 0.961 . S
C2383 H2399 0.960 . S
H2384 C2368 0.931 . S
H2385 C2373 0.929 . S
H2386 C2374 0.960 . S
H2387 C2374 0.962 . S
H2388 C2374 0.960 . S
H2389 C2375 0.961 . S
H2390 C2375 0.961 . S
H2391 C2375 0.961 . S
H2392 C2376 0.931 . S
H2393 C2381 0.930 . S
H2394 C2382 0.956 . S
H2395 C2382 0.961 . S
H2396 C2382 0.961 . S
H2397 C2383 0.958 . S
H2398 C2383 0.961 . S
H2399 C2383 0.960 . S
C865 C398 1.427 . S
C873 C14 1.375 . S
C897 C50 1.402 . S
C905 C290 1.421 . S
C929 C86 1.394 . S
C937 C326 1.417 . S
C961 C122 1.360 . S
C969 C362 1.419 . S
C993 C470 1.412 . S
C1001 C158 1.369 . S
C1025 C194 1.402 . S
C1033 C506 1.418 . S
C1057 C542 1.416 . S
C1065 C230 1.389 . S
C1089 C434 1.407 . S
C1097 C266 1.383 . S
C1121 C182 1.407 . S
C1129 C302 1.382 . S
C1153 C218 1.423 . S
C1161 C338 1.384 . S
C1185 C374 1.365 . S
C1193 C254 1.426 . S
C1217 C146 1.408 . S
C1225 C410 1.379 . S
C1249 C110 1.412 . S
C1257 C446 1.390 . S
C1281 C482 1.341 . S
C1289 C2 1.422 . S
C1313 C518 1.384 . S
C1321 C38 1.424 . S
C1345 C554 1.339 . S
C1353 C74 1.423 . S
C1377 C590 1.349 . S
C1385 C830 1.426 . S
C1409 C722 1.419 . S
C1417 C626 1.363 . S
C1441 C662 1.367 . S
C1449 C614 1.426 . S
C1473 C698 1.393 . S
C1481 C650 1.423 . S
C1505 C686 1.424 . S
C1513 C734 1.362 . S
C1537 C770 1.375 . S
C1545 C794 1.417 . S
C1569 C578 1.418 . S
C1577 C806 1.388 . S
C1601 C758 1.412 . S
C1609 C842 1.390 . S
C1633 C3 1.498 . S
C1641 C219 1.510 . S
C1665 C39 1.498 . S
C1673 C255 1.508 . S
C1697 C75 1.511 . S
C1705 C147 1.511 . S
C1729 C183 1.506 . S
C1737 C111 1.512 . S
C1761 C363 1.498 . S
C1769 C291 1.507 . S
C1793 C327 1.510 . S
C1801 C399 1.511 . S
C1825 C435 1.498 . S
C1833 C507 1.509 . S
C1857 C543 1.498 . S
C1865 C471 1.507 . S
C1889 C615 1.505 . S
C1897 C579 1.512 . S
C1921 C651 1.512 . S
C1929 C831 1.509 . S
C1953 C687 1.510 . S
C1961 C759 1.507 . S
C1985 C723 1.512 . S
C1993 C795 1.509 . S
C2017 C4 0.995 . S
C2025 C184 1.004 . S
C2049 C40 0.985 . S
C2057 C220 1.001 . S
C2081 C76 0.990 . S
C2089 C256 0.992 . S
C2113 C148 0.989 . S
C2121 C112 1.003 . S
C2145 C292 1.002 . S
C2153 C832 0.994 . S
C2177 C328 0.989 . S
C2185 C760 0.993 . S
C2209 C796 0.995 . S
C2217 C364 0.992 . S
C2241 C400 1.002 . S
C2249 C580 1.004 . S
C2273 C724 0.986 . S
C2281 C436 0.993 . S
C2305 C616 0.987 . S
C2313 C472 0.993 . S
C2337 C508 1.010 . S
C2345 C652 1.001 . S
C2369 C688 0.993 . S
C2377 C544 0.992 . S
