# Generated by pormake.
# Topology cds-f, (5)-cn, num edge types: 1
# Building blocks:
#     Node 0, Type 0, BuildingBlock: BEQFEK_clean_sbu_0, # of connection points: 5
#     Node 1, Type 0, BuildingBlock: BEQFEK_clean_sbu_0, # of connection points: 5
#     Node 2, Type 0, BuildingBlock: BEQFEK_clean_sbu_0, # of connection points: 5
#     Node 3, Type 0, BuildingBlock: BEQFEK_clean_sbu_0, # of connection points: 5
#     Node 4, Type 0, BuildingBlock: BEQFEK_clean_sbu_0, # of connection points: 5
#     Node 5, Type 0, BuildingBlock: BEQFEK_clean_sbu_0, # of connection points: 5
#     Node 6, Type 0, BuildingBlock: BEQFEK_clean_sbu_0, # of connection points: 5
#     Node 7, Type 0, BuildingBlock: BEQFEK_clean_sbu_0, # of connection points: 5
#     Node 8, Type 0, BuildingBlock: BEQFEK_clean_sbu_0, # of connection points: 5
#     Node 9, Type 0, BuildingBlock: BEQFEK_clean_sbu_0, # of connection points: 5
#     Node 10, Type 0, BuildingBlock: BEQFEK_clean_sbu_0, # of connection points: 5
#     Node 11, Type 0, BuildingBlock: BEQFEK_clean_sbu_0, # of connection points: 5
#     Node 12, Type 0, BuildingBlock: BEQFEK_clean_sbu_0, # of connection points: 5
#     Node 13, Type 0, BuildingBlock: BEQFEK_clean_sbu_0, # of connection points: 5
#     Node 14, Type 0, BuildingBlock: BEQFEK_clean_sbu_0, # of connection points: 5
#     Node 15, Type 0, BuildingBlock: BEQFEK_clean_sbu_0, # of connection points: 5
#     Edge 16, Type (0, 0), BuildingBlock: MIFKUJ_clean_linker_0, # of connection points: 2
#     Edge 17, Type (0, 0), BuildingBlock: MIFKUJ_clean_linker_0, # of connection points: 2
#     Edge 18, Type (0, 0), BuildingBlock: MIFKUJ_clean_linker_0, # of connection points: 2
#     Edge 19, Type (0, 0), BuildingBlock: MIFKUJ_clean_linker_0, # of connection points: 2
#     Edge 20, Type (0, 0), BuildingBlock: MIFKUJ_clean_linker_0, # of connection points: 2
#     Edge 21, Type (0, 0), BuildingBlock: MIFKUJ_clean_linker_0, # of connection points: 2
#     Edge 22, Type (0, 0), BuildingBlock: MIFKUJ_clean_linker_0, # of connection points: 2
#     Edge 23, Type (0, 0), BuildingBlock: MIFKUJ_clean_linker_0, # of connection points: 2
#     Edge 24, Type (0, 0), BuildingBlock: MIFKUJ_clean_linker_0, # of connection points: 2
#     Edge 25, Type (0, 0), BuildingBlock: MIFKUJ_clean_linker_0, # of connection points: 2
#     Edge 26, Type (0, 0), BuildingBlock: MIFKUJ_clean_linker_0, # of connection points: 2
#     Edge 27, Type (0, 0), BuildingBlock: MIFKUJ_clean_linker_0, # of connection points: 2
#     Edge 28, Type (0, 0), BuildingBlock: MIFKUJ_clean_linker_0, # of connection points: 2
#     Edge 29, Type (0, 0), BuildingBlock: MIFKUJ_clean_linker_0, # of connection points: 2
#     Edge 30, Type (0, 0), BuildingBlock: MIFKUJ_clean_linker_0, # of connection points: 2
#     Edge 31, Type (0, 0), BuildingBlock: MIFKUJ_clean_linker_0, # of connection points: 2
#     Edge 32, Type (0, 0), BuildingBlock: MIFKUJ_clean_linker_0, # of connection points: 2
#     Edge 33, Type (0, 0), BuildingBlock: MIFKUJ_clean_linker_0, # of connection points: 2
#     Edge 34, Type (0, 0), BuildingBlock: MIFKUJ_clean_linker_0, # of connection points: 2
#     Edge 35, Type (0, 0), BuildingBlock: MIFKUJ_clean_linker_0, # of connection points: 2
#     Edge 36, Type (0, 0), BuildingBlock: MIFKUJ_clean_linker_0, # of connection points: 2
#     Edge 37, Type (0, 0), BuildingBlock: MIFKUJ_clean_linker_0, # of connection points: 2
#     Edge 38, Type (0, 0), BuildingBlock: MIFKUJ_clean_linker_0, # of connection points: 2
#     Edge 39, Type (0, 0), BuildingBlock: MIFKUJ_clean_linker_0, # of connection points: 2
#     Edge 40, Type (0, 0), BuildingBlock: MIFKUJ_clean_linker_0, # of connection points: 2
#     Edge 41, Type (0, 0), BuildingBlock: MIFKUJ_clean_linker_0, # of connection points: 2
#     Edge 42, Type (0, 0), BuildingBlock: MIFKUJ_clean_linker_0, # of connection points: 2
#     Edge 43, Type (0, 0), BuildingBlock: MIFKUJ_clean_linker_0, # of connection points: 2
#     Edge 44, Type (0, 0), BuildingBlock: MIFKUJ_clean_linker_0, # of connection points: 2
#     Edge 45, Type (0, 0), BuildingBlock: MIFKUJ_clean_linker_0, # of connection points: 2
#     Edge 46, Type (0, 0), BuildingBlock: MIFKUJ_clean_linker_0, # of connection points: 2
#     Edge 47, Type (0, 0), BuildingBlock: MIFKUJ_clean_linker_0, # of connection points: 2
#     Edge 48, Type (0, 0), BuildingBlock: MIFKUJ_clean_linker_0, # of connection points: 2
#     Edge 49, Type (0, 0), BuildingBlock: MIFKUJ_clean_linker_0, # of connection points: 2
#     Edge 50, Type (0, 0), BuildingBlock: MIFKUJ_clean_linker_0, # of connection points: 2
#     Edge 51, Type (0, 0), BuildingBlock: MIFKUJ_clean_linker_0, # of connection points: 2
#     Edge 52, Type (0, 0), BuildingBlock: MIFKUJ_clean_linker_0, # of connection points: 2
#     Edge 53, Type (0, 0), BuildingBlock: MIFKUJ_clean_linker_0, # of connection points: 2
#     Edge 54, Type (0, 0), BuildingBlock: MIFKUJ_clean_linker_0, # of connection points: 2
#     Edge 55, Type (0, 0), BuildingBlock: MIFKUJ_clean_linker_0, # of connection points: 2
# Relax obj value: 0.094
# Max RMSD: 0.129
# Mean RMSD: 0.097
data_MOF--net-cds-f--node1-BEQFEK_clean_sbu_0--edge1-MIFKUJ_clean_linker_0
_symmetry_space_group_name_H-M    P1
_symmetry_Int_Tables_number       1
_symmetry_cell_setting            triclinic
loop_
_symmetry_equiv_pos_as_xyz
'x, y, z'
_cell_length_a     47.895517
_cell_length_b     47.918217
_cell_length_c     79.21679
_cell_angle_alpha  90.082169
_cell_angle_beta   94.322713
_cell_angle_gamma 87.505552
loop_
_atom_site_label
_atom_site_type_symbol
_atom_site_fract_x
_atom_site_fract_y
_atom_site_fract_z
_atom_type_partial_charge
Co0 Co 0.28538 0.2948 0.13704 0.0
Co1 Co 0.21957 0.30183 0.13563 0.0
C2 C 0.25213 0.27566 0.16547 0.0
O3 O 0.27506 0.27828 0.15855 0.0
O4 O 0.2287 0.28393 0.15804 0.0
C5 C 0.33973 0.26454 0.13619 0.0
O6 O 0.32616 0.2415 0.13757 0.0
C7 C 0.15798 0.29214 0.13458 0.0
C8 C 0.14193 0.32876 0.11929 0.0
C9 C 0.1334 0.30552 0.12756 0.0
N10 N 0.1799 0.30682 0.13046 0.0
N11 N 0.17002 0.32864 0.12134 0.0
C12 C 0.1606 0.26656 0.14548 0.0
H13 H 0.18032 0.26615 0.15371 0.0
H14 H 0.16095 0.24779 0.13727 0.0
H15 H 0.14252 0.26564 0.15341 0.0
C16 C 0.27148 0.27137 0.10281 0.0
N17 N 0.26409 0.28063 0.11799 0.0
N18 N 0.23657 0.28191 0.11795 0.0
C19 C 0.22561 0.27251 0.10295 0.0
C20 C 0.2473 0.26584 0.09272 0.0
C21 C 0.3007 0.2719 0.09732 0.0
H22 H 0.31196 0.2892 0.10367 0.0
H23 H 0.31208 0.25189 0.10095 0.0
H24 H 0.30074 0.27461 0.08342 0.0
O25 O 0.27944 0.33568 0.13789 0.0
O26 O 0.2331 0.3405 0.13665 0.0
H27 H 0.18543 0.29154 0.09536 0.0
H28 H 0.19084 0.25652 0.08737 0.0
C29 C 0.19487 0.27043 0.09841 0.0
H30 H 0.1847 0.26204 0.10932 0.0
H31 H 0.18253 0.34355 0.11651 0.0
O32 O 0.32622 0.28799 0.13554 0.0
C33 C 0.2571 0.35106 0.13753 0.0
Co34 Co 0.67969 0.27562 0.62228 0.0
Co35 Co 0.67591 0.21021 0.62272 0.0
C36 C 0.69717 0.24096 0.65341 0.0
O37 O 0.69342 0.26421 0.64559 0.0
O38 O 0.69182 0.21792 0.64604 0.0
C39 C 0.70724 0.3285 0.62499 0.0
O40 O 0.72858 0.31403 0.63247 0.0
C41 C 0.68907 0.14861 0.62443 0.0
C42 C 0.65253 0.13387 0.60874 0.0
C43 C 0.6766 0.12458 0.61822 0.0
N44 N 0.67303 0.17097 0.61877 0.0
N45 N 0.65133 0.1619 0.60937 0.0
C46 C 0.71504 0.15029 0.63606 0.0
H47 H 0.71551 0.1706 0.64272 0.0
H48 H 0.73363 0.14837 0.62852 0.0
H49 H 0.71642 0.13299 0.64543 0.0
C50 C 0.70993 0.26186 0.59182 0.0
N51 N 0.69773 0.25422 0.60578 0.0
N52 N 0.69654 0.22683 0.60609 0.0
C53 C 0.70815 0.21617 0.59237 0.0
C54 C 0.71698 0.23797 0.58285 0.0
C55 C 0.71137 0.29153 0.58617 0.0
H56 H 0.69117 0.30298 0.5879 0.0
H57 H 0.72801 0.30173 0.59415 0.0
H58 H 0.7161 0.29296 0.57272 0.0
O59 O 0.63876 0.27132 0.61955 0.0
O60 O 0.63656 0.22528 0.62065 0.0
H61 H 0.68807 0.17879 0.58462 0.0
H62 H 0.72275 0.18147 0.57732 0.0
C63 C 0.70955 0.18576 0.58803 0.0
H64 H 0.71844 0.17362 0.59921 0.0
H65 H 0.63547 0.1749 0.60348 0.0
O66 O 0.68541 0.31603 0.61966 0.0
C67 C 0.62457 0.24949 0.6194 0.0
Co68 Co 0.73972 0.71325 0.12523 0.0
Co69 Co 0.80515 0.70233 0.1249 0.0
C70 C 0.7795 0.72708 0.15506 0.0
O71 O 0.75503 0.72555 0.14775 0.0
O72 O 0.8012 0.71943 0.1476 0.0
C73 C 0.6864 0.73897 0.133 0.0
O74 O 0.70141 0.75112 0.14523 0.0
C75 C 0.86561 0.71382 0.12438 0.0
C76 C 0.8823 0.67308 0.11559 0.0
C77 C 0.89034 0.69936 0.12079 0.0
N78 N 0.84416 0.69678 0.12139 0.0
N79 N 0.85434 0.67254 0.11605 0.0
C80 C 0.86246 0.74267 0.13143 0.0
H81 H 0.87976 0.74648 0.14117 0.0
H82 H 0.84198 0.74589 0.13693 0.0
H83 H 0.86336 0.75808 0.12106 0.0
C84 C 0.74857 0.74156 0.09308 0.0
N85 N 0.75869 0.72908 0.10761 0.0
N86 N 0.78582 0.72381 0.10708 0.0
C87 C 0.79371 0.73216 0.09196 0.0
C88 C 0.77032 0.74377 0.08253 0.0
C89 C 0.71829 0.74985 0.08917 0.0
H90 H 0.70994 0.76045 0.1003 0.0
H91 H 0.71527 0.76408 0.07808 0.0
H92 H 0.70629 0.73082 0.08656 0.0
O93 O 0.74374 0.6719 0.12418 0.0
O94 O 0.78988 0.66457 0.12487 0.0
H95 H 0.82769 0.70262 0.08869 0.0
H96 H 0.82239 0.72799 0.07197 0.0
C97 C 0.8219 0.72483 0.08578 0.0
H98 H 0.83776 0.73786 0.09251 0.0
H99 H 0.84223 0.65542 0.11297 0.0
O100 O 0.69863 0.72288 0.1228 0.0
C101 C 0.7653 0.65534 0.12437 0.0
Co102 Co 0.26769 0.79542 0.61605 0.0
Co103 Co 0.27316 0.72979 0.61814 0.0
C104 C 0.24562 0.75864 0.5876 0.0
O105 O 0.24952 0.78262 0.59414 0.0
O106 O 0.25345 0.73631 0.59564 0.0
C107 C 0.23857 0.85017 0.61492 0.0
O108 O 0.21568 0.83684 0.6107 0.0
C109 C 0.26169 0.6689 0.6192 0.0
C110 C 0.29978 0.65347 0.63443 0.0
C111 C 0.27526 0.64475 0.62606 0.0
N112 N 0.27752 0.69078 0.62347 0.0
N113 N 0.30018 0.6813 0.63259 0.0
C114 C 0.23484 0.67102 0.60823 0.0
H115 H 0.21701 0.67203 0.61641 0.0
H116 H 0.23282 0.65243 0.59992 0.0
H117 H 0.23364 0.69016 0.60039 0.0
C118 C 0.2463 0.78727 0.64978 0.0
N119 N 0.25435 0.77726 0.63491 0.0
N120 N 0.25549 0.74978 0.63543 0.0
C121 C 0.24745 0.74143 0.65048 0.0
C122 C 0.24164 0.76486 0.66018 0.0
C123 C 0.24728 0.81741 0.65473 0.0
H124 H 0.26572 0.82678 0.64969 0.0
H125 H 0.22809 0.82875 0.64916 0.0
H126 H 0.24851 0.82012 0.66866 0.0
O127 O 0.30861 0.78834 0.61586 0.0
O128 O 0.31202 0.74207 0.61693 0.0
H129 H 0.26806 0.7028 0.65866 0.0
H130 H 0.23431 0.7094 0.66702 0.0
C131 C 0.24641 0.71152 0.65572 0.0
H132 H 0.23645 0.69932 0.64519 0.0
H133 H 0.31609 0.69388 0.63747 0.0
O134 O 0.26175 0.83642 0.61766 0.0
C135 C 0.3233 0.76555 0.6161 0.0
Co136 Co 0.21647 0.71342 0.88405 0.0
Co137 Co 0.28189 0.70901 0.88215 0.0
C138 C 0.25625 0.73493 0.91187 0.0
O139 O 0.2316 0.73105 0.90531 0.0
O140 O 0.27788 0.72741 0.90428 0.0
C141 C 0.16139 0.7405 0.88637 0.0
O142 O 0.17485 0.76257 0.89164 0.0
C143 C 0.34315 0.71937 0.88134 0.0
C144 C 0.35462 0.68621 0.86339 0.0
C145 C 0.3656 0.70773 0.87311 0.0
N146 N 0.32005 0.70544 0.87645 0.0
N147 N 0.32721 0.68564 0.86578 0.0
C148 C 0.34383 0.74227 0.8942 0.0
H149 H 0.32727 0.73996 0.90303 0.0
H150 H 0.34004 0.76266 0.88762 0.0
H151 H 0.3645 0.7422 0.90155 0.0
C152 C 0.21991 0.73794 0.84999 0.0
N153 N 0.23191 0.72829 0.8649 0.0
N154 N 0.25934 0.72775 0.86448 0.0
C155 C 0.26568 0.73785 0.84945 0.0
C156 C 0.24096 0.74426 0.83964 0.0
C157 C 0.18911 0.7376 0.84513 0.0
H158 H 0.18054 0.71827 0.84995 0.0
H159 H 0.17845 0.75572 0.85105 0.0
H160 H 0.18448 0.73874 0.83121 0.0
O161 O 0.22448 0.6727 0.88528 0.0
O162 O 0.27055 0.66984 0.88395 0.0
H163 H 0.30367 0.72043 0.84052 0.0
H164 H 0.29523 0.75591 0.83374 0.0
C165 C 0.2949 0.74102 0.84444 0.0
H166 H 0.30828 0.74869 0.85535 0.0
H167 H 0.31326 0.67169 0.8601 0.0
O168 O 0.1752 0.71853 0.8824 0.0
C169 C 0.24737 0.65825 0.8851 0.0
Co170 Co 0.31265 0.28879 0.37443 0.0
Co171 Co 0.31748 0.22321 0.37601 0.0
C172 C 0.29383 0.25227 0.34475 0.0
O173 O 0.29743 0.27599 0.35173 0.0
O174 O 0.30047 0.22957 0.35272 0.0
C175 C 0.2872 0.34415 0.36735 0.0
O176 O 0.27062 0.33157 0.35606 0.0
C177 C 0.30802 0.16247 0.37421 0.0
C178 C 0.33716 0.14711 0.39547 0.0
C179 C 0.31801 0.13834 0.38281 0.0
N180 N 0.32082 0.18438 0.38149 0.0
N181 N 0.33823 0.175 0.39415 0.0
C182 C 0.28552 0.16509 0.36008 0.0
H183 H 0.27342 0.18523 0.36105 0.0
H184 H 0.27111 0.14759 0.36031 0.0
H185 H 0.29534 0.16478 0.34783 0.0
C186 C 0.28354 0.27996 0.40563 0.0
N187 N 0.29606 0.27028 0.39198 0.0
N188 N 0.2966 0.24282 0.39207 0.0
C189 C 0.28352 0.23412 0.40546 0.0
C190 C 0.27507 0.25733 0.41467 0.0
C191 C 0.28257 0.31009 0.4107 0.0
H192 H 0.3022 0.31984 0.40774 0.0
H193 H 0.26481 0.32118 0.40336 0.0
H194 H 0.27991 0.31263 0.42441 0.0
O195 O 0.35368 0.28178 0.37648 0.0
O196 O 0.35669 0.2355 0.37719 0.0
H197 H 0.29776 0.19418 0.41548 0.0
H198 H 0.26096 0.2023 0.41732 0.0
C199 C 0.2785 0.20417 0.40906 0.0
H200 H 0.27343 0.19296 0.39705 0.0
H201 H 0.35082 0.18771 0.40192 0.0
O202 O 0.3058 0.3298 0.37624 0.0
C203 C 0.36827 0.25893 0.37732 0.0
Co204 Co 0.76194 0.29205 0.87806 0.0
Co205 Co 0.69635 0.30197 0.87623 0.0
C206 C 0.7277 0.27347 0.90593 0.0
O207 O 0.75101 0.2755 0.89938 0.0
O208 O 0.70479 0.28286 0.89837 0.0
C209 C 0.81825 0.26892 0.88624 0.0
O210 O 0.80735 0.25733 0.89909 0.0
C211 C 0.63622 0.29066 0.8762 0.0
C212 C 0.61692 0.32756 0.86245 0.0
C213 C 0.61047 0.30328 0.87053 0.0
N214 N 0.65669 0.30687 0.87172 0.0
N215 N 0.64499 0.32888 0.86352 0.0
C216 C 0.64173 0.26294 0.88475 0.0
H217 H 0.66255 0.25391 0.88183 0.0
H218 H 0.62523 0.24829 0.88066 0.0
H219 H 0.64188 0.26585 0.89866 0.0
C220 C 0.74792 0.2671 0.84456 0.0
N221 N 0.74023 0.27818 0.85922 0.0
N222 N 0.7128 0.28222 0.85836 0.0
C223 C 0.70217 0.27389 0.84304 0.0
C224 C 0.72404 0.26407 0.83378 0.0
C225 C 0.77775 0.26307 0.84031 0.0
H226 H 0.78818 0.28327 0.84166 0.0
H227 H 0.78893 0.24815 0.84945 0.0
H228 H 0.77939 0.2551 0.82726 0.0
O229 O 0.75697 0.33337 0.87899 0.0
O230 O 0.71074 0.34003 0.87779 0.0
H231 H 0.66576 0.2996 0.83561 0.0
H232 H 0.66757 0.26659 0.82456 0.0
C233 C 0.67186 0.27707 0.83693 0.0
H234 H 0.65892 0.2679 0.84635 0.0
H235 H 0.65619 0.34486 0.85867 0.0
O236 O 0.80253 0.28373 0.87579 0.0
C237 C 0.73518 0.34962 0.87877 0.0
Co238 Co 0.73808 0.77895 0.37574 0.0
Co239 Co 0.73643 0.71363 0.3723 0.0
C240 C 0.7581 0.74001 0.4045 0.0
O241 O 0.75369 0.76424 0.39797 0.0
O242 O 0.75278 0.71803 0.39596 0.0
C243 C 0.76473 0.83221 0.37934 0.0
O244 O 0.78809 0.81731 0.38293 0.0
C245 C 0.7487 0.65226 0.37322 0.0
C246 C 0.72192 0.63906 0.35094 0.0
C247 C 0.74074 0.62902 0.36384 0.0
N248 N 0.73529 0.67505 0.36607 0.0
N249 N 0.71914 0.66691 0.35287 0.0
C250 C 0.76937 0.653 0.38831 0.0
H251 H 0.78209 0.67173 0.3877 0.0
H252 H 0.78334 0.63388 0.38907 0.0
H253 H 0.75782 0.65451 0.39993 0.0
C254 C 0.76556 0.77211 0.34362 0.0
N255 N 0.75548 0.76147 0.35757 0.0
N256 N 0.75578 0.73403 0.3564 0.0
C257 C 0.76669 0.72644 0.34178 0.0
C258 C 0.77306 0.75024 0.33316 0.0
C259 C 0.76427 0.80257 0.33931 0.0
H260 H 0.74421 0.81244 0.34293 0.0
H261 H 0.78169 0.81277 0.34659 0.0
H262 H 0.76628 0.80607 0.32562 0.0
O263 O 0.69744 0.77308 0.37372 0.0
O264 O 0.69649 0.72699 0.37155 0.0
H265 H 0.74878 0.69108 0.32944 0.0
H266 H 0.78492 0.69529 0.32574 0.0
C267 C 0.76932 0.69711 0.33541 0.0
H268 H 0.77581 0.68264 0.34602 0.0
H269 H 0.70624 0.68046 0.34511 0.0
O270 O 0.74207 0.8199 0.37574 0.0
C271 C 0.68387 0.75086 0.37227 0.0
Co272 Co 0.71585 0.70314 0.87519 0.0
Co273 Co 0.78151 0.70059 0.8758 0.0
C274 C 0.75251 0.72675 0.90407 0.0
O275 O 0.72875 0.72093 0.89692 0.0
O276 O 0.77515 0.7207 0.89716 0.0
C277 C 0.6619 0.73199 0.8754 0.0
O278 O 0.67658 0.75339 0.88048 0.0
C279 C 0.84243 0.71096 0.87952 0.0
C280 C 0.85785 0.68172 0.86035 0.0
C281 C 0.8666 0.70128 0.87227 0.0
N282 N 0.82047 0.69799 0.87195 0.0
N283 N 0.82992 0.68043 0.86061 0.0
C284 C 0.84032 0.7298 0.89451 0.0
H285 H 0.82787 0.71985 0.90389 0.0
H286 H 0.82919 0.74972 0.8904 0.0
H287 H 0.86114 0.73407 0.9008 0.0
C288 C 0.72218 0.72536 0.84087 0.0
N289 N 0.73298 0.71757 0.85644 0.0
N290 N 0.76049 0.71797 0.857 0.0
C291 C 0.76801 0.72709 0.84197 0.0
C292 C 0.74406 0.7317 0.83112 0.0
C293 C 0.69201 0.72265 0.83485 0.0
H294 H 0.68357 0.7042 0.8408 0.0
H295 H 0.67982 0.74154 0.83866 0.0
H296 H 0.68919 0.72043 0.82089 0.0
O297 O 0.72419 0.66264 0.87686 0.0
O298 O 0.77064 0.66106 0.87779 0.0
H299 H 0.80707 0.71083 0.8339 0.0
H300 H 0.79834 0.74632 0.82745 0.0
C301 C 0.7976 0.73104 0.83792 0.0
H302 H 0.81006 0.73857 0.84925 0.0
H303 H 0.81724 0.66742 0.85309 0.0
O304 O 0.67459 0.70893 0.87225 0.0
C305 C 0.74755 0.64883 0.87791 0.0
Co306 Co 0.32782 0.78577 0.37368 0.0
Co307 Co 0.3341 0.7203 0.37577 0.0
C308 C 0.30993 0.74921 0.34429 0.0
O309 O 0.31328 0.77304 0.35108 0.0
O310 O 0.31652 0.72673 0.3525 0.0
C311 C 0.3207 0.84201 0.36207 0.0
O312 O 0.32647 0.83039 0.34765 0.0
C313 C 0.31791 0.6617 0.37662 0.0
C314 C 0.3563 0.64114 0.38895 0.0
C315 C 0.32959 0.63579 0.38204 0.0
N316 N 0.33692 0.68112 0.38017 0.0
N317 N 0.35982 0.66868 0.3875 0.0
C318 C 0.28883 0.66858 0.36913 0.0
H319 H 0.28303 0.69092 0.37129 0.0
H320 H 0.27359 0.65517 0.3747 0.0
H321 H 0.28799 0.66498 0.35526 0.0
C322 C 0.29738 0.777 0.40423 0.0
N323 N 0.31089 0.76705 0.39105 0.0
N324 N 0.31389 0.73968 0.39225 0.0
C325 C 0.30279 0.73136 0.40647 0.0
C326 C 0.29185 0.75476 0.41452 0.0
C327 C 0.29022 0.80733 0.40689 0.0
H328 H 0.28074 0.81668 0.39488 0.0
H329 H 0.2753 0.81049 0.41685 0.0
H330 H 0.3097 0.81828 0.41054 0.0
O331 O 0.36913 0.77909 0.37593 0.0
O332 O 0.373 0.73279 0.37669 0.0
H333 H 0.301 0.70101 0.42665 0.0
H334 H 0.29103 0.68886 0.40557 0.0
C335 C 0.30565 0.70209 0.41318 0.0
H336 H 0.32729 0.69357 0.412 0.0
H337 H 0.37785 0.67902 0.39155 0.0
O338 O 0.32009 0.82669 0.37512 0.0
C339 C 0.38412 0.75644 0.37676 0.0
Co340 Co 0.26143 0.30215 0.88623 0.0
Co341 Co 0.19581 0.31109 0.8851 0.0
C342 C 0.22786 0.28174 0.91409 0.0
O343 O 0.25099 0.28416 0.90736 0.0
O344 O 0.20477 0.29126 0.90685 0.0
C345 C 0.31904 0.28257 0.89471 0.0
O346 O 0.30991 0.27522 0.90921 0.0
C347 C 0.13593 0.2987 0.88436 0.0
C348 C 0.11627 0.33634 0.87155 0.0
C349 C 0.11014 0.31105 0.87857 0.0
N350 N 0.15616 0.31595 0.88086 0.0
N351 N 0.14424 0.33847 0.8733 0.0
C352 C 0.14179 0.27018 0.89179 0.0
H353 H 0.16328 0.26241 0.88933 0.0
H354 H 0.1263 0.25538 0.88642 0.0
H355 H 0.14041 0.27129 0.9057 0.0
C356 C 0.24684 0.28148 0.85168 0.0
N357 N 0.23941 0.28982 0.86702 0.0
N358 N 0.21192 0.29251 0.86671 0.0
C359 C 0.20092 0.2854 0.85122 0.0
C360 C 0.22265 0.2784 0.8411 0.0
C361 C 0.27645 0.28091 0.84675 0.0
H362 H 0.28649 0.3003 0.85118 0.0
H363 H 0.28834 0.26299 0.85312 0.0
H364 H 0.27772 0.27913 0.83288 0.0
O365 O 0.25636 0.34329 0.88809 0.0
O366 O 0.21004 0.3492 0.88716 0.0
H367 H 0.16249 0.30869 0.84486 0.0
H368 H 0.1657 0.27587 0.8337 0.0
C369 C 0.17021 0.28656 0.84598 0.0
H370 H 0.15879 0.27629 0.85572 0.0
H371 H 0.15525 0.35516 0.86916 0.0
O372 O 0.30191 0.29378 0.88339 0.0
C373 C 0.23433 0.35915 0.88821 0.0
Co374 Co 0.72353 0.27968 0.37741 0.0
Co375 Co 0.72018 0.21415 0.37621 0.0
C376 C 0.74539 0.24245 0.40671 0.0
O377 O 0.74081 0.26624 0.39966 0.0
O378 O 0.73875 0.22012 0.39898 0.0
C379 C 0.75338 0.331 0.37567 0.0
O380 O 0.77579 0.3146 0.37432 0.0
C381 C 0.73439 0.15281 0.3762 0.0
C382 C 0.69611 0.13781 0.36241 0.0
C383 C 0.72154 0.12869 0.37046 0.0
N384 N 0.71728 0.17504 0.37164 0.0
N385 N 0.69454 0.16583 0.36334 0.0
C386 C 0.7618 0.15464 0.38644 0.0
H387 H 0.76331 0.17502 0.39293 0.0
H388 H 0.77908 0.15256 0.37789 0.0
H389 H 0.76454 0.13748 0.3959 0.0
C390 C 0.74602 0.26852 0.34383 0.0
N391 N 0.73823 0.25986 0.35891 0.0
N392 N 0.73796 0.23237 0.3589 0.0
C393 C 0.74616 0.22272 0.34399 0.0
C394 C 0.75151 0.24525 0.33396 0.0
C395 C 0.74347 0.29822 0.33783 0.0
H396 H 0.72707 0.31004 0.34437 0.0
H397 H 0.76382 0.3081 0.34061 0.0
H398 H 0.73822 0.2994 0.32395 0.0
O399 O 0.68255 0.27522 0.37687 0.0
O400 O 0.6809 0.22901 0.37631 0.0
H401 H 0.725 0.18569 0.33682 0.0
H402 H 0.75765 0.18923 0.32715 0.0
C403 C 0.74678 0.19263 0.33892 0.0
H404 H 0.75778 0.17982 0.34921 0.0
H405 H 0.6777 0.1787 0.3585 0.0
O406 O 0.72969 0.32041 0.37668 0.0
C407 C 0.66866 0.25313 0.37654 0.0
Co408 Co 0.78172 0.30251 0.12504 0.0
Co409 Co 0.71605 0.30414 0.12494 0.0
C410 C 0.75151 0.28372 0.15504 0.0
O411 O 0.77362 0.28818 0.14763 0.0
O412 O 0.72719 0.28854 0.14769 0.0
C413 C 0.83694 0.27486 0.12547 0.0
O414 O 0.82413 0.25214 0.12905 0.0
C415 C 0.65655 0.28991 0.12672 0.0
C416 C 0.63628 0.31766 0.10669 0.0
C417 C 0.63084 0.29739 0.11829 0.0
N418 N 0.6763 0.30502 0.12028 0.0
N419 N 0.66394 0.32175 0.10846 0.0
C420 C 0.66267 0.26743 0.13972 0.0
H421 H 0.68349 0.25709 0.13813 0.0
H422 H 0.6463 0.25168 0.13878 0.0
H423 H 0.66322 0.27697 0.1525 0.0
C424 C 0.7683 0.27343 0.09242 0.0
N425 N 0.76096 0.28442 0.10721 0.0
N426 N 0.73365 0.2834 0.10785 0.0
C427 C 0.72292 0.27058 0.09383 0.0
C428 C 0.74437 0.26423 0.08341 0.0
C429 C 0.79685 0.27542 0.08611 0.0
H430 H 0.80703 0.2942 0.09139 0.0
H431 H 0.80993 0.25666 0.09031 0.0
H432 H 0.7958 0.27651 0.07209 0.0
O433 O 0.77257 0.34287 0.12414 0.0
O434 O 0.72625 0.34408 0.12431 0.0
H435 H 0.68081 0.28355 0.0856 0.0
H436 H 0.68988 0.24762 0.0809 0.0
C437 C 0.69263 0.26445 0.09044 0.0
H438 H 0.68394 0.25786 0.10231 0.0
H439 H 0.67454 0.33557 0.10133 0.0
O440 O 0.82269 0.2977 0.12307 0.0
C441 C 0.74918 0.35653 0.12399 0.0
Co442 Co 0.67921 0.77648 0.61976 0.0
Co443 Co 0.67344 0.71131 0.61893 0.0
C444 C 0.69563 0.74014 0.65027 0.0
O445 O 0.69319 0.76376 0.64281 0.0
O446 O 0.68888 0.71779 0.64254 0.0
C447 C 0.70923 0.82781 0.62241 0.0
O448 O 0.73122 0.81168 0.6273 0.0
C449 C 0.68445 0.64921 0.62008 0.0
C450 C 0.65053 0.63656 0.60156 0.0
C451 C 0.67273 0.62596 0.6122 0.0
N452 N 0.6699 0.67233 0.61414 0.0
N453 N 0.64967 0.66448 0.60312 0.0
C454 C 0.70827 0.64949 0.63342 0.0
H455 H 0.70707 0.66866 0.64116 0.0
H456 H 0.72831 0.64908 0.62723 0.0
H457 H 0.70822 0.63093 0.64178 0.0
C458 C 0.70888 0.76335 0.58884 0.0
N459 N 0.6966 0.75553 0.60275 0.0
N460 N 0.69495 0.72817 0.60275 0.0
C461 C 0.70651 0.71772 0.58896 0.0
C462 C 0.71558 0.73961 0.57963 0.0
C463 C 0.71089 0.79308 0.58346 0.0
H464 H 0.69168 0.80536 0.58637 0.0
H465 H 0.72907 0.80216 0.59065 0.0
H466 H 0.71375 0.79472 0.56974 0.0
O467 O 0.63803 0.77319 0.61704 0.0
O468 O 0.63445 0.72723 0.61651 0.0
H469 H 0.68673 0.68089 0.57991 0.0
H470 H 0.72243 0.68316 0.57433 0.0
C471 C 0.70795 0.68739 0.58442 0.0
H472 H 0.71531 0.67485 0.59575 0.0
H473 H 0.63522 0.67828 0.59662 0.0
O474 O 0.68599 0.81685 0.61831 0.0
C475 C 0.62318 0.75179 0.61594 0.0
Co476 Co 0.24137 0.70489 0.13367 0.0
Co477 Co 0.30733 0.70108 0.13526 0.0
C478 C 0.27797 0.72407 0.16408 0.0
O479 O 0.25437 0.71989 0.15616 0.0
O480 O 0.30093 0.71836 0.15741 0.0
C481 C 0.18618 0.73398 0.13099 0.0
O482 O 0.1997 0.75725 0.13228 0.0
C483 C 0.36768 0.71447 0.13625 0.0
C484 C 0.38394 0.67908 0.1214 0.0
C485 C 0.39199 0.70318 0.12977 0.0
N486 N 0.34645 0.6978 0.13173 0.0
N487 N 0.35645 0.67659 0.12302 0.0
C488 C 0.36391 0.74161 0.14533 0.0
H489 H 0.34161 0.74914 0.14399 0.0
H490 H 0.37727 0.75755 0.14032 0.0
H491 H 0.37013 0.73847 0.15899 0.0
C492 C 0.24977 0.73026 0.10036 0.0
N493 N 0.25954 0.72095 0.11583 0.0
N494 N 0.28711 0.72091 0.11701 0.0
C495 C 0.29569 0.7313 0.10257 0.0
C496 C 0.27238 0.73719 0.09139 0.0
C497 C 0.21993 0.72823 0.09348 0.0
H498 H 0.21012 0.71074 0.09959 0.0
H499 H 0.20814 0.74796 0.0962 0.0
H500 H 0.21845 0.72489 0.07959 0.0
O501 O 0.24896 0.6643 0.13379 0.0
O502 O 0.29543 0.66172 0.13562 0.0
H503 H 0.336 0.71429 0.09702 0.0
H504 H 0.32767 0.74885 0.08841 0.0
C505 C 0.32573 0.73496 0.09941 0.0
H506 H 0.33669 0.74428 0.11072 0.0
H507 H 0.34433 0.66065 0.11787 0.0
O508 O 0.19995 0.71069 0.13096 0.0
C509 C 0.27201 0.64998 0.13482 0.0
Co510 Co 0.2689 0.29494 0.61806 0.0
Co511 Co 0.27312 0.22929 0.61986 0.0
C512 C 0.24727 0.25903 0.58913 0.0
O513 O 0.25087 0.28282 0.59597 0.0
O514 O 0.25494 0.23646 0.59696 0.0
C515 C 0.24041 0.34994 0.61726 0.0
O516 O 0.21718 0.33671 0.61394 0.0
C517 C 0.26069 0.16858 0.62011 0.0
C518 C 0.29684 0.15262 0.63686 0.0
C519 C 0.2731 0.14426 0.62748 0.0
N520 N 0.2764 0.19021 0.62509 0.0
N521 N 0.29792 0.18041 0.63509 0.0
C522 C 0.2351 0.1711 0.60806 0.0
H523 H 0.21626 0.17291 0.6154 0.0
H524 H 0.23352 0.15236 0.59985 0.0
H525 H 0.23539 0.18996 0.60008 0.0
C526 C 0.24602 0.28668 0.65145 0.0
N527 N 0.25451 0.27684 0.63664 0.0
N528 N 0.25475 0.24936 0.63686 0.0
C529 C 0.24558 0.24087 0.65159 0.0
C530 C 0.24006 0.26418 0.66146 0.0
C531 C 0.24758 0.31661 0.65677 0.0
H532 H 0.26572 0.32609 0.65145 0.0
H533 H 0.22817 0.32826 0.6518 0.0
H534 H 0.24969 0.31871 0.67074 0.0
O535 O 0.30982 0.28707 0.61837 0.0
O536 O 0.31236 0.24083 0.61989 0.0
H537 H 0.26374 0.20132 0.66004 0.0
H538 H 0.2291 0.20898 0.66689 0.0
C539 C 0.24272 0.21093 0.65626 0.0
H540 H 0.23354 0.19943 0.64519 0.0
H541 H 0.31348 0.19276 0.64067 0.0
O542 O 0.2636 0.33604 0.61954 0.0
C543 C 0.32414 0.26405 0.61918 0.0
H544 H 0.874 0.22942 0.1278 0.0
H545 H 0.92509 0.22926 0.12728 0.0
H546 H 0.92057 0.3189 0.12142 0.0
H547 H 0.86972 0.31915 0.1215 0.0
H548 H 0.95589 0.29663 0.10099 0.0
H549 H 0.93969 0.2856 0.16015 0.0
H550 H 0.92128 0.26248 0.18454 0.0
H551 H 0.9691 0.18729 0.17429 0.0
H552 H 0.98752 0.20988 0.14971 0.0
H553 H 0.08838 0.34148 0.12833 0.0
H554 H 0.03898 0.33076 0.12724 0.0
H555 H 0.06142 0.24265 0.12697 0.0
H556 H 0.11109 0.25322 0.1277 0.0
H557 H 0.01852 0.25725 0.14864 0.0
H558 H 0.03868 0.27107 0.09115 0.0
H559 H 0.05766 0.29552 0.06745 0.0
H560 H 0.00241 0.36668 0.07504 0.0
H561 H 0.98339 0.34282 0.09895 0.0
C562 C 0.88391 0.24908 0.12635 0.0
C563 C 0.86778 0.27431 0.12475 0.0
C564 C 0.91312 0.24896 0.12613 0.0
C565 C 0.92674 0.27411 0.12451 0.0
C566 C 0.91058 0.29922 0.12266 0.0
C567 C 0.88146 0.29933 0.12276 0.0
C568 C 0.95778 0.27466 0.12478 0.0
C569 C 0.96952 0.28816 0.11147 0.0
C570 C 0.97572 0.26286 0.13819 0.0
C571 C 0.96471 0.24931 0.15298 0.0
C572 C 0.9461 0.26407 0.16302 0.0
C573 C 0.9357 0.25107 0.17689 0.0
C574 C 0.94394 0.2234 0.18093 0.0
C575 C 0.96268 0.2087 0.17113 0.0
C576 C 0.97312 0.22159 0.15724 0.0
C577 C 0.08288 0.31978 0.12813 0.0
C578 C 0.10376 0.29822 0.12833 0.0
C579 C 0.05462 0.3137 0.1275 0.0
C580 C 0.04655 0.28592 0.12689 0.0
C581 C 0.06727 0.26423 0.12752 0.0
C582 C 0.09568 0.27033 0.1281 0.0
C583 C 0.01636 0.27993 0.12511 0.0
C584 C 0.00484 0.26536 0.13807 0.0
C585 C 0.99855 0.29087 0.11142 0.0
C586 C 0.00974 0.3052 0.09692 0.0
C587 C 0.03071 0.292 0.08784 0.0
C588 C 0.04146 0.30575 0.07436 0.0
C589 C 0.03128 0.33266 0.06976 0.0
C590 C 0.01028 0.34584 0.07861 0.0
C591 C 0.99948 0.3322 0.09212 0.0
H592 H 0.03964 0.34327 0.05932 0.0
H593 H 0.93587 0.21338 0.19167 0.0
H594 H 0.72987 0.09967 0.62081 0.0
H595 H 0.74239 0.04976 0.6242 0.0
H596 H 0.65482 0.03225 0.62443 0.0
H597 H 0.64229 0.08195 0.6216 0.0
H598 H 0.68529 0.00218 0.64818 0.0
H599 H 0.69038 0.02422 0.58882 0.0
H600 H 0.70788 0.0492 0.56482 0.0
H601 H 0.79183 0.01884 0.57961 0.0
H602 H 0.77484 0.99395 0.60384 0.0
H603 H 0.66575 0.86644 0.61893 0.0
H604 H 0.6677 0.91713 0.62059 0.0
H605 H 0.75786 0.90999 0.62775 0.0
H606 H 0.75615 0.85886 0.62627 0.0
H607 H 0.73517 0.95245 0.60355 0.0
H608 H 0.72746 0.92441 0.66074 0.0
H609 H 0.70819 0.89857 0.68378 0.0
H610 H 0.62761 0.93982 0.67238 0.0
H611 H 0.64628 0.96561 0.64909 0.0
C612 C 0.71336 0.08528 0.62203 0.0
C613 C 0.6851 0.09481 0.62119 0.0
C614 C 0.72052 0.05671 0.62374 0.0
C615 C 0.69952 0.03726 0.6245 0.0
C616 C 0.67139 0.04686 0.62395 0.0
C617 C 0.66425 0.07527 0.62223 0.0
C618 C 0.70633 0.00676 0.62531 0.0
C619 C 0.69618 0.99132 0.63841 0.0
C620 C 0.7212 0.99264 0.61282 0.0
C621 C 0.7314 0.00754 0.59826 0.0
C622 C 0.7126 0.02307 0.58703 0.0
C623 C 0.72242 0.03718 0.57338 0.0
C624 C 0.75096 0.0357 0.57073 0.0
C625 C 0.76973 0.02003 0.5817 0.0
C626 C 0.76003 0.00592 0.5954 0.0
C627 C 0.68606 0.87555 0.62078 0.0
C628 C 0.71081 0.85859 0.62255 0.0
C629 C 0.68711 0.90454 0.62178 0.0
C630 C 0.7129 0.91722 0.62446 0.0
C631 C 0.73776 0.90052 0.62574 0.0
C632 C 0.73672 0.87136 0.62493 0.0
C633 C 0.71339 0.94798 0.62612 0.0
C634 C 0.72486 0.96341 0.61351 0.0
C635 C 0.69957 0.96213 0.639 0.0
C636 C 0.68825 0.94681 0.65309 0.0
C637 C 0.70558 0.92782 0.66306 0.0
C638 C 0.69477 0.91321 0.67618 0.0
C639 C 0.66668 0.91752 0.67953 0.0
C640 C 0.64936 0.9365 0.66977 0.0
C641 C 0.66006 0.95115 0.65662 0.0
H642 H 0.65835 0.90618 0.68969 0.0
H643 H 0.75852 0.04662 0.56015 0.0
H644 H 0.93614 0.66626 0.13005 0.0
H645 H 0.98504 0.67862 0.13285 0.0
H646 H 0.96068 0.76381 0.11921 0.0
H647 H 0.91151 0.7513 0.11578 0.0
H648 H 0.00529 0.7453 0.1028 0.0
H649 H 0.98205 0.74788 0.15994 0.0
H650 H 0.96234 0.7315 0.18584 0.0
H651 H 0.01966 0.65994 0.18777 0.0
H652 H 0.03945 0.67566 0.16173 0.0
H653 H 0.14921 0.77918 0.12599 0.0
H654 H 0.09784 0.77942 0.12509 0.0
H655 H 0.10189 0.69034 0.13329 0.0
H656 H 0.15291 0.68984 0.13409 0.0
H657 H 0.06632 0.71933 0.15428 0.0
H658 H 0.0849 0.71495 0.09494 0.0
H659 H 0.10439 0.73199 0.06912 0.0
H660 H 0.05552 0.80889 0.07203 0.0
H661 H 0.03604 0.79244 0.09803 0.0
C662 C 0.9411 0.68768 0.1277 0.0
C663 C 0.91979 0.70791 0.12305 0.0
C664 C 0.9691 0.69477 0.12943 0.0
C665 C 0.97652 0.72228 0.12658 0.0
C666 C 0.95538 0.74253 0.12168 0.0
C667 C 0.92722 0.73542 0.11996 0.0
C668 C 0.00652 0.72928 0.12827 0.0
C669 C 0.01853 0.74021 0.1142 0.0
C670 C 0.02387 0.72242 0.14308 0.0
C671 C 0.01213 0.71289 0.1588 0.0
C672 C 0.99033 0.72855 0.16581 0.0
C673 C 0.97916 0.71939 0.18053 0.0
C674 C 0.98971 0.69467 0.18843 0.0
C675 C 0.0115 0.67909 0.18164 0.0
C676 C 0.02273 0.68813 0.16691 0.0
C677 C 0.13913 0.75966 0.12757 0.0
C678 C 0.15515 0.73449 0.1301 0.0
C679 C 0.10981 0.75983 0.12702 0.0
C680 C 0.0961 0.73489 0.12912 0.0
C681 C 0.11207 0.70983 0.1317 0.0
C682 C 0.14125 0.70958 0.13207 0.0
C683 C 0.0651 0.73454 0.12868 0.0
C684 C 0.05295 0.72489 0.14301 0.0
C685 C 0.04765 0.74277 0.11418 0.0
C686 C 0.0593 0.75261 0.09854 0.0
C687 C 0.07852 0.7356 0.09017 0.0
C688 C 0.08952 0.74512 0.07548 0.0
C689 C 0.08128 0.77155 0.06897 0.0
C690 C 0.06194 0.78846 0.07711 0.0
C691 C 0.0509 0.77904 0.09181 0.0
H692 H 0.08981 0.77888 0.0576 0.0
H693 H 0.98103 0.68762 0.19982 0.0
H694 H 0.19265 0.88675 0.61176 0.0
H695 H 0.19204 0.93771 0.61479 0.0
H696 H 0.28192 0.9339 0.62484 0.0
H697 H 0.28267 0.88329 0.62218 0.0
H698 H 0.25827 0.96797 0.64649 0.0
H699 H 0.24949 0.95325 0.58573 0.0
H700 H 0.22696 0.93552 0.55905 0.0
H701 H 0.15128 0.98308 0.56762 0.0
H702 H 0.17329 0.00082 0.59448 0.0
H703 H 0.30765 0.09807 0.62764 0.0
H704 H 0.29513 0.04931 0.62644 0.0
H705 H 0.20743 0.07478 0.62259 0.0
H706 H 0.21979 0.12385 0.62422 0.0
H707 H 0.22147 0.03146 0.5998 0.0
H708 H 0.23345 0.05112 0.65886 0.0
H709 H 0.25722 0.06938 0.68501 0.0
H710 H 0.32776 0.01261 0.67938 0.0
H711 H 0.30459 0.99429 0.65305 0.0
C712 C 0.21226 0.89681 0.61462 0.0
C713 C 0.23771 0.88096 0.61668 0.0
C714 C 0.21188 0.92592 0.6163 0.0
C715 C 0.23697 0.93964 0.61993 0.0
C716 C 0.2623 0.92379 0.6221 0.0
C717 C 0.26268 0.89481 0.6205 0.0
C718 C 0.23729 0.9705 0.62147 0.0
C719 C 0.25032 0.98182 0.63624 0.0
C720 C 0.22609 0.98868 0.60834 0.0
C721 C 0.21291 0.97808 0.5922 0.0
C722 C 0.22797 0.95974 0.58199 0.0
C723 C 0.21532 0.94973 0.56683 0.0
C724 C 0.18768 0.95809 0.56167 0.0
C725 C 0.17267 0.97657 0.57165 0.0
C726 C 0.18522 0.98662 0.58683 0.0
C727 C 0.28566 0.09337 0.6265 0.0
C728 C 0.26474 0.11492 0.62575 0.0
C729 C 0.27856 0.06548 0.62582 0.0
C730 C 0.25036 0.05847 0.62453 0.0
C731 C 0.22932 0.07983 0.6235 0.0
C732 C 0.23644 0.10788 0.62425 0.0
C733 C 0.2433 0.02868 0.62455 0.0
C734 C 0.22896 0.01761 0.61014 0.0
C735 C 0.25339 0.01066 0.63798 0.0
C736 C 0.26733 0.02144 0.65391 0.0
C737 C 0.25411 0.04265 0.66313 0.0
C738 C 0.26746 0.053 0.678 0.0
C739 C 0.294 0.04219 0.68384 0.0
C740 C 0.3072 0.02096 0.67484 0.0
C741 C 0.29395 0.01056 0.65995 0.0
H742 H 0.30431 0.05023 0.69535 0.0
H743 H 0.17791 0.95032 0.54993 0.0
H744 H 0.8872 0.75298 0.87968 0.0
H745 H 0.93641 0.76446 0.88504 0.0
H746 H 0.96167 0.67821 0.87695 0.0
H747 H 0.91263 0.66645 0.87251 0.0
H748 H 0.99169 0.69789 0.90297 0.0
H749 H 0.96332 0.73001 0.84603 0.0
H750 H 0.93439 0.75774 0.8245 0.0
H751 H 0.95821 0.8335 0.84963 0.0
H752 H 0.98702 0.80617 0.87144 0.0
H753 H 0.12829 0.69703 0.87792 0.0
H754 H 0.07754 0.69578 0.87803 0.0
H755 H 0.0732 0.78212 0.89342 0.0
H756 H 0.12437 0.78366 0.89334 0.0
H757 H 0.03219 0.76877 0.86747 0.0
H758 H 0.06602 0.73516 0.92235 0.0
H759 H 0.09598 0.7062 0.94275 0.0
H760 H 0.06245 0.63185 0.92049 0.0
H761 H 0.03257 0.66034 0.89979 0.0
C762 C 0.90323 0.73636 0.87955 0.0
C763 C 0.89606 0.70868 0.87611 0.0
C764 C 0.93137 0.74303 0.88233 0.0
C765 C 0.95278 0.72222 0.88131 0.0
C766 C 0.94555 0.6946 0.8779 0.0
C767 C 0.91752 0.68792 0.87528 0.0
C768 C 0.98281 0.72894 0.88342 0.0
C769 C 0.00053 0.71331 0.89514 0.0
C770 C 0.99428 0.74964 0.87358 0.0
C771 C 0.97704 0.76605 0.86046 0.0
C772 C 0.96221 0.75258 0.84703 0.0
C773 C 0.94587 0.76822 0.83477 0.0
C774 C 0.94439 0.79736 0.83573 0.0
C775 C 0.95933 0.81092 0.84892 0.0
C776 C 0.97567 0.79537 0.86123 0.0
C777 C 0.11665 0.71584 0.8813 0.0
C778 C 0.13043 0.74042 0.88573 0.0
C779 C 0.08761 0.71504 0.88141 0.0
C780 C 0.0717 0.73873 0.88597 0.0
C781 C 0.08519 0.76358 0.88995 0.0
C782 C 0.11439 0.76439 0.88992 0.0
C783 C 0.041 0.73711 0.88661 0.0
C784 C 0.02321 0.75371 0.87548 0.0
C785 C 0.02945 0.71713 0.89689 0.0
C786 C 0.04717 0.69991 0.90945 0.0
C787 C 0.06516 0.71263 0.92173 0.0
C788 C 0.08211 0.6963 0.93336 0.0
C789 C 0.08115 0.6672 0.9329 0.0
C790 C 0.06317 0.65439 0.92083 0.0
C791 C 0.04619 0.67062 0.90916 0.0
H792 H 0.0943 0.65459 0.94191 0.0
H793 H 0.93173 0.80943 0.82622 0.0
H794 H 0.31353 0.87339 0.39045 0.0
H795 H 0.30759 0.92417 0.3923 0.0
H796 H 0.31018 0.93067 0.33812 0.0
H797 H 0.31682 0.87996 0.33621 0.0
H798 H 0.34284 0.96702 0.35322 0.0
H799 H 0.24835 0.94176 0.35785 0.0
H800 H 0.21005 0.91647 0.36915 0.0
H801 H 0.22897 0.95195 0.41826 0.0
H802 H 0.26766 0.97717 0.40732 0.0
H803 H 0.30902 0.11239 0.35207 0.0
H804 H 0.30327 0.06251 0.34698 0.0
H805 H 0.30868 0.04756 0.40084 0.0
H806 H 0.31381 0.09749 0.40599 0.0
H807 H 0.26863 0.01614 0.38386 0.0
H808 H 0.36548 0.03778 0.37952 0.0
H809 H 0.40389 0.06293 0.36822 0.0
H810 H 0.37981 0.03385 0.31815 0.0
H811 H 0.34098 0.00883 0.32913 0.0
C812 C 0.31267 0.88561 0.37891 0.0
C813 C 0.31573 0.87264 0.36318 0.0
C814 C 0.30909 0.91464 0.37998 0.0
C815 C 0.30811 0.93125 0.36532 0.0
C816 C 0.31085 0.9183 0.34959 0.0
C817 C 0.31461 0.88929 0.34853 0.0
C818 C 0.30568 0.96218 0.3665 0.0
C819 C 0.32626 0.97775 0.35963 0.0
C820 C 0.2844 0.97622 0.37516 0.0
C821 C 0.26106 0.96118 0.38179 0.0
C822 C 0.24448 0.94401 0.37109 0.0
C823 C 0.22268 0.92971 0.37743 0.0
C824 C 0.21712 0.93255 0.39442 0.0
C825 C 0.23332 0.94975 0.40511 0.0
C826 C 0.25517 0.96408 0.39884 0.0
C827 C 0.30812 0.09863 0.36281 0.0
C828 C 0.3115 0.10887 0.37944 0.0
C829 C 0.30516 0.07008 0.35989 0.0
C830 C 0.30574 0.05133 0.37354 0.0
C831 C 0.3081 0.06168 0.39013 0.0
C832 C 0.31116 0.09016 0.39305 0.0
C833 C 0.30582 0.02076 0.37065 0.0
C834 C 0.28491 0.00532 0.37725 0.0
C835 C 0.32675 0.00679 0.36171 0.0
C836 C 0.35015 0.02171 0.35511 0.0
C837 C 0.36824 0.03694 0.36608 0.0
C838 C 0.39011 0.05113 0.35974 0.0
C839 C 0.39424 0.05006 0.34247 0.0
C840 C 0.37655 0.03471 0.33152 0.0
C841 C 0.35462 0.02051 0.33779 0.0
H842 H 0.41118 0.06106 0.33759 0.0
H843 H 0.20023 0.92146 0.3993 0.0
H844 H 0.84735 0.28933 0.86089 0.0
H845 H 0.89813 0.2893 0.85965 0.0
H846 H 0.90937 0.24373 0.90677 0.0
H847 H 0.85853 0.24392 0.90822 0.0
H848 H 0.94154 0.28842 0.9072 0.0
H849 H 0.92349 0.21194 0.86984 0.0
H850 H 0.9 0.18739 0.84574 0.0
H851 H 0.92826 0.24735 0.81133 0.0
H852 H 0.9516 0.27251 0.83524 0.0
H853 H 0.08908 0.27906 0.90319 0.0
H854 H 0.04097 0.26454 0.90423 0.0
H855 H 0.01785 0.30683 0.85687 0.0
H856 H 0.06615 0.3204 0.85539 0.0
H857 H 0.99284 0.25807 0.85777 0.0
H858 H 0.00565 0.33729 0.89484 0.0
H859 H 0.0282 0.36335 0.91863 0.0
H860 H 0.00881 0.29936 0.95325 0.0
H861 H 0.98645 0.27273 0.9296 0.0
C862 C 0.86059 0.27905 0.87092 0.0
C863 C 0.84888 0.26673 0.8847 0.0
C864 C 0.88964 0.27892 0.87014 0.0
C865 C 0.90755 0.26634 0.88306 0.0
C866 C 0.89592 0.25352 0.89665 0.0
C867 C 0.86685 0.2536 0.89743 0.0
C868 C 0.93837 0.26819 0.88287 0.0
C869 C 0.95287 0.28124 0.89655 0.0
C870 C 0.95302 0.2594 0.8688 0.0
C871 C 0.93913 0.24423 0.85436 0.0
C872 C 0.92453 0.22002 0.85714 0.0
C873 C 0.91127 0.20597 0.84351 0.0
C874 C 0.91259 0.21584 0.82702 0.0
C875 C 0.92724 0.23974 0.82411 0.0
C876 C 0.94052 0.25388 0.8377 0.0
C877 C 0.07401 0.28457 0.89275 0.0
C878 C 0.08157 0.30053 0.87907 0.0
C879 C 0.04638 0.27658 0.89348 0.0
C880 C 0.02574 0.28478 0.88069 0.0
C881 C 0.03341 0.30018 0.86686 0.0
C882 C 0.06099 0.30808 0.86609 0.0
C883 C 0.99588 0.2786 0.882 0.0
C884 C 0.98156 0.26483 0.86853 0.0
C885 C 0.98131 0.28687 0.89622 0.0
C886 C 0.99469 0.30287 0.91044 0.0
C887 C 0.0064 0.32867 0.90751 0.0
C888 C 0.01911 0.34356 0.92097 0.0
C889 C 0.02002 0.33297 0.93744 0.0
C890 C 0.00814 0.3075 0.94048 0.0
C891 C 0.99544 0.29251 0.92706 0.0
H892 H 0.02986 0.34453 0.94784 0.0
H893 H 0.9023 0.20493 0.81648 0.0
H894 H 0.68848 0.08545 0.37522 0.0
H895 H 0.70217 0.03613 0.37871 0.0
H896 H 0.78875 0.05488 0.3749 0.0
H897 H 0.775 0.10437 0.37075 0.0
H898 H 0.77493 0.00977 0.35624 0.0
H899 H 0.76638 0.0382 0.41306 0.0
H900 H 0.74461 0.06117 0.43696 0.0
H901 H 0.67504 0.00763 0.43034 0.0
H902 H 0.69618 0.98459 0.40623 0.0
H903 H 0.8096 0.8661 0.38066 0.0
H904 H 0.80836 0.91738 0.38093 0.0
H905 H 0.71807 0.91913 0.37887 0.0
H906 H 0.71906 0.86821 0.37849 0.0
H907 H 0.74213 0.95482 0.40339 0.0
H908 H 0.74893 0.93118 0.34417 0.0
H909 H 0.77129 0.90838 0.3204 0.0
H910 H 0.8459 0.9532 0.33243 0.0
H911 H 0.82409 0.97597 0.35644 0.0
C912 C 0.71047 0.07915 0.37518 0.0
C913 C 0.73071 0.09898 0.3731 0.0
C914 C 0.7183 0.05094 0.3773 0.0
C915 C 0.74657 0.04187 0.37744 0.0
C916 C 0.76686 0.06149 0.37507 0.0
C917 C 0.759 0.08985 0.37293 0.0
C918 C 0.75442 0.0117 0.37954 0.0
C919 C 0.76832 0.99784 0.36675 0.0
C920 C 0.74561 0.99608 0.39319 0.0
C921 C 0.73282 0.00977 0.40775 0.0
C922 C 0.74635 0.03144 0.41662 0.0
C923 C 0.73413 0.04446 0.43022 0.0
C924 C 0.70844 0.03589 0.43515 0.0
C925 C 0.69494 0.01424 0.42651 0.0
C926 C 0.70706 0.00117 0.41288 0.0
C927 C 0.78951 0.87744 0.38028 0.0
C928 C 0.76443 0.8631 0.37953 0.0
C929 C 0.78884 0.90669 0.3804 0.0
C930 C 0.76311 0.92198 0.3799 0.0
C931 C 0.73813 0.9077 0.37931 0.0
C932 C 0.73875 0.87858 0.37901 0.0
C933 C 0.76183 0.95292 0.37985 0.0
C934 C 0.74919 0.96687 0.39306 0.0
C935 C 0.77198 0.9686 0.36668 0.0
C936 C 0.78503 0.95499 0.35222 0.0
C937 C 0.7702 0.93597 0.34184 0.0
C938 C 0.78275 0.92309 0.32831 0.0
C939 C 0.81004 0.92926 0.32494 0.0
C940 C 0.82479 0.94839 0.33508 0.0
C941 C 0.81235 0.96129 0.34865 0.0
H942 H 0.81972 0.91928 0.31446 0.0
H943 H 0.69901 0.046 0.44569 0.0
H944 H 0.30437 0.38106 0.14248 0.0
H945 H 0.30759 0.43179 0.14236 0.0
H946 H 0.21779 0.4415 0.13317 0.0
H947 H 0.21429 0.39075 0.13318 0.0
H948 H 0.24551 0.47431 0.11223 0.0
H949 H 0.2477 0.45405 0.17167 0.0
H950 H 0.26481 0.4304 0.19833 0.0
H951 H 0.34627 0.46285 0.19454 0.0
H952 H 0.32975 0.48638 0.16771 0.0
H953 H 0.22624 0.61784 0.13064 0.0
H954 H 0.22525 0.567 0.13114 0.0
H955 H 0.31525 0.56117 0.14013 0.0
H956 H 0.31652 0.61218 0.13973 0.0
H957 H 0.28899 0.5263 0.16092 0.0
H958 H 0.28679 0.54723 0.10183 0.0
H959 H 0.26986 0.57101 0.07519 0.0
H960 H 0.18878 0.53728 0.07823 0.0
H961 H 0.20512 0.5136 0.10504 0.0
C962 C 0.28526 0.39394 0.14047 0.0
C963 C 0.25905 0.38182 0.13786 0.0
C964 C 0.28716 0.42294 0.14047 0.0
C965 C 0.26291 0.44037 0.13787 0.0
C966 C 0.23674 0.42838 0.13521 0.0
C967 C 0.2348 0.39938 0.13528 0.0
C968 C 0.26488 0.47112 0.13763 0.0
C969 C 0.25468 0.48574 0.12296 0.0
C970 C 0.27758 0.48585 0.15146 0.0
C971 C 0.28757 0.47173 0.16758 0.0
C972 C 0.26934 0.45594 0.17644 0.0
C973 C 0.27891 0.44259 0.19159 0.0
C974 C 0.30663 0.44505 0.19809 0.0
C975 C 0.32482 0.46093 0.18947 0.0
C976 C 0.31535 0.47429 0.17429 0.0
C977 C 0.24587 0.60581 0.13272 0.0
C978 C 0.27148 0.61911 0.1351 0.0
C979 C 0.24525 0.57673 0.13294 0.0
C980 C 0.2702 0.56035 0.13551 0.0
C981 C 0.29578 0.57348 0.1381 0.0
C982 C 0.29645 0.60262 0.13781 0.0
C983 C 0.26943 0.52949 0.13557 0.0
C984 C 0.27988 0.51486 0.15019 0.0
C985 C 0.25701 0.51471 0.12168 0.0
C986 C 0.24711 0.52886 0.10553 0.0
C987 C 0.26528 0.54507 0.0969 0.0
C988 C 0.2558 0.5585 0.08175 0.0
C989 C 0.22824 0.55572 0.07505 0.0
C990 C 0.21012 0.53944 0.08345 0.0
C991 C 0.21948 0.52599 0.09862 0.0
H992 H 0.22094 0.56613 0.06332 0.0
H993 H 0.314 0.43472 0.20984 0.0
H994 H 0.36133 0.21907 0.62166 0.0
H995 H 0.41222 0.219 0.6216 0.0
H996 H 0.4082 0.30877 0.61682 0.0
H997 H 0.35706 0.30909 0.61667 0.0
H998 H 0.444 0.28447 0.59554 0.0
H999 H 0.4288 0.27912 0.65434 0.0
H1000 H 0.4091 0.26077 0.67975 0.0
H1001 H 0.45022 0.1808 0.67219 0.0
H1002 H 0.46986 0.19856 0.64658 0.0
H1003 H 0.59113 0.29741 0.61607 0.0
H1004 H 0.54001 0.30166 0.61564 0.0
H1005 H 0.53669 0.21216 0.61988 0.0
H1006 H 0.58769 0.20766 0.62043 0.0
H1007 H 0.50464 0.2392 0.64213 0.0
H1008 H 0.51844 0.24444 0.58267 0.0
H1009 H 0.53797 0.26304 0.55727 0.0
H1010 H 0.4996 0.3438 0.56631 0.0
H1011 H 0.48014 0.32577 0.59192 0.0
C1012 C 0.37119 0.23885 0.62061 0.0
C1013 C 0.35507 0.26411 0.61923 0.0
C1014 C 0.40033 0.23876 0.62064 0.0
C1015 C 0.414 0.2639 0.6194 0.0
C1016 C 0.39803 0.28914 0.61783 0.0
C1017 C 0.36883 0.28927 0.6178 0.0
C1018 C 0.44498 0.26367 0.61968 0.0
C1019 C 0.45731 0.27498 0.60585 0.0
C1020 C 0.46227 0.25086 0.63301 0.0
C1021 C 0.4506 0.24012 0.64845 0.0
C1022 C 0.43347 0.25756 0.65802 0.0
C1023 C 0.42234 0.24727 0.67247 0.0
C1024 C 0.42835 0.21962 0.67756 0.0
C1025 C 0.44556 0.20221 0.66822 0.0
C1026 C 0.45672 0.21239 0.65374 0.0
C1027 C 0.57954 0.2786 0.61682 0.0
C1028 C 0.59355 0.25219 0.61831 0.0
C1029 C 0.55031 0.28108 0.61652 0.0
C1030 C 0.53457 0.25721 0.61766 0.0
C1031 C 0.54846 0.23084 0.61902 0.0
C1032 C 0.57763 0.22832 0.61928 0.0
C1033 C 0.50366 0.25965 0.61789 0.0
C1034 C 0.49135 0.2488 0.63185 0.0
C1035 C 0.48643 0.27296 0.60471 0.0
C1036 C 0.4981 0.28383 0.58932 0.0
C1037 C 0.51437 0.26623 0.57933 0.0
C1038 C 0.52538 0.27666 0.56488 0.0
C1039 C 0.5201 0.30461 0.56021 0.0
C1040 C 0.50372 0.32217 0.56996 0.0
C1041 C 0.49268 0.31185 0.58444 0.0
H1042 H 0.52864 0.31264 0.54901 0.0
H1043 H 0.41972 0.21169 0.68875 0.0
H1044 H 0.79412 0.3899 0.1265 0.0
H1045 H 0.79373 0.44078 0.12671 0.0
H1046 H 0.70338 0.44443 0.12115 0.0
H1047 H 0.70349 0.39329 0.12085 0.0
H1048 H 0.72668 0.48183 0.10016 0.0
H1049 H 0.73473 0.45691 0.15876 0.0
H1050 H 0.75433 0.43156 0.18432 0.0
H1051 H 0.8342 0.4669 0.17943 0.0
H1052 H 0.81518 0.49215 0.15368 0.0
H1053 H 0.71643 0.62734 0.12085 0.0
H1054 H 0.71122 0.57677 0.12072 0.0
H1055 H 0.80104 0.56358 0.12717 0.0
H1056 H 0.8065 0.61397 0.12739 0.0
H1057 H 0.77437 0.53118 0.14856 0.0
H1058 H 0.76709 0.55401 0.08922 0.0
H1059 H 0.74783 0.57903 0.06346 0.0
H1060 H 0.66665 0.5476 0.06973 0.0
H1061 H 0.68536 0.52269 0.09569 0.0
C1062 C 0.77412 0.40143 0.12529 0.0
C1063 C 0.74882 0.38746 0.12374 0.0
C1064 C 0.77395 0.43055 0.12547 0.0
C1065 C 0.74853 0.44634 0.12415 0.0
C1066 C 0.72322 0.43258 0.12225 0.0
C1067 C 0.72334 0.40337 0.12214 0.0
C1068 C 0.74859 0.47724 0.12483 0.0
C1069 C 0.73667 0.4927 0.11086 0.0
C1070 C 0.76207 0.4913 0.13867 0.0
C1071 C 0.77358 0.47624 0.1542 0.0
C1072 C 0.75653 0.4591 0.16305 0.0
C1073 C 0.76753 0.44478 0.17759 0.0
C1074 C 0.79551 0.44757 0.18348 0.0
C1075 C 0.81253 0.46474 0.17485 0.0
C1076 C 0.80165 0.47908 0.16029 0.0
C1077 C 0.73509 0.6137 0.12223 0.0
C1078 C 0.76189 0.62475 0.12412 0.0
C1079 C 0.73206 0.5848 0.12209 0.0
C1080 C 0.75576 0.56645 0.12384 0.0
C1081 C 0.78248 0.57739 0.12582 0.0
C1082 C 0.78555 0.60623 0.12588 0.0
C1083 C 0.75283 0.53578 0.12379 0.0
C1084 C 0.76419 0.52036 0.13791 0.0
C1085 C 0.73884 0.52179 0.11009 0.0
C1086 C 0.72755 0.53676 0.0945 0.0
C1087 C 0.74507 0.55265 0.08519 0.0
C1088 C 0.73427 0.56676 0.07054 0.0
C1089 C 0.70602 0.56498 0.06499 0.0
C1090 C 0.68852 0.54901 0.07407 0.0
C1091 C 0.69922 0.53487 0.08874 0.0
H1092 H 0.69769 0.57592 0.05364 0.0
H1093 H 0.80398 0.43647 0.19474 0.0
H1094 H 0.59101 0.80011 0.61864 0.0
H1095 H 0.53983 0.80526 0.61719 0.0
H1096 H 0.5341 0.71682 0.60823 0.0
H1097 H 0.58515 0.71144 0.60958 0.0
H1098 H 0.49607 0.74799 0.58749 0.0
H1099 H 0.52648 0.74201 0.64682 0.0
H1100 H 0.55357 0.75569 0.673 0.0
H1101 H 0.51449 0.83805 0.66945 0.0
H1102 H 0.48745 0.82496 0.64309 0.0
H1103 H 0.35997 0.72172 0.6107 0.0
H1104 H 0.4106 0.72281 0.60904 0.0
H1105 H 0.407 0.81174 0.61765 0.0
H1106 H 0.3562 0.81092 0.61932 0.0
H1107 H 0.44946 0.78413 0.63747 0.0
H1108 H 0.41654 0.78919 0.57916 0.0
H1109 H 0.38934 0.77543 0.55304 0.0
H1110 H 0.43267 0.69503 0.55464 0.0
H1111 H 0.45992 0.70818 0.58091 0.0
C1112 C 0.57888 0.78177 0.61626 0.0
C1113 C 0.59221 0.75533 0.61433 0.0
C1114 C 0.54964 0.78475 0.61549 0.0
C1115 C 0.53321 0.76137 0.61275 0.0
C1116 C 0.54641 0.73512 0.61036 0.0
C1117 C 0.57561 0.73208 0.61122 0.0
C1118 C 0.50228 0.76404 0.61285 0.0
C1119 C 0.48585 0.75566 0.59846 0.0
C1120 C 0.48901 0.77471 0.62702 0.0
C1121 C 0.5052 0.7826 0.64288 0.0
C1122 C 0.52385 0.76311 0.65154 0.0
C1123 C 0.53916 0.77074 0.66643 0.0
C1124 C 0.53582 0.79775 0.67286 0.0
C1125 C 0.5171 0.81716 0.66444 0.0
C1126 C 0.50177 0.80964 0.64953 0.0
C1127 C 0.36989 0.74155 0.61225 0.0
C1128 C 0.35402 0.76625 0.61515 0.0
C1129 C 0.39882 0.74214 0.6112 0.0
C1130 C 0.41248 0.7674 0.61307 0.0
C1131 C 0.3968 0.79206 0.61612 0.0
C1132 C 0.36779 0.79154 0.61704 0.0
C1133 C 0.44324 0.7678 0.61219 0.0
C1134 C 0.45965 0.77671 0.62643 0.0
C1135 C 0.45647 0.75763 0.59789 0.0
C1136 C 0.44013 0.7496 0.58209 0.0
C1137 C 0.42013 0.7685 0.57402 0.0
C1138 C 0.40476 0.76084 0.55916 0.0
C1139 C 0.40928 0.73437 0.55219 0.0
C1140 C 0.42921 0.71553 0.56006 0.0
C1141 C 0.44465 0.72309 0.57492 0.0
H1142 H 0.39732 0.72847 0.54069 0.0
H1143 H 0.54769 0.80362 0.68439 0.0
H1144 H 0.19211 0.39914 0.88985 0.0
H1145 H 0.19594 0.44976 0.89024 0.0
H1146 H 0.28572 0.43947 0.8893 0.0
H1147 H 0.28214 0.38872 0.88875 0.0
H1148 H 0.22299 0.48452 0.91249 0.0
H1149 H 0.30802 0.49223 0.86495 0.0
H1150 H 0.32541 0.46619 0.84068 0.0
H1151 H 0.24434 0.4326 0.82989 0.0
H1152 H 0.22638 0.45873 0.85394 0.0
H1153 H 0.292 0.62053 0.88503 0.0
H1154 H 0.29133 0.56966 0.88689 0.0
H1155 H 0.20156 0.57521 0.88916 0.0
H1156 H 0.20201 0.62605 0.88756 0.0
H1157 H 0.26621 0.53236 0.8661 0.0
H1158 H 0.18153 0.52374 0.91403 0.0
H1159 H 0.16397 0.54991 0.93819 0.0
H1160 H 0.24431 0.58541 0.94821 0.0
H1161 H 0.26241 0.5593 0.92421 0.0
C1162 C 0.21272 0.40758 0.88977 0.0
C1163 C 0.23683 0.38983 0.88918 0.0
C1164 C 0.21485 0.43654 0.89005 0.0
C1165 C 0.24106 0.44835 0.88963 0.0
C1166 C 0.26524 0.43075 0.8894 0.0
C1167 C 0.26315 0.40175 0.88915 0.0
C1168 C 0.24296 0.47912 0.88916 0.0
C1169 C 0.23218 0.49502 0.90226 0.0
C1170 C 0.25552 0.49271 0.87601 0.0
C1171 C 0.26598 0.47719 0.86137 0.0
C1172 C 0.2939 0.47935 0.85736 0.0
C1173 C 0.30385 0.46457 0.84365 0.0
C1174 C 0.28602 0.44767 0.83379 0.0
C1175 C 0.25816 0.44561 0.83758 0.0
C1176 C 0.2481 0.46037 0.85127 0.0
C1177 C 0.2721 0.61097 0.88598 0.0
C1178 C 0.24705 0.62741 0.88621 0.0
C1179 C 0.27177 0.58188 0.887 0.0
C1180 C 0.24646 0.56868 0.88835 0.0
C1181 C 0.2214 0.58499 0.88842 0.0
C1182 C 0.2217 0.61407 0.88743 0.0
C1183 C 0.24614 0.53781 0.88939 0.0
C1184 C 0.25718 0.52187 0.87639 0.0
C1185 C 0.23381 0.52418 0.90263 0.0
C1186 C 0.22322 0.53975 0.91722 0.0
C1187 C 0.19547 0.53707 0.92142 0.0
C1188 C 0.18541 0.55193 0.93507 0.0
C1189 C 0.20298 0.56942 0.94468 0.0
C1190 C 0.23067 0.572 0.9407 0.0
C1191 C 0.24082 0.55721 0.92705 0.0
H1192 H 0.19516 0.58091 0.95525 0.0
H1193 H 0.29377 0.43623 0.82319 0.0
H1194 H 0.63251 0.21049 0.37529 0.0
H1195 H 0.58161 0.21377 0.37533 0.0
H1196 H 0.58343 0.30362 0.37766 0.0
H1197 H 0.63462 0.30057 0.37785 0.0
H1198 H 0.54817 0.28342 0.3995 0.0
H1199 H 0.56349 0.27212 0.34092 0.0
H1200 H 0.58365 0.2503 0.31611 0.0
H1201 H 0.54444 0.17375 0.32609 0.0
H1202 H 0.52436 0.195 0.35111 0.0
H1203 H 0.40079 0.3047 0.37886 0.0
H1204 H 0.45181 0.30538 0.37891 0.0
H1205 H 0.45693 0.21534 0.37727 0.0
H1206 H 0.40599 0.2144 0.37711 0.0
H1207 H 0.48855 0.23828 0.3543 0.0
H1208 H 0.4747 0.24932 0.41351 0.0
H1209 H 0.45477 0.27123 0.43836 0.0
H1210 H 0.49119 0.34869 0.42701 0.0
H1211 H 0.51103 0.32733 0.40194 0.0
C1212 C 0.62217 0.231 0.37579 0.0
C1213 C 0.6377 0.25529 0.37649 0.0
C1214 C 0.59302 0.23282 0.37575 0.0
C1215 C 0.57871 0.25895 0.37628 0.0
C1216 C 0.59408 0.28325 0.37719 0.0
C1217 C 0.62332 0.28146 0.37724 0.0
C1218 C 0.54769 0.26072 0.376 0.0
C1219 C 0.53509 0.27396 0.38948 0.0
C1220 C 0.53069 0.24791 0.36308 0.0
C1221 C 0.54262 0.23509 0.34798 0.0
C1222 C 0.55934 0.25057 0.3379 0.0
C1223 C 0.57072 0.23831 0.32379 0.0
C1224 C 0.56538 0.21064 0.31955 0.0
C1225 C 0.54858 0.19518 0.3294 0.0
C1226 C 0.53717 0.20733 0.34354 0.0
C1227 C 0.41275 0.28502 0.37859 0.0
C1228 C 0.39925 0.25949 0.37798 0.0
C1229 C 0.44193 0.28546 0.37867 0.0
C1230 C 0.45815 0.26041 0.37819 0.0
C1231 C 0.44478 0.23492 0.37763 0.0
C1232 C 0.41565 0.23443 0.3776 0.0
C1233 C 0.48905 0.26069 0.3779 0.0
C1234 C 0.50163 0.24786 0.36428 0.0
C1235 C 0.50599 0.27393 0.39067 0.0
C1236 C 0.49408 0.28681 0.40574 0.0
C1237 C 0.47825 0.27109 0.41622 0.0
C1238 C 0.46701 0.2834 0.43037 0.0
C1239 C 0.47164 0.31136 0.43423 0.0
C1240 C 0.48758 0.32705 0.42398 0.0
C1241 C 0.49884 0.31485 0.40981 0.0
H1242 H 0.46293 0.32084 0.44519 0.0
H1243 H 0.57422 0.20119 0.30862 0.0
H1244 H 0.79302 0.61189 0.87894 0.0
H1245 H 0.79307 0.56091 0.88019 0.0
H1246 H 0.70296 0.56483 0.8805 0.0
H1247 H 0.70267 0.61574 0.87945 0.0
H1248 H 0.72661 0.52767 0.90348 0.0
H1249 H 0.73425 0.54856 0.84464 0.0
H1250 H 0.75506 0.56975 0.82045 0.0
H1251 H 0.83277 0.52388 0.83327 0.0
H1252 H 0.81252 0.50269 0.85769 0.0
H1253 H 0.6935 0.39034 0.87962 0.0
H1254 H 0.69825 0.44078 0.88069 0.0
H1255 H 0.78806 0.42906 0.88086 0.0
H1256 H 0.78356 0.3784 0.87962 0.0
H1257 H 0.76763 0.4698 0.8588 0.0
H1258 H 0.7588 0.44683 0.91683 0.0
H1259 H 0.7375 0.4255 0.9408 0.0
H1260 H 0.66167 0.4752 0.9294 0.0
H1261 H 0.68238 0.49655 0.9052 0.0
C1262 C 0.7732 0.60194 0.87932 0.0
C1263 C 0.74782 0.61794 0.87903 0.0
C1264 C 0.77327 0.57278 0.87997 0.0
C1265 C 0.74799 0.55908 0.88027 0.0
C1266 C 0.72271 0.57499 0.88027 0.0
C1267 C 0.72259 0.60411 0.87961 0.0
C1268 C 0.74776 0.52815 0.88045 0.0
C1269 C 0.73533 0.51502 0.89363 0.0
C1270 C 0.75978 0.51164 0.86781 0.0
C1271 C 0.77197 0.52428 0.8531 0.0
C1272 C 0.75585 0.54317 0.84239 0.0
C1273 C 0.76753 0.55515 0.82861 0.0
C1274 C 0.79525 0.54823 0.82535 0.0
C1275 C 0.81132 0.52925 0.83583 0.0
C1276 C 0.79974 0.51724 0.84963 0.0
C1277 C 0.71431 0.3984 0.87992 0.0
C1278 C 0.73817 0.38026 0.87959 0.0
C1279 C 0.71698 0.42728 0.88061 0.0
C1280 C 0.74353 0.43865 0.88106 0.0
C1281 C 0.76738 0.42068 0.88057 0.0
C1282 C 0.76475 0.39174 0.87991 0.0
C1283 C 0.74622 0.46934 0.88175 0.0
C1284 C 0.7591 0.48243 0.86873 0.0
C1285 C 0.73457 0.48583 0.89452 0.0
C1286 C 0.72207 0.47311 0.90911 0.0
C1287 C 0.73751 0.45305 0.91935 0.0
C1288 C 0.72555 0.44099 0.933 0.0
C1289 C 0.69823 0.44894 0.9366 0.0
C1290 C 0.68282 0.46904 0.92659 0.0
C1291 C 0.69467 0.48115 0.91292 0.0
H1292 H 0.68901 0.43958 0.94717 0.0
H1293 H 0.80425 0.55752 0.81468 0.0
H1294 H 0.41623 0.80261 0.37805 0.0
H1295 H 0.46719 0.80368 0.37715 0.0
H1296 H 0.47284 0.71367 0.37548 0.0
H1297 H 0.42214 0.71231 0.37633 0.0
H1298 H 0.51112 0.78047 0.39849 0.0
H1299 H 0.52154 0.69405 0.34804 0.0
H1300 H 0.4935 0.67453 0.32378 0.0
H1301 H 0.44753 0.75305 0.31644 0.0
H1302 H 0.47555 0.77316 0.34049 0.0
H1303 H 0.64782 0.70803 0.36936 0.0
H1304 H 0.59695 0.71087 0.37034 0.0
H1305 H 0.59872 0.80041 0.37555 0.0
H1306 H 0.64966 0.79779 0.37481 0.0
H1307 H 0.55631 0.73631 0.35019 0.0
H1308 H 0.54739 0.82264 0.40087 0.0
H1309 H 0.57471 0.84069 0.42589 0.0
H1310 H 0.61736 0.76051 0.43353 0.0
H1311 H 0.59016 0.74194 0.40866 0.0
C1312 C 0.42832 0.78304 0.37757 0.0
C1313 C 0.41504 0.75738 0.37715 0.0
C1314 C 0.45742 0.7837 0.37709 0.0
C1315 C 0.47368 0.75878 0.37603 0.0
C1316 C 0.4606 0.73316 0.37605 0.0
C1317 C 0.43159 0.73245 0.37659 0.0
C1318 C 0.50431 0.75937 0.37462 0.0
C1319 C 0.52101 0.77125 0.38781 0.0
C1320 C 0.51716 0.74675 0.36085 0.0
C1321 C 0.50048 0.73501 0.34618 0.0
C1322 C 0.50553 0.70718 0.3412 0.0
C1323 C 0.48963 0.69601 0.32749 0.0
C1324 C 0.46869 0.71251 0.31861 0.0
C1325 C 0.46368 0.74026 0.32337 0.0
C1326 C 0.47954 0.75154 0.33706 0.0
C1327 C 0.63743 0.72836 0.37068 0.0
C1328 C 0.65288 0.75268 0.37207 0.0
C1329 C 0.60833 0.72994 0.37121 0.0
C1330 C 0.59408 0.7558 0.37322 0.0
C1331 C 0.60934 0.78018 0.37427 0.0
C1332 C 0.63846 0.77864 0.37375 0.0
C1333 C 0.56324 0.75719 0.37414 0.0
C1334 C 0.54647 0.7457 0.36084 0.0
C1335 C 0.55036 0.77003 0.38785 0.0
C1336 C 0.56695 0.78102 0.40279 0.0
C1337 C 0.56259 0.80887 0.4079 0.0
C1338 C 0.57806 0.81919 0.42205 0.0
C1339 C 0.59783 0.80179 0.43126 0.0
C1340 C 0.60216 0.77402 0.42634 0.0
C1341 C 0.58677 0.7636 0.41219 0.0
H1342 H 0.60972 0.8098 0.44223 0.0
H1343 H 0.45638 0.70382 0.30801 0.0
H1344 H 0.21269 0.29257 0.0685 0.0
H1345 H 0.20954 0.28442 0.03802 0.0
H1346 H 0.27499 0.21981 0.04446 0.0
H1347 H 0.27736 0.22704 0.07529 0.0
H1348 H 0.28226 0.26291 0.01921 0.0
H1349 H 0.21467 0.19827 0.03427 0.0
H1350 H 0.17382 0.18368 0.04869 0.0
H1351 H 0.12138 0.2457 0.02117 0.0
H1352 H 0.162 0.26097 0.00677 0.0
H1353 H 0.26796 0.24699 0.93049 0.0
H1354 H 0.27133 0.23343 0.96037 0.0
H1355 H 0.19305 0.27882 0.96695 0.0
H1356 H 0.18884 0.29102 0.93699 0.0
H1357 H 0.19547 0.23608 0.98611 0.0
H1358 H 0.26089 0.30709 0.97575 0.0
H1359 H 0.30033 0.32686 0.96217 0.0
H1360 H 0.35508 0.25913 0.98159 0.0
H1361 H 0.31584 0.23878 0.99512 0.0
C1362 C 0.22588 0.27608 0.06351 0.0
C1363 C 0.24496 0.2601 0.07429 0.0
C1364 C 0.2242 0.27161 0.04608 0.0
C1365 C 0.24183 0.25134 0.03905 0.0
C1366 C 0.26111 0.23544 0.04971 0.0
C1367 C 0.26249 0.23963 0.06725 0.0
C1368 C 0.24075 0.248 0.02044 0.0
C1369 C 0.26358 0.25639 0.01193 0.0
C1370 C 0.21603 0.24026 0.01105 0.0
C1371 C 0.19145 0.23086 0.01951 0.0
C1372 C 0.19447 0.20892 0.03137 0.0
C1373 C 0.17134 0.20051 0.03953 0.0
C1374 C 0.14503 0.21377 0.03587 0.0
C1375 C 0.14178 0.23544 0.024 0.0
C1376 C 0.16484 0.24395 0.01581 0.0
C1377 C 0.25125 0.25363 0.93827 0.0
C1378 C 0.22829 0.27032 0.93144 0.0
C1379 C 0.25327 0.24602 0.95537 0.0
C1380 C 0.23284 0.25573 0.96607 0.0
C1381 C 0.20917 0.27112 0.95902 0.0
C1382 C 0.2068 0.27816 0.94187 0.0
C1383 C 0.23679 0.25169 0.98474 0.0
C1384 C 0.21445 0.242 0.99331 0.0
C1385 C 0.26174 0.25891 0.99423 0.0
C1386 C 0.28539 0.27125 0.98626 0.0
C1387 C 0.28131 0.29634 0.97703 0.0
C1388 C 0.30362 0.30765 0.96936 0.0
C1389 C 0.33017 0.29421 0.97097 0.0
C1390 C 0.33449 0.26948 0.98032 0.0
C1391 C 0.31223 0.25806 0.988 0.0
H1392 H 0.34741 0.30298 0.96501 0.0
H1393 H 0.12716 0.20724 0.04221 0.0
H1394 H 0.75427 0.19593 0.42685 0.0
H1395 H 0.75851 0.19487 0.45778 0.0
H1396 H 0.7615 0.28464 0.45893 0.0
H1397 H 0.75719 0.28604 0.42805 0.0
H1398 H 0.79344 0.21558 0.48566 0.0
H1399 H 0.71143 0.30646 0.48512 0.0
H1400 H 0.67521 0.32956 0.46543 0.0
H1401 H 0.66381 0.25231 0.43877 0.0
H1402 H 0.6996 0.2287 0.45846 0.0
H1403 H 0.76377 0.25837 0.57059 0.0
H1404 H 0.77617 0.25799 0.54098 0.0
H1405 H 0.70101 0.21471 0.52633 0.0
H1406 H 0.68869 0.21511 0.55577 0.0
H1407 H 0.70741 0.26082 0.50656 0.0
H1408 H 0.7615 0.17972 0.5278 0.0
H1409 H 0.79635 0.15399 0.54708 0.0
H1410 H 0.86074 0.20642 0.53221 0.0
H1411 H 0.82615 0.23274 0.51301 0.0
C1412 C 0.7566 0.21542 0.43364 0.0
C1413 C 0.75476 0.24112 0.42496 0.0
C1414 C 0.75918 0.21473 0.45134 0.0
C1415 C 0.75985 0.2397 0.46058 0.0
C1416 C 0.76074 0.26516 0.45197 0.0
C1417 C 0.75822 0.26589 0.43431 0.0
C1418 C 0.75514 0.23945 0.47883 0.0
C1419 C 0.77479 0.22565 0.4903 0.0
C1420 C 0.73051 0.25215 0.48476 0.0
C1421 C 0.7084 0.26594 0.47314 0.0
C1422 C 0.70108 0.29441 0.4751 0.0
C1423 C 0.68064 0.30758 0.46394 0.0
C1424 C 0.66729 0.29243 0.45082 0.0
C1425 C 0.67423 0.26404 0.44889 0.0
C1426 C 0.6946 0.25076 0.46004 0.0
C1427 C 0.75014 0.24861 0.561 0.0
C1428 C 0.72544 0.23659 0.56534 0.0
C1429 C 0.75722 0.24832 0.54418 0.0
C1430 C 0.73953 0.23622 0.53152 0.0
C1431 C 0.71494 0.2241 0.53593 0.0
C1432 C 0.70801 0.22419 0.55271 0.0
C1433 C 0.74581 0.23713 0.51352 0.0
C1434 C 0.72631 0.25107 0.50203 0.0
C1435 C 0.77036 0.22422 0.50762 0.0
C1436 C 0.79118 0.2084 0.51912 0.0
C1437 C 0.78304 0.18593 0.52876 0.0
C1438 C 0.80275 0.17121 0.53965 0.0
C1439 C 0.83072 0.17862 0.54091 0.0
C1440 C 0.83905 0.20073 0.53125 0.0
C1441 C 0.81941 0.21555 0.52035 0.0
H1442 H 0.84596 0.16719 0.54934 0.0
H1443 H 0.65153 0.30268 0.44217 0.0
H1444 H 0.79556 0.75403 0.92076 0.0
H1445 H 0.79959 0.76781 0.95058 0.0
H1446 H 0.71736 0.73751 0.95667 0.0
H1447 H 0.71269 0.72507 0.92681 0.0
H1448 H 0.72332 0.78067 0.97526 0.0
H1449 H 0.78158 0.69754 0.9666 0.0
H1450 H 0.8193 0.67003 0.95385 0.0
H1451 H 0.87951 0.72799 0.9734 0.0
H1452 H 0.84205 0.75604 0.9861 0.0
H1453 H 0.73248 0.72462 0.05835 0.0
H1454 H 0.73029 0.73291 0.02785 0.0
H1455 H 0.80187 0.78446 0.03452 0.0
H1456 H 0.80336 0.77722 0.06533 0.0
H1457 H 0.80546 0.7394 0.00988 0.0
H1458 H 0.74476 0.81686 0.02327 0.0
H1459 H 0.70533 0.84023 0.03676 0.0
H1460 H 0.64758 0.78791 0.00901 0.0
H1461 H 0.68671 0.76391 0.99555 0.0
C1462 C 0.77821 0.7507 0.92842 0.0
C1463 C 0.75394 0.73819 0.92147 0.0
C1464 C 0.78057 0.75846 0.94549 0.0
C1465 C 0.75907 0.75308 0.95604 0.0
C1466 C 0.7343 0.74185 0.94887 0.0
C1467 C 0.73168 0.73466 0.93176 0.0
C1468 C 0.76275 0.75734 0.97468 0.0
C1469 C 0.74127 0.77158 0.98281 0.0
C1470 C 0.78644 0.74601 0.9846 0.0
C1471 C 0.80899 0.72905 0.97711 0.0
C1472 C 0.80284 0.70449 0.96809 0.0
C1473 C 0.82417 0.68881 0.96088 0.0
C1474 C 0.85177 0.69731 0.96277 0.0
C1475 C 0.85811 0.72147 0.97192 0.0
C1476 C 0.83685 0.73727 0.97913 0.0
C1477 C 0.74725 0.73839 0.0534 0.0
C1478 C 0.76795 0.7505 0.0642 0.0
C1479 C 0.74609 0.74295 0.03596 0.0
C1480 C 0.76582 0.75941 0.02897 0.0
C1481 C 0.78641 0.77176 0.03971 0.0
C1482 C 0.78727 0.76758 0.05724 0.0
C1483 C 0.76573 0.76202 0.01035 0.0
C1484 C 0.78784 0.74901 0.00227 0.0
C1485 C 0.74237 0.77392 0.00051 0.0
C1486 C 0.71872 0.78847 0.00847 0.0
C1487 C 0.72368 0.81019 0.02014 0.0
C1488 C 0.70137 0.82357 0.02776 0.0
C1489 C 0.67397 0.81553 0.02377 0.0
C1490 C 0.66882 0.79412 0.0121 0.0
C1491 C 0.69105 0.78065 0.00445 0.0
H1492 H 0.65673 0.82592 0.02969 0.0
H1493 H 0.86825 0.68515 0.95717 0.0
H1494 H 0.25046 0.72457 0.42642 0.0
H1495 H 0.23471 0.72494 0.45523 0.0
H1496 H 0.29311 0.78854 0.46941 0.0
H1497 H 0.30944 0.78747 0.44089 0.0
H1498 H 0.29672 0.74811 0.49223 0.0
H1499 H 0.22192 0.80356 0.46272 0.0
H1500 H 0.18386 0.81303 0.44047 0.0
H1501 H 0.1401 0.74322 0.45744 0.0
H1502 H 0.1781 0.73311 0.47966 0.0
H1503 H 0.22654 0.80116 0.56601 0.0
H1504 H 0.2241 0.79954 0.53508 0.0
H1505 H 0.24211 0.71065 0.53698 0.0
H1506 H 0.24429 0.71186 0.56782 0.0
H1507 H 0.19792 0.7641 0.50618 0.0
H1508 H 0.30302 0.70486 0.51739 0.0
H1509 H 0.33974 0.69649 0.54067 0.0
H1510 H 0.32264 0.77857 0.56023 0.0
H1511 H 0.28622 0.78756 0.53691 0.0
C1512 C 0.25978 0.73865 0.43573 0.0
C1513 C 0.28102 0.75608 0.4315 0.0
C1514 C 0.25068 0.73899 0.45211 0.0
C1515 C 0.26258 0.75695 0.46443 0.0
C1516 C 0.2836 0.77456 0.4601 0.0
C1517 C 0.29275 0.77412 0.44379 0.0
C1518 C 0.25414 0.75668 0.48206 0.0
C1519 C 0.2751 0.75163 0.49519 0.0
C1520 C 0.22592 0.76124 0.48602 0.0
C1521 C 0.20298 0.76744 0.47275 0.0
C1522 C 0.20428 0.79011 0.46163 0.0
C1523 C 0.1827 0.79561 0.44904 0.0
C1524 C 0.15961 0.77869 0.44752 0.0
C1525 C 0.15801 0.75629 0.45862 0.0
C1526 C 0.17955 0.75068 0.47123 0.0
C1527 C 0.229 0.7811 0.55986 0.0
C1528 C 0.23626 0.75674 0.5694 0.0
C1529 C 0.22741 0.78021 0.54217 0.0
C1530 C 0.23328 0.75504 0.53385 0.0
C1531 C 0.23759 0.73027 0.54325 0.0
C1532 C 0.23893 0.73107 0.5609 0.0
C1533 C 0.24049 0.75551 0.51606 0.0
C1534 C 0.21944 0.7605 0.50303 0.0
C1535 C 0.26866 0.75127 0.51212 0.0
C1536 C 0.29172 0.74672 0.52554 0.0
C1537 C 0.30728 0.72117 0.52659 0.0
C1538 C 0.32799 0.71631 0.5398 0.0
C1539 C 0.33335 0.73691 0.55199 0.0
C1540 C 0.31834 0.76258 0.55084 0.0
C1541 C 0.29768 0.76756 0.53763 0.0
H1542 H 0.34915 0.73299 0.56231 0.0
H1543 H 0.14293 0.78298 0.43775 0.0
H1544 H 0.30348 0.73137 0.93345 0.0
H1545 H 0.30659 0.73974 0.96394 0.0
H1546 H 0.22031 0.77008 0.96078 0.0
H1547 H 0.21674 0.76134 0.93023 0.0
H1548 H 0.26455 0.79912 0.98576 0.0
H1549 H 0.22277 0.71057 0.96961 0.0
H1550 H 0.22229 0.66638 0.95358 0.0
H1551 H 0.30322 0.64178 0.97725 0.0
H1552 H 0.30434 0.68607 0.99321 0.0
H1553 H 0.23805 0.77413 0.07233 0.0
H1554 H 0.23543 0.78021 0.0415 0.0
H1555 H 0.30432 0.71966 0.03848 0.0
H1556 H 0.3054 0.712 0.06886 0.0
H1557 H 0.2668 0.70822 0.01589 0.0
H1558 H 0.30969 0.7934 0.03309 0.0
H1559 H 0.3142 0.83803 0.04838 0.0
H1560 H 0.23692 0.86969 0.02302 0.0
H1561 H 0.23175 0.82508 0.00774 0.0
C1562 C 0.28534 0.74051 0.93912 0.0
C1563 C 0.25973 0.74533 0.92946 0.0
C1564 C 0.2872 0.74531 0.95654 0.0
C1565 C 0.26364 0.75538 0.96452 0.0
C1566 C 0.23871 0.7624 0.95476 0.0
C1567 C 0.23669 0.75722 0.93735 0.0
C1568 C 0.26394 0.75447 0.98315 0.0
C1569 C 0.26472 0.77937 0.99244 0.0
C1570 C 0.26473 0.72861 0.99172 0.0
C1571 C 0.26376 0.70172 0.98245 0.0
C1572 C 0.24054 0.69582 0.97129 0.0
C1573 C 0.24014 0.67076 0.96224 0.0
C1574 C 0.26275 0.65134 0.96435 0.0
C1575 C 0.28574 0.65687 0.9756 0.0
C1576 C 0.28626 0.68194 0.98466 0.0
C1577 C 0.2526 0.76221 0.06502 0.0
C1578 C 0.27214 0.74286 0.073 0.0
C1579 C 0.25132 0.7659 0.04744 0.0
C1580 C 0.26994 0.75067 0.03763 0.0
C1581 C 0.28976 0.73173 0.04572 0.0
C1582 C 0.29065 0.72765 0.06316 0.0
C1583 C 0.26792 0.75297 0.01887 0.0
C1584 C 0.26664 0.72817 0.00942 0.0
C1585 C 0.26712 0.77895 0.01025 0.0
C1586 C 0.27018 0.80579 0.01941 0.0
C1587 C 0.29354 0.80979 0.03088 0.0
C1588 C 0.29624 0.8351 0.03952 0.0
C1589 C 0.27582 0.85665 0.03671 0.0
C1590 C 0.25269 0.85296 0.02521 0.0
C1591 C 0.24988 0.82768 0.01654 0.0
H1592 H 0.27795 0.87624 0.04341 0.0
H1593 H 0.26245 0.63199 0.9573 0.0
H1594 H 0.29201 0.22453 0.44185 0.0
H1595 H 0.27415 0.2256 0.46991 0.0
H1596 H 0.21562 0.29313 0.45413 0.0
H1597 H 0.23244 0.29113 0.42555 0.0
H1598 H 0.25291 0.30103 0.48546 0.0
H1599 H 0.187 0.23797 0.46034 0.0
H1600 H 0.17269 0.19693 0.44355 0.0
H1601 H 0.22176 0.14285 0.47856 0.0
H1602 H 0.23674 0.1836 0.49541 0.0
H1603 H 0.21744 0.29925 0.56993 0.0
H1604 H 0.20881 0.29989 0.53908 0.0
H1605 H 0.24832 0.21743 0.53654 0.0
H1606 H 0.25549 0.21606 0.56727 0.0
H1607 H 0.21004 0.22164 0.51246 0.0
H1608 H 0.28454 0.28098 0.53306 0.0
H1609 H 0.30491 0.31978 0.54963 0.0
H1610 H 0.24665 0.37812 0.52318 0.0
H1611 H 0.22574 0.33957 0.5066 0.0
C1612 C 0.27482 0.2391 0.44418 0.0
C1613 C 0.26344 0.2576 0.43148 0.0
C1614 C 0.26477 0.2398 0.46024 0.0
C1615 C 0.24346 0.25929 0.464 0.0
C1616 C 0.23201 0.27787 0.45139 0.0
C1617 C 0.24172 0.27681 0.43517 0.0
C1618 C 0.2347 0.26109 0.48147 0.0
C1619 C 0.24283 0.28406 0.49132 0.0
C1620 C 0.22234 0.23852 0.48909 0.0
C1621 C 0.21311 0.2139 0.47909 0.0
C1622 C 0.19491 0.21735 0.46439 0.0
C1623 C 0.18665 0.19413 0.45488 0.0
C1624 C 0.19634 0.1673 0.45997 0.0
C1625 C 0.21426 0.16364 0.47462 0.0
C1626 C 0.22261 0.1868 0.48418 0.0
C1627 C 0.22367 0.28102 0.56278 0.0
C1628 C 0.23749 0.25776 0.571 0.0
C1629 C 0.21888 0.28147 0.54515 0.0
C1630 C 0.22867 0.25906 0.53541 0.0
C1631 C 0.24068 0.23507 0.54371 0.0
C1632 C 0.24484 0.23433 0.56133 0.0
C1633 C 0.22897 0.26131 0.51669 0.0
C1634 C 0.21939 0.23904 0.50659 0.0
C1635 C 0.24073 0.28421 0.50888 0.0
C1636 C 0.25336 0.30739 0.51877 0.0
C1637 C 0.27598 0.30207 0.53087 0.0
C1638 C 0.28763 0.32401 0.54024 0.0
C1639 C 0.27701 0.35138 0.5375 0.0
C1640 C 0.2548 0.35689 0.52533 0.0
C1641 C 0.24304 0.33502 0.51593 0.0
H1642 H 0.28605 0.36834 0.54477 0.0
H1643 H 0.18992 0.14935 0.45258 0.0
H1644 H 0.7766 0.2258 0.06704 0.0
H1645 H 0.77387 0.21568 0.03652 0.0
H1646 H 0.70262 0.27368 0.02891 0.0
H1647 H 0.70594 0.28461 0.05902 0.0
H1648 H 0.69737 0.22314 0.0098 0.0
H1649 H 0.76367 0.29605 0.02344 0.0
H1650 H 0.80602 0.31383 0.03872 0.0
H1651 H 0.85646 0.24832 0.01753 0.0
H1652 H 0.81426 0.22985 0.00236 0.0
H1653 H 0.68707 0.28081 0.92811 0.0
H1654 H 0.69009 0.26779 0.95792 0.0
H1655 H 0.77101 0.22668 0.95278 0.0
H1656 H 0.76861 0.24075 0.92305 0.0
H1657 H 0.77486 0.25807 0.97861 0.0
H1658 H 0.71031 0.18991 0.96065 0.0
H1659 H 0.66836 0.17089 0.94564 0.0
H1660 H 0.61542 0.22391 0.97456 0.0
H1661 H 0.65704 0.24356 0.98959 0.0
C1662 C 0.76027 0.23616 0.05882 0.0
C1663 C 0.74138 0.25584 0.06539 0.0
C1664 C 0.75862 0.23027 0.04147 0.0
C1665 C 0.73795 0.24387 0.03052 0.0
C1666 C 0.71847 0.26269 0.03719 0.0
C1667 C 0.72034 0.26883 0.05442 0.0
C1668 C 0.73798 0.24087 0.01194 0.0
C1669 C 0.71426 0.23068 0.0029 0.0
C1670 C 0.76043 0.24998 0.00307 0.0
C1671 C 0.7858 0.26138 0.01195 0.0
C1672 C 0.78376 0.28532 0.02215 0.0
C1673 C 0.80773 0.29553 0.03078 0.0
C1674 C 0.8339 0.28216 0.02914 0.0
C1675 C 0.83616 0.25861 0.01882 0.0
C1676 C 0.81223 0.24826 0.01021 0.0
C1677 C 0.7053 0.26857 0.93324 0.0
C1678 C 0.7277 0.26199 0.92325 0.0
C1679 C 0.70694 0.26095 0.9503 0.0
C1680 C 0.73068 0.24596 0.95763 0.0
C1681 C 0.75251 0.23827 0.94745 0.0
C1682 C 0.75109 0.24631 0.93045 0.0
C1683 C 0.73383 0.24085 0.9762 0.0
C1684 C 0.75816 0.24969 0.98534 0.0
C1685 C 0.71201 0.2302 0.98512 0.0
C1686 C 0.68685 0.21832 0.9762 0.0
C1687 C 0.68973 0.19765 0.96374 0.0
C1688 C 0.666 0.18673 0.95524 0.0
C1689 C 0.63924 0.19621 0.95913 0.0
C1690 C 0.63616 0.21658 0.97157 0.0
C1691 C 0.65982 0.22758 0.98011 0.0
H1692 H 0.6209 0.18775 0.95252 0.0
H1693 H 0.85244 0.2901 0.03583 0.0
H1694 H 0.76218 0.69286 0.4244 0.0
H1695 H 0.76289 0.69134 0.45532 0.0
H1696 H 0.77062 0.78058 0.45739 0.0
H1697 H 0.77005 0.78242 0.42662 0.0
H1698 H 0.79714 0.71194 0.48489 0.0
H1699 H 0.71665 0.80405 0.48045 0.0
H1700 H 0.68363 0.82739 0.45895 0.0
H1701 H 0.67337 0.74954 0.43278 0.0
H1702 H 0.70587 0.72569 0.4543 0.0
H1703 H 0.76262 0.76009 0.56766 0.0
H1704 H 0.7763 0.75844 0.53831 0.0
H1705 H 0.70133 0.71523 0.52312 0.0
H1706 H 0.68776 0.71683 0.5523 0.0
H1707 H 0.70977 0.75975 0.50222 0.0
H1708 H 0.76126 0.67942 0.5268 0.0
H1709 H 0.79437 0.65468 0.54758 0.0
H1710 H 0.86079 0.705 0.53325 0.0
H1711 H 0.82794 0.73034 0.51255 0.0
C1712 C 0.76488 0.71207 0.43144 0.0
C1713 C 0.76547 0.73784 0.42299 0.0
C1714 C 0.76539 0.71112 0.44912 0.0
C1715 C 0.76638 0.7359 0.45856 0.0
C1716 C 0.76962 0.76127 0.45028 0.0
C1717 C 0.76921 0.76224 0.43266 0.0
C1718 C 0.75965 0.73595 0.47649 0.0
C1719 C 0.77815 0.72249 0.48874 0.0
C1720 C 0.73462 0.74936 0.4814 0.0
C1721 C 0.71394 0.76319 0.46887 0.0
C1722 C 0.70717 0.7919 0.47018 0.0
C1723 C 0.68857 0.80521 0.45799 0.0
C1724 C 0.67653 0.78998 0.44447 0.0
C1725 C 0.6828 0.76134 0.44322 0.0
C1726 C 0.7013 0.74792 0.45541 0.0
C1727 C 0.74924 0.75018 0.558 0.0
C1728 C 0.72432 0.73838 0.56214 0.0
C1729 C 0.75705 0.74916 0.54132 0.0
C1730 C 0.73988 0.73656 0.52859 0.0
C1731 C 0.71489 0.72497 0.53276 0.0
C1732 C 0.70725 0.72576 0.54941 0.0
C1733 C 0.7474 0.73598 0.51078 0.0
C1734 C 0.72892 0.74937 0.49848 0.0
C1735 C 0.77228 0.72225 0.50587 0.0
C1736 C 0.79207 0.70697 0.51825 0.0
C1737 C 0.78287 0.68538 0.52818 0.0
C1738 C 0.8016 0.67122 0.53993 0.0
C1739 C 0.82965 0.67832 0.54177 0.0
C1740 C 0.83904 0.69955 0.53183 0.0
C1741 C 0.82038 0.71381 0.52008 0.0
H1742 H 0.84413 0.66732 0.55087 0.0
H1743 H 0.66236 0.80038 0.43496 0.0
H1744 H 0.60584 0.28907 0.14769 0.0
H1745 H 0.55723 0.27691 0.15044 0.0
H1746 H 0.5447 0.26885 0.09612 0.0
H1747 H 0.59279 0.28224 0.09338 0.0
H1748 H 0.50449 0.29815 0.10574 0.0
H1749 H 0.54699 0.21116 0.1248 0.0
H1750 H 0.57969 0.17932 0.14182 0.0
H1751 H 0.54386 0.20761 0.18723 0.0
H1752 H 0.51119 0.23992 0.1705 0.0
H1753 H 0.37468 0.21887 0.13094 0.0
H1754 H 0.42521 0.21846 0.12756 0.0
H1755 H 0.42463 0.30742 0.13607 0.0
H1756 H 0.37436 0.30813 0.13899 0.0
H1757 H 0.47086 0.23186 0.14695 0.0
H1758 H 0.4668 0.33797 0.11105 0.0
H1759 H 0.43383 0.36586 0.09171 0.0
H1760 H 0.39302 0.29143 0.07531 0.0
H1761 H 0.426 0.26305 0.09436 0.0
C1762 C 0.5928 0.28412 0.13641 0.0
C1763 C 0.60297 0.28644 0.12033 0.0
C1764 C 0.56503 0.2771 0.13797 0.0
C1765 C 0.54722 0.2717 0.12349 0.0
C1766 C 0.55788 0.27302 0.10748 0.0
C1767 C 0.58537 0.28059 0.10592 0.0
C1768 C 0.51692 0.26707 0.12483 0.0
C1769 C 0.49726 0.28349 0.1147 0.0
C1770 C 0.50725 0.24762 0.13628 0.0
C1771 C 0.52678 0.22813 0.1464 0.0
C1772 C 0.54621 0.21074 0.13843 0.0
C1773 C 0.56472 0.19258 0.14802 0.0
C1774 C 0.56389 0.19149 0.1656 0.0
C1775 C 0.54449 0.2085 0.17362 0.0
C1776 C 0.52595 0.22671 0.16408 0.0
C1777 C 0.38538 0.23831 0.13213 0.0
C1778 C 0.37045 0.26358 0.13502 0.0
C1779 C 0.41425 0.23802 0.13025 0.0
C1780 C 0.42862 0.26298 0.13128 0.0
C1781 C 0.4139 0.288 0.13485 0.0
C1782 C 0.38512 0.28835 0.13654 0.0
C1783 C 0.45877 0.26334 0.12812 0.0
C1784 C 0.47828 0.24625 0.13791 0.0
C1785 C 0.46839 0.28155 0.11598 0.0
C1786 C 0.44875 0.29842 0.10425 0.0
C1787 C 0.45089 0.32754 0.10325 0.0
C1788 C 0.43218 0.34343 0.09235 0.0
C1789 C 0.4113 0.33043 0.08232 0.0
C1790 C 0.40915 0.30149 0.08312 0.0
C1791 C 0.42783 0.28549 0.09398 0.0
H1792 H 0.39681 0.34278 0.07391 0.0
H1793 H 0.57825 0.17742 0.17301 0.0
H1794 H 0.66465 0.36444 0.61308 0.0
H1795 H 0.66511 0.41499 0.61052 0.0
H1796 H 0.75195 0.41299 0.62964 0.0
H1797 H 0.75145 0.36209 0.63268 0.0
H1798 H 0.72372 0.45432 0.64397 0.0
H1799 H 0.73319 0.42494 0.58742 0.0
H1800 H 0.72264 0.3986 0.56112 0.0
H1801 H 0.64043 0.43848 0.55545 0.0
H1802 H 0.65032 0.46476 0.58186 0.0
H1803 H 0.72527 0.60022 0.61933 0.0
H1804 H 0.73673 0.55005 0.62167 0.0
H1805 H 0.64964 0.53307 0.61047 0.0
H1806 H 0.63782 0.58304 0.60874 0.0
H1807 H 0.68627 0.50199 0.59093 0.0
H1808 H 0.67673 0.52713 0.64975 0.0
H1809 H 0.68868 0.55357 0.67584 0.0
H1810 H 0.774 0.52191 0.67634 0.0
H1811 H 0.76262 0.49558 0.6501 0.0
C1812 C 0.68394 0.37465 0.61668 0.0
C1813 C 0.70806 0.35918 0.62303 0.0
C1814 C 0.6842 0.40361 0.61512 0.0
C1815 C 0.70871 0.41779 0.6196 0.0
C1816 C 0.73284 0.40247 0.62603 0.0
C1817 C 0.73254 0.37339 0.62772 0.0
C1818 C 0.70856 0.44868 0.61791 0.0
C1819 C 0.7161 0.46474 0.63226 0.0
C1820 C 0.69848 0.46234 0.60267 0.0
C1821 C 0.69246 0.44671 0.5867 0.0
C1822 C 0.71279 0.42797 0.58063 0.0
C1823 C 0.70694 0.41306 0.56569 0.0
C1824 C 0.68087 0.41683 0.55663 0.0
C1825 C 0.66062 0.43557 0.56248 0.0
C1826 C 0.66635 0.45051 0.57742 0.0
C1827 C 0.70841 0.58594 0.61789 0.0
C1828 C 0.68048 0.59577 0.61428 0.0
C1829 C 0.71509 0.55721 0.61901 0.0
C1830 C 0.694 0.5379 0.61631 0.0
C1831 C 0.66622 0.54765 0.61257 0.0
C1832 C 0.65953 0.57623 0.61161 0.0
C1833 C 0.70059 0.50742 0.61709 0.0
C1834 C 0.69433 0.49149 0.60253 0.0
C1835 C 0.71212 0.49396 0.63205 0.0
C1836 C 0.71891 0.50967 0.64786 0.0
C1837 C 0.69809 0.52601 0.65534 0.0
C1838 C 0.70475 0.54094 0.67017 0.0
C1839 C 0.7321 0.5395 0.67771 0.0
C1840 C 0.75284 0.52306 0.67047 0.0
C1841 C 0.74629 0.50812 0.65562 0.0
H1842 H 0.73722 0.55106 0.6892 0.0
H1843 H 0.67637 0.40527 0.54507 0.0
H1844 H 0.65352 0.76585 0.15527 0.0
H1845 H 0.60241 0.7671 0.15505 0.0
H1846 H 0.59788 0.71996 0.10858 0.0
H1847 H 0.64901 0.71871 0.10864 0.0
H1848 H 0.55698 0.76263 0.10861 0.0
H1849 H 0.5942 0.68727 0.14558 0.0
H1850 H 0.62367 0.66711 0.1698 0.0
H1851 H 0.58179 0.72168 0.20378 0.0
H1852 H 0.55231 0.74242 0.17971 0.0
H1853 H 0.42919 0.6963 0.10585 0.0
H1854 H 0.47764 0.70989 0.10698 0.0
H1855 H 0.46877 0.74764 0.15587 0.0
H1856 H 0.42038 0.73293 0.15514 0.0
H1857 H 0.51561 0.71662 0.15635 0.0
H1858 H 0.47415 0.78806 0.11996 0.0
H1859 H 0.44452 0.80844 0.0959 0.0
H1860 H 0.49376 0.76294 0.06109 0.0
H1861 H 0.52344 0.74194 0.08494 0.0
C1862 C 0.64167 0.75599 0.14489 0.0
C1863 C 0.65538 0.74196 0.13204 0.0
C1864 C 0.61245 0.75667 0.14482 0.0
C1865 C 0.59637 0.74334 0.13191 0.0
C1866 C 0.6099 0.73034 0.11868 0.0
C1867 C 0.63913 0.72955 0.11877 0.0
C1868 C 0.56559 0.74168 0.13255 0.0
C1869 C 0.54789 0.75244 0.11898 0.0
C1870 C 0.55371 0.72918 0.14636 0.0
C1871 C 0.57129 0.7166 0.16084 0.0
C1872 C 0.59143 0.69511 0.1582 0.0
C1873 C 0.60811 0.68356 0.1719 0.0
C1874 C 0.60466 0.69317 0.18831 0.0
C1875 C 0.58447 0.71429 0.19106 0.0
C1876 C 0.56777 0.72594 0.1774 0.0
C1877 C 0.43741 0.7077 0.11681 0.0
C1878 C 0.42066 0.71392 0.13028 0.0
C1879 C 0.46511 0.7157 0.11737 0.0
C1880 C 0.47677 0.73031 0.13136 0.0
C1881 C 0.46012 0.73669 0.14484 0.0
C1882 C 0.4323 0.72856 0.14431 0.0
C1883 C 0.50685 0.73713 0.13222 0.0
C1884 C 0.52452 0.72727 0.14608 0.0
C1885 C 0.51865 0.7506 0.11869 0.0
C1886 C 0.50093 0.76328 0.10427 0.0
C1887 C 0.47855 0.78224 0.10718 0.0
C1888 C 0.46176 0.79393 0.09358 0.0
C1889 C 0.46723 0.78696 0.07698 0.0
C1890 C 0.48954 0.76832 0.07395 0.0
C1891 C 0.50639 0.75655 0.08752 0.0
H1892 H 0.4542 0.79603 0.06646 0.0
H1893 H 0.61759 0.6842 0.1989 0.0
H1894 H 0.28526 0.38309 0.62016 0.0
H1895 H 0.28512 0.43372 0.62238 0.0
H1896 H 0.19473 0.43768 0.61959 0.0
H1897 H 0.19465 0.38664 0.61695 0.0
H1898 H 0.21405 0.47802 0.60052 0.0
H1899 H 0.23194 0.44673 0.65737 0.0
H1900 H 0.25471 0.4183 0.68085 0.0
H1901 H 0.33395 0.45248 0.67257 0.0
H1902 H 0.31174 0.48082 0.64886 0.0
H1903 H 0.22248 0.62335 0.62543 0.0
H1904 H 0.21091 0.57407 0.62427 0.0
H1905 H 0.29868 0.55018 0.62353 0.0
H1906 H 0.31032 0.59921 0.62438 0.0
H1907 H 0.27309 0.52087 0.64689 0.0
H1908 H 0.25486 0.54804 0.58786 0.0
H1909 H 0.23139 0.57632 0.56451 0.0
H1910 H 0.15125 0.55019 0.5778 0.0
H1911 H 0.17425 0.52203 0.60139 0.0
C1912 C 0.26529 0.39463 0.62004 0.0
C1913 C 0.23995 0.38078 0.6185 0.0
C1914 C 0.26526 0.42363 0.62138 0.0
C1915 C 0.23993 0.43948 0.62148 0.0
C1916 C 0.21452 0.42583 0.61964 0.0
C1917 C 0.21452 0.39669 0.61817 0.0
C1918 C 0.2404 0.47027 0.62345 0.0
C1919 C 0.2265 0.48744 0.61085 0.0
C1920 C 0.25674 0.48259 0.63688 0.0
C1921 C 0.27017 0.4658 0.65126 0.0
C1922 C 0.25425 0.44807 0.66049 0.0
C1923 C 0.26706 0.43198 0.67385 0.0
C1924 C 0.29576 0.43356 0.67819 0.0
C1925 C 0.31171 0.45128 0.6692 0.0
C1926 C 0.29901 0.4674 0.65581 0.0
C1927 C 0.23924 0.60768 0.62456 0.0
C1928 C 0.2673 0.61525 0.62464 0.0
C1929 C 0.2326 0.57949 0.62407 0.0
C1930 C 0.25393 0.55848 0.62372 0.0
C1931 C 0.28189 0.56605 0.62383 0.0
C1932 C 0.2885 0.59409 0.62429 0.0
C1933 C 0.24759 0.52846 0.62365 0.0
C1934 C 0.26031 0.51146 0.6367 0.0
C1935 C 0.23001 0.51641 0.61073 0.0
C1936 C 0.21624 0.53321 0.5965 0.0
C1937 C 0.23222 0.54851 0.58589 0.0
C1938 C 0.219 0.56448 0.5726 0.0
C1939 C 0.18984 0.56512 0.56971 0.0
C1940 C 0.17383 0.54972 0.58007 0.0
C1941 C 0.18694 0.53374 0.5934 0.0
H1942 H 0.17965 0.5775 0.55941 0.0
H1943 H 0.30564 0.42107 0.68853 0.0
H1944 H 0.62766 0.7772 0.88248 0.0
H1945 H 0.57636 0.77966 0.88129 0.0
H1946 H 0.57489 0.69415 0.86424 0.0
H1947 H 0.62592 0.69165 0.86513 0.0
H1948 H 0.53571 0.72564 0.84669 0.0
H1949 H 0.56698 0.71192 0.90573 0.0
H1950 H 0.59271 0.72373 0.93276 0.0
H1951 H 0.54663 0.80256 0.93364 0.0
H1952 H 0.52087 0.79134 0.90648 0.0
H1953 H 0.41041 0.67239 0.86961 0.0
H1954 H 0.45951 0.68354 0.86917 0.0
H1955 H 0.43802 0.77033 0.87805 0.0
H1956 H 0.38845 0.75957 0.87784 0.0
H1957 H 0.48692 0.7467 0.89863 0.0
H1958 H 0.45127 0.7566 0.84093 0.0
H1959 H 0.42502 0.74277 0.8145 0.0
H1960 H 0.47924 0.66946 0.8115 0.0
H1961 H 0.50555 0.68262 0.83808 0.0
C1962 C 0.61639 0.75898 0.87839 0.0
C1963 C 0.63089 0.73417 0.874 0.0
C1964 C 0.58709 0.76039 0.87777 0.0
C1965 C 0.57181 0.73699 0.87285 0.0
C1966 C 0.58624 0.71247 0.86808 0.0
C1967 C 0.61545 0.71105 0.86866 0.0
C1968 C 0.54081 0.73754 0.87295 0.0
C1969 C 0.52508 0.73016 0.85807 0.0
C1970 C 0.52683 0.74421 0.88766 0.0
C1971 C 0.54227 0.75095 0.90398 0.0
C1972 C 0.56251 0.73187 0.91162 0.0
C1973 C 0.57707 0.73844 0.92697 0.0
C1974 C 0.57138 0.76392 0.93488 0.0
C1975 C 0.55106 0.78285 0.92747 0.0
C1976 C 0.53647 0.7764 0.91211 0.0
C1977 C 0.41604 0.69388 0.87152 0.0
C1978 C 0.39547 0.71498 0.87409 0.0
C1979 C 0.44413 0.70019 0.87127 0.0
C1980 C 0.45231 0.72774 0.87355 0.0
C1981 C 0.43205 0.7489 0.87641 0.0
C1982 C 0.40375 0.74263 0.87648 0.0
C1983 C 0.48209 0.73409 0.87252 0.0
C1984 C 0.49755 0.74273 0.88719 0.0
C1985 C 0.4959 0.72843 0.85765 0.0
C1986 C 0.48027 0.72051 0.84158 0.0
C1987 C 0.45747 0.73741 0.83471 0.0
C1988 C 0.44259 0.72972 0.81969 0.0
C1989 C 0.45043 0.70523 0.81134 0.0
C1990 C 0.47319 0.68842 0.81798 0.0
C1991 C 0.48811 0.69601 0.83302 0.0
H1992 H 0.43889 0.6993 0.7997 0.0
H1993 H 0.58266 0.76896 0.94677 0.0
H1994 H 0.31531 0.37572 0.39118 0.0
H1995 H 0.31416 0.4265 0.39352 0.0
H1996 H 0.25359 0.4332 0.35042 0.0
H1997 H 0.25479 0.3822 0.34787 0.0
H1998 H 0.29647 0.46793 0.34779 0.0
H1999 H 0.23343 0.44753 0.38956 0.0
H2000 H 0.21765 0.42343 0.41439 0.0
H2001 H 0.28635 0.45509 0.44558 0.0
H2002 H 0.3028 0.47906 0.42089 0.0
H2003 H 0.29092 0.61497 0.35798 0.0
H2004 H 0.2749 0.56741 0.35584 0.0
H2005 H 0.32789 0.5443 0.40053 0.0
H2006 H 0.34265 0.59218 0.40335 0.0
H2007 H 0.2807 0.519 0.40099 0.0
H2008 H 0.34774 0.53262 0.35924 0.0
H2009 H 0.36591 0.55544 0.33467 0.0
H2010 H 0.29189 0.53538 0.30384 0.0
H2011 H 0.27314 0.51272 0.32831 0.0
C2012 C 0.30158 0.38793 0.38225 0.0
C2013 C 0.28519 0.37489 0.3693 0.0
C2014 C 0.30082 0.41699 0.38367 0.0
C2015 C 0.28357 0.43364 0.37225 0.0
C2016 C 0.26697 0.42072 0.3594 0.0
C2017 C 0.26764 0.39158 0.35799 0.0
C2018 C 0.28417 0.46454 0.37327 0.0
C2019 C 0.29241 0.47921 0.3593 0.0
C2020 C 0.27943 0.47914 0.3884 0.0
C2021 C 0.26945 0.46496 0.40334 0.0
C2022 C 0.24529 0.44921 0.40169 0.0
C2023 C 0.2362 0.43559 0.41575 0.0
C2024 C 0.25101 0.43769 0.43155 0.0
C2025 C 0.2749 0.45348 0.43334 0.0
C2026 C 0.28409 0.46712 0.41932 0.0
C2027 C 0.29844 0.60014 0.36771 0.0
C2028 C 0.31779 0.60764 0.38101 0.0
C2029 C 0.2896 0.57271 0.36629 0.0
C2030 C 0.30044 0.55212 0.3779 0.0
C2031 C 0.31916 0.55977 0.39142 0.0
C2032 C 0.32774 0.58716 0.39294 0.0
C2033 C 0.29365 0.5223 0.37564 0.0
C2034 C 0.28426 0.50781 0.38938 0.0
C2035 C 0.2976 0.50778 0.36035 0.0
C2036 C 0.30891 0.52129 0.34564 0.0
C2037 C 0.33527 0.53325 0.34725 0.0
C2038 C 0.34568 0.54613 0.33334 0.0
C2039 C 0.33002 0.54694 0.31772 0.0
C2040 C 0.30396 0.53479 0.31596 0.0
C2041 C 0.29344 0.52192 0.32984 0.0
H2042 H 0.33812 0.55692 0.30697 0.0
H2043 H 0.24396 0.42712 0.44241 0.0
H2044 H 0.34525 0.2986 0.86701 0.0
H2045 H 0.39536 0.29579 0.86314 0.0
H2046 H 0.4114 0.25606 0.91196 0.0
H2047 H 0.36128 0.25935 0.9161 0.0
H2048 H 0.4463 0.29659 0.90868 0.0
H2049 H 0.41708 0.21913 0.87465 0.0
H2050 H 0.38828 0.19485 0.8526 0.0
H2051 H 0.41504 0.24964 0.81471 0.0
H2052 H 0.44372 0.27451 0.83658 0.0
H2053 H 0.59077 0.27499 0.89725 0.0
H2054 H 0.54229 0.26438 0.90117 0.0
H2055 H 0.51579 0.30377 0.85335 0.0
H2056 H 0.56439 0.31321 0.84896 0.0
H2057 H 0.48705 0.25827 0.8573 0.0
H2058 H 0.51183 0.33849 0.89142 0.0
H2059 H 0.53999 0.36386 0.91329 0.0
H2060 H 0.52087 0.30442 0.9508 0.0
H2061 H 0.49287 0.27849 0.92908 0.0
C2062 C 0.35938 0.28906 0.87689 0.0
C2063 C 0.34924 0.27925 0.89189 0.0
C2064 C 0.38805 0.28732 0.87461 0.0
C2065 C 0.40717 0.27542 0.88717 0.0
C2066 C 0.39706 0.26528 0.90207 0.0
C2067 C 0.36838 0.26713 0.9044 0.0
C2068 C 0.43778 0.27493 0.88512 0.0
C2069 C 0.45528 0.2877 0.89759 0.0
C2070 C 0.44946 0.26387 0.8705 0.0
C2071 C 0.4324 0.24881 0.85729 0.0
C2072 C 0.41669 0.22612 0.86164 0.0
C2073 C 0.4004 0.21224 0.84916 0.0
C2074 C 0.39979 0.22073 0.83227 0.0
C2075 C 0.41553 0.24309 0.82781 0.0
C2076 C 0.43183 0.25706 0.84023 0.0
C2077 C 0.57484 0.28056 0.88729 0.0
C2078 C 0.58159 0.29455 0.87264 0.0
C2079 C 0.54699 0.27488 0.88968 0.0
C2080 C 0.52532 0.28355 0.87764 0.0
C2081 C 0.53212 0.29683 0.86281 0.0
C2082 C 0.55991 0.30235 0.86037 0.0
C2083 C 0.49543 0.28019 0.88076 0.0
C2084 C 0.47808 0.26679 0.86848 0.0
C2085 C 0.48383 0.29074 0.89553 0.0
C2086 C 0.50053 0.30639 0.9086 0.0
C2087 C 0.5138 0.33073 0.90431 0.0
C2088 C 0.52971 0.34522 0.91668 0.0
C2089 C 0.53229 0.33571 0.93341 0.0
C2090 C 0.5189 0.31173 0.93782 0.0
C2091 C 0.503 0.29714 0.9255 0.0
H2092 H 0.54462 0.34696 0.94297 0.0
H2093 H 0.38716 0.20996 0.82263 0.0
H2094 H 0.78867 0.36226 0.35884 0.0
H2095 H 0.79024 0.41323 0.35821 0.0
H2096 H 0.72534 0.41942 0.39324 0.0
H2097 H 0.72244 0.36866 0.39286 0.0
H2098 H 0.71352 0.45599 0.3718 0.0
H2099 H 0.79951 0.43165 0.4038 0.0
H2100 H 0.84556 0.40749 0.41034 0.0
H2101 H 0.87677 0.44439 0.36653 0.0
H2102 H 0.83078 0.4685 0.3596 0.0
H2103 H 0.74024 0.59968 0.39332 0.0
H2104 H 0.7469 0.54881 0.39696 0.0
H2105 H 0.76523 0.5406 0.34469 0.0
H2106 H 0.75772 0.59127 0.34085 0.0
H2107 H 0.80196 0.50663 0.3763 0.0
H2108 H 0.70998 0.52594 0.34414 0.0
H2109 H 0.6641 0.55161 0.34081 0.0
H2110 H 0.64543 0.52474 0.39026 0.0
H2111 H 0.69143 0.49927 0.39395 0.0
C2112 C 0.77487 0.3746 0.36644 0.0
C2113 C 0.75544 0.36163 0.37589 0.0
C2114 C 0.77591 0.40374 0.3662 0.0
C2115 C 0.75826 0.42039 0.37592 0.0
C2116 C 0.73915 0.40722 0.38557 0.0
C2117 C 0.73752 0.37819 0.38539 0.0
C2118 C 0.75867 0.4515 0.37547 0.0
C2119 C 0.73297 0.46685 0.37305 0.0
C2120 C 0.78391 0.46611 0.37696 0.0
C2121 C 0.81161 0.45167 0.3811 0.0
C2122 C 0.81613 0.43445 0.39549 0.0
C2123 C 0.84224 0.42079 0.39928 0.0
C2124 C 0.86406 0.42434 0.38884 0.0
C2125 C 0.85984 0.44163 0.3746 0.0
C2126 C 0.83377 0.45532 0.37074 0.0
C2127 C 0.74632 0.58704 0.38274 0.0
C2128 C 0.74868 0.59926 0.36684 0.0
C2129 C 0.75004 0.55808 0.38482 0.0
C2130 C 0.75665 0.54113 0.37109 0.0
C2131 C 0.76032 0.55345 0.35543 0.0
C2132 C 0.75596 0.58228 0.35325 0.0
C2133 C 0.75705 0.51038 0.37261 0.0
C2134 C 0.78275 0.49536 0.3752 0.0
C2135 C 0.7319 0.49602 0.37171 0.0
C2136 C 0.70421 0.51104 0.3694 0.0
C2137 C 0.69619 0.52576 0.35436 0.0
C2138 C 0.67015 0.54021 0.35239 0.0
C2139 C 0.6519 0.53988 0.36534 0.0
C2140 C 0.65961 0.52503 0.38026 0.0
C2141 C 0.68565 0.51058 0.38229 0.0
H2142 H 0.63175 0.55108 0.36379 0.0
H2143 H 0.88425 0.41375 0.39179 0.0
H2144 H 0.28706 0.20594 0.3247 0.0
H2145 H 0.27645 0.2048 0.29402 0.0
H2146 H 0.26707 0.29471 0.29304 0.0
H2147 H 0.27793 0.29616 0.32361 0.0
H2148 H 0.23307 0.22347 0.27128 0.0
H2149 H 0.30046 0.318 0.26006 0.0
H2150 H 0.34085 0.34148 0.27399 0.0
H2151 H 0.37018 0.26451 0.29827 0.0
H2152 H 0.33021 0.24051 0.2843 0.0
H2153 H 0.2103 0.27841 0.18727 0.0
H2154 H 0.21463 0.26811 0.21756 0.0
H2155 H 0.30053 0.23909 0.21395 0.0
H2156 H 0.2966 0.24999 0.18377 0.0
H2157 H 0.29796 0.27526 0.23815 0.0
H2158 H 0.24804 0.19408 0.22222 0.0
H2159 H 0.20996 0.16743 0.20823 0.0
H2160 H 0.1502 0.21107 0.23757 0.0
H2161 H 0.18788 0.23827 0.25158 0.0
C2162 C 0.28238 0.22547 0.31801 0.0
C2163 C 0.28376 0.25118 0.32661 0.0
C2164 C 0.2762 0.22475 0.30048 0.0
C2165 C 0.27141 0.24968 0.29125 0.0
C2166 C 0.27113 0.27524 0.29992 0.0
C2167 C 0.27732 0.27601 0.31741 0.0
C2168 C 0.26889 0.24922 0.27249 0.0
C2169 C 0.24719 0.23478 0.26398 0.0
C2170 C 0.28779 0.26341 0.26302 0.0
C2171 C 0.31219 0.27755 0.27126 0.0
C2172 C 0.3156 0.30608 0.26831 0.0
C2173 C 0.33841 0.31948 0.27622 0.0
C2174 C 0.35802 0.30452 0.28705 0.0
C2175 C 0.35493 0.2761 0.28993 0.0
C2176 C 0.33218 0.26259 0.28203 0.0
C2177 C 0.22997 0.26935 0.19285 0.0
C2178 C 0.2532 0.26528 0.18312 0.0
C2179 C 0.23238 0.26337 0.21019 0.0
C2180 C 0.25791 0.2528 0.21806 0.0
C2181 C 0.28067 0.24738 0.20818 0.0
C2182 C 0.27836 0.25358 0.1909 0.0
C2183 C 0.26177 0.24988 0.23676 0.0
C2184 C 0.28378 0.26382 0.24533 0.0
C2185 C 0.24348 0.23476 0.2462 0.0
C2186 C 0.22077 0.21838 0.23785 0.0
C2187 C 0.22675 0.19815 0.2256 0.0
C2188 C 0.20524 0.18291 0.21768 0.0
C2189 C 0.17767 0.1876 0.22198 0.0
C2190 C 0.17156 0.20748 0.23424 0.0
C2191 C 0.193 0.22278 0.24219 0.0
H2192 H 0.16104 0.17578 0.21584 0.0
H2193 H 0.37564 0.31494 0.29318 0.0
H2194 H 0.70628 0.30049 0.80888 0.0
H2195 H 0.70426 0.29263 0.77832 0.0
H2196 H 0.73699 0.20801 0.78684 0.0
H2197 H 0.73982 0.21634 0.81759 0.0
H2198 H 0.76063 0.23031 0.76124 0.0
H2199 H 0.66698 0.22217 0.7758 0.0
H2200 H 0.62348 0.23559 0.78909 0.0
H2201 H 0.61356 0.30989 0.75861 0.0
H2202 H 0.65728 0.29717 0.74533 0.0
H2203 H 0.71291 0.19623 0.67418 0.0
H2204 H 0.72069 0.1966 0.70515 0.0
H2205 H 0.7065 0.28606 0.70522 0.0
H2206 H 0.69912 0.28607 0.67443 0.0
H2207 H 0.67248 0.25515 0.72654 0.0
H2208 H 0.76922 0.26285 0.71361 0.0
H2209 H 0.81231 0.24737 0.70047 0.0
H2210 H 0.81456 0.16989 0.72781 0.0
H2211 H 0.77123 0.18477 0.74093 0.0
C2212 C 0.71292 0.28021 0.80417 0.0
C2213 C 0.72286 0.25886 0.81542 0.0
C2214 C 0.71172 0.27568 0.78676 0.0
C2215 C 0.71992 0.24953 0.78028 0.0
C2216 C 0.7304 0.22829 0.79155 0.0
C2217 C 0.73192 0.23297 0.80904 0.0
C2218 C 0.71739 0.24464 0.76173 0.0
C2219 C 0.74121 0.23526 0.75369 0.0
C2220 C 0.69208 0.25118 0.75184 0.0
C2221 C 0.66555 0.25879 0.75965 0.0
C2222 C 0.65563 0.24146 0.772 0.0
C2223 C 0.63092 0.24894 0.77953 0.0
C2224 C 0.61579 0.2736 0.77472 0.0
C2225 C 0.62531 0.2908 0.76234 0.0
C2226 C 0.65005 0.28345 0.75479 0.0
C2227 C 0.71187 0.21603 0.68077 0.0
C2228 C 0.70526 0.24111 0.67182 0.0
C2229 C 0.71633 0.21618 0.69844 0.0
C2230 C 0.71402 0.24134 0.7074 0.0
C2231 C 0.70828 0.26643 0.69849 0.0
C2232 C 0.70418 0.26637 0.68088 0.0
C2233 C 0.71585 0.24161 0.72611 0.0
C2234 C 0.69179 0.24996 0.73416 0.0
C2235 C 0.74076 0.2337 0.73596 0.0
C2236 C 0.7668 0.22478 0.72809 0.0
C2237 C 0.77874 0.2424 0.71668 0.0
C2238 C 0.80325 0.23376 0.70927 0.0
C2239 C 0.81611 0.20763 0.71326 0.0
C2240 C 0.80454 0.19011 0.7247 0.0
C2241 C 0.78002 0.19864 0.73214 0.0
H2242 H 0.83509 0.20098 0.70751 0.0
H2243 H 0.59666 0.27935 0.78057 0.0
H2244 H 0.73815 0.73276 0.17674 0.0
H2245 H 0.74271 0.74361 0.20671 0.0
H2246 H 0.83153 0.75309 0.2043 0.0
H2247 H 0.82727 0.74102 0.17413 0.0
H2248 H 0.82358 0.7242 0.23089 0.0
H2249 H 0.78448 0.81073 0.20974 0.0
H2250 H 0.75233 0.8429 0.19258 0.0
H2251 H 0.68275 0.81486 0.21815 0.0
H2252 H 0.71439 0.78223 0.23531 0.0
H2253 H 0.81835 0.7698 0.31865 0.0
H2254 H 0.8251 0.77251 0.28812 0.0
H2255 H 0.74391 0.73849 0.27673 0.0
H2256 H 0.73749 0.73524 0.30704 0.0
H2257 H 0.75558 0.78822 0.25753 0.0
H2258 H 0.79624 0.69654 0.27506 0.0
H2259 H 0.82957 0.66561 0.29229 0.0
H2260 H 0.89861 0.7071 0.27344 0.0
H2261 H 0.86561 0.73859 0.25629 0.0
C2262 C 0.75866 0.73748 0.18246 0.0
C2263 C 0.78235 0.73611 0.17299 0.0
C2264 C 0.76121 0.74388 0.19966 0.0
C2265 C 0.78737 0.74977 0.20777 0.0
C2266 C 0.81108 0.74878 0.19832 0.0
C2267 C 0.80861 0.74195 0.18108 0.0
C2268 C 0.78982 0.75521 0.22631 0.0
C2269 C 0.80916 0.73875 0.23666 0.0
C2270 C 0.771 0.77412 0.23395 0.0
C2271 C 0.75184 0.79393 0.22378 0.0
C2272 C 0.7623 0.81131 0.21165 0.0
C2273 C 0.74416 0.82964 0.20192 0.0
C2274 C 0.71552 0.8309 0.20426 0.0
C2275 C 0.70495 0.81387 0.21636 0.0
C2276 C 0.72299 0.79549 0.22612 0.0
C2277 C 0.80211 0.76287 0.30953 0.0
C2278 C 0.77756 0.75209 0.31501 0.0
C2279 C 0.80592 0.76445 0.2922 0.0
C2280 C 0.78496 0.75571 0.28024 0.0
C2281 C 0.76026 0.74539 0.28578 0.0
C2282 C 0.75668 0.74339 0.30303 0.0
C2283 C 0.7886 0.75662 0.26187 0.0
C2284 C 0.77041 0.77427 0.25163 0.0
C2285 C 0.80871 0.73918 0.25436 0.0
C2286 C 0.82848 0.72015 0.26459 0.0
C2287 C 0.81852 0.69925 0.27473 0.0
C2288 C 0.83735 0.68158 0.28445 0.0
C2289 C 0.86619 0.68445 0.28401 0.0
C2290 C 0.87626 0.70495 0.2738 0.0
C2291 C 0.85751 0.7227 0.26408 0.0
H2292 H 0.88074 0.67074 0.29154 0.0
H2293 H 0.70151 0.84509 0.19671 0.0
H2294 H 0.26707 0.71657 0.81506 0.0
H2295 H 0.26368 0.72667 0.78478 0.0
H2296 H 0.20396 0.79472 0.79227 0.0
H2297 H 0.20782 0.78497 0.82292 0.0
H2298 H 0.18936 0.7582 0.76405 0.0
H2299 H 0.26572 0.81224 0.78578 0.0
H2300 H 0.30974 0.82011 0.80299 0.0
H2301 H 0.35274 0.7575 0.77461 0.0
H2302 H 0.30887 0.74891 0.75741 0.0
H2303 H 0.20286 0.79539 0.67693 0.0
H2304 H 0.19929 0.79806 0.70769 0.0
H2305 H 0.26941 0.73855 0.71531 0.0
H2306 H 0.27371 0.73688 0.68485 0.0
H2307 H 0.27559 0.77998 0.73657 0.0
H2308 H 0.20007 0.72065 0.7181 0.0
H2309 H 0.15642 0.70894 0.7016 0.0
H2310 H 0.1125 0.7779 0.72401 0.0
H2311 H 0.15602 0.79024 0.74049 0.0
C2312 C 0.2535 0.73392 0.8103 0.0
C2313 C 0.23808 0.75035 0.8213 0.0
C2314 C 0.25145 0.73955 0.79301 0.0
C2315 C 0.23384 0.76164 0.78636 0.0
C2316 C 0.21774 0.77766 0.79722 0.0
C2317 C 0.21996 0.77211 0.81464 0.0
C2318 C 0.23284 0.7678 0.76804 0.0
C2319 C 0.20799 0.7636 0.75801 0.0
C2320 C 0.25735 0.77433 0.76025 0.0
C2321 C 0.28394 0.77984 0.77035 0.0
C2322 C 0.28452 0.80003 0.78327 0.0
C2323 C 0.30945 0.80463 0.79302 0.0
C2324 C 0.33401 0.78929 0.78991 0.0
C2325 C 0.3337 0.76937 0.777 0.0
C2326 C 0.30881 0.76466 0.76723 0.0
C2327 C 0.21741 0.78292 0.68525 0.0
C2328 C 0.23831 0.76567 0.67858 0.0
C2329 C 0.21529 0.78433 0.70277 0.0
C2330 C 0.23394 0.76831 0.71381 0.0
C2331 C 0.25478 0.75109 0.70706 0.0
C2332 C 0.25701 0.74987 0.68965 0.0
C2333 C 0.23231 0.76946 0.73243 0.0
C2334 C 0.25674 0.77513 0.74255 0.0
C2335 C 0.2075 0.76396 0.74026 0.0
C2336 C 0.18136 0.75658 0.73035 0.0
C2337 C 0.18116 0.73346 0.71939 0.0
C2338 C 0.15644 0.72668 0.71007 0.0
C2339 C 0.13173 0.74272 0.71171 0.0
C2340 C 0.13167 0.76553 0.72272 0.0
C2341 C 0.15635 0.77242 0.73206 0.0
H2342 H 0.1126 0.73743 0.70449 0.0
H2343 H 0.35328 0.79286 0.79748 0.0
H2344 H 0.70938 0.76812 0.81205 0.0
H2345 H 0.70388 0.7714 0.78101 0.0
H2346 H 0.7698 0.70788 0.77749 0.0
H2347 H 0.77482 0.70405 0.80832 0.0
H2348 H 0.77317 0.75137 0.75445 0.0
H2349 H 0.70515 0.68932 0.77331 0.0
H2350 H 0.66639 0.67699 0.79029 0.0
H2351 H 0.61389 0.74273 0.7664 0.0
H2352 H 0.65256 0.75579 0.74949 0.0
H2353 H 0.69565 0.69546 0.67184 0.0
H2354 H 0.70694 0.69498 0.70247 0.0
H2355 H 0.72683 0.7818 0.70089 0.0
H2356 H 0.71569 0.78253 0.67029 0.0
H2357 H 0.6815 0.72599 0.72653 0.0
H2358 H 0.7796 0.79239 0.73203 0.0
H2359 H 0.81947 0.80291 0.71546 0.0
H2360 H 0.8134 0.72358 0.69048 0.0
H2361 H 0.77376 0.71243 0.70706 0.0
C2362 C 0.72281 0.75508 0.8046 0.0
C2363 C 0.74258 0.73592 0.81255 0.0
C2364 C 0.71971 0.75699 0.78693 0.0
C2365 C 0.73639 0.7398 0.77698 0.0
C2366 C 0.75688 0.72147 0.78494 0.0
C2367 C 0.75982 0.71941 0.80256 0.0
C2368 C 0.7313 0.73941 0.7583 0.0
C2369 C 0.7531 0.74599 0.74832 0.0
C2370 C 0.70526 0.73188 0.75035 0.0
C2371 C 0.68183 0.7237 0.76026 0.0
C2372 C 0.6854 0.70127 0.77176 0.0
C2373 C 0.66345 0.69414 0.78137 0.0
C2374 C 0.63771 0.70911 0.77946 0.0
C2375 C 0.63385 0.73118 0.76789 0.0
C2376 C 0.65578 0.73845 0.75829 0.0
C2377 C 0.70271 0.71439 0.67796 0.0
C2378 C 0.70472 0.73905 0.66858 0.0
C2379 C 0.70901 0.71411 0.69548 0.0
C2380 C 0.71774 0.73833 0.70394 0.0
C2381 C 0.72034 0.76281 0.6946 0.0
C2382 C 0.7139 0.76318 0.6771 0.0
C2383 C 0.7233 0.73825 0.72262 0.0
C2384 C 0.70154 0.73157 0.73262 0.0
C2385 C 0.74947 0.74541 0.73056 0.0
C2386 C 0.77353 0.75172 0.72067 0.0
C2387 C 0.78684 0.77716 0.72304 0.0
C2388 C 0.80939 0.78323 0.71364 0.0
C2389 C 0.8189 0.76396 0.70188 0.0
C2390 C 0.80594 0.73853 0.69954 0.0
C2391 C 0.78341 0.73234 0.70892 0.0
H2392 H 0.83634 0.76871 0.69461 0.0
H2393 H 0.62074 0.70357 0.78691 0.0
H2394 H 0.32337 0.73892 0.18482 0.0
H2395 H 0.32517 0.74629 0.21542 0.0
H2396 H 0.23625 0.73478 0.21475 0.0
H2397 H 0.23407 0.72831 0.18418 0.0
H2398 H 0.24981 0.77288 0.23697 0.0
H2399 H 0.28468 0.68053 0.22458 0.0
H2400 H 0.31484 0.64516 0.21127 0.0
H2401 H 0.38791 0.67955 0.23666 0.0
H2402 H 0.35819 0.71538 0.24995 0.0
H2403 H 0.2959 0.70296 0.32561 0.0
H2404 H 0.28532 0.70045 0.29497 0.0
H2405 H 0.29387 0.78945 0.29107 0.0
H2406 H 0.3035 0.79228 0.32161 0.0
H2407 H 0.31739 0.71043 0.27114 0.0
H2408 H 0.25603 0.81639 0.2571 0.0
H2409 H 0.2219 0.84772 0.27045 0.0
H2410 H 0.19429 0.77864 0.29836 0.0
H2411 H 0.22797 0.74683 0.28502 0.0
C2412 C 0.30411 0.73843 0.19114 0.0
C2413 C 0.27864 0.73268 0.18207 0.0
C2414 C 0.3052 0.7425 0.20865 0.0
C2415 C 0.28095 0.74041 0.21744 0.0
C2416 C 0.25525 0.73634 0.20827 0.0
C2417 C 0.25407 0.73259 0.19076 0.0
C2418 C 0.28257 0.74075 0.23622 0.0
C2419 C 0.26463 0.7593 0.24446 0.0
C2420 C 0.30131 0.72242 0.246 0.0
C2421 C 0.31923 0.70079 0.23813 0.0
C2422 C 0.30719 0.68065 0.22724 0.0
C2423 C 0.3242 0.66051 0.21971 0.0
C2424 C 0.35328 0.66015 0.22309 0.0
C2425 C 0.36539 0.67988 0.23404 0.0
C2426 C 0.34847 0.7001 0.24158 0.0
C2427 C 0.29506 0.72206 0.31826 0.0
C2428 C 0.30058 0.74781 0.32608 0.0
C2429 C 0.28911 0.72058 0.30074 0.0
C2430 C 0.28865 0.74478 0.2907 0.0
C2431 C 0.29356 0.77056 0.29854 0.0
C2432 C 0.2992 0.77211 0.31605 0.0
C2433 C 0.28491 0.74288 0.27196 0.0
C2434 C 0.30252 0.72404 0.2637 0.0
C2435 C 0.26528 0.76036 0.2622 0.0
C2436 C 0.24472 0.77928 0.27016 0.0
C2437 C 0.24259 0.80786 0.26603 0.0
C2438 C 0.22334 0.82571 0.27361 0.0
C2439 C 0.206 0.81519 0.28528 0.0
C2440 C 0.20781 0.78678 0.28936 0.0
C2441 C 0.22701 0.76884 0.28181 0.0
H2442 H 0.19112 0.82904 0.29114 0.0
H2443 H 0.36641 0.64454 0.21724 0.0
H2444 H 0.26734 0.23306 0.6868 0.0
H2445 H 0.25972 0.23432 0.71694 0.0
H2446 H 0.19472 0.29878 0.70756 0.0
H2447 H 0.20172 0.29694 0.67713 0.0
H2448 H 0.23512 0.3104 0.73443 0.0
H2449 H 0.17549 0.23649 0.71614 0.0
H2450 H 0.1642 0.19239 0.70163 0.0
H2451 H 0.22702 0.14807 0.73399 0.0
H2452 H 0.23901 0.192 0.74854 0.0
H2453 H 0.19339 0.31178 0.81763 0.0
H2454 H 0.19203 0.30781 0.78684 0.0
H2455 H 0.24784 0.23461 0.79178 0.0
H2456 H 0.24797 0.23772 0.82273 0.0
H2457 H 0.20928 0.22778 0.76662 0.0
H2458 H 0.27165 0.29982 0.78364 0.0
H2459 H 0.28581 0.34316 0.79808 0.0
H2460 H 0.22175 0.39013 0.76809 0.0
H2461 H 0.20692 0.34698 0.75364 0.0
C2462 C 0.25099 0.24705 0.69109 0.0
C2463 C 0.2348 0.26462 0.67963 0.0
C2464 C 0.24679 0.24787 0.70832 0.0
C2465 C 0.22649 0.26644 0.71442 0.0
C2466 C 0.21043 0.28423 0.70305 0.0
C2467 C 0.21444 0.2832 0.68574 0.0
C2468 C 0.22281 0.26776 0.73279 0.0
C2469 C 0.22896 0.29253 0.74146 0.0
C2470 C 0.21566 0.24411 0.74195 0.0
C2471 C 0.2083 0.2176 0.73334 0.0
C2472 C 0.18705 0.21738 0.72008 0.0
C2473 C 0.1805 0.19241 0.71186 0.0
C2474 C 0.19493 0.16745 0.71686 0.0
C2475 C 0.21588 0.16742 0.73012 0.0
C2476 C 0.22254 0.19235 0.73837 0.0
C2477 C 0.20487 0.29449 0.81214 0.0
C2478 C 0.22073 0.27498 0.82249 0.0
C2479 C 0.20435 0.29244 0.79455 0.0
C2480 C 0.22024 0.27121 0.78699 0.0
C2481 C 0.2355 0.25122 0.79733 0.0
C2482 C 0.23571 0.25308 0.81496 0.0
C2483 C 0.22165 0.27045 0.76834 0.0
C2484 C 0.2152 0.24576 0.75962 0.0
C2485 C 0.22892 0.29408 0.75914 0.0
C2486 C 0.23799 0.32012 0.76768 0.0
C2487 C 0.26045 0.31936 0.7802 0.0
C2488 C 0.26862 0.34389 0.78838 0.0
C2489 C 0.25464 0.36937 0.78404 0.0
C2490 C 0.23253 0.37037 0.77146 0.0
C2491 C 0.22424 0.34589 0.76327 0.0
H2492 H 0.26098 0.38834 0.79039 0.0
H2493 H 0.18983 0.14814 0.71048 0.0
H2494 H 0.79326 0.26745 0.31761 0.0
H2495 H 0.79712 0.26975 0.28692 0.0
H2496 H 0.72007 0.22647 0.27858 0.0
H2497 H 0.71692 0.22325 0.30921 0.0
H2498 H 0.75449 0.20864 0.25679 0.0
H2499 H 0.723 0.29883 0.27568 0.0
H2500 H 0.72496 0.34134 0.29322 0.0
H2501 H 0.80317 0.36066 0.27377 0.0
H2502 H 0.80192 0.31796 0.25633 0.0
H2503 H 0.71154 0.26146 0.17335 0.0
H2504 H 0.71521 0.25063 0.20368 0.0
H2505 H 0.80077 0.27582 0.20771 0.0
H2506 H 0.79753 0.28625 0.17741 0.0
H2507 H 0.76441 0.30189 0.23132 0.0
H2508 H 0.79259 0.21104 0.21088 0.0
H2509 H 0.78747 0.16898 0.19315 0.0
H2510 H 0.71056 0.1523 0.21504 0.0
H2511 H 0.71501 0.19452 0.23273 0.0
C2512 C 0.77743 0.25817 0.30914 0.0
C2513 C 0.75491 0.24508 0.31562 0.0
C2514 C 0.77952 0.25959 0.29167 0.0
C2515 C 0.75863 0.24867 0.28041 0.0
C2516 C 0.73647 0.23498 0.28698 0.0
C2517 C 0.73465 0.23316 0.30444 0.0
C2518 C 0.75911 0.2525 0.26184 0.0
C2519 C 0.75642 0.22908 0.25124 0.0
C2520 C 0.7619 0.27913 0.25454 0.0
C2521 C 0.76251 0.30504 0.26483 0.0
C2522 C 0.74071 0.31205 0.27522 0.0
C2523 C 0.74169 0.33618 0.28515 0.0
C2524 C 0.76421 0.35366 0.28464 0.0
C2525 C 0.78576 0.34707 0.27417 0.0
C2526 C 0.78493 0.32291 0.26426 0.0
C2527 C 0.73123 0.26438 0.18065 0.0
C2528 C 0.75422 0.27476 0.17298 0.0
C2529 C 0.7333 0.25813 0.19795 0.0
C2530 C 0.75826 0.26247 0.20787 0.0
C2531 C 0.78136 0.27236 0.20022 0.0
C2532 C 0.77947 0.27819 0.1829 0.0
C2533 C 0.75978 0.25809 0.2264 0.0
C2534 C 0.76271 0.28146 0.23694 0.0
C2535 C 0.75667 0.23155 0.23359 0.0
C2536 C 0.754 0.2061 0.22301 0.0
C2537 C 0.77445 0.19855 0.2118 0.0
C2538 C 0.7717 0.17465 0.20178 0.0
C2539 C 0.74867 0.15801 0.20293 0.0
C2540 C 0.72837 0.16522 0.21414 0.0
C2541 C 0.73101 0.18912 0.22418 0.0
H2542 H 0.74658 0.13951 0.19517 0.0
H2543 H 0.76494 0.37233 0.29234 0.0
loop_
_geom_bond_atom_site_label_1
_geom_bond_atom_site_label_2
_geom_bond_distance
_geom_bond_site_symmetry_2
_ccdc_geom_bond_type
Co0 O3 1.970 . S
Co0 N17 1.989 . S
Co0 O25 1.967 . S
Co0 O32 1.920 . S
Co1 O4 1.966 . S
Co1 N10 2.022 . S
Co1 N18 1.993 . S
Co1 O26 1.941 . S
C2 O3 1.258 . S
C2 O4 1.263 . S
O3 Co0 1.970 . S
O3 C2 1.258 . S
O4 Co1 1.966 . S
O4 C2 1.263 . S
C5 O6 1.235 . S
C5 O32 1.289 . S
O6 C5 1.235 . S
C7 C9 1.400 . S
C7 N10 1.351 . S
C7 C12 1.501 . S
C8 C9 1.387 . S
C8 N11 1.341 . S
C9 C7 1.400 . S
C9 C8 1.387 . S
N10 Co1 2.022 . S
N10 C7 1.351 . S
N10 N11 1.365 . S
N11 C8 1.341 . S
N11 N10 1.365 . S
N11 H31 0.862 . S
C12 C7 1.501 . S
C12 H13 0.961 . S
C12 H14 0.961 . S
C12 H15 0.960 . S
H13 C12 0.961 . S
H14 C12 0.961 . S
H15 C12 0.960 . S
C16 N17 1.342 . S
C16 C20 1.401 . S
C16 C21 1.499 . S
N17 Co0 1.989 . S
N17 C16 1.342 . S
N17 N18 1.388 . S
N18 Co1 1.993 . S
N18 N17 1.388 . S
N18 C19 1.346 . S
C19 N18 1.346 . S
C19 C20 1.396 . S
C19 C29 1.510 . S
C20 C16 1.401 . S
C20 C19 1.396 . S
C21 C16 1.499 . S
C21 H22 0.959 . S
C21 H23 0.960 . S
C21 H24 0.961 . S
H22 C21 0.959 . S
H23 C21 0.960 . S
H24 C21 0.961 . S
O25 Co0 1.967 . S
O25 C33 1.258 . S
O26 Co1 1.941 . S
O26 C33 1.266 . S
H27 C29 0.959 . S
H28 C29 0.961 . S
C29 C19 1.510 . S
C29 H27 0.959 . S
C29 H28 0.961 . S
C29 H30 0.960 . S
H30 C29 0.960 . S
H31 N11 0.862 . S
O32 Co0 1.920 . S
O32 C5 1.289 . S
C33 O25 1.258 . S
C33 O26 1.266 . S
Co34 O37 1.970 . S
Co34 N51 1.989 . S
Co34 O59 1.967 . S
Co34 O66 1.920 . S
Co35 O38 1.966 . S
Co35 N44 2.022 . S
Co35 N52 1.993 . S
Co35 O60 1.941 . S
C36 O37 1.258 . S
C36 O38 1.263 . S
O37 Co34 1.970 . S
O37 C36 1.258 . S
O38 Co35 1.966 . S
O38 C36 1.263 . S
C39 O40 1.235 . S
C39 O66 1.289 . S
O40 C39 1.235 . S
C41 C43 1.400 . S
C41 N44 1.351 . S
C41 C46 1.501 . S
C42 C43 1.387 . S
C42 N45 1.341 . S
C43 C41 1.400 . S
C43 C42 1.387 . S
N44 Co35 2.022 . S
N44 C41 1.351 . S
N44 N45 1.365 . S
N45 C42 1.341 . S
N45 N44 1.365 . S
N45 H65 0.862 . S
C46 C41 1.501 . S
C46 H47 0.961 . S
C46 H48 0.961 . S
C46 H49 0.960 . S
H47 C46 0.961 . S
H48 C46 0.961 . S
H49 C46 0.960 . S
C50 N51 1.342 . S
C50 C54 1.401 . S
C50 C55 1.499 . S
N51 Co34 1.989 . S
N51 C50 1.342 . S
N51 N52 1.388 . S
N52 Co35 1.993 . S
N52 N51 1.388 . S
N52 C53 1.346 . S
C53 N52 1.346 . S
C53 C54 1.396 . S
C53 C63 1.510 . S
C54 C50 1.401 . S
C54 C53 1.396 . S
C55 C50 1.499 . S
C55 H56 0.959 . S
C55 H57 0.960 . S
C55 H58 0.961 . S
H56 C55 0.959 . S
H57 C55 0.960 . S
H58 C55 0.961 . S
O59 Co34 1.967 . S
O59 C67 1.258 . S
O60 Co35 1.941 . S
O60 C67 1.266 . S
H61 C63 0.959 . S
H62 C63 0.961 . S
C63 C53 1.510 . S
C63 H61 0.959 . S
C63 H62 0.961 . S
C63 H64 0.960 . S
H64 C63 0.960 . S
H65 N45 0.862 . S
O66 Co34 1.920 . S
O66 C39 1.289 . S
C67 O59 1.258 . S
C67 O60 1.266 . S
Co68 O71 1.970 . S
Co68 N85 1.989 . S
Co68 O93 1.967 . S
Co68 O100 1.920 . S
Co69 O72 1.966 . S
Co69 N78 2.022 . S
Co69 N86 1.993 . S
Co69 O94 1.941 . S
C70 O71 1.258 . S
C70 O72 1.263 . S
O71 Co68 1.970 . S
O71 C70 1.258 . S
O72 Co69 1.966 . S
O72 C70 1.263 . S
C73 O74 1.235 . S
C73 O100 1.289 . S
O74 C73 1.235 . S
C75 C77 1.400 . S
C75 N78 1.351 . S
C75 C80 1.501 . S
C76 C77 1.387 . S
C76 N79 1.341 . S
C77 C75 1.400 . S
C77 C76 1.387 . S
N78 Co69 2.022 . S
N78 C75 1.351 . S
N78 N79 1.365 . S
N79 C76 1.341 . S
N79 N78 1.365 . S
N79 H99 0.862 . S
C80 C75 1.501 . S
C80 H81 0.961 . S
C80 H82 0.961 . S
C80 H83 0.960 . S
H81 C80 0.961 . S
H82 C80 0.961 . S
H83 C80 0.960 . S
C84 N85 1.342 . S
C84 C88 1.401 . S
C84 C89 1.499 . S
N85 Co68 1.989 . S
N85 C84 1.342 . S
N85 N86 1.388 . S
N86 Co69 1.993 . S
N86 N85 1.388 . S
N86 C87 1.346 . S
C87 N86 1.346 . S
C87 C88 1.396 . S
C87 C97 1.510 . S
C88 C84 1.401 . S
C88 C87 1.396 . S
C89 C84 1.499 . S
C89 H90 0.959 . S
C89 H91 0.960 . S
C89 H92 0.961 . S
H90 C89 0.959 . S
H91 C89 0.960 . S
H92 C89 0.961 . S
O93 Co68 1.967 . S
O93 C101 1.258 . S
O94 Co69 1.941 . S
O94 C101 1.266 . S
H95 C97 0.959 . S
H96 C97 0.961 . S
C97 C87 1.510 . S
C97 H95 0.959 . S
C97 H96 0.961 . S
C97 H98 0.960 . S
H98 C97 0.960 . S
H99 N79 0.862 . S
O100 Co68 1.920 . S
O100 C73 1.289 . S
C101 O93 1.258 . S
C101 O94 1.266 . S
Co102 O105 1.970 . S
Co102 N119 1.989 . S
Co102 O127 1.967 . S
Co102 O134 1.920 . S
Co103 O106 1.966 . S
Co103 N112 2.022 . S
Co103 N120 1.993 . S
Co103 O128 1.941 . S
C104 O105 1.258 . S
C104 O106 1.263 . S
O105 Co102 1.970 . S
O105 C104 1.258 . S
O106 Co103 1.966 . S
O106 C104 1.263 . S
C107 O108 1.235 . S
C107 O134 1.289 . S
O108 C107 1.235 . S
C109 C111 1.400 . S
C109 N112 1.351 . S
C109 C114 1.501 . S
C110 C111 1.387 . S
C110 N113 1.341 . S
C111 C109 1.400 . S
C111 C110 1.387 . S
N112 Co103 2.022 . S
N112 C109 1.351 . S
N112 N113 1.365 . S
N113 C110 1.341 . S
N113 N112 1.365 . S
N113 H133 0.862 . S
C114 C109 1.501 . S
C114 H115 0.961 . S
C114 H116 0.961 . S
C114 H117 0.960 . S
H115 C114 0.961 . S
H116 C114 0.961 . S
H117 C114 0.960 . S
C118 N119 1.342 . S
C118 C122 1.401 . S
C118 C123 1.499 . S
N119 Co102 1.989 . S
N119 C118 1.342 . S
N119 N120 1.388 . S
N120 Co103 1.993 . S
N120 N119 1.388 . S
N120 C121 1.346 . S
C121 N120 1.346 . S
C121 C122 1.396 . S
C121 C131 1.510 . S
C122 C118 1.401 . S
C122 C121 1.396 . S
C123 C118 1.499 . S
C123 H124 0.959 . S
C123 H125 0.960 . S
C123 H126 0.961 . S
H124 C123 0.959 . S
H125 C123 0.960 . S
H126 C123 0.961 . S
O127 Co102 1.967 . S
O127 C135 1.258 . S
O128 Co103 1.941 . S
O128 C135 1.266 . S
H129 C131 0.959 . S
H130 C131 0.961 . S
C131 C121 1.510 . S
C131 H129 0.959 . S
C131 H130 0.961 . S
C131 H132 0.960 . S
H132 C131 0.960 . S
H133 N113 0.862 . S
O134 Co102 1.920 . S
O134 C107 1.289 . S
C135 O127 1.258 . S
C135 O128 1.266 . S
Co136 O139 1.970 . S
Co136 N153 1.989 . S
Co136 O161 1.967 . S
Co136 O168 1.920 . S
Co137 O140 1.966 . S
Co137 N146 2.022 . S
Co137 N154 1.993 . S
Co137 O162 1.941 . S
C138 O139 1.258 . S
C138 O140 1.263 . S
O139 Co136 1.970 . S
O139 C138 1.258 . S
O140 Co137 1.966 . S
O140 C138 1.263 . S
C141 O142 1.235 . S
C141 O168 1.289 . S
O142 C141 1.235 . S
C143 C145 1.400 . S
C143 N146 1.351 . S
C143 C148 1.501 . S
C144 C145 1.387 . S
C144 N147 1.341 . S
C145 C143 1.400 . S
C145 C144 1.387 . S
N146 Co137 2.022 . S
N146 C143 1.351 . S
N146 N147 1.365 . S
N147 C144 1.341 . S
N147 N146 1.365 . S
N147 H167 0.862 . S
C148 C143 1.501 . S
C148 H149 0.961 . S
C148 H150 0.961 . S
C148 H151 0.960 . S
H149 C148 0.961 . S
H150 C148 0.961 . S
H151 C148 0.960 . S
C152 N153 1.342 . S
C152 C156 1.401 . S
C152 C157 1.499 . S
N153 Co136 1.989 . S
N153 C152 1.342 . S
N153 N154 1.388 . S
N154 Co137 1.993 . S
N154 N153 1.388 . S
N154 C155 1.346 . S
C155 N154 1.346 . S
C155 C156 1.396 . S
C155 C165 1.510 . S
C156 C152 1.401 . S
C156 C155 1.396 . S
C157 C152 1.499 . S
C157 H158 0.959 . S
C157 H159 0.960 . S
C157 H160 0.961 . S
H158 C157 0.959 . S
H159 C157 0.960 . S
H160 C157 0.961 . S
O161 Co136 1.967 . S
O161 C169 1.258 . S
O162 Co137 1.941 . S
O162 C169 1.266 . S
H163 C165 0.959 . S
H164 C165 0.961 . S
C165 C155 1.510 . S
C165 H163 0.959 . S
C165 H164 0.961 . S
C165 H166 0.960 . S
H166 C165 0.960 . S
H167 N147 0.862 . S
O168 Co136 1.920 . S
O168 C141 1.289 . S
C169 O161 1.258 . S
C169 O162 1.266 . S
Co170 O173 1.970 . S
Co170 N187 1.989 . S
Co170 O195 1.967 . S
Co170 O202 1.920 . S
Co171 O174 1.966 . S
Co171 N180 2.022 . S
Co171 N188 1.993 . S
Co171 O196 1.941 . S
C172 O173 1.258 . S
C172 O174 1.263 . S
O173 Co170 1.970 . S
O173 C172 1.258 . S
O174 Co171 1.966 . S
O174 C172 1.263 . S
C175 O176 1.235 . S
C175 O202 1.289 . S
O176 C175 1.235 . S
C177 C179 1.400 . S
C177 N180 1.351 . S
C177 C182 1.501 . S
C178 C179 1.387 . S
C178 N181 1.341 . S
C179 C177 1.400 . S
C179 C178 1.387 . S
N180 Co171 2.022 . S
N180 C177 1.351 . S
N180 N181 1.365 . S
N181 C178 1.341 . S
N181 N180 1.365 . S
N181 H201 0.862 . S
C182 C177 1.501 . S
C182 H183 0.961 . S
C182 H184 0.961 . S
C182 H185 0.960 . S
H183 C182 0.961 . S
H184 C182 0.961 . S
H185 C182 0.960 . S
C186 N187 1.342 . S
C186 C190 1.401 . S
C186 C191 1.499 . S
N187 Co170 1.989 . S
N187 C186 1.342 . S
N187 N188 1.388 . S
N188 Co171 1.993 . S
N188 N187 1.388 . S
N188 C189 1.346 . S
C189 N188 1.346 . S
C189 C190 1.396 . S
C189 C199 1.510 . S
C190 C186 1.401 . S
C190 C189 1.396 . S
C191 C186 1.499 . S
C191 H192 0.959 . S
C191 H193 0.960 . S
C191 H194 0.961 . S
H192 C191 0.959 . S
H193 C191 0.960 . S
H194 C191 0.961 . S
O195 Co170 1.967 . S
O195 C203 1.258 . S
O196 Co171 1.941 . S
O196 C203 1.266 . S
H197 C199 0.959 . S
H198 C199 0.961 . S
C199 C189 1.510 . S
C199 H197 0.959 . S
C199 H198 0.961 . S
C199 H200 0.960 . S
H200 C199 0.960 . S
H201 N181 0.862 . S
O202 Co170 1.920 . S
O202 C175 1.289 . S
C203 O195 1.258 . S
C203 O196 1.266 . S
Co204 O207 1.970 . S
Co204 N221 1.989 . S
Co204 O229 1.967 . S
Co204 O236 1.920 . S
Co205 O208 1.966 . S
Co205 N214 2.022 . S
Co205 N222 1.993 . S
Co205 O230 1.941 . S
C206 O207 1.258 . S
C206 O208 1.263 . S
O207 Co204 1.970 . S
O207 C206 1.258 . S
O208 Co205 1.966 . S
O208 C206 1.263 . S
C209 O210 1.235 . S
C209 O236 1.289 . S
O210 C209 1.235 . S
C211 C213 1.400 . S
C211 N214 1.351 . S
C211 C216 1.501 . S
C212 C213 1.387 . S
C212 N215 1.341 . S
C213 C211 1.400 . S
C213 C212 1.387 . S
N214 Co205 2.022 . S
N214 C211 1.351 . S
N214 N215 1.365 . S
N215 C212 1.341 . S
N215 N214 1.365 . S
N215 H235 0.862 . S
C216 C211 1.501 . S
C216 H217 0.961 . S
C216 H218 0.961 . S
C216 H219 0.960 . S
H217 C216 0.961 . S
H218 C216 0.961 . S
H219 C216 0.960 . S
C220 N221 1.342 . S
C220 C224 1.401 . S
C220 C225 1.499 . S
N221 Co204 1.989 . S
N221 C220 1.342 . S
N221 N222 1.388 . S
N222 Co205 1.993 . S
N222 N221 1.388 . S
N222 C223 1.346 . S
C223 N222 1.346 . S
C223 C224 1.396 . S
C223 C233 1.510 . S
C224 C220 1.401 . S
C224 C223 1.396 . S
C225 C220 1.499 . S
C225 H226 0.959 . S
C225 H227 0.960 . S
C225 H228 0.961 . S
H226 C225 0.959 . S
H227 C225 0.960 . S
H228 C225 0.961 . S
O229 Co204 1.967 . S
O229 C237 1.258 . S
O230 Co205 1.941 . S
O230 C237 1.266 . S
H231 C233 0.959 . S
H232 C233 0.961 . S
C233 C223 1.510 . S
C233 H231 0.959 . S
C233 H232 0.961 . S
C233 H234 0.960 . S
H234 C233 0.960 . S
H235 N215 0.862 . S
O236 Co204 1.920 . S
O236 C209 1.289 . S
C237 O229 1.258 . S
C237 O230 1.266 . S
Co238 O241 1.970 . S
Co238 N255 1.989 . S
Co238 O263 1.967 . S
Co238 O270 1.920 . S
Co239 O242 1.966 . S
Co239 N248 2.022 . S
Co239 N256 1.993 . S
Co239 O264 1.941 . S
C240 O241 1.258 . S
C240 O242 1.263 . S
O241 Co238 1.970 . S
O241 C240 1.258 . S
O242 Co239 1.966 . S
O242 C240 1.263 . S
C243 O244 1.235 . S
C243 O270 1.289 . S
O244 C243 1.235 . S
C245 C247 1.400 . S
C245 N248 1.351 . S
C245 C250 1.501 . S
C246 C247 1.387 . S
C246 N249 1.341 . S
C247 C245 1.400 . S
C247 C246 1.387 . S
N248 Co239 2.022 . S
N248 C245 1.351 . S
N248 N249 1.365 . S
N249 C246 1.341 . S
N249 N248 1.365 . S
N249 H269 0.862 . S
C250 C245 1.501 . S
C250 H251 0.961 . S
C250 H252 0.961 . S
C250 H253 0.960 . S
H251 C250 0.961 . S
H252 C250 0.961 . S
H253 C250 0.960 . S
C254 N255 1.342 . S
C254 C258 1.401 . S
C254 C259 1.499 . S
N255 Co238 1.989 . S
N255 C254 1.342 . S
N255 N256 1.388 . S
N256 Co239 1.993 . S
N256 N255 1.388 . S
N256 C257 1.346 . S
C257 N256 1.346 . S
C257 C258 1.396 . S
C257 C267 1.510 . S
C258 C254 1.401 . S
C258 C257 1.396 . S
C259 C254 1.499 . S
C259 H260 0.959 . S
C259 H261 0.960 . S
C259 H262 0.961 . S
H260 C259 0.959 . S
H261 C259 0.960 . S
H262 C259 0.961 . S
O263 Co238 1.967 . S
O263 C271 1.258 . S
O264 Co239 1.941 . S
O264 C271 1.266 . S
H265 C267 0.959 . S
H266 C267 0.961 . S
C267 C257 1.510 . S
C267 H265 0.959 . S
C267 H266 0.961 . S
C267 H268 0.960 . S
H268 C267 0.960 . S
H269 N249 0.862 . S
O270 Co238 1.920 . S
O270 C243 1.289 . S
C271 O263 1.258 . S
C271 O264 1.266 . S
Co272 O275 1.970 . S
Co272 N289 1.989 . S
Co272 O297 1.967 . S
Co272 O304 1.920 . S
Co273 O276 1.966 . S
Co273 N282 2.022 . S
Co273 N290 1.993 . S
Co273 O298 1.941 . S
C274 O275 1.258 . S
C274 O276 1.263 . S
O275 Co272 1.970 . S
O275 C274 1.258 . S
O276 Co273 1.966 . S
O276 C274 1.263 . S
C277 O278 1.235 . S
C277 O304 1.289 . S
O278 C277 1.235 . S
C279 C281 1.400 . S
C279 N282 1.351 . S
C279 C284 1.501 . S
C280 C281 1.387 . S
C280 N283 1.341 . S
C281 C279 1.400 . S
C281 C280 1.387 . S
N282 Co273 2.022 . S
N282 C279 1.351 . S
N282 N283 1.365 . S
N283 C280 1.341 . S
N283 N282 1.365 . S
N283 H303 0.862 . S
C284 C279 1.501 . S
C284 H285 0.961 . S
C284 H286 0.961 . S
C284 H287 0.960 . S
H285 C284 0.961 . S
H286 C284 0.961 . S
H287 C284 0.960 . S
C288 N289 1.342 . S
C288 C292 1.401 . S
C288 C293 1.499 . S
N289 Co272 1.989 . S
N289 C288 1.342 . S
N289 N290 1.388 . S
N290 Co273 1.993 . S
N290 N289 1.388 . S
N290 C291 1.346 . S
C291 N290 1.346 . S
C291 C292 1.396 . S
C291 C301 1.510 . S
C292 C288 1.401 . S
C292 C291 1.396 . S
C293 C288 1.499 . S
C293 H294 0.959 . S
C293 H295 0.960 . S
C293 H296 0.961 . S
H294 C293 0.959 . S
H295 C293 0.960 . S
H296 C293 0.961 . S
O297 Co272 1.967 . S
O297 C305 1.258 . S
O298 Co273 1.941 . S
O298 C305 1.266 . S
H299 C301 0.959 . S
H300 C301 0.961 . S
C301 C291 1.510 . S
C301 H299 0.959 . S
C301 H300 0.961 . S
C301 H302 0.960 . S
H302 C301 0.960 . S
H303 N283 0.862 . S
O304 Co272 1.920 . S
O304 C277 1.289 . S
C305 O297 1.258 . S
C305 O298 1.266 . S
Co306 O309 1.970 . S
Co306 N323 1.989 . S
Co306 O331 1.967 . S
Co306 O338 1.920 . S
Co307 O310 1.966 . S
Co307 N316 2.022 . S
Co307 N324 1.993 . S
Co307 O332 1.941 . S
C308 O309 1.258 . S
C308 O310 1.263 . S
O309 Co306 1.970 . S
O309 C308 1.258 . S
O310 Co307 1.966 . S
O310 C308 1.263 . S
C311 O312 1.235 . S
C311 O338 1.289 . S
O312 C311 1.235 . S
C313 C315 1.400 . S
C313 N316 1.351 . S
C313 C318 1.501 . S
C314 C315 1.387 . S
C314 N317 1.341 . S
C315 C313 1.400 . S
C315 C314 1.387 . S
N316 Co307 2.022 . S
N316 C313 1.351 . S
N316 N317 1.365 . S
N317 C314 1.341 . S
N317 N316 1.365 . S
N317 H337 0.862 . S
C318 C313 1.501 . S
C318 H319 0.961 . S
C318 H320 0.961 . S
C318 H321 0.960 . S
H319 C318 0.961 . S
H320 C318 0.961 . S
H321 C318 0.960 . S
C322 N323 1.342 . S
C322 C326 1.401 . S
C322 C327 1.499 . S
N323 Co306 1.989 . S
N323 C322 1.342 . S
N323 N324 1.388 . S
N324 Co307 1.993 . S
N324 N323 1.388 . S
N324 C325 1.346 . S
C325 N324 1.346 . S
C325 C326 1.396 . S
C325 C335 1.510 . S
C326 C322 1.401 . S
C326 C325 1.396 . S
C327 C322 1.499 . S
C327 H328 0.959 . S
C327 H329 0.960 . S
C327 H330 0.961 . S
H328 C327 0.959 . S
H329 C327 0.960 . S
H330 C327 0.961 . S
O331 Co306 1.967 . S
O331 C339 1.258 . S
O332 Co307 1.941 . S
O332 C339 1.266 . S
H333 C335 0.959 . S
H334 C335 0.961 . S
C335 C325 1.510 . S
C335 H333 0.959 . S
C335 H334 0.961 . S
C335 H336 0.960 . S
H336 C335 0.960 . S
H337 N317 0.862 . S
O338 Co306 1.920 . S
O338 C311 1.289 . S
C339 O331 1.258 . S
C339 O332 1.266 . S
Co340 O343 1.970 . S
Co340 N357 1.989 . S
Co340 O365 1.967 . S
Co340 O372 1.920 . S
Co341 O344 1.966 . S
Co341 N350 2.022 . S
Co341 N358 1.993 . S
Co341 O366 1.941 . S
C342 O343 1.258 . S
C342 O344 1.263 . S
O343 Co340 1.970 . S
O343 C342 1.258 . S
O344 Co341 1.966 . S
O344 C342 1.263 . S
C345 O346 1.235 . S
C345 O372 1.289 . S
O346 C345 1.235 . S
C347 C349 1.400 . S
C347 N350 1.351 . S
C347 C352 1.501 . S
C348 C349 1.387 . S
C348 N351 1.341 . S
C349 C347 1.400 . S
C349 C348 1.387 . S
N350 Co341 2.022 . S
N350 C347 1.351 . S
N350 N351 1.365 . S
N351 C348 1.341 . S
N351 N350 1.365 . S
N351 H371 0.862 . S
C352 C347 1.501 . S
C352 H353 0.961 . S
C352 H354 0.961 . S
C352 H355 0.960 . S
H353 C352 0.961 . S
H354 C352 0.961 . S
H355 C352 0.960 . S
C356 N357 1.342 . S
C356 C360 1.401 . S
C356 C361 1.499 . S
N357 Co340 1.989 . S
N357 C356 1.342 . S
N357 N358 1.388 . S
N358 Co341 1.993 . S
N358 N357 1.388 . S
N358 C359 1.346 . S
C359 N358 1.346 . S
C359 C360 1.396 . S
C359 C369 1.510 . S
C360 C356 1.401 . S
C360 C359 1.396 . S
C361 C356 1.499 . S
C361 H362 0.959 . S
C361 H363 0.960 . S
C361 H364 0.961 . S
H362 C361 0.959 . S
H363 C361 0.960 . S
H364 C361 0.961 . S
O365 Co340 1.967 . S
O365 C373 1.258 . S
O366 Co341 1.941 . S
O366 C373 1.266 . S
H367 C369 0.959 . S
H368 C369 0.961 . S
C369 C359 1.510 . S
C369 H367 0.959 . S
C369 H368 0.961 . S
C369 H370 0.960 . S
H370 C369 0.960 . S
H371 N351 0.862 . S
O372 Co340 1.920 . S
O372 C345 1.289 . S
C373 O365 1.258 . S
C373 O366 1.266 . S
Co374 O377 1.970 . S
Co374 N391 1.989 . S
Co374 O399 1.967 . S
Co374 O406 1.920 . S
Co375 O378 1.966 . S
Co375 N384 2.022 . S
Co375 N392 1.993 . S
Co375 O400 1.941 . S
C376 O377 1.258 . S
C376 O378 1.263 . S
O377 Co374 1.970 . S
O377 C376 1.258 . S
O378 Co375 1.966 . S
O378 C376 1.263 . S
C379 O380 1.235 . S
C379 O406 1.289 . S
O380 C379 1.235 . S
C381 C383 1.400 . S
C381 N384 1.351 . S
C381 C386 1.501 . S
C382 C383 1.387 . S
C382 N385 1.341 . S
C383 C381 1.400 . S
C383 C382 1.387 . S
N384 Co375 2.022 . S
N384 C381 1.351 . S
N384 N385 1.365 . S
N385 C382 1.341 . S
N385 N384 1.365 . S
N385 H405 0.862 . S
C386 C381 1.501 . S
C386 H387 0.961 . S
C386 H388 0.961 . S
C386 H389 0.960 . S
H387 C386 0.961 . S
H388 C386 0.961 . S
H389 C386 0.960 . S
C390 N391 1.342 . S
C390 C394 1.401 . S
C390 C395 1.499 . S
N391 Co374 1.989 . S
N391 C390 1.342 . S
N391 N392 1.388 . S
N392 Co375 1.993 . S
N392 N391 1.388 . S
N392 C393 1.346 . S
C393 N392 1.346 . S
C393 C394 1.396 . S
C393 C403 1.510 . S
C394 C390 1.401 . S
C394 C393 1.396 . S
C395 C390 1.499 . S
C395 H396 0.959 . S
C395 H397 0.960 . S
C395 H398 0.961 . S
H396 C395 0.959 . S
H397 C395 0.960 . S
H398 C395 0.961 . S
O399 Co374 1.967 . S
O399 C407 1.258 . S
O400 Co375 1.941 . S
O400 C407 1.266 . S
H401 C403 0.959 . S
H402 C403 0.961 . S
C403 C393 1.510 . S
C403 H401 0.959 . S
C403 H402 0.961 . S
C403 H404 0.960 . S
H404 C403 0.960 . S
H405 N385 0.862 . S
O406 Co374 1.920 . S
O406 C379 1.289 . S
C407 O399 1.258 . S
C407 O400 1.266 . S
Co408 O411 1.970 . S
Co408 N425 1.989 . S
Co408 O433 1.967 . S
Co408 O440 1.920 . S
Co409 O412 1.966 . S
Co409 N418 2.022 . S
Co409 N426 1.993 . S
Co409 O434 1.941 . S
C410 O411 1.258 . S
C410 O412 1.263 . S
O411 Co408 1.970 . S
O411 C410 1.258 . S
O412 Co409 1.966 . S
O412 C410 1.263 . S
C413 O414 1.235 . S
C413 O440 1.289 . S
O414 C413 1.235 . S
C415 C417 1.400 . S
C415 N418 1.351 . S
C415 C420 1.501 . S
C416 C417 1.387 . S
C416 N419 1.341 . S
C417 C415 1.400 . S
C417 C416 1.387 . S
N418 Co409 2.022 . S
N418 C415 1.351 . S
N418 N419 1.365 . S
N419 C416 1.341 . S
N419 N418 1.365 . S
N419 H439 0.862 . S
C420 C415 1.501 . S
C420 H421 0.961 . S
C420 H422 0.961 . S
C420 H423 0.960 . S
H421 C420 0.961 . S
H422 C420 0.961 . S
H423 C420 0.960 . S
C424 N425 1.342 . S
C424 C428 1.401 . S
C424 C429 1.499 . S
N425 Co408 1.989 . S
N425 C424 1.342 . S
N425 N426 1.388 . S
N426 Co409 1.993 . S
N426 N425 1.388 . S
N426 C427 1.346 . S
C427 N426 1.346 . S
C427 C428 1.396 . S
C427 C437 1.510 . S
C428 C424 1.401 . S
C428 C427 1.396 . S
C429 C424 1.499 . S
C429 H430 0.959 . S
C429 H431 0.960 . S
C429 H432 0.961 . S
H430 C429 0.959 . S
H431 C429 0.960 . S
H432 C429 0.961 . S
O433 Co408 1.967 . S
O433 C441 1.258 . S
O434 Co409 1.941 . S
O434 C441 1.266 . S
H435 C437 0.959 . S
H436 C437 0.961 . S
C437 C427 1.510 . S
C437 H435 0.959 . S
C437 H436 0.961 . S
C437 H438 0.960 . S
H438 C437 0.960 . S
H439 N419 0.862 . S
O440 Co408 1.920 . S
O440 C413 1.289 . S
C441 O433 1.258 . S
C441 O434 1.266 . S
Co442 O445 1.970 . S
Co442 N459 1.989 . S
Co442 O467 1.967 . S
Co442 O474 1.920 . S
Co443 O446 1.966 . S
Co443 N452 2.022 . S
Co443 N460 1.993 . S
Co443 O468 1.941 . S
C444 O445 1.258 . S
C444 O446 1.263 . S
O445 Co442 1.970 . S
O445 C444 1.258 . S
O446 Co443 1.966 . S
O446 C444 1.263 . S
C447 O448 1.235 . S
C447 O474 1.289 . S
O448 C447 1.235 . S
C449 C451 1.400 . S
C449 N452 1.351 . S
C449 C454 1.501 . S
C450 C451 1.387 . S
C450 N453 1.341 . S
C451 C449 1.400 . S
C451 C450 1.387 . S
N452 Co443 2.022 . S
N452 C449 1.351 . S
N452 N453 1.365 . S
N453 C450 1.341 . S
N453 N452 1.365 . S
N453 H473 0.862 . S
C454 C449 1.501 . S
C454 H455 0.961 . S
C454 H456 0.961 . S
C454 H457 0.960 . S
H455 C454 0.961 . S
H456 C454 0.961 . S
H457 C454 0.960 . S
C458 N459 1.342 . S
C458 C462 1.401 . S
C458 C463 1.499 . S
N459 Co442 1.989 . S
N459 C458 1.342 . S
N459 N460 1.388 . S
N460 Co443 1.993 . S
N460 N459 1.388 . S
N460 C461 1.346 . S
C461 N460 1.346 . S
C461 C462 1.396 . S
C461 C471 1.510 . S
C462 C458 1.401 . S
C462 C461 1.396 . S
C463 C458 1.499 . S
C463 H464 0.959 . S
C463 H465 0.960 . S
C463 H466 0.961 . S
H464 C463 0.959 . S
H465 C463 0.960 . S
H466 C463 0.961 . S
O467 Co442 1.967 . S
O467 C475 1.258 . S
O468 Co443 1.941 . S
O468 C475 1.266 . S
H469 C471 0.959 . S
H470 C471 0.961 . S
C471 C461 1.510 . S
C471 H469 0.959 . S
C471 H470 0.961 . S
C471 H472 0.960 . S
H472 C471 0.960 . S
H473 N453 0.862 . S
O474 Co442 1.920 . S
O474 C447 1.289 . S
C475 O467 1.258 . S
C475 O468 1.266 . S
Co476 O479 1.970 . S
Co476 N493 1.989 . S
Co476 O501 1.967 . S
Co476 O508 1.920 . S
Co477 O480 1.966 . S
Co477 N486 2.022 . S
Co477 N494 1.993 . S
Co477 O502 1.941 . S
C478 O479 1.258 . S
C478 O480 1.263 . S
O479 Co476 1.970 . S
O479 C478 1.258 . S
O480 Co477 1.966 . S
O480 C478 1.263 . S
C481 O482 1.235 . S
C481 O508 1.289 . S
O482 C481 1.235 . S
C483 C485 1.400 . S
C483 N486 1.351 . S
C483 C488 1.501 . S
C484 C485 1.387 . S
C484 N487 1.341 . S
C485 C483 1.400 . S
C485 C484 1.387 . S
N486 Co477 2.022 . S
N486 C483 1.351 . S
N486 N487 1.365 . S
N487 C484 1.341 . S
N487 N486 1.365 . S
N487 H507 0.862 . S
C488 C483 1.501 . S
C488 H489 0.961 . S
C488 H490 0.961 . S
C488 H491 0.960 . S
H489 C488 0.961 . S
H490 C488 0.961 . S
H491 C488 0.960 . S
C492 N493 1.342 . S
C492 C496 1.401 . S
C492 C497 1.499 . S
N493 Co476 1.989 . S
N493 C492 1.342 . S
N493 N494 1.388 . S
N494 Co477 1.993 . S
N494 N493 1.388 . S
N494 C495 1.346 . S
C495 N494 1.346 . S
C495 C496 1.396 . S
C495 C505 1.510 . S
C496 C492 1.401 . S
C496 C495 1.396 . S
C497 C492 1.499 . S
C497 H498 0.959 . S
C497 H499 0.960 . S
C497 H500 0.961 . S
H498 C497 0.959 . S
H499 C497 0.960 . S
H500 C497 0.961 . S
O501 Co476 1.967 . S
O501 C509 1.258 . S
O502 Co477 1.941 . S
O502 C509 1.266 . S
H503 C505 0.959 . S
H504 C505 0.961 . S
C505 C495 1.510 . S
C505 H503 0.959 . S
C505 H504 0.961 . S
C505 H506 0.960 . S
H506 C505 0.960 . S
H507 N487 0.862 . S
O508 Co476 1.920 . S
O508 C481 1.289 . S
C509 O501 1.258 . S
C509 O502 1.266 . S
Co510 O513 1.970 . S
Co510 N527 1.989 . S
Co510 O535 1.967 . S
Co510 O542 1.920 . S
Co511 O514 1.966 . S
Co511 N520 2.022 . S
Co511 N528 1.993 . S
Co511 O536 1.941 . S
C512 O513 1.258 . S
C512 O514 1.263 . S
O513 Co510 1.970 . S
O513 C512 1.258 . S
O514 Co511 1.966 . S
O514 C512 1.263 . S
C515 O516 1.235 . S
C515 O542 1.289 . S
O516 C515 1.235 . S
C517 C519 1.400 . S
C517 N520 1.351 . S
C517 C522 1.501 . S
C518 C519 1.387 . S
C518 N521 1.341 . S
C519 C517 1.400 . S
C519 C518 1.387 . S
N520 Co511 2.022 . S
N520 C517 1.351 . S
N520 N521 1.365 . S
N521 C518 1.341 . S
N521 N520 1.365 . S
N521 H541 0.862 . S
C522 C517 1.501 . S
C522 H523 0.961 . S
C522 H524 0.961 . S
C522 H525 0.960 . S
H523 C522 0.961 . S
H524 C522 0.961 . S
H525 C522 0.960 . S
C526 N527 1.342 . S
C526 C530 1.401 . S
C526 C531 1.499 . S
N527 Co510 1.989 . S
N527 C526 1.342 . S
N527 N528 1.388 . S
N528 Co511 1.993 . S
N528 N527 1.388 . S
N528 C529 1.346 . S
C529 N528 1.346 . S
C529 C530 1.396 . S
C529 C539 1.510 . S
C530 C526 1.401 . S
C530 C529 1.396 . S
C531 C526 1.499 . S
C531 H532 0.959 . S
C531 H533 0.960 . S
C531 H534 0.961 . S
H532 C531 0.959 . S
H533 C531 0.960 . S
H534 C531 0.961 . S
O535 Co510 1.967 . S
O535 C543 1.258 . S
O536 Co511 1.941 . S
O536 C543 1.266 . S
H537 C539 0.959 . S
H538 C539 0.961 . S
C539 C529 1.510 . S
C539 H537 0.959 . S
C539 H538 0.961 . S
C539 H540 0.960 . S
H540 C539 0.960 . S
H541 N521 0.862 . S
O542 Co510 1.920 . S
O542 C515 1.289 . S
C543 O535 1.258 . S
C543 O536 1.266 . S
H544 C562 0.951 . S
H545 C564 0.951 . S
H546 C566 0.950 . S
H547 C567 0.950 . S
H548 C569 0.950 . S
H549 C572 0.950 . S
H550 C573 0.950 . S
H551 C575 0.950 . S
H552 C576 0.950 . S
H553 C577 0.951 . S
H554 C579 0.951 . S
H555 C581 0.950 . S
H556 C582 0.950 . S
H557 C584 0.950 . S
H558 C587 0.950 . S
H559 C588 0.950 . S
H560 C590 0.950 . S
H561 C591 0.950 1_655 S
C562 H544 0.951 . S
C562 C563 1.366 . S
C562 C564 1.388 . S
C563 C562 1.366 . S
C563 C567 1.385 . S
C564 H545 0.951 . S
C564 C562 1.388 . S
C564 C565 1.366 . S
C565 C564 1.366 . S
C565 C566 1.414 . S
C565 C568 1.499 . S
C566 H546 0.950 . S
C566 C565 1.414 . S
C566 C567 1.374 . S
C567 H547 0.950 . S
C567 C563 1.385 . S
C567 C566 1.374 . S
C568 C565 1.499 . S
C568 C569 1.373 . S
C568 C570 1.389 . S
C569 H548 0.950 . S
C569 C568 1.373 . S
C569 C585 1.377 1_655 S
C570 C568 1.389 . S
C570 C571 1.524 . S
C570 C584 1.377 1_655 S
C571 C570 1.524 . S
C571 C572 1.397 . S
C571 C576 1.363 . S
C572 H549 0.950 . S
C572 C571 1.397 . S
C572 C573 1.334 . S
C573 H550 0.950 . S
C573 C572 1.334 . S
C573 C574 1.287 . S
C574 C573 1.287 . S
C574 C575 1.524 . S
C574 H593 0.913 . S
C575 H551 0.950 . S
C575 C574 1.524 . S
C575 C576 1.415 . S
C576 H552 0.950 . S
C576 C571 1.363 . S
C576 C575 1.415 . S
C577 H553 0.951 . S
C577 C578 1.366 . S
C577 C579 1.388 . S
C578 C577 1.366 . S
C578 C582 1.385 . S
C579 H554 0.951 . S
C579 C577 1.388 . S
C579 C580 1.366 . S
C580 C579 1.366 . S
C580 C581 1.414 . S
C580 C583 1.499 . S
C581 H555 0.950 . S
C581 C580 1.414 . S
C581 C582 1.374 . S
C582 H556 0.950 . S
C582 C578 1.385 . S
C582 C581 1.374 . S
C583 C580 1.499 . S
C583 C584 1.373 . S
C583 C585 1.389 . S
C584 H557 0.950 . S
C584 C570 1.377 1_455 S
C584 C583 1.373 . S
C585 C569 1.377 1_455 S
C585 C583 1.389 . S
C585 C586 1.524 . S
C586 C585 1.524 . S
C586 C587 1.397 . S
C586 C591 1.363 . S
C587 H558 0.950 . S
C587 C586 1.397 . S
C587 C588 1.334 . S
C588 H559 0.950 . S
C588 C587 1.334 . S
C588 C589 1.287 . S
C589 C588 1.287 . S
C589 C590 1.524 . S
C589 H592 0.999 . S
C590 H560 0.950 . S
C590 C589 1.524 . S
C590 C591 1.415 . S
C591 H561 0.950 1_455 S
C591 C586 1.363 . S
C591 C590 1.415 . S
H592 C589 0.999 . S
H593 C574 0.913 . S
H594 C612 0.951 . S
H595 C614 0.951 . S
H596 C616 0.950 . S
H597 C617 0.950 . S
H598 C619 0.950 1_545 S
H599 C622 0.950 . S
H600 C623 0.950 . S
H601 C625 0.950 . S
H602 C626 0.950 1_565 S
H603 C627 0.951 . S
H604 C629 0.951 . S
H605 C631 0.950 . S
H606 C632 0.950 . S
H607 C634 0.950 . S
H608 C637 0.950 . S
H609 C638 0.950 . S
H610 C640 0.950 . S
H611 C641 0.950 . S
C612 H594 0.951 . S
C612 C613 1.366 . S
C612 C614 1.388 . S
C613 C612 1.366 . S
C613 C617 1.385 . S
C614 H595 0.951 . S
C614 C612 1.388 . S
C614 C615 1.366 . S
C615 C614 1.366 . S
C615 C616 1.414 . S
C615 C618 1.499 . S
C616 H596 0.950 . S
C616 C615 1.414 . S
C616 C617 1.374 . S
C617 H597 0.950 . S
C617 C613 1.385 . S
C617 C616 1.374 . S
C618 C615 1.499 . S
C618 C619 1.373 1_545 S
C618 C620 1.389 1_545 S
C619 H598 0.950 1_565 S
C619 C618 1.373 1_565 S
C619 C635 1.377 . S
C620 C618 1.389 1_565 S
C620 C621 1.524 1_565 S
C620 C634 1.377 . S
C621 C620 1.524 1_545 S
C621 C622 1.397 . S
C621 C626 1.363 . S
C622 H599 0.950 . S
C622 C621 1.397 . S
C622 C623 1.334 . S
C623 H600 0.950 . S
C623 C622 1.334 . S
C623 C624 1.287 . S
C624 C623 1.287 . S
C624 C625 1.524 . S
C624 H643 0.913 . S
C625 H601 0.950 . S
C625 C624 1.524 . S
C625 C626 1.415 . S
C626 H602 0.950 1_545 S
C626 C621 1.363 . S
C626 C625 1.415 . S
C627 H603 0.951 . S
C627 C628 1.366 . S
C627 C629 1.388 . S
C628 C627 1.366 . S
C628 C632 1.385 . S
C629 H604 0.951 . S
C629 C627 1.388 . S
C629 C630 1.366 . S
C630 C629 1.366 . S
C630 C631 1.414 . S
C630 C633 1.499 . S
C631 H605 0.950 . S
C631 C630 1.414 . S
C631 C632 1.374 . S
C632 H606 0.950 . S
C632 C628 1.385 . S
C632 C631 1.374 . S
C633 C630 1.499 . S
C633 C634 1.373 . S
C633 C635 1.389 . S
C634 H607 0.950 . S
C634 C620 1.377 . S
C634 C633 1.373 . S
C635 C619 1.377 . S
C635 C633 1.389 . S
C635 C636 1.524 . S
C636 C635 1.524 . S
C636 C637 1.397 . S
C636 C641 1.363 . S
C637 H608 0.950 . S
C637 C636 1.397 . S
C637 C638 1.334 . S
C638 H609 0.950 . S
C638 C637 1.334 . S
C638 C639 1.287 . S
C639 C638 1.287 . S
C639 C640 1.524 . S
C639 H642 0.999 . S
C640 H610 0.950 . S
C640 C639 1.524 . S
C640 C641 1.415 . S
C641 H611 0.950 . S
C641 C636 1.363 . S
C641 C640 1.415 . S
H642 C639 0.999 . S
H643 C624 0.913 . S
H644 C662 0.951 . S
H645 C664 0.951 . S
H646 C666 0.950 . S
H647 C667 0.950 . S
H648 C669 0.950 . S
H649 C672 0.950 . S
H650 C673 0.950 . S
H651 C675 0.950 . S
H652 C676 0.950 . S
H653 C677 0.951 . S
H654 C679 0.951 . S
H655 C681 0.950 . S
H656 C682 0.950 . S
H657 C684 0.950 . S
H658 C687 0.950 . S
H659 C688 0.950 . S
H660 C690 0.950 . S
H661 C691 0.950 . S
C662 H644 0.951 . S
C662 C663 1.366 . S
C662 C664 1.388 . S
C663 C662 1.366 . S
C663 C667 1.385 . S
C664 H645 0.951 . S
C664 C662 1.388 . S
C664 C665 1.366 . S
C665 C664 1.366 . S
C665 C666 1.414 . S
C665 C668 1.499 1_655 S
C666 H646 0.950 . S
C666 C665 1.414 . S
C666 C667 1.374 . S
C667 H647 0.950 . S
C667 C663 1.385 . S
C667 C666 1.374 . S
C668 C665 1.499 1_455 S
C668 C669 1.373 . S
C668 C670 1.389 . S
C669 H648 0.950 . S
C669 C668 1.373 . S
C669 C685 1.377 . S
C670 C668 1.389 . S
C670 C671 1.524 . S
C670 C684 1.377 . S
C671 C670 1.524 . S
C671 C672 1.397 1_455 S
C671 C676 1.363 . S
C672 H649 0.950 . S
C672 C671 1.397 1_655 S
C672 C673 1.334 . S
C673 H650 0.950 . S
C673 C672 1.334 . S
C673 C674 1.287 . S
C674 C673 1.287 . S
C674 C675 1.524 1_655 S
C674 H693 0.913 . S
C675 H651 0.950 . S
C675 C674 1.524 1_455 S
C675 C676 1.415 . S
C676 H652 0.950 . S
C676 C671 1.363 . S
C676 C675 1.415 . S
C677 H653 0.951 . S
C677 C678 1.366 . S
C677 C679 1.388 . S
C678 C677 1.366 . S
C678 C682 1.385 . S
C679 H654 0.951 . S
C679 C677 1.388 . S
C679 C680 1.366 . S
C680 C679 1.366 . S
C680 C681 1.414 . S
C680 C683 1.499 . S
C681 H655 0.950 . S
C681 C680 1.414 . S
C681 C682 1.374 . S
C682 H656 0.950 . S
C682 C678 1.385 . S
C682 C681 1.374 . S
C683 C680 1.499 . S
C683 C684 1.373 . S
C683 C685 1.389 . S
C684 H657 0.950 . S
C684 C670 1.377 . S
C684 C683 1.373 . S
C685 C669 1.377 . S
C685 C683 1.389 . S
C685 C686 1.524 . S
C686 C685 1.524 . S
C686 C687 1.397 . S
C686 C691 1.363 . S
C687 H658 0.950 . S
C687 C686 1.397 . S
C687 C688 1.334 . S
C688 H659 0.950 . S
C688 C687 1.334 . S
C688 C689 1.287 . S
C689 C688 1.287 . S
C689 C690 1.524 . S
C689 H692 0.999 . S
C690 H660 0.950 . S
C690 C689 1.524 . S
C690 C691 1.415 . S
C691 H661 0.950 . S
C691 C686 1.363 . S
C691 C690 1.415 . S
H692 C689 0.999 . S
H693 C674 0.913 . S
H694 C712 0.951 . S
H695 C714 0.951 . S
H696 C716 0.950 . S
H697 C717 0.950 . S
H698 C719 0.950 . S
H699 C722 0.950 . S
H700 C723 0.950 . S
H701 C725 0.950 . S
H702 C726 0.950 . S
H703 C727 0.951 . S
H704 C729 0.951 . S
H705 C731 0.950 . S
H706 C732 0.950 . S
H707 C734 0.950 . S
H708 C737 0.950 . S
H709 C738 0.950 . S
H710 C740 0.950 . S
H711 C741 0.950 . S
C712 H694 0.951 . S
C712 C713 1.366 . S
C712 C714 1.388 . S
C713 C712 1.366 . S
C713 C717 1.385 . S
C714 H695 0.951 . S
C714 C712 1.388 . S
C714 C715 1.366 . S
C715 C714 1.366 . S
C715 C716 1.414 . S
C715 C718 1.499 . S
C716 H696 0.950 . S
C716 C715 1.414 . S
C716 C717 1.374 . S
C717 H697 0.950 . S
C717 C713 1.385 . S
C717 C716 1.374 . S
C718 C715 1.499 . S
C718 C719 1.373 . S
C718 C720 1.389 . S
C719 H698 0.950 . S
C719 C718 1.373 . S
C719 C735 1.377 1_565 S
C720 C718 1.389 . S
C720 C721 1.524 . S
C720 C734 1.377 1_565 S
C721 C720 1.524 . S
C721 C722 1.397 . S
C721 C726 1.363 . S
C722 H699 0.950 . S
C722 C721 1.397 . S
C722 C723 1.334 . S
C723 H700 0.950 . S
C723 C722 1.334 . S
C723 C724 1.287 . S
C724 C723 1.287 . S
C724 C725 1.524 . S
C724 H743 0.913 . S
C725 H701 0.950 . S
C725 C724 1.524 . S
C725 C726 1.415 . S
C726 H702 0.950 . S
C726 C721 1.363 . S
C726 C725 1.415 . S
C727 H703 0.951 . S
C727 C728 1.366 . S
C727 C729 1.388 . S
C728 C727 1.366 . S
C728 C732 1.385 . S
C729 H704 0.951 . S
C729 C727 1.388 . S
C729 C730 1.366 . S
C730 C729 1.366 . S
C730 C731 1.414 . S
C730 C733 1.499 . S
C731 H705 0.950 . S
C731 C730 1.414 . S
C731 C732 1.374 . S
C732 H706 0.950 . S
C732 C728 1.385 . S
C732 C731 1.374 . S
C733 C730 1.499 . S
C733 C734 1.373 . S
C733 C735 1.389 . S
C734 H707 0.950 . S
C734 C720 1.377 1_545 S
C734 C733 1.373 . S
C735 C719 1.377 1_545 S
C735 C733 1.389 . S
C735 C736 1.524 . S
C736 C735 1.524 . S
C736 C737 1.397 . S
C736 C741 1.363 . S
C737 H708 0.950 . S
C737 C736 1.397 . S
C737 C738 1.334 . S
C738 H709 0.950 . S
C738 C737 1.334 . S
C738 C739 1.287 . S
C739 C738 1.287 . S
C739 C740 1.524 . S
C739 H742 0.999 . S
C740 H710 0.950 . S
C740 C739 1.524 . S
C740 C741 1.415 . S
C741 H711 0.950 . S
C741 C736 1.363 . S
C741 C740 1.415 . S
H742 C739 0.999 . S
H743 C724 0.913 . S
H744 C762 0.951 . S
H745 C764 0.951 . S
H746 C766 0.950 . S
H747 C767 0.950 . S
H748 C769 0.950 . S
H749 C772 0.950 . S
H750 C773 0.950 . S
H751 C775 0.950 . S
H752 C776 0.953 1_455 S
H753 C777 0.951 . S
H754 C779 0.951 . S
H755 C781 0.950 . S
H756 C782 0.950 . S
H757 C784 0.950 . S
H758 C787 0.950 . S
H759 C788 0.950 . S
H760 C790 0.950 . S
H761 C791 0.950 . S
C762 H744 0.951 . S
C762 C763 1.366 . S
C762 C764 1.388 . S
C763 C762 1.366 . S
C763 C767 1.385 . S
C764 H745 0.951 . S
C764 C762 1.388 . S
C764 C765 1.366 . S
C765 C764 1.366 . S
C765 C766 1.414 . S
C765 C768 1.499 . S
C766 H746 0.950 . S
C766 C765 1.414 . S
C766 C767 1.374 . S
C767 H747 0.950 . S
C767 C763 1.385 . S
C767 C766 1.374 . S
C768 C765 1.499 . S
C768 C769 1.373 . S
C768 C770 1.389 . S
C769 H748 0.950 . S
C769 C768 1.373 . S
C769 C785 1.377 1_655 S
C770 C768 1.389 . S
C770 C771 1.524 . S
C770 C784 1.377 1_655 S
C771 C770 1.524 . S
C771 C772 1.397 . S
C771 C776 1.363 . S
C772 H749 0.950 . S
C772 C771 1.397 . S
C772 C773 1.334 . S
C773 H750 0.950 . S
C773 C772 1.334 . S
C773 C774 1.287 . S
C774 C773 1.287 . S
C774 C775 1.524 . S
C774 H793 0.913 . S
C775 H751 0.950 . S
C775 C774 1.524 . S
C775 C776 1.415 . S
C776 H752 0.953 1_655 S
C776 C771 1.363 . S
C776 C775 1.415 . S
C777 H753 0.951 . S
C777 C778 1.366 . S
C777 C779 1.388 . S
C778 C777 1.366 . S
C778 C782 1.385 . S
C779 H754 0.951 . S
C779 C777 1.388 . S
C779 C780 1.366 . S
C780 C779 1.366 . S
C780 C781 1.414 . S
C780 C783 1.499 . S
C781 H755 0.950 . S
C781 C780 1.414 . S
C781 C782 1.374 . S
C782 H756 0.950 . S
C782 C778 1.385 . S
C782 C781 1.374 . S
C783 C780 1.499 . S
C783 C784 1.373 . S
C783 C785 1.389 . S
C784 H757 0.950 . S
C784 C770 1.377 1_455 S
C784 C783 1.373 . S
C785 C769 1.377 1_455 S
C785 C783 1.389 . S
C785 C786 1.524 . S
C786 C785 1.524 . S
C786 C787 1.397 . S
C786 C791 1.363 . S
C787 H758 0.950 . S
C787 C786 1.397 . S
C787 C788 1.334 . S
C788 H759 0.950 . S
C788 C787 1.334 . S
C788 C789 1.287 . S
C789 C788 1.287 . S
C789 C790 1.524 . S
C789 H792 0.999 . S
C790 H760 0.950 . S
C790 C789 1.524 . S
C790 C791 1.415 . S
C791 H761 0.950 . S
C791 C786 1.363 . S
C791 C790 1.415 . S
H792 C789 0.999 . S
H793 C774 0.913 . S
H794 C812 0.951 . S
H795 C814 0.951 . S
H796 C816 0.950 . S
H797 C817 0.950 . S
H798 C819 0.950 . S
H799 C822 0.950 . S
H800 C823 0.950 . S
H801 C825 0.950 . S
H802 C826 0.950 . S
H803 C827 0.951 . S
H804 C829 0.951 . S
H805 C831 0.950 . S
H806 C832 0.950 . S
H807 C834 0.950 . S
H808 C837 0.950 . S
H809 C838 0.950 . S
H810 C840 0.950 . S
H811 C841 0.950 . S
C812 H794 0.951 . S
C812 C813 1.366 . S
C812 C814 1.388 . S
C813 C812 1.366 . S
C813 C817 1.385 . S
C814 H795 0.951 . S
C814 C812 1.388 . S
C814 C815 1.366 . S
C815 C814 1.366 . S
C815 C816 1.414 . S
C815 C818 1.499 . S
C816 H796 0.950 . S
C816 C815 1.414 . S
C816 C817 1.374 . S
C817 H797 0.950 . S
C817 C813 1.385 . S
C817 C816 1.374 . S
C818 C815 1.499 . S
C818 C819 1.373 . S
C818 C820 1.389 . S
C819 H798 0.950 . S
C819 C818 1.373 . S
C819 C835 1.377 1_565 S
C820 C818 1.389 . S
C820 C821 1.524 . S
C820 C834 1.377 1_565 S
C821 C820 1.524 . S
C821 C822 1.397 . S
C821 C826 1.363 . S
C822 H799 0.950 . S
C822 C821 1.397 . S
C822 C823 1.334 . S
C823 H800 0.950 . S
C823 C822 1.334 . S
C823 C824 1.287 . S
C824 C823 1.287 . S
C824 C825 1.524 . S
C824 H843 0.913 . S
C825 H801 0.950 . S
C825 C824 1.524 . S
C825 C826 1.415 . S
C826 H802 0.950 . S
C826 C821 1.363 . S
C826 C825 1.415 . S
C827 H803 0.951 . S
C827 C828 1.366 . S
C827 C829 1.388 . S
C828 C827 1.366 . S
C828 C832 1.385 . S
C829 H804 0.951 . S
C829 C827 1.388 . S
C829 C830 1.366 . S
C830 C829 1.366 . S
C830 C831 1.414 . S
C830 C833 1.499 . S
C831 H805 0.950 . S
C831 C830 1.414 . S
C831 C832 1.374 . S
C832 H806 0.950 . S
C832 C828 1.385 . S
C832 C831 1.374 . S
C833 C830 1.499 . S
C833 C834 1.373 . S
C833 C835 1.389 . S
C834 H807 0.950 . S
C834 C820 1.377 1_545 S
C834 C833 1.373 . S
C835 C819 1.377 1_545 S
C835 C833 1.389 . S
C835 C836 1.524 . S
C836 C835 1.524 . S
C836 C837 1.397 . S
C836 C841 1.363 . S
C837 H808 0.950 . S
C837 C836 1.397 . S
C837 C838 1.334 . S
C838 H809 0.950 . S
C838 C837 1.334 . S
C838 C839 1.287 . S
C839 C838 1.287 . S
C839 C840 1.524 . S
C839 H842 0.999 . S
C840 H810 0.950 . S
C840 C839 1.524 . S
C840 C841 1.415 . S
C841 H811 0.950 . S
C841 C836 1.363 . S
C841 C840 1.415 . S
H842 C839 0.999 . S
H843 C824 0.913 . S
H844 C862 0.951 . S
H845 C864 0.951 . S
H846 C866 0.950 . S
H847 C867 0.950 . S
H848 C869 0.950 . S
H849 C872 0.950 . S
H850 C873 0.950 . S
H851 C875 0.950 . S
H852 C876 0.950 . S
H853 C877 0.951 . S
H854 C879 0.951 . S
H855 C881 0.950 . S
H856 C882 0.950 . S
H857 C884 0.950 . S
H858 C887 0.952 . S
H859 C888 0.950 . S
H860 C890 0.950 . S
H861 C891 0.950 . S
C862 H844 0.951 . S
C862 C863 1.366 . S
C862 C864 1.388 . S
C863 C862 1.366 . S
C863 C867 1.385 . S
C864 H845 0.951 . S
C864 C862 1.388 . S
C864 C865 1.366 . S
C865 C864 1.366 . S
C865 C866 1.414 . S
C865 C868 1.499 . S
C866 H846 0.950 . S
C866 C865 1.414 . S
C866 C867 1.374 . S
C867 H847 0.950 . S
C867 C863 1.385 . S
C867 C866 1.374 . S
C868 C865 1.499 . S
C868 C869 1.373 . S
C868 C870 1.389 . S
C869 H848 0.950 . S
C869 C868 1.373 . S
C869 C885 1.377 . S
C870 C868 1.389 . S
C870 C871 1.524 . S
C870 C884 1.377 . S
C871 C870 1.524 . S
C871 C872 1.397 . S
C871 C876 1.363 . S
C872 H849 0.950 . S
C872 C871 1.397 . S
C872 C873 1.334 . S
C873 H850 0.950 . S
C873 C872 1.334 . S
C873 C874 1.287 . S
C874 C873 1.287 . S
C874 C875 1.524 . S
C874 H893 0.913 . S
C875 H851 0.950 . S
C875 C874 1.524 . S
C875 C876 1.415 . S
C876 H852 0.950 . S
C876 C871 1.363 . S
C876 C875 1.415 . S
C877 H853 0.951 . S
C877 C878 1.366 . S
C877 C879 1.388 . S
C878 C877 1.366 . S
C878 C882 1.385 . S
C879 H854 0.951 . S
C879 C877 1.388 . S
C879 C880 1.366 . S
C880 C879 1.366 . S
C880 C881 1.414 . S
C880 C883 1.499 1_455 S
C881 H855 0.950 . S
C881 C880 1.414 . S
C881 C882 1.374 . S
C882 H856 0.950 . S
C882 C878 1.385 . S
C882 C881 1.374 . S
C883 C880 1.499 1_655 S
C883 C884 1.373 . S
C883 C885 1.389 . S
C884 H857 0.950 . S
C884 C870 1.377 . S
C884 C883 1.373 . S
C885 C869 1.377 . S
C885 C883 1.389 . S
C885 C886 1.524 . S
C886 C885 1.524 . S
C886 C887 1.388 1_655 S
C886 C891 1.363 . S
C887 H858 0.952 . S
C887 C886 1.388 1_455 S
C887 C888 1.340 . S
C888 H859 0.950 . S
C888 C887 1.340 . S
C888 C889 1.287 . S
C889 C888 1.287 . S
C889 C890 1.524 1_455 S
C889 H892 0.999 . S
C890 H860 0.950 . S
C890 C889 1.524 1_655 S
C890 C891 1.415 . S
C891 H861 0.950 . S
C891 C886 1.363 . S
C891 C890 1.415 . S
H892 C889 0.999 . S
H893 C874 0.913 . S
H894 C912 0.951 . S
H895 C914 0.951 . S
H896 C916 0.950 . S
H897 C917 0.950 . S
H898 C919 0.952 1_545 S
H899 C922 0.950 . S
H900 C923 0.950 . S
H901 C925 0.950 . S
H902 C926 0.950 1_565 S
H903 C927 0.951 . S
H904 C929 0.951 . S
H905 C931 0.950 . S
H906 C932 0.950 . S
H907 C934 0.950 . S
H908 C937 0.950 . S
H909 C938 0.950 . S
H910 C940 0.950 . S
H911 C941 0.950 . S
C912 H894 0.951 . S
C912 C913 1.366 . S
C912 C914 1.388 . S
C913 C912 1.366 . S
C913 C917 1.385 . S
C914 H895 0.951 . S
C914 C912 1.388 . S
C914 C915 1.366 . S
C915 C914 1.366 . S
C915 C916 1.414 . S
C915 C918 1.499 . S
C916 H896 0.950 . S
C916 C915 1.414 . S
C916 C917 1.374 . S
C917 H897 0.950 . S
C917 C913 1.385 . S
C917 C916 1.374 . S
C918 C915 1.499 . S
C918 C919 1.373 1_545 S
C918 C920 1.389 1_545 S
C919 H898 0.952 1_565 S
C919 C918 1.373 1_565 S
C919 C935 1.377 . S
C920 C918 1.389 1_565 S
C920 C921 1.524 1_565 S
C920 C934 1.377 . S
C921 C920 1.524 1_545 S
C921 C922 1.397 . S
C921 C926 1.363 . S
C922 H899 0.950 . S
C922 C921 1.397 . S
C922 C923 1.334 . S
C923 H900 0.950 . S
C923 C922 1.334 . S
C923 C924 1.287 . S
C924 C923 1.287 . S
C924 C925 1.524 . S
C924 H943 0.913 . S
C925 H901 0.950 . S
C925 C924 1.524 . S
C925 C926 1.415 . S
C926 H902 0.950 1_545 S
C926 C921 1.363 . S
C926 C925 1.415 . S
C927 H903 0.951 . S
C927 C928 1.366 . S
C927 C929 1.388 . S
C928 C927 1.366 . S
C928 C932 1.385 . S
C929 H904 0.951 . S
C929 C927 1.388 . S
C929 C930 1.366 . S
C930 C929 1.366 . S
C930 C931 1.414 . S
C930 C933 1.499 . S
C931 H905 0.950 . S
C931 C930 1.414 . S
C931 C932 1.374 . S
C932 H906 0.950 . S
C932 C928 1.385 . S
C932 C931 1.374 . S
C933 C930 1.499 . S
C933 C934 1.373 . S
C933 C935 1.389 . S
C934 H907 0.950 . S
C934 C920 1.377 . S
C934 C933 1.373 . S
C935 C919 1.377 . S
C935 C933 1.389 . S
C935 C936 1.524 . S
C936 C935 1.524 . S
C936 C937 1.397 . S
C936 C941 1.363 . S
C937 H908 0.950 . S
C937 C936 1.397 . S
C937 C938 1.334 . S
C938 H909 0.950 . S
C938 C937 1.334 . S
C938 C939 1.287 . S
C939 C938 1.287 . S
C939 C940 1.524 . S
C939 H942 0.999 . S
C940 H910 0.950 . S
C940 C939 1.524 . S
C940 C941 1.415 . S
C941 H911 0.950 . S
C941 C936 1.363 . S
C941 C940 1.415 . S
H942 C939 0.999 . S
H943 C924 0.913 . S
H944 C962 0.951 . S
H945 C964 0.951 . S
H946 C966 0.950 . S
H947 C967 0.950 . S
H948 C969 0.950 . S
H949 C972 0.950 . S
H950 C973 0.950 . S
H951 C975 0.950 . S
H952 C976 0.950 . S
H953 C977 0.951 . S
H954 C979 0.951 . S
H955 C981 0.950 . S
H956 C982 0.950 . S
H957 C984 0.950 . S
H958 C987 0.950 . S
H959 C988 0.950 . S
H960 C990 0.950 . S
H961 C991 0.950 . S
C962 H944 0.951 . S
C962 C963 1.366 . S
C962 C964 1.388 . S
C963 C962 1.366 . S
C963 C967 1.385 . S
C964 H945 0.951 . S
C964 C962 1.388 . S
C964 C965 1.366 . S
C965 C964 1.366 . S
C965 C966 1.414 . S
C965 C968 1.499 . S
C966 H946 0.950 . S
C966 C965 1.414 . S
C966 C967 1.374 . S
C967 H947 0.950 . S
C967 C963 1.385 . S
C967 C966 1.374 . S
C968 C965 1.499 . S
C968 C969 1.373 . S
C968 C970 1.389 . S
C969 H948 0.950 . S
C969 C968 1.373 . S
C969 C985 1.377 . S
C970 C968 1.389 . S
C970 C971 1.524 . S
C970 C984 1.377 . S
C971 C970 1.524 . S
C971 C972 1.397 . S
C971 C976 1.363 . S
C972 H949 0.950 . S
C972 C971 1.397 . S
C972 C973 1.334 . S
C973 H950 0.950 . S
C973 C972 1.334 . S
C973 C974 1.287 . S
C974 C973 1.287 . S
C974 C975 1.524 . S
C974 H993 0.913 . S
C975 H951 0.950 . S
C975 C974 1.524 . S
C975 C976 1.415 . S
C976 H952 0.950 . S
C976 C971 1.363 . S
C976 C975 1.415 . S
C977 H953 0.951 . S
C977 C978 1.366 . S
C977 C979 1.388 . S
C978 C977 1.366 . S
C978 C982 1.385 . S
C979 H954 0.951 . S
C979 C977 1.388 . S
C979 C980 1.366 . S
C980 C979 1.366 . S
C980 C981 1.414 . S
C980 C983 1.499 . S
C981 H955 0.950 . S
C981 C980 1.414 . S
C981 C982 1.374 . S
C982 H956 0.950 . S
C982 C978 1.385 . S
C982 C981 1.374 . S
C983 C980 1.499 . S
C983 C984 1.373 . S
C983 C985 1.389 . S
C984 H957 0.950 . S
C984 C970 1.377 . S
C984 C983 1.373 . S
C985 C969 1.377 . S
C985 C983 1.389 . S
C985 C986 1.524 . S
C986 C985 1.524 . S
C986 C987 1.397 . S
C986 C991 1.363 . S
C987 H958 0.950 . S
C987 C986 1.397 . S
C987 C988 1.334 . S
C988 H959 0.950 . S
C988 C987 1.334 . S
C988 C989 1.287 . S
C989 C988 1.287 . S
C989 C990 1.524 . S
C989 H992 0.999 . S
C990 H960 0.950 . S
C990 C989 1.524 . S
C990 C991 1.415 . S
C991 H961 0.950 . S
C991 C986 1.363 . S
C991 C990 1.415 . S
H992 C989 0.999 . S
H993 C974 0.913 . S
H994 C1012 0.951 . S
H995 C1014 0.951 . S
H996 C1016 0.950 . S
H997 C1017 0.950 . S
H998 C1019 0.950 . S
H999 C1022 0.950 . S
H1000 C1023 0.950 . S
H1001 C1025 0.950 . S
H1002 C1026 0.950 . S
H1003 C1027 0.951 . S
H1004 C1029 0.951 . S
H1005 C1031 0.950 . S
H1006 C1032 0.950 . S
H1007 C1034 0.950 . S
H1008 C1037 0.950 . S
H1009 C1038 0.950 . S
H1010 C1040 0.950 . S
H1011 C1041 0.950 . S
C1012 H994 0.951 . S
C1012 C1013 1.366 . S
C1012 C1014 1.388 . S
C1013 C1012 1.366 . S
C1013 C1017 1.385 . S
C1014 H995 0.951 . S
C1014 C1012 1.388 . S
C1014 C1015 1.366 . S
C1015 C1014 1.366 . S
C1015 C1016 1.414 . S
C1015 C1018 1.499 . S
C1016 H996 0.950 . S
C1016 C1015 1.414 . S
C1016 C1017 1.374 . S
C1017 H997 0.950 . S
C1017 C1013 1.385 . S
C1017 C1016 1.374 . S
C1018 C1015 1.499 . S
C1018 C1019 1.373 . S
C1018 C1020 1.389 . S
C1019 H998 0.950 . S
C1019 C1018 1.373 . S
C1019 C1035 1.377 . S
C1020 C1018 1.389 . S
C1020 C1021 1.524 . S
C1020 C1034 1.377 . S
C1021 C1020 1.524 . S
C1021 C1022 1.397 . S
C1021 C1026 1.363 . S
C1022 H999 0.950 . S
C1022 C1021 1.397 . S
C1022 C1023 1.334 . S
C1023 H1000 0.950 . S
C1023 C1022 1.334 . S
C1023 C1024 1.287 . S
C1024 C1023 1.287 . S
C1024 C1025 1.524 . S
C1024 H1043 0.913 . S
C1025 H1001 0.950 . S
C1025 C1024 1.524 . S
C1025 C1026 1.415 . S
C1026 H1002 0.950 . S
C1026 C1021 1.363 . S
C1026 C1025 1.415 . S
C1027 H1003 0.951 . S
C1027 C1028 1.366 . S
C1027 C1029 1.388 . S
C1028 C1027 1.366 . S
C1028 C1032 1.385 . S
C1029 H1004 0.951 . S
C1029 C1027 1.388 . S
C1029 C1030 1.366 . S
C1030 C1029 1.366 . S
C1030 C1031 1.414 . S
C1030 C1033 1.499 . S
C1031 H1005 0.950 . S
C1031 C1030 1.414 . S
C1031 C1032 1.374 . S
C1032 H1006 0.950 . S
C1032 C1028 1.385 . S
C1032 C1031 1.374 . S
C1033 C1030 1.499 . S
C1033 C1034 1.373 . S
C1033 C1035 1.389 . S
C1034 H1007 0.950 . S
C1034 C1020 1.377 . S
C1034 C1033 1.373 . S
C1035 C1019 1.377 . S
C1035 C1033 1.389 . S
C1035 C1036 1.524 . S
C1036 C1035 1.524 . S
C1036 C1037 1.397 . S
C1036 C1041 1.363 . S
C1037 H1008 0.950 . S
C1037 C1036 1.397 . S
C1037 C1038 1.334 . S
C1038 H1009 0.950 . S
C1038 C1037 1.334 . S
C1038 C1039 1.287 . S
C1039 C1038 1.287 . S
C1039 C1040 1.524 . S
C1039 H1042 0.999 . S
C1040 H1010 0.950 . S
C1040 C1039 1.524 . S
C1040 C1041 1.415 . S
C1041 H1011 0.950 . S
C1041 C1036 1.363 . S
C1041 C1040 1.415 . S
H1042 C1039 0.999 . S
H1043 C1024 0.913 . S
H1044 C1062 0.951 . S
H1045 C1064 0.951 . S
H1046 C1066 0.950 . S
H1047 C1067 0.950 . S
H1048 C1069 0.950 . S
H1049 C1072 0.950 . S
H1050 C1073 0.950 . S
H1051 C1075 0.950 . S
H1052 C1076 0.950 . S
H1053 C1077 0.951 . S
H1054 C1079 0.951 . S
H1055 C1081 0.950 . S
H1056 C1082 0.950 . S
H1057 C1084 0.950 . S
H1058 C1087 0.950 . S
H1059 C1088 0.950 . S
H1060 C1090 0.950 . S
H1061 C1091 0.950 . S
C1062 H1044 0.951 . S
C1062 C1063 1.366 . S
C1062 C1064 1.388 . S
C1063 C1062 1.366 . S
C1063 C1067 1.385 . S
C1064 H1045 0.951 . S
C1064 C1062 1.388 . S
C1064 C1065 1.366 . S
C1065 C1064 1.366 . S
C1065 C1066 1.414 . S
C1065 C1068 1.499 . S
C1066 H1046 0.950 . S
C1066 C1065 1.414 . S
C1066 C1067 1.374 . S
C1067 H1047 0.950 . S
C1067 C1063 1.385 . S
C1067 C1066 1.374 . S
C1068 C1065 1.499 . S
C1068 C1069 1.373 . S
C1068 C1070 1.389 . S
C1069 H1048 0.950 . S
C1069 C1068 1.373 . S
C1069 C1085 1.377 . S
C1070 C1068 1.389 . S
C1070 C1071 1.524 . S
C1070 C1084 1.377 . S
C1071 C1070 1.524 . S
C1071 C1072 1.397 . S
C1071 C1076 1.363 . S
C1072 H1049 0.950 . S
C1072 C1071 1.397 . S
C1072 C1073 1.334 . S
C1073 H1050 0.950 . S
C1073 C1072 1.334 . S
C1073 C1074 1.287 . S
C1074 C1073 1.287 . S
C1074 C1075 1.524 . S
C1074 H1093 0.913 . S
C1075 H1051 0.950 . S
C1075 C1074 1.524 . S
C1075 C1076 1.415 . S
C1076 H1052 0.950 . S
C1076 C1071 1.363 . S
C1076 C1075 1.415 . S
C1077 H1053 0.951 . S
C1077 C1078 1.366 . S
C1077 C1079 1.388 . S
C1078 C1077 1.366 . S
C1078 C1082 1.385 . S
C1079 H1054 0.951 . S
C1079 C1077 1.388 . S
C1079 C1080 1.366 . S
C1080 C1079 1.366 . S
C1080 C1081 1.414 . S
C1080 C1083 1.499 . S
C1081 H1055 0.950 . S
C1081 C1080 1.414 . S
C1081 C1082 1.374 . S
C1082 H1056 0.950 . S
C1082 C1078 1.385 . S
C1082 C1081 1.374 . S
C1083 C1080 1.499 . S
C1083 C1084 1.373 . S
C1083 C1085 1.389 . S
C1084 H1057 0.950 . S
C1084 C1070 1.377 . S
C1084 C1083 1.373 . S
C1085 C1069 1.377 . S
C1085 C1083 1.389 . S
C1085 C1086 1.524 . S
C1086 C1085 1.524 . S
C1086 C1087 1.397 . S
C1086 C1091 1.363 . S
C1087 H1058 0.950 . S
C1087 C1086 1.397 . S
C1087 C1088 1.334 . S
C1088 H1059 0.950 . S
C1088 C1087 1.334 . S
C1088 C1089 1.287 . S
C1089 C1088 1.287 . S
C1089 C1090 1.524 . S
C1089 H1092 0.999 . S
C1090 H1060 0.950 . S
C1090 C1089 1.524 . S
C1090 C1091 1.415 . S
C1091 H1061 0.950 . S
C1091 C1086 1.363 . S
C1091 C1090 1.415 . S
H1092 C1089 0.999 . S
H1093 C1074 0.913 . S
H1094 C1112 0.951 . S
H1095 C1114 0.951 . S
H1096 C1116 0.950 . S
H1097 C1117 0.950 . S
H1098 C1119 0.950 . S
H1099 C1122 0.950 . S
H1100 C1123 0.950 . S
H1101 C1125 0.950 . S
H1102 C1126 0.950 . S
H1103 C1127 0.951 . S
H1104 C1129 0.951 . S
H1105 C1131 0.950 . S
H1106 C1132 0.950 . S
H1107 C1134 0.950 . S
H1108 C1137 0.950 . S
H1109 C1138 0.950 . S
H1110 C1140 0.950 . S
H1111 C1141 0.950 . S
C1112 H1094 0.951 . S
C1112 C1113 1.366 . S
C1112 C1114 1.388 . S
C1113 C1112 1.366 . S
C1113 C1117 1.385 . S
C1114 H1095 0.951 . S
C1114 C1112 1.388 . S
C1114 C1115 1.366 . S
C1115 C1114 1.366 . S
C1115 C1116 1.414 . S
C1115 C1118 1.499 . S
C1116 H1096 0.950 . S
C1116 C1115 1.414 . S
C1116 C1117 1.374 . S
C1117 H1097 0.950 . S
C1117 C1113 1.385 . S
C1117 C1116 1.374 . S
C1118 C1115 1.499 . S
C1118 C1119 1.373 . S
C1118 C1120 1.389 . S
C1119 H1098 0.950 . S
C1119 C1118 1.373 . S
C1119 C1135 1.377 . S
C1120 C1118 1.389 . S
C1120 C1121 1.524 . S
C1120 C1134 1.377 . S
C1121 C1120 1.524 . S
C1121 C1122 1.397 . S
C1121 C1126 1.363 . S
C1122 H1099 0.950 . S
C1122 C1121 1.397 . S
C1122 C1123 1.334 . S
C1123 H1100 0.950 . S
C1123 C1122 1.334 . S
C1123 C1124 1.287 . S
C1124 C1123 1.287 . S
C1124 C1125 1.524 . S
C1124 H1143 0.913 . S
C1125 H1101 0.950 . S
C1125 C1124 1.524 . S
C1125 C1126 1.415 . S
C1126 H1102 0.950 . S
C1126 C1121 1.363 . S
C1126 C1125 1.415 . S
C1127 H1103 0.951 . S
C1127 C1128 1.366 . S
C1127 C1129 1.388 . S
C1128 C1127 1.366 . S
C1128 C1132 1.385 . S
C1129 H1104 0.951 . S
C1129 C1127 1.388 . S
C1129 C1130 1.366 . S
C1130 C1129 1.366 . S
C1130 C1131 1.414 . S
C1130 C1133 1.499 . S
C1131 H1105 0.950 . S
C1131 C1130 1.414 . S
C1131 C1132 1.374 . S
C1132 H1106 0.950 . S
C1132 C1128 1.385 . S
C1132 C1131 1.374 . S
C1133 C1130 1.499 . S
C1133 C1134 1.373 . S
C1133 C1135 1.389 . S
C1134 H1107 0.950 . S
C1134 C1120 1.377 . S
C1134 C1133 1.373 . S
C1135 C1119 1.377 . S
C1135 C1133 1.389 . S
C1135 C1136 1.524 . S
C1136 C1135 1.524 . S
C1136 C1137 1.397 . S
C1136 C1141 1.363 . S
C1137 H1108 0.950 . S
C1137 C1136 1.397 . S
C1137 C1138 1.334 . S
C1138 H1109 0.950 . S
C1138 C1137 1.334 . S
C1138 C1139 1.287 . S
C1139 C1138 1.287 . S
C1139 C1140 1.524 . S
C1139 H1142 0.999 . S
C1140 H1110 0.950 . S
C1140 C1139 1.524 . S
C1140 C1141 1.415 . S
C1141 H1111 0.950 . S
C1141 C1136 1.363 . S
C1141 C1140 1.415 . S
H1142 C1139 0.999 . S
H1143 C1124 0.913 . S
H1144 C1162 0.951 . S
H1145 C1164 0.951 . S
H1146 C1166 0.950 . S
H1147 C1167 0.950 . S
H1148 C1169 0.950 . S
H1149 C1172 0.950 . S
H1150 C1173 0.950 . S
H1151 C1175 0.950 . S
H1152 C1176 0.950 . S
H1153 C1177 0.951 . S
H1154 C1179 0.951 . S
H1155 C1181 0.950 . S
H1156 C1182 0.950 . S
H1157 C1184 0.950 . S
H1158 C1187 0.950 . S
H1159 C1188 0.950 . S
H1160 C1190 0.950 . S
H1161 C1191 0.950 . S
C1162 H1144 0.951 . S
C1162 C1163 1.366 . S
C1162 C1164 1.388 . S
C1163 C1162 1.366 . S
C1163 C1167 1.385 . S
C1164 H1145 0.951 . S
C1164 C1162 1.388 . S
C1164 C1165 1.366 . S
C1165 C1164 1.366 . S
C1165 C1166 1.414 . S
C1165 C1168 1.499 . S
C1166 H1146 0.950 . S
C1166 C1165 1.414 . S
C1166 C1167 1.374 . S
C1167 H1147 0.950 . S
C1167 C1163 1.385 . S
C1167 C1166 1.374 . S
C1168 C1165 1.499 . S
C1168 C1169 1.373 . S
C1168 C1170 1.389 . S
C1169 H1148 0.950 . S
C1169 C1168 1.373 . S
C1169 C1185 1.377 . S
C1170 C1168 1.389 . S
C1170 C1171 1.524 . S
C1170 C1184 1.377 . S
C1171 C1170 1.524 . S
C1171 C1172 1.397 . S
C1171 C1176 1.363 . S
C1172 H1149 0.950 . S
C1172 C1171 1.397 . S
C1172 C1173 1.334 . S
C1173 H1150 0.950 . S
C1173 C1172 1.334 . S
C1173 C1174 1.287 . S
C1174 C1173 1.287 . S
C1174 C1175 1.524 . S
C1174 H1193 0.913 . S
C1175 H1151 0.950 . S
C1175 C1174 1.524 . S
C1175 C1176 1.415 . S
C1176 H1152 0.950 . S
C1176 C1171 1.363 . S
C1176 C1175 1.415 . S
C1177 H1153 0.951 . S
C1177 C1178 1.366 . S
C1177 C1179 1.388 . S
C1178 C1177 1.366 . S
C1178 C1182 1.385 . S
C1179 H1154 0.951 . S
C1179 C1177 1.388 . S
C1179 C1180 1.366 . S
C1180 C1179 1.366 . S
C1180 C1181 1.414 . S
C1180 C1183 1.499 . S
C1181 H1155 0.950 . S
C1181 C1180 1.414 . S
C1181 C1182 1.374 . S
C1182 H1156 0.950 . S
C1182 C1178 1.385 . S
C1182 C1181 1.374 . S
C1183 C1180 1.499 . S
C1183 C1184 1.373 . S
C1183 C1185 1.389 . S
C1184 H1157 0.950 . S
C1184 C1170 1.377 . S
C1184 C1183 1.373 . S
C1185 C1169 1.377 . S
C1185 C1183 1.389 . S
C1185 C1186 1.524 . S
C1186 C1185 1.524 . S
C1186 C1187 1.397 . S
C1186 C1191 1.363 . S
C1187 H1158 0.950 . S
C1187 C1186 1.397 . S
C1187 C1188 1.334 . S
C1188 H1159 0.950 . S
C1188 C1187 1.334 . S
C1188 C1189 1.287 . S
C1189 C1188 1.287 . S
C1189 C1190 1.524 . S
C1189 H1192 0.999 . S
C1190 H1160 0.950 . S
C1190 C1189 1.524 . S
C1190 C1191 1.415 . S
C1191 H1161 0.950 . S
C1191 C1186 1.363 . S
C1191 C1190 1.415 . S
H1192 C1189 0.999 . S
H1193 C1174 0.913 . S
H1194 C1212 0.951 . S
H1195 C1214 0.951 . S
H1196 C1216 0.950 . S
H1197 C1217 0.950 . S
H1198 C1219 0.950 . S
H1199 C1222 0.950 . S
H1200 C1223 0.950 . S
H1201 C1225 0.950 . S
H1202 C1226 0.950 . S
H1203 C1227 0.951 . S
H1204 C1229 0.951 . S
H1205 C1231 0.950 . S
H1206 C1232 0.950 . S
H1207 C1234 0.950 . S
H1208 C1237 0.950 . S
H1209 C1238 0.950 . S
H1210 C1240 0.950 . S
H1211 C1241 0.950 . S
C1212 H1194 0.951 . S
C1212 C1213 1.366 . S
C1212 C1214 1.388 . S
C1213 C1212 1.366 . S
C1213 C1217 1.385 . S
C1214 H1195 0.951 . S
C1214 C1212 1.388 . S
C1214 C1215 1.366 . S
C1215 C1214 1.366 . S
C1215 C1216 1.414 . S
C1215 C1218 1.499 . S
C1216 H1196 0.950 . S
C1216 C1215 1.414 . S
C1216 C1217 1.374 . S
C1217 H1197 0.950 . S
C1217 C1213 1.385 . S
C1217 C1216 1.374 . S
C1218 C1215 1.499 . S
C1218 C1219 1.373 . S
C1218 C1220 1.389 . S
C1219 H1198 0.950 . S
C1219 C1218 1.373 . S
C1219 C1235 1.377 . S
C1220 C1218 1.389 . S
C1220 C1221 1.524 . S
C1220 C1234 1.377 . S
C1221 C1220 1.524 . S
C1221 C1222 1.397 . S
C1221 C1226 1.363 . S
C1222 H1199 0.950 . S
C1222 C1221 1.397 . S
C1222 C1223 1.334 . S
C1223 H1200 0.950 . S
C1223 C1222 1.334 . S
C1223 C1224 1.287 . S
C1224 C1223 1.287 . S
C1224 C1225 1.524 . S
C1224 H1243 0.913 . S
C1225 H1201 0.950 . S
C1225 C1224 1.524 . S
C1225 C1226 1.415 . S
C1226 H1202 0.950 . S
C1226 C1221 1.363 . S
C1226 C1225 1.415 . S
C1227 H1203 0.951 . S
C1227 C1228 1.366 . S
C1227 C1229 1.388 . S
C1228 C1227 1.366 . S
C1228 C1232 1.385 . S
C1229 H1204 0.951 . S
C1229 C1227 1.388 . S
C1229 C1230 1.366 . S
C1230 C1229 1.366 . S
C1230 C1231 1.414 . S
C1230 C1233 1.499 . S
C1231 H1205 0.950 . S
C1231 C1230 1.414 . S
C1231 C1232 1.374 . S
C1232 H1206 0.950 . S
C1232 C1228 1.385 . S
C1232 C1231 1.374 . S
C1233 C1230 1.499 . S
C1233 C1234 1.373 . S
C1233 C1235 1.389 . S
C1234 H1207 0.950 . S
C1234 C1220 1.377 . S
C1234 C1233 1.373 . S
C1235 C1219 1.377 . S
C1235 C1233 1.389 . S
C1235 C1236 1.524 . S
C1236 C1235 1.524 . S
C1236 C1237 1.397 . S
C1236 C1241 1.363 . S
C1237 H1208 0.950 . S
C1237 C1236 1.397 . S
C1237 C1238 1.334 . S
C1238 H1209 0.950 . S
C1238 C1237 1.334 . S
C1238 C1239 1.287 . S
C1239 C1238 1.287 . S
C1239 C1240 1.524 . S
C1239 H1242 0.999 . S
C1240 H1210 0.950 . S
C1240 C1239 1.524 . S
C1240 C1241 1.415 . S
C1241 H1211 0.950 . S
C1241 C1236 1.363 . S
C1241 C1240 1.415 . S
H1242 C1239 0.999 . S
H1243 C1224 0.913 . S
H1244 C1262 0.951 . S
H1245 C1264 0.951 . S
H1246 C1266 0.950 . S
H1247 C1267 0.950 . S
H1248 C1269 0.950 . S
H1249 C1272 0.950 . S
H1250 C1273 0.950 . S
H1251 C1275 0.950 . S
H1252 C1276 0.950 . S
H1253 C1277 0.951 . S
H1254 C1279 0.951 . S
H1255 C1281 0.950 . S
H1256 C1282 0.950 . S
H1257 C1284 0.950 . S
H1258 C1287 0.950 . S
H1259 C1288 0.950 . S
H1260 C1290 0.950 . S
H1261 C1291 0.950 . S
C1262 H1244 0.951 . S
C1262 C1263 1.366 . S
C1262 C1264 1.388 . S
C1263 C1262 1.366 . S
C1263 C1267 1.385 . S
C1264 H1245 0.951 . S
C1264 C1262 1.388 . S
C1264 C1265 1.366 . S
C1265 C1264 1.366 . S
C1265 C1266 1.414 . S
C1265 C1268 1.499 . S
C1266 H1246 0.950 . S
C1266 C1265 1.414 . S
C1266 C1267 1.374 . S
C1267 H1247 0.950 . S
C1267 C1263 1.385 . S
C1267 C1266 1.374 . S
C1268 C1265 1.499 . S
C1268 C1269 1.373 . S
C1268 C1270 1.389 . S
C1269 H1248 0.950 . S
C1269 C1268 1.373 . S
C1269 C1285 1.377 . S
C1270 C1268 1.389 . S
C1270 C1271 1.524 . S
C1270 C1284 1.377 . S
C1271 C1270 1.524 . S
C1271 C1272 1.397 . S
C1271 C1276 1.363 . S
C1272 H1249 0.950 . S
C1272 C1271 1.397 . S
C1272 C1273 1.334 . S
C1273 H1250 0.950 . S
C1273 C1272 1.334 . S
C1273 C1274 1.287 . S
C1274 C1273 1.287 . S
C1274 C1275 1.524 . S
C1274 H1293 0.913 . S
C1275 H1251 0.950 . S
C1275 C1274 1.524 . S
C1275 C1276 1.415 . S
C1276 H1252 0.950 . S
C1276 C1271 1.363 . S
C1276 C1275 1.415 . S
C1277 H1253 0.951 . S
C1277 C1278 1.366 . S
C1277 C1279 1.388 . S
C1278 C1277 1.366 . S
C1278 C1282 1.385 . S
C1279 H1254 0.951 . S
C1279 C1277 1.388 . S
C1279 C1280 1.366 . S
C1280 C1279 1.366 . S
C1280 C1281 1.414 . S
C1280 C1283 1.499 . S
C1281 H1255 0.950 . S
C1281 C1280 1.414 . S
C1281 C1282 1.374 . S
C1282 H1256 0.950 . S
C1282 C1278 1.385 . S
C1282 C1281 1.374 . S
C1283 C1280 1.499 . S
C1283 C1284 1.373 . S
C1283 C1285 1.389 . S
C1284 H1257 0.950 . S
C1284 C1270 1.377 . S
C1284 C1283 1.373 . S
C1285 C1269 1.377 . S
C1285 C1283 1.389 . S
C1285 C1286 1.524 . S
C1286 C1285 1.524 . S
C1286 C1287 1.397 . S
C1286 C1291 1.363 . S
C1287 H1258 0.950 . S
C1287 C1286 1.397 . S
C1287 C1288 1.334 . S
C1288 H1259 0.950 . S
C1288 C1287 1.334 . S
C1288 C1289 1.287 . S
C1289 C1288 1.287 . S
C1289 C1290 1.524 . S
C1289 H1292 0.999 . S
C1290 H1260 0.950 . S
C1290 C1289 1.524 . S
C1290 C1291 1.415 . S
C1291 H1261 0.950 . S
C1291 C1286 1.363 . S
C1291 C1290 1.415 . S
H1292 C1289 0.999 . S
H1293 C1274 0.913 . S
H1294 C1312 0.951 . S
H1295 C1314 0.951 . S
H1296 C1316 0.950 . S
H1297 C1317 0.950 . S
H1298 C1319 0.950 . S
H1299 C1322 0.950 . S
H1300 C1323 0.950 . S
H1301 C1325 0.950 . S
H1302 C1326 0.950 . S
H1303 C1327 0.951 . S
H1304 C1329 0.951 . S
H1305 C1331 0.950 . S
H1306 C1332 0.950 . S
H1307 C1334 0.950 . S
H1308 C1337 0.950 . S
H1309 C1338 0.950 . S
H1310 C1340 0.950 . S
H1311 C1341 0.950 . S
C1312 H1294 0.951 . S
C1312 C1313 1.366 . S
C1312 C1314 1.388 . S
C1313 C1312 1.366 . S
C1313 C1317 1.385 . S
C1314 H1295 0.951 . S
C1314 C1312 1.388 . S
C1314 C1315 1.366 . S
C1315 C1314 1.366 . S
C1315 C1316 1.414 . S
C1315 C1318 1.499 . S
C1316 H1296 0.950 . S
C1316 C1315 1.414 . S
C1316 C1317 1.374 . S
C1317 H1297 0.950 . S
C1317 C1313 1.385 . S
C1317 C1316 1.374 . S
C1318 C1315 1.499 . S
C1318 C1319 1.373 . S
C1318 C1320 1.389 . S
C1319 H1298 0.950 . S
C1319 C1318 1.373 . S
C1319 C1335 1.377 . S
C1320 C1318 1.389 . S
C1320 C1321 1.524 . S
C1320 C1334 1.377 . S
C1321 C1320 1.524 . S
C1321 C1322 1.397 . S
C1321 C1326 1.363 . S
C1322 H1299 0.950 . S
C1322 C1321 1.397 . S
C1322 C1323 1.334 . S
C1323 H1300 0.950 . S
C1323 C1322 1.334 . S
C1323 C1324 1.287 . S
C1324 C1323 1.287 . S
C1324 C1325 1.524 . S
C1324 H1343 0.913 . S
C1325 H1301 0.950 . S
C1325 C1324 1.524 . S
C1325 C1326 1.415 . S
C1326 H1302 0.950 . S
C1326 C1321 1.363 . S
C1326 C1325 1.415 . S
C1327 H1303 0.951 . S
C1327 C1328 1.366 . S
C1327 C1329 1.388 . S
C1328 C1327 1.366 . S
C1328 C1332 1.385 . S
C1329 H1304 0.951 . S
C1329 C1327 1.388 . S
C1329 C1330 1.366 . S
C1330 C1329 1.366 . S
C1330 C1331 1.414 . S
C1330 C1333 1.499 . S
C1331 H1305 0.950 . S
C1331 C1330 1.414 . S
C1331 C1332 1.374 . S
C1332 H1306 0.950 . S
C1332 C1328 1.385 . S
C1332 C1331 1.374 . S
C1333 C1330 1.499 . S
C1333 C1334 1.373 . S
C1333 C1335 1.389 . S
C1334 H1307 0.950 . S
C1334 C1320 1.377 . S
C1334 C1333 1.373 . S
C1335 C1319 1.377 . S
C1335 C1333 1.389 . S
C1335 C1336 1.524 . S
C1336 C1335 1.524 . S
C1336 C1337 1.397 . S
C1336 C1341 1.363 . S
C1337 H1308 0.950 . S
C1337 C1336 1.397 . S
C1337 C1338 1.334 . S
C1338 H1309 0.950 . S
C1338 C1337 1.334 . S
C1338 C1339 1.287 . S
C1339 C1338 1.287 . S
C1339 C1340 1.524 . S
C1339 H1342 0.999 . S
C1340 H1310 0.950 . S
C1340 C1339 1.524 . S
C1340 C1341 1.415 . S
C1341 H1311 0.950 . S
C1341 C1336 1.363 . S
C1341 C1340 1.415 . S
H1342 C1339 0.999 . S
H1343 C1324 0.913 . S
H1344 C1362 0.951 . S
H1345 C1364 0.951 . S
H1346 C1366 0.950 . S
H1347 C1367 0.950 . S
H1348 C1369 0.950 . S
H1349 C1372 0.950 . S
H1350 C1373 0.950 . S
H1351 C1375 0.950 . S
H1352 C1376 0.950 . S
H1353 C1377 0.951 . S
H1354 C1379 0.951 . S
H1355 C1381 0.950 . S
H1356 C1382 0.950 . S
H1357 C1384 0.950 . S
H1358 C1387 0.950 . S
H1359 C1388 0.950 . S
H1360 C1390 0.950 . S
H1361 C1391 0.950 . S
C1362 H1344 0.951 . S
C1362 C1363 1.366 . S
C1362 C1364 1.388 . S
C1363 C1362 1.366 . S
C1363 C1367 1.385 . S
C1364 H1345 0.951 . S
C1364 C1362 1.388 . S
C1364 C1365 1.366 . S
C1365 C1364 1.366 . S
C1365 C1366 1.414 . S
C1365 C1368 1.499 . S
C1366 H1346 0.950 . S
C1366 C1365 1.414 . S
C1366 C1367 1.374 . S
C1367 H1347 0.950 . S
C1367 C1363 1.385 . S
C1367 C1366 1.374 . S
C1368 C1365 1.499 . S
C1368 C1369 1.373 . S
C1368 C1370 1.389 . S
C1369 H1348 0.950 . S
C1369 C1368 1.373 . S
C1369 C1385 1.377 1_554 S
C1370 C1368 1.389 . S
C1370 C1371 1.524 . S
C1370 C1384 1.377 1_554 S
C1371 C1370 1.524 . S
C1371 C1372 1.397 . S
C1371 C1376 1.363 . S
C1372 H1349 0.950 . S
C1372 C1371 1.397 . S
C1372 C1373 1.334 . S
C1373 H1350 0.950 . S
C1373 C1372 1.334 . S
C1373 C1374 1.287 . S
C1374 C1373 1.287 . S
C1374 C1375 1.524 . S
C1374 H1393 0.913 . S
C1375 H1351 0.950 . S
C1375 C1374 1.524 . S
C1375 C1376 1.415 . S
C1376 H1352 0.950 . S
C1376 C1371 1.363 . S
C1376 C1375 1.415 . S
C1377 H1353 0.951 . S
C1377 C1378 1.366 . S
C1377 C1379 1.388 . S
C1378 C1377 1.366 . S
C1378 C1382 1.385 . S
C1379 H1354 0.951 . S
C1379 C1377 1.388 . S
C1379 C1380 1.366 . S
C1380 C1379 1.366 . S
C1380 C1381 1.414 . S
C1380 C1383 1.499 . S
C1381 H1355 0.950 . S
C1381 C1380 1.414 . S
C1381 C1382 1.374 . S
C1382 H1356 0.950 . S
C1382 C1378 1.385 . S
C1382 C1381 1.374 . S
C1383 C1380 1.499 . S
C1383 C1384 1.373 . S
C1383 C1385 1.389 . S
C1384 H1357 0.950 . S
C1384 C1370 1.377 1_556 S
C1384 C1383 1.373 . S
C1385 C1369 1.377 1_556 S
C1385 C1383 1.389 . S
C1385 C1386 1.524 . S
C1386 C1385 1.524 . S
C1386 C1387 1.397 . S
C1386 C1391 1.363 . S
C1387 H1358 0.950 . S
C1387 C1386 1.397 . S
C1387 C1388 1.334 . S
C1388 H1359 0.950 . S
C1388 C1387 1.334 . S
C1388 C1389 1.287 . S
C1389 C1388 1.287 . S
C1389 C1390 1.524 . S
C1389 H1392 0.999 . S
C1390 H1360 0.950 . S
C1390 C1389 1.524 . S
C1390 C1391 1.415 . S
C1391 H1361 0.950 . S
C1391 C1386 1.363 . S
C1391 C1390 1.415 . S
H1392 C1389 0.999 . S
H1393 C1374 0.913 . S
H1394 C1412 0.951 . S
H1395 C1414 0.951 . S
H1396 C1416 0.950 . S
H1397 C1417 0.950 . S
H1398 C1419 0.950 . S
H1399 C1422 0.950 . S
H1400 C1423 0.950 . S
H1401 C1425 0.950 . S
H1402 C1426 0.950 . S
H1403 C1427 0.951 . S
H1404 C1429 0.951 . S
H1405 C1431 0.950 . S
H1406 C1432 0.950 . S
H1407 C1434 0.950 . S
H1408 C1437 0.950 . S
H1409 C1438 0.950 . S
H1410 C1440 0.950 . S
H1411 C1441 0.950 . S
C1412 H1394 0.951 . S
C1412 C1413 1.366 . S
C1412 C1414 1.388 . S
C1413 C1412 1.366 . S
C1413 C1417 1.385 . S
C1414 H1395 0.951 . S
C1414 C1412 1.388 . S
C1414 C1415 1.366 . S
C1415 C1414 1.366 . S
C1415 C1416 1.414 . S
C1415 C1418 1.499 . S
C1416 H1396 0.950 . S
C1416 C1415 1.414 . S
C1416 C1417 1.374 . S
C1417 H1397 0.950 . S
C1417 C1413 1.385 . S
C1417 C1416 1.374 . S
C1418 C1415 1.499 . S
C1418 C1419 1.373 . S
C1418 C1420 1.389 . S
C1419 H1398 0.950 . S
C1419 C1418 1.373 . S
C1419 C1435 1.377 . S
C1420 C1418 1.389 . S
C1420 C1421 1.524 . S
C1420 C1434 1.377 . S
C1421 C1420 1.524 . S
C1421 C1422 1.397 . S
C1421 C1426 1.363 . S
C1422 H1399 0.950 . S
C1422 C1421 1.397 . S
C1422 C1423 1.334 . S
C1423 H1400 0.950 . S
C1423 C1422 1.334 . S
C1423 C1424 1.287 . S
C1424 C1423 1.287 . S
C1424 C1425 1.524 . S
C1424 H1443 0.913 . S
C1425 H1401 0.950 . S
C1425 C1424 1.524 . S
C1425 C1426 1.415 . S
C1426 H1402 0.950 . S
C1426 C1421 1.363 . S
C1426 C1425 1.415 . S
C1427 H1403 0.951 . S
C1427 C1428 1.366 . S
C1427 C1429 1.388 . S
C1428 C1427 1.366 . S
C1428 C1432 1.385 . S
C1429 H1404 0.951 . S
C1429 C1427 1.388 . S
C1429 C1430 1.366 . S
C1430 C1429 1.366 . S
C1430 C1431 1.414 . S
C1430 C1433 1.499 . S
C1431 H1405 0.950 . S
C1431 C1430 1.414 . S
C1431 C1432 1.374 . S
C1432 H1406 0.950 . S
C1432 C1428 1.385 . S
C1432 C1431 1.374 . S
C1433 C1430 1.499 . S
C1433 C1434 1.373 . S
C1433 C1435 1.389 . S
C1434 H1407 0.950 . S
C1434 C1420 1.377 . S
C1434 C1433 1.373 . S
C1435 C1419 1.377 . S
C1435 C1433 1.389 . S
C1435 C1436 1.524 . S
C1436 C1435 1.524 . S
C1436 C1437 1.397 . S
C1436 C1441 1.363 . S
C1437 H1408 0.950 . S
C1437 C1436 1.397 . S
C1437 C1438 1.334 . S
C1438 H1409 0.950 . S
C1438 C1437 1.334 . S
C1438 C1439 1.287 . S
C1439 C1438 1.287 . S
C1439 C1440 1.524 . S
C1439 H1442 0.999 . S
C1440 H1410 0.950 . S
C1440 C1439 1.524 . S
C1440 C1441 1.415 . S
C1441 H1411 0.950 . S
C1441 C1436 1.363 . S
C1441 C1440 1.415 . S
H1442 C1439 0.999 . S
H1443 C1424 0.913 . S
H1444 C1462 0.951 . S
H1445 C1464 0.951 . S
H1446 C1466 0.950 . S
H1447 C1467 0.950 . S
H1448 C1469 0.950 . S
H1449 C1472 0.950 . S
H1450 C1473 0.950 . S
H1451 C1475 0.950 . S
H1452 C1476 0.950 . S
H1453 C1477 0.951 . S
H1454 C1479 0.951 . S
H1455 C1481 0.950 . S
H1456 C1482 0.950 . S
H1457 C1484 0.950 . S
H1458 C1487 0.950 . S
H1459 C1488 0.950 . S
H1460 C1490 0.950 . S
H1461 C1491 0.948 . S
C1462 H1444 0.951 . S
C1462 C1463 1.366 . S
C1462 C1464 1.388 . S
C1463 C1462 1.366 . S
C1463 C1467 1.385 . S
C1464 H1445 0.951 . S
C1464 C1462 1.388 . S
C1464 C1465 1.366 . S
C1465 C1464 1.366 . S
C1465 C1466 1.414 . S
C1465 C1468 1.499 . S
C1466 H1446 0.950 . S
C1466 C1465 1.414 . S
C1466 C1467 1.374 . S
C1467 H1447 0.950 . S
C1467 C1463 1.385 . S
C1467 C1466 1.374 . S
C1468 C1465 1.499 . S
C1468 C1469 1.373 . S
C1468 C1470 1.389 . S
C1469 H1448 0.950 . S
C1469 C1468 1.373 . S
C1469 C1485 1.377 1_556 S
C1470 C1468 1.389 . S
C1470 C1471 1.524 . S
C1470 C1484 1.377 1_556 S
C1471 C1470 1.524 . S
C1471 C1472 1.397 . S
C1471 C1476 1.363 . S
C1472 H1449 0.950 . S
C1472 C1471 1.397 . S
C1472 C1473 1.334 . S
C1473 H1450 0.950 . S
C1473 C1472 1.334 . S
C1473 C1474 1.287 . S
C1474 C1473 1.287 . S
C1474 C1475 1.524 . S
C1474 H1493 0.913 . S
C1475 H1451 0.950 . S
C1475 C1474 1.524 . S
C1475 C1476 1.415 . S
C1476 H1452 0.950 . S
C1476 C1471 1.363 . S
C1476 C1475 1.415 . S
C1477 H1453 0.951 . S
C1477 C1478 1.366 . S
C1477 C1479 1.388 . S
C1478 C1477 1.366 . S
C1478 C1482 1.385 . S
C1479 H1454 0.951 . S
C1479 C1477 1.388 . S
C1479 C1480 1.366 . S
C1480 C1479 1.366 . S
C1480 C1481 1.414 . S
C1480 C1483 1.499 . S
C1481 H1455 0.950 . S
C1481 C1480 1.414 . S
C1481 C1482 1.374 . S
C1482 H1456 0.950 . S
C1482 C1478 1.385 . S
C1482 C1481 1.374 . S
C1483 C1480 1.499 . S
C1483 C1484 1.373 . S
C1483 C1485 1.389 . S
C1484 H1457 0.950 . S
C1484 C1470 1.377 1_554 S
C1484 C1483 1.373 . S
C1485 C1469 1.377 1_554 S
C1485 C1483 1.389 . S
C1485 C1486 1.524 . S
C1486 C1485 1.524 . S
C1486 C1487 1.397 . S
C1486 C1491 1.363 . S
C1487 H1458 0.950 . S
C1487 C1486 1.397 . S
C1487 C1488 1.334 . S
C1488 H1459 0.950 . S
C1488 C1487 1.334 . S
C1488 C1489 1.287 . S
C1489 C1488 1.287 . S
C1489 C1490 1.524 . S
C1489 H1492 0.999 . S
C1490 H1460 0.950 . S
C1490 C1489 1.524 . S
C1490 C1491 1.415 . S
C1491 H1461 0.948 . S
C1491 C1486 1.363 . S
C1491 C1490 1.415 . S
H1492 C1489 0.999 . S
H1493 C1474 0.913 . S
H1494 C1512 0.951 . S
H1495 C1514 0.951 . S
H1496 C1516 0.950 . S
H1497 C1517 0.950 . S
H1498 C1519 0.950 . S
H1499 C1522 0.950 . S
H1500 C1523 0.950 . S
H1501 C1525 0.950 . S
H1502 C1526 0.950 . S
H1503 C1527 0.951 . S
H1504 C1529 0.951 . S
H1505 C1531 0.950 . S
H1506 C1532 0.950 . S
H1507 C1534 0.950 . S
H1508 C1537 0.950 . S
H1509 C1538 0.950 . S
H1510 C1540 0.950 . S
H1511 C1541 0.950 . S
C1512 H1494 0.951 . S
C1512 C1513 1.366 . S
C1512 C1514 1.388 . S
C1513 C1512 1.366 . S
C1513 C1517 1.385 . S
C1514 H1495 0.951 . S
C1514 C1512 1.388 . S
C1514 C1515 1.366 . S
C1515 C1514 1.366 . S
C1515 C1516 1.414 . S
C1515 C1518 1.499 . S
C1516 H1496 0.950 . S
C1516 C1515 1.414 . S
C1516 C1517 1.374 . S
C1517 H1497 0.950 . S
C1517 C1513 1.385 . S
C1517 C1516 1.374 . S
C1518 C1515 1.499 . S
C1518 C1519 1.373 . S
C1518 C1520 1.389 . S
C1519 H1498 0.950 . S
C1519 C1518 1.373 . S
C1519 C1535 1.377 . S
C1520 C1518 1.389 . S
C1520 C1521 1.524 . S
C1520 C1534 1.377 . S
C1521 C1520 1.524 . S
C1521 C1522 1.397 . S
C1521 C1526 1.363 . S
C1522 H1499 0.950 . S
C1522 C1521 1.397 . S
C1522 C1523 1.334 . S
C1523 H1500 0.950 . S
C1523 C1522 1.334 . S
C1523 C1524 1.287 . S
C1524 C1523 1.287 . S
C1524 C1525 1.524 . S
C1524 H1543 0.913 . S
C1525 H1501 0.950 . S
C1525 C1524 1.524 . S
C1525 C1526 1.415 . S
C1526 H1502 0.950 . S
C1526 C1521 1.363 . S
C1526 C1525 1.415 . S
C1527 H1503 0.951 . S
C1527 C1528 1.366 . S
C1527 C1529 1.388 . S
C1528 C1527 1.366 . S
C1528 C1532 1.385 . S
C1529 H1504 0.951 . S
C1529 C1527 1.388 . S
C1529 C1530 1.366 . S
C1530 C1529 1.366 . S
C1530 C1531 1.414 . S
C1530 C1533 1.499 . S
C1531 H1505 0.950 . S
C1531 C1530 1.414 . S
C1531 C1532 1.374 . S
C1532 H1506 0.950 . S
C1532 C1528 1.385 . S
C1532 C1531 1.374 . S
C1533 C1530 1.499 . S
C1533 C1534 1.373 . S
C1533 C1535 1.389 . S
C1534 H1507 0.950 . S
C1534 C1520 1.377 . S
C1534 C1533 1.373 . S
C1535 C1519 1.377 . S
C1535 C1533 1.389 . S
C1535 C1536 1.524 . S
C1536 C1535 1.524 . S
C1536 C1537 1.397 . S
C1536 C1541 1.363 . S
C1537 H1508 0.950 . S
C1537 C1536 1.397 . S
C1537 C1538 1.334 . S
C1538 H1509 0.950 . S
C1538 C1537 1.334 . S
C1538 C1539 1.287 . S
C1539 C1538 1.287 . S
C1539 C1540 1.524 . S
C1539 H1542 0.999 . S
C1540 H1510 0.950 . S
C1540 C1539 1.524 . S
C1540 C1541 1.415 . S
C1541 H1511 0.950 . S
C1541 C1536 1.363 . S
C1541 C1540 1.415 . S
H1542 C1539 0.999 . S
H1543 C1524 0.913 . S
H1544 C1562 0.951 . S
H1545 C1564 0.951 . S
H1546 C1566 0.950 . S
H1547 C1567 0.950 . S
H1548 C1569 0.950 . S
H1549 C1572 0.950 . S
H1550 C1573 0.950 . S
H1551 C1575 0.950 . S
H1552 C1576 0.985 . S
H1553 C1577 0.951 . S
H1554 C1579 0.951 . S
H1555 C1581 0.950 . S
H1556 C1582 0.950 . S
H1557 C1584 0.950 . S
H1558 C1587 0.950 . S
H1559 C1588 0.950 . S
H1560 C1590 0.950 . S
H1561 C1591 0.950 . S
C1562 H1544 0.951 . S
C1562 C1563 1.366 . S
C1562 C1564 1.388 . S
C1563 C1562 1.366 . S
C1563 C1567 1.385 . S
C1564 H1545 0.951 . S
C1564 C1562 1.388 . S
C1564 C1565 1.366 . S
C1565 C1564 1.366 . S
C1565 C1566 1.414 . S
C1565 C1568 1.499 . S
C1566 H1546 0.950 . S
C1566 C1565 1.414 . S
C1566 C1567 1.374 . S
C1567 H1547 0.950 . S
C1567 C1563 1.385 . S
C1567 C1566 1.374 . S
C1568 C1565 1.499 . S
C1568 C1569 1.373 . S
C1568 C1570 1.389 . S
C1569 H1548 0.950 . S
C1569 C1568 1.373 . S
C1569 C1585 1.377 1_556 S
C1570 C1568 1.389 . S
C1570 C1571 1.524 . S
C1570 C1584 1.377 1_556 S
C1571 C1570 1.524 . S
C1571 C1572 1.397 . S
C1571 C1576 1.363 . S
C1572 H1549 0.950 . S
C1572 C1571 1.397 . S
C1572 C1573 1.334 . S
C1573 H1550 0.950 . S
C1573 C1572 1.334 . S
C1573 C1574 1.287 . S
C1574 C1573 1.287 . S
C1574 C1575 1.524 . S
C1574 H1593 0.913 . S
C1575 H1551 0.950 . S
C1575 C1574 1.524 . S
C1575 C1576 1.415 . S
C1576 H1552 0.985 . S
C1576 C1571 1.363 . S
C1576 C1575 1.415 . S
C1577 H1553 0.951 . S
C1577 C1578 1.366 . S
C1577 C1579 1.388 . S
C1578 C1577 1.366 . S
C1578 C1582 1.385 . S
C1579 H1554 0.951 . S
C1579 C1577 1.388 . S
C1579 C1580 1.366 . S
C1580 C1579 1.366 . S
C1580 C1581 1.414 . S
C1580 C1583 1.499 . S
C1581 H1555 0.950 . S
C1581 C1580 1.414 . S
C1581 C1582 1.374 . S
C1582 H1556 0.950 . S
C1582 C1578 1.385 . S
C1582 C1581 1.374 . S
C1583 C1580 1.499 . S
C1583 C1584 1.373 . S
C1583 C1585 1.389 . S
C1584 H1557 0.950 . S
C1584 C1570 1.377 1_554 S
C1584 C1583 1.373 . S
C1585 C1569 1.377 1_554 S
C1585 C1583 1.389 . S
C1585 C1586 1.524 . S
C1586 C1585 1.524 . S
C1586 C1587 1.397 . S
C1586 C1591 1.363 . S
C1587 H1558 0.950 . S
C1587 C1586 1.397 . S
C1587 C1588 1.334 . S
C1588 H1559 0.950 . S
C1588 C1587 1.334 . S
C1588 C1589 1.287 . S
C1589 C1588 1.287 . S
C1589 C1590 1.524 . S
C1589 H1592 0.999 . S
C1590 H1560 0.950 . S
C1590 C1589 1.524 . S
C1590 C1591 1.415 . S
C1591 H1561 0.950 . S
C1591 C1586 1.363 . S
C1591 C1590 1.415 . S
H1592 C1589 0.999 . S
H1593 C1574 0.913 . S
H1594 C1612 0.951 . S
H1595 C1614 0.951 . S
H1596 C1616 0.950 . S
H1597 C1617 0.950 . S
H1598 C1619 0.950 . S
H1599 C1622 0.950 . S
H1600 C1623 0.950 . S
H1601 C1625 0.950 . S
H1602 C1626 0.950 . S
H1603 C1627 0.951 . S
H1604 C1629 0.951 . S
H1605 C1631 0.950 . S
H1606 C1632 0.950 . S
H1607 C1634 0.950 . S
H1608 C1637 0.950 . S
H1609 C1638 0.950 . S
H1610 C1640 0.950 . S
H1611 C1641 0.950 . S
C1612 H1594 0.951 . S
C1612 C1613 1.366 . S
C1612 C1614 1.388 . S
C1613 C1612 1.366 . S
C1613 C1617 1.385 . S
C1614 H1595 0.951 . S
C1614 C1612 1.388 . S
C1614 C1615 1.366 . S
C1615 C1614 1.366 . S
C1615 C1616 1.414 . S
C1615 C1618 1.499 . S
C1616 H1596 0.950 . S
C1616 C1615 1.414 . S
C1616 C1617 1.374 . S
C1617 H1597 0.950 . S
C1617 C1613 1.385 . S
C1617 C1616 1.374 . S
C1618 C1615 1.499 . S
C1618 C1619 1.373 . S
C1618 C1620 1.389 . S
C1619 H1598 0.950 . S
C1619 C1618 1.373 . S
C1619 C1635 1.377 . S
C1620 C1618 1.389 . S
C1620 C1621 1.524 . S
C1620 C1634 1.377 . S
C1621 C1620 1.524 . S
C1621 C1622 1.397 . S
C1621 C1626 1.363 . S
C1622 H1599 0.950 . S
C1622 C1621 1.397 . S
C1622 C1623 1.334 . S
C1623 H1600 0.950 . S
C1623 C1622 1.334 . S
C1623 C1624 1.287 . S
C1624 C1623 1.287 . S
C1624 C1625 1.524 . S
C1624 H1643 0.913 . S
C1625 H1601 0.950 . S
C1625 C1624 1.524 . S
C1625 C1626 1.415 . S
C1626 H1602 0.950 . S
C1626 C1621 1.363 . S
C1626 C1625 1.415 . S
C1627 H1603 0.951 . S
C1627 C1628 1.366 . S
C1627 C1629 1.388 . S
C1628 C1627 1.366 . S
C1628 C1632 1.385 . S
C1629 H1604 0.951 . S
C1629 C1627 1.388 . S
C1629 C1630 1.366 . S
C1630 C1629 1.366 . S
C1630 C1631 1.414 . S
C1630 C1633 1.499 . S
C1631 H1605 0.950 . S
C1631 C1630 1.414 . S
C1631 C1632 1.374 . S
C1632 H1606 0.950 . S
C1632 C1628 1.385 . S
C1632 C1631 1.374 . S
C1633 C1630 1.499 . S
C1633 C1634 1.373 . S
C1633 C1635 1.389 . S
C1634 H1607 0.950 . S
C1634 C1620 1.377 . S
C1634 C1633 1.373 . S
C1635 C1619 1.377 . S
C1635 C1633 1.389 . S
C1635 C1636 1.524 . S
C1636 C1635 1.524 . S
C1636 C1637 1.397 . S
C1636 C1641 1.363 . S
C1637 H1608 0.950 . S
C1637 C1636 1.397 . S
C1637 C1638 1.334 . S
C1638 H1609 0.950 . S
C1638 C1637 1.334 . S
C1638 C1639 1.287 . S
C1639 C1638 1.287 . S
C1639 C1640 1.524 . S
C1639 H1642 0.999 . S
C1640 H1610 0.950 . S
C1640 C1639 1.524 . S
C1640 C1641 1.415 . S
C1641 H1611 0.950 . S
C1641 C1636 1.363 . S
C1641 C1640 1.415 . S
H1642 C1639 0.999 . S
H1643 C1624 0.913 . S
H1644 C1662 0.951 . S
H1645 C1664 0.951 . S
H1646 C1666 0.950 . S
H1647 C1667 0.950 . S
H1648 C1669 0.950 . S
H1649 C1672 0.950 . S
H1650 C1673 0.950 . S
H1651 C1675 0.950 . S
H1652 C1676 0.950 1_556 S
H1653 C1677 0.951 . S
H1654 C1679 0.951 . S
H1655 C1681 0.950 . S
H1656 C1682 0.950 . S
H1657 C1684 0.950 . S
H1658 C1687 0.950 . S
H1659 C1688 0.950 . S
H1660 C1690 0.950 . S
H1661 C1691 0.950 . S
C1662 H1644 0.951 . S
C1662 C1663 1.366 . S
C1662 C1664 1.388 . S
C1663 C1662 1.366 . S
C1663 C1667 1.385 . S
C1664 H1645 0.951 . S
C1664 C1662 1.388 . S
C1664 C1665 1.366 . S
C1665 C1664 1.366 . S
C1665 C1666 1.414 . S
C1665 C1668 1.499 . S
C1666 H1646 0.950 . S
C1666 C1665 1.414 . S
C1666 C1667 1.374 . S
C1667 H1647 0.950 . S
C1667 C1663 1.385 . S
C1667 C1666 1.374 . S
C1668 C1665 1.499 . S
C1668 C1669 1.373 . S
C1668 C1670 1.389 . S
C1669 H1648 0.950 . S
C1669 C1668 1.373 . S
C1669 C1685 1.377 1_554 S
C1670 C1668 1.389 . S
C1670 C1671 1.524 . S
C1670 C1684 1.377 1_554 S
C1671 C1670 1.524 . S
C1671 C1672 1.397 . S
C1671 C1676 1.363 . S
C1672 H1649 0.950 . S
C1672 C1671 1.397 . S
C1672 C1673 1.334 . S
C1673 H1650 0.950 . S
C1673 C1672 1.334 . S
C1673 C1674 1.287 . S
C1674 C1673 1.287 . S
C1674 C1675 1.524 . S
C1674 H1693 0.913 . S
C1675 H1651 0.950 . S
C1675 C1674 1.524 . S
C1675 C1676 1.415 . S
C1676 H1652 0.950 1_554 S
C1676 C1671 1.363 . S
C1676 C1675 1.415 . S
C1677 H1653 0.951 . S
C1677 C1678 1.366 . S
C1677 C1679 1.388 . S
C1678 C1677 1.366 . S
C1678 C1682 1.385 . S
C1679 H1654 0.951 . S
C1679 C1677 1.388 . S
C1679 C1680 1.366 . S
C1680 C1679 1.366 . S
C1680 C1681 1.414 . S
C1680 C1683 1.499 . S
C1681 H1655 0.950 . S
C1681 C1680 1.414 . S
C1681 C1682 1.374 . S
C1682 H1656 0.950 . S
C1682 C1678 1.385 . S
C1682 C1681 1.374 . S
C1683 C1680 1.499 . S
C1683 C1684 1.373 . S
C1683 C1685 1.389 . S
C1684 H1657 0.950 . S
C1684 C1670 1.377 1_556 S
C1684 C1683 1.373 . S
C1685 C1669 1.377 1_556 S
C1685 C1683 1.389 . S
C1685 C1686 1.524 . S
C1686 C1685 1.524 . S
C1686 C1687 1.397 . S
C1686 C1691 1.363 . S
C1687 H1658 0.950 . S
C1687 C1686 1.397 . S
C1687 C1688 1.334 . S
C1688 H1659 0.950 . S
C1688 C1687 1.334 . S
C1688 C1689 1.287 . S
C1689 C1688 1.287 . S
C1689 C1690 1.524 . S
C1689 H1692 0.999 . S
C1690 H1660 0.950 . S
C1690 C1689 1.524 . S
C1690 C1691 1.415 . S
C1691 H1661 0.950 . S
C1691 C1686 1.363 . S
C1691 C1690 1.415 . S
H1692 C1689 0.999 . S
H1693 C1674 0.913 . S
H1694 C1712 0.951 . S
H1695 C1714 0.951 . S
H1696 C1716 0.950 . S
H1697 C1717 0.950 . S
H1698 C1719 0.950 . S
H1699 C1722 0.950 . S
H1700 C1723 0.950 . S
H1701 C1725 0.950 . S
H1702 C1726 0.950 . S
H1703 C1727 0.951 . S
H1704 C1729 0.951 . S
H1705 C1731 0.950 . S
H1706 C1732 0.950 . S
H1707 C1734 0.950 . S
H1708 C1737 0.950 . S
H1709 C1738 0.950 . S
H1710 C1740 0.950 . S
H1711 C1741 0.950 . S
C1712 H1694 0.951 . S
C1712 C1713 1.366 . S
C1712 C1714 1.388 . S
C1713 C1712 1.366 . S
C1713 C1717 1.385 . S
C1714 H1695 0.951 . S
C1714 C1712 1.388 . S
C1714 C1715 1.366 . S
C1715 C1714 1.366 . S
C1715 C1716 1.414 . S
C1715 C1718 1.499 . S
C1716 H1696 0.950 . S
C1716 C1715 1.414 . S
C1716 C1717 1.374 . S
C1717 H1697 0.950 . S
C1717 C1713 1.385 . S
C1717 C1716 1.374 . S
C1718 C1715 1.499 . S
C1718 C1719 1.373 . S
C1718 C1720 1.389 . S
C1719 H1698 0.950 . S
C1719 C1718 1.373 . S
C1719 C1735 1.377 . S
C1720 C1718 1.389 . S
C1720 C1721 1.524 . S
C1720 C1734 1.377 . S
C1721 C1720 1.524 . S
C1721 C1722 1.397 . S
C1721 C1726 1.363 . S
C1722 H1699 0.950 . S
C1722 C1721 1.397 . S
C1722 C1723 1.334 . S
C1723 H1700 0.950 . S
C1723 C1722 1.334 . S
C1723 C1724 1.287 . S
C1724 C1723 1.287 . S
C1724 C1725 1.524 . S
C1724 H1743 0.913 . S
C1725 H1701 0.950 . S
C1725 C1724 1.524 . S
C1725 C1726 1.415 . S
C1726 H1702 0.950 . S
C1726 C1721 1.363 . S
C1726 C1725 1.415 . S
C1727 H1703 0.951 . S
C1727 C1728 1.366 . S
C1727 C1729 1.388 . S
C1728 C1727 1.366 . S
C1728 C1732 1.385 . S
C1729 H1704 0.951 . S
C1729 C1727 1.388 . S
C1729 C1730 1.366 . S
C1730 C1729 1.366 . S
C1730 C1731 1.414 . S
C1730 C1733 1.499 . S
C1731 H1705 0.950 . S
C1731 C1730 1.414 . S
C1731 C1732 1.374 . S
C1732 H1706 0.950 . S
C1732 C1728 1.385 . S
C1732 C1731 1.374 . S
C1733 C1730 1.499 . S
C1733 C1734 1.373 . S
C1733 C1735 1.389 . S
C1734 H1707 0.950 . S
C1734 C1720 1.377 . S
C1734 C1733 1.373 . S
C1735 C1719 1.377 . S
C1735 C1733 1.389 . S
C1735 C1736 1.524 . S
C1736 C1735 1.524 . S
C1736 C1737 1.397 . S
C1736 C1741 1.363 . S
C1737 H1708 0.950 . S
C1737 C1736 1.397 . S
C1737 C1738 1.334 . S
C1738 H1709 0.950 . S
C1738 C1737 1.334 . S
C1738 C1739 1.287 . S
C1739 C1738 1.287 . S
C1739 C1740 1.524 . S
C1739 H1742 0.999 . S
C1740 H1710 0.950 . S
C1740 C1739 1.524 . S
C1740 C1741 1.415 . S
C1741 H1711 0.950 . S
C1741 C1736 1.363 . S
C1741 C1740 1.415 . S
H1742 C1739 0.999 . S
H1743 C1724 0.913 . S
H1744 C1762 0.951 . S
H1745 C1764 0.951 . S
H1746 C1766 0.950 . S
H1747 C1767 0.950 . S
H1748 C1769 0.950 . S
H1749 C1772 0.950 . S
H1750 C1773 0.950 . S
H1751 C1775 0.950 . S
H1752 C1776 0.950 . S
H1753 C1777 0.951 . S
H1754 C1779 0.951 . S
H1755 C1781 0.950 . S
H1756 C1782 0.950 . S
H1757 C1784 0.950 . S
H1758 C1787 0.950 . S
H1759 C1788 0.950 . S
H1760 C1790 0.950 . S
H1761 C1791 0.950 . S
C1762 H1744 0.951 . S
C1762 C1763 1.366 . S
C1762 C1764 1.388 . S
C1763 C1762 1.366 . S
C1763 C1767 1.385 . S
C1764 H1745 0.951 . S
C1764 C1762 1.388 . S
C1764 C1765 1.366 . S
C1765 C1764 1.366 . S
C1765 C1766 1.414 . S
C1765 C1768 1.499 . S
C1766 H1746 0.950 . S
C1766 C1765 1.414 . S
C1766 C1767 1.374 . S
C1767 H1747 0.950 . S
C1767 C1763 1.385 . S
C1767 C1766 1.374 . S
C1768 C1765 1.499 . S
C1768 C1769 1.373 . S
C1768 C1770 1.389 . S
C1769 H1748 0.950 . S
C1769 C1768 1.373 . S
C1769 C1785 1.377 . S
C1770 C1768 1.389 . S
C1770 C1771 1.524 . S
C1770 C1784 1.377 . S
C1771 C1770 1.524 . S
C1771 C1772 1.397 . S
C1771 C1776 1.363 . S
C1772 H1749 0.950 . S
C1772 C1771 1.397 . S
C1772 C1773 1.334 . S
C1773 H1750 0.950 . S
C1773 C1772 1.334 . S
C1773 C1774 1.287 . S
C1774 C1773 1.287 . S
C1774 C1775 1.524 . S
C1774 H1793 0.913 . S
C1775 H1751 0.950 . S
C1775 C1774 1.524 . S
C1775 C1776 1.415 . S
C1776 H1752 0.950 . S
C1776 C1771 1.363 . S
C1776 C1775 1.415 . S
C1777 H1753 0.951 . S
C1777 C1778 1.366 . S
C1777 C1779 1.388 . S
C1778 C1777 1.366 . S
C1778 C1782 1.385 . S
C1779 H1754 0.951 . S
C1779 C1777 1.388 . S
C1779 C1780 1.366 . S
C1780 C1779 1.366 . S
C1780 C1781 1.414 . S
C1780 C1783 1.499 . S
C1781 H1755 0.950 . S
C1781 C1780 1.414 . S
C1781 C1782 1.374 . S
C1782 H1756 0.950 . S
C1782 C1778 1.385 . S
C1782 C1781 1.374 . S
C1783 C1780 1.499 . S
C1783 C1784 1.373 . S
C1783 C1785 1.389 . S
C1784 H1757 0.950 . S
C1784 C1770 1.377 . S
C1784 C1783 1.373 . S
C1785 C1769 1.377 . S
C1785 C1783 1.389 . S
C1785 C1786 1.524 . S
C1786 C1785 1.524 . S
C1786 C1787 1.397 . S
C1786 C1791 1.363 . S
C1787 H1758 0.950 . S
C1787 C1786 1.397 . S
C1787 C1788 1.334 . S
C1788 H1759 0.950 . S
C1788 C1787 1.334 . S
C1788 C1789 1.287 . S
C1789 C1788 1.287 . S
C1789 C1790 1.524 . S
C1789 H1792 0.999 . S
C1790 H1760 0.950 . S
C1790 C1789 1.524 . S
C1790 C1791 1.415 . S
C1791 H1761 0.950 . S
C1791 C1786 1.363 . S
C1791 C1790 1.415 . S
H1792 C1789 0.999 . S
H1793 C1774 0.913 . S
H1794 C1812 0.951 . S
H1795 C1814 0.951 . S
H1796 C1816 0.950 . S
H1797 C1817 0.950 . S
H1798 C1819 0.950 . S
H1799 C1822 0.950 . S
H1800 C1823 0.950 . S
H1801 C1825 0.950 . S
H1802 C1826 0.950 . S
H1803 C1827 0.951 . S
H1804 C1829 0.951 . S
H1805 C1831 0.950 . S
H1806 C1832 0.950 . S
H1807 C1834 0.950 . S
H1808 C1837 0.950 . S
H1809 C1838 0.950 . S
H1810 C1840 0.950 . S
H1811 C1841 0.950 . S
C1812 H1794 0.951 . S
C1812 C1813 1.366 . S
C1812 C1814 1.388 . S
C1813 C1812 1.366 . S
C1813 C1817 1.385 . S
C1814 H1795 0.951 . S
C1814 C1812 1.388 . S
C1814 C1815 1.366 . S
C1815 C1814 1.366 . S
C1815 C1816 1.414 . S
C1815 C1818 1.499 . S
C1816 H1796 0.950 . S
C1816 C1815 1.414 . S
C1816 C1817 1.374 . S
C1817 H1797 0.950 . S
C1817 C1813 1.385 . S
C1817 C1816 1.374 . S
C1818 C1815 1.499 . S
C1818 C1819 1.373 . S
C1818 C1820 1.389 . S
C1819 H1798 0.950 . S
C1819 C1818 1.373 . S
C1819 C1835 1.377 . S
C1820 C1818 1.389 . S
C1820 C1821 1.524 . S
C1820 C1834 1.377 . S
C1821 C1820 1.524 . S
C1821 C1822 1.397 . S
C1821 C1826 1.363 . S
C1822 H1799 0.950 . S
C1822 C1821 1.397 . S
C1822 C1823 1.334 . S
C1823 H1800 0.950 . S
C1823 C1822 1.334 . S
C1823 C1824 1.287 . S
C1824 C1823 1.287 . S
C1824 C1825 1.524 . S
C1824 H1843 0.913 . S
C1825 H1801 0.950 . S
C1825 C1824 1.524 . S
C1825 C1826 1.415 . S
C1826 H1802 0.950 . S
C1826 C1821 1.363 . S
C1826 C1825 1.415 . S
C1827 H1803 0.951 . S
C1827 C1828 1.366 . S
C1827 C1829 1.388 . S
C1828 C1827 1.366 . S
C1828 C1832 1.385 . S
C1829 H1804 0.951 . S
C1829 C1827 1.388 . S
C1829 C1830 1.366 . S
C1830 C1829 1.366 . S
C1830 C1831 1.414 . S
C1830 C1833 1.499 . S
C1831 H1805 0.950 . S
C1831 C1830 1.414 . S
C1831 C1832 1.374 . S
C1832 H1806 0.950 . S
C1832 C1828 1.385 . S
C1832 C1831 1.374 . S
C1833 C1830 1.499 . S
C1833 C1834 1.373 . S
C1833 C1835 1.389 . S
C1834 H1807 0.950 . S
C1834 C1820 1.377 . S
C1834 C1833 1.373 . S
C1835 C1819 1.377 . S
C1835 C1833 1.389 . S
C1835 C1836 1.524 . S
C1836 C1835 1.524 . S
C1836 C1837 1.397 . S
C1836 C1841 1.363 . S
C1837 H1808 0.950 . S
C1837 C1836 1.397 . S
C1837 C1838 1.334 . S
C1838 H1809 0.950 . S
C1838 C1837 1.334 . S
C1838 C1839 1.287 . S
C1839 C1838 1.287 . S
C1839 C1840 1.524 . S
C1839 H1842 0.999 . S
C1840 H1810 0.950 . S
C1840 C1839 1.524 . S
C1840 C1841 1.415 . S
C1841 H1811 0.950 . S
C1841 C1836 1.363 . S
C1841 C1840 1.415 . S
H1842 C1839 0.999 . S
H1843 C1824 0.913 . S
H1844 C1862 0.951 . S
H1845 C1864 0.951 . S
H1846 C1866 0.950 . S
H1847 C1867 0.950 . S
H1848 C1869 0.950 . S
H1849 C1872 0.950 . S
H1850 C1873 0.950 . S
H1851 C1875 0.950 . S
H1852 C1876 0.950 . S
H1853 C1877 0.951 . S
H1854 C1879 0.951 . S
H1855 C1881 0.950 . S
H1856 C1882 0.950 . S
H1857 C1884 0.950 . S
H1858 C1887 0.950 . S
H1859 C1888 0.950 . S
H1860 C1890 0.950 . S
H1861 C1891 0.950 . S
C1862 H1844 0.951 . S
C1862 C1863 1.366 . S
C1862 C1864 1.388 . S
C1863 C1862 1.366 . S
C1863 C1867 1.385 . S
C1864 H1845 0.951 . S
C1864 C1862 1.388 . S
C1864 C1865 1.366 . S
C1865 C1864 1.366 . S
C1865 C1866 1.414 . S
C1865 C1868 1.499 . S
C1866 H1846 0.950 . S
C1866 C1865 1.414 . S
C1866 C1867 1.374 . S
C1867 H1847 0.950 . S
C1867 C1863 1.385 . S
C1867 C1866 1.374 . S
C1868 C1865 1.499 . S
C1868 C1869 1.373 . S
C1868 C1870 1.389 . S
C1869 H1848 0.950 . S
C1869 C1868 1.373 . S
C1869 C1885 1.377 . S
C1870 C1868 1.389 . S
C1870 C1871 1.524 . S
C1870 C1884 1.377 . S
C1871 C1870 1.524 . S
C1871 C1872 1.397 . S
C1871 C1876 1.363 . S
C1872 H1849 0.950 . S
C1872 C1871 1.397 . S
C1872 C1873 1.334 . S
C1873 H1850 0.950 . S
C1873 C1872 1.334 . S
C1873 C1874 1.287 . S
C1874 C1873 1.287 . S
C1874 C1875 1.524 . S
C1874 H1893 0.913 . S
C1875 H1851 0.950 . S
C1875 C1874 1.524 . S
C1875 C1876 1.415 . S
C1876 H1852 0.950 . S
C1876 C1871 1.363 . S
C1876 C1875 1.415 . S
C1877 H1853 0.951 . S
C1877 C1878 1.366 . S
C1877 C1879 1.388 . S
C1878 C1877 1.366 . S
C1878 C1882 1.385 . S
C1879 H1854 0.951 . S
C1879 C1877 1.388 . S
C1879 C1880 1.366 . S
C1880 C1879 1.366 . S
C1880 C1881 1.414 . S
C1880 C1883 1.499 . S
C1881 H1855 0.950 . S
C1881 C1880 1.414 . S
C1881 C1882 1.374 . S
C1882 H1856 0.950 . S
C1882 C1878 1.385 . S
C1882 C1881 1.374 . S
C1883 C1880 1.499 . S
C1883 C1884 1.373 . S
C1883 C1885 1.389 . S
C1884 H1857 0.950 . S
C1884 C1870 1.377 . S
C1884 C1883 1.373 . S
C1885 C1869 1.377 . S
C1885 C1883 1.389 . S
C1885 C1886 1.524 . S
C1886 C1885 1.524 . S
C1886 C1887 1.397 . S
C1886 C1891 1.363 . S
C1887 H1858 0.950 . S
C1887 C1886 1.397 . S
C1887 C1888 1.334 . S
C1888 H1859 0.950 . S
C1888 C1887 1.334 . S
C1888 C1889 1.287 . S
C1889 C1888 1.287 . S
C1889 C1890 1.524 . S
C1889 H1892 0.999 . S
C1890 H1860 0.950 . S
C1890 C1889 1.524 . S
C1890 C1891 1.415 . S
C1891 H1861 0.950 . S
C1891 C1886 1.363 . S
C1891 C1890 1.415 . S
H1892 C1889 0.999 . S
H1893 C1874 0.913 . S
H1894 C1912 0.951 . S
H1895 C1914 0.951 . S
H1896 C1916 0.950 . S
H1897 C1917 0.950 . S
H1898 C1919 0.950 . S
H1899 C1922 0.950 . S
H1900 C1923 0.950 . S
H1901 C1925 0.950 . S
H1902 C1926 0.950 . S
H1903 C1927 0.951 . S
H1904 C1929 0.951 . S
H1905 C1931 0.950 . S
H1906 C1932 0.950 . S
H1907 C1934 0.950 . S
H1908 C1937 0.950 . S
H1909 C1938 0.950 . S
H1910 C1940 0.950 . S
H1911 C1941 0.950 . S
C1912 H1894 0.951 . S
C1912 C1913 1.366 . S
C1912 C1914 1.388 . S
C1913 C1912 1.366 . S
C1913 C1917 1.385 . S
C1914 H1895 0.951 . S
C1914 C1912 1.388 . S
C1914 C1915 1.366 . S
C1915 C1914 1.366 . S
C1915 C1916 1.414 . S
C1915 C1918 1.499 . S
C1916 H1896 0.950 . S
C1916 C1915 1.414 . S
C1916 C1917 1.374 . S
C1917 H1897 0.950 . S
C1917 C1913 1.385 . S
C1917 C1916 1.374 . S
C1918 C1915 1.499 . S
C1918 C1919 1.373 . S
C1918 C1920 1.389 . S
C1919 H1898 0.950 . S
C1919 C1918 1.373 . S
C1919 C1935 1.377 . S
C1920 C1918 1.389 . S
C1920 C1921 1.524 . S
C1920 C1934 1.377 . S
C1921 C1920 1.524 . S
C1921 C1922 1.397 . S
C1921 C1926 1.363 . S
C1922 H1899 0.950 . S
C1922 C1921 1.397 . S
C1922 C1923 1.334 . S
C1923 H1900 0.950 . S
C1923 C1922 1.334 . S
C1923 C1924 1.287 . S
C1924 C1923 1.287 . S
C1924 C1925 1.524 . S
C1924 H1943 0.913 . S
C1925 H1901 0.950 . S
C1925 C1924 1.524 . S
C1925 C1926 1.415 . S
C1926 H1902 0.950 . S
C1926 C1921 1.363 . S
C1926 C1925 1.415 . S
C1927 H1903 0.951 . S
C1927 C1928 1.366 . S
C1927 C1929 1.388 . S
C1928 C1927 1.366 . S
C1928 C1932 1.385 . S
C1929 H1904 0.951 . S
C1929 C1927 1.388 . S
C1929 C1930 1.366 . S
C1930 C1929 1.366 . S
C1930 C1931 1.414 . S
C1930 C1933 1.499 . S
C1931 H1905 0.950 . S
C1931 C1930 1.414 . S
C1931 C1932 1.374 . S
C1932 H1906 0.950 . S
C1932 C1928 1.385 . S
C1932 C1931 1.374 . S
C1933 C1930 1.499 . S
C1933 C1934 1.373 . S
C1933 C1935 1.389 . S
C1934 H1907 0.950 . S
C1934 C1920 1.377 . S
C1934 C1933 1.373 . S
C1935 C1919 1.377 . S
C1935 C1933 1.389 . S
C1935 C1936 1.524 . S
C1936 C1935 1.524 . S
C1936 C1937 1.397 . S
C1936 C1941 1.363 . S
C1937 H1908 0.950 . S
C1937 C1936 1.397 . S
C1937 C1938 1.334 . S
C1938 H1909 0.950 . S
C1938 C1937 1.334 . S
C1938 C1939 1.287 . S
C1939 C1938 1.287 . S
C1939 C1940 1.524 . S
C1939 H1942 0.999 . S
C1940 H1910 0.950 . S
C1940 C1939 1.524 . S
C1940 C1941 1.415 . S
C1941 H1911 0.950 . S
C1941 C1936 1.363 . S
C1941 C1940 1.415 . S
H1942 C1939 0.999 . S
H1943 C1924 0.913 . S
H1944 C1962 0.951 . S
H1945 C1964 0.951 . S
H1946 C1966 0.950 . S
H1947 C1967 0.950 . S
H1948 C1969 0.950 . S
H1949 C1972 0.950 . S
H1950 C1973 0.950 . S
H1951 C1975 0.950 . S
H1952 C1976 0.950 . S
H1953 C1977 0.951 . S
H1954 C1979 0.951 . S
H1955 C1981 0.950 . S
H1956 C1982 0.950 . S
H1957 C1984 0.950 . S
H1958 C1987 0.950 . S
H1959 C1988 0.950 . S
H1960 C1990 0.950 . S
H1961 C1991 0.950 . S
C1962 H1944 0.951 . S
C1962 C1963 1.366 . S
C1962 C1964 1.388 . S
C1963 C1962 1.366 . S
C1963 C1967 1.385 . S
C1964 H1945 0.951 . S
C1964 C1962 1.388 . S
C1964 C1965 1.366 . S
C1965 C1964 1.366 . S
C1965 C1966 1.414 . S
C1965 C1968 1.499 . S
C1966 H1946 0.950 . S
C1966 C1965 1.414 . S
C1966 C1967 1.374 . S
C1967 H1947 0.950 . S
C1967 C1963 1.385 . S
C1967 C1966 1.374 . S
C1968 C1965 1.499 . S
C1968 C1969 1.373 . S
C1968 C1970 1.389 . S
C1969 H1948 0.950 . S
C1969 C1968 1.373 . S
C1969 C1985 1.377 . S
C1970 C1968 1.389 . S
C1970 C1971 1.524 . S
C1970 C1984 1.377 . S
C1971 C1970 1.524 . S
C1971 C1972 1.397 . S
C1971 C1976 1.363 . S
C1972 H1949 0.950 . S
C1972 C1971 1.397 . S
C1972 C1973 1.334 . S
C1973 H1950 0.950 . S
C1973 C1972 1.334 . S
C1973 C1974 1.287 . S
C1974 C1973 1.287 . S
C1974 C1975 1.524 . S
C1974 H1993 0.913 . S
C1975 H1951 0.950 . S
C1975 C1974 1.524 . S
C1975 C1976 1.415 . S
C1976 H1952 0.950 . S
C1976 C1971 1.363 . S
C1976 C1975 1.415 . S
C1977 H1953 0.951 . S
C1977 C1978 1.366 . S
C1977 C1979 1.388 . S
C1978 C1977 1.366 . S
C1978 C1982 1.385 . S
C1979 H1954 0.951 . S
C1979 C1977 1.388 . S
C1979 C1980 1.366 . S
C1980 C1979 1.366 . S
C1980 C1981 1.414 . S
C1980 C1983 1.499 . S
C1981 H1955 0.950 . S
C1981 C1980 1.414 . S
C1981 C1982 1.374 . S
C1982 H1956 0.950 . S
C1982 C1978 1.385 . S
C1982 C1981 1.374 . S
C1983 C1980 1.499 . S
C1983 C1984 1.373 . S
C1983 C1985 1.389 . S
C1984 H1957 0.950 . S
C1984 C1970 1.377 . S
C1984 C1983 1.373 . S
C1985 C1969 1.377 . S
C1985 C1983 1.389 . S
C1985 C1986 1.524 . S
C1986 C1985 1.524 . S
C1986 C1987 1.397 . S
C1986 C1991 1.363 . S
C1987 H1958 0.950 . S
C1987 C1986 1.397 . S
C1987 C1988 1.334 . S
C1988 H1959 0.950 . S
C1988 C1987 1.334 . S
C1988 C1989 1.287 . S
C1989 C1988 1.287 . S
C1989 C1990 1.524 . S
C1989 H1992 0.999 . S
C1990 H1960 0.950 . S
C1990 C1989 1.524 . S
C1990 C1991 1.415 . S
C1991 H1961 0.950 . S
C1991 C1986 1.363 . S
C1991 C1990 1.415 . S
H1992 C1989 0.999 . S
H1993 C1974 0.913 . S
H1994 C2012 0.951 . S
H1995 C2014 0.951 . S
H1996 C2016 0.950 . S
H1997 C2017 0.950 . S
H1998 C2019 0.950 . S
H1999 C2022 0.950 . S
H2000 C2023 0.950 . S
H2001 C2025 0.950 . S
H2002 C2026 0.950 . S
H2003 C2027 0.951 . S
H2004 C2029 0.951 . S
H2005 C2031 0.950 . S
H2006 C2032 0.950 . S
H2007 C2034 0.950 . S
H2008 C2037 0.950 . S
H2009 C2038 0.950 . S
H2010 C2040 0.950 . S
H2011 C2041 0.950 . S
C2012 H1994 0.951 . S
C2012 C2013 1.366 . S
C2012 C2014 1.388 . S
C2013 C2012 1.366 . S
C2013 C2017 1.385 . S
C2014 H1995 0.951 . S
C2014 C2012 1.388 . S
C2014 C2015 1.366 . S
C2015 C2014 1.366 . S
C2015 C2016 1.414 . S
C2015 C2018 1.499 . S
C2016 H1996 0.950 . S
C2016 C2015 1.414 . S
C2016 C2017 1.374 . S
C2017 H1997 0.950 . S
C2017 C2013 1.385 . S
C2017 C2016 1.374 . S
C2018 C2015 1.499 . S
C2018 C2019 1.373 . S
C2018 C2020 1.389 . S
C2019 H1998 0.950 . S
C2019 C2018 1.373 . S
C2019 C2035 1.377 . S
C2020 C2018 1.389 . S
C2020 C2021 1.524 . S
C2020 C2034 1.377 . S
C2021 C2020 1.524 . S
C2021 C2022 1.397 . S
C2021 C2026 1.363 . S
C2022 H1999 0.950 . S
C2022 C2021 1.397 . S
C2022 C2023 1.334 . S
C2023 H2000 0.950 . S
C2023 C2022 1.334 . S
C2023 C2024 1.287 . S
C2024 C2023 1.287 . S
C2024 C2025 1.524 . S
C2024 H2043 0.913 . S
C2025 H2001 0.950 . S
C2025 C2024 1.524 . S
C2025 C2026 1.415 . S
C2026 H2002 0.950 . S
C2026 C2021 1.363 . S
C2026 C2025 1.415 . S
C2027 H2003 0.951 . S
C2027 C2028 1.366 . S
C2027 C2029 1.388 . S
C2028 C2027 1.366 . S
C2028 C2032 1.385 . S
C2029 H2004 0.951 . S
C2029 C2027 1.388 . S
C2029 C2030 1.366 . S
C2030 C2029 1.366 . S
C2030 C2031 1.414 . S
C2030 C2033 1.499 . S
C2031 H2005 0.950 . S
C2031 C2030 1.414 . S
C2031 C2032 1.374 . S
C2032 H2006 0.950 . S
C2032 C2028 1.385 . S
C2032 C2031 1.374 . S
C2033 C2030 1.499 . S
C2033 C2034 1.373 . S
C2033 C2035 1.389 . S
C2034 H2007 0.950 . S
C2034 C2020 1.377 . S
C2034 C2033 1.373 . S
C2035 C2019 1.377 . S
C2035 C2033 1.389 . S
C2035 C2036 1.524 . S
C2036 C2035 1.524 . S
C2036 C2037 1.397 . S
C2036 C2041 1.363 . S
C2037 H2008 0.950 . S
C2037 C2036 1.397 . S
C2037 C2038 1.334 . S
C2038 H2009 0.950 . S
C2038 C2037 1.334 . S
C2038 C2039 1.287 . S
C2039 C2038 1.287 . S
C2039 C2040 1.524 . S
C2039 H2042 0.999 . S
C2040 H2010 0.950 . S
C2040 C2039 1.524 . S
C2040 C2041 1.415 . S
C2041 H2011 0.950 . S
C2041 C2036 1.363 . S
C2041 C2040 1.415 . S
H2042 C2039 0.999 . S
H2043 C2024 0.913 . S
H2044 C2062 0.951 . S
H2045 C2064 0.951 . S
H2046 C2066 0.950 . S
H2047 C2067 0.950 . S
H2048 C2069 0.950 . S
H2049 C2072 0.950 . S
H2050 C2073 0.950 . S
H2051 C2075 0.950 . S
H2052 C2076 0.950 . S
H2053 C2077 0.951 . S
H2054 C2079 0.951 . S
H2055 C2081 0.950 . S
H2056 C2082 0.950 . S
H2057 C2084 0.950 . S
H2058 C2087 0.950 . S
H2059 C2088 0.950 . S
H2060 C2090 0.950 . S
H2061 C2091 0.950 . S
C2062 H2044 0.951 . S
C2062 C2063 1.366 . S
C2062 C2064 1.388 . S
C2063 C2062 1.366 . S
C2063 C2067 1.385 . S
C2064 H2045 0.951 . S
C2064 C2062 1.388 . S
C2064 C2065 1.366 . S
C2065 C2064 1.366 . S
C2065 C2066 1.414 . S
C2065 C2068 1.499 . S
C2066 H2046 0.950 . S
C2066 C2065 1.414 . S
C2066 C2067 1.374 . S
C2067 H2047 0.950 . S
C2067 C2063 1.385 . S
C2067 C2066 1.374 . S
C2068 C2065 1.499 . S
C2068 C2069 1.373 . S
C2068 C2070 1.389 . S
C2069 H2048 0.950 . S
C2069 C2068 1.373 . S
C2069 C2085 1.377 . S
C2070 C2068 1.389 . S
C2070 C2071 1.524 . S
C2070 C2084 1.377 . S
C2071 C2070 1.524 . S
C2071 C2072 1.397 . S
C2071 C2076 1.363 . S
C2072 H2049 0.950 . S
C2072 C2071 1.397 . S
C2072 C2073 1.334 . S
C2073 H2050 0.950 . S
C2073 C2072 1.334 . S
C2073 C2074 1.287 . S
C2074 C2073 1.287 . S
C2074 C2075 1.524 . S
C2074 H2093 0.913 . S
C2075 H2051 0.950 . S
C2075 C2074 1.524 . S
C2075 C2076 1.415 . S
C2076 H2052 0.950 . S
C2076 C2071 1.363 . S
C2076 C2075 1.415 . S
C2077 H2053 0.951 . S
C2077 C2078 1.366 . S
C2077 C2079 1.388 . S
C2078 C2077 1.366 . S
C2078 C2082 1.385 . S
C2079 H2054 0.951 . S
C2079 C2077 1.388 . S
C2079 C2080 1.366 . S
C2080 C2079 1.366 . S
C2080 C2081 1.414 . S
C2080 C2083 1.499 . S
C2081 H2055 0.950 . S
C2081 C2080 1.414 . S
C2081 C2082 1.374 . S
C2082 H2056 0.950 . S
C2082 C2078 1.385 . S
C2082 C2081 1.374 . S
C2083 C2080 1.499 . S
C2083 C2084 1.373 . S
C2083 C2085 1.389 . S
C2084 H2057 0.950 . S
C2084 C2070 1.377 . S
C2084 C2083 1.373 . S
C2085 C2069 1.377 . S
C2085 C2083 1.389 . S
C2085 C2086 1.524 . S
C2086 C2085 1.524 . S
C2086 C2087 1.397 . S
C2086 C2091 1.363 . S
C2087 H2058 0.950 . S
C2087 C2086 1.397 . S
C2087 C2088 1.334 . S
C2088 H2059 0.950 . S
C2088 C2087 1.334 . S
C2088 C2089 1.287 . S
C2089 C2088 1.287 . S
C2089 C2090 1.524 . S
C2089 H2092 0.999 . S
C2090 H2060 0.950 . S
C2090 C2089 1.524 . S
C2090 C2091 1.415 . S
C2091 H2061 0.950 . S
C2091 C2086 1.363 . S
C2091 C2090 1.415 . S
H2092 C2089 0.999 . S
H2093 C2074 0.913 . S
H2094 C2112 0.951 . S
H2095 C2114 0.951 . S
H2096 C2116 0.950 . S
H2097 C2117 0.950 . S
H2098 C2119 0.950 . S
H2099 C2122 0.950 . S
H2100 C2123 0.950 . S
H2101 C2125 0.950 . S
H2102 C2126 0.950 . S
H2103 C2127 0.951 . S
H2104 C2129 0.951 . S
H2105 C2131 0.950 . S
H2106 C2132 0.950 . S
H2107 C2134 0.950 . S
H2108 C2137 0.950 . S
H2109 C2138 0.950 . S
H2110 C2140 0.950 . S
H2111 C2141 0.950 . S
C2112 H2094 0.951 . S
C2112 C2113 1.366 . S
C2112 C2114 1.388 . S
C2113 C2112 1.366 . S
C2113 C2117 1.385 . S
C2114 H2095 0.951 . S
C2114 C2112 1.388 . S
C2114 C2115 1.366 . S
C2115 C2114 1.366 . S
C2115 C2116 1.414 . S
C2115 C2118 1.499 . S
C2116 H2096 0.950 . S
C2116 C2115 1.414 . S
C2116 C2117 1.374 . S
C2117 H2097 0.950 . S
C2117 C2113 1.385 . S
C2117 C2116 1.374 . S
C2118 C2115 1.499 . S
C2118 C2119 1.373 . S
C2118 C2120 1.389 . S
C2119 H2098 0.950 . S
C2119 C2118 1.373 . S
C2119 C2135 1.377 . S
C2120 C2118 1.389 . S
C2120 C2121 1.524 . S
C2120 C2134 1.377 . S
C2121 C2120 1.524 . S
C2121 C2122 1.397 . S
C2121 C2126 1.363 . S
C2122 H2099 0.950 . S
C2122 C2121 1.397 . S
C2122 C2123 1.334 . S
C2123 H2100 0.950 . S
C2123 C2122 1.334 . S
C2123 C2124 1.287 . S
C2124 C2123 1.287 . S
C2124 C2125 1.524 . S
C2124 H2143 0.913 . S
C2125 H2101 0.950 . S
C2125 C2124 1.524 . S
C2125 C2126 1.415 . S
C2126 H2102 0.950 . S
C2126 C2121 1.363 . S
C2126 C2125 1.415 . S
C2127 H2103 0.951 . S
C2127 C2128 1.366 . S
C2127 C2129 1.388 . S
C2128 C2127 1.366 . S
C2128 C2132 1.385 . S
C2129 H2104 0.951 . S
C2129 C2127 1.388 . S
C2129 C2130 1.366 . S
C2130 C2129 1.366 . S
C2130 C2131 1.414 . S
C2130 C2133 1.499 . S
C2131 H2105 0.950 . S
C2131 C2130 1.414 . S
C2131 C2132 1.374 . S
C2132 H2106 0.950 . S
C2132 C2128 1.385 . S
C2132 C2131 1.374 . S
C2133 C2130 1.499 . S
C2133 C2134 1.373 . S
C2133 C2135 1.389 . S
C2134 H2107 0.950 . S
C2134 C2120 1.377 . S
C2134 C2133 1.373 . S
C2135 C2119 1.377 . S
C2135 C2133 1.389 . S
C2135 C2136 1.524 . S
C2136 C2135 1.524 . S
C2136 C2137 1.397 . S
C2136 C2141 1.363 . S
C2137 H2108 0.950 . S
C2137 C2136 1.397 . S
C2137 C2138 1.334 . S
C2138 H2109 0.950 . S
C2138 C2137 1.334 . S
C2138 C2139 1.287 . S
C2139 C2138 1.287 . S
C2139 C2140 1.524 . S
C2139 H2142 0.999 . S
C2140 H2110 0.950 . S
C2140 C2139 1.524 . S
C2140 C2141 1.415 . S
C2141 H2111 0.950 . S
C2141 C2136 1.363 . S
C2141 C2140 1.415 . S
H2142 C2139 0.999 . S
H2143 C2124 0.913 . S
H2144 C2162 0.951 . S
H2145 C2164 0.951 . S
H2146 C2166 0.950 . S
H2147 C2167 0.950 . S
H2148 C2169 0.950 . S
H2149 C2172 0.950 . S
H2150 C2173 0.950 . S
H2151 C2175 0.950 . S
H2152 C2176 0.950 . S
H2153 C2177 0.951 . S
H2154 C2179 0.951 . S
H2155 C2181 0.950 . S
H2156 C2182 0.950 . S
H2157 C2184 0.950 . S
H2158 C2187 0.950 . S
H2159 C2188 0.950 . S
H2160 C2190 0.950 . S
H2161 C2191 0.950 . S
C2162 H2144 0.951 . S
C2162 C2163 1.366 . S
C2162 C2164 1.388 . S
C2163 C2162 1.366 . S
C2163 C2167 1.385 . S
C2164 H2145 0.951 . S
C2164 C2162 1.388 . S
C2164 C2165 1.366 . S
C2165 C2164 1.366 . S
C2165 C2166 1.414 . S
C2165 C2168 1.499 . S
C2166 H2146 0.950 . S
C2166 C2165 1.414 . S
C2166 C2167 1.374 . S
C2167 H2147 0.950 . S
C2167 C2163 1.385 . S
C2167 C2166 1.374 . S
C2168 C2165 1.499 . S
C2168 C2169 1.373 . S
C2168 C2170 1.389 . S
C2169 H2148 0.950 . S
C2169 C2168 1.373 . S
C2169 C2185 1.377 . S
C2170 C2168 1.389 . S
C2170 C2171 1.524 . S
C2170 C2184 1.377 . S
C2171 C2170 1.524 . S
C2171 C2172 1.397 . S
C2171 C2176 1.363 . S
C2172 H2149 0.950 . S
C2172 C2171 1.397 . S
C2172 C2173 1.334 . S
C2173 H2150 0.950 . S
C2173 C2172 1.334 . S
C2173 C2174 1.287 . S
C2174 C2173 1.287 . S
C2174 C2175 1.524 . S
C2174 H2193 0.913 . S
C2175 H2151 0.950 . S
C2175 C2174 1.524 . S
C2175 C2176 1.415 . S
C2176 H2152 0.950 . S
C2176 C2171 1.363 . S
C2176 C2175 1.415 . S
C2177 H2153 0.951 . S
C2177 C2178 1.366 . S
C2177 C2179 1.388 . S
C2178 C2177 1.366 . S
C2178 C2182 1.385 . S
C2179 H2154 0.951 . S
C2179 C2177 1.388 . S
C2179 C2180 1.366 . S
C2180 C2179 1.366 . S
C2180 C2181 1.414 . S
C2180 C2183 1.499 . S
C2181 H2155 0.950 . S
C2181 C2180 1.414 . S
C2181 C2182 1.374 . S
C2182 H2156 0.950 . S
C2182 C2178 1.385 . S
C2182 C2181 1.374 . S
C2183 C2180 1.499 . S
C2183 C2184 1.373 . S
C2183 C2185 1.389 . S
C2184 H2157 0.950 . S
C2184 C2170 1.377 . S
C2184 C2183 1.373 . S
C2185 C2169 1.377 . S
C2185 C2183 1.389 . S
C2185 C2186 1.524 . S
C2186 C2185 1.524 . S
C2186 C2187 1.397 . S
C2186 C2191 1.363 . S
C2187 H2158 0.950 . S
C2187 C2186 1.397 . S
C2187 C2188 1.334 . S
C2188 H2159 0.950 . S
C2188 C2187 1.334 . S
C2188 C2189 1.287 . S
C2189 C2188 1.287 . S
C2189 C2190 1.524 . S
C2189 H2192 0.999 . S
C2190 H2160 0.950 . S
C2190 C2189 1.524 . S
C2190 C2191 1.415 . S
C2191 H2161 0.950 . S
C2191 C2186 1.363 . S
C2191 C2190 1.415 . S
H2192 C2189 0.999 . S
H2193 C2174 0.913 . S
H2194 C2212 0.951 . S
H2195 C2214 0.951 . S
H2196 C2216 0.950 . S
H2197 C2217 0.950 . S
H2198 C2219 0.950 . S
H2199 C2222 0.950 . S
H2200 C2223 0.950 . S
H2201 C2225 0.950 . S
H2202 C2226 0.950 . S
H2203 C2227 0.951 . S
H2204 C2229 0.951 . S
H2205 C2231 0.950 . S
H2206 C2232 0.950 . S
H2207 C2234 0.950 . S
H2208 C2237 0.950 . S
H2209 C2238 0.950 . S
H2210 C2240 0.950 . S
H2211 C2241 0.950 . S
C2212 H2194 0.951 . S
C2212 C2213 1.366 . S
C2212 C2214 1.388 . S
C2213 C2212 1.366 . S
C2213 C2217 1.385 . S
C2214 H2195 0.951 . S
C2214 C2212 1.388 . S
C2214 C2215 1.366 . S
C2215 C2214 1.366 . S
C2215 C2216 1.414 . S
C2215 C2218 1.499 . S
C2216 H2196 0.950 . S
C2216 C2215 1.414 . S
C2216 C2217 1.374 . S
C2217 H2197 0.950 . S
C2217 C2213 1.385 . S
C2217 C2216 1.374 . S
C2218 C2215 1.499 . S
C2218 C2219 1.373 . S
C2218 C2220 1.389 . S
C2219 H2198 0.950 . S
C2219 C2218 1.373 . S
C2219 C2235 1.377 . S
C2220 C2218 1.389 . S
C2220 C2221 1.524 . S
C2220 C2234 1.377 . S
C2221 C2220 1.524 . S
C2221 C2222 1.397 . S
C2221 C2226 1.363 . S
C2222 H2199 0.950 . S
C2222 C2221 1.397 . S
C2222 C2223 1.334 . S
C2223 H2200 0.950 . S
C2223 C2222 1.334 . S
C2223 C2224 1.287 . S
C2224 C2223 1.287 . S
C2224 C2225 1.524 . S
C2224 H2243 0.913 . S
C2225 H2201 0.950 . S
C2225 C2224 1.524 . S
C2225 C2226 1.415 . S
C2226 H2202 0.950 . S
C2226 C2221 1.363 . S
C2226 C2225 1.415 . S
C2227 H2203 0.951 . S
C2227 C2228 1.366 . S
C2227 C2229 1.388 . S
C2228 C2227 1.366 . S
C2228 C2232 1.385 . S
C2229 H2204 0.951 . S
C2229 C2227 1.388 . S
C2229 C2230 1.366 . S
C2230 C2229 1.366 . S
C2230 C2231 1.414 . S
C2230 C2233 1.499 . S
C2231 H2205 0.950 . S
C2231 C2230 1.414 . S
C2231 C2232 1.374 . S
C2232 H2206 0.950 . S
C2232 C2228 1.385 . S
C2232 C2231 1.374 . S
C2233 C2230 1.499 . S
C2233 C2234 1.373 . S
C2233 C2235 1.389 . S
C2234 H2207 0.950 . S
C2234 C2220 1.377 . S
C2234 C2233 1.373 . S
C2235 C2219 1.377 . S
C2235 C2233 1.389 . S
C2235 C2236 1.524 . S
C2236 C2235 1.524 . S
C2236 C2237 1.397 . S
C2236 C2241 1.363 . S
C2237 H2208 0.950 . S
C2237 C2236 1.397 . S
C2237 C2238 1.334 . S
C2238 H2209 0.950 . S
C2238 C2237 1.334 . S
C2238 C2239 1.287 . S
C2239 C2238 1.287 . S
C2239 C2240 1.524 . S
C2239 H2242 0.999 . S
C2240 H2210 0.950 . S
C2240 C2239 1.524 . S
C2240 C2241 1.415 . S
C2241 H2211 0.950 . S
C2241 C2236 1.363 . S
C2241 C2240 1.415 . S
H2242 C2239 0.999 . S
H2243 C2224 0.913 . S
H2244 C2262 0.951 . S
H2245 C2264 0.951 . S
H2246 C2266 0.950 . S
H2247 C2267 0.950 . S
H2248 C2269 0.950 . S
H2249 C2272 0.950 . S
H2250 C2273 0.950 . S
H2251 C2275 0.950 . S
H2252 C2276 0.950 . S
H2253 C2277 0.951 . S
H2254 C2279 0.951 . S
H2255 C2281 0.950 . S
H2256 C2282 0.950 . S
H2257 C2284 0.950 . S
H2258 C2287 0.950 . S
H2259 C2288 0.950 . S
H2260 C2290 0.950 . S
H2261 C2291 0.950 . S
C2262 H2244 0.951 . S
C2262 C2263 1.366 . S
C2262 C2264 1.388 . S
C2263 C2262 1.366 . S
C2263 C2267 1.385 . S
C2264 H2245 0.951 . S
C2264 C2262 1.388 . S
C2264 C2265 1.366 . S
C2265 C2264 1.366 . S
C2265 C2266 1.414 . S
C2265 C2268 1.499 . S
C2266 H2246 0.950 . S
C2266 C2265 1.414 . S
C2266 C2267 1.374 . S
C2267 H2247 0.950 . S
C2267 C2263 1.385 . S
C2267 C2266 1.374 . S
C2268 C2265 1.499 . S
C2268 C2269 1.373 . S
C2268 C2270 1.389 . S
C2269 H2248 0.950 . S
C2269 C2268 1.373 . S
C2269 C2285 1.377 . S
C2270 C2268 1.389 . S
C2270 C2271 1.524 . S
C2270 C2284 1.377 . S
C2271 C2270 1.524 . S
C2271 C2272 1.397 . S
C2271 C2276 1.363 . S
C2272 H2249 0.950 . S
C2272 C2271 1.397 . S
C2272 C2273 1.334 . S
C2273 H2250 0.950 . S
C2273 C2272 1.334 . S
C2273 C2274 1.287 . S
C2274 C2273 1.287 . S
C2274 C2275 1.524 . S
C2274 H2293 0.913 . S
C2275 H2251 0.950 . S
C2275 C2274 1.524 . S
C2275 C2276 1.415 . S
C2276 H2252 0.950 . S
C2276 C2271 1.363 . S
C2276 C2275 1.415 . S
C2277 H2253 0.951 . S
C2277 C2278 1.366 . S
C2277 C2279 1.388 . S
C2278 C2277 1.366 . S
C2278 C2282 1.385 . S
C2279 H2254 0.951 . S
C2279 C2277 1.388 . S
C2279 C2280 1.366 . S
C2280 C2279 1.366 . S
C2280 C2281 1.414 . S
C2280 C2283 1.499 . S
C2281 H2255 0.950 . S
C2281 C2280 1.414 . S
C2281 C2282 1.374 . S
C2282 H2256 0.950 . S
C2282 C2278 1.385 . S
C2282 C2281 1.374 . S
C2283 C2280 1.499 . S
C2283 C2284 1.373 . S
C2283 C2285 1.389 . S
C2284 H2257 0.950 . S
C2284 C2270 1.377 . S
C2284 C2283 1.373 . S
C2285 C2269 1.377 . S
C2285 C2283 1.389 . S
C2285 C2286 1.524 . S
C2286 C2285 1.524 . S
C2286 C2287 1.397 . S
C2286 C2291 1.363 . S
C2287 H2258 0.950 . S
C2287 C2286 1.397 . S
C2287 C2288 1.334 . S
C2288 H2259 0.950 . S
C2288 C2287 1.334 . S
C2288 C2289 1.287 . S
C2289 C2288 1.287 . S
C2289 C2290 1.524 . S
C2289 H2292 0.999 . S
C2290 H2260 0.950 . S
C2290 C2289 1.524 . S
C2290 C2291 1.415 . S
C2291 H2261 0.950 . S
C2291 C2286 1.363 . S
C2291 C2290 1.415 . S
H2292 C2289 0.999 . S
H2293 C2274 0.913 . S
H2294 C2312 0.951 . S
H2295 C2314 0.951 . S
H2296 C2316 0.950 . S
H2297 C2317 0.950 . S
H2298 C2319 0.950 . S
H2299 C2322 0.950 . S
H2300 C2323 0.950 . S
H2301 C2325 0.950 . S
H2302 C2326 0.950 . S
H2303 C2327 0.951 . S
H2304 C2329 0.951 . S
H2305 C2331 0.950 . S
H2306 C2332 0.950 . S
H2307 C2334 0.950 . S
H2308 C2337 0.950 . S
H2309 C2338 0.950 . S
H2310 C2340 0.950 . S
H2311 C2341 0.950 . S
C2312 H2294 0.951 . S
C2312 C2313 1.366 . S
C2312 C2314 1.388 . S
C2313 C2312 1.366 . S
C2313 C2317 1.385 . S
C2314 H2295 0.951 . S
C2314 C2312 1.388 . S
C2314 C2315 1.366 . S
C2315 C2314 1.366 . S
C2315 C2316 1.414 . S
C2315 C2318 1.499 . S
C2316 H2296 0.950 . S
C2316 C2315 1.414 . S
C2316 C2317 1.374 . S
C2317 H2297 0.950 . S
C2317 C2313 1.385 . S
C2317 C2316 1.374 . S
C2318 C2315 1.499 . S
C2318 C2319 1.373 . S
C2318 C2320 1.389 . S
C2319 H2298 0.950 . S
C2319 C2318 1.373 . S
C2319 C2335 1.377 . S
C2320 C2318 1.389 . S
C2320 C2321 1.524 . S
C2320 C2334 1.377 . S
C2321 C2320 1.524 . S
C2321 C2322 1.397 . S
C2321 C2326 1.363 . S
C2322 H2299 0.950 . S
C2322 C2321 1.397 . S
C2322 C2323 1.334 . S
C2323 H2300 0.950 . S
C2323 C2322 1.334 . S
C2323 C2324 1.287 . S
C2324 C2323 1.287 . S
C2324 C2325 1.524 . S
C2324 H2343 0.913 . S
C2325 H2301 0.950 . S
C2325 C2324 1.524 . S
C2325 C2326 1.415 . S
C2326 H2302 0.950 . S
C2326 C2321 1.363 . S
C2326 C2325 1.415 . S
C2327 H2303 0.951 . S
C2327 C2328 1.366 . S
C2327 C2329 1.388 . S
C2328 C2327 1.366 . S
C2328 C2332 1.385 . S
C2329 H2304 0.951 . S
C2329 C2327 1.388 . S
C2329 C2330 1.366 . S
C2330 C2329 1.366 . S
C2330 C2331 1.414 . S
C2330 C2333 1.499 . S
C2331 H2305 0.950 . S
C2331 C2330 1.414 . S
C2331 C2332 1.374 . S
C2332 H2306 0.950 . S
C2332 C2328 1.385 . S
C2332 C2331 1.374 . S
C2333 C2330 1.499 . S
C2333 C2334 1.373 . S
C2333 C2335 1.389 . S
C2334 H2307 0.950 . S
C2334 C2320 1.377 . S
C2334 C2333 1.373 . S
C2335 C2319 1.377 . S
C2335 C2333 1.389 . S
C2335 C2336 1.524 . S
C2336 C2335 1.524 . S
C2336 C2337 1.397 . S
C2336 C2341 1.363 . S
C2337 H2308 0.950 . S
C2337 C2336 1.397 . S
C2337 C2338 1.334 . S
C2338 H2309 0.950 . S
C2338 C2337 1.334 . S
C2338 C2339 1.287 . S
C2339 C2338 1.287 . S
C2339 C2340 1.524 . S
C2339 H2342 0.999 . S
C2340 H2310 0.950 . S
C2340 C2339 1.524 . S
C2340 C2341 1.415 . S
C2341 H2311 0.950 . S
C2341 C2336 1.363 . S
C2341 C2340 1.415 . S
H2342 C2339 0.999 . S
H2343 C2324 0.913 . S
H2344 C2362 0.951 . S
H2345 C2364 0.951 . S
H2346 C2366 0.950 . S
H2347 C2367 0.950 . S
H2348 C2369 0.950 . S
H2349 C2372 0.950 . S
H2350 C2373 0.950 . S
H2351 C2375 0.950 . S
H2352 C2376 0.950 . S
H2353 C2377 0.951 . S
H2354 C2379 0.951 . S
H2355 C2381 0.950 . S
H2356 C2382 0.950 . S
H2357 C2384 0.950 . S
H2358 C2387 0.950 . S
H2359 C2388 0.950 . S
H2360 C2390 0.950 . S
H2361 C2391 0.950 . S
C2362 H2344 0.951 . S
C2362 C2363 1.366 . S
C2362 C2364 1.388 . S
C2363 C2362 1.366 . S
C2363 C2367 1.385 . S
C2364 H2345 0.951 . S
C2364 C2362 1.388 . S
C2364 C2365 1.366 . S
C2365 C2364 1.366 . S
C2365 C2366 1.414 . S
C2365 C2368 1.499 . S
C2366 H2346 0.950 . S
C2366 C2365 1.414 . S
C2366 C2367 1.374 . S
C2367 H2347 0.950 . S
C2367 C2363 1.385 . S
C2367 C2366 1.374 . S
C2368 C2365 1.499 . S
C2368 C2369 1.373 . S
C2368 C2370 1.389 . S
C2369 H2348 0.950 . S
C2369 C2368 1.373 . S
C2369 C2385 1.377 . S
C2370 C2368 1.389 . S
C2370 C2371 1.524 . S
C2370 C2384 1.377 . S
C2371 C2370 1.524 . S
C2371 C2372 1.397 . S
C2371 C2376 1.363 . S
C2372 H2349 0.950 . S
C2372 C2371 1.397 . S
C2372 C2373 1.334 . S
C2373 H2350 0.950 . S
C2373 C2372 1.334 . S
C2373 C2374 1.287 . S
C2374 C2373 1.287 . S
C2374 C2375 1.524 . S
C2374 H2393 0.913 . S
C2375 H2351 0.950 . S
C2375 C2374 1.524 . S
C2375 C2376 1.415 . S
C2376 H2352 0.950 . S
C2376 C2371 1.363 . S
C2376 C2375 1.415 . S
C2377 H2353 0.951 . S
C2377 C2378 1.366 . S
C2377 C2379 1.388 . S
C2378 C2377 1.366 . S
C2378 C2382 1.385 . S
C2379 H2354 0.951 . S
C2379 C2377 1.388 . S
C2379 C2380 1.366 . S
C2380 C2379 1.366 . S
C2380 C2381 1.414 . S
C2380 C2383 1.499 . S
C2381 H2355 0.950 . S
C2381 C2380 1.414 . S
C2381 C2382 1.374 . S
C2382 H2356 0.950 . S
C2382 C2378 1.385 . S
C2382 C2381 1.374 . S
C2383 C2380 1.499 . S
C2383 C2384 1.373 . S
C2383 C2385 1.389 . S
C2384 H2357 0.950 . S
C2384 C2370 1.377 . S
C2384 C2383 1.373 . S
C2385 C2369 1.377 . S
C2385 C2383 1.389 . S
C2385 C2386 1.524 . S
C2386 C2385 1.524 . S
C2386 C2387 1.397 . S
C2386 C2391 1.363 . S
C2387 H2358 0.950 . S
C2387 C2386 1.397 . S
C2387 C2388 1.334 . S
C2388 H2359 0.950 . S
C2388 C2387 1.334 . S
C2388 C2389 1.287 . S
C2389 C2388 1.287 . S
C2389 C2390 1.524 . S
C2389 H2392 0.999 . S
C2390 H2360 0.950 . S
C2390 C2389 1.524 . S
C2390 C2391 1.415 . S
C2391 H2361 0.950 . S
C2391 C2386 1.363 . S
C2391 C2390 1.415 . S
H2392 C2389 0.999 . S
H2393 C2374 0.913 . S
H2394 C2412 0.951 . S
H2395 C2414 0.951 . S
H2396 C2416 0.950 . S
H2397 C2417 0.950 . S
H2398 C2419 0.950 . S
H2399 C2422 0.950 . S
H2400 C2423 0.950 . S
H2401 C2425 0.950 . S
H2402 C2426 0.950 . S
H2403 C2427 0.951 . S
H2404 C2429 0.951 . S
H2405 C2431 0.950 . S
H2406 C2432 0.950 . S
H2407 C2434 0.950 . S
H2408 C2437 0.950 . S
H2409 C2438 0.950 . S
H2410 C2440 0.950 . S
H2411 C2441 0.950 . S
C2412 H2394 0.951 . S
C2412 C2413 1.366 . S
C2412 C2414 1.388 . S
C2413 C2412 1.366 . S
C2413 C2417 1.385 . S
C2414 H2395 0.951 . S
C2414 C2412 1.388 . S
C2414 C2415 1.366 . S
C2415 C2414 1.366 . S
C2415 C2416 1.414 . S
C2415 C2418 1.499 . S
C2416 H2396 0.950 . S
C2416 C2415 1.414 . S
C2416 C2417 1.374 . S
C2417 H2397 0.950 . S
C2417 C2413 1.385 . S
C2417 C2416 1.374 . S
C2418 C2415 1.499 . S
C2418 C2419 1.373 . S
C2418 C2420 1.389 . S
C2419 H2398 0.950 . S
C2419 C2418 1.373 . S
C2419 C2435 1.377 . S
C2420 C2418 1.389 . S
C2420 C2421 1.524 . S
C2420 C2434 1.377 . S
C2421 C2420 1.524 . S
C2421 C2422 1.397 . S
C2421 C2426 1.363 . S
C2422 H2399 0.950 . S
C2422 C2421 1.397 . S
C2422 C2423 1.334 . S
C2423 H2400 0.950 . S
C2423 C2422 1.334 . S
C2423 C2424 1.287 . S
C2424 C2423 1.287 . S
C2424 C2425 1.524 . S
C2424 H2443 0.913 . S
C2425 H2401 0.950 . S
C2425 C2424 1.524 . S
C2425 C2426 1.415 . S
C2426 H2402 0.950 . S
C2426 C2421 1.363 . S
C2426 C2425 1.415 . S
C2427 H2403 0.951 . S
C2427 C2428 1.366 . S
C2427 C2429 1.388 . S
C2428 C2427 1.366 . S
C2428 C2432 1.385 . S
C2429 H2404 0.951 . S
C2429 C2427 1.388 . S
C2429 C2430 1.366 . S
C2430 C2429 1.366 . S
C2430 C2431 1.414 . S
C2430 C2433 1.499 . S
C2431 H2405 0.950 . S
C2431 C2430 1.414 . S
C2431 C2432 1.374 . S
C2432 H2406 0.950 . S
C2432 C2428 1.385 . S
C2432 C2431 1.374 . S
C2433 C2430 1.499 . S
C2433 C2434 1.373 . S
C2433 C2435 1.389 . S
C2434 H2407 0.950 . S
C2434 C2420 1.377 . S
C2434 C2433 1.373 . S
C2435 C2419 1.377 . S
C2435 C2433 1.389 . S
C2435 C2436 1.524 . S
C2436 C2435 1.524 . S
C2436 C2437 1.397 . S
C2436 C2441 1.363 . S
C2437 H2408 0.950 . S
C2437 C2436 1.397 . S
C2437 C2438 1.334 . S
C2438 H2409 0.950 . S
C2438 C2437 1.334 . S
C2438 C2439 1.287 . S
C2439 C2438 1.287 . S
C2439 C2440 1.524 . S
C2439 H2442 0.999 . S
C2440 H2410 0.950 . S
C2440 C2439 1.524 . S
C2440 C2441 1.415 . S
C2441 H2411 0.950 . S
C2441 C2436 1.363 . S
C2441 C2440 1.415 . S
H2442 C2439 0.999 . S
H2443 C2424 0.913 . S
H2444 C2462 0.951 . S
H2445 C2464 0.951 . S
H2446 C2466 0.950 . S
H2447 C2467 0.950 . S
H2448 C2469 0.950 . S
H2449 C2472 0.950 . S
H2450 C2473 0.950 . S
H2451 C2475 0.950 . S
H2452 C2476 0.950 . S
H2453 C2477 0.951 . S
H2454 C2479 0.951 . S
H2455 C2481 0.950 . S
H2456 C2482 0.950 . S
H2457 C2484 0.950 . S
H2458 C2487 0.950 . S
H2459 C2488 0.950 . S
H2460 C2490 0.950 . S
H2461 C2491 0.950 . S
C2462 H2444 0.951 . S
C2462 C2463 1.366 . S
C2462 C2464 1.388 . S
C2463 C2462 1.366 . S
C2463 C2467 1.385 . S
C2464 H2445 0.951 . S
C2464 C2462 1.388 . S
C2464 C2465 1.366 . S
C2465 C2464 1.366 . S
C2465 C2466 1.414 . S
C2465 C2468 1.499 . S
C2466 H2446 0.950 . S
C2466 C2465 1.414 . S
C2466 C2467 1.374 . S
C2467 H2447 0.950 . S
C2467 C2463 1.385 . S
C2467 C2466 1.374 . S
C2468 C2465 1.499 . S
C2468 C2469 1.373 . S
C2468 C2470 1.389 . S
C2469 H2448 0.950 . S
C2469 C2468 1.373 . S
C2469 C2485 1.377 . S
C2470 C2468 1.389 . S
C2470 C2471 1.524 . S
C2470 C2484 1.377 . S
C2471 C2470 1.524 . S
C2471 C2472 1.397 . S
C2471 C2476 1.363 . S
C2472 H2449 0.950 . S
C2472 C2471 1.397 . S
C2472 C2473 1.334 . S
C2473 H2450 0.950 . S
C2473 C2472 1.334 . S
C2473 C2474 1.287 . S
C2474 C2473 1.287 . S
C2474 C2475 1.524 . S
C2474 H2493 0.913 . S
C2475 H2451 0.950 . S
C2475 C2474 1.524 . S
C2475 C2476 1.415 . S
C2476 H2452 0.950 . S
C2476 C2471 1.363 . S
C2476 C2475 1.415 . S
C2477 H2453 0.951 . S
C2477 C2478 1.366 . S
C2477 C2479 1.388 . S
C2478 C2477 1.366 . S
C2478 C2482 1.385 . S
C2479 H2454 0.951 . S
C2479 C2477 1.388 . S
C2479 C2480 1.366 . S
C2480 C2479 1.366 . S
C2480 C2481 1.414 . S
C2480 C2483 1.499 . S
C2481 H2455 0.950 . S
C2481 C2480 1.414 . S
C2481 C2482 1.374 . S
C2482 H2456 0.950 . S
C2482 C2478 1.385 . S
C2482 C2481 1.374 . S
C2483 C2480 1.499 . S
C2483 C2484 1.373 . S
C2483 C2485 1.389 . S
C2484 H2457 0.950 . S
C2484 C2470 1.377 . S
C2484 C2483 1.373 . S
C2485 C2469 1.377 . S
C2485 C2483 1.389 . S
C2485 C2486 1.524 . S
C2486 C2485 1.524 . S
C2486 C2487 1.397 . S
C2486 C2491 1.363 . S
C2487 H2458 0.950 . S
C2487 C2486 1.397 . S
C2487 C2488 1.334 . S
C2488 H2459 0.950 . S
C2488 C2487 1.334 . S
C2488 C2489 1.287 . S
C2489 C2488 1.287 . S
C2489 C2490 1.524 . S
C2489 H2492 0.999 . S
C2490 H2460 0.950 . S
C2490 C2489 1.524 . S
C2490 C2491 1.415 . S
C2491 H2461 0.950 . S
C2491 C2486 1.363 . S
C2491 C2490 1.415 . S
H2492 C2489 0.999 . S
H2493 C2474 0.913 . S
H2494 C2512 0.951 . S
H2495 C2514 0.951 . S
H2496 C2516 0.950 . S
H2497 C2517 0.950 . S
H2498 C2519 0.950 . S
H2499 C2522 0.950 . S
H2500 C2523 0.950 . S
H2501 C2525 0.950 . S
H2502 C2526 0.950 . S
H2503 C2527 0.951 . S
H2504 C2529 0.951 . S
H2505 C2531 0.950 . S
H2506 C2532 0.950 . S
H2507 C2534 0.950 . S
H2508 C2537 0.950 . S
H2509 C2538 0.950 . S
H2510 C2540 0.950 . S
H2511 C2541 0.950 . S
C2512 H2494 0.951 . S
C2512 C2513 1.366 . S
C2512 C2514 1.388 . S
C2513 C2512 1.366 . S
C2513 C2517 1.385 . S
C2514 H2495 0.951 . S
C2514 C2512 1.388 . S
C2514 C2515 1.366 . S
C2515 C2514 1.366 . S
C2515 C2516 1.414 . S
C2515 C2518 1.499 . S
C2516 H2496 0.950 . S
C2516 C2515 1.414 . S
C2516 C2517 1.374 . S
C2517 H2497 0.950 . S
C2517 C2513 1.385 . S
C2517 C2516 1.374 . S
C2518 C2515 1.499 . S
C2518 C2519 1.373 . S
C2518 C2520 1.389 . S
C2519 H2498 0.950 . S
C2519 C2518 1.373 . S
C2519 C2535 1.377 . S
C2520 C2518 1.389 . S
C2520 C2521 1.524 . S
C2520 C2534 1.377 . S
C2521 C2520 1.524 . S
C2521 C2522 1.397 . S
C2521 C2526 1.363 . S
C2522 H2499 0.950 . S
C2522 C2521 1.397 . S
C2522 C2523 1.334 . S
C2523 H2500 0.950 . S
C2523 C2522 1.334 . S
C2523 C2524 1.287 . S
C2524 C2523 1.287 . S
C2524 C2525 1.524 . S
C2524 H2543 0.913 . S
C2525 H2501 0.950 . S
C2525 C2524 1.524 . S
C2525 C2526 1.415 . S
C2526 H2502 0.950 . S
C2526 C2521 1.363 . S
C2526 C2525 1.415 . S
C2527 H2503 0.951 . S
C2527 C2528 1.366 . S
C2527 C2529 1.388 . S
C2528 C2527 1.366 . S
C2528 C2532 1.385 . S
C2529 H2504 0.951 . S
C2529 C2527 1.388 . S
C2529 C2530 1.366 . S
C2530 C2529 1.366 . S
C2530 C2531 1.414 . S
C2530 C2533 1.499 . S
C2531 H2505 0.950 . S
C2531 C2530 1.414 . S
C2531 C2532 1.374 . S
C2532 H2506 0.950 . S
C2532 C2528 1.385 . S
C2532 C2531 1.374 . S
C2533 C2530 1.499 . S
C2533 C2534 1.373 . S
C2533 C2535 1.389 . S
C2534 H2507 0.950 . S
C2534 C2520 1.377 . S
C2534 C2533 1.373 . S
C2535 C2519 1.377 . S
C2535 C2533 1.389 . S
C2535 C2536 1.524 . S
C2536 C2535 1.524 . S
C2536 C2537 1.397 . S
C2536 C2541 1.363 . S
C2537 H2508 0.950 . S
C2537 C2536 1.397 . S
C2537 C2538 1.334 . S
C2538 H2509 0.950 . S
C2538 C2537 1.334 . S
C2538 C2539 1.287 . S
C2539 C2538 1.287 . S
C2539 C2540 1.524 . S
C2539 H2542 0.999 . S
C2540 H2510 0.950 . S
C2540 C2539 1.524 . S
C2540 C2541 1.415 . S
C2541 H2511 0.950 . S
C2541 C2536 1.363 . S
C2541 C2540 1.415 . S
H2542 C2539 0.999 . S
H2543 C2524 0.913 . S
C563 C413 1.486 . S
C578 C9 1.408 . S
C613 C43 1.299 . S
C628 C447 1.389 . S
C663 C77 1.400 . S
C678 C481 1.478 . S
C713 C107 1.398 . S
C728 C519 1.301 . S
C763 C281 1.404 . S
C778 C141 1.479 . S
C813 C311 1.571 . S
C828 C179 1.468 . S
C863 C209 1.472 . S
C878 C349 1.390 . S
C913 C383 1.479 . S
C928 C243 1.584 . S
C963 C33 1.443 . S
C978 C509 1.443 . S
C1013 C543 1.608 . S
C1028 C67 1.606 . S
C1063 C441 1.429 . S
C1078 C101 1.431 . S
C1113 C475 1.612 . S
C1128 C135 1.614 . S
C1163 C373 1.837 . S
C1178 C169 1.836 . S
C1213 C407 1.615 . S
C1228 C203 1.615 . S
C1263 C305 1.839 . S
C1278 C237 1.839 . S
C1313 C339 1.622 . S
C1328 C271 1.621 . S
C1363 C20 1.366 . S
C1378 C342 1.371 . S
C1413 C376 1.406 . S
C1428 C54 1.432 . S
C1463 C274 1.431 . S
C1478 C88 1.422 . S
C1513 C326 1.400 . S
C1528 C104 1.380 . S
C1563 C138 1.375 . S
C1578 C496 1.364 . S
C1613 C190 1.363 . S
C1628 C512 1.337 . S
C1663 C428 1.322 . S
C1678 C206 1.333 . S
C1713 C240 1.309 . S
C1728 C462 1.327 . S
C1763 C417 1.372 . S
C1778 C5 1.449 . S
C1813 C39 1.546 . S
C1828 C451 1.442 . S
C1863 C73 1.447 . S
C1878 C485 1.361 . S
C1913 C515 1.534 . S
C1928 C111 1.448 . S
C1963 C277 1.443 . S
C1978 C145 1.364 . S
C2013 C175 1.351 . S
C2028 C315 1.269 . S
C2063 C345 1.453 . S
C2078 C213 1.380 . S
C2113 C379 1.350 . S
C2128 C247 1.266 . S
C2163 C172 1.575 . S
C2178 C2 1.573 . S
C2213 C224 1.614 . S
C2228 C36 1.620 . S
C2263 C70 1.120 . S
C2278 C258 1.116 . S
C2313 C156 1.201 . S
C2328 C122 1.199 . S
C2363 C292 1.640 . S
C2378 C444 1.660 . S
C2413 C478 1.495 . S
C2428 C308 1.492 . S
C2463 C530 1.289 . S
C2478 C360 1.285 . S
C2513 C394 1.190 . S
C2528 C410 1.206 . S
