# Generated by pormake.
# Topology wjh, (4)-cn, num edge types: 1
# Building blocks:
#     Node 0, Type 0, BuildingBlock: TATPOV_clean_sbu_0, # of connection points: 4
#     Node 1, Type 0, BuildingBlock: TATPOV_clean_sbu_0, # of connection points: 4
#     Node 2, Type 0, BuildingBlock: TATPOV_clean_sbu_0, # of connection points: 4
#     Node 3, Type 0, BuildingBlock: TATPOV_clean_sbu_0, # of connection points: 4
#     Node 4, Type 0, BuildingBlock: TATPOV_clean_sbu_0, # of connection points: 4
#     Node 5, Type 0, BuildingBlock: TATPOV_clean_sbu_0, # of connection points: 4
#     Node 6, Type 0, BuildingBlock: TATPOV_clean_sbu_0, # of connection points: 4
#     Node 7, Type 0, BuildingBlock: TATPOV_clean_sbu_0, # of connection points: 4
#     Node 8, Type 0, BuildingBlock: TATPOV_clean_sbu_0, # of connection points: 4
#     Node 9, Type 0, BuildingBlock: TATPOV_clean_sbu_0, # of connection points: 4
#     Node 10, Type 0, BuildingBlock: TATPOV_clean_sbu_0, # of connection points: 4
#     Node 11, Type 0, BuildingBlock: TATPOV_clean_sbu_0, # of connection points: 4
#     Edge 12, Type (0, 0), BuildingBlock: XIVTED_clean_linker_0, # of connection points: 2
#     Edge 13, Type (0, 0), BuildingBlock: XIVTED_clean_linker_0, # of connection points: 2
#     Edge 14, Type (0, 0), BuildingBlock: XIVTED_clean_linker_0, # of connection points: 2
#     Edge 15, Type (0, 0), BuildingBlock: XIVTED_clean_linker_0, # of connection points: 2
#     Edge 16, Type (0, 0), BuildingBlock: XIVTED_clean_linker_0, # of connection points: 2
#     Edge 17, Type (0, 0), BuildingBlock: XIVTED_clean_linker_0, # of connection points: 2
#     Edge 18, Type (0, 0), BuildingBlock: XIVTED_clean_linker_0, # of connection points: 2
#     Edge 19, Type (0, 0), BuildingBlock: XIVTED_clean_linker_0, # of connection points: 2
#     Edge 20, Type (0, 0), BuildingBlock: XIVTED_clean_linker_0, # of connection points: 2
#     Edge 21, Type (0, 0), BuildingBlock: XIVTED_clean_linker_0, # of connection points: 2
#     Edge 22, Type (0, 0), BuildingBlock: XIVTED_clean_linker_0, # of connection points: 2
#     Edge 23, Type (0, 0), BuildingBlock: XIVTED_clean_linker_0, # of connection points: 2
#     Edge 24, Type (0, 0), BuildingBlock: XIVTED_clean_linker_0, # of connection points: 2
#     Edge 25, Type (0, 0), BuildingBlock: XIVTED_clean_linker_0, # of connection points: 2
#     Edge 26, Type (0, 0), BuildingBlock: XIVTED_clean_linker_0, # of connection points: 2
#     Edge 27, Type (0, 0), BuildingBlock: XIVTED_clean_linker_0, # of connection points: 2
#     Edge 28, Type (0, 0), BuildingBlock: XIVTED_clean_linker_0, # of connection points: 2
#     Edge 29, Type (0, 0), BuildingBlock: XIVTED_clean_linker_0, # of connection points: 2
#     Edge 30, Type (0, 0), BuildingBlock: XIVTED_clean_linker_0, # of connection points: 2
#     Edge 31, Type (0, 0), BuildingBlock: XIVTED_clean_linker_0, # of connection points: 2
#     Edge 32, Type (0, 0), BuildingBlock: XIVTED_clean_linker_0, # of connection points: 2
#     Edge 33, Type (0, 0), BuildingBlock: XIVTED_clean_linker_0, # of connection points: 2
#     Edge 34, Type (0, 0), BuildingBlock: XIVTED_clean_linker_0, # of connection points: 2
#     Edge 35, Type (0, 0), BuildingBlock: XIVTED_clean_linker_0, # of connection points: 2
# Relax obj value: 0.160
# Max RMSD: 0.152
# Mean RMSD: 0.152
data_MOF--net-wjh--node1-TATPOV_clean_sbu_0--edge1-XIVTED_clean_linker_0
_symmetry_space_group_name_H-M    P1
_symmetry_Int_Tables_number       1
_symmetry_cell_setting            triclinic
loop_
_symmetry_equiv_pos_as_xyz
'x, y, z'
_cell_length_a     61.416301
_cell_length_b     61.464061
_cell_length_c     24.806671
_cell_angle_alpha  89.644854
_cell_angle_beta   89.947581
_cell_angle_gamma 120.25023
loop_
_atom_site_label
_atom_site_type_symbol
_atom_site_fract_x
_atom_site_fract_y
_atom_site_fract_z
_atom_type_partial_charge
Zn0 Zn 0.39836 0.0814 0.14449 0.0
Zn1 Zn 0.42619 0.09137 0.06457 0.0
O2 O 0.41036 0.11463 0.06529 0.0
O3 O 0.37666 0.09416 0.11608 0.0
O4 O 0.44713 0.09993 0.99462 0.0
O5 O 0.38637 0.04522 0.14711 0.0
O6 O 0.40366 0.05176 0.06649 0.0
C7 C 0.39037 0.11272 0.08586 0.0
C8 C 0.44971 0.10932 0.17304 0.0
O9 O 0.45233 0.10358 0.12513 0.0
O10 O 0.42813 0.10394 0.19007 0.0
C11 C 0.46873 0.11984 0.99151 0.0
O12 O 0.47688 0.13503 0.03305 0.0
C13 C 0.39059 0.03671 0.10473 0.0
Zn14 Zn 0.36435 0.52739 0.34149 0.0
Zn15 Zn 0.38726 0.54259 0.24709 0.0
O16 O 0.35323 0.54191 0.23584 0.0
O17 O 0.33481 0.52874 0.31528 0.0
O18 O 0.40636 0.55569 0.1758 0.0
O19 O 0.36651 0.49604 0.33845 0.0
O20 O 0.38299 0.50716 0.25689 0.0
C21 C 0.33469 0.53605 0.26766 0.0
C22 C 0.41028 0.57187 0.35289 0.0
O23 O 0.41207 0.56838 0.30278 0.0
O24 O 0.3906 0.55701 0.379 0.0
C25 C 0.41087 0.57684 0.15659 0.0
O26 O 0.4024 0.58964 0.18268 0.0
C27 C 0.3751 0.49153 0.29628 0.0
Zn28 Zn 0.87521 0.3427 0.46381 0.0
Zn29 Zn 0.86724 0.36723 0.38947 0.0
O30 O 0.83062 0.34144 0.41769 0.0
O31 O 0.83932 0.32283 0.48348 0.0
O32 O 0.86371 0.38638 0.3247 0.0
O33 O 0.89183 0.32877 0.41914 0.0
O34 O 0.89045 0.3544 0.35889 0.0
C35 C 0.82341 0.32595 0.45751 0.0
C36 C 0.89726 0.39429 0.4899 0.0
O37 O 0.88622 0.39467 0.44659 0.0
O38 O 0.89648 0.37421 0.50491 0.0
C39 C 0.85809 0.37641 0.27814 0.0
O40 O 0.8532 0.35311 0.2729 0.0
C41 C 0.89829 0.33958 0.37371 0.0
Zn42 Zn 0.5485 0.8965 0.66921 0.0
Zn43 Zn 0.51737 0.87304 0.59389 0.0
O44 O 0.53503 0.85161 0.60626 0.0
O45 O 0.5571 0.86998 0.67906 0.0
O46 O 0.49278 0.85732 0.53101 0.0
O47 O 0.57072 0.92745 0.62749 0.0
O48 O 0.53885 0.91093 0.57115 0.0
C49 C 0.54919 0.85246 0.64502 0.0
C50 C 0.49867 0.8794 0.70308 0.0
O51 O 0.49393 0.86827 0.65776 0.0
O52 O 0.52121 0.89477 0.71609 0.0
C53 C 0.49971 0.85659 0.48298 0.0
O54 O 0.52373 0.8652 0.47319 0.0
C55 C 0.55972 0.92962 0.58662 0.0
Zn56 Zn 0.62218 0.45825 0.85444 0.0
Zn57 Zn 0.60056 0.4402 0.76206 0.0
O58 O 0.63369 0.43813 0.75791 0.0
O59 O 0.65024 0.45276 0.83779 0.0
O60 O 0.5824 0.42694 0.68979 0.0
O61 O 0.62447 0.49132 0.8428 0.0
O62 O 0.60701 0.47692 0.76371 0.0
C63 C 0.65093 0.44354 0.79294 0.0
C64 C 0.57515 0.41557 0.8712 0.0
O65 O 0.57427 0.41631 0.81979 0.0
O66 O 0.59425 0.43192 0.89618 0.0
C67 C 0.56785 0.40365 0.6797 0.0
O68 O 0.56485 0.38686 0.71644 0.0
C69 C 0.61628 0.49453 0.79853 0.0
Zn70 Zn 0.13043 0.67096 0.85037 0.0
Zn71 Zn 0.11862 0.63754 0.78324 0.0
O72 O 0.15739 0.65618 0.80057 0.0
O73 O 0.16716 0.69258 0.83555 0.0
O74 O 0.1137 0.61863 0.71256 0.0
O75 O 0.10674 0.68306 0.83696 0.0
O76 O 0.09353 0.65145 0.78078 0.0
C77 C 0.17397 0.67757 0.81881 0.0
C78 C 0.10716 0.6183 0.89183 0.0
O79 O 0.10428 0.6118 0.84255 0.0
O80 O 0.1183 0.64148 0.90419 0.0
C81 C 0.1242 0.60564 0.70357 0.0
O82 O 0.13876 0.60445 0.74087 0.0
C83 C 0.0904 0.6682 0.80413 0.0
Zn84 Zn 0.88019 0.53856 0.78372 0.0
Zn85 Zn 0.87991 0.51479 0.86452 0.0
O86 O 0.84171 0.50212 0.84674 0.0
O87 O 0.84394 0.52104 0.76976 0.0
O88 O 0.87877 0.49767 0.93704 0.0
O89 O 0.89758 0.57303 0.81217 0.0
O90 O 0.90705 0.55335 0.87361 0.0
C91 C 0.83084 0.50545 0.8061 0.0
C92 C 0.90272 0.50886 0.76253 0.0
O93 O 0.89413 0.50012 0.80948 0.0
O94 O 0.90064 0.5269 0.74368 0.0
C95 C 0.86751 0.4737 0.94012 0.0
O96 O 0.85699 0.46062 0.89644 0.0
C97 C 0.91137 0.57391 0.85076 0.0
Zn98 Zn 0.31608 0.81092 0.02466 0.0
Zn99 Zn 0.3448 0.8128 0.09709 0.0
O100 O 0.31744 0.7749 0.08136 0.0
O101 O 0.28664 0.77808 0.04542 0.0
O102 O 0.36438 0.81339 0.16485 0.0
O103 O 0.31542 0.84171 0.03966 0.0
O104 O 0.33786 0.84268 0.10946 0.0
C105 C 0.29494 0.76443 0.06328 0.0
C106 C 0.36437 0.82106 0.98507 0.0
O107 O 0.36965 0.82351 0.03508 0.0
O108 O 0.34199 0.81356 0.96992 0.0
C109 C 0.38431 0.81187 0.16262 0.0
O110 O 0.39184 0.80828 0.11564 0.0
C111 C 0.32729 0.85245 0.08187 0.0
Zn112 Zn 0.39036 0.30334 0.1904 0.0
Zn113 Zn 0.4251 0.31779 0.26386 0.0
O114 O 0.40862 0.27885 0.25561 0.0
O115 O 0.37531 0.26676 0.20433 0.0
O116 O 0.44875 0.32748 0.32902 0.0
O117 O 0.37475 0.32237 0.21761 0.0
O118 O 0.40456 0.33581 0.27875 0.0
C119 C 0.3894 0.26141 0.23146 0.0
C120 C 0.44142 0.33147 0.14841 0.0
O121 O 0.44771 0.3333 0.19788 0.0
O122 O 0.41838 0.3197 0.13522 0.0
C123 C 0.46335 0.35063 0.34024 0.0
O124 O 0.46327 0.36783 0.30867 0.0
C125 C 0.38587 0.33626 0.25738 0.0
Zn126 Zn 0.10622 0.4577 0.18253 0.0
Zn127 Zn 0.10844 0.4831 0.27282 0.0
O128 O 0.1445 0.4896 0.26007 0.0
O129 O 0.1429 0.46899 0.18648 0.0
O130 O 0.11136 0.50102 0.34416 0.0
O131 O 0.07951 0.42513 0.21325 0.0
O132 O 0.07947 0.44629 0.28473 0.0
C133 C 0.15544 0.48342 0.22462 0.0
C134 C 0.09383 0.49682 0.16632 0.0
O135 O 0.09902 0.5014 0.21618 0.0
O136 O 0.09522 0.47915 0.14371 0.0
C137 C 0.09859 0.51154 0.35555 0.0
O138 O 0.0822 0.51067 0.32038 0.0
C139 C 0.07024 0.42575 0.25834 0.0
Zn140 Zn 0.62828 0.153 0.48132 0.0
Zn141 Zn 0.59943 0.15285 0.56024 0.0
O142 O 0.6329 0.18771 0.56839 0.0
O143 O 0.65554 0.18685 0.50002 0.0
O144 O 0.57631 0.1493 0.62366 0.0
O145 O 0.62822 0.12221 0.50582 0.0
O146 O 0.60042 0.1195 0.56559 0.0
C147 C 0.65291 0.1982 0.53945 0.0
C148 C 0.58384 0.15143 0.44291 0.0
O149 O 0.57982 0.15276 0.49294 0.0
O150 O 0.603 0.15046 0.42781 0.0
C151 C 0.58419 0.15688 0.67121 0.0
O152 O 0.60855 0.16857 0.68038 0.0
C153 C 0.6125 0.11015 0.54286 0.0
Zn154 Zn 0.59458 0.67862 0.66767 0.0
Zn155 Zn 0.55865 0.65984 0.74478 0.0
O156 O 0.5723 0.69813 0.74548 0.0
O157 O 0.60305 0.71378 0.68543 0.0
O158 O 0.53396 0.64473 0.80808 0.0
O159 O 0.6125 0.6615 0.69662 0.0
O160 O 0.58198 0.64509 0.75696 0.0
C161 C 0.58919 0.71686 0.71868 0.0
C162 C 0.54385 0.6483 0.62725 0.0
O163 O 0.53746 0.64606 0.67681 0.0
O164 O 0.56687 0.66047 0.61358 0.0
C165 C 0.52098 0.65367 0.82777 0.0
O166 O 0.52293 0.67419 0.80631 0.0
C167 C 0.60174 0.64675 0.73602 0.0
H168 H 0.45015 0.12494 0.27591 0.0
H169 H 0.58906 0.15176 0.33376 0.0
H170 H 0.49822 0.12005 0.15519 0.0
H171 H 0.53812 0.14853 0.45796 0.0
H172 H 0.55828 0.14642 0.26585 0.0
H173 H 0.48449 0.13995 0.3404 0.0
C174 C 0.46801 0.12719 0.2628 0.0
C175 C 0.47123 0.12086 0.21027 0.0
C176 C 0.55387 0.14703 0.3079 0.0
C177 C 0.51057 0.13799 0.28409 0.0
C178 C 0.57143 0.15005 0.34682 0.0
C179 C 0.56599 0.15023 0.40176 0.0
C180 C 0.53065 0.14409 0.32393 0.0
C181 C 0.54299 0.14827 0.41611 0.0
C182 C 0.4876 0.13577 0.29972 0.0
C183 C 0.49485 0.12446 0.19542 0.0
N184 N 0.52603 0.14506 0.37736 0.0
N185 N 0.51359 0.13259 0.23238 0.0
H186 H 0.46071 0.59227 0.33108 0.0
H187 H 0.49336 0.63049 0.63843 0.0
H188 H 0.40869 0.59373 0.44602 0.0
H189 H 0.55048 0.64481 0.51926 0.0
H190 H 0.46227 0.61747 0.56672 0.0
H191 H 0.49484 0.61419 0.39637 0.0
C192 C 0.45664 0.59786 0.36938 0.0
C193 C 0.43187 0.59087 0.3837 0.0
C194 C 0.48163 0.62354 0.55618 0.0
C195 C 0.47036 0.61518 0.45855 0.0
C196 C 0.49932 0.63072 0.59722 0.0
C197 C 0.5245 0.63861 0.58484 0.0
C198 C 0.48909 0.62403 0.50239 0.0
C199 C 0.53122 0.63879 0.5306 0.0
C200 C 0.47603 0.61012 0.4068 0.0
C201 C 0.42751 0.59842 0.43385 0.0
N202 N 0.51358 0.63148 0.49133 0.0
N203 N 0.44649 0.60981 0.46979 0.0
H204 H 0.90458 0.46566 0.78104 0.0
H205 H 0.90388 0.44144 0.47279 0.0
H206 H 0.92268 0.52394 0.66183 0.0
H207 H 0.91543 0.39647 0.59128 0.0
H208 H 0.91452 0.47378 0.54093 0.0
H209 H 0.91241 0.44161 0.71329 0.0
C210 C 0.91068 0.47362 0.74103 0.0
C211 C 0.91236 0.49651 0.7267 0.0
C212 C 0.9152 0.45703 0.55168 0.0
C213 C 0.92098 0.46907 0.64908 0.0
C214 C 0.90907 0.43856 0.51279 0.0
C215 C 0.90824 0.41602 0.52663 0.0
C216 C 0.92005 0.45266 0.60485 0.0
C217 C 0.91542 0.4134 0.57899 0.0
C218 C 0.91516 0.45991 0.70236 0.0
C219 C 0.92058 0.50607 0.67437 0.0
N220 N 0.9205 0.43126 0.61654 0.0
N221 N 0.92406 0.49207 0.63714 0.0
H222 H 0.50274 0.90125 0.80059 0.0
H223 H 0.41494 0.84208 1.00241 0.0
H224 H 0.44869 0.84274 0.69695 0.0
H225 H 0.35963 0.81714 0.87529 0.0
H226 H 0.44818 0.8573 0.93451 0.0
H227 H 0.47076 0.88756 0.87067 0.0
C228 C 0.48412 0.88547 0.79255 0.0
C229 C 0.47848 0.87287 0.74305 0.0
C230 C 0.42881 0.84887 0.92143 0.0
C231 C 0.44196 0.85657 0.82401 0.0
C232 C 0.40979 0.83986 0.96021 0.0
C233 C 0.3845 0.82861 0.94449 0.0
C234 C 0.42249 0.84669 0.86653 0.0
C235 C 0.37892 0.82594 0.88919 0.0
C236 C 0.46595 0.87745 0.83296 0.0
C237 C 0.45389 0.85285 0.73468 0.0
N238 N 0.3978 0.83494 0.8521 0.0
N239 N 0.43649 0.84524 0.77496 0.0
H240 H 0.49224 0.35116 0.15889 0.0
H241 H 0.52428 0.39253 0.85027 0.0
H242 H 0.43466 0.33513 0.04039 0.0
H243 H 0.57811 0.39651 0.96722 0.0
H244 H 0.49033 0.3689 0.91633 0.0
H245 H 0.52371 0.36691 0.08712 0.0
C246 C 0.48623 0.35104 0.1178 0.0
C247 C 0.46083 0.34194 0.10568 0.0
C248 C 0.50956 0.37463 0.92707 0.0
C249 C 0.49673 0.35979 0.02307 0.0
C250 C 0.52883 0.38789 0.88928 0.0
C251 C 0.55394 0.39673 0.9038 0.0
C252 C 0.51569 0.37039 0.97927 0.0
C253 C 0.55897 0.39038 0.95483 0.0
C254 C 0.50418 0.35986 0.07669 0.0
C255 C 0.45409 0.34204 0.05155 0.0
N256 N 0.54008 0.37788 0.99089 0.0
N257 N 0.47197 0.35096 1.01221 0.0
H258 H 0.10208 0.54409 0.18879 0.0
H259 H 0.08125 0.567 0.88158 0.0
H260 H 0.07219 0.48632 0.06726 0.0
H261 H 0.11315 0.62593 1.00055 0.0
H262 H 0.07073 0.53588 0.95321 0.0
H263 H 0.09885 0.57289 0.12496 0.0
C264 C 0.09443 0.53735 0.14907 0.0
C265 C 0.08794 0.51302 0.13279 0.0
C266 C 0.07981 0.55561 0.96374 0.0
C267 C 0.08434 0.54571 0.05979 0.0
C268 C 0.08587 0.57339 0.9228 0.0
C269 C 0.0985 0.59911 0.935 0.0
C270 C 0.08663 0.56364 0.01715 0.0
C271 C 0.10372 0.60629 0.98922 0.0
C272 C 0.09266 0.55378 0.11261 0.0
C273 C 0.07795 0.50513 0.08105 0.0
N274 N 0.09804 0.58866 0.02826 0.0
N275 N 0.07676 0.52153 0.04618 0.0
H276 H 0.42691 0.24993 0.23568 0.0
H277 H 0.34742 0.11435 0.10549 0.0
H278 H 0.34777 0.21756 0.20047 0.0
H279 H 0.42774 0.16193 0.08371 0.0
H280 H 0.34591 0.14984 0.14581 0.0
H281 H 0.42621 0.21398 0.19233 0.0
C282 C 0.4092 0.23489 0.22038 0.0
C283 C 0.38737 0.23678 0.22157 0.0
C284 C 0.36377 0.1526 0.13124 0.0
C285 C 0.38664 0.196 0.17064 0.0
C286 C 0.3646 0.13248 0.10757 0.0
C287 C 0.38774 0.13518 0.09124 0.0
C288 C 0.3863 0.17536 0.13956 0.0
C289 C 0.40947 0.15902 0.09539 0.0
C290 C 0.40894 0.21464 0.19466 0.0
C291 C 0.36504 0.21686 0.20031 0.0
N292 N 0.4083 0.17806 0.12018 0.0
N293 N 0.36527 0.19734 0.17541 0.0
H294 H 0.30969 0.55397 0.32405 0.0
H295 H 0.18482 0.4759 0.15272 0.0
H296 H 0.30797 0.51815 0.17405 0.0
H297 H 0.18911 0.51602 0.29833 0.0
H298 H 0.23051 0.49448 0.15433 0.0
H299 H 0.26688 0.5451 0.30798 0.0
C300 C 0.30038 0.54473 0.28699 0.0
C301 C 0.31214 0.53661 0.2504 0.0
C302 C 0.22147 0.49933 0.18573 0.0
C303 C 0.26287 0.52559 0.23252 0.0
C304 C 0.19534 0.48859 0.18512 0.0
C305 C 0.18304 0.49418 0.22587 0.0
C306 C 0.23543 0.51571 0.22749 0.0
C307 C 0.19772 0.51096 0.26641 0.0
C308 C 0.2759 0.53952 0.27797 0.0
C309 C 0.29945 0.52476 0.20303 0.0
N310 N 0.22311 0.52101 0.26632 0.0
N311 N 0.27519 0.51913 0.19586 0.0
H312 H 0.66189 0.23801 0.47782 0.0
H313 H 0.80662 0.30276 0.55447 0.0
H314 H 0.6907 0.21629 0.61319 0.0
H315 H 0.78 0.31863 0.40663 0.0
H316 H 0.76358 0.27841 0.58675 0.0
H317 H 0.70352 0.27528 0.46401 0.0
C318 C 0.67677 0.24184 0.50629 0.0
C319 C 0.67295 0.22433 0.54707 0.0
C320 C 0.76704 0.28729 0.54738 0.0
C321 C 0.72075 0.26613 0.53009 0.0
C322 C 0.79168 0.30112 0.52856 0.0
C323 C 0.79697 0.31234 0.47702 0.0
C324 C 0.74722 0.28428 0.51446 0.0
C325 C 0.77677 0.31002 0.44622 0.0
C326 C 0.7006 0.26286 0.49784 0.0
C327 C 0.69286 0.2296 0.58189 0.0
N328 N 0.75269 0.29593 0.46515 0.0
N329 N 0.71607 0.24985 0.57204 0.0
H330 H 0.55836 0.82453 0.57109 0.0
H331 H 0.56589 0.73348 0.78814 0.0
H332 H 0.55358 0.83486 0.7417 0.0
H333 H 0.60899 0.75305 0.64011 0.0
H334 H 0.55647 0.76712 0.76989 0.0
H335 H 0.57106 0.79319 0.59219 0.0
C336 C 0.55979 0.82005 0.61276 0.0
C337 C 0.55512 0.83233 0.65469 0.0
C338 C 0.56827 0.76419 0.74189 0.0
C339 C 0.56928 0.79677 0.67897 0.0
C340 C 0.57382 0.74516 0.75249 0.0
C341 C 0.58828 0.74043 0.71573 0.0
C342 C 0.57673 0.77811 0.69361 0.0
C343 C 0.59786 0.75605 0.6698 0.0
C344 C 0.56721 0.80243 0.6248 0.0
C345 C 0.55729 0.82598 0.70816 0.0
N346 N 0.59155 0.7739 0.65955 0.0
N347 N 0.56406 0.80854 0.71878 0.0
H348 H 0.67123 0.424 0.86014 0.0
H349 H 0.80434 0.50476 0.71763 0.0
H350 H 0.68178 0.45922 0.70413 0.0
H351 H 0.79425 0.47202 0.87675 0.0
H352 H 0.759 0.48169 0.70517 0.0
H353 H 0.71481 0.43328 0.85802 0.0
C354 C 0.68258 0.43295 0.82455 0.0
C355 C 0.6731 0.44105 0.78237 0.0
C356 C 0.76663 0.47937 0.74271 0.0
C357 C 0.72317 0.45257 0.78053 0.0
C358 C 0.79259 0.4927 0.75014 0.0
C359 C 0.80317 0.49071 0.79887 0.0
C360 C 0.75091 0.46398 0.78437 0.0
C361 C 0.78692 0.47439 0.83888 0.0
C362 C 0.70751 0.43847 0.82361 0.0
C363 C 0.68843 0.45261 0.7373 0.0
N364 N 0.76154 0.46184 0.83095 0.0
N365 N 0.71297 0.45854 0.73805 0.0
H366 H 0.2214 0.71792 0.80467 0.0
H367 H 0.31429 0.74651 0.99029 0.0
H368 H 0.17965 0.64641 0.88668 0.0
H369 H 0.24682 0.72612 0.08124 0.0
H370 H 0.28847 0.71703 0.91973 0.0
H371 H 0.2564 0.72977 0.86756 0.0
C372 C 0.22015 0.70428 0.83422 0.0
C373 C 0.19787 0.68106 0.84008 0.0
C374 C 0.27953 0.71808 0.9565 0.0
C375 C 0.23699 0.6949 0.91354 0.0
C376 C 0.29422 0.73456 0.99723 0.0
C377 C 0.2826 0.73876 0.04157 0.0
C378 C 0.25321 0.70531 0.96125 0.0
C379 C 0.25645 0.72332 0.04776 0.0
C380 C 0.24001 0.71104 0.87019 0.0
C381 C 0.19678 0.66432 0.88031 0.0
N382 N 0.24253 0.70756 1.00744 0.0
N383 N 0.21565 0.67196 0.91699 0.0
H384 H 0.53246 0.12618 0.67239 0.0
H385 H 0.51766 0.15753 0.979 0.0
H386 H 0.59485 0.17574 0.77361 0.0
H387 H 0.45749 0.09561 0.89313 0.0
H388 H 0.545 0.16682 0.90065 0.0
H389 H 0.50371 0.11714 0.74903 0.0
C390 C 0.54013 0.13527 0.71057 0.0
C391 C 0.56619 0.15176 0.71642 0.0
C392 C 0.52583 0.15119 0.89878 0.0
C393 C 0.53331 0.14151 0.80434 0.0
C394 C 0.51011 0.14588 0.9436 0.0
C395 C 0.48514 0.12569 0.94294 0.0
C396 C 0.51663 0.13638 0.85232 0.0
C397 C 0.47658 0.11132 0.89564 0.0
C398 C 0.52369 0.13001 0.75437 0.0
C399 C 0.57497 0.16287 0.76704 0.0
N400 N 0.49227 0.11696 0.85223 0.0
N401 N 0.55862 0.1576 0.80879 0.0
H402 H 0.51126 0.61027 0.8812 0.0
H403 H 0.42147 0.62014 0.10286 0.0
H404 H 0.49225 0.66897 0.88256 0.0
H405 H 0.43529 0.55797 0.09622 0.0
H406 H 0.44754 0.63821 0.02243 0.0
H407 H 0.48391 0.59087 0.95987 0.0
C408 C 0.50133 0.61909 0.89792 0.0
C409 C 0.50414 0.64136 0.87507 0.0
C410 C 0.44486 0.62058 0.03839 0.0
C411 C 0.47275 0.61919 0.96546 0.0
C412 C 0.42994 0.61022 0.08447 0.0
C413 C 0.42614 0.58746 0.10658 0.0
C414 C 0.45627 0.60824 0.014 0.0
C415 C 0.43764 0.57553 0.08068 0.0
C416 C 0.48568 0.60796 0.94288 0.0
C417 C 0.49073 0.65184 0.89864 0.0
N418 N 0.45223 0.58608 0.03593 0.0
N419 N 0.47572 0.64073 0.94246 0.0
H420 H 0.88486 0.49369 0.04134 0.0
H421 H 0.84309 0.35895 0.17591 0.0
H422 H 0.84688 0.42305 0.95672 0.0
H423 H 0.87385 0.42716 0.26892 0.0
H424 H 0.84514 0.38282 0.09542 0.0
H425 H 0.88199 0.47055 0.12479 0.0
C426 C 0.87593 0.47337 0.0402 0.0
C427 C 0.86613 0.46037 0.99166 0.0
C428 C 0.85139 0.39265 0.13336 0.0
C429 C 0.8628 0.43374 0.08717 0.0
C430 C 0.85022 0.37897 0.17957 0.0
C431 C 0.8583 0.39098 0.22957 0.0
C432 C 0.86088 0.41873 0.13656 0.0
C433 C 0.86734 0.41705 0.23136 0.0
C434 C 0.87426 0.46016 0.08793 0.0
C435 C 0.85474 0.43398 0.9929 0.0
N436 N 0.86848 0.43005 0.18557 0.0
N437 N 0.85346 0.42165 0.03959 0.0
H438 H 0.44982 0.84401 0.48492 0.0
H439 H 0.42948 0.81326 0.16886 0.0
H440 H 0.50751 0.84884 0.37777 0.0
H441 H 0.37533 0.82 0.26768 0.0
H442 H 0.45645 0.82228 0.24743 0.0
H443 H 0.42068 0.83139 0.40855 0.0
C444 C 0.45634 0.84227 0.44548 0.0
C445 C 0.48125 0.84759 0.43789 0.0
C446 C 0.43865 0.82173 0.25211 0.0
C447 C 0.4479 0.83312 0.35017 0.0
C448 C 0.42314 0.81649 0.20715 0.0
C449 C 0.40004 0.81593 0.21139 0.0
C450 C 0.43112 0.82639 0.30214 0.0
C451 C 0.39297 0.82029 0.26235 0.0
C452 C 0.43969 0.83514 0.40184 0.0
C453 C 0.48857 0.84505 0.3857 0.0
N454 N 0.40845 0.82537 0.30565 0.0
N455 N 0.47203 0.83803 0.34403 0.0
H456 H 0.53557 0.35545 0.64558 0.0
H457 H 0.49715 0.3985 0.37299 0.0
H458 H 0.56709 0.43307 0.59628 0.0
H459 H 0.4671 0.32065 0.4188 0.0
H460 H 0.52323 0.41131 0.45379 0.0
H461 H 0.51093 0.3423 0.56254 0.0
C462 C 0.53741 0.36977 0.61727 0.0
C463 C 0.55349 0.39547 0.62822 0.0
C464 C 0.511 0.39141 0.44622 0.0
C465 C 0.5251 0.38042 0.53264 0.0
C466 C 0.49604 0.38404 0.39994 0.0
C467 C 0.47978 0.3584 0.38886 0.0
C468 C 0.50978 0.37308 0.48217 0.0
C469 C 0.47929 0.34062 0.42553 0.0
C470 C 0.52328 0.36221 0.56976 0.0
C471 C 0.555 0.41307 0.58975 0.0
N472 N 0.49399 0.34829 0.4705 0.0
N473 N 0.54097 0.40523 0.54391 0.0
H474 H 0.13029 0.51664 0.43901 0.0
H475 H 0.09384 0.60212 0.61851 0.0
H476 H 0.0757 0.53744 0.39056 0.0
H477 H 0.14523 0.57774 0.67061 0.0
H478 H 0.08747 0.57918 0.53421 0.0
H479 H 0.13648 0.53943 0.5234 0.0
C480 C 0.11957 0.52596 0.44606 0.0
C481 C 0.10243 0.52505 0.40743 0.0
C482 C 0.10014 0.57884 0.56409 0.0
C483 C 0.10949 0.55133 0.50426 0.0
C484 C 0.10381 0.59197 0.61229 0.0
C485 C 0.12011 0.59191 0.65191 0.0
C486 C 0.11289 0.56553 0.55517 0.0
C487 C 0.13247 0.57836 0.6414 0.0
C488 C 0.12312 0.53899 0.49434 0.0
C489 C 0.08911 0.53756 0.41902 0.0
N490 N 0.12862 0.56578 0.59418 0.0
N491 N 0.09294 0.55016 0.46622 0.0
H492 H 0.38393 0.0057 0.18885 0.0
H493 H 0.31208 0.87971 0.02211 0.0
H494 H 0.37591 0.0058 0.01605 0.0
H495 H 0.35507 0.88456 0.16394 0.0
H496 H 0.32749 0.92467 0.02799 0.0
H497 H 0.36665 0.96019 0.18726 0.0
C498 C 0.37848 -0.00391 0.1505 0.0
C499 C 0.38125 0.00946 0.1024 0.0
C500 C 0.33337 0.91582 0.05798 0.0
C501 C 0.36114 0.95744 0.10072 0.0
C502 C 0.32442 0.89009 0.05514 0.0
C503 C 0.33248 0.87829 0.09241 0.0
C504 C 0.35015 0.92987 0.09891 0.0
C505 C 0.34842 0.89284 0.1343 0.0
C506 C 0.36872 0.97018 0.14975 0.0
C507 C 0.37413 -0.00383 0.0539 0.0
N508 N 0.35682 0.91797 0.13637 0.0
N509 N 0.36411 0.97073 0.05432 0.0
H510 H 0.35344 0.34744 0.20619 0.0
H511 H 0.38034 0.46576 0.38008 0.0
H512 H 0.40514 0.37054 0.34017 0.0
H513 H 0.37171 0.46396 0.20726 0.0
H514 H 0.38072 0.42608 0.37611 0.0
H515 H 0.34993 0.38484 0.21816 0.0
C516 C 0.36371 0.36009 0.23886 0.0
C517 C 0.37987 0.35595 0.27193 0.0
C518 C 0.37875 0.43445 0.33921 0.0
C519 C 0.37578 0.39876 0.28552 0.0
C520 C 0.37847 0.45696 0.34134 0.0
C521 C 0.37602 0.46808 0.29382 0.0
C522 C 0.37588 0.42271 0.28943 0.0
C523 C 0.37378 0.45604 0.24469 0.0
C524 C 0.36182 0.38153 0.24522 0.0
C525 C 0.3926 0.37306 0.3136 0.0
N526 N 0.37351 0.43381 0.2438 0.0
N527 N 0.39034 0.39386 0.31917 0.0
H528 H 0.05002 0.41219 0.35999 0.0
H529 H 0.91626 0.35726 0.27171 0.0
H530 H 0.03454 0.39065 0.19293 0.0
H531 H 0.93008 0.32448 0.41276 0.0
H532 H 0.95887 0.37021 0.23945 0.0
H533 H 0.006 0.38127 0.38203 0.0
C534 C 0.03753 0.40057 0.32827 0.0
C535 C 0.04584 0.40401 0.27465 0.0
C536 C 0.95217 0.35951 0.27667 0.0
C537 C -0.00429 0.36946 0.29914 0.0
C538 C 0.9279 0.3521 0.29503 0.0
C539 C 0.91976 0.3402 0.34543 0.0
C540 C 0.96844 0.35559 0.30976 0.0
C541 C 0.93565 0.33391 0.37397 0.0
C542 C 0.01253 0.38294 0.3408 0.0
C543 C 0.02888 0.38854 0.23487 0.0
N544 N 0.95958 0.34245 0.35664 0.0
N545 N 0.00437 0.3724 0.24765 0.0
H546 H 0.6082 0.96807 0.57783 0.0
H547 H 0.56759 0.07135 0.57967 0.0
H548 H 0.53132 0.94944 0.55149 0.0
H549 H 0.64177 0.089 0.52703 0.0
H550 H 0.55475 0.02657 0.58168 0.0
H551 H 0.62182 0.01274 0.5663 0.0
C552 C 0.59429 0.97339 0.56819 0.0
C553 C 0.56864 0.95514 0.56534 0.0
C554 C 0.57385 0.04031 0.5699 0.0
C555 C 0.58389 0.00602 0.55451 0.0
C556 C 0.58129 0.06584 0.56957 0.0
C557 C 0.60579 0.08385 0.55332 0.0
C558 C 0.59117 0.03287 0.55479 0.0
C559 C 0.6227 0.07567 0.53981 0.0
C560 C 0.60203 -0.00117 0.56206 0.0
C561 C 0.5513 0.96296 0.55339 0.0
N562 N 0.6151 0.05076 0.54101 0.0
N563 N 0.55919 0.98792 0.54943 0.0
H564 H 0.61491 0.51599 0.702 0.0
H565 H 0.59132 0.61934 0.8297 0.0
H566 H 0.6187 0.52755 0.87402 0.0
H567 H 0.6283 0.63119 0.6753 0.0
H568 H 0.59754 0.58346 0.84609 0.0
H569 H 0.61534 0.55589 0.68918 0.0
C570 C 0.61583 0.5269 0.73695 0.0
C571 C 0.61677 0.5185 0.78909 0.0
C572 C 0.6046 0.5942 0.809 0.0
C573 C 0.61701 0.56371 0.77483 0.0
C574 C 0.60112 0.61466 0.79971 0.0
C575 C 0.60931 0.62824 0.75112 0.0
C576 C 0.61573 0.58694 0.76881 0.0
C577 C 0.6218 0.62132 0.71347 0.0
C578 C 0.61625 0.54968 0.72963 0.0
C579 C 0.61805 0.5334 0.83307 0.0
N580 N 0.62424 0.60085 0.72268 0.0
N581 N 0.61785 0.55514 0.825 0.0
H582 H 0.05261 0.64692 0.72888 0.0
H583 H 0.94835 0.58468 0.9262 0.0
H584 H 0.06979 0.68083 0.88652 0.0
H585 H 0.93169 0.61566 0.78591 0.0
H586 H -0.00687 0.6165 0.91502 0.0
H587 H 0.00772 0.63159 0.74625 0.0
C588 C 0.04706 0.65179 0.76631 0.0
C589 C 0.06495 0.66516 0.80621 0.0
C590 C 0.97941 0.61662 0.88775 0.0
C591 C 0.01396 0.64684 0.82702 0.0
C592 C 0.9539 0.59858 0.89421 0.0
C593 C 0.93622 0.59717 0.85652 0.0
C594 C 0.98718 0.63271 0.84258 0.0
C595 C 0.94462 0.61574 0.81564 0.0
C596 C 0.02154 0.643 0.77625 0.0
C597 C 0.05667 0.67069 0.85446 0.0
N598 N 0.9696 0.63217 0.80859 0.0
N599 N 0.03166 0.66081 0.86427 0.0
loop_
_geom_bond_atom_site_label_1
_geom_bond_atom_site_label_2
_geom_bond_distance
_geom_bond_site_symmetry_2
_ccdc_geom_bond_type
Zn0 O3 2.031 . S
Zn0 O5 2.049 . S
Zn0 O10 2.067 . S
Zn1 O2 1.962 . S
Zn1 O4 1.986 1_554 S
Zn1 O6 1.996 . S
Zn1 O9 1.943 . S
O2 Zn1 1.962 . S
O2 C7 1.254 . S
O3 Zn0 2.031 . S
O3 C7 1.269 . S
O4 Zn1 1.986 1_556 S
O4 C11 1.262 . S
O5 Zn0 2.049 . S
O5 C13 1.260 . S
O6 Zn1 1.996 . S
O6 C13 1.257 . S
C7 O2 1.254 . S
C7 O3 1.269 . S
C8 O9 1.249 . S
C8 O10 1.270 . S
O9 Zn1 1.943 . S
O9 C8 1.249 . S
O10 Zn0 2.067 . S
O10 C8 1.270 . S
C11 O4 1.262 . S
C11 O12 1.232 . S
O12 C11 1.232 . S
C13 O5 1.260 . S
C13 O6 1.257 . S
Zn14 O17 2.031 . S
Zn14 O19 2.049 . S
Zn14 O24 2.067 . S
Zn15 O16 1.962 . S
Zn15 O18 1.986 . S
Zn15 O20 1.996 . S
Zn15 O23 1.943 . S
O16 Zn15 1.962 . S
O16 C21 1.254 . S
O17 Zn14 2.031 . S
O17 C21 1.269 . S
O18 Zn15 1.986 . S
O18 C25 1.262 . S
O19 Zn14 2.049 . S
O19 C27 1.260 . S
O20 Zn15 1.996 . S
O20 C27 1.257 . S
C21 O16 1.254 . S
C21 O17 1.269 . S
C22 O23 1.249 . S
C22 O24 1.270 . S
O23 Zn15 1.943 . S
O23 C22 1.249 . S
O24 Zn14 2.067 . S
O24 C22 1.270 . S
C25 O18 1.262 . S
C25 O26 1.232 . S
O26 C25 1.232 . S
C27 O19 1.260 . S
C27 O20 1.257 . S
Zn28 O31 2.031 . S
Zn28 O33 2.049 . S
Zn28 O38 2.067 . S
Zn29 O30 1.962 . S
Zn29 O32 1.986 . S
Zn29 O34 1.996 . S
Zn29 O37 1.943 . S
O30 Zn29 1.962 . S
O30 C35 1.254 . S
O31 Zn28 2.031 . S
O31 C35 1.269 . S
O32 Zn29 1.986 . S
O32 C39 1.262 . S
O33 Zn28 2.049 . S
O33 C41 1.260 . S
O34 Zn29 1.996 . S
O34 C41 1.257 . S
C35 O30 1.254 . S
C35 O31 1.269 . S
C36 O37 1.249 . S
C36 O38 1.270 . S
O37 Zn29 1.943 . S
O37 C36 1.249 . S
O38 Zn28 2.067 . S
O38 C36 1.270 . S
C39 O32 1.262 . S
C39 O40 1.232 . S
O40 C39 1.232 . S
C41 O33 1.260 . S
C41 O34 1.257 . S
Zn42 O45 2.031 . S
Zn42 O47 2.049 . S
Zn42 O52 2.067 . S
Zn43 O44 1.962 . S
Zn43 O46 1.986 . S
Zn43 O48 1.996 . S
Zn43 O51 1.943 . S
O44 Zn43 1.962 . S
O44 C49 1.254 . S
O45 Zn42 2.031 . S
O45 C49 1.269 . S
O46 Zn43 1.986 . S
O46 C53 1.262 . S
O47 Zn42 2.049 . S
O47 C55 1.260 . S
O48 Zn43 1.996 . S
O48 C55 1.257 . S
C49 O44 1.254 . S
C49 O45 1.269 . S
C50 O51 1.249 . S
C50 O52 1.270 . S
O51 Zn43 1.943 . S
O51 C50 1.249 . S
O52 Zn42 2.067 . S
O52 C50 1.270 . S
C53 O46 1.262 . S
C53 O54 1.232 . S
O54 C53 1.232 . S
C55 O47 1.260 . S
C55 O48 1.257 . S
Zn56 O59 2.031 . S
Zn56 O61 2.049 . S
Zn56 O66 2.067 . S
Zn57 O58 1.962 . S
Zn57 O60 1.986 . S
Zn57 O62 1.996 . S
Zn57 O65 1.943 . S
O58 Zn57 1.962 . S
O58 C63 1.254 . S
O59 Zn56 2.031 . S
O59 C63 1.269 . S
O60 Zn57 1.986 . S
O60 C67 1.262 . S
O61 Zn56 2.049 . S
O61 C69 1.260 . S
O62 Zn57 1.996 . S
O62 C69 1.257 . S
C63 O58 1.254 . S
C63 O59 1.269 . S
C64 O65 1.249 . S
C64 O66 1.270 . S
O65 Zn57 1.943 . S
O65 C64 1.249 . S
O66 Zn56 2.067 . S
O66 C64 1.270 . S
C67 O60 1.262 . S
C67 O68 1.232 . S
O68 C67 1.232 . S
C69 O61 1.260 . S
C69 O62 1.257 . S
Zn70 O73 2.031 . S
Zn70 O75 2.049 . S
Zn70 O80 2.067 . S
Zn71 O72 1.962 . S
Zn71 O74 1.986 . S
Zn71 O76 1.996 . S
Zn71 O79 1.943 . S
O72 Zn71 1.962 . S
O72 C77 1.254 . S
O73 Zn70 2.031 . S
O73 C77 1.269 . S
O74 Zn71 1.986 . S
O74 C81 1.262 . S
O75 Zn70 2.049 . S
O75 C83 1.260 . S
O76 Zn71 1.996 . S
O76 C83 1.257 . S
C77 O72 1.254 . S
C77 O73 1.269 . S
C78 O79 1.249 . S
C78 O80 1.270 . S
O79 Zn71 1.943 . S
O79 C78 1.249 . S
O80 Zn70 2.067 . S
O80 C78 1.270 . S
C81 O74 1.262 . S
C81 O82 1.232 . S
O82 C81 1.232 . S
C83 O75 1.260 . S
C83 O76 1.257 . S
Zn84 O87 2.031 . S
Zn84 O89 2.049 . S
Zn84 O94 2.067 . S
Zn85 O86 1.962 . S
Zn85 O88 1.986 . S
Zn85 O90 1.996 . S
Zn85 O93 1.943 . S
O86 Zn85 1.962 . S
O86 C91 1.254 . S
O87 Zn84 2.031 . S
O87 C91 1.269 . S
O88 Zn85 1.986 . S
O88 C95 1.262 . S
O89 Zn84 2.049 . S
O89 C97 1.260 . S
O90 Zn85 1.996 . S
O90 C97 1.257 . S
C91 O86 1.254 . S
C91 O87 1.269 . S
C92 O93 1.249 . S
C92 O94 1.270 . S
O93 Zn85 1.943 . S
O93 C92 1.249 . S
O94 Zn84 2.067 . S
O94 C92 1.270 . S
C95 O88 1.262 . S
C95 O96 1.232 . S
O96 C95 1.232 . S
C97 O89 1.260 . S
C97 O90 1.257 . S
Zn98 O101 2.031 . S
Zn98 O103 2.049 . S
Zn98 O108 2.067 . S
Zn99 O100 1.962 . S
Zn99 O102 1.986 . S
Zn99 O104 1.996 . S
Zn99 O107 1.943 1_554 S
O100 Zn99 1.962 . S
O100 C105 1.254 . S
O101 Zn98 2.031 . S
O101 C105 1.269 1_556 S
O102 Zn99 1.986 . S
O102 C109 1.262 . S
O103 Zn98 2.049 . S
O103 C111 1.260 1_556 S
O104 Zn99 1.996 . S
O104 C111 1.257 . S
C105 O100 1.254 . S
C105 O101 1.269 1_554 S
C106 O107 1.249 . S
C106 O108 1.270 . S
O107 Zn99 1.943 1_556 S
O107 C106 1.249 . S
O108 Zn98 2.067 . S
O108 C106 1.270 . S
C109 O102 1.262 . S
C109 O110 1.232 . S
O110 C109 1.232 . S
C111 O103 1.260 1_554 S
C111 O104 1.257 . S
Zn112 O115 2.031 . S
Zn112 O117 2.049 . S
Zn112 O122 2.067 . S
Zn113 O114 1.962 . S
Zn113 O116 1.986 . S
Zn113 O118 1.996 . S
Zn113 O121 1.943 . S
O114 Zn113 1.962 . S
O114 C119 1.254 . S
O115 Zn112 2.031 . S
O115 C119 1.269 . S
O116 Zn113 1.986 . S
O116 C123 1.262 . S
O117 Zn112 2.049 . S
O117 C125 1.260 . S
O118 Zn113 1.996 . S
O118 C125 1.257 . S
C119 O114 1.254 . S
C119 O115 1.269 . S
C120 O121 1.249 . S
C120 O122 1.270 . S
O121 Zn113 1.943 . S
O121 C120 1.249 . S
O122 Zn112 2.067 . S
O122 C120 1.270 . S
C123 O116 1.262 . S
C123 O124 1.232 . S
O124 C123 1.232 . S
C125 O117 1.260 . S
C125 O118 1.257 . S
Zn126 O129 2.031 . S
Zn126 O131 2.049 . S
Zn126 O136 2.067 . S
Zn127 O128 1.962 . S
Zn127 O130 1.986 . S
Zn127 O132 1.996 . S
Zn127 O135 1.943 . S
O128 Zn127 1.962 . S
O128 C133 1.254 . S
O129 Zn126 2.031 . S
O129 C133 1.269 . S
O130 Zn127 1.986 . S
O130 C137 1.262 . S
O131 Zn126 2.049 . S
O131 C139 1.260 . S
O132 Zn127 1.996 . S
O132 C139 1.257 . S
C133 O128 1.254 . S
C133 O129 1.269 . S
C134 O135 1.249 . S
C134 O136 1.270 . S
O135 Zn127 1.943 . S
O135 C134 1.249 . S
O136 Zn126 2.067 . S
O136 C134 1.270 . S
C137 O130 1.262 . S
C137 O138 1.232 . S
O138 C137 1.232 . S
C139 O131 1.260 . S
C139 O132 1.257 . S
Zn140 O143 2.031 . S
Zn140 O145 2.049 . S
Zn140 O150 2.067 . S
Zn141 O142 1.962 . S
Zn141 O144 1.986 . S
Zn141 O146 1.996 . S
Zn141 O149 1.943 . S
O142 Zn141 1.962 . S
O142 C147 1.254 . S
O143 Zn140 2.031 . S
O143 C147 1.269 . S
O144 Zn141 1.986 . S
O144 C151 1.262 . S
O145 Zn140 2.049 . S
O145 C153 1.260 . S
O146 Zn141 1.996 . S
O146 C153 1.257 . S
C147 O142 1.254 . S
C147 O143 1.269 . S
C148 O149 1.249 . S
C148 O150 1.270 . S
O149 Zn141 1.943 . S
O149 C148 1.249 . S
O150 Zn140 2.067 . S
O150 C148 1.270 . S
C151 O144 1.262 . S
C151 O152 1.232 . S
O152 C151 1.232 . S
C153 O145 1.260 . S
C153 O146 1.257 . S
Zn154 O157 2.031 . S
Zn154 O159 2.049 . S
Zn154 O164 2.067 . S
Zn155 O156 1.962 . S
Zn155 O158 1.986 . S
Zn155 O160 1.996 . S
Zn155 O163 1.943 . S
O156 Zn155 1.962 . S
O156 C161 1.254 . S
O157 Zn154 2.031 . S
O157 C161 1.269 . S
O158 Zn155 1.986 . S
O158 C165 1.262 . S
O159 Zn154 2.049 . S
O159 C167 1.260 . S
O160 Zn155 1.996 . S
O160 C167 1.257 . S
C161 O156 1.254 . S
C161 O157 1.269 . S
C162 O163 1.249 . S
C162 O164 1.270 . S
O163 Zn155 1.943 . S
O163 C162 1.249 . S
O164 Zn154 2.067 . S
O164 C162 1.270 . S
C165 O158 1.262 . S
C165 O166 1.232 . S
O166 C165 1.232 . S
C167 O159 1.260 . S
C167 O160 1.257 . S
H168 C174 0.930 . S
H169 C178 0.930 . S
H170 C183 0.929 . S
H171 C181 0.929 . S
H172 C176 0.929 . S
H173 C182 0.929 . S
C174 H168 0.930 . S
C174 C175 1.367 . S
C174 C182 1.378 . S
C175 C174 1.367 . S
C175 C183 1.433 . S
C176 H172 0.929 . S
C176 C178 1.378 . S
C176 C180 1.350 . S
C177 C180 1.463 . S
C177 C182 1.350 . S
C177 N185 1.427 . S
C178 H169 0.930 . S
C178 C176 1.378 . S
C178 C179 1.367 . S
C179 C178 1.367 . S
C179 C181 1.433 . S
C180 C176 1.350 . S
C180 C177 1.463 . S
C180 N184 1.427 . S
C181 H171 0.929 . S
C181 C179 1.433 . S
C181 N184 1.384 . S
C182 H173 0.929 . S
C182 C174 1.378 . S
C182 C177 1.350 . S
C183 H170 0.929 . S
C183 C175 1.433 . S
C183 N185 1.384 . S
N184 C180 1.427 . S
N184 C181 1.384 . S
N185 C177 1.427 . S
N185 C183 1.384 . S
H186 C192 0.930 . S
H187 C196 0.930 . S
H188 C201 0.929 . S
H189 C199 0.929 . S
H190 C194 0.929 . S
H191 C200 0.929 . S
C192 H186 0.930 . S
C192 C193 1.367 . S
C192 C200 1.378 . S
C193 C192 1.367 . S
C193 C201 1.433 . S
C194 H190 0.929 . S
C194 C196 1.378 . S
C194 C198 1.350 . S
C195 C198 1.463 . S
C195 C200 1.350 . S
C195 N203 1.427 . S
C196 H187 0.930 . S
C196 C194 1.378 . S
C196 C197 1.367 . S
C197 C196 1.367 . S
C197 C199 1.433 . S
C198 C194 1.350 . S
C198 C195 1.463 . S
C198 N202 1.427 . S
C199 H189 0.929 . S
C199 C197 1.433 . S
C199 N202 1.384 . S
C200 H191 0.929 . S
C200 C192 1.378 . S
C200 C195 1.350 . S
C201 H188 0.929 . S
C201 C193 1.433 . S
C201 N203 1.384 . S
N202 C198 1.427 . S
N202 C199 1.384 . S
N203 C195 1.427 . S
N203 C201 1.384 . S
H204 C210 0.930 . S
H205 C214 0.930 . S
H206 C219 0.929 . S
H207 C217 0.929 . S
H208 C212 0.929 . S
H209 C218 0.929 . S
C210 H204 0.930 . S
C210 C211 1.367 . S
C210 C218 1.378 . S
C211 C210 1.367 . S
C211 C219 1.433 . S
C212 H208 0.929 . S
C212 C214 1.378 . S
C212 C216 1.350 . S
C213 C216 1.463 . S
C213 C218 1.350 . S
C213 N221 1.427 . S
C214 H205 0.930 . S
C214 C212 1.378 . S
C214 C215 1.367 . S
C215 C214 1.367 . S
C215 C217 1.433 . S
C216 C212 1.350 . S
C216 C213 1.463 . S
C216 N220 1.427 . S
C217 H207 0.929 . S
C217 C215 1.433 . S
C217 N220 1.384 . S
C218 H209 0.929 . S
C218 C210 1.378 . S
C218 C213 1.350 . S
C219 H206 0.929 . S
C219 C211 1.433 . S
C219 N221 1.384 . S
N220 C216 1.427 . S
N220 C217 1.384 . S
N221 C213 1.427 . S
N221 C219 1.384 . S
H222 C228 0.930 . S
H223 C232 0.930 . S
H224 C237 0.929 . S
H225 C235 0.929 . S
H226 C230 0.929 . S
H227 C236 0.929 . S
C228 H222 0.930 . S
C228 C229 1.367 . S
C228 C236 1.378 . S
C229 C228 1.367 . S
C229 C237 1.433 . S
C230 H226 0.929 . S
C230 C232 1.378 . S
C230 C234 1.350 . S
C231 C234 1.463 . S
C231 C236 1.350 . S
C231 N239 1.427 . S
C232 H223 0.930 . S
C232 C230 1.378 . S
C232 C233 1.367 . S
C233 C232 1.367 . S
C233 C235 1.433 . S
C234 C230 1.350 . S
C234 C231 1.463 . S
C234 N238 1.427 . S
C235 H225 0.929 . S
C235 C233 1.433 . S
C235 N238 1.384 . S
C236 H227 0.929 . S
C236 C228 1.378 . S
C236 C231 1.350 . S
C237 H224 0.929 . S
C237 C229 1.433 . S
C237 N239 1.384 . S
N238 C234 1.427 . S
N238 C235 1.384 . S
N239 C231 1.427 . S
N239 C237 1.384 . S
H240 C246 0.930 . S
H241 C250 0.930 . S
H242 C255 0.929 . S
H243 C253 0.929 . S
H244 C248 0.929 . S
H245 C254 0.929 . S
C246 H240 0.930 . S
C246 C247 1.367 . S
C246 C254 1.378 . S
C247 C246 1.367 . S
C247 C255 1.433 . S
C248 H244 0.929 . S
C248 C250 1.378 . S
C248 C252 1.350 . S
C249 C252 1.463 . S
C249 C254 1.350 1_556 S
C249 N257 1.427 . S
C250 H241 0.930 . S
C250 C248 1.378 . S
C250 C251 1.367 . S
C251 C250 1.367 . S
C251 C253 1.433 . S
C252 C248 1.350 . S
C252 C249 1.463 . S
C252 N256 1.427 . S
C253 H243 0.929 . S
C253 C251 1.433 . S
C253 N256 1.384 . S
C254 H245 0.929 . S
C254 C246 1.378 . S
C254 C249 1.350 1_554 S
C255 H242 0.929 . S
C255 C247 1.433 . S
C255 N257 1.384 1_554 S
N256 C252 1.427 . S
N256 C253 1.384 . S
N257 C249 1.427 . S
N257 C255 1.384 1_556 S
H258 C264 0.930 . S
H259 C268 0.930 . S
H260 C273 0.929 . S
H261 C271 0.929 . S
H262 C266 0.929 . S
H263 C272 0.929 . S
C264 H258 0.930 . S
C264 C265 1.367 . S
C264 C272 1.378 . S
C265 C264 1.367 . S
C265 C273 1.433 . S
C266 H262 0.929 . S
C266 C268 1.378 . S
C266 C270 1.350 . S
C267 C270 1.463 . S
C267 C272 1.350 . S
C267 N275 1.427 . S
C268 H259 0.930 . S
C268 C266 1.378 . S
C268 C269 1.367 . S
C269 C268 1.367 . S
C269 C271 1.433 . S
C270 C266 1.350 . S
C270 C267 1.463 . S
C270 N274 1.427 . S
C271 H261 0.929 . S
C271 C269 1.433 . S
C271 N274 1.384 . S
C272 H263 0.929 . S
C272 C264 1.378 . S
C272 C267 1.350 . S
C273 H260 0.929 . S
C273 C265 1.433 . S
C273 N275 1.384 . S
N274 C270 1.427 . S
N274 C271 1.384 . S
N275 C267 1.427 . S
N275 C273 1.384 . S
H276 C282 0.930 . S
H277 C286 0.930 . S
H278 C291 0.929 . S
H279 C289 0.929 . S
H280 C284 0.929 . S
H281 C290 0.929 . S
C282 H276 0.930 . S
C282 C283 1.367 . S
C282 C290 1.378 . S
C283 C282 1.367 . S
C283 C291 1.433 . S
C284 H280 0.929 . S
C284 C286 1.378 . S
C284 C288 1.350 . S
C285 C288 1.463 . S
C285 C290 1.350 . S
C285 N293 1.427 . S
C286 H277 0.930 . S
C286 C284 1.378 . S
C286 C287 1.367 . S
C287 C286 1.367 . S
C287 C289 1.433 . S
C288 C284 1.350 . S
C288 C285 1.463 . S
C288 N292 1.427 . S
C289 H279 0.929 . S
C289 C287 1.433 . S
C289 N292 1.384 . S
C290 H281 0.929 . S
C290 C282 1.378 . S
C290 C285 1.350 . S
C291 H278 0.929 . S
C291 C283 1.433 . S
C291 N293 1.384 . S
N292 C288 1.427 . S
N292 C289 1.384 . S
N293 C285 1.427 . S
N293 C291 1.384 . S
H294 C300 0.930 . S
H295 C304 0.930 . S
H296 C309 0.929 . S
H297 C307 0.929 . S
H298 C302 0.929 . S
H299 C308 0.929 . S
C300 H294 0.930 . S
C300 C301 1.367 . S
C300 C308 1.378 . S
C301 C300 1.367 . S
C301 C309 1.433 . S
C302 H298 0.929 . S
C302 C304 1.378 . S
C302 C306 1.350 . S
C303 C306 1.463 . S
C303 C308 1.350 . S
C303 N311 1.427 . S
C304 H295 0.930 . S
C304 C302 1.378 . S
C304 C305 1.367 . S
C305 C304 1.367 . S
C305 C307 1.433 . S
C306 C302 1.350 . S
C306 C303 1.463 . S
C306 N310 1.427 . S
C307 H297 0.929 . S
C307 C305 1.433 . S
C307 N310 1.384 . S
C308 H299 0.929 . S
C308 C300 1.378 . S
C308 C303 1.350 . S
C309 H296 0.929 . S
C309 C301 1.433 . S
C309 N311 1.384 . S
N310 C306 1.427 . S
N310 C307 1.384 . S
N311 C303 1.427 . S
N311 C309 1.384 . S
H312 C318 0.930 . S
H313 C322 0.930 . S
H314 C327 0.929 . S
H315 C325 0.929 . S
H316 C320 0.929 . S
H317 C326 0.929 . S
C318 H312 0.930 . S
C318 C319 1.367 . S
C318 C326 1.378 . S
C319 C318 1.367 . S
C319 C327 1.433 . S
C320 H316 0.929 . S
C320 C322 1.378 . S
C320 C324 1.350 . S
C321 C324 1.463 . S
C321 C326 1.350 . S
C321 N329 1.427 . S
C322 H313 0.930 . S
C322 C320 1.378 . S
C322 C323 1.367 . S
C323 C322 1.367 . S
C323 C325 1.433 . S
C324 C320 1.350 . S
C324 C321 1.463 . S
C324 N328 1.427 . S
C325 H315 0.929 . S
C325 C323 1.433 . S
C325 N328 1.384 . S
C326 H317 0.929 . S
C326 C318 1.378 . S
C326 C321 1.350 . S
C327 H314 0.929 . S
C327 C319 1.433 . S
C327 N329 1.384 . S
N328 C324 1.427 . S
N328 C325 1.384 . S
N329 C321 1.427 . S
N329 C327 1.384 . S
H330 C336 0.930 . S
H331 C340 0.930 . S
H332 C345 0.929 . S
H333 C343 0.929 . S
H334 C338 0.929 . S
H335 C344 0.929 . S
C336 H330 0.930 . S
C336 C337 1.367 . S
C336 C344 1.378 . S
C337 C336 1.367 . S
C337 C345 1.433 . S
C338 H334 0.929 . S
C338 C340 1.378 . S
C338 C342 1.350 . S
C339 C342 1.463 . S
C339 C344 1.350 . S
C339 N347 1.427 . S
C340 H331 0.930 . S
C340 C338 1.378 . S
C340 C341 1.367 . S
C341 C340 1.367 . S
C341 C343 1.433 . S
C342 C338 1.350 . S
C342 C339 1.463 . S
C342 N346 1.427 . S
C343 H333 0.929 . S
C343 C341 1.433 . S
C343 N346 1.384 . S
C344 H335 0.929 . S
C344 C336 1.378 . S
C344 C339 1.350 . S
C345 H332 0.929 . S
C345 C337 1.433 . S
C345 N347 1.384 . S
N346 C342 1.427 . S
N346 C343 1.384 . S
N347 C339 1.427 . S
N347 C345 1.384 . S
H348 C354 0.930 . S
H349 C358 0.930 . S
H350 C363 0.929 . S
H351 C361 0.929 . S
H352 C356 0.929 . S
H353 C362 0.929 . S
C354 H348 0.930 . S
C354 C355 1.367 . S
C354 C362 1.378 . S
C355 C354 1.367 . S
C355 C363 1.433 . S
C356 H352 0.929 . S
C356 C358 1.378 . S
C356 C360 1.350 . S
C357 C360 1.463 . S
C357 C362 1.350 . S
C357 N365 1.427 . S
C358 H349 0.930 . S
C358 C356 1.378 . S
C358 C359 1.367 . S
C359 C358 1.367 . S
C359 C361 1.433 . S
C360 C356 1.350 . S
C360 C357 1.463 . S
C360 N364 1.427 . S
C361 H351 0.929 . S
C361 C359 1.433 . S
C361 N364 1.384 . S
C362 H353 0.929 . S
C362 C354 1.378 . S
C362 C357 1.350 . S
C363 H350 0.929 . S
C363 C355 1.433 . S
C363 N365 1.384 . S
N364 C360 1.427 . S
N364 C361 1.384 . S
N365 C357 1.427 . S
N365 C363 1.384 . S
H366 C372 0.930 . S
H367 C376 0.930 . S
H368 C381 0.929 . S
H369 C379 0.929 . S
H370 C374 0.929 . S
H371 C380 0.929 . S
C372 H366 0.930 . S
C372 C373 1.367 . S
C372 C380 1.378 . S
C373 C372 1.367 . S
C373 C381 1.433 . S
C374 H370 0.929 . S
C374 C376 1.378 . S
C374 C378 1.350 1_554 S
C375 C378 1.463 . S
C375 C380 1.350 . S
C375 N383 1.427 . S
C376 H367 0.930 . S
C376 C374 1.378 . S
C376 C377 1.367 . S
C377 C376 1.367 . S
C377 C379 1.433 1_554 S
C378 C374 1.350 1_556 S
C378 C375 1.463 . S
C378 N382 1.427 . S
C379 H369 0.929 . S
C379 C377 1.433 1_556 S
C379 N382 1.384 . S
C380 H371 0.929 . S
C380 C372 1.378 . S
C380 C375 1.350 . S
C381 H368 0.929 . S
C381 C373 1.433 . S
C381 N383 1.384 . S
N382 C378 1.427 . S
N382 C379 1.384 . S
N383 C375 1.427 . S
N383 C381 1.384 . S
H384 C390 0.930 . S
H385 C394 0.930 . S
H386 C399 0.929 . S
H387 C397 0.929 . S
H388 C392 0.929 . S
H389 C398 0.929 . S
C390 H384 0.930 . S
C390 C391 1.367 . S
C390 C398 1.378 . S
C391 C390 1.367 . S
C391 C399 1.433 . S
C392 H388 0.929 . S
C392 C394 1.378 . S
C392 C396 1.350 . S
C393 C396 1.463 . S
C393 C398 1.350 . S
C393 N401 1.427 . S
C394 H385 0.930 . S
C394 C392 1.378 . S
C394 C395 1.367 . S
C395 C394 1.367 . S
C395 C397 1.433 . S
C396 C392 1.350 . S
C396 C393 1.463 . S
C396 N400 1.427 . S
C397 H387 0.929 . S
C397 C395 1.433 . S
C397 N400 1.384 . S
C398 H389 0.929 . S
C398 C390 1.378 . S
C398 C393 1.350 . S
C399 H386 0.929 . S
C399 C391 1.433 . S
C399 N401 1.384 . S
N400 C396 1.427 . S
N400 C397 1.384 . S
N401 C393 1.427 . S
N401 C399 1.384 . S
H402 C408 0.930 . S
H403 C412 0.930 . S
H404 C417 0.929 . S
H405 C415 0.929 . S
H406 C410 0.929 . S
H407 C416 0.929 . S
C408 H402 0.930 . S
C408 C409 1.367 . S
C408 C416 1.378 . S
C409 C408 1.367 . S
C409 C417 1.433 . S
C410 H406 0.929 . S
C410 C412 1.378 . S
C410 C414 1.350 1_554 S
C411 C414 1.463 . S
C411 C416 1.350 . S
C411 N419 1.427 . S
C412 H403 0.930 . S
C412 C410 1.378 . S
C412 C413 1.367 . S
C413 C412 1.367 . S
C413 C415 1.433 . S
C414 C410 1.350 1_556 S
C414 C411 1.463 . S
C414 N418 1.427 . S
C415 H405 0.929 . S
C415 C413 1.433 . S
C415 N418 1.384 1_554 S
C416 H407 0.929 . S
C416 C408 1.378 . S
C416 C411 1.350 . S
C417 H404 0.929 . S
C417 C409 1.433 . S
C417 N419 1.384 . S
N418 C414 1.427 . S
N418 C415 1.384 1_556 S
N419 C411 1.427 . S
N419 C417 1.384 . S
H420 C426 0.930 . S
H421 C430 0.930 . S
H422 C435 0.929 1_556 S
H423 C433 0.929 . S
H424 C428 0.929 . S
H425 C434 0.929 . S
C426 H420 0.930 . S
C426 C427 1.367 . S
C426 C434 1.378 . S
C427 C426 1.367 . S
C427 C435 1.433 . S
C428 H424 0.929 . S
C428 C430 1.378 . S
C428 C432 1.350 . S
C429 C432 1.463 . S
C429 C434 1.350 . S
C429 N437 1.427 . S
C430 H421 0.930 . S
C430 C428 1.378 . S
C430 C431 1.367 . S
C431 C430 1.367 . S
C431 C433 1.433 . S
C432 C428 1.350 . S
C432 C429 1.463 . S
C432 N436 1.427 . S
C433 H423 0.929 . S
C433 C431 1.433 . S
C433 N436 1.384 . S
C434 H425 0.929 . S
C434 C426 1.378 . S
C434 C429 1.350 . S
C435 H422 0.929 1_554 S
C435 C427 1.433 . S
C435 N437 1.384 . S
N436 C432 1.427 . S
N436 C433 1.384 . S
N437 C429 1.427 . S
N437 C435 1.384 . S
H438 C444 0.930 . S
H439 C448 0.930 . S
H440 C453 0.929 . S
H441 C451 0.929 . S
H442 C446 0.929 . S
H443 C452 0.929 . S
C444 H438 0.930 . S
C444 C445 1.367 . S
C444 C452 1.378 . S
C445 C444 1.367 . S
C445 C453 1.433 . S
C446 H442 0.929 . S
C446 C448 1.378 . S
C446 C450 1.350 . S
C447 C450 1.463 . S
C447 C452 1.350 . S
C447 N455 1.427 . S
C448 H439 0.930 . S
C448 C446 1.378 . S
C448 C449 1.367 . S
C449 C448 1.367 . S
C449 C451 1.433 . S
C450 C446 1.350 . S
C450 C447 1.463 . S
C450 N454 1.427 . S
C451 H441 0.929 . S
C451 C449 1.433 . S
C451 N454 1.384 . S
C452 H443 0.929 . S
C452 C444 1.378 . S
C452 C447 1.350 . S
C453 H440 0.929 . S
C453 C445 1.433 . S
C453 N455 1.384 . S
N454 C450 1.427 . S
N454 C451 1.384 . S
N455 C447 1.427 . S
N455 C453 1.384 . S
H456 C462 0.930 . S
H457 C466 0.930 . S
H458 C471 0.929 . S
H459 C469 0.929 . S
H460 C464 0.929 . S
H461 C470 0.929 . S
C462 H456 0.930 . S
C462 C463 1.367 . S
C462 C470 1.378 . S
C463 C462 1.367 . S
C463 C471 1.433 . S
C464 H460 0.929 . S
C464 C466 1.378 . S
C464 C468 1.350 . S
C465 C468 1.463 . S
C465 C470 1.350 . S
C465 N473 1.427 . S
C466 H457 0.930 . S
C466 C464 1.378 . S
C466 C467 1.367 . S
C467 C466 1.367 . S
C467 C469 1.433 . S
C468 C464 1.350 . S
C468 C465 1.463 . S
C468 N472 1.427 . S
C469 H459 0.929 . S
C469 C467 1.433 . S
C469 N472 1.384 . S
C470 H461 0.929 . S
C470 C462 1.378 . S
C470 C465 1.350 . S
C471 H458 0.929 . S
C471 C463 1.433 . S
C471 N473 1.384 . S
N472 C468 1.427 . S
N472 C469 1.384 . S
N473 C465 1.427 . S
N473 C471 1.384 . S
H474 C480 0.930 . S
H475 C484 0.930 . S
H476 C489 0.929 . S
H477 C487 0.929 . S
H478 C482 0.929 . S
H479 C488 0.929 . S
C480 H474 0.930 . S
C480 C481 1.367 . S
C480 C488 1.378 . S
C481 C480 1.367 . S
C481 C489 1.433 . S
C482 H478 0.929 . S
C482 C484 1.378 . S
C482 C486 1.350 . S
C483 C486 1.463 . S
C483 C488 1.350 . S
C483 N491 1.427 . S
C484 H475 0.930 . S
C484 C482 1.378 . S
C484 C485 1.367 . S
C485 C484 1.367 . S
C485 C487 1.433 . S
C486 C482 1.350 . S
C486 C483 1.463 . S
C486 N490 1.427 . S
C487 H477 0.929 . S
C487 C485 1.433 . S
C487 N490 1.384 . S
C488 H479 0.929 . S
C488 C480 1.378 . S
C488 C483 1.350 . S
C489 H476 0.929 . S
C489 C481 1.433 . S
C489 N491 1.384 . S
N490 C486 1.427 . S
N490 C487 1.384 . S
N491 C483 1.427 . S
N491 C489 1.384 . S
H492 C498 0.930 . S
H493 C502 0.930 . S
H494 C507 0.929 1_556 S
H495 C505 0.929 . S
H496 C500 0.929 . S
H497 C506 0.929 . S
C498 H492 0.930 . S
C498 C499 1.367 . S
C498 C506 1.378 . S
C499 C498 1.367 . S
C499 C507 1.433 . S
C500 H496 0.929 . S
C500 C502 1.378 . S
C500 C504 1.350 1_556 S
C501 C504 1.463 1_545 S
C501 C506 1.350 . S
C501 N509 1.410 1_554 S
C502 H493 0.930 . S
C502 C500 1.378 . S
C502 C503 1.367 1_556 S
C503 C502 1.367 1_554 S
C503 C505 1.433 . S
C504 C500 1.350 1_554 S
C504 C501 1.463 1_565 S
C504 N508 1.427 . S
C505 H495 0.929 . S
C505 C503 1.433 . S
C505 N508 1.384 . S
C506 H497 0.929 . S
C506 C498 1.378 . S
C506 C501 1.350 . S
C507 H494 0.929 1_554 S
C507 C499 1.433 . S
C507 N509 1.383 1_554 S
N508 C504 1.427 . S
N508 C505 1.384 . S
N509 C501 1.410 1_556 S
N509 C507 1.383 1_556 S
H510 C516 0.930 . S
H511 C520 0.930 . S
H512 C525 0.929 . S
H513 C523 0.929 . S
H514 C518 0.929 . S
H515 C524 0.929 . S
C516 H510 0.930 . S
C516 C517 1.367 . S
C516 C524 1.378 . S
C517 C516 1.367 . S
C517 C525 1.433 . S
C518 H514 0.929 . S
C518 C520 1.378 . S
C518 C522 1.350 . S
C519 C522 1.463 . S
C519 C524 1.350 . S
C519 N527 1.427 . S
C520 H511 0.930 . S
C520 C518 1.378 . S
C520 C521 1.367 . S
C521 C520 1.367 . S
C521 C523 1.433 . S
C522 C518 1.350 . S
C522 C519 1.463 . S
C522 N526 1.427 . S
C523 H513 0.929 . S
C523 C521 1.433 . S
C523 N526 1.384 . S
C524 H515 0.929 . S
C524 C516 1.378 . S
C524 C519 1.350 . S
C525 H512 0.929 . S
C525 C517 1.433 . S
C525 N527 1.384 . S
N526 C522 1.427 . S
N526 C523 1.384 . S
N527 C519 1.427 . S
N527 C525 1.384 . S
H528 C534 0.930 . S
H529 C538 0.930 . S
H530 C543 0.929 . S
H531 C541 0.929 . S
H532 C536 0.929 . S
H533 C542 0.929 . S
C534 H528 0.930 . S
C534 C535 1.367 . S
C534 C542 1.378 . S
C535 C534 1.367 . S
C535 C543 1.433 . S
C536 H532 0.929 . S
C536 C538 1.378 . S
C536 C540 1.350 . S
C537 C540 1.463 1_455 S
C537 C542 1.350 . S
C537 N545 1.427 . S
C538 H529 0.930 . S
C538 C536 1.378 . S
C538 C539 1.367 . S
C539 C538 1.367 . S
C539 C541 1.433 . S
C540 C536 1.350 . S
C540 C537 1.463 1_655 S
C540 N544 1.427 . S
C541 H531 0.929 . S
C541 C539 1.433 . S
C541 N544 1.384 . S
C542 H533 0.929 . S
C542 C534 1.378 . S
C542 C537 1.350 . S
C543 H530 0.929 . S
C543 C535 1.433 . S
C543 N545 1.384 . S
N544 C540 1.427 . S
N544 C541 1.384 . S
N545 C537 1.427 . S
N545 C543 1.384 . S
H546 C552 0.930 . S
H547 C556 0.930 . S
H548 C561 0.929 . S
H549 C559 0.929 . S
H550 C554 0.929 . S
H551 C560 0.929 . S
C552 H546 0.930 . S
C552 C553 1.367 . S
C552 C560 1.378 . S
C553 C552 1.367 . S
C553 C561 1.433 . S
C554 H550 0.929 . S
C554 C556 1.378 . S
C554 C558 1.350 . S
C555 C558 1.463 1_565 S
C555 C560 1.350 . S
C555 N563 1.427 . S
C556 H547 0.930 . S
C556 C554 1.378 . S
C556 C557 1.367 . S
C557 C556 1.367 . S
C557 C559 1.433 . S
C558 C554 1.350 . S
C558 C555 1.463 1_545 S
C558 N562 1.427 . S
C559 H549 0.929 . S
C559 C557 1.433 . S
C559 N562 1.384 . S
C560 H551 0.929 . S
C560 C552 1.378 . S
C560 C555 1.350 . S
C561 H548 0.929 . S
C561 C553 1.433 . S
C561 N563 1.384 . S
N562 C558 1.427 . S
N562 C559 1.384 . S
N563 C555 1.427 . S
N563 C561 1.384 . S
H564 C570 0.930 . S
H565 C574 0.930 . S
H566 C579 0.929 . S
H567 C577 0.929 . S
H568 C572 0.929 . S
H569 C578 0.929 . S
C570 H564 0.930 . S
C570 C571 1.367 . S
C570 C578 1.378 . S
C571 C570 1.367 . S
C571 C579 1.433 . S
C572 H568 0.929 . S
C572 C574 1.378 . S
C572 C576 1.350 . S
C573 C576 1.463 . S
C573 C578 1.350 . S
C573 N581 1.427 . S
C574 H565 0.930 . S
C574 C572 1.378 . S
C574 C575 1.367 . S
C575 C574 1.367 . S
C575 C577 1.433 . S
C576 C572 1.350 . S
C576 C573 1.463 . S
C576 N580 1.427 . S
C577 H567 0.929 . S
C577 C575 1.433 . S
C577 N580 1.384 . S
C578 H569 0.929 . S
C578 C570 1.378 . S
C578 C573 1.350 . S
C579 H566 0.929 . S
C579 C571 1.433 . S
C579 N581 1.384 . S
N580 C576 1.427 . S
N580 C577 1.384 . S
N581 C573 1.427 . S
N581 C579 1.384 . S
H582 C588 0.930 . S
H583 C592 0.930 . S
H584 C597 0.929 . S
H585 C595 0.929 . S
H586 C590 0.929 . S
H587 C596 0.929 . S
C588 H582 0.930 . S
C588 C589 1.367 . S
C588 C596 1.378 . S
C589 C588 1.367 . S
C589 C597 1.433 . S
C590 H586 0.929 . S
C590 C592 1.378 . S
C590 C594 1.350 . S
C591 C594 1.463 1_455 S
C591 C596 1.350 . S
C591 N599 1.427 . S
C592 H583 0.930 . S
C592 C590 1.378 . S
C592 C593 1.367 . S
C593 C592 1.367 . S
C593 C595 1.433 . S
C594 C590 1.350 . S
C594 C591 1.463 1_655 S
C594 N598 1.427 . S
C595 H585 0.929 . S
C595 C593 1.433 . S
C595 N598 1.384 . S
C596 H587 0.929 . S
C596 C588 1.378 . S
C596 C591 1.350 . S
C597 H584 0.929 . S
C597 C589 1.433 . S
C597 N599 1.384 . S
N598 C594 1.427 . S
N598 C595 1.384 . S
N599 C591 1.427 . S
N599 C597 1.384 . S
C175 C8 1.581 . S
C179 C148 1.573 . S
C193 C22 1.575 . S
C197 C162 1.586 . S
C211 C92 1.575 . S
C215 C36 1.586 . S
C229 C50 1.584 . S
C233 C106 1.573 . S
C247 C120 1.584 . S
C251 C64 1.581 . S
C265 C134 1.584 . S
C269 C78 1.573 1_554 S
C283 C119 1.072 . S
C287 C7 1.074 . S
C301 C21 1.080 . S
C305 C133 1.081 . S
C319 C147 1.081 . S
C323 C35 1.079 . S
C337 C49 1.080 . S
C341 C161 1.078 . S
C355 C63 1.070 . S
C359 C91 1.070 . S
C373 C77 1.081 . S
C377 C105 1.080 . S
C391 C151 1.401 . S
C395 C11 1.401 . S
C409 C165 1.401 . S
C413 C25 1.401 . S
C427 C95 1.401 1_554 S
C431 C39 1.401 . S
C445 C53 1.401 . S
C449 C109 1.401 . S
C463 C67 1.401 . S
C467 C123 1.401 . S
C481 C137 1.401 . S
C485 C81 1.401 . S
C499 C13 1.188 . S
C503 C111 1.190 . S
C517 C125 1.189 . S
C521 C27 1.188 . S
C535 C139 1.197 . S
C539 C41 1.201 . S
C553 C55 1.191 . S
C557 C153 1.194 . S
C571 C69 1.206 . S
C575 C167 1.204 . S
C589 C83 1.206 . S
C593 C97 1.204 . S
