# Generated by pormake.
# Topology usf, (4)-cn, num edge types: 1
# Building blocks:
#     Node 0, Type 0, BuildingBlock: KOZSID_clean_sbu_0, # of connection points: 4
#     Node 1, Type 0, BuildingBlock: KOZSID_clean_sbu_0, # of connection points: 4
#     Node 2, Type 0, BuildingBlock: KOZSID_clean_sbu_0, # of connection points: 4
#     Node 3, Type 0, BuildingBlock: KOZSID_clean_sbu_0, # of connection points: 4
#     Node 4, Type 0, BuildingBlock: KOZSID_clean_sbu_0, # of connection points: 4
#     Node 5, Type 0, BuildingBlock: KOZSID_clean_sbu_0, # of connection points: 4
#     Node 6, Type 0, BuildingBlock: KOZSID_clean_sbu_0, # of connection points: 4
#     Node 7, Type 0, BuildingBlock: KOZSID_clean_sbu_0, # of connection points: 4
#     Node 8, Type 0, BuildingBlock: KOZSID_clean_sbu_0, # of connection points: 4
#     Node 9, Type 0, BuildingBlock: KOZSID_clean_sbu_0, # of connection points: 4
#     Node 10, Type 0, BuildingBlock: KOZSID_clean_sbu_0, # of connection points: 4
#     Node 11, Type 0, BuildingBlock: KOZSID_clean_sbu_0, # of connection points: 4
#     Node 12, Type 0, BuildingBlock: KOZSID_clean_sbu_0, # of connection points: 4
#     Node 13, Type 0, BuildingBlock: KOZSID_clean_sbu_0, # of connection points: 4
#     Node 14, Type 0, BuildingBlock: KOZSID_clean_sbu_0, # of connection points: 4
#     Node 15, Type 0, BuildingBlock: KOZSID_clean_sbu_0, # of connection points: 4
#     Node 16, Type 0, BuildingBlock: KOZSID_clean_sbu_0, # of connection points: 4
#     Node 17, Type 0, BuildingBlock: KOZSID_clean_sbu_0, # of connection points: 4
#     Edge 18, Type (0, 0), BuildingBlock: KIFKEQ_clean_linker_1, # of connection points: 2
#     Edge 19, Type (0, 0), BuildingBlock: KIFKEQ_clean_linker_1, # of connection points: 2
#     Edge 20, Type (0, 0), BuildingBlock: KIFKEQ_clean_linker_1, # of connection points: 2
#     Edge 21, Type (0, 0), BuildingBlock: KIFKEQ_clean_linker_1, # of connection points: 2
#     Edge 22, Type (0, 0), BuildingBlock: KIFKEQ_clean_linker_1, # of connection points: 2
#     Edge 23, Type (0, 0), BuildingBlock: KIFKEQ_clean_linker_1, # of connection points: 2
#     Edge 24, Type (0, 0), BuildingBlock: KIFKEQ_clean_linker_1, # of connection points: 2
#     Edge 25, Type (0, 0), BuildingBlock: KIFKEQ_clean_linker_1, # of connection points: 2
#     Edge 26, Type (0, 0), BuildingBlock: KIFKEQ_clean_linker_1, # of connection points: 2
#     Edge 27, Type (0, 0), BuildingBlock: KIFKEQ_clean_linker_1, # of connection points: 2
#     Edge 28, Type (0, 0), BuildingBlock: KIFKEQ_clean_linker_1, # of connection points: 2
#     Edge 29, Type (0, 0), BuildingBlock: KIFKEQ_clean_linker_1, # of connection points: 2
#     Edge 30, Type (0, 0), BuildingBlock: KIFKEQ_clean_linker_1, # of connection points: 2
#     Edge 31, Type (0, 0), BuildingBlock: KIFKEQ_clean_linker_1, # of connection points: 2
#     Edge 32, Type (0, 0), BuildingBlock: KIFKEQ_clean_linker_1, # of connection points: 2
#     Edge 33, Type (0, 0), BuildingBlock: KIFKEQ_clean_linker_1, # of connection points: 2
#     Edge 34, Type (0, 0), BuildingBlock: KIFKEQ_clean_linker_1, # of connection points: 2
#     Edge 35, Type (0, 0), BuildingBlock: KIFKEQ_clean_linker_1, # of connection points: 2
#     Edge 36, Type (0, 0), BuildingBlock: KIFKEQ_clean_linker_1, # of connection points: 2
#     Edge 37, Type (0, 0), BuildingBlock: KIFKEQ_clean_linker_1, # of connection points: 2
#     Edge 38, Type (0, 0), BuildingBlock: KIFKEQ_clean_linker_1, # of connection points: 2
#     Edge 39, Type (0, 0), BuildingBlock: KIFKEQ_clean_linker_1, # of connection points: 2
#     Edge 40, Type (0, 0), BuildingBlock: KIFKEQ_clean_linker_1, # of connection points: 2
#     Edge 41, Type (0, 0), BuildingBlock: KIFKEQ_clean_linker_1, # of connection points: 2
#     Edge 42, Type (0, 0), BuildingBlock: KIFKEQ_clean_linker_1, # of connection points: 2
#     Edge 43, Type (0, 0), BuildingBlock: KIFKEQ_clean_linker_1, # of connection points: 2
#     Edge 44, Type (0, 0), BuildingBlock: KIFKEQ_clean_linker_1, # of connection points: 2
#     Edge 45, Type (0, 0), BuildingBlock: KIFKEQ_clean_linker_1, # of connection points: 2
#     Edge 46, Type (0, 0), BuildingBlock: KIFKEQ_clean_linker_1, # of connection points: 2
#     Edge 47, Type (0, 0), BuildingBlock: KIFKEQ_clean_linker_1, # of connection points: 2
#     Edge 48, Type (0, 0), BuildingBlock: KIFKEQ_clean_linker_1, # of connection points: 2
#     Edge 49, Type (0, 0), BuildingBlock: KIFKEQ_clean_linker_1, # of connection points: 2
#     Edge 50, Type (0, 0), BuildingBlock: KIFKEQ_clean_linker_1, # of connection points: 2
#     Edge 51, Type (0, 0), BuildingBlock: KIFKEQ_clean_linker_1, # of connection points: 2
#     Edge 52, Type (0, 0), BuildingBlock: KIFKEQ_clean_linker_1, # of connection points: 2
#     Edge 53, Type (0, 0), BuildingBlock: KIFKEQ_clean_linker_1, # of connection points: 2
# Relax obj value: 0.014
# Max RMSD: 0.049
# Mean RMSD: 0.025
data_MOF--net-usf--node1-KOZSID_clean_sbu_0--edge1-KIFKEQ_clean_linker_1
_symmetry_space_group_name_H-M    P1
_symmetry_Int_Tables_number       1
_symmetry_cell_setting            triclinic
loop_
_symmetry_equiv_pos_as_xyz
'x, y, z'
_cell_length_a     61.956139
_cell_length_b     62.0636
_cell_length_c     34.821006
_cell_angle_alpha  90.090084
_cell_angle_beta   89.657466
_cell_angle_gamma 116.29227
loop_
_atom_site_label
_atom_site_type_symbol
_atom_site_fract_x
_atom_site_fract_y
_atom_site_fract_z
_atom_type_partial_charge
C0 C 1.00311 0.48795 0.10648 0.0
C1 C 0.98581 0.46708 0.12316 0.0
C2 C 0.9711 0.45379 0.09433 0.0
C3 C 0.98033 0.467 0.06162 0.0
N4 N 1.00022 0.48785 0.06762 0.0
Co5 Co 0.01954 0.51159 0.02676 0.0
N6 N 0.99646 0.49304 0.98481 0.0
C7 C 0.9757 0.4728 0.98978 0.0
C8 C 0.96401 0.46309 0.95623 0.0
C9 C 0.97815 0.47789 0.92797 0.0
C10 C 0.99775 0.4961 0.94585 0.0
N11 N 0.03939 0.53481 0.98561 0.0
C12 C 0.03699 0.53405 0.94657 0.0
C13 C 0.05551 0.55381 0.92933 0.0
C14 C 0.07047 0.56699 0.95802 0.0
C15 C 0.06026 0.55478 0.99116 0.0
N16 N 0.04209 0.53062 0.069 0.0
C17 C 0.06187 0.55183 0.06449 0.0
C18 C 0.07274 0.56212 0.09831 0.0
C19 C 0.05896 0.54676 0.12632 0.0
C20 C 0.04048 0.52764 0.108 0.0
N21 N 0.03844 0.49308 0.01746 0.0
C22 C 0.06567 0.46878 0.99447 0.0
C23 C 0.07693 0.49233 1.00825 0.0
C24 C 0.06311 0.50406 0.0194 0.0
C25 C 0.04052 0.45722 0.99418 0.0
C26 C 0.02738 0.46948 1.00619 0.0
N27 N 1.00077 0.53025 0.03601 0.0
C28 C 0.99987 0.56842 0.04689 0.0
C29 C 0.97568 0.55698 0.05808 0.0
C30 C 0.96396 0.53186 0.0562 0.0
C31 C 0.9767 0.51897 0.04507 0.0
C32 C 0.01189 0.55489 0.0359 0.0
H33 H 0.96682 0.49986 0.04476 0.0
H34 H 0.0303 0.56485 0.02803 0.0
H35 H 0.07285 0.5222 0.02862 0.0
H36 H 0.00829 0.45957 1.00538 0.0
C37 C 0.9696 0.46141 0.02551 0.0
C38 C 0.02148 0.50748 0.12903 0.0
C39 C 0.01769 0.51508 0.92441 0.0
C40 C 0.06953 0.56179 0.02803 0.0
H41 H 0.98375 0.46208 0.15319 0.0
H42 H 0.95519 0.43679 0.09704 0.0
H43 H 0.94781 0.44648 0.95257 0.0
H44 H 0.97473 0.47489 0.89756 0.0
H45 H 0.05807 0.55825 0.89909 0.0
H46 H 0.08689 0.58351 0.95504 0.0
H47 H 0.08853 0.57908 0.1022 0.0
H48 H 0.062 0.5497 0.15683 0.0
H49 H 0.09638 0.50201 1.00916 0.0
H50 H 0.03097 0.43877 0.9846 0.0
H51 H 0.00964 0.58784 0.04669 0.0
H52 H 0.9452 0.52206 0.06442 0.0
C53 C 0.5676 0.51964 0.93394 0.0
C54 C 0.58714 0.51839 0.91615 0.0
C55 C 0.60245 0.51893 0.94451 0.0
C56 C 0.59172 0.52076 0.97803 0.0
N57 N 0.57033 0.52127 0.97295 0.0
Co58 Co 0.55014 0.52591 0.01466 0.0
N59 N 0.57435 0.52974 0.05582 0.0
C60 C 0.59578 0.52935 0.05035 0.0
C61 C 0.60843 0.53167 0.08351 0.0
C62 C 0.59414 0.53345 0.1121 0.0
C63 C 0.57349 0.5321 0.09471 0.0
N64 N 0.52974 0.53009 0.05651 0.0
C65 C 0.53263 0.53177 0.09546 0.0
C66 C 0.5133 0.53313 0.11364 0.0
C67 C 0.49749 0.53184 0.08554 0.0
C68 C 0.50799 0.52983 0.05182 0.0
N69 N 0.52619 0.52263 0.97339 0.0
C70 C 0.5049 0.52341 0.97884 0.0
C71 C 0.49219 0.52093 0.94573 0.0
C72 C 0.50637 0.51889 0.91718 0.0
C73 C 0.52718 0.52049 0.93444 0.0
N74 N 0.53372 0.49036 0.02438 0.0
C75 C 0.50978 0.44099 0.04638 0.0
C76 C 0.497 0.4535 0.03395 0.0
C77 C 0.50911 0.4778 0.02361 0.0
C78 C 0.535 0.45365 0.0458 0.0
C79 C 0.54644 0.47789 0.0343 0.0
N80 N 0.56641 0.5614 1.00494 0.0
C81 C 0.56391 0.59832 0.98905 0.0
C82 C 0.58881 0.61068 0.98249 0.0
C83 C 0.60228 0.59788 0.989 0.0
C84 C 0.59087 0.57357 0.99989 0.0
C85 C 0.5533 0.57415 1.00059 0.0
H86 H 0.60223 0.56492 1.00357 0.0
H87 H 0.53432 0.56602 1.0051 0.0
H88 H 0.498 0.48605 0.01555 0.0
H89 H 0.56564 0.48626 0.03433 0.0
C90 C 0.60253 0.52473 0.0141 0.0
C91 C 0.54741 0.52019 0.91238 0.0
C92 C 0.55312 0.53191 0.1167 0.0
C93 C 0.49749 0.52667 0.01552 0.0
H94 H 0.59053 0.51791 0.88576 0.0
H95 H 0.61988 0.51907 0.94097 0.0
H96 H 0.62563 0.53131 0.08667 0.0
H97 H 0.5982 0.5349 0.14245 0.0
H98 H 0.51075 0.53457 0.14415 0.0
H99 H 0.48015 0.53188 0.08932 0.0
H100 H 0.47477 0.52081 0.94265 0.0
H101 H 0.50188 0.51665 0.887 0.0
H102 H 0.47756 0.44472 0.03217 0.0
H103 H 0.5461 0.44524 0.05502 0.0
H104 H 0.55231 0.60694 0.98441 0.0
H105 H 0.62167 0.60646 0.9857 0.0
C106 C 0.51487 0.04612 0.07348 0.0
C107 C 0.51204 0.06695 0.07793 0.0
C108 C 0.51786 0.0786 0.0435 0.0
C109 C 0.52382 0.06423 0.02016 0.0
N110 N 0.522 0.04399 0.03743 0.0
Co111 Co 0.52904 0.01815 0.01421 0.0
N112 N 0.53904 0.03607 0.9643 0.0
C113 C 0.53945 0.05753 0.95582 0.0
C114 C 0.54634 0.06499 0.91891 0.0
C115 C 0.55057 0.04726 0.90264 0.0
C116 C 0.54619 0.02994 0.93087 0.0
N117 N 0.53599 0.99227 0.99096 0.0
C118 C 0.54378 0.99047 0.95522 0.0
C119 C 0.54674 0.96969 0.95097 0.0
C120 C 0.54017 0.95768 0.98505 0.0
C121 C 0.53374 0.97182 1.0081 0.0
N122 N 0.51922 1.00034 0.06423 0.0
C123 C 0.51871 0.97886 0.07282 0.0
C124 C 0.51169 0.97144 0.10977 0.0
C125 C 0.50763 0.98932 0.12596 0.0
C126 C 0.51236 0.00665 0.09771 0.0
N127 N 0.49493 1.00116 0.99574 0.0
C128 C 0.44628 0.97698 0.9703 0.0
C129 C 0.4573 0.96479 0.98986 0.0
C130 C 0.48132 0.97701 1.00193 0.0
C131 C 0.46037 1.0016 0.96364 0.0
C132 C 0.48427 0.01318 0.97655 0.0
N133 N 0.5631 0.03509 0.03266 0.0
C134 C 0.59799 0.03408 0.0625 0.0
C135 C 0.61174 0.0589 0.05774 0.0
C136 C 0.60042 0.07155 0.04045 0.0
C137 C 0.57639 0.05945 0.02831 0.0
C138 C 0.57405 0.0227 0.04997 0.0
H139 H 0.56896 0.07019 0.0153 0.0
H140 H 0.56475 1.00382 0.05468 0.0
H141 H 0.48844 0.96648 0.01635 0.0
H142 H 0.49377 0.03191 0.97054 0.0
C143 C 0.53212 0.06974 0.98252 0.0
C144 C 0.51107 0.02922 0.10456 0.0
C145 C 0.54804 0.00756 0.92411 0.0
C146 C 0.52561 0.9664 0.0459 0.0
H147 H 0.50657 0.07316 0.10357 0.0
H148 H 0.5181 0.09569 0.03648 0.0
H149 H 0.5476 0.08115 0.90518 0.0
H150 H 0.55579 0.04708 0.87304 0.0
H151 H 0.55286 0.96375 0.92571 0.0
H152 H 0.54002 0.94064 0.99215 0.0
H153 H 0.51013 0.95517 0.12349 0.0
H154 H 0.5022 0.9897 0.15544 0.0
H155 H 0.44741 0.94586 0.9965 0.0
H156 H 0.45318 0.01204 0.94806 0.0
H157 H 0.60553 0.02335 0.07634 0.0
H158 H 0.61014 0.09073 0.03562 0.0
C159 C 0.57175 0.01673 0.48366 0.0
C160 C 0.59646 0.02957 0.47839 0.0
C161 C 0.60261 0.0525 0.49023 0.0
C162 C 0.58146 0.05234 0.50229 0.0
N163 N 0.56207 0.03074 0.49865 0.0
Co164 Co 0.52811 0.02241 0.51504 0.0
N165 N 0.53725 0.05621 0.53247 0.0
C166 C 0.55925 0.07515 0.5296 0.0
C167 C 0.55996 0.09636 0.54227 0.0
C168 C 0.53698 0.09073 0.55366 0.0
C169 C 0.52353 0.06626 0.54747 0.0
N170 N 0.49435 0.01384 0.53292 0.0
C171 C 0.48482 0.02768 0.54904 0.0
C172 C 0.46063 0.01429 0.55807 0.0
C173 C 0.45456 0.99125 0.54683 0.0
C174 C 0.47532 0.99182 0.53188 0.0
N175 N 0.51877 0.98884 0.49626 0.0
C176 C 0.49633 0.97044 0.49592 0.0
C177 C 0.49527 0.9497 0.48036 0.0
C178 C 0.51841 0.95513 0.4701 0.0
C179 C 0.53235 0.97894 0.48027 0.0
N180 N 0.5353 0.01378 0.56645 0.0
C181 C 0.54324 1.00238 0.64135 0.0
C182 C 0.52426 0.98597 0.61961 0.0
C183 C 0.52075 0.99192 0.58244 0.0
C184 C 0.5589 0.02416 0.62452 0.0
C185 C 0.55459 0.0295 0.58724 0.0
N186 N 0.52081 0.03091 0.46351 0.0
C187 C 0.49343 0.02242 0.41033 0.0
C188 C 0.51149 0.03948 0.38752 0.0
C189 C 0.53389 0.05329 0.40423 0.0
C190 C 0.53804 0.04891 0.44214 0.0
C191 C 0.49847 0.01834 0.44775 0.0
H192 H 0.5555 0.05993 0.45315 0.0
H193 H 0.48405 0.00456 0.46292 0.0
H194 H 0.50586 0.97867 0.56754 0.0
H195 H 0.56677 0.04662 0.57617 0.0
C196 C 0.57906 0.07231 0.51599 0.0
C197 C 0.55841 0.99123 0.47436 0.0
C198 C 0.49774 0.05355 0.55566 0.0
C199 C 0.47703 0.97261 0.51345 0.0
H200 H 0.60882 0.02306 0.46724 0.0
H201 H 0.62039 0.0675 0.49005 0.0
H202 H 0.57535 0.11385 0.5431 0.0
H203 H 0.5308 0.10328 0.56505 0.0
H204 H 0.44854 0.0206 0.57094 0.0
H205 H 0.43696 0.97603 0.54848 0.0
H206 H 0.47962 0.93252 0.47757 0.0
H207 H 0.52439 0.94288 0.45697 0.0
H208 H 0.51188 0.96874 0.63152 0.0
H209 H 0.57379 0.03744 0.64059 0.0
H210 H 0.47554 0.01173 0.39912 0.0
H211 H 0.54852 0.06677 0.3878 0.0
C212 C 0.03221 0.4959 0.44637 0.0
C213 C 0.04944 0.49052 0.4289 0.0
C214 C 0.06433 0.49003 0.45725 0.0
C215 C 0.05528 0.49479 0.49046 0.0
N216 N 0.03528 0.49796 0.48523 0.0
Co217 Co 0.01654 0.505 0.52675 0.0
N218 N 0.04025 0.50734 0.56783 0.0
C219 C 0.06085 0.50525 0.56217 0.0
C220 C 0.07311 0.50642 0.59531 0.0
C221 C 0.05955 0.50935 0.62399 0.0
C222 C 0.0397 0.51002 0.60677 0.0
N223 N 0.99738 0.51127 0.5685 0.0
C224 C 1.00065 0.51365 0.60732 0.0
C225 C 0.9826 0.51766 0.62503 0.0
C226 C 0.96706 0.51696 0.59694 0.0
C227 C 0.97649 0.51282 0.56365 0.0
N228 N 0.99328 0.50348 0.48541 0.0
C229 C 0.97337 0.50687 0.49068 0.0
C230 C 0.96209 0.50741 0.45727 0.0
C231 C 0.97577 0.50458 0.42871 0.0
C232 C 0.99463 0.50214 0.44632 0.0
N233 N 0.99782 0.46967 0.53713 0.0
C234 C 0.97151 0.42038 0.55804 0.0
C235 C 0.95979 0.43454 0.54908 0.0
C236 C 0.97312 0.45882 0.53865 0.0
C237 C 0.99668 0.43139 0.55536 0.0
C238 C 0.00928 0.45567 0.54492 0.0
N239 N 0.03521 0.54027 0.51628 0.0
C240 C 0.03652 0.57959 0.5064 0.0
C241 C 0.0603 0.58922 0.49261 0.0
C242 C 0.07146 0.57387 0.49258 0.0
C243 C 0.05889 0.54993 0.50491 0.0
C244 C 0.02445 0.5554 0.51768 0.0
H245 H 0.06863 0.53943 0.50424 0.0
H246 H 0.00628 0.54931 0.527 0.0
H247 H 0.96303 0.46852 0.53228 0.0
H248 H 0.02837 0.46276 0.54397 0.0
C249 C 0.06654 0.49906 0.52621 0.0
C250 C 0.01388 0.49963 0.42455 0.0
C251 C 0.02033 0.51214 0.62884 0.0
C252 C 0.96651 0.51088 0.52722 0.0
H253 H 0.05141 0.48778 0.39864 0.0
H254 H 0.08036 0.48736 0.45386 0.0
H255 H 0.08941 0.50424 0.59845 0.0
H256 H 0.06356 0.51005 0.65426 0.0
H257 H 0.98076 0.52074 0.65519 0.0
H258 H 0.95081 0.51923 0.60039 0.0
H259 H 0.94625 0.5104 0.45398 0.0
H260 H 0.97249 0.50503 0.39834 0.0
H261 H 0.94033 0.42695 0.54988 0.0
H262 H 0.00684 0.42152 0.56224 0.0
H263 H 0.02701 0.59055 0.50854 0.0
H264 H 0.08971 0.57993 0.48218 0.0
C265 C 0.54589 0.54254 0.59543 0.0
C266 C 0.54305 0.56111 0.61347 0.0
C267 C 0.54284 0.57627 0.58533 0.0
C268 C 0.54582 0.56642 0.55169 0.0
N269 N 0.5478 0.54575 0.5565 0.0
Co270 Co 0.55423 0.52695 0.5145 0.0
N271 N 0.55662 0.5509 0.47364 0.0
C272 C 0.55507 0.5717 0.47946 0.0
C273 C 0.55652 0.58423 0.44639 0.0
C274 C 0.55889 0.57051 0.41752 0.0
C275 C 0.55875 0.55028 0.43465 0.0
N276 N 0.56001 0.50783 0.47232 0.0
C277 C 0.5611 0.51076 0.43336 0.0
C278 C 0.56385 0.4923 0.41489 0.0
C279 C 0.56401 0.47696 0.44284 0.0
C280 C 0.5614 0.48686 0.47674 0.0
N281 N 0.55246 0.50332 0.55545 0.0
C282 C 0.55503 0.48302 0.54975 0.0
C283 C 0.55324 0.47029 0.5827 0.0
C284 C 0.54976 0.48344 0.6114 0.0
C285 C 0.54986 0.50371 0.59441 0.0
N286 N 0.51878 0.50872 0.50487 0.0
C287 C 0.46952 0.48274 0.48343 0.0
C288 C 0.48334 0.47093 0.49409 0.0
C289 C 0.50759 0.48407 0.50438 0.0
C290 C 0.48086 0.50794 0.48517 0.0
C291 C 0.50508 0.52038 0.49624 0.0
N292 N 0.58973 0.54514 0.52417 0.0
C293 C 0.62852 0.54556 0.53654 0.0
C294 C 0.63897 0.57002 0.54609 0.0
C295 C 0.62438 0.58189 0.54296 0.0
C296 C 0.6002 0.56932 0.53191 0.0
C297 C 0.60421 0.53364 0.52571 0.0
H298 H 0.59025 0.57956 0.53032 0.0
H299 H 0.59742 0.51498 0.51937 0.0
H300 H 0.51696 0.4738 0.5114 0.0
H301 H 0.51244 0.53949 0.49695 0.0
C302 C 0.54962 0.57759 0.51579 0.0
C303 C 0.5477 0.52287 0.61672 0.0
C304 C 0.55933 0.53043 0.41239 0.0
C305 C 0.55903 0.47637 0.51298 0.0
H306 H 0.54201 0.56399 0.6439 0.0
H307 H 0.54175 0.59308 0.5891 0.0
H308 H 0.55503 0.60088 0.44346 0.0
H309 H 0.55984 0.57459 0.38718 0.0
H310 H 0.56521 0.48998 0.3843 0.0
H311 H 0.56528 0.46026 0.43885 0.0
H312 H 0.55445 0.4535 0.58555 0.0
H313 H 0.54754 0.47863 0.64151 0.0
H314 H 0.47559 0.45151 0.49462 0.0
H315 H 0.47139 0.51828 0.47715 0.0
H316 H 0.63883 0.53535 0.53842 0.0
H317 H 0.63156 0.60093 0.54896 0.0
C318 C 0.68595 0.84131 0.42975 0.0
C319 C 0.66792 0.82126 0.4472 0.0
C320 C 0.65312 0.80765 0.41869 0.0
C321 C 0.66293 0.81993 0.38543 0.0
N322 N 0.68339 0.84037 0.39074 0.0
Co323 Co 0.70273 0.86364 0.34926 0.0
N324 N 0.6805 0.84386 0.30727 0.0
C325 C 0.66117 0.82233 0.31206 0.0
C326 C 0.65049 0.8116 0.27835 0.0
C327 C 0.66393 0.82701 0.25014 0.0
C328 C 0.68202 0.84659 0.26823 0.0
N329 N 0.72155 0.8874 0.30805 0.0
C330 C 0.7186 0.88694 0.26919 0.0
C331 C 0.73547 0.90793 0.25218 0.0
C332 C 0.74999 0.92169 0.28082 0.0
C333 C 0.74106 0.90861 0.31374 0.0
N334 N 0.72548 0.883 0.391 0.0
C335 C 0.74584 0.90361 0.38578 0.0
C336 C 0.75742 0.91374 0.41922 0.0
C337 C 0.74366 0.8988 0.44766 0.0
C338 C 0.72439 0.8801 0.42999 0.0
N339 N 0.72242 0.84583 0.34061 0.0
C340 C 0.7487 0.8201 0.31963 0.0
C341 C 0.75951 0.84524 0.31931 0.0
C342 C 0.74626 0.85764 0.33026 0.0
C343 C 0.72482 0.80816 0.33217 0.0
C344 C 0.71216 0.82121 0.34239 0.0
N345 N 0.68294 0.88132 0.35785 0.0
C346 C 0.67978 0.91745 0.37669 0.0
C347 C 0.65462 0.90518 0.37775 0.0
C348 C 0.64395 0.88091 0.36721 0.0
C349 C 0.65827 0.86949 0.35734 0.0
C350 C 0.69343 0.90534 0.36661 0.0
H351 H 0.64896 0.85097 0.34991 0.0
H352 H 0.71247 0.91573 0.36686 0.0
H353 H 0.75559 0.87678 0.32954 0.0
H354 H 0.69392 0.81086 0.35086 0.0
C355 C 0.6538 0.81243 0.34861 0.0
C356 C 0.705 0.86068 0.45165 0.0
C357 C 0.70063 0.86692 0.24694 0.0
C358 C 0.75177 0.91472 0.34983 0.0
H359 H 0.66562 0.81684 0.47746 0.0
H360 H 0.63712 0.79076 0.42184 0.0
H361 H 0.63508 0.79433 0.27468 0.0
H362 H 0.66095 0.82381 0.21967 0.0
H363 H 0.73738 0.91271 0.22206 0.0
H364 H 0.76558 0.93893 0.27786 0.0
H365 H 0.77334 0.93063 0.42268 0.0
H366 H 0.74712 0.90196 0.47804 0.0
H367 H 0.77815 0.85535 0.31061 0.0
H368 H 0.71558 0.78871 0.33294 0.0
H369 H 0.68906 0.93622 0.38467 0.0
H370 H 0.62455 0.87066 0.36658 0.0
C371 C 0.21122 0.84852 0.43617 0.0
C372 C 0.23016 0.84608 0.45353 0.0
C373 C 0.24402 0.84375 0.42478 0.0
C374 C 0.23268 0.84445 0.39154 0.0
N375 N 0.21253 0.84737 0.39709 0.0
Co376 Co 0.18898 0.84552 0.35599 0.0
N377 N 0.20835 0.83992 0.31394 0.0
C378 C 0.23003 0.83998 0.31835 0.0
C379 C 0.24062 0.83842 0.28453 0.0
C380 C 0.22495 0.83762 0.25659 0.0
C381 C 0.20536 0.83841 0.27499 0.0
N382 N 0.16483 0.84251 0.31532 0.0
C383 C 0.16484 0.83898 0.27663 0.0
C384 C 0.14368 0.83695 0.26008 0.0
C385 C 0.13033 0.84022 0.28879 0.0
C386 C 0.14379 0.84365 0.32132 0.0
N387 N 0.17009 0.85207 0.39765 0.0
C388 C 0.15009 0.85524 0.39248 0.0
C389 C 0.14132 0.86039 0.42565 0.0
C390 C 0.15647 0.86026 0.45387 0.0
C391 C 0.17354 0.85467 0.43639 0.0
N392 N 0.20706 0.88095 0.34578 0.0
C393 C 0.2331 0.93024 0.32553 0.0
C394 C 0.20808 0.91817 0.3218 0.0
C395 C 0.19552 0.89393 0.33252 0.0
C396 C 0.24477 0.91736 0.34058 0.0
C397 C 0.2316 0.89296 0.35011 0.0
N398 N 0.17104 0.81025 0.36633 0.0
C399 C 0.13445 0.77558 0.38597 0.0
C400 C 0.14674 0.76147 0.38971 0.0
C401 C 0.17122 0.77199 0.38009 0.0
C402 C 0.18281 0.79604 0.36797 0.0
C403 C 0.14685 0.79974 0.37462 0.0
H404 H 0.20142 0.80289 0.36064 0.0
H405 H 0.13659 0.80971 0.37356 0.0
H406 H 0.17645 0.88609 0.32946 0.0
H407 H 0.24181 0.8842 0.36046 0.0
C408 C 0.24009 0.84179 0.35465 0.0
C409 C 0.19225 0.85143 0.45805 0.0
C410 C 0.18476 0.83846 0.25405 0.0
C411 C 0.13847 0.8505 0.35703 0.0
H412 H 0.23351 0.8455 0.48384 0.0
H413 H 0.26012 0.84121 0.42781 0.0
H414 H 0.25795 0.83839 0.28058 0.0
H415 H 0.22803 0.83708 0.2261 0.0
H416 H 0.13859 0.83396 0.23017 0.0
H417 H 0.11319 0.84077 0.28604 0.0
H418 H 0.12534 0.86313 0.42913 0.0
H419 H 0.1548 0.8635 0.48403 0.0
H420 H 0.19816 0.92748 0.31091 0.0
H421 H 0.26414 0.92589 0.344 0.0
H422 H 0.11547 0.76826 0.39303 0.0
H423 H 0.18143 0.76166 0.3818 0.0
C424 C 0.20152 0.3626 0.44124 0.0
C425 C 0.19764 0.38076 0.45847 0.0
C426 C 0.19778 0.3958 0.42975 0.0
C427 C 0.20173 0.38607 0.39662 0.0
N428 N 0.20391 0.36558 0.40233 0.0
Co429 Co 0.21059 0.34628 0.36142 0.0
N430 N 0.21299 0.36962 0.31958 0.0
C431 C 0.21149 0.39053 0.32442 0.0
C432 C 0.21315 0.40262 0.29074 0.0
C433 C 0.21562 0.3885 0.26259 0.0
C434 C 0.21527 0.36846 0.28069 0.0
N435 N 0.21661 0.32664 0.32035 0.0
C436 C 0.21817 0.3292 0.28136 0.0
C437 C 0.221 0.31051 0.26385 0.0
C438 C 0.22087 0.29546 0.29249 0.0
C439 C 0.21796 0.30571 0.32579 0.0
N440 N 0.20877 0.32323 0.40335 0.0
C441 C 0.21152 0.30295 0.39877 0.0
C442 C 0.21059 0.29121 0.4325 0.0
C443 C 0.20741 0.30497 0.46051 0.0
C444 C 0.20664 0.32446 0.44225 0.0
N445 N 0.1752 0.32794 0.35167 0.0
C446 C 0.12606 0.30251 0.33018 0.0
C447 C 0.13972 0.29036 0.33966 0.0
C448 C 0.16401 0.30328 0.35022 0.0
C449 C 0.13733 0.32759 0.33314 0.0
C450 C 0.16152 0.33975 0.34402 0.0
N451 N 0.24602 0.36471 0.37119 0.0
C452 C 0.28523 0.36581 0.38225 0.0
C453 C 0.29515 0.39008 0.39274 0.0
C454 C 0.28021 0.40155 0.39086 0.0
C455 C 0.25611 0.38878 0.3797 0.0
C456 C 0.26085 0.35356 0.37187 0.0
H457 H 0.24594 0.3988 0.37867 0.0
H458 H 0.25431 0.33497 0.36514 0.0
H459 H 0.17349 0.29296 0.35646 0.0
H460 H 0.16883 0.35881 0.34551 0.0
C461 C 0.20588 0.39694 0.36035 0.0
C462 C 0.20406 0.34371 0.46337 0.0
C463 C 0.21638 0.34851 0.25944 0.0
C464 C 0.21561 0.29579 0.36248 0.0
H465 H 0.1956 0.38328 0.48879 0.0
H466 H 0.19611 0.41235 0.43283 0.0
H467 H 0.2118 0.41929 0.28695 0.0
H468 H 0.21695 0.39221 0.23208 0.0
H469 H 0.22256 0.30783 0.23342 0.0
H470 H 0.22222 0.27874 0.28933 0.0
H471 H 0.21239 0.27478 0.43633 0.0
H472 H 0.20608 0.30122 0.49101 0.0
H473 H 0.13195 0.27095 0.33794 0.0
H474 H 0.12751 0.33793 0.32713 0.0
H475 H 0.29603 0.35607 0.38312 0.0
H476 H 0.2871 0.42045 0.39786 0.0
C477 C 0.1956 0.32131 0.94293 0.0
C478 C 0.17861 0.30113 0.96158 0.0
C479 C 0.16371 0.28655 0.93393 0.0
C480 C 0.17245 0.29846 0.89996 0.0
N481 N 0.19222 0.31969 0.9041 0.0
Co482 Co 0.21016 0.3427 0.86147 0.0
N483 N 0.18654 0.32256 0.82127 0.0
C484 C 0.16647 0.30186 0.82768 0.0
C485 C 0.15389 0.29162 0.79496 0.0
C486 C 0.16673 0.30655 0.76576 0.0
C487 C 0.18654 0.32517 0.78231 0.0
N488 N 0.22841 0.36544 0.81871 0.0
C489 C 0.225 0.36381 0.7799 0.0
C490 C 0.24274 0.38334 0.76098 0.0
C491 C 0.25808 0.39757 0.78845 0.0
C492 C 0.24889 0.38605 0.82254 0.0
N493 N 0.23345 0.36314 0.90181 0.0
C494 C 0.25297 0.38434 0.89558 0.0
C495 C 0.26478 0.39532 0.92846 0.0
C496 C 0.25188 0.38047 0.95765 0.0
C497 C 0.23289 0.36104 0.94091 0.0
N498 N 0.22977 0.32488 0.85217 0.0
C499 C 0.25715 0.30017 0.83123 0.0
C500 C 0.26827 0.32483 0.83914 0.0
C501 C 0.2544 0.33669 0.84957 0.0
C502 C 0.23211 0.28803 0.83539 0.0
C503 C 0.21897 0.30055 0.84595 0.0
N504 N 0.19053 0.36046 0.87076 0.0
C505 C 0.18767 0.39776 0.88111 0.0
C506 C 0.16343 0.38537 0.89211 0.0
C507 C 0.15291 0.36024 0.89075 0.0
C508 C 0.16654 0.34833 0.87973 0.0
C509 C 0.20075 0.38509 0.87068 0.0
H510 H 0.1573 0.32924 0.87947 0.0
H511 H 0.21917 0.39563 0.86314 0.0
H512 H 0.264 0.35548 0.8549 0.0
H513 H 0.2 0.29015 0.84815 0.0
C514 C 0.16116 0.29142 0.86428 0.0
C515 C 0.2143 0.34163 0.96361 0.0
C516 C 0.2054 0.34422 0.75949 0.0
C517 C 0.25923 0.39388 0.85858 0.0
H518 H 0.17689 0.2975 0.99212 0.0
H519 H 0.14791 0.26963 0.93823 0.0
H520 H 0.13771 0.27485 0.79246 0.0
H521 H 0.16233 0.3037 0.73557 0.0
H522 H 0.24451 0.38684 0.7304 0.0
H523 H 0.27418 0.41422 0.78405 0.0
H524 H 0.28056 0.41243 0.93099 0.0
H525 H 0.25576 0.38392 0.9879 0.0
H526 H 0.28765 0.33507 0.83729 0.0
H527 H 0.22245 0.26898 0.82945 0.0
H528 H 0.19666 0.41721 0.88056 0.0
H529 H 0.13432 0.34958 0.89916 0.0
C530 C 0.72848 0.87212 0.9298 0.0
C531 C 0.74786 0.87069 0.94742 0.0
C532 C 0.76201 0.86867 0.91887 0.0
C533 C 0.75049 0.86867 0.88544 0.0
N534 N 0.72995 0.87093 0.89071 0.0
Co535 Co 0.70632 0.86834 0.84935 0.0
N536 N 0.7263 0.86338 0.80756 0.0
C537 C 0.74772 0.86291 0.81241 0.0
C538 C 0.75765 0.85953 0.77907 0.0
C539 C 0.74187 0.85821 0.75095 0.0
C540 C 0.72318 0.86109 0.76871 0.0
N541 N 0.68228 0.86497 0.80824 0.0
C542 C 0.68308 0.86261 0.76927 0.0
C543 C 0.66281 0.86234 0.75203 0.0
C544 C 0.64872 0.86433 0.78072 0.0
C545 C 0.6611 0.86592 0.81388 0.0
N546 N 0.6867 0.87407 0.8909 0.0
C547 C 0.66608 0.87608 0.88569 0.0
C548 C 0.65656 0.88023 0.9189 0.0
C549 C 0.67182 0.88056 0.94723 0.0
C550 C 0.68973 0.87625 0.92975 0.0
N551 N 0.72361 0.90381 0.83932 0.0
C552 C 0.74799 0.95331 0.81876 0.0
C553 C 0.72285 0.94134 0.82159 0.0
C554 C 0.71119 0.91695 0.83183 0.0
C555 C 0.76067 0.94003 0.82745 0.0
C556 C 0.74828 0.91564 0.83773 0.0
N557 N 0.68909 0.8329 0.85949 0.0
C558 C 0.65377 0.7981 0.88273 0.0
C559 C 0.66613 0.78393 0.88258 0.0
C560 C 0.68992 0.7945 0.8692 0.0
C561 C 0.70097 0.81877 0.85812 0.0
C562 C 0.66533 0.82216 0.87062 0.0
H563 H 0.71931 0.82576 0.84925 0.0
H564 H 0.65475 0.83182 0.87107 0.0
H565 H 0.69205 0.90907 0.83288 0.0
H566 H 0.75907 0.90665 0.8439 0.0
C567 C 0.75777 0.86521 0.84887 0.0
C568 C 0.70868 0.8736 0.95155 0.0
C569 C 0.70305 0.86168 0.7472 0.0
C570 C 0.65486 0.87148 0.8499 0.0
H571 H 0.75121 0.8704 0.9778 0.0
H572 H 0.77835 0.86659 0.92216 0.0
H573 H 0.77439 0.8582 0.7756 0.0
H574 H 0.74399 0.85548 0.72074 0.0
H575 H 0.65884 0.86164 0.72174 0.0
H576 H 0.63197 0.86563 0.77758 0.0
H577 H 0.64005 0.88201 0.92229 0.0
H578 H 0.66968 0.88317 0.97749 0.0
H579 H 0.712 0.95053 0.81497 0.0
H580 H 0.78015 0.9484 0.82654 0.0
H581 H 0.63515 0.79062 0.89206 0.0
H582 H 0.70029 0.78431 0.86842 0.0
C583 C 0.17855 0.8605 0.93864 0.0
C584 C 0.17705 0.87955 0.9575 0.0
C585 C 0.17667 0.89492 0.92991 0.0
C586 C 0.17829 0.88474 0.8958 0.0
N587 N 0.17941 0.86359 0.89971 0.0
Co588 Co 0.18521 0.84484 0.85689 0.0
N589 N 0.18677 0.86871 0.81654 0.0
C590 C 0.18348 0.88857 0.82273 0.0
C591 C 0.18301 0.9004 0.78984 0.0
C592 C 0.18593 0.88723 0.76067 0.0
C593 C 0.18839 0.86814 0.77742 0.0
N594 N 0.19167 0.82641 0.81437 0.0
C595 C 0.19439 0.83043 0.77572 0.0
C596 C 0.19961 0.81337 0.75743 0.0
C597 C 0.19927 0.79762 0.785 0.0
C598 C 0.19427 0.80604 0.8186 0.0
N599 N 0.18307 0.82067 0.89704 0.0
C600 C 0.18428 0.79977 0.89046 0.0
C601 C 0.18182 0.78644 0.92297 0.0
C602 C 0.17917 0.79974 0.95224 0.0
C603 C 0.18049 0.82071 0.93601 0.0
N604 N 0.14969 0.82658 0.84744 0.0
C605 C 0.10026 0.80182 0.82629 0.0
C606 C 0.11519 0.79022 0.82682 0.0
C607 C 0.13945 0.80271 0.83754 0.0
C608 C 0.11054 0.82594 0.83792 0.0
C609 C 0.13493 0.83779 0.84831 0.0
N610 N 0.22068 0.86309 0.86621 0.0
C611 C 0.25923 0.86364 0.88098 0.0
C612 C 0.27026 0.88865 0.88535 0.0
C613 C 0.25604 0.90063 0.87897 0.0
C614 C 0.23164 0.88768 0.86917 0.0
C615 C 0.23472 0.85136 0.87166 0.0
H616 H 0.22195 0.89797 0.86446 0.0
H617 H 0.22743 0.8323 0.86961 0.0
H618 H 0.14967 0.79271 0.83692 0.0
H619 H 0.14148 0.85614 0.85656 0.0
C620 C 0.17995 0.89513 0.85972 0.0
C621 C 0.17982 0.84032 0.95906 0.0
C622 C 0.19153 0.8496 0.75483 0.0
C623 C 0.19003 0.79427 0.85404 0.0
H624 H 0.17688 0.8825 0.98807 0.0
H625 H 0.17603 0.91191 0.93426 0.0
H626 H 0.1802 0.91635 0.78731 0.0
H627 H 0.18564 0.89108 0.73048 0.0
H628 H 0.20292 0.81213 0.72717 0.0
H629 H 0.20182 0.7816 0.78087 0.0
H630 H 0.18255 0.76939 0.92526 0.0
H631 H 0.17695 0.7947 0.98225 0.0
H632 H 0.10845 0.77164 0.818 0.0
H633 H 0.09985 0.83578 0.83914 0.0
H634 H 0.2693 0.85341 0.88574 0.0
H635 H 0.26372 0.92001 0.88126 0.0
C636 C 0.37381 0.22118 0.72664 0.0
C637 C 0.38772 0.2445 0.73924 0.0
C638 C 0.41114 0.24948 0.73214 0.0
C639 C 0.41024 0.22902 0.71576 0.0
N640 N 0.38764 0.21116 0.71199 0.0
Co641 Co 0.37822 0.17837 0.68947 0.0
N642 N 0.41274 0.18587 0.67859 0.0
C643 C 0.43237 0.20679 0.68589 0.0
C644 C 0.45369 0.20658 0.67588 0.0
C645 C 0.44739 0.18416 0.66142 0.0
C646 C 0.42245 0.17194 0.66335 0.0
N647 N 0.36881 0.14557 0.667 0.0
C648 C 0.38267 0.1354 0.65303 0.0
C649 C 0.36875 0.11212 0.64029 0.0
C650 C 0.34531 0.10727 0.64676 0.0
C651 C 0.3462 0.12779 0.66291 0.0
N652 N 0.34371 0.17086 0.70039 0.0
C653 C 0.32407 0.15 0.69287 0.0
C654 C 0.30277 0.15012 0.70337 0.0
C655 C 0.30911 0.17239 0.71848 0.0
C656 C 0.33404 0.18463 0.71637 0.0
N657 N 0.37581 0.1908 0.63812 0.0
C658 C 0.37288 0.20773 0.56436 0.0
C659 C 0.35485 0.18608 0.57815 0.0
C660 C 0.35661 0.17809 0.61481 0.0
C661 C 0.39212 0.22106 0.58851 0.0
C662 C 0.39324 0.21231 0.62493 0.0
N663 N 0.38057 0.16599 0.74082 0.0
C664 C 0.36305 0.13682 0.79163 0.0
C665 C 0.3816 0.15079 0.81647 0.0
C666 C 0.40032 0.17181 0.8021 0.0
C667 C 0.39952 0.17891 0.76444 0.0
C668 C 0.3629 0.14469 0.75421 0.0
H669 H 0.41412 0.19525 0.75547 0.0
H670 H 0.34805 0.13347 0.73698 0.0
H671 H 0.34237 0.16142 0.62335 0.0
H672 H 0.40848 0.22319 0.64168 0.0
C673 C 0.43024 0.2261 0.70318 0.0
C674 C 0.34757 0.20942 0.72934 0.0
C675 C 0.40895 0.14696 0.65124 0.0
C676 C 0.32619 0.13072 0.67545 0.0
H677 H 0.38156 0.25666 0.75219 0.0
H678 H 0.42695 0.26609 0.73809 0.0
H679 H 0.4717 0.22091 0.67917 0.0
H680 H 0.45979 0.17749 0.65103 0.0
H681 H 0.37493 0.09985 0.62774 0.0
H682 H 0.3295 0.09069 0.64073 0.0
H683 H 0.28476 0.13577 0.70018 0.0
H684 H 0.29677 0.17895 0.72959 0.0
H685 H 0.33975 0.17485 0.56035 0.0
H686 H 0.40641 0.2381 0.57928 0.0
H687 H 0.34839 0.12013 0.80123 0.0
H688 H 0.41504 0.18339 0.82025 0.0
C689 C 0.85876 0.23437 0.65938 0.0
C690 C 0.84369 0.24501 0.65183 0.0
C691 C 0.821 0.22877 0.66218 0.0
C692 C 0.8234 0.20913 0.67523 0.0
N693 N 0.84627 0.21177 0.67381 0.0
Co694 Co 0.85743 0.18718 0.68953 0.0
N695 N 0.8241 0.16365 0.70638 0.0
C696 C 0.80407 0.16718 0.70543 0.0
C697 C 0.78375 0.14792 0.7183 0.0
C698 C 0.79116 0.131 0.72808 0.0
C699 C 0.81574 0.14095 0.72072 0.0
N700 N 0.86855 0.16246 0.70471 0.0
C701 C 0.85601 0.13974 0.71866 0.0
C702 C 0.87097 0.12883 0.72509 0.0
C703 C 0.89361 0.14498 0.71441 0.0
C704 C 0.8913 0.16483 0.70225 0.0
N705 N 0.89084 0.21085 0.67327 0.0
C706 C 0.911 0.20759 0.67527 0.0
C707 C 0.93143 0.22706 0.66329 0.0
C708 C 0.92397 0.24388 0.65312 0.0
C709 C 0.89925 0.23363 0.65927 0.0
N710 N 0.86387 0.20078 0.74205 0.0
C711 C 0.87064 0.21557 0.81908 0.0
C712 C 0.88821 0.21165 0.7993 0.0
C713 C 0.88447 0.20428 0.76105 0.0
C714 C 0.85027 0.21329 0.79922 0.0
C715 C 0.84738 0.20614 0.76089 0.0
N716 N 0.85088 0.17341 0.63711 0.0
C717 C 0.86377 0.16003 0.58008 0.0
C718 C 0.84154 0.15376 0.56266 0.0
C719 C 0.82394 0.15713 0.58345 0.0
C720 C 0.82901 0.16705 0.62015 0.0
C721 C 0.86797 0.16961 0.61705 0.0
H722 H 0.81493 0.16947 0.63406 0.0
H723 H 0.88526 0.174 0.62861 0.0
H724 H 0.8982 0.20095 0.74786 0.0
H725 H 0.83141 0.20459 0.74743 0.0
C726 C 0.80471 0.18834 0.69039 0.0
C727 C 0.88477 0.24651 0.65209 0.0
C728 C 0.83009 0.12779 0.7267 0.0
C729 C 0.91016 0.186 0.68862 0.0
H730 H 0.84859 0.26272 0.64011 0.0
H731 H 0.80471 0.23109 0.66068 0.0
H732 H 0.7656 0.14621 0.7197 0.0
H733 H 0.77966 0.11319 0.73884 0.0
H734 H 0.86605 0.11103 0.73642 0.0
H735 H 0.90986 0.14254 0.71543 0.0
H736 H 0.94962 0.22887 0.66235 0.0
H737 H 0.9355 0.26176 0.64268 0.0
H738 H 0.90426 0.21314 0.81372 0.0
H739 H 0.83637 0.21652 0.81343 0.0
H740 H 0.8782 0.1582 0.56498 0.0
H741 H 0.80629 0.15228 0.57147 0.0
C742 C 0.82833 0.64561 0.64206 0.0
C743 C 0.82164 0.62283 0.62698 0.0
C744 C 0.84029 0.61727 0.63341 0.0
C745 C 0.85724 0.63679 0.65219 0.0
N746 N 0.85071 0.65468 0.65781 0.0
Co747 Co 0.86959 0.68555 0.6864 0.0
N748 N 0.89648 0.6767 0.69777 0.0
C749 C 0.89761 0.65625 0.6871 0.0
C750 C 0.91857 0.65548 0.69738 0.0
C751 C 0.93181 0.67682 0.71538 0.0
C752 C 0.91808 0.68944 0.7152 0.0
N753 N 0.88832 0.7163 0.71531 0.0
C754 C 0.91061 0.7253 0.73131 0.0
C755 C 0.91682 0.74753 0.74815 0.0
C756 C 0.89807 0.75301 0.74204 0.0
C757 C 0.88146 0.73386 0.72204 0.0
N758 N 0.84284 0.69454 0.67469 0.0
C759 C 0.84205 0.71531 0.68436 0.0
C760 C 0.82146 0.71644 0.67289 0.0
C761 C 0.80813 0.69503 0.65513 0.0
C762 C 0.82132 0.6819 0.65701 0.0
N763 N 0.85277 0.66963 0.73442 0.0
C764 C 0.82762 0.64673 0.80151 0.0
C765 C 0.82921 0.66895 0.79025 0.0
C766 C 0.84187 0.68003 0.75707 0.0
C767 C 0.83881 0.63609 0.77868 0.0
C768 C 0.8511 0.64772 0.74536 0.0
N769 N 0.88638 0.70148 0.63839 0.0
C770 C 0.90171 0.73576 0.59561 0.0
C771 C 0.91065 0.72408 0.57051 0.0
C772 C 0.90751 0.70104 0.58015 0.0
C773 C 0.89537 0.69015 0.61384 0.0
C774 C 0.88979 0.72425 0.62919 0.0
H775 H 0.89327 0.67247 0.61914 0.0
H776 H 0.88342 0.73411 0.64708 0.0
H777 H 0.84269 0.69709 0.75056 0.0
H778 H 0.85914 0.63865 0.72908 0.0
C779 C 0.87902 0.63846 0.66623 0.0
C780 C 0.81235 0.65735 0.64214 0.0
C781 C 0.92676 0.71379 0.73069 0.0
C782 C 0.86014 0.73265 0.70668 0.0
H783 H 0.80481 0.61115 0.61344 0.0
H784 H 0.84116 0.60072 0.62608 0.0
H785 H 0.92382 0.6413 0.69173 0.0
H786 H 0.94974 0.68261 0.72672 0.0
H787 H 0.93338 0.75881 0.76279 0.0
H788 H 0.89696 0.76931 0.75031 0.0
H789 H 0.81647 0.73088 0.6777 0.0
H790 H 0.7905 0.68955 0.64272 0.0
H791 H 0.82137 0.67819 0.80763 0.0
H792 H 0.83813 0.61891 0.7865 0.0
H793 H 0.90373 0.75364 0.58925 0.0
H794 H 0.91365 0.69104 0.56113 0.0
C795 C 0.9004 0.67987 0.14432 0.0
C796 C 0.92027 0.69152 0.1205 0.0
C797 C 0.92248 0.71413 0.11461 0.0
C798 C 0.90397 0.71504 0.13514 0.0
N799 N 0.89012 0.69445 0.15409 0.0
Co800 Co 0.86095 0.68794 0.18654 0.0
N801 N 0.8639 0.72113 0.17707 0.0
C802 C 0.88115 0.73875 0.156 0.0
C803 C 0.87941 0.75998 0.15621 0.0
C804 C 0.86 0.75583 0.17903 0.0
C805 C 0.85083 0.7321 0.19126 0.0
N806 N 0.8316 0.68131 0.21856 0.0
C807 C 0.82122 0.69584 0.22821 0.0
C808 C 0.80068 0.68377 0.25049 0.0
C809 C 0.79821 0.66101 0.25569 0.0
C810 C 0.81718 0.66037 0.23618 0.0
N811 N 0.85822 0.65488 0.19655 0.0
C812 C 0.84127 0.63741 0.21823 0.0
C813 C 0.84371 0.61654 0.21942 0.0
C814 C 0.86332 0.62081 0.197 0.0
C815 C 0.87179 0.64419 0.18341 0.0
N816 N 0.8815 0.70016 0.23249 0.0
C817 C 0.90898 0.71817 0.29909 0.0
C818 C 0.88845 0.69618 0.29958 0.0
C819 C 0.875 0.68767 0.26633 0.0
C820 C 0.91588 0.73092 0.26471 0.0
C821 C 0.90214 0.72144 0.23175 0.0
N822 N 0.84044 0.67564 0.14047 0.0
C823 C 0.80905 0.64294 0.10612 0.0
C824 C 0.81556 0.65613 0.07212 0.0
C825 C 0.8338 0.67963 0.07321 0.0
C826 C 0.84595 0.68892 0.10735 0.0
C827 C 0.82139 0.65314 0.13993 0.0
H828 H 0.86021 0.7066 0.10585 0.0
H829 H 0.81554 0.64224 0.16494 0.0
H830 H 0.8592 0.67114 0.26893 0.0
H831 H 0.90844 0.73178 0.20621 0.0
C832 C 0.8991 0.73493 0.13705 0.0
C833 C 0.89214 0.65499 0.15685 0.0
C834 C 0.83015 0.7211 0.21728 0.0
C835 C 0.82257 0.64077 0.23549 0.0
H836 H 0.93194 0.68439 0.10855 0.0
H837 H 0.93593 0.7282 0.09729 0.0
H838 H 0.89112 0.77663 0.14203 0.0
H839 H 0.85364 0.76899 0.18629 0.0
H840 H 0.78878 0.69074 0.26204 0.0
H841 H 0.7844 0.64673 0.2722 0.0
H842 H 0.83228 0.6 0.23416 0.0
H843 H 0.8703 0.60799 0.19078 0.0
H844 H 0.88228 0.68591 0.32591 0.0
H845 H 0.93175 0.74806 0.26327 0.0
H846 H 0.79478 0.62473 0.1065 0.0
H847 H 0.83956 0.69045 0.04737 0.0
C848 C 0.39376 0.20438 0.27011 0.0
C849 C 0.41281 0.20765 0.29412 0.0
C850 C 0.42747 0.20056 0.27401 0.0
C851 C 0.41657 0.19328 0.23913 0.0
N852 N 0.3958 0.19529 0.23562 0.0
Co853 Co 0.37397 0.18632 0.19 0.0
N854 N 0.39527 0.17513 0.16106 0.0
C855 C 0.41584 0.17496 0.17354 0.0
C856 C 0.42612 0.16558 0.14771 0.0
C857 C 0.41129 0.15942 0.1167 0.0
C858 C 0.39284 0.16561 0.12545 0.0
N859 N 0.3522 0.17746 0.14431 0.0
C860 C 0.35413 0.16813 0.10997 0.0
C861 C 0.33529 0.16519 0.08572 0.0
C862 C 0.32085 0.17271 0.10555 0.0
C863 C 0.33169 0.17992 0.1405 0.0
N864 N 0.35259 0.19735 0.21909 0.0
C865 C 0.33197 0.19744 0.20668 0.0
C866 C 0.32139 0.20627 0.23293 0.0
C867 C 0.33603 0.21207 0.26416 0.0
C868 C 0.3547 0.20629 0.25508 0.0
N869 N 0.39268 0.21956 0.16877 0.0
C870 C 0.41921 0.26727 0.14122 0.0
C871 C 0.39413 0.25683 0.14432 0.0
C872 C 0.38134 0.23312 0.15747 0.0
C873 C 0.43077 0.25326 0.15157 0.0
C874 C 0.41733 0.22979 0.16551 0.0
N875 N 0.35527 0.15309 0.21118 0.0
C876 C 0.31709 0.11903 0.22641 0.0
C877 C 0.32851 0.10509 0.23838 0.0
C878 C 0.35376 0.11609 0.23695 0.0
C879 C 0.36659 0.13984 0.22392 0.0
C880 C 0.33059 0.14255 0.2128 0.0
H881 H 0.38571 0.14704 0.22414 0.0
H882 H 0.32062 0.15184 0.20363 0.0
H883 H 0.36227 0.22621 0.15828 0.0
H884 H 0.42734 0.22034 0.17375 0.0
C885 C 0.425 0.1837 0.20975 0.0
C886 C 0.37376 0.20933 0.28187 0.0
C887 C 0.37372 0.16242 0.09869 0.0
C888 C 0.32308 0.1892 0.17011 0.0
H889 H 0.41573 0.21414 0.32337 0.0
H890 H 0.44392 0.20038 0.28386 0.0
H891 H 0.44243 0.16345 0.15105 0.0
H892 H 0.4138 0.15134 0.09054 0.0
H893 H 0.33232 0.15849 0.05657 0.0
H894 H 0.30449 0.17304 0.09557 0.0
H895 H 0.30498 0.20825 0.22974 0.0
H896 H 0.33326 0.21963 0.29071 0.0
H897 H 0.38431 0.26684 0.13615 0.0
H898 H 0.45019 0.26059 0.14979 0.0
H899 H 0.2977 0.11203 0.22763 0.0
H900 H 0.36385 0.1064 0.24522 0.0
C901 C 0.8813 0.21891 0.133 0.0
C902 C 0.88344 0.24198 0.12818 0.0
C903 C 0.87712 0.24838 0.16235 0.0
C904 C 0.87167 0.229 0.18598 0.0
N905 N 0.87437 0.21069 0.16915 0.0
Co906 Co 0.86904 0.17939 0.19317 0.0
N907 N 0.85712 0.18768 0.24199 0.0
C908 C 0.85482 0.20798 0.24952 0.0
C909 C 0.846 0.20852 0.28544 0.0
C910 C 0.84236 0.18729 0.30192 0.0
C911 C 0.84915 0.1749 0.27488 0.0
N912 N 0.86419 0.14828 0.21753 0.0
C913 C 0.85611 0.1395 0.25309 0.0
C914 C 0.8557 0.11718 0.25872 0.0
C915 C 0.86401 0.11172 0.22559 0.0
C916 C 0.86896 0.13091 0.20176 0.0
N917 N 0.88034 0.17086 0.14389 0.0
C918 C 0.88249 0.15051 0.13624 0.0
C919 C 0.88922 0.14902 0.09921 0.0
C920 C 0.8912 0.16949 0.08191 0.0
C921 C 0.88575 0.18248 0.10966 0.0
N922 N 0.90296 0.19487 0.21285 0.0
C923 C 0.95133 0.21735 0.23969 0.0
C924 C 0.94244 0.19577 0.21901 0.0
C925 C 0.91851 0.18495 0.20615 0.0
C926 C 0.9353 0.22722 0.24697 0.0
C927 C 0.91156 0.21588 0.23345 0.0
N928 N 0.83524 0.16397 0.17361 0.0
C929 C 0.80154 0.12984 0.14555 0.0
C930 C 0.78682 0.14166 0.14737 0.0
C931 C 0.79707 0.16505 0.16226 0.0
C932 C 0.82101 0.17574 0.17502 0.0
C933 C 0.82539 0.14119 0.15861 0.0
H934 H 0.82763 0.19355 0.18615 0.0
H935 H 0.83556 0.13116 0.15628 0.0
H936 H 0.9131 0.16859 0.19069 0.0
H937 H 0.90055 0.22452 0.24017 0.0
C938 C 0.86214 0.2267 0.22293 0.0
C939 C 0.88477 0.20513 0.10182 0.0
C940 C 0.84863 0.15155 0.28241 0.0
C941 C 0.8772 0.13271 0.16403 0.0
H942 H 0.88849 0.25279 0.10231 0.0
H943 H 0.87594 0.26489 0.16885 0.0
H944 H 0.84295 0.22283 0.29833 0.0
H945 H 0.8358 0.1818 0.33086 0.0
H946 H 0.84989 0.10599 0.28414 0.0
H947 H 0.86603 0.0956 0.21947 0.0
H948 H 0.89177 0.13448 0.08609 0.0
H949 H 0.89564 0.17393 0.05199 0.0
H950 H 0.95397 0.18732 0.21206 0.0
H951 H 0.94086 0.24359 0.26347 0.0
H952 H 0.79484 0.11192 0.13367 0.0
H953 H 0.78658 0.17505 0.16479 0.0
H954 H 0.98001 0.47086 0.37197 0.0
H955 H 0.05045 0.5308 0.37798 0.0
H956 H 0.98173 0.47324 0.30156 0.0
H957 H 0.05266 0.53257 0.30752 0.0
H958 H 0.0559 0.50807 0.17987 0.0
H959 H 0.05435 0.50675 0.25036 0.0
H960 H 0.98296 0.50237 0.2478 0.0
H961 H 0.98497 0.50472 0.17739 0.0
C962 C 0.99584 0.48464 0.35829 0.0
C963 C 0.01495 0.50083 0.38091 0.0
C964 C 0.99686 0.48598 0.31782 0.0
C965 C 0.01733 0.50314 0.29851 0.0
C966 C 0.03665 0.51903 0.32115 0.0
C967 C 0.03538 0.51804 0.36163 0.0
C968 C 0.04 0.50717 0.19435 0.0
C969 C 0.02065 0.50673 0.1727 0.0
C970 C 0.03908 0.50636 0.23486 0.0
C971 C 0.01851 0.50443 0.25511 0.0
C972 C 0.99904 0.50367 0.23342 0.0
C973 C 1.0002 0.50505 0.19296 0.0
H974 H 0.52153 0.50316 0.36543 0.0
H975 H 0.59492 0.5576 0.36106 0.0
H976 H 0.51937 0.5037 0.29526 0.0
H977 H 0.5934 0.55777 0.29085 0.0
H978 H 0.57863 0.56923 0.1658 0.0
H979 H 0.57978 0.56901 0.23604 0.0
H980 H 0.52988 0.49352 0.23617 0.0
H981 H 0.52828 0.49431 0.16596 0.0
C982 C 0.5373 0.51514 0.34932 0.0
C983 C 0.55836 0.53038 0.36892 0.0
C984 C 0.53618 0.5154 0.30885 0.0
C985 C 0.55619 0.53083 0.28642 0.0
C986 C 0.57735 0.54592 0.30642 0.0
C987 C 0.57838 0.54573 0.34689 0.0
C988 C 0.56783 0.55265 0.18099 0.0
C989 C 0.55333 0.53182 0.16021 0.0
C990 C 0.56861 0.55239 0.22147 0.0
C991 C 0.55502 0.5312 0.24274 0.0
C992 C 0.5404 0.51037 0.22158 0.0
C993 C 0.53953 0.51071 0.18108 0.0
H994 H 0.54607 0.06021 0.15054 0.0
H995 H 0.47002 0.01301 0.14714 0.0
H996 H 0.54308 0.06652 0.21939 0.0
H997 H 0.46674 0.01938 0.21603 0.0
H998 H 0.4862 1.00278 0.33844 0.0
H999 H 0.48291 0.00454 0.26945 0.0
H1000 H 0.52549 0.08157 0.27213 0.0
H1001 H 0.52837 0.07999 0.34204 0.0
C1002 C 0.52864 0.05173 0.16459 0.0
C1003 C 0.50831 0.03598 0.14427 0.0
C1004 C 0.52685 0.05541 0.20377 0.0
C1005 C 0.5047 0.04329 0.22304 0.0
C1006 C 0.48406 0.02874 0.20191 0.0
C1007 C 0.48586 0.02512 0.1627 0.0
C1008 C 0.49425 0.02025 0.3247 0.0
C1009 C 0.50756 0.04126 0.34589 0.0
C1010 C 0.49236 0.02123 0.28502 0.0
C1011 C 0.50389 0.0432 0.26546 0.0
C1012 C 0.51655 0.06438 0.28658 0.0
C1013 C 0.51829 0.06343 0.3265 0.0
H1014 H 0.98582 0.48167 0.67915 0.0
H1015 H 0.05476 0.54399 0.67789 0.0
H1016 H 0.98513 0.48306 0.74965 0.0
H1017 H 0.05469 0.54453 0.74849 0.0
H1018 H 0.05279 0.5141 0.87627 0.0
H1019 H 0.05401 0.51416 0.80567 0.0
H1020 H 0.98498 0.51525 0.80272 0.0
H1021 H 0.98441 0.51659 0.87322 0.0
C1022 C 1.00091 0.4956 0.69389 0.0
C1023 C 0.02041 0.51263 0.67255 0.0
C1024 C 1.00051 0.49639 0.73436 0.0
C1025 C 0.01989 0.51386 0.75496 0.0
C1026 C 0.03954 0.53071 0.73371 0.0
C1027 C 0.03962 0.53033 0.69318 0.0
C1028 C 0.03797 0.5146 0.86058 0.0
C1029 C 0.0184 0.51514 0.88072 0.0
C1030 C 0.03866 0.5146 0.82005 0.0
C1031 C 0.01952 0.51454 0.7983 0.0
C1032 C 0.99993 0.51504 0.8184 0.0
C1033 C 0.99958 0.51574 0.85889 0.0
H1034 H 0.51281 0.52257 0.66708 0.0
H1035 H 0.5819 0.52152 0.66578 0.0
H1036 H 0.51302 0.52259 0.73768 0.0
H1037 H 0.58138 0.52006 0.73636 0.0
H1038 H 0.55029 0.48714 0.86165 0.0
H1039 H 0.55103 0.4881 0.79108 0.0
H1040 H 0.54314 0.55365 0.79309 0.0
H1041 H 0.54389 0.5535 0.86368 0.0
C1042 C 0.52808 0.52238 0.6818 0.0
C1043 C 0.54747 0.52233 0.66044 0.0
C1044 C 0.52815 0.52231 0.72233 0.0
C1045 C 0.54722 0.52134 0.74288 0.0
C1046 C 0.56636 0.52073 0.72159 0.0
C1047 C 0.56663 0.52154 0.68108 0.0
C1048 C 0.54909 0.50198 0.8471 0.0
C1049 C 0.54734 0.5204 0.86866 0.0
C1050 C 0.54942 0.50247 0.80657 0.0
C1051 C 0.54716 0.52096 0.78622 0.0
C1052 C 0.54485 0.5391 0.8077 0.0
C1053 C 0.54525 0.53899 0.84822 0.0
H1054 H 0.51475 0.97078 0.8834 0.0
H1055 H 0.58659 0.02849 0.87573 0.0
H1056 H 0.51541 0.96331 0.81475 0.0
H1057 H 0.58675 0.02263 0.80647 0.0
H1058 H 0.58317 0.00694 0.68079 0.0
H1059 H 0.58626 1.00198 0.74997 0.0
H1060 H 0.51064 0.98403 0.7629 0.0
H1061 H 0.50758 0.98787 0.69431 0.0
C1062 C 0.53079 0.98165 0.86687 0.0
C1063 C 0.5504 1.00054 0.88422 0.0
C1064 C 0.53112 0.97762 0.82754 0.0
C1065 C 0.55081 0.99287 0.80473 0.0
C1066 C 0.57127 0.01048 0.82293 0.0
C1067 C 0.57115 0.01404 0.86251 0.0
C1068 C 0.56724 1.00158 0.69864 0.0
C1069 C 0.54515 0.99772 0.68241 0.0
C1070 C 0.56897 0.9988 0.73819 0.0
C1071 C 0.5487 0.99255 0.76221 0.0
C1072 C 0.52653 0.9882 0.74548 0.0
C1073 C 0.52475 0.99058 0.70607 0.0
H1074 H 0.73679 0.89349 0.69728 0.0
H1075 H 0.66962 0.82906 0.69781 0.0
H1076 H 0.7375 0.89269 0.62672 0.0
H1077 H 0.66963 0.82907 0.62722 0.0
H1078 H 0.66961 0.86019 0.50062 0.0
H1079 H 0.66872 0.85965 0.57122 0.0
H1080 H 0.739 0.86137 0.57255 0.0
H1081 H 0.73929 0.86049 0.502 0.0
C1082 C 0.7221 0.87921 0.68237 0.0
C1083 C 0.70307 0.86143 0.70351 0.0
C1084 C 0.7225 0.87876 0.64188 0.0
C1085 C 0.70357 0.86088 0.6211 0.0
C1086 C 0.68441 0.84323 0.64215 0.0
C1087 C 0.68437 0.84328 0.68268 0.0
C1088 C 0.68479 0.86022 0.51595 0.0
C1089 C 0.7046 0.86055 0.49534 0.0
C1090 C 0.68428 0.85994 0.55647 0.0
C1091 C 0.70384 0.86061 0.57776 0.0
C1092 C 0.72371 0.86107 0.55721 0.0
C1093 C 0.7239 0.86064 0.51671 0.0
H1094 H 0.16235 0.81447 0.7049 0.0
H1095 H 0.22122 0.88555 0.70571 0.0
H1096 H 0.16309 0.81431 0.63518 0.0
H1097 H 0.22051 0.88692 0.63612 0.0
H1098 H 0.22767 0.88078 0.50776 0.0
H1099 H 0.22825 0.87963 0.57734 0.0
H1100 H 0.15528 0.82275 0.57713 0.0
H1101 H 0.15621 0.82244 0.5074 0.0
C1102 C 0.17531 0.83027 0.69003 0.0
C1103 C 0.19164 0.85004 0.71121 0.0
C1104 C 0.17557 0.83043 0.64955 0.0
C1105 C 0.19175 0.8507 0.6284 0.0
C1106 C 0.20795 0.87059 0.65005 0.0
C1107 C 0.20816 0.87006 0.6905 0.0
C1108 C 0.21193 0.86774 0.5227 0.0
C1109 C 0.19207 0.85144 0.50167 0.0
C1110 C 0.212 0.86728 0.56316 0.0
C1111 C 0.19179 0.85106 0.58448 0.0
C1112 C 0.17163 0.8352 0.56301 0.0
C1113 C 0.17193 0.83519 0.52252 0.0
H1114 H 0.24221 0.3546 0.51199 0.0
H1115 H 0.16602 0.33327 0.5132 0.0
H1116 H 0.24264 0.35507 0.58226 0.0
H1117 H 0.16591 0.33276 0.58352 0.0
H1118 H 0.17557 0.35362 0.71115 0.0
H1119 H 0.17534 0.35404 0.64084 0.0
H1120 H 0.23349 0.33348 0.63914 0.0
H1121 H 0.23404 0.33404 0.7094 0.0
C1122 C 0.22549 0.34989 0.52742 0.0
C1123 C 0.20412 0.34402 0.50691 0.0
C1124 C 0.22561 0.34994 0.56795 0.0
C1125 C 0.20429 0.3439 0.58955 0.0
C1126 C 0.18288 0.33795 0.56865 0.0
C1127 C 0.18283 0.33806 0.5281 0.0
C1128 C 0.18826 0.34917 0.69561 0.0
C1129 C 0.20478 0.34375 0.71597 0.0
C1130 C 0.18808 0.34924 0.65506 0.0
C1131 C 0.20439 0.34377 0.63333 0.0
C1132 C 0.22085 0.33823 0.6541 0.0
C1133 C 0.22109 0.33833 0.69463 0.0
H1134 H 0.66584 0.8648 0.19559 0.0
H1135 H 0.73767 0.87049 0.19914 0.0
H1136 H 0.66756 0.86574 0.12509 0.0
H1137 H 0.73983 0.87249 0.12871 0.0
H1138 H 0.74181 0.90347 1.00408 0.0
H1139 H 0.74002 0.90128 0.07451 0.0
H1140 H 0.67056 0.83978 0.06856 0.0
H1141 H 0.67289 0.84136 0.99811 0.0
C1142 C 0.68197 0.86613 0.18134 0.0
C1143 C 0.70153 0.86735 0.20328 0.0
C1144 C 0.68299 0.86673 0.14084 0.0
C1145 C 0.70386 0.86922 0.1209 0.0
C1146 C 0.72352 0.87073 0.14287 0.0
C1147 C 0.72228 0.86955 0.18332 0.0
C1148 C 0.72632 0.88925 0.01777 0.0
C1149 C 0.70765 0.87241 0.99517 0.0
C1150 C 0.72525 0.88803 0.05824 0.0
C1151 C 0.70514 0.87033 0.07753 0.0
C1152 C 0.68627 0.85374 0.05492 0.0
C1153 C 0.68762 0.85463 0.01445 0.0
H1154 H 0.21404 0.83713 1.00579 0.0
H1155 H 0.14656 0.84143 1.01133 0.0
H1156 H 0.21494 0.83586 0.07631 0.0
H1157 H 0.14814 0.84153 0.0818 0.0
H1158 H 0.18032 0.87143 0.20593 0.0
H1159 H 0.17836 0.87123 0.13548 0.0
H1160 H 0.18688 0.80599 0.13254 0.0
H1161 H 0.18745 0.80546 0.2031 0.0
C1162 C 0.19943 0.83788 0.02203 0.0
C1163 C 0.18033 0.8396 1.00265 0.0
C1164 C 0.19995 0.83717 0.06248 0.0
C1165 C 0.18169 0.83875 0.0849 0.0
C1166 C 0.16263 0.84052 0.06557 0.0
C1167 C 0.16176 0.84054 0.02512 0.0
C1168 C 0.18158 0.85693 0.19029 0.0
C1169 C 0.18418 0.83853 0.21043 0.0
C1170 C 0.18047 0.85682 0.14987 0.0
C1171 C 0.18256 0.83865 0.12816 0.0
C1172 C 0.18541 0.82038 0.14821 0.0
C1173 C 0.18583 0.82012 0.1887 0.0
H1174 H 0.18141 0.34602 0.01251 0.0
H1175 H 0.24743 0.33895 0.01347 0.0
H1176 H 0.18183 0.34808 0.0828 0.0
H1177 H 0.24786 0.34052 0.08375 0.0
H1178 H 0.25464 0.36625 0.20902 0.0
H1179 H 0.25418 0.36485 0.13865 0.0
H1180 H 0.1765 0.32716 0.14133 0.0
H1181 H 0.17728 0.32924 0.21166 0.0
C1182 C 0.19599 0.34479 0.02784 0.0
C1183 C 0.21445 0.34246 1.0072 0.0
C1184 C 0.19622 0.34584 0.06835 0.0
C1185 C 0.21493 0.34455 0.08979 0.0
C1186 C 0.23331 0.34203 0.06886 0.0
C1187 C 0.23304 0.34097 0.02836 0.0
C1188 C 0.23751 0.35777 0.19443 0.0
C1189 C 0.21601 0.34794 0.21597 0.0
C1190 C 0.23717 0.35675 0.15392 0.0
C1191 C 0.21529 0.34581 0.13347 0.0
C1192 C 0.19377 0.33606 0.15539 0.0
C1193 C 0.19415 0.33711 0.1959 0.0
H1194 H 0.34563 0.12106 0.06067 0.0
H1195 H 0.40684 0.19018 0.04672 0.0
H1196 H 0.34811 0.11232 0.99235 0.0
H1197 H 0.40959 0.18157 0.97886 0.0
H1198 H 0.41851 0.15537 0.864 0.0
H1199 H 0.41744 0.15364 0.9341 0.0
H1200 H 0.34082 0.13143 0.93258 0.0
H1201 H 0.34186 0.13362 0.86288 0.0
C1202 C 0.35971 0.13419 0.04289 0.0
C1203 C 0.37593 0.15631 0.05831 0.0
C1204 C 0.36118 0.12923 1.00409 0.0
C1205 C 0.37911 0.14623 0.98051 0.0
C1206 C 0.39584 0.16799 0.99653 0.0
C1207 C 0.39419 0.17303 0.03511 0.0
C1208 C 0.4014 0.14982 0.87864 0.0
C1209 C 0.38035 0.145 0.85792 0.0
C1210 C 0.40079 0.14876 0.91866 0.0
C1211 C 0.3791 0.14264 0.93861 0.0
C1212 C 0.35775 0.13599 0.91786 0.0
C1213 C 0.35837 0.13722 0.87788 0.0
H1214 H 0.83622 0.19226 0.87244 0.0
H1215 H 0.90925 0.24736 0.85992 0.0
H1216 H 0.8403 0.19444 0.94168 0.0
H1217 H 0.91323 0.25039 0.92979 0.0
H1218 H 0.92073 0.22011 0.04819 0.0
H1219 H 0.91743 0.22713 0.97997 0.0
H1220 H 0.84401 0.2158 0.99857 0.0
H1221 H 0.84708 0.20717 0.06613 0.0
C1222 C 0.85294 0.20537 0.88467 0.0
C1223 C 0.87244 0.2196 0.86096 0.0
C1224 C 0.85529 0.20673 0.92444 0.0
C1225 C 0.87713 0.22259 0.94147 0.0
C1226 C 0.8963 0.23768 0.91764 0.0
C1227 C 0.89403 0.23606 0.87771 0.0
C1228 C 0.90399 0.21923 0.0374 0.0
C1229 C 0.88395 0.21251 0.0617 0.0
C1230 C 0.90213 0.22353 0.99852 0.0
C1231 C 0.88031 0.22169 0.98357 0.0
C1232 C 0.86086 0.21672 1.00884 0.0
C1233 C 0.86261 0.21196 0.0475 0.0
H1234 H 0.81109 0.61349 0.04355 0.0
H1235 H 0.79792 0.67444 0.01637 0.0
H1236 H 0.80455 0.60083 0.97635 0.0
H1237 H 0.79186 0.66222 0.94944 0.0
H1238 H 0.8454 0.6282 0.85689 0.0
H1239 H 0.83253 0.62102 0.92362 0.0
H1240 H 0.77151 0.63453 0.89743 0.0
H1241 H 0.78466 0.64201 0.83043 0.0
C1242 C 0.80594 0.62367 0.02344 0.0
C1243 C 0.80534 0.64512 0.03481 0.0
C1244 C 0.80237 0.61652 0.98498 0.0
C1245 C 0.79803 0.63069 0.95749 0.0
C1246 C 0.795 0.65077 0.96983 0.0
C1247 C 0.79869 0.65795 1.00813 0.0
C1248 C 0.82875 0.62875 0.86506 0.0
C1249 C 0.81632 0.6362 0.83877 0.0
C1250 C 0.82128 0.62454 0.90335 0.0
C1251 C 0.80122 0.62764 0.91594 0.0
C1252 C 0.7873 0.63247 0.88867 0.0
C1253 C 0.79484 0.6368 0.85042 0.0
H1254 H 0.40066 0.2499 0.32263 0.0
H1255 H 0.34091 0.17943 0.33228 0.0
H1256 H 0.39922 0.25547 0.39231 0.0
H1257 H 0.33919 0.1849 0.40155 0.0
H1258 H 0.33396 0.20422 0.52299 0.0
H1259 H 0.33235 0.20962 0.45378 0.0
H1260 H 0.40915 0.23364 0.44571 0.0
H1261 H 0.41078 0.22777 0.51442 0.0
C1262 C 0.38699 0.23587 0.33976 0.0
C1263 C 0.37107 0.21417 0.32274 0.0
C1264 C 0.38615 0.23901 0.37936 0.0
C1265 C 0.36912 0.2206 0.40219 0.0
C1266 C 0.35229 0.19949 0.38457 0.0
C1267 C 0.35333 0.19627 0.34513 0.0
C1268 C 0.35053 0.21089 0.50648 0.0
C1269 C 0.37243 0.21519 0.52409 0.0
C1270 C 0.3496 0.21409 0.46698 0.0
C1271 C 0.37059 0.22187 0.44449 0.0
C1272 C 0.39273 0.22788 0.46247 0.0
C1273 C 0.39365 0.2245 0.50188 0.0
H1274 H 0.80558 0.13094 0.31985 0.0
H1275 H 0.88131 0.15157 0.33346 0.0
H1276 H 0.79935 0.12347 0.38915 0.0
H1277 H 0.87531 0.14415 0.40252 0.0
H1278 H 0.85698 0.12386 0.52586 0.0
H1279 H 0.85499 0.11518 0.45712 0.0
H1280 H 0.81446 0.15577 0.4397 0.0
H1281 H 0.81698 0.16505 0.50764 0.0
C1282 C 0.82068 0.13313 0.33769 0.0
C1283 C 0.84391 0.14199 0.32198 0.0
C1284 C 0.81719 0.12896 0.37713 0.0
C1285 C 0.83689 0.13344 0.40113 0.0
C1286 C 0.85977 0.14034 0.38466 0.0
C1287 C 0.86327 0.14468 0.34531 0.0
C1288 C 0.84752 0.1308 0.50737 0.0
C1289 C 0.83739 0.14539 0.52223 0.0
C1290 C 0.84623 0.12566 0.46814 0.0
C1291 C 0.83456 0.13478 0.4432 0.0
C1292 C 0.82321 0.14813 0.45837 0.0
C1293 C 0.82469 0.15347 0.49741 0.0
H1294 H 0.89374 0.74645 0.52022 0.0
H1295 H 0.95057 0.7249 0.53517 0.0
H1296 H 0.90412 0.75417 0.4527 0.0
H1297 H 0.9612 0.73286 0.46725 0.0
H1298 H 0.91971 0.76189 0.33076 0.0
H1299 H 0.9306 0.7733 0.3978 0.0
H1300 H 0.93662 0.70727 0.41588 0.0
H1301 H 0.92615 0.69626 0.34921 0.0
C1302 C 0.90908 0.74427 0.50939 0.0
C1303 C 0.92099 0.73453 0.53269 0.0
C1304 C 0.91514 0.74881 0.47062 0.0
C1305 C 0.93323 0.74373 0.45447 0.0
C1306 C 0.94687 0.73651 0.47878 0.0
C1307 C 0.94075 0.73188 0.51755 0.0
C1308 C 0.92434 0.75037 0.34883 0.0
C1309 C 0.92178 0.72806 0.33529 0.0
C1310 C 0.93042 0.75681 0.38718 0.0
C1311 C 0.93414 0.74105 0.41228 0.0
C1312 C 0.93406 0.71994 0.39737 0.0
C1313 C 0.92785 0.71348 0.35925 0.0
H1314 H 0.05899 0.44356 0.9277 0.0
H1315 H 0.10491 0.46674 0.02703 0.0
H1316 H 0.08289 0.42454 0.90182 0.0
H1317 H 0.12836 0.44687 1.00216 0.0
H1318 H 0.17949 0.4276 0.93319 0.0
H1319 H 0.15647 0.44817 0.95619 0.0
H1320 H 0.09187 0.39217 0.90776 0.0
H1321 H 0.11519 0.3727 0.88212 0.0
C1322 C 0.07403 0.44428 0.94427 0.0
C1323 C 0.08001 0.45661 0.97945 0.0
C1324 C 0.08776 0.43329 0.92951 0.0
C1325 C 0.10768 0.43399 0.94979 0.0
C1326 C 0.11351 0.44625 0.9852 0.0
C1327 C 0.09997 0.45755 0.99967 0.0
C1328 C 0.16047 0.41987 0.9267 0.0
C1329 C 0.14935 0.39835 0.90565 0.0
C1330 C 0.1471 0.43151 0.94057 0.0
C1331 C 0.12213 0.42188 0.93422 0.0
C1332 C 0.11106 0.40044 0.91297 0.0
C1333 C 0.12446 0.38897 0.8987 0.0
H1334 H 0.6403 0.76663 0.94899 0.0
H1335 H 0.66585 0.74379 0.84886 0.0
H1336 H 0.62257 0.72569 0.97377 0.0
H1337 H 0.64707 0.70251 0.87229 0.0
H1338 H 0.6294 0.63357 0.93679 0.0
H1339 H 0.64821 0.67482 0.91459 0.0
H1340 H 0.59237 0.68735 0.97061 0.0
H1341 H 0.57489 0.64681 0.99587 0.0
C1342 C 0.64181 0.75272 0.93196 0.0
C1343 C 0.65452 0.75854 0.89692 0.0
C1344 C 0.63149 0.72907 0.94608 0.0
C1345 C 0.63315 0.71032 0.92527 0.0
C1346 C 0.64569 0.71624 0.88987 0.0
C1347 C 0.65639 0.73999 0.87614 0.0
C1348 C 0.62131 0.64515 0.94522 0.0
C1349 C 0.60045 0.63639 0.9685 0.0
C1350 C 0.63195 0.66894 0.93169 0.0
C1351 C 0.62194 0.68485 0.94033 0.0
C1352 C 0.60104 0.67607 0.96353 0.0
C1353 C 0.59064 0.6524 0.9776 0.0
H1354 H 0.30903 0.88203 0.85984 0.0
H1355 H 0.29041 0.92554 0.93734 0.0
H1356 H 0.35103 0.90342 0.87902 0.0
H1357 H 0.33222 0.94647 0.95762 0.0
H1358 H 0.41258 0.99474 0.9643 0.0
H1359 H 0.37125 0.97431 0.94229 0.0
H1360 H 0.37898 0.90899 0.92685 0.0
H1361 H 0.42082 0.92989 0.94611 0.0
C1362 C 0.31385 0.89604 0.88128 0.0
C1363 C 0.29619 0.90201 0.89693 0.0
C1364 C 0.33805 0.90833 0.89251 0.0
C1365 C 0.34541 0.92684 0.92015 0.0
C1366 C 0.32765 0.93275 0.93577 0.0
C1367 C 0.3035 0.92064 0.9242 0.0
C1368 C 0.40571 0.97613 0.95562 0.0
C1369 C 0.42047 0.96418 0.95712 0.0
C1370 C 0.38166 0.96419 0.9435 0.0
C1371 C 0.37134 0.93977 0.93272 0.0
C1372 C 0.38609 0.92782 0.93428 0.0
C1373 C 0.4102 0.93982 0.94606 0.0
H1374 H 0.49899 0.07192 0.6273 0.0
H1375 H 0.4668 0.06542 0.51594 0.0
H1376 H 0.47764 0.09458 0.65053 0.0
H1377 H 0.44509 0.08777 0.53894 0.0
H1378 H 0.431 0.15073 0.58186 0.0
H1379 H 0.4525 0.12818 0.55878 0.0
H1380 H 0.43715 0.08936 0.66628 0.0
H1381 H 0.41598 0.11226 0.68919 0.0
C1382 C 0.48724 0.07534 0.60792 0.0
C1383 C 0.4845 0.06706 0.56991 0.0
C1384 C 0.4749 0.08817 0.62118 0.0
C1385 C 0.45962 0.09306 0.59663 0.0
C1386 C 0.45692 0.08464 0.55852 0.0
C1387 C 0.4692 0.07173 0.54536 0.0
C1388 C 0.43232 0.13736 0.60039 0.0
C1389 C 0.42197 0.13318 0.63723 0.0
C1390 C 0.44447 0.12434 0.58719 0.0
C1391 C 0.44659 0.1069 0.61064 0.0
C1392 C 0.43616 0.10282 0.64761 0.0
C1393 C 0.42393 0.11579 0.6607 0.0
H1394 H 0.90452 0.26259 0.58109 0.0
H1395 H 0.89151 0.28764 0.69013 0.0
H1396 H 0.92441 0.30403 0.55743 0.0
H1397 H 0.91178 0.32922 0.66711 0.0
H1398 H 0.93068 0.3998 0.60341 0.0
H1399 H 0.90903 0.35816 0.62463 0.0
H1400 H 0.96018 0.34071 0.56386 0.0
H1401 H 0.98117 0.38204 0.54133 0.0
C1402 C 0.90599 0.27706 0.59998 0.0
C1403 C 0.89651 0.27193 0.63743 0.0
C1404 C 0.91753 0.30086 0.58657 0.0
C1405 C 0.9199 0.32025 0.61027 0.0
C1406 C 0.91012 0.31493 0.64772 0.0
C1407 C 0.89859 0.2911 0.66108 0.0
C1408 C 0.93716 0.38706 0.59407 0.0
C1409 C 0.95782 0.39456 0.57053 0.0
C1410 C 0.92487 0.36312 0.60673 0.0
C1411 C 0.93277 0.34582 0.59621 0.0
C1412 C 0.95328 0.35328 0.57236 0.0
C1413 C 0.96558 0.3772 0.55976 0.0
H1414 H 0.77048 0.6417 0.68355 0.0
H1415 H 0.79696 0.64391 0.5683 0.0
H1416 H 0.729 0.62061 0.66058 0.0
H1417 H 0.75553 0.62308 0.54485 0.0
H1418 H 0.67878 0.56455 0.52163 0.0
H1419 H 0.72009 0.58501 0.54482 0.0
H1420 H 0.69903 0.62593 0.62406 0.0
H1421 H 0.65763 0.60489 0.60189 0.0
C1422 C 0.76735 0.63768 0.65323 0.0
C1423 C 0.78694 0.64434 0.62776 0.0
C1424 C 0.74357 0.62571 0.63993 0.0
C1425 C 0.73867 0.62002 0.6007 0.0
C1426 C 0.75842 0.62675 0.57527 0.0
C1427 C 0.78221 0.6388 0.58862 0.0
C1428 C 0.68286 0.57775 0.54423 0.0
C1429 C 0.66461 0.58294 0.55973 0.0
C1430 C 0.70672 0.58975 0.55729 0.0
C1431 C 0.71315 0.60726 0.58645 0.0
C1432 C 0.6949 0.61243 0.60193 0.0
C1433 C 0.67108 0.60051 0.58878 0.0
H1434 H 0.92249 0.64176 0.19555 0.0
H1435 H 0.88903 0.63582 0.08543 0.0
H1436 H 0.94221 0.61767 0.17196 0.0
H1437 H 0.90898 0.61204 0.06123 0.0
H1438 H 0.92921 0.54965 0.04408 0.0
H1439 H 0.90885 0.57289 0.06822 0.0
H1440 H 0.97356 0.62017 0.12782 0.0
H1441 H 0.99359 0.59655 0.10483 0.0
C1442 C 0.91948 0.6353 0.16621 0.0
C1443 C 0.90432 0.64054 0.14223 0.0
C1444 C 0.93083 0.62163 0.15257 0.0
C1445 C 0.92724 0.61288 0.11461 0.0
C1446 C 0.91195 0.61819 0.09071 0.0
C1447 C 0.90065 0.63192 0.10439 0.0
C1448 C 0.93903 0.56489 0.06259 0.0
C1449 C 0.9631 0.57121 0.07237 0.0
C1450 C 0.92743 0.57838 0.07612 0.0
C1451 C 0.93953 0.59847 0.09999 0.0
C1452 C 0.96356 0.60471 0.10985 0.0
C1453 C 0.97517 0.59129 0.09623 0.0
H1454 H 0.41613 0.30731 0.16756 0.0
H1455 H 0.4537 0.28461 0.0846 0.0
H1456 H 0.43859 0.34872 0.1463 0.0
H1457 H 0.47523 0.32581 0.06117 0.0
H1458 H 0.52495 0.40501 0.04435 0.0
H1459 H 0.50446 0.36426 0.06871 0.0
H1460 H 0.44346 0.37669 0.1012 0.0
H1461 H 0.46488 0.41795 0.08077 0.0
C1462 C 0.42904 0.3112 0.14434 0.0
C1463 C 0.43309 0.29265 0.12777 0.0
C1464 C 0.44189 0.33503 0.13177 0.0
C1465 C 0.45884 0.34108 0.10147 0.0
C1466 C 0.4628 0.32233 0.08493 0.0
C1467 C 0.4503 0.29854 0.09817 0.0
C1468 C 0.50737 0.39933 0.05736 0.0
C1469 C 0.49684 0.4153 0.06027 0.0
C1470 C 0.49529 0.37554 0.07084 0.0
C1471 C 0.47203 0.36666 0.08716 0.0
C1472 C 0.46144 0.38258 0.08967 0.0
C1473 C 0.47369 0.40644 0.07697 0.0
H1474 H 0.76095 0.16188 0.11023 0.0
H1475 H 0.75392 0.09406 0.15429 0.0
H1476 H 0.71924 0.14235 0.08883 0.0
H1477 H 0.71231 0.07456 0.13275 0.0
H1478 H 0.64618 0.04218 0.05487 0.0
H1479 H 0.68782 0.06201 0.07618 0.0
H1480 H 0.678 0.12389 0.11097 0.0
H1481 H 0.63625 0.104 0.08979 0.0
C1482 C 0.75052 0.14285 0.11571 0.0
C1483 C 0.76108 0.12966 0.13407 0.0
C1484 C 0.72648 0.13159 0.10336 0.0
C1485 C 0.71219 0.10676 0.10888 0.0
C1486 C 0.72274 0.09359 0.12728 0.0
C1487 C 0.74674 0.10484 0.13968 0.0
C1488 C 0.65274 0.05991 0.06741 0.0
C1489 C 0.63756 0.07133 0.07058 0.0
C1490 C 0.67676 0.07135 0.07968 0.0
C1491 C 0.68649 0.09463 0.0955 0.0
C1492 C 0.67138 0.10613 0.09847 0.0
C1493 C 0.64732 0.09467 0.08624 0.0
H1494 H 0.56795 0.95783 0.51151 0.0
H1495 H 0.5783 0.99459 0.40318 0.0
H1496 H 0.5908 0.93686 0.4877 0.0
H1497 H 0.60075 0.97337 0.37866 0.0
H1498 H 0.66196 0.9515 0.363 0.0
H1499 H 0.63853 0.97177 0.3861 0.0
H1500 H 0.58943 0.90661 0.44351 0.0
H1501 H 0.61346 0.88667 0.42187 0.0
C1502 C 0.575 0.9612 0.48244 0.0
C1503 C 0.57148 0.97777 0.45913 0.0
C1504 C 0.58798 0.94914 0.46865 0.0
C1505 C 0.59771 0.95338 0.43117 0.0
C1506 C 0.59387 0.96987 0.40781 0.0
C1507 C 0.5809 0.98192 0.42166 0.0
C1508 C 0.64629 0.94152 0.3808 0.0
C1509 C 0.63971 0.91739 0.39054 0.0
C1510 C 0.63264 0.95309 0.3937 0.0
C1511 C 0.61201 0.94088 0.41674 0.0
C1512 C 0.60533 0.91671 0.42623 0.0
C1513 C 0.61898 0.90515 0.41334 0.0
H1514 H 0.10921 0.62006 0.49241 0.0
H1515 H 0.04085 0.61706 0.45893 0.0
H1516 H 0.12975 0.66019 0.46607 0.0
H1517 H 0.06121 0.65807 0.43629 0.0
H1518 H 0.10398 0.72514 0.36579 0.0
H1519 H 0.08372 0.68397 0.38948 0.0
H1520 H 0.14046 0.7001 0.47258 0.0
H1521 H 0.16121 0.74072 0.44693 0.0
C1522 C 0.09839 0.62782 0.4796 0.0
C1523 C 0.07311 0.61476 0.47798 0.0
C1524 C 0.1103 0.65131 0.46499 0.0
C1525 C 0.09739 0.66291 0.44883 0.0
C1526 C 0.07209 0.64996 0.44769 0.0
C1527 C 0.06023 0.62631 0.46161 0.0
C1528 C 0.1121 0.71978 0.38905 0.0
C1529 C 0.13427 0.7362 0.40432 0.0
C1530 C 0.10037 0.69611 0.403 0.0
C1531 C 0.11018 0.68824 0.43334 0.0
C1532 C 0.13236 0.70493 0.44873 0.0
C1533 C 0.1443 0.72842 0.43417 0.0
H1534 H 0.33599 0.39021 0.36103 0.0
H1535 H 0.31218 0.41992 0.45485 0.0
H1536 H 0.37757 0.41259 0.38199 0.0
H1537 H 0.35347 0.44143 0.47713 0.0
H1538 H 0.4316 0.49474 0.49117 0.0
H1539 H 0.3907 0.4732 0.46814 0.0
H1540 H 0.40693 0.41657 0.42545 0.0
H1541 H 0.44837 0.43912 0.44538 0.0
C1542 C 0.33963 0.40132 0.38646 0.0
C1543 C 0.32069 0.40332 0.40608 0.0
C1544 C 0.36357 0.41415 0.39873 0.0
C1545 C 0.36933 0.42908 0.43148 0.0
C1546 C 0.35018 0.43073 0.45133 0.0
C1547 C 0.32633 0.41822 0.43866 0.0
C1548 C 0.42671 0.47791 0.47629 0.0
C1549 C 0.44377 0.46894 0.47033 0.0
C1550 C 0.40287 0.46521 0.46356 0.0
C1551 C 0.39502 0.44284 0.44484 0.0
C1552 C 0.41204 0.4338 0.43912 0.0
C1553 C 0.43596 0.44667 0.45135 0.0
H1554 H 0.82882 0.73453 0.29159 0.0
H1555 H 0.80473 0.74029 0.17793 0.0
H1556 H 0.80981 0.75885 0.31721 0.0
H1557 H 0.78581 0.76474 0.20322 0.0
H1558 H 0.77765 0.82876 0.25604 0.0
H1559 H 0.7976 0.80513 0.2319 0.0
H1560 H 0.76897 0.75625 0.32755 0.0
H1561 H 0.74928 0.78006 0.35197 0.0
C1562 C 0.81938 0.741 0.27219 0.0
C1563 C 0.81828 0.73567 0.23284 0.0
C1564 C 0.80846 0.75485 0.28679 0.0
C1565 C 0.79636 0.76384 0.26225 0.0
C1566 C 0.79526 0.7584 0.22283 0.0
C1567 C 0.80597 0.74434 0.20834 0.0
C1568 C 0.77584 0.81314 0.27217 0.0
C1569 C 0.76185 0.80633 0.30597 0.0
C1570 C 0.78707 0.79944 0.2581 0.0
C1571 C 0.78482 0.77872 0.27768 0.0
C1572 C 0.77121 0.77218 0.31187 0.0
C1573 C 0.75977 0.78573 0.32572 0.0
H1574 H 0.34166 0.07926 0.29045 0.0
H1575 H 0.28268 0.07191 0.21723 0.0
H1576 H 0.31954 0.0377 0.30982 0.0
H1577 H 0.2596 0.03117 0.23971 0.0
H1578 H 0.23006 0.95077 0.25758 0.0
H1579 H 0.25311 0.99219 0.23655 0.0
H1580 H 0.28957 0.00958 0.34601 0.0
H1581 H 0.26742 0.9677 0.36567 0.0
C1582 C 0.32397 0.06896 0.27838 0.0
C1583 C 0.3143 0.07944 0.25185 0.0
C1584 C 0.31093 0.04496 0.29024 0.0
C1585 C 0.28748 0.03057 0.27666 0.0
C1586 C 0.27768 0.04117 0.25056 0.0
C1587 C 0.2909 0.06501 0.23812 0.0
C1588 C 0.24301 0.96351 0.2771 0.0
C1589 C 0.24689 0.9559 0.31329 0.0
C1590 C 0.25622 0.98746 0.26517 0.0
C1591 C 0.27342 0.00476 0.2894 0.0
C1592 C 0.27702 0.99702 0.3259 0.0
C1593 C 0.26416 0.97293 0.33745 0.0
H1594 H 0.10397 0.31542 0.27267 0.0
H1595 H 0.09002 0.25976 0.35682 0.0
H1596 H 0.0625 0.29479 0.25102 0.0
H1597 H 0.04825 0.23919 0.3356 0.0
H1598 H 0.98006 0.19668 0.26523 0.0
H1599 H 0.02187 0.21656 0.28588 0.0
H1600 H 0.02254 0.28568 0.26774 0.0
H1601 H 0.9813 0.26588 0.24508 0.0
C1602 C 0.09199 0.29888 0.28691 0.0
C1603 C 0.10048 0.28942 0.31674 0.0
C1604 C 0.06805 0.287 0.27449 0.0
C1605 C 0.05168 0.26527 0.29159 0.0
C1606 C 0.06024 0.25567 0.32124 0.0
C1607 C 0.08428 0.26752 0.33354 0.0
C1608 C 0.98916 0.21613 0.26513 0.0
C1609 C 0.97702 0.22953 0.25326 0.0
C1610 C 0.01318 0.22759 0.27756 0.0
C1611 C 0.02588 0.25286 0.27862 0.0
C1612 C 0.01368 0.26624 0.26692 0.0
C1613 C 0.98973 0.25479 0.25438 0.0
H1614 H 0.33695 0.24202 0.69209 0.0
H1615 H 0.32927 0.20698 0.80143 0.0
H1616 H 0.31548 0.26405 0.71721 0.0
H1617 H 0.30838 0.2294 0.82737 0.0
H1618 H 0.24992 0.25422 0.84887 0.0
H1619 H 0.2715 0.23249 0.8242 0.0
H1620 H 0.31893 0.29539 0.75996 0.0
H1621 H 0.29654 0.3167 0.78303 0.0
C1622 C 0.3307 0.2392 0.72162 0.0
C1623 C 0.33461 0.22286 0.74489 0.0
C1624 C 0.31857 0.25191 0.73619 0.0
C1625 C 0.31015 0.24862 0.77446 0.0
C1626 C 0.31424 0.2322 0.79767 0.0
C1627 C 0.3263 0.21945 0.78299 0.0
C1628 C 0.26481 0.2634 0.82922 0.0
C1629 C 0.27133 0.28727 0.81791 0.0
C1630 C 0.27743 0.25099 0.8154 0.0
C1631 C 0.29702 0.26208 0.78993 0.0
C1632 C 0.30376 0.28607 0.77906 0.0
C1633 C 0.29109 0.29846 0.79279 0.0
H1634 H 0.81078 0.11101 0.79774 0.0
H1635 H 0.8231 0.08707 0.68727 0.0
H1636 H 0.7917 0.06938 0.82074 0.0
H1637 H 0.80374 0.04532 0.7097 0.0
H1638 H 0.78826 0.97523 0.77263 0.0
H1639 H 0.80842 0.01702 0.75162 0.0
H1640 H 0.75623 0.03198 0.81426 0.0
H1641 H 0.73664 0.99045 0.83645 0.0
C1642 C 0.80928 0.09675 0.77837 0.0
C1643 C 0.81836 0.10224 0.74072 0.0
C1644 C 0.79824 0.07284 0.79142 0.0
C1645 C 0.79604 0.05375 0.76718 0.0
C1646 C 0.80531 0.05942 0.72948 0.0
C1647 C 0.81629 0.08332 0.71646 0.0
C1648 C 0.78121 0.98745 0.78239 0.0
C1649 C 0.7607 0.97922 0.80636 0.0
C1650 C 0.79265 0.01147 0.76987 0.0
C1651 C 0.78402 0.0281 0.781 0.0
C1652 C 0.76365 0.01991 0.80527 0.0
C1653 C 0.75218 0.99589 0.81769 0.0
H1654 H 0.06772 0.75413 0.83624 0.0
H1655 H 0.07377 0.82026 0.78634 0.0
H1656 H 0.0266 0.73326 0.81304 0.0
H1657 H 0.03222 0.79967 0.76503 0.0
H1658 H 0.96499 0.75103 0.69683 0.0
H1659 H 0.00646 0.7721 0.71978 0.0
H1660 H 0.9866 0.72755 0.82159 0.0
H1661 H 0.94538 0.70618 0.79763 0.0
C1662 C 0.06037 0.76432 0.82037 0.0
C1663 C 0.07444 0.78904 0.81326 0.0
C1664 C 0.03649 0.75233 0.80743 0.0
C1665 C 0.02574 0.76461 0.78699 0.0
C1666 C 0.03975 0.78937 0.78013 0.0
C1667 C 0.06365 0.80134 0.79297 0.0
C1668 C 0.96962 0.74583 0.72409 0.0
C1669 C 0.95204 0.72694 0.74538 0.0
C1670 C 0.99337 0.75799 0.73749 0.0
C1671 C 1.0002 0.75168 0.77274 0.0
C1672 C 0.98236 0.73279 0.79408 0.0
C1673 C 0.95864 0.72059 0.78055 0.0
loop_
_geom_bond_atom_site_label_1
_geom_bond_atom_site_label_2
_geom_bond_distance
_geom_bond_site_symmetry_2
_ccdc_geom_bond_type
C0 C1 1.443 . S
C0 N4 1.376 . S
C0 C38 1.380 1_655 S
C1 C0 1.443 . S
C1 C2 1.340 . S
C1 H41 0.951 . S
C2 C1 1.340 . S
C2 C3 1.439 . S
C2 H42 0.950 . S
C3 C2 1.439 . S
C3 N4 1.374 . S
C3 C37 1.395 . S
N4 C0 1.376 . S
N4 C3 1.374 . S
N4 Co5 2.007 1_655 S
Co5 N4 2.007 1_455 S
Co5 N6 1.993 1_454 S
Co5 N11 2.009 1_554 S
Co5 N16 1.996 . S
Co5 N21 2.285 1_554 S
Co5 N27 2.280 1_455 S
N6 Co5 1.993 1_656 S
N6 C7 1.376 . S
N6 C10 1.383 . S
C7 N6 1.376 . S
C7 C8 1.446 . S
C7 C37 1.391 1_556 S
C8 C7 1.446 . S
C8 C9 1.339 . S
C8 H43 0.949 . S
C9 C8 1.339 . S
C9 C10 1.439 . S
C9 H44 0.950 . S
C10 N6 1.383 . S
C10 C9 1.439 . S
C10 C39 1.390 . S
N11 Co5 2.009 1_556 S
N11 C12 1.376 . S
N11 C15 1.374 . S
C12 N11 1.376 . S
C12 C13 1.443 . S
C12 C39 1.390 1_455 S
C13 C12 1.443 . S
C13 C14 1.340 . S
C13 H45 0.951 . S
C14 C13 1.340 . S
C14 C15 1.439 . S
C14 H46 0.950 . S
C15 N11 1.374 . S
C15 C14 1.439 . S
C15 C40 1.395 1_556 S
N16 Co5 1.996 . S
N16 C17 1.376 . S
N16 C20 1.383 . S
C17 N16 1.376 . S
C17 C18 1.446 . S
C17 C40 1.391 . S
C18 C17 1.446 . S
C18 C19 1.339 . S
C18 H47 0.949 . S
C19 C18 1.339 . S
C19 C20 1.439 . S
C19 H48 0.950 . S
C20 N16 1.383 . S
C20 C19 1.439 . S
C20 C38 1.401 . S
N21 Co5 2.285 1_556 S
N21 C24 1.332 . S
N21 C26 1.332 . S
C22 C23 1.386 . S
C22 C25 1.388 . S
C23 C22 1.386 . S
C23 C24 1.382 . S
C23 H49 0.950 . S
C24 N21 1.332 . S
C24 C23 1.382 . S
C24 H35 0.952 1_556 S
C25 C22 1.388 . S
C25 C26 1.382 . S
C25 H50 0.950 . S
C26 N21 1.332 . S
C26 C25 1.382 . S
C26 H36 0.948 1_455 S
N27 Co5 2.280 1_655 S
N27 C31 1.332 . S
N27 C32 1.332 . S
C28 C29 1.388 . S
C28 C32 1.382 . S
C28 H51 0.950 . S
C29 C28 1.388 . S
C29 C30 1.386 . S
C30 C29 1.386 . S
C30 C31 1.382 . S
C30 H52 0.950 . S
C31 N27 1.332 . S
C31 C30 1.382 . S
C31 H33 0.952 . S
C32 N27 1.332 . S
C32 C28 1.382 . S
C32 H34 0.948 1_655 S
H33 C31 0.952 . S
H34 C32 0.948 1_455 S
H35 C24 0.952 1_554 S
H36 C26 0.948 1_655 S
C37 C3 1.395 . S
C37 C7 1.391 1_554 S
C38 C0 1.380 1_455 S
C38 C20 1.401 . S
C39 C10 1.390 . S
C39 C12 1.390 1_655 S
C40 C15 1.395 1_554 S
C40 C17 1.391 . S
H41 C1 0.951 . S
H42 C2 0.950 . S
H43 C8 0.949 . S
H44 C9 0.950 . S
H45 C13 0.951 . S
H46 C14 0.950 . S
H47 C18 0.949 . S
H48 C19 0.950 . S
H49 C23 0.950 . S
H50 C25 0.950 . S
H51 C28 0.950 . S
H52 C30 0.950 . S
C53 C54 1.443 . S
C53 N57 1.376 . S
C53 C91 1.389 . S
C54 C53 1.443 . S
C54 C55 1.340 . S
C54 H94 0.951 . S
C55 C54 1.340 . S
C55 C56 1.439 . S
C55 H95 0.950 . S
C56 C55 1.439 . S
C56 N57 1.374 . S
C56 C90 1.395 1_556 S
N57 C53 1.376 . S
N57 C56 1.374 . S
N57 Co58 2.008 1_556 S
Co58 N57 2.008 1_554 S
Co58 N59 1.995 . S
Co58 N64 2.008 . S
Co58 N69 1.995 1_554 S
Co58 N74 2.282 . S
Co58 N80 2.282 1_554 S
N59 Co58 1.995 . S
N59 C60 1.376 . S
N59 C63 1.383 . S
C60 N59 1.376 . S
C60 C61 1.446 . S
C60 C90 1.391 . S
C61 C60 1.446 . S
C61 C62 1.339 . S
C61 H96 0.949 . S
C62 C61 1.339 . S
C62 C63 1.439 . S
C62 H97 0.950 . S
C63 N59 1.383 . S
C63 C62 1.439 . S
C63 C92 1.392 . S
N64 Co58 2.008 . S
N64 C65 1.376 . S
N64 C68 1.374 . S
C65 N64 1.376 . S
C65 C66 1.443 . S
C65 C92 1.389 . S
C66 C65 1.443 . S
C66 C67 1.340 . S
C66 H98 0.951 . S
C67 C66 1.340 . S
C67 C68 1.439 . S
C67 H99 0.950 . S
C68 N64 1.374 . S
C68 C67 1.439 . S
C68 C93 1.395 . S
N69 Co58 1.995 1_556 S
N69 C70 1.376 . S
N69 C73 1.383 . S
C70 N69 1.376 . S
C70 C71 1.446 . S
C70 C93 1.391 1_556 S
C71 C70 1.446 . S
C71 C72 1.339 . S
C71 H100 0.949 . S
C72 C71 1.339 . S
C72 C73 1.439 . S
C72 H101 0.950 . S
C73 N69 1.383 . S
C73 C72 1.439 . S
C73 C91 1.392 . S
N74 Co58 2.282 . S
N74 C77 1.332 . S
N74 C79 1.332 . S
C75 C76 1.386 . S
C75 C78 1.388 . S
C76 C75 1.386 . S
C76 C77 1.382 . S
C76 H102 0.950 . S
C77 N74 1.332 . S
C77 C76 1.382 . S
C77 H88 0.952 . S
C78 C75 1.388 . S
C78 C79 1.382 . S
C78 H103 0.950 . S
C79 N74 1.332 . S
C79 C78 1.382 . S
C79 H89 0.948 . S
N80 Co58 2.282 1_556 S
N80 C84 1.332 . S
N80 C85 1.332 . S
C81 C82 1.388 . S
C81 C85 1.382 . S
C81 H104 0.950 . S
C82 C81 1.388 . S
C82 C83 1.386 . S
C83 C82 1.386 . S
C83 C84 1.382 . S
C83 H105 0.950 . S
C84 N80 1.332 . S
C84 C83 1.382 . S
C84 H86 0.952 1_556 S
C85 N80 1.332 . S
C85 C81 1.382 . S
C85 H87 0.948 . S
H86 C84 0.952 1_554 S
H87 C85 0.948 . S
H88 C77 0.952 . S
H89 C79 0.948 . S
C90 C56 1.395 1_554 S
C90 C60 1.391 . S
C91 C53 1.389 . S
C91 C73 1.392 . S
C92 C63 1.392 . S
C92 C65 1.389 . S
C93 C68 1.395 . S
C93 C70 1.391 1_554 S
H94 C54 0.951 . S
H95 C55 0.950 . S
H96 C61 0.949 . S
H97 C62 0.950 . S
H98 C66 0.951 . S
H99 C67 0.950 . S
H100 C71 0.949 . S
H101 C72 0.950 . S
H102 C76 0.950 . S
H103 C78 0.950 . S
H104 C81 0.950 . S
H105 C83 0.950 . S
C106 C107 1.443 . S
C106 N110 1.376 . S
C106 C144 1.389 . S
C107 C106 1.443 . S
C107 C108 1.340 . S
C107 H147 0.951 . S
C108 C107 1.340 . S
C108 C109 1.439 . S
C108 H148 0.950 . S
C109 C108 1.439 . S
C109 N110 1.374 . S
C109 C143 1.395 . S
N110 C106 1.376 . S
N110 C109 1.374 . S
N110 Co111 2.008 . S
Co111 N110 2.008 . S
Co111 N112 1.995 1_554 S
Co111 N117 2.008 1_544 S
Co111 N122 1.995 1_545 S
Co111 N127 2.282 1_544 S
Co111 N133 2.282 . S
N112 Co111 1.995 1_556 S
N112 C113 1.376 . S
N112 C116 1.383 . S
C113 N112 1.376 . S
C113 C114 1.446 . S
C113 C143 1.391 1_556 S
C114 C113 1.446 . S
C114 C115 1.339 . S
C114 H149 0.949 . S
C115 C114 1.339 . S
C115 C116 1.439 . S
C115 H150 0.950 . S
C116 N112 1.383 . S
C116 C115 1.439 . S
C116 C145 1.392 . S
N117 Co111 2.008 1_566 S
N117 C118 1.376 . S
N117 C121 1.374 . S
C118 N117 1.376 . S
C118 C119 1.443 . S
C118 C145 1.389 1_565 S
C119 C118 1.443 . S
C119 C120 1.340 . S
C119 H151 0.951 . S
C120 C119 1.340 . S
C120 C121 1.439 . S
C120 H152 0.950 . S
C121 N117 1.374 . S
C121 C120 1.439 . S
C121 C146 1.395 1_556 S
N122 Co111 1.995 1_565 S
N122 C123 1.376 . S
N122 C126 1.383 . S
C123 N122 1.376 . S
C123 C124 1.446 . S
C123 C146 1.391 . S
C124 C123 1.446 . S
C124 C125 1.339 . S
C124 H153 0.949 . S
C125 C124 1.339 . S
C125 C126 1.439 . S
C125 H154 0.950 . S
C126 N122 1.383 . S
C126 C125 1.439 . S
C126 C144 1.392 1_565 S
N127 Co111 2.282 1_566 S
N127 C130 1.332 . S
N127 C132 1.332 1_565 S
C128 C129 1.386 . S
C128 C131 1.388 . S
C129 C128 1.386 . S
C129 C130 1.382 . S
C129 H155 0.950 . S
C130 N127 1.332 . S
C130 C129 1.382 . S
C130 H141 0.952 1_556 S
C131 C128 1.388 . S
C131 C132 1.382 1_565 S
C131 H156 0.950 1_565 S
C132 N127 1.332 1_545 S
C132 C131 1.382 1_545 S
C132 H142 0.948 . S
N133 Co111 2.282 . S
N133 C137 1.332 . S
N133 C138 1.332 . S
C134 C135 1.388 . S
C134 C138 1.382 . S
C134 H157 0.950 . S
C135 C134 1.388 . S
C135 C136 1.386 . S
C136 C135 1.386 . S
C136 C137 1.382 . S
C136 H158 0.950 . S
C137 N133 1.332 . S
C137 C136 1.382 . S
C137 H139 0.952 . S
C138 N133 1.332 . S
C138 C134 1.382 . S
C138 H140 0.948 . S
H139 C137 0.952 . S
H140 C138 0.948 . S
H141 C130 0.952 1_554 S
H142 C132 0.948 . S
C143 C109 1.395 . S
C143 C113 1.391 1_554 S
C144 C106 1.389 . S
C144 C126 1.392 1_545 S
C145 C116 1.392 . S
C145 C118 1.389 1_545 S
C146 C121 1.395 1_554 S
C146 C123 1.391 . S
H147 C107 0.951 . S
H148 C108 0.950 . S
H149 C114 0.949 . S
H150 C115 0.950 . S
H151 C119 0.951 . S
H152 C120 0.950 . S
H153 C124 0.949 . S
H154 C125 0.950 . S
H155 C129 0.950 . S
H156 C131 0.950 1_545 S
H157 C134 0.950 . S
H158 C136 0.950 . S
C159 C160 1.443 . S
C159 N163 1.376 . S
C159 C197 1.389 1_545 S
C160 C159 1.443 . S
C160 C161 1.340 . S
C160 H200 0.951 . S
C161 C160 1.340 . S
C161 C162 1.439 . S
C161 H201 0.950 . S
C162 C161 1.439 . S
C162 N163 1.374 . S
C162 C196 1.395 . S
N163 C159 1.376 . S
N163 C162 1.374 . S
N163 Co164 2.008 . S
Co164 N163 2.008 . S
Co164 N165 1.995 . S
Co164 N170 2.008 . S
Co164 N175 1.995 1_545 S
Co164 N180 2.282 . S
Co164 N186 2.282 . S
N165 Co164 1.995 . S
N165 C166 1.376 . S
N165 C169 1.383 . S
C166 N165 1.376 . S
C166 C167 1.446 . S
C166 C196 1.391 . S
C167 C166 1.446 . S
C167 C168 1.339 . S
C167 H202 0.949 . S
C168 C167 1.339 . S
C168 C169 1.439 . S
C168 H203 0.950 . S
C169 N165 1.383 . S
C169 C168 1.439 . S
C169 C198 1.392 . S
N170 Co164 2.008 . S
N170 C171 1.376 . S
N170 C174 1.374 1_545 S
C171 N170 1.376 . S
C171 C172 1.443 . S
C171 C198 1.389 . S
C172 C171 1.443 . S
C172 C173 1.340 1_545 S
C172 H204 0.951 . S
C173 C172 1.340 1_565 S
C173 C174 1.439 . S
C173 H205 0.950 . S
C174 N170 1.374 1_565 S
C174 C173 1.439 . S
C174 C199 1.395 . S
N175 Co164 1.995 1_565 S
N175 C176 1.376 . S
N175 C179 1.383 . S
C176 N175 1.376 . S
C176 C177 1.446 . S
C176 C199 1.391 . S
C177 C176 1.446 . S
C177 C178 1.339 . S
C177 H206 0.949 . S
C178 C177 1.339 . S
C178 C179 1.439 . S
C178 H207 0.950 . S
C179 N175 1.383 . S
C179 C178 1.439 . S
C179 C197 1.392 . S
N180 Co164 2.282 . S
N180 C183 1.332 1_545 S
N180 C185 1.332 . S
C181 C182 1.386 1_545 S
C181 C184 1.388 . S
C182 C181 1.386 1_565 S
C182 C183 1.382 . S
C182 H208 0.950 . S
C183 N180 1.332 1_565 S
C183 C182 1.382 . S
C183 H194 0.952 . S
C184 C181 1.388 . S
C184 C185 1.382 . S
C184 H209 0.950 . S
C185 N180 1.332 . S
C185 C184 1.382 . S
C185 H195 0.948 . S
N186 Co164 2.282 . S
N186 C190 1.332 . S
N186 C191 1.332 1_545 S
C187 C188 1.388 1_565 S
C187 C191 1.382 . S
C187 H210 0.950 . S
C188 C187 1.388 1_545 S
C188 C189 1.386 . S
C189 C188 1.386 . S
C189 C190 1.382 . S
C189 H211 0.950 . S
C190 N186 1.332 . S
C190 C189 1.382 . S
C190 H192 0.952 . S
C191 N186 1.332 1_565 S
C191 C187 1.382 . S
C191 H193 0.948 . S
H192 C190 0.952 . S
H193 C191 0.948 . S
H194 C183 0.952 . S
H195 C185 0.948 . S
C196 C162 1.395 . S
C196 C166 1.391 . S
C197 C159 1.389 1_565 S
C197 C179 1.392 . S
C198 C169 1.392 . S
C198 C171 1.389 . S
C199 C174 1.395 . S
C199 C176 1.391 . S
H200 C160 0.951 . S
H201 C161 0.950 . S
H202 C167 0.949 . S
H203 C168 0.950 . S
H204 C172 0.951 . S
H205 C173 0.950 . S
H206 C177 0.949 . S
H207 C178 0.950 . S
H208 C182 0.950 . S
H209 C184 0.950 . S
H210 C187 0.950 . S
H211 C189 0.950 . S
C212 C213 1.443 . S
C212 N216 1.376 . S
C212 C250 1.385 1_455 S
C213 C212 1.443 . S
C213 C214 1.340 . S
C213 H253 0.951 . S
C214 C213 1.340 . S
C214 C215 1.439 . S
C214 H254 0.950 . S
C215 C214 1.439 . S
C215 N216 1.374 . S
C215 C249 1.395 . S
N216 C212 1.376 . S
N216 C215 1.374 . S
N216 Co217 2.008 . S
Co217 N216 2.008 . S
Co217 N218 1.995 . S
Co217 N223 2.008 1_455 S
Co217 N228 1.995 1_455 S
Co217 N233 2.282 1_455 S
Co217 N239 2.282 . S
N218 Co217 1.995 . S
N218 C219 1.376 . S
N218 C222 1.383 . S
C219 N218 1.376 . S
C219 C220 1.446 . S
C219 C249 1.391 . S
C220 C219 1.446 . S
C220 C221 1.339 . S
C220 H255 0.949 . S
C221 C220 1.339 . S
C221 C222 1.439 . S
C221 H256 0.950 . S
C222 N218 1.383 . S
C222 C221 1.439 . S
C222 C251 1.407 . S
N223 Co217 2.008 1_655 S
N223 C224 1.376 . S
N223 C227 1.374 . S
C224 N223 1.376 . S
C224 C225 1.443 . S
C224 C251 1.374 1_655 S
C225 C224 1.443 . S
C225 C226 1.340 . S
C225 H257 0.951 . S
C226 C225 1.340 . S
C226 C227 1.439 . S
C226 H258 0.950 . S
C227 N223 1.374 . S
C227 C226 1.439 . S
C227 C252 1.395 . S
N228 Co217 1.995 1_655 S
N228 C229 1.376 . S
N228 C232 1.383 . S
C229 N228 1.376 . S
C229 C230 1.446 . S
C229 C252 1.391 . S
C230 C229 1.446 . S
C230 C231 1.339 . S
C230 H259 0.949 . S
C231 C230 1.339 . S
C231 C232 1.439 . S
C231 H260 0.950 . S
C232 N228 1.383 . S
C232 C231 1.439 . S
C232 C250 1.396 . S
N233 Co217 2.282 1_655 S
N233 C236 1.332 . S
N233 C238 1.332 . S
C234 C235 1.386 . S
C234 C237 1.388 . S
C235 C234 1.386 . S
C235 C236 1.382 . S
C235 H261 0.950 . S
C236 N233 1.332 . S
C236 C235 1.382 . S
C236 H247 0.952 . S
C237 C234 1.388 . S
C237 C238 1.382 . S
C237 H262 0.950 . S
C238 N233 1.332 . S
C238 C237 1.382 . S
C238 H248 0.948 1_655 S
N239 Co217 2.282 . S
N239 C243 1.332 . S
N239 C244 1.332 . S
C240 C241 1.388 . S
C240 C244 1.382 . S
C240 H263 0.950 . S
C241 C240 1.388 . S
C241 C242 1.386 . S
C242 C241 1.386 . S
C242 C243 1.382 . S
C242 H264 0.950 . S
C243 N239 1.332 . S
C243 C242 1.382 . S
C243 H245 0.952 . S
C244 N239 1.332 . S
C244 C240 1.382 . S
C244 H246 0.948 1_455 S
H245 C243 0.952 . S
H246 C244 0.948 1_655 S
H247 C236 0.952 . S
H248 C238 0.948 1_455 S
C249 C215 1.395 . S
C249 C219 1.391 . S
C250 C212 1.385 1_655 S
C250 C232 1.396 . S
C251 C222 1.407 . S
C251 C224 1.374 1_455 S
C252 C227 1.395 . S
C252 C229 1.391 . S
H253 C213 0.951 . S
H254 C214 0.950 . S
H255 C220 0.949 . S
H256 C221 0.950 . S
H257 C225 0.951 . S
H258 C226 0.950 . S
H259 C230 0.949 . S
H260 C231 0.950 . S
H261 C235 0.950 . S
H262 C237 0.950 . S
H263 C240 0.950 . S
H264 C242 0.950 . S
C265 C266 1.443 . S
C265 N269 1.376 . S
C265 C303 1.389 . S
C266 C265 1.443 . S
C266 C267 1.340 . S
C266 H306 0.951 . S
C267 C266 1.340 . S
C267 C268 1.439 . S
C267 H307 0.950 . S
C268 C267 1.439 . S
C268 N269 1.374 . S
C268 C302 1.395 . S
N269 C265 1.376 . S
N269 C268 1.374 . S
N269 Co270 2.008 . S
Co270 N269 2.008 . S
Co270 N271 1.995 . S
Co270 N276 2.008 . S
Co270 N281 1.995 . S
Co270 N286 2.282 . S
Co270 N292 2.282 . S
N271 Co270 1.995 . S
N271 C272 1.376 . S
N271 C275 1.383 . S
C272 N271 1.376 . S
C272 C273 1.446 . S
C272 C302 1.391 . S
C273 C272 1.446 . S
C273 C274 1.339 . S
C273 H308 0.949 . S
C274 C273 1.339 . S
C274 C275 1.439 . S
C274 H309 0.950 . S
C275 N271 1.383 . S
C275 C274 1.439 . S
C275 C304 1.392 . S
N276 Co270 2.008 . S
N276 C277 1.376 . S
N276 C280 1.374 . S
C277 N276 1.376 . S
C277 C278 1.443 . S
C277 C304 1.389 . S
C278 C277 1.443 . S
C278 C279 1.340 . S
C278 H310 0.951 . S
C279 C278 1.340 . S
C279 C280 1.439 . S
C279 H311 0.950 . S
C280 N276 1.374 . S
C280 C279 1.439 . S
C280 C305 1.395 . S
N281 Co270 1.995 . S
N281 C282 1.376 . S
N281 C285 1.383 . S
C282 N281 1.376 . S
C282 C283 1.446 . S
C282 C305 1.391 . S
C283 C282 1.446 . S
C283 C284 1.339 . S
C283 H312 0.949 . S
C284 C283 1.339 . S
C284 C285 1.439 . S
C284 H313 0.950 . S
C285 N281 1.383 . S
C285 C284 1.439 . S
C285 C303 1.392 . S
N286 Co270 2.282 . S
N286 C289 1.332 . S
N286 C291 1.332 . S
C287 C288 1.386 . S
C287 C290 1.388 . S
C288 C287 1.386 . S
C288 C289 1.382 . S
C288 H314 0.950 . S
C289 N286 1.332 . S
C289 C288 1.382 . S
C289 H300 0.952 . S
C290 C287 1.388 . S
C290 C291 1.382 . S
C290 H315 0.950 . S
C291 N286 1.332 . S
C291 C290 1.382 . S
C291 H301 0.948 . S
N292 Co270 2.282 . S
N292 C296 1.332 . S
N292 C297 1.332 . S
C293 C294 1.388 . S
C293 C297 1.382 . S
C293 H316 0.950 . S
C294 C293 1.388 . S
C294 C295 1.386 . S
C295 C294 1.386 . S
C295 C296 1.382 . S
C295 H317 0.950 . S
C296 N292 1.332 . S
C296 C295 1.382 . S
C296 H298 0.952 . S
C297 N292 1.332 . S
C297 C293 1.382 . S
C297 H299 0.948 . S
H298 C296 0.952 . S
H299 C297 0.948 . S
H300 C289 0.952 . S
H301 C291 0.948 . S
C302 C268 1.395 . S
C302 C272 1.391 . S
C303 C265 1.389 . S
C303 C285 1.392 . S
C304 C275 1.392 . S
C304 C277 1.389 . S
C305 C280 1.395 . S
C305 C282 1.391 . S
H306 C266 0.951 . S
H307 C267 0.950 . S
H308 C273 0.949 . S
H309 C274 0.950 . S
H310 C278 0.951 . S
H311 C279 0.950 . S
H312 C283 0.949 . S
H313 C284 0.950 . S
H314 C288 0.950 . S
H315 C290 0.950 . S
H316 C293 0.950 . S
H317 C295 0.950 . S
C318 C319 1.443 . S
C318 N322 1.376 . S
C318 C356 1.389 . S
C319 C318 1.443 . S
C319 C320 1.340 . S
C319 H359 0.951 . S
C320 C319 1.340 . S
C320 C321 1.439 . S
C320 H360 0.950 . S
C321 C320 1.439 . S
C321 N322 1.374 . S
C321 C355 1.395 . S
N322 C318 1.376 . S
N322 C321 1.374 . S
N322 Co323 2.008 . S
Co323 N322 2.008 . S
Co323 N324 1.995 . S
Co323 N329 2.008 . S
Co323 N334 1.995 . S
Co323 N339 2.282 . S
Co323 N345 2.282 . S
N324 Co323 1.995 . S
N324 C325 1.376 . S
N324 C328 1.383 . S
C325 N324 1.376 . S
C325 C326 1.446 . S
C325 C355 1.391 . S
C326 C325 1.446 . S
C326 C327 1.339 . S
C326 H361 0.949 . S
C327 C326 1.339 . S
C327 C328 1.439 . S
C327 H362 0.950 . S
C328 N324 1.383 . S
C328 C327 1.439 . S
C328 C357 1.392 . S
N329 Co323 2.008 . S
N329 C330 1.376 . S
N329 C333 1.374 . S
C330 N329 1.376 . S
C330 C331 1.443 . S
C330 C357 1.389 . S
C331 C330 1.443 . S
C331 C332 1.340 . S
C331 H363 0.951 . S
C332 C331 1.340 . S
C332 C333 1.439 . S
C332 H364 0.950 . S
C333 N329 1.374 . S
C333 C332 1.439 . S
C333 C358 1.395 . S
N334 Co323 1.995 . S
N334 C335 1.376 . S
N334 C338 1.383 . S
C335 N334 1.376 . S
C335 C336 1.446 . S
C335 C358 1.391 . S
C336 C335 1.446 . S
C336 C337 1.339 . S
C336 H365 0.949 . S
C337 C336 1.339 . S
C337 C338 1.439 . S
C337 H366 0.950 . S
C338 N334 1.383 . S
C338 C337 1.439 . S
C338 C356 1.392 . S
N339 Co323 2.282 . S
N339 C342 1.332 . S
N339 C344 1.332 . S
C340 C341 1.386 . S
C340 C343 1.388 . S
C341 C340 1.386 . S
C341 C342 1.382 . S
C341 H367 0.950 . S
C342 N339 1.332 . S
C342 C341 1.382 . S
C342 H353 0.952 . S
C343 C340 1.388 . S
C343 C344 1.382 . S
C343 H368 0.950 . S
C344 N339 1.332 . S
C344 C343 1.382 . S
C344 H354 0.948 . S
N345 Co323 2.282 . S
N345 C349 1.332 . S
N345 C350 1.332 . S
C346 C347 1.388 . S
C346 C350 1.382 . S
C346 H369 0.950 . S
C347 C346 1.388 . S
C347 C348 1.386 . S
C348 C347 1.386 . S
C348 C349 1.382 . S
C348 H370 0.950 . S
C349 N345 1.332 . S
C349 C348 1.382 . S
C349 H351 0.952 . S
C350 N345 1.332 . S
C350 C346 1.382 . S
C350 H352 0.948 . S
H351 C349 0.952 . S
H352 C350 0.948 . S
H353 C342 0.952 . S
H354 C344 0.948 . S
C355 C321 1.395 . S
C355 C325 1.391 . S
C356 C318 1.389 . S
C356 C338 1.392 . S
C357 C328 1.392 . S
C357 C330 1.389 . S
C358 C333 1.395 . S
C358 C335 1.391 . S
H359 C319 0.951 . S
H360 C320 0.950 . S
H361 C326 0.949 . S
H362 C327 0.950 . S
H363 C331 0.951 . S
H364 C332 0.950 . S
H365 C336 0.949 . S
H366 C337 0.950 . S
H367 C341 0.950 . S
H368 C343 0.950 . S
H369 C346 0.950 . S
H370 C348 0.950 . S
C371 C372 1.443 . S
C371 N375 1.376 . S
C371 C409 1.389 . S
C372 C371 1.443 . S
C372 C373 1.340 . S
C372 H412 0.951 . S
C373 C372 1.340 . S
C373 C374 1.439 . S
C373 H413 0.950 . S
C374 C373 1.439 . S
C374 N375 1.374 . S
C374 C408 1.395 . S
N375 C371 1.376 . S
N375 C374 1.374 . S
N375 Co376 2.008 . S
Co376 N375 2.008 . S
Co376 N377 1.995 . S
Co376 N382 2.008 . S
Co376 N387 1.995 . S
Co376 N392 2.282 . S
Co376 N398 2.282 . S
N377 Co376 1.995 . S
N377 C378 1.376 . S
N377 C381 1.383 . S
C378 N377 1.376 . S
C378 C379 1.446 . S
C378 C408 1.391 . S
C379 C378 1.446 . S
C379 C380 1.339 . S
C379 H414 0.949 . S
C380 C379 1.339 . S
C380 C381 1.439 . S
C380 H415 0.950 . S
C381 N377 1.383 . S
C381 C380 1.439 . S
C381 C410 1.392 . S
N382 Co376 2.008 . S
N382 C383 1.376 . S
N382 C386 1.374 . S
C383 N382 1.376 . S
C383 C384 1.443 . S
C383 C410 1.389 . S
C384 C383 1.443 . S
C384 C385 1.340 . S
C384 H416 0.951 . S
C385 C384 1.340 . S
C385 C386 1.439 . S
C385 H417 0.950 . S
C386 N382 1.374 . S
C386 C385 1.439 . S
C386 C411 1.395 . S
N387 Co376 1.995 . S
N387 C388 1.376 . S
N387 C391 1.383 . S
C388 N387 1.376 . S
C388 C389 1.446 . S
C388 C411 1.391 . S
C389 C388 1.446 . S
C389 C390 1.339 . S
C389 H418 0.949 . S
C390 C389 1.339 . S
C390 C391 1.439 . S
C390 H419 0.950 . S
C391 N387 1.383 . S
C391 C390 1.439 . S
C391 C409 1.392 . S
N392 Co376 2.282 . S
N392 C395 1.332 . S
N392 C397 1.332 . S
C393 C394 1.386 . S
C393 C396 1.388 . S
C394 C393 1.386 . S
C394 C395 1.382 . S
C394 H420 0.950 . S
C395 N392 1.332 . S
C395 C394 1.382 . S
C395 H406 0.952 . S
C396 C393 1.388 . S
C396 C397 1.382 . S
C396 H421 0.950 . S
C397 N392 1.332 . S
C397 C396 1.382 . S
C397 H407 0.948 . S
N398 Co376 2.282 . S
N398 C402 1.332 . S
N398 C403 1.332 . S
C399 C400 1.388 . S
C399 C403 1.382 . S
C399 H422 0.950 . S
C400 C399 1.388 . S
C400 C401 1.386 . S
C401 C400 1.386 . S
C401 C402 1.382 . S
C401 H423 0.950 . S
C402 N398 1.332 . S
C402 C401 1.382 . S
C402 H404 0.952 . S
C403 N398 1.332 . S
C403 C399 1.382 . S
C403 H405 0.948 . S
H404 C402 0.952 . S
H405 C403 0.948 . S
H406 C395 0.952 . S
H407 C397 0.948 . S
C408 C374 1.395 . S
C408 C378 1.391 . S
C409 C371 1.389 . S
C409 C391 1.392 . S
C410 C381 1.392 . S
C410 C383 1.389 . S
C411 C386 1.395 . S
C411 C388 1.391 . S
H412 C372 0.951 . S
H413 C373 0.950 . S
H414 C379 0.949 . S
H415 C380 0.950 . S
H416 C384 0.951 . S
H417 C385 0.950 . S
H418 C389 0.949 . S
H419 C390 0.950 . S
H420 C394 0.950 . S
H421 C396 0.950 . S
H422 C399 0.950 . S
H423 C401 0.950 . S
C424 C425 1.443 . S
C424 N428 1.376 . S
C424 C462 1.389 . S
C425 C424 1.443 . S
C425 C426 1.340 . S
C425 H465 0.951 . S
C426 C425 1.340 . S
C426 C427 1.439 . S
C426 H466 0.950 . S
C427 C426 1.439 . S
C427 N428 1.374 . S
C427 C461 1.395 . S
N428 C424 1.376 . S
N428 C427 1.374 . S
N428 Co429 2.008 . S
Co429 N428 2.008 . S
Co429 N430 1.995 . S
Co429 N435 2.008 . S
Co429 N440 1.995 . S
Co429 N445 2.282 . S
Co429 N451 2.282 . S
N430 Co429 1.995 . S
N430 C431 1.376 . S
N430 C434 1.383 . S
C431 N430 1.376 . S
C431 C432 1.446 . S
C431 C461 1.391 . S
C432 C431 1.446 . S
C432 C433 1.339 . S
C432 H467 0.949 . S
C433 C432 1.339 . S
C433 C434 1.439 . S
C433 H468 0.950 . S
C434 N430 1.383 . S
C434 C433 1.439 . S
C434 C463 1.392 . S
N435 Co429 2.008 . S
N435 C436 1.376 . S
N435 C439 1.374 . S
C436 N435 1.376 . S
C436 C437 1.443 . S
C436 C463 1.389 . S
C437 C436 1.443 . S
C437 C438 1.340 . S
C437 H469 0.951 . S
C438 C437 1.340 . S
C438 C439 1.439 . S
C438 H470 0.950 . S
C439 N435 1.374 . S
C439 C438 1.439 . S
C439 C464 1.395 . S
N440 Co429 1.995 . S
N440 C441 1.376 . S
N440 C444 1.383 . S
C441 N440 1.376 . S
C441 C442 1.446 . S
C441 C464 1.391 . S
C442 C441 1.446 . S
C442 C443 1.339 . S
C442 H471 0.949 . S
C443 C442 1.339 . S
C443 C444 1.439 . S
C443 H472 0.950 . S
C444 N440 1.383 . S
C444 C443 1.439 . S
C444 C462 1.392 . S
N445 Co429 2.282 . S
N445 C448 1.332 . S
N445 C450 1.332 . S
C446 C447 1.386 . S
C446 C449 1.388 . S
C447 C446 1.386 . S
C447 C448 1.382 . S
C447 H473 0.950 . S
C448 N445 1.332 . S
C448 C447 1.382 . S
C448 H459 0.952 . S
C449 C446 1.388 . S
C449 C450 1.382 . S
C449 H474 0.950 . S
C450 N445 1.332 . S
C450 C449 1.382 . S
C450 H460 0.948 . S
N451 Co429 2.282 . S
N451 C455 1.332 . S
N451 C456 1.332 . S
C452 C453 1.388 . S
C452 C456 1.382 . S
C452 H475 0.950 . S
C453 C452 1.388 . S
C453 C454 1.386 . S
C454 C453 1.386 . S
C454 C455 1.382 . S
C454 H476 0.950 . S
C455 N451 1.332 . S
C455 C454 1.382 . S
C455 H457 0.952 . S
C456 N451 1.332 . S
C456 C452 1.382 . S
C456 H458 0.948 . S
H457 C455 0.952 . S
H458 C456 0.948 . S
H459 C448 0.952 . S
H460 C450 0.948 . S
C461 C427 1.395 . S
C461 C431 1.391 . S
C462 C424 1.389 . S
C462 C444 1.392 . S
C463 C434 1.392 . S
C463 C436 1.389 . S
C464 C439 1.395 . S
C464 C441 1.391 . S
H465 C425 0.951 . S
H466 C426 0.950 . S
H467 C432 0.949 . S
H468 C433 0.950 . S
H469 C437 0.951 . S
H470 C438 0.950 . S
H471 C442 0.949 . S
H472 C443 0.950 . S
H473 C447 0.950 . S
H474 C449 0.950 . S
H475 C452 0.950 . S
H476 C454 0.950 . S
C477 C478 1.443 . S
C477 N481 1.376 . S
C477 C515 1.389 . S
C478 C477 1.443 . S
C478 C479 1.340 . S
C478 H518 0.951 . S
C479 C478 1.340 . S
C479 C480 1.439 . S
C479 H519 0.950 . S
C480 C479 1.439 . S
C480 N481 1.374 . S
C480 C514 1.395 . S
N481 C477 1.376 . S
N481 C480 1.374 . S
N481 Co482 2.008 . S
Co482 N481 2.008 . S
Co482 N483 1.995 . S
Co482 N488 2.008 . S
Co482 N493 1.995 . S
Co482 N498 2.282 . S
Co482 N504 2.282 . S
N483 Co482 1.995 . S
N483 C484 1.376 . S
N483 C487 1.383 . S
C484 N483 1.376 . S
C484 C485 1.446 . S
C484 C514 1.391 . S
C485 C484 1.446 . S
C485 C486 1.339 . S
C485 H520 0.949 . S
C486 C485 1.339 . S
C486 C487 1.439 . S
C486 H521 0.950 . S
C487 N483 1.383 . S
C487 C486 1.439 . S
C487 C516 1.392 . S
N488 Co482 2.008 . S
N488 C489 1.376 . S
N488 C492 1.374 . S
C489 N488 1.376 . S
C489 C490 1.443 . S
C489 C516 1.389 . S
C490 C489 1.443 . S
C490 C491 1.340 . S
C490 H522 0.951 . S
C491 C490 1.340 . S
C491 C492 1.439 . S
C491 H523 0.950 . S
C492 N488 1.374 . S
C492 C491 1.439 . S
C492 C517 1.395 . S
N493 Co482 1.995 . S
N493 C494 1.376 . S
N493 C497 1.383 . S
C494 N493 1.376 . S
C494 C495 1.446 . S
C494 C517 1.391 . S
C495 C494 1.446 . S
C495 C496 1.339 . S
C495 H524 0.949 . S
C496 C495 1.339 . S
C496 C497 1.439 . S
C496 H525 0.950 . S
C497 N493 1.383 . S
C497 C496 1.439 . S
C497 C515 1.392 . S
N498 Co482 2.282 . S
N498 C501 1.332 . S
N498 C503 1.332 . S
C499 C500 1.386 . S
C499 C502 1.388 . S
C500 C499 1.386 . S
C500 C501 1.382 . S
C500 H526 0.950 . S
C501 N498 1.332 . S
C501 C500 1.382 . S
C501 H512 0.952 . S
C502 C499 1.388 . S
C502 C503 1.382 . S
C502 H527 0.950 . S
C503 N498 1.332 . S
C503 C502 1.382 . S
C503 H513 0.948 . S
N504 Co482 2.282 . S
N504 C508 1.332 . S
N504 C509 1.332 . S
C505 C506 1.388 . S
C505 C509 1.382 . S
C505 H528 0.950 . S
C506 C505 1.388 . S
C506 C507 1.386 . S
C507 C506 1.386 . S
C507 C508 1.382 . S
C507 H529 0.950 . S
C508 N504 1.332 . S
C508 C507 1.382 . S
C508 H510 0.952 . S
C509 N504 1.332 . S
C509 C505 1.382 . S
C509 H511 0.948 . S
H510 C508 0.952 . S
H511 C509 0.948 . S
H512 C501 0.952 . S
H513 C503 0.948 . S
C514 C480 1.395 . S
C514 C484 1.391 . S
C515 C477 1.389 . S
C515 C497 1.392 . S
C516 C487 1.392 . S
C516 C489 1.389 . S
C517 C492 1.395 . S
C517 C494 1.391 . S
H518 C478 0.951 . S
H519 C479 0.950 . S
H520 C485 0.949 . S
H521 C486 0.950 . S
H522 C490 0.951 . S
H523 C491 0.950 . S
H524 C495 0.949 . S
H525 C496 0.950 . S
H526 C500 0.950 . S
H527 C502 0.950 . S
H528 C505 0.950 . S
H529 C507 0.950 . S
C530 C531 1.443 . S
C530 N534 1.376 . S
C530 C568 1.389 . S
C531 C530 1.443 . S
C531 C532 1.340 . S
C531 H571 0.951 . S
C532 C531 1.340 . S
C532 C533 1.439 . S
C532 H572 0.950 . S
C533 C532 1.439 . S
C533 N534 1.374 . S
C533 C567 1.395 . S
N534 C530 1.376 . S
N534 C533 1.374 . S
N534 Co535 2.008 . S
Co535 N534 2.008 . S
Co535 N536 1.995 . S
Co535 N541 2.008 . S
Co535 N546 1.995 . S
Co535 N551 2.282 . S
Co535 N557 2.282 . S
N536 Co535 1.995 . S
N536 C537 1.376 . S
N536 C540 1.383 . S
C537 N536 1.376 . S
C537 C538 1.446 . S
C537 C567 1.391 . S
C538 C537 1.446 . S
C538 C539 1.339 . S
C538 H573 0.949 . S
C539 C538 1.339 . S
C539 C540 1.439 . S
C539 H574 0.950 . S
C540 N536 1.383 . S
C540 C539 1.439 . S
C540 C569 1.392 . S
N541 Co535 2.008 . S
N541 C542 1.376 . S
N541 C545 1.374 . S
C542 N541 1.376 . S
C542 C543 1.443 . S
C542 C569 1.389 . S
C543 C542 1.443 . S
C543 C544 1.340 . S
C543 H575 0.951 . S
C544 C543 1.340 . S
C544 C545 1.439 . S
C544 H576 0.950 . S
C545 N541 1.374 . S
C545 C544 1.439 . S
C545 C570 1.395 . S
N546 Co535 1.995 . S
N546 C547 1.376 . S
N546 C550 1.383 . S
C547 N546 1.376 . S
C547 C548 1.446 . S
C547 C570 1.391 . S
C548 C547 1.446 . S
C548 C549 1.339 . S
C548 H577 0.949 . S
C549 C548 1.339 . S
C549 C550 1.439 . S
C549 H578 0.950 . S
C550 N546 1.383 . S
C550 C549 1.439 . S
C550 C568 1.392 . S
N551 Co535 2.282 . S
N551 C554 1.332 . S
N551 C556 1.332 . S
C552 C553 1.386 . S
C552 C555 1.388 . S
C553 C552 1.386 . S
C553 C554 1.382 . S
C553 H579 0.950 . S
C554 N551 1.332 . S
C554 C553 1.382 . S
C554 H565 0.952 . S
C555 C552 1.388 . S
C555 C556 1.382 . S
C555 H580 0.950 . S
C556 N551 1.332 . S
C556 C555 1.382 . S
C556 H566 0.948 . S
N557 Co535 2.282 . S
N557 C561 1.332 . S
N557 C562 1.332 . S
C558 C559 1.388 . S
C558 C562 1.382 . S
C558 H581 0.950 . S
C559 C558 1.388 . S
C559 C560 1.386 . S
C560 C559 1.386 . S
C560 C561 1.382 . S
C560 H582 0.950 . S
C561 N557 1.332 . S
C561 C560 1.382 . S
C561 H563 0.952 . S
C562 N557 1.332 . S
C562 C558 1.382 . S
C562 H564 0.948 . S
H563 C561 0.952 . S
H564 C562 0.948 . S
H565 C554 0.952 . S
H566 C556 0.948 . S
C567 C533 1.395 . S
C567 C537 1.391 . S
C568 C530 1.389 . S
C568 C550 1.392 . S
C569 C540 1.392 . S
C569 C542 1.389 . S
C570 C545 1.395 . S
C570 C547 1.391 . S
H571 C531 0.951 . S
H572 C532 0.950 . S
H573 C538 0.949 . S
H574 C539 0.950 . S
H575 C543 0.951 . S
H576 C544 0.950 . S
H577 C548 0.949 . S
H578 C549 0.950 . S
H579 C553 0.950 . S
H580 C555 0.950 . S
H581 C558 0.950 . S
H582 C560 0.950 . S
C583 C584 1.443 . S
C583 N587 1.376 . S
C583 C621 1.389 . S
C584 C583 1.443 . S
C584 C585 1.340 . S
C584 H624 0.951 . S
C585 C584 1.340 . S
C585 C586 1.439 . S
C585 H625 0.950 . S
C586 C585 1.439 . S
C586 N587 1.374 . S
C586 C620 1.395 . S
N587 C583 1.376 . S
N587 C586 1.374 . S
N587 Co588 2.008 . S
Co588 N587 2.008 . S
Co588 N589 1.995 . S
Co588 N594 2.008 . S
Co588 N599 1.995 . S
Co588 N604 2.282 . S
Co588 N610 2.282 . S
N589 Co588 1.995 . S
N589 C590 1.376 . S
N589 C593 1.383 . S
C590 N589 1.376 . S
C590 C591 1.446 . S
C590 C620 1.391 . S
C591 C590 1.446 . S
C591 C592 1.339 . S
C591 H626 0.949 . S
C592 C591 1.339 . S
C592 C593 1.439 . S
C592 H627 0.950 . S
C593 N589 1.383 . S
C593 C592 1.439 . S
C593 C622 1.392 . S
N594 Co588 2.008 . S
N594 C595 1.376 . S
N594 C598 1.374 . S
C595 N594 1.376 . S
C595 C596 1.443 . S
C595 C622 1.389 . S
C596 C595 1.443 . S
C596 C597 1.340 . S
C596 H628 0.951 . S
C597 C596 1.340 . S
C597 C598 1.439 . S
C597 H629 0.950 . S
C598 N594 1.374 . S
C598 C597 1.439 . S
C598 C623 1.395 . S
N599 Co588 1.995 . S
N599 C600 1.376 . S
N599 C603 1.383 . S
C600 N599 1.376 . S
C600 C601 1.446 . S
C600 C623 1.391 . S
C601 C600 1.446 . S
C601 C602 1.339 . S
C601 H630 0.949 . S
C602 C601 1.339 . S
C602 C603 1.439 . S
C602 H631 0.950 . S
C603 N599 1.383 . S
C603 C602 1.439 . S
C603 C621 1.392 . S
N604 Co588 2.282 . S
N604 C607 1.332 . S
N604 C609 1.332 . S
C605 C606 1.386 . S
C605 C608 1.388 . S
C606 C605 1.386 . S
C606 C607 1.382 . S
C606 H632 0.950 . S
C607 N604 1.332 . S
C607 C606 1.382 . S
C607 H618 0.952 . S
C608 C605 1.388 . S
C608 C609 1.382 . S
C608 H633 0.950 . S
C609 N604 1.332 . S
C609 C608 1.382 . S
C609 H619 0.948 . S
N610 Co588 2.282 . S
N610 C614 1.332 . S
N610 C615 1.332 . S
C611 C612 1.388 . S
C611 C615 1.382 . S
C611 H634 0.950 . S
C612 C611 1.388 . S
C612 C613 1.386 . S
C613 C612 1.386 . S
C613 C614 1.382 . S
C613 H635 0.950 . S
C614 N610 1.332 . S
C614 C613 1.382 . S
C614 H616 0.952 . S
C615 N610 1.332 . S
C615 C611 1.382 . S
C615 H617 0.948 . S
H616 C614 0.952 . S
H617 C615 0.948 . S
H618 C607 0.952 . S
H619 C609 0.948 . S
C620 C586 1.395 . S
C620 C590 1.391 . S
C621 C583 1.389 . S
C621 C603 1.392 . S
C622 C593 1.392 . S
C622 C595 1.389 . S
C623 C598 1.395 . S
C623 C600 1.391 . S
H624 C584 0.951 . S
H625 C585 0.950 . S
H626 C591 0.949 . S
H627 C592 0.950 . S
H628 C596 0.951 . S
H629 C597 0.950 . S
H630 C601 0.949 . S
H631 C602 0.950 . S
H632 C606 0.950 . S
H633 C608 0.950 . S
H634 C611 0.950 . S
H635 C613 0.950 . S
C636 C637 1.443 . S
C636 N640 1.376 . S
C636 C674 1.389 . S
C637 C636 1.443 . S
C637 C638 1.340 . S
C637 H677 0.951 . S
C638 C637 1.340 . S
C638 C639 1.439 . S
C638 H678 0.950 . S
C639 C638 1.439 . S
C639 N640 1.374 . S
C639 C673 1.395 . S
N640 C636 1.376 . S
N640 C639 1.374 . S
N640 Co641 2.008 . S
Co641 N640 2.008 . S
Co641 N642 1.995 . S
Co641 N647 2.008 . S
Co641 N652 1.995 . S
Co641 N657 2.282 . S
Co641 N663 2.282 . S
N642 Co641 1.995 . S
N642 C643 1.376 . S
N642 C646 1.383 . S
C643 N642 1.376 . S
C643 C644 1.446 . S
C643 C673 1.391 . S
C644 C643 1.446 . S
C644 C645 1.339 . S
C644 H679 0.949 . S
C645 C644 1.339 . S
C645 C646 1.439 . S
C645 H680 0.950 . S
C646 N642 1.383 . S
C646 C645 1.439 . S
C646 C675 1.392 . S
N647 Co641 2.008 . S
N647 C648 1.376 . S
N647 C651 1.374 . S
C648 N647 1.376 . S
C648 C649 1.443 . S
C648 C675 1.389 . S
C649 C648 1.443 . S
C649 C650 1.340 . S
C649 H681 0.951 . S
C650 C649 1.340 . S
C650 C651 1.439 . S
C650 H682 0.950 . S
C651 N647 1.374 . S
C651 C650 1.439 . S
C651 C676 1.395 . S
N652 Co641 1.995 . S
N652 C653 1.376 . S
N652 C656 1.383 . S
C653 N652 1.376 . S
C653 C654 1.446 . S
C653 C676 1.391 . S
C654 C653 1.446 . S
C654 C655 1.339 . S
C654 H683 0.949 . S
C655 C654 1.339 . S
C655 C656 1.439 . S
C655 H684 0.950 . S
C656 N652 1.383 . S
C656 C655 1.439 . S
C656 C674 1.392 . S
N657 Co641 2.282 . S
N657 C660 1.332 . S
N657 C662 1.332 . S
C658 C659 1.386 . S
C658 C661 1.388 . S
C659 C658 1.386 . S
C659 C660 1.382 . S
C659 H685 0.950 . S
C660 N657 1.332 . S
C660 C659 1.382 . S
C660 H671 0.952 . S
C661 C658 1.388 . S
C661 C662 1.382 . S
C661 H686 0.950 . S
C662 N657 1.332 . S
C662 C661 1.382 . S
C662 H672 0.948 . S
N663 Co641 2.282 . S
N663 C667 1.332 . S
N663 C668 1.332 . S
C664 C665 1.388 . S
C664 C668 1.382 . S
C664 H687 0.950 . S
C665 C664 1.388 . S
C665 C666 1.386 . S
C666 C665 1.386 . S
C666 C667 1.382 . S
C666 H688 0.950 . S
C667 N663 1.332 . S
C667 C666 1.382 . S
C667 H669 0.952 . S
C668 N663 1.332 . S
C668 C664 1.382 . S
C668 H670 0.948 . S
H669 C667 0.952 . S
H670 C668 0.948 . S
H671 C660 0.952 . S
H672 C662 0.948 . S
C673 C639 1.395 . S
C673 C643 1.391 . S
C674 C636 1.389 . S
C674 C656 1.392 . S
C675 C646 1.392 . S
C675 C648 1.389 . S
C676 C651 1.395 . S
C676 C653 1.391 . S
H677 C637 0.951 . S
H678 C638 0.950 . S
H679 C644 0.949 . S
H680 C645 0.950 . S
H681 C649 0.951 . S
H682 C650 0.950 . S
H683 C654 0.949 . S
H684 C655 0.950 . S
H685 C659 0.950 . S
H686 C661 0.950 . S
H687 C664 0.950 . S
H688 C666 0.950 . S
C689 C690 1.443 . S
C689 N693 1.376 . S
C689 C727 1.389 . S
C690 C689 1.443 . S
C690 C691 1.340 . S
C690 H730 0.951 . S
C691 C690 1.340 . S
C691 C692 1.439 . S
C691 H731 0.950 . S
C692 C691 1.439 . S
C692 N693 1.374 . S
C692 C726 1.395 . S
N693 C689 1.376 . S
N693 C692 1.374 . S
N693 Co694 2.008 . S
Co694 N693 2.008 . S
Co694 N695 1.995 . S
Co694 N700 2.008 . S
Co694 N705 1.995 . S
Co694 N710 2.282 . S
Co694 N716 2.282 . S
N695 Co694 1.995 . S
N695 C696 1.376 . S
N695 C699 1.383 . S
C696 N695 1.376 . S
C696 C697 1.446 . S
C696 C726 1.391 . S
C697 C696 1.446 . S
C697 C698 1.339 . S
C697 H732 0.949 . S
C698 C697 1.339 . S
C698 C699 1.439 . S
C698 H733 0.950 . S
C699 N695 1.383 . S
C699 C698 1.439 . S
C699 C728 1.392 . S
N700 Co694 2.008 . S
N700 C701 1.376 . S
N700 C704 1.374 . S
C701 N700 1.376 . S
C701 C702 1.443 . S
C701 C728 1.389 . S
C702 C701 1.443 . S
C702 C703 1.340 . S
C702 H734 0.951 . S
C703 C702 1.340 . S
C703 C704 1.439 . S
C703 H735 0.950 . S
C704 N700 1.374 . S
C704 C703 1.439 . S
C704 C729 1.395 . S
N705 Co694 1.995 . S
N705 C706 1.376 . S
N705 C709 1.383 . S
C706 N705 1.376 . S
C706 C707 1.446 . S
C706 C729 1.391 . S
C707 C706 1.446 . S
C707 C708 1.339 . S
C707 H736 0.949 . S
C708 C707 1.339 . S
C708 C709 1.439 . S
C708 H737 0.950 . S
C709 N705 1.383 . S
C709 C708 1.439 . S
C709 C727 1.392 . S
N710 Co694 2.282 . S
N710 C713 1.332 . S
N710 C715 1.332 . S
C711 C712 1.386 . S
C711 C714 1.388 . S
C712 C711 1.386 . S
C712 C713 1.382 . S
C712 H738 0.950 . S
C713 N710 1.332 . S
C713 C712 1.382 . S
C713 H724 0.952 . S
C714 C711 1.388 . S
C714 C715 1.382 . S
C714 H739 0.950 . S
C715 N710 1.332 . S
C715 C714 1.382 . S
C715 H725 0.948 . S
N716 Co694 2.282 . S
N716 C720 1.332 . S
N716 C721 1.332 . S
C717 C718 1.388 . S
C717 C721 1.382 . S
C717 H740 0.950 . S
C718 C717 1.388 . S
C718 C719 1.386 . S
C719 C718 1.386 . S
C719 C720 1.382 . S
C719 H741 0.950 . S
C720 N716 1.332 . S
C720 C719 1.382 . S
C720 H722 0.952 . S
C721 N716 1.332 . S
C721 C717 1.382 . S
C721 H723 0.948 . S
H722 C720 0.952 . S
H723 C721 0.948 . S
H724 C713 0.952 . S
H725 C715 0.948 . S
C726 C692 1.395 . S
C726 C696 1.391 . S
C727 C689 1.389 . S
C727 C709 1.392 . S
C728 C699 1.392 . S
C728 C701 1.389 . S
C729 C704 1.395 . S
C729 C706 1.391 . S
H730 C690 0.951 . S
H731 C691 0.950 . S
H732 C697 0.949 . S
H733 C698 0.950 . S
H734 C702 0.951 . S
H735 C703 0.950 . S
H736 C707 0.949 . S
H737 C708 0.950 . S
H738 C712 0.950 . S
H739 C714 0.950 . S
H740 C717 0.950 . S
H741 C719 0.950 . S
C742 C743 1.443 . S
C742 N746 1.376 . S
C742 C780 1.389 . S
C743 C742 1.443 . S
C743 C744 1.340 . S
C743 H783 0.951 . S
C744 C743 1.340 . S
C744 C745 1.439 . S
C744 H784 0.950 . S
C745 C744 1.439 . S
C745 N746 1.374 . S
C745 C779 1.395 . S
N746 C742 1.376 . S
N746 C745 1.374 . S
N746 Co747 2.008 . S
Co747 N746 2.008 . S
Co747 N748 1.995 . S
Co747 N753 2.008 . S
Co747 N758 1.995 . S
Co747 N763 2.282 . S
Co747 N769 2.282 . S
N748 Co747 1.995 . S
N748 C749 1.376 . S
N748 C752 1.383 . S
C749 N748 1.376 . S
C749 C750 1.446 . S
C749 C779 1.391 . S
C750 C749 1.446 . S
C750 C751 1.339 . S
C750 H785 0.949 . S
C751 C750 1.339 . S
C751 C752 1.439 . S
C751 H786 0.950 . S
C752 N748 1.383 . S
C752 C751 1.439 . S
C752 C781 1.392 . S
N753 Co747 2.008 . S
N753 C754 1.376 . S
N753 C757 1.374 . S
C754 N753 1.376 . S
C754 C755 1.443 . S
C754 C781 1.389 . S
C755 C754 1.443 . S
C755 C756 1.340 . S
C755 H787 0.951 . S
C756 C755 1.340 . S
C756 C757 1.439 . S
C756 H788 0.950 . S
C757 N753 1.374 . S
C757 C756 1.439 . S
C757 C782 1.395 . S
N758 Co747 1.995 . S
N758 C759 1.376 . S
N758 C762 1.383 . S
C759 N758 1.376 . S
C759 C760 1.446 . S
C759 C782 1.391 . S
C760 C759 1.446 . S
C760 C761 1.339 . S
C760 H789 0.949 . S
C761 C760 1.339 . S
C761 C762 1.439 . S
C761 H790 0.950 . S
C762 N758 1.383 . S
C762 C761 1.439 . S
C762 C780 1.392 . S
N763 Co747 2.282 . S
N763 C766 1.332 . S
N763 C768 1.332 . S
C764 C765 1.386 . S
C764 C767 1.388 . S
C765 C764 1.386 . S
C765 C766 1.382 . S
C765 H791 0.950 . S
C766 N763 1.332 . S
C766 C765 1.382 . S
C766 H777 0.952 . S
C767 C764 1.388 . S
C767 C768 1.382 . S
C767 H792 0.950 . S
C768 N763 1.332 . S
C768 C767 1.382 . S
C768 H778 0.948 . S
N769 Co747 2.282 . S
N769 C773 1.332 . S
N769 C774 1.332 . S
C770 C771 1.388 . S
C770 C774 1.382 . S
C770 H793 0.950 . S
C771 C770 1.388 . S
C771 C772 1.386 . S
C772 C771 1.386 . S
C772 C773 1.382 . S
C772 H794 0.950 . S
C773 N769 1.332 . S
C773 C772 1.382 . S
C773 H775 0.952 . S
C774 N769 1.332 . S
C774 C770 1.382 . S
C774 H776 0.948 . S
H775 C773 0.952 . S
H776 C774 0.948 . S
H777 C766 0.952 . S
H778 C768 0.948 . S
C779 C745 1.395 . S
C779 C749 1.391 . S
C780 C742 1.389 . S
C780 C762 1.392 . S
C781 C752 1.392 . S
C781 C754 1.389 . S
C782 C757 1.395 . S
C782 C759 1.391 . S
H783 C743 0.951 . S
H784 C744 0.950 . S
H785 C750 0.949 . S
H786 C751 0.950 . S
H787 C755 0.951 . S
H788 C756 0.950 . S
H789 C760 0.949 . S
H790 C761 0.950 . S
H791 C765 0.950 . S
H792 C767 0.950 . S
H793 C770 0.950 . S
H794 C772 0.950 . S
C795 C796 1.443 . S
C795 N799 1.376 . S
C795 C833 1.389 . S
C796 C795 1.443 . S
C796 C797 1.340 . S
C796 H836 0.951 . S
C797 C796 1.340 . S
C797 C798 1.439 . S
C797 H837 0.950 . S
C798 C797 1.439 . S
C798 N799 1.374 . S
C798 C832 1.395 . S
N799 C795 1.376 . S
N799 C798 1.374 . S
N799 Co800 2.008 . S
Co800 N799 2.008 . S
Co800 N801 1.995 . S
Co800 N806 2.008 . S
Co800 N811 1.995 . S
Co800 N816 2.282 . S
Co800 N822 2.282 . S
N801 Co800 1.995 . S
N801 C802 1.376 . S
N801 C805 1.383 . S
C802 N801 1.376 . S
C802 C803 1.446 . S
C802 C832 1.391 . S
C803 C802 1.446 . S
C803 C804 1.339 . S
C803 H838 0.949 . S
C804 C803 1.339 . S
C804 C805 1.439 . S
C804 H839 0.950 . S
C805 N801 1.383 . S
C805 C804 1.439 . S
C805 C834 1.392 . S
N806 Co800 2.008 . S
N806 C807 1.376 . S
N806 C810 1.374 . S
C807 N806 1.376 . S
C807 C808 1.443 . S
C807 C834 1.389 . S
C808 C807 1.443 . S
C808 C809 1.340 . S
C808 H840 0.951 . S
C809 C808 1.340 . S
C809 C810 1.439 . S
C809 H841 0.950 . S
C810 N806 1.374 . S
C810 C809 1.439 . S
C810 C835 1.395 . S
N811 Co800 1.995 . S
N811 C812 1.376 . S
N811 C815 1.383 . S
C812 N811 1.376 . S
C812 C813 1.446 . S
C812 C835 1.391 . S
C813 C812 1.446 . S
C813 C814 1.339 . S
C813 H842 0.949 . S
C814 C813 1.339 . S
C814 C815 1.439 . S
C814 H843 0.950 . S
C815 N811 1.383 . S
C815 C814 1.439 . S
C815 C833 1.392 . S
N816 Co800 2.282 . S
N816 C819 1.332 . S
N816 C821 1.332 . S
C817 C818 1.386 . S
C817 C820 1.388 . S
C818 C817 1.386 . S
C818 C819 1.382 . S
C818 H844 0.950 . S
C819 N816 1.332 . S
C819 C818 1.382 . S
C819 H830 0.952 . S
C820 C817 1.388 . S
C820 C821 1.382 . S
C820 H845 0.950 . S
C821 N816 1.332 . S
C821 C820 1.382 . S
C821 H831 0.948 . S
N822 Co800 2.282 . S
N822 C826 1.332 . S
N822 C827 1.332 . S
C823 C824 1.388 . S
C823 C827 1.382 . S
C823 H846 0.950 . S
C824 C823 1.388 . S
C824 C825 1.386 . S
C825 C824 1.386 . S
C825 C826 1.382 . S
C825 H847 0.950 . S
C826 N822 1.332 . S
C826 C825 1.382 . S
C826 H828 0.952 . S
C827 N822 1.332 . S
C827 C823 1.382 . S
C827 H829 0.948 . S
H828 C826 0.952 . S
H829 C827 0.948 . S
H830 C819 0.952 . S
H831 C821 0.948 . S
C832 C798 1.395 . S
C832 C802 1.391 . S
C833 C795 1.389 . S
C833 C815 1.392 . S
C834 C805 1.392 . S
C834 C807 1.389 . S
C835 C810 1.395 . S
C835 C812 1.391 . S
H836 C796 0.951 . S
H837 C797 0.950 . S
H838 C803 0.949 . S
H839 C804 0.950 . S
H840 C808 0.951 . S
H841 C809 0.950 . S
H842 C813 0.949 . S
H843 C814 0.950 . S
H844 C818 0.950 . S
H845 C820 0.950 . S
H846 C823 0.950 . S
H847 C825 0.950 . S
C848 C849 1.443 . S
C848 N852 1.376 . S
C848 C886 1.389 . S
C849 C848 1.443 . S
C849 C850 1.340 . S
C849 H889 0.951 . S
C850 C849 1.340 . S
C850 C851 1.439 . S
C850 H890 0.950 . S
C851 C850 1.439 . S
C851 N852 1.374 . S
C851 C885 1.395 . S
N852 C848 1.376 . S
N852 C851 1.374 . S
N852 Co853 2.008 . S
Co853 N852 2.008 . S
Co853 N854 1.995 . S
Co853 N859 2.008 . S
Co853 N864 1.995 . S
Co853 N869 2.282 . S
Co853 N875 2.282 . S
N854 Co853 1.995 . S
N854 C855 1.376 . S
N854 C858 1.383 . S
C855 N854 1.376 . S
C855 C856 1.446 . S
C855 C885 1.391 . S
C856 C855 1.446 . S
C856 C857 1.339 . S
C856 H891 0.949 . S
C857 C856 1.339 . S
C857 C858 1.439 . S
C857 H892 0.950 . S
C858 N854 1.383 . S
C858 C857 1.439 . S
C858 C887 1.392 . S
N859 Co853 2.008 . S
N859 C860 1.376 . S
N859 C863 1.374 . S
C860 N859 1.376 . S
C860 C861 1.443 . S
C860 C887 1.389 . S
C861 C860 1.443 . S
C861 C862 1.340 . S
C861 H893 0.951 . S
C862 C861 1.340 . S
C862 C863 1.439 . S
C862 H894 0.950 . S
C863 N859 1.374 . S
C863 C862 1.439 . S
C863 C888 1.395 . S
N864 Co853 1.995 . S
N864 C865 1.376 . S
N864 C868 1.383 . S
C865 N864 1.376 . S
C865 C866 1.446 . S
C865 C888 1.391 . S
C866 C865 1.446 . S
C866 C867 1.339 . S
C866 H895 0.949 . S
C867 C866 1.339 . S
C867 C868 1.439 . S
C867 H896 0.950 . S
C868 N864 1.383 . S
C868 C867 1.439 . S
C868 C886 1.392 . S
N869 Co853 2.282 . S
N869 C872 1.332 . S
N869 C874 1.332 . S
C870 C871 1.386 . S
C870 C873 1.388 . S
C871 C870 1.386 . S
C871 C872 1.382 . S
C871 H897 0.950 . S
C872 N869 1.332 . S
C872 C871 1.382 . S
C872 H883 0.952 . S
C873 C870 1.388 . S
C873 C874 1.382 . S
C873 H898 0.950 . S
C874 N869 1.332 . S
C874 C873 1.382 . S
C874 H884 0.948 . S
N875 Co853 2.282 . S
N875 C879 1.332 . S
N875 C880 1.332 . S
C876 C877 1.388 . S
C876 C880 1.382 . S
C876 H899 0.950 . S
C877 C876 1.388 . S
C877 C878 1.386 . S
C878 C877 1.386 . S
C878 C879 1.382 . S
C878 H900 0.950 . S
C879 N875 1.332 . S
C879 C878 1.382 . S
C879 H881 0.952 . S
C880 N875 1.332 . S
C880 C876 1.382 . S
C880 H882 0.948 . S
H881 C879 0.952 . S
H882 C880 0.948 . S
H883 C872 0.952 . S
H884 C874 0.948 . S
C885 C851 1.395 . S
C885 C855 1.391 . S
C886 C848 1.389 . S
C886 C868 1.392 . S
C887 C858 1.392 . S
C887 C860 1.389 . S
C888 C863 1.395 . S
C888 C865 1.391 . S
H889 C849 0.951 . S
H890 C850 0.950 . S
H891 C856 0.949 . S
H892 C857 0.950 . S
H893 C861 0.951 . S
H894 C862 0.950 . S
H895 C866 0.949 . S
H896 C867 0.950 . S
H897 C871 0.950 . S
H898 C873 0.950 . S
H899 C876 0.950 . S
H900 C878 0.950 . S
C901 C902 1.443 . S
C901 N905 1.376 . S
C901 C939 1.389 . S
C902 C901 1.443 . S
C902 C903 1.340 . S
C902 H942 0.951 . S
C903 C902 1.340 . S
C903 C904 1.439 . S
C903 H943 0.950 . S
C904 C903 1.439 . S
C904 N905 1.374 . S
C904 C938 1.395 . S
N905 C901 1.376 . S
N905 C904 1.374 . S
N905 Co906 2.008 . S
Co906 N905 2.008 . S
Co906 N907 1.995 . S
Co906 N912 2.008 . S
Co906 N917 1.995 . S
Co906 N922 2.282 . S
Co906 N928 2.282 . S
N907 Co906 1.995 . S
N907 C908 1.376 . S
N907 C911 1.383 . S
C908 N907 1.376 . S
C908 C909 1.446 . S
C908 C938 1.391 . S
C909 C908 1.446 . S
C909 C910 1.339 . S
C909 H944 0.949 . S
C910 C909 1.339 . S
C910 C911 1.439 . S
C910 H945 0.950 . S
C911 N907 1.383 . S
C911 C910 1.439 . S
C911 C940 1.392 . S
N912 Co906 2.008 . S
N912 C913 1.376 . S
N912 C916 1.374 . S
C913 N912 1.376 . S
C913 C914 1.443 . S
C913 C940 1.389 . S
C914 C913 1.443 . S
C914 C915 1.340 . S
C914 H946 0.951 . S
C915 C914 1.340 . S
C915 C916 1.439 . S
C915 H947 0.950 . S
C916 N912 1.374 . S
C916 C915 1.439 . S
C916 C941 1.395 . S
N917 Co906 1.995 . S
N917 C918 1.376 . S
N917 C921 1.383 . S
C918 N917 1.376 . S
C918 C919 1.446 . S
C918 C941 1.391 . S
C919 C918 1.446 . S
C919 C920 1.339 . S
C919 H948 0.949 . S
C920 C919 1.339 . S
C920 C921 1.439 . S
C920 H949 0.950 . S
C921 N917 1.383 . S
C921 C920 1.439 . S
C921 C939 1.392 . S
N922 Co906 2.282 . S
N922 C925 1.332 . S
N922 C927 1.332 . S
C923 C924 1.386 . S
C923 C926 1.388 . S
C924 C923 1.386 . S
C924 C925 1.382 . S
C924 H950 0.950 . S
C925 N922 1.332 . S
C925 C924 1.382 . S
C925 H936 0.952 . S
C926 C923 1.388 . S
C926 C927 1.382 . S
C926 H951 0.950 . S
C927 N922 1.332 . S
C927 C926 1.382 . S
C927 H937 0.948 . S
N928 Co906 2.282 . S
N928 C932 1.332 . S
N928 C933 1.332 . S
C929 C930 1.388 . S
C929 C933 1.382 . S
C929 H952 0.950 . S
C930 C929 1.388 . S
C930 C931 1.386 . S
C931 C930 1.386 . S
C931 C932 1.382 . S
C931 H953 0.950 . S
C932 N928 1.332 . S
C932 C931 1.382 . S
C932 H934 0.952 . S
C933 N928 1.332 . S
C933 C929 1.382 . S
C933 H935 0.948 . S
H934 C932 0.952 . S
H935 C933 0.948 . S
H936 C925 0.952 . S
H937 C927 0.948 . S
C938 C904 1.395 . S
C938 C908 1.391 . S
C939 C901 1.389 . S
C939 C921 1.392 . S
C940 C911 1.392 . S
C940 C913 1.389 . S
C941 C916 1.395 . S
C941 C918 1.391 . S
H942 C902 0.951 . S
H943 C903 0.950 . S
H944 C909 0.949 . S
H945 C910 0.950 . S
H946 C914 0.951 . S
H947 C915 0.950 . S
H948 C919 0.949 . S
H949 C920 0.950 . S
H950 C924 0.950 . S
H951 C926 0.950 . S
H952 C929 0.950 . S
H953 C931 0.950 . S
H954 C962 0.950 . S
H955 C967 0.950 . S
H956 C964 0.950 . S
H957 C966 0.950 . S
H958 C968 0.950 . S
H959 C970 0.950 . S
H960 C972 0.950 . S
H961 C973 0.950 . S
C962 H954 0.950 . S
C962 C963 1.372 1_655 S
C962 C964 1.391 . S
C963 C962 1.372 1_455 S
C963 C967 1.406 . S
C964 H956 0.950 . S
C964 C962 1.391 . S
C964 C965 1.393 1_655 S
C965 C964 1.393 1_455 S
C965 C966 1.406 . S
C965 C971 1.491 1_455 S
C966 H957 0.950 . S
C966 C965 1.406 . S
C966 C967 1.391 . S
C967 H955 0.950 . S
C967 C963 1.406 . S
C967 C966 1.391 . S
C968 H958 0.950 . S
C968 C969 1.380 1_455 S
C968 C970 1.391 . S
C969 C968 1.380 1_655 S
C969 C973 1.399 . S
C970 H959 0.950 . S
C970 C968 1.391 . S
C970 C971 1.400 1_455 S
C971 C965 1.491 1_655 S
C971 C970 1.400 1_655 S
C971 C972 1.399 . S
C972 H960 0.950 . S
C972 C971 1.399 . S
C972 C973 1.391 . S
C973 H961 0.950 . S
C973 C969 1.399 . S
C973 C972 1.391 . S
H974 C982 0.950 . S
H975 C987 0.950 . S
H976 C984 0.950 . S
H977 C986 0.950 . S
H978 C988 0.950 . S
H979 C990 0.950 . S
H980 C992 0.950 . S
H981 C993 0.950 . S
C982 H974 0.950 . S
C982 C983 1.386 . S
C982 C984 1.391 . S
C983 C982 1.386 . S
C983 C987 1.393 . S
C984 H976 0.950 . S
C984 C982 1.391 . S
C984 C985 1.400 . S
C985 C984 1.400 . S
C985 C986 1.398 . S
C985 C991 1.491 . S
C986 H977 0.950 . S
C986 C985 1.398 . S
C986 C987 1.391 . S
C987 H975 0.950 . S
C987 C983 1.393 . S
C987 C986 1.391 . S
C988 H978 0.950 . S
C988 C989 1.386 . S
C988 C990 1.391 . S
C989 C988 1.386 . S
C989 C993 1.393 . S
C990 H979 0.950 . S
C990 C988 1.391 . S
C990 C991 1.400 . S
C991 C985 1.491 . S
C991 C990 1.400 . S
C991 C992 1.398 . S
C992 H980 0.950 . S
C992 C991 1.398 . S
C992 C993 1.391 . S
C993 H981 0.950 . S
C993 C989 1.393 . S
C993 C992 1.391 . S
H994 C1002 0.950 . S
H995 C1007 0.950 . S
H996 C1004 0.950 . S
H997 C1006 0.950 . S
H998 C1008 0.950 . S
H999 C1010 0.950 . S
H1000 C1012 0.950 . S
H1001 C1013 0.950 . S
C1002 H994 0.950 . S
C1002 C1003 1.386 . S
C1002 C1004 1.391 . S
C1003 C1002 1.386 . S
C1003 C1007 1.393 1_545 S
C1004 H996 0.950 . S
C1004 C1002 1.391 . S
C1004 C1005 1.400 . S
C1005 C1004 1.400 . S
C1005 C1006 1.398 1_545 S
C1005 C1011 1.491 . S
C1006 H997 0.950 . S
C1006 C1005 1.398 1_565 S
C1006 C1007 1.391 . S
C1007 H995 0.950 . S
C1007 C1003 1.393 1_565 S
C1007 C1006 1.391 . S
C1008 H998 0.950 . S
C1008 C1009 1.386 1_565 S
C1008 C1010 1.391 . S
C1009 C1008 1.386 1_545 S
C1009 C1013 1.393 . S
C1010 H999 0.950 . S
C1010 C1008 1.391 . S
C1010 C1011 1.400 1_565 S
C1011 C1005 1.491 . S
C1011 C1010 1.400 1_545 S
C1011 C1012 1.398 . S
C1012 H1000 0.950 . S
C1012 C1011 1.398 . S
C1012 C1013 1.391 . S
C1013 H1001 0.950 . S
C1013 C1009 1.393 . S
C1013 C1012 1.391 . S
H1014 C1022 0.950 . S
H1015 C1027 0.950 . S
H1016 C1024 0.950 . S
H1017 C1026 0.950 . S
H1018 C1028 0.950 . S
H1019 C1030 0.950 . S
H1020 C1032 0.950 . S
H1021 C1033 0.950 . S
C1022 H1014 0.950 . S
C1022 C1023 1.375 1_655 S
C1022 C1024 1.391 . S
C1023 C1022 1.375 1_455 S
C1023 C1027 1.404 . S
C1024 H1016 0.950 . S
C1024 C1022 1.391 . S
C1024 C1025 1.394 1_655 S
C1025 C1024 1.394 1_455 S
C1025 C1026 1.404 . S
C1025 C1031 1.491 . S
C1026 H1017 0.950 . S
C1026 C1025 1.404 . S
C1026 C1027 1.391 . S
C1027 H1015 0.950 . S
C1027 C1023 1.404 . S
C1027 C1026 1.391 . S
C1028 H1018 0.950 . S
C1028 C1029 1.385 . S
C1028 C1030 1.391 . S
C1029 C1028 1.385 . S
C1029 C1033 1.394 1_455 S
C1030 H1019 0.950 . S
C1030 C1028 1.391 . S
C1030 C1031 1.404 . S
C1031 C1025 1.491 . S
C1031 C1030 1.404 . S
C1031 C1032 1.394 1_455 S
C1032 H1020 0.950 . S
C1032 C1031 1.394 1_655 S
C1032 C1033 1.391 . S
C1033 H1021 0.950 . S
C1033 C1029 1.394 1_655 S
C1033 C1032 1.391 . S
H1034 C1042 0.950 . S
H1035 C1047 0.950 . S
H1036 C1044 0.950 . S
H1037 C1046 0.950 . S
H1038 C1048 0.950 . S
H1039 C1050 0.950 . S
H1040 C1052 0.950 . S
H1041 C1053 0.950 . S
C1042 H1034 0.950 . S
C1042 C1043 1.386 . S
C1042 C1044 1.391 . S
C1043 C1042 1.386 . S
C1043 C1047 1.393 . S
C1044 H1036 0.950 . S
C1044 C1042 1.391 . S
C1044 C1045 1.400 . S
C1045 C1044 1.400 . S
C1045 C1046 1.398 . S
C1045 C1051 1.491 . S
C1046 H1037 0.950 . S
C1046 C1045 1.398 . S
C1046 C1047 1.391 . S
C1047 H1035 0.950 . S
C1047 C1043 1.393 . S
C1047 C1046 1.391 . S
C1048 H1038 0.950 . S
C1048 C1049 1.386 . S
C1048 C1050 1.391 . S
C1049 C1048 1.386 . S
C1049 C1053 1.393 . S
C1050 H1039 0.950 . S
C1050 C1048 1.391 . S
C1050 C1051 1.400 . S
C1051 C1045 1.491 . S
C1051 C1050 1.400 . S
C1051 C1052 1.398 . S
C1052 H1040 0.950 . S
C1052 C1051 1.398 . S
C1052 C1053 1.391 . S
C1053 H1041 0.950 . S
C1053 C1049 1.393 . S
C1053 C1052 1.391 . S
H1054 C1062 0.950 . S
H1055 C1067 0.950 . S
H1056 C1064 0.950 . S
H1057 C1066 0.950 . S
H1058 C1068 0.950 . S
H1059 C1070 0.950 . S
H1060 C1072 0.947 . S
H1061 C1073 0.950 . S
C1062 H1054 0.950 . S
C1062 C1063 1.386 . S
C1062 C1064 1.391 . S
C1063 C1062 1.386 . S
C1063 C1067 1.393 . S
C1064 H1056 0.950 . S
C1064 C1062 1.391 . S
C1064 C1065 1.400 . S
C1065 C1064 1.400 . S
C1065 C1066 1.398 . S
C1065 C1071 1.491 . S
C1066 H1057 0.950 . S
C1066 C1065 1.398 . S
C1066 C1067 1.391 . S
C1067 H1055 0.950 . S
C1067 C1063 1.393 . S
C1067 C1066 1.391 . S
C1068 H1058 0.950 . S
C1068 C1069 1.386 . S
C1068 C1070 1.391 . S
C1069 C1068 1.386 . S
C1069 C1073 1.393 . S
C1070 H1059 0.950 . S
C1070 C1068 1.391 . S
C1070 C1071 1.400 . S
C1071 C1065 1.491 . S
C1071 C1070 1.400 . S
C1071 C1072 1.398 . S
C1072 H1060 0.947 . S
C1072 C1071 1.398 . S
C1072 C1073 1.391 . S
C1073 H1061 0.950 . S
C1073 C1069 1.393 . S
C1073 C1072 1.391 . S
H1074 C1082 0.950 . S
H1075 C1087 0.950 . S
H1076 C1084 0.950 . S
H1077 C1086 0.950 . S
H1078 C1088 0.950 . S
H1079 C1090 0.950 . S
H1080 C1092 0.950 . S
H1081 C1093 0.950 . S
C1082 H1074 0.950 . S
C1082 C1083 1.386 . S
C1082 C1084 1.391 . S
C1083 C1082 1.386 . S
C1083 C1087 1.393 . S
C1084 H1076 0.950 . S
C1084 C1082 1.391 . S
C1084 C1085 1.400 . S
C1085 C1084 1.400 . S
C1085 C1086 1.398 . S
C1085 C1091 1.491 . S
C1086 H1077 0.950 . S
C1086 C1085 1.398 . S
C1086 C1087 1.391 . S
C1087 H1075 0.950 . S
C1087 C1083 1.393 . S
C1087 C1086 1.391 . S
C1088 H1078 0.950 . S
C1088 C1089 1.386 . S
C1088 C1090 1.391 . S
C1089 C1088 1.386 . S
C1089 C1093 1.393 . S
C1090 H1079 0.950 . S
C1090 C1088 1.391 . S
C1090 C1091 1.400 . S
C1091 C1085 1.491 . S
C1091 C1090 1.400 . S
C1091 C1092 1.398 . S
C1092 H1080 0.950 . S
C1092 C1091 1.398 . S
C1092 C1093 1.391 . S
C1093 H1081 0.950 . S
C1093 C1089 1.393 . S
C1093 C1092 1.391 . S
H1094 C1102 0.950 . S
H1095 C1107 0.950 . S
H1096 C1104 0.950 . S
H1097 C1106 0.950 . S
H1098 C1108 0.950 . S
H1099 C1110 0.950 . S
H1100 C1112 0.950 . S
H1101 C1113 0.950 . S
C1102 H1094 0.950 . S
C1102 C1103 1.386 . S
C1102 C1104 1.391 . S
C1103 C1102 1.386 . S
C1103 C1107 1.393 . S
C1104 H1096 0.950 . S
C1104 C1102 1.391 . S
C1104 C1105 1.400 . S
C1105 C1104 1.400 . S
C1105 C1106 1.398 . S
C1105 C1111 1.491 . S
C1106 H1097 0.950 . S
C1106 C1105 1.398 . S
C1106 C1107 1.391 . S
C1107 H1095 0.950 . S
C1107 C1103 1.393 . S
C1107 C1106 1.391 . S
C1108 H1098 0.950 . S
C1108 C1109 1.386 . S
C1108 C1110 1.391 . S
C1109 C1108 1.386 . S
C1109 C1113 1.393 . S
C1110 H1099 0.950 . S
C1110 C1108 1.391 . S
C1110 C1111 1.400 . S
C1111 C1105 1.491 . S
C1111 C1110 1.400 . S
C1111 C1112 1.398 . S
C1112 H1100 0.950 . S
C1112 C1111 1.398 . S
C1112 C1113 1.391 . S
C1113 H1101 0.950 . S
C1113 C1109 1.393 . S
C1113 C1112 1.391 . S
H1114 C1122 0.950 . S
H1115 C1127 0.950 . S
H1116 C1124 0.950 . S
H1117 C1126 0.950 . S
H1118 C1128 0.950 . S
H1119 C1130 0.950 . S
H1120 C1132 0.950 . S
H1121 C1133 0.950 . S
C1122 H1114 0.950 . S
C1122 C1123 1.386 . S
C1122 C1124 1.391 . S
C1123 C1122 1.386 . S
C1123 C1127 1.393 . S
C1124 H1116 0.950 . S
C1124 C1122 1.391 . S
C1124 C1125 1.400 . S
C1125 C1124 1.400 . S
C1125 C1126 1.398 . S
C1125 C1131 1.491 . S
C1126 H1117 0.950 . S
C1126 C1125 1.398 . S
C1126 C1127 1.391 . S
C1127 H1115 0.950 . S
C1127 C1123 1.393 . S
C1127 C1126 1.391 . S
C1128 H1118 0.950 . S
C1128 C1129 1.386 . S
C1128 C1130 1.391 . S
C1129 C1128 1.386 . S
C1129 C1133 1.393 . S
C1130 H1119 0.950 . S
C1130 C1128 1.391 . S
C1130 C1131 1.400 . S
C1131 C1125 1.491 . S
C1131 C1130 1.400 . S
C1131 C1132 1.398 . S
C1132 H1120 0.950 . S
C1132 C1131 1.398 . S
C1132 C1133 1.391 . S
C1133 H1121 0.950 . S
C1133 C1129 1.393 . S
C1133 C1132 1.391 . S
H1134 C1142 0.950 . S
H1135 C1147 0.950 . S
H1136 C1144 0.950 . S
H1137 C1146 0.950 . S
H1138 C1148 0.950 1_556 S
H1139 C1150 0.950 . S
H1140 C1152 0.950 . S
H1141 C1153 0.950 1_556 S
C1142 H1134 0.950 . S
C1142 C1143 1.386 . S
C1142 C1144 1.391 . S
C1143 C1142 1.386 . S
C1143 C1147 1.393 . S
C1144 H1136 0.950 . S
C1144 C1142 1.391 . S
C1144 C1145 1.400 . S
C1145 C1144 1.400 . S
C1145 C1146 1.398 . S
C1145 C1151 1.491 . S
C1146 H1137 0.950 . S
C1146 C1145 1.398 . S
C1146 C1147 1.391 . S
C1147 H1135 0.950 . S
C1147 C1143 1.393 . S
C1147 C1146 1.391 . S
C1148 H1138 0.950 1_554 S
C1148 C1149 1.386 1_554 S
C1148 C1150 1.391 . S
C1149 C1148 1.386 1_556 S
C1149 C1153 1.393 1_556 S
C1150 H1139 0.950 . S
C1150 C1148 1.391 . S
C1150 C1151 1.400 . S
C1151 C1145 1.491 . S
C1151 C1150 1.400 . S
C1151 C1152 1.398 . S
C1152 H1140 0.950 . S
C1152 C1151 1.398 . S
C1152 C1153 1.391 . S
C1153 H1141 0.950 1_554 S
C1153 C1149 1.393 1_554 S
C1153 C1152 1.391 . S
H1154 C1162 0.935 1_556 S
H1155 C1167 0.951 1_556 S
H1156 C1164 0.950 . S
H1157 C1166 0.950 . S
H1158 C1168 0.950 . S
H1159 C1170 0.950 . S
H1160 C1172 0.950 . S
H1161 C1173 0.950 . S
C1162 H1154 0.935 1_554 S
C1162 C1163 1.386 1_554 S
C1162 C1164 1.391 . S
C1163 C1162 1.386 1_556 S
C1163 C1167 1.393 1_556 S
C1164 H1156 0.950 . S
C1164 C1162 1.391 . S
C1164 C1165 1.400 . S
C1165 C1164 1.400 . S
C1165 C1166 1.398 . S
C1165 C1171 1.491 . S
C1166 H1157 0.950 . S
C1166 C1165 1.398 . S
C1166 C1167 1.391 . S
C1167 H1155 0.951 1_554 S
C1167 C1163 1.393 1_554 S
C1167 C1166 1.391 . S
C1168 H1158 0.950 . S
C1168 C1169 1.386 . S
C1168 C1170 1.391 . S
C1169 C1168 1.386 . S
C1169 C1173 1.393 . S
C1170 H1159 0.950 . S
C1170 C1168 1.391 . S
C1170 C1171 1.400 . S
C1171 C1165 1.491 . S
C1171 C1170 1.400 . S
C1171 C1172 1.398 . S
C1172 H1160 0.950 . S
C1172 C1171 1.398 . S
C1172 C1173 1.391 . S
C1173 H1161 0.950 . S
C1173 C1169 1.393 . S
C1173 C1172 1.391 . S
H1174 C1182 0.939 1_556 S
H1175 C1187 0.950 1_556 S
H1176 C1184 0.950 . S
H1177 C1186 0.950 . S
H1178 C1188 0.950 . S
H1179 C1190 0.950 . S
H1180 C1192 0.950 . S
H1181 C1193 0.950 . S
C1182 H1174 0.939 1_554 S
C1182 C1183 1.386 1_554 S
C1182 C1184 1.391 . S
C1183 C1182 1.386 1_556 S
C1183 C1187 1.393 1_556 S
C1184 H1176 0.950 . S
C1184 C1182 1.391 . S
C1184 C1185 1.400 . S
C1185 C1184 1.400 . S
C1185 C1186 1.398 . S
C1185 C1191 1.491 . S
C1186 H1177 0.950 . S
C1186 C1185 1.398 . S
C1186 C1187 1.391 . S
C1187 H1175 0.950 1_554 S
C1187 C1183 1.393 1_554 S
C1187 C1186 1.391 . S
C1188 H1178 0.950 . S
C1188 C1189 1.386 . S
C1188 C1190 1.391 . S
C1189 C1188 1.386 . S
C1189 C1193 1.393 . S
C1190 H1179 0.950 . S
C1190 C1188 1.391 . S
C1190 C1191 1.400 . S
C1191 C1185 1.491 . S
C1191 C1190 1.400 . S
C1191 C1192 1.398 . S
C1192 H1180 0.950 . S
C1192 C1191 1.398 . S
C1192 C1193 1.391 . S
C1193 H1181 0.950 . S
C1193 C1189 1.393 . S
C1193 C1192 1.391 . S
H1194 C1202 0.950 . S
H1195 C1207 0.950 . S
H1196 C1204 0.950 . S
H1197 C1206 0.950 . S
H1198 C1208 0.950 . S
H1199 C1210 0.950 . S
H1200 C1212 0.950 . S
H1201 C1213 0.950 . S
C1202 H1194 0.950 . S
C1202 C1203 1.386 . S
C1202 C1204 1.391 1_554 S
C1203 C1202 1.386 . S
C1203 C1207 1.393 . S
C1204 H1196 0.950 . S
C1204 C1202 1.391 1_556 S
C1204 C1205 1.400 . S
C1205 C1204 1.400 . S
C1205 C1206 1.398 . S
C1205 C1211 1.491 . S
C1206 H1197 0.950 . S
C1206 C1205 1.398 . S
C1206 C1207 1.391 1_556 S
C1207 H1195 0.950 . S
C1207 C1203 1.393 . S
C1207 C1206 1.391 1_554 S
C1208 H1198 0.950 . S
C1208 C1209 1.386 . S
C1208 C1210 1.391 . S
C1209 C1208 1.386 . S
C1209 C1213 1.393 . S
C1210 H1199 0.950 . S
C1210 C1208 1.391 . S
C1210 C1211 1.400 . S
C1211 C1205 1.491 . S
C1211 C1210 1.400 . S
C1211 C1212 1.398 . S
C1212 H1200 0.950 . S
C1212 C1211 1.398 . S
C1212 C1213 1.391 . S
C1213 H1201 0.950 . S
C1213 C1209 1.393 . S
C1213 C1212 1.391 . S
H1214 C1222 0.950 . S
H1215 C1227 0.950 . S
H1216 C1224 0.950 . S
H1217 C1226 0.950 . S
H1218 C1228 0.950 . S
H1219 C1230 0.950 . S
H1220 C1232 0.950 . S
H1221 C1233 0.950 . S
C1222 H1214 0.950 . S
C1222 C1223 1.386 . S
C1222 C1224 1.391 . S
C1223 C1222 1.386 . S
C1223 C1227 1.393 . S
C1224 H1216 0.950 . S
C1224 C1222 1.391 . S
C1224 C1225 1.400 . S
C1225 C1224 1.400 . S
C1225 C1226 1.398 . S
C1225 C1231 1.491 . S
C1226 H1217 0.950 . S
C1226 C1225 1.398 . S
C1226 C1227 1.391 . S
C1227 H1215 0.950 . S
C1227 C1223 1.393 . S
C1227 C1226 1.391 . S
C1228 H1218 0.950 . S
C1228 C1229 1.386 . S
C1228 C1230 1.391 1_554 S
C1229 C1228 1.386 . S
C1229 C1233 1.393 . S
C1230 H1219 0.950 . S
C1230 C1228 1.391 1_556 S
C1230 C1231 1.400 . S
C1231 C1225 1.491 . S
C1231 C1230 1.400 . S
C1231 C1232 1.398 . S
C1232 H1220 0.950 . S
C1232 C1231 1.398 . S
C1232 C1233 1.391 1_556 S
C1233 H1221 0.950 . S
C1233 C1229 1.393 . S
C1233 C1232 1.391 1_554 S
H1234 C1242 0.950 . S
H1235 C1247 0.950 . S
H1236 C1244 0.950 . S
H1237 C1246 0.950 . S
H1238 C1248 0.950 . S
H1239 C1250 0.950 . S
H1240 C1252 0.950 . S
H1241 C1253 0.950 . S
C1242 H1234 0.950 . S
C1242 C1243 1.386 . S
C1242 C1244 1.391 1_554 S
C1243 C1242 1.386 . S
C1243 C1247 1.393 . S
C1244 H1236 0.950 . S
C1244 C1242 1.391 1_556 S
C1244 C1245 1.400 . S
C1245 C1244 1.400 . S
C1245 C1246 1.398 . S
C1245 C1251 1.491 . S
C1246 H1237 0.950 . S
C1246 C1245 1.398 . S
C1246 C1247 1.391 1_556 S
C1247 H1235 0.950 . S
C1247 C1243 1.393 . S
C1247 C1246 1.391 1_554 S
C1248 H1238 0.950 . S
C1248 C1249 1.386 . S
C1248 C1250 1.391 . S
C1249 C1248 1.386 . S
C1249 C1253 1.393 . S
C1250 H1239 0.950 . S
C1250 C1248 1.391 . S
C1250 C1251 1.400 . S
C1251 C1245 1.491 . S
C1251 C1250 1.400 . S
C1251 C1252 1.398 . S
C1252 H1240 0.950 . S
C1252 C1251 1.398 . S
C1252 C1253 1.391 . S
C1253 H1241 0.950 . S
C1253 C1249 1.393 . S
C1253 C1252 1.391 . S
H1254 C1262 0.950 . S
H1255 C1267 0.950 . S
H1256 C1264 0.950 . S
H1257 C1266 0.950 . S
H1258 C1268 0.950 . S
H1259 C1270 0.950 . S
H1260 C1272 0.950 . S
H1261 C1273 0.950 . S
C1262 H1254 0.950 . S
C1262 C1263 1.386 . S
C1262 C1264 1.391 . S
C1263 C1262 1.386 . S
C1263 C1267 1.393 . S
C1264 H1256 0.950 . S
C1264 C1262 1.391 . S
C1264 C1265 1.400 . S
C1265 C1264 1.400 . S
C1265 C1266 1.398 . S
C1265 C1271 1.491 . S
C1266 H1257 0.950 . S
C1266 C1265 1.398 . S
C1266 C1267 1.391 . S
C1267 H1255 0.950 . S
C1267 C1263 1.393 . S
C1267 C1266 1.391 . S
C1268 H1258 0.950 . S
C1268 C1269 1.386 . S
C1268 C1270 1.391 . S
C1269 C1268 1.386 . S
C1269 C1273 1.393 . S
C1270 H1259 0.950 . S
C1270 C1268 1.391 . S
C1270 C1271 1.400 . S
C1271 C1265 1.491 . S
C1271 C1270 1.400 . S
C1271 C1272 1.398 . S
C1272 H1260 0.950 . S
C1272 C1271 1.398 . S
C1272 C1273 1.391 . S
C1273 H1261 0.950 . S
C1273 C1269 1.393 . S
C1273 C1272 1.391 . S
H1274 C1282 0.950 . S
H1275 C1287 0.950 . S
H1276 C1284 0.950 . S
H1277 C1286 0.950 . S
H1278 C1288 0.950 . S
H1279 C1290 0.950 . S
H1280 C1292 0.950 . S
H1281 C1293 0.950 . S
C1282 H1274 0.950 . S
C1282 C1283 1.386 . S
C1282 C1284 1.391 . S
C1283 C1282 1.386 . S
C1283 C1287 1.393 . S
C1284 H1276 0.950 . S
C1284 C1282 1.391 . S
C1284 C1285 1.400 . S
C1285 C1284 1.400 . S
C1285 C1286 1.398 . S
C1285 C1291 1.491 . S
C1286 H1277 0.950 . S
C1286 C1285 1.398 . S
C1286 C1287 1.391 . S
C1287 H1275 0.950 . S
C1287 C1283 1.393 . S
C1287 C1286 1.391 . S
C1288 H1278 0.950 . S
C1288 C1289 1.386 . S
C1288 C1290 1.391 . S
C1289 C1288 1.386 . S
C1289 C1293 1.393 . S
C1290 H1279 0.950 . S
C1290 C1288 1.391 . S
C1290 C1291 1.400 . S
C1291 C1285 1.491 . S
C1291 C1290 1.400 . S
C1291 C1292 1.398 . S
C1292 H1280 0.950 . S
C1292 C1291 1.398 . S
C1292 C1293 1.391 . S
C1293 H1281 0.950 . S
C1293 C1289 1.393 . S
C1293 C1292 1.391 . S
H1294 C1302 0.950 . S
H1295 C1307 0.950 . S
H1296 C1304 0.950 . S
H1297 C1306 0.950 . S
H1298 C1308 0.950 . S
H1299 C1310 0.950 . S
H1300 C1312 0.950 . S
H1301 C1313 0.950 . S
C1302 H1294 0.950 . S
C1302 C1303 1.386 . S
C1302 C1304 1.391 . S
C1303 C1302 1.386 . S
C1303 C1307 1.393 . S
C1304 H1296 0.950 . S
C1304 C1302 1.391 . S
C1304 C1305 1.400 . S
C1305 C1304 1.400 . S
C1305 C1306 1.398 . S
C1305 C1311 1.491 . S
C1306 H1297 0.950 . S
C1306 C1305 1.398 . S
C1306 C1307 1.391 . S
C1307 H1295 0.950 . S
C1307 C1303 1.393 . S
C1307 C1306 1.391 . S
C1308 H1298 0.950 . S
C1308 C1309 1.386 . S
C1308 C1310 1.391 . S
C1309 C1308 1.386 . S
C1309 C1313 1.393 . S
C1310 H1299 0.950 . S
C1310 C1308 1.391 . S
C1310 C1311 1.400 . S
C1311 C1305 1.491 . S
C1311 C1310 1.400 . S
C1311 C1312 1.398 . S
C1312 H1300 0.950 . S
C1312 C1311 1.398 . S
C1312 C1313 1.391 . S
C1313 H1301 0.950 . S
C1313 C1309 1.393 . S
C1313 C1312 1.391 . S
H1314 C1322 0.950 . S
H1315 C1327 0.950 . S
H1316 C1324 0.950 . S
H1317 C1326 0.950 . S
H1318 C1328 0.950 . S
H1319 C1330 0.950 . S
H1320 C1332 0.950 . S
H1321 C1333 0.950 . S
C1322 H1314 0.950 . S
C1322 C1323 1.386 . S
C1322 C1324 1.391 . S
C1323 C1322 1.386 . S
C1323 C1327 1.393 . S
C1324 H1316 0.950 . S
C1324 C1322 1.391 . S
C1324 C1325 1.400 . S
C1325 C1324 1.400 . S
C1325 C1326 1.398 . S
C1325 C1331 1.491 . S
C1326 H1317 0.950 . S
C1326 C1325 1.398 . S
C1326 C1327 1.391 . S
C1327 H1315 0.950 . S
C1327 C1323 1.393 . S
C1327 C1326 1.391 . S
C1328 H1318 0.950 . S
C1328 C1329 1.386 . S
C1328 C1330 1.391 . S
C1329 C1328 1.386 . S
C1329 C1333 1.393 . S
C1330 H1319 0.950 . S
C1330 C1328 1.391 . S
C1330 C1331 1.400 . S
C1331 C1325 1.491 . S
C1331 C1330 1.400 . S
C1331 C1332 1.398 . S
C1332 H1320 0.950 . S
C1332 C1331 1.398 . S
C1332 C1333 1.391 . S
C1333 H1321 0.950 . S
C1333 C1329 1.393 . S
C1333 C1332 1.391 . S
H1334 C1342 0.950 . S
H1335 C1347 0.950 . S
H1336 C1344 0.950 . S
H1337 C1346 0.950 . S
H1338 C1348 0.950 . S
H1339 C1350 0.950 . S
H1340 C1352 0.950 . S
H1341 C1353 0.950 . S
C1342 H1334 0.950 . S
C1342 C1343 1.386 . S
C1342 C1344 1.391 . S
C1343 C1342 1.386 . S
C1343 C1347 1.393 . S
C1344 H1336 0.950 . S
C1344 C1342 1.391 . S
C1344 C1345 1.400 . S
C1345 C1344 1.400 . S
C1345 C1346 1.398 . S
C1345 C1351 1.491 . S
C1346 H1337 0.950 . S
C1346 C1345 1.398 . S
C1346 C1347 1.391 . S
C1347 H1335 0.950 . S
C1347 C1343 1.393 . S
C1347 C1346 1.391 . S
C1348 H1338 0.950 . S
C1348 C1349 1.386 . S
C1348 C1350 1.391 . S
C1349 C1348 1.386 . S
C1349 C1353 1.393 . S
C1350 H1339 0.950 . S
C1350 C1348 1.391 . S
C1350 C1351 1.400 . S
C1351 C1345 1.491 . S
C1351 C1350 1.400 . S
C1351 C1352 1.398 . S
C1352 H1340 0.950 . S
C1352 C1351 1.398 . S
C1352 C1353 1.391 . S
C1353 H1341 0.950 . S
C1353 C1349 1.393 . S
C1353 C1352 1.391 . S
H1354 C1362 0.950 . S
H1355 C1367 0.950 . S
H1356 C1364 0.950 . S
H1357 C1366 0.950 . S
H1358 C1368 0.950 1_554 S
H1359 C1370 0.950 . S
H1360 C1372 0.950 . S
H1361 C1373 0.950 . S
C1362 H1354 0.950 . S
C1362 C1363 1.386 . S
C1362 C1364 1.391 . S
C1363 C1362 1.386 . S
C1363 C1367 1.393 . S
C1364 H1356 0.950 . S
C1364 C1362 1.391 . S
C1364 C1365 1.400 . S
C1365 C1364 1.400 . S
C1365 C1366 1.398 . S
C1365 C1371 1.491 . S
C1366 H1357 0.950 . S
C1366 C1365 1.398 . S
C1366 C1367 1.391 . S
C1367 H1355 0.950 . S
C1367 C1363 1.393 . S
C1367 C1366 1.391 . S
C1368 H1358 0.950 1_556 S
C1368 C1369 1.386 . S
C1368 C1370 1.391 . S
C1369 C1368 1.386 . S
C1369 C1373 1.393 . S
C1370 H1359 0.950 . S
C1370 C1368 1.391 . S
C1370 C1371 1.400 . S
C1371 C1365 1.491 . S
C1371 C1370 1.400 . S
C1371 C1372 1.398 . S
C1372 H1360 0.950 . S
C1372 C1371 1.398 . S
C1372 C1373 1.391 . S
C1373 H1361 0.950 . S
C1373 C1369 1.393 . S
C1373 C1372 1.391 . S
H1374 C1382 0.950 . S
H1375 C1387 0.950 . S
H1376 C1384 0.950 . S
H1377 C1386 0.950 . S
H1378 C1388 0.950 . S
H1379 C1390 0.950 . S
H1380 C1392 0.950 . S
H1381 C1393 0.950 . S
C1382 H1374 0.950 . S
C1382 C1383 1.386 . S
C1382 C1384 1.391 . S
C1383 C1382 1.386 . S
C1383 C1387 1.393 . S
C1384 H1376 0.950 . S
C1384 C1382 1.391 . S
C1384 C1385 1.400 . S
C1385 C1384 1.400 . S
C1385 C1386 1.398 . S
C1385 C1391 1.491 . S
C1386 H1377 0.950 . S
C1386 C1385 1.398 . S
C1386 C1387 1.391 . S
C1387 H1375 0.950 . S
C1387 C1383 1.393 . S
C1387 C1386 1.391 . S
C1388 H1378 0.950 . S
C1388 C1389 1.386 . S
C1388 C1390 1.391 . S
C1389 C1388 1.386 . S
C1389 C1393 1.393 . S
C1390 H1379 0.950 . S
C1390 C1388 1.391 . S
C1390 C1391 1.400 . S
C1391 C1385 1.491 . S
C1391 C1390 1.400 . S
C1391 C1392 1.398 . S
C1392 H1380 0.950 . S
C1392 C1391 1.398 . S
C1392 C1393 1.391 . S
C1393 H1381 0.950 . S
C1393 C1389 1.393 . S
C1393 C1392 1.391 . S
H1394 C1402 0.950 . S
H1395 C1407 0.950 . S
H1396 C1404 0.950 . S
H1397 C1406 0.950 . S
H1398 C1408 0.950 . S
H1399 C1410 0.950 . S
H1400 C1412 0.950 . S
H1401 C1413 0.950 . S
C1402 H1394 0.950 . S
C1402 C1403 1.386 . S
C1402 C1404 1.391 . S
C1403 C1402 1.386 . S
C1403 C1407 1.393 . S
C1404 H1396 0.950 . S
C1404 C1402 1.391 . S
C1404 C1405 1.400 . S
C1405 C1404 1.400 . S
C1405 C1406 1.398 . S
C1405 C1411 1.491 . S
C1406 H1397 0.950 . S
C1406 C1405 1.398 . S
C1406 C1407 1.391 . S
C1407 H1395 0.950 . S
C1407 C1403 1.393 . S
C1407 C1406 1.391 . S
C1408 H1398 0.950 . S
C1408 C1409 1.386 . S
C1408 C1410 1.391 . S
C1409 C1408 1.386 . S
C1409 C1413 1.393 . S
C1410 H1399 0.950 . S
C1410 C1408 1.391 . S
C1410 C1411 1.400 . S
C1411 C1405 1.491 . S
C1411 C1410 1.400 . S
C1411 C1412 1.398 . S
C1412 H1400 0.950 . S
C1412 C1411 1.398 . S
C1412 C1413 1.391 . S
C1413 H1401 0.950 . S
C1413 C1409 1.393 . S
C1413 C1412 1.391 . S
H1414 C1422 0.950 . S
H1415 C1427 0.950 . S
H1416 C1424 0.950 . S
H1417 C1426 0.950 . S
H1418 C1428 0.950 . S
H1419 C1430 0.950 . S
H1420 C1432 0.950 . S
H1421 C1433 0.950 . S
C1422 H1414 0.950 . S
C1422 C1423 1.386 . S
C1422 C1424 1.391 . S
C1423 C1422 1.386 . S
C1423 C1427 1.393 . S
C1424 H1416 0.950 . S
C1424 C1422 1.391 . S
C1424 C1425 1.400 . S
C1425 C1424 1.400 . S
C1425 C1426 1.398 . S
C1425 C1431 1.491 . S
C1426 H1417 0.950 . S
C1426 C1425 1.398 . S
C1426 C1427 1.391 . S
C1427 H1415 0.950 . S
C1427 C1423 1.393 . S
C1427 C1426 1.391 . S
C1428 H1418 0.950 . S
C1428 C1429 1.386 . S
C1428 C1430 1.391 . S
C1429 C1428 1.386 . S
C1429 C1433 1.393 . S
C1430 H1419 0.950 . S
C1430 C1428 1.391 . S
C1430 C1431 1.400 . S
C1431 C1425 1.491 . S
C1431 C1430 1.400 . S
C1431 C1432 1.398 . S
C1432 H1420 0.950 . S
C1432 C1431 1.398 . S
C1432 C1433 1.391 . S
C1433 H1421 0.950 . S
C1433 C1429 1.393 . S
C1433 C1432 1.391 . S
H1434 C1442 0.950 . S
H1435 C1447 0.950 . S
H1436 C1444 0.950 . S
H1437 C1446 0.950 . S
H1438 C1448 0.950 . S
H1439 C1450 0.950 . S
H1440 C1452 0.950 . S
H1441 C1453 0.950 . S
C1442 H1434 0.950 . S
C1442 C1443 1.386 . S
C1442 C1444 1.391 . S
C1443 C1442 1.386 . S
C1443 C1447 1.393 . S
C1444 H1436 0.950 . S
C1444 C1442 1.391 . S
C1444 C1445 1.400 . S
C1445 C1444 1.400 . S
C1445 C1446 1.398 . S
C1445 C1451 1.491 . S
C1446 H1437 0.950 . S
C1446 C1445 1.398 . S
C1446 C1447 1.391 . S
C1447 H1435 0.950 . S
C1447 C1443 1.393 . S
C1447 C1446 1.391 . S
C1448 H1438 0.950 . S
C1448 C1449 1.386 . S
C1448 C1450 1.391 . S
C1449 C1448 1.386 . S
C1449 C1453 1.393 . S
C1450 H1439 0.950 . S
C1450 C1448 1.391 . S
C1450 C1451 1.400 . S
C1451 C1445 1.491 . S
C1451 C1450 1.400 . S
C1451 C1452 1.398 . S
C1452 H1440 0.950 . S
C1452 C1451 1.398 . S
C1452 C1453 1.391 . S
C1453 H1441 0.950 . S
C1453 C1449 1.393 . S
C1453 C1452 1.391 . S
H1454 C1462 0.950 . S
H1455 C1467 0.950 . S
H1456 C1464 0.950 . S
H1457 C1466 0.950 . S
H1458 C1468 0.950 . S
H1459 C1470 0.950 . S
H1460 C1472 0.950 . S
H1461 C1473 0.950 . S
C1462 H1454 0.950 . S
C1462 C1463 1.386 . S
C1462 C1464 1.391 . S
C1463 C1462 1.386 . S
C1463 C1467 1.393 . S
C1464 H1456 0.950 . S
C1464 C1462 1.391 . S
C1464 C1465 1.400 . S
C1465 C1464 1.400 . S
C1465 C1466 1.398 . S
C1465 C1471 1.491 . S
C1466 H1457 0.950 . S
C1466 C1465 1.398 . S
C1466 C1467 1.391 . S
C1467 H1455 0.950 . S
C1467 C1463 1.393 . S
C1467 C1466 1.391 . S
C1468 H1458 0.950 . S
C1468 C1469 1.386 . S
C1468 C1470 1.391 . S
C1469 C1468 1.386 . S
C1469 C1473 1.393 . S
C1470 H1459 0.950 . S
C1470 C1468 1.391 . S
C1470 C1471 1.400 . S
C1471 C1465 1.491 . S
C1471 C1470 1.400 . S
C1471 C1472 1.398 . S
C1472 H1460 0.950 . S
C1472 C1471 1.398 . S
C1472 C1473 1.391 . S
C1473 H1461 0.950 . S
C1473 C1469 1.393 . S
C1473 C1472 1.391 . S
H1474 C1482 0.950 . S
H1475 C1487 0.950 . S
H1476 C1484 0.950 . S
H1477 C1486 0.950 . S
H1478 C1488 0.950 . S
H1479 C1490 0.950 . S
H1480 C1492 0.950 . S
H1481 C1493 0.950 . S
C1482 H1474 0.950 . S
C1482 C1483 1.386 . S
C1482 C1484 1.391 . S
C1483 C1482 1.386 . S
C1483 C1487 1.393 . S
C1484 H1476 0.950 . S
C1484 C1482 1.391 . S
C1484 C1485 1.400 . S
C1485 C1484 1.400 . S
C1485 C1486 1.398 . S
C1485 C1491 1.491 . S
C1486 H1477 0.950 . S
C1486 C1485 1.398 . S
C1486 C1487 1.391 . S
C1487 H1475 0.950 . S
C1487 C1483 1.393 . S
C1487 C1486 1.391 . S
C1488 H1478 0.950 . S
C1488 C1489 1.386 . S
C1488 C1490 1.391 . S
C1489 C1488 1.386 . S
C1489 C1493 1.393 . S
C1490 H1479 0.950 . S
C1490 C1488 1.391 . S
C1490 C1491 1.400 . S
C1491 C1485 1.491 . S
C1491 C1490 1.400 . S
C1491 C1492 1.398 . S
C1492 H1480 0.950 . S
C1492 C1491 1.398 . S
C1492 C1493 1.391 . S
C1493 H1481 0.950 . S
C1493 C1489 1.393 . S
C1493 C1492 1.391 . S
H1494 C1502 0.950 . S
H1495 C1507 0.950 1_545 S
H1496 C1504 0.950 . S
H1497 C1506 0.950 . S
H1498 C1508 0.950 . S
H1499 C1510 0.950 . S
H1500 C1512 0.950 . S
H1501 C1513 0.950 . S
C1502 H1494 0.950 . S
C1502 C1503 1.386 . S
C1502 C1504 1.391 . S
C1503 C1502 1.386 . S
C1503 C1507 1.393 . S
C1504 H1496 0.950 . S
C1504 C1502 1.391 . S
C1504 C1505 1.400 . S
C1505 C1504 1.400 . S
C1505 C1506 1.398 . S
C1505 C1511 1.491 . S
C1506 H1497 0.950 . S
C1506 C1505 1.398 . S
C1506 C1507 1.391 . S
C1507 H1495 0.950 1_565 S
C1507 C1503 1.393 . S
C1507 C1506 1.391 . S
C1508 H1498 0.950 . S
C1508 C1509 1.386 . S
C1508 C1510 1.391 . S
C1509 C1508 1.386 . S
C1509 C1513 1.393 . S
C1510 H1499 0.950 . S
C1510 C1508 1.391 . S
C1510 C1511 1.400 . S
C1511 C1505 1.491 . S
C1511 C1510 1.400 . S
C1511 C1512 1.398 . S
C1512 H1500 0.950 . S
C1512 C1511 1.398 . S
C1512 C1513 1.391 . S
C1513 H1501 0.950 . S
C1513 C1509 1.393 . S
C1513 C1512 1.391 . S
H1514 C1522 0.950 . S
H1515 C1527 0.950 . S
H1516 C1524 0.950 . S
H1517 C1526 0.950 . S
H1518 C1528 0.950 . S
H1519 C1530 0.950 . S
H1520 C1532 0.950 . S
H1521 C1533 0.950 . S
C1522 H1514 0.950 . S
C1522 C1523 1.386 . S
C1522 C1524 1.391 . S
C1523 C1522 1.386 . S
C1523 C1527 1.393 . S
C1524 H1516 0.950 . S
C1524 C1522 1.391 . S
C1524 C1525 1.400 . S
C1525 C1524 1.400 . S
C1525 C1526 1.398 . S
C1525 C1531 1.491 . S
C1526 H1517 0.950 . S
C1526 C1525 1.398 . S
C1526 C1527 1.391 . S
C1527 H1515 0.950 . S
C1527 C1523 1.393 . S
C1527 C1526 1.391 . S
C1528 H1518 0.950 . S
C1528 C1529 1.386 . S
C1528 C1530 1.391 . S
C1529 C1528 1.386 . S
C1529 C1533 1.393 . S
C1530 H1519 0.950 . S
C1530 C1528 1.391 . S
C1530 C1531 1.400 . S
C1531 C1525 1.491 . S
C1531 C1530 1.400 . S
C1531 C1532 1.398 . S
C1532 H1520 0.950 . S
C1532 C1531 1.398 . S
C1532 C1533 1.391 . S
C1533 H1521 0.950 . S
C1533 C1529 1.393 . S
C1533 C1532 1.391 . S
H1534 C1542 0.950 . S
H1535 C1547 0.950 . S
H1536 C1544 0.950 . S
H1537 C1546 0.950 . S
H1538 C1548 0.950 . S
H1539 C1550 0.950 . S
H1540 C1552 0.950 . S
H1541 C1553 0.950 . S
C1542 H1534 0.950 . S
C1542 C1543 1.386 . S
C1542 C1544 1.391 . S
C1543 C1542 1.386 . S
C1543 C1547 1.393 . S
C1544 H1536 0.950 . S
C1544 C1542 1.391 . S
C1544 C1545 1.400 . S
C1545 C1544 1.400 . S
C1545 C1546 1.398 . S
C1545 C1551 1.491 . S
C1546 H1537 0.950 . S
C1546 C1545 1.398 . S
C1546 C1547 1.391 . S
C1547 H1535 0.950 . S
C1547 C1543 1.393 . S
C1547 C1546 1.391 . S
C1548 H1538 0.950 . S
C1548 C1549 1.386 . S
C1548 C1550 1.391 . S
C1549 C1548 1.386 . S
C1549 C1553 1.393 . S
C1550 H1539 0.950 . S
C1550 C1548 1.391 . S
C1550 C1551 1.400 . S
C1551 C1545 1.491 . S
C1551 C1550 1.400 . S
C1551 C1552 1.398 . S
C1552 H1540 0.950 . S
C1552 C1551 1.398 . S
C1552 C1553 1.391 . S
C1553 H1541 0.950 . S
C1553 C1549 1.393 . S
C1553 C1552 1.391 . S
H1554 C1562 0.950 . S
H1555 C1567 0.950 . S
H1556 C1564 0.950 . S
H1557 C1566 0.950 . S
H1558 C1568 0.950 . S
H1559 C1570 0.950 . S
H1560 C1572 0.950 . S
H1561 C1573 0.950 . S
C1562 H1554 0.950 . S
C1562 C1563 1.386 . S
C1562 C1564 1.391 . S
C1563 C1562 1.386 . S
C1563 C1567 1.393 . S
C1564 H1556 0.950 . S
C1564 C1562 1.391 . S
C1564 C1565 1.400 . S
C1565 C1564 1.400 . S
C1565 C1566 1.398 . S
C1565 C1571 1.491 . S
C1566 H1557 0.950 . S
C1566 C1565 1.398 . S
C1566 C1567 1.391 . S
C1567 H1555 0.950 . S
C1567 C1563 1.393 . S
C1567 C1566 1.391 . S
C1568 H1558 0.950 . S
C1568 C1569 1.386 . S
C1568 C1570 1.391 . S
C1569 C1568 1.386 . S
C1569 C1573 1.393 . S
C1570 H1559 0.950 . S
C1570 C1568 1.391 . S
C1570 C1571 1.400 . S
C1571 C1565 1.491 . S
C1571 C1570 1.400 . S
C1571 C1572 1.398 . S
C1572 H1560 0.950 . S
C1572 C1571 1.398 . S
C1572 C1573 1.391 . S
C1573 H1561 0.950 . S
C1573 C1569 1.393 . S
C1573 C1572 1.391 . S
H1574 C1582 0.950 . S
H1575 C1587 0.950 . S
H1576 C1584 0.950 . S
H1577 C1586 0.950 . S
H1578 C1588 0.950 . S
H1579 C1590 0.950 . S
H1580 C1592 0.950 . S
H1581 C1593 0.950 . S
C1582 H1574 0.950 . S
C1582 C1583 1.386 . S
C1582 C1584 1.391 . S
C1583 C1582 1.386 . S
C1583 C1587 1.393 . S
C1584 H1576 0.950 . S
C1584 C1582 1.391 . S
C1584 C1585 1.400 . S
C1585 C1584 1.400 . S
C1585 C1586 1.398 . S
C1585 C1591 1.491 1_545 S
C1586 H1577 0.950 . S
C1586 C1585 1.398 . S
C1586 C1587 1.391 . S
C1587 H1575 0.950 . S
C1587 C1583 1.393 . S
C1587 C1586 1.391 . S
C1588 H1578 0.950 . S
C1588 C1589 1.386 . S
C1588 C1590 1.391 . S
C1589 C1588 1.386 . S
C1589 C1593 1.393 . S
C1590 H1579 0.950 . S
C1590 C1588 1.391 . S
C1590 C1591 1.400 . S
C1591 C1585 1.491 1_565 S
C1591 C1590 1.400 . S
C1591 C1592 1.398 . S
C1592 H1580 0.950 . S
C1592 C1591 1.398 . S
C1592 C1593 1.391 . S
C1593 H1581 0.950 . S
C1593 C1589 1.393 . S
C1593 C1592 1.391 . S
H1594 C1602 0.950 . S
H1595 C1607 0.950 . S
H1596 C1604 0.950 . S
H1597 C1606 0.950 . S
H1598 C1608 0.950 . S
H1599 C1610 0.950 . S
H1600 C1612 0.950 . S
H1601 C1613 0.950 . S
C1602 H1594 0.950 . S
C1602 C1603 1.386 . S
C1602 C1604 1.391 . S
C1603 C1602 1.386 . S
C1603 C1607 1.393 . S
C1604 H1596 0.950 . S
C1604 C1602 1.391 . S
C1604 C1605 1.400 . S
C1605 C1604 1.400 . S
C1605 C1606 1.398 . S
C1605 C1611 1.491 . S
C1606 H1597 0.950 . S
C1606 C1605 1.398 . S
C1606 C1607 1.391 . S
C1607 H1595 0.950 . S
C1607 C1603 1.393 . S
C1607 C1606 1.391 . S
C1608 H1598 0.950 . S
C1608 C1609 1.386 . S
C1608 C1610 1.391 1_655 S
C1609 C1608 1.386 . S
C1609 C1613 1.393 . S
C1610 H1599 0.950 . S
C1610 C1608 1.391 1_455 S
C1610 C1611 1.400 . S
C1611 C1605 1.491 . S
C1611 C1610 1.400 . S
C1611 C1612 1.398 . S
C1612 H1600 0.950 . S
C1612 C1611 1.398 . S
C1612 C1613 1.391 1_455 S
C1613 H1601 0.950 . S
C1613 C1609 1.393 . S
C1613 C1612 1.391 1_655 S
H1614 C1622 0.950 . S
H1615 C1627 0.950 . S
H1616 C1624 0.950 . S
H1617 C1626 0.950 . S
H1618 C1628 0.950 . S
H1619 C1630 0.950 . S
H1620 C1632 0.950 . S
H1621 C1633 0.950 . S
C1622 H1614 0.950 . S
C1622 C1623 1.386 . S
C1622 C1624 1.391 . S
C1623 C1622 1.386 . S
C1623 C1627 1.393 . S
C1624 H1616 0.950 . S
C1624 C1622 1.391 . S
C1624 C1625 1.400 . S
C1625 C1624 1.400 . S
C1625 C1626 1.398 . S
C1625 C1631 1.491 . S
C1626 H1617 0.950 . S
C1626 C1625 1.398 . S
C1626 C1627 1.391 . S
C1627 H1615 0.950 . S
C1627 C1623 1.393 . S
C1627 C1626 1.391 . S
C1628 H1618 0.950 . S
C1628 C1629 1.386 . S
C1628 C1630 1.391 . S
C1629 C1628 1.386 . S
C1629 C1633 1.393 . S
C1630 H1619 0.950 . S
C1630 C1628 1.391 . S
C1630 C1631 1.400 . S
C1631 C1625 1.491 . S
C1631 C1630 1.400 . S
C1631 C1632 1.398 . S
C1632 H1620 0.950 . S
C1632 C1631 1.398 . S
C1632 C1633 1.391 . S
C1633 H1621 0.950 . S
C1633 C1629 1.393 . S
C1633 C1632 1.391 . S
H1634 C1642 0.950 . S
H1635 C1647 0.950 . S
H1636 C1644 0.950 . S
H1637 C1646 0.950 . S
H1638 C1648 0.950 . S
H1639 C1650 0.950 . S
H1640 C1652 0.950 . S
H1641 C1653 0.950 . S
C1642 H1634 0.950 . S
C1642 C1643 1.386 . S
C1642 C1644 1.391 . S
C1643 C1642 1.386 . S
C1643 C1647 1.393 . S
C1644 H1636 0.950 . S
C1644 C1642 1.391 . S
C1644 C1645 1.400 . S
C1645 C1644 1.400 . S
C1645 C1646 1.398 . S
C1645 C1651 1.491 . S
C1646 H1637 0.950 . S
C1646 C1645 1.398 . S
C1646 C1647 1.391 . S
C1647 H1635 0.950 . S
C1647 C1643 1.393 . S
C1647 C1646 1.391 . S
C1648 H1638 0.950 . S
C1648 C1649 1.386 . S
C1648 C1650 1.391 1_565 S
C1649 C1648 1.386 . S
C1649 C1653 1.393 . S
C1650 H1639 0.950 . S
C1650 C1648 1.391 1_545 S
C1650 C1651 1.400 . S
C1651 C1645 1.491 . S
C1651 C1650 1.400 . S
C1651 C1652 1.398 . S
C1652 H1640 0.950 . S
C1652 C1651 1.398 . S
C1652 C1653 1.391 1_545 S
C1653 H1641 0.950 . S
C1653 C1649 1.393 . S
C1653 C1652 1.391 1_565 S
H1654 C1662 0.950 . S
H1655 C1667 0.950 . S
H1656 C1664 0.950 . S
H1657 C1666 0.950 . S
H1658 C1668 0.950 . S
H1659 C1670 0.950 . S
H1660 C1672 0.950 . S
H1661 C1673 0.950 . S
C1662 H1654 0.950 . S
C1662 C1663 1.386 . S
C1662 C1664 1.391 . S
C1663 C1662 1.386 . S
C1663 C1667 1.393 . S
C1664 H1656 0.950 . S
C1664 C1662 1.391 . S
C1664 C1665 1.400 . S
C1665 C1664 1.400 . S
C1665 C1666 1.398 . S
C1665 C1671 1.491 1_455 S
C1666 H1657 0.950 . S
C1666 C1665 1.398 . S
C1666 C1667 1.391 . S
C1667 H1655 0.950 . S
C1667 C1663 1.393 . S
C1667 C1666 1.391 . S
C1668 H1658 0.950 . S
C1668 C1669 1.386 . S
C1668 C1670 1.391 . S
C1669 C1668 1.386 . S
C1669 C1673 1.393 . S
C1670 H1659 0.950 . S
C1670 C1668 1.391 . S
C1670 C1671 1.400 . S
C1671 C1665 1.491 1_655 S
C1671 C1670 1.400 . S
C1671 C1672 1.398 . S
C1672 H1660 0.950 . S
C1672 C1671 1.398 . S
C1672 C1673 1.391 . S
C1673 H1661 0.950 . S
C1673 C1669 1.393 . S
C1673 C1672 1.391 . S
C963 C250 1.972 1_455 S
C969 C38 1.970 1_655 S
C983 C304 1.971 . S
C989 C92 1.970 . S
C1003 C144 1.140 . S
C1009 C188 1.144 . S
C1023 C251 1.937 . S
C1029 C39 1.934 1_455 S
C1043 C303 1.936 . S
C1049 C91 1.937 . S
C1063 C145 1.103 . S
C1069 C181 1.103 . S
C1083 C569 1.927 . S
C1089 C356 1.929 . S
C1103 C622 1.927 . S
C1109 C409 1.926 . S
C1123 C462 1.927 . S
C1129 C516 1.927 . S
C1143 C357 1.978 . S
C1149 C568 1.979 . S
C1163 C621 1.981 . S
C1169 C410 1.979 . S
C1183 C515 1.978 . S
C1189 C463 1.980 . S
C1203 C887 1.132 . S
C1209 C665 1.131 . S
C1223 C711 1.135 . S
C1229 C939 1.133 . S
C1243 C824 0.302 . S
C1249 C764 0.307 . S
C1263 C886 1.113 . S
C1269 C658 1.115 . S
C1283 C940 1.109 . S
C1289 C718 1.111 . S
C1303 C771 0.284 . S
C1309 C817 0.279 . S
C1323 C22 1.529 . S
C1329 C506 1.532 . S
C1343 C559 1.504 . S
C1349 C82 1.504 . S
C1363 C612 1.501 . S
C1369 C128 1.501 . S
C1383 C198 1.519 . S
C1389 C675 1.518 . S
C1403 C727 1.512 . S
C1409 C234 1.512 . S
C1423 C780 1.507 . S
C1429 C294 1.506 . S
C1443 C833 1.538 . S
C1449 C29 1.531 . S
C1463 C870 1.512 . S
C1469 C75 1.513 . S
C1483 C930 1.500 . S
C1489 C135 1.501 . S
C1503 C197 1.527 . S
C1509 C347 1.528 . S
C1523 C241 1.509 . S
C1529 C400 1.510 . S
C1543 C453 1.508 . S
C1549 C287 1.509 . S
C1563 C834 1.512 . S
C1569 C340 1.508 . S
C1583 C877 1.523 . S
C1589 C393 1.524 . S
C1603 C446 1.511 . S
C1609 C923 1.512 . S
C1623 C674 1.500 . S
C1629 C499 1.502 . S
C1643 C728 1.508 . S
C1649 C552 1.507 . S
C1663 C605 1.509 . S
C1669 C781 1.509 . S
