# Generated by pormake.
# Topology dft, (4)-cn, num edge types: 1
# Building blocks:
#     Node 0, Type 0, BuildingBlock: AZAVOO_clean_sbu_0, # of connection points: 4
#     Node 1, Type 0, BuildingBlock: AZAVOO_clean_sbu_0, # of connection points: 4
#     Node 2, Type 0, BuildingBlock: AZAVOO_clean_sbu_0, # of connection points: 4
#     Node 3, Type 0, BuildingBlock: AZAVOO_clean_sbu_0, # of connection points: 4
#     Node 4, Type 0, BuildingBlock: AZAVOO_clean_sbu_0, # of connection points: 4
#     Node 5, Type 0, BuildingBlock: AZAVOO_clean_sbu_0, # of connection points: 4
#     Node 6, Type 0, BuildingBlock: AZAVOO_clean_sbu_0, # of connection points: 4
#     Node 7, Type 0, BuildingBlock: AZAVOO_clean_sbu_0, # of connection points: 4
#     Edge 8, Type (0, 0), BuildingBlock: FUNLAD_clean_linker_0, # of connection points: 2
#     Edge 9, Type (0, 0), BuildingBlock: FUNLAD_clean_linker_0, # of connection points: 2
#     Edge 10, Type (0, 0), BuildingBlock: FUNLAD_clean_linker_0, # of connection points: 2
#     Edge 11, Type (0, 0), BuildingBlock: FUNLAD_clean_linker_0, # of connection points: 2
#     Edge 12, Type (0, 0), BuildingBlock: FUNLAD_clean_linker_0, # of connection points: 2
#     Edge 13, Type (0, 0), BuildingBlock: FUNLAD_clean_linker_0, # of connection points: 2
#     Edge 14, Type (0, 0), BuildingBlock: FUNLAD_clean_linker_0, # of connection points: 2
#     Edge 15, Type (0, 0), BuildingBlock: FUNLAD_clean_linker_0, # of connection points: 2
#     Edge 16, Type (0, 0), BuildingBlock: FUNLAD_clean_linker_0, # of connection points: 2
#     Edge 17, Type (0, 0), BuildingBlock: FUNLAD_clean_linker_0, # of connection points: 2
#     Edge 18, Type (0, 0), BuildingBlock: FUNLAD_clean_linker_0, # of connection points: 2
#     Edge 19, Type (0, 0), BuildingBlock: FUNLAD_clean_linker_0, # of connection points: 2
#     Edge 20, Type (0, 0), BuildingBlock: FUNLAD_clean_linker_0, # of connection points: 2
#     Edge 21, Type (0, 0), BuildingBlock: FUNLAD_clean_linker_0, # of connection points: 2
#     Edge 22, Type (0, 0), BuildingBlock: FUNLAD_clean_linker_0, # of connection points: 2
#     Edge 23, Type (0, 0), BuildingBlock: FUNLAD_clean_linker_0, # of connection points: 2
# Relax obj value: 0.186
# Max RMSD: 0.167
# Mean RMSD: 0.161
data_MOF--net-dft--node1-AZAVOO_clean_sbu_0--edge1-FUNLAD_clean_linker_0
_symmetry_space_group_name_H-M    P1
_symmetry_Int_Tables_number       1
_symmetry_cell_setting            triclinic
loop_
_symmetry_equiv_pos_as_xyz
'x, y, z'
_cell_length_a     39.648424
_cell_length_b     40.515602
_cell_length_c     43.569632
_cell_angle_alpha  89.613652
_cell_angle_beta   89.383956
_cell_angle_gamma 90.363935
loop_
_atom_site_label
_atom_site_type_symbol
_atom_site_fract_x
_atom_site_fract_y
_atom_site_fract_z
_atom_type_partial_charge
Mg0 Mg 0.30749 0.01628 0.21509 0.0
O1 O 0.29839 0.01738 0.16278 0.0
O2 O 0.24553 -0.00014 0.15491 0.0
Mg3 Mg 0.21976 0.99003 0.20097 0.0
C4 C 0.27412 0.01015 0.14486 0.0
C5 C 0.37876 0.03454 0.18796 0.0
O6 O 0.36827 0.01311 0.16762 0.0
O7 O 0.27732 0.06469 0.21927 0.0
O8 O 0.22545 0.04504 0.21034 0.0
O9 O 0.32137 0.96233 0.21359 0.0
O10 O 0.26952 0.98074 0.21969 0.0
C11 C 0.24554 0.06887 0.21615 0.0
C12 C 0.28939 0.95618 0.21575 0.0
O13 O 0.35884 0.04276 0.20968 0.0
Mg14 Mg 0.97181 0.34635 0.72523 0.0
O15 O 0.01747 0.31201 0.7312 0.0
O16 O 0.05199 0.32098 0.69093 0.0
Mg17 Mg 0.02851 0.35863 0.65869 0.0
C18 C 0.0449 0.30656 0.71638 0.0
C19 C 0.9391 0.32483 0.79331 0.0
O20 O 0.93541 0.33264 0.82237 0.0
O21 O 1.00584 0.389 0.73753 0.0
O22 O 0.03841 0.39734 0.69604 0.0
O23 O 0.94289 0.30846 0.69772 0.0
O24 O 0.97918 0.34447 0.67821 0.0
C25 C 0.02918 0.40475 0.72332 0.0
C26 C 0.95959 0.31961 0.67415 0.0
O27 O 0.95781 0.34306 0.77636 0.0
Mg28 Mg 0.73529 0.01191 0.1944 0.0
O29 O 0.73906 0.02191 0.14249 0.0
O30 O 0.78905 0.04608 0.13274 0.0
Mg31 Mg 0.81763 0.05088 0.17783 0.0
C32 C 0.76068 0.03469 0.12389 0.0
C33 C 0.66112 0.97336 0.18073 0.0
O34 O 0.64736 0.94411 0.177 0.0
O35 O 0.77212 0.96937 0.18847 0.0
O36 O 0.82183 -0.00569 0.18017 0.0
O37 O 0.715 0.0633 0.20399 0.0
O38 O 0.76881 0.05012 0.20199 0.0
C39 C 0.80391 0.9682 0.18364 0.0
C40 C 0.74633 0.07247 0.20498 0.0
O41 O 0.69231 0.97497 0.18704 0.0
Mg42 Mg 0.07284 0.73481 0.67513 0.0
O43 O 0.01847 0.75201 0.68438 0.0
O44 O 0.98369 0.72152 0.65591 0.0
Mg45 Mg 0.01544 0.68384 0.63026 0.0
C46 C 0.98886 0.74443 0.6753 0.0
C47 C 0.12195 0.75756 0.72407 0.0
O48 O 0.13913 0.7347 0.70959 0.0
O49 O 0.06314 0.69053 0.7057 0.0
O50 O 0.02782 0.66065 0.6772 0.0
O51 O 0.07778 0.76892 0.635 0.0
O52 O 0.05906 0.71751 0.63245 0.0
C53 C 0.04457 0.66519 0.70175 0.0
C54 C 0.06537 0.74518 0.61877 0.0
O55 O 0.09211 0.76383 0.71554 0.0
Mg56 Mg 0.29971 0.06549 0.79753 0.0
O57 O 0.29875 0.07158 0.85 0.0
O58 O 0.24471 0.07783 0.86398 0.0
Mg59 Mg 0.21147 0.07584 0.8217 0.0
C60 C 0.27596 0.07577 0.87055 0.0
C61 C 0.37779 0.06626 0.80789 0.0
O62 O 0.3708 0.09621 0.81731 0.0
O63 O 0.27993 0.01286 0.80374 0.0
O64 O 0.22598 0.02153 0.81656 0.0
O65 O 0.30263 0.12043 0.78983 0.0
O66 O 0.25529 0.09174 0.79447 0.0
C67 C 0.25047 0.00212 0.81075 0.0
C68 C 0.27002 0.11994 0.79157 0.0
O69 O 0.35397 0.04771 0.79887 0.0
Mg70 Mg 0.99242 0.29904 0.34764 0.0
O71 O 0.94341 0.2775 0.32699 0.0
O72 O 0.90156 0.30928 0.34466 0.0
Mg73 Mg 0.92279 0.34998 0.375 0.0
C74 C 0.91207 0.28489 0.32887 0.0
C75 C 0.05808 0.2746 0.3233 0.0
O76 O 0.06473 0.2951 0.34572 0.0
O77 O 0.99115 0.34165 0.31375 0.0
O78 O 0.9503 0.3734 0.33289 0.0
O79 O 0.98671 0.26726 0.38921 0.0
O80 O 0.96524 0.31718 0.38503 0.0
C81 C 0.97355 0.36787 0.31301 0.0
C82 C 0.96881 0.29063 0.40111 0.0
O83 O 0.02738 0.26979 0.3162 0.0
Mg84 Mg 0.75729 0.99052 0.77795 0.0
O85 O 0.76177 0.98901 0.83037 0.0
O86 O 0.81565 0.97957 0.84222 0.0
Mg87 Mg 0.84599 0.9764 0.79729 0.0
C88 C 0.78497 0.98458 0.85005 0.0
C89 C 0.67924 -0.00597 0.77446 0.0
O90 O 0.68469 0.96491 0.76236 0.0
O91 O 0.78071 0.04211 0.77734 0.0
O92 O 0.83469 0.03079 0.78704 0.0
O93 O 0.75069 0.93531 0.77598 0.0
O94 O 0.79982 0.96127 0.77401 0.0
C95 C 0.81134 0.05126 0.78069 0.0
C96 C 0.78328 0.93393 0.77509 0.0
O97 O 0.70429 0.01129 0.78295 0.0
Mg98 Mg 0.0322 0.70635 0.28304 0.0
O99 O 0.08516 0.72513 0.26945 0.0
O100 O 0.12271 0.69602 0.29597 0.0
Mg101 Mg 0.09415 0.65889 0.32633 0.0
C102 C 0.11558 0.71863 0.27662 0.0
C103 C 0.97797 0.73045 0.23837 0.0
O104 O 0.96167 0.70736 0.25394 0.0
O105 O 0.03834 0.65948 0.25485 0.0
O106 O 0.07372 0.63117 0.28455 0.0
O107 O 0.0302 0.74188 0.32189 0.0
O108 O 0.04967 0.69109 0.32571 0.0
C109 C 0.05487 0.63333 0.26101 0.0
C110 C 0.04391 0.71909 0.33847 0.0
O111 O 0.00913 0.73499 0.24354 0.0
C112 C 0.30523 0.03428 0.0992 0.0
C113 C 0.27817 0.01555 0.11137 0.0
C114 C 0.30657 0.04224 0.06785 0.0
C115 C 0.28095 0.03132 0.04813 0.0
C116 C 0.25478 0.01156 0.06021 0.0
C117 C 0.25339 0.00372 0.09136 0.0
C118 C 0.27872 0.04167 0.01547 0.0
C119 C 0.30403 0.05508 0.99859 0.0
C120 C 0.2986 0.06479 0.96612 0.0
C121 C 0.3238 0.05915 0.94395 0.0
C122 C 0.31719 0.06427 0.91275 0.0
C123 C 0.28532 0.07535 0.90336 0.0
H124 H 0.24827 0.08419 0.97353 0.0
C125 C 0.26112 0.08336 0.92586 0.0
C126 C 0.26773 0.07828 0.95686 0.0
H127 H 0.23657 0.09262 0.91952 0.0
H128 H 0.32469 0.04385 0.11404 0.0
H129 H 0.32694 0.0579 0.05957 0.0
H130 H 0.23475 0.00271 0.0456 0.0
H131 H 0.23234 0.98899 0.09983 0.0
H132 H 0.25462 0.0373 0.00446 0.0
H133 H 0.3293 0.05698 0.00775 0.0
H134 H 0.34798 0.04926 0.95061 0.0
H135 H 0.3365 0.05812 0.896 0.0
C136 C 0.92659 0.29719 0.63029 0.0
C137 C 0.95781 0.30389 0.64387 0.0
C138 C 0.92523 0.28696 0.59964 0.0
C139 C 0.95517 0.28267 0.5825 0.0
C140 C 0.9863 0.28735 0.5969 0.0
C141 C 0.98761 0.29831 0.62714 0.0
C142 C 0.95518 0.2746 0.54936 0.0
C143 C 0.93272 0.28733 0.52961 0.0
C144 C 0.93781 0.28557 0.49581 0.0
C145 C 0.92845 0.31255 0.47746 0.0
C146 C 0.93718 0.31369 0.44627 0.0
C147 C 0.95503 0.28759 0.43274 0.0
H148 H 0.96035 0.23689 0.49512 0.0
C149 C 0.96225 0.25956 0.45065 0.0
C150 C 0.95374 0.25854 0.48185 0.0
H151 H 0.97563 0.23885 0.44087 0.0
H152 H 0.9033 0.30134 0.64287 0.0
H153 H 0.90086 0.28285 0.58931 0.0
H154 H 0.00971 0.28388 0.5843 0.0
H155 H 0.01198 0.30284 0.63733 0.0
H156 H 0.9771 0.2617 0.54042 0.0
H157 H 0.91282 0.30322 0.53825 0.0
H158 H 0.91586 0.33356 0.4876 0.0
H159 H 0.93109 0.33557 0.43311 0.0
C160 C 0.74923 0.00573 0.89329 0.0
C161 C 0.77625 0.9862 0.88306 0.0
C162 C 0.74222 0.00873 0.92468 0.0
C163 C 0.76171 -0.0083 0.94631 0.0
C164 C 0.78784 0.97123 0.93603 0.0
C165 C 0.79538 0.96887 0.90473 0.0
C166 C 0.75566 -0.0049 0.97973 0.0
C167 C 0.74872 0.02435 0.99273 0.0
C168 C 0.74838 0.02842 0.02647 0.0
C169 C 0.76513 0.05555 0.03924 0.0
C170 C 0.76839 0.0581 0.07104 0.0
C171 C 0.75398 0.03407 0.09063 0.0
H172 H 0.71934 0.98411 0.0367 0.0
C173 C 0.73538 0.00799 0.07789 0.0
C174 C 0.73291 0.00498 0.04603 0.0
H175 H 0.72403 0.98912 0.09247 0.0
H176 H 0.73404 0.01933 0.87708 0.0
H177 H 0.72154 0.02424 0.93199 0.0
H178 H 0.80304 0.95773 0.95232 0.0
H179 H 0.81616 0.95342 0.89748 0.0
H180 H 0.76077 0.97385 0.9943 0.0
H181 H 0.74745 0.04643 0.97849 0.0
H182 H 0.77703 0.07401 0.02455 0.0
H183 H 0.78265 0.07857 0.08029 0.0
C184 C 0.0416 0.75356 0.38599 0.0
C185 C 0.05141 0.72436 0.37122 0.0
C186 C 0.04522 0.75686 0.41774 0.0
C187 C 0.05902 0.731 0.43529 0.0
C188 C 0.06989 0.70241 0.42019 0.0
C189 C 0.06607 0.69907 0.38861 0.0
C190 C 0.06078 0.73141 0.46936 0.0
C191 C 0.05305 0.75732 0.48729 0.0
C192 C 0.05378 0.75472 0.52126 0.0
C193 C 0.06323 0.78219 0.53869 0.0
C194 C 0.06616 0.77948 0.5706 0.0
C195 C 0.05925 0.7493 0.58558 0.0
H196 H 0.03658 0.70372 0.5239 0.0
C197 C 0.04819 0.72232 0.56823 0.0
C198 C 0.0453 0.72503 0.53647 0.0
H199 H 0.04246 0.69878 0.579 0.0
H200 H 0.03008 0.77346 0.37321 0.0
H201 H 0.03622 0.77926 0.42824 0.0
H202 H 0.0806 0.68207 0.433 0.0
H203 H 0.07373 0.67617 0.37808 0.0
H204 H 0.06896 0.7087 0.48033 0.0
H205 H 0.0474 0.78121 0.47732 0.0
H206 H 0.06938 0.80547 0.52754 0.0
H207 H 0.07453 0.80079 0.58339 0.0
C208 C 0.43531 0.03859 0.16214 0.0
C209 C 0.4148 0.04466 0.18797 0.0
C210 C 0.47028 0.0429 0.16345 0.0
C211 C 0.48568 0.05337 0.19073 0.0
C212 C 0.46499 0.06092 0.21609 0.0
C213 C 0.42989 0.05693 0.21467 0.0
C214 C 0.52296 0.05178 0.19477 0.0
C215 C 0.54529 0.05314 0.17117 0.0
C216 C 0.58042 0.04045 0.17325 0.0
C217 C 0.59498 0.02677 0.14674 0.0
C218 C 0.62404 0.0076 0.14867 0.0
C219 C 0.63967 0.00252 0.17699 0.0
H220 H 0.58823 0.04909 0.22189 0.0
C221 C 0.62746 0.01909 0.20295 0.0
C222 C 0.59799 0.03798 0.20114 0.0
H223 H 0.63894 0.01515 0.22512 0.0
H224 H 0.4245 0.02912 0.14121 0.0
H225 H 0.48514 0.03592 0.14359 0.0
H226 H 0.47611 0.06874 0.23747 0.0
H227 H 0.41484 0.06173 0.23503 0.0
H228 H 0.53166 0.04607 0.21772 0.0
H229 H 0.5363 0.05936 0.14841 0.0
H230 H 0.58229 0.0285 0.12488 0.0
H231 H 0.63281 -0.00534 0.12843 0.0
C232 C 0.03207 0.44508 0.76658 0.0
C233 C 0.04477 0.4336 0.73834 0.0
C234 C 0.04318 0.47516 0.77837 0.0
C235 C 0.06711 0.49427 0.76204 0.0
C236 C 0.08228 0.48117 0.7356 0.0
C237 C 0.0711 0.4512 0.72372 0.0
C238 C 0.07254 0.52973 0.7685 0.0
C239 C 0.04634 0.54917 0.77602 0.0
C240 C 0.04435 0.58304 0.76347 0.0
C241 C 0.01474 0.59194 0.74825 0.0
C242 C 0.01439 0.61961 0.72911 0.0
C243 C 0.04338 0.63934 0.72559 0.0
H244 H 0.09555 0.59804 0.77382 0.0
C245 C 0.07197 0.63237 0.74324 0.0
C246 C 0.07257 0.60417 0.7619 0.0
H247 H 0.09454 0.64746 0.7411 0.0
H248 H 0.01233 0.43172 0.77885 0.0
H249 H 0.03176 0.48419 0.79936 0.0
H250 H 0.10101 0.49531 0.72274 0.0
H251 H 0.08197 0.4427 0.7023 0.0
H252 H 0.09526 0.54098 0.75879 0.0
H253 H 0.0226 0.5379 0.7833 0.0
H254 H 0.99265 0.57606 0.74921 0.0
H255 H 0.99185 0.62483 0.71615 0.0
C256 C 0.61677 0.98647 0.77016 0.0
C257 C 0.64437 0.00608 0.77886 0.0
C258 C 0.58379 -0.00257 0.77478 0.0
C259 C 0.57763 0.02824 0.78844 0.0
C260 C 0.60523 0.04809 0.79657 0.0
C261 C 0.63825 0.0371 0.792 0.0
C262 C 0.54292 0.04092 0.79354 0.0
C263 C 0.51571 0.02108 0.79714 0.0
C264 C 0.48066 0.03333 0.80102 0.0
C265 C 0.45384 0.01211 0.79372 0.0
C266 C 0.42047 0.02266 0.79626 0.0
C267 C 0.41311 0.05468 0.80644 0.0
H268 H 0.49306 0.08194 0.81886 0.0
C269 C 0.43986 0.07569 0.81457 0.0
C270 C 0.47328 0.06515 0.81196 0.0
H271 H 0.43503 0.1004 0.82279 0.0
H272 H 0.62059 0.96259 0.75969 0.0
H273 H 0.56333 0.98187 0.76709 0.0
H274 H 0.60124 0.07208 0.80679 0.0
H275 H 0.65896 0.05289 0.79883 0.0
H276 H 0.54007 0.0675 0.79446 0.0
H277 H 0.51885 -0.0055 0.79644 0.0
H278 H 0.45871 0.98738 0.78553 0.0
H279 H 0.40047 0.00575 0.78998 0.0
C280 C 0.96392 0.42346 0.28903 0.0
C281 C 0.98229 0.39392 0.29011 0.0
C282 C 0.97511 0.44997 0.27084 0.0
C283 C 1.00493 0.44752 0.25312 0.0
C284 C 0.02215 0.41735 0.25286 0.0
C285 C 0.01092 0.39079 0.271 0.0
C286 C 0.02158 0.47706 0.23902 0.0
C287 C 1.00547 0.50568 0.23356 0.0
C288 C 0.02283 0.53839 0.23147 0.0
C289 C 1.00357 0.56634 0.22422 0.0
C290 C 0.01563 0.59809 0.23052 0.0
C291 C 0.04711 0.6024 0.24452 0.0
H292 H 0.07194 0.52264 0.24807 0.0
C293 C 0.06793 0.5748 0.24843 0.0
C294 C 0.05598 0.54314 0.24204 0.0
H295 H 0.09249 0.57736 0.25885 0.0
H296 H 0.94171 0.42673 0.30334 0.0
H297 H 0.96137 0.47287 0.27241 0.0
H298 H 0.04529 0.41477 0.23965 0.0
H299 H 0.02565 0.36837 0.2711 0.0
H300 H 0.04868 0.47576 0.23565 0.0
H301 H 0.97809 0.50591 0.23399 0.0
H302 H 0.97805 0.56354 0.21591 0.0
H303 H 0.99896 0.61885 0.22711 0.0
C304 C 0.07993 0.23525 0.28345 0.0
C305 C 0.08593 0.25634 0.30828 0.0
C306 C 0.10626 0.21682 0.27063 0.0
C307 C 0.13915 0.21914 0.28245 0.0
C308 C 0.1451 0.24048 0.30702 0.0
C309 C 0.11891 0.25906 0.31963 0.0
C310 C 0.16697 0.19751 0.27167 0.0
C311 C 0.16867 0.18518 0.24308 0.0
C312 C 0.19231 0.15856 0.23387 0.0
C313 C 0.18239 0.13748 0.21021 0.0
C314 C 0.20092 0.1093 0.20348 0.0
C315 C 0.23025 0.10178 0.21987 0.0
H316 H 0.23213 0.16867 0.26659 0.0
C317 C 0.24191 0.12419 0.24185 0.0
C318 C 0.223 0.15236 0.24893 0.0
H319 H 0.26455 0.11905 0.25469 0.0
H320 H 0.05479 0.23249 0.27428 0.0
H321 H 0.10039 0.1999 0.25232 0.0
H322 H 0.17006 0.2425 0.31676 0.0
H323 H 0.12447 0.27503 0.33878 0.0
H324 H 0.18574 0.19063 0.28846 0.0
H325 H 0.14991 0.19258 0.22645 0.0
H326 H 0.15919 0.14183 0.19792 0.0
H327 H 0.19158 0.09268 0.18608 0.0
C328 C 0.89057 0.28584 0.79461 0.0
C329 C 0.92163 0.29544 0.78156 0.0
C330 C 0.87568 0.25578 0.7869 0.0
C331 C 0.89168 0.23457 0.7659 0.0
C332 C 0.92232 0.24474 0.75219 0.0
C333 C 0.9372 0.27489 0.75999 0.0
C334 C 0.87955 0.20026 0.76079 0.0
C335 C 0.84853 0.18921 0.76884 0.0
C336 C 0.83949 0.15358 0.76986 0.0
C337 C 0.80544 0.14399 0.76844 0.0
C338 C 0.79609 0.11076 0.77167 0.0
C339 C 0.82067 0.08652 0.77677 0.0
H340 H 0.89038 0.13567 0.77738 0.0
C341 C 0.85472 0.09623 0.77824 0.0
C342 C 0.86401 0.12928 0.77493 0.0
H343 H 0.87438 0.07832 0.78229 0.0
H344 H 0.87823 0.30116 0.81159 0.0
H345 H 0.85262 0.24878 0.79875 0.0
H346 H 0.93548 0.22875 0.7363 0.0
H347 H 0.96167 0.28127 0.75038 0.0
H348 H 0.89764 0.1831 0.7511 0.0
H349 H 0.8291 0.2065 0.77564 0.0
H350 H 0.78599 0.16228 0.76503 0.0
H351 H 0.76962 0.10415 0.77049 0.0
C352 C 0.92401 0.75136 0.21639 0.0
C353 C 0.95916 0.75436 0.21935 0.0
C354 C 0.90541 0.77662 0.20278 0.0
C355 C 0.92161 0.80552 0.192 0.0
C356 C 0.95697 0.80734 0.19285 0.0
C357 C 0.97558 0.7821 0.20648 0.0
C358 C 0.90265 0.83497 0.18144 0.0
C359 C 0.87141 0.8422 0.19187 0.0
C360 C 0.85435 0.87426 0.18635 0.0
C361 C 0.81934 0.87617 0.19125 0.0
C362 C 0.80275 0.90646 0.18953 0.0
C363 C 0.82089 0.93568 0.18313 0.0
H364 H 0.89947 0.9034 0.1761 0.0
C365 C 0.85582 0.93368 0.17753 0.0
C366 C 0.87239 0.90341 0.17919 0.0
H367 H 0.87065 0.95567 0.17259 0.0
H368 H 0.91063 0.73004 0.22558 0.0
H369 H 0.87834 0.7736 0.20135 0.0
H370 H 0.97016 0.8291 0.18431 0.0
H371 H 1.00267 0.78505 0.20809 0.0
H372 H 0.91611 0.85245 0.16677 0.0
H373 H 0.85806 0.82465 0.20658 0.0
H374 H 0.80483 0.8542 0.19704 0.0
H375 H 0.77583 0.90702 0.19396 0.0
C376 C 0.17341 0.77718 0.75138 0.0
C377 C 0.13824 0.778 0.74766 0.0
C378 C 0.18932 0.79956 0.77081 0.0
C379 C 0.17026 0.82301 0.78697 0.0
C380 C 0.13497 0.82213 0.785 0.0
C381 C 0.11909 0.80004 0.76533 0.0
C382 C 0.18616 0.85052 0.80386 0.0
C383 C 0.21454 0.86562 0.79356 0.0
C384 C 0.22548 0.89915 0.80319 0.0
C385 C 0.25734 0.91086 0.79351 0.0
C386 C 0.26635 0.94401 0.79727 0.0
C387 C 0.24349 0.96621 0.81059 0.0
H388 H 0.17842 0.91375 0.82558 0.0
C389 C 0.2124 0.95412 0.82181 0.0
C390 C 0.20343 0.9211 0.81812 0.0
H391 H 0.19428 0.97048 0.83246 0.0
H392 H 0.18882 0.76016 0.73837 0.0
H393 H 0.21653 0.79896 0.77257 0.0
H394 H 0.11972 0.83978 0.79745 0.0
H395 H 0.09191 0.80094 0.76328 0.0
H396 H 0.17154 0.86107 0.82247 0.0
H397 H 0.22872 0.85463 0.7748 0.0
H398 H 0.27481 0.89461 0.78184 0.0
H399 H 0.29057 0.9525 0.78847 0.0
C400 C 0.79109 0.8771 0.75478 0.0
C401 C 0.80142 0.9024 0.77445 0.0
C402 C 0.8124 0.8504 0.74896 0.0
C403 C 0.84418 0.84863 0.76302 0.0
C404 C 0.85281 0.87233 0.78493 0.0
C405 C 0.83176 0.89914 0.7904 0.0
C406 C 0.87013 0.82429 0.75385 0.0
C407 C 0.87295 0.81281 0.72501 0.0
C408 C 0.90277 0.79434 0.71372 0.0
C409 C 0.89912 0.77329 0.68855 0.0
C410 C 0.92702 0.75707 0.67611 0.0
C411 C 0.95937 0.76197 0.6883 0.0
H412 H 0.93923 0.81632 0.7446 0.0
C413 C 0.9631 0.78332 0.71334 0.0
C414 C 0.93514 0.79935 0.72592 0.0
H415 H 0.98764 0.78774 0.72325 0.0
H416 H 0.7676 0.87902 0.74243 0.0
H417 H 0.80439 0.83185 0.73279 0.0
H418 H 0.87683 0.87121 0.79652 0.0
H419 H 0.83978 0.91784 0.80638 0.0
H420 H 0.88955 0.81861 0.77042 0.0
H421 H 0.85355 0.81832 0.70837 0.0
H422 H 0.87457 0.7694 0.67844 0.0
H423 H 0.92321 0.74087 0.65676 0.0
C424 C 0.28928 0.89585 0.22837 0.0
C425 C 0.27556 0.9226 0.21227 0.0
C426 C 0.27276 0.86515 0.22866 0.0
C427 C 0.24241 0.86079 0.21254 0.0
C428 C 0.23038 0.88697 0.19459 0.0
C429 C 0.24663 0.91759 0.19463 0.0
C430 C 0.2213 0.83039 0.21504 0.0
C431 C 0.22101 0.8104 0.23988 0.0
C432 C 0.19473 0.78463 0.24562 0.0
C433 C 0.20163 0.75885 0.26623 0.0
C434 C 0.17633 0.73651 0.27522 0.0
C435 C 0.14331 0.73971 0.2641 0.0
H436 H 0.15521 0.80717 0.21839 0.0
C437 C 0.13662 0.76491 0.24272 0.0
C438 C 0.16198 0.78715 0.23362 0.0
H439 H 0.11148 0.76821 0.23376 0.0
H440 H 0.31184 0.89909 0.24187 0.0
H441 H 0.28352 0.84522 0.2419 0.0
H442 H 0.20745 0.8842 0.18151 0.0
H443 H 0.2362 0.93745 0.18112 0.0
H444 H 0.20302 0.82632 0.19706 0.0
H445 H 0.23941 0.81407 0.25782 0.0
H446 H 0.22651 0.75647 0.27604 0.0
H447 H 0.18246 0.71746 0.29177 0.0
C448 C 0.10257 0.28186 0.71611 0.0
C449 C 0.07037 0.28425 0.72976 0.0
C450 C 0.12731 0.26206 0.72918 0.0
C451 C 0.12045 0.24416 0.7563 0.0
C452 C 0.0881 0.24594 0.76962 0.0
C453 C 0.06335 0.26597 0.75664 0.0
C454 C 0.14575 0.22183 0.77006 0.0
C455 C 0.17936 0.22643 0.76692 0.0
C456 C 0.20451 0.20178 0.7772 0.0
C457 C 0.23616 0.20082 0.76235 0.0
C458 C 0.25873 0.17525 0.7685 0.0
C459 C 0.24988 0.15026 0.78955 0.0
H460 H 0.17394 0.17915 0.81351 0.0
C461 C 0.21955 0.15272 0.80622 0.0
C462 C 0.19716 0.17832 0.8003 0.0
H463 H 0.21279 0.13454 0.82351 0.0
H464 H 0.10887 0.29543 0.6953 0.0
H465 H 0.15147 0.26038 0.71755 0.0
H466 H 0.08202 0.23197 0.79026 0.0
H467 H 0.03878 0.26712 0.76768 0.0
H468 H 0.13593 0.20051 0.7825 0.0
H469 H 0.1889 0.24795 0.75453 0.0
H470 H 0.24275 0.21893 0.74485 0.0
H471 H 0.28211 0.17397 0.75548 0.0
C472 C 0.8961 0.24239 0.2896 0.0
C473 C 0.88666 0.2642 0.31307 0.0
C474 C 0.87184 0.2227 0.27524 0.0
C475 C 0.83765 0.22423 0.28429 0.0
C476 C 0.82834 0.24583 0.30785 0.0
C477 C 0.85243 0.26585 0.32184 0.0
C478 C 0.8117 0.20177 0.27138 0.0
C479 C 0.8128 0.19102 0.24219 0.0
C480 C 0.79059 0.16443 0.22996 0.0
C481 C 0.80125 0.14813 0.20328 0.0
C482 C 0.7848 0.11958 0.19357 0.0
C483 C 0.75704 0.10686 0.2101 0.0
H484 H 0.75081 0.16579 0.26488 0.0
C485 C 0.74416 0.12474 0.235 0.0
C486 C 0.7608 0.15334 0.24494 0.0
H487 H 0.72271 0.11539 0.24807 0.0
H488 H 0.92223 0.24045 0.28237 0.0
H489 H 0.8801 0.20559 0.25777 0.0
H490 H 0.80229 0.24718 0.31552 0.0
H491 H 0.84425 0.28218 0.34 0.0
H492 H 0.79176 0.19355 0.28689 0.0
H493 H 0.83268 0.20035 0.22704 0.0
H494 H 0.82361 0.15637 0.19084 0.0
H495 H 0.79475 0.10664 0.17384 0.0
loop_
_geom_bond_atom_site_label_1
_geom_bond_atom_site_label_2
_geom_bond_distance
_geom_bond_site_symmetry_2
_ccdc_geom_bond_type
Mg0 O1 2.028 . S
Mg0 O7 1.986 . S
Mg0 O9 2.114 1_545 S
Mg0 O10 2.251 1_545 S
Mg0 O13 2.010 . S
O1 Mg0 2.028 . S
O1 C4 1.250 . S
O2 Mg3 2.028 . S
O2 C4 1.248 . S
Mg3 O2 2.028 . S
Mg3 O8 2.032 . S
Mg3 O10 2.079 1_545 S
C4 O1 1.250 . S
C4 O2 1.248 . S
C5 O6 1.264 . S
C5 O13 1.249 . S
O6 C5 1.264 . S
O7 Mg0 1.986 . S
O7 C11 1.246 . S
O8 Mg3 2.032 . S
O8 C11 1.259 . S
O9 Mg0 2.114 1_565 S
O9 C12 1.252 . S
O10 Mg0 2.251 1_565 S
O10 Mg3 2.079 1_565 S
O10 C12 1.273 . S
C11 O7 1.246 . S
C11 O8 1.259 . S
C12 O9 1.252 . S
C12 O10 1.273 . S
O13 Mg0 2.010 . S
O13 C5 1.249 . S
Mg14 O15 2.028 1_655 S
Mg14 O21 1.986 . S
Mg14 O23 2.114 . S
Mg14 O24 2.251 1_655 S
Mg14 O27 2.010 . S
O15 Mg14 2.028 1_455 S
O15 C18 1.250 . S
O16 Mg17 2.028 . S
O16 C18 1.248 . S
Mg17 O16 2.028 . S
Mg17 O22 2.032 . S
Mg17 O24 2.079 . S
C18 O15 1.250 . S
C18 O16 1.248 . S
C19 O20 1.264 . S
C19 O27 1.249 . S
O20 C19 1.264 . S
O21 Mg14 1.986 . S
O21 C25 1.248 1_655 S
O22 Mg17 2.032 . S
O22 C25 1.259 . S
O23 Mg14 2.114 . S
O23 C26 1.252 1_655 S
O24 Mg14 2.251 1_455 S
O24 Mg17 2.079 . S
O24 C26 1.273 . S
C25 O21 1.248 1_455 S
C25 O22 1.259 . S
C26 O23 1.252 1_455 S
C26 O24 1.273 . S
O27 Mg14 2.010 . S
O27 C19 1.249 . S
Mg28 O29 2.028 . S
Mg28 O35 1.986 1_545 S
Mg28 O37 2.114 . S
Mg28 O38 2.251 . S
Mg28 O41 2.010 . S
O29 Mg28 2.028 . S
O29 C32 1.250 . S
O30 Mg31 2.028 . S
O30 C32 1.248 . S
Mg31 O30 2.028 . S
Mg31 O36 2.032 1_545 S
Mg31 O38 2.079 . S
C32 O29 1.250 . S
C32 O30 1.248 . S
C33 O34 1.264 . S
C33 O41 1.249 . S
O34 C33 1.264 . S
O35 Mg28 1.986 1_565 S
O35 C39 1.246 . S
O36 Mg31 2.032 1_565 S
O36 C39 1.259 . S
O37 Mg28 2.114 . S
O37 C40 1.252 . S
O38 Mg28 2.251 . S
O38 Mg31 2.079 . S
O38 C40 1.273 . S
C39 O35 1.246 . S
C39 O36 1.259 . S
C40 O37 1.252 . S
C40 O38 1.273 . S
O41 Mg28 2.010 . S
O41 C33 1.249 . S
Mg42 O43 2.023 1_455 S
Mg42 O49 1.986 . S
Mg42 O51 2.114 . S
Mg42 O52 2.274 . S
Mg42 O55 2.010 . S
O43 Mg42 2.023 1_655 S
O43 C46 1.258 . S
O44 Mg45 2.028 . S
O44 C46 1.248 . S
Mg45 O44 2.028 . S
Mg45 O50 2.032 . S
Mg45 O52 2.049 1_655 S
C46 O43 1.258 . S
C46 O44 1.248 . S
C47 O48 1.264 . S
C47 O55 1.249 . S
O48 C47 1.264 . S
O49 Mg42 1.986 . S
O49 C53 1.246 . S
O50 Mg45 2.032 . S
O50 C53 1.259 1_655 S
O51 Mg42 2.114 . S
O51 C54 1.252 . S
O52 Mg42 2.274 . S
O52 Mg45 2.049 1_455 S
O52 C54 1.289 . S
C53 O49 1.246 . S
C53 O50 1.259 1_455 S
C54 O51 1.252 . S
C54 O52 1.289 . S
O55 Mg42 2.010 . S
O55 C47 1.249 . S
Mg56 O57 2.028 . S
Mg56 O63 1.986 1_545 S
Mg56 O65 2.114 . S
Mg56 O66 2.251 . S
Mg56 O69 2.010 . S
O57 Mg56 2.028 . S
O57 C60 1.250 . S
O58 Mg59 2.028 . S
O58 C60 1.248 . S
Mg59 O58 2.028 . S
Mg59 O64 2.032 1_545 S
Mg59 O66 2.079 . S
C60 O57 1.250 . S
C60 O58 1.248 . S
C61 O62 1.264 . S
C61 O69 1.249 . S
O62 C61 1.264 . S
O63 Mg56 1.986 1_565 S
O63 C67 1.246 . S
O64 Mg59 2.032 1_565 S
O64 C67 1.259 . S
O65 Mg56 2.114 . S
O65 C68 1.252 . S
O66 Mg56 2.251 . S
O66 Mg59 2.079 . S
O66 C68 1.273 . S
C67 O63 1.246 . S
C67 O64 1.259 . S
C68 O65 1.252 . S
C68 O66 1.273 . S
O69 Mg56 2.010 . S
O69 C61 1.249 . S
Mg70 O71 2.022 1_455 S
Mg70 O77 1.986 . S
Mg70 O79 2.114 . S
Mg70 O80 2.273 . S
Mg70 O83 2.010 . S
O71 Mg70 2.022 1_655 S
O71 C74 1.259 . S
O72 Mg73 2.028 . S
O72 C74 1.248 . S
Mg73 O72 2.028 . S
Mg73 O78 2.032 . S
Mg73 O80 2.049 1_655 S
C74 O71 1.259 . S
C74 O72 1.248 . S
C75 O76 1.264 . S
C75 O83 1.249 . S
O76 C75 1.264 . S
O77 Mg70 1.986 . S
O77 C81 1.246 . S
O78 Mg73 2.032 . S
O78 C81 1.259 1_655 S
O79 Mg70 2.114 . S
O79 C82 1.252 . S
O80 Mg70 2.273 . S
O80 Mg73 2.049 1_455 S
O80 C82 1.289 . S
C81 O77 1.246 . S
C81 O78 1.259 1_455 S
C82 O79 1.252 . S
C82 O80 1.289 . S
O83 Mg70 2.010 . S
O83 C75 1.249 . S
Mg84 O85 2.028 . S
Mg84 O91 1.986 . S
Mg84 O93 2.114 1_545 S
Mg84 O94 2.251 1_545 S
Mg84 O97 2.010 . S
O85 Mg84 2.028 . S
O85 C88 1.250 . S
O86 Mg87 2.028 . S
O86 C88 1.248 . S
Mg87 O86 2.028 . S
Mg87 O92 2.032 . S
Mg87 O94 2.079 1_545 S
C88 O85 1.250 . S
C88 O86 1.248 . S
C89 O90 1.264 . S
C89 O97 1.249 . S
O90 C89 1.264 . S
O91 Mg84 1.986 . S
O91 C95 1.246 . S
O92 Mg87 2.032 . S
O92 C95 1.259 . S
O93 Mg84 2.114 1_565 S
O93 C96 1.252 . S
O94 Mg84 2.251 1_565 S
O94 Mg87 2.079 1_565 S
O94 C96 1.273 . S
C95 O91 1.246 . S
C95 O92 1.259 . S
C96 O93 1.252 . S
C96 O94 1.273 . S
O97 Mg84 2.010 . S
O97 C89 1.249 . S
Mg98 O99 2.028 1_655 S
Mg98 O105 1.986 1_655 S
Mg98 O107 2.114 . S
Mg98 O108 2.251 1_655 S
Mg98 O111 2.010 . S
O99 Mg98 2.028 1_455 S
O99 C102 1.250 . S
O100 Mg101 2.028 . S
O100 C102 1.248 . S
Mg101 O100 2.028 . S
Mg101 O106 2.032 . S
Mg101 O108 2.079 . S
C102 O99 1.250 . S
C102 O100 1.248 . S
C103 O104 1.264 . S
C103 O111 1.249 . S
O104 C103 1.264 . S
O105 Mg98 1.986 1_455 S
O105 C109 1.244 . S
O106 Mg101 2.032 . S
O106 C109 1.259 . S
O107 Mg98 2.114 . S
O107 C110 1.252 1_655 S
O108 Mg98 2.251 1_455 S
O108 Mg101 2.079 . S
O108 C110 1.273 . S
C109 O105 1.244 . S
C109 O106 1.259 . S
C110 O107 1.252 1_455 S
C110 O108 1.273 . S
O111 Mg98 2.010 . S
O111 C103 1.249 . S
C112 C113 1.386 . S
C112 C114 1.383 . S
C112 H128 0.951 . S
C113 C112 1.386 . S
C113 C117 1.365 1_545 S
C114 C112 1.383 . S
C114 C115 1.402 . S
C114 H129 0.951 . S
C115 C114 1.402 . S
C115 C116 1.375 1_545 S
C115 C118 1.481 . S
C116 C115 1.375 1_565 S
C116 C117 1.369 . S
C116 H130 0.951 . S
C117 C113 1.365 1_565 S
C117 C116 1.369 . S
C117 H131 0.966 . S
C118 C115 1.481 . S
C118 C119 1.297 1_554 S
C118 H132 0.952 1_545 S
C119 C118 1.297 1_556 S
C119 C120 1.479 . S
C119 H133 0.950 . S
C120 C119 1.479 . S
C120 C121 1.375 . S
C120 C126 1.404 . S
C121 C120 1.375 . S
C121 C122 1.369 . S
C121 H134 0.950 . S
C122 C121 1.369 . S
C122 C123 1.392 . S
C122 H135 0.951 . S
C123 C122 1.392 . S
C123 C125 1.384 . S
H124 C126 0.949 1_565 S
C125 C123 1.384 . S
C125 C126 1.385 . S
C125 H127 0.943 1_545 S
C126 C120 1.404 . S
C126 H124 0.949 1_545 S
C126 C125 1.385 . S
H127 C125 0.943 1_565 S
H128 C112 0.951 . S
H129 C114 0.951 . S
H130 C116 0.951 . S
H131 C117 0.966 . S
H132 C118 0.952 1_565 S
H133 C119 0.950 . S
H134 C121 0.950 . S
H135 C122 0.951 . S
C136 C137 1.386 . S
C136 C138 1.383 . S
C136 H152 0.951 1_455 S
C137 C136 1.386 . S
C137 C141 1.383 . S
C138 C136 1.383 . S
C138 C139 1.402 . S
C138 H153 0.963 . S
C139 C138 1.402 . S
C139 C140 1.375 . S
C139 C142 1.481 . S
C140 C139 1.375 . S
C140 C141 1.367 . S
C140 H154 0.951 . S
C141 C137 1.383 . S
C141 C140 1.367 . S
C141 H155 0.950 . S
C142 C139 1.481 . S
C142 C143 1.297 . S
C142 H156 0.950 . S
C143 C142 1.297 . S
C143 C144 1.479 . S
C143 H157 0.950 . S
C144 C143 1.479 . S
C144 C145 1.375 . S
C144 C150 1.404 . S
C145 C144 1.375 . S
C145 C146 1.369 . S
C145 H158 0.950 1_455 S
C146 C145 1.369 . S
C146 C147 1.392 . S
C146 H159 0.951 1_455 S
C147 C146 1.392 . S
C147 C149 1.384 . S
H148 C150 0.949 . S
C149 C147 1.384 . S
C149 C150 1.385 . S
C149 H151 0.950 . S
C150 C144 1.404 . S
C150 H148 0.949 . S
C150 C149 1.385 . S
H151 C149 0.950 . S
H152 C136 0.951 1_655 S
H153 C138 0.963 . S
H154 C140 0.951 . S
H155 C141 0.950 . S
H156 C142 0.950 . S
H157 C143 0.950 . S
H158 C145 0.950 1_655 S
H159 C146 0.951 1_655 S
C160 C161 1.386 . S
C160 C162 1.383 . S
C160 H176 0.951 . S
C161 C160 1.386 . S
C161 C165 1.383 1_545 S
C162 C160 1.383 . S
C162 C163 1.402 . S
C162 H177 0.951 . S
C163 C162 1.402 . S
C163 C164 1.375 1_545 S
C163 C166 1.481 . S
C164 C163 1.375 1_565 S
C164 C165 1.367 . S
C164 H178 0.951 . S
C165 C161 1.383 1_565 S
C165 C164 1.367 . S
C165 H179 0.950 . S
C166 C163 1.481 . S
C166 C167 1.297 1_556 S
C166 H180 0.954 1_545 S
C167 C166 1.297 1_554 S
C167 C168 1.479 . S
C167 H181 0.950 . S
C168 C167 1.479 . S
C168 C169 1.375 . S
C168 C174 1.404 . S
C169 C168 1.375 . S
C169 C170 1.369 . S
C169 H182 0.950 . S
C170 C169 1.369 . S
C170 C171 1.392 . S
C170 H183 0.951 . S
C171 C170 1.392 . S
C171 C173 1.384 . S
H172 C174 0.949 1_565 S
C173 C171 1.384 . S
C173 C174 1.385 . S
C173 H175 0.950 1_545 S
C174 C168 1.404 . S
C174 H172 0.949 1_545 S
C174 C173 1.385 . S
H175 C173 0.950 1_565 S
H176 C160 0.951 . S
H177 C162 0.951 . S
H178 C164 0.951 . S
H179 C165 0.950 . S
H180 C166 0.954 1_565 S
H181 C167 0.950 . S
H182 C169 0.950 . S
H183 C170 0.951 . S
C184 C185 1.386 . S
C184 C186 1.383 . S
C184 H200 0.951 . S
C185 C184 1.386 . S
C185 C189 1.383 1_455 S
C186 C184 1.383 . S
C186 C187 1.402 . S
C186 H201 0.951 . S
C187 C186 1.402 . S
C187 C188 1.375 1_455 S
C187 C190 1.481 1_455 S
C188 C187 1.375 1_655 S
C188 C189 1.367 . S
C188 H202 0.951 . S
C189 C185 1.383 1_655 S
C189 C188 1.367 . S
C189 H203 0.950 . S
C190 C187 1.481 1_655 S
C190 C191 1.297 1_655 S
C190 H204 0.950 . S
C191 C190 1.297 1_455 S
C191 C192 1.479 . S
C191 H205 0.950 . S
C192 C191 1.479 . S
C192 C193 1.375 . S
C192 C198 1.404 1_455 S
C193 C192 1.375 . S
C193 C194 1.369 . S
C193 H206 0.950 . S
C194 C193 1.369 . S
C194 C195 1.392 . S
C194 H207 0.951 . S
C195 C194 1.392 . S
C195 C197 1.384 1_455 S
H196 C198 0.949 . S
C197 C195 1.384 1_655 S
C197 C198 1.385 . S
C197 H199 0.950 . S
C198 C192 1.404 1_655 S
C198 H196 0.949 . S
C198 C197 1.385 . S
H199 C197 0.950 . S
H200 C184 0.951 . S
H201 C186 0.951 . S
H202 C188 0.951 . S
H203 C189 0.950 . S
H204 C190 0.950 . S
H205 C191 0.950 . S
H206 C193 0.950 . S
H207 C194 0.951 . S
C208 C209 1.386 . S
C208 C210 1.383 . S
C208 H224 0.951 1_545 S
C209 C208 1.386 . S
C209 C213 1.383 . S
C210 C208 1.383 . S
C210 C211 1.402 . S
C210 H225 0.951 1_545 S
C211 C210 1.402 . S
C211 C212 1.375 . S
C211 C214 1.481 . S
C212 C211 1.375 . S
C212 C213 1.367 . S
C212 H226 0.951 . S
C213 C209 1.383 . S
C213 C212 1.367 . S
C213 H227 0.950 . S
C214 C211 1.481 . S
C214 C215 1.297 . S
C214 H228 0.950 . S
C215 C214 1.297 . S
C215 C216 1.479 . S
C215 H229 0.950 . S
C216 C215 1.479 . S
C216 C217 1.375 . S
C216 C222 1.404 . S
C217 C216 1.375 . S
C217 C218 1.369 . S
C217 H230 0.950 1_545 S
C218 C217 1.369 . S
C218 C219 1.392 . S
C218 H231 0.951 1_545 S
C219 C218 1.392 . S
C219 C221 1.384 . S
H220 C222 0.949 . S
C221 C219 1.384 . S
C221 C222 1.385 . S
C221 H223 0.950 . S
C222 C216 1.404 . S
C222 H220 0.949 . S
C222 C221 1.385 . S
H223 C221 0.950 . S
H224 C208 0.951 1_565 S
H225 C210 0.951 1_565 S
H226 C212 0.951 . S
H227 C213 0.950 . S
H228 C214 0.950 . S
H229 C215 0.950 . S
H230 C217 0.950 1_565 S
H231 C218 0.951 1_565 S
C232 C233 1.386 1_655 S
C232 C234 1.383 1_655 S
C232 H248 0.951 . S
C233 C232 1.386 1_455 S
C233 C237 1.383 . S
C234 C232 1.383 1_455 S
C234 C235 1.402 . S
C234 H249 0.951 1_455 S
C235 C234 1.402 . S
C235 C236 1.375 . S
C235 C238 1.481 . S
C236 C235 1.375 . S
C236 C237 1.367 . S
C236 H250 0.951 . S
C237 C233 1.383 . S
C237 C236 1.367 . S
C237 H251 0.950 . S
C238 C235 1.481 . S
C238 C239 1.297 . S
C238 H252 0.950 . S
C239 C238 1.297 . S
C239 C240 1.479 . S
C239 H253 0.950 . S
C240 C239 1.479 . S
C240 C241 1.360 1_455 S
C240 C246 1.404 . S
C241 C240 1.360 1_655 S
C241 C242 1.370 . S
C241 H254 0.964 . S
C242 C241 1.370 . S
C242 C243 1.392 1_655 S
C242 H255 0.951 . S
C243 C242 1.392 1_455 S
C243 C245 1.384 . S
H244 C246 0.949 . S
C245 C243 1.384 . S
C245 C246 1.385 . S
C245 H247 0.950 . S
C246 C240 1.404 . S
C246 H244 0.949 . S
C246 C245 1.385 . S
H247 C245 0.950 . S
H248 C232 0.951 . S
H249 C234 0.951 1_655 S
H250 C236 0.951 . S
H251 C237 0.950 . S
H252 C238 0.950 . S
H253 C239 0.950 . S
H254 C241 0.964 . S
H255 C242 0.951 . S
C256 C257 1.386 1_565 S
C256 C258 1.383 1_565 S
C256 H272 0.951 . S
C257 C256 1.386 1_545 S
C257 C261 1.383 . S
C258 C256 1.383 1_545 S
C258 C259 1.402 . S
C258 H273 0.951 1_545 S
C259 C258 1.402 . S
C259 C260 1.375 . S
C259 C262 1.481 . S
C260 C259 1.375 . S
C260 C261 1.367 . S
C260 H274 0.951 . S
C261 C257 1.383 . S
C261 C260 1.367 . S
C261 H275 0.950 . S
C262 C259 1.481 . S
C262 C263 1.297 . S
C262 H276 0.950 . S
C263 C262 1.297 . S
C263 C264 1.479 . S
C263 H277 0.950 . S
C264 C263 1.479 . S
C264 C265 1.375 . S
C264 C270 1.404 . S
C265 C264 1.375 . S
C265 C266 1.369 . S
C265 H278 0.950 1_545 S
C266 C265 1.369 . S
C266 C267 1.392 . S
C266 H279 0.951 1_545 S
C267 C266 1.392 . S
C267 C269 1.384 . S
H268 C270 0.949 . S
C269 C267 1.384 . S
C269 C270 1.385 . S
C269 H271 0.950 . S
C270 C264 1.404 . S
C270 H268 0.949 . S
C270 C269 1.385 . S
H271 C269 0.950 . S
H272 C256 0.951 . S
H273 C258 0.951 1_565 S
H274 C260 0.951 . S
H275 C261 0.950 . S
H276 C262 0.950 . S
H277 C263 0.950 . S
H278 C265 0.950 1_565 S
H279 C266 0.951 1_565 S
C280 C281 1.386 1_655 S
C280 C282 1.383 . S
C280 H296 0.951 . S
C281 C280 1.386 1_455 S
C281 C285 1.383 . S
C282 C280 1.383 . S
C282 C283 1.402 1_655 S
C282 H297 0.951 . S
C283 C282 1.402 1_455 S
C283 C284 1.375 . S
C283 C286 1.481 . S
C284 C283 1.375 . S
C284 C285 1.367 . S
C284 H298 0.951 . S
C285 C281 1.383 . S
C285 C284 1.367 . S
C285 H299 0.950 . S
C286 C283 1.481 . S
C286 C287 1.297 . S
C286 H300 0.950 . S
C287 C286 1.297 . S
C287 C288 1.479 . S
C287 H301 0.950 1_455 S
C288 C287 1.479 . S
C288 C289 1.375 1_455 S
C288 C294 1.404 . S
C289 C288 1.375 1_655 S
C289 C290 1.369 . S
C289 H302 0.950 . S
C290 C289 1.369 . S
C290 C291 1.392 1_655 S
C290 H303 0.951 . S
C291 C290 1.392 1_455 S
C291 C293 1.384 . S
H292 C294 0.949 . S
C293 C291 1.384 . S
C293 C294 1.385 . S
C293 H295 0.950 . S
C294 C288 1.404 . S
C294 H292 0.949 . S
C294 C293 1.385 . S
H295 C293 0.950 . S
H296 C280 0.951 . S
H297 C282 0.951 . S
H298 C284 0.951 . S
H299 C285 0.950 . S
H300 C286 0.950 . S
H301 C287 0.950 1_655 S
H302 C289 0.950 . S
H303 C290 0.951 . S
C304 C305 1.386 . S
C304 C306 1.383 . S
C304 H320 0.951 . S
C305 C304 1.386 . S
C305 C309 1.383 . S
C306 C304 1.383 . S
C306 C307 1.402 . S
C306 H321 0.951 . S
C307 C306 1.402 . S
C307 C308 1.375 . S
C307 C310 1.481 . S
C308 C307 1.375 . S
C308 C309 1.367 . S
C308 H322 0.951 . S
C309 C305 1.383 . S
C309 C308 1.367 . S
C309 H323 0.950 . S
C310 C307 1.481 . S
C310 C311 1.297 . S
C310 H324 0.950 . S
C311 C310 1.297 . S
C311 C312 1.479 . S
C311 H325 0.950 . S
C312 C311 1.479 . S
C312 C313 1.375 . S
C312 C318 1.404 . S
C313 C312 1.375 . S
C313 C314 1.369 . S
C313 H326 0.950 . S
C314 C313 1.369 . S
C314 C315 1.392 . S
C314 H327 0.951 . S
C315 C314 1.392 . S
C315 C317 1.384 . S
H316 C318 0.949 . S
C317 C315 1.384 . S
C317 C318 1.385 . S
C317 H319 0.950 . S
C318 C312 1.404 . S
C318 H316 0.949 . S
C318 C317 1.385 . S
H319 C317 0.950 . S
H320 C304 0.951 . S
H321 C306 0.951 . S
H322 C308 0.951 . S
H323 C309 0.950 . S
H324 C310 0.950 . S
H325 C311 0.950 . S
H326 C313 0.950 . S
H327 C314 0.951 . S
C328 C329 1.386 . S
C328 C330 1.383 . S
C328 H344 0.951 . S
C329 C328 1.386 . S
C329 C333 1.383 . S
C330 C328 1.383 . S
C330 C331 1.402 . S
C330 H345 0.951 . S
C331 C330 1.402 . S
C331 C332 1.375 . S
C331 C334 1.481 . S
C332 C331 1.375 . S
C332 C333 1.367 . S
C332 H346 0.951 . S
C333 C329 1.383 . S
C333 C332 1.367 . S
C333 H347 0.950 . S
C334 C331 1.481 . S
C334 C335 1.297 . S
C334 H348 0.950 . S
C335 C334 1.297 . S
C335 C336 1.479 . S
C335 H349 0.950 . S
C336 C335 1.479 . S
C336 C337 1.375 . S
C336 C342 1.404 . S
C337 C336 1.375 . S
C337 C338 1.369 . S
C337 H350 0.950 . S
C338 C337 1.369 . S
C338 C339 1.392 . S
C338 H351 0.951 . S
C339 C338 1.392 . S
C339 C341 1.384 . S
H340 C342 0.949 . S
C341 C339 1.384 . S
C341 C342 1.385 . S
C341 H343 0.950 . S
C342 C336 1.404 . S
C342 H340 0.949 . S
C342 C341 1.385 . S
H343 C341 0.950 . S
H344 C328 0.951 . S
H345 C330 0.951 . S
H346 C332 0.951 . S
H347 C333 0.950 . S
H348 C334 0.950 . S
H349 C335 0.950 . S
H350 C337 0.950 . S
H351 C338 0.951 . S
C352 C353 1.386 . S
C352 C354 1.383 . S
C352 H368 0.951 . S
C353 C352 1.386 . S
C353 C357 1.383 . S
C354 C352 1.383 . S
C354 C355 1.402 . S
C354 H369 0.951 . S
C355 C354 1.402 . S
C355 C356 1.375 . S
C355 C358 1.481 . S
C356 C355 1.375 . S
C356 C357 1.367 . S
C356 H370 0.951 . S
C357 C353 1.383 . S
C357 C356 1.367 . S
C357 H371 0.950 . S
C358 C355 1.481 . S
C358 C359 1.297 . S
C358 H372 0.950 . S
C359 C358 1.297 . S
C359 C360 1.479 . S
C359 H373 0.950 . S
C360 C359 1.479 . S
C360 C361 1.375 . S
C360 C366 1.404 . S
C361 C360 1.375 . S
C361 C362 1.369 . S
C361 H374 0.950 . S
C362 C361 1.369 . S
C362 C363 1.392 . S
C362 H375 0.951 . S
C363 C362 1.392 . S
C363 C365 1.384 . S
H364 C366 0.949 . S
C365 C363 1.384 . S
C365 C366 1.385 . S
C365 H367 0.950 . S
C366 C360 1.404 . S
C366 H364 0.949 . S
C366 C365 1.385 . S
H367 C365 0.950 . S
H368 C352 0.951 . S
H369 C354 0.951 . S
H370 C356 0.951 . S
H371 C357 0.950 . S
H372 C358 0.950 . S
H373 C359 0.950 . S
H374 C361 0.950 . S
H375 C362 0.951 . S
C376 C377 1.386 . S
C376 C378 1.383 . S
C376 H392 0.951 . S
C377 C376 1.386 . S
C377 C381 1.383 . S
C378 C376 1.383 . S
C378 C379 1.402 . S
C378 H393 0.951 . S
C379 C378 1.402 . S
C379 C380 1.375 . S
C379 C382 1.481 . S
C380 C379 1.375 . S
C380 C381 1.367 . S
C380 H394 0.951 . S
C381 C377 1.383 . S
C381 C380 1.367 . S
C381 H395 0.950 . S
C382 C379 1.481 . S
C382 C383 1.297 . S
C382 H396 0.950 . S
C383 C382 1.297 . S
C383 C384 1.479 . S
C383 H397 0.950 . S
C384 C383 1.479 . S
C384 C385 1.375 . S
C384 C390 1.404 . S
C385 C384 1.375 . S
C385 C386 1.369 . S
C385 H398 0.950 . S
C386 C385 1.369 . S
C386 C387 1.392 . S
C386 H399 0.951 . S
C387 C386 1.392 . S
C387 C389 1.384 . S
H388 C390 0.949 . S
C389 C387 1.384 . S
C389 C390 1.385 . S
C389 H391 0.950 . S
C390 C384 1.404 . S
C390 H388 0.949 . S
C390 C389 1.385 . S
H391 C389 0.950 . S
H392 C376 0.951 . S
H393 C378 0.951 . S
H394 C380 0.951 . S
H395 C381 0.950 . S
H396 C382 0.950 . S
H397 C383 0.950 . S
H398 C385 0.950 . S
H399 C386 0.951 . S
C400 C401 1.386 . S
C400 C402 1.383 . S
C400 H416 0.951 . S
C401 C400 1.386 . S
C401 C405 1.383 . S
C402 C400 1.383 . S
C402 C403 1.402 . S
C402 H417 0.951 . S
C403 C402 1.402 . S
C403 C404 1.375 . S
C403 C406 1.481 . S
C404 C403 1.375 . S
C404 C405 1.367 . S
C404 H418 0.951 . S
C405 C401 1.383 . S
C405 C404 1.367 . S
C405 H419 0.950 . S
C406 C403 1.481 . S
C406 C407 1.297 . S
C406 H420 0.950 . S
C407 C406 1.297 . S
C407 C408 1.479 . S
C407 H421 0.950 . S
C408 C407 1.479 . S
C408 C409 1.375 . S
C408 C414 1.404 . S
C409 C408 1.375 . S
C409 C410 1.369 . S
C409 H422 0.950 . S
C410 C409 1.369 . S
C410 C411 1.392 . S
C410 H423 0.951 . S
C411 C410 1.392 . S
C411 C413 1.384 . S
H412 C414 0.949 . S
C413 C411 1.384 . S
C413 C414 1.385 . S
C413 H415 0.950 . S
C414 C408 1.404 . S
C414 H412 0.949 . S
C414 C413 1.385 . S
H415 C413 0.950 . S
H416 C400 0.951 . S
H417 C402 0.951 . S
H418 C404 0.951 . S
H419 C405 0.950 . S
H420 C406 0.950 . S
H421 C407 0.950 . S
H422 C409 0.950 . S
H423 C410 0.951 . S
C424 C425 1.386 . S
C424 C426 1.383 . S
C424 H440 0.951 . S
C425 C424 1.386 . S
C425 C429 1.383 . S
C426 C424 1.383 . S
C426 C427 1.402 . S
C426 H441 0.951 . S
C427 C426 1.402 . S
C427 C428 1.375 . S
C427 C430 1.481 . S
C428 C427 1.375 . S
C428 C429 1.367 . S
C428 H442 0.951 . S
C429 C425 1.383 . S
C429 C428 1.367 . S
C429 H443 0.950 . S
C430 C427 1.481 . S
C430 C431 1.297 . S
C430 H444 0.950 . S
C431 C430 1.297 . S
C431 C432 1.479 . S
C431 H445 0.950 . S
C432 C431 1.479 . S
C432 C433 1.375 . S
C432 C438 1.404 . S
C433 C432 1.375 . S
C433 C434 1.369 . S
C433 H446 0.950 . S
C434 C433 1.369 . S
C434 C435 1.392 . S
C434 H447 0.951 . S
C435 C434 1.392 . S
C435 C437 1.384 . S
H436 C438 0.949 . S
C437 C435 1.384 . S
C437 C438 1.385 . S
C437 H439 0.950 . S
C438 C432 1.404 . S
C438 H436 0.949 . S
C438 C437 1.385 . S
H439 C437 0.950 . S
H440 C424 0.951 . S
H441 C426 0.951 . S
H442 C428 0.951 . S
H443 C429 0.950 . S
H444 C430 0.950 . S
H445 C431 0.950 . S
H446 C433 0.950 . S
H447 C434 0.951 . S
C448 C449 1.386 . S
C448 C450 1.383 . S
C448 H464 0.951 . S
C449 C448 1.386 . S
C449 C453 1.383 . S
C450 C448 1.383 . S
C450 C451 1.402 . S
C450 H465 0.951 . S
C451 C450 1.402 . S
C451 C452 1.375 . S
C451 C454 1.481 . S
C452 C451 1.375 . S
C452 C453 1.367 . S
C452 H466 0.951 . S
C453 C449 1.383 . S
C453 C452 1.367 . S
C453 H467 0.950 . S
C454 C451 1.481 . S
C454 C455 1.297 . S
C454 H468 0.950 . S
C455 C454 1.297 . S
C455 C456 1.479 . S
C455 H469 0.950 . S
C456 C455 1.479 . S
C456 C457 1.375 . S
C456 C462 1.404 . S
C457 C456 1.375 . S
C457 C458 1.369 . S
C457 H470 0.950 . S
C458 C457 1.369 . S
C458 C459 1.392 . S
C458 H471 0.951 . S
C459 C458 1.392 . S
C459 C461 1.384 . S
H460 C462 0.949 . S
C461 C459 1.384 . S
C461 C462 1.385 . S
C461 H463 0.950 . S
C462 C456 1.404 . S
C462 H460 0.949 . S
C462 C461 1.385 . S
H463 C461 0.950 . S
H464 C448 0.951 . S
H465 C450 0.951 . S
H466 C452 0.951 . S
H467 C453 0.950 . S
H468 C454 0.950 . S
H469 C455 0.950 . S
H470 C457 0.950 . S
H471 C458 0.951 . S
C472 C473 1.386 . S
C472 C474 1.383 . S
C472 H488 0.951 . S
C473 C472 1.386 . S
C473 C477 1.383 . S
C474 C472 1.383 . S
C474 C475 1.402 . S
C474 H489 0.951 . S
C475 C474 1.402 . S
C475 C476 1.375 . S
C475 C478 1.481 . S
C476 C475 1.375 . S
C476 C477 1.367 . S
C476 H490 0.951 . S
C477 C473 1.383 . S
C477 C476 1.367 . S
C477 H491 0.950 . S
C478 C475 1.481 . S
C478 C479 1.297 . S
C478 H492 0.950 . S
C479 C478 1.297 . S
C479 C480 1.479 . S
C479 H493 0.950 . S
C480 C479 1.479 . S
C480 C481 1.375 . S
C480 C486 1.404 . S
C481 C480 1.375 . S
C481 C482 1.369 . S
C481 H494 0.950 . S
C482 C481 1.369 . S
C482 C483 1.392 . S
C482 H495 0.951 . S
C483 C482 1.392 . S
C483 C485 1.384 . S
H484 C486 0.949 . S
C485 C483 1.384 . S
C485 C486 1.385 . S
C485 H487 0.950 . S
C486 C480 1.404 . S
C486 H484 0.949 . S
C486 C485 1.385 . S
H487 C485 0.950 . S
H488 C472 0.951 . S
H489 C474 0.951 . S
H490 C476 0.951 . S
H491 C477 0.950 . S
H492 C478 0.950 . S
H493 C479 0.950 . S
H494 C481 0.950 . S
H495 C482 0.951 . S
C113 C4 1.499 . S
C123 C60 1.514 . S
C137 C26 1.598 . S
C147 C82 1.574 . S
C161 C88 1.505 . S
C171 C32 1.522 . S
C185 C110 1.585 . S
C195 C54 1.593 . S
C209 C5 0.955 . S
C219 C33 1.048 . S
C233 C25 0.841 . S
C243 C53 0.949 . S
C257 C89 0.978 . S
C267 C61 1.057 . S
C281 C81 0.865 . S
C291 C109 0.797 . S
C305 C75 0.916 . S
C315 C11 0.994 . S
C329 C19 1.019 . S
C339 C95 0.967 . S
C353 C103 0.993 . S
C363 C39 0.951 . S
C377 C47 0.948 . S
C387 C67 1.089 . S
C401 C96 1.403 . S
C411 C46 1.404 . S
C425 C12 1.406 . S
C435 C102 1.415 . S
C449 C18 1.418 . S
C459 C68 1.399 . S
C473 C74 1.398 . S
C483 C40 1.383 . S
