# Generated by pormake.
# Topology eci, (8)-cn, num edge types: 1
# Building blocks:
#     Node 0, Type 0, BuildingBlock: AJUNOK_clean_sbu_0, # of connection points: 8
#     Node 1, Type 0, BuildingBlock: AJUNOK_clean_sbu_0, # of connection points: 8
#     Node 2, Type 0, BuildingBlock: AJUNOK_clean_sbu_0, # of connection points: 8
#     Node 3, Type 0, BuildingBlock: AJUNOK_clean_sbu_0, # of connection points: 8
#     Edge 4, Type (0, 0), BuildingBlock: FUNLAD_clean_linker_0, # of connection points: 2
#     Edge 5, Type (0, 0), BuildingBlock: FUNLAD_clean_linker_0, # of connection points: 2
#     Edge 6, Type (0, 0), BuildingBlock: FUNLAD_clean_linker_0, # of connection points: 2
#     Edge 7, Type (0, 0), BuildingBlock: FUNLAD_clean_linker_0, # of connection points: 2
#     Edge 8, Type (0, 0), BuildingBlock: FUNLAD_clean_linker_0, # of connection points: 2
#     Edge 9, Type (0, 0), BuildingBlock: FUNLAD_clean_linker_0, # of connection points: 2
#     Edge 10, Type (0, 0), BuildingBlock: FUNLAD_clean_linker_0, # of connection points: 2
#     Edge 11, Type (0, 0), BuildingBlock: FUNLAD_clean_linker_0, # of connection points: 2
#     Edge 12, Type (0, 0), BuildingBlock: FUNLAD_clean_linker_0, # of connection points: 2
#     Edge 13, Type (0, 0), BuildingBlock: FUNLAD_clean_linker_0, # of connection points: 2
#     Edge 14, Type (0, 0), BuildingBlock: FUNLAD_clean_linker_0, # of connection points: 2
#     Edge 15, Type (0, 0), BuildingBlock: FUNLAD_clean_linker_0, # of connection points: 2
#     Edge 16, Type (0, 0), BuildingBlock: FUNLAD_clean_linker_0, # of connection points: 2
#     Edge 17, Type (0, 0), BuildingBlock: FUNLAD_clean_linker_0, # of connection points: 2
#     Edge 18, Type (0, 0), BuildingBlock: FUNLAD_clean_linker_0, # of connection points: 2
#     Edge 19, Type (0, 0), BuildingBlock: FUNLAD_clean_linker_0, # of connection points: 2
# Relax obj value: 0.359
# Max RMSD: 0.284
# Mean RMSD: 0.284
data_MOF--net-eci--node1-AJUNOK_clean_sbu_0--edge1-FUNLAD_clean_linker_0
_symmetry_space_group_name_H-M    P1
_symmetry_Int_Tables_number       1
_symmetry_cell_setting            triclinic
loop_
_symmetry_equiv_pos_as_xyz
'x, y, z'
_cell_length_a     38.339645
_cell_length_b     38.066046
_cell_length_c     21.092591
_cell_angle_alpha  89.731233
_cell_angle_beta   89.844496
_cell_angle_gamma 90.131135
loop_
_atom_site_label
_atom_site_type_symbol
_atom_site_fract_x
_atom_site_fract_y
_atom_site_fract_z
_atom_type_partial_charge
Cd0 Cd 0.82646 0.78918 0.08766 0.0
Cd1 Cd 0.8059 0.81781 0.89643 0.0
C2 C 0.80452 0.72109 0.0071 0.0
N3 N 0.7902 0.74904 0.03742 0.0
C4 C 0.73786 0.71662 0.05745 0.0
C5 C 0.75344 0.6862 0.03257 0.0
C6 C 0.78637 0.68935 0.00362 0.0
C7 C 0.75702 0.74785 0.06015 0.0
H8 H 0.83135 0.7219 -0.00821 0.0
H9 H 0.74672 0.77006 0.0859 0.0
C10 C 0.78835 0.86973 0.03033 0.0
C11 C 0.81382 0.89282 0.82564 0.0
C12 C 0.83027 0.91969 0.79141 0.0
C13 C 0.86644 0.91809 0.78062 0.0
C14 C 0.88533 0.88984 0.80618 0.0
C15 C 0.86787 0.86373 0.84036 0.0
N16 N 0.83279 0.86553 0.84874 0.0
H17 H 0.78586 0.89328 0.83263 0.0
H18 H 0.88216 0.84164 0.85934 0.0
C19 C 0.72498 0.81975 0.94452 0.0
N20 N 0.75068 0.79733 0.92631 0.0
C21 C 0.70905 0.75126 0.91134 0.0
C22 C 0.68182 0.77432 0.92698 0.0
C23 C 0.69029 0.8086 0.94596 0.0
C24 C 0.7434 0.76348 0.91076 0.0
H25 H 0.73071 0.84704 0.95329 0.0
H26 H 0.76411 0.74648 0.89459 0.0
C27 C 0.88043 0.77319 0.97264 0.0
C28 C 0.81766 0.76718 0.21685 0.0
N29 N 0.87223 0.82904 0.09253 0.0
C30 C 0.89286 0.82583 0.1444 0.0
C31 C 0.91943 0.84995 0.1553 0.0
C32 C 0.9245 0.87794 0.11278 0.0
C33 C 0.90341 0.88028 0.05864 0.0
C34 C 0.87743 0.85505 0.04895 0.0
C35 C 0.79428 0.78694 0.7763 0.0
O36 O 0.79736 0.84598 0.0697 0.0
O37 O 0.79151 0.8653 0.97076 0.0
O38 O 0.8557 0.78856 0.94394 0.0
O39 O 0.87707 0.76645 0.03128 0.0
O40 O 0.79901 0.79092 0.19197 0.0
O41 O 0.84099 0.75375 0.18191 0.0
O42 O 0.81598 0.77362 0.81506 0.0
O43 O 0.77873 0.81483 0.79337 0.0
H44 H 0.88813 0.80491 0.17816 0.0
H45 H 0.86102 0.85665 0.00746 0.0
H46 H 0.71229 0.71563 0.07929 0.0
H47 H 0.7997 0.66666 -0.01539 0.0
H48 H 0.81477 0.94095 0.77222 0.0
H49 H 0.91331 0.88795 0.79987 0.0
H50 H 0.70375 0.72452 0.8969 0.0
H51 H 0.67014 0.82753 0.95695 0.0
H52 H 0.93498 0.84754 0.19791 0.0
H53 H 0.9068 0.90146 0.02469 0.0
Cd54 Cd 0.72152 0.32559 0.33694 0.0
Cd55 Cd 0.68422 0.30406 0.14083 0.0
C56 C 0.79118 0.3179 0.25111 0.0
N57 N 0.76636 0.29809 0.28065 0.0
C58 C 0.80639 0.25044 0.29176 0.0
C59 C 0.83361 0.27181 0.26839 0.0
C60 C 0.82506 0.30512 0.24408 0.0
C61 C 0.77289 0.26439 0.29841 0.0
H62 H 0.7862 0.34501 0.23948 0.0
H63 H 0.75303 0.24952 0.32338 0.0
C64 C 0.64062 0.28403 0.28272 0.0
C65 C 0.60213 0.31393 0.1062 0.0
C66 C 0.57185 0.33195 0.08898 0.0
C67 C 0.57429 0.36706 0.06884 0.0
C68 C 0.60719 0.3832 0.06599 0.0
C69 C 0.63661 0.36444 0.08472 0.0
N70 N 0.63354 0.33063 0.1048 0.0
H71 H 0.60054 0.28685 0.12154 0.0
H72 H 0.66192 0.37695 0.08422 0.0
C73 C 0.68345 0.22156 0.17755 0.0
N74 N 0.70586 0.24891 0.16876 0.0
C75 C 0.75422 0.20951 0.16244 0.0
C76 C 0.73152 0.18065 0.16903 0.0
C77 C 0.69583 0.18713 0.17862 0.0
C78 C 0.7407 0.24357 0.1619 0.0
H79 H 0.65566 0.22609 0.17921 0.0
H80 H 0.75776 0.26568 0.15253 0.0
C81 C 0.72507 0.38108 0.21752 0.0
C82 C 0.74725 0.3086 0.46047 0.0
N83 N 0.6874 0.37277 0.36838 0.0
C84 C 0.69817 0.39328 0.41714 0.0
C85 C 0.67599 0.41864 0.44231 0.0
C86 C 0.64228 0.42268 0.41737 0.0
C87 C 0.63252 0.40218 0.36503 0.0
C88 C 0.65569 0.3774 0.34096 0.0
C89 C 0.71219 0.29276 0.01826 0.0
O90 O 0.66514 0.29583 0.31726 0.0
O91 O 0.64252 0.28567 0.22258 0.0
O92 O 0.71105 0.35473 0.19105 0.0
O93 O 0.73397 0.37863 0.27526 0.0
O94 O 0.72277 0.29138 0.43476 0.0
O95 O 0.76018 0.33376 0.42843 0.0
O96 O 0.72757 0.31291 0.05732 0.0
O97 O 0.68332 0.27928 0.03581 0.0
H98 H 0.72366 0.38942 0.43766 0.0
H99 H 0.64793 0.36111 0.3016 0.0
H100 H 0.81151 0.22429 0.30984 0.0
H101 H 0.84501 0.32279 0.22627 0.0
H102 H 0.54686 0.31867 0.09132 0.0
H103 H 0.60999 0.41036 0.05119 0.0
H104 H 0.78193 0.20577 0.15513 0.0
H105 H 0.67723 0.16576 0.18225 0.0
H106 H 0.68493 0.43444 0.48163 0.0
H107 H 0.60676 0.40417 0.34442 0.0
Cd108 Cd 0.20895 0.18948 0.40737 0.0
Cd109 Cd 0.16395 0.21378 0.59123 0.0
C110 C 0.29065 0.18853 0.43294 0.0
N111 N 0.26412 0.21215 0.4312 0.0
C112 C 0.30481 0.25989 0.43379 0.0
C113 C 0.33278 0.23598 0.4338 0.0
C114 C 0.32521 0.19988 0.43497 0.0
C115 C 0.27045 0.24731 0.43217 0.0
H116 H 0.28512 0.16077 0.42904 0.0
H117 H 0.24892 0.26555 0.4288 0.0
C118 C 0.13415 0.24481 0.45235 0.0
C119 C 0.08683 0.18877 0.55029 0.0
C120 C 0.0591 0.16612 0.53843 0.0
C121 C 0.0651 0.12982 0.53298 0.0
C122 C 0.09991 0.11813 0.53139 0.0
C123 C 0.1271 0.14208 0.54058 0.0
N124 N 0.1201 0.1765 0.55193 0.0
H125 H 0.08142 0.2159 0.56147 0.0
H126 H 0.15354 0.13257 0.54289 0.0
C127 C 0.17864 0.29355 0.58425 0.0
N128 N 0.1986 0.26417 0.58037 0.0
C129 C 0.25017 0.29939 0.56906 0.0
C130 C 0.22962 0.32995 0.57054 0.0
C131 C 0.19354 0.32668 0.57847 0.0
C132 C 0.23388 0.26631 0.57366 0.0
H133 H 0.15087 0.29123 0.59219 0.0
H134 H 0.2493 0.24256 0.5721 0.0
C135 C 0.22634 0.14634 0.55175 0.0
C136 C 0.21889 0.19646 0.27544 0.0
N137 N 0.17262 0.14104 0.39395 0.0
C138 C 0.18342 0.10743 0.40341 0.0
C139 C 0.16161 0.07938 0.38793 0.0
C140 C 0.12882 0.08595 0.36061 0.0
C141 C 0.11815 0.121 0.35292 0.0
C142 C 0.14054 0.14819 0.37004 0.0
C143 C 0.14522 0.21409 0.72202 0.0
O144 O 0.15837 0.22653 0.42824 0.0
O145 O 0.13122 0.24638 0.51205 0.0
O146 O 0.20656 0.16614 0.58406 0.0
O147 O 0.22935 0.15058 0.49225 0.0
O148 O 0.20865 0.22183 0.30952 0.0
O149 O 0.2265 0.16791 0.30369 0.0
O150 O 0.16464 0.19114 0.69731 0.0
O151 O 0.13387 0.23807 0.6857 0.0
H152 H 0.20936 0.10221 0.42082 0.0
H153 H 0.13288 0.17507 0.36163 0.0
H154 H 0.30947 0.28796 0.43284 0.0
H155 H 0.3458 0.18048 0.43326 0.0
H156 H 0.03301 0.1769 0.53761 0.0
H157 H 0.10624 0.09053 0.52772 0.0
H158 H 0.27822 0.3011 0.56366 0.0
H159 H 0.17701 0.34968 0.58133 0.0
H160 H 0.17081 0.05285 0.39566 0.0
H161 H 0.09349 0.12755 0.331 0.0
Cd162 Cd 0.32212 0.71993 0.60981 0.0
Cd163 Cd 0.3105 0.69888 0.80311 0.0
C164 C 0.31189 0.78949 0.69626 0.0
N165 N 0.29309 0.76465 0.665 0.0
C166 C 0.24629 0.80534 0.65009 0.0
C167 C 0.26664 0.83239 0.67645 0.0
C168 C 0.29898 0.8235 0.70307 0.0
C169 C 0.26024 0.77156 0.64429 0.0
H170 H 0.33836 0.7845 0.71012 0.0
H171 H 0.24621 0.75183 0.61776 0.0
C172 C 0.28643 0.64245 0.67565 0.0
C173 C 0.31272 0.6199 0.86232 0.0
C174 C 0.32797 0.58911 0.88551 0.0
C175 C 0.36395 0.58853 0.89758 0.0
C176 C 0.38375 0.61898 0.8865 0.0
C177 C 0.36758 0.64884 0.86213 0.0
N178 N 0.33281 0.64865 0.85013 0.0
H179 H 0.28503 0.62071 0.85281 0.0
H180 H 0.38282 0.67206 0.85161 0.0
C181 C 0.22811 0.69558 0.76913 0.0
N182 N 0.2542 0.71896 0.78075 0.0
C183 C 0.21265 0.76478 0.79755 0.0
C184 C 0.18513 0.74083 0.78868 0.0
C185 C 0.1933 0.70609 0.77219 0.0
C186 C 0.24712 0.75311 0.79414 0.0
H187 H 0.23389 0.66814 0.76237 0.0
H188 H 0.26821 0.77084 0.80575 0.0
C189 C 0.38478 0.73465 0.71119 0.0
C190 C 0.31094 0.74137 0.48107 0.0
N191 N 0.35867 0.67139 0.6042 0.0
C192 C 0.36682 0.66174 0.54412 0.0
C193 C 0.38842 0.63308 0.53336 0.0
C194 C 0.4018 0.61412 0.58504 0.0
C195 C 0.39265 0.62432 0.64674 0.0
C196 C 0.37073 0.65316 0.65531 0.0
C197 C 0.30967 0.73593 0.91887 0.0
O198 O 0.29068 0.66418 0.63014 0.0
O199 O 0.29375 0.65069 0.73247 0.0
O200 O 0.3612 0.72239 0.74746 0.0
O201 O 0.37807 0.73924 0.65285 0.0
O202 O 0.28798 0.72489 0.51274 0.0
O203 O 0.33957 0.74751 0.50887 0.0
O204 O 0.33136 0.74412 0.87549 0.0
O205 O 0.28925 0.71023 0.9085 0.0
H206 H 0.35658 0.67652 0.50446 0.0
H207 H 0.3632 0.6607 0.70266 0.0
H208 H 0.22096 0.8108 0.62978 0.0
H209 H 0.3159 0.84335 0.72308 0.0
H210 H 0.31196 0.56605 0.89374 0.0
H211 H 0.41164 0.6193 0.89466 0.0
H212 H 0.20763 0.79187 0.80999 0.0
H213 H 0.17308 0.68646 0.76656 0.0
H214 H 0.39524 0.62635 0.48506 0.0
H215 H 0.40218 0.61009 0.68775 0.0
C216 C 0.78485 0.76992 0.31896 0.0
C217 C 0.81279 0.75639 0.28363 0.0
C218 C 0.78124 0.76174 0.38317 0.0
C219 C 0.80552 0.73969 0.41358 0.0
C220 C 0.83298 0.7255 0.3778 0.0
C221 C 0.83648 0.73356 0.31331 0.0
C222 C 0.80551 0.73498 0.48354 0.0
C223 C 0.77692 0.73967 0.51978 0.0
C224 C 0.7791 0.74694 0.58862 0.0
C225 C 0.75558 0.77115 0.61453 0.0
C226 C 0.76004 0.78348 0.67614 0.0
C227 C 0.78779 0.77131 0.71353 0.0
H228 H 0.82349 0.71349 0.6094 0.0
C229 C 0.80982 0.74509 0.68938 0.0
C230 C 0.80559 0.73304 0.62731 0.0
H231 H 0.83106 0.73477 0.7176 0.0
H232 H 0.76618 0.78761 0.29743 0.0
H233 H 0.76037 0.77427 0.40912 0.0
H234 H 0.85228 0.70882 0.40015 0.0
H235 H 0.85829 0.72272 0.28723 0.0
H236 H 0.83069 0.73095 0.50583 0.0
H237 H 0.75172 0.74338 0.49739 0.0
H238 H 0.73475 0.782 0.58591 0.0
H239 H 0.74225 0.80322 0.69386 0.0
C240 C 0.74341 0.27302 0.55991 0.0
C241 C 0.75822 0.30127 0.52629 0.0
C242 C 0.74977 0.26874 0.62459 0.0
C243 C 0.7713 0.29263 0.6572 0.0
C244 C 0.78765 0.31971 0.62262 0.0
C245 C 0.7813 0.32394 0.55776 0.0
C246 C 0.77307 0.29336 0.72768 0.0
C247 C 0.76282 0.26647 0.76513 0.0
C248 C 0.75332 0.27135 0.83274 0.0
C249 C 0.72537 0.25167 0.85726 0.0
C250 C 0.71224 0.25851 0.91768 0.0
C251 C 0.72722 0.28482 0.95539 0.0
H252 H 0.79169 0.31155 0.85473 0.0
C253 C 0.7565 0.30321 0.9324 0.0
C254 C 0.76942 0.29662 0.87148 0.0
H255 H 0.76897 0.3232 0.9609 0.0
H256 H 0.72561 0.25502 0.5369 0.0
H257 H 0.73592 0.24792 0.64894 0.0
H258 H 0.80423 0.33858 0.64638 0.0
H259 H 0.79324 0.34589 0.53303 0.0
H260 H 0.77952 0.31845 0.74903 0.0
H261 H 0.75652 0.24123 0.74437 0.0
H262 H 0.71266 0.23189 0.82857 0.0
H263 H 0.69002 0.24345 0.93444 0.0
C264 C 0.14431 0.18275 0.82493 0.0
C265 C 0.13964 0.21413 0.79088 0.0
C266 C 0.14809 0.1834 0.89045 0.0
C267 C 0.14772 0.21554 0.9228 0.0
C268 C 0.13903 0.24639 0.88977 0.0
C269 C 0.13506 0.24573 0.82388 0.0
C270 C 0.1592 0.21772 -0.01056 0.0
C271 C 0.18571 0.19787 0.01119 0.0
C272 C 0.19854 0.19947 0.07706 0.0
C273 C 0.21268 0.16907 0.1046 0.0
C274 C 0.22166 0.16859 0.16868 0.0
C275 C 0.21695 0.1987 0.20588 0.0
H276 H 0.18732 0.25471 0.09237 0.0
C277 C 0.20567 0.22996 0.17689 0.0
C278 C 0.19653 0.23037 0.113 0.0
H279 H 0.20237 0.25377 0.20417 0.0
H280 H 0.147 0.15791 0.80055 0.0
H281 H 0.15301 0.15894 0.91526 0.0
H282 H 0.13786 0.27133 0.91421 0.0
H283 H 0.13114 0.27022 0.79853 0.0
H284 H 0.14697 0.2372 0.01957 0.0
H285 H 0.19793 0.17874 0.98019 0.0
H286 H 0.21517 0.14515 0.07732 0.0
H287 H 0.23055 0.14418 0.18966 0.0
C288 C 0.27715 0.75627 0.01375 0.0
C289 C 0.30856 0.75458 0.97973 0.0
C290 C 0.27662 0.7694 0.07533 0.0
C291 C 0.30781 0.78003 0.10476 0.0
C292 C 0.33863 0.78123 0.06858 0.0
C293 C 0.339 0.76868 0.00633 0.0
C294 C 0.30984 0.78632 0.17417 0.0
C295 C 0.28853 0.76958 0.21544 0.0
C296 C 0.29406 0.76741 0.28505 0.0
C297 C 0.26693 0.7536 0.32253 0.0
C298 C 0.27219 0.74599 0.38652 0.0
C299 C 0.3048 0.75198 0.4146 0.0
H300 H 0.3483 0.7846 0.28672 0.0
C301 C 0.33163 0.76707 0.378 0.0
C302 C 0.32641 0.77463 0.31377 0.0
H303 H 0.35705 0.77203 0.39845 0.0
H304 H 0.2531 0.74659 -0.00671 0.0
H305 H 0.25195 0.76996 0.10029 0.0
H306 H 0.36289 0.78986 0.08969 0.0
H307 H 0.36347 0.76804 -0.01946 0.0
H308 H 0.33171 0.80164 0.19137 0.0
H309 H 0.26707 0.75396 0.19738 0.0
H310 H 0.24179 0.74765 0.30177 0.0
H311 H 0.25088 0.73462 0.41358 0.0
C312 C 0.42734 0.73695 0.80113 0.0
C313 C 0.42024 0.7413 0.7362 0.0
C314 C 0.46136 0.74024 0.82413 0.0
C315 C 0.48911 0.74842 0.78266 0.0
C316 C 0.48176 0.75349 0.718 0.0
C317 C 0.44779 0.75001 0.695 0.0
C318 C 0.52614 0.75068 0.80364 0.0
C319 C 0.53669 0.75155 0.86464 0.0
C320 C 0.57407 0.75431 0.88272 0.0
C321 C 0.58305 0.77075 0.93988 0.0
C322 C 0.61807 0.77599 0.95591 0.0
C323 C 0.64484 0.76451 0.91534 0.0
H324 H 0.59506 0.72704 0.80073 0.0
C325 C 0.63579 0.74631 0.85989 0.0
C326 C 0.60087 0.74111 0.8439 0.0
H327 H 0.65568 0.73727 0.82729 0.0
H328 H 0.40669 0.73042 0.83426 0.0
H329 H 0.46558 0.73554 0.87406 0.0
H330 H 0.5025 0.75974 0.68478 0.0
H331 H 0.44328 0.75345 0.64468 0.0
H332 H 0.54564 0.75277 0.76637 0.0
H333 H 0.51767 0.75245 0.90271 0.0
H334 H 0.56294 0.78059 0.97127 0.0
H335 H 0.62418 0.78966 -0.00057 0.0
C336 C 0.73005 0.11582 0.19317 0.0
C337 C 0.74394 0.14415 0.15827 0.0
C338 C 0.73825 0.08115 0.17716 0.0
C339 C 0.76072 0.07401 0.12579 0.0
C340 C 0.77562 0.10248 0.09272 0.0
C341 C 0.76736 0.13705 0.10863 0.0
C342 C 0.76811 0.0378 0.10244 0.0
C343 C 0.7567 0.00785 0.13008 0.0
C344 C 0.7636 0.97247 0.10302 0.0
C345 C 0.7654 0.94334 0.14391 0.0
C346 C 0.77263 0.90985 0.12025 0.0
C347 C 0.77771 0.90462 0.05486 0.0
H348 H 0.7651 0.98863 0.00404 0.0
C349 C 0.77458 0.93359 0.01365 0.0
C350 C 0.76759 0.9671 0.03739 0.0
H351 H 0.77815 0.93055 0.963 0.0
H352 H 0.71219 0.12042 0.23212 0.0
H353 H 0.72603 0.06039 0.20436 0.0
H354 H 0.793 0.09799 0.05298 0.0
H355 H 0.77815 0.15814 0.08 0.0
H356 H 0.78393 0.03588 0.0598 0.0
H357 H 0.74294 0.00865 0.17497 0.0
H358 H 0.76194 0.94661 0.19455 0.0
H359 H 0.77467 0.88815 0.15342 0.0
C360 C 0.39707 0.23067 0.45605 0.0
C361 C 0.3695 0.24795 0.42505 0.0
C362 C 0.43181 0.23798 0.43995 0.0
C363 C 0.43975 0.2629 0.39248 0.0
C364 C 0.41221 0.28124 0.36369 0.0
C365 C 0.37754 0.27399 0.37986 0.0
C366 C 0.47577 0.26833 0.36741 0.0
C367 C 0.50523 0.25841 0.39739 0.0
C368 C 0.54033 0.26266 0.36788 0.0
C369 C 0.56942 0.26961 0.40618 0.0
C370 C 0.60236 0.2753 0.37895 0.0
C371 C 0.60699 0.27356 0.31277 0.0
H372 H 0.52372 0.25269 0.27128 0.0
C373 C 0.57815 0.2647 0.27494 0.0
C374 C 0.54526 0.25937 0.30207 0.0
H375 H 0.5807 0.26265 0.22399 0.0
H376 H 0.39176 0.21061 0.4914 0.0
H377 H 0.45205 0.22283 0.46282 0.0
H378 H 0.41745 0.3005 0.32686 0.0
H379 H 0.35702 0.28748 0.35438 0.0
H380 H 0.47802 0.28143 0.32167 0.0
H381 H 0.50402 0.24831 0.44553 0.0
H382 H 0.56645 0.27172 0.45712 0.0
H383 H 0.62396 0.28195 0.40968 0.0
C384 C 0.26654 0.89589 0.71114 0.0
C385 C 0.25747 0.87009 0.66644 0.0
C386 C 0.26322 0.93173 0.69666 0.0
C387 C 0.25049 0.94259 0.63709 0.0
C388 C 0.24018 0.91674 0.59365 0.0
C389 C 0.24361 0.88108 0.60798 0.0
C390 C 0.24911 0.9801 0.61625 0.0
C391 C 0.25372 0.0082 0.65417 0.0
C392 C 0.25125 0.04489 0.62965 0.0
C393 C 0.23768 0.07127 0.66882 0.0
C394 C 0.23163 0.10508 0.6448 0.0
C395 C 0.23949 0.11335 0.58116 0.0
H396 H 0.2734 0.03457 0.53672 0.0
C397 C 0.2557 0.08764 0.54359 0.0
C398 C 0.26148 0.05383 0.56748 0.0
H399 H 0.26259 0.09311 0.4947 0.0
H400 H 0.27715 0.88842 0.75676 0.0
H401 H 0.27177 0.95052 0.7316 0.0
H402 H 0.23034 0.92414 0.54736 0.0
H403 H 0.23703 0.8622 0.57165 0.0
H404 H 0.24309 0.98473 0.56659 0.0
H405 H 0.25693 1.00467 0.70485 0.0
H406 H 0.23017 0.06529 0.71725 0.0
H407 H 0.21931 0.12422 0.67536 0.0
C408 C 0.94351 0.75661 0.97466 0.0
C409 C 0.9138 0.76598 0.93965 0.0
C410 C 0.97585 0.75296 0.94479 0.0
C411 C 0.97928 0.75874 0.87911 0.0
C412 C 0.94933 0.76657 0.84365 0.0
C413 C 0.91693 0.77037 0.87362 0.0
C414 C 0.01367 0.75624 0.84656 0.0
C415 C 0.04382 0.76443 0.87586 0.0
C416 C 0.07922 0.7611 0.8472 0.0
C417 C 0.10749 0.77617 0.87945 0.0
C418 C 0.14166 0.77097 0.85864 0.0
C419 C 0.14855 0.75046 0.80481 0.0
H420 H 0.06514 0.72902 0.76591 0.0
C421 C 0.12023 0.73641 0.77097 0.0
C422 C 0.08594 0.74154 0.79196 0.0
H423 H 0.12461 0.72066 0.72908 0.0
H424 H 0.942 0.75279 0.02552 0.0
H425 H 0.99806 0.74554 0.9734 0.0
H426 H 0.95113 0.77058 0.79286 0.0
H427 H 0.89445 0.7772 0.84515 0.0
H428 H 0.01368 0.749 0.79689 0.0
H429 H 0.04267 0.7746 0.92386 0.0
H430 H 0.10324 0.79124 0.92224 0.0
H431 H 0.16273 0.78167 0.88671 0.0
C432 C 0.73193 0.44634 0.21849 0.0
C433 C 0.72818 0.41515 0.18378 0.0
C434 C 0.73285 0.47887 0.18767 0.0
C435 C 0.73008 0.48101 0.12125 0.0
C436 C 0.72747 0.44979 0.08634 0.0
C437 C 0.72625 0.41716 0.11731 0.0
C438 C 0.73152 0.51541 0.08756 0.0
C439 C 0.71867 0.54506 0.11341 0.0
C440 C 0.72352 0.5811 0.08683 0.0
C441 C 0.71698 0.60966 0.12695 0.0
C442 C 0.72475 0.64391 0.10776 0.0
C443 C 0.739 0.65069 0.0474 0.0
H444 H 0.74033 0.56692 -0.00837 0.0
C445 C 0.74351 0.62235 0.00557 0.0
C446 C 0.73587 0.58791 0.02497 0.0
H447 H 0.75391 0.62667 0.95837 0.0
H448 H 0.73363 0.44571 0.26975 0.0
H449 H 0.73621 0.50224 0.21606 0.0
H450 H 0.72592 0.45068 0.03508 0.0
H451 H 0.7239 0.39353 0.08924 0.0
H452 H 0.74382 0.51594 0.04124 0.0
H453 H 0.70539 0.54317 0.1589 0.0
H454 H 0.7073 0.60538 0.1747 0.0
H455 H 0.72142 0.66478 0.14193 0.0
C456 C 0.89786 0.27404 0.2402 0.0
C457 C 0.87084 0.26273 0.28093 0.0
C458 C 0.9329 0.27135 0.25868 0.0
C459 C 0.94163 0.25706 0.31829 0.0
C460 C 0.91472 0.24411 0.35718 0.0
C461 C 0.87991 0.24693 0.33897 0.0
C462 C 0.97765 0.25728 0.34477 0.0
C463 C 0.00711 0.26561 0.31283 0.0
C464 C 0.04151 0.26583 0.34541 0.0
C465 C 0.07132 0.25304 0.31443 0.0
C466 C 0.10265 0.24861 0.34774 0.0
C467 C 0.10469 0.25718 0.41253 0.0
H468 H 0.02246 0.28877 0.43288 0.0
C469 C 0.07571 0.27309 0.4415 0.0
C470 C 0.04454 0.27737 0.40839 0.0
H471 H 0.07643 0.28061 0.49095 0.0
H472 H 0.8919 0.28609 0.19492 0.0
H473 H 0.95269 0.28174 0.22714 0.0
H474 H 0.92049 0.23296 0.40334 0.0
H475 H 0.8601 0.23855 0.37247 0.0
H476 H 0.97998 0.24988 0.39444 0.0
H477 H 0.00658 0.27028 0.26209 0.0
H478 H 0.06986 0.24465 0.2655 0.0
H479 H 0.12461 0.23675 0.32362 0.0
C480 C 0.2672 0.37823 0.61306 0.0
C481 C 0.24476 0.36565 0.56586 0.0
C482 C 0.2755 0.41408 0.61583 0.0
C483 C 0.26159 0.43782 0.57111 0.0
C484 C 0.2412 0.42463 0.52144 0.0
C485 C 0.23253 0.38899 0.51924 0.0
C486 C 0.26676 0.47651 0.57592 0.0
C487 C 0.26907 0.49314 0.63209 0.0
C488 C 0.27112 0.53207 0.63967 0.0
C489 C 0.26412 0.54631 0.69968 0.0
C490 C 0.26739 0.58236 0.71049 0.0
C491 C 0.27788 0.60523 0.66155 0.0
H492 H 0.28725 0.54533 0.54341 0.0
C493 C 0.28403 0.59124 0.60091 0.0
C494 C 0.28086 0.55506 0.59008 0.0
H495 H 0.2928 0.60801 0.56238 0.0
H496 H 0.27678 0.36072 0.64967 0.0
H497 H 0.29221 0.42319 0.65365 0.0
H498 H 0.2305 0.44221 0.48596 0.0
H499 H 0.21511 0.37982 0.48243 0.0
H500 H 0.26518 0.49166 0.53234 0.0
H501 H 0.26749 0.47759 0.67536 0.0
H502 H 0.25653 0.52939 0.73883 0.0
H503 H 0.26234 0.59219 0.75767 0.0
C504 C 0.07054 0.05874 0.33553 0.0
C505 C 0.10721 0.05679 0.33509 0.0
C506 C 0.05052 0.0329 0.30591 0.0
C507 C 0.06677 1.0044 0.27586 0.0
C508 C 0.10317 1.00159 0.27775 0.0
C509 C 0.12322 0.02767 0.30632 0.0
C510 C 0.04648 0.97672 0.24354 0.0
C511 C 0.01751 0.98375 0.20979 0.0
C512 C 0.9959 0.95651 0.17797 0.0
C513 C 0.96287 0.96612 0.15494 0.0
C514 C 0.94026 0.94087 0.1301 0.0
C515 C 0.95028 0.90547 0.12807 0.0
H516 H 0.0322 0.91259 0.18619 0.0
C517 C 0.98394 0.89608 0.14749 0.0
C518 C 0.00666 0.9213 0.17171 0.0
H519 H 0.99238 0.86896 0.14538 0.0
H520 H 0.05726 0.0803 0.35855 0.0
H521 H 0.02237 0.0351 0.30709 0.0
H522 H 0.1162 0.97965 0.25535 0.0
H523 H 0.15133 0.02544 0.30393 0.0
H524 H 0.05675 0.9503 0.24666 0.0
H525 H 0.00865 0.0108 0.20648 0.0
H526 H 0.95398 0.99305 0.15828 0.0
H527 H 0.91433 0.94872 0.11558 0.0
C528 C 0.59267 0.46545 0.41089 0.0
C529 C 0.61681 0.44665 0.44776 0.0
C530 C 0.56716 0.486 0.43979 0.0
C531 C 0.56524 0.48821 0.50626 0.0
C532 C 0.59013 0.47065 0.54305 0.0
C533 C 0.61548 0.4498 0.5142 0.0
C534 C 0.53802 0.50935 0.53807 0.0
C535 C 0.50572 0.51257 0.5139 0.0
C536 C 0.47806 0.53583 0.53963 0.0
C537 C 0.44595 0.53678 0.5078 0.0
C538 C 0.42046 0.56109 0.52459 0.0
C539 C 0.42649 0.58501 0.57378 0.0
H540 H 0.50738 0.55891 0.61773 0.0
C541 C 0.45767 0.58284 0.60826 0.0
C542 C 0.4833 0.55858 0.59134 0.0
H543 H 0.46303 0.6011 0.64629 0.0
H544 H 0.5935 0.46435 0.35961 0.0
H545 H 0.54921 0.5004 0.4099 0.0
H546 H 0.58941 0.47231 0.59431 0.0
H547 H 0.63339 0.4354 0.54416 0.0
H548 H 0.54492 0.52148 0.58267 0.0
H549 H 0.49928 0.49787 0.47143 0.0
H550 H 0.44095 0.51945 0.46821 0.0
H551 H 0.39637 0.56181 0.49789 0.0
C552 C 0.00627 0.11307 0.57625 0.0
C553 C 0.03556 0.10434 0.53913 0.0
C554 C 0.98085 0.08815 0.59069 0.0
C555 C 0.98447 0.05321 0.5705 0.0
C556 C 0.01231 0.04485 0.52984 0.0
C557 C 0.03755 0.07015 0.5141 0.0
C558 C 0.96079 0.02479 0.59357 0.0
C559 C 0.94255 0.02734 0.64821 0.0
C560 C 0.92141 0.9986 0.67661 0.0
C561 C 0.8955 0.00744 0.72092 0.0
C562 C 0.87708 0.98133 0.75356 0.0
C563 C 0.88451 0.94574 0.74316 0.0
H564 H 0.94866 0.95499 0.63251 0.0
C565 C 0.91006 0.93678 0.69811 0.0
C566 C 0.92835 0.96292 0.66509 0.0
H567 H 0.91614 0.90951 0.68879 0.0
H568 H 0.00346 0.13876 0.59732 0.0
H569 H 0.95893 0.09647 0.61918 0.0
H570 H 0.01534 0.01834 0.51222 0.0
H571 H 0.05908 0.06251 0.48392 0.0
H572 H 0.96002 1.00057 0.56666 0.0
H573 H 0.94362 0.05137 0.67551 0.0
H574 H 0.88985 0.03472 0.73113 0.0
H575 H 0.8578 0.98905 0.78841 0.0
C576 C 0.54122 0.4067 -0.0039 0.0
C577 C 0.54273 0.38744 0.05291 0.0
C578 C 0.51276 0.42839 -0.01664 0.0
C579 C 0.48543 0.43151 0.02763 0.0
C580 C 0.4868 0.41193 0.08411 0.0
C581 C 0.515 0.38971 0.09633 0.0
C582 C 0.45719 0.45752 0.01851 0.0
C583 C 0.44493 0.46625 0.96089 0.0
C584 C 0.42102 0.49622 0.95031 0.0
C585 C 0.39813 0.49554 0.89851 0.0
C586 C 0.37815 0.52505 0.88325 0.0
C587 C 0.38141 0.556 0.9187 0.0
H588 H 0.44132 0.5286 0.02643 0.0
C589 C 0.40379 0.55652 0.97123 0.0
C590 C 0.42329 0.52686 -0.01284 0.0
H591 H 0.40678 0.58019 -0.00095 0.0
H592 H 0.56237 0.40541 0.96203 0.0
H593 H 0.51299 0.44382 0.94011 0.0
H594 H 0.46626 0.41423 0.11922 0.0
H595 H 0.51583 0.37538 0.1408 0.0
H596 H 0.44654 0.47007 0.06047 0.0
H597 H 0.45304 0.45127 0.91967 0.0
H598 H 0.39625 0.47239 0.86902 0.0
H599 H 0.36134 0.52422 0.84207 0.0
loop_
_geom_bond_atom_site_label_1
_geom_bond_atom_site_label_2
_geom_bond_distance
_geom_bond_site_symmetry_2
_ccdc_geom_bond_type
Cd0 N3 2.334 . S
Cd0 N29 2.304 . S
Cd0 O36 2.268 . S
Cd0 O39 2.273 . S
Cd0 O40 2.417 . S
Cd0 O41 2.330 . S
Cd1 N16 2.304 . S
Cd1 N20 2.334 . S
Cd1 O37 2.273 . S
Cd1 O38 2.268 . S
Cd1 O42 2.417 . S
Cd1 O43 2.330 . S
C2 N3 1.332 . S
C2 C6 1.381 . S
C2 H8 0.931 . S
N3 Cd0 2.334 . S
N3 C2 1.332 . S
N3 C7 1.328 . S
C4 C5 1.396 . S
C4 C7 1.378 . S
C4 H46 0.931 . S
C5 C4 1.396 . S
C5 C6 1.382 . S
C6 C2 1.381 . S
C6 C5 1.382 . S
C6 H47 0.930 . S
C7 N3 1.328 . S
C7 C4 1.378 . S
C7 H9 0.930 . S
H8 C2 0.931 . S
H9 C7 0.930 . S
C10 O36 1.238 . S
C10 O37 1.253 1_554 S
C11 C12 1.379 . S
C11 N16 1.337 . S
C11 H17 0.929 . S
C12 C11 1.379 . S
C12 C13 1.380 . S
C12 H48 0.929 . S
C13 C12 1.380 . S
C13 C14 1.399 . S
C14 C13 1.399 . S
C14 C15 1.376 . S
C14 H49 0.931 . S
C15 C14 1.376 . S
C15 N16 1.338 . S
C15 H18 0.930 . S
N16 Cd1 2.304 . S
N16 C11 1.337 . S
N16 C15 1.338 . S
H17 C11 0.929 . S
H18 C15 0.930 . S
C19 N20 1.332 . S
C19 C23 1.381 . S
C19 H25 0.931 . S
N20 Cd1 2.334 . S
N20 C19 1.332 . S
N20 C24 1.328 . S
C21 C22 1.396 . S
C21 C24 1.378 . S
C21 H50 0.931 . S
C22 C21 1.396 . S
C22 C23 1.382 . S
C23 C19 1.381 . S
C23 C22 1.382 . S
C23 H51 0.930 . S
C24 N20 1.328 . S
C24 C21 1.378 . S
C24 H26 0.930 . S
H25 C19 0.931 . S
H26 C24 0.930 . S
C27 O38 1.238 . S
C27 O39 1.253 1_556 S
C28 O40 1.239 . S
C28 O41 1.230 . S
N29 Cd0 2.304 . S
N29 C30 1.337 . S
N29 C34 1.338 . S
C30 N29 1.337 . S
C30 C31 1.379 . S
C30 H44 0.929 . S
C31 C30 1.379 . S
C31 C32 1.380 . S
C31 H52 0.929 . S
C32 C31 1.380 . S
C32 C33 1.399 . S
C33 C32 1.399 . S
C33 C34 1.376 . S
C33 H53 0.931 . S
C34 N29 1.338 . S
C34 C33 1.376 . S
C34 H45 0.930 . S
C35 O42 1.239 . S
C35 O43 1.230 . S
O36 Cd0 2.268 . S
O36 C10 1.238 . S
O37 Cd1 2.273 . S
O37 C10 1.253 1_556 S
O38 Cd1 2.268 . S
O38 C27 1.238 . S
O39 Cd0 2.273 . S
O39 C27 1.253 1_554 S
O40 Cd0 2.417 . S
O40 C28 1.239 . S
O41 Cd0 2.330 . S
O41 C28 1.230 . S
O42 Cd1 2.417 . S
O42 C35 1.239 . S
O43 Cd1 2.330 . S
O43 C35 1.230 . S
H44 C30 0.929 . S
H45 C34 0.930 . S
H46 C4 0.931 . S
H47 C6 0.930 . S
H48 C12 0.929 . S
H49 C14 0.931 . S
H50 C21 0.931 . S
H51 C23 0.930 . S
H52 C31 0.929 . S
H53 C33 0.931 . S
Cd54 N57 2.334 . S
Cd54 N83 2.304 . S
Cd54 O90 2.268 . S
Cd54 O93 2.273 . S
Cd54 O94 2.417 . S
Cd54 O95 2.330 . S
Cd55 N70 2.304 . S
Cd55 N74 2.334 . S
Cd55 O91 2.273 . S
Cd55 O92 2.268 . S
Cd55 O96 2.417 . S
Cd55 O97 2.330 . S
C56 N57 1.332 . S
C56 C60 1.381 . S
C56 H62 0.931 . S
N57 Cd54 2.334 . S
N57 C56 1.332 . S
N57 C61 1.328 . S
C58 C59 1.396 . S
C58 C61 1.378 . S
C58 H100 0.931 . S
C59 C58 1.396 . S
C59 C60 1.382 . S
C60 C56 1.381 . S
C60 C59 1.382 . S
C60 H101 0.930 . S
C61 N57 1.328 . S
C61 C58 1.378 . S
C61 H63 0.930 . S
H62 C56 0.931 . S
H63 C61 0.930 . S
C64 O90 1.238 . S
C64 O91 1.253 . S
C65 C66 1.379 . S
C65 N70 1.337 . S
C65 H71 0.929 . S
C66 C65 1.379 . S
C66 C67 1.380 . S
C66 H102 0.929 . S
C67 C66 1.380 . S
C67 C68 1.399 . S
C68 C67 1.399 . S
C68 C69 1.376 . S
C68 H103 0.931 . S
C69 C68 1.376 . S
C69 N70 1.338 . S
C69 H72 0.930 . S
N70 Cd55 2.304 . S
N70 C65 1.337 . S
N70 C69 1.338 . S
H71 C65 0.929 . S
H72 C69 0.930 . S
C73 N74 1.332 . S
C73 C77 1.381 . S
C73 H79 0.931 . S
N74 Cd55 2.334 . S
N74 C73 1.332 . S
N74 C78 1.328 . S
C75 C76 1.396 . S
C75 C78 1.378 . S
C75 H104 0.931 . S
C76 C75 1.396 . S
C76 C77 1.382 . S
C77 C73 1.381 . S
C77 C76 1.382 . S
C77 H105 0.930 . S
C78 N74 1.328 . S
C78 C75 1.378 . S
C78 H80 0.930 . S
H79 C73 0.931 . S
H80 C78 0.930 . S
C81 O92 1.238 . S
C81 O93 1.253 . S
C82 O94 1.239 . S
C82 O95 1.230 . S
N83 Cd54 2.304 . S
N83 C84 1.337 . S
N83 C88 1.338 . S
C84 N83 1.337 . S
C84 C85 1.379 . S
C84 H98 0.929 . S
C85 C84 1.379 . S
C85 C86 1.380 . S
C85 H106 0.929 . S
C86 C85 1.380 . S
C86 C87 1.399 . S
C87 C86 1.399 . S
C87 C88 1.376 . S
C87 H107 0.931 . S
C88 N83 1.338 . S
C88 C87 1.376 . S
C88 H99 0.930 . S
C89 O96 1.239 . S
C89 O97 1.230 . S
O90 Cd54 2.268 . S
O90 C64 1.238 . S
O91 Cd55 2.273 . S
O91 C64 1.253 . S
O92 Cd55 2.268 . S
O92 C81 1.238 . S
O93 Cd54 2.273 . S
O93 C81 1.253 . S
O94 Cd54 2.417 . S
O94 C82 1.239 . S
O95 Cd54 2.330 . S
O95 C82 1.230 . S
O96 Cd55 2.417 . S
O96 C89 1.239 . S
O97 Cd55 2.330 . S
O97 C89 1.230 . S
H98 C84 0.929 . S
H99 C88 0.930 . S
H100 C58 0.931 . S
H101 C60 0.930 . S
H102 C66 0.929 . S
H103 C68 0.931 . S
H104 C75 0.931 . S
H105 C77 0.930 . S
H106 C85 0.929 . S
H107 C87 0.931 . S
Cd108 N111 2.334 . S
Cd108 N137 2.304 . S
Cd108 O144 2.268 . S
Cd108 O147 2.273 . S
Cd108 O148 2.417 . S
Cd108 O149 2.330 . S
Cd109 N124 2.304 . S
Cd109 N128 2.334 . S
Cd109 O145 2.273 . S
Cd109 O146 2.268 . S
Cd109 O150 2.417 . S
Cd109 O151 2.330 . S
C110 N111 1.332 . S
C110 C114 1.381 . S
C110 H116 0.931 . S
N111 Cd108 2.334 . S
N111 C110 1.332 . S
N111 C115 1.328 . S
C112 C113 1.396 . S
C112 C115 1.378 . S
C112 H154 0.931 . S
C113 C112 1.396 . S
C113 C114 1.382 . S
C114 C110 1.381 . S
C114 C113 1.382 . S
C114 H155 0.930 . S
C115 N111 1.328 . S
C115 C112 1.378 . S
C115 H117 0.930 . S
H116 C110 0.931 . S
H117 C115 0.930 . S
C118 O144 1.238 . S
C118 O145 1.253 . S
C119 C120 1.379 . S
C119 N124 1.337 . S
C119 H125 0.929 . S
C120 C119 1.379 . S
C120 C121 1.380 . S
C120 H156 0.929 . S
C121 C120 1.380 . S
C121 C122 1.399 . S
C122 C121 1.399 . S
C122 C123 1.376 . S
C122 H157 0.931 . S
C123 C122 1.376 . S
C123 N124 1.338 . S
C123 H126 0.930 . S
N124 Cd109 2.304 . S
N124 C119 1.337 . S
N124 C123 1.338 . S
H125 C119 0.929 . S
H126 C123 0.930 . S
C127 N128 1.332 . S
C127 C131 1.381 . S
C127 H133 0.931 . S
N128 Cd109 2.334 . S
N128 C127 1.332 . S
N128 C132 1.328 . S
C129 C130 1.396 . S
C129 C132 1.378 . S
C129 H158 0.931 . S
C130 C129 1.396 . S
C130 C131 1.382 . S
C131 C127 1.381 . S
C131 C130 1.382 . S
C131 H159 0.930 . S
C132 N128 1.328 . S
C132 C129 1.378 . S
C132 H134 0.930 . S
H133 C127 0.931 . S
H134 C132 0.930 . S
C135 O146 1.238 . S
C135 O147 1.253 . S
C136 O148 1.239 . S
C136 O149 1.230 . S
N137 Cd108 2.304 . S
N137 C138 1.337 . S
N137 C142 1.338 . S
C138 N137 1.337 . S
C138 C139 1.379 . S
C138 H152 0.929 . S
C139 C138 1.379 . S
C139 C140 1.380 . S
C139 H160 0.929 . S
C140 C139 1.380 . S
C140 C141 1.399 . S
C141 C140 1.399 . S
C141 C142 1.376 . S
C141 H161 0.931 . S
C142 N137 1.338 . S
C142 C141 1.376 . S
C142 H153 0.930 . S
C143 O150 1.239 . S
C143 O151 1.230 . S
O144 Cd108 2.268 . S
O144 C118 1.238 . S
O145 Cd109 2.273 . S
O145 C118 1.253 . S
O146 Cd109 2.268 . S
O146 C135 1.238 . S
O147 Cd108 2.273 . S
O147 C135 1.253 . S
O148 Cd108 2.417 . S
O148 C136 1.239 . S
O149 Cd108 2.330 . S
O149 C136 1.230 . S
O150 Cd109 2.417 . S
O150 C143 1.239 . S
O151 Cd109 2.330 . S
O151 C143 1.230 . S
H152 C138 0.929 . S
H153 C142 0.930 . S
H154 C112 0.931 . S
H155 C114 0.930 . S
H156 C120 0.929 . S
H157 C122 0.931 . S
H158 C129 0.931 . S
H159 C131 0.930 . S
H160 C139 0.929 . S
H161 C141 0.931 . S
Cd162 N165 2.334 . S
Cd162 N191 2.304 . S
Cd162 O198 2.268 . S
Cd162 O201 2.273 . S
Cd162 O202 2.417 . S
Cd162 O203 2.330 . S
Cd163 N178 2.304 . S
Cd163 N182 2.334 . S
Cd163 O199 2.273 . S
Cd163 O200 2.268 . S
Cd163 O204 2.417 . S
Cd163 O205 2.330 . S
C164 N165 1.332 . S
C164 C168 1.381 . S
C164 H170 0.931 . S
N165 Cd162 2.334 . S
N165 C164 1.332 . S
N165 C169 1.328 . S
C166 C167 1.396 . S
C166 C169 1.378 . S
C166 H208 0.931 . S
C167 C166 1.396 . S
C167 C168 1.382 . S
C168 C164 1.381 . S
C168 C167 1.382 . S
C168 H209 0.930 . S
C169 N165 1.328 . S
C169 C166 1.378 . S
C169 H171 0.930 . S
H170 C164 0.931 . S
H171 C169 0.930 . S
C172 O198 1.238 . S
C172 O199 1.253 . S
C173 C174 1.379 . S
C173 N178 1.337 . S
C173 H179 0.929 . S
C174 C173 1.379 . S
C174 C175 1.380 . S
C174 H210 0.929 . S
C175 C174 1.380 . S
C175 C176 1.399 . S
C176 C175 1.399 . S
C176 C177 1.376 . S
C176 H211 0.931 . S
C177 C176 1.376 . S
C177 N178 1.338 . S
C177 H180 0.930 . S
N178 Cd163 2.304 . S
N178 C173 1.337 . S
N178 C177 1.338 . S
H179 C173 0.929 . S
H180 C177 0.930 . S
C181 N182 1.332 . S
C181 C185 1.381 . S
C181 H187 0.931 . S
N182 Cd163 2.334 . S
N182 C181 1.332 . S
N182 C186 1.328 . S
C183 C184 1.396 . S
C183 C186 1.378 . S
C183 H212 0.931 . S
C184 C183 1.396 . S
C184 C185 1.382 . S
C185 C181 1.381 . S
C185 C184 1.382 . S
C185 H213 0.930 . S
C186 N182 1.328 . S
C186 C183 1.378 . S
C186 H188 0.930 . S
H187 C181 0.931 . S
H188 C186 0.930 . S
C189 O200 1.238 . S
C189 O201 1.253 . S
C190 O202 1.239 . S
C190 O203 1.230 . S
N191 Cd162 2.304 . S
N191 C192 1.337 . S
N191 C196 1.338 . S
C192 N191 1.337 . S
C192 C193 1.379 . S
C192 H206 0.929 . S
C193 C192 1.379 . S
C193 C194 1.380 . S
C193 H214 0.929 . S
C194 C193 1.380 . S
C194 C195 1.399 . S
C195 C194 1.399 . S
C195 C196 1.376 . S
C195 H215 0.931 . S
C196 N191 1.338 . S
C196 C195 1.376 . S
C196 H207 0.930 . S
C197 O204 1.239 . S
C197 O205 1.230 . S
O198 Cd162 2.268 . S
O198 C172 1.238 . S
O199 Cd163 2.273 . S
O199 C172 1.253 . S
O200 Cd163 2.268 . S
O200 C189 1.238 . S
O201 Cd162 2.273 . S
O201 C189 1.253 . S
O202 Cd162 2.417 . S
O202 C190 1.239 . S
O203 Cd162 2.330 . S
O203 C190 1.230 . S
O204 Cd163 2.417 . S
O204 C197 1.239 . S
O205 Cd163 2.330 . S
O205 C197 1.230 . S
H206 C192 0.929 . S
H207 C196 0.930 . S
H208 C166 0.931 . S
H209 C168 0.930 . S
H210 C174 0.929 . S
H211 C176 0.931 . S
H212 C183 0.931 . S
H213 C185 0.930 . S
H214 C193 0.929 . S
H215 C195 0.931 . S
C216 C217 1.386 . S
C216 C218 1.383 . S
C216 H232 0.951 . S
C217 C216 1.386 . S
C217 C221 1.383 . S
C218 C216 1.383 . S
C218 C219 1.402 . S
C218 H233 0.951 . S
C219 C218 1.402 . S
C219 C220 1.375 . S
C219 C222 1.481 . S
C220 C219 1.375 . S
C220 C221 1.367 . S
C220 H234 0.951 . S
C221 C217 1.383 . S
C221 C220 1.367 . S
C221 H235 0.950 . S
C222 C219 1.481 . S
C222 C223 1.297 . S
C222 H236 0.950 . S
C223 C222 1.297 . S
C223 C224 1.479 . S
C223 H237 0.950 . S
C224 C223 1.479 . S
C224 C225 1.375 . S
C224 C230 1.404 . S
C225 C224 1.375 . S
C225 C226 1.369 . S
C225 H238 0.950 . S
C226 C225 1.369 . S
C226 C227 1.392 . S
C226 H239 0.951 . S
C227 C226 1.392 . S
C227 C229 1.384 . S
H228 C230 0.949 . S
C229 C227 1.384 . S
C229 C230 1.385 . S
C229 H231 0.950 . S
C230 C224 1.404 . S
C230 H228 0.949 . S
C230 C229 1.385 . S
H231 C229 0.950 . S
H232 C216 0.951 . S
H233 C218 0.951 . S
H234 C220 0.951 . S
H235 C221 0.950 . S
H236 C222 0.950 . S
H237 C223 0.950 . S
H238 C225 0.950 . S
H239 C226 0.951 . S
C240 C241 1.386 . S
C240 C242 1.383 . S
C240 H256 0.951 . S
C241 C240 1.386 . S
C241 C245 1.383 . S
C242 C240 1.383 . S
C242 C243 1.402 . S
C242 H257 0.951 . S
C243 C242 1.402 . S
C243 C244 1.375 . S
C243 C246 1.481 . S
C244 C243 1.375 . S
C244 C245 1.367 . S
C244 H258 0.951 . S
C245 C241 1.383 . S
C245 C244 1.367 . S
C245 H259 0.950 . S
C246 C243 1.481 . S
C246 C247 1.297 . S
C246 H260 0.950 . S
C247 C246 1.297 . S
C247 C248 1.479 . S
C247 H261 0.950 . S
C248 C247 1.479 . S
C248 C249 1.375 . S
C248 C254 1.404 . S
C249 C248 1.375 . S
C249 C250 1.369 . S
C249 H262 0.950 . S
C250 C249 1.369 . S
C250 C251 1.392 . S
C250 H263 0.951 . S
C251 C250 1.392 . S
C251 C253 1.384 . S
H252 C254 0.949 . S
C253 C251 1.384 . S
C253 C254 1.385 . S
C253 H255 0.950 . S
C254 C248 1.404 . S
C254 H252 0.949 . S
C254 C253 1.385 . S
H255 C253 0.950 . S
H256 C240 0.951 . S
H257 C242 0.951 . S
H258 C244 0.951 . S
H259 C245 0.950 . S
H260 C246 0.950 . S
H261 C247 0.950 . S
H262 C249 0.950 . S
H263 C250 0.951 . S
C264 C265 1.386 . S
C264 C266 1.383 . S
C264 H280 0.951 . S
C265 C264 1.386 . S
C265 C269 1.383 . S
C266 C264 1.383 . S
C266 C267 1.402 . S
C266 H281 0.951 . S
C267 C266 1.402 . S
C267 C268 1.375 . S
C267 C270 1.481 . S
C268 C267 1.375 . S
C268 C269 1.367 . S
C268 H282 0.951 . S
C269 C265 1.383 . S
C269 C268 1.367 . S
C269 H283 0.950 . S
C270 C267 1.481 . S
C270 C271 1.297 1_556 S
C270 H284 0.950 1_556 S
C271 C270 1.297 1_554 S
C271 C272 1.479 . S
C271 H285 0.950 1_554 S
C272 C271 1.479 . S
C272 C273 1.375 . S
C272 C278 1.404 . S
C273 C272 1.375 . S
C273 C274 1.369 . S
C273 H286 0.950 . S
C274 C273 1.369 . S
C274 C275 1.392 . S
C274 H287 0.951 . S
C275 C274 1.392 . S
C275 C277 1.384 . S
H276 C278 0.949 . S
C277 C275 1.384 . S
C277 C278 1.385 . S
C277 H279 0.950 . S
C278 C272 1.404 . S
C278 H276 0.949 . S
C278 C277 1.385 . S
H279 C277 0.950 . S
H280 C264 0.951 . S
H281 C266 0.951 . S
H282 C268 0.951 . S
H283 C269 0.950 . S
H284 C270 0.950 1_554 S
H285 C271 0.950 1_556 S
H286 C273 0.950 . S
H287 C274 0.951 . S
C288 C289 1.386 . S
C288 C290 1.383 . S
C288 H304 0.951 . S
C289 C288 1.386 . S
C289 C293 1.383 . S
C290 C288 1.383 . S
C290 C291 1.402 . S
C290 H305 0.951 . S
C291 C290 1.402 . S
C291 C292 1.375 . S
C291 C294 1.481 . S
C292 C291 1.375 . S
C292 C293 1.367 . S
C292 H306 0.951 . S
C293 C289 1.383 . S
C293 C292 1.367 . S
C293 H307 0.950 . S
C294 C291 1.481 . S
C294 C295 1.297 . S
C294 H308 0.950 . S
C295 C294 1.297 . S
C295 C296 1.479 . S
C295 H309 0.950 . S
C296 C295 1.479 . S
C296 C297 1.375 . S
C296 C302 1.404 . S
C297 C296 1.375 . S
C297 C298 1.369 . S
C297 H310 0.950 . S
C298 C297 1.369 . S
C298 C299 1.392 . S
C298 H311 0.951 . S
C299 C298 1.392 . S
C299 C301 1.384 . S
H300 C302 0.949 . S
C301 C299 1.384 . S
C301 C302 1.385 . S
C301 H303 0.950 . S
C302 C296 1.404 . S
C302 H300 0.949 . S
C302 C301 1.385 . S
H303 C301 0.950 . S
H304 C288 0.951 . S
H305 C290 0.951 . S
H306 C292 0.951 . S
H307 C293 0.950 . S
H308 C294 0.950 . S
H309 C295 0.950 . S
H310 C297 0.950 . S
H311 C298 0.951 . S
C312 C313 1.386 . S
C312 C314 1.383 . S
C312 H328 0.951 . S
C313 C312 1.386 . S
C313 C317 1.383 . S
C314 C312 1.383 . S
C314 C315 1.402 . S
C314 H329 0.951 . S
C315 C314 1.402 . S
C315 C316 1.375 . S
C315 C318 1.481 . S
C316 C315 1.375 . S
C316 C317 1.367 . S
C316 H330 0.951 . S
C317 C313 1.383 . S
C317 C316 1.367 . S
C317 H331 0.950 . S
C318 C315 1.481 . S
C318 C319 1.297 . S
C318 H332 0.950 . S
C319 C318 1.297 . S
C319 C320 1.479 . S
C319 H333 0.950 . S
C320 C319 1.479 . S
C320 C321 1.375 . S
C320 C326 1.404 . S
C321 C320 1.375 . S
C321 C322 1.369 . S
C321 H334 0.950 . S
C322 C321 1.369 . S
C322 C323 1.392 . S
C322 H335 0.951 . S
C323 C322 1.392 . S
C323 C325 1.384 . S
H324 C326 0.949 . S
C325 C323 1.384 . S
C325 C326 1.385 . S
C325 H327 0.950 . S
C326 C320 1.404 . S
C326 H324 0.949 . S
C326 C325 1.385 . S
H327 C325 0.950 . S
H328 C312 0.951 . S
H329 C314 0.951 . S
H330 C316 0.951 . S
H331 C317 0.950 . S
H332 C318 0.950 . S
H333 C319 0.950 . S
H334 C321 0.950 . S
H335 C322 0.951 . S
C336 C337 1.386 . S
C336 C338 1.383 . S
C336 H352 0.951 . S
C337 C336 1.386 . S
C337 C341 1.383 . S
C338 C336 1.383 . S
C338 C339 1.402 . S
C338 H353 0.951 . S
C339 C338 1.402 . S
C339 C340 1.375 . S
C339 C342 1.481 . S
C340 C339 1.375 . S
C340 C341 1.367 . S
C340 H354 0.951 . S
C341 C337 1.383 . S
C341 C340 1.367 . S
C341 H355 0.950 . S
C342 C339 1.481 . S
C342 C343 1.297 . S
C342 H356 0.950 . S
C343 C342 1.297 . S
C343 C344 1.479 . S
C343 H357 0.950 . S
C344 C343 1.479 . S
C344 C345 1.375 1_545 S
C344 C350 1.404 1_545 S
C345 C344 1.375 1_565 S
C345 C346 1.369 . S
C345 H358 0.950 . S
C346 C345 1.369 . S
C346 C347 1.392 . S
C346 H359 0.951 . S
C347 C346 1.392 . S
C347 C349 1.384 . S
H348 C350 0.949 1_545 S
C349 C347 1.384 . S
C349 C350 1.385 . S
C349 H351 0.950 . S
C350 C344 1.404 1_565 S
C350 H348 0.949 1_565 S
C350 C349 1.385 . S
H351 C349 0.950 . S
H352 C336 0.951 . S
H353 C338 0.951 . S
H354 C340 0.951 . S
H355 C341 0.950 . S
H356 C342 0.950 . S
H357 C343 0.950 . S
H358 C345 0.950 . S
H359 C346 0.951 . S
C360 C361 1.386 . S
C360 C362 1.383 . S
C360 H376 0.951 . S
C361 C360 1.386 . S
C361 C365 1.383 . S
C362 C360 1.383 . S
C362 C363 1.402 . S
C362 H377 0.951 . S
C363 C362 1.402 . S
C363 C364 1.375 . S
C363 C366 1.481 . S
C364 C363 1.375 . S
C364 C365 1.367 . S
C364 H378 0.951 . S
C365 C361 1.383 . S
C365 C364 1.367 . S
C365 H379 0.950 . S
C366 C363 1.481 . S
C366 C367 1.297 . S
C366 H380 0.950 . S
C367 C366 1.297 . S
C367 C368 1.479 . S
C367 H381 0.950 . S
C368 C367 1.479 . S
C368 C369 1.375 . S
C368 C374 1.404 . S
C369 C368 1.375 . S
C369 C370 1.369 . S
C369 H382 0.950 . S
C370 C369 1.369 . S
C370 C371 1.392 . S
C370 H383 0.951 . S
C371 C370 1.392 . S
C371 C373 1.384 . S
H372 C374 0.949 . S
C373 C371 1.384 . S
C373 C374 1.385 . S
C373 H375 0.950 . S
C374 C368 1.404 . S
C374 H372 0.949 . S
C374 C373 1.385 . S
H375 C373 0.950 . S
H376 C360 0.951 . S
H377 C362 0.951 . S
H378 C364 0.951 . S
H379 C365 0.950 . S
H380 C366 0.950 . S
H381 C367 0.950 . S
H382 C369 0.950 . S
H383 C370 0.951 . S
C384 C385 1.386 . S
C384 C386 1.383 . S
C384 H400 0.951 . S
C385 C384 1.386 . S
C385 C389 1.383 . S
C386 C384 1.383 . S
C386 C387 1.402 . S
C386 H401 0.951 . S
C387 C386 1.402 . S
C387 C388 1.375 . S
C387 C390 1.481 . S
C388 C387 1.375 . S
C388 C389 1.367 . S
C388 H402 0.951 . S
C389 C385 1.383 . S
C389 C388 1.367 . S
C389 H403 0.950 . S
C390 C387 1.481 . S
C390 C391 1.297 . S
C390 H404 0.950 . S
C391 C390 1.297 . S
C391 C392 1.479 . S
C391 H405 0.950 . S
C392 C391 1.479 . S
C392 C393 1.375 1_565 S
C392 C398 1.404 1_565 S
C393 C392 1.375 1_545 S
C393 C394 1.369 . S
C393 H406 0.950 . S
C394 C393 1.369 . S
C394 C395 1.392 . S
C394 H407 0.951 . S
C395 C394 1.392 . S
C395 C397 1.384 . S
H396 C398 0.949 1_565 S
C397 C395 1.384 . S
C397 C398 1.385 . S
C397 H399 0.950 . S
C398 C392 1.404 1_545 S
C398 H396 0.949 1_545 S
C398 C397 1.385 . S
H399 C397 0.950 . S
H400 C384 0.951 . S
H401 C386 0.951 . S
H402 C388 0.951 . S
H403 C389 0.950 . S
H404 C390 0.950 . S
H405 C391 0.950 . S
H406 C393 0.950 . S
H407 C394 0.951 . S
C408 C409 1.386 . S
C408 C410 1.383 . S
C408 H424 0.951 . S
C409 C408 1.386 . S
C409 C413 1.383 . S
C410 C408 1.383 . S
C410 C411 1.402 1_655 S
C410 H425 0.951 1_655 S
C411 C410 1.402 1_455 S
C411 C412 1.375 1_455 S
C411 C414 1.481 . S
C412 C411 1.375 1_655 S
C412 C413 1.367 . S
C412 H426 0.951 . S
C413 C409 1.383 . S
C413 C412 1.367 . S
C413 H427 0.950 . S
C414 C411 1.481 . S
C414 C415 1.297 . S
C414 H428 0.950 . S
C415 C414 1.297 . S
C415 C416 1.479 . S
C415 H429 0.950 . S
C416 C415 1.479 . S
C416 C417 1.375 . S
C416 C422 1.404 . S
C417 C416 1.375 . S
C417 C418 1.369 . S
C417 H430 0.950 . S
C418 C417 1.369 . S
C418 C419 1.392 . S
C418 H431 0.951 . S
C419 C418 1.392 . S
C419 C421 1.384 . S
H420 C422 0.949 . S
C421 C419 1.384 . S
C421 C422 1.385 . S
C421 H423 0.950 . S
C422 C416 1.404 . S
C422 H420 0.949 . S
C422 C421 1.385 . S
H423 C421 0.950 . S
H424 C408 0.951 . S
H425 C410 0.951 1_455 S
H426 C412 0.951 . S
H427 C413 0.950 . S
H428 C414 0.950 . S
H429 C415 0.950 . S
H430 C417 0.950 . S
H431 C418 0.951 . S
C432 C433 1.386 . S
C432 C434 1.383 . S
C432 H448 0.951 . S
C433 C432 1.386 . S
C433 C437 1.383 . S
C434 C432 1.383 . S
C434 C435 1.402 . S
C434 H449 0.951 . S
C435 C434 1.402 . S
C435 C436 1.375 . S
C435 C438 1.481 . S
C436 C435 1.375 . S
C436 C437 1.367 . S
C436 H450 0.951 . S
C437 C433 1.383 . S
C437 C436 1.367 . S
C437 H451 0.950 . S
C438 C435 1.481 . S
C438 C439 1.297 . S
C438 H452 0.950 . S
C439 C438 1.297 . S
C439 C440 1.479 . S
C439 H453 0.950 . S
C440 C439 1.479 . S
C440 C441 1.375 . S
C440 C446 1.404 . S
C441 C440 1.375 . S
C441 C442 1.369 . S
C441 H454 0.950 . S
C442 C441 1.369 . S
C442 C443 1.392 . S
C442 H455 0.951 . S
C443 C442 1.392 . S
C443 C445 1.384 . S
H444 C446 0.949 . S
C445 C443 1.384 . S
C445 C446 1.385 . S
C445 H447 0.950 . S
C446 C440 1.404 . S
C446 H444 0.949 . S
C446 C445 1.385 . S
H447 C445 0.950 . S
H448 C432 0.951 . S
H449 C434 0.951 . S
H450 C436 0.951 . S
H451 C437 0.950 . S
H452 C438 0.950 . S
H453 C439 0.950 . S
H454 C441 0.950 . S
H455 C442 0.951 . S
C456 C457 1.386 . S
C456 C458 1.383 . S
C456 H472 0.951 . S
C457 C456 1.386 . S
C457 C461 1.383 . S
C458 C456 1.383 . S
C458 C459 1.402 . S
C458 H473 0.951 . S
C459 C458 1.402 . S
C459 C460 1.375 . S
C459 C462 1.481 . S
C460 C459 1.375 . S
C460 C461 1.367 . S
C460 H474 0.951 . S
C461 C457 1.383 . S
C461 C460 1.367 . S
C461 H475 0.950 . S
C462 C459 1.481 . S
C462 C463 1.297 . S
C462 H476 0.950 . S
C463 C462 1.297 . S
C463 C464 1.479 . S
C463 H477 0.950 . S
C464 C463 1.479 . S
C464 C465 1.375 1_655 S
C464 C470 1.404 . S
C465 C464 1.375 1_455 S
C465 C466 1.369 . S
C465 H478 0.950 . S
C466 C465 1.369 . S
C466 C467 1.392 . S
C466 H479 0.951 . S
C467 C466 1.392 . S
C467 C469 1.384 . S
H468 C470 0.949 . S
C469 C467 1.384 . S
C469 C470 1.385 1_455 S
C469 H471 0.950 . S
C470 C464 1.404 . S
C470 H468 0.949 . S
C470 C469 1.385 1_655 S
H471 C469 0.950 . S
H472 C456 0.951 . S
H473 C458 0.951 . S
H474 C460 0.951 . S
H475 C461 0.950 . S
H476 C462 0.950 . S
H477 C463 0.950 . S
H478 C465 0.950 . S
H479 C466 0.951 . S
C480 C481 1.386 . S
C480 C482 1.383 . S
C480 H496 0.951 . S
C481 C480 1.386 . S
C481 C485 1.383 . S
C482 C480 1.383 . S
C482 C483 1.402 . S
C482 H497 0.951 . S
C483 C482 1.402 . S
C483 C484 1.375 . S
C483 C486 1.481 . S
C484 C483 1.375 . S
C484 C485 1.367 . S
C484 H498 0.951 . S
C485 C481 1.383 . S
C485 C484 1.367 . S
C485 H499 0.950 . S
C486 C483 1.481 . S
C486 C487 1.297 . S
C486 H500 0.950 . S
C487 C486 1.297 . S
C487 C488 1.479 . S
C487 H501 0.950 . S
C488 C487 1.479 . S
C488 C489 1.375 . S
C488 C494 1.404 . S
C489 C488 1.375 . S
C489 C490 1.369 . S
C489 H502 0.950 . S
C490 C489 1.369 . S
C490 C491 1.392 . S
C490 H503 0.951 . S
C491 C490 1.392 . S
C491 C493 1.384 . S
H492 C494 0.949 . S
C493 C491 1.384 . S
C493 C494 1.385 . S
C493 H495 0.950 . S
C494 C488 1.404 . S
C494 H492 0.949 . S
C494 C493 1.385 . S
H495 C493 0.950 . S
H496 C480 0.951 . S
H497 C482 0.951 . S
H498 C484 0.951 . S
H499 C485 0.950 . S
H500 C486 0.950 . S
H501 C487 0.950 . S
H502 C489 0.950 . S
H503 C490 0.951 . S
C504 C505 1.386 . S
C504 C506 1.383 . S
C504 H520 0.951 . S
C505 C504 1.386 . S
C505 C509 1.383 . S
C506 C504 1.383 . S
C506 C507 1.402 . S
C506 H521 0.951 1_455 S
C507 C506 1.402 . S
C507 C508 1.375 . S
C507 C510 1.481 . S
C508 C507 1.375 . S
C508 C509 1.367 . S
C508 H522 0.951 . S
C509 C505 1.383 . S
C509 C508 1.367 . S
C509 H523 0.950 . S
C510 C507 1.481 . S
C510 C511 1.296 1_445 S
C510 H524 0.950 1_545 S
C511 C510 1.296 1_665 S
C511 C512 1.484 . S
C511 H525 0.947 1_565 S
C512 C511 1.484 . S
C512 C513 1.375 . S
C512 C518 1.415 . S
C513 C512 1.375 . S
C513 C514 1.369 . S
C513 H526 0.950 . S
C514 C513 1.369 . S
C514 C515 1.392 . S
C514 H527 0.951 . S
C515 C514 1.392 . S
C515 C517 1.384 . S
H516 C518 0.929 1_455 S
C517 C515 1.384 . S
C517 C518 1.393 . S
C517 H519 0.950 . S
C518 C512 1.415 . S
C518 H516 0.929 1_655 S
C518 C517 1.393 . S
H519 C517 0.950 . S
H520 C504 0.951 . S
H521 C506 0.951 1_655 S
H522 C508 0.951 . S
H523 C509 0.950 . S
H524 C510 0.950 1_565 S
H525 C511 0.947 1_545 S
H526 C513 0.950 . S
H527 C514 0.951 . S
C528 C529 1.386 . S
C528 C530 1.383 . S
C528 H544 0.951 . S
C529 C528 1.386 . S
C529 C533 1.383 . S
C530 C528 1.383 . S
C530 C531 1.402 . S
C530 H545 0.951 . S
C531 C530 1.402 . S
C531 C532 1.375 . S
C531 C534 1.481 . S
C532 C531 1.375 . S
C532 C533 1.367 . S
C532 H546 0.951 . S
C533 C529 1.383 . S
C533 C532 1.367 . S
C533 H547 0.950 . S
C534 C531 1.481 . S
C534 C535 1.297 . S
C534 H548 0.950 . S
C535 C534 1.297 . S
C535 C536 1.479 . S
C535 H549 0.950 . S
C536 C535 1.479 . S
C536 C537 1.375 . S
C536 C542 1.404 . S
C537 C536 1.375 . S
C537 C538 1.369 . S
C537 H550 0.950 . S
C538 C537 1.369 . S
C538 C539 1.392 . S
C538 H551 0.951 . S
C539 C538 1.392 . S
C539 C541 1.384 . S
H540 C542 0.949 . S
C541 C539 1.384 . S
C541 C542 1.385 . S
C541 H543 0.950 . S
C542 C536 1.404 . S
C542 H540 0.949 . S
C542 C541 1.385 . S
H543 C541 0.950 . S
H544 C528 0.951 . S
H545 C530 0.951 . S
H546 C532 0.951 . S
H547 C533 0.950 . S
H548 C534 0.950 . S
H549 C535 0.950 . S
H550 C537 0.950 . S
H551 C538 0.951 . S
C552 C553 1.386 . S
C552 C554 1.383 . S
C552 H568 0.951 . S
C553 C552 1.386 . S
C553 C557 1.383 . S
C554 C552 1.383 . S
C554 C555 1.402 . S
C554 H569 0.951 1_455 S
C555 C554 1.402 . S
C555 C556 1.375 . S
C555 C558 1.480 1_545 S
C556 C555 1.375 . S
C556 C557 1.367 . S
C556 H570 0.951 1_545 S
C557 C553 1.383 . S
C557 C556 1.367 . S
C557 H571 0.950 . S
C558 C555 1.480 1_565 S
C558 C559 1.299 1_465 S
C558 H572 0.949 . S
C559 C558 1.299 1_645 S
C559 C560 1.479 1_545 S
C559 H573 0.950 . S
C560 C559 1.479 1_565 S
C560 C561 1.375 . S
C560 C566 1.404 . S
C561 C560 1.375 . S
C561 C562 1.369 . S
C561 H574 0.950 1_565 S
C562 C561 1.369 . S
C562 C563 1.392 . S
C562 H575 0.951 . S
C563 C562 1.392 . S
C563 C565 1.384 . S
H564 C566 0.949 . S
C565 C563 1.384 . S
C565 C566 1.385 . S
C565 H567 0.950 . S
C566 C560 1.404 . S
C566 H564 0.949 . S
C566 C565 1.385 . S
H567 C565 0.950 . S
H568 C552 0.951 . S
H569 C554 0.951 1_655 S
H570 C556 0.951 1_565 S
H571 C557 0.950 . S
H572 C558 0.949 . S
H573 C559 0.950 . S
H574 C561 0.950 1_545 S
H575 C562 0.951 . S
C576 C577 1.386 . S
C576 C578 1.383 . S
C576 H592 0.951 . S
C577 C576 1.386 . S
C577 C581 1.383 . S
C578 C576 1.383 . S
C578 C579 1.402 . S
C578 H593 0.951 . S
C579 C578 1.402 . S
C579 C580 1.375 . S
C579 C582 1.481 . S
C580 C579 1.375 . S
C580 C581 1.367 . S
C580 H594 0.951 . S
C581 C577 1.383 . S
C581 C580 1.367 . S
C581 H595 0.950 . S
C582 C579 1.481 . S
C582 C583 1.297 1_554 S
C582 H596 0.950 . S
C583 C582 1.297 1_556 S
C583 C584 1.479 . S
C583 H597 0.950 . S
C584 C583 1.479 . S
C584 C585 1.375 . S
C584 C590 1.404 . S
C585 C584 1.375 . S
C585 C586 1.369 . S
C585 H598 0.950 . S
C586 C585 1.369 . S
C586 C587 1.392 . S
C586 H599 0.951 . S
C587 C586 1.392 . S
C587 C589 1.384 . S
H588 C590 0.949 . S
C589 C587 1.384 . S
C589 C590 1.385 . S
C589 H591 0.950 . S
C590 C584 1.404 . S
C590 H588 0.949 . S
C590 C589 1.385 . S
H591 C589 0.950 . S
H592 C576 0.951 . S
H593 C578 0.951 . S
H594 C580 0.951 . S
H595 C581 0.950 . S
H596 C582 0.950 . S
H597 C583 0.950 . S
H598 C585 0.950 . S
H599 C586 0.951 . S
C217 C28 0.881 . S
C227 C35 0.869 . S
C241 C82 0.866 . S
C251 C89 0.892 1_556 S
C265 C143 0.881 . S
C275 C136 0.870 . S
C289 C197 0.862 1_554 S
C299 C190 0.850 . S
C313 C189 2.329 . S
C323 C22 2.345 . S
C337 C76 2.314 . S
C347 C10 2.364 . S
C361 C113 2.313 . S
C371 C64 2.373 . S
C385 C167 2.314 . S
C395 C135 2.373 . S
C409 C27 2.351 . S
C419 C184 2.306 . S
C433 C81 2.363 . S
C443 C5 2.288 . S
C457 C59 2.326 . S
C467 C118 2.357 . S
C481 C130 2.335 . S
C491 C172 2.328 . S
C505 C140 0.524 . S
C515 C32 0.730 . S
C529 C86 0.550 . S
C539 C194 0.617 . S
C553 C121 0.696 . S
C563 C13 0.454 . S
C577 C67 0.719 . S
C587 C175 0.622 . S
