# Generated by pormake.
# Topology uoq, (4)-cn, num edge types: 1
# Building blocks:
#     Node 0, Type 0, BuildingBlock: KUFVIS_clean_sbu_0, # of connection points: 4
#     Node 1, Type 0, BuildingBlock: KUFVIS_clean_sbu_0, # of connection points: 4
#     Node 2, Type 0, BuildingBlock: KUFVIS_clean_sbu_0, # of connection points: 4
#     Node 3, Type 0, BuildingBlock: KUFVIS_clean_sbu_0, # of connection points: 4
#     Node 4, Type 0, BuildingBlock: KUFVIS_clean_sbu_0, # of connection points: 4
#     Node 5, Type 0, BuildingBlock: KUFVIS_clean_sbu_0, # of connection points: 4
#     Node 6, Type 0, BuildingBlock: KUFVIS_clean_sbu_0, # of connection points: 4
#     Node 7, Type 0, BuildingBlock: KUFVIS_clean_sbu_0, # of connection points: 4
#     Node 8, Type 0, BuildingBlock: KUFVIS_clean_sbu_0, # of connection points: 4
#     Node 9, Type 0, BuildingBlock: KUFVIS_clean_sbu_0, # of connection points: 4
#     Node 10, Type 0, BuildingBlock: KUFVIS_clean_sbu_0, # of connection points: 4
#     Node 11, Type 0, BuildingBlock: KUFVIS_clean_sbu_0, # of connection points: 4
#     Edge 12, Type (0, 0), BuildingBlock: MIFKUJ_clean_linker_0, # of connection points: 2
#     Edge 13, Type (0, 0), BuildingBlock: MIFKUJ_clean_linker_0, # of connection points: 2
#     Edge 14, Type (0, 0), BuildingBlock: MIFKUJ_clean_linker_0, # of connection points: 2
#     Edge 15, Type (0, 0), BuildingBlock: MIFKUJ_clean_linker_0, # of connection points: 2
#     Edge 16, Type (0, 0), BuildingBlock: MIFKUJ_clean_linker_0, # of connection points: 2
#     Edge 17, Type (0, 0), BuildingBlock: MIFKUJ_clean_linker_0, # of connection points: 2
#     Edge 18, Type (0, 0), BuildingBlock: MIFKUJ_clean_linker_0, # of connection points: 2
#     Edge 19, Type (0, 0), BuildingBlock: MIFKUJ_clean_linker_0, # of connection points: 2
#     Edge 20, Type (0, 0), BuildingBlock: MIFKUJ_clean_linker_0, # of connection points: 2
#     Edge 21, Type (0, 0), BuildingBlock: MIFKUJ_clean_linker_0, # of connection points: 2
#     Edge 22, Type (0, 0), BuildingBlock: MIFKUJ_clean_linker_0, # of connection points: 2
#     Edge 23, Type (0, 0), BuildingBlock: MIFKUJ_clean_linker_0, # of connection points: 2
#     Edge 24, Type (0, 0), BuildingBlock: MIFKUJ_clean_linker_0, # of connection points: 2
#     Edge 25, Type (0, 0), BuildingBlock: MIFKUJ_clean_linker_0, # of connection points: 2
#     Edge 26, Type (0, 0), BuildingBlock: MIFKUJ_clean_linker_0, # of connection points: 2
#     Edge 27, Type (0, 0), BuildingBlock: MIFKUJ_clean_linker_0, # of connection points: 2
#     Edge 28, Type (0, 0), BuildingBlock: MIFKUJ_clean_linker_0, # of connection points: 2
#     Edge 29, Type (0, 0), BuildingBlock: MIFKUJ_clean_linker_0, # of connection points: 2
#     Edge 30, Type (0, 0), BuildingBlock: MIFKUJ_clean_linker_0, # of connection points: 2
#     Edge 31, Type (0, 0), BuildingBlock: MIFKUJ_clean_linker_0, # of connection points: 2
#     Edge 32, Type (0, 0), BuildingBlock: MIFKUJ_clean_linker_0, # of connection points: 2
#     Edge 33, Type (0, 0), BuildingBlock: MIFKUJ_clean_linker_0, # of connection points: 2
#     Edge 34, Type (0, 0), BuildingBlock: MIFKUJ_clean_linker_0, # of connection points: 2
#     Edge 35, Type (0, 0), BuildingBlock: MIFKUJ_clean_linker_0, # of connection points: 2
# Relax obj value: 0.147
# Max RMSD: 0.133
# Mean RMSD: 0.133
data_MOF--net-uoq--node1-KUFVIS_clean_sbu_0--edge1-MIFKUJ_clean_linker_0
_symmetry_space_group_name_H-M    P1
_symmetry_Int_Tables_number       1
_symmetry_cell_setting            triclinic
loop_
_symmetry_equiv_pos_as_xyz
'x, y, z'
_cell_length_a     76.508036
_cell_length_b     76.509154
_cell_length_c     29.031653
_cell_angle_alpha  90.035206
_cell_angle_beta   89.909316
_cell_angle_gamma 119.97361
loop_
_atom_site_label
_atom_site_type_symbol
_atom_site_fract_x
_atom_site_fract_y
_atom_site_fract_z
_atom_type_partial_charge
Mn0 Mn 0.30588 0.45138 0.25078 0.0
Mn1 Mn 0.313 0.44101 0.36055 0.0
C2 C 0.2899 0.45732 0.31169 0.0
C3 C 0.28795 0.4424 0.18095 0.0
C4 C 0.34378 0.4779 0.30789 0.0
O5 O 0.31826 0.4331 0.2417 0.0
O6 O 0.31994 0.4258 0.31651 0.0
C7 C 0.28089 0.39811 0.36401 0.0
N8 N 0.28963 0.41711 0.38168 0.0
C9 C 0.26578 0.40612 0.44421 0.0
C10 C 0.25659 0.38639 0.42682 0.0
C11 C 0.26413 0.38239 0.38644 0.0
C12 C 0.28239 0.42116 0.42027 0.0
H13 H 0.28673 0.39498 0.33314 0.0
C14 C 0.32216 0.42393 0.27348 0.0
O15 O 0.30642 0.45721 0.18345 0.0
O16 O 0.28041 0.43191 0.2182 0.0
N17 N 0.30686 0.45466 0.40756 0.0
C18 C 0.31709 0.4746 0.41897 0.0
C19 C 0.31146 0.48116 0.45857 0.0
C20 C 0.29556 0.46713 0.48628 0.0
C21 C 0.28526 0.44669 0.47387 0.0
C22 C 0.29169 0.44102 0.43432 0.0
H23 H 0.32952 0.48541 0.39817 0.0
O24 O 0.29235 0.4665 0.2727 0.0
O25 O 0.29659 0.44474 0.31395 0.0
O26 O 0.33342 0.47473 0.27122 0.0
O27 O 0.33772 0.46602 0.34253 0.0
C28 C 0.26879 0.43175 0.49899 0.0
C29 C 0.25898 0.4115 0.48402 0.0
H30 H 0.24367 0.37422 0.44405 0.0
H31 H 0.25711 0.36721 0.37278 0.0
H32 H 0.31946 0.49696 0.46792 0.0
H33 H 0.29141 0.47221 0.51705 0.0
H34 H 0.26337 0.43573 0.52952 0.0
H35 H 0.24617 0.40019 0.50327 0.0
Mn36 Mn 0.85672 0.30226 0.58482 0.0
Mn37 Mn 0.86977 0.30805 0.69762 0.0
C38 C 0.83211 0.28841 0.64166 0.0
C39 C 0.84879 0.2836 0.51588 0.0
C40 C 0.87036 0.34124 0.63904 0.0
O41 O 0.88715 0.31172 0.58287 0.0
O42 O 0.89256 0.31133 0.65935 0.0
C43 C 0.87376 0.27178 0.70978 0.0
N44 N 0.86554 0.2832 0.72298 0.0
C45 C 0.84772 0.26061 0.78561 0.0
C46 C 0.85618 0.24872 0.77299 0.0
C47 C 0.86917 0.25428 0.73476 0.0
C48 C 0.85281 0.27784 0.75931 0.0
H49 H 0.88366 0.27598 0.6803 0.0
C50 C 0.89838 0.31346 0.61735 0.0
O51 O 0.85444 0.30268 0.516 0.0
O52 O 0.84924 0.27583 0.55523 0.0
N53 N 0.84907 0.30522 0.73918 0.0
C54 C 0.84141 0.31777 0.74536 0.0
C55 C 0.828 0.31422 0.78191 0.0
C56 C 0.82276 0.29797 0.81198 0.0
C57 C 0.83078 0.28523 0.8049 0.0
C58 C 0.84425 0.28964 0.76819 0.0
H59 H 0.84561 0.33047 0.72279 0.0
O60 O 0.82752 0.29144 0.60063 0.0
O61 O 0.85077 0.29327 0.64806 0.0
O62 O 0.86313 0.33089 0.60232 0.0
O63 O 0.87421 0.33436 0.67535 0.0
C64 C 0.82583 0.26825 0.83259 0.0
C65 C 0.83419 0.25587 0.82275 0.0
H66 H 0.85265 0.2352 0.79213 0.0
H67 H 0.87563 0.2451 0.72459 0.0
H68 H 0.82184 0.3241 0.78712 0.0
H69 H 0.81258 0.29543 0.8404 0.0
H70 H 0.81539 0.2644 0.86111 0.0
H71 H 0.82999 0.24265 0.84376 0.0
Mn72 Mn 0.55518 0.85613 0.91966 0.0
Mn73 Mn 0.56042 0.86605 0.03417 0.0
C74 C 0.54332 0.83008 0.97332 0.0
C75 C 0.56675 0.84923 0.85041 0.0
C76 C 0.52875 0.86822 0.97516 0.0
O77 O 0.57653 0.88648 0.92181 0.0
O78 O 0.58018 0.88992 0.99913 0.0
C79 C 0.60068 0.86999 0.04606 0.0
N80 N 0.58097 0.86153 0.05879 0.0
C81 C 0.58541 0.84269 0.11949 0.0
C82 C 0.60585 0.85146 0.10752 0.0
C83 C 0.61348 0.86506 0.07042 0.0
C84 C 0.57338 0.84808 0.09374 0.0
H85 H 0.60651 0.8803 0.01736 0.0
C86 C 0.58498 0.89685 0.95815 0.0
O87 O 0.55364 0.85532 0.85046 0.0
O88 O 0.57428 0.84881 0.89007 0.0
N89 N 0.54229 0.84428 0.07308 0.0
C90 C 0.52201 0.83631 0.07848 0.0
C91 C 0.51195 0.82234 0.11394 0.0
C92 C 0.52286 0.81686 0.14373 0.0
C93 C 0.54368 0.82512 0.13729 0.0
C94 C 0.55292 0.83914 0.1017 0.0
H95 H 0.51359 0.8407 0.05619 0.0
O96 O 0.53623 0.82661 0.93176 0.0
O97 O 0.55708 0.84849 0.98214 0.0
O98 O 0.53301 0.86271 0.93716 0.0
O99 O 0.53853 0.87051 0.01243 0.0
C100 C 0.55562 0.81994 0.16465 0.0
C101 C 0.57643 0.82856 0.15545 0.0
H102 H 0.61577 0.8477 0.12622 0.0
H103 H 0.62918 0.87173 0.06065 0.0
H104 H 0.49587 0.81596 0.11859 0.0
H105 H 0.51507 0.8063 0.17143 0.0
H106 H 0.5489 0.80912 0.19241 0.0
H107 H 0.58536 0.82413 0.17608 0.0
Mn108 Mn 0.7008 0.55586 0.25055 0.0
Mn109 Mn 0.68892 0.56495 0.35712 0.0
C110 C 0.71437 0.54967 0.31626 0.0
C111 C 0.72128 0.56555 0.18387 0.0
C112 C 0.66051 0.52891 0.29903 0.0
O113 O 0.68866 0.57423 0.23756 0.0
O114 O 0.68463 0.58129 0.31124 0.0
C115 C 0.72043 0.60764 0.36945 0.0
N116 N 0.71119 0.58811 0.38398 0.0
C117 C 0.72891 0.59772 0.45607 0.0
C118 C 0.73866 0.61796 0.44198 0.0
C119 C 0.7346 0.6229 0.3982 0.0
C120 C 0.71561 0.5831 0.42519 0.0
H121 H 0.71677 0.61154 0.3365 0.0
C122 C 0.68396 0.58345 0.26781 0.0
O123 O 0.70277 0.55079 0.18349 0.0
O124 O 0.72751 0.57555 0.22218 0.0
N125 N 0.69223 0.54998 0.40565 0.0
C126 C 0.68071 0.52991 0.4152 0.0
C127 C 0.68344 0.52238 0.45703 0.0
C128 C 0.69734 0.53567 0.48942 0.0
C129 C 0.70841 0.55637 0.47961 0.0
C130 C 0.70557 0.56291 0.43669 0.0
H131 H 0.66954 0.51969 0.3911 0.0
O132 O 0.71378 0.54091 0.27754 0.0
O133 O 0.70736 0.56195 0.31531 0.0
O134 O 0.67258 0.53207 0.2656 0.0
O135 O 0.66498 0.54069 0.33352 0.0
C136 C 0.72144 0.57086 0.51155 0.0
C137 C 0.73135 0.59152 0.50008 0.0
H138 H 0.7492 0.62982 0.46457 0.0
H139 H 0.74201 0.63849 0.3871 0.0
H140 H 0.67458 0.50643 0.46464 0.0
H141 H 0.6991 0.52988 0.52208 0.0
H142 H 0.7236 0.56631 0.54542 0.0
H143 H 0.74066 0.60255 0.52563 0.0
Mn144 Mn 0.15142 0.70137 0.60427 0.0
Mn145 Mn 0.12865 0.69166 0.70902 0.0
C146 C 0.17072 0.712 0.67153 0.0
C147 C 0.165 0.72151 0.53764 0.0
C148 C 0.13491 0.66104 0.65681 0.0
O149 O 0.12209 0.69274 0.58694 0.0
O150 O 0.10952 0.68643 0.65884 0.0
C151 C 0.12012 0.72539 0.70519 0.0
N152 N 0.1279 0.71522 0.72777 0.0
C153 C 0.1362 0.73696 0.79372 0.0
C154 C 0.12814 0.7476 0.77137 0.0
C155 C 0.12019 0.74186 0.72676 0.0
C156 C 0.13601 0.72091 0.77013 0.0
H157 H 0.11392 0.72097 0.67103 0.0
C158 C 0.10752 0.68699 0.61549 0.0
O159 O 0.15909 0.70239 0.53779 0.0
O160 O 0.16222 0.72878 0.5756 0.0
N161 N 0.14436 0.69564 0.76293 0.0
C162 C 0.15118 0.68354 0.77989 0.0
C163 C 0.15861 0.68651 0.82497 0.0
C164 C 0.15881 0.70179 0.85217 0.0
C165 C 0.15194 0.71418 0.83398 0.0
C166 C 0.14425 0.71019 0.78922 0.0
H167 H 0.15058 0.67147 0.75947 0.0
O168 O 0.17837 0.71043 0.63296 0.0
O169 O 0.15216 0.70833 0.66967 0.0
O170 O 0.14261 0.67185 0.62075 0.0
O171 O 0.12938 0.66706 0.69215 0.0
C172 C 0.15202 0.73005 0.85884 0.0
C173 C 0.14436 0.7416 0.83849 0.0
H174 H 0.12801 0.7602 0.78808 0.0
H175 H 0.114 0.75003 0.70919 0.0
H176 H 0.16369 0.67673 0.839 0.0
H177 H 0.16374 0.70357 0.88736 0.0
H178 H 0.158 0.73354 0.89352 0.0
H179 H 0.14465 0.75387 0.85773 0.0
Mn180 Mn 0.44625 0.1469 0.92605 0.0
Mn181 Mn 0.43791 0.12877 0.03535 0.0
C182 C 0.45309 0.16835 0.98854 0.0
C183 C 0.43638 0.15641 0.85812 0.0
C184 C 0.47386 0.13534 0.97802 0.0
O185 O 0.42771 0.11624 0.91654 0.0
O186 O 0.42198 0.10691 0.99144 0.0
C187 C 0.395 0.1175 0.04466 0.0
N188 N 0.41433 0.12773 0.06039 0.0
C189 C 0.40405 0.13738 0.12967 0.0
C190 C 0.384 0.12693 0.1143 0.0
C191 C 0.37949 0.11711 0.0714 0.0
C192 C 0.41891 0.13769 0.10096 0.0
H193 H 0.39147 0.10962 0.01214 0.0
C194 C 0.41919 0.10302 0.94843 0.0
O195 O 0.451 0.15243 0.85846 0.0
O196 O 0.42652 0.1534 0.89647 0.0
N197 N 0.45232 0.14818 0.08246 0.0
C198 C 0.4725 0.15823 0.09135 0.0
C199 C 0.47965 0.16937 0.13228 0.0
C200 C 0.46592 0.16951 0.1643 0.0
C201 C 0.44519 0.15869 0.15482 0.0
C202 C 0.43902 0.14835 0.11289 0.0
H203 H 0.48306 0.15768 0.06749 0.0
O204 O 0.46172 0.17539 0.94909 0.0
O205 O 0.44058 0.14909 0.99041 0.0
O206 O 0.46995 0.14258 0.9425 0.0
O207 O 0.46265 0.1294 0.01376 0.0
C208 C 0.43037 0.15758 0.18548 0.0
C209 C 0.40986 0.14729 0.17255 0.0
H210 H 0.37196 0.12634 0.13515 0.0
H211 H 0.36406 0.10901 0.05929 0.0
H212 H 0.49566 0.17756 0.13949 0.0
H213 H 0.47146 0.1779 0.19611 0.0
H214 H 0.43465 0.16506 0.21863 0.0
H215 H 0.39868 0.14707 0.19588 0.0
Mn216 Mn 0.55896 0.70386 0.41184 0.0
Mn217 Mn 0.56846 0.69324 0.30411 0.0
C218 C 0.55093 0.7165 0.34744 0.0
C219 C 0.56801 0.72413 0.47859 0.0
C220 C 0.53235 0.66391 0.36071 0.0
O221 O 0.57841 0.69305 0.42441 0.0
O222 O 0.58367 0.68768 0.3506 0.0
C223 C 0.6113 0.72544 0.29923 0.0
N224 N 0.59241 0.71587 0.28083 0.0
C225 C 0.60411 0.73565 0.21158 0.0
C226 C 0.62372 0.74569 0.22964 0.0
C227 C 0.62729 0.74068 0.27385 0.0
C228 C 0.58871 0.72096 0.23896 0.0
H229 H 0.61412 0.72137 0.33287 0.0
C230 C 0.58671 0.68756 0.3937 0.0
O231 O 0.5539 0.70532 0.47912 0.0
O232 O 0.57775 0.7308 0.44006 0.0
N233 N 0.55501 0.6976 0.2538 0.0
C234 C 0.53517 0.68672 0.2418 0.0
C235 C 0.52899 0.68999 0.19871 0.0
C236 C 0.54335 0.70387 0.16779 0.0
C237 C 0.56375 0.71461 0.18055 0.0
C238 C 0.56894 0.71101 0.22427 0.0
H239 H 0.52418 0.67555 0.26486 0.0
O240 O 0.54236 0.71522 0.38681 0.0
O241 O 0.56442 0.71091 0.3467 0.0
O242 O 0.53619 0.67512 0.39624 0.0
O243 O 0.54345 0.66922 0.32473 0.0
C244 C 0.57916 0.72865 0.15149 0.0
C245 C 0.59926 0.73944 0.16729 0.0
H246 H 0.63614 0.75725 0.20988 0.0
H247 H 0.64238 0.74837 0.28807 0.0
H248 H 0.51324 0.68158 0.18904 0.0
H249 H 0.53855 0.70617 0.13436 0.0
H250 H 0.57568 0.73142 0.11708 0.0
H251 H 0.61088 0.75049 0.14496 0.0
Mn252 Mn 0.86188 0.5572 0.75082 0.0
Mn253 Mn 0.88303 0.56706 0.6439 0.0
C254 C 0.84184 0.55084 0.68559 0.0
C255 C 0.85063 0.56604 0.81809 0.0
C256 C 0.87474 0.53023 0.69955 0.0
O257 O 0.89215 0.57589 0.76472 0.0
O258 O 0.90349 0.58167 0.69136 0.0
C259 C 0.89522 0.61033 0.63856 0.0
N260 N 0.8856 0.59147 0.62 0.0
C261 C 0.87832 0.60364 0.55038 0.0
C262 C 0.88821 0.62323 0.56864 0.0
C263 C 0.89661 0.62657 0.61302 0.0
C264 C 0.87733 0.58807 0.57755 0.0
H265 H 0.90181 0.61294 0.6725 0.0
C266 C 0.90625 0.58425 0.73468 0.0
O267 O 0.85479 0.55155 0.81775 0.0
O268 O 0.85421 0.57626 0.78014 0.0
N269 N 0.86544 0.55411 0.59305 0.0
C270 C 0.85556 0.53418 0.58159 0.0
C271 C 0.84656 0.52825 0.53802 0.0
C272 C 0.84787 0.54286 0.50671 0.0
C273 C 0.85781 0.56323 0.51956 0.0
C274 C 0.86689 0.56828 0.56299 0.0
H275 H 0.85495 0.52297 0.60513 0.0
O276 O 0.8341 0.54175 0.72426 0.0
O277 O 0.86117 0.56361 0.68585 0.0
O278 O 0.86702 0.53391 0.73468 0.0
O279 O 0.88119 0.54168 0.66431 0.0
C280 C 0.85909 0.57872 0.491 0.0
C281 C 0.86918 0.59889 0.50657 0.0
H282 H 0.88933 0.63579 0.54902 0.0
H283 H 0.90421 0.64163 0.6274 0.0
H284 H 0.83896 0.51251 0.52831 0.0
H285 H 0.84126 0.5383 0.47279 0.0
H286 H 0.85213 0.57524 0.45726 0.0
H287 H 0.86976 0.61062 0.48465 0.0
Mn288 Mn 0.30416 0.8567 0.08461 0.0
Mn289 Mn 0.31073 0.8767 0.97755 0.0
C290 C 0.29155 0.83574 0.0206 0.0
C291 C 0.28581 0.84462 0.15411 0.0
C292 C 0.3423 0.8705 0.02406 0.0
O293 O 0.31343 0.88636 0.09922 0.0
O294 O 0.31966 0.8973 0.02609 0.0
C295 C 0.27926 0.88808 0.99065 0.0
N296 N 0.28722 0.8787 0.96544 0.0
C297 C 0.26177 0.86936 0.90714 0.0
C298 C 0.25341 0.87906 0.93228 0.0
C299 C 0.26213 0.88837 0.97437 0.0
C300 C 0.27867 0.86931 0.92551 0.0
H301 H 0.28591 0.89529 0.02294 0.0
C302 C 0.32007 0.90042 0.06921 0.0
O303 O 0.3049 0.85044 0.15163 0.0
O304 O 0.27769 0.8468 0.11698 0.0
N305 N 0.30311 0.85965 0.92465 0.0
C306 C 0.31366 0.85191 0.9035 0.0
C307 C 0.30756 0.84302 0.85992 0.0
C308 C 0.29084 0.84237 0.83829 0.0
C309 C 0.28037 0.85063 0.86034 0.0
C310 C 0.28739 0.85967 0.90334 0.0
H311 H 0.32679 0.85279 0.91949 0.0
O312 O 0.29428 0.82912 0.05941 0.0
O313 O 0.29513 0.85431 0.02048 0.0
O314 O 0.33313 0.86501 0.063 0.0
O315 O 0.33493 0.87442 0.98855 0.0
C316 C 0.26352 0.85063 0.84086 0.0
C317 C 0.25409 0.85982 0.86449 0.0
H318 H 0.24029 0.87944 0.91961 0.0
H319 H 0.25574 0.89583 0.99409 0.0
H320 H 0.31604 0.83713 0.84272 0.0
H321 H 0.28641 0.83601 0.80425 0.0
H322 H 0.25769 0.84362 0.80773 0.0
H323 H 0.24109 0.85966 0.84931 0.0
Mn324 Mn 0.44753 0.30489 0.42606 0.0
Mn325 Mn 0.43671 0.31167 0.3164 0.0
C326 C 0.45369 0.28912 0.36518 0.0
C327 C 0.43853 0.28679 0.49587 0.0
C328 C 0.47371 0.34274 0.36817 0.0
O329 O 0.4291 0.31705 0.4354 0.0
O330 O 0.42155 0.31858 0.36077 0.0
C331 C 0.39388 0.27936 0.31407 0.0
N332 N 0.41282 0.28817 0.29591 0.0
C333 C 0.4017 0.26422 0.23367 0.0
C334 C 0.38205 0.25492 0.25162 0.0
C335 C 0.37815 0.26249 0.29207 0.0
C336 C 0.41677 0.28094 0.25719 0.0
H337 H 0.39083 0.28519 0.34507 0.0
C338 C 0.41977 0.32082 0.40382 0.0
O339 O 0.45324 0.30533 0.49358 0.0
O340 O 0.42821 0.27932 0.45846 0.0
N341 N 0.45026 0.30561 0.26898 0.0
C342 C 0.47014 0.31598 0.25695 0.0
C343 C 0.47658 0.31037 0.21713 0.0
C344 C 0.46251 0.29436 0.18982 0.0
C345 C 0.44213 0.28396 0.20279 0.0
C346 C 0.43656 0.29037 0.24255 0.0
H347 H 0.48098 0.32849 0.27744 0.0
O348 O 0.46289 0.29164 0.40415 0.0
O349 O 0.44089 0.29554 0.36296 0.0
O350 O 0.47069 0.33257 0.4052 0.0
O351 O 0.4617 0.33645 0.33381 0.0
C352 C 0.42716 0.26738 0.17809 0.0
C353 C 0.40698 0.25744 0.19367 0.0
H354 H 0.36988 0.2419 0.23476 0.0
H355 H 0.36303 0.25536 0.30619 0.0
H356 H 0.49234 0.31846 0.20734 0.0
H357 H 0.4675 0.29019 0.15893 0.0
H358 H 0.43105 0.26198 0.14742 0.0
H359 H 0.39565 0.24455 0.17474 0.0
Mn360 Mn 0.14566 0.44576 0.75148 0.0
Mn361 Mn 0.12642 0.43525 0.64323 0.0
C362 C 0.16649 0.45156 0.68827 0.0
C363 C 0.1563 0.43769 0.82027 0.0
C364 C 0.13485 0.47304 0.69438 0.0
O365 O 0.11541 0.42728 0.76421 0.0
O366 O 0.105 0.42259 0.69025 0.0
C367 C 0.11207 0.39143 0.64557 0.0
N368 N 0.12298 0.40974 0.62482 0.0
C369 C 0.1306 0.39494 0.56033 0.0
C370 C 0.1193 0.37589 0.58081 0.0
C371 C 0.11012 0.37415 0.62381 0.0
C372 C 0.13227 0.41165 0.58404 0.0
H373 H 0.10482 0.39003 0.6783 0.0
C374 C 0.10161 0.41993 0.73347 0.0
O375 O 0.15216 0.45219 0.81827 0.0
O376 O 0.1529 0.42699 0.78319 0.0
N377 N 0.14494 0.44615 0.59282 0.0
C378 C 0.15559 0.46565 0.57813 0.0
C379 C 0.16595 0.47005 0.53595 0.0
C380 C 0.16476 0.45432 0.50869 0.0
C381 C 0.1534 0.43433 0.52411 0.0
C382 C 0.14366 0.4309 0.56674 0.0
H383 H 0.1562 0.47775 0.59851 0.0
O384 O 0.17374 0.46111 0.72664 0.0
O385 O 0.14725 0.43863 0.68762 0.0
O386 O 0.14043 0.46868 0.73207 0.0
O387 O 0.12977 0.46182 0.65867 0.0
C388 C 0.1513 0.41765 0.4988 0.0
C389 C 0.14015 0.39801 0.51717 0.0
H390 H 0.11759 0.3625 0.56387 0.0
H391 H 0.10138 0.35951 0.63989 0.0
H392 H 0.17466 0.48551 0.52424 0.0
H393 H 0.17265 0.45777 0.476 0.0
H394 H 0.15836 0.41978 0.46534 0.0
H395 H 0.13894 0.38537 0.49772 0.0
Mn396 Mn 0.70083 0.14789 0.08057 0.0
Mn397 Mn 0.68928 0.12863 0.97234 0.0
C398 C 0.71322 0.16896 0.01668 0.0
C399 C 0.72149 0.15842 0.14654 0.0
C400 C 0.66034 0.13458 0.03282 0.0
O401 O 0.69025 0.11755 0.09123 0.0
O402 O 0.68502 0.10746 0.01691 0.0
C403 C 0.72196 0.11895 0.96037 0.0
N404 N 0.71174 0.12813 0.94507 0.0
C405 C 0.72991 0.13702 0.87333 0.0
C406 C 0.74056 0.12753 0.88812 0.0
C407 C 0.73671 0.11864 0.93205 0.0
C408 C 0.71579 0.1373 0.90356 0.0
H409 H 0.71879 0.11186 0.99379 0.0
C410 C 0.68517 0.10406 0.0599 0.0
O411 O 0.7027 0.15374 0.14813 0.0
O412 O 0.72797 0.15576 0.10726 0.0
N413 N 0.69259 0.14715 0.92432 0.0
C414 C 0.68174 0.15655 0.91627 0.0
C415 C 0.68438 0.16686 0.87454 0.0
C416 C 0.69757 0.16679 0.84089 0.0
C417 C 0.70824 0.15665 0.84959 0.0
C418 C 0.70546 0.14717 0.89233 0.0
H419 H 0.6711 0.15609 0.94141 0.0
O420 O 0.71217 0.17607 0.0565 0.0
O421 O 0.70735 0.14985 0.01524 0.0
O422 O 0.67208 0.14223 0.06731 0.0
O423 O 0.6652 0.12868 0.99637 0.0
C424 C 0.72142 0.15544 0.81744 0.0
C425 C 0.73259 0.14603 0.82964 0.0
H426 H 0.75172 0.127 0.86609 0.0
H427 H 0.74489 0.11134 0.9438 0.0
H428 H 0.67601 0.17457 0.86798 0.0
H429 H 0.69937 0.17454 0.80851 0.0
H430 H 0.7235 0.1622 0.78363 0.0
H431 H 0.74314 0.14577 0.80513 0.0
H432 H 0.30294 0.3832 0.27194 0.0
H433 H 0.31891 0.3635 0.2931 0.0
H434 H 0.37752 0.41678 0.28023 0.0
H435 H 0.36149 0.43639 0.25837 0.0
H436 H 0.37924 0.38242 0.26076 0.0
H437 H 0.35357 0.40696 0.37965 0.0
H438 H 0.32769 0.41176 0.41903 0.0
H439 H 0.29117 0.34777 0.43869 0.0
H440 H 0.31667 0.34254 0.39852 0.0
H441 H 0.43353 0.36029 0.41853 0.0
H442 H 0.41485 0.37742 0.39783 0.0
H443 H 0.36021 0.31991 0.38615 0.0
H444 H 0.379 0.30275 0.40602 0.0
H445 H 0.35623 0.35592 0.41889 0.0
H446 H 0.383 0.33232 0.29649 0.0
H447 H 0.41082 0.32912 0.26241 0.0
H448 H 0.44715 0.39364 0.25378 0.0
H449 H 0.41964 0.3972 0.28874 0.0
C450 C 0.31925 0.39039 0.27088 0.0
C451 C 0.33101 0.41122 0.26285 0.0
C452 C 0.32837 0.37921 0.28371 0.0
C453 C 0.3494 0.38879 0.28948 0.0
C454 C 0.36128 0.40907 0.2762 0.0
C455 C 0.35213 0.42024 0.26312 0.0
C456 C 0.35861 0.37865 0.31554 0.0
C457 C 0.37424 0.37673 0.29533 0.0
C458 C 0.35219 0.37124 0.36092 0.0
C459 C 0.33695 0.37434 0.38569 0.0
C460 C 0.33996 0.3939 0.39208 0.0
C461 C 0.32537 0.3967 0.41456 0.0
C462 C 0.30781 0.38008 0.43137 0.0
C463 C 0.30479 0.36063 0.42565 0.0
C464 C 0.3193 0.35773 0.40301 0.0
C465 C 0.4173 0.35139 0.41441 0.0
C466 C 0.4076 0.33024 0.4147 0.0
C467 C 0.40669 0.36117 0.402 0.0
C468 C 0.38621 0.3499 0.38996 0.0
C469 C 0.37598 0.32887 0.39553 0.0
C470 C 0.38667 0.31908 0.40733 0.0
C471 C 0.37662 0.35957 0.36385 0.0
C472 C 0.36104 0.36148 0.38415 0.0
C473 C 0.3832 0.36715 0.3188 0.0
C474 C 0.39934 0.36503 0.29556 0.0
C475 C 0.39695 0.34582 0.28749 0.0
C476 C 0.41266 0.34394 0.26805 0.0
C477 C 0.43076 0.36117 0.25603 0.0
C478 C 0.43312 0.38031 0.26316 0.0
C479 C 0.41747 0.38227 0.28276 0.0
H480 H 0.44294 0.35969 0.24114 0.0
H481 H 0.29657 0.38229 0.44893 0.0
H482 H 0.91853 0.29647 0.65503 0.0
H483 H 0.95447 0.31405 0.67269 0.0
H484 H 0.96329 0.36401 0.5878 0.0
H485 H 0.92698 0.34639 0.57025 0.0
H486 H 0.99808 0.35311 0.59426 0.0
H487 H 0.95548 0.37151 0.6824 0.0
H488 H 0.924 0.36214 0.72461 0.0
H489 H 0.93751 0.3281 0.82129 0.0
H490 H 0.96889 0.33693 0.77899 0.0
H491 H 0.07496 0.43271 0.74865 0.0
H492 H 0.03894 0.4127 0.73021 0.0
H493 H 0.04427 0.35937 0.71914 0.0
H494 H 0.08009 0.37924 0.73887 0.0
H495 H 0.00266 0.37425 0.75784 0.0
H496 H 0.02707 0.34234 0.60748 0.0
H497 H 0.05792 0.35073 0.56339 0.0
H498 H 0.08117 0.41375 0.58991 0.0
H499 H 0.05031 0.40577 0.63328 0.0
C500 C 0.92824 0.31077 0.63831 0.0
C501 C 0.91996 0.32007 0.61126 0.0
C502 C 0.94879 0.32084 0.64861 0.0
C503 C 0.96146 0.34041 0.63206 0.0
C504 C 0.95373 0.34886 0.60076 0.0
C505 C 0.93302 0.33873 0.59044 0.0
C506 C 0.98142 0.35302 0.65413 0.0
C507 C 0.99911 0.35779 0.62989 0.0
C508 C 0.98275 0.35927 0.70058 0.0
C509 C 0.96443 0.35475 0.72735 0.0
C510 C 0.95168 0.36195 0.71254 0.0
C511 C 0.93386 0.35673 0.73645 0.0
C512 C 0.92874 0.3445 0.77557 0.0
C513 C 0.94149 0.33756 0.79097 0.0
C514 C 0.9593 0.34268 0.76705 0.0
C515 C 0.06812 0.41649 0.74529 0.0
C516 C 0.08021 0.40745 0.74576 0.0
C517 C 0.0476 0.40511 0.73414 0.0
C518 C 0.03906 0.38465 0.72246 0.0
C519 C 0.05062 0.37518 0.72774 0.0
C520 C 0.07103 0.3865 0.73949 0.0
C521 C 0.01936 0.37409 0.69824 0.0
C522 C 1.00169 0.36967 0.72213 0.0
C523 C 0.0181 0.36838 0.65131 0.0
C524 C 0.03644 0.37341 0.62398 0.0
C525 C 0.03871 0.35799 0.60363 0.0
C526 C 0.05619 0.36268 0.57875 0.0
C527 C 0.07147 0.38276 0.57381 0.0
C528 C 0.06931 0.3982 0.59373 0.0
C529 C 0.05183 0.3936 0.61849 0.0
H530 H 0.08497 0.38636 0.55452 0.0
H531 H 0.9149 0.34042 0.79397 0.0
H532 H 0.58323 0.92707 0.91102 0.0
H533 H 0.60321 0.96331 0.92927 0.0
H534 H 0.64016 0.95138 0.02144 0.0
H535 H 0.62049 0.91557 0.00332 0.0
H536 H 0.62258 0.97082 0.06457 0.0
H537 H 0.66024 0.97732 0.92567 0.0
H538 H 0.66425 0.97395 0.8424 0.0
H539 H 0.63851 0.01134 0.81278 0.0
H540 H 0.63409 0.01471 0.89591 0.0
H541 H 0.70627 0.08476 0.04861 0.0
H542 H 0.69123 0.04868 0.03276 0.0
H543 H 0.63308 0.03925 0.07487 0.0
H544 H 0.64813 0.07555 0.08987 0.0
H545 H 0.66161 0.03057 0.96466 0.0
H546 H 0.60545 0.98872 0.11184 0.0
H547 H 0.60206 0.99204 0.19546 0.0
H548 H 0.66655 0.02527 0.20922 0.0
H549 H 0.67032 0.0219 0.12584 0.0
C550 C 0.59618 0.93236 0.93351 0.0
C551 C 0.60037 0.91851 0.95555 0.0
C552 C 0.60744 0.95302 0.94438 0.0
C553 C 0.62299 0.96001 0.97733 0.0
C554 C 0.62811 0.94634 0.99639 0.0
C555 C 0.61697 0.92587 0.98558 0.0
C556 C 0.63285 0.98103 0.99536 0.0
C557 C 0.63108 0.98389 0.04265 0.0
C558 C 0.64396 0.99808 0.96693 0.0
C559 C 0.64664 0.99609 0.91699 0.0
C560 C 0.65527 0.98467 0.90139 0.0
C561 C 0.65765 0.9828 0.85422 0.0
C562 C 0.65159 0.99238 0.82231 0.0
C563 C 0.64317 0.0039 0.83753 0.0
C564 C 0.64074 0.00581 0.88466 0.0
C565 C 0.69047 0.07485 0.0565 0.0
C566 C 0.67843 0.08288 0.07125 0.0
C567 C 0.68183 0.05428 0.04678 0.0
C568 C 0.66099 0.0413 0.05204 0.0
C569 C 0.64921 0.04897 0.07069 0.0
C570 C 0.65786 0.06965 0.08003 0.0
C571 C 0.65141 0.02032 0.03388 0.0
C572 C 0.65308 0.01749 0.98653 0.0
C573 C 0.64021 0.00327 0.06226 0.0
C574 C 0.63814 0.00524 0.11251 0.0
C575 C 0.6189 0.99668 0.13275 0.0
C576 C 0.61691 0.99858 0.1801 0.0
C577 C 0.63407 0.00892 0.20761 0.0
C578 C 0.65326 0.01733 0.18785 0.0
C579 C 0.65533 0.01547 0.14053 0.0
H580 H 0.6325 0.01038 0.24425 0.0
H581 H 0.65345 0.99091 0.78581 0.0
H582 H 0.64474 0.57104 0.25555 0.0
H583 H 0.62935 0.59113 0.27646 0.0
H584 H 0.68818 0.64472 0.2787 0.0
H585 H 0.70359 0.6242 0.26006 0.0
H586 H 0.6715 0.64261 0.3552 0.0
H587 H 0.64754 0.63689 0.2016 0.0
H588 H 0.63122 0.62012 0.12878 0.0
H589 H 0.57522 0.58393 0.20011 0.0
H590 H 0.59127 0.60029 0.2735 0.0
H591 H 0.62752 0.70631 0.39281 0.0
H592 H 0.64627 0.68934 0.37124 0.0
H593 H 0.5926 0.6316 0.3913 0.0
H594 H 0.57393 0.64862 0.41315 0.0
H595 H 0.60766 0.63762 0.30192 0.0
H596 H 0.6332 0.64421 0.45613 0.0
H597 H 0.65026 0.66254 0.527 0.0
H598 H 0.70449 0.69954 0.45024 0.0
H599 H 0.68766 0.68162 0.37876 0.0
C600 C 0.65426 0.58729 0.25766 0.0
C601 C 0.67532 0.59613 0.25497 0.0
C602 C 0.64545 0.59883 0.2702 0.0
C603 C 0.65752 0.61958 0.2794 0.0
C604 C 0.67847 0.62876 0.2721 0.0
C605 C 0.68729 0.61712 0.26032 0.0
C606 C 0.64864 0.63092 0.3023 0.0
C607 C 0.65776 0.64183 0.34282 0.0
C608 C 0.6304 0.62959 0.28726 0.0
C609 C 0.62067 0.61972 0.24315 0.0
C610 C 0.63178 0.62525 0.20184 0.0
C611 C 0.62257 0.61584 0.16044 0.0
C612 C 0.60221 0.60094 0.15984 0.0
C613 C 0.591 0.59546 0.20063 0.0
C614 C 0.60014 0.60482 0.24213 0.0
C615 C 0.6201 0.69003 0.39553 0.0
C616 C 0.59938 0.67879 0.40567 0.0
C617 C 0.63075 0.68031 0.38249 0.0
C618 C 0.62079 0.65917 0.37908 0.0
C619 C 0.60059 0.64792 0.39354 0.0
C620 C 0.59002 0.65765 0.40699 0.0
C621 C 0.63046 0.64905 0.35465 0.0
C622 C 0.62148 0.63843 0.3139 0.0
C623 C 0.64896 0.65091 0.36904 0.0
C624 C 0.65909 0.6617 0.412 0.0
C625 C 0.6487 0.65638 0.45428 0.0
C626 C 0.65835 0.66667 0.49458 0.0
C627 C 0.67843 0.68223 0.49311 0.0
C628 C 0.68893 0.6875 0.45133 0.0
C629 C 0.67935 0.67727 0.41092 0.0
H630 H 0.68587 0.69018 0.52435 0.0
H631 H 0.59511 0.59367 0.12775 0.0
H632 H 0.93293 0.57167 0.74759 0.0
H633 H 0.96848 0.59166 0.72703 0.0
H634 H 0.96337 0.64533 0.72346 0.0
H635 H 0.92745 0.62497 0.74238 0.0
H636 H 0.97774 0.64231 0.64624 0.0
H637 H 0.99582 0.63834 0.80103 0.0
H638 H 0.99536 0.6224 0.87514 0.0
H639 H 0.01562 0.58573 0.8077 0.0
H640 H 0.01595 0.60126 0.73305 0.0
H641 H 0.0858 0.70613 0.61216 0.0
H642 H 0.04984 0.68927 0.63133 0.0
H643 H 0.0458 0.63144 0.61318 0.0
H644 H 0.08169 0.64833 0.59356 0.0
H645 H 0.03675 0.63833 0.70269 0.0
H646 H 0.01804 0.64301 0.54726 0.0
H647 H 0.01916 0.66029 0.47474 0.0
H648 H 1.00119 0.69779 0.54689 0.0
H649 H 1.00024 0.68092 0.62002 0.0
C650 C 0.93971 0.58792 0.74531 0.0
C651 C 0.92754 0.59684 0.74773 0.0
C652 C 0.96007 0.59939 0.73293 0.0
C653 C 0.96878 0.62012 0.72339 0.0
C654 C 0.95707 0.62939 0.73036 0.0
C655 C 0.93662 0.61783 0.74224 0.0
C656 C 0.98899 0.63133 0.70054 0.0
C657 C 0.99074 0.64176 0.65926 0.0
C658 C 0.00592 0.63026 0.71648 0.0
C659 C 0.00575 0.62086 0.76134 0.0
C660 C 1.00003 0.62677 0.80192 0.0
C661 C 0.99982 0.61782 0.84405 0.0
C662 C 0.00541 0.60303 0.84611 0.0
C663 C 0.01128 0.59718 0.80605 0.0
C664 C 0.0115 0.60607 0.76383 0.0
C665 C 0.07693 0.68986 0.60921 0.0
C666 C 0.08647 0.67855 0.60056 0.0
C667 C 0.05641 0.6802 0.6209 0.0
C668 C 0.04518 0.65907 0.62439 0.0
C669 C 0.05418 0.64776 0.61089 0.0
C670 C 0.07462 0.65742 0.59871 0.0
C671 C 0.02533 0.64906 0.64851 0.0
C672 C 0.02372 0.63892 0.69002 0.0
C673 C 0.00866 0.65063 0.63313 0.0
C674 C 0.00929 0.66084 0.58922 0.0
C675 C 0.01453 0.65508 0.54776 0.0
C676 C 0.01509 0.66477 0.50652 0.0
C677 C 0.01031 0.68017 0.50623 0.0
C678 C 0.00492 0.68588 0.54718 0.0
C679 C 0.00435 0.67625 0.58853 0.0
H680 H 0.01074 0.68764 0.47425 0.0
H681 H 0.00524 0.59613 0.87876 0.0
H682 H 0.35983 0.92612 0.07499 0.0
H683 H 0.37584 0.96184 0.05616 0.0
H684 H 0.3182 0.95902 0.06673 0.0
H685 H 0.3021 0.92289 0.08401 0.0
H686 H 0.33344 0.97353 0.98765 0.0
H687 H 0.36057 0.98992 0.13926 0.0
H688 H 0.37798 0.98821 0.20903 0.0
H689 H 0.43219 0.00702 0.13084 0.0
H690 H 0.41503 0.00858 0.06043 0.0
H691 H 0.3785 0.08097 0.95306 0.0
H692 H 0.35984 0.04524 0.97416 0.0
H693 H 0.41311 0.04086 0.94931 0.0
H694 H 0.43174 0.07665 0.92823 0.0
H695 H 0.39917 0.03071 0.03762 0.0
H696 H 0.37084 0.01352 0.88557 0.0
H697 H 0.35296 0.01581 0.81729 0.0
H698 H 0.30029 0.9994 0.89956 0.0
H699 H 0.31796 0.99729 0.96851 0.0
C700 C 0.3508 0.93341 0.07607 0.0
C701 C 0.32981 0.92184 0.08203 0.0
C702 C 0.35994 0.95388 0.06478 0.0
C703 C 0.34829 0.96331 0.05981 0.0
C704 C 0.32755 0.95216 0.07013 0.0
C705 C 0.31838 0.93157 0.08098 0.0
C706 C 0.35725 0.98372 0.03808 0.0
C707 C 0.34762 0.98614 0.9993 0.0
C708 C 0.37605 1.00012 0.05214 0.0
C709 C 0.38644 0.99921 0.09446 0.0
C710 C 0.37615 0.99354 0.13685 0.0
C711 C 0.38599 0.99263 0.17654 0.0
C712 C 0.40616 0.99746 0.17435 0.0
C713 C 0.41656 0.00327 0.13248 0.0
C714 C 0.40679 0.0042 0.09268 0.0
C715 C 0.38584 0.07206 0.94939 0.0
C716 C 0.40643 0.08144 0.93797 0.0
C717 C 0.37524 0.05167 0.96206 0.0
C718 C 0.38511 0.04036 0.96377 0.0
C719 C 0.40518 0.04928 0.94835 0.0
C720 C 0.41573 0.06963 0.93539 0.0
C721 C 0.37544 0.02035 0.9872 0.0
C722 C 0.38494 0.01807 0.02628 0.0
C723 C 0.35644 0.00418 0.97374 0.0
C724 C 0.3458 0.00545 0.93231 0.0
C725 C 0.35551 0.01058 0.8892 0.0
C726 C 0.3454 0.0118 0.85035 0.0
C727 C 0.32552 0.0078 0.8541 0.0
C728 C 0.3157 0.00252 0.89671 0.0
C729 C 0.32575 1.00129 0.93568 0.0
H730 H 0.31772 0.00876 0.82398 0.0
H731 H 0.41375 0.99674 0.20512 0.0
H732 H 0.16405 0.40693 0.83762 0.0
H733 H 0.18518 0.40523 0.8991 0.0
H734 H 0.19476 0.46169 0.9538 0.0
H735 H 0.17331 0.4633 0.89333 0.0
H736 H 0.23083 0.44709 0.9193 0.0
H737 H 0.17682 0.44287 0.02652 0.0
H738 H 0.14082 0.42623 0.04821 0.0
H739 H 0.13774 0.36861 0.04794 0.0
H740 H 0.17367 0.38496 0.02558 0.0
H741 H 0.29355 0.47 0.11479 0.0
H742 H 0.27036 0.46694 0.05374 0.0
H743 H 0.23027 0.40487 0.09207 0.0
H744 H 0.25294 0.40842 0.15544 0.0
H745 H 0.20824 0.41935 0.07635 0.0
H746 H 0.2618 0.42186 0.98726 0.0
H747 H 0.29678 0.43476 0.96075 0.0
H748 H 0.30045 0.49034 0.91903 0.0
H749 H 0.26558 0.47787 0.94582 0.0
C750 C 0.17032 0.41879 0.86326 0.0
C751 C 0.16687 0.4352 0.86062 0.0
C752 C 0.18244 0.41782 0.89828 0.0
C753 C 0.19145 0.43328 0.93114 0.0
C754 C 0.18777 0.44948 0.92911 0.0
C755 C 0.17545 0.45034 0.89453 0.0
C756 C 0.20567 0.43316 0.9659 0.0
C757 C 0.22602 0.44123 0.95385 0.0
C758 C 0.19923 0.42479 0.01021 0.0
C759 C 0.17777 0.41507 0.02382 0.0
C760 C 0.16838 0.42664 0.0306 0.0
C761 C 0.14802 0.41727 0.04313 0.0
C762 C 0.13698 0.39637 0.04928 0.0
C763 C 0.14629 0.3848 0.04305 0.0
C764 C 0.16664 0.3941 0.03046 0.0
C765 C 0.27996 0.45558 0.10975 0.0
C766 C 0.2752 0.43939 0.13977 0.0
C767 C 0.26666 0.45379 0.07451 0.0
C768 C 0.24855 0.43553 0.06722 0.0
C769 C 0.24405 0.41916 0.09663 0.0
C770 C 0.25711 0.42113 0.13271 0.0
C771 C 0.23393 0.43387 0.0306 0.0
C772 C 0.21334 0.42529 0.04199 0.0
C773 C 0.24017 0.44145 0.98523 0.0
C774 C 0.26112 0.44898 0.9689 0.0
C775 C 0.27011 0.43688 0.9727 0.0
C776 C 0.28991 0.44411 0.95758 0.0
C777 C 0.30084 0.46337 0.93831 0.0
C778 C 0.29197 0.47543 0.934 0.0
C779 C 0.27218 0.46827 0.94908 0.0
H780 H 0.31618 0.46895 0.92665 0.0
H781 H 0.12122 0.38914 0.059 0.0
H782 H 0.84354 0.29497 0.42953 0.0
H783 H 0.82393 0.27294 0.36575 0.0
H784 H 0.81252 0.22076 0.44559 0.0
H785 H 0.83246 0.24268 0.50894 0.0
H786 H 0.81748 0.21423 0.35908 0.0
H787 H 0.77758 0.23699 0.43847 0.0
H788 H 0.76977 0.26205 0.47126 0.0
H789 H 0.77429 0.2874 0.33686 0.0
H790 H 0.78241 0.26264 0.30336 0.0
H791 H 0.71175 0.16435 0.23376 0.0
H792 H 0.73469 0.18402 0.29601 0.0
H793 H 0.78567 0.19608 0.21044 0.0
H794 H 0.76274 0.17596 0.14852 0.0
H795 H 0.76065 0.22188 0.30154 0.0
H796 H 0.82633 0.20553 0.27603 0.0
H797 H 0.83157 0.17772 0.25042 0.0
H798 H 0.77074 0.13455 0.28884 0.0
H799 H 0.76523 0.16206 0.31521 0.0
C800 C 0.83717 0.27883 0.43322 0.0
C801 C 0.83954 0.27064 0.47455 0.0
C802 C 0.8258 0.2662 0.39678 0.0
C803 C 0.81633 0.24507 0.40098 0.0
C804 C 0.81956 0.23695 0.44134 0.0
C805 C 0.831 0.24956 0.47766 0.0
C806 C 0.80226 0.23142 0.36457 0.0
C807 C 0.80512 0.21599 0.34635 0.0
C808 C 0.78575 0.23324 0.34852 0.0
C809 C 0.7808 0.2481 0.3685 0.0
C810 C 0.77705 0.248 0.41597 0.0
C811 C 0.77255 0.26213 0.43467 0.0
C812 C 0.77159 0.27634 0.40618 0.0
C813 C 0.77508 0.27641 0.3589 0.0
C814 C 0.77962 0.26232 0.34003 0.0
C815 C 0.72784 0.1709 0.22842 0.0
C816 C 0.73536 0.16846 0.18611 0.0
C817 C 0.74099 0.18229 0.26403 0.0
C818 C 0.76203 0.19159 0.25831 0.0
C819 C 0.76956 0.18886 0.2163 0.0
C820 C 0.75639 0.17733 0.18077 0.0
C821 C 0.77597 0.20479 0.29551 0.0
C822 C 0.77308 0.22016 0.31394 0.0
C823 C 0.79211 0.20256 0.31254 0.0
C824 C 0.79532 0.18588 0.29712 0.0
C825 C 0.8141 0.19009 0.27914 0.0
C826 C 0.81711 0.17438 0.26447 0.0
C827 C 0.80148 0.15438 0.26786 0.0
C828 C 0.78282 0.15005 0.28606 0.0
C829 C 0.77973 0.1657 0.30081 0.0
H830 H 0.80384 0.14225 0.25646 0.0
H831 H 0.7681 0.28727 0.42072 0.0
H832 H 0.58874 0.83005 0.84484 0.0
H833 H 0.5912 0.81106 0.78014 0.0
H834 H 0.55608 0.82874 0.69649 0.0
H835 H 0.55298 0.84728 0.76195 0.0
H836 H 0.5423 0.79093 0.68424 0.0
H837 H 0.60889 0.84776 0.68028 0.0
H838 H 0.64207 0.87302 0.71111 0.0
H839 H 0.65468 0.82597 0.74673 0.0
H840 H 0.62146 0.8004 0.71664 0.0
H841 H 0.59393 0.76499 0.48408 0.0
H842 H 0.59591 0.78807 0.545 0.0
H843 H 0.5512 0.73763 0.62359 0.0
H844 H 0.5489 0.71455 0.56248 0.0
H845 H 0.6057 0.79409 0.63306 0.0
H846 H 0.52061 0.75073 0.67974 0.0
H847 H 0.48794 0.72814 0.64255 0.0
H848 H 0.51332 0.75325 0.51039 0.0
H849 H 0.54603 0.77618 0.54686 0.0
C850 C 0.58181 0.83022 0.81247 0.0
C851 C 0.57072 0.84032 0.80869 0.0
C852 C 0.58328 0.81934 0.77526 0.0
C853 C 0.574 0.81849 0.73288 0.0
C854 C 0.56338 0.82905 0.72866 0.0
C855 C 0.56173 0.8398 0.76608 0.0
C856 C 0.57449 0.80578 0.694 0.0
C857 C 0.55621 0.79171 0.67314 0.0
C858 C 0.5926 0.80681 0.67855 0.0
C859 C 0.61262 0.82215 0.69653 0.0
C860 C 0.61869 0.84279 0.69497 0.0
C861 C 0.63751 0.85717 0.71226 0.0
C862 C 0.65045 0.8511 0.73095 0.0
C863 C 0.64463 0.83065 0.73227 0.0
C864 C 0.62582 0.81621 0.71505 0.0
C865 C 0.58468 0.75876 0.51457 0.0
C866 C 0.57118 0.73787 0.51816 0.0
C867 C 0.58583 0.77201 0.54947 0.0
C868 C 0.57346 0.76473 0.58877 0.0
C869 C 0.56063 0.74376 0.59333 0.0
C870 C 0.55943 0.73052 0.5584 0.0
C871 C 0.57349 0.77904 0.62415 0.0
C872 C 0.59182 0.79336 0.64429 0.0
C873 C 0.5555 0.77858 0.63821 0.0
C874 C 0.53582 0.76502 0.61602 0.0
C875 C 0.51919 0.75148 0.64278 0.0
C876 C 0.50067 0.73861 0.62181 0.0
C877 C 0.49857 0.73921 0.57412 0.0
C878 C 0.51498 0.75274 0.54731 0.0
C879 C 0.53351 0.76566 0.5681 0.0
H880 H 0.48423 0.72922 0.55796 0.0
H881 H 0.66502 0.86225 0.74434 0.0
H882 H 0.71166 0.54957 0.09684 0.0
H883 H 0.73468 0.55224 0.03516 0.0
H884 H 0.78557 0.59134 0.1203 0.0
H885 H 0.76255 0.58926 0.18152 0.0
H886 H 0.79449 0.60388 0.03616 0.0
H887 H 0.76809 0.5391 0.10725 0.0
H888 H 0.74167 0.50585 0.13536 0.0
H889 H 0.71858 0.48899 0.99794 0.0
H890 H 0.74472 0.52226 0.96911 0.0
H891 H 0.84253 0.54774 0.90274 0.0
H892 H 0.82254 0.55029 0.96545 0.0
H893 H 0.81402 0.5931 0.88612 0.0
H894 H 0.83447 0.59099 0.82379 0.0
H895 H 0.78515 0.53995 0.97025 0.0
H896 H 0.80519 0.62362 0.95611 0.0
H897 H 0.83426 0.65669 0.9353 0.0
H898 H 0.87492 0.63548 0.971 0.0
H899 H 0.84612 0.60239 0.99258 0.0
C900 C 0.72774 0.55897 0.10224 0.0
C901 C 0.7352 0.56913 0.14434 0.0
C902 C 0.74096 0.56037 0.06697 0.0
C903 C 0.76201 0.57163 0.07313 0.0
C904 C 0.76946 0.58248 0.11445 0.0
C905 C 0.75624 0.58128 0.14956 0.0
C906 C 0.77618 0.57149 0.03739 0.0
C907 C 0.79237 0.58988 0.02169 0.0
C908 C 0.77391 0.55328 0.01894 0.0
C909 C 0.75824 0.53323 0.03611 0.0
C910 C 0.7573 0.52835 0.08309 0.0
C911 C 0.74239 0.50949 0.09914 0.0
C912 C 0.72842 0.49533 0.06847 0.0
C913 C 0.72938 0.49998 0.02167 0.0
C914 C 0.74425 0.51883 0.00544 0.0
C915 C 0.83669 0.55796 0.89888 0.0
C916 C 0.84025 0.56923 0.85816 0.0
C917 C 0.8251 0.55931 0.93477 0.0
C918 C 0.81671 0.57196 0.93101 0.0
C919 C 0.82053 0.58348 0.89058 0.0
C920 C 0.83224 0.58223 0.85477 0.0
C921 C 0.80332 0.57236 0.96847 0.0
C922 C 0.78725 0.55398 0.98451 0.0
C923 C 0.80605 0.59056 0.98805 0.0
C924 C 0.82348 0.61046 0.97548 0.0
C925 C 0.82034 0.62604 0.95965 0.0
C926 C 0.83677 0.64478 0.9477 0.0
C927 C 0.85642 0.64816 0.95167 0.0
C928 C 0.85969 0.63282 0.96775 0.0
C929 C 0.84332 0.61406 0.97979 0.0
H930 H 0.86911 0.66268 0.94238 0.0
H931 H 0.71689 0.48074 0.08097 0.0
H932 H 0.18397 0.76283 0.5318 0.0
H933 H 0.20382 0.78439 0.46764 0.0
H934 H 0.19028 0.73159 0.38761 0.0
H935 H 0.17091 0.71001 0.45217 0.0
H936 H 0.22786 0.7573 0.37665 0.0
H937 H 0.16798 0.76198 0.3669 0.0
H938 H 0.14111 0.76821 0.39476 0.0
H939 H 0.1852 0.82963 0.42575 0.0
H940 H 0.21238 0.82369 0.3986 0.0
H941 H 0.24487 0.82724 0.16478 0.0
H942 H 0.22412 0.80728 0.22971 0.0
H943 H 0.27774 0.81861 0.30316 0.0
H944 H 0.29854 0.83816 0.23768 0.0
H945 H 0.21927 0.81307 0.3156 0.0
H946 H 0.26839 0.77859 0.37009 0.0
H947 H 0.29228 0.76955 0.33536 0.0
H948 H 0.26441 0.76279 0.20328 0.0
H949 H 0.24021 0.77152 0.23733 0.0
C950 C 0.18505 0.75579 0.50039 0.0
C951 C 0.17573 0.73463 0.49723 0.0
C952 C 0.1964 0.76817 0.46351 0.0
C953 C 0.19853 0.75974 0.42221 0.0
C954 C 0.18902 0.73859 0.41891 0.0
C955 C 0.1778 0.72622 0.45588 0.0
C956 C 0.21104 0.77288 0.38296 0.0
C957 C 0.22595 0.76951 0.36349 0.0
C958 C 0.20852 0.7887 0.36481 0.0
C959 C 0.19223 0.79233 0.38115 0.0
C960 C 0.17196 0.77677 0.37998 0.0
C961 C 0.15667 0.78026 0.39559 0.0
C962 C 0.16145 0.79929 0.41213 0.0
C963 C 0.18153 0.81489 0.41299 0.0
C964 C 0.19688 0.81148 0.39746 0.0
C965 C 0.2523 0.82564 0.19487 0.0
C966 C 0.27343 0.83427 0.19575 0.0
C967 C 0.24037 0.81419 0.23215 0.0
C968 C 0.24921 0.81105 0.27139 0.0
C969 C 0.2704 0.82036 0.27308 0.0
C970 C 0.28234 0.8317 0.23564 0.0
C971 C 0.23622 0.79763 0.30973 0.0
C972 C 0.22124 0.80094 0.32901 0.0
C973 C 0.2383 0.7814 0.32692 0.0
C974 C 0.25265 0.77593 0.3062 0.0
C975 C 0.26733 0.77511 0.33367 0.0
C976 C 0.28093 0.77005 0.3141 0.0
C977 C 0.27991 0.76567 0.26711 0.0
C978 C 0.26524 0.76626 0.23963 0.0
C979 C 0.25159 0.77129 0.25904 0.0
H980 H 0.29046 0.76177 0.25202 0.0
H981 H 0.1496 0.80196 0.42419 0.0
H982 H 0.45594 0.16608 0.77485 0.0
H983 H 0.454 0.1871 0.71386 0.0
H984 H 0.40757 0.19109 0.78951 0.0
H985 H 0.40961 0.17027 0.85091 0.0
H986 H 0.42642 0.18537 0.65559 0.0
H987 H 0.41448 0.2386 0.7772 0.0
H988 H 0.42197 0.25088 0.85738 0.0
H989 H 0.47218 0.24051 0.85974 0.0
H990 H 0.46516 0.22845 0.77942 0.0
H991 H 0.40704 0.24878 0.51327 0.0
H992 H 0.40415 0.22591 0.57544 0.0
H993 H 0.46057 0.27212 0.63217 0.0
H994 H 0.46313 0.29527 0.57101 0.0
H995 H 0.43704 0.25265 0.69981 0.0
H996 H 0.4563 0.23231 0.56136 0.0
H997 H 0.45315 0.22177 0.48004 0.0
H998 H 0.39598 0.16924 0.50931 0.0
H999 H 0.39866 0.17962 0.5907 0.0
C1000 C 0.44509 0.17116 0.77825 0.0
C1001 C 0.433 0.16651 0.81799 0.0
C1002 C 0.44399 0.18321 0.74325 0.0
C1003 C 0.43087 0.19102 0.74722 0.0
C1004 C 0.41808 0.18558 0.78585 0.0
C1005 C 0.41916 0.17352 0.82086 0.0
C1006 C 0.43127 0.20554 0.71207 0.0
C1007 C 0.42862 0.20003 0.66534 0.0
C1008 C 0.43463 0.22492 0.72436 0.0
C1009 C 0.43913 0.2324 0.77248 0.0
C1010 C 0.42715 0.23901 0.7948 0.0
C1011 C 0.43132 0.24592 0.84027 0.0
C1012 C 0.44749 0.2464 0.86369 0.0
C1013 C 0.4596 0.24005 0.84163 0.0
C1014 C 0.45552 0.23316 0.79615 0.0
C1015 C 0.41868 0.2542 0.53941 0.0
C1016 C 0.43536 0.27388 0.53698 0.0
C1017 C 0.4171 0.24101 0.57481 0.0
C1018 C 0.43237 0.24702 0.60816 0.0
C1019 C 0.44859 0.26698 0.60693 0.0
C1020 C 0.45004 0.28026 0.57186 0.0
C1021 C 0.43188 0.23239 0.64325 0.0
C1022 C 0.4346 0.23791 0.69002 0.0
C1023 C 0.42914 0.21323 0.63083 0.0
C1024 C 0.4276 0.20685 0.58202 0.0
C1025 C 0.44301 0.21857 0.55039 0.0
C1026 C 0.44131 0.21263 0.50429 0.0
C1027 C 0.42435 0.19488 0.4895 0.0
C1028 C 0.40909 0.183 0.52081 0.0
C1029 C 0.4107 0.1889 0.56693 0.0
H1030 H 0.42305 0.1903 0.4538 0.0
H1031 H 0.45068 0.25174 0.8989 0.0
H1032 H 0.19675 0.48601 0.65099 0.0
H1033 H 0.21885 0.48889 0.5866 0.0
H1034 H 0.18998 0.42392 0.57987 0.0
H1035 H 0.16762 0.42114 0.64336 0.0
H1036 H 0.19216 0.43824 0.49838 0.0
H1037 H 0.26713 0.51045 0.54484 0.0
H1038 H 0.28684 0.52824 0.61379 0.0
H1039 H 0.25883 0.47263 0.6897 0.0
H1040 H 0.23919 0.45447 0.62107 0.0
H1041 H 0.29238 0.49101 0.34975 0.0
H1042 H 0.2709 0.49235 0.41115 0.0
H1043 H 0.23673 0.42719 0.41363 0.0
H1044 H 0.25748 0.42602 0.35116 0.0
H1045 H 0.26648 0.48074 0.4953 0.0
H1046 H 0.18996 0.40877 0.45042 0.0
H1047 H 0.17009 0.39088 0.38181 0.0
H1048 H 0.20067 0.44558 0.30295 0.0
H1049 H 0.2205 0.46387 0.37126 0.0
C1050 C 0.19527 0.47242 0.63569 0.0
C1051 C 0.18018 0.45336 0.65077 0.0
C1052 C 0.20796 0.47404 0.59924 0.0
C1053 C 0.20615 0.45661 0.57845 0.0
C1054 C 0.1916 0.43757 0.59513 0.0
C1055 C 0.17878 0.43597 0.63114 0.0
C1056 C 0.21847 0.45809 0.53752 0.0
C1057 C 0.20838 0.44735 0.49789 0.0
C1058 C 0.23972 0.4704 0.5365 0.0
C1059 C 0.25149 0.48117 0.57796 0.0
C1060 C 0.26521 0.50202 0.57623 0.0
C1061 C 0.27637 0.51216 0.61525 0.0
C1062 C 0.27402 0.50159 0.65615 0.0
C1063 C 0.26056 0.48082 0.65807 0.0
C1064 C 0.24938 0.47061 0.61914 0.0
C1065 C 0.28009 0.47707 0.36331 0.0
C1066 C 0.27686 0.4584 0.34726 0.0
C1067 C 0.2679 0.47781 0.39833 0.0
C1068 C 0.25212 0.45988 0.417 0.0
C1069 C 0.24851 0.44126 0.39937 0.0
C1070 C 0.26057 0.44056 0.36424 0.0
C1071 C 0.24005 0.46043 0.45645 0.0
C1072 C 0.25018 0.47164 0.49573 0.0
C1073 C 0.21876 0.44852 0.45725 0.0
C1074 C 0.20686 0.43765 0.41591 0.0
C1075 C 0.19241 0.417 0.41848 0.0
C1076 C 0.18115 0.40679 0.37963 0.0
C1077 C 0.18417 0.41707 0.338 0.0
C1078 C 0.1984 0.43761 0.33517 0.0
C1079 C 0.20967 0.44791 0.37394 0.0
H1080 H 0.17544 0.40913 0.30795 0.0
H1081 H 0.28267 0.50947 0.68633 0.0
H1082 H 0.82642 0.25432 0.68152 0.0
H1083 H 0.80218 0.23467 0.74126 0.0
H1084 H 0.77641 0.27357 0.73273 0.0
H1085 H 0.8017 0.29401 0.67399 0.0
H1086 H 0.78055 0.26795 0.81786 0.0
H1087 H 0.7509 0.22241 0.69418 0.0
H1088 H 0.74835 0.20183 0.62644 0.0
H1089 H 0.76839 0.16828 0.70759 0.0
H1090 H 0.77142 0.18888 0.7756 0.0
H1091 H 0.7076 0.19893 0.98217 0.0
H1092 H 0.72504 0.22088 0.91598 0.0
H1093 H 0.76136 0.19246 0.9017 0.0
H1094 H 0.74363 0.17036 0.96676 0.0
H1095 H 0.74658 0.1936 0.82326 0.0
H1096 H 0.78035 0.24187 0.94311 0.0
H1097 H 0.78319 0.2624 0.01122 0.0
H1098 H 0.75455 0.28983 0.93715 0.0
H1099 H 0.75131 0.26925 0.86876 0.0
C1100 C 0.81556 0.25864 0.6925 0.0
C1101 C 0.81622 0.27595 0.6747 0.0
C1102 C 0.80145 0.24721 0.72607 0.0
C1103 C 0.78722 0.25244 0.74127 0.0
C1104 C 0.78725 0.26926 0.72166 0.0
C1105 C 0.80159 0.28086 0.68816 0.0
C1106 C 0.77342 0.24101 0.77979 0.0
C1107 C 0.77276 0.25163 0.81868 0.0
C1108 C 0.76314 0.21969 0.78102 0.0
C1109 C 0.7615 0.20731 0.74 0.0
C1110 C 0.75493 0.21076 0.69751 0.0
C1111 C 0.75338 0.19907 0.65905 0.0
C1112 C 0.75824 0.18378 0.66268 0.0
C1113 C 0.76465 0.18014 0.7048 0.0
C1114 C 0.76627 0.19182 0.74333 0.0
C1115 C 0.71938 0.19754 0.96478 0.0
C1116 C 0.72395 0.18266 0.97827 0.0
C1117 C 0.72942 0.21013 0.92731 0.0
C1118 C 0.74456 0.20836 0.90387 0.0
C1119 C 0.74965 0.19403 0.91897 0.0
C1120 C 0.73947 0.18134 0.95589 0.0
C1121 C 0.75425 0.22032 0.86172 0.0
C1122 C 0.754 0.20979 0.82207 0.0
C1123 C 0.76357 0.24158 0.8599 0.0
C1124 C 0.76532 0.25381 0.90108 0.0
C1125 C 0.77446 0.25212 0.94152 0.0
C1126 C 0.77619 0.2638 0.98013 0.0
C1127 C 0.76898 0.27735 0.97858 0.0
C1128 C 0.76008 0.27929 0.93835 0.0
C1129 C 0.7583 0.26762 0.89966 0.0
H1130 H 0.77035 0.2864 0.00849 0.0
H1131 H 0.75701 0.17473 0.63287 0.0
H1132 H 0.57182 0.82409 0.01085 0.0
H1133 H 0.56753 0.79919 0.06817 0.0
H1134 H 0.50276 0.77233 0.0589 0.0
H1135 H 0.50732 0.7984 1.0026 0.0
H1136 H 0.51205 0.77572 0.14368 0.0
H1137 H 0.52902 0.74669 0.02134 0.0
H1138 H 0.54703 0.74468 0.95283 0.0
H1139 H 0.6018 0.76825 0.03099 0.0
H1140 H 0.58424 0.77073 0.09975 0.0
H1141 H 0.51448 0.70807 0.31327 0.0
H1142 H 0.50807 0.7232 0.24539 0.0
H1143 H 0.57224 0.76249 0.22778 0.0
H1144 H 0.57854 0.74709 0.29494 0.0
H1145 H 0.55573 0.7453 0.14977 0.0
H1146 H 0.54036 0.77956 0.26748 0.0
H1147 H 0.52294 0.7826 0.33592 0.0
H1148 H 0.46598 0.74982 0.26655 0.0
H1149 H 0.48306 0.74636 0.19786 0.0
C1150 C 0.55667 0.8128 0.02096 0.0
C1151 C 0.53992 0.81342 0.00381 0.0
C1152 C 0.55417 0.79829 0.05311 0.0
C1153 C 0.53478 0.78357 0.06755 0.0
C1154 C 0.51787 0.78351 0.04833 0.0
C1155 C 0.52044 0.79829 0.01622 0.0
C1156 C 0.5327 0.76974 0.10572 0.0
C1157 C 0.52134 0.76874 0.14471 0.0
C1158 C 0.54457 0.76032 0.10708 0.0
C1159 C 0.55527 0.75889 0.06574 0.0
C1160 C 0.54493 0.75155 0.02386 0.0
C1161 C 0.55507 0.75033 0.98497 0.0
C1162 C 0.57555 0.75634 0.98754 0.0
C1163 C 0.58594 0.76359 0.02903 0.0
C1164 C 0.57589 0.76488 0.06799 0.0
C1165 C 0.52713 0.72001 0.29483 0.0
C1166 C 0.54699 0.72605 0.30802 0.0
C1167 C 0.52348 0.72872 0.25633 0.0
C1168 C 0.53968 0.74399 0.23142 0.0
C1169 C 0.55951 0.75063 0.24619 0.0
C1170 C 0.56312 0.7418 0.28431 0.0
C1171 C 0.53623 0.75238 0.18854 0.0
C1172 C 0.54631 0.75204 0.14855 0.0
C1173 C 0.52327 0.76057 0.18644 0.0
C1174 C 0.51295 0.76242 0.22783 0.0
C1175 C 0.5241 0.77279 0.26702 0.0
C1176 C 0.51429 0.77465 0.30581 0.0
C1177 C 0.49335 0.76633 0.30566 0.0
C1178 C 0.48219 0.7562 0.26666 0.0
C1179 C 0.49192 0.75429 0.2278 0.0
H1180 H 0.48579 0.7678 0.33571 0.0
H1181 H 0.58336 0.75537 0.9574 0.0
H1182 H 0.70776 0.51957 0.37637 0.0
H1183 H 0.72913 0.52149 0.4405 0.0
H1184 H 0.77451 0.58072 0.39345 0.0
H1185 H 0.75117 0.58032 0.33727 0.0
H1186 H 0.75809 0.52028 0.44974 0.0
H1187 H 0.8095 0.59563 0.43198 0.0
H1188 H 0.82022 0.63167 0.42221 0.0
H1189 H 0.77615 0.62594 0.52166 0.0
H1190 H 0.765 0.58964 0.5312 0.0
H1191 H 0.84636 0.58116 0.63064 0.0
H1192 H 0.82704 0.57928 0.56342 0.0
H1193 H 0.78269 0.51798 0.60074 0.0
H1194 H 0.80546 0.51865 0.66025 0.0
H1195 H 0.79898 0.5795 0.54854 0.0
H1196 H 0.74538 0.49615 0.53453 0.0
H1197 H 0.74315 0.46294 0.54239 0.0
H1198 H 0.80482 0.48879 0.49879 0.0
H1199 H 0.80716 0.52212 0.4907 0.0
C1200 C 0.72199 0.53333 0.38165 0.0
C1201 C 0.72747 0.55016 0.35373 0.0
C1202 C 0.73455 0.53439 0.4178 0.0
C1203 C 0.75377 0.55166 0.42426 0.0
C1204 C 0.75959 0.56789 0.3935 0.0
C1205 C 0.74633 0.56743 0.35986 0.0
C1206 C 0.76753 0.55168 0.46141 0.0
C1207 C 0.76692 0.53335 0.47138 0.0
C1208 C 0.78041 0.56874 0.48883 0.0
C1209 C 0.78521 0.58964 0.47934 0.0
C1210 C 0.80164 0.60195 0.45055 0.0
C1211 C 0.80786 0.62239 0.44521 0.0
C1212 C 0.79839 0.63092 0.47023 0.0
C1213 C 0.78289 0.61908 0.50102 0.0
C1214 C 0.77641 0.59852 0.50585 0.0
C1215 C 0.83334 0.56684 0.62188 0.0
C1216 C 0.82854 0.54959 0.64748 0.0
C1217 C 0.82157 0.56588 0.58444 0.0
C1218 C 0.80316 0.54818 0.57477 0.0
C1219 C 0.79728 0.5314 0.60399 0.0
C1220 C 0.81011 0.53192 0.63911 0.0
C1221 C 0.79009 0.5483 0.53619 0.0
C1222 C 0.79045 0.56648 0.5266 0.0
C1223 C 0.77799 0.53144 0.50765 0.0
C1224 C 0.7767 0.51163 0.51315 0.0
C1225 C 0.75847 0.49472 0.52692 0.0
C1226 C 0.75716 0.4759 0.53142 0.0
C1227 C 0.77392 0.47381 0.5216 0.0
C1228 C 0.79197 0.49051 0.50706 0.0
C1229 C 0.79334 0.50936 0.50275 0.0
H1230 H 0.77287 0.45923 0.52493 0.0
H1231 H 0.80335 0.6468 0.4665 0.0
H1232 H 0.1958 0.6992 0.70348 0.0
H1233 H 0.21967 0.71318 0.76801 0.0
H1234 H 0.19846 0.75466 0.79726 0.0
H1235 H 0.17571 0.74172 0.73083 0.0
H1236 H 0.24692 0.76225 0.7653 0.0
H1237 H 0.20155 0.74094 0.94371 0.0
H1238 H 0.18033 0.71069 0.99028 0.0
H1239 H 0.19245 0.67456 0.89672 0.0
H1240 H 0.21441 0.70466 0.85066 0.0
H1241 H 0.2601 0.82811 0.96429 0.0
H1242 H 0.24647 0.8036 0.90111 0.0
H1243 H 0.29016 0.78521 0.92995 0.0
H1244 H 0.30492 0.81094 0.99044 0.0
H1245 H 0.23782 0.75823 0.93459 0.0
H1246 H 0.29771 0.78354 0.85321 0.0
H1247 H 0.32953 0.80528 0.81232 0.0
H1248 H 0.29794 0.82128 0.71427 0.0
H1249 H 0.26595 0.79994 0.7553 0.0
C1250 C 0.196 0.71104 0.72436 0.0
C1251 C 0.1834 0.71892 0.71335 0.0
C1252 C 0.20938 0.71876 0.76161 0.0
C1253 C 0.21014 0.73427 0.7889 0.0
C1254 C 0.1975 0.74209 0.77792 0.0
C1255 C 0.18453 0.73474 0.73998 0.0
C1256 C 0.22707 0.74574 0.82118 0.0
C1257 C 0.24495 0.76141 0.80241 0.0
C1258 C 0.22504 0.74364 0.86964 0.0
C1259 C 0.20928 0.72511 0.89276 0.0
C1260 C 0.19958 0.72653 0.93273 0.0
C1261 C 0.18761 0.70942 0.95948 0.0
C1262 C 0.18498 0.69069 0.94637 0.0
C1263 C 0.19437 0.68905 0.90662 0.0
C1264 C 0.2065 0.70615 0.87998 0.0
C1265 C 0.26739 0.81953 0.9555 0.0
C1266 C 0.28413 0.82206 0.98058 0.0
C1267 C 0.25964 0.80554 0.91949 0.0
C1268 C 0.26799 0.7933 0.90906 0.0
C1269 C 0.28429 0.79531 0.93525 0.0
C1270 C 0.29243 0.80974 0.9704 0.0
C1271 C 0.25654 0.77572 0.87841 0.0
C1272 C 0.23961 0.75905 0.89744 0.0
C1273 C 0.26009 0.77613 0.8305 0.0
C1274 C 0.27951 0.7908 0.80872 0.0
C1275 C 0.29762 0.79228 0.82408 0.0
C1276 C 0.31567 0.80428 0.80035 0.0
C1277 C 0.31581 0.81481 0.76094 0.0
C1278 C 0.29786 0.81322 0.74497 0.0
C1279 C 0.27975 0.80115 0.76847 0.0
H1280 H 0.32979 0.8241 0.74263 0.0
H1281 H 0.17567 0.67745 0.96702 0.0
H1282 H 0.48704 0.19923 0.02647 0.0
H1283 H 0.48883 0.22113 0.09031 0.0
H1284 H 0.42372 0.1911 0.09377 0.0
H1285 H 0.42206 0.1688 0.03152 0.0
H1286 H 0.43613 0.19349 0.17451 0.0
H1287 H 0.50965 0.26888 0.13412 0.0
H1288 H 0.52836 0.28904 0.06636 0.0
H1289 H 0.4739 0.26122 0.98642 0.0
H1290 H 0.45481 0.24114 0.05385 0.0
H1291 H 0.48784 0.29245 0.32766 0.0
H1292 H 0.48994 0.27164 0.26575 0.0
H1293 H 0.42482 0.23667 0.26152 0.0
H1294 H 0.42293 0.25663 0.32478 0.0
H1295 H 0.47935 0.26761 0.18179 0.0
H1296 H 0.40678 0.19033 0.22215 0.0
H1297 H 0.38843 0.16981 0.28972 0.0
H1298 H 0.44235 0.20023 0.37102 0.0
H1299 H 0.46114 0.22066 0.30374 0.0
C1300 C 0.4732 0.19747 0.04098 0.0
C1301 C 0.45443 0.1821 0.02536 0.0
C1302 C 0.47419 0.21006 0.07706 0.0
C1303 C 0.4564 0.2079 0.09673 0.0
C1304 C 0.43765 0.19303 0.07943 0.0
C1305 C 0.43669 0.18025 0.04407 0.0
C1306 C 0.45715 0.21998 0.13753 0.0
C1307 C 0.44564 0.20962 0.17616 0.0
C1308 C 0.46954 0.24121 0.13963 0.0
C1309 C 0.48087 0.25332 0.09893 0.0
C1310 C 0.50166 0.26711 0.10212 0.0
C1311 C 0.51233 0.27852 0.06377 0.0
C1312 C 0.50235 0.27635 0.02207 0.0
C1313 C 0.48164 0.26282 0.01868 0.0
C1314 C 0.4709 0.2514 0.05695 0.0
C1315 C 0.47408 0.28011 0.31362 0.0
C1316 C 0.45521 0.27644 0.32939 0.0
C1317 C 0.47525 0.26831 0.27828 0.0
C1318 C 0.45755 0.25251 0.25891 0.0
C1319 C 0.43873 0.24845 0.2763 0.0
C1320 C 0.43761 0.26007 0.31186 0.0
C1321 C 0.45854 0.24082 0.21914 0.0
C1322 C 0.47024 0.25131 0.18061 0.0
C1323 C 0.44652 0.21956 0.21724 0.0
C1324 C 0.43533 0.20722 0.25794 0.0
C1325 C 0.41476 0.1926 0.25438 0.0
C1326 C 0.40428 0.18097 0.29265 0.0
C1327 C 0.4142 0.18377 0.33469 0.0
C1328 C 0.43466 0.19813 0.33849 0.0
C1329 C 0.44523 0.20976 0.30029 0.0
H1330 H 0.40605 0.17478 0.36431 0.0
H1331 H 0.51064 0.28519 0.99242 0.0
H1332 H 0.35662 0.51403 0.2642 0.0
H1333 H 0.38872 0.54534 0.27474 0.0
H1334 H 0.40811 0.51499 0.36958 0.0
H1335 H 0.37573 0.48401 0.36084 0.0
H1336 H 0.41852 0.54924 0.40312 0.0
H1337 H 0.42585 0.52739 0.25353 0.0
H1338 H 0.41656 0.51618 0.17313 0.0
H1339 H 0.41891 0.572 0.13996 0.0
H1340 H 0.42797 0.58345 0.22034 0.0
H1341 H 0.52525 0.63097 0.31038 0.0
H1342 H 0.49383 0.59888 0.30382 0.0
H1343 H 0.46525 0.62009 0.39941 0.0
H1344 H 0.49702 0.65197 0.40762 0.0
H1345 H 0.45987 0.58994 0.27084 0.0
H1346 H 0.42632 0.58132 0.45438 0.0
H1347 H 0.43807 0.5899 0.53469 0.0
H1348 H 0.49281 0.59023 0.49987 0.0
H1349 H 0.48128 0.58141 0.41954 0.0
C1350 C 0.36781 0.51403 0.28702 0.0
C1351 C 0.36367 0.49654 0.31157 0.0
C1352 C 0.3862 0.53193 0.29296 0.0
C1353 C 0.40104 0.53256 0.32258 0.0
C1354 C 0.39695 0.515 0.34671 0.0
C1355 C 0.37844 0.49725 0.34151 0.0
C1356 C 0.42073 0.5515 0.32908 0.0
C1357 C 0.42756 0.55811 0.37413 0.0
C1358 C 0.43279 0.563 0.29144 0.0
C1359 C 0.42739 0.55619 0.24305 0.0
C1360 C 0.42425 0.53722 0.22916 0.0
C1361 C 0.41905 0.53083 0.18359 0.0
C1362 C 0.41709 0.54335 0.15149 0.0
C1363 C 0.4204 0.56231 0.16487 0.0
C1364 C 0.42558 0.56876 0.21042 0.0
C1365 C 0.51234 0.62871 0.33045 0.0
C1366 C 0.51365 0.64398 0.35968 0.0
C1367 C 0.49432 0.61037 0.3265 0.0
C1368 C 0.47709 0.60692 0.35122 0.0
C1369 C 0.47839 0.62215 0.38065 0.0
C1370 C 0.49656 0.6404 0.38528 0.0
C1371 C 0.45772 0.58764 0.34488 0.0
C1372 C 0.45087 0.58104 0.29985 0.0
C1373 C 0.44601 0.57578 0.38253 0.0
C1374 C 0.45301 0.58092 0.43085 0.0
C1375 C 0.44083 0.58317 0.46391 0.0
C1376 C 0.44746 0.58808 0.50942 0.0
C1377 C 0.4662 0.59068 0.52233 0.0
C1378 C 0.47833 0.5883 0.48979 0.0
C1379 C 0.47177 0.58337 0.44425 0.0
H1380 H 0.47131 0.5945 0.55757 0.0
H1381 H 0.41306 0.53837 0.11622 0.0
H1382 H 0.84928 0.49373 0.73984 0.0
H1383 H 0.84958 0.46207 0.72991 0.0
H1384 H 0.90347 0.49309 0.64687 0.0
H1385 H 0.90262 0.52438 0.6549 0.0
H1386 H 0.88018 0.46052 0.60671 0.0
H1387 H 0.90265 0.47662 0.76277 0.0
H1388 H 0.90132 0.48535 0.844 0.0
H1389 H 0.84544 0.42987 0.86233 0.0
H1390 H 0.84632 0.42093 0.78101 0.0
H1391 H 0.89567 0.37197 0.69569 0.0
H1392 H 0.8981 0.40481 0.70536 0.0
H1393 H 0.85277 0.3894 0.60047 0.0
H1394 H 0.85092 0.35683 0.58934 0.0
H1395 H 0.87296 0.41464 0.73505 0.0
H1396 H 0.85741 0.43078 0.54871 0.0
H1397 H 0.86358 0.42434 0.4687 0.0
H1398 H 0.9146 0.41966 0.51311 0.0
H1399 H 0.90889 0.42632 0.59326 0.0
C1400 C 0.8613 0.49379 0.71995 0.0
C1401 C 0.87592 0.51151 0.69815 0.0
C1402 C 0.8615 0.47569 0.71433 0.0
C1403 C 0.87664 0.47512 0.68784 0.0
C1404 C 0.89153 0.49301 0.66715 0.0
C1405 C 0.89109 0.51093 0.67196 0.0
C1406 C 0.87673 0.45588 0.68018 0.0
C1407 C 0.87863 0.45053 0.63487 0.0
C1408 C 0.87502 0.44288 0.71678 0.0
C1409 C 0.87445 0.4482 0.76569 0.0
C1410 C 0.89001 0.46635 0.78404 0.0
C1411 C 0.88935 0.47133 0.83011 0.0
C1412 C 0.87328 0.4582 0.85827 0.0
C1413 C 0.85787 0.44004 0.84045 0.0
C1414 C 0.85844 0.435 0.79439 0.0
C1415 C 0.88644 0.3757 0.67418 0.0
C1416 C 0.87319 0.36184 0.64153 0.0
C1417 C 0.88775 0.39445 0.67994 0.0
C1418 C 0.8757 0.39972 0.65356 0.0
C1419 C 0.86255 0.38594 0.62064 0.0
C1420 C 0.86149 0.36729 0.61429 0.0
C1421 C 0.87649 0.41935 0.66163 0.0
C1422 C 0.87459 0.42469 0.70694 0.0
C1423 C 0.87891 0.43268 0.62521 0.0
C1424 C 0.88258 0.42884 0.57704 0.0
C1425 C 0.86999 0.42844 0.54136 0.0
C1426 C 0.8734 0.42474 0.496 0.0
C1427 C 0.88943 0.42152 0.48585 0.0
C1428 C 0.90214 0.42207 0.52104 0.0
C1429 C 0.8988 0.42578 0.56645 0.0
H1430 H 0.89203 0.41865 0.45072 0.0
H1431 H 0.8728 0.46208 0.89393 0.0
H1432 H 0.50389 0.86669 0.90465 0.0
H1433 H 0.47286 0.8685 0.91131 0.0
H1434 H 0.48166 0.87698 0.05802 0.0
H1435 H 0.51253 0.87535 0.05192 0.0
H1436 H 0.443 0.84696 0.03441 0.0
H1437 H 0.49054 0.91587 0.99239 0.0
H1438 H 0.51652 0.94247 0.94324 0.0
H1439 H 0.47521 0.92253 0.82945 0.0
H1440 H 0.44906 0.89561 0.87778 0.0
H1441 H 0.36725 0.87046 0.09206 0.0
H1442 H 0.39955 0.87156 0.08253 0.0
H1443 H 0.39436 0.87366 0.93492 0.0
H1444 H 0.36263 0.87343 0.94417 0.0
H1445 H 0.43122 0.89794 0.95703 0.0
H1446 H 0.38385 0.82935 0.99504 0.0
H1447 H 0.35738 0.80147 0.04061 0.0
H1448 H 0.3973 0.81862 0.15672 0.0
H1449 H 0.42394 0.8468 0.11203 0.0
C1450 C 0.49934 0.86914 0.93826 0.0
C1451 C 0.51078 0.87084 0.9777 0.0
C1452 C 0.48161 0.87019 0.942 0.0
C1453 C 0.47496 0.87286 0.98521 0.0
C1454 C 0.48647 0.87484 0.02439 0.0
C1455 C 0.50421 0.87398 0.0207 0.0
C1456 C 0.45573 0.87302 0.99017 0.0
C1457 C 0.44048 0.85824 0.01793 0.0
C1458 C 0.45225 0.88736 0.96755 0.0
C1459 C 0.46792 0.9036 0.93856 0.0
C1460 C 0.48705 0.91705 0.95678 0.0
C1461 C 0.5018 0.93221 0.92909 0.0
C1462 C 0.49754 0.93416 0.88322 0.0
C1463 C 0.4785 0.92099 0.86497 0.0
C1464 C 0.46371 0.90579 0.89251 0.0
C1465 C 0.37301 0.87121 0.05758 0.0
C1466 C 0.36221 0.87171 0.01892 0.0
C1467 C 0.39145 0.87173 0.05213 0.0
C1468 C 0.39928 0.87232 0.00791 0.0
C1469 C 0.38869 0.87318 0.96939 0.0
C1470 C 0.37044 0.87297 0.9748 0.0
C1471 C 0.41841 0.8719 1.00161 0.0
C1472 C 0.43365 0.88661 0.97353 0.0
C1473 C 0.42178 0.85728 0.02339 0.0
C1474 C 0.40582 0.84031 0.05032 0.0
C1475 C 0.38694 0.82727 0.0304 0.0
C1476 C 0.37191 0.8114 0.05605 0.0
C1477 C 0.37564 0.80831 0.10157 0.0
C1478 C 0.39443 0.82105 0.12148 0.0
C1479 C 0.4095 0.83697 0.096 0.0
H1480 H 0.36399 0.79602 0.12138 0.0
H1481 H 0.50897 0.9459 0.86184 0.0
H1482 H 0.64994 0.49209 0.26109 0.0
H1483 H 0.61809 0.4604 0.27165 0.0
H1484 H 0.59427 0.49202 0.34926 0.0
H1485 H 0.62625 0.52339 0.34046 0.0
H1486 H 0.58566 0.46 0.39273 0.0
H1487 H 0.57932 0.47407 0.23448 0.0
H1488 H 0.58962 0.4817 0.15307 0.0
H1489 H 0.59033 0.42612 0.14083 0.0
H1490 H 0.58027 0.41828 0.22236 0.0
H1491 H 0.48073 0.3731 0.3085 0.0
H1492 H 0.5121 0.40476 0.29633 0.0
H1493 H 0.54091 0.38848 0.40219 0.0
H1494 H 0.50927 0.35696 0.41564 0.0
H1495 H 0.54694 0.4127 0.26663 0.0
H1496 H 0.57844 0.43027 0.45249 0.0
H1497 H 0.5659 0.42473 0.53254 0.0
H1498 H 0.51074 0.42096 0.48699 0.0
H1499 H 0.52306 0.42674 0.40679 0.0
C1500 C 0.63778 0.49228 0.27981 0.0
C1501 C 0.64058 0.51022 0.29993 0.0
C1502 C 0.61956 0.47416 0.28584 0.0
C1503 C 0.60364 0.47375 0.31114 0.0
C1504 C 0.6063 0.49183 0.32995 0.0
C1505 C 0.62457 0.50981 0.32468 0.0
C1506 C 0.58446 0.45451 0.31962 0.0
C1507 C 0.57722 0.44968 0.36506 0.0
C1508 C 0.57324 0.44105 0.28367 0.0
C1509 C 0.57924 0.4457 0.23463 0.0
C1510 C 0.58181 0.46355 0.21451 0.0
C1511 C 0.58758 0.46789 0.16833 0.0
C1512 C 0.59068 0.45443 0.14183 0.0
C1513 C 0.58795 0.43655 0.16142 0.0
C1514 C 0.5822 0.43214 0.20759 0.0
C1515 C 0.49369 0.37631 0.32954 0.0
C1516 C 0.49246 0.36252 0.36323 0.0
C1517 C 0.51167 0.39441 0.32234 0.0
C1518 C 0.52892 0.39913 0.3484 0.0
C1519 C 0.52775 0.38539 0.38215 0.0
C1520 C 0.50964 0.36736 0.38983 0.0
C1521 C 0.5481 0.41831 0.33964 0.0
C1522 C 0.55541 0.42304 0.29425 0.0
C1523 C 0.55908 0.432 0.37543 0.0
C1524 C 0.5516 0.42871 0.4236 0.0
C1525 C 0.56367 0.42832 0.4596 0.0
C1526 C 0.55659 0.42513 0.50499 0.0
C1527 C 0.53751 0.42242 0.51482 0.0
C1528 C 0.52549 0.42298 0.47931 0.0
C1529 C 0.5325 0.42619 0.43388 0.0
H1530 H 0.53205 0.41994 0.54997 0.0
H1531 H 0.59515 0.45782 0.10609 0.0
H1532 H 0.13996 0.63958 0.58703 0.0
H1533 H 0.13905 0.60718 0.59313 0.0
H1534 H 0.12581 0.60471 0.73812 0.0
H1535 H 0.12628 0.63672 0.73244 0.0
H1536 H 0.15808 0.59743 0.7159 0.0
H1537 H 0.08937 0.57562 0.67155 0.0
H1538 H 0.06308 0.5753 0.62199 0.0
H1539 H 0.08469 0.55607 0.50707 0.0
H1540 H 0.11132 0.55656 0.55583 0.0
H1541 H 0.13548 0.49741 0.76474 0.0
H1542 H 0.13468 0.52888 0.75826 0.0
H1543 H 0.13342 0.52393 0.61006 0.0
H1544 H 0.13335 0.49217 0.6163 0.0
H1545 H 0.10863 0.53546 0.63354 0.0
H1546 H 0.17718 0.55739 0.6732 0.0
H1547 H 0.20507 0.55884 0.7187 0.0
H1548 H 0.18628 0.57922 0.83664 0.0
H1549 H 0.1581 0.57762 0.79199 0.0
C1550 C 0.13671 0.63209 0.62016 0.0
C1551 C 0.13326 0.64086 0.65923 0.0
C1552 C 0.1362 0.61358 0.62356 0.0
C1553 C 0.13241 0.60361 0.66612 0.0
C1554 C 0.12884 0.61222 0.70502 0.0
C1555 C 0.12906 0.63053 0.70157 0.0
C1556 C 0.13247 0.58432 0.67045 0.0
C1557 C 0.14714 0.58379 0.69837 0.0
C1558 C 0.11855 0.56675 0.64648 0.0
C1559 C 0.10247 0.56633 0.61722 0.0
C1560 C 0.08863 0.57149 0.63561 0.0
C1561 C 0.07364 0.57125 0.60769 0.0
C1562 C 0.07225 0.56572 0.56138 0.0
C1563 C 0.08581 0.56037 0.54293 0.0
C1564 C 0.10084 0.56062 0.57071 0.0
C1565 C 0.13505 0.50304 0.73078 0.0
C1566 C 0.13455 0.49226 0.69108 0.0
C1567 C 0.13469 0.52111 0.72708 0.0
C1568 C 0.1343 0.52902 0.6836 0.0
C1569 C 0.1337 0.5182 0.64401 0.0
C1570 C 0.13373 0.50002 0.64768 0.0
C1571 C 0.13431 0.54843 0.67911 0.0
C1572 C 0.11964 0.54904 0.65113 0.0
C1573 C 0.14848 0.5662 0.70243 0.0
C1574 C 0.16541 0.56718 0.72938 0.0
C1575 C 0.1789 0.56203 0.70894 0.0
C1576 C 0.19478 0.5629 0.73456 0.0
C1577 C 0.19741 0.56907 0.78057 0.0
C1578 C 0.1842 0.57442 0.80102 0.0
C1579 C 0.16828 0.57354 0.77557 0.0
H1580 H 0.20971 0.56974 0.80035 0.0
H1581 H 0.06063 0.56554 0.53981 0.0
H1582 H 0.62643 0.10826 0.98609 0.0
H1583 H 0.59508 0.10906 0.97877 0.0
H1584 H 0.61846 0.1603 0.07031 0.0
H1585 H 0.64963 0.15899 0.0793 0.0
H1586 H 0.58053 0.13799 0.08636 0.0
H1587 H 0.61909 0.16572 0.95114 0.0
H1588 H 0.63956 0.16744 0.88382 0.0
H1589 H 0.58882 0.11489 0.82636 0.0
H1590 H 0.5681 0.11267 0.89374 0.0
H1591 H 0.50912 0.15912 0.93125 0.0
H1592 H 0.54147 0.16025 0.94138 0.0
H1593 H 0.51351 0.11059 0.03723 0.0
H1594 H 0.4815 0.10997 0.02869 0.0
H1595 H 0.55623 0.13705 0.92743 0.0
H1596 H 0.54469 0.11498 0.12233 0.0
H1597 H 0.52699 0.1187 0.18943 0.0
H1598 H 0.52893 0.17051 0.12703 0.0
H1599 H 0.54698 0.16735 0.06 0.0
C1600 C 0.6248 0.11955 0.00513 0.0
C1601 C 0.64055 0.13365 0.03304 0.0
C1602 C 0.60691 0.12008 1.00068 0.0
C1603 C 0.60457 0.13509 0.02297 0.0
C1604 C 0.61992 0.14865 0.05253 0.0
C1605 C 0.63772 0.14787 0.05771 0.0
C1606 C 0.58639 0.13694 0.01411 0.0
C1607 C 0.57523 0.13779 0.05163 0.0
C1608 C 0.57982 0.13749 0.96874 0.0
C1609 C 0.59208 0.13894 0.92769 0.0
C1610 C 0.61232 0.15447 0.92427 0.0
C1611 C 0.62397 0.15553 0.8861 0.0
C1612 C 0.61551 0.14126 0.85088 0.0
C1613 C 0.59535 0.12593 0.85369 0.0
C1614 C 0.58364 0.12477 0.89185 0.0
C1615 C 0.50987 0.14834 0.95416 0.0
C1616 C 0.49282 0.1346 0.97953 0.0
C1617 C 0.52837 0.14901 0.95997 0.0
C1618 C 0.53009 0.13581 0.9909 0.0
C1619 C 0.51276 0.12134 0.01422 0.0
C1620 C 0.49442 0.12091 0.00909 0.0
C1621 C 0.54999 0.13736 0.99971 0.0
C1622 C 0.56153 0.13727 0.96218 0.0
C1623 C 0.55737 0.13842 0.04503 0.0
C1624 C 0.54704 0.14079 0.08592 0.0
C1625 C 0.54147 0.12725 0.12307 0.0
C1626 C 0.53136 0.12926 0.16108 0.0
C1627 C 0.52679 0.1448 0.16243 0.0
C1628 C 0.53243 0.15845 0.1259 0.0
C1629 C 0.54261 0.15656 0.08789 0.0
H1630 H 0.5189 0.14628 0.19182 0.0
H1631 H 0.62457 0.14209 0.82138 0.0
loop_
_geom_bond_atom_site_label_1
_geom_bond_atom_site_label_2
_geom_bond_distance
_geom_bond_site_symmetry_2
_ccdc_geom_bond_type
Mn0 O5 2.095 . S
Mn0 O15 2.162 . S
Mn0 O16 2.297 . S
Mn0 O24 2.385 . S
Mn0 O25 2.209 . S
Mn0 O26 2.094 . S
Mn1 O6 2.121 . S
Mn1 N8 2.257 . S
Mn1 N17 2.282 . S
Mn1 O25 2.215 . S
Mn1 O27 2.117 . S
C2 O24 1.234 . S
C2 O25 1.283 . S
C3 O15 1.281 . S
C3 O16 1.236 . S
C4 O26 1.240 . S
C4 O27 1.264 . S
O5 Mn0 2.095 . S
O5 C14 1.250 . S
O6 Mn1 2.121 . S
O6 C14 1.258 . S
C7 N8 1.326 . S
C7 C11 1.460 . S
C7 H13 0.929 . S
N8 Mn1 2.257 . S
N8 C7 1.326 . S
N8 C12 1.362 . S
C9 C10 1.258 . S
C9 C12 1.431 . S
C9 C29 1.449 . S
C10 C9 1.258 . S
C10 C11 1.477 . S
C10 H30 0.931 . S
C11 C7 1.460 . S
C11 C10 1.477 . S
C11 H31 0.930 . S
C12 N8 1.362 . S
C12 C9 1.431 . S
C12 C22 1.476 . S
H13 C7 0.929 . S
C14 O5 1.250 . S
C14 O6 1.258 . S
O15 Mn0 2.162 . S
O15 C3 1.281 . S
O16 Mn0 2.297 . S
O16 C3 1.236 . S
N17 Mn1 2.282 . S
N17 C18 1.328 . S
N17 C22 1.318 . S
C18 N17 1.328 . S
C18 C19 1.457 . S
C18 H23 0.929 . S
C19 C18 1.457 . S
C19 C20 1.291 . S
C19 H32 0.931 . S
C20 C19 1.291 . S
C20 C21 1.373 . S
C20 H33 0.929 . S
C21 C20 1.373 . S
C21 C22 1.396 . S
C21 C28 1.403 . S
C22 C12 1.476 . S
C22 N17 1.318 . S
C22 C21 1.396 . S
H23 C18 0.929 . S
O24 Mn0 2.385 . S
O24 C2 1.234 . S
O25 Mn0 2.209 . S
O25 Mn1 2.215 . S
O25 C2 1.283 . S
O26 Mn0 2.094 . S
O26 C4 1.240 . S
O27 Mn1 2.117 . S
O27 C4 1.264 . S
C28 C21 1.403 . S
C28 C29 1.399 . S
C28 H34 0.929 . S
C29 C9 1.449 . S
C29 C28 1.399 . S
C29 H35 0.930 . S
H30 C10 0.931 . S
H31 C11 0.930 . S
H32 C19 0.931 . S
H33 C20 0.929 . S
H34 C28 0.929 . S
H35 C29 0.930 . S
Mn36 O41 2.095 . S
Mn36 O51 2.162 . S
Mn36 O52 2.297 . S
Mn36 O60 2.385 . S
Mn36 O61 2.209 . S
Mn36 O62 2.094 . S
Mn37 O42 2.121 . S
Mn37 N44 2.257 . S
Mn37 N53 2.282 . S
Mn37 O61 2.215 . S
Mn37 O63 2.117 . S
C38 O60 1.234 . S
C38 O61 1.283 . S
C39 O51 1.281 . S
C39 O52 1.236 . S
C40 O62 1.240 . S
C40 O63 1.264 . S
O41 Mn36 2.095 . S
O41 C50 1.250 . S
O42 Mn37 2.121 . S
O42 C50 1.258 . S
C43 N44 1.326 . S
C43 C47 1.460 . S
C43 H49 0.929 . S
N44 Mn37 2.257 . S
N44 C43 1.326 . S
N44 C48 1.362 . S
C45 C46 1.258 . S
C45 C48 1.431 . S
C45 C65 1.449 . S
C46 C45 1.258 . S
C46 C47 1.477 . S
C46 H66 0.931 . S
C47 C43 1.460 . S
C47 C46 1.477 . S
C47 H67 0.930 . S
C48 N44 1.362 . S
C48 C45 1.431 . S
C48 C58 1.476 . S
H49 C43 0.929 . S
C50 O41 1.250 . S
C50 O42 1.258 . S
O51 Mn36 2.162 . S
O51 C39 1.281 . S
O52 Mn36 2.297 . S
O52 C39 1.236 . S
N53 Mn37 2.282 . S
N53 C54 1.328 . S
N53 C58 1.318 . S
C54 N53 1.328 . S
C54 C55 1.457 . S
C54 H59 0.929 . S
C55 C54 1.457 . S
C55 C56 1.291 . S
C55 H68 0.931 . S
C56 C55 1.291 . S
C56 C57 1.373 . S
C56 H69 0.929 . S
C57 C56 1.373 . S
C57 C58 1.396 . S
C57 C64 1.403 . S
C58 C48 1.476 . S
C58 N53 1.318 . S
C58 C57 1.396 . S
H59 C54 0.929 . S
O60 Mn36 2.385 . S
O60 C38 1.234 . S
O61 Mn36 2.209 . S
O61 Mn37 2.215 . S
O61 C38 1.283 . S
O62 Mn36 2.094 . S
O62 C40 1.240 . S
O63 Mn37 2.117 . S
O63 C40 1.264 . S
C64 C57 1.403 . S
C64 C65 1.399 . S
C64 H70 0.929 . S
C65 C45 1.449 . S
C65 C64 1.399 . S
C65 H71 0.930 . S
H66 C46 0.931 . S
H67 C47 0.930 . S
H68 C55 0.931 . S
H69 C56 0.929 . S
H70 C64 0.929 . S
H71 C65 0.930 . S
Mn72 O77 2.095 . S
Mn72 O87 2.162 . S
Mn72 O88 2.297 . S
Mn72 O96 2.385 . S
Mn72 O97 2.209 1_556 S
Mn72 O98 2.094 . S
Mn73 O78 2.127 . S
Mn73 N80 2.257 . S
Mn73 N89 2.282 . S
Mn73 O97 2.215 . S
Mn73 O99 2.117 . S
C74 O96 1.234 1_554 S
C74 O97 1.283 . S
C75 O87 1.281 . S
C75 O88 1.236 . S
C76 O98 1.240 . S
C76 O99 1.264 1_556 S
O77 Mn72 2.095 . S
O77 C86 1.250 . S
O78 Mn73 2.127 . S
O78 C86 1.248 1_554 S
C79 N80 1.326 . S
C79 C83 1.460 . S
C79 H85 0.929 . S
N80 Mn73 2.257 . S
N80 C79 1.326 . S
N80 C84 1.362 . S
C81 C82 1.258 . S
C81 C84 1.431 . S
C81 C101 1.449 . S
C82 C81 1.258 . S
C82 C83 1.477 . S
C82 H102 0.931 . S
C83 C79 1.460 . S
C83 C82 1.477 . S
C83 H103 0.930 . S
C84 N80 1.362 . S
C84 C81 1.431 . S
C84 C94 1.476 . S
H85 C79 0.929 . S
C86 O77 1.250 . S
C86 O78 1.248 1_556 S
O87 Mn72 2.162 . S
O87 C75 1.281 . S
O88 Mn72 2.297 . S
O88 C75 1.236 . S
N89 Mn73 2.282 . S
N89 C90 1.328 . S
N89 C94 1.318 . S
C90 N89 1.328 . S
C90 C91 1.457 . S
C90 H95 0.929 . S
C91 C90 1.457 . S
C91 C92 1.291 . S
C91 H104 0.931 . S
C92 C91 1.291 . S
C92 C93 1.373 . S
C92 H105 0.929 . S
C93 C92 1.373 . S
C93 C94 1.396 . S
C93 C100 1.403 . S
C94 C84 1.476 . S
C94 N89 1.318 . S
C94 C93 1.396 . S
H95 C90 0.929 . S
O96 Mn72 2.385 . S
O96 C74 1.234 1_556 S
O97 Mn72 2.209 1_554 S
O97 Mn73 2.215 . S
O97 C74 1.283 . S
O98 Mn72 2.094 . S
O98 C76 1.240 . S
O99 Mn73 2.117 . S
O99 C76 1.264 1_554 S
C100 C93 1.403 . S
C100 C101 1.399 . S
C100 H106 0.929 . S
C101 C81 1.449 . S
C101 C100 1.399 . S
C101 H107 0.930 . S
H102 C82 0.931 . S
H103 C83 0.930 . S
H104 C91 0.931 . S
H105 C92 0.929 . S
H106 C100 0.929 . S
H107 C101 0.930 . S
Mn108 O113 2.095 . S
Mn108 O123 2.162 . S
Mn108 O124 2.297 . S
Mn108 O132 2.385 . S
Mn108 O133 2.209 . S
Mn108 O134 2.094 . S
Mn109 O114 2.121 . S
Mn109 N116 2.257 . S
Mn109 N125 2.282 . S
Mn109 O133 2.215 . S
Mn109 O135 2.117 . S
C110 O132 1.234 . S
C110 O133 1.283 . S
C111 O123 1.281 . S
C111 O124 1.236 . S
C112 O134 1.240 . S
C112 O135 1.264 . S
O113 Mn108 2.095 . S
O113 C122 1.250 . S
O114 Mn109 2.121 . S
O114 C122 1.258 . S
C115 N116 1.326 . S
C115 C119 1.460 . S
C115 H121 0.929 . S
N116 Mn109 2.257 . S
N116 C115 1.326 . S
N116 C120 1.362 . S
C117 C118 1.258 . S
C117 C120 1.431 . S
C117 C137 1.449 . S
C118 C117 1.258 . S
C118 C119 1.477 . S
C118 H138 0.931 . S
C119 C115 1.460 . S
C119 C118 1.477 . S
C119 H139 0.930 . S
C120 N116 1.362 . S
C120 C117 1.431 . S
C120 C130 1.476 . S
H121 C115 0.929 . S
C122 O113 1.250 . S
C122 O114 1.258 . S
O123 Mn108 2.162 . S
O123 C111 1.281 . S
O124 Mn108 2.297 . S
O124 C111 1.236 . S
N125 Mn109 2.282 . S
N125 C126 1.328 . S
N125 C130 1.318 . S
C126 N125 1.328 . S
C126 C127 1.457 . S
C126 H131 0.929 . S
C127 C126 1.457 . S
C127 C128 1.291 . S
C127 H140 0.931 . S
C128 C127 1.291 . S
C128 C129 1.373 . S
C128 H141 0.929 . S
C129 C128 1.373 . S
C129 C130 1.396 . S
C129 C136 1.403 . S
C130 C120 1.476 . S
C130 N125 1.318 . S
C130 C129 1.396 . S
H131 C126 0.929 . S
O132 Mn108 2.385 . S
O132 C110 1.234 . S
O133 Mn108 2.209 . S
O133 Mn109 2.215 . S
O133 C110 1.283 . S
O134 Mn108 2.094 . S
O134 C112 1.240 . S
O135 Mn109 2.117 . S
O135 C112 1.264 . S
C136 C129 1.403 . S
C136 C137 1.399 . S
C136 H142 0.929 . S
C137 C117 1.449 . S
C137 C136 1.399 . S
C137 H143 0.930 . S
H138 C118 0.931 . S
H139 C119 0.930 . S
H140 C127 0.931 . S
H141 C128 0.929 . S
H142 C136 0.929 . S
H143 C137 0.930 . S
Mn144 O149 2.095 . S
Mn144 O159 2.162 . S
Mn144 O160 2.297 . S
Mn144 O168 2.385 . S
Mn144 O169 2.209 . S
Mn144 O170 2.094 . S
Mn145 O150 2.121 . S
Mn145 N152 2.257 . S
Mn145 N161 2.282 . S
Mn145 O169 2.215 . S
Mn145 O171 2.117 . S
C146 O168 1.234 . S
C146 O169 1.283 . S
C147 O159 1.281 . S
C147 O160 1.236 . S
C148 O170 1.240 . S
C148 O171 1.264 . S
O149 Mn144 2.095 . S
O149 C158 1.250 . S
O150 Mn145 2.121 . S
O150 C158 1.258 . S
C151 N152 1.326 . S
C151 C155 1.460 . S
C151 H157 0.929 . S
N152 Mn145 2.257 . S
N152 C151 1.326 . S
N152 C156 1.362 . S
C153 C154 1.258 . S
C153 C156 1.431 . S
C153 C173 1.449 . S
C154 C153 1.258 . S
C154 C155 1.477 . S
C154 H174 0.931 . S
C155 C151 1.460 . S
C155 C154 1.477 . S
C155 H175 0.930 . S
C156 N152 1.362 . S
C156 C153 1.431 . S
C156 C166 1.476 . S
H157 C151 0.929 . S
C158 O149 1.250 . S
C158 O150 1.258 . S
O159 Mn144 2.162 . S
O159 C147 1.281 . S
O160 Mn144 2.297 . S
O160 C147 1.236 . S
N161 Mn145 2.282 . S
N161 C162 1.328 . S
N161 C166 1.318 . S
C162 N161 1.328 . S
C162 C163 1.457 . S
C162 H167 0.929 . S
C163 C162 1.457 . S
C163 C164 1.291 . S
C163 H176 0.931 . S
C164 C163 1.291 . S
C164 C165 1.373 . S
C164 H177 0.929 . S
C165 C164 1.373 . S
C165 C166 1.396 . S
C165 C172 1.403 . S
C166 C156 1.476 . S
C166 N161 1.318 . S
C166 C165 1.396 . S
H167 C162 0.929 . S
O168 Mn144 2.385 . S
O168 C146 1.234 . S
O169 Mn144 2.209 . S
O169 Mn145 2.215 . S
O169 C146 1.283 . S
O170 Mn144 2.094 . S
O170 C148 1.240 . S
O171 Mn145 2.117 . S
O171 C148 1.264 . S
C172 C165 1.403 . S
C172 C173 1.399 . S
C172 H178 0.929 . S
C173 C153 1.449 . S
C173 C172 1.399 . S
C173 H179 0.930 . S
H174 C154 0.931 . S
H175 C155 0.930 . S
H176 C163 0.931 . S
H177 C164 0.929 . S
H178 C172 0.929 . S
H179 C173 0.930 . S
Mn180 O185 2.095 . S
Mn180 O195 2.162 . S
Mn180 O196 2.297 . S
Mn180 O204 2.385 . S
Mn180 O205 2.209 1_556 S
Mn180 O206 2.094 . S
Mn181 O186 2.127 . S
Mn181 N188 2.257 . S
Mn181 N197 2.282 . S
Mn181 O205 2.215 . S
Mn181 O207 2.117 . S
C182 O204 1.234 1_554 S
C182 O205 1.283 . S
C183 O195 1.281 . S
C183 O196 1.236 . S
C184 O206 1.240 . S
C184 O207 1.264 1_556 S
O185 Mn180 2.095 . S
O185 C194 1.250 . S
O186 Mn181 2.127 . S
O186 C194 1.249 1_554 S
C187 N188 1.326 . S
C187 C191 1.460 . S
C187 H193 0.929 . S
N188 Mn181 2.257 . S
N188 C187 1.326 . S
N188 C192 1.362 . S
C189 C190 1.258 . S
C189 C192 1.431 . S
C189 C209 1.449 . S
C190 C189 1.258 . S
C190 C191 1.477 . S
C190 H210 0.931 . S
C191 C187 1.460 . S
C191 C190 1.477 . S
C191 H211 0.930 . S
C192 N188 1.362 . S
C192 C189 1.431 . S
C192 C202 1.476 . S
H193 C187 0.929 . S
C194 O185 1.250 . S
C194 O186 1.249 1_556 S
O195 Mn180 2.162 . S
O195 C183 1.281 . S
O196 Mn180 2.297 . S
O196 C183 1.236 . S
N197 Mn181 2.282 . S
N197 C198 1.328 . S
N197 C202 1.318 . S
C198 N197 1.328 . S
C198 C199 1.457 . S
C198 H203 0.929 . S
C199 C198 1.457 . S
C199 C200 1.291 . S
C199 H212 0.931 . S
C200 C199 1.291 . S
C200 C201 1.373 . S
C200 H213 0.929 . S
C201 C200 1.373 . S
C201 C202 1.396 . S
C201 C208 1.403 . S
C202 C192 1.476 . S
C202 N197 1.318 . S
C202 C201 1.396 . S
H203 C198 0.929 . S
O204 Mn180 2.385 . S
O204 C182 1.234 1_556 S
O205 Mn180 2.209 1_554 S
O205 Mn181 2.215 . S
O205 C182 1.283 . S
O206 Mn180 2.094 . S
O206 C184 1.240 . S
O207 Mn181 2.117 . S
O207 C184 1.264 1_554 S
C208 C201 1.403 . S
C208 C209 1.399 . S
C208 H214 0.929 . S
C209 C189 1.449 . S
C209 C208 1.399 . S
C209 H215 0.930 . S
H210 C190 0.931 . S
H211 C191 0.930 . S
H212 C199 0.931 . S
H213 C200 0.929 . S
H214 C208 0.929 . S
H215 C209 0.930 . S
Mn216 O221 2.095 . S
Mn216 O231 2.162 . S
Mn216 O232 2.297 . S
Mn216 O240 2.385 . S
Mn216 O241 2.209 . S
Mn216 O242 2.094 . S
Mn217 O222 2.121 . S
Mn217 N224 2.257 . S
Mn217 N233 2.282 . S
Mn217 O241 2.215 . S
Mn217 O243 2.117 . S
C218 O240 1.234 . S
C218 O241 1.283 . S
C219 O231 1.281 . S
C219 O232 1.236 . S
C220 O242 1.240 . S
C220 O243 1.264 . S
O221 Mn216 2.095 . S
O221 C230 1.250 . S
O222 Mn217 2.121 . S
O222 C230 1.258 . S
C223 N224 1.326 . S
C223 C227 1.460 . S
C223 H229 0.929 . S
N224 Mn217 2.257 . S
N224 C223 1.326 . S
N224 C228 1.362 . S
C225 C226 1.258 . S
C225 C228 1.431 . S
C225 C245 1.449 . S
C226 C225 1.258 . S
C226 C227 1.477 . S
C226 H246 0.931 . S
C227 C223 1.460 . S
C227 C226 1.477 . S
C227 H247 0.930 . S
C228 N224 1.362 . S
C228 C225 1.431 . S
C228 C238 1.476 . S
H229 C223 0.929 . S
C230 O221 1.250 . S
C230 O222 1.258 . S
O231 Mn216 2.162 . S
O231 C219 1.281 . S
O232 Mn216 2.297 . S
O232 C219 1.236 . S
N233 Mn217 2.282 . S
N233 C234 1.328 . S
N233 C238 1.318 . S
C234 N233 1.328 . S
C234 C235 1.457 . S
C234 H239 0.929 . S
C235 C234 1.457 . S
C235 C236 1.291 . S
C235 H248 0.931 . S
C236 C235 1.291 . S
C236 C237 1.373 . S
C236 H249 0.929 . S
C237 C236 1.373 . S
C237 C238 1.396 . S
C237 C244 1.403 . S
C238 C228 1.476 . S
C238 N233 1.318 . S
C238 C237 1.396 . S
H239 C234 0.929 . S
O240 Mn216 2.385 . S
O240 C218 1.234 . S
O241 Mn216 2.209 . S
O241 Mn217 2.215 . S
O241 C218 1.283 . S
O242 Mn216 2.094 . S
O242 C220 1.240 . S
O243 Mn217 2.117 . S
O243 C220 1.264 . S
C244 C237 1.403 . S
C244 C245 1.399 . S
C244 H250 0.929 . S
C245 C225 1.449 . S
C245 C244 1.399 . S
C245 H251 0.930 . S
H246 C226 0.931 . S
H247 C227 0.930 . S
H248 C235 0.931 . S
H249 C236 0.929 . S
H250 C244 0.929 . S
H251 C245 0.930 . S
Mn252 O257 2.095 . S
Mn252 O267 2.162 . S
Mn252 O268 2.297 . S
Mn252 O276 2.385 . S
Mn252 O277 2.209 . S
Mn252 O278 2.094 . S
Mn253 O258 2.121 . S
Mn253 N260 2.257 . S
Mn253 N269 2.282 . S
Mn253 O277 2.215 . S
Mn253 O279 2.117 . S
C254 O276 1.234 . S
C254 O277 1.283 . S
C255 O267 1.281 . S
C255 O268 1.236 . S
C256 O278 1.240 . S
C256 O279 1.264 . S
O257 Mn252 2.095 . S
O257 C266 1.250 . S
O258 Mn253 2.121 . S
O258 C266 1.258 . S
C259 N260 1.326 . S
C259 C263 1.460 . S
C259 H265 0.929 . S
N260 Mn253 2.257 . S
N260 C259 1.326 . S
N260 C264 1.362 . S
C261 C262 1.258 . S
C261 C264 1.431 . S
C261 C281 1.449 . S
C262 C261 1.258 . S
C262 C263 1.477 . S
C262 H282 0.931 . S
C263 C259 1.460 . S
C263 C262 1.477 . S
C263 H283 0.930 . S
C264 N260 1.362 . S
C264 C261 1.431 . S
C264 C274 1.476 . S
H265 C259 0.929 . S
C266 O257 1.250 . S
C266 O258 1.258 . S
O267 Mn252 2.162 . S
O267 C255 1.281 . S
O268 Mn252 2.297 . S
O268 C255 1.236 . S
N269 Mn253 2.282 . S
N269 C270 1.328 . S
N269 C274 1.318 . S
C270 N269 1.328 . S
C270 C271 1.457 . S
C270 H275 0.929 . S
C271 C270 1.457 . S
C271 C272 1.291 . S
C271 H284 0.931 . S
C272 C271 1.291 . S
C272 C273 1.373 . S
C272 H285 0.929 . S
C273 C272 1.373 . S
C273 C274 1.396 . S
C273 C280 1.403 . S
C274 C264 1.476 . S
C274 N269 1.318 . S
C274 C273 1.396 . S
H275 C270 0.929 . S
O276 Mn252 2.385 . S
O276 C254 1.234 . S
O277 Mn252 2.209 . S
O277 Mn253 2.215 . S
O277 C254 1.283 . S
O278 Mn252 2.094 . S
O278 C256 1.240 . S
O279 Mn253 2.117 . S
O279 C256 1.264 . S
C280 C273 1.403 . S
C280 C281 1.399 . S
C280 H286 0.929 . S
C281 C261 1.449 . S
C281 C280 1.399 . S
C281 H287 0.930 . S
H282 C262 0.931 . S
H283 C263 0.930 . S
H284 C271 0.931 . S
H285 C272 0.929 . S
H286 C280 0.929 . S
H287 C281 0.930 . S
Mn288 O293 2.095 . S
Mn288 O303 2.162 . S
Mn288 O304 2.297 . S
Mn288 O312 2.385 . S
Mn288 O313 2.209 1_554 S
Mn288 O314 2.094 . S
Mn289 O294 2.127 . S
Mn289 N296 2.257 . S
Mn289 N305 2.282 . S
Mn289 O313 2.215 . S
Mn289 O315 2.117 . S
C290 O312 1.234 1_556 S
C290 O313 1.283 . S
C291 O303 1.281 . S
C291 O304 1.236 . S
C292 O314 1.240 . S
C292 O315 1.264 1_554 S
O293 Mn288 2.095 . S
O293 C302 1.250 . S
O294 Mn289 2.127 . S
O294 C302 1.249 1_556 S
C295 N296 1.326 . S
C295 C299 1.460 . S
C295 H301 0.929 . S
N296 Mn289 2.257 . S
N296 C295 1.326 . S
N296 C300 1.362 . S
C297 C298 1.258 . S
C297 C300 1.431 . S
C297 C317 1.449 . S
C298 C297 1.258 . S
C298 C299 1.477 . S
C298 H318 0.931 . S
C299 C295 1.460 . S
C299 C298 1.477 . S
C299 H319 0.930 . S
C300 N296 1.362 . S
C300 C297 1.431 . S
C300 C310 1.476 . S
H301 C295 0.929 . S
C302 O293 1.250 . S
C302 O294 1.249 1_554 S
O303 Mn288 2.162 . S
O303 C291 1.281 . S
O304 Mn288 2.297 . S
O304 C291 1.236 . S
N305 Mn289 2.282 . S
N305 C306 1.328 . S
N305 C310 1.318 . S
C306 N305 1.328 . S
C306 C307 1.457 . S
C306 H311 0.929 . S
C307 C306 1.457 . S
C307 C308 1.291 . S
C307 H320 0.931 . S
C308 C307 1.291 . S
C308 C309 1.373 . S
C308 H321 0.929 . S
C309 C308 1.373 . S
C309 C310 1.396 . S
C309 C316 1.403 . S
C310 C300 1.476 . S
C310 N305 1.318 . S
C310 C309 1.396 . S
H311 C306 0.929 . S
O312 Mn288 2.385 . S
O312 C290 1.234 1_554 S
O313 Mn288 2.209 1_556 S
O313 Mn289 2.215 . S
O313 C290 1.283 . S
O314 Mn288 2.094 . S
O314 C292 1.240 . S
O315 Mn289 2.117 . S
O315 C292 1.264 1_556 S
C316 C309 1.403 . S
C316 C317 1.399 . S
C316 H322 0.929 . S
C317 C297 1.449 . S
C317 C316 1.399 . S
C317 H323 0.930 . S
H318 C298 0.931 . S
H319 C299 0.930 . S
H320 C307 0.931 . S
H321 C308 0.929 . S
H322 C316 0.929 . S
H323 C317 0.930 . S
Mn324 O329 2.095 . S
Mn324 O339 2.162 . S
Mn324 O340 2.297 . S
Mn324 O348 2.385 . S
Mn324 O349 2.209 . S
Mn324 O350 2.094 . S
Mn325 O330 2.121 . S
Mn325 N332 2.257 . S
Mn325 N341 2.282 . S
Mn325 O349 2.215 . S
Mn325 O351 2.117 . S
C326 O348 1.234 . S
C326 O349 1.283 . S
C327 O339 1.281 . S
C327 O340 1.236 . S
C328 O350 1.240 . S
C328 O351 1.264 . S
O329 Mn324 2.095 . S
O329 C338 1.250 . S
O330 Mn325 2.121 . S
O330 C338 1.258 . S
C331 N332 1.326 . S
C331 C335 1.460 . S
C331 H337 0.929 . S
N332 Mn325 2.257 . S
N332 C331 1.326 . S
N332 C336 1.362 . S
C333 C334 1.258 . S
C333 C336 1.431 . S
C333 C353 1.449 . S
C334 C333 1.258 . S
C334 C335 1.477 . S
C334 H354 0.931 . S
C335 C331 1.460 . S
C335 C334 1.477 . S
C335 H355 0.930 . S
C336 N332 1.362 . S
C336 C333 1.431 . S
C336 C346 1.476 . S
H337 C331 0.929 . S
C338 O329 1.250 . S
C338 O330 1.258 . S
O339 Mn324 2.162 . S
O339 C327 1.281 . S
O340 Mn324 2.297 . S
O340 C327 1.236 . S
N341 Mn325 2.282 . S
N341 C342 1.328 . S
N341 C346 1.318 . S
C342 N341 1.328 . S
C342 C343 1.457 . S
C342 H347 0.929 . S
C343 C342 1.457 . S
C343 C344 1.291 . S
C343 H356 0.931 . S
C344 C343 1.291 . S
C344 C345 1.373 . S
C344 H357 0.929 . S
C345 C344 1.373 . S
C345 C346 1.396 . S
C345 C352 1.403 . S
C346 C336 1.476 . S
C346 N341 1.318 . S
C346 C345 1.396 . S
H347 C342 0.929 . S
O348 Mn324 2.385 . S
O348 C326 1.234 . S
O349 Mn324 2.209 . S
O349 Mn325 2.215 . S
O349 C326 1.283 . S
O350 Mn324 2.094 . S
O350 C328 1.240 . S
O351 Mn325 2.117 . S
O351 C328 1.264 . S
C352 C345 1.403 . S
C352 C353 1.399 . S
C352 H358 0.929 . S
C353 C333 1.449 . S
C353 C352 1.399 . S
C353 H359 0.930 . S
H354 C334 0.931 . S
H355 C335 0.930 . S
H356 C343 0.931 . S
H357 C344 0.929 . S
H358 C352 0.929 . S
H359 C353 0.930 . S
Mn360 O365 2.095 . S
Mn360 O375 2.162 . S
Mn360 O376 2.297 . S
Mn360 O384 2.385 . S
Mn360 O385 2.209 . S
Mn360 O386 2.094 . S
Mn361 O366 2.121 . S
Mn361 N368 2.257 . S
Mn361 N377 2.282 . S
Mn361 O385 2.215 . S
Mn361 O387 2.117 . S
C362 O384 1.234 . S
C362 O385 1.283 . S
C363 O375 1.281 . S
C363 O376 1.236 . S
C364 O386 1.240 . S
C364 O387 1.264 . S
O365 Mn360 2.095 . S
O365 C374 1.250 . S
O366 Mn361 2.121 . S
O366 C374 1.258 . S
C367 N368 1.326 . S
C367 C371 1.460 . S
C367 H373 0.929 . S
N368 Mn361 2.257 . S
N368 C367 1.326 . S
N368 C372 1.362 . S
C369 C370 1.258 . S
C369 C372 1.431 . S
C369 C389 1.449 . S
C370 C369 1.258 . S
C370 C371 1.477 . S
C370 H390 0.931 . S
C371 C367 1.460 . S
C371 C370 1.477 . S
C371 H391 0.930 . S
C372 N368 1.362 . S
C372 C369 1.431 . S
C372 C382 1.476 . S
H373 C367 0.929 . S
C374 O365 1.250 . S
C374 O366 1.258 . S
O375 Mn360 2.162 . S
O375 C363 1.281 . S
O376 Mn360 2.297 . S
O376 C363 1.236 . S
N377 Mn361 2.282 . S
N377 C378 1.328 . S
N377 C382 1.318 . S
C378 N377 1.328 . S
C378 C379 1.457 . S
C378 H383 0.929 . S
C379 C378 1.457 . S
C379 C380 1.291 . S
C379 H392 0.931 . S
C380 C379 1.291 . S
C380 C381 1.373 . S
C380 H393 0.929 . S
C381 C380 1.373 . S
C381 C382 1.396 . S
C381 C388 1.403 . S
C382 C372 1.476 . S
C382 N377 1.318 . S
C382 C381 1.396 . S
H383 C378 0.929 . S
O384 Mn360 2.385 . S
O384 C362 1.234 . S
O385 Mn360 2.209 . S
O385 Mn361 2.215 . S
O385 C362 1.283 . S
O386 Mn360 2.094 . S
O386 C364 1.240 . S
O387 Mn361 2.117 . S
O387 C364 1.264 . S
C388 C381 1.403 . S
C388 C389 1.399 . S
C388 H394 0.929 . S
C389 C369 1.449 . S
C389 C388 1.399 . S
C389 H395 0.930 . S
H390 C370 0.931 . S
H391 C371 0.930 . S
H392 C379 0.931 . S
H393 C380 0.929 . S
H394 C388 0.929 . S
H395 C389 0.930 . S
Mn396 O401 2.095 . S
Mn396 O411 2.162 . S
Mn396 O412 2.297 . S
Mn396 O420 2.385 . S
Mn396 O421 2.209 1_554 S
Mn396 O422 2.094 . S
Mn397 O402 2.127 . S
Mn397 N404 2.257 . S
Mn397 N413 2.282 . S
Mn397 O421 2.215 . S
Mn397 O423 2.117 . S
C398 O420 1.234 1_556 S
C398 O421 1.283 . S
C399 O411 1.281 . S
C399 O412 1.236 . S
C400 O422 1.240 . S
C400 O423 1.264 1_554 S
O401 Mn396 2.095 . S
O401 C410 1.250 . S
O402 Mn397 2.127 . S
O402 C410 1.249 1_556 S
C403 N404 1.326 . S
C403 C407 1.460 . S
C403 H409 0.929 . S
N404 Mn397 2.257 . S
N404 C403 1.326 . S
N404 C408 1.362 . S
C405 C406 1.258 . S
C405 C408 1.431 . S
C405 C425 1.449 . S
C406 C405 1.258 . S
C406 C407 1.477 . S
C406 H426 0.931 . S
C407 C403 1.460 . S
C407 C406 1.477 . S
C407 H427 0.930 . S
C408 N404 1.362 . S
C408 C405 1.431 . S
C408 C418 1.476 . S
H409 C403 0.929 . S
C410 O401 1.250 . S
C410 O402 1.249 1_554 S
O411 Mn396 2.162 . S
O411 C399 1.281 . S
O412 Mn396 2.297 . S
O412 C399 1.236 . S
N413 Mn397 2.282 . S
N413 C414 1.328 . S
N413 C418 1.318 . S
C414 N413 1.328 . S
C414 C415 1.457 . S
C414 H419 0.929 . S
C415 C414 1.457 . S
C415 C416 1.291 . S
C415 H428 0.931 . S
C416 C415 1.291 . S
C416 C417 1.373 . S
C416 H429 0.929 . S
C417 C416 1.373 . S
C417 C418 1.396 . S
C417 C424 1.403 . S
C418 C408 1.476 . S
C418 N413 1.318 . S
C418 C417 1.396 . S
H419 C414 0.929 . S
O420 Mn396 2.385 . S
O420 C398 1.234 1_554 S
O421 Mn396 2.209 1_556 S
O421 Mn397 2.215 . S
O421 C398 1.283 . S
O422 Mn396 2.094 . S
O422 C400 1.240 . S
O423 Mn397 2.117 . S
O423 C400 1.264 1_556 S
C424 C417 1.403 . S
C424 C425 1.399 . S
C424 H430 0.929 . S
C425 C405 1.449 . S
C425 C424 1.399 . S
C425 H431 0.930 . S
H426 C406 0.931 . S
H427 C407 0.930 . S
H428 C415 0.931 . S
H429 C416 0.929 . S
H430 C424 0.929 . S
H431 C425 0.930 . S
H432 C450 0.951 . S
H433 C452 0.951 . S
H434 C454 0.950 . S
H435 C455 0.950 . S
H436 C457 0.950 . S
H437 C460 0.950 . S
H438 C461 0.950 . S
H439 C463 0.950 . S
H440 C464 0.950 . S
H441 C465 0.951 . S
H442 C467 0.951 . S
H443 C469 0.950 . S
H444 C470 0.950 . S
H445 C472 0.950 . S
H446 C475 0.950 . S
H447 C476 0.950 . S
H448 C478 0.950 . S
H449 C479 0.950 . S
C450 H432 0.951 . S
C450 C451 1.366 . S
C450 C452 1.388 . S
C451 C450 1.366 . S
C451 C455 1.385 . S
C452 H433 0.951 . S
C452 C450 1.388 . S
C452 C453 1.366 . S
C453 C452 1.366 . S
C453 C454 1.414 . S
C453 C456 1.499 . S
C454 H434 0.950 . S
C454 C453 1.414 . S
C454 C455 1.374 . S
C455 H435 0.950 . S
C455 C451 1.385 . S
C455 C454 1.374 . S
C456 C453 1.499 . S
C456 C457 1.373 . S
C456 C458 1.389 . S
C457 H436 0.950 . S
C457 C456 1.373 . S
C457 C473 1.377 . S
C458 C456 1.389 . S
C458 C459 1.524 . S
C458 C472 1.377 . S
C459 C458 1.524 . S
C459 C460 1.397 . S
C459 C464 1.363 . S
C460 H437 0.950 . S
C460 C459 1.397 . S
C460 C461 1.334 . S
C461 H438 0.950 . S
C461 C460 1.334 . S
C461 C462 1.287 . S
C462 C461 1.287 . S
C462 C463 1.524 . S
C462 H481 0.913 . S
C463 H439 0.950 . S
C463 C462 1.524 . S
C463 C464 1.415 . S
C464 H440 0.950 . S
C464 C459 1.363 . S
C464 C463 1.415 . S
C465 H441 0.951 . S
C465 C466 1.366 . S
C465 C467 1.388 . S
C466 C465 1.366 . S
C466 C470 1.385 . S
C467 H442 0.951 . S
C467 C465 1.388 . S
C467 C468 1.366 . S
C468 C467 1.366 . S
C468 C469 1.414 . S
C468 C471 1.499 . S
C469 H443 0.950 . S
C469 C468 1.414 . S
C469 C470 1.374 . S
C470 H444 0.950 . S
C470 C466 1.385 . S
C470 C469 1.374 . S
C471 C468 1.499 . S
C471 C472 1.373 . S
C471 C473 1.389 . S
C472 H445 0.950 . S
C472 C458 1.377 . S
C472 C471 1.373 . S
C473 C457 1.377 . S
C473 C471 1.389 . S
C473 C474 1.524 . S
C474 C473 1.524 . S
C474 C475 1.397 . S
C474 C479 1.363 . S
C475 H446 0.950 . S
C475 C474 1.397 . S
C475 C476 1.334 . S
C476 H447 0.950 . S
C476 C475 1.334 . S
C476 C477 1.287 . S
C477 C476 1.287 . S
C477 C478 1.524 . S
C477 H480 0.999 . S
C478 H448 0.950 . S
C478 C477 1.524 . S
C478 C479 1.415 . S
C479 H449 0.950 . S
C479 C474 1.363 . S
C479 C478 1.415 . S
H480 C477 0.999 . S
H481 C462 0.913 . S
H482 C500 0.951 . S
H483 C502 0.951 . S
H484 C504 0.950 . S
H485 C505 0.950 . S
H486 C507 0.950 . S
H487 C510 0.950 . S
H488 C511 0.950 . S
H489 C513 0.950 . S
H490 C514 0.950 . S
H491 C515 0.951 . S
H492 C517 0.951 . S
H493 C519 0.950 . S
H494 C520 0.950 . S
H495 C522 0.950 . S
H496 C525 0.950 . S
H497 C526 0.950 . S
H498 C528 0.950 . S
H499 C529 0.950 . S
C500 H482 0.951 . S
C500 C501 1.366 . S
C500 C502 1.388 . S
C501 C500 1.366 . S
C501 C505 1.385 . S
C502 H483 0.951 . S
C502 C500 1.388 . S
C502 C503 1.366 . S
C503 C502 1.366 . S
C503 C504 1.414 . S
C503 C506 1.499 . S
C504 H484 0.950 . S
C504 C503 1.414 . S
C504 C505 1.374 . S
C505 H485 0.950 . S
C505 C501 1.385 . S
C505 C504 1.374 . S
C506 C503 1.499 . S
C506 C507 1.373 . S
C506 C508 1.389 . S
C507 H486 0.950 . S
C507 C506 1.373 . S
C507 C523 1.377 1_655 S
C508 C506 1.389 . S
C508 C509 1.524 . S
C508 C522 1.377 1_655 S
C509 C508 1.524 . S
C509 C510 1.397 . S
C509 C514 1.363 . S
C510 H487 0.950 . S
C510 C509 1.397 . S
C510 C511 1.334 . S
C511 H488 0.950 . S
C511 C510 1.334 . S
C511 C512 1.287 . S
C512 C511 1.287 . S
C512 C513 1.524 . S
C512 H531 0.913 . S
C513 H489 0.950 . S
C513 C512 1.524 . S
C513 C514 1.415 . S
C514 H490 0.950 . S
C514 C509 1.363 . S
C514 C513 1.415 . S
C515 H491 0.951 . S
C515 C516 1.366 . S
C515 C517 1.388 . S
C516 C515 1.366 . S
C516 C520 1.385 . S
C517 H492 0.951 . S
C517 C515 1.388 . S
C517 C518 1.366 . S
C518 C517 1.366 . S
C518 C519 1.414 . S
C518 C521 1.499 . S
C519 H493 0.950 . S
C519 C518 1.414 . S
C519 C520 1.374 . S
C520 H494 0.950 . S
C520 C516 1.385 . S
C520 C519 1.374 . S
C521 C518 1.499 . S
C521 C522 1.373 . S
C521 C523 1.389 . S
C522 H495 0.950 . S
C522 C508 1.377 1_455 S
C522 C521 1.373 . S
C523 C507 1.377 1_455 S
C523 C521 1.389 . S
C523 C524 1.524 . S
C524 C523 1.524 . S
C524 C525 1.397 . S
C524 C529 1.363 . S
C525 H496 0.950 . S
C525 C524 1.397 . S
C525 C526 1.334 . S
C526 H497 0.950 . S
C526 C525 1.334 . S
C526 C527 1.287 . S
C527 C526 1.287 . S
C527 C528 1.524 . S
C527 H530 0.999 . S
C528 H498 0.950 . S
C528 C527 1.524 . S
C528 C529 1.415 . S
C529 H499 0.950 . S
C529 C524 1.363 . S
C529 C528 1.415 . S
H530 C527 0.999 . S
H531 C512 0.913 . S
H532 C550 0.951 . S
H533 C552 0.951 . S
H534 C554 0.956 . S
H535 C555 0.950 1_554 S
H536 C557 0.950 . S
H537 C560 0.950 . S
H538 C561 0.950 . S
H539 C563 0.950 1_545 S
H540 C564 0.968 . S
H541 C565 0.951 . S
H542 C567 0.951 . S
H543 C569 0.955 . S
H544 C570 0.950 1_556 S
H545 C572 0.950 . S
H546 C575 0.950 . S
H547 C576 0.950 . S
H548 C578 0.950 1_565 S
H549 C579 0.968 . S
C550 H532 0.951 . S
C550 C551 1.366 . S
C550 C552 1.388 . S
C551 C550 1.366 . S
C551 C555 1.385 . S
C552 H533 0.951 . S
C552 C550 1.388 . S
C552 C553 1.366 . S
C553 C552 1.366 . S
C553 C554 1.410 1_556 S
C553 C556 1.499 . S
C554 H534 0.956 . S
C554 C553 1.410 1_554 S
C554 C555 1.372 1_554 S
C555 H535 0.950 1_556 S
C555 C551 1.385 . S
C555 C554 1.372 1_556 S
C556 C553 1.499 . S
C556 C557 1.373 1_556 S
C556 C558 1.389 . S
C557 H536 0.950 . S
C557 C556 1.373 1_554 S
C557 C573 1.377 1_565 S
C558 C556 1.389 . S
C558 C559 1.524 . S
C558 C572 1.377 1_565 S
C559 C558 1.524 . S
C559 C560 1.397 . S
C559 C564 1.351 1_565 S
C560 H537 0.950 . S
C560 C559 1.397 . S
C560 C561 1.334 . S
C561 H538 0.950 . S
C561 C560 1.334 . S
C561 C562 1.287 . S
C562 C561 1.287 . S
C562 C563 1.524 . S
C562 H581 0.913 . S
C563 H539 0.950 1_565 S
C563 C562 1.524 . S
C563 C564 1.409 1_565 S
C564 H540 0.968 . S
C564 C559 1.351 1_545 S
C564 C563 1.409 1_545 S
C565 H541 0.951 . S
C565 C566 1.366 . S
C565 C567 1.388 . S
C566 C565 1.366 . S
C566 C570 1.385 . S
C567 H542 0.951 . S
C567 C565 1.388 . S
C567 C568 1.366 . S
C568 C567 1.366 . S
C568 C569 1.411 1_554 S
C568 C571 1.499 . S
C569 H543 0.955 . S
C569 C568 1.411 1_556 S
C569 C570 1.372 1_556 S
C570 H544 0.950 1_554 S
C570 C566 1.385 . S
C570 C569 1.372 1_554 S
C571 C568 1.499 . S
C571 C572 1.373 1_554 S
C571 C573 1.389 . S
C572 H545 0.950 . S
C572 C558 1.377 1_545 S
C572 C571 1.373 1_556 S
C573 C557 1.377 1_545 S
C573 C571 1.389 . S
C573 C574 1.524 . S
C574 C573 1.524 . S
C574 C575 1.397 . S
C574 C579 1.351 1_545 S
C575 H546 0.950 . S
C575 C574 1.397 . S
C575 C576 1.334 . S
C576 H547 0.950 . S
C576 C575 1.334 . S
C576 C577 1.287 . S
C577 C576 1.287 . S
C577 C578 1.524 . S
C577 H580 0.999 . S
C578 H548 0.950 1_545 S
C578 C577 1.524 . S
C578 C579 1.409 1_545 S
C579 H549 0.968 . S
C579 C574 1.351 1_565 S
C579 C578 1.409 1_565 S
H580 C577 0.999 . S
H581 C562 0.913 . S
H582 C600 0.951 . S
H583 C602 0.951 . S
H584 C604 0.950 . S
H585 C605 0.950 . S
H586 C607 0.950 . S
H587 C610 0.950 . S
H588 C611 0.950 . S
H589 C613 0.950 . S
H590 C614 0.950 . S
H591 C615 0.951 . S
H592 C617 0.951 . S
H593 C619 0.950 . S
H594 C620 0.950 . S
H595 C622 0.950 . S
H596 C625 0.950 . S
H597 C626 0.950 . S
H598 C628 0.950 . S
H599 C629 0.950 . S
C600 H582 0.951 . S
C600 C601 1.366 . S
C600 C602 1.388 . S
C601 C600 1.366 . S
C601 C605 1.385 . S
C602 H583 0.951 . S
C602 C600 1.388 . S
C602 C603 1.366 . S
C603 C602 1.366 . S
C603 C604 1.414 . S
C603 C606 1.499 . S
C604 H584 0.950 . S
C604 C603 1.414 . S
C604 C605 1.374 . S
C605 H585 0.950 . S
C605 C601 1.385 . S
C605 C604 1.374 . S
C606 C603 1.499 . S
C606 C607 1.373 . S
C606 C608 1.389 . S
C607 H586 0.950 . S
C607 C606 1.373 . S
C607 C623 1.377 . S
C608 C606 1.389 . S
C608 C609 1.524 . S
C608 C622 1.377 . S
C609 C608 1.524 . S
C609 C610 1.397 . S
C609 C614 1.363 . S
C610 H587 0.950 . S
C610 C609 1.397 . S
C610 C611 1.334 . S
C611 H588 0.950 . S
C611 C610 1.334 . S
C611 C612 1.287 . S
C612 C611 1.287 . S
C612 C613 1.524 . S
C612 H631 0.913 . S
C613 H589 0.950 . S
C613 C612 1.524 . S
C613 C614 1.415 . S
C614 H590 0.950 . S
C614 C609 1.363 . S
C614 C613 1.415 . S
C615 H591 0.951 . S
C615 C616 1.366 . S
C615 C617 1.388 . S
C616 C615 1.366 . S
C616 C620 1.385 . S
C617 H592 0.951 . S
C617 C615 1.388 . S
C617 C618 1.366 . S
C618 C617 1.366 . S
C618 C619 1.414 . S
C618 C621 1.499 . S
C619 H593 0.950 . S
C619 C618 1.414 . S
C619 C620 1.374 . S
C620 H594 0.950 . S
C620 C616 1.385 . S
C620 C619 1.374 . S
C621 C618 1.499 . S
C621 C622 1.373 . S
C621 C623 1.389 . S
C622 H595 0.950 . S
C622 C608 1.377 . S
C622 C621 1.373 . S
C623 C607 1.377 . S
C623 C621 1.389 . S
C623 C624 1.524 . S
C624 C623 1.524 . S
C624 C625 1.397 . S
C624 C629 1.363 . S
C625 H596 0.950 . S
C625 C624 1.397 . S
C625 C626 1.334 . S
C626 H597 0.950 . S
C626 C625 1.334 . S
C626 C627 1.287 . S
C627 C626 1.287 . S
C627 C628 1.524 . S
C627 H630 0.999 . S
C628 H598 0.950 . S
C628 C627 1.524 . S
C628 C629 1.415 . S
C629 H599 0.950 . S
C629 C624 1.363 . S
C629 C628 1.415 . S
H630 C627 0.999 . S
H631 C612 0.913 . S
H632 C650 0.951 . S
H633 C652 0.951 . S
H634 C654 0.950 . S
H635 C655 0.950 . S
H636 C657 0.950 . S
H637 C660 0.950 . S
H638 C661 0.950 . S
H639 C663 0.950 . S
H640 C664 0.950 . S
H641 C665 0.951 . S
H642 C667 0.951 . S
H643 C669 0.950 . S
H644 C670 0.950 . S
H645 C672 0.950 . S
H646 C675 0.950 . S
H647 C676 0.950 . S
H648 C678 0.950 . S
H649 C679 0.950 . S
C650 H632 0.951 . S
C650 C651 1.366 . S
C650 C652 1.388 . S
C651 C650 1.366 . S
C651 C655 1.385 . S
C652 H633 0.951 . S
C652 C650 1.388 . S
C652 C653 1.366 . S
C653 C652 1.366 . S
C653 C654 1.414 . S
C653 C656 1.499 . S
C654 H634 0.950 . S
C654 C653 1.414 . S
C654 C655 1.374 . S
C655 H635 0.950 . S
C655 C651 1.385 . S
C655 C654 1.374 . S
C656 C653 1.499 . S
C656 C657 1.373 . S
C656 C658 1.389 . S
C657 H636 0.950 . S
C657 C656 1.373 . S
C657 C673 1.377 1_655 S
C658 C656 1.389 . S
C658 C659 1.524 . S
C658 C672 1.377 1_655 S
C659 C658 1.524 . S
C659 C660 1.397 . S
C659 C664 1.363 . S
C660 H637 0.950 . S
C660 C659 1.397 . S
C660 C661 1.334 . S
C661 H638 0.950 . S
C661 C660 1.334 . S
C661 C662 1.287 . S
C662 C661 1.287 . S
C662 C663 1.524 . S
C662 H681 0.913 . S
C663 H639 0.950 . S
C663 C662 1.524 . S
C663 C664 1.415 . S
C664 H640 0.950 . S
C664 C659 1.363 . S
C664 C663 1.415 . S
C665 H641 0.951 . S
C665 C666 1.366 . S
C665 C667 1.388 . S
C666 C665 1.366 . S
C666 C670 1.385 . S
C667 H642 0.951 . S
C667 C665 1.388 . S
C667 C668 1.366 . S
C668 C667 1.366 . S
C668 C669 1.414 . S
C668 C671 1.499 . S
C669 H643 0.950 . S
C669 C668 1.414 . S
C669 C670 1.374 . S
C670 H644 0.950 . S
C670 C666 1.385 . S
C670 C669 1.374 . S
C671 C668 1.499 . S
C671 C672 1.373 . S
C671 C673 1.389 . S
C672 H645 0.950 . S
C672 C658 1.377 1_455 S
C672 C671 1.373 . S
C673 C657 1.377 1_455 S
C673 C671 1.389 . S
C673 C674 1.524 . S
C674 C673 1.524 . S
C674 C675 1.397 . S
C674 C679 1.363 . S
C675 H646 0.950 . S
C675 C674 1.397 . S
C675 C676 1.334 . S
C676 H647 0.950 . S
C676 C675 1.334 . S
C676 C677 1.287 . S
C677 C676 1.287 . S
C677 C678 1.524 . S
C677 H680 0.999 . S
C678 H648 0.950 . S
C678 C677 1.524 . S
C678 C679 1.415 . S
C679 H649 0.950 . S
C679 C674 1.363 . S
C679 C678 1.415 . S
H680 C677 0.999 . S
H681 C662 0.913 . S
H682 C700 0.951 1_556 S
H683 C702 0.951 . S
H684 C704 0.950 . S
H685 C705 0.950 . S
H686 C707 0.950 . S
H687 C710 0.950 . S
H688 C711 0.950 . S
H689 C713 0.950 . S
H690 C714 0.950 . S
H691 C715 0.951 1_554 S
H692 C717 0.951 . S
H693 C719 0.950 . S
H694 C720 0.950 . S
H695 C722 0.950 . S
H696 C725 0.950 . S
H697 C726 0.950 . S
H698 C728 0.950 . S
H699 C729 0.950 . S
C700 H682 0.951 1_554 S
C700 C701 1.366 . S
C700 C702 1.388 1_554 S
C701 C700 1.366 . S
C701 C705 1.385 . S
C702 H683 0.951 . S
C702 C700 1.388 1_556 S
C702 C703 1.366 1_556 S
C703 C702 1.366 1_554 S
C703 C704 1.414 . S
C703 C706 1.499 . S
C704 H684 0.950 . S
C704 C703 1.414 . S
C704 C705 1.374 . S
C705 H685 0.950 . S
C705 C701 1.385 . S
C705 C704 1.374 . S
C706 C703 1.499 . S
C706 C707 1.373 . S
C706 C708 1.389 1_554 S
C707 H686 0.950 . S
C707 C706 1.373 . S
C707 C723 1.377 1_565 S
C708 C706 1.389 1_556 S
C708 C709 1.524 . S
C708 C722 1.377 1_565 S
C709 C708 1.524 . S
C709 C710 1.397 1_556 S
C709 C714 1.363 . S
C710 H687 0.950 . S
C710 C709 1.397 1_554 S
C710 C711 1.334 . S
C711 H688 0.950 . S
C711 C710 1.334 . S
C711 C712 1.287 1_554 S
C712 C711 1.287 1_556 S
C712 C713 1.524 . S
C712 H731 0.913 . S
C713 H689 0.950 . S
C713 C712 1.524 . S
C713 C714 1.415 . S
C714 H690 0.950 . S
C714 C709 1.363 . S
C714 C713 1.415 . S
C715 H691 0.951 1_556 S
C715 C716 1.366 . S
C715 C717 1.388 1_556 S
C716 C715 1.366 . S
C716 C720 1.385 . S
C717 H692 0.951 . S
C717 C715 1.388 1_554 S
C717 C718 1.366 1_554 S
C718 C717 1.366 1_556 S
C718 C719 1.414 . S
C718 C721 1.499 . S
C719 H693 0.950 . S
C719 C718 1.414 . S
C719 C720 1.374 . S
C720 H694 0.950 . S
C720 C716 1.385 . S
C720 C719 1.374 . S
C721 C718 1.499 . S
C721 C722 1.373 . S
C721 C723 1.389 1_556 S
C722 H695 0.950 . S
C722 C708 1.377 1_545 S
C722 C721 1.373 . S
C723 C707 1.377 1_545 S
C723 C721 1.389 1_554 S
C723 C724 1.524 . S
C724 C723 1.524 . S
C724 C725 1.397 1_554 S
C724 C729 1.363 . S
C725 H696 0.950 . S
C725 C724 1.397 1_556 S
C725 C726 1.334 . S
C726 H697 0.950 . S
C726 C725 1.334 . S
C726 C727 1.287 1_556 S
C727 C726 1.287 1_554 S
C727 C728 1.524 . S
C727 H730 0.999 . S
C728 H698 0.950 . S
C728 C727 1.524 . S
C728 C729 1.415 . S
C729 H699 0.950 . S
C729 C724 1.363 . S
C729 C728 1.415 . S
H730 C727 0.999 . S
H731 C712 0.913 . S
H732 C750 0.951 . S
H733 C752 0.951 . S
H734 C754 0.950 . S
H735 C755 0.950 . S
H736 C757 0.950 . S
H737 C760 0.950 . S
H738 C761 0.950 . S
H739 C763 0.950 . S
H740 C764 0.950 . S
H741 C765 0.951 . S
H742 C767 0.951 . S
H743 C769 0.950 . S
H744 C770 0.950 . S
H745 C772 0.950 . S
H746 C775 0.950 . S
H747 C776 0.950 . S
H748 C778 0.950 . S
H749 C779 0.950 . S
C750 H732 0.951 . S
C750 C751 1.366 . S
C750 C752 1.388 . S
C751 C750 1.366 . S
C751 C755 1.385 . S
C752 H733 0.951 . S
C752 C750 1.388 . S
C752 C753 1.366 . S
C753 C752 1.366 . S
C753 C754 1.414 . S
C753 C756 1.499 . S
C754 H734 0.950 . S
C754 C753 1.414 . S
C754 C755 1.374 . S
C755 H735 0.950 . S
C755 C751 1.385 . S
C755 C754 1.374 . S
C756 C753 1.499 . S
C756 C757 1.373 . S
C756 C758 1.389 . S
C757 H736 0.950 . S
C757 C756 1.373 . S
C757 C773 1.377 1_556 S
C758 C756 1.389 . S
C758 C759 1.524 . S
C758 C772 1.377 1_556 S
C759 C758 1.524 . S
C759 C760 1.397 . S
C759 C764 1.363 . S
C760 H737 0.950 . S
C760 C759 1.397 . S
C760 C761 1.334 . S
C761 H738 0.950 . S
C761 C760 1.334 . S
C761 C762 1.287 . S
C762 C761 1.287 . S
C762 C763 1.524 . S
C762 H781 0.913 . S
C763 H739 0.950 . S
C763 C762 1.524 . S
C763 C764 1.415 . S
C764 H740 0.950 . S
C764 C759 1.363 . S
C764 C763 1.415 . S
C765 H741 0.951 . S
C765 C766 1.366 . S
C765 C767 1.388 . S
C766 C765 1.366 . S
C766 C770 1.385 . S
C767 H742 0.951 . S
C767 C765 1.388 . S
C767 C768 1.366 . S
C768 C767 1.366 . S
C768 C769 1.414 . S
C768 C771 1.499 . S
C769 H743 0.950 . S
C769 C768 1.414 . S
C769 C770 1.374 . S
C770 H744 0.950 . S
C770 C766 1.385 . S
C770 C769 1.374 . S
C771 C768 1.499 . S
C771 C772 1.373 . S
C771 C773 1.389 . S
C772 H745 0.950 . S
C772 C758 1.377 1_554 S
C772 C771 1.373 . S
C773 C757 1.377 1_554 S
C773 C771 1.389 . S
C773 C774 1.524 . S
C774 C773 1.524 . S
C774 C775 1.397 . S
C774 C779 1.363 . S
C775 H746 0.950 . S
C775 C774 1.397 . S
C775 C776 1.334 . S
C776 H747 0.950 . S
C776 C775 1.334 . S
C776 C777 1.287 . S
C777 C776 1.287 . S
C777 C778 1.524 . S
C777 H780 0.999 . S
C778 H748 0.950 . S
C778 C777 1.524 . S
C778 C779 1.415 . S
C779 H749 0.950 . S
C779 C774 1.363 . S
C779 C778 1.415 . S
H780 C777 0.999 . S
H781 C762 0.913 . S
H782 C800 0.951 . S
H783 C802 0.951 . S
H784 C804 0.950 . S
H785 C805 0.950 . S
H786 C807 0.950 . S
H787 C810 0.950 . S
H788 C811 0.950 . S
H789 C813 0.950 . S
H790 C814 0.950 . S
H791 C815 0.951 . S
H792 C817 0.951 . S
H793 C819 0.950 . S
H794 C820 0.950 . S
H795 C822 0.950 . S
H796 C825 0.950 . S
H797 C826 0.950 . S
H798 C828 0.950 . S
H799 C829 0.950 . S
C800 H782 0.951 . S
C800 C801 1.366 . S
C800 C802 1.388 . S
C801 C800 1.366 . S
C801 C805 1.385 . S
C802 H783 0.951 . S
C802 C800 1.388 . S
C802 C803 1.366 . S
C803 C802 1.366 . S
C803 C804 1.414 . S
C803 C806 1.499 . S
C804 H784 0.950 . S
C804 C803 1.414 . S
C804 C805 1.374 . S
C805 H785 0.950 . S
C805 C801 1.385 . S
C805 C804 1.374 . S
C806 C803 1.499 . S
C806 C807 1.373 . S
C806 C808 1.389 . S
C807 H786 0.950 . S
C807 C806 1.373 . S
C807 C823 1.377 . S
C808 C806 1.389 . S
C808 C809 1.524 . S
C808 C822 1.377 . S
C809 C808 1.524 . S
C809 C810 1.397 . S
C809 C814 1.363 . S
C810 H787 0.950 . S
C810 C809 1.397 . S
C810 C811 1.334 . S
C811 H788 0.950 . S
C811 C810 1.334 . S
C811 C812 1.287 . S
C812 C811 1.287 . S
C812 C813 1.524 . S
C812 H831 0.913 . S
C813 H789 0.950 . S
C813 C812 1.524 . S
C813 C814 1.415 . S
C814 H790 0.950 . S
C814 C809 1.363 . S
C814 C813 1.415 . S
C815 H791 0.951 . S
C815 C816 1.366 . S
C815 C817 1.388 . S
C816 C815 1.366 . S
C816 C820 1.385 . S
C817 H792 0.951 . S
C817 C815 1.388 . S
C817 C818 1.366 . S
C818 C817 1.366 . S
C818 C819 1.414 . S
C818 C821 1.499 . S
C819 H793 0.950 . S
C819 C818 1.414 . S
C819 C820 1.374 . S
C820 H794 0.950 . S
C820 C816 1.385 . S
C820 C819 1.374 . S
C821 C818 1.499 . S
C821 C822 1.373 . S
C821 C823 1.389 . S
C822 H795 0.950 . S
C822 C808 1.377 . S
C822 C821 1.373 . S
C823 C807 1.377 . S
C823 C821 1.389 . S
C823 C824 1.524 . S
C824 C823 1.524 . S
C824 C825 1.397 . S
C824 C829 1.363 . S
C825 H796 0.950 . S
C825 C824 1.397 . S
C825 C826 1.334 . S
C826 H797 0.950 . S
C826 C825 1.334 . S
C826 C827 1.287 . S
C827 C826 1.287 . S
C827 C828 1.524 . S
C827 H830 0.999 . S
C828 H798 0.950 . S
C828 C827 1.524 . S
C828 C829 1.415 . S
C829 H799 0.950 . S
C829 C824 1.363 . S
C829 C828 1.415 . S
H830 C827 0.999 . S
H831 C812 0.913 . S
H832 C850 0.951 . S
H833 C852 0.951 . S
H834 C854 0.950 . S
H835 C855 0.950 . S
H836 C857 0.950 . S
H837 C860 0.950 . S
H838 C861 0.950 . S
H839 C863 0.950 . S
H840 C864 0.950 . S
H841 C865 0.951 . S
H842 C867 0.951 . S
H843 C869 0.950 . S
H844 C870 0.950 . S
H845 C872 0.950 . S
H846 C875 0.950 . S
H847 C876 0.950 . S
H848 C878 0.950 . S
H849 C879 0.950 . S
C850 H832 0.951 . S
C850 C851 1.366 . S
C850 C852 1.388 . S
C851 C850 1.366 . S
C851 C855 1.385 . S
C852 H833 0.951 . S
C852 C850 1.388 . S
C852 C853 1.366 . S
C853 C852 1.366 . S
C853 C854 1.414 . S
C853 C856 1.499 . S
C854 H834 0.950 . S
C854 C853 1.414 . S
C854 C855 1.374 . S
C855 H835 0.950 . S
C855 C851 1.385 . S
C855 C854 1.374 . S
C856 C853 1.499 . S
C856 C857 1.373 . S
C856 C858 1.389 . S
C857 H836 0.950 . S
C857 C856 1.373 . S
C857 C873 1.377 . S
C858 C856 1.389 . S
C858 C859 1.524 . S
C858 C872 1.377 . S
C859 C858 1.524 . S
C859 C860 1.397 . S
C859 C864 1.363 . S
C860 H837 0.950 . S
C860 C859 1.397 . S
C860 C861 1.334 . S
C861 H838 0.950 . S
C861 C860 1.334 . S
C861 C862 1.287 . S
C862 C861 1.287 . S
C862 C863 1.524 . S
C862 H881 0.913 . S
C863 H839 0.950 . S
C863 C862 1.524 . S
C863 C864 1.415 . S
C864 H840 0.950 . S
C864 C859 1.363 . S
C864 C863 1.415 . S
C865 H841 0.951 . S
C865 C866 1.366 . S
C865 C867 1.388 . S
C866 C865 1.366 . S
C866 C870 1.385 . S
C867 H842 0.951 . S
C867 C865 1.388 . S
C867 C868 1.366 . S
C868 C867 1.366 . S
C868 C869 1.414 . S
C868 C871 1.499 . S
C869 H843 0.950 . S
C869 C868 1.414 . S
C869 C870 1.374 . S
C870 H844 0.950 . S
C870 C866 1.385 . S
C870 C869 1.374 . S
C871 C868 1.499 . S
C871 C872 1.373 . S
C871 C873 1.389 . S
C872 H845 0.950 . S
C872 C858 1.377 . S
C872 C871 1.373 . S
C873 C857 1.377 . S
C873 C871 1.389 . S
C873 C874 1.524 . S
C874 C873 1.524 . S
C874 C875 1.397 . S
C874 C879 1.363 . S
C875 H846 0.950 . S
C875 C874 1.397 . S
C875 C876 1.334 . S
C876 H847 0.950 . S
C876 C875 1.334 . S
C876 C877 1.287 . S
C877 C876 1.287 . S
C877 C878 1.524 . S
C877 H880 0.999 . S
C878 H848 0.950 . S
C878 C877 1.524 . S
C878 C879 1.415 . S
C879 H849 0.950 . S
C879 C874 1.363 . S
C879 C878 1.415 . S
H880 C877 0.999 . S
H881 C862 0.913 . S
H882 C900 0.951 . S
H883 C902 0.951 . S
H884 C904 0.950 . S
H885 C905 0.950 . S
H886 C907 0.950 . S
H887 C910 0.950 . S
H888 C911 0.950 . S
H889 C913 0.950 . S
H890 C914 0.950 . S
H891 C915 0.951 . S
H892 C917 0.951 . S
H893 C919 0.950 . S
H894 C920 0.950 . S
H895 C922 0.950 . S
H896 C925 0.950 . S
H897 C926 0.950 . S
H898 C928 0.950 . S
H899 C929 0.950 . S
C900 H882 0.951 . S
C900 C901 1.366 . S
C900 C902 1.388 . S
C901 C900 1.366 . S
C901 C905 1.385 . S
C902 H883 0.951 . S
C902 C900 1.388 . S
C902 C903 1.366 . S
C903 C902 1.366 . S
C903 C904 1.414 . S
C903 C906 1.499 . S
C904 H884 0.950 . S
C904 C903 1.414 . S
C904 C905 1.374 . S
C905 H885 0.950 . S
C905 C901 1.385 . S
C905 C904 1.374 . S
C906 C903 1.499 . S
C906 C907 1.373 . S
C906 C908 1.389 1_554 S
C907 H886 0.950 . S
C907 C906 1.373 . S
C907 C923 1.377 . S
C908 C906 1.389 1_556 S
C908 C909 1.524 . S
C908 C922 1.377 . S
C909 C908 1.524 . S
C909 C910 1.397 1_556 S
C909 C914 1.363 . S
C910 H887 0.950 . S
C910 C909 1.397 1_554 S
C910 C911 1.334 . S
C911 H888 0.950 . S
C911 C910 1.334 . S
C911 C912 1.287 1_554 S
C912 C911 1.287 1_556 S
C912 C913 1.524 . S
C912 H931 0.913 . S
C913 H889 0.950 . S
C913 C912 1.524 . S
C913 C914 1.415 . S
C914 H890 0.950 . S
C914 C909 1.363 . S
C914 C913 1.415 . S
C915 H891 0.951 . S
C915 C916 1.366 . S
C915 C917 1.388 . S
C916 C915 1.366 . S
C916 C920 1.385 . S
C917 H892 0.951 . S
C917 C915 1.388 . S
C917 C918 1.366 . S
C918 C917 1.366 . S
C918 C919 1.414 . S
C918 C921 1.499 . S
C919 H893 0.950 . S
C919 C918 1.414 . S
C919 C920 1.374 . S
C920 H894 0.950 . S
C920 C916 1.385 . S
C920 C919 1.374 . S
C921 C918 1.499 . S
C921 C922 1.373 . S
C921 C923 1.389 1_556 S
C922 H895 0.950 . S
C922 C908 1.377 . S
C922 C921 1.373 . S
C923 C907 1.377 . S
C923 C921 1.389 1_554 S
C923 C924 1.524 . S
C924 C923 1.524 . S
C924 C925 1.397 1_554 S
C924 C929 1.363 . S
C925 H896 0.950 . S
C925 C924 1.397 1_556 S
C925 C926 1.334 . S
C926 H897 0.950 . S
C926 C925 1.334 . S
C926 C927 1.287 1_556 S
C927 C926 1.287 1_554 S
C927 C928 1.524 . S
C927 H930 0.999 . S
C928 H898 0.950 . S
C928 C927 1.524 . S
C928 C929 1.415 . S
C929 H899 0.950 . S
C929 C924 1.363 . S
C929 C928 1.415 . S
H930 C927 0.999 . S
H931 C912 0.913 . S
H932 C950 0.951 . S
H933 C952 0.951 . S
H934 C954 0.950 . S
H935 C955 0.950 . S
H936 C957 0.950 . S
H937 C960 0.950 . S
H938 C961 0.950 . S
H939 C963 0.950 . S
H940 C964 0.950 . S
H941 C965 0.951 . S
H942 C967 0.951 . S
H943 C969 0.950 . S
H944 C970 0.950 . S
H945 C972 0.950 . S
H946 C975 0.950 . S
H947 C976 0.950 . S
H948 C978 0.950 . S
H949 C979 0.950 . S
C950 H932 0.951 . S
C950 C951 1.366 . S
C950 C952 1.388 . S
C951 C950 1.366 . S
C951 C955 1.385 . S
C952 H933 0.951 . S
C952 C950 1.388 . S
C952 C953 1.366 . S
C953 C952 1.366 . S
C953 C954 1.414 . S
C953 C956 1.499 . S
C954 H934 0.950 . S
C954 C953 1.414 . S
C954 C955 1.374 . S
C955 H935 0.950 . S
C955 C951 1.385 . S
C955 C954 1.374 . S
C956 C953 1.499 . S
C956 C957 1.373 . S
C956 C958 1.389 . S
C957 H936 0.950 . S
C957 C956 1.373 . S
C957 C973 1.377 . S
C958 C956 1.389 . S
C958 C959 1.524 . S
C958 C972 1.377 . S
C959 C958 1.524 . S
C959 C960 1.397 . S
C959 C964 1.363 . S
C960 H937 0.950 . S
C960 C959 1.397 . S
C960 C961 1.334 . S
C961 H938 0.950 . S
C961 C960 1.334 . S
C961 C962 1.287 . S
C962 C961 1.287 . S
C962 C963 1.524 . S
C962 H981 0.913 . S
C963 H939 0.950 . S
C963 C962 1.524 . S
C963 C964 1.415 . S
C964 H940 0.950 . S
C964 C959 1.363 . S
C964 C963 1.415 . S
C965 H941 0.951 . S
C965 C966 1.366 . S
C965 C967 1.388 . S
C966 C965 1.366 . S
C966 C970 1.385 . S
C967 H942 0.951 . S
C967 C965 1.388 . S
C967 C968 1.366 . S
C968 C967 1.366 . S
C968 C969 1.414 . S
C968 C971 1.499 . S
C969 H943 0.950 . S
C969 C968 1.414 . S
C969 C970 1.374 . S
C970 H944 0.950 . S
C970 C966 1.385 . S
C970 C969 1.374 . S
C971 C968 1.499 . S
C971 C972 1.373 . S
C971 C973 1.389 . S
C972 H945 0.950 . S
C972 C958 1.377 . S
C972 C971 1.373 . S
C973 C957 1.377 . S
C973 C971 1.389 . S
C973 C974 1.524 . S
C974 C973 1.524 . S
C974 C975 1.397 . S
C974 C979 1.363 . S
C975 H946 0.950 . S
C975 C974 1.397 . S
C975 C976 1.334 . S
C976 H947 0.950 . S
C976 C975 1.334 . S
C976 C977 1.287 . S
C977 C976 1.287 . S
C977 C978 1.524 . S
C977 H980 0.999 . S
C978 H948 0.950 . S
C978 C977 1.524 . S
C978 C979 1.415 . S
C979 H949 0.950 . S
C979 C974 1.363 . S
C979 C978 1.415 . S
H980 C977 0.999 . S
H981 C962 0.913 . S
H982 C1000 0.951 . S
H983 C1002 0.951 . S
H984 C1004 0.950 . S
H985 C1005 0.950 . S
H986 C1007 0.950 . S
H987 C1010 0.950 . S
H988 C1011 0.950 . S
H989 C1013 0.950 . S
H990 C1014 0.950 . S
H991 C1015 0.951 . S
H992 C1017 0.951 . S
H993 C1019 0.950 . S
H994 C1020 0.950 . S
H995 C1022 0.950 . S
H996 C1025 0.950 . S
H997 C1026 0.950 . S
H998 C1028 0.950 . S
H999 C1029 0.950 . S
C1000 H982 0.951 . S
C1000 C1001 1.366 . S
C1000 C1002 1.388 . S
C1001 C1000 1.366 . S
C1001 C1005 1.385 . S
C1002 H983 0.951 . S
C1002 C1000 1.388 . S
C1002 C1003 1.366 . S
C1003 C1002 1.366 . S
C1003 C1004 1.414 . S
C1003 C1006 1.499 . S
C1004 H984 0.950 . S
C1004 C1003 1.414 . S
C1004 C1005 1.374 . S
C1005 H985 0.950 . S
C1005 C1001 1.385 . S
C1005 C1004 1.374 . S
C1006 C1003 1.499 . S
C1006 C1007 1.373 . S
C1006 C1008 1.389 . S
C1007 H986 0.950 . S
C1007 C1006 1.373 . S
C1007 C1023 1.377 . S
C1008 C1006 1.389 . S
C1008 C1009 1.524 . S
C1008 C1022 1.377 . S
C1009 C1008 1.524 . S
C1009 C1010 1.397 . S
C1009 C1014 1.363 . S
C1010 H987 0.950 . S
C1010 C1009 1.397 . S
C1010 C1011 1.334 . S
C1011 H988 0.950 . S
C1011 C1010 1.334 . S
C1011 C1012 1.287 . S
C1012 C1011 1.287 . S
C1012 C1013 1.524 . S
C1012 H1031 0.913 . S
C1013 H989 0.950 . S
C1013 C1012 1.524 . S
C1013 C1014 1.415 . S
C1014 H990 0.950 . S
C1014 C1009 1.363 . S
C1014 C1013 1.415 . S
C1015 H991 0.951 . S
C1015 C1016 1.366 . S
C1015 C1017 1.388 . S
C1016 C1015 1.366 . S
C1016 C1020 1.385 . S
C1017 H992 0.951 . S
C1017 C1015 1.388 . S
C1017 C1018 1.366 . S
C1018 C1017 1.366 . S
C1018 C1019 1.414 . S
C1018 C1021 1.499 . S
C1019 H993 0.950 . S
C1019 C1018 1.414 . S
C1019 C1020 1.374 . S
C1020 H994 0.950 . S
C1020 C1016 1.385 . S
C1020 C1019 1.374 . S
C1021 C1018 1.499 . S
C1021 C1022 1.373 . S
C1021 C1023 1.389 . S
C1022 H995 0.950 . S
C1022 C1008 1.377 . S
C1022 C1021 1.373 . S
C1023 C1007 1.377 . S
C1023 C1021 1.389 . S
C1023 C1024 1.524 . S
C1024 C1023 1.524 . S
C1024 C1025 1.397 . S
C1024 C1029 1.363 . S
C1025 H996 0.950 . S
C1025 C1024 1.397 . S
C1025 C1026 1.334 . S
C1026 H997 0.950 . S
C1026 C1025 1.334 . S
C1026 C1027 1.287 . S
C1027 C1026 1.287 . S
C1027 C1028 1.524 . S
C1027 H1030 0.999 . S
C1028 H998 0.950 . S
C1028 C1027 1.524 . S
C1028 C1029 1.415 . S
C1029 H999 0.950 . S
C1029 C1024 1.363 . S
C1029 C1028 1.415 . S
H1030 C1027 0.999 . S
H1031 C1012 0.913 . S
H1032 C1050 0.951 . S
H1033 C1052 0.951 . S
H1034 C1054 0.950 . S
H1035 C1055 0.950 . S
H1036 C1057 0.950 . S
H1037 C1060 0.950 . S
H1038 C1061 0.950 . S
H1039 C1063 0.950 . S
H1040 C1064 0.950 . S
H1041 C1065 0.951 . S
H1042 C1067 0.951 . S
H1043 C1069 0.950 . S
H1044 C1070 0.950 . S
H1045 C1072 0.950 . S
H1046 C1075 0.950 . S
H1047 C1076 0.950 . S
H1048 C1078 0.950 . S
H1049 C1079 0.950 . S
C1050 H1032 0.951 . S
C1050 C1051 1.366 . S
C1050 C1052 1.388 . S
C1051 C1050 1.366 . S
C1051 C1055 1.385 . S
C1052 H1033 0.951 . S
C1052 C1050 1.388 . S
C1052 C1053 1.366 . S
C1053 C1052 1.366 . S
C1053 C1054 1.414 . S
C1053 C1056 1.499 . S
C1054 H1034 0.950 . S
C1054 C1053 1.414 . S
C1054 C1055 1.374 . S
C1055 H1035 0.950 . S
C1055 C1051 1.385 . S
C1055 C1054 1.374 . S
C1056 C1053 1.499 . S
C1056 C1057 1.373 . S
C1056 C1058 1.389 . S
C1057 H1036 0.950 . S
C1057 C1056 1.373 . S
C1057 C1073 1.377 . S
C1058 C1056 1.389 . S
C1058 C1059 1.524 . S
C1058 C1072 1.377 . S
C1059 C1058 1.524 . S
C1059 C1060 1.397 . S
C1059 C1064 1.363 . S
C1060 H1037 0.950 . S
C1060 C1059 1.397 . S
C1060 C1061 1.334 . S
C1061 H1038 0.950 . S
C1061 C1060 1.334 . S
C1061 C1062 1.287 . S
C1062 C1061 1.287 . S
C1062 C1063 1.524 . S
C1062 H1081 0.913 . S
C1063 H1039 0.950 . S
C1063 C1062 1.524 . S
C1063 C1064 1.415 . S
C1064 H1040 0.950 . S
C1064 C1059 1.363 . S
C1064 C1063 1.415 . S
C1065 H1041 0.951 . S
C1065 C1066 1.366 . S
C1065 C1067 1.388 . S
C1066 C1065 1.366 . S
C1066 C1070 1.385 . S
C1067 H1042 0.951 . S
C1067 C1065 1.388 . S
C1067 C1068 1.366 . S
C1068 C1067 1.366 . S
C1068 C1069 1.414 . S
C1068 C1071 1.499 . S
C1069 H1043 0.950 . S
C1069 C1068 1.414 . S
C1069 C1070 1.374 . S
C1070 H1044 0.950 . S
C1070 C1066 1.385 . S
C1070 C1069 1.374 . S
C1071 C1068 1.499 . S
C1071 C1072 1.373 . S
C1071 C1073 1.389 . S
C1072 H1045 0.950 . S
C1072 C1058 1.377 . S
C1072 C1071 1.373 . S
C1073 C1057 1.377 . S
C1073 C1071 1.389 . S
C1073 C1074 1.524 . S
C1074 C1073 1.524 . S
C1074 C1075 1.397 . S
C1074 C1079 1.363 . S
C1075 H1046 0.950 . S
C1075 C1074 1.397 . S
C1075 C1076 1.334 . S
C1076 H1047 0.950 . S
C1076 C1075 1.334 . S
C1076 C1077 1.287 . S
C1077 C1076 1.287 . S
C1077 C1078 1.524 . S
C1077 H1080 0.999 . S
C1078 H1048 0.950 . S
C1078 C1077 1.524 . S
C1078 C1079 1.415 . S
C1079 H1049 0.950 . S
C1079 C1074 1.363 . S
C1079 C1078 1.415 . S
H1080 C1077 0.999 . S
H1081 C1062 0.913 . S
H1082 C1100 0.951 . S
H1083 C1102 0.951 . S
H1084 C1104 0.950 . S
H1085 C1105 0.950 . S
H1086 C1107 0.950 . S
H1087 C1110 0.950 . S
H1088 C1111 0.950 . S
H1089 C1113 0.950 . S
H1090 C1114 0.950 . S
H1091 C1115 0.951 . S
H1092 C1117 0.951 . S
H1093 C1119 0.950 . S
H1094 C1120 0.950 . S
H1095 C1122 0.950 . S
H1096 C1125 0.950 . S
H1097 C1126 0.950 1_554 S
H1098 C1128 0.950 . S
H1099 C1129 0.950 . S
C1100 H1082 0.951 . S
C1100 C1101 1.366 . S
C1100 C1102 1.388 . S
C1101 C1100 1.366 . S
C1101 C1105 1.385 . S
C1102 H1083 0.951 . S
C1102 C1100 1.388 . S
C1102 C1103 1.366 . S
C1103 C1102 1.366 . S
C1103 C1104 1.414 . S
C1103 C1106 1.499 . S
C1104 H1084 0.950 . S
C1104 C1103 1.414 . S
C1104 C1105 1.374 . S
C1105 H1085 0.950 . S
C1105 C1101 1.385 . S
C1105 C1104 1.374 . S
C1106 C1103 1.499 . S
C1106 C1107 1.373 . S
C1106 C1108 1.389 . S
C1107 H1086 0.950 . S
C1107 C1106 1.373 . S
C1107 C1123 1.377 . S
C1108 C1106 1.389 . S
C1108 C1109 1.524 . S
C1108 C1122 1.377 . S
C1109 C1108 1.524 . S
C1109 C1110 1.397 . S
C1109 C1114 1.363 . S
C1110 H1087 0.950 . S
C1110 C1109 1.397 . S
C1110 C1111 1.334 . S
C1111 H1088 0.950 . S
C1111 C1110 1.334 . S
C1111 C1112 1.287 . S
C1112 C1111 1.287 . S
C1112 C1113 1.524 . S
C1112 H1131 0.913 . S
C1113 H1089 0.950 . S
C1113 C1112 1.524 . S
C1113 C1114 1.415 . S
C1114 H1090 0.950 . S
C1114 C1109 1.363 . S
C1114 C1113 1.415 . S
C1115 H1091 0.951 . S
C1115 C1116 1.366 . S
C1115 C1117 1.388 . S
C1116 C1115 1.366 . S
C1116 C1120 1.385 . S
C1117 H1092 0.951 . S
C1117 C1115 1.388 . S
C1117 C1118 1.366 . S
C1118 C1117 1.366 . S
C1118 C1119 1.414 . S
C1118 C1121 1.499 . S
C1119 H1093 0.950 . S
C1119 C1118 1.414 . S
C1119 C1120 1.374 . S
C1120 H1094 0.950 . S
C1120 C1116 1.385 . S
C1120 C1119 1.374 . S
C1121 C1118 1.499 . S
C1121 C1122 1.373 . S
C1121 C1123 1.389 . S
C1122 H1095 0.950 . S
C1122 C1108 1.377 . S
C1122 C1121 1.373 . S
C1123 C1107 1.377 . S
C1123 C1121 1.389 . S
C1123 C1124 1.524 . S
C1124 C1123 1.524 . S
C1124 C1125 1.397 . S
C1124 C1129 1.363 . S
C1125 H1096 0.950 . S
C1125 C1124 1.397 . S
C1125 C1126 1.334 . S
C1126 H1097 0.950 1_556 S
C1126 C1125 1.334 . S
C1126 C1127 1.287 . S
C1127 C1126 1.287 . S
C1127 C1128 1.524 . S
C1127 H1130 0.999 . S
C1128 H1098 0.950 . S
C1128 C1127 1.524 . S
C1128 C1129 1.415 . S
C1129 H1099 0.950 . S
C1129 C1124 1.363 . S
C1129 C1128 1.415 . S
H1130 C1127 0.999 . S
H1131 C1112 0.913 . S
H1132 C1150 0.951 . S
H1133 C1152 0.951 . S
H1134 C1154 0.950 . S
H1135 C1155 0.950 . S
H1136 C1157 0.950 . S
H1137 C1160 0.950 . S
H1138 C1161 0.950 1_556 S
H1139 C1163 0.950 . S
H1140 C1164 0.950 . S
H1141 C1165 0.951 . S
H1142 C1167 0.951 . S
H1143 C1169 0.950 . S
H1144 C1170 0.950 . S
H1145 C1172 0.950 . S
H1146 C1175 0.950 . S
H1147 C1176 0.950 . S
H1148 C1178 0.950 . S
H1149 C1179 0.950 . S
C1150 H1132 0.951 . S
C1150 C1151 1.366 . S
C1150 C1152 1.388 . S
C1151 C1150 1.366 . S
C1151 C1155 1.385 . S
C1152 H1133 0.951 . S
C1152 C1150 1.388 . S
C1152 C1153 1.366 . S
C1153 C1152 1.366 . S
C1153 C1154 1.414 . S
C1153 C1156 1.499 . S
C1154 H1134 0.950 . S
C1154 C1153 1.414 . S
C1154 C1155 1.374 . S
C1155 H1135 0.950 . S
C1155 C1151 1.385 . S
C1155 C1154 1.374 . S
C1156 C1153 1.499 . S
C1156 C1157 1.373 . S
C1156 C1158 1.389 . S
C1157 H1136 0.950 . S
C1157 C1156 1.373 . S
C1157 C1173 1.377 . S
C1158 C1156 1.389 . S
C1158 C1159 1.524 . S
C1158 C1172 1.377 . S
C1159 C1158 1.524 . S
C1159 C1160 1.397 . S
C1159 C1164 1.363 . S
C1160 H1137 0.950 . S
C1160 C1159 1.397 . S
C1160 C1161 1.334 . S
C1161 H1138 0.950 1_554 S
C1161 C1160 1.334 . S
C1161 C1162 1.287 . S
C1162 C1161 1.287 . S
C1162 C1163 1.524 . S
C1162 H1181 0.913 . S
C1163 H1139 0.950 . S
C1163 C1162 1.524 . S
C1163 C1164 1.415 . S
C1164 H1140 0.950 . S
C1164 C1159 1.363 . S
C1164 C1163 1.415 . S
C1165 H1141 0.951 . S
C1165 C1166 1.366 . S
C1165 C1167 1.388 . S
C1166 C1165 1.366 . S
C1166 C1170 1.385 . S
C1167 H1142 0.951 . S
C1167 C1165 1.388 . S
C1167 C1168 1.366 . S
C1168 C1167 1.366 . S
C1168 C1169 1.414 . S
C1168 C1171 1.499 . S
C1169 H1143 0.950 . S
C1169 C1168 1.414 . S
C1169 C1170 1.374 . S
C1170 H1144 0.950 . S
C1170 C1166 1.385 . S
C1170 C1169 1.374 . S
C1171 C1168 1.499 . S
C1171 C1172 1.373 . S
C1171 C1173 1.389 . S
C1172 H1145 0.950 . S
C1172 C1158 1.377 . S
C1172 C1171 1.373 . S
C1173 C1157 1.377 . S
C1173 C1171 1.389 . S
C1173 C1174 1.524 . S
C1174 C1173 1.524 . S
C1174 C1175 1.397 . S
C1174 C1179 1.363 . S
C1175 H1146 0.950 . S
C1175 C1174 1.397 . S
C1175 C1176 1.334 . S
C1176 H1147 0.950 . S
C1176 C1175 1.334 . S
C1176 C1177 1.287 . S
C1177 C1176 1.287 . S
C1177 C1178 1.524 . S
C1177 H1180 0.999 . S
C1178 H1148 0.950 . S
C1178 C1177 1.524 . S
C1178 C1179 1.415 . S
C1179 H1149 0.950 . S
C1179 C1174 1.363 . S
C1179 C1178 1.415 . S
H1180 C1177 0.999 . S
H1181 C1162 0.913 . S
H1182 C1200 0.951 . S
H1183 C1202 0.951 . S
H1184 C1204 0.950 . S
H1185 C1205 0.950 . S
H1186 C1207 0.950 . S
H1187 C1210 0.950 . S
H1188 C1211 0.950 . S
H1189 C1213 0.950 . S
H1190 C1214 0.950 . S
H1191 C1215 0.951 . S
H1192 C1217 0.951 . S
H1193 C1219 0.950 . S
H1194 C1220 0.950 . S
H1195 C1222 0.950 . S
H1196 C1225 0.950 . S
H1197 C1226 0.950 . S
H1198 C1228 0.950 . S
H1199 C1229 0.950 . S
C1200 H1182 0.951 . S
C1200 C1201 1.366 . S
C1200 C1202 1.388 . S
C1201 C1200 1.366 . S
C1201 C1205 1.385 . S
C1202 H1183 0.951 . S
C1202 C1200 1.388 . S
C1202 C1203 1.366 . S
C1203 C1202 1.366 . S
C1203 C1204 1.414 . S
C1203 C1206 1.499 . S
C1204 H1184 0.950 . S
C1204 C1203 1.414 . S
C1204 C1205 1.374 . S
C1205 H1185 0.950 . S
C1205 C1201 1.385 . S
C1205 C1204 1.374 . S
C1206 C1203 1.499 . S
C1206 C1207 1.373 . S
C1206 C1208 1.389 . S
C1207 H1186 0.950 . S
C1207 C1206 1.373 . S
C1207 C1223 1.377 . S
C1208 C1206 1.389 . S
C1208 C1209 1.524 . S
C1208 C1222 1.377 . S
C1209 C1208 1.524 . S
C1209 C1210 1.397 . S
C1209 C1214 1.363 . S
C1210 H1187 0.950 . S
C1210 C1209 1.397 . S
C1210 C1211 1.334 . S
C1211 H1188 0.950 . S
C1211 C1210 1.334 . S
C1211 C1212 1.287 . S
C1212 C1211 1.287 . S
C1212 C1213 1.524 . S
C1212 H1231 0.913 . S
C1213 H1189 0.950 . S
C1213 C1212 1.524 . S
C1213 C1214 1.415 . S
C1214 H1190 0.950 . S
C1214 C1209 1.363 . S
C1214 C1213 1.415 . S
C1215 H1191 0.951 . S
C1215 C1216 1.366 . S
C1215 C1217 1.388 . S
C1216 C1215 1.366 . S
C1216 C1220 1.385 . S
C1217 H1192 0.951 . S
C1217 C1215 1.388 . S
C1217 C1218 1.366 . S
C1218 C1217 1.366 . S
C1218 C1219 1.414 . S
C1218 C1221 1.499 . S
C1219 H1193 0.950 . S
C1219 C1218 1.414 . S
C1219 C1220 1.374 . S
C1220 H1194 0.950 . S
C1220 C1216 1.385 . S
C1220 C1219 1.374 . S
C1221 C1218 1.499 . S
C1221 C1222 1.373 . S
C1221 C1223 1.389 . S
C1222 H1195 0.950 . S
C1222 C1208 1.377 . S
C1222 C1221 1.373 . S
C1223 C1207 1.377 . S
C1223 C1221 1.389 . S
C1223 C1224 1.524 . S
C1224 C1223 1.524 . S
C1224 C1225 1.397 . S
C1224 C1229 1.363 . S
C1225 H1196 0.950 . S
C1225 C1224 1.397 . S
C1225 C1226 1.334 . S
C1226 H1197 0.950 . S
C1226 C1225 1.334 . S
C1226 C1227 1.287 . S
C1227 C1226 1.287 . S
C1227 C1228 1.524 . S
C1227 H1230 0.999 . S
C1228 H1198 0.950 . S
C1228 C1227 1.524 . S
C1228 C1229 1.415 . S
C1229 H1199 0.950 . S
C1229 C1224 1.363 . S
C1229 C1228 1.415 . S
H1230 C1227 0.999 . S
H1231 C1212 0.913 . S
H1232 C1250 0.951 . S
H1233 C1252 0.951 . S
H1234 C1254 0.950 . S
H1235 C1255 0.950 . S
H1236 C1257 0.950 . S
H1237 C1260 0.950 . S
H1238 C1261 0.950 . S
H1239 C1263 0.950 . S
H1240 C1264 0.950 . S
H1241 C1265 0.951 . S
H1242 C1267 0.951 . S
H1243 C1269 0.950 . S
H1244 C1270 0.950 . S
H1245 C1272 0.950 . S
H1246 C1275 0.950 . S
H1247 C1276 0.950 . S
H1248 C1278 0.950 . S
H1249 C1279 0.950 . S
C1250 H1232 0.951 . S
C1250 C1251 1.366 . S
C1250 C1252 1.388 . S
C1251 C1250 1.366 . S
C1251 C1255 1.385 . S
C1252 H1233 0.951 . S
C1252 C1250 1.388 . S
C1252 C1253 1.366 . S
C1253 C1252 1.366 . S
C1253 C1254 1.414 . S
C1253 C1256 1.499 . S
C1254 H1234 0.950 . S
C1254 C1253 1.414 . S
C1254 C1255 1.374 . S
C1255 H1235 0.950 . S
C1255 C1251 1.385 . S
C1255 C1254 1.374 . S
C1256 C1253 1.499 . S
C1256 C1257 1.373 . S
C1256 C1258 1.389 . S
C1257 H1236 0.950 . S
C1257 C1256 1.373 . S
C1257 C1273 1.377 . S
C1258 C1256 1.389 . S
C1258 C1259 1.524 . S
C1258 C1272 1.377 . S
C1259 C1258 1.524 . S
C1259 C1260 1.397 . S
C1259 C1264 1.363 . S
C1260 H1237 0.950 . S
C1260 C1259 1.397 . S
C1260 C1261 1.334 . S
C1261 H1238 0.950 . S
C1261 C1260 1.334 . S
C1261 C1262 1.287 . S
C1262 C1261 1.287 . S
C1262 C1263 1.524 . S
C1262 H1281 0.913 . S
C1263 H1239 0.950 . S
C1263 C1262 1.524 . S
C1263 C1264 1.415 . S
C1264 H1240 0.950 . S
C1264 C1259 1.363 . S
C1264 C1263 1.415 . S
C1265 H1241 0.951 . S
C1265 C1266 1.366 . S
C1265 C1267 1.388 . S
C1266 C1265 1.366 . S
C1266 C1270 1.385 . S
C1267 H1242 0.951 . S
C1267 C1265 1.388 . S
C1267 C1268 1.366 . S
C1268 C1267 1.366 . S
C1268 C1269 1.414 . S
C1268 C1271 1.499 . S
C1269 H1243 0.950 . S
C1269 C1268 1.414 . S
C1269 C1270 1.374 . S
C1270 H1244 0.950 . S
C1270 C1266 1.385 . S
C1270 C1269 1.374 . S
C1271 C1268 1.499 . S
C1271 C1272 1.373 . S
C1271 C1273 1.389 . S
C1272 H1245 0.950 . S
C1272 C1258 1.377 . S
C1272 C1271 1.373 . S
C1273 C1257 1.377 . S
C1273 C1271 1.389 . S
C1273 C1274 1.524 . S
C1274 C1273 1.524 . S
C1274 C1275 1.397 . S
C1274 C1279 1.363 . S
C1275 H1246 0.950 . S
C1275 C1274 1.397 . S
C1275 C1276 1.334 . S
C1276 H1247 0.950 . S
C1276 C1275 1.334 . S
C1276 C1277 1.287 . S
C1277 C1276 1.287 . S
C1277 C1278 1.524 . S
C1277 H1280 0.999 . S
C1278 H1248 0.950 . S
C1278 C1277 1.524 . S
C1278 C1279 1.415 . S
C1279 H1249 0.950 . S
C1279 C1274 1.363 . S
C1279 C1278 1.415 . S
H1280 C1277 0.999 . S
H1281 C1262 0.913 . S
H1282 C1300 0.951 1_556 S
H1283 C1302 0.951 . S
H1284 C1304 0.950 . S
H1285 C1305 0.950 . S
H1286 C1307 0.950 . S
H1287 C1310 0.950 . S
H1288 C1311 0.950 . S
H1289 C1313 0.950 . S
H1290 C1314 0.950 . S
H1291 C1315 0.951 . S
H1292 C1317 0.951 . S
H1293 C1319 0.950 . S
H1294 C1320 0.950 . S
H1295 C1322 0.950 . S
H1296 C1325 0.950 . S
H1297 C1326 0.950 . S
H1298 C1328 0.950 . S
H1299 C1329 0.950 . S
C1300 H1282 0.951 1_554 S
C1300 C1301 1.366 . S
C1300 C1302 1.388 . S
C1301 C1300 1.366 . S
C1301 C1305 1.385 . S
C1302 H1283 0.951 . S
C1302 C1300 1.388 . S
C1302 C1303 1.366 . S
C1303 C1302 1.366 . S
C1303 C1304 1.414 . S
C1303 C1306 1.499 . S
C1304 H1284 0.950 . S
C1304 C1303 1.414 . S
C1304 C1305 1.374 . S
C1305 H1285 0.950 . S
C1305 C1301 1.385 . S
C1305 C1304 1.374 . S
C1306 C1303 1.499 . S
C1306 C1307 1.373 . S
C1306 C1308 1.389 . S
C1307 H1286 0.950 . S
C1307 C1306 1.373 . S
C1307 C1323 1.377 . S
C1308 C1306 1.389 . S
C1308 C1309 1.524 . S
C1308 C1322 1.377 . S
C1309 C1308 1.524 . S
C1309 C1310 1.397 . S
C1309 C1314 1.363 . S
C1310 H1287 0.950 . S
C1310 C1309 1.397 . S
C1310 C1311 1.334 . S
C1311 H1288 0.950 . S
C1311 C1310 1.334 . S
C1311 C1312 1.287 . S
C1312 C1311 1.287 . S
C1312 C1313 1.524 . S
C1312 H1331 0.913 . S
C1313 H1289 0.950 . S
C1313 C1312 1.524 . S
C1313 C1314 1.415 . S
C1314 H1290 0.950 . S
C1314 C1309 1.363 . S
C1314 C1313 1.415 . S
C1315 H1291 0.951 . S
C1315 C1316 1.366 . S
C1315 C1317 1.388 . S
C1316 C1315 1.366 . S
C1316 C1320 1.385 . S
C1317 H1292 0.951 . S
C1317 C1315 1.388 . S
C1317 C1318 1.366 . S
C1318 C1317 1.366 . S
C1318 C1319 1.414 . S
C1318 C1321 1.499 . S
C1319 H1293 0.950 . S
C1319 C1318 1.414 . S
C1319 C1320 1.374 . S
C1320 H1294 0.950 . S
C1320 C1316 1.385 . S
C1320 C1319 1.374 . S
C1321 C1318 1.499 . S
C1321 C1322 1.373 . S
C1321 C1323 1.389 . S
C1322 H1295 0.950 . S
C1322 C1308 1.377 . S
C1322 C1321 1.373 . S
C1323 C1307 1.377 . S
C1323 C1321 1.389 . S
C1323 C1324 1.524 . S
C1324 C1323 1.524 . S
C1324 C1325 1.397 . S
C1324 C1329 1.363 . S
C1325 H1296 0.950 . S
C1325 C1324 1.397 . S
C1325 C1326 1.334 . S
C1326 H1297 0.950 . S
C1326 C1325 1.334 . S
C1326 C1327 1.287 . S
C1327 C1326 1.287 . S
C1327 C1328 1.524 . S
C1327 H1330 0.999 . S
C1328 H1298 0.950 . S
C1328 C1327 1.524 . S
C1328 C1329 1.415 . S
C1329 H1299 0.950 . S
C1329 C1324 1.363 . S
C1329 C1328 1.415 . S
H1330 C1327 0.999 . S
H1331 C1312 0.913 . S
H1332 C1350 0.951 . S
H1333 C1352 0.951 . S
H1334 C1354 0.950 . S
H1335 C1355 0.950 . S
H1336 C1357 0.950 . S
H1337 C1360 0.950 . S
H1338 C1361 0.950 . S
H1339 C1363 0.950 . S
H1340 C1364 0.950 . S
H1341 C1365 0.951 . S
H1342 C1367 0.951 . S
H1343 C1369 0.950 . S
H1344 C1370 0.950 . S
H1345 C1372 0.950 . S
H1346 C1375 0.950 . S
H1347 C1376 0.950 . S
H1348 C1378 0.950 . S
H1349 C1379 0.950 . S
C1350 H1332 0.951 . S
C1350 C1351 1.366 . S
C1350 C1352 1.388 . S
C1351 C1350 1.366 . S
C1351 C1355 1.385 . S
C1352 H1333 0.951 . S
C1352 C1350 1.388 . S
C1352 C1353 1.366 . S
C1353 C1352 1.366 . S
C1353 C1354 1.414 . S
C1353 C1356 1.499 . S
C1354 H1334 0.950 . S
C1354 C1353 1.414 . S
C1354 C1355 1.374 . S
C1355 H1335 0.950 . S
C1355 C1351 1.385 . S
C1355 C1354 1.374 . S
C1356 C1353 1.499 . S
C1356 C1357 1.373 . S
C1356 C1358 1.389 . S
C1357 H1336 0.950 . S
C1357 C1356 1.373 . S
C1357 C1373 1.377 . S
C1358 C1356 1.389 . S
C1358 C1359 1.524 . S
C1358 C1372 1.377 . S
C1359 C1358 1.524 . S
C1359 C1360 1.397 . S
C1359 C1364 1.363 . S
C1360 H1337 0.950 . S
C1360 C1359 1.397 . S
C1360 C1361 1.334 . S
C1361 H1338 0.950 . S
C1361 C1360 1.334 . S
C1361 C1362 1.287 . S
C1362 C1361 1.287 . S
C1362 C1363 1.524 . S
C1362 H1381 0.913 . S
C1363 H1339 0.950 . S
C1363 C1362 1.524 . S
C1363 C1364 1.415 . S
C1364 H1340 0.950 . S
C1364 C1359 1.363 . S
C1364 C1363 1.415 . S
C1365 H1341 0.951 . S
C1365 C1366 1.366 . S
C1365 C1367 1.388 . S
C1366 C1365 1.366 . S
C1366 C1370 1.385 . S
C1367 H1342 0.951 . S
C1367 C1365 1.388 . S
C1367 C1368 1.366 . S
C1368 C1367 1.366 . S
C1368 C1369 1.414 . S
C1368 C1371 1.499 . S
C1369 H1343 0.950 . S
C1369 C1368 1.414 . S
C1369 C1370 1.374 . S
C1370 H1344 0.950 . S
C1370 C1366 1.385 . S
C1370 C1369 1.374 . S
C1371 C1368 1.499 . S
C1371 C1372 1.373 . S
C1371 C1373 1.389 . S
C1372 H1345 0.950 . S
C1372 C1358 1.377 . S
C1372 C1371 1.373 . S
C1373 C1357 1.377 . S
C1373 C1371 1.389 . S
C1373 C1374 1.524 . S
C1374 C1373 1.524 . S
C1374 C1375 1.397 . S
C1374 C1379 1.363 . S
C1375 H1346 0.950 . S
C1375 C1374 1.397 . S
C1375 C1376 1.334 . S
C1376 H1347 0.950 . S
C1376 C1375 1.334 . S
C1376 C1377 1.287 . S
C1377 C1376 1.287 . S
C1377 C1378 1.524 . S
C1377 H1380 0.999 . S
C1378 H1348 0.950 . S
C1378 C1377 1.524 . S
C1378 C1379 1.415 . S
C1379 H1349 0.950 . S
C1379 C1374 1.363 . S
C1379 C1378 1.415 . S
H1380 C1377 0.999 . S
H1381 C1362 0.913 . S
H1382 C1400 0.951 . S
H1383 C1402 0.951 . S
H1384 C1404 0.950 . S
H1385 C1405 0.950 . S
H1386 C1407 0.950 . S
H1387 C1410 0.950 . S
H1388 C1411 0.950 . S
H1389 C1413 0.950 . S
H1390 C1414 0.950 . S
H1391 C1415 0.951 . S
H1392 C1417 0.951 . S
H1393 C1419 0.950 . S
H1394 C1420 0.950 . S
H1395 C1422 0.950 . S
H1396 C1425 0.950 . S
H1397 C1426 0.950 . S
H1398 C1428 0.950 . S
H1399 C1429 0.950 . S
C1400 H1382 0.951 . S
C1400 C1401 1.366 . S
C1400 C1402 1.388 . S
C1401 C1400 1.366 . S
C1401 C1405 1.385 . S
C1402 H1383 0.951 . S
C1402 C1400 1.388 . S
C1402 C1403 1.366 . S
C1403 C1402 1.366 . S
C1403 C1404 1.414 . S
C1403 C1406 1.499 . S
C1404 H1384 0.950 . S
C1404 C1403 1.414 . S
C1404 C1405 1.374 . S
C1405 H1385 0.950 . S
C1405 C1401 1.385 . S
C1405 C1404 1.374 . S
C1406 C1403 1.499 . S
C1406 C1407 1.373 . S
C1406 C1408 1.389 . S
C1407 H1386 0.950 . S
C1407 C1406 1.373 . S
C1407 C1423 1.377 . S
C1408 C1406 1.389 . S
C1408 C1409 1.524 . S
C1408 C1422 1.377 . S
C1409 C1408 1.524 . S
C1409 C1410 1.397 . S
C1409 C1414 1.363 . S
C1410 H1387 0.950 . S
C1410 C1409 1.397 . S
C1410 C1411 1.334 . S
C1411 H1388 0.950 . S
C1411 C1410 1.334 . S
C1411 C1412 1.287 . S
C1412 C1411 1.287 . S
C1412 C1413 1.524 . S
C1412 H1431 0.913 . S
C1413 H1389 0.950 . S
C1413 C1412 1.524 . S
C1413 C1414 1.415 . S
C1414 H1390 0.950 . S
C1414 C1409 1.363 . S
C1414 C1413 1.415 . S
C1415 H1391 0.951 . S
C1415 C1416 1.366 . S
C1415 C1417 1.388 . S
C1416 C1415 1.366 . S
C1416 C1420 1.385 . S
C1417 H1392 0.951 . S
C1417 C1415 1.388 . S
C1417 C1418 1.366 . S
C1418 C1417 1.366 . S
C1418 C1419 1.414 . S
C1418 C1421 1.499 . S
C1419 H1393 0.950 . S
C1419 C1418 1.414 . S
C1419 C1420 1.374 . S
C1420 H1394 0.950 . S
C1420 C1416 1.385 . S
C1420 C1419 1.374 . S
C1421 C1418 1.499 . S
C1421 C1422 1.373 . S
C1421 C1423 1.389 . S
C1422 H1395 0.950 . S
C1422 C1408 1.377 . S
C1422 C1421 1.373 . S
C1423 C1407 1.377 . S
C1423 C1421 1.389 . S
C1423 C1424 1.524 . S
C1424 C1423 1.524 . S
C1424 C1425 1.397 . S
C1424 C1429 1.363 . S
C1425 H1396 0.950 . S
C1425 C1424 1.397 . S
C1425 C1426 1.334 . S
C1426 H1397 0.950 . S
C1426 C1425 1.334 . S
C1426 C1427 1.287 . S
C1427 C1426 1.287 . S
C1427 C1428 1.524 . S
C1427 H1430 0.999 . S
C1428 H1398 0.950 . S
C1428 C1427 1.524 . S
C1428 C1429 1.415 . S
C1429 H1399 0.950 . S
C1429 C1424 1.363 . S
C1429 C1428 1.415 . S
H1430 C1427 0.999 . S
H1431 C1412 0.913 . S
H1432 C1450 0.951 . S
H1433 C1452 0.951 . S
H1434 C1454 0.950 . S
H1435 C1455 0.950 . S
H1436 C1457 0.950 . S
H1437 C1460 0.950 . S
H1438 C1461 0.950 . S
H1439 C1463 0.950 . S
H1440 C1464 0.950 . S
H1441 C1465 0.951 . S
H1442 C1467 0.951 . S
H1443 C1469 0.950 . S
H1444 C1470 0.950 . S
H1445 C1472 0.950 . S
H1446 C1475 0.950 . S
H1447 C1476 0.950 . S
H1448 C1478 0.950 . S
H1449 C1479 0.950 . S
C1450 H1432 0.951 . S
C1450 C1451 1.366 . S
C1450 C1452 1.388 . S
C1451 C1450 1.366 . S
C1451 C1455 1.385 1_556 S
C1452 H1433 0.951 . S
C1452 C1450 1.388 . S
C1452 C1453 1.366 . S
C1453 C1452 1.366 . S
C1453 C1454 1.414 1_556 S
C1453 C1456 1.499 . S
C1454 H1434 0.950 . S
C1454 C1453 1.414 1_554 S
C1454 C1455 1.374 . S
C1455 H1435 0.950 . S
C1455 C1451 1.385 1_554 S
C1455 C1454 1.374 . S
C1456 C1453 1.499 . S
C1456 C1457 1.373 1_556 S
C1456 C1458 1.389 . S
C1457 H1436 0.950 . S
C1457 C1456 1.373 1_554 S
C1457 C1473 1.377 . S
C1458 C1456 1.389 . S
C1458 C1459 1.524 . S
C1458 C1472 1.377 . S
C1459 C1458 1.524 . S
C1459 C1460 1.397 . S
C1459 C1464 1.363 . S
C1460 H1437 0.950 . S
C1460 C1459 1.397 . S
C1460 C1461 1.334 . S
C1461 H1438 0.950 . S
C1461 C1460 1.334 . S
C1461 C1462 1.287 . S
C1462 C1461 1.287 . S
C1462 C1463 1.524 . S
C1462 H1481 0.913 . S
C1463 H1439 0.950 . S
C1463 C1462 1.524 . S
C1463 C1464 1.415 . S
C1464 H1440 0.950 . S
C1464 C1459 1.363 . S
C1464 C1463 1.415 . S
C1465 H1441 0.951 . S
C1465 C1466 1.366 . S
C1465 C1467 1.388 . S
C1466 C1465 1.366 . S
C1466 C1470 1.385 1_554 S
C1467 H1442 0.951 . S
C1467 C1465 1.388 . S
C1467 C1468 1.366 . S
C1468 C1467 1.366 . S
C1468 C1469 1.414 1_554 S
C1468 C1471 1.499 . S
C1469 H1443 0.950 . S
C1469 C1468 1.414 1_556 S
C1469 C1470 1.374 . S
C1470 H1444 0.950 . S
C1470 C1466 1.385 1_556 S
C1470 C1469 1.374 . S
C1471 C1468 1.499 . S
C1471 C1472 1.373 1_554 S
C1471 C1473 1.389 . S
C1472 H1445 0.950 . S
C1472 C1458 1.377 . S
C1472 C1471 1.373 1_556 S
C1473 C1457 1.377 . S
C1473 C1471 1.389 . S
C1473 C1474 1.524 . S
C1474 C1473 1.524 . S
C1474 C1475 1.397 . S
C1474 C1479 1.363 . S
C1475 H1446 0.950 . S
C1475 C1474 1.397 . S
C1475 C1476 1.334 . S
C1476 H1447 0.950 . S
C1476 C1475 1.334 . S
C1476 C1477 1.287 . S
C1477 C1476 1.287 . S
C1477 C1478 1.524 . S
C1477 H1480 0.999 . S
C1478 H1448 0.950 . S
C1478 C1477 1.524 . S
C1478 C1479 1.415 . S
C1479 H1449 0.950 . S
C1479 C1474 1.363 . S
C1479 C1478 1.415 . S
H1480 C1477 0.999 . S
H1481 C1462 0.913 . S
H1482 C1500 0.951 . S
H1483 C1502 0.951 . S
H1484 C1504 0.950 . S
H1485 C1505 0.950 . S
H1486 C1507 0.950 . S
H1487 C1510 0.950 . S
H1488 C1511 0.950 . S
H1489 C1513 0.950 . S
H1490 C1514 0.950 . S
H1491 C1515 0.951 . S
H1492 C1517 0.951 . S
H1493 C1519 0.950 . S
H1494 C1520 0.950 . S
H1495 C1522 0.950 . S
H1496 C1525 0.950 . S
H1497 C1526 0.950 . S
H1498 C1528 0.950 . S
H1499 C1529 0.950 . S
C1500 H1482 0.951 . S
C1500 C1501 1.366 . S
C1500 C1502 1.388 . S
C1501 C1500 1.366 . S
C1501 C1505 1.385 . S
C1502 H1483 0.951 . S
C1502 C1500 1.388 . S
C1502 C1503 1.366 . S
C1503 C1502 1.366 . S
C1503 C1504 1.414 . S
C1503 C1506 1.499 . S
C1504 H1484 0.950 . S
C1504 C1503 1.414 . S
C1504 C1505 1.374 . S
C1505 H1485 0.950 . S
C1505 C1501 1.385 . S
C1505 C1504 1.374 . S
C1506 C1503 1.499 . S
C1506 C1507 1.373 . S
C1506 C1508 1.389 . S
C1507 H1486 0.950 . S
C1507 C1506 1.373 . S
C1507 C1523 1.377 . S
C1508 C1506 1.389 . S
C1508 C1509 1.524 . S
C1508 C1522 1.377 . S
C1509 C1508 1.524 . S
C1509 C1510 1.397 . S
C1509 C1514 1.363 . S
C1510 H1487 0.950 . S
C1510 C1509 1.397 . S
C1510 C1511 1.334 . S
C1511 H1488 0.950 . S
C1511 C1510 1.334 . S
C1511 C1512 1.287 . S
C1512 C1511 1.287 . S
C1512 C1513 1.524 . S
C1512 H1531 0.913 . S
C1513 H1489 0.950 . S
C1513 C1512 1.524 . S
C1513 C1514 1.415 . S
C1514 H1490 0.950 . S
C1514 C1509 1.363 . S
C1514 C1513 1.415 . S
C1515 H1491 0.951 . S
C1515 C1516 1.366 . S
C1515 C1517 1.388 . S
C1516 C1515 1.366 . S
C1516 C1520 1.385 . S
C1517 H1492 0.951 . S
C1517 C1515 1.388 . S
C1517 C1518 1.366 . S
C1518 C1517 1.366 . S
C1518 C1519 1.414 . S
C1518 C1521 1.499 . S
C1519 H1493 0.950 . S
C1519 C1518 1.414 . S
C1519 C1520 1.374 . S
C1520 H1494 0.950 . S
C1520 C1516 1.385 . S
C1520 C1519 1.374 . S
C1521 C1518 1.499 . S
C1521 C1522 1.373 . S
C1521 C1523 1.389 . S
C1522 H1495 0.950 . S
C1522 C1508 1.377 . S
C1522 C1521 1.373 . S
C1523 C1507 1.377 . S
C1523 C1521 1.389 . S
C1523 C1524 1.524 . S
C1524 C1523 1.524 . S
C1524 C1525 1.397 . S
C1524 C1529 1.363 . S
C1525 H1496 0.950 . S
C1525 C1524 1.397 . S
C1525 C1526 1.334 . S
C1526 H1497 0.950 . S
C1526 C1525 1.334 . S
C1526 C1527 1.287 . S
C1527 C1526 1.287 . S
C1527 C1528 1.524 . S
C1527 H1530 0.999 . S
C1528 H1498 0.950 . S
C1528 C1527 1.524 . S
C1528 C1529 1.415 . S
C1529 H1499 0.950 . S
C1529 C1524 1.363 . S
C1529 C1528 1.415 . S
H1530 C1527 0.999 . S
H1531 C1512 0.913 . S
H1532 C1550 0.951 . S
H1533 C1552 0.951 . S
H1534 C1554 0.950 . S
H1535 C1555 0.950 . S
H1536 C1557 0.950 . S
H1537 C1560 0.950 . S
H1538 C1561 0.950 . S
H1539 C1563 0.950 . S
H1540 C1564 0.950 . S
H1541 C1565 0.951 . S
H1542 C1567 0.951 . S
H1543 C1569 0.950 . S
H1544 C1570 0.950 . S
H1545 C1572 0.950 . S
H1546 C1575 0.950 . S
H1547 C1576 0.950 . S
H1548 C1578 0.950 . S
H1549 C1579 0.950 . S
C1550 H1532 0.951 . S
C1550 C1551 1.366 . S
C1550 C1552 1.388 . S
C1551 C1550 1.366 . S
C1551 C1555 1.385 . S
C1552 H1533 0.951 . S
C1552 C1550 1.388 . S
C1552 C1553 1.366 . S
C1553 C1552 1.366 . S
C1553 C1554 1.414 . S
C1553 C1556 1.499 . S
C1554 H1534 0.950 . S
C1554 C1553 1.414 . S
C1554 C1555 1.374 . S
C1555 H1535 0.950 . S
C1555 C1551 1.385 . S
C1555 C1554 1.374 . S
C1556 C1553 1.499 . S
C1556 C1557 1.373 . S
C1556 C1558 1.389 . S
C1557 H1536 0.950 . S
C1557 C1556 1.373 . S
C1557 C1573 1.377 . S
C1558 C1556 1.389 . S
C1558 C1559 1.524 . S
C1558 C1572 1.377 . S
C1559 C1558 1.524 . S
C1559 C1560 1.397 . S
C1559 C1564 1.363 . S
C1560 H1537 0.950 . S
C1560 C1559 1.397 . S
C1560 C1561 1.334 . S
C1561 H1538 0.950 . S
C1561 C1560 1.334 . S
C1561 C1562 1.287 . S
C1562 C1561 1.287 . S
C1562 C1563 1.524 . S
C1562 H1581 0.913 . S
C1563 H1539 0.950 . S
C1563 C1562 1.524 . S
C1563 C1564 1.415 . S
C1564 H1540 0.950 . S
C1564 C1559 1.363 . S
C1564 C1563 1.415 . S
C1565 H1541 0.951 . S
C1565 C1566 1.366 . S
C1565 C1567 1.388 . S
C1566 C1565 1.366 . S
C1566 C1570 1.385 . S
C1567 H1542 0.951 . S
C1567 C1565 1.388 . S
C1567 C1568 1.366 . S
C1568 C1567 1.366 . S
C1568 C1569 1.414 . S
C1568 C1571 1.499 . S
C1569 H1543 0.950 . S
C1569 C1568 1.414 . S
C1569 C1570 1.374 . S
C1570 H1544 0.950 . S
C1570 C1566 1.385 . S
C1570 C1569 1.374 . S
C1571 C1568 1.499 . S
C1571 C1572 1.373 . S
C1571 C1573 1.389 . S
C1572 H1545 0.950 . S
C1572 C1558 1.377 . S
C1572 C1571 1.373 . S
C1573 C1557 1.377 . S
C1573 C1571 1.389 . S
C1573 C1574 1.524 . S
C1574 C1573 1.524 . S
C1574 C1575 1.397 . S
C1574 C1579 1.363 . S
C1575 H1546 0.950 . S
C1575 C1574 1.397 . S
C1575 C1576 1.334 . S
C1576 H1547 0.950 . S
C1576 C1575 1.334 . S
C1576 C1577 1.287 . S
C1577 C1576 1.287 . S
C1577 C1578 1.524 . S
C1577 H1580 0.999 . S
C1578 H1548 0.950 . S
C1578 C1577 1.524 . S
C1578 C1579 1.415 . S
C1579 H1549 0.950 . S
C1579 C1574 1.363 . S
C1579 C1578 1.415 . S
H1580 C1577 0.999 . S
H1581 C1562 0.913 . S
H1582 C1600 0.951 1_556 S
H1583 C1602 0.951 . S
H1584 C1604 0.950 . S
H1585 C1605 0.950 . S
H1586 C1607 0.950 . S
H1587 C1610 0.950 . S
H1588 C1611 0.950 . S
H1589 C1613 0.950 . S
H1590 C1614 0.950 . S
H1591 C1615 0.951 1_554 S
H1592 C1617 0.951 . S
H1593 C1619 0.950 . S
H1594 C1620 0.950 . S
H1595 C1622 0.950 . S
H1596 C1625 0.950 . S
H1597 C1626 0.950 . S
H1598 C1628 0.950 . S
H1599 C1629 0.950 . S
C1600 H1582 0.951 1_554 S
C1600 C1601 1.366 . S
C1600 C1602 1.388 1_554 S
C1601 C1600 1.366 . S
C1601 C1605 1.385 . S
C1602 H1583 0.951 . S
C1602 C1600 1.388 1_556 S
C1602 C1603 1.366 1_556 S
C1603 C1602 1.366 1_554 S
C1603 C1604 1.414 . S
C1603 C1606 1.499 . S
C1604 H1584 0.950 . S
C1604 C1603 1.414 . S
C1604 C1605 1.374 . S
C1605 H1585 0.950 . S
C1605 C1601 1.385 . S
C1605 C1604 1.374 . S
C1606 C1603 1.499 . S
C1606 C1607 1.373 . S
C1606 C1608 1.389 1_554 S
C1607 H1586 0.950 . S
C1607 C1606 1.373 . S
C1607 C1623 1.377 . S
C1608 C1606 1.389 1_556 S
C1608 C1609 1.524 . S
C1608 C1622 1.377 . S
C1609 C1608 1.524 . S
C1609 C1610 1.397 . S
C1609 C1614 1.363 . S
C1610 H1587 0.950 . S
C1610 C1609 1.397 . S
C1610 C1611 1.334 . S
C1611 H1588 0.950 . S
C1611 C1610 1.334 . S
C1611 C1612 1.287 . S
C1612 C1611 1.287 . S
C1612 C1613 1.524 . S
C1612 H1631 0.913 . S
C1613 H1589 0.950 . S
C1613 C1612 1.524 . S
C1613 C1614 1.415 . S
C1614 H1590 0.950 . S
C1614 C1609 1.363 . S
C1614 C1613 1.415 . S
C1615 H1591 0.951 1_556 S
C1615 C1616 1.366 . S
C1615 C1617 1.388 1_556 S
C1616 C1615 1.366 . S
C1616 C1620 1.385 . S
C1617 H1592 0.951 . S
C1617 C1615 1.388 1_554 S
C1617 C1618 1.366 1_554 S
C1618 C1617 1.366 1_556 S
C1618 C1619 1.414 . S
C1618 C1621 1.499 . S
C1619 H1593 0.950 . S
C1619 C1618 1.414 . S
C1619 C1620 1.374 . S
C1620 H1594 0.950 . S
C1620 C1616 1.385 . S
C1620 C1619 1.374 . S
C1621 C1618 1.499 . S
C1621 C1622 1.373 . S
C1621 C1623 1.389 1_556 S
C1622 H1595 0.950 . S
C1622 C1608 1.377 . S
C1622 C1621 1.373 . S
C1623 C1607 1.377 . S
C1623 C1621 1.389 1_554 S
C1623 C1624 1.524 . S
C1624 C1623 1.524 . S
C1624 C1625 1.397 . S
C1624 C1629 1.363 . S
C1625 H1596 0.950 . S
C1625 C1624 1.397 . S
C1625 C1626 1.334 . S
C1626 H1597 0.950 . S
C1626 C1625 1.334 . S
C1626 C1627 1.287 . S
C1627 C1626 1.287 . S
C1627 C1628 1.524 . S
C1627 H1630 0.999 . S
C1628 H1598 0.950 . S
C1628 C1627 1.524 . S
C1628 C1629 1.415 . S
C1629 H1599 0.950 . S
C1629 C1624 1.363 . S
C1629 C1628 1.415 . S
H1630 C1627 0.999 . S
H1631 C1612 0.913 . S
C451 C14 1.139 . S
C466 C338 1.139 . S
C501 C50 1.139 . S
C516 C374 1.138 . S
C551 C86 1.136 . S
C566 C410 1.137 . S
C601 C122 1.139 . S
C616 C230 1.137 . S
C651 C266 1.138 . S
C666 C158 1.137 . S
C701 C302 1.138 . S
C716 C194 1.137 . S
C751 C363 1.795 . S
C766 C3 1.795 . S
C801 C39 1.795 . S
C816 C399 1.795 . S
C851 C75 1.795 . S
C866 C219 1.795 . S
C901 C111 1.795 . S
C916 C255 1.795 . S
C951 C147 1.795 . S
C966 C291 1.795 . S
C1001 C183 1.795 . S
C1016 C327 1.795 . S
C1051 C362 0.756 . S
C1066 C2 0.756 . S
C1101 C38 0.756 . S
C1116 C398 0.756 . S
C1151 C74 0.756 . S
C1166 C218 0.756 . S
C1201 C110 0.755 . S
C1216 C254 0.756 . S
C1251 C146 0.756 . S
C1266 C290 0.756 . S
C1301 C182 0.756 . S
C1316 C326 0.755 . S
C1351 C4 1.669 . S
C1366 C220 1.669 . S
C1401 C256 1.669 . S
C1416 C40 1.669 . S
C1451 C76 1.669 . S
C1466 C292 1.669 . S
C1501 C112 1.669 . S
C1516 C328 1.669 . S
C1551 C148 1.669 . S
C1566 C364 1.669 . S
C1601 C400 1.669 . S
C1616 C184 1.669 . S
