# Generated by pormake.
# Topology rob, (6)-cn, num edge types: 1
# Building blocks:
#     Node 0, Type 0, BuildingBlock: BETDEL_clean_sbu_0, # of connection points: 6
#     Node 1, Type 0, BuildingBlock: BETDEL_clean_sbu_0, # of connection points: 6
#     Node 2, Type 0, BuildingBlock: BETDEL_clean_sbu_0, # of connection points: 6
#     Node 3, Type 0, BuildingBlock: BETDEL_clean_sbu_0, # of connection points: 6
#     Edge 4, Type (0, 0), BuildingBlock: XUDNAN_clean_linker_2, # of connection points: 2
#     Edge 5, Type (0, 0), BuildingBlock: XUDNAN_clean_linker_2, # of connection points: 2
#     Edge 6, Type (0, 0), BuildingBlock: XUDNAN_clean_linker_2, # of connection points: 2
#     Edge 7, Type (0, 0), BuildingBlock: XUDNAN_clean_linker_2, # of connection points: 2
#     Edge 8, Type (0, 0), BuildingBlock: XUDNAN_clean_linker_2, # of connection points: 2
#     Edge 9, Type (0, 0), BuildingBlock: XUDNAN_clean_linker_2, # of connection points: 2
#     Edge 10, Type (0, 0), BuildingBlock: XUDNAN_clean_linker_2, # of connection points: 2
#     Edge 11, Type (0, 0), BuildingBlock: XUDNAN_clean_linker_2, # of connection points: 2
#     Edge 12, Type (0, 0), BuildingBlock: XUDNAN_clean_linker_2, # of connection points: 2
#     Edge 13, Type (0, 0), BuildingBlock: XUDNAN_clean_linker_2, # of connection points: 2
#     Edge 14, Type (0, 0), BuildingBlock: XUDNAN_clean_linker_2, # of connection points: 2
#     Edge 15, Type (0, 0), BuildingBlock: XUDNAN_clean_linker_2, # of connection points: 2
# Relax obj value: 0.076
# Max RMSD: 0.163
# Mean RMSD: 0.163
data_MOF--net-rob--node1-BETDEL_clean_sbu_0--edge1-XUDNAN_clean_linker_2
_symmetry_space_group_name_H-M    P1
_symmetry_Int_Tables_number       1
_symmetry_cell_setting            triclinic
loop_
_symmetry_equiv_pos_as_xyz
'x, y, z'
_cell_length_a     13.193318
_cell_length_b     25.162813
_cell_length_c     29.325997
_cell_angle_alpha  89.847869
_cell_angle_beta   103.5471
_cell_angle_gamma 89.96482
loop_
_atom_site_label
_atom_site_type_symbol
_atom_site_fract_x
_atom_site_fract_y
_atom_site_fract_z
_atom_type_partial_charge
Dy0 Dy 0.15206 0.29114 0.02393 0.0
C1 C 0.43501 0.28676 0.90411 0.0
C2 C 0.03987 0.26692 0.08893 0.0
Dy3 Dy 0.32203 0.27752 0.97115 0.0
O4 O 0.0564 0.31467 0.07522 0.0
O5 O 0.0778 0.2327 0.06433 0.0
O6 O 0.15914 0.37939 0.02047 0.0
O7 O 0.29609 0.33472 0.02355 0.0
C8 C 0.25622 0.38085 0.01795 0.0
C9 C 0.20493 0.19092 0.97662 0.0
O10 O 0.42593 0.26978 0.04212 0.0
O11 O 0.28579 0.25169 0.07465 0.0
O12 O 0.38752 0.24424 0.91288 0.0
O13 O 0.4257 0.3235 0.93388 0.0
O14 O 0.30485 0.18863 0.9801 0.0
O15 O 0.174 0.23808 0.96927 0.0
O16 O 0.05466 0.30416 0.95114 0.0
O17 O 0.20084 0.32815 0.92506 0.0
C18 C 0.38741 0.25408 0.07767 0.0
C19 C 0.09861 0.32648 0.91949 0.0
Dy20 Dy 0.66974 0.80684 0.03032 0.0
C21 C 0.97716 0.75842 0.92445 0.0
C22 C 0.56483 0.83343 0.09716 0.0
Dy23 Dy 0.85315 0.75968 0.98691 0.0
O24 O 0.62582 0.86455 0.08048 0.0
O25 O 0.55535 0.7883 0.07488 0.0
O26 O 0.67718 0.8808 0.98972 0.0
O27 O 0.81546 0.83652 0.01474 0.0
C28 C 0.77592 0.8765 0.99051 0.0
C29 C 0.72441 0.68273 0.00497 0.0
O30 O 0.94288 0.76345 0.06125 0.0
O31 O 0.79619 0.78058 0.09107 0.0
O32 O 0.98237 0.72407 0.95835 0.0
O33 O 0.90904 0.79493 0.92692 0.0
O34 O 0.80484 0.6723 0.98788 0.0
O35 O 0.72337 0.73195 0.01131 0.0
O36 O 0.57219 0.7837 0.96025 0.0
O37 O 0.71662 0.77462 0.92697 0.0
C38 C 0.89638 0.76888 0.09653 0.0
C39 C 0.61479 0.77648 0.92392 0.0
Dy40 Dy 0.33908 0.79588 0.4824 0.0
C41 C 0.09361 0.72955 0.60684 0.0
C42 C 0.44912 0.81033 0.4149 0.0
Dy43 Dy 0.19233 0.74997 0.53597 0.0
O44 O 0.44081 0.84526 0.44643 0.0
O45 O 0.40199 0.76704 0.422 0.0
O46 O 0.28751 0.87844 0.49519 0.0
O47 O 0.17937 0.81628 0.4868 0.0
C48 C 0.19342 0.86492 0.49644 0.0
C49 C 0.33387 0.68054 0.51856 0.0
O50 O 0.08978 0.73644 0.46471 0.0
O51 O 0.23103 0.74471 0.43066 0.0
O52 O 0.14715 0.69583 0.58879 0.0
O53 O 0.08774 0.77414 0.58384 0.0
O54 O 0.23879 0.66789 0.51893 0.0
O55 O 0.35063 0.72858 0.53014 0.0
O56 O 0.44288 0.79604 0.55441 0.0
O57 O 0.30001 0.80421 0.58574 0.0
C58 C 0.13394 0.7302 0.42886 0.0
C59 C 0.40169 0.8072 0.59028 0.0
Dy60 Dy 0.84993 0.27547 0.47911 0.0
C61 C 0.54103 0.29254 0.58477 0.0
C62 C 0.96644 0.26419 0.41376 0.0
Dy63 Dy 0.65873 0.26642 0.52277 0.0
O64 O 0.92096 0.30749 0.42229 0.0
O65 O 0.9541 0.22748 0.44338 0.0
O66 O 0.86852 0.36111 0.50049 0.0
O67 O 0.71915 0.32686 0.48319 0.0
C68 C 0.77004 0.36802 0.49887 0.0
C69 C 0.73986 0.17356 0.50461 0.0
O70 O 0.57486 0.27967 0.44823 0.0
O71 O 0.71571 0.2467 0.42279 0.0
O72 O 0.54513 0.2454 0.56702 0.0
O73 O 0.59557 0.32531 0.56613 0.0
O74 O 0.64109 0.18003 0.50329 0.0
O75 O 0.78995 0.21528 0.51934 0.0
O76 O 0.94294 0.27407 0.55312 0.0
O77 O 0.79438 0.28162 0.58311 0.0
C78 C 0.61751 0.26242 0.4144 0.0
C79 C 0.89684 0.28063 0.58837 0.0
H80 H 0.73208 0.57371 1.00106 0.0
H81 H 0.53404 0.70481 0.02135 0.0
H82 H 0.39531 0.64153 0.02791 0.0
H83 H 0.5305 0.49289 0.93116 0.0
H84 H 0.58383 0.4308 0.95687 0.0
H85 H 0.66898 0.4862 0.95468 0.0
H86 H 0.74076 0.47993 0.04471 0.0
H87 H 0.65569 0.42449 0.04703 0.0
H88 H 0.65135 0.4823 0.08268 0.0
H89 H 0.27554 0.56525 0.02833 0.0
H90 H 0.18368 0.47999 0.02713 0.0
H91 H 0.4594 0.39594 0.00961 0.0
C92 C 0.65969 0.58893 0.00725 0.0
C93 C 0.64387 0.64424 0.01113 0.0
C94 C 0.54821 0.66272 0.01896 0.0
C95 C 0.46879 0.62703 0.02246 0.0
C96 C 0.48647 0.57282 0.0183 0.0
C97 C 0.57969 0.55364 0.01122 0.0
C98 C 0.57795 0.4933 0.00803 0.0
C99 C 0.59108 0.47473 0.95981 0.0
C100 C 0.6614 0.46856 0.048 0.0
C101 C 0.46888 0.48171 0.01406 0.0
C102 C 0.41762 0.52833 0.01965 0.0
C103 C 0.31514 0.52847 0.02439 0.0
C104 C 0.26358 0.47974 0.02359 0.0
C105 C 0.31447 0.43127 0.01852 0.0
C106 C 0.41874 0.43233 0.01379 0.0
H107 H 0.30886 0.57428 0.49984 0.0
H108 H 0.54383 0.69773 0.53283 0.0
H109 H 0.68141 0.63084 0.5327 0.0
H110 H 0.45837 0.47139 0.57088 0.0
H111 H 0.41054 0.41902 0.5297 0.0
H112 H 0.33034 0.47638 0.53234 0.0
H113 H 0.31255 0.49379 0.44364 0.0
H114 H 0.39191 0.43624 0.44062 0.0
H115 H 0.42845 0.50007 0.42148 0.0
H116 H 0.79353 0.54986 0.53074 0.0
H117 H 0.87118 0.4619 0.52289 0.0
H118 H 0.56249 0.39169 0.4888 0.0
C119 C 0.38929 0.58723 0.50692 0.0
C120 C 0.41593 0.64115 0.51648 0.0
C121 C 0.52186 0.65663 0.52545 0.0
C122 C 0.60045 0.61889 0.52556 0.0
C123 C 0.57169 0.56592 0.51645 0.0
C124 C 0.46858 0.55012 0.50702 0.0
C125 C 0.45838 0.49082 0.49788 0.0
C126 C 0.41163 0.46277 0.53491 0.0
C127 C 0.39403 0.47959 0.44794 0.0
C128 C 0.57178 0.47575 0.50333 0.0
C129 C 0.63596 0.51955 0.51447 0.0
C130 C 0.74394 0.51537 0.52185 0.0
C131 C 0.78733 0.46525 0.51736 0.0
C132 C 0.7229 0.42002 0.50527 0.0
C133 C 0.61374 0.4255 0.49827 0.0
H134 H 0.23801 0.08934 0.01388 0.0
H135 H 0.00871 0.18943 0.92257 0.0
H136 H 0.88348 0.11543 0.90956 0.0
H137 H 0.16311 0.96221 0.95151 0.0
H138 H 0.18033 0.92394 0.00482 0.0
H139 H 0.25792 0.9826 1.00332 0.0
H140 H 0.19524 1.02162 0.07361 0.0
H141 H 0.11802 0.96305 0.07547 0.0
H142 H 0.05739 0.02772 0.06995 0.0
H143 H 0.77979 0.03421 0.90914 0.0
H144 H 0.69603 0.95185 0.92692 0.0
H145 H 0.9858 0.90217 0.02104 0.0
C146 C 0.16193 0.09512 0.99061 0.0
C147 C 0.13321 0.14492 0.96883 0.0
C148 C 0.0323 0.15162 0.93952 0.0
C149 C 0.96081 0.10969 0.93166 0.0
C150 C 0.99073 0.06123 0.95375 0.0
C151 C 0.08829 0.05363 0.98302 0.0
C152 C 0.09607 0.99875 0.00559 0.0
C153 C 0.17932 0.96488 0.99039 0.0
C154 C 0.11794 1.00306 0.05934 0.0
C155 C 0.98713 0.97735 0.98502 0.0
C156 C 0.92877 1.01398 0.95459 0.0
C157 C 0.82476 1.00502 0.93263 0.0
C158 C 0.77786 0.9581 0.94297 0.0
C159 C 0.83438 0.92062 0.97518 0.0
C160 C 0.94125 0.92977 0.99569 0.0
H161 H 0.94755 0.15244 0.51371 0.0
H162 H 0.64319 0.0776 0.48438 0.0
H163 H 0.72565 0.99013 0.47938 0.0
H164 H 0.05521 0.07033 0.43479 0.0
H165 H 0.18368 0.06859 0.47321 0.0
H166 H 0.10001 0.12506 0.47382 0.0
H167 H 0.11964 0.11256 0.5632 0.0
H168 H 0.20287 0.05588 0.56289 0.0
H169 H 0.08735 0.04941 0.58528 0.0
H170 H 0.84282 0.91015 0.48024 0.0
H171 H 0.98457 0.84481 0.48296 0.0
H172 H 0.21165 0.97235 0.51011 0.0
C173 C 0.89823 0.1177 0.50586 0.0
C174 C 0.78897 0.12172 0.49942 0.0
C175 C 0.72707 0.07536 0.48942 0.0
C176 C 0.77323 1.02552 0.48658 0.0
C177 C 0.88137 1.02279 0.49355 0.0
C178 C 0.94299 0.06773 0.50261 0.0
C179 C 0.05724 0.05409 0.50856 0.0
C180 C 0.10163 0.08111 0.47031 0.0
C181 C 0.12046 0.06886 0.55792 0.0
C182 C 0.05052 0.99435 0.502 0.0
C183 C 0.94841 0.97702 0.49342 0.0
C184 C 0.92298 0.92333 0.48673 0.0
C185 C 0.00393 0.88649 0.48846 0.0
C186 C 0.10887 0.90355 0.49664 0.0
C187 C 0.13208 0.95817 0.50369 0.0
H188 H 0.46971 0.20684 0.35081 0.0
H189 H 0.67434 0.34366 0.36823 0.0
H190 H 0.65094 0.35038 0.28253 0.0
H191 H 0.55062 0.14761 0.25919 0.0
H192 H 0.42423 0.1268 0.22588 0.0
H193 H 0.44731 0.13461 0.2885 0.0
H194 H 0.29326 0.20118 0.27885 0.0
H195 H 0.26713 0.19152 0.21639 0.0
H196 H 0.28778 0.25756 0.24031 0.0
H197 H 0.62264 0.33632 0.19698 0.0
H198 H 0.5549 0.31639 0.11307 0.0
H199 H 0.36105 0.19169 0.14979 0.0
C200 C 0.50512 0.23959 0.3362 0.0
C201 C 0.57199 0.27545 0.36548 0.0
C202 C 0.6208 0.31675 0.34578 0.0
C203 C 0.60928 0.32039 0.29735 0.0
C204 C 0.54726 0.28285 0.26929 0.0
C205 C 0.49257 0.24452 0.2876 0.0
C206 C 0.43033 0.20957 0.24916 0.0
C207 C 0.46527 0.15119 0.25613 0.0
C208 C 0.3127 0.21535 0.246 0.0
C209 C 0.46051 0.2337 0.20683 0.0
C210 C 0.52949 0.27528 0.21941 0.0
C211 C 0.56854 0.30386 0.18652 0.0
C212 C 0.53096 0.29173 0.13902 0.0
C213 C 0.45373 0.25227 0.12526 0.0
C214 C 0.42128 0.22157 0.15963 0.0
H215 H 0.47029 0.76468 0.14774 0.0
H216 H 0.60711 0.9218 0.15109 0.0
H217 H 0.59656 0.93212 0.23342 0.0
H218 H 0.29015 0.79898 0.22363 0.0
H219 H 0.30424 0.73474 0.25169 0.0
H220 H 0.31586 0.74118 0.19194 0.0
H221 H 0.49904 0.69682 0.2146 0.0
H222 H 0.48613 0.69038 0.27415 0.0
H223 H 0.59699 0.72433 0.26205 0.0
H224 H 0.58248 0.92341 0.31693 0.0
H225 H 0.54803 0.89944 0.39386 0.0
H226 H 0.42061 0.74828 0.33673 0.0
C227 C 0.49549 0.80173 0.1655 0.0
C228 C 0.53899 0.84258 0.14295 0.0
C229 C 0.57271 0.89017 0.16754 0.0
C230 C 0.56767 0.8963 0.21444 0.0
C231 C 0.52772 0.85468 0.23622 0.0
C232 C 0.49027 0.80869 0.21239 0.0
C233 C 0.45152 0.77002 0.24428 0.0
C234 C 0.33348 0.76071 0.22685 0.0
C235 C 0.51208 0.71728 0.24901 0.0
C236 C 0.47617 0.80084 0.28993 0.0
C237 C 0.51967 0.84966 0.28447 0.0
C238 C 0.54814 0.88534 0.32162 0.0
C239 C 0.52901 0.87131 0.36523 0.0
C240 C 0.48268 0.82193 0.37129 0.0
C241 C 0.45749 0.78605 0.33328 0.0
H242 H 0.48856 0.84616 0.86455 0.0
H243 H 0.61345 0.68613 0.87685 0.0
H244 H 0.58609 0.68092 0.791 0.0
H245 H 0.28622 0.81857 0.74987 0.0
H246 H 0.29999 0.8852 0.72944 0.0
H247 H 0.31656 0.87249 0.79123 0.0
H248 H 0.4984 0.91731 0.80572 0.0
H249 H 0.48504 0.92724 0.74377 0.0
H250 H 0.59511 0.89081 0.77753 0.0
H251 H 0.58218 0.70016 0.70767 0.0
H252 H 0.53637 0.7286 0.62476 0.0
H253 H 0.396 0.87216 0.6638 0.0
C254 C 0.50364 0.80898 0.8488 0.0
C255 C 0.55183 0.76626 0.87684 0.0
C256 C 0.57461 0.71877 0.8555 0.0
C257 C 0.56123 0.71583 0.80693 0.0
C258 C 0.52211 0.76024 0.78035 0.0
C259 C 0.48805 0.80481 0.79998 0.0
C260 C 0.4478 0.84662 0.76284 0.0
C261 C 0.33069 0.85628 0.75804 0.0
C262 C 0.51035 0.89855 0.77312 0.0
C263 C 0.46818 0.81917 0.71992 0.0
C264 C 0.51369 0.76999 0.73119 0.0
C265 C 0.54446 0.73811 0.69807 0.0
C266 C 0.52035 0.75511 0.6513 0.0
C267 C 0.46403 0.80274 0.63835 0.0
C268 C 0.44081 0.83602 0.6732 0.0
H269 H 0.46462 0.2229 0.64104 0.0
H270 H 0.557 0.38706 0.63026 0.0
H271 H 0.54581 0.40265 0.71193 0.0
H272 H 0.27919 0.25178 0.71603 0.0
H273 H 0.3107 0.19086 0.74873 0.0
H274 H 0.31863 0.194 0.68828 0.0
H275 H 0.51117 0.16217 0.71265 0.0
H276 H 0.50333 0.15967 0.77309 0.0
H277 H 0.60301 0.19885 0.75643 0.0
H278 H 0.53913 0.39866 0.79673 0.0
H279 H 0.51314 0.37839 0.87581 0.0
H280 H 0.42301 0.2174 0.83149 0.0
C281 C 0.47965 0.26245 0.65551 0.0
C282 C 0.51141 0.30382 0.62933 0.0
C283 C 0.53191 0.35487 0.64963 0.0
C284 C 0.52652 0.36405 0.69612 0.0
C285 C 0.49928 0.32192 0.72169 0.0
C286 C 0.47375 0.27245 0.70186 0.0
C287 C 0.44669 0.23409 0.73716 0.0
C288 C 0.332 0.21668 0.72162 0.0
C289 C 0.52048 0.18586 0.74528 0.0
C290 C 0.46434 0.26924 0.7802 0.0
C291 C 0.49452 0.31977 0.77051 0.0
C292 C 0.515 0.3593 0.8047 0.0
C293 C 0.50096 0.34733 0.84959 0.0
C294 C 0.46699 0.29629 0.85981 0.0
C295 C 0.45028 0.2566 0.82482 0.0
H296 H 0.86271 0.81457 0.17491 0.0
H297 H 0.05149 0.69526 0.12718 0.0
H298 H 0.11245 0.66277 0.20903 0.0
H299 H 0.04499 0.84343 0.285 0.0
H300 H 0.94198 0.85386 0.315 0.0
H301 H 0.91924 0.86717 0.25315 0.0
H302 H 0.76028 0.80359 0.23913 0.0
H303 H 0.78543 0.78812 0.30077 0.0
H304 H 0.77917 0.73553 0.25856 0.0
H305 H 0.14586 0.64175 0.2951 0.0
H306 H 0.18271 0.64661 0.38145 0.0
H307 H 0.96868 0.7788 0.37188 0.0
C308 C 0.91823 0.78207 0.18177 0.0
C309 C 0.95248 0.75716 0.14497 0.0
C310 C 0.02538 0.71509 0.15512 0.0
C311 C 0.05879 0.69591 0.20126 0.0
C312 C 0.01842 0.7195 0.23631 0.0
C313 C 0.95202 0.76262 0.22724 0.0
C314 C 0.92279 0.78243 0.27111 0.0
C315 C 0.95952 0.84011 0.2817 0.0
C316 C 0.80491 0.77711 0.26714 0.0
C317 C 0.98401 0.74388 0.30677 0.0
C318 C 0.03702 0.70727 0.28577 0.0
C319 C 0.10404 0.66978 0.31184 0.0
C320 C 0.12315 0.67224 0.36078 0.0
C321 C 0.07606 0.7121 0.38288 0.0
C322 C 0.00182 0.74658 0.35565 0.0
H323 H 0.96521 0.33589 0.34394 0.0
H324 H 0.02931 0.17037 0.3814 0.0
H325 H 0.0478 0.15197 0.30071 0.0
H326 H 0.80993 0.31248 0.2311 0.0
H327 H 0.85534 0.36913 0.20383 0.0
H328 H 0.85587 0.37075 0.26529 0.0
H329 H 0.05392 0.39143 0.28704 0.0
H330 H 0.05379 0.39181 0.22563 0.0
H331 H 0.1423 0.34887 0.26551 0.0
H332 H 0.04692 0.15114 0.21387 0.0
H333 H 0.04976 0.16978 0.13137 0.0
H334 H 0.98518 0.33603 0.1513 0.0
C335 C 0.98565 0.296 0.33554 0.0
C336 C -0.00315 0.25459 0.36902 0.0
C337 C 0.02166 0.20275 0.35642 0.0
C338 C 0.03138 0.19191 0.31058 0.0
C339 C 0.01594 0.23335 0.27789 0.0
C340 C 0.99525 0.28453 0.29008 0.0
C341 C 0.97976 0.32185 0.24838 0.0
C342 C 0.86864 0.34494 0.23646 0.0
C343 C 0.06239 0.36609 0.25717 0.0
C344 C 0.99569 0.28388 0.21071 0.0
C345 C 0.01529 0.23287 0.22826 0.0
C346 C 0.03192 0.19096 0.19988 0.0
C347 C 0.03248 0.20187 0.15293 0.0
C348 C 0.01699 0.25429 0.13483 0.0
C349 C 0.99623 0.29549 0.16398 0.0
H350 H 0.87592 0.22712 0.66489 0.0
H351 H 0.04016 0.35836 0.61903 0.0
H352 H 0.0867 0.39269 0.70054 0.0
H353 H 0.76469 0.29912 0.74269 0.0
H354 H 0.77808 0.2476 0.78649 0.0
H355 H 0.76499 0.23035 0.72577 0.0
H356 H 0.9383 0.17686 0.74612 0.0
H357 H 0.94857 0.19136 0.80707 0.0
H358 H 0.05434 0.20802 0.78031 0.0
H359 H 0.10027 0.41621 0.78496 0.0
H360 H 0.12577 0.41417 0.87094 0.0
H361 H 0.95143 0.2672 0.86116 0.0
C362 C 0.9253 0.26192 0.67252 0.0
C363 C 0.95647 0.2898 0.63632 0.0
C364 C 0.01843 0.33587 0.64682 0.0
C365 C 0.04294 0.35615 0.69267 0.0
C366 C 0.00464 0.32959 0.72701 0.0
C367 C 0.95015 0.28252 0.7178 0.0
C368 C 0.91895 0.26115 0.76082 0.0
C369 C 0.79962 0.25947 0.75347 0.0
C370 C 0.96802 0.20612 0.7744 0.0
C371 C 0.96604 0.30314 0.79621 0.0
C372 C 0.01252 0.34302 0.77561 0.0
C373 C 0.06438 0.38522 0.80144 0.0
C374 C 0.07688 0.38422 0.85013 0.0
C375 C 0.03954 0.34079 0.87233 0.0
C376 C 0.97791 0.30156 0.8449 0.0
H377 H 0.99379 0.7984 0.65549 0.0
H378 H 0.15275 0.64625 0.66579 0.0
H379 H 0.14913 0.63988 0.74918 0.0
H380 H 0.11508 0.84845 0.7685 0.0
H381 H -0.00169 0.87801 0.77883 0.0
H382 H 0.01302 0.87007 0.71968 0.0
H383 H 0.83825 0.81741 0.69942 0.0
H384 H 0.82544 0.82532 0.75885 0.0
H385 H 0.82319 0.75984 0.73393 0.0
H386 H 0.1392 0.65212 0.83261 0.0
H387 H 0.09886 0.67603 0.90819 0.0
H388 H 0.94071 0.81841 0.84423 0.0
C389 C 0.02599 0.76337 0.67517 0.0
C390 C 0.07357 0.72281 0.65413 0.0
C391 C 0.1154 0.67768 0.68104 0.0
C392 C 0.1145 0.67385 0.7286 0.0
C393 C 0.07002 0.71511 0.74873 0.0
C394 C 0.02416 0.75842 0.72274 0.0
C395 C 0.97857 0.79627 0.75293 0.0
C396 C 0.0293 0.85147 0.75506 0.0
C397 C 0.85932 0.7999 0.73524 0.0
C398 C 0.00882 0.76813 0.80004 0.0
C399 C 0.06186 0.72149 0.79683 0.0
C400 C 0.09733 0.68845 0.83557 0.0
C401 C 0.07489 0.70254 0.87845 0.0
C402 C 0.01747 0.74917 0.88216 0.0
C403 C 0.9859 0.78281 0.84259 0.0
loop_
_geom_bond_atom_site_label_1
_geom_bond_atom_site_label_2
_geom_bond_distance
_geom_bond_site_symmetry_2
_ccdc_geom_bond_type
Dy0 O4 2.398 . S
Dy0 O5 2.491 . S
Dy0 O6 2.403 . S
Dy0 O7 2.664 1_554 S
Dy0 O11 2.326 . S
Dy0 O15 2.310 . S
Dy0 O16 2.351 1_554 S
C1 O12 1.185 . S
C1 O13 1.355 . S
C2 O4 1.185 . S
C2 O5 1.355 . S
Dy3 O7 2.310 . S
Dy3 O10 2.351 1_556 S
Dy3 O12 2.398 . S
Dy3 O13 2.491 . S
Dy3 O14 2.403 . S
Dy3 O15 2.664 1_556 S
Dy3 O17 2.326 . S
O4 Dy0 2.398 . S
O4 C2 1.185 . S
O5 Dy0 2.491 . S
O5 C2 1.355 . S
O6 Dy0 2.403 . S
O6 C8 1.254 . S
O7 Dy0 2.664 1_556 S
O7 Dy3 2.310 . S
O7 C8 1.268 1_556 S
C8 O6 1.254 . S
C8 O7 1.268 1_554 S
C9 O14 1.254 . S
C9 O15 1.268 1_556 S
O10 Dy3 2.351 1_554 S
O10 C18 1.249 . S
O11 Dy0 2.326 . S
O11 C18 1.267 . S
O12 C1 1.185 . S
O12 Dy3 2.398 . S
O13 C1 1.355 . S
O13 Dy3 2.491 . S
O14 Dy3 2.403 . S
O14 C9 1.254 . S
O15 Dy0 2.310 . S
O15 Dy3 2.664 1_554 S
O15 C9 1.268 1_554 S
O16 Dy0 2.351 1_556 S
O16 C19 1.249 . S
O17 Dy3 2.326 . S
O17 C19 1.267 . S
C18 O10 1.249 . S
C18 O11 1.267 . S
C19 O16 1.249 . S
C19 O17 1.267 . S
Dy20 O24 2.398 . S
Dy20 O25 2.491 . S
Dy20 O26 2.403 . S
Dy20 O27 2.664 1_554 S
Dy20 O31 2.326 . S
Dy20 O35 2.310 . S
Dy20 O36 2.351 1_554 S
C21 O32 1.185 . S
C21 O33 1.355 . S
C22 O24 1.185 . S
C22 O25 1.355 . S
Dy23 O27 2.310 . S
Dy23 O30 2.351 1_556 S
Dy23 O32 2.398 . S
Dy23 O33 2.491 . S
Dy23 O34 2.403 . S
Dy23 O35 2.664 1_556 S
Dy23 O37 2.326 . S
O24 Dy20 2.398 . S
O24 C22 1.185 . S
O25 Dy20 2.491 . S
O25 C22 1.355 . S
O26 Dy20 2.403 . S
O26 C28 1.254 . S
O27 Dy20 2.664 1_556 S
O27 Dy23 2.310 . S
O27 C28 1.268 1_556 S
C28 O26 1.254 . S
C28 O27 1.268 1_554 S
C29 O34 1.254 . S
C29 O35 1.268 1_556 S
O30 Dy23 2.351 1_554 S
O30 C38 1.249 . S
O31 Dy20 2.326 . S
O31 C38 1.267 . S
O32 C21 1.185 . S
O32 Dy23 2.398 . S
O33 C21 1.355 . S
O33 Dy23 2.491 . S
O34 Dy23 2.403 . S
O34 C29 1.254 . S
O35 Dy20 2.310 . S
O35 Dy23 2.664 1_554 S
O35 C29 1.268 1_554 S
O36 Dy20 2.351 1_556 S
O36 C39 1.249 . S
O37 Dy23 2.326 . S
O37 C39 1.267 . S
C38 O30 1.249 . S
C38 O31 1.267 . S
C39 O36 1.249 . S
C39 O37 1.267 . S
Dy40 O44 2.398 . S
Dy40 O45 2.491 . S
Dy40 O46 2.403 . S
Dy40 O47 2.664 . S
Dy40 O51 2.326 . S
Dy40 O55 2.310 . S
Dy40 O56 2.351 . S
C41 O52 1.185 . S
C41 O53 1.355 . S
C42 O44 1.185 . S
C42 O45 1.355 . S
Dy43 O47 2.310 . S
Dy43 O50 2.351 . S
Dy43 O52 2.398 . S
Dy43 O53 2.491 . S
Dy43 O54 2.403 . S
Dy43 O55 2.664 . S
Dy43 O57 2.326 . S
O44 Dy40 2.398 . S
O44 C42 1.185 . S
O45 Dy40 2.491 . S
O45 C42 1.355 . S
O46 Dy40 2.403 . S
O46 C48 1.254 . S
O47 Dy40 2.664 . S
O47 Dy43 2.310 . S
O47 C48 1.268 . S
C48 O46 1.254 . S
C48 O47 1.268 . S
C49 O54 1.254 . S
C49 O55 1.268 . S
O50 Dy43 2.351 . S
O50 C58 1.249 . S
O51 Dy40 2.326 . S
O51 C58 1.267 . S
O52 C41 1.185 . S
O52 Dy43 2.398 . S
O53 C41 1.355 . S
O53 Dy43 2.491 . S
O54 Dy43 2.403 . S
O54 C49 1.254 . S
O55 Dy40 2.310 . S
O55 Dy43 2.664 . S
O55 C49 1.268 . S
O56 Dy40 2.351 . S
O56 C59 1.249 . S
O57 Dy43 2.326 . S
O57 C59 1.267 . S
C58 O50 1.249 . S
C58 O51 1.267 . S
C59 O56 1.249 . S
C59 O57 1.267 . S
Dy60 O64 2.398 . S
Dy60 O65 2.491 . S
Dy60 O66 2.403 . S
Dy60 O67 2.664 . S
Dy60 O71 2.326 . S
Dy60 O75 2.310 . S
Dy60 O76 2.351 . S
C61 O72 1.185 . S
C61 O73 1.355 . S
C62 O64 1.185 . S
C62 O65 1.355 . S
Dy63 O67 2.310 . S
Dy63 O70 2.351 . S
Dy63 O72 2.398 . S
Dy63 O73 2.491 . S
Dy63 O74 2.403 . S
Dy63 O75 2.664 . S
Dy63 O77 2.326 . S
O64 Dy60 2.398 . S
O64 C62 1.185 . S
O65 Dy60 2.491 . S
O65 C62 1.355 . S
O66 Dy60 2.403 . S
O66 C68 1.254 . S
O67 Dy60 2.664 . S
O67 Dy63 2.310 . S
O67 C68 1.268 . S
C68 O66 1.254 . S
C68 O67 1.268 . S
C69 O74 1.254 . S
C69 O75 1.268 . S
O70 Dy63 2.351 . S
O70 C78 1.249 . S
O71 Dy60 2.326 . S
O71 C78 1.267 . S
O72 C61 1.185 . S
O72 Dy63 2.398 . S
O73 C61 1.355 . S
O73 Dy63 2.491 . S
O74 Dy63 2.403 . S
O74 C69 1.254 . S
O75 Dy60 2.310 . S
O75 Dy63 2.664 . S
O75 C69 1.268 . S
O76 Dy60 2.351 . S
O76 C79 1.249 . S
O77 Dy63 2.326 . S
O77 C79 1.267 . S
C78 O70 1.249 . S
C78 O71 1.267 . S
C79 O76 1.249 . S
C79 O77 1.267 . S
H80 C92 0.930 . S
H81 C94 0.930 . S
H82 C95 0.930 . S
H83 C99 0.959 . S
H84 C99 0.959 . S
H85 C99 0.961 . S
H86 C100 0.960 . S
H87 C100 0.961 . S
H88 C100 0.959 . S
H89 C103 0.929 . S
H90 C104 0.931 . S
H91 C106 0.930 . S
C92 H80 0.930 . S
C92 C93 1.399 1_556 S
C92 C97 1.399 . S
C93 C92 1.399 1_554 S
C93 C94 1.376 . S
C94 H81 0.930 . S
C94 C93 1.376 . S
C94 C95 1.388 . S
C95 H82 0.930 . S
C95 C94 1.388 . S
C95 C96 1.390 . S
C96 C95 1.390 . S
C96 C97 1.394 1_554 S
C96 C102 1.465 . S
C97 C92 1.399 . S
C97 C96 1.394 1_556 S
C97 C98 1.516 . S
C98 C97 1.516 . S
C98 C99 1.502 . S
C98 C100 1.561 . S
C98 C101 1.526 . S
C99 H83 0.959 . S
C99 H84 0.959 . S
C99 H85 0.961 . S
C99 C98 1.502 . S
C100 H86 0.960 . S
C100 H87 0.961 . S
C100 H88 0.959 . S
C100 C98 1.561 . S
C101 C98 1.526 . S
C101 C102 1.396 1_556 S
C101 C106 1.390 . S
C102 C96 1.465 . S
C102 C101 1.396 1_554 S
C102 C103 1.399 . S
C103 H89 0.929 . S
C103 C102 1.399 . S
C103 C104 1.385 . S
C104 H90 0.931 . S
C104 C103 1.385 . S
C104 C105 1.389 . S
C105 C104 1.389 . S
C105 C106 1.387 1_554 S
C106 H91 0.930 . S
C106 C101 1.390 . S
C106 C105 1.387 1_556 S
H107 C119 0.930 . S
H108 C121 0.930 . S
H109 C122 0.930 . S
H110 C126 0.959 . S
H111 C126 0.959 . S
H112 C126 0.961 . S
H113 C127 0.960 . S
H114 C127 0.961 . S
H115 C127 0.959 . S
H116 C130 0.929 . S
H117 C131 0.931 . S
H118 C133 0.930 . S
C119 H107 0.930 . S
C119 C120 1.399 . S
C119 C124 1.399 . S
C120 C119 1.399 . S
C120 C121 1.376 . S
C121 H108 0.930 . S
C121 C120 1.376 . S
C121 C122 1.388 . S
C122 H109 0.930 . S
C122 C121 1.388 . S
C122 C123 1.390 . S
C123 C122 1.390 . S
C123 C124 1.394 . S
C123 C129 1.465 . S
C124 C119 1.399 . S
C124 C123 1.394 . S
C124 C125 1.516 . S
C125 C124 1.516 . S
C125 C126 1.502 . S
C125 C127 1.561 . S
C125 C128 1.526 . S
C126 H110 0.959 . S
C126 H111 0.959 . S
C126 H112 0.961 . S
C126 C125 1.502 . S
C127 H113 0.960 . S
C127 H114 0.961 . S
C127 H115 0.959 . S
C127 C125 1.561 . S
C128 C125 1.526 . S
C128 C129 1.396 . S
C128 C133 1.390 . S
C129 C123 1.465 . S
C129 C128 1.396 . S
C129 C130 1.399 . S
C130 H116 0.929 . S
C130 C129 1.399 . S
C130 C131 1.385 . S
C131 H117 0.931 . S
C131 C130 1.385 . S
C131 C132 1.389 . S
C132 C131 1.389 . S
C132 C133 1.387 . S
C133 H118 0.930 . S
C133 C128 1.390 . S
C133 C132 1.387 . S
H134 C146 0.930 . S
H135 C148 0.930 . S
H136 C149 0.930 . S
H137 C153 0.959 . S
H138 C153 0.959 . S
H139 C153 0.961 . S
H140 C154 0.960 1_455 S
H141 C154 0.961 1_565 S
H142 C154 0.959 . S
H143 C157 0.929 . S
H144 C158 0.931 . S
H145 C160 0.930 . S
C146 H134 0.930 . S
C146 C147 1.399 1_554 S
C146 C151 1.399 . S
C147 C146 1.399 1_556 S
C147 C148 1.376 . S
C148 H135 0.930 . S
C148 C147 1.376 . S
C148 C149 1.388 1_455 S
C149 H136 0.930 . S
C149 C148 1.388 1_655 S
C149 C150 1.390 . S
C150 C149 1.390 . S
C150 C151 1.394 1_656 S
C150 C156 1.465 1_545 S
C151 C146 1.399 . S
C151 C150 1.394 1_454 S
C151 C152 1.516 1_545 S
C152 C151 1.516 1_565 S
C152 C153 1.502 . S
C152 C154 1.561 1_465 S
C152 C155 1.526 1_455 S
C153 H137 0.959 . S
C153 H138 0.959 . S
C153 H139 0.961 . S
C153 C152 1.502 . S
C154 H140 0.960 1_655 S
C154 H141 0.961 1_545 S
C154 H142 0.959 . S
C154 C152 1.561 1_645 S
C155 C152 1.526 1_655 S
C155 C156 1.396 1_554 S
C155 C160 1.390 . S
C156 C150 1.465 1_565 S
C156 C155 1.396 1_556 S
C156 C157 1.399 . S
C157 H143 0.929 . S
C157 C156 1.399 . S
C157 C158 1.385 . S
C158 H144 0.931 . S
C158 C157 1.385 . S
C158 C159 1.389 . S
C159 C158 1.389 . S
C159 C160 1.387 1_556 S
C160 H145 0.930 . S
C160 C155 1.390 . S
C160 C159 1.387 1_554 S
H161 C173 0.930 . S
H162 C175 0.930 . S
H163 C176 0.930 . S
H164 C180 0.959 1_655 S
H165 C180 0.959 . S
H166 C180 0.961 . S
H167 C181 0.960 . S
H168 C181 0.961 . S
H169 C181 0.959 . S
H170 C184 0.929 1_655 S
H171 C185 0.931 . S
H172 C187 0.930 . S
C173 H161 0.930 . S
C173 C174 1.399 . S
C173 C178 1.399 . S
C174 C173 1.399 . S
C174 C175 1.376 . S
C175 H162 0.930 . S
C175 C174 1.376 . S
C175 C176 1.388 . S
C176 H163 0.930 . S
C176 C175 1.388 . S
C176 C177 1.390 . S
C177 C176 1.390 . S
C177 C178 1.394 . S
C177 C183 1.465 1_645 S
C178 C173 1.399 . S
C178 C177 1.394 . S
C178 C179 1.516 1_655 S
C179 C178 1.516 1_455 S
C179 C180 1.502 . S
C179 C181 1.561 . S
C179 C182 1.526 1_545 S
C180 H164 0.959 1_455 S
C180 H165 0.959 . S
C180 H166 0.961 . S
C180 C179 1.502 . S
C181 H167 0.960 . S
C181 H168 0.961 . S
C181 H169 0.959 . S
C181 C179 1.561 . S
C182 C179 1.526 1_565 S
C182 C183 1.396 . S
C182 C187 1.390 . S
C183 C177 1.465 1_465 S
C183 C182 1.396 . S
C183 C184 1.399 . S
C184 H170 0.929 1_455 S
C184 C183 1.399 . S
C184 C185 1.385 . S
C185 H171 0.931 . S
C185 C184 1.385 . S
C185 C186 1.389 . S
C186 C185 1.389 . S
C186 C187 1.387 . S
C187 H172 0.930 . S
C187 C182 1.390 . S
C187 C186 1.387 . S
H188 C200 0.930 . S
H189 C202 0.930 . S
H190 C203 0.930 . S
H191 C207 0.959 . S
H192 C207 0.959 . S
H193 C207 0.961 . S
H194 C208 0.960 . S
H195 C208 0.961 . S
H196 C208 0.959 . S
H197 C211 0.929 . S
H198 C212 0.931 . S
H199 C214 0.930 . S
C200 H188 0.930 . S
C200 C201 1.399 . S
C200 C205 1.399 . S
C201 C200 1.399 . S
C201 C202 1.376 . S
C202 H189 0.930 . S
C202 C201 1.376 . S
C202 C203 1.388 . S
C203 H190 0.930 . S
C203 C202 1.388 . S
C203 C204 1.390 . S
C204 C203 1.390 . S
C204 C205 1.394 . S
C204 C210 1.465 . S
C205 C200 1.399 . S
C205 C204 1.394 . S
C205 C206 1.516 . S
C206 C205 1.516 . S
C206 C207 1.502 . S
C206 C208 1.561 . S
C206 C209 1.526 . S
C207 H191 0.959 . S
C207 H192 0.959 . S
C207 H193 0.961 . S
C207 C206 1.502 . S
C208 H194 0.960 . S
C208 H195 0.961 . S
C208 H196 0.959 . S
C208 C206 1.561 . S
C209 C206 1.526 . S
C209 C210 1.396 . S
C209 C214 1.390 . S
C210 C204 1.465 . S
C210 C209 1.396 . S
C210 C211 1.399 . S
C211 H197 0.929 . S
C211 C210 1.399 . S
C211 C212 1.385 . S
C212 H198 0.931 . S
C212 C211 1.385 . S
C212 C213 1.389 . S
C213 C212 1.389 . S
C213 C214 1.387 . S
C214 H199 0.930 . S
C214 C209 1.390 . S
C214 C213 1.387 . S
H215 C227 0.930 . S
H216 C229 0.930 . S
H217 C230 0.930 . S
H218 C234 0.959 . S
H219 C234 0.959 . S
H220 C234 0.961 . S
H221 C235 0.960 . S
H222 C235 0.961 . S
H223 C235 0.959 . S
H224 C238 0.929 . S
H225 C239 0.931 . S
H226 C241 0.930 . S
C227 H215 0.930 . S
C227 C228 1.399 . S
C227 C232 1.399 . S
C228 C227 1.399 . S
C228 C229 1.376 . S
C229 H216 0.930 . S
C229 C228 1.376 . S
C229 C230 1.388 . S
C230 H217 0.930 . S
C230 C229 1.388 . S
C230 C231 1.390 . S
C231 C230 1.390 . S
C231 C232 1.394 . S
C231 C237 1.465 . S
C232 C227 1.399 . S
C232 C231 1.394 . S
C232 C233 1.516 . S
C233 C232 1.516 . S
C233 C234 1.502 . S
C233 C235 1.561 . S
C233 C236 1.526 . S
C234 H218 0.959 . S
C234 H219 0.959 . S
C234 H220 0.961 . S
C234 C233 1.502 . S
C235 H221 0.960 . S
C235 H222 0.961 . S
C235 H223 0.959 . S
C235 C233 1.561 . S
C236 C233 1.526 . S
C236 C237 1.396 . S
C236 C241 1.390 . S
C237 C231 1.465 . S
C237 C236 1.396 . S
C237 C238 1.399 . S
C238 H224 0.929 . S
C238 C237 1.399 . S
C238 C239 1.385 . S
C239 H225 0.931 . S
C239 C238 1.385 . S
C239 C240 1.389 . S
C240 C239 1.389 . S
C240 C241 1.387 . S
C241 H226 0.930 . S
C241 C236 1.390 . S
C241 C240 1.387 . S
H242 C254 0.930 . S
H243 C256 0.930 . S
H244 C257 0.930 . S
H245 C261 0.959 . S
H246 C261 0.959 . S
H247 C261 0.961 . S
H248 C262 0.960 . S
H249 C262 0.961 . S
H250 C262 0.959 . S
H251 C265 0.929 . S
H252 C266 0.931 . S
H253 C268 0.930 . S
C254 H242 0.930 . S
C254 C255 1.399 . S
C254 C259 1.399 . S
C255 C254 1.399 . S
C255 C256 1.376 . S
C256 H243 0.930 . S
C256 C255 1.376 . S
C256 C257 1.388 . S
C257 H244 0.930 . S
C257 C256 1.388 . S
C257 C258 1.390 . S
C258 C257 1.390 . S
C258 C259 1.394 . S
C258 C264 1.465 . S
C259 C254 1.399 . S
C259 C258 1.394 . S
C259 C260 1.516 . S
C260 C259 1.516 . S
C260 C261 1.502 . S
C260 C262 1.561 . S
C260 C263 1.526 . S
C261 H245 0.959 . S
C261 H246 0.959 . S
C261 H247 0.961 . S
C261 C260 1.502 . S
C262 H248 0.960 . S
C262 H249 0.961 . S
C262 H250 0.959 . S
C262 C260 1.561 . S
C263 C260 1.526 . S
C263 C264 1.396 . S
C263 C268 1.390 . S
C264 C258 1.465 . S
C264 C263 1.396 . S
C264 C265 1.399 . S
C265 H251 0.929 . S
C265 C264 1.399 . S
C265 C266 1.385 . S
C266 H252 0.931 . S
C266 C265 1.385 . S
C266 C267 1.389 . S
C267 C266 1.389 . S
C267 C268 1.387 . S
C268 H253 0.930 . S
C268 C263 1.390 . S
C268 C267 1.387 . S
H269 C281 0.930 . S
H270 C283 0.930 . S
H271 C284 0.930 . S
H272 C288 0.959 . S
H273 C288 0.959 . S
H274 C288 0.961 . S
H275 C289 0.960 . S
H276 C289 0.961 . S
H277 C289 0.959 . S
H278 C292 0.929 . S
H279 C293 0.931 . S
H280 C295 0.930 . S
C281 H269 0.930 . S
C281 C282 1.399 . S
C281 C286 1.399 . S
C282 C281 1.399 . S
C282 C283 1.376 . S
C283 H270 0.930 . S
C283 C282 1.376 . S
C283 C284 1.388 . S
C284 H271 0.930 . S
C284 C283 1.388 . S
C284 C285 1.390 . S
C285 C284 1.390 . S
C285 C286 1.394 . S
C285 C291 1.465 . S
C286 C281 1.399 . S
C286 C285 1.394 . S
C286 C287 1.516 . S
C287 C286 1.516 . S
C287 C288 1.502 . S
C287 C289 1.561 . S
C287 C290 1.526 . S
C288 H272 0.959 . S
C288 H273 0.959 . S
C288 H274 0.961 . S
C288 C287 1.502 . S
C289 H275 0.960 . S
C289 H276 0.961 . S
C289 H277 0.959 . S
C289 C287 1.561 . S
C290 C287 1.526 . S
C290 C291 1.396 . S
C290 C295 1.390 . S
C291 C285 1.465 . S
C291 C290 1.396 . S
C291 C292 1.399 . S
C292 H278 0.929 . S
C292 C291 1.399 . S
C292 C293 1.385 . S
C293 H279 0.931 . S
C293 C292 1.385 . S
C293 C294 1.389 . S
C294 C293 1.389 . S
C294 C295 1.387 . S
C295 H280 0.930 . S
C295 C290 1.390 . S
C295 C294 1.387 . S
H296 C308 0.930 . S
H297 C310 0.930 . S
H298 C311 0.930 . S
H299 C315 0.959 . S
H300 C315 0.959 . S
H301 C315 0.961 . S
H302 C316 0.960 . S
H303 C316 0.961 1_455 S
H304 C316 0.959 . S
H305 C319 0.929 . S
H306 C320 0.931 . S
H307 C322 0.930 . S
C308 H296 0.930 . S
C308 C309 1.399 . S
C308 C313 1.399 . S
C309 C308 1.399 . S
C309 C310 1.376 . S
C310 H297 0.930 . S
C310 C309 1.376 . S
C310 C311 1.388 . S
C311 H298 0.930 . S
C311 C310 1.388 . S
C311 C312 1.390 . S
C312 C311 1.390 . S
C312 C313 1.394 . S
C312 C318 1.465 . S
C313 C308 1.399 . S
C313 C312 1.394 . S
C313 C314 1.516 1_655 S
C314 C313 1.516 1_455 S
C314 C315 1.502 . S
C314 C316 1.561 1_455 S
C314 C317 1.526 . S
C315 H299 0.959 . S
C315 H300 0.959 . S
C315 H301 0.961 . S
C315 C314 1.502 . S
C316 H302 0.960 . S
C316 H303 0.961 1_655 S
C316 H304 0.959 . S
C316 C314 1.561 1_655 S
C317 C314 1.526 . S
C317 C318 1.396 1_455 S
C317 C322 1.390 . S
C318 C312 1.465 . S
C318 C317 1.396 1_655 S
C318 C319 1.399 . S
C319 H305 0.929 . S
C319 C318 1.399 . S
C319 C320 1.385 1_655 S
C320 H306 0.931 . S
C320 C319 1.385 1_455 S
C320 C321 1.389 . S
C321 C320 1.389 . S
C321 C322 1.387 . S
C322 H307 0.930 . S
C322 C317 1.390 . S
C322 C321 1.387 . S
H323 C335 0.930 . S
H324 C337 0.930 1_455 S
H325 C338 0.930 . S
H326 C342 0.959 . S
H327 C342 0.959 . S
H328 C342 0.961 . S
H329 C343 0.960 . S
H330 C343 0.961 . S
H331 C343 0.959 . S
H332 C346 0.929 . S
H333 C347 0.931 . S
H334 C349 0.930 . S
C335 H323 0.930 . S
C335 C336 1.399 . S
C335 C340 1.399 . S
C336 C335 1.399 . S
C336 C337 1.376 . S
C337 H324 0.930 1_655 S
C337 C336 1.376 . S
C337 C338 1.388 1_655 S
C338 H325 0.930 . S
C338 C337 1.388 1_455 S
C338 C339 1.390 . S
C339 C338 1.390 . S
C339 C340 1.394 1_455 S
C339 C345 1.465 . S
C340 C335 1.399 . S
C340 C339 1.394 1_655 S
C340 C341 1.516 . S
C341 C340 1.516 . S
C341 C342 1.502 . S
C341 C343 1.561 1_655 S
C341 C344 1.526 1_655 S
C342 H326 0.959 . S
C342 H327 0.959 . S
C342 H328 0.961 . S
C342 C341 1.502 . S
C343 H329 0.960 . S
C343 H330 0.961 . S
C343 H331 0.959 . S
C343 C341 1.561 1_455 S
C344 C341 1.526 1_455 S
C344 C345 1.396 . S
C344 C349 1.390 . S
C345 C339 1.465 . S
C345 C344 1.396 . S
C345 C346 1.399 . S
C346 H332 0.929 . S
C346 C345 1.399 . S
C346 C347 1.385 . S
C347 H333 0.931 . S
C347 C346 1.385 . S
C347 C348 1.389 . S
C348 C347 1.389 . S
C348 C349 1.387 . S
C349 H334 0.930 . S
C349 C344 1.390 . S
C349 C348 1.387 . S
H350 C362 0.930 . S
H351 C364 0.930 . S
H352 C365 0.930 1_455 S
H353 C369 0.959 . S
H354 C369 0.959 . S
H355 C369 0.961 . S
H356 C370 0.960 . S
H357 C370 0.961 . S
H358 C370 0.959 . S
H359 C373 0.929 . S
H360 C374 0.931 . S
H361 C376 0.930 . S
C362 H350 0.930 . S
C362 C363 1.399 . S
C362 C367 1.399 . S
C363 C362 1.399 . S
C363 C364 1.376 . S
C364 H351 0.930 . S
C364 C363 1.376 . S
C364 C365 1.388 . S
C365 H352 0.930 1_655 S
C365 C364 1.388 . S
C365 C366 1.389 . S
C366 C365 1.389 . S
C366 C367 1.395 . S
C366 C372 1.465 1_655 S
C367 C362 1.399 . S
C367 C366 1.395 . S
C367 C368 1.516 . S
C368 C367 1.516 . S
C368 C369 1.502 . S
C368 C370 1.561 1_655 S
C368 C371 1.526 1_655 S
C369 H353 0.959 . S
C369 H354 0.959 . S
C369 H355 0.961 . S
C369 C368 1.502 . S
C370 H356 0.960 . S
C370 H357 0.961 . S
C370 H358 0.959 . S
C370 C368 1.561 1_455 S
C371 C368 1.526 1_455 S
C371 C372 1.396 . S
C371 C376 1.390 . S
C372 C366 1.465 1_455 S
C372 C371 1.396 . S
C372 C373 1.399 . S
C373 H359 0.929 . S
C373 C372 1.399 . S
C373 C374 1.385 . S
C374 H360 0.931 . S
C374 C373 1.385 . S
C374 C375 1.389 . S
C375 C374 1.389 . S
C375 C376 1.387 . S
C376 H361 0.930 . S
C376 C371 1.390 . S
C376 C375 1.387 . S
H377 C389 0.930 1_655 S
H378 C391 0.930 . S
H379 C392 0.930 . S
H380 C396 0.959 1_455 S
H381 C396 0.959 . S
H382 C396 0.961 . S
H383 C397 0.960 . S
H384 C397 0.961 . S
H385 C397 0.959 . S
H386 C400 0.929 . S
H387 C401 0.931 1_455 S
H388 C403 0.930 . S
C389 H377 0.930 1_455 S
C389 C390 1.399 . S
C389 C394 1.399 1_455 S
C390 C389 1.399 . S
C390 C391 1.376 . S
C391 H378 0.930 . S
C391 C390 1.376 . S
C391 C392 1.388 . S
C392 H379 0.930 . S
C392 C391 1.388 . S
C392 C393 1.390 . S
C393 C392 1.390 . S
C393 C394 1.394 1_455 S
C393 C399 1.465 . S
C394 C389 1.399 1_655 S
C394 C393 1.394 1_655 S
C394 C395 1.516 . S
C395 C394 1.516 . S
C395 C396 1.502 . S
C395 C397 1.561 . S
C395 C398 1.526 . S
C396 H380 0.959 1_655 S
C396 H381 0.959 . S
C396 H382 0.961 . S
C396 C395 1.502 . S
C397 H383 0.960 . S
C397 H384 0.961 . S
C397 H385 0.959 . S
C397 C395 1.561 . S
C398 C395 1.526 . S
C398 C399 1.396 1_655 S
C398 C403 1.390 . S
C399 C393 1.465 . S
C399 C398 1.396 1_455 S
C399 C400 1.399 . S
C400 H386 0.929 . S
C400 C399 1.399 . S
C400 C401 1.385 1_455 S
C401 H387 0.931 1_655 S
C401 C400 1.385 1_655 S
C401 C402 1.389 . S
C402 C401 1.389 . S
C402 C403 1.387 . S
C403 H388 0.930 . S
C403 C398 1.390 . S
C403 C402 1.387 . S
C93 C29 1.517 1_554 S
C105 C8 1.512 . S
C120 C49 1.527 . S
C132 C68 1.515 . S
C147 C9 1.521 . S
C159 C28 1.520 1_556 S
C174 C69 1.502 . S
C186 C48 1.536 . S
C201 C78 1.214 . S
C213 C18 1.208 . S
C228 C22 1.185 . S
C240 C42 1.183 . S
C255 C39 1.209 . S
C267 C59 1.211 . S
C282 C61 1.184 . S
C294 C1 1.184 . S
C309 C38 1.249 . S
C321 C58 1.259 . S
C336 C62 1.182 . S
C348 C2 1.185 . S
C363 C79 1.259 . S
C375 C19 1.259 . S
C390 C41 1.184 . S
C402 C21 1.183 . S
