# Generated by pormake.
# Topology fob, (5)-cn, num edge types: 1
# Building blocks:
#     Node 0, Type 0, BuildingBlock: XOMCOT_clean_sbu_1, # of connection points: 5
#     Node 1, Type 0, BuildingBlock: XOMCOT_clean_sbu_1, # of connection points: 5
#     Node 2, Type 0, BuildingBlock: XOMCOT_clean_sbu_1, # of connection points: 5
#     Node 3, Type 0, BuildingBlock: XOMCOT_clean_sbu_1, # of connection points: 5
#     Node 4, Type 0, BuildingBlock: XOMCOT_clean_sbu_1, # of connection points: 5
#     Node 5, Type 0, BuildingBlock: XOMCOT_clean_sbu_1, # of connection points: 5
#     Node 6, Type 0, BuildingBlock: XOMCOT_clean_sbu_1, # of connection points: 5
#     Node 7, Type 0, BuildingBlock: XOMCOT_clean_sbu_1, # of connection points: 5
#     Node 8, Type 0, BuildingBlock: XOMCOT_clean_sbu_1, # of connection points: 5
#     Node 9, Type 0, BuildingBlock: XOMCOT_clean_sbu_1, # of connection points: 5
#     Node 10, Type 0, BuildingBlock: XOMCOT_clean_sbu_1, # of connection points: 5
#     Node 11, Type 0, BuildingBlock: XOMCOT_clean_sbu_1, # of connection points: 5
#     Node 12, Type 0, BuildingBlock: XOMCOT_clean_sbu_1, # of connection points: 5
#     Node 13, Type 0, BuildingBlock: XOMCOT_clean_sbu_1, # of connection points: 5
#     Node 14, Type 0, BuildingBlock: XOMCOT_clean_sbu_1, # of connection points: 5
#     Node 15, Type 0, BuildingBlock: XOMCOT_clean_sbu_1, # of connection points: 5
#     Edge 16, Type (0, 0), BuildingBlock: XUDNAN_clean_linker_2, # of connection points: 2
#     Edge 17, Type (0, 0), BuildingBlock: XUDNAN_clean_linker_2, # of connection points: 2
#     Edge 18, Type (0, 0), BuildingBlock: XUDNAN_clean_linker_2, # of connection points: 2
#     Edge 19, Type (0, 0), BuildingBlock: XUDNAN_clean_linker_2, # of connection points: 2
#     Edge 20, Type (0, 0), BuildingBlock: XUDNAN_clean_linker_2, # of connection points: 2
#     Edge 21, Type (0, 0), BuildingBlock: XUDNAN_clean_linker_2, # of connection points: 2
#     Edge 22, Type (0, 0), BuildingBlock: XUDNAN_clean_linker_2, # of connection points: 2
#     Edge 23, Type (0, 0), BuildingBlock: XUDNAN_clean_linker_2, # of connection points: 2
#     Edge 24, Type (0, 0), BuildingBlock: XUDNAN_clean_linker_2, # of connection points: 2
#     Edge 25, Type (0, 0), BuildingBlock: XUDNAN_clean_linker_2, # of connection points: 2
#     Edge 26, Type (0, 0), BuildingBlock: XUDNAN_clean_linker_2, # of connection points: 2
#     Edge 27, Type (0, 0), BuildingBlock: XUDNAN_clean_linker_2, # of connection points: 2
#     Edge 28, Type (0, 0), BuildingBlock: XUDNAN_clean_linker_2, # of connection points: 2
#     Edge 29, Type (0, 0), BuildingBlock: XUDNAN_clean_linker_2, # of connection points: 2
#     Edge 30, Type (0, 0), BuildingBlock: XUDNAN_clean_linker_2, # of connection points: 2
#     Edge 31, Type (0, 0), BuildingBlock: XUDNAN_clean_linker_2, # of connection points: 2
#     Edge 32, Type (0, 0), BuildingBlock: XUDNAN_clean_linker_2, # of connection points: 2
#     Edge 33, Type (0, 0), BuildingBlock: XUDNAN_clean_linker_2, # of connection points: 2
#     Edge 34, Type (0, 0), BuildingBlock: XUDNAN_clean_linker_2, # of connection points: 2
#     Edge 35, Type (0, 0), BuildingBlock: XUDNAN_clean_linker_2, # of connection points: 2
#     Edge 36, Type (0, 0), BuildingBlock: XUDNAN_clean_linker_2, # of connection points: 2
#     Edge 37, Type (0, 0), BuildingBlock: XUDNAN_clean_linker_2, # of connection points: 2
#     Edge 38, Type (0, 0), BuildingBlock: XUDNAN_clean_linker_2, # of connection points: 2
#     Edge 39, Type (0, 0), BuildingBlock: XUDNAN_clean_linker_2, # of connection points: 2
#     Edge 40, Type (0, 0), BuildingBlock: XUDNAN_clean_linker_2, # of connection points: 2
#     Edge 41, Type (0, 0), BuildingBlock: XUDNAN_clean_linker_2, # of connection points: 2
#     Edge 42, Type (0, 0), BuildingBlock: XUDNAN_clean_linker_2, # of connection points: 2
#     Edge 43, Type (0, 0), BuildingBlock: XUDNAN_clean_linker_2, # of connection points: 2
#     Edge 44, Type (0, 0), BuildingBlock: XUDNAN_clean_linker_2, # of connection points: 2
#     Edge 45, Type (0, 0), BuildingBlock: XUDNAN_clean_linker_2, # of connection points: 2
#     Edge 46, Type (0, 0), BuildingBlock: XUDNAN_clean_linker_2, # of connection points: 2
#     Edge 47, Type (0, 0), BuildingBlock: XUDNAN_clean_linker_2, # of connection points: 2
#     Edge 48, Type (0, 0), BuildingBlock: XUDNAN_clean_linker_2, # of connection points: 2
#     Edge 49, Type (0, 0), BuildingBlock: XUDNAN_clean_linker_2, # of connection points: 2
#     Edge 50, Type (0, 0), BuildingBlock: XUDNAN_clean_linker_2, # of connection points: 2
#     Edge 51, Type (0, 0), BuildingBlock: XUDNAN_clean_linker_2, # of connection points: 2
#     Edge 52, Type (0, 0), BuildingBlock: XUDNAN_clean_linker_2, # of connection points: 2
#     Edge 53, Type (0, 0), BuildingBlock: XUDNAN_clean_linker_2, # of connection points: 2
#     Edge 54, Type (0, 0), BuildingBlock: XUDNAN_clean_linker_2, # of connection points: 2
#     Edge 55, Type (0, 0), BuildingBlock: XUDNAN_clean_linker_2, # of connection points: 2
# Relax obj value: 0.099
# Max RMSD: 0.148
# Mean RMSD: 0.148
data_MOF--net-fob--node1-XOMCOT_clean_sbu_1--edge1-XUDNAN_clean_linker_2
_symmetry_space_group_name_H-M    P1
_symmetry_Int_Tables_number       1
_symmetry_cell_setting            triclinic
loop_
_symmetry_equiv_pos_as_xyz
'x, y, z'
_cell_length_a     25.182563
_cell_length_b     65.435813
_cell_length_c     51.173352
_cell_angle_alpha  100.29614
_cell_angle_beta   89.993304
_cell_angle_gamma 89.986471
loop_
_atom_site_label
_atom_site_type_symbol
_atom_site_fract_x
_atom_site_fract_y
_atom_site_fract_z
_atom_type_partial_charge
C0 C 0.05453 0.18643 0.47202 0.0
C1 C 0.06351 0.20741 0.47531 0.0
N2 N 0.11482 0.2111 0.48195 0.0
N3 N 0.09999 0.17663 0.47625 0.0
C4 C 0.13633 0.19212 0.48211 0.0
H5 H 0.01643 0.17896 0.46799 0.0
Co6 Co 0.10384 0.14811 0.47803 0.0
C7 C 0.19888 0.13344 0.44518 0.0
O8 O 0.17591 0.1158 0.43484 0.0
N9 N 0.10693 0.11938 0.48086 0.0
C10 C 0.13589 0.0897 0.49177 0.0
C11 C 0.14982 0.10945 0.48845 0.0
C12 C 0.06708 0.10536 0.48064 0.0
N13 N 0.08358 0.08714 0.48694 0.0
O14 O 0.13733 0.15432 0.51182 0.0
H15 H 0.1886 0.11641 0.49243 0.0
H16 H 0.02612 0.10852 0.47698 0.0
O17 O 0.17361 0.14692 0.46167 0.0
C18 C 0.11975 0.16687 0.53178 0.0
O19 O 0.07621 0.17752 0.52977 0.0
N20 N 0.0685 0.14205 0.44518 0.0
C21 C 0.0035 0.13449 0.40045 0.0
C22 C 0.05622 0.14087 0.39836 0.0
C23 C 0.08805 0.14483 0.42112 0.0
C24 C 0.01623 0.13745 0.44767 0.0
C25 C 0.9834 0.13307 0.42554 0.0
H26 H 0.12748 0.15085 0.41937 0.0
H27 H 0.99937 0.138 0.46719 0.0
H28 H 0.17672 0.18965 0.48808 0.0
H29 H 0.03394 0.21912 0.47368 0.0
H30 H 0.16176 0.07853 0.4986 0.0
H31 H 0.07244 0.14296 0.37941 0.0
H32 H 0.94204 0.12936 0.4282 0.0
C33 C 0.06139 0.10978 0.75572 0.0
C34 C 0.07349 0.08903 0.74956 0.0
N35 N 0.12666 0.087 0.74747 0.0
N36 N 0.1066 0.12095 0.75768 0.0
C37 C 0.14594 0.10664 0.75263 0.0
H38 H 0.02197 0.1164 0.75826 0.0
Co39 Co 0.10661 0.15004 0.76393 0.0
C40 C 0.19417 0.16073 0.80235 0.0
O41 O 0.16444 0.17473 0.81717 0.0
N42 N 0.1054 0.17956 0.76854 0.0
C43 C 0.13271 0.21165 0.76631 0.0
C44 C 0.14823 0.19214 0.76942 0.0
C45 C 0.06451 0.19182 0.76336 0.0
N46 N 0.07993 0.21149 0.76229 0.0
O47 O 0.14136 0.15018 0.73111 0.0
H48 H 0.18908 0.18722 0.76985 0.0
H49 H 0.02524 0.186 0.75776 0.0
O50 O 0.17604 0.1501 0.78086 0.0
C51 C 0.12302 0.14173 0.70867 0.0
O52 O 0.07916 0.13075 0.70737 0.0
N53 N 0.07076 0.14967 0.79645 0.0
C54 C 0.00664 0.14083 0.83758 0.0
C55 C 0.05908 0.13372 0.83492 0.0
C56 C 0.09024 0.1381 0.81411 0.0
C57 C 0.02003 0.15707 0.79916 0.0
C58 C 0.98758 0.15315 0.81987 0.0
H59 H 0.12861 0.1307 0.8111 0.0
H60 H 0.00272 0.16454 0.78414 0.0
H61 H 0.1876 0.11055 0.75185 0.0
H62 H 0.04516 0.07639 0.74673 0.0
H63 H 0.15895 0.22465 0.76571 0.0
H64 H 0.07499 0.12389 0.84797 0.0
H65 H 0.94667 0.15835 0.82074 0.0
C66 C 0.93835 0.85109 0.49544 0.0
C67 C 0.91612 0.83148 0.49209 0.0
N68 N 0.86343 0.8335 0.49648 0.0
N69 N 0.89989 0.86545 0.50192 0.0
C70 C 0.85475 0.85423 0.50197 0.0
H71 H 0.98011 0.85466 0.49421 0.0
Co72 Co 0.90769 0.89452 0.51168 0.0
C73 C 0.80105 0.90399 0.53523 0.0
O74 O 0.7898 0.91739 0.51974 0.0
N75 N 0.9149 0.92361 0.52156 0.0
C76 C 0.91244 0.95547 0.54565 0.0
C77 C 0.90355 0.93478 0.54575 0.0
C78 C 0.93196 0.93791 0.50722 0.0
N79 N 0.93052 0.95742 0.52149 0.0
O80 O 0.86576 0.89816 0.4821 0.0
H81 H 0.88945 0.92829 0.56249 0.0
H82 H 0.94408 0.93417 0.48663 0.0
O83 O 0.84602 0.89501 0.53369 0.0
C84 C 0.8939 0.89432 0.46121 0.0
O85 O 0.94397 0.88919 0.46347 0.0
N86 N 0.95147 0.89075 0.53978 0.0
C87 C 0.02428 0.88439 0.57831 0.0
C88 C 0.97302 0.87605 0.5781 0.0
C89 C 0.93701 0.87945 0.55861 0.0
C90 C 0.00139 0.89872 0.53948 0.0
C91 C 0.03828 0.89599 0.55886 0.0
H92 H 0.89817 0.87245 0.55818 0.0
H93 H 0.0128 0.90705 0.52391 0.0
H94 H 0.81608 0.86117 0.50639 0.0
H95 H 0.9375 0.81691 0.48797 0.0
H96 H 0.90612 0.96818 0.56205 0.0
H97 H 0.96111 0.86683 0.59271 0.0
H98 H 0.07792 0.90229 0.5581 0.0
C99 C 0.91376 0.94821 0.2285 0.0
C100 C 0.89152 0.96749 0.22839 0.0
N101 N 0.8384 0.96524 0.22607 0.0
N102 N 0.87492 0.93383 0.22618 0.0
C103 C 0.82954 0.94469 0.22486 0.0
H104 H 0.9555 0.94491 0.23053 0.0
Co105 Co 0.88189 0.90556 0.22766 0.0
C106 C 0.80491 0.88514 0.18785 0.0
O107 O 0.83966 0.87059 0.17879 0.0
N108 N 0.8875 0.87671 0.23025 0.0
C109 C 0.85945 0.84651 0.23967 0.0
C110 C 0.84469 0.86602 0.23634 0.0
C111 C 0.92842 0.86316 0.23066 0.0
N112 N 0.91226 0.84456 0.23607 0.0
O113 O 0.84165 0.90977 0.25945 0.0
H114 H 0.8049 0.87227 0.23903 0.0
H115 H 0.96947 0.86681 0.22773 0.0
O116 O 0.81734 0.8998 0.20683 0.0
C117 C 0.87485 0.91196 0.27839 0.0
O118 O 0.92565 0.91278 0.27272 0.0
N119 N 0.92556 0.90214 0.19751 0.0
C120 C 0.00118 0.89556 0.15722 0.0
C121 C 0.94901 0.90108 0.1518 0.0
C122 C 0.91178 0.9047 0.17246 0.0
C123 C 0.97734 0.89923 0.20349 0.0
C124 C 0.01556 0.89533 0.18359 0.0
H125 H 0.87215 0.9095 0.16824 0.0
H126 H 0.98892 0.89977 0.22394 0.0
H127 H 0.79047 0.93773 0.22393 0.0
H128 H 0.91289 0.98199 0.22983 0.0
H129 H 0.83326 0.83498 0.24542 0.0
H130 H 0.93692 0.90221 0.1318 0.0
H131 H 0.0561 0.89225 0.18882 0.0
C132 C 0.11784 0.67444 0.00548 0.0
C133 C 0.14243 0.69321 0.0063 0.0
N134 N 0.1711 0.69245 0.9839 0.0
N135 N 0.13113 0.66153 0.98286 0.0
C136 C 0.16361 0.67295 0.97001 0.0
H137 H 0.09077 0.67069 0.02029 0.0
Co138 Co 0.10219 0.63479 0.97354 0.0
C139 C 0.20588 0.6143 0.95889 0.0
O140 O 0.20667 0.60563 0.98012 0.0
N141 N 0.07058 0.608 0.96519 0.0
C142 C 0.00452 0.58521 0.95601 0.0
C143 C 0.02071 0.60511 0.9555 0.0
C144 C 0.08338 0.58942 0.97196 0.0
N145 N 0.04357 0.57531 0.96666 0.0
O146 O 0.12945 0.62843 0.00571 0.0
H147 H 0.99601 0.61707 0.94977 0.0
H148 H 0.11916 0.58676 0.98249 0.0
O149 O 0.16664 0.62554 0.95453 0.0
C150 C 0.09496 0.62973 0.02402 0.0
O151 O 0.0449 0.63213 0.01789 0.0
N152 N 0.07313 0.64202 0.94281 0.0
C153 C 0.00807 0.65008 0.90178 0.0
C154 C 0.04706 0.63445 0.89702 0.0
C155 C 0.07974 0.63079 0.91784 0.0
C156 C 0.03786 0.65802 0.9474 0.0
C157 C 0.00598 0.66264 0.92706 0.0
H158 H 0.10709 0.61784 0.91441 0.0
H159 H 0.03237 0.66661 0.96731 0.0
H160 H 0.17988 0.66726 0.9505 0.0
H161 H 0.13913 0.70637 0.02232 0.0
H162 H 0.96596 0.57879 0.94987 0.0
H163 H 0.0501 0.62423 0.87795 0.0
H164 H 0.978 0.67534 0.93159 0.0
C165 C 0.1571 0.61852 0.22701 0.0
C166 C 0.18474 0.60036 0.22574 0.0
N167 N 0.19823 0.59834 0.25055 0.0
N168 N 0.15367 0.62838 0.2525 0.0
C169 C 0.17874 0.61546 0.26655 0.0
H170 H 0.13915 0.62373 0.21023 0.0
Co171 Co 0.11652 0.65368 0.26259 0.0
C172 C 0.18807 0.68005 0.30247 0.0
O173 O 0.15672 0.6963 0.30573 0.0
N174 N 0.07683 0.67908 0.2712 0.0
C175 C 0.00482 0.69925 0.27729 0.0
C176 C 0.02509 0.67997 0.2784 0.0
C177 C 0.08629 0.69814 0.26498 0.0
N178 N 0.04316 0.71072 0.26867 0.0
O179 O 0.14902 0.66372 0.23359 0.0
H180 H 0.00197 0.66699 0.28248 0.0
H181 H 0.12316 0.70229 0.25639 0.0
O182 O 0.17542 0.66358 0.28628 0.0
C183 C 0.11491 0.66353 0.21517 0.0
O184 O 0.06567 0.65847 0.21972 0.0
N185 N 0.08189 0.64294 0.28965 0.0
C186 C 0.00153 0.63125 0.32134 0.0
C187 C 0.03603 0.64767 0.33138 0.0
C188 C 0.07672 0.65308 0.31528 0.0
C189 C 0.05226 0.62574 0.28059 0.0
C190 C 0.01316 0.61922 0.29642 0.0
H191 H 0.09939 0.66691 0.32242 0.0
H192 H 0.05613 0.61787 0.26022 0.0
H193 H 0.18188 0.61836 0.28799 0.0
H194 H 0.19236 0.58899 0.208 0.0
H195 H 0.96421 0.70416 0.28156 0.0
H196 H 0.02902 0.65747 0.35045 0.0
H197 H 0.98953 0.60579 0.2882 0.0
C198 C 0.95328 0.33798 0.01174 0.0
C199 C 0.94051 0.31727 0.00809 0.0
N200 N 0.88879 0.31506 0.00144 0.0
N201 N 0.90978 0.34902 0.00773 0.0
C202 C 0.87091 0.33461 0.00157 0.0
H203 H 0.99254 0.3444 0.01585 0.0
Co204 Co 0.90945 0.37741 0.00569 0.0
C205 C 0.82409 0.39549 0.04189 0.0
O206 O 0.85473 0.41156 0.05047 0.0
N207 N 0.90891 0.40604 0.00228 0.0
C208 C 0.87751 0.43496 0.99051 0.0
C209 C 0.86565 0.41509 -0.00638 0.0
C210 C 0.94712 0.42091 0.00368 0.0
N211 N 0.92889 0.43875 -0.00316 0.0
O212 O 0.87345 0.37115 0.97273 0.0
H213 H 0.82776 0.40748 0.98918 0.0
H214 H 0.98783 0.41877 0.00906 0.0
O215 O 0.84131 0.38065 0.02422 0.0
C216 C 0.90408 0.36447 0.95338 0.0
O217 O 0.95447 0.36155 0.95834 0.0
N218 N 0.94862 0.38298 0.03753 0.0
C219 C 0.01953 0.38688 0.08 0.0
C220 C 0.96604 0.38215 0.0835 0.0
C221 C 0.93148 0.37966 0.06179 0.0
C222 C 0.00097 0.38676 0.03367 0.0
C223 C 0.03698 0.38906 0.05466 0.0
H224 H 0.89182 0.37413 0.06439 0.0
H225 H 0.01536 0.38704 0.01384 0.0
H226 H 0.83126 0.33825 -0.00436 0.0
H227 H 0.96779 0.30472 0.00945 0.0
H228 H 0.85059 0.44548 0.9831 0.0
H229 H 0.95166 0.37945 0.10255 0.0
H230 H 0.07831 0.39217 0.05099 0.0
C231 C 0.89598 0.43615 0.76507 0.0
C232 C 0.88051 0.45658 0.76972 0.0
N233 N 0.85 0.45991 0.74932 0.0
N234 N 0.87554 0.42648 0.74177 0.0
C235 C 0.84733 0.4414 0.73258 0.0
H236 H 0.92277 0.42906 0.77732 0.0
Co237 Co 0.89549 0.39942 0.72631 0.0
C238 C 0.80339 0.38183 0.69234 0.0
O239 O 0.82717 0.36412 0.68332 0.0
N240 N 0.91885 0.37173 0.71149 0.0
C241 C 0.97325 0.34635 0.6927 0.0
C242 C 0.95931 0.36677 0.69409 0.0
C243 C 0.90907 0.3536 0.72023 0.0
N244 N 0.94237 0.33807 0.70954 0.0
O245 O 0.86578 0.38963 0.75592 0.0
H246 H 0.98082 0.37749 0.68428 0.0
H247 H 0.88049 0.35209 0.73552 0.0
O248 O 0.82722 0.39597 0.70852 0.0
C249 C 0.89976 0.38593 0.77284 0.0
O250 O 0.95045 0.38839 0.76806 0.0
N251 N 0.92684 0.40995 0.69839 0.0
C252 C 0.9908 0.42403 0.66106 0.0
C253 C 0.94365 0.41331 0.6532 0.0
C254 C 0.9116 0.40658 0.67233 0.0
C255 C 0.97193 0.42078 0.70633 0.0
C256 C 0.00424 0.42816 0.68802 0.0
H257 H 0.87646 0.39779 0.66581 0.0
H258 H 0.98378 0.42305 0.72696 0.0
H259 H 0.82811 0.4391 0.71336 0.0
H260 H 0.89222 0.46832 0.78642 0.0
H261 H 0.00576 0.33857 0.68115 0.0
H262 H 0.93236 0.4098 0.63246 0.0
H263 H 0.04079 0.43614 0.69474 0.0
C264 C 0.58149 0.17575 0.96571 0.0
C265 C 0.60462 0.19492 0.96595 0.0
N266 N 0.65764 0.19283 0.96791 0.0
N267 N 0.61976 0.16164 0.96745 0.0
C268 C 0.66559 0.17254 0.96889 0.0
H269 H 0.53941 0.17239 0.96483 0.0
Co270 Co 0.61093 0.13379 0.9708 0.0
C271 C 0.69858 0.11124 0.9396 0.0
O272 O 0.66805 0.09496 0.93215 0.0
N273 N 0.60255 0.1056 0.97546 0.0
C274 C 0.62166 0.07688 0.99152 0.0
C275 C 0.63919 0.09619 0.98863 0.0
C276 C 0.56282 0.09133 0.9705 0.0
N277 N 0.57357 0.07381 0.98015 0.0
O278 O 0.64301 0.13991 0.00475 0.0
H279 H 0.67664 0.10301 -0.00405 0.0
H280 H 0.52585 0.09374 0.96086 0.0
O281 O 0.6802 0.12737 0.95463 0.0
C282 C 0.61061 0.14749 0.02291 0.0
O283 O 0.56128 0.15071 0.01629 0.0
N284 N 0.57616 0.12887 0.9379 0.0
C285 C 0.51182 0.13106 0.89417 0.0
C286 C 0.56713 0.13255 0.89224 0.0
C287 C 0.59871 0.13159 0.91445 0.0
C288 C 0.52241 0.12762 0.94007 0.0
C289 C 0.48954 0.12811 0.91828 0.0
H290 H 0.6406 0.1347 0.91315 0.0
H291 H 0.50469 0.12756 0.9593 0.0
H292 H 0.70403 0.16587 0.97168 0.0
H293 H 0.584 0.20924 0.96478 0.0
H294 H 0.64273 0.06591 0.00124 0.0
H295 H 0.58553 0.13553 0.87416 0.0
H296 H 0.44686 0.1278 0.92087 0.0
C297 C 0.5534 0.11426 0.25136 0.0
C298 C 0.56179 0.09319 0.24432 0.0
N299 N 0.6146 0.08964 0.24267 0.0
N300 N 0.60061 0.12405 0.25425 0.0
C301 C 0.63712 0.10868 0.24863 0.0
H302 H 0.51535 0.12197 0.25462 0.0
Co303 Co 0.61097 0.15268 0.26475 0.0
C304 C 0.7252 0.1527 0.27638 0.0
O305 O 0.73469 0.16624 0.26085 0.0
N306 N 0.62127 0.18153 0.27517 0.0
C307 C 0.64311 0.21247 0.2983 0.0
C308 C 0.64662 0.19134 0.2971 0.0
C309 C 0.60167 0.19708 0.26369 0.0
N310 N 0.61469 0.21609 0.2773 0.0
O311 O 0.6437 0.1535 0.23168 0.0
H312 H 0.66539 0.18366 0.31171 0.0
H313 H 0.57785 0.19455 0.24583 0.0
O314 O 0.67786 0.14695 0.27996 0.0
C315 C 0.60959 0.15535 0.21399 0.0
O316 O 0.55905 0.15624 0.22054 0.0
N317 N 0.57559 0.15193 0.29655 0.0
C318 C 0.51209 0.15146 0.34081 0.0
C319 C 0.55753 0.13894 0.33663 0.0
C320 C 0.58926 0.13951 0.31429 0.0
C321 C 0.53079 0.16376 0.30011 0.0
C322 C 0.49893 0.16405 0.32239 0.0
H323 H 0.6238 0.12958 0.31087 0.0
H324 H 0.5194 0.17289 0.28537 0.0
H325 H 0.67947 0.1114 0.2487 0.0
H326 H 0.53121 0.08139 0.24131 0.0
H327 H 0.65882 0.22427 0.31393 0.0
H328 H 0.56814 0.12881 0.35039 0.0
H329 H 0.46344 0.17357 0.32482 0.0
C330 C 0.42982 0.84381 0.98106 0.0
C331 C 0.41916 0.82302 0.97383 0.0
N332 N 0.36671 0.82005 0.97679 0.0
N333 N 0.38445 0.8541 0.98862 0.0
C334 C 0.34648 0.8392 0.98595 0.0
H335 H 0.46829 0.85109 0.98065 0.0
Co336 Co 0.38344 0.88294 -0.00107 0.0
C337 C 0.27665 0.89079 0.02122 0.0
O338 O 0.26896 0.90513 0.00661 0.0
N339 N 0.38461 0.91187 0.00895 0.0
C340 C 0.38881 0.94378 0.03264 0.0
C341 C 0.37734 0.92332 0.03337 0.0
C342 C 0.40018 0.92568 -0.00629 0.0
N343 N 0.4032 0.94524 0.00768 0.0
O344 O 0.33955 0.8858 0.96955 0.0
H345 H 0.36635 0.91707 0.0508 0.0
H346 H 0.41162 0.92128 0.97307 0.0
O347 O 0.32071 0.88107 0.01999 0.0
C348 C 0.34941 0.87864 0.94533 0.0
O349 O 0.39138 0.8669 0.93894 0.0
N350 N 0.42785 0.88055 0.02738 0.0
C351 C 0.49991 0.88043 0.06845 0.0
C352 C 0.44824 0.8729 0.07034 0.0
C353 C 0.41284 0.8728 0.04933 0.0
C354 C 0.47836 0.88738 0.02491 0.0
C355 C 0.51522 0.88741 0.04523 0.0
H356 H 0.3735 0.86661 0.05092 0.0
H357 H 0.48969 0.89316 0.00718 0.0
H358 H 0.30486 0.84237 0.99013 0.0
H359 H 0.44809 0.81098 0.9672 0.0
H360 H 0.38759 0.95656 0.0493 0.0
H361 H 0.43547 0.86706 0.08784 0.0
H362 H 0.55485 0.89335 0.04312 0.0
C363 C 0.42834 0.94722 0.73339 0.0
C364 C 0.40671 0.96631 0.7318 0.0
N365 N 0.35394 0.96393 0.72805 0.0
N366 N 0.38942 0.93285 0.73068 0.0
C367 C 0.34459 0.94347 0.72729 0.0
H368 H 0.46955 0.94413 0.73718 0.0
Co369 Co 0.39677 0.90522 0.73517 0.0
C370 C 0.33199 0.88049 0.6934 0.0
O371 O 0.36946 0.86629 0.68942 0.0
N372 N 0.40315 0.87701 0.74065 0.0
C373 C 0.374 0.84714 0.75075 0.0
C374 C 0.36001 0.86664 0.74713 0.0
C375 C 0.4434 0.86307 0.74059 0.0
N376 N 0.42652 0.84479 0.74668 0.0
O377 O 0.34701 0.90985 0.76381 0.0
H378 H 0.31999 0.87274 0.74867 0.0
H379 H 0.48442 0.86608 0.73662 0.0
O380 O 0.33838 0.89708 0.71054 0.0
C381 C 0.34671 0.92418 0.78421 0.0
O382 O 0.38112 0.93945 0.78622 0.0
N383 N 0.44725 0.90132 0.70785 0.0
C384 C 0.52902 0.89788 0.67076 0.0
C385 C 0.47689 0.90166 0.66336 0.0
C386 C 0.43659 0.90367 0.68235 0.0
C387 C 0.49833 0.89944 0.71578 0.0
C388 C 0.53976 0.89712 0.69743 0.0
H389 H 0.39717 0.90757 0.67658 0.0
H390 H 0.50695 0.89991 0.73658 0.0
H391 H 0.30547 0.93651 0.72572 0.0
H392 H 0.4281 0.98083 0.73362 0.0
H393 H 0.34713 0.83542 0.75549 0.0
H394 H 0.46731 0.90296 0.64309 0.0
H395 H 0.57994 0.89514 0.70412 0.0
C396 C 0.57135 0.68749 0.4796 0.0
C397 C 0.58432 0.70816 0.48308 0.0
N398 N 0.63764 0.70993 0.48329 0.0
N399 N 0.61613 0.67603 0.47725 0.0
C400 C 0.6561 0.69016 0.47956 0.0
H401 H 0.53164 0.68126 0.47985 0.0
Co402 Co 0.61712 0.64724 0.4766 0.0
C403 C 0.68166 0.62955 0.43123 0.0
O404 O 0.64403 0.6155 0.42585 0.0
N405 N 0.61923 0.61807 0.4776 0.0
C406 C 0.65832 0.58904 0.48506 0.0
C407 C 0.66636 0.6086 0.4799 0.0
C408 C 0.58279 0.60372 0.48214 0.0
N409 N 0.60581 0.58594 0.48667 0.0
O410 O 0.66286 0.65152 0.50671 0.0
H411 H 0.70476 0.61587 0.47923 0.0
H412 H 0.54067 0.60657 0.48415 0.0
O413 O 0.67757 0.64397 0.45168 0.0
C414 C 0.63067 0.65242 0.52604 0.0
O415 O 0.57945 0.65177 0.52095 0.0
N416 N 0.56717 0.64393 0.44845 0.0
C417 C 0.48173 0.64923 0.4156 0.0
C418 C 0.53338 0.65371 0.40844 0.0
C419 C 0.57547 0.65145 0.42545 0.0
C420 C 0.51693 0.63923 0.45538 0.0
C421 C 0.47362 0.64163 0.43914 0.0
H422 H 0.61373 0.65749 0.42114 0.0
H423 H 0.50944 0.6358 0.47488 0.0
H424 H 0.69771 0.6861 0.48012 0.0
H425 H 0.55646 0.72097 0.48604 0.0
H426 H 0.68897 0.57818 0.48835 0.0
H427 H 0.54055 0.66061 0.39102 0.0
H428 H 0.43379 0.63902 0.44586 0.0
C429 C 0.57615 0.60443 0.73974 0.0
C430 C 0.60006 0.58523 0.73475 0.0
N431 N 0.65005 0.58711 0.74434 0.0
N432 N 0.61067 0.61857 0.75231 0.0
C433 C 0.65539 0.60757 0.75485 0.0
H434 H 0.53577 0.60785 0.73477 0.0
Co435 Co 0.59309 0.64662 0.76376 0.0
C436 C 0.67529 0.66095 0.80555 0.0
O437 O 0.64083 0.67103 0.82227 0.0
N438 N 0.57333 0.67533 0.77499 0.0
C439 C 0.53817 0.70428 0.79832 0.0
C440 C 0.55059 0.68394 0.79836 0.0
C441 C 0.57355 0.69119 0.76098 0.0
N442 N 0.55211 0.70894 0.77472 0.0
O443 O 0.62867 0.65331 0.7336 0.0
H444 H 0.54268 0.67607 0.81479 0.0
H445 H 0.58735 0.68965 0.74072 0.0
O446 O 0.65996 0.65101 0.78309 0.0
C447 C 0.60051 0.64929 0.71273 0.0
O448 O 0.55129 0.6431 0.71482 0.0
N449 N 0.55562 0.6388 0.79197 0.0
C450 C 0.48819 0.62672 0.82977 0.0
C451 C 0.54362 0.625 0.83195 0.0
C452 C 0.57668 0.63071 0.81249 0.0
C453 C 0.50203 0.63946 0.78868 0.0
C454 C 0.46761 0.63368 0.8074 0.0
H455 H 0.61894 0.62839 0.81386 0.0
H456 H 0.48601 0.64477 0.77145 0.0
H457 H 0.69073 0.61437 0.76479 0.0
H458 H 0.58172 0.57103 0.72472 0.0
H459 H 0.51996 0.71482 0.81456 0.0
H460 H 0.56149 0.61943 0.8486 0.0
H461 H 0.42524 0.6345 0.80418 0.0
C462 C 0.40071 0.35649 0.51443 0.0
C463 C 0.37836 0.33724 0.51374 0.0
N464 N 0.32509 0.33923 0.51356 0.0
N465 N 0.36195 0.37077 0.51495 0.0
C466 C 0.31624 0.3598 0.51441 0.0
H467 H 0.44271 0.35975 0.51376 0.0
Co468 Co 0.37351 0.39867 0.51229 0.0
C469 C 0.30561 0.42389 0.55215 0.0
O470 O 0.34551 0.43684 0.55805 0.0
N471 N 0.38496 0.4269 0.50827 0.0
C472 C 0.36429 0.45791 0.49858 0.0
C473 C 0.34544 0.43865 0.5008 0.0
C474 C 0.42799 0.43963 0.51013 0.0
N475 N 0.41634 0.45861 0.50445 0.0
O476 O 0.32861 0.39553 0.48196 0.0
H477 H 0.30461 0.4337 0.49779 0.0
H478 H 0.46738 0.4352 0.51516 0.0
O479 O 0.31169 0.40732 0.53486 0.0
C480 C 0.34292 0.38473 0.45995 0.0
O481 O 0.38607 0.37334 0.45914 0.0
N482 N 0.42004 0.4011 0.54157 0.0
C483 C 0.4965 0.40072 0.58094 0.0
C484 C 0.4424 0.39962 0.58684 0.0
C485 C 0.40482 0.39919 0.56668 0.0
C486 C 0.47263 0.40109 0.53527 0.0
C487 C 0.51159 0.40116 0.55469 0.0
H488 H 0.3638 0.39663 0.57124 0.0
H489 H 0.48441 0.40055 0.51483 0.0
H490 H 0.27735 0.36666 0.51341 0.0
H491 H 0.39992 0.32286 0.51313 0.0
H492 H 0.34097 0.4706 0.49367 0.0
H493 H 0.42937 0.39832 0.60666 0.0
H494 H 0.55309 0.40147 0.54922 0.0
C495 C 0.44472 0.44447 0.23374 0.0
C496 C 0.42727 0.46462 0.23628 0.0
N497 N 0.37454 0.46492 0.24064 0.0
N498 N 0.40316 0.4319 0.23605 0.0
C499 C 0.36079 0.44487 0.24036 0.0
H500 H 0.48555 0.43943 0.23117 0.0
Co501 Co 0.40831 0.40323 0.2361 0.0
C502 C 0.32653 0.3847 0.19713 0.0
O503 O 0.35874 0.36949 0.18712 0.0
N504 N 0.41364 0.37433 0.23718 0.0
C505 C 0.39037 0.34298 0.2448 0.0
C506 C 0.37231 0.36224 0.24171 0.0
C507 C 0.4567 0.36208 0.23857 0.0
N508 N 0.44364 0.34287 0.2429 0.0
O509 O 0.36752 0.40612 0.26791 0.0
H510 H 0.33145 0.36737 0.24381 0.0
H511 H 0.49712 0.36721 0.23749 0.0
O512 O 0.34225 0.39887 0.21604 0.0
C513 C 0.37336 0.4191 0.28935 0.0
O514 O 0.40992 0.43359 0.2912 0.0
N515 N 0.45049 0.40044 0.2051 0.0
C516 C 0.52146 0.39731 0.16271 0.0
C517 C 0.46763 0.40137 0.15912 0.0
C518 C 0.43305 0.40355 0.18079 0.0
C519 C 0.50338 0.39795 0.20922 0.0
C520 C 0.53951 0.39605 0.18826 0.0
H521 H 0.39278 0.40831 0.17799 0.0
H522 H 0.5179 0.39809 0.22911 0.0
H523 H 0.32093 0.43978 0.24386 0.0
H524 H 0.45188 0.47816 0.23608 0.0
H525 H 0.36626 0.33045 0.24954 0.0
H526 H 0.45275 0.40348 0.13991 0.0
H527 H 0.58116 0.39363 0.19202 0.0
H528 H 0.21807 0.22243 0.47559 0.0
H529 H 0.06547 0.24593 0.50693 0.0
H530 H 0.10302 0.28108 0.51869 0.0
H531 H 0.29911 0.25554 0.52536 0.0
H532 H 0.34997 0.25943 0.50195 0.0
H533 H 0.31162 0.23581 0.49661 0.0
H534 H 0.28451 0.24243 0.45003 0.0
H535 H 0.32262 0.2661 0.45525 0.0
H536 H 0.25315 0.26666 0.44692 0.0
H537 H 0.15599 0.31408 0.5261 0.0
H538 H 0.22177 0.34241 0.52942 0.0
H539 H 0.34022 0.29803 0.49303 0.0
C540 C 0.19284 0.23495 0.48519 0.0
C541 C 0.1386 0.23138 0.49007 0.0
C542 C 0.1068 0.24826 0.50249 0.0
C543 C 0.12786 0.26832 0.50943 0.0
C544 C 0.18105 0.27142 0.50392 0.0
C545 C 0.21327 0.25523 0.49217 0.0
C546 C 0.26889 0.26301 0.48799 0.0
C547 C 0.30981 0.25284 0.50393 0.0
C548 C 0.28311 0.25933 0.45828 0.0
C549 C 0.26266 0.28603 0.49912 0.0
C550 C 0.21167 0.29053 0.50823 0.0
C551 C 0.19613 0.31074 0.51906 0.0
C552 C 0.23373 0.32679 0.52071 0.0
C553 C 0.28643 0.32262 0.51158 0.0
C554 C 0.30069 0.30186 0.50061 0.0
H555 H 0.0234 0.96933 0.50137 0.0
H556 H 0.86377 0.98961 0.52413 0.0
H557 H 0.88435 0.02464 0.51499 0.0
H558 H 0.08635 1.01566 0.53237 0.0
H559 H 0.13675 1.01571 0.50737 0.0
H560 H 0.10811 0.99153 0.51252 0.0
H561 H 0.08143 0.98282 0.46291 0.0
H562 H 0.11039 1.00692 0.45755 0.0
H563 H 0.04207 1.00109 0.44871 0.0
H564 H 0.92341 0.05785 0.50634 0.0
H565 H 0.97839 0.08745 0.49934 0.0
H566 H 0.11484 0.04658 0.48303 0.0
C567 C 0.99263 0.98108 0.50368 0.0
C568 C 0.94165 0.97681 0.51299 0.0
C569 C 0.90273 0.99264 0.51672 0.0
C570 C 0.91413 1.01253 0.51159 0.0
C571 C 0.96499 1.01645 0.50296 0.0
C572 C 0.00373 1.00122 0.49901 0.0
C573 C 0.05623 1.0101 0.4915 0.0
C574 C 0.0994 1.00813 0.51218 0.0
C575 C 0.07354 0.99961 0.4635 0.0
C576 C 0.04101 0.03268 0.49217 0.0
C577 C 0.98803 0.0359 0.49857 0.0
C578 C 0.96484 0.05548 0.50102 0.0
C579 C 0.99649 0.07225 0.49685 0.0
C580 C 0.05112 0.0695 0.49039 0.0
C581 C 0.07339 0.04932 0.48801 0.0
H582 H 0.22594 0.07741 0.7634 0.0
H583 H 0.09211 0.05267 0.7144 0.0
H584 H 0.13693 1.01878 0.70348 0.0
H585 H 0.32916 0.04932 0.72122 0.0
H586 H 0.36911 0.04468 0.7488 0.0
H587 H 0.32749 0.0674 0.75226 0.0
H588 H 0.28135 0.0568 0.79304 0.0
H589 H 0.32312 0.03415 0.7898 0.0
H590 H 0.25191 0.03138 0.79 0.0
H591 H 0.19369 0.98706 0.6993 0.0
H592 H 0.2608 0.95982 0.7011 0.0
H593 H 0.359 1.00462 0.75227 0.0
C594 C 0.20653 0.06493 0.75008 0.0
C595 C 0.15528 0.0677 0.73989 0.0
C596 C 0.13091 0.05087 0.72279 0.0
C597 C 0.15619 0.03156 0.71633 0.0
C598 C 0.20611 0.0292 0.72704 0.0
C599 C 0.23126 0.0454 0.74346 0.0
C600 C 0.28439 0.03841 0.75282 0.0
C601 C 0.33025 0.05068 0.74319 0.0
C602 C 0.28521 0.0403 0.78322 0.0
C603 C 0.28497 1.01581 0.73908 0.0
C604 C 0.23931 1.01084 0.72438 0.0
C605 C 0.22979 0.99078 0.71063 0.0
C606 C 0.26797 0.97537 0.71188 0.0
C607 C 0.31528 0.98004 0.7267 0.0
C608 C 0.32372 1.00061 0.7404 0.0
H609 H 0.03495 0.31639 0.70809 0.0
H610 H 0.86932 0.31492 0.73092 0.0
H611 H 0.88521 0.28161 0.7464 0.0
H612 H 0.05047 0.26144 0.68399 0.0
H613 H 0.11728 0.26098 0.69651 0.0
H614 H 0.09174 0.28425 0.68688 0.0
H615 H 0.1141 0.30506 0.73358 0.0
H616 H 0.13948 0.28186 0.74341 0.0
H617 H 0.08777 0.29657 0.76261 0.0
H618 H 0.92128 0.24782 0.7596 0.0
H619 H 0.97385 0.21834 0.77037 0.0
H620 H 0.11443 0.24286 0.73799 0.0
C621 C 0.00154 0.30899 0.71585 0.0
C622 C 0.95058 0.31828 0.71793 0.0
C623 C 0.90868 0.30818 0.7291 0.0
C624 C 0.91735 0.2892 0.73786 0.0
C625 C 0.9682 0.28051 0.73541 0.0
C626 C 0.00951 0.2902 0.72469 0.0
C627 C 0.06086 0.27819 0.72481 0.0
C628 C 0.08127 0.27078 0.69636 0.0
C629 C 0.10302 0.2912 0.74213 0.0
C630 C 0.04227 0.26016 0.73726 0.0
C631 C 0.98873 0.26162 0.74321 0.0
C632 C 0.96322 0.24659 0.75496 0.0
C633 C 0.99332 0.22983 0.7609 0.0
C634 C 0.04846 0.22825 0.75526 0.0
C635 C 0.07271 0.24365 0.74307 0.0
H636 H 0.86643 0.79292 0.47073 0.0
H637 H 0.77367 0.83678 0.52631 0.0
H638 H 0.70835 0.80948 0.52953 0.0
H639 H 0.75538 0.76571 0.43636 0.0
H640 H 0.786 0.74043 0.43225 0.0
H641 H 0.82665 0.76332 0.43437 0.0
H642 H 0.87856 0.75284 0.4736 0.0
H643 H 0.83793 0.72994 0.47164 0.0
H644 H 0.84285 0.74811 0.50248 0.0
H645 H 0.65241 0.77808 0.5268 0.0
H646 H 0.6073 0.74425 0.51747 0.0
H647 H 0.73441 0.71945 0.46381 0.0
C648 C 0.83255 0.79673 0.48369 0.0
C649 C 0.82523 0.8172 0.49808 0.0
C650 C 0.77997 0.82149 0.51465 0.0
C651 C 0.74272 0.80598 0.51681 0.0
C652 C 0.75099 0.7861 0.50235 0.0
C653 C 0.79463 0.78135 0.48606 0.0
C654 C 0.79303 0.75869 0.47237 0.0
C655 C 0.79008 0.75694 0.44204 0.0
C656 C 0.84095 0.74669 0.48051 0.0
C657 C 0.74155 0.75155 0.48346 0.0
C658 C 0.71827 0.7677 0.50077 0.0
C659 C 0.67018 0.76532 0.51326 0.0
C660 C 0.64468 0.74603 0.50769 0.0
C661 C 0.66696 0.72919 0.48973 0.0
C662 C 0.71658 0.73196 0.47775 0.0
H663 H 0.84578 1.00656 0.2478 0.0
H664 H 0.74155 0.96058 0.20243 0.0
H665 H 0.67389 0.98764 0.20125 0.0
H666 H 0.74382 0.03549 0.2875 0.0
H667 H 0.77407 0.06045 0.28742 0.0
H668 H 0.81486 0.03754 0.28446 0.0
H669 H 0.85498 0.04558 0.2408 0.0
H670 H 0.81416 0.06849 0.24368 0.0
H671 H 0.8114 0.04901 0.21397 0.0
H672 H 0.61716 1.01957 0.20498 0.0
H673 H 0.57458 0.054 0.21403 0.0
H674 H 0.71465 0.07963 0.25738 0.0
C675 C 0.80896 1.0022 0.2374 0.0
C676 C 0.79915 0.98131 0.22523 0.0
C677 C 0.74993 0.97632 0.21219 0.0
C678 C 0.7113 0.99164 0.21127 0.0
C679 C 0.72219 1.01199 0.2235 0.0
C680 C 0.76975 1.01733 0.23638 0.0
C681 C 0.77087 0.04034 0.24832 0.0
C682 C 0.77621 0.04364 0.27873 0.0
C683 C 0.8155 0.05151 0.23594 0.0
C684 C 0.71654 0.04706 0.24012 0.0
C685 C 0.68923 0.03045 0.22578 0.0
C686 C 0.63814 0.03268 0.21625 0.0
C687 C 0.61411 0.05234 0.22165 0.0
C688 C 0.64091 0.06966 0.23653 0.0
C689 C 0.69311 0.06687 0.2457 0.0
H690 H 0.87797 0.80462 0.23169 0.0
H691 H 0.01847 0.84323 0.2475 0.0
H692 H 0.06983 0.81258 0.25516 0.0
H693 H 0.8994 0.77544 0.28244 0.0
H694 H 0.87376 0.75161 0.26349 0.0
H695 H 0.84997 0.77619 0.25714 0.0
H696 H 0.87614 0.7657 0.20756 0.0
H697 H 0.89997 0.74105 0.21375 0.0
H698 H 0.94336 0.7577 0.19896 0.0
H699 H 0.10481 0.77698 0.26315 0.0
H700 H 0.11818 0.74107 0.27146 0.0
H701 H 0.95333 0.72713 0.25149 0.0
C702 C 0.91948 0.80681 0.2368 0.0
C703 C 0.94384 0.82655 0.23904 0.0
C704 C 0.99872 0.82835 0.24534 0.0
C705 C 0.02824 0.81098 0.24986 0.0
C706 C 0.00248 0.79186 0.24795 0.0
C707 C 0.94924 0.78977 0.2415 0.0
C708 C 0.92982 0.7679 0.24165 0.0
C709 C 0.88564 0.76779 0.26242 0.0
C710 C 0.91124 0.75748 0.21382 0.0
C711 C 0.98015 0.75798 0.24959 0.0
C712 C 0.02196 0.77188 0.2529 0.0
C713 C 0.07224 0.76602 0.26051 0.0
C714 C 0.07959 0.74558 0.2651 0.0
C715 C 0.03679 0.73129 0.26237 0.0
C716 C 0.98674 0.73769 0.2542 0.0
H717 H 0.27771 0.80868 0.0011 0.0
H718 H 0.39444 0.78637 0.94033 0.0
H719 H 0.3542 0.75151 0.93386 0.0
H720 H 0.27486 0.76398 0.03018 0.0
H721 H 0.20446 0.7647 0.03664 0.0
H722 H 0.23972 0.78838 0.03515 0.0
H723 H 0.1754 0.79628 -0.00128 0.0
H724 H 0.13962 0.77267 0.00024 0.0
H725 H 0.16593 0.77719 0.96901 0.0
H726 H 0.30544 0.71821 0.93635 0.0
H727 H 0.25038 0.68959 0.94703 0.0
H728 H 0.16303 0.73391 0.0046 0.0
C729 C 0.29407 0.79658 0.98606 0.0
C730 C 0.33952 0.8003 0.97137 0.0
C731 C 0.36021 0.78388 0.95215 0.0
C732 C 0.3374 0.76402 0.94818 0.0
C733 C 0.2935 0.76074 0.96342 0.0
C734 C 0.27172 0.7766 0.98181 0.0
C735 C 0.22576 0.76871 -0.00366 0.0
C736 C 0.23689 0.77161 0.02635 0.0
C737 C 0.17359 0.77934 0.99073 0.0
C738 C 0.22587 0.74592 0.98361 0.0
C739 C 0.26505 0.74162 0.96458 0.0
C740 C 0.27411 0.72146 0.95098 0.0
C741 C 0.24242 0.70526 0.95711 0.0
C742 C 0.20206 0.70926 0.97667 0.0
C743 C 0.19366 0.73002 0.98976 0.0
H744 H 0.88763 0.47739 -0.00194 0.0
H745 H 0.03628 0.44329 0.99106 0.0
H746 H 0.08391 0.47524 0.98523 0.0
H747 H 0.91429 0.50647 0.94777 0.0
H748 H 0.88143 0.52959 0.96462 0.0
H749 H 0.86043 0.50449 0.97039 0.0
H750 H 0.87512 0.51634 0.02097 0.0
H751 H 0.89612 0.54151 0.01536 0.0
H752 H 0.9389 0.52649 0.03292 0.0
H753 H 0.11461 0.51159 0.97781 0.0
H754 H 0.12369 0.54756 0.96891 0.0
H755 H 0.95411 0.55647 0.98012 0.0
C756 C 0.93018 0.47648 -0.00472 0.0
C757 C 0.95789 0.45761 -0.00502 0.0
C758 C 0.01389 0.45748 0.99169 0.0
C759 C 0.04136 0.47559 0.98824 0.0
C760 C 0.01244 0.4938 0.98818 0.0
C761 C 0.95801 0.49429 0.9917 0.0
C762 C 0.93536 0.51541 0.98988 0.0
C763 C 0.89554 0.51389 0.96679 0.0
C764 C 0.90988 0.52553 0.01636 0.0
C765 C 0.98532 0.52674 0.98435 0.0
C766 C 0.02964 0.51421 0.98366 0.0
C767 C 0.08005 0.5215 0.97842 0.0
C768 C 0.08495 0.54196 0.97348 0.0
C769 C 0.03965 0.55483 0.97352 0.0
C770 C 0.98951 0.54702 0.97943 0.0
H771 H 0.28319 0.57843 0.22636 0.0
H772 H 0.16843 0.5768 0.28885 0.0
H773 H 0.20162 0.54192 0.294 0.0
H774 H 0.27319 0.52674 0.19565 0.0
H775 H 0.34277 0.52323 0.18786 0.0
H776 H 0.31335 0.54861 0.19101 0.0
H777 H 0.38258 0.56349 0.22686 0.0
H778 H 0.41292 0.53822 0.22348 0.0
H779 H 0.39092 0.55141 0.25561 0.0
H780 H 0.24189 0.50508 0.28803 0.0
H781 H 0.29305 0.47227 0.27603 0.0
H782 H 0.38249 0.49929 0.21841 0.0
C783 C 0.26598 0.57089 0.24155 0.0
C784 C 0.22353 0.58024 0.25733 0.0
C785 C 0.20156 0.56996 0.2769 0.0
C786 C 0.21987 0.55011 0.27973 0.0
C787 C 0.26068 0.54097 0.2631 0.0
C788 C 0.2842 0.55131 0.2448 0.0
C789 C 0.32665 0.53819 0.22891 0.0
C790 C 0.31315 0.53395 0.1991 0.0
C791 C 0.38152 0.54844 0.23403 0.0
C792 C 0.32282 0.51861 0.24064 0.0
C793 C 0.28441 0.52035 0.26023 0.0
C794 C 0.27249 0.50372 0.27296 0.0
C795 C 0.3013 0.48508 0.26586 0.0
C796 C 0.34185 0.4833 0.24639 0.0
C797 C 0.35222 0.5003 0.23361 0.0
H798 H 0.64733 0.23433 0.98801 0.0
H799 H 0.75888 0.18767 0.95052 0.0
H800 H 0.82914 0.21429 0.9539 0.0
H801 H 0.69716 0.27667 0.95668 0.0
H802 H 0.68727 0.29621 0.98591 0.0
H803 H 0.64502 0.27363 0.97982 0.0
H804 H 0.66942 0.26532 0.02596 0.0
H805 H 0.71176 0.28784 0.03216 0.0
H806 H 0.73828 0.26262 0.03435 0.0
H807 H 0.88778 0.24541 0.96253 0.0
H808 H 0.93198 0.27921 0.97564 0.0
H809 H 0.78338 0.30661 0.00749 0.0
C810 C 0.68636 0.22978 0.98023 0.0
C811 C 0.69772 0.2088 0.96912 0.0
C812 C 0.74955 0.2035 0.95949 0.0
C813 C 0.78958 0.21856 0.96116 0.0
C814 C 0.77727 0.239 0.97248 0.0
C815 C 0.72696 0.2447 0.9818 0.0
C816 C 0.72493 0.26773 -0.00634 0.0
C817 C 0.6863 0.27924 0.97808 0.0
C818 C 0.71023 0.27106 0.02329 0.0
C819 C 0.78208 0.274 0.98975 0.0
C820 C 0.81136 0.25713 0.97742 0.0
C821 C 0.86526 0.25874 0.97218 0.0
C822 C 0.89012 0.27802 0.9799 0.0
C823 C 0.86137 0.2956 0.99281 0.0
C824 C 0.80634 0.29354 -0.00251 0.0
H825 H 0.63161 0.54508 0.73585 0.0
H826 H 0.75719 0.59117 0.75197 0.0
H827 H 0.82236 0.56321 0.75237 0.0
H828 H 0.68016 0.51099 0.7766 0.0
H829 H 0.66159 0.48756 0.75425 0.0
H830 H 0.62476 0.51115 0.75432 0.0
H831 H 0.64224 0.50831 0.70392 0.0
H832 H 0.67925 0.4847 0.70371 0.0
H833 H 0.70953 0.50621 0.69171 0.0
H834 H 0.87346 0.53049 0.75344 0.0
H835 H 0.90678 0.49519 0.75501 0.0
H836 H 0.74979 0.4699 0.73598 0.0
C837 C 0.6728 0.54944 0.73906 0.0
C838 C 0.68874 0.57061 0.74393 0.0
C839 C 0.74332 0.57529 0.74852 0.0
C840 C 0.78091 0.55943 0.74858 0.0
C841 C 0.76367 0.53886 0.74378 0.0
C842 C 0.71095 0.5338 0.73899 0.0
C843 C 0.70268 0.51043 0.73506 0.0
C844 C 0.66508 0.5047 0.75633 0.0
C845 C 0.68222 0.50192 0.70692 0.0
C846 C 0.75895 0.50315 0.73879 0.0
C847 C 0.79345 0.51986 0.74376 0.0
C848 C 0.84693 0.5173 0.74928 0.0
C849 C 0.86549 0.49724 0.75017 0.0
C850 C 0.83094 0.4799 0.74538 0.0
C851 C 0.77714 0.48287 0.73917 0.0
H852 H 0.5633 0.05106 0.01915 0.0
H853 H 0.50961 0.05542 0.93994 0.0
H854 H 0.45854 0.02271 0.93806 0.0
H855 H 0.58043 0.99638 0.00899 0.0
H856 H 0.55669 0.99379 0.04147 0.0
H857 H 0.58746 1.01764 0.03653 0.0
H858 H 0.50399 0.03826 0.05556 0.0
H859 H 0.47303 1.01448 0.06068 0.0
H860 H 0.43985 0.03101 0.04119 0.0
H861 H 0.41846 0.98773 0.94423 0.0
H862 H 0.38644 0.95592 0.95943 0.0
H863 H 0.46383 0.97593 0.03527 0.0
C864 C 0.54071 0.04514 0.00142 0.0
C865 C 0.54063 0.05568 0.97959 0.0
C866 C 0.50992 0.04763 0.9569 0.0
C867 C 0.4811 0.02902 0.95565 0.0
C868 C 0.48278 1.01884 0.97742 0.0
C869 C 0.51126 0.02684 3e-05 0.0
C870 C 0.50641 1.01319 0.02089 0.0
C871 C 0.56099 1.00475 0.02734 0.0
C872 C 0.47919 0.02494 0.04607 0.0
C873 C 0.47127 0.99606 0.00646 0.0
C874 C 0.4583 0.99943 0.98132 0.0
C875 C 0.42796 0.98511 0.96399 0.0
C876 C 0.41017 0.96705 0.9727 0.0
C877 C 0.42217 0.96359 -0.0014 0.0
C878 C 0.45316 0.97835 0.01557 0.0
H879 H 0.4224 0.30129 0.23467 0.0
H880 H 0.54507 0.34676 0.26165 0.0
H881 H 0.60371 0.3188 0.2711 0.0
H882 H 0.44405 0.26995 0.28375 0.0
H883 H 0.43185 0.24564 0.26177 0.0
H884 H 0.4005 0.26905 0.2556 0.0
H885 H 0.44032 0.26299 0.20817 0.0
H886 H 0.47186 0.23955 0.2142 0.0
H887 H 0.51105 0.25973 0.20385 0.0
H888 H 0.64718 0.28624 0.28031 0.0
H889 H 0.67315 0.25128 0.2875 0.0
H890 H 0.52293 0.22662 0.25449 0.0
C891 C 0.46162 0.30539 0.24251 0.0
C892 C 0.47898 0.32634 0.2473 0.0
C893 C 0.53091 0.33091 0.25738 0.0
C894 C 0.5645 0.3151 0.26297 0.0
C895 C 0.54591 0.29471 0.25824 0.0
C896 C 0.4958 0.28978 0.2481 0.0
C897 C 0.4851 0.26665 0.24541 0.0
C898 C 0.43756 0.26259 0.26267 0.0
C899 C 0.47659 0.25664 0.21617 0.0
C900 C 0.53674 0.25939 0.25602 0.0
C901 C 0.57126 0.27585 0.26327 0.0
C902 C 0.6206 0.27323 0.27453 0.0
C903 C 0.63491 0.25333 0.27867 0.0
C904 C 0.60021 0.23619 0.27153 0.0
C905 C 0.55067 0.23932 0.25977 0.0
H906 H 0.40547 0.81661 0.77818 0.0
H907 H 0.5155 0.83052 0.71864 0.0
H908 H 0.56149 0.79699 0.71902 0.0
H909 H 0.49889 0.79127 0.81527 0.0
H910 H 0.45091 0.77245 0.82204 0.0
H911 H 0.4293 0.79783 0.81755 0.0
H912 H 0.36528 0.78091 0.78022 0.0
H913 H 0.38689 0.75549 0.78448 0.0
H914 H 0.39119 0.76293 0.75229 0.0
H915 H 0.59233 0.76015 0.72493 0.0
H916 H 0.60749 0.72573 0.73767 0.0
H917 H 0.47459 0.73693 0.79225 0.0
C918 C 0.4392 0.81267 0.76516 0.0
C919 C 0.45662 0.8262 0.74824 0.0
C920 C 0.50164 0.82052 0.73192 0.0
C921 C 0.52776 0.80143 0.73189 0.0
C922 C 0.50858 0.78824 0.74843 0.0
C923 C 0.46549 0.79382 0.76491 0.0
C924 C 0.45177 0.77708 0.78069 0.0
C925 C 0.45812 0.78514 0.81066 0.0
C926 C 0.39545 0.76861 0.77401 0.0
C927 C 0.49357 0.76104 0.77048 0.0
C928 C 0.52611 0.7676 0.75187 0.0
C929 C 0.5671 0.75499 0.73959 0.0
C930 C 0.57525 0.73538 0.7468 0.0
C931 C 0.54269 0.72859 0.76619 0.0
C932 C 0.50109 0.74168 0.77782 0.0
H933 H 0.51375 0.56652 0.46803 0.0
H934 H 0.64336 0.56461 0.52327 0.0
H935 H 0.60849 0.53191 0.53402 0.0
H936 H 0.41214 0.54483 0.5071 0.0
H937 H 0.38065 0.52999 0.47817 0.0
H938 H 0.41414 0.55394 0.47588 0.0
H939 H 0.47216 0.53451 0.43753 0.0
H940 H 0.43919 0.51049 0.43986 0.0
H941 H 0.51045 0.51228 0.44265 0.0
H942 H 0.56265 0.49843 0.53717 0.0
H943 H 0.50563 0.46741 0.5343 0.0
H944 H 0.40575 0.49045 0.47679 0.0
C945 C 0.53407 0.55936 0.48271 0.0
C946 C 0.58146 0.56805 0.49469 0.0
C947 C 0.60743 0.55809 0.51358 0.0
C948 C 0.58782 0.53953 0.51989 0.0
C949 C 0.54197 0.53103 0.50722 0.0
C950 C 0.51507 0.54065 0.48918 0.0
C951 C 0.46742 0.52782 0.47793 0.0
C952 C 0.41551 0.53987 0.48521 0.0
C953 C 0.47265 0.52086 0.4477 0.0
C954 C 0.47212 0.50949 0.49231 0.0
C955 C 0.5154 0.51167 0.50911 0.0
C956 C 0.52847 0.49658 0.52415 0.0
C957 C 0.49608 0.47889 0.52222 0.0
C958 C 0.45101 0.47638 0.50538 0.0
C959 C 0.43935 0.49195 0.49016 0.0
H960 H 0.26326 0.10913 0.40892 0.0
H961 H 0.25457 0.16954 0.46027 0.0
H962 H 0.34024 0.17918 0.44262 0.0
H963 H 0.40924 0.10289 0.41257 0.0
H964 H 0.41385 0.09065 0.37818 0.0
H965 H 0.35463 0.08759 0.39691 0.0
H966 H 0.29771 0.10162 0.36178 0.0
H967 H 0.35659 0.10467 0.34297 0.0
H968 H 0.31341 0.12657 0.35348 0.0
H969 H 0.42067 0.18386 0.41579 0.0
H970 H 0.49109 0.18291 0.3818 0.0
H971 H 0.4499 0.11924 0.34904 0.0
C972 C 0.27979 0.12425 0.41681 0.0
C973 C 0.25216 0.13856 0.43601 0.0
C974 C 0.27497 0.15828 0.4456 0.0
C975 C 0.32376 0.16388 0.43577 0.0
C976 C 0.34957 0.14954 0.41656 0.0
C977 C 0.32859 0.13007 0.40729 0.0
C978 C 0.36254 0.11808 0.38532 0.0
C979 C 0.38649 0.09865 0.39376 0.0
C980 C 0.33066 0.11242 0.35936 0.0
C981 C 0.40495 0.13408 0.38311 0.0
C982 C 0.39696 0.15207 0.40147 0.0
C983 C 0.42812 0.16972 0.40174 0.0
C984 C 0.46792 0.16906 0.38246 0.0
C985 C 0.47629 0.15087 0.36341 0.0
C986 C 0.44512 0.13307 0.36402 0.0
H987 H 0.82126 0.1708 0.29127 0.0
H988 H 0.72638 0.11587 0.29399 0.0
H989 H 0.79567 0.10267 0.32059 0.0
H990 H 0.95482 0.14553 0.29102 0.0
H991 H 0.98278 0.16771 0.3126 0.0
H992 H 0.93032 0.17124 0.28984 0.0
H993 H 0.87427 0.19072 0.329 0.0
H994 H 0.92643 0.18728 0.35179 0.0
H995 H 0.86028 0.17825 0.35693 0.0
H996 H 0.86829 0.09748 0.35124 0.0
H997 H 0.93842 0.10129 0.38549 0.0
H998 H 0.98622 0.15978 0.3641 0.0
C999 C 0.81587 0.15575 0.2969 0.0
C1000 C 0.76882 0.14426 0.29041 0.0
C1001 C 0.76228 0.12489 0.2987 0.0
C1002 C 0.80155 0.11719 0.31367 0.0
C1003 C 0.84702 0.12909 0.32028 0.0
C1004 C 0.85445 0.14797 0.31222 0.0
C1005 C 0.90398 0.15876 0.32461 0.0
C1006 C 0.94543 0.16093 0.30324 0.0
C1007 C 0.8904 0.18 0.34159 0.0
C1008 C 0.92202 0.14337 0.34165 0.0
C1009 C 0.88912 0.12619 0.33843 0.0
C1010 C 0.89492 0.11066 0.35362 0.0
C1011 C 0.93464 0.11298 0.37305 0.0
C1012 C 0.9678 0.13072 0.37718 0.0
C1013 C 0.96221 0.14583 0.36084 0.0
H1014 H 0.23856 0.12647 0.81649 0.0
H1015 H 0.27229 0.18946 0.80635 0.0
H1016 H 0.36444 0.18603 0.82192 0.0
H1017 H 0.30263 0.13066 0.87699 0.0
H1018 H 0.32748 0.10441 0.87194 0.0
H1019 H 0.26832 0.11027 0.85507 0.0
H1020 H 0.31074 0.09463 0.80968 0.0
H1021 H 0.36996 0.08858 0.82659 0.0
H1022 H 0.37431 0.10404 0.80084 0.0
H1023 H 0.44916 0.177 0.84194 0.0
H1024 H 0.51691 0.16501 0.8706 0.0
H1025 H 0.42618 0.10882 0.87138 0.0
C1026 C 0.26606 0.13926 0.81696 0.0
C1027 C 0.2494 0.15809 0.80991 0.0
C1028 C 0.28514 0.17488 0.81149 0.0
C1029 C 0.33743 0.17299 0.8201 0.0
C1030 C 0.3528 0.15429 0.82731 0.0
C1031 C 0.31801 0.13779 0.82615 0.0
C1032 C 0.34204 0.12058 0.83859 0.0
C1033 C 0.3081 0.11625 0.86204 0.0
C1034 C 0.34974 0.10079 0.81768 0.0
C1035 C 0.39488 0.13034 0.84787 0.0
C1036 C 0.40096 0.14947 0.84034 0.0
C1037 C 0.44524 0.16193 0.84768 0.0
C1038 C 0.48361 0.15496 0.86384 0.0
C1039 C 0.47682 0.13594 0.87293 0.0
C1040 C 0.43245 0.1233 0.86439 0.0
H1041 H 0.93461 0.16308 0.87181 0.0
H1042 H 0.99454 0.10079 0.84424 0.0
H1043 H 0.92731 0.08674 0.87126 0.0
H1044 H 0.90235 0.15466 0.94003 0.0
H1045 H 0.84333 0.17036 0.9424 0.0
H1046 H 0.89879 0.17641 0.92288 0.0
H1047 H 0.83946 0.17418 0.88134 0.0
H1048 H 0.78297 0.16872 0.90046 0.0
H1049 H 0.80045 0.15113 0.8704 0.0
H1050 H 0.84685 0.07895 0.89594 0.0
H1051 H 0.76108 0.0782 0.91919 0.0
H1052 H 0.75527 0.14554 0.93263 0.0
C1053 C 0.93404 0.14654 0.87189 0.0
C1054 C 0.96996 0.13303 0.85615 0.0
C1055 C 0.96799 0.11145 0.85656 0.0
C1056 C 0.92984 0.10331 0.87175 0.0
C1057 C 0.89445 0.11699 0.88673 0.0
C1058 C 0.89662 0.13818 0.88726 0.0
C1059 C 0.85256 0.14933 0.90428 0.0
C1060 C 0.87563 0.16353 0.92884 0.0
C1061 C 0.81675 0.16155 0.88815 0.0
C1062 C 0.82361 0.13099 0.91195 0.0
C1063 C 0.84878 0.11249 0.90184 0.0
C1064 C 0.8273 0.09334 0.90445 0.0
C1065 C 0.77851 0.09305 0.91754 0.0
C1066 C 0.75196 0.1118 0.92793 0.0
C1067 C 0.77532 0.13099 0.92544 0.0
H1068 H 0.55113 0.92168 0.63306 0.0
H1069 H 0.6042 0.86751 0.66388 0.0
H1070 H 0.6771 0.86249 0.63107 0.0
H1071 H 0.58093 0.90199 0.56351 0.0
H1072 H 0.60351 0.92677 0.55713 0.0
H1073 H 0.55402 0.92567 0.58228 0.0
H1074 H 0.613 0.94879 0.61716 0.0
H1075 H 0.66262 0.94998 0.59213 0.0
H1076 H 0.68026 0.9409 0.62223 0.0
H1077 H 0.74391 0.86347 0.59581 0.0
H1078 H 0.80439 0.8712 0.56126 0.0
H1079 H 0.70994 0.92534 0.55341 0.0
C1080 C 0.5778 0.90864 0.63265 0.0
C1081 C 0.57215 0.89492 0.65088 0.0
C1082 C 0.60823 0.87825 0.65015 0.0
C1083 C 0.64945 0.87521 0.63152 0.0
C1084 C 0.65404 0.88903 0.61387 0.0
C1085 C 0.61946 0.90547 0.6143 0.0
C1086 C 0.63475 0.91852 0.5938 0.0
C1087 C 0.59067 0.91821 0.57294 0.0
C1088 C 0.64848 0.94087 0.60713 0.0
C1089 C 0.68356 0.90689 0.58191 0.0
C1090 C 0.69357 0.88985 0.59371 0.0
C1091 C 0.73665 0.8768 0.58647 0.0
C1092 C 0.77098 0.88142 0.5669 0.0
C1093 C 0.76231 0.89903 0.55483 0.0
C1094 C 0.71756 0.91177 0.56224 0.0
H1095 H 0.26828 0.90998 0.67791 0.0
H1096 H 0.28566 0.8435 0.6736 0.0
H1097 H 0.20396 0.83754 0.64659 0.0
H1098 H 0.12317 0.91216 0.67986 0.0
H1099 H 0.11952 0.93137 0.65869 0.0
H1100 H 0.17639 0.9306 0.67986 0.0
H1101 H 0.23862 0.92743 0.63907 0.0
H1102 H 0.18212 0.92821 0.61774 0.0
H1103 H 0.22811 0.9068 0.6111 0.0
H1104 H 0.12242 0.83868 0.61928 0.0
H1105 H 0.05034 0.84664 0.58987 0.0
H1106 H 0.08881 0.91219 0.60971 0.0
C1107 C 0.2543 0.89421 0.67157 0.0
C1108 C 0.28269 0.87717 0.67792 0.0
C1109 C 0.26422 0.85672 0.66886 0.0
C1110 C 0.21779 0.8532 0.65369 0.0
C1111 C 0.19082 0.87031 0.64756 0.0
C1112 C 0.20861 0.8904 0.65596 0.0
C1113 C 0.17471 0.9059 0.64477 0.0
C1114 C 0.14679 0.92089 0.66713 0.0
C1115 C 0.20788 0.91777 0.62712 0.0
C1116 C 0.13547 0.89133 0.62854 0.0
C1117 C 0.14493 0.87092 0.63082 0.0
C1118 C 0.11441 0.8546 0.6174 0.0
C1119 C 0.07353 0.85925 0.60087 0.0
C1120 C 0.06421 0.87999 0.59766 0.0
C1121 C 0.09531 0.89621 0.61185 0.0
H1122 H 0.77891 0.86772 0.13698 0.0
H1123 H 0.71384 0.90354 0.20946 0.0
H1124 H 0.62672 0.90457 0.18739 0.0
H1125 H 0.71279 0.89595 0.09345 0.0
H1126 H 0.70248 0.87367 0.06765 0.0
H1127 H 0.75827 0.87435 0.08978 0.0
H1128 H 0.72761 0.83963 0.10261 0.0
H1129 H 0.67167 0.83884 0.0805 0.0
H1130 H 0.66119 0.8375 0.115 0.0
H1131 H 0.54702 0.90175 0.15729 0.0
H1132 H 0.48254 0.89788 0.12021 0.0
H1133 H 0.60163 0.86575 0.0669 0.0
C1134 C 0.7461 0.87552 0.1483 0.0
C1135 C 0.7527 0.88533 0.17497 0.0
C1136 C 0.70935 0.89585 0.189 0.0
C1137 C 0.65978 0.89645 0.17668 0.0
C1138 C 0.6546 0.88668 0.15029 0.0
C1139 C 0.69673 0.87659 0.13618 0.0
C1140 C 0.68177 0.86853 0.10756 0.0
C1141 C 0.71585 0.87874 0.0885 0.0
C1142 C 0.68579 0.84471 0.10105 0.0
C1143 C 0.62465 0.87568 0.10774 0.0
C1144 C 0.60948 0.88586 0.13266 0.0
C1145 C 0.55843 0.89381 0.1377 0.0
C1146 C 0.52209 0.89148 0.11662 0.0
C1147 C 0.53738 0.88157 0.09084 0.0
C1148 C 0.58919 0.8735 0.08644 0.0
H1149 H 0.02573 0.91662 0.11684 0.0
H1150 H 0.06689 0.86206 0.14982 0.0
H1151 H 0.13801 0.85363 0.11645 0.0
H1152 H 0.0534 0.89405 0.04674 0.0
H1153 H 0.08096 0.9179 0.03971 0.0
H1154 H 0.03008 0.91866 0.06464 0.0
H1155 H 0.09156 0.9408 0.09925 0.0
H1156 H 0.14262 0.94005 0.07449 0.0
H1157 H 0.1568 0.93121 0.10516 0.0
H1158 H 0.20797 0.85233 0.08187 0.0
H1159 H 0.27323 0.85835 0.04815 0.0
H1160 H 0.18758 0.91388 0.03744 0.0
C1161 C 0.04907 0.90269 0.11663 0.0
C1162 C 0.0409 0.88995 0.13582 0.0
C1163 C 0.07284 0.87207 0.13534 0.0
C1164 C 0.11308 0.8671 0.1164 0.0
C1165 C 0.12083 0.88015 0.09805 0.0
C1166 C 0.08974 0.89755 0.09791 0.0
C1167 C 0.10863 0.90963 0.07701 0.0
C1168 C 0.06571 0.91008 0.05577 0.0
C1169 C 0.12594 0.93172 0.08975 0.0
C1170 C 0.1557 0.89649 0.0658 0.0
C1171 C 0.1617 0.87947 0.07809 0.0
C1172 C 0.2035 0.86551 0.07193 0.0
C1173 C 0.2405 0.86912 0.05284 0.0
C1174 C 0.23556 0.88659 0.04018 0.0
C1175 C 0.19218 0.90029 0.04659 0.0
H1176 H 0.22842 0.63736 0.92059 0.0
H1177 H 0.28811 0.58653 0.95636 0.0
H1178 H 0.36662 0.58376 0.92689 0.0
H1179 H 0.27214 0.61796 0.85365 0.0
H1180 H 0.28977 0.64333 0.84733 0.0
H1181 H 0.23754 0.64065 0.87053 0.0
H1182 H 0.28609 0.66652 0.9067 0.0
H1183 H 0.33912 0.66917 0.88398 0.0
H1184 H 0.35364 0.66142 0.91529 0.0
H1185 H 0.43864 0.58661 0.89321 0.0
H1186 H 0.49922 0.59532 0.8589 0.0
H1187 H 0.39426 0.64572 0.84758 0.0
C1188 C 0.25775 0.62553 0.92214 0.0
C1189 C 0.25203 0.61209 0.94071 0.0
C1190 C 0.29166 0.59698 0.94227 0.0
C1191 C 0.33634 0.59528 0.9256 0.0
C1192 C 0.34094 0.6089 0.90766 0.0
C1193 C 0.30278 0.62378 0.90592 0.0
C1194 C 0.3178 0.63696 0.88559 0.0
C1195 C 0.27688 0.63457 0.86293 0.0
C1196 C 0.3246 0.65987 0.89869 0.0
C1197 C 0.37039 0.62716 0.87611 0.0
C1198 C 0.38296 0.61093 0.88893 0.0
C1199 C 0.42936 0.59939 0.88317 0.0
C1200 C 0.46376 0.60457 0.86376 0.0
C1201 C 0.45183 0.62127 0.85046 0.0
C1202 C 0.40445 0.63268 0.85697 0.0
H1203 H 0.71268 0.66791 0.85623 0.0
H1204 H 0.76288 0.64937 0.77432 0.0
H1205 H 0.85544 0.64585 0.78947 0.0
H1206 H 0.82885 0.6971 0.88087 0.0
H1207 H 0.82784 0.6881 0.91216 0.0
H1208 H 0.76676 0.6902 0.89453 0.0
H1209 H 0.74606 0.65144 0.8951 0.0
H1210 H 0.80689 0.64926 0.91283 0.0
H1211 H 0.79421 0.63189 0.88196 0.0
H1212 H 0.94336 0.64455 0.81452 0.0
H1213 H 0.01607 0.64345 0.84679 0.0
H1214 H 0.90352 0.66018 0.91145 0.0
C1215 C 0.74316 0.66335 0.8414 0.0
C1216 C 0.73082 0.65916 0.8141 0.0
C1217 C 0.77167 0.65276 0.79537 0.0
C1218 C 0.82428 0.65078 0.80378 0.0
C1219 C 0.83505 0.65503 0.83095 0.0
C1220 C 0.79537 0.66099 0.84942 0.0
C1221 C 0.81613 0.66355 0.87748 0.0
C1222 C 0.8095 0.68608 0.89211 0.0
C1223 C 0.78924 0.64811 0.89273 0.0
C1224 C 0.87385 0.6582 0.87202 0.0
C1225 C 0.88442 0.65351 0.84514 0.0
C1226 C 0.9354 0.64814 0.83562 0.0
C1227 C 0.97641 0.64744 0.85412 0.0
C1228 C 0.96602 0.6519 0.88181 0.0
C1229 C 0.91376 0.65727 0.89058 0.0
H1230 H 0.26459 0.6497 0.30139 0.0
H1231 H 0.21307 0.70934 0.34568 0.0
H1232 H 0.28254 0.70757 0.37897 0.0
H1233 H 0.29377 0.62594 0.35682 0.0
H1234 H 0.35223 0.61247 0.34251 0.0
H1235 H 0.29969 0.61855 0.32127 0.0
H1236 H 0.36639 0.63795 0.29595 0.0
H1237 H 0.41932 0.63179 0.31694 0.0
H1238 H 0.40669 0.65844 0.31417 0.0
H1239 H 0.35274 0.69862 0.40894 0.0
H1240 H 0.42629 0.68425 0.43209 0.0
H1241 H 0.43622 0.63116 0.36812 0.0
C1242 C 0.2683 0.66249 0.31794 0.0
C1243 C 0.23321 0.67965 0.32091 0.0
C1244 C 0.23943 0.69606 0.34287 0.0
C1245 C 0.2787 0.69517 0.36198 0.0
C1246 C 0.3119 0.6779 0.35874 0.0
C1247 C 0.30777 0.66198 0.33713 0.0
C1248 C 0.34883 0.64522 0.33853 0.0
C1249 C 0.32201 0.62431 0.33987 0.0
C1250 C 0.38761 0.64324 0.315 0.0
C1251 C 0.37609 0.65413 0.36451 0.0
C1252 C 0.35379 0.67295 0.37585 0.0
C1253 C 0.37087 0.684 0.4002 0.0
C1254 C 0.41233 0.67572 0.41323 0.0
C1255 C 0.43637 0.65671 0.40179 0.0
C1256 C 0.4182 0.64575 0.37714 0.0
H1257 H 0.78669 0.64124 0.43964 0.0
H1258 H 0.67171 0.61785 0.37835 0.0
H1259 H 0.74135 0.61563 0.34433 0.0
H1260 H 0.86505 0.67173 0.40036 0.0
H1261 H 0.92783 0.6652 0.41364 0.0
H1262 H 0.86852 0.66605 0.43351 0.0
H1263 H 0.88579 0.62824 0.43999 0.0
H1264 H 0.94496 0.62723 0.42 0.0
H1265 H 0.89359 0.60804 0.41127 0.0
H1266 H 0.82044 0.61619 0.31708 0.0
H1267 H 0.90724 0.61889 0.29693 0.0
H1268 H 0.97625 0.639 0.37534 0.0
C1269 C 0.77639 0.63591 0.419 0.0
C1270 C 0.72399 0.62973 0.41151 0.0
C1271 C 0.71175 0.62253 0.38444 0.0
C1272 C 0.75094 0.62126 0.36497 0.0
C1273 C 0.80234 0.62705 0.37291 0.0
C1274 C 0.81551 0.63419 0.39917 0.0
C1275 C 0.87462 0.63867 0.402 0.0
C1276 C 0.88458 0.66179 0.41303 0.0
C1277 C 0.90131 0.62471 0.41934 0.0
C1278 C 0.89215 0.63294 0.37321 0.0
C1279 C 0.84948 0.62643 0.35694 0.0
C1280 C 0.8545 0.62093 0.32959 0.0
C1281 C 0.90456 0.62224 0.31837 0.0
C1282 C 0.94967 0.62861 0.33444 0.0
C1283 C 0.94304 0.63398 0.36236 0.0
H1284 H 0.61656 0.41702 0.16081 0.0
H1285 H 0.51089 0.37262 0.11392 0.0
H1286 H 0.57579 0.36778 0.0769 0.0
H1287 H 0.66314 0.4408 0.10612 0.0
H1288 H 0.72966 0.44443 0.11912 0.0
H1289 H 0.67432 0.44454 0.14145 0.0
H1290 H 0.71873 0.41521 0.16175 0.0
H1291 H 0.77413 0.415 0.13948 0.0
H1292 H 0.73774 0.39141 0.14028 0.0
H1293 H 0.6556 0.36621 0.04631 0.0
H1294 H 0.74096 0.36982 0.02349 0.0
H1295 H 0.7913 0.41656 0.09002 0.0
C1296 C 0.60714 0.4063 0.14272 0.0
C1297 C 0.55904 0.39508 0.14016 0.0
C1298 C 0.54758 0.38139 0.11613 0.0
C1299 C 0.5842 0.37852 0.09509 0.0
C1300 C 0.63161 0.38968 0.09836 0.0
C1301 C 0.64281 0.40348 0.12148 0.0
C1302 C 0.69637 0.41365 0.12003 0.0
C1303 C 0.69049 0.43725 0.12178 0.0
C1304 C 0.73395 0.4085 0.14167 0.0
C1305 C 0.71401 0.40321 0.09265 0.0
C1306 C 0.67633 0.38936 0.08046 0.0
C1307 C 0.6851 0.37721 0.05553 0.0
C1308 C 0.73365 0.37932 0.04276 0.0
C1309 C 0.77242 0.39362 0.05487 0.0
C1310 C 0.76211 0.40574 0.08005 0.0
H1311 H 0.11566 0.3676 0.07952 0.0
H1312 H 0.00942 0.40918 0.13038 0.0
H1313 H 0.07533 0.41238 0.16687 0.0
H1314 H 0.16559 0.34086 0.1308 0.0
H1315 H 0.23181 0.33842 0.11722 0.0
H1316 H 0.17566 0.33915 0.09559 0.0
H1317 H 0.2176 0.37025 0.078 0.0
H1318 H 0.27384 0.36962 0.09955 0.0
H1319 H 0.23612 0.39323 0.10121 0.0
H1320 H 0.15584 0.41268 0.19661 0.0
H1321 H 0.24218 0.40854 0.21814 0.0
H1322 H 0.29328 0.36557 0.14799 0.0
C1323 C 0.10633 0.37739 0.09835 0.0
C1324 C 0.05778 0.38828 0.10218 0.0
C1325 C 0.04646 0.40069 0.12717 0.0
C1326 C 0.08364 0.40262 0.14791 0.0
C1327 C 0.13146 0.39181 0.14337 0.0
C1328 C 0.14259 0.37928 0.11927 0.0
C1329 C 0.19677 0.36932 0.11937 0.0
C1330 C 0.19216 0.34553 0.11552 0.0
C1331 C 0.23322 0.37601 0.09829 0.0
C1332 C 0.21488 0.37845 0.14717 0.0
C1333 C 0.17679 0.39143 0.16071 0.0
C1334 C 0.18568 0.40236 0.18631 0.0
C1335 C 0.23483 0.39995 0.19834 0.0
C1336 C 0.27417 0.38659 0.18482 0.0
C1337 C 0.2637 0.37564 0.15899 0.0
H1338 H 0.76023 0.36347 0.64486 0.0
H1339 H 0.73181 0.4117 0.71346 0.0
H1340 H 0.64838 0.42114 0.69306 0.0
H1341 H 0.71621 0.39294 0.59711 0.0
H1342 H 0.68687 0.37115 0.57539 0.0
H1343 H 0.74208 0.36714 0.59625 0.0
H1344 H 0.68686 0.34049 0.61668 0.0
H1345 H 0.63154 0.34434 0.59577 0.0
H1346 H 0.62306 0.34802 0.63128 0.0
H1347 H 0.56818 0.42536 0.66489 0.0
H1348 H 0.49995 0.42532 0.63001 0.0
H1349 H 0.58392 0.37567 0.57902 0.0
C1350 C 0.73603 0.37579 0.65579 0.0
C1351 C 0.75206 0.38668 0.68089 0.0
C1352 C 0.72 0.40307 0.69427 0.0
C1353 C 0.67257 0.40852 0.68286 0.0
C1354 C 0.65815 0.39758 0.65796 0.0
C1355 C 0.68911 0.38165 0.64452 0.0
C1356 C 0.66635 0.37313 0.61737 0.0
C1357 C 0.70519 0.37629 0.59523 0.0
C1358 C 0.65103 0.35013 0.61516 0.0
C1359 C 0.61772 0.38674 0.61762 0.0
C1360 C 0.61335 0.4006 0.64131 0.0
C1361 C 0.57125 0.4146 0.64625 0.0
C1362 C 0.53271 0.41445 0.62641 0.0
C1363 C 0.53701 0.40059 0.60187 0.0
C1364 C 0.58009 0.38659 0.59751 0.0
H1365 H 0.03498 0.39785 0.61932 0.0
H1366 H 0.03431 0.46192 0.65994 0.0
H1367 H 0.10932 0.46964 0.63211 0.0
H1368 H 0.17008 0.392 0.61798 0.0
H1369 H 0.17461 0.37567 0.58572 0.0
H1370 H 0.11474 0.37587 0.60492 0.0
H1371 H 0.0598 0.38555 0.5661 0.0
H1372 H 0.1196 0.38512 0.54662 0.0
H1373 H 0.07824 0.40798 0.55218 0.0
H1374 H 0.19091 0.46927 0.6052 0.0
H1375 H 0.27349 0.46126 0.57969 0.0
H1376 H 0.22288 0.39717 0.5563 0.0
C1377 C 0.0494 0.41366 0.62153 0.0
C1378 C 0.02864 0.42943 0.64137 0.0
C1379 C 0.04957 0.44977 0.64459 0.0
C1380 C 0.09199 0.45427 0.62887 0.0
C1381 C 0.11288 0.43823 0.61007 0.0
C1382 C 0.09212 0.41836 0.60613 0.0
C1383 C 0.12559 0.40349 0.58668 0.0
C1384 C 0.14755 0.38572 0.59961 0.0
C1385 C 0.09391 0.39504 0.56139 0.0
C1386 C 0.16942 0.41796 0.58108 0.0
C1387 C 0.16085 0.43797 0.59454 0.0
C1388 C 0.19764 0.45377 0.59418 0.0
C1389 C 0.24461 0.44901 0.57978 0.0
C1390 C 0.25449 0.42861 0.56598 0.0
C1391 C 0.216 0.41297 0.56636 0.0
H1392 H 0.12637 0.11781 0.65943 0.0
H1393 H 0.16643 0.17878 0.70336 0.0
H1394 H 0.18585 0.19081 0.66132 0.0
H1395 H 0.22843 0.11873 0.60379 0.0
H1396 H 0.18341 0.10479 0.57958 0.0
H1397 H 0.18334 0.0999 0.61316 0.0
H1398 H 0.08256 0.10795 0.61659 0.0
H1399 H 0.08241 0.11303 0.58327 0.0
H1400 H 0.05884 0.13258 0.61014 0.0
H1401 H 0.17704 0.19838 0.6156 0.0
H1402 H 0.15324 0.19947 0.56885 0.0
H1403 H 0.12988 0.13288 0.55401 0.0
C1404 C 0.14117 0.13344 0.66011 0.0
C1405 C 0.14506 0.14739 0.6844 0.0
C1406 C 0.16388 0.16782 0.68484 0.0
C1407 C 0.17497 0.17478 0.66109 0.0
C1408 C 0.1687 0.16089 0.63727 0.0
C1409 C 0.15384 0.14043 0.63663 0.0
C1410 C 0.1456 0.12915 0.60845 0.0
C1411 C 0.18772 0.11214 0.6008 0.0
C1412 C 0.089 0.12018 0.6044 0.0
C1413 C 0.154 0.14685 0.59352 0.0
C1414 C 0.16768 0.16502 0.61045 0.0
C1415 C 0.1687 0.18413 0.60192 0.0
C1416 C 0.15491 0.18466 0.5755 0.0
C1417 C 0.14144 0.16617 0.55805 0.0
C1418 C 0.14228 0.14704 0.56694 0.0
H1419 H 0.93709 0.87772 0.41401 0.0
H1420 H 0.80364 0.91466 0.44905 0.0
H1421 H 0.77611 0.92012 0.40419 0.0
H1422 H 0.97313 0.90862 0.37039 0.0
H1423 H 0.99227 0.88786 0.34396 0.0
H1424 H 0.99525 0.88408 0.37782 0.0
H1425 H 0.93411 0.8518 0.36647 0.0
H1426 H 0.93118 0.85541 0.33239 0.0
H1427 H 0.87074 0.85417 0.3509 0.0
H1428 H 0.77024 0.92451 0.35521 0.0
H1429 H 0.7883 0.92791 0.3083 0.0
H1430 H 0.92715 0.8888 0.30799 0.0
C1431 C 0.90144 0.88665 0.41228 0.0
C1432 C 0.87253 0.89583 0.43487 0.0
C1433 C 0.82613 0.9074 0.43183 0.0
C1434 C 0.81023 0.91054 0.40647 0.0
C1435 C 0.84083 0.90172 0.38457 0.0
C1436 C 0.88521 0.88983 0.38737 0.0
C1437 C 0.91449 0.8835 0.36151 0.0
C1438 C 0.97215 0.89151 0.36356 0.0
C1439 C 0.91248 0.85981 0.35228 0.0
C1440 C 0.88136 0.89452 0.34385 0.0
C1441 C 0.83822 0.90457 0.3571 0.0
C1442 C 0.80359 0.9165 0.34463 0.0
C1443 C 0.81404 0.91839 0.31812 0.0
C1444 C 0.85937 0.9088 0.30497 0.0
C1445 C 0.89253 0.89646 0.31785 0.0
H1446 H 0.03464 0.64697 0.06602 0.0
H1447 H 0.19291 0.6233 0.04523 0.0
H1448 H 0.22062 0.63383 0.09227 0.0
H1449 H 0.07621 0.6919 0.11344 0.0
H1450 H 0.02029 0.6903 0.13497 0.0
H1451 H 0.01407 0.68129 0.09972 0.0
H1452 H 0.98375 0.64501 0.10782 0.0
H1453 H 0.9886 0.65409 0.14301 0.0
H1454 H 0.02451 0.63119 0.12784 0.0
H1455 H 0.228 0.64531 0.14281 0.0
H1456 H 0.21219 0.65412 0.19137 0.0
H1457 H 0.05096 0.67222 0.17657 0.0
C1458 C 0.07511 0.64383 0.07127 0.0
C1459 C 0.1115 0.63413 0.05208 0.0
C1460 C 0.1643 0.6306 0.05976 0.0
C1461 C 0.18045 0.63669 0.08633 0.0
C1462 C 0.14355 0.6466 0.10468 0.0
C1463 C 0.09198 0.65011 0.09734 0.0
C1464 C 0.05913 0.66048 0.12058 0.0
C1465 C 0.0414 0.68229 0.11695 0.0
C1466 C 0.01122 0.64688 0.12508 0.0
C1467 C 0.09957 0.66163 0.1425 0.0
C1468 C 0.14833 0.65381 0.13309 0.0
C1469 C 0.19026 0.65178 0.15031 0.0
C1470 C 0.18116 0.65699 0.17783 0.0
C1471 C 0.13045 0.66394 0.18757 0.0
C1472 C 0.09025 0.66713 0.16962 0.0
H1473 H 0.96201 0.35163 0.90872 0.0
H1474 H 0.80602 0.37446 0.93563 0.0
H1475 H 0.78207 0.37714 0.8895 0.0
H1476 H 0.98364 0.38586 0.86825 0.0
H1477 H 0.0186 0.36852 0.84262 0.0
H1478 H 0.01904 0.36377 0.87609 0.0
H1479 H 0.98136 0.32677 0.86011 0.0
H1480 H 0.98126 0.33133 0.82639 0.0
H1481 H 0.92102 0.32349 0.84086 0.0
H1482 H 0.78071 0.38256 0.84185 0.0
H1483 H 0.80285 0.39078 0.79769 0.0
H1484 H 0.96064 0.36538 0.8033 0.0
C1485 C 0.92219 0.35657 0.90484 0.0
C1486 C 0.88583 0.36278 0.92569 0.0
C1487 C 0.83438 0.36947 0.91987 0.0
C1488 C 0.8204 0.37099 0.89372 0.0
C1489 C 0.85813 0.36555 0.87373 0.0
C1490 C 0.90785 0.35827 0.87902 0.0
C1491 C 0.94372 0.35596 0.85501 0.0
C1492 C 0.99417 0.36933 0.86086 0.0
C1493 C 0.95764 0.33302 0.845 0.0
C1494 C 0.90752 0.36418 0.83579 0.0
C1495 C 0.85783 0.36912 0.84658 0.0
C1496 C 0.81915 0.37839 0.83303 0.0
C1497 C 0.83204 0.38303 0.80803 0.0
C1498 C 0.88346 0.37876 0.79728 0.0
C1499 C 0.92101 0.36881 0.8111 0.0
H1500 H 0.54843 0.16783 0.17623 0.0
H1501 H 0.70566 0.14469 0.18974 0.0
H1502 H 0.72748 0.14352 0.14224 0.0
H1503 H 0.52551 0.13641 0.11583 0.0
H1504 H 0.49044 0.1557 0.10142 0.0
H1505 H 0.49025 0.15708 0.13681 0.0
H1506 H 0.52762 0.19459 0.14333 0.0
H1507 H 0.52776 0.19335 0.10786 0.0
H1508 H 0.58799 0.19959 0.12662 0.0
H1509 H 0.72747 0.14124 0.09207 0.0
H1510 H 0.7062 0.13851 0.04433 0.0
H1511 H 0.54943 0.16382 0.06523 0.0
C1512 C 0.58778 0.1628 0.16933 0.0
C1513 C 0.62534 0.15628 0.18652 0.0
C1514 C 0.6764 0.14982 0.1768 0.0
C1515 C 0.68912 0.14914 0.14992 0.0
C1516 C 0.65055 0.15527 0.13332 0.0
C1517 C 0.60111 0.16218 0.14281 0.0
C1518 C 0.56533 0.16671 0.12089 0.0
C1519 C 0.51495 0.15316 0.11861 0.0
C1520 C 0.55137 0.18994 0.12492 0.0
C1521 C 0.60152 0.16051 0.09732 0.0
C1522 C 0.65076 0.15418 0.10479 0.0
C1523 C 0.68937 0.14648 0.08605 0.0
C1524 C 0.67693 0.14497 0.05901 0.0
C1525 C 0.62621 0.15101 0.05112 0.0
C1526 C 0.58867 0.15921 0.07061 0.0
H1527 H 0.32436 0.88706 0.79755 0.0
H1528 H 0.30987 0.95327 0.82542 0.0
H1529 H 0.28262 0.94669 0.86958 0.0
H1530 H 0.22194 0.86844 0.84453 0.0
H1531 H 0.26543 0.8473 0.84837 0.0
H1532 H 0.2628 0.85638 0.81713 0.0
H1533 H 0.36454 0.86185 0.819 0.0
H1534 H 0.36762 0.85315 0.85019 0.0
H1535 H 0.39347 0.87837 0.84743 0.0
H1536 H 0.27759 0.93385 0.91206 0.0
H1537 H 0.30477 0.91695 0.9493 0.0
H1538 H 0.33264 0.85942 0.89444 0.0
C1539 C 0.3125 0.9001 0.81247 0.0
C1540 C 0.31807 0.92063 0.80803 0.0
C1541 C 0.30495 0.93741 0.82843 0.0
C1542 C 0.28914 0.93377 0.85348 0.0
C1543 C 0.2872 0.91329 0.85776 0.0
C1544 C 0.29858 0.89669 0.8377 0.0
C1545 C 0.30631 0.8768 0.84844 0.0
C1546 C 0.26142 0.86132 0.83906 0.0
C1547 C 0.36123 0.86701 0.84083 0.0
C1548 C 0.30208 0.8851 0.87787 0.0
C1549 C 0.28823 0.90592 0.88279 0.0
C1550 C 0.28717 0.91746 0.90847 0.0
C1551 C 0.30271 0.90774 0.9295 0.0
C1552 C 0.32068 0.88691 0.92452 0.0
C1553 C 0.31849 0.8753 0.8986 0.0
H1554 H 0.58653 0.62843 0.55705 0.0
H1555 H 0.7116 0.67361 0.55573 0.0
H1556 H 0.72606 0.67508 0.6042 0.0
H1557 H 0.5282 0.65154 0.61385 0.0
H1558 H 0.5108 0.62806 0.62567 0.0
H1559 H 0.51823 0.62763 0.59069 0.0
H1560 H 0.58854 0.59833 0.58758 0.0
H1561 H 0.58069 0.59838 0.6226 0.0
H1562 H 0.64557 0.60188 0.6092 0.0
H1563 H 0.71625 0.67485 0.6544 0.0
H1564 H 0.68509 0.67244 0.69986 0.0
H1565 H 0.56522 0.62796 0.666 0.0
C1566 C 0.61799 0.63822 0.56685 0.0
C1567 C 0.64803 0.65091 0.55298 0.0
C1568 C 0.68871 0.66361 0.5662 0.0
C1569 C 0.69696 0.66454 0.59364 0.0
C1570 C 0.66476 0.6524 0.60708 0.0
C1571 C 0.62666 0.63922 0.59385 0.0
C1572 C 0.59359 0.62916 0.61258 0.0
C1573 C 0.53424 0.63443 0.61057 0.0
C1574 C 0.60267 0.60554 0.6077 0.0
C1575 C 0.61696 0.63947 0.63871 0.0
C1576 C 0.65867 0.65251 0.63537 0.0
C1577 C 0.68417 0.66444 0.65714 0.0
C1578 C 0.6662 0.66304 0.68283 0.0
C1579 C 0.62257 0.65014 0.68629 0.0
C1580 C 0.59844 0.63807 0.66393 0.0
H1581 H 0.3721 0.3832 0.30799 0.0
H1582 H 0.318 0.44697 0.32518 0.0
H1583 H 0.28255 0.44122 0.36848 0.0
H1584 H 0.26836 0.35913 0.3473 0.0
H1585 H 0.3179 0.3429 0.35873 0.0
H1586 H 0.32407 0.34992 0.32635 0.0
H1587 H 0.418 0.36472 0.33863 0.0
H1588 H 0.41219 0.35775 0.37085 0.0
H1589 H 0.42645 0.38427 0.36801 0.0
H1590 H 0.26473 0.43018 0.41161 0.0
H1591 H 0.28025 0.41763 0.45345 0.0
H1592 H 0.35587 0.36227 0.40999 0.0
C1593 C 0.35074 0.39563 0.32051 0.0
C1594 C 0.34625 0.41534 0.31332 0.0
C1595 C 0.32073 0.43169 0.33044 0.0
C1596 C 0.30017 0.42847 0.35486 0.0
C1597 C 0.30642 0.40893 0.36185 0.0
C1598 C 0.33176 0.39284 0.34526 0.0
C1599 C 0.3436 0.37492 0.3594 0.0
C1600 C 0.31155 0.35557 0.34722 0.0
C1601 C 0.40359 0.37017 0.35922 0.0
C1602 C 0.32385 0.3839 0.38698 0.0
C1603 C 0.30026 0.40309 0.38764 0.0
C1604 C 0.28258 0.41509 0.41128 0.0
C1605 C 0.2917 0.40782 0.43501 0.0
C1606 C 0.31997 0.38909 0.43498 0.0
C1607 C 0.33402 0.3766 0.41056 0.0
loop_
_geom_bond_atom_site_label_1
_geom_bond_atom_site_label_2
_geom_bond_distance
_geom_bond_site_symmetry_2
_ccdc_geom_bond_type
C0 C1 1.351 . S
C0 N3 1.368 . S
C0 H5 0.931 . S
C1 C0 1.351 . S
C1 N2 1.373 . S
C1 H29 0.930 . S
N2 C1 1.373 . S
N2 C4 1.340 . S
N3 C0 1.368 . S
N3 C4 1.321 . S
N3 Co6 2.135 . S
C4 N2 1.340 . S
C4 N3 1.321 . S
C4 H28 0.930 . S
H5 C0 0.931 . S
Co6 N3 2.135 . S
Co6 N9 2.121 . S
Co6 O14 2.055 . S
Co6 O17 2.039 . S
Co6 N20 2.140 . S
C7 O8 1.227 . S
C7 O17 1.265 . S
O8 C7 1.227 . S
N9 Co6 2.121 . S
N9 C11 1.375 . S
N9 C12 1.313 . S
C10 C11 1.338 . S
C10 N13 1.377 . S
C10 H30 0.930 . S
C11 N9 1.375 . S
C11 C10 1.338 . S
C11 H15 0.931 . S
C12 N9 1.313 . S
C12 N13 1.344 . S
C12 H16 0.930 . S
N13 C10 1.377 . S
N13 C12 1.344 . S
O14 Co6 2.055 . S
O14 C18 1.253 . S
H15 C11 0.931 . S
H16 C12 0.930 . S
O17 Co6 2.039 . S
O17 C7 1.265 . S
C18 O14 1.253 . S
C18 O19 1.227 . S
O19 C18 1.227 . S
N20 Co6 2.140 . S
N20 C23 1.346 . S
N20 C24 1.345 1_455 S
C21 C22 1.387 . S
C21 C25 1.391 . S
C22 C21 1.387 . S
C22 C23 1.369 1_655 S
C22 H31 0.929 . S
C23 N20 1.346 . S
C23 C22 1.369 1_455 S
C23 H26 0.928 . S
C24 N20 1.345 1_655 S
C24 C25 1.371 . S
C24 H27 0.931 . S
C25 C21 1.391 . S
C25 C24 1.371 . S
C25 H32 0.930 . S
H26 C23 0.928 . S
H27 C24 0.931 . S
H28 C4 0.930 . S
H29 C1 0.930 . S
H30 C10 0.930 . S
H31 C22 0.929 . S
H32 C25 0.930 . S
C33 C34 1.351 . S
C33 N36 1.368 . S
C33 H38 0.931 . S
C34 C33 1.351 . S
C34 N35 1.373 . S
C34 H62 0.930 . S
N35 C34 1.373 . S
N35 C37 1.340 . S
N36 C33 1.368 . S
N36 C37 1.321 . S
N36 Co39 2.135 . S
C37 N35 1.340 . S
C37 N36 1.321 . S
C37 H61 0.930 . S
H38 C33 0.931 . S
Co39 N36 2.135 . S
Co39 N42 2.121 . S
Co39 O47 2.055 . S
Co39 O50 2.039 . S
Co39 N53 2.140 . S
C40 O41 1.227 . S
C40 O50 1.265 . S
O41 C40 1.227 . S
N42 Co39 2.121 . S
N42 C44 1.375 . S
N42 C45 1.313 . S
C43 C44 1.338 . S
C43 N46 1.377 . S
C43 H63 0.930 . S
C44 N42 1.375 . S
C44 C43 1.338 . S
C44 H48 0.931 . S
C45 N42 1.313 . S
C45 N46 1.344 . S
C45 H49 0.930 . S
N46 C43 1.377 . S
N46 C45 1.344 . S
O47 Co39 2.055 . S
O47 C51 1.253 . S
H48 C44 0.931 . S
H49 C45 0.930 . S
O50 Co39 2.039 . S
O50 C40 1.265 . S
C51 O47 1.253 . S
C51 O52 1.227 . S
O52 C51 1.227 . S
N53 Co39 2.140 . S
N53 C56 1.346 . S
N53 C57 1.345 1_455 S
C54 C55 1.387 . S
C54 C58 1.391 . S
C55 C54 1.387 . S
C55 C56 1.369 1_655 S
C55 H64 0.929 . S
C56 N53 1.346 . S
C56 C55 1.369 1_455 S
C56 H59 0.928 . S
C57 N53 1.345 1_655 S
C57 C58 1.371 . S
C57 H60 0.931 . S
C58 C54 1.391 . S
C58 C57 1.371 . S
C58 H65 0.930 . S
H59 C56 0.928 . S
H60 C57 0.931 . S
H61 C37 0.930 . S
H62 C34 0.930 . S
H63 C43 0.930 . S
H64 C55 0.929 . S
H65 C58 0.930 . S
C66 C67 1.351 . S
C66 N69 1.368 . S
C66 H71 0.931 . S
C67 C66 1.351 . S
C67 N68 1.373 . S
C67 H95 0.930 . S
N68 C67 1.373 . S
N68 C70 1.340 . S
N69 C66 1.368 . S
N69 C70 1.321 . S
N69 Co72 2.135 . S
C70 N68 1.340 . S
C70 N69 1.321 . S
C70 H94 0.930 . S
H71 C66 0.931 . S
Co72 N69 2.135 . S
Co72 N75 2.121 . S
Co72 O80 2.055 . S
Co72 O83 2.039 . S
Co72 N86 2.140 . S
C73 O74 1.227 . S
C73 O83 1.265 . S
O74 C73 1.227 . S
N75 Co72 2.121 . S
N75 C77 1.375 . S
N75 C78 1.313 . S
C76 C77 1.338 . S
C76 N79 1.377 . S
C76 H96 0.930 . S
C77 N75 1.375 . S
C77 C76 1.338 . S
C77 H81 0.931 . S
C78 N75 1.313 . S
C78 N79 1.344 . S
C78 H82 0.930 . S
N79 C76 1.377 . S
N79 C78 1.344 . S
O80 Co72 2.055 . S
O80 C84 1.253 . S
H81 C77 0.931 . S
H82 C78 0.930 . S
O83 Co72 2.039 . S
O83 C73 1.265 . S
C84 O80 1.253 . S
C84 O85 1.227 . S
O85 C84 1.227 . S
N86 Co72 2.140 . S
N86 C89 1.346 . S
N86 C90 1.345 1_655 S
C87 C88 1.387 . S
C87 C91 1.391 . S
C88 C87 1.387 . S
C88 C89 1.369 1_455 S
C88 H97 0.929 . S
C89 N86 1.346 . S
C89 C88 1.369 1_655 S
C89 H92 0.928 . S
C90 N86 1.345 1_455 S
C90 C91 1.371 . S
C90 H93 0.931 . S
C91 C87 1.391 . S
C91 C90 1.371 . S
C91 H98 0.930 . S
H92 C89 0.928 . S
H93 C90 0.931 . S
H94 C70 0.930 . S
H95 C67 0.930 . S
H96 C76 0.930 . S
H97 C88 0.929 . S
H98 C91 0.930 . S
C99 C100 1.351 . S
C99 N102 1.368 . S
C99 H104 0.931 . S
C100 C99 1.351 . S
C100 N101 1.373 . S
C100 H128 0.930 . S
N101 C100 1.373 . S
N101 C103 1.340 . S
N102 C99 1.368 . S
N102 C103 1.321 . S
N102 Co105 2.135 . S
C103 N101 1.340 . S
C103 N102 1.321 . S
C103 H127 0.930 . S
H104 C99 0.931 . S
Co105 N102 2.135 . S
Co105 N108 2.121 . S
Co105 O113 2.055 . S
Co105 O116 2.039 . S
Co105 N119 2.140 . S
C106 O107 1.227 . S
C106 O116 1.265 . S
O107 C106 1.227 . S
N108 Co105 2.121 . S
N108 C110 1.375 . S
N108 C111 1.313 . S
C109 C110 1.338 . S
C109 N112 1.377 . S
C109 H129 0.930 . S
C110 N108 1.375 . S
C110 C109 1.338 . S
C110 H114 0.931 . S
C111 N108 1.313 . S
C111 N112 1.344 . S
C111 H115 0.930 . S
N112 C109 1.377 . S
N112 C111 1.344 . S
O113 Co105 2.055 . S
O113 C117 1.253 . S
H114 C110 0.931 . S
H115 C111 0.930 . S
O116 Co105 2.039 . S
O116 C106 1.265 . S
C117 O113 1.253 . S
C117 O118 1.227 . S
O118 C117 1.227 . S
N119 Co105 2.140 . S
N119 C122 1.346 . S
N119 C123 1.345 1_655 S
C120 C121 1.387 . S
C120 C124 1.391 . S
C121 C120 1.387 . S
C121 C122 1.369 1_455 S
C121 H130 0.929 . S
C122 N119 1.346 . S
C122 C121 1.369 1_655 S
C122 H125 0.928 . S
C123 N119 1.345 1_455 S
C123 C124 1.371 . S
C123 H126 0.931 . S
C124 C120 1.391 . S
C124 C123 1.371 . S
C124 H131 0.930 . S
H125 C122 0.928 . S
H126 C123 0.931 . S
H127 C103 0.930 . S
H128 C100 0.930 . S
H129 C109 0.930 . S
H130 C121 0.929 . S
H131 C124 0.930 . S
C132 C133 1.351 . S
C132 N135 1.368 1_554 S
C132 H137 0.931 . S
C133 C132 1.351 . S
C133 N134 1.373 1_554 S
C133 H161 0.930 . S
N134 C133 1.373 1_556 S
N134 C136 1.340 . S
N135 C132 1.368 1_556 S
N135 C136 1.321 . S
N135 Co138 2.135 . S
C136 N134 1.340 . S
C136 N135 1.321 . S
C136 H160 0.930 . S
H137 C132 0.931 . S
Co138 N135 2.135 . S
Co138 N141 2.121 . S
Co138 O146 2.055 1_556 S
Co138 O149 2.039 . S
Co138 N152 2.140 . S
C139 O140 1.227 . S
C139 O149 1.265 . S
O140 C139 1.227 . S
N141 Co138 2.121 . S
N141 C143 1.375 . S
N141 C144 1.313 . S
C142 C143 1.338 . S
C142 N145 1.377 . S
C142 H162 0.930 . S
C143 N141 1.375 . S
C143 C142 1.338 . S
C143 H147 0.931 . S
C144 N141 1.313 . S
C144 N145 1.344 . S
C144 H148 0.930 1_556 S
N145 C142 1.377 . S
N145 C144 1.344 . S
O146 Co138 2.055 1_554 S
O146 C150 1.253 . S
H147 C143 0.931 . S
H148 C144 0.930 1_554 S
O149 Co138 2.039 . S
O149 C139 1.265 . S
C150 O146 1.253 . S
C150 O151 1.227 . S
O151 C150 1.227 . S
N152 Co138 2.140 . S
N152 C155 1.346 . S
N152 C156 1.345 1_455 S
C153 C154 1.387 . S
C153 C157 1.391 . S
C154 C153 1.387 . S
C154 C155 1.369 1_655 S
C154 H163 0.929 . S
C155 N152 1.346 . S
C155 C154 1.369 1_455 S
C155 H158 0.928 . S
C156 N152 1.345 1_655 S
C156 C157 1.371 . S
C156 H159 0.931 . S
C157 C153 1.391 . S
C157 C156 1.371 . S
C157 H164 0.930 . S
H158 C155 0.928 . S
H159 C156 0.931 . S
H160 C136 0.930 . S
H161 C133 0.930 . S
H162 C142 0.930 . S
H163 C154 0.929 . S
H164 C157 0.930 . S
C165 C166 1.351 . S
C165 N168 1.368 . S
C165 H170 0.931 . S
C166 C165 1.351 . S
C166 N167 1.373 . S
C166 H194 0.930 . S
N167 C166 1.373 . S
N167 C169 1.340 . S
N168 C165 1.368 . S
N168 C169 1.321 . S
N168 Co171 2.135 . S
C169 N167 1.340 . S
C169 N168 1.321 . S
C169 H193 0.930 . S
H170 C165 0.931 . S
Co171 N168 2.135 . S
Co171 N174 2.121 . S
Co171 O179 2.055 . S
Co171 O182 2.039 . S
Co171 N185 2.140 . S
C172 O173 1.227 . S
C172 O182 1.265 . S
O173 C172 1.227 . S
N174 Co171 2.121 . S
N174 C176 1.375 . S
N174 C177 1.313 . S
C175 C176 1.338 . S
C175 N178 1.377 . S
C175 H195 0.930 . S
C176 N174 1.375 . S
C176 C175 1.338 . S
C176 H180 0.931 . S
C177 N174 1.313 . S
C177 N178 1.344 . S
C177 H181 0.930 . S
N178 C175 1.377 . S
N178 C177 1.344 . S
O179 Co171 2.055 . S
O179 C183 1.253 . S
H180 C176 0.931 . S
H181 C177 0.930 . S
O182 Co171 2.039 . S
O182 C172 1.265 . S
C183 O179 1.253 . S
C183 O184 1.227 . S
O184 C183 1.227 . S
N185 Co171 2.140 . S
N185 C188 1.346 . S
N185 C189 1.345 1_455 S
C186 C187 1.387 . S
C186 C190 1.391 . S
C187 C186 1.387 . S
C187 C188 1.369 1_655 S
C187 H196 0.929 . S
C188 N185 1.346 . S
C188 C187 1.369 1_455 S
C188 H191 0.928 . S
C189 N185 1.345 1_655 S
C189 C190 1.371 . S
C189 H192 0.931 . S
C190 C186 1.391 . S
C190 C189 1.371 . S
C190 H197 0.930 . S
H191 C188 0.928 . S
H192 C189 0.931 . S
H193 C169 0.930 . S
H194 C166 0.930 . S
H195 C175 0.930 . S
H196 C187 0.929 . S
H197 C190 0.930 . S
C198 C199 1.351 . S
C198 N201 1.368 1_556 S
C198 H203 0.931 . S
C199 C198 1.351 . S
C199 N200 1.373 1_556 S
C199 H227 0.930 . S
N200 C199 1.373 1_554 S
N200 C202 1.340 . S
N201 C198 1.368 1_554 S
N201 C202 1.321 . S
N201 Co204 2.135 . S
C202 N200 1.340 . S
C202 N201 1.321 . S
C202 H226 0.930 . S
H203 C198 0.931 . S
Co204 N201 2.135 . S
Co204 N207 2.121 . S
Co204 O212 2.055 1_554 S
Co204 O215 2.039 . S
Co204 N218 2.140 . S
C205 O206 1.227 . S
C205 O215 1.265 . S
O206 C205 1.227 . S
N207 Co204 2.121 . S
N207 C209 1.375 . S
N207 C210 1.313 . S
C208 C209 1.338 . S
C208 N211 1.377 . S
C208 H228 0.930 . S
C209 N207 1.375 . S
C209 C208 1.338 . S
C209 H213 0.931 . S
C210 N207 1.313 . S
C210 N211 1.344 . S
C210 H214 0.930 1_554 S
N211 C208 1.377 . S
N211 C210 1.344 . S
O212 Co204 2.055 1_556 S
O212 C216 1.253 . S
H213 C209 0.931 . S
H214 C210 0.930 1_556 S
O215 Co204 2.039 . S
O215 C205 1.265 . S
C216 O212 1.253 . S
C216 O217 1.227 . S
O217 C216 1.227 . S
N218 Co204 2.140 . S
N218 C221 1.346 . S
N218 C222 1.345 1_655 S
C219 C220 1.387 . S
C219 C223 1.391 . S
C220 C219 1.387 . S
C220 C221 1.369 1_455 S
C220 H229 0.929 . S
C221 N218 1.346 . S
C221 C220 1.369 1_655 S
C221 H224 0.928 . S
C222 N218 1.345 1_455 S
C222 C223 1.371 . S
C222 H225 0.931 . S
C223 C219 1.391 . S
C223 C222 1.371 . S
C223 H230 0.930 . S
H224 C221 0.928 . S
H225 C222 0.931 . S
H226 C202 0.930 . S
H227 C199 0.930 . S
H228 C208 0.930 . S
H229 C220 0.929 . S
H230 C223 0.930 . S
C231 C232 1.351 . S
C231 N234 1.368 . S
C231 H236 0.931 . S
C232 C231 1.351 . S
C232 N233 1.373 . S
C232 H260 0.930 . S
N233 C232 1.373 . S
N233 C235 1.340 . S
N234 C231 1.368 . S
N234 C235 1.321 . S
N234 Co237 2.135 . S
C235 N233 1.340 . S
C235 N234 1.321 . S
C235 H259 0.930 . S
H236 C231 0.931 . S
Co237 N234 2.135 . S
Co237 N240 2.121 . S
Co237 O245 2.055 . S
Co237 O248 2.039 . S
Co237 N251 2.140 . S
C238 O239 1.227 . S
C238 O248 1.265 . S
O239 C238 1.227 . S
N240 Co237 2.121 . S
N240 C242 1.375 . S
N240 C243 1.313 . S
C241 C242 1.338 . S
C241 N244 1.377 . S
C241 H261 0.930 . S
C242 N240 1.375 . S
C242 C241 1.338 . S
C242 H246 0.931 . S
C243 N240 1.313 . S
C243 N244 1.344 . S
C243 H247 0.930 . S
N244 C241 1.377 . S
N244 C243 1.344 . S
O245 Co237 2.055 . S
O245 C249 1.253 . S
H246 C242 0.931 . S
H247 C243 0.930 . S
O248 Co237 2.039 . S
O248 C238 1.265 . S
C249 O245 1.253 . S
C249 O250 1.227 . S
O250 C249 1.227 . S
N251 Co237 2.140 . S
N251 C254 1.346 . S
N251 C255 1.345 1_655 S
C252 C253 1.387 . S
C252 C256 1.391 . S
C253 C252 1.387 . S
C253 C254 1.369 1_455 S
C253 H262 0.929 . S
C254 N251 1.346 . S
C254 C253 1.369 1_655 S
C254 H257 0.928 . S
C255 N251 1.345 1_455 S
C255 C256 1.371 . S
C255 H258 0.931 . S
C256 C252 1.391 . S
C256 C255 1.371 . S
C256 H263 0.930 . S
H257 C254 0.928 . S
H258 C255 0.931 . S
H259 C235 0.930 . S
H260 C232 0.930 . S
H261 C241 0.930 . S
H262 C253 0.929 . S
H263 C256 0.930 . S
C264 C265 1.351 . S
C264 N267 1.368 1_554 S
C264 H269 0.931 . S
C265 C264 1.351 . S
C265 N266 1.373 1_554 S
C265 H293 0.930 . S
N266 C265 1.373 1_556 S
N266 C268 1.340 . S
N267 C264 1.368 1_556 S
N267 C268 1.321 . S
N267 Co270 2.135 . S
C268 N266 1.340 . S
C268 N267 1.321 . S
C268 H292 0.930 . S
H269 C264 0.931 . S
Co270 N267 2.135 . S
Co270 N273 2.121 . S
Co270 O278 2.055 1_556 S
Co270 O281 2.039 . S
Co270 N284 2.140 . S
C271 O272 1.227 . S
C271 O281 1.265 . S
O272 C271 1.227 . S
N273 Co270 2.121 . S
N273 C275 1.375 . S
N273 C276 1.313 . S
C274 C275 1.338 . S
C274 N277 1.377 . S
C274 H294 0.930 . S
C275 N273 1.375 . S
C275 C274 1.338 . S
C275 H279 0.931 . S
C276 N273 1.313 . S
C276 N277 1.344 . S
C276 H280 0.930 1_556 S
N277 C274 1.377 . S
N277 C276 1.344 . S
O278 Co270 2.055 1_554 S
O278 C282 1.253 . S
H279 C275 0.931 . S
H280 C276 0.930 1_554 S
O281 Co270 2.039 . S
O281 C271 1.265 . S
C282 O278 1.253 . S
C282 O283 1.227 . S
O283 C282 1.227 . S
N284 Co270 2.140 . S
N284 C287 1.346 . S
N284 C288 1.345 . S
C285 C286 1.387 . S
C285 C289 1.391 . S
C286 C285 1.387 . S
C286 C287 1.369 . S
C286 H295 0.929 . S
C287 N284 1.346 . S
C287 C286 1.369 . S
C287 H290 0.928 . S
C288 N284 1.345 . S
C288 C289 1.371 . S
C288 H291 0.931 . S
C289 C285 1.391 . S
C289 C288 1.371 . S
C289 H296 0.930 . S
H290 C287 0.928 . S
H291 C288 0.931 . S
H292 C268 0.930 . S
H293 C265 0.930 . S
H294 C274 0.930 . S
H295 C286 0.929 . S
H296 C289 0.930 . S
C297 C298 1.351 . S
C297 N300 1.368 . S
C297 H302 0.931 . S
C298 C297 1.351 . S
C298 N299 1.373 . S
C298 H326 0.930 . S
N299 C298 1.373 . S
N299 C301 1.340 . S
N300 C297 1.368 . S
N300 C301 1.321 . S
N300 Co303 2.135 . S
C301 N299 1.340 . S
C301 N300 1.321 . S
C301 H325 0.930 . S
H302 C297 0.931 . S
Co303 N300 2.135 . S
Co303 N306 2.121 . S
Co303 O311 2.055 . S
Co303 O314 2.039 . S
Co303 N317 2.140 . S
C304 O305 1.227 . S
C304 O314 1.265 . S
O305 C304 1.227 . S
N306 Co303 2.121 . S
N306 C308 1.375 . S
N306 C309 1.313 . S
C307 C308 1.338 . S
C307 N310 1.377 . S
C307 H327 0.930 . S
C308 N306 1.375 . S
C308 C307 1.338 . S
C308 H312 0.931 . S
C309 N306 1.313 . S
C309 N310 1.344 . S
C309 H313 0.930 . S
N310 C307 1.377 . S
N310 C309 1.344 . S
O311 Co303 2.055 . S
O311 C315 1.253 . S
H312 C308 0.931 . S
H313 C309 0.930 . S
O314 Co303 2.039 . S
O314 C304 1.265 . S
C315 O311 1.253 . S
C315 O316 1.227 . S
O316 C315 1.227 . S
N317 Co303 2.140 . S
N317 C320 1.346 . S
N317 C321 1.345 . S
C318 C319 1.387 . S
C318 C322 1.391 . S
C319 C318 1.387 . S
C319 C320 1.369 . S
C319 H328 0.929 . S
C320 N317 1.346 . S
C320 C319 1.369 . S
C320 H323 0.928 . S
C321 N317 1.345 . S
C321 C322 1.371 . S
C321 H324 0.931 . S
C322 C318 1.391 . S
C322 C321 1.371 . S
C322 H329 0.930 . S
H323 C320 0.928 . S
H324 C321 0.931 . S
H325 C301 0.930 . S
H326 C298 0.930 . S
H327 C307 0.930 . S
H328 C319 0.929 . S
H329 C322 0.930 . S
C330 C331 1.351 . S
C330 N333 1.368 1_556 S
C330 H335 0.931 . S
C331 C330 1.351 . S
C331 N332 1.373 1_556 S
C331 H359 0.930 . S
N332 C331 1.373 1_554 S
N332 C334 1.340 . S
N333 C330 1.368 1_554 S
N333 C334 1.321 . S
N333 Co336 2.135 . S
C334 N332 1.340 . S
C334 N333 1.321 . S
C334 H358 0.930 . S
H335 C330 0.931 . S
Co336 N333 2.135 . S
Co336 N339 2.121 . S
Co336 O344 2.055 1_554 S
Co336 O347 2.039 . S
Co336 N350 2.140 . S
C337 O338 1.227 . S
C337 O347 1.265 . S
O338 C337 1.227 . S
N339 Co336 2.121 . S
N339 C341 1.375 . S
N339 C342 1.313 . S
C340 C341 1.338 . S
C340 N343 1.377 . S
C340 H360 0.930 . S
C341 N339 1.375 . S
C341 C340 1.338 . S
C341 H345 0.931 . S
C342 N339 1.313 . S
C342 N343 1.344 . S
C342 H346 0.930 1_554 S
N343 C340 1.377 . S
N343 C342 1.344 . S
O344 Co336 2.055 1_556 S
O344 C348 1.253 . S
H345 C341 0.931 . S
H346 C342 0.930 1_556 S
O347 Co336 2.039 . S
O347 C337 1.265 . S
C348 O344 1.253 . S
C348 O349 1.227 . S
O349 C348 1.227 . S
N350 Co336 2.140 . S
N350 C353 1.346 . S
N350 C354 1.345 . S
C351 C352 1.387 . S
C351 C355 1.391 . S
C352 C351 1.387 . S
C352 C353 1.369 . S
C352 H361 0.929 . S
C353 N350 1.346 . S
C353 C352 1.369 . S
C353 H356 0.928 . S
C354 N350 1.345 . S
C354 C355 1.371 . S
C354 H357 0.931 . S
C355 C351 1.391 . S
C355 C354 1.371 . S
C355 H362 0.930 . S
H356 C353 0.928 . S
H357 C354 0.931 . S
H358 C334 0.930 . S
H359 C331 0.930 . S
H360 C340 0.930 . S
H361 C352 0.929 . S
H362 C355 0.930 . S
C363 C364 1.351 . S
C363 N366 1.368 . S
C363 H368 0.931 . S
C364 C363 1.351 . S
C364 N365 1.373 . S
C364 H392 0.930 . S
N365 C364 1.373 . S
N365 C367 1.340 . S
N366 C363 1.368 . S
N366 C367 1.321 . S
N366 Co369 2.135 . S
C367 N365 1.340 . S
C367 N366 1.321 . S
C367 H391 0.930 . S
H368 C363 0.931 . S
Co369 N366 2.135 . S
Co369 N372 2.121 . S
Co369 O377 2.055 . S
Co369 O380 2.039 . S
Co369 N383 2.140 . S
C370 O371 1.227 . S
C370 O380 1.265 . S
O371 C370 1.227 . S
N372 Co369 2.121 . S
N372 C374 1.375 . S
N372 C375 1.313 . S
C373 C374 1.338 . S
C373 N376 1.377 . S
C373 H393 0.930 . S
C374 N372 1.375 . S
C374 C373 1.338 . S
C374 H378 0.931 . S
C375 N372 1.313 . S
C375 N376 1.344 . S
C375 H379 0.930 . S
N376 C373 1.377 . S
N376 C375 1.344 . S
O377 Co369 2.055 . S
O377 C381 1.253 . S
H378 C374 0.931 . S
H379 C375 0.930 . S
O380 Co369 2.039 . S
O380 C370 1.265 . S
C381 O377 1.253 . S
C381 O382 1.227 . S
O382 C381 1.227 . S
N383 Co369 2.140 . S
N383 C386 1.346 . S
N383 C387 1.345 . S
C384 C385 1.387 . S
C384 C388 1.391 . S
C385 C384 1.387 . S
C385 C386 1.369 . S
C385 H394 0.929 . S
C386 N383 1.346 . S
C386 C385 1.369 . S
C386 H389 0.928 . S
C387 N383 1.345 . S
C387 C388 1.371 . S
C387 H390 0.931 . S
C388 C384 1.391 . S
C388 C387 1.371 . S
C388 H395 0.930 . S
H389 C386 0.928 . S
H390 C387 0.931 . S
H391 C367 0.930 . S
H392 C364 0.930 . S
H393 C373 0.930 . S
H394 C385 0.929 . S
H395 C388 0.930 . S
C396 C397 1.351 . S
C396 N399 1.368 . S
C396 H401 0.931 . S
C397 C396 1.351 . S
C397 N398 1.373 . S
C397 H425 0.930 . S
N398 C397 1.373 . S
N398 C400 1.340 . S
N399 C396 1.368 . S
N399 C400 1.321 . S
N399 Co402 2.135 . S
C400 N398 1.340 . S
C400 N399 1.321 . S
C400 H424 0.930 . S
H401 C396 0.931 . S
Co402 N399 2.135 . S
Co402 N405 2.121 . S
Co402 O410 2.055 . S
Co402 O413 2.039 . S
Co402 N416 2.140 . S
C403 O404 1.227 . S
C403 O413 1.265 . S
O404 C403 1.227 . S
N405 Co402 2.121 . S
N405 C407 1.375 . S
N405 C408 1.313 . S
C406 C407 1.338 . S
C406 N409 1.377 . S
C406 H426 0.930 . S
C407 N405 1.375 . S
C407 C406 1.338 . S
C407 H411 0.931 . S
C408 N405 1.313 . S
C408 N409 1.344 . S
C408 H412 0.930 . S
N409 C406 1.377 . S
N409 C408 1.344 . S
O410 Co402 2.055 . S
O410 C414 1.253 . S
H411 C407 0.931 . S
H412 C408 0.930 . S
O413 Co402 2.039 . S
O413 C403 1.265 . S
C414 O410 1.253 . S
C414 O415 1.227 . S
O415 C414 1.227 . S
N416 Co402 2.140 . S
N416 C419 1.346 . S
N416 C420 1.345 . S
C417 C418 1.387 . S
C417 C421 1.391 . S
C418 C417 1.387 . S
C418 C419 1.369 . S
C418 H427 0.929 . S
C419 N416 1.346 . S
C419 C418 1.369 . S
C419 H422 0.928 . S
C420 N416 1.345 . S
C420 C421 1.371 . S
C420 H423 0.931 . S
C421 C417 1.391 . S
C421 C420 1.371 . S
C421 H428 0.930 . S
H422 C419 0.928 . S
H423 C420 0.931 . S
H424 C400 0.930 . S
H425 C397 0.930 . S
H426 C406 0.930 . S
H427 C418 0.929 . S
H428 C421 0.930 . S
C429 C430 1.351 . S
C429 N432 1.368 . S
C429 H434 0.931 . S
C430 C429 1.351 . S
C430 N431 1.373 . S
C430 H458 0.930 . S
N431 C430 1.373 . S
N431 C433 1.340 . S
N432 C429 1.368 . S
N432 C433 1.321 . S
N432 Co435 2.135 . S
C433 N431 1.340 . S
C433 N432 1.321 . S
C433 H457 0.930 . S
H434 C429 0.931 . S
Co435 N432 2.135 . S
Co435 N438 2.121 . S
Co435 O443 2.055 . S
Co435 O446 2.039 . S
Co435 N449 2.140 . S
C436 O437 1.227 . S
C436 O446 1.265 . S
O437 C436 1.227 . S
N438 Co435 2.121 . S
N438 C440 1.375 . S
N438 C441 1.313 . S
C439 C440 1.338 . S
C439 N442 1.377 . S
C439 H459 0.930 . S
C440 N438 1.375 . S
C440 C439 1.338 . S
C440 H444 0.931 . S
C441 N438 1.313 . S
C441 N442 1.344 . S
C441 H445 0.930 . S
N442 C439 1.377 . S
N442 C441 1.344 . S
O443 Co435 2.055 . S
O443 C447 1.253 . S
H444 C440 0.931 . S
H445 C441 0.930 . S
O446 Co435 2.039 . S
O446 C436 1.265 . S
C447 O443 1.253 . S
C447 O448 1.227 . S
O448 C447 1.227 . S
N449 Co435 2.140 . S
N449 C452 1.346 . S
N449 C453 1.345 . S
C450 C451 1.387 . S
C450 C454 1.391 . S
C451 C450 1.387 . S
C451 C452 1.369 . S
C451 H460 0.929 . S
C452 N449 1.346 . S
C452 C451 1.369 . S
C452 H455 0.928 . S
C453 N449 1.345 . S
C453 C454 1.371 . S
C453 H456 0.931 . S
C454 C450 1.391 . S
C454 C453 1.371 . S
C454 H461 0.930 . S
H455 C452 0.928 . S
H456 C453 0.931 . S
H457 C433 0.930 . S
H458 C430 0.930 . S
H459 C439 0.930 . S
H460 C451 0.929 . S
H461 C454 0.930 . S
C462 C463 1.351 . S
C462 N465 1.368 . S
C462 H467 0.931 . S
C463 C462 1.351 . S
C463 N464 1.373 . S
C463 H491 0.930 . S
N464 C463 1.373 . S
N464 C466 1.340 . S
N465 C462 1.368 . S
N465 C466 1.321 . S
N465 Co468 2.135 . S
C466 N464 1.340 . S
C466 N465 1.321 . S
C466 H490 0.930 . S
H467 C462 0.931 . S
Co468 N465 2.135 . S
Co468 N471 2.121 . S
Co468 O476 2.055 . S
Co468 O479 2.039 . S
Co468 N482 2.140 . S
C469 O470 1.227 . S
C469 O479 1.265 . S
O470 C469 1.227 . S
N471 Co468 2.121 . S
N471 C473 1.375 . S
N471 C474 1.313 . S
C472 C473 1.338 . S
C472 N475 1.377 . S
C472 H492 0.930 . S
C473 N471 1.375 . S
C473 C472 1.338 . S
C473 H477 0.931 . S
C474 N471 1.313 . S
C474 N475 1.344 . S
C474 H478 0.930 . S
N475 C472 1.377 . S
N475 C474 1.344 . S
O476 Co468 2.055 . S
O476 C480 1.253 . S
H477 C473 0.931 . S
H478 C474 0.930 . S
O479 Co468 2.039 . S
O479 C469 1.265 . S
C480 O476 1.253 . S
C480 O481 1.227 . S
O481 C480 1.227 . S
N482 Co468 2.140 . S
N482 C485 1.346 . S
N482 C486 1.345 . S
C483 C484 1.387 . S
C483 C487 1.391 . S
C484 C483 1.387 . S
C484 C485 1.369 . S
C484 H493 0.929 . S
C485 N482 1.346 . S
C485 C484 1.369 . S
C485 H488 0.928 . S
C486 N482 1.345 . S
C486 C487 1.371 . S
C486 H489 0.931 . S
C487 C483 1.391 . S
C487 C486 1.371 . S
C487 H494 0.930 . S
H488 C485 0.928 . S
H489 C486 0.931 . S
H490 C466 0.930 . S
H491 C463 0.930 . S
H492 C472 0.930 . S
H493 C484 0.929 . S
H494 C487 0.930 . S
C495 C496 1.351 . S
C495 N498 1.368 . S
C495 H500 0.931 . S
C496 C495 1.351 . S
C496 N497 1.373 . S
C496 H524 0.930 . S
N497 C496 1.373 . S
N497 C499 1.340 . S
N498 C495 1.368 . S
N498 C499 1.321 . S
N498 Co501 2.135 . S
C499 N497 1.340 . S
C499 N498 1.321 . S
C499 H523 0.930 . S
H500 C495 0.931 . S
Co501 N498 2.135 . S
Co501 N504 2.121 . S
Co501 O509 2.055 . S
Co501 O512 2.039 . S
Co501 N515 2.140 . S
C502 O503 1.227 . S
C502 O512 1.265 . S
O503 C502 1.227 . S
N504 Co501 2.121 . S
N504 C506 1.375 . S
N504 C507 1.313 . S
C505 C506 1.338 . S
C505 N508 1.377 . S
C505 H525 0.930 . S
C506 N504 1.375 . S
C506 C505 1.338 . S
C506 H510 0.931 . S
C507 N504 1.313 . S
C507 N508 1.344 . S
C507 H511 0.930 . S
N508 C505 1.377 . S
N508 C507 1.344 . S
O509 Co501 2.055 . S
O509 C513 1.253 . S
H510 C506 0.931 . S
H511 C507 0.930 . S
O512 Co501 2.039 . S
O512 C502 1.265 . S
C513 O509 1.253 . S
C513 O514 1.227 . S
O514 C513 1.227 . S
N515 Co501 2.140 . S
N515 C518 1.346 . S
N515 C519 1.345 . S
C516 C517 1.387 . S
C516 C520 1.391 . S
C517 C516 1.387 . S
C517 C518 1.369 . S
C517 H526 0.929 . S
C518 N515 1.346 . S
C518 C517 1.369 . S
C518 H521 0.928 . S
C519 N515 1.345 . S
C519 C520 1.371 . S
C519 H522 0.931 . S
C520 C516 1.391 . S
C520 C519 1.371 . S
C520 H527 0.930 . S
H521 C518 0.928 . S
H522 C519 0.931 . S
H523 C499 0.930 . S
H524 C496 0.930 . S
H525 C505 0.930 . S
H526 C517 0.929 . S
H527 C520 0.930 . S
H528 C540 0.930 . S
H529 C542 0.930 . S
H530 C543 0.930 . S
H531 C547 0.959 . S
H532 C547 0.959 . S
H533 C547 0.961 . S
H534 C548 0.960 . S
H535 C548 0.961 . S
H536 C548 0.959 . S
H537 C551 0.929 . S
H538 C552 0.931 . S
H539 C554 0.930 . S
C540 H528 0.930 . S
C540 C541 1.399 . S
C540 C545 1.399 . S
C541 C540 1.399 . S
C541 C542 1.376 . S
C542 H529 0.930 . S
C542 C541 1.376 . S
C542 C543 1.388 . S
C543 H530 0.930 . S
C543 C542 1.388 . S
C543 C544 1.390 . S
C544 C543 1.390 . S
C544 C545 1.394 . S
C544 C550 1.465 . S
C545 C540 1.399 . S
C545 C544 1.394 . S
C545 C546 1.516 . S
C546 C545 1.516 . S
C546 C547 1.502 . S
C546 C548 1.561 . S
C546 C549 1.526 . S
C547 H531 0.959 . S
C547 H532 0.959 . S
C547 H533 0.961 . S
C547 C546 1.502 . S
C548 H534 0.960 . S
C548 H535 0.961 . S
C548 H536 0.959 . S
C548 C546 1.561 . S
C549 C546 1.526 . S
C549 C550 1.396 . S
C549 C554 1.390 . S
C550 C544 1.465 . S
C550 C549 1.396 . S
C550 C551 1.399 . S
C551 H537 0.929 . S
C551 C550 1.399 . S
C551 C552 1.385 . S
C552 H538 0.931 . S
C552 C551 1.385 . S
C552 C553 1.389 . S
C553 C552 1.389 . S
C553 C554 1.387 . S
C554 H539 0.930 . S
C554 C549 1.390 . S
C554 C553 1.387 . S
H555 C567 0.930 . S
H556 C569 0.930 . S
H557 C570 0.915 1_545 S
H558 C574 0.959 . S
H559 C574 0.959 . S
H560 C574 0.961 . S
H561 C575 0.960 . S
H562 C575 0.961 . S
H563 C575 0.959 . S
H564 C578 0.929 1_655 S
H565 C579 0.931 . S
H566 C581 0.930 . S
C567 H555 0.930 . S
C567 C568 1.399 . S
C567 C572 1.399 . S
C568 C567 1.399 . S
C568 C569 1.376 . S
C569 H556 0.930 . S
C569 C568 1.376 . S
C569 C570 1.388 . S
C570 H557 0.915 1_565 S
C570 C569 1.388 . S
C570 C571 1.390 . S
C571 C570 1.390 . S
C571 C572 1.394 . S
C571 C577 1.464 1_565 S
C572 C567 1.399 . S
C572 C571 1.394 . S
C572 C573 1.516 1_655 S
C573 C572 1.516 1_455 S
C573 C574 1.502 . S
C573 C575 1.561 1_455 S
C573 C576 1.526 1_565 S
C574 H558 0.959 . S
C574 H559 0.959 . S
C574 H560 0.961 . S
C574 C573 1.502 . S
C575 H561 0.960 . S
C575 H562 0.961 . S
C575 H563 0.959 . S
C575 C573 1.561 1_655 S
C576 C573 1.526 1_545 S
C576 C577 1.397 1_455 S
C576 C581 1.390 . S
C577 C571 1.464 1_545 S
C577 C576 1.397 1_655 S
C577 C578 1.399 1_655 S
C578 H564 0.929 1_455 S
C578 C577 1.399 1_455 S
C578 C579 1.385 . S
C579 H565 0.931 . S
C579 C578 1.385 . S
C579 C580 1.389 . S
C580 C579 1.389 . S
C580 C581 1.387 . S
C581 H566 0.930 . S
C581 C576 1.390 . S
C581 C580 1.387 . S
H582 C594 0.930 . S
H583 C596 0.930 . S
H584 C597 0.930 . S
H585 C601 0.959 . S
H586 C601 0.959 . S
H587 C601 0.961 . S
H588 C602 0.960 . S
H589 C602 0.961 1_565 S
H590 C602 0.959 1_565 S
H591 C605 0.929 . S
H592 C606 0.931 . S
H593 C608 0.930 . S
C594 H582 0.930 . S
C594 C595 1.399 . S
C594 C599 1.399 . S
C595 C594 1.399 . S
C595 C596 1.376 . S
C596 H583 0.930 . S
C596 C595 1.376 . S
C596 C597 1.388 . S
C597 H584 0.930 . S
C597 C596 1.388 . S
C597 C598 1.390 . S
C598 C597 1.390 . S
C598 C599 1.394 . S
C598 C604 1.465 1_545 S
C599 C594 1.399 . S
C599 C598 1.394 . S
C599 C600 1.516 . S
C600 C599 1.516 . S
C600 C601 1.502 . S
C600 C602 1.561 . S
C600 C603 1.526 1_545 S
C601 H585 0.959 . S
C601 H586 0.959 . S
C601 H587 0.961 . S
C601 C600 1.502 . S
C602 H588 0.960 . S
C602 H589 0.961 1_545 S
C602 H590 0.959 1_545 S
C602 C600 1.561 . S
C603 C600 1.526 1_565 S
C603 C604 1.396 . S
C603 C608 1.390 . S
C604 C598 1.465 1_565 S
C604 C603 1.396 . S
C604 C605 1.399 . S
C605 H591 0.929 . S
C605 C604 1.399 . S
C605 C606 1.385 . S
C606 H592 0.931 . S
C606 C605 1.385 . S
C606 C607 1.389 . S
C607 C606 1.389 . S
C607 C608 1.387 . S
C608 H593 0.930 . S
C608 C603 1.390 . S
C608 C607 1.387 . S
H609 C621 0.930 1_455 S
H610 C623 0.930 . S
H611 C624 0.930 . S
H612 C628 0.959 . S
H613 C628 0.959 . S
H614 C628 0.961 . S
H615 C629 0.960 . S
H616 C629 0.961 . S
H617 C629 0.959 1_655 S
H618 C632 0.929 . S
H619 C633 0.931 1_655 S
H620 C635 0.930 . S
C621 H609 0.930 1_655 S
C621 C622 1.399 . S
C621 C626 1.399 . S
C622 C621 1.399 . S
C622 C623 1.376 . S
C623 H610 0.930 . S
C623 C622 1.376 . S
C623 C624 1.388 . S
C624 H611 0.930 . S
C624 C623 1.388 . S
C624 C625 1.390 . S
C625 C624 1.390 . S
C625 C626 1.394 . S
C625 C631 1.465 . S
C626 C621 1.399 . S
C626 C625 1.394 . S
C626 C627 1.516 1_655 S
C627 C626 1.516 1_455 S
C627 C628 1.502 . S
C627 C629 1.561 . S
C627 C630 1.526 . S
C628 H612 0.959 . S
C628 H613 0.959 . S
C628 H614 0.961 . S
C628 C627 1.502 . S
C629 H615 0.960 . S
C629 H616 0.961 . S
C629 H617 0.959 1_455 S
C629 C627 1.561 . S
C630 C627 1.526 . S
C630 C631 1.396 1_455 S
C630 C635 1.390 . S
C631 C625 1.465 . S
C631 C630 1.396 1_655 S
C631 C632 1.399 . S
C632 H618 0.929 . S
C632 C631 1.399 . S
C632 C633 1.385 1_655 S
C633 H619 0.931 1_455 S
C633 C632 1.385 1_455 S
C633 C634 1.389 . S
C634 C633 1.389 . S
C634 C635 1.387 . S
C635 H620 0.930 . S
C635 C630 1.390 . S
C635 C634 1.387 . S
H636 C648 0.930 . S
H637 C650 0.930 . S
H638 C651 0.930 . S
H639 C655 0.959 . S
H640 C655 0.959 . S
H641 C655 0.961 . S
H642 C656 0.960 . S
H643 C656 0.961 . S
H644 C656 0.959 . S
H645 C659 0.929 . S
H646 C660 0.931 . S
H647 C662 0.930 . S
C648 H636 0.930 . S
C648 C649 1.399 . S
C648 C653 1.399 . S
C649 C648 1.399 . S
C649 C650 1.376 . S
C650 H637 0.930 . S
C650 C649 1.376 . S
C650 C651 1.388 . S
C651 H638 0.930 . S
C651 C650 1.388 . S
C651 C652 1.390 . S
C652 C651 1.390 . S
C652 C653 1.394 . S
C652 C658 1.465 . S
C653 C648 1.399 . S
C653 C652 1.394 . S
C653 C654 1.516 . S
C654 C653 1.516 . S
C654 C655 1.502 . S
C654 C656 1.561 . S
C654 C657 1.526 . S
C655 H639 0.959 . S
C655 H640 0.959 . S
C655 H641 0.961 . S
C655 C654 1.502 . S
C656 H642 0.960 . S
C656 H643 0.961 . S
C656 H644 0.959 . S
C656 C654 1.561 . S
C657 C654 1.526 . S
C657 C658 1.396 . S
C657 C662 1.390 . S
C658 C652 1.465 . S
C658 C657 1.396 . S
C658 C659 1.399 . S
C659 H645 0.929 . S
C659 C658 1.399 . S
C659 C660 1.385 . S
C660 H646 0.931 . S
C660 C659 1.385 . S
C660 C661 1.389 . S
C661 C660 1.389 . S
C661 C662 1.387 . S
C662 H647 0.930 . S
C662 C657 1.390 . S
C662 C661 1.387 . S
H663 C675 0.930 . S
H664 C677 0.930 . S
H665 C678 0.930 . S
H666 C682 0.959 . S
H667 C682 0.959 . S
H668 C682 0.961 . S
H669 C683 0.960 1_565 S
H670 C683 0.961 . S
H671 C683 0.959 . S
H672 C686 0.929 . S
H673 C687 0.931 . S
H674 C689 0.930 . S
C675 H663 0.930 . S
C675 C676 1.399 . S
C675 C680 1.399 . S
C676 C675 1.399 . S
C676 C677 1.376 . S
C677 H664 0.930 . S
C677 C676 1.376 . S
C677 C678 1.388 . S
C678 H665 0.930 . S
C678 C677 1.388 . S
C678 C679 1.390 . S
C679 C678 1.390 . S
C679 C680 1.394 . S
C679 C685 1.465 1_565 S
C680 C675 1.399 . S
C680 C679 1.394 . S
C680 C681 1.516 . S
C681 C680 1.516 . S
C681 C682 1.502 . S
C681 C683 1.561 1_565 S
C681 C684 1.526 1_565 S
C682 H666 0.959 . S
C682 H667 0.959 . S
C682 H668 0.961 . S
C682 C681 1.502 . S
C683 H669 0.960 1_545 S
C683 H670 0.961 . S
C683 H671 0.959 . S
C683 C681 1.561 1_545 S
C684 C681 1.526 1_545 S
C684 C685 1.396 . S
C684 C689 1.390 . S
C685 C679 1.465 1_545 S
C685 C684 1.396 . S
C685 C686 1.399 . S
C686 H672 0.929 . S
C686 C685 1.399 . S
C686 C687 1.385 . S
C687 H673 0.931 . S
C687 C686 1.385 . S
C687 C688 1.389 . S
C688 C687 1.389 . S
C688 C689 1.387 . S
C689 H674 0.930 . S
C689 C684 1.390 . S
C689 C688 1.387 . S
H690 C702 0.930 . S
H691 C704 0.930 . S
H692 C705 0.930 . S
H693 C709 0.959 . S
H694 C709 0.959 . S
H695 C709 0.961 . S
H696 C710 0.960 . S
H697 C710 0.961 . S
H698 C710 0.959 . S
H699 C713 0.929 . S
H700 C714 0.931 . S
H701 C716 0.930 . S
C702 H690 0.930 . S
C702 C703 1.399 . S
C702 C707 1.399 . S
C703 C702 1.399 . S
C703 C704 1.376 . S
C704 H691 0.930 . S
C704 C703 1.376 . S
C704 C705 1.388 1_655 S
C705 H692 0.930 . S
C705 C704 1.388 1_455 S
C705 C706 1.390 . S
C706 C705 1.390 . S
C706 C707 1.394 1_455 S
C706 C712 1.465 . S
C707 C702 1.399 . S
C707 C706 1.394 1_655 S
C707 C708 1.516 . S
C708 C707 1.516 . S
C708 C709 1.502 . S
C708 C710 1.561 1_655 S
C708 C711 1.526 1_655 S
C709 H693 0.959 . S
C709 H694 0.959 . S
C709 H695 0.961 . S
C709 C708 1.502 . S
C710 H696 0.960 . S
C710 H697 0.961 . S
C710 H698 0.959 . S
C710 C708 1.561 1_455 S
C711 C708 1.526 1_455 S
C711 C712 1.396 . S
C711 C716 1.390 . S
C712 C706 1.465 . S
C712 C711 1.396 . S
C712 C713 1.399 . S
C713 H699 0.929 . S
C713 C712 1.399 . S
C713 C714 1.385 . S
C714 H700 0.931 . S
C714 C713 1.385 . S
C714 C715 1.389 . S
C715 C714 1.389 . S
C715 C716 1.387 . S
C716 H701 0.930 . S
C716 C711 1.390 . S
C716 C715 1.387 . S
H717 C729 0.930 . S
H718 C731 0.930 . S
H719 C732 0.930 . S
H720 C736 0.959 . S
H721 C736 0.959 . S
H722 C736 0.961 . S
H723 C737 0.960 . S
H724 C737 0.961 . S
H725 C737 0.959 . S
H726 C740 0.929 . S
H727 C741 0.931 . S
H728 C743 0.930 . S
C729 H717 0.930 . S
C729 C730 1.399 . S
C729 C734 1.399 . S
C730 C729 1.399 . S
C730 C731 1.376 1_554 S
C731 H718 0.930 . S
C731 C730 1.376 1_556 S
C731 C732 1.388 . S
C732 H719 0.930 . S
C732 C731 1.388 . S
C732 C733 1.390 . S
C733 C732 1.390 . S
C733 C734 1.394 1_556 S
C733 C739 1.465 . S
C734 C729 1.399 . S
C734 C733 1.394 1_554 S
C734 C735 1.516 . S
C735 C734 1.516 . S
C735 C736 1.502 . S
C735 C737 1.561 . S
C735 C738 1.526 . S
C736 H720 0.959 . S
C736 H721 0.959 . S
C736 H722 0.961 . S
C736 C735 1.502 . S
C737 H723 0.960 . S
C737 H724 0.961 . S
C737 H725 0.959 . S
C737 C735 1.561 . S
C738 C735 1.526 . S
C738 C739 1.396 1_554 S
C738 C743 1.390 . S
C739 C733 1.465 . S
C739 C738 1.396 1_556 S
C739 C740 1.399 . S
C740 H726 0.929 . S
C740 C739 1.399 . S
C740 C741 1.385 . S
C741 H727 0.931 . S
C741 C740 1.385 . S
C741 C742 1.389 . S
C742 C741 1.389 . S
C742 C743 1.387 1_556 S
C743 H728 0.930 . S
C743 C738 1.390 . S
C743 C742 1.387 1_554 S
H744 C756 0.930 . S
H745 C758 0.930 1_455 S
H746 C759 0.930 . S
H747 C763 0.959 . S
H748 C763 0.959 . S
H749 C763 0.961 . S
H750 C764 0.960 . S
H751 C764 0.961 . S
H752 C764 0.959 1_455 S
H753 C767 0.929 . S
H754 C768 0.931 . S
H755 C770 0.931 1_655 S
C756 H744 0.930 . S
C756 C757 1.399 . S
C756 C761 1.399 . S
C757 C756 1.399 . S
C757 C758 1.376 1_554 S
C758 H745 0.930 1_655 S
C758 C757 1.376 1_556 S
C758 C759 1.388 1_655 S
C759 H746 0.930 . S
C759 C758 1.388 1_455 S
C759 C760 1.390 . S
C760 C759 1.390 . S
C760 C761 1.394 1_456 S
C760 C766 1.465 . S
C761 C756 1.399 . S
C761 C760 1.394 1_654 S
C761 C762 1.516 . S
C762 C761 1.516 . S
C762 C763 1.502 . S
C762 C764 1.561 . S
C762 C765 1.526 1_655 S
C763 H747 0.959 . S
C763 H748 0.959 . S
C763 H749 0.961 . S
C763 C762 1.502 . S
C764 H750 0.960 . S
C764 H751 0.961 . S
C764 H752 0.959 1_655 S
C764 C762 1.561 . S
C765 C762 1.526 1_455 S
C765 C766 1.396 1_554 S
C765 C770 1.390 . S
C766 C760 1.465 . S
C766 C765 1.396 1_556 S
C766 C767 1.399 . S
C767 H753 0.929 . S
C767 C766 1.399 . S
C767 C768 1.385 . S
C768 H754 0.931 . S
C768 C767 1.385 . S
C768 C769 1.389 . S
C769 C768 1.389 . S
C769 C770 1.387 1_556 S
C770 H755 0.931 1_455 S
C770 C765 1.390 . S
C770 C769 1.387 1_554 S
H771 C783 0.930 . S
H772 C785 0.930 . S
H773 C786 0.930 . S
H774 C790 0.959 . S
H775 C790 0.959 . S
H776 C790 0.961 . S
H777 C791 0.960 . S
H778 C791 0.961 . S
H779 C791 0.959 . S
H780 C794 0.929 . S
H781 C795 0.931 . S
H782 C797 0.930 . S
C783 H771 0.930 . S
C783 C784 1.399 . S
C783 C788 1.399 . S
C784 C783 1.399 . S
C784 C785 1.376 . S
C785 H772 0.930 . S
C785 C784 1.376 . S
C785 C786 1.388 . S
C786 H773 0.930 . S
C786 C785 1.388 . S
C786 C787 1.390 . S
C787 C786 1.390 . S
C787 C788 1.394 . S
C787 C793 1.465 . S
C788 C783 1.399 . S
C788 C787 1.394 . S
C788 C789 1.516 . S
C789 C788 1.516 . S
C789 C790 1.502 . S
C789 C791 1.561 . S
C789 C792 1.526 . S
C790 H774 0.959 . S
C790 H775 0.959 . S
C790 H776 0.961 . S
C790 C789 1.502 . S
C791 H777 0.960 . S
C791 H778 0.961 . S
C791 H779 0.959 . S
C791 C789 1.561 . S
C792 C789 1.526 . S
C792 C793 1.396 . S
C792 C797 1.390 . S
C793 C787 1.465 . S
C793 C792 1.396 . S
C793 C794 1.399 . S
C794 H780 0.929 . S
C794 C793 1.399 . S
C794 C795 1.385 . S
C795 H781 0.931 . S
C795 C794 1.385 . S
C795 C796 1.389 . S
C796 C795 1.389 . S
C796 C797 1.387 . S
C797 H782 0.930 . S
C797 C792 1.390 . S
C797 C796 1.387 . S
H798 C810 0.930 . S
H799 C812 0.930 . S
H800 C813 0.930 . S
H801 C817 0.959 . S
H802 C817 0.959 . S
H803 C817 0.961 . S
H804 C818 0.960 . S
H805 C818 0.961 . S
H806 C818 0.959 . S
H807 C821 0.929 . S
H808 C822 0.931 . S
H809 C824 0.930 . S
C810 H798 0.930 . S
C810 C811 1.399 1_554 S
C810 C815 1.399 . S
C811 C810 1.399 1_556 S
C811 C812 1.376 . S
C812 H799 0.930 . S
C812 C811 1.376 . S
C812 C813 1.388 . S
C813 H800 0.930 . S
C813 C812 1.388 . S
C813 C814 1.390 . S
C814 C813 1.390 . S
C814 C815 1.394 1_556 S
C814 C820 1.465 . S
C815 C810 1.399 . S
C815 C814 1.394 1_554 S
C815 C816 1.516 . S
C816 C815 1.516 . S
C816 C817 1.502 . S
C816 C818 1.561 . S
C816 C819 1.526 . S
C817 H801 0.959 . S
C817 H802 0.959 . S
C817 H803 0.961 . S
C817 C816 1.502 . S
C818 H804 0.960 . S
C818 H805 0.961 . S
C818 H806 0.959 . S
C818 C816 1.561 . S
C819 C816 1.526 . S
C819 C820 1.396 1_554 S
C819 C824 1.390 . S
C820 C814 1.465 . S
C820 C819 1.396 1_556 S
C820 C821 1.399 . S
C821 H807 0.929 . S
C821 C820 1.399 . S
C821 C822 1.385 . S
C822 H808 0.931 . S
C822 C821 1.385 . S
C822 C823 1.389 1_556 S
C823 C822 1.389 1_554 S
C823 C824 1.387 . S
C824 H809 0.930 . S
C824 C819 1.390 . S
C824 C823 1.387 . S
H825 C837 0.930 . S
H826 C839 0.930 . S
H827 C840 0.930 . S
H828 C844 0.959 . S
H829 C844 0.959 . S
H830 C844 0.961 . S
H831 C845 0.960 . S
H832 C845 0.961 . S
H833 C845 0.959 . S
H834 C848 0.929 . S
H835 C849 0.931 . S
H836 C851 0.930 . S
C837 H825 0.930 . S
C837 C838 1.399 . S
C837 C842 1.399 . S
C838 C837 1.399 . S
C838 C839 1.376 . S
C839 H826 0.930 . S
C839 C838 1.376 . S
C839 C840 1.388 . S
C840 H827 0.930 . S
C840 C839 1.388 . S
C840 C841 1.390 . S
C841 C840 1.390 . S
C841 C842 1.394 . S
C841 C847 1.465 . S
C842 C837 1.399 . S
C842 C841 1.394 . S
C842 C843 1.516 . S
C843 C842 1.516 . S
C843 C844 1.502 . S
C843 C845 1.561 . S
C843 C846 1.526 . S
C844 H828 0.959 . S
C844 H829 0.959 . S
C844 H830 0.961 . S
C844 C843 1.502 . S
C845 H831 0.960 . S
C845 H832 0.961 . S
C845 H833 0.959 . S
C845 C843 1.561 . S
C846 C843 1.526 . S
C846 C847 1.396 . S
C846 C851 1.390 . S
C847 C841 1.465 . S
C847 C846 1.396 . S
C847 C848 1.399 . S
C848 H834 0.929 . S
C848 C847 1.399 . S
C848 C849 1.385 . S
C849 H835 0.931 . S
C849 C848 1.385 . S
C849 C850 1.389 . S
C850 C849 1.389 . S
C850 C851 1.387 . S
C851 H836 0.930 . S
C851 C846 1.390 . S
C851 C850 1.387 . S
H852 C864 0.930 . S
H853 C866 0.930 . S
H854 C867 0.930 . S
H855 C871 0.959 1_565 S
H856 C871 0.932 1_565 S
H857 C871 0.961 . S
H858 C872 0.960 . S
H859 C872 0.961 . S
H860 C872 0.959 . S
H861 C875 0.929 . S
H862 C876 0.931 . S
H863 C878 0.930 . S
C864 H852 0.930 . S
C864 C865 1.399 1_554 S
C864 C869 1.399 . S
C865 C864 1.399 1_556 S
C865 C866 1.376 . S
C866 H853 0.930 . S
C866 C865 1.376 . S
C866 C867 1.388 . S
C867 H854 0.930 . S
C867 C866 1.388 . S
C867 C868 1.390 . S
C868 C867 1.390 . S
C868 C869 1.394 1_556 S
C868 C874 1.465 1_545 S
C869 C864 1.399 . S
C869 C868 1.394 1_554 S
C869 C870 1.516 . S
C870 C869 1.516 . S
C870 C871 1.502 . S
C870 C872 1.561 . S
C870 C873 1.526 1_545 S
C871 H855 0.959 1_545 S
C871 H856 0.932 1_545 S
C871 H857 0.961 . S
C871 C870 1.502 . S
C872 H858 0.960 . S
C872 H859 0.961 . S
C872 H860 0.959 . S
C872 C870 1.561 . S
C873 C870 1.526 1_565 S
C873 C874 1.396 1_554 S
C873 C878 1.390 . S
C874 C868 1.465 1_565 S
C874 C873 1.396 1_556 S
C874 C875 1.399 . S
C875 H861 0.929 . S
C875 C874 1.399 . S
C875 C876 1.385 . S
C876 H862 0.931 . S
C876 C875 1.385 . S
C876 C877 1.389 1_556 S
C877 C876 1.389 1_554 S
C877 C878 1.387 . S
C878 H863 0.930 . S
C878 C873 1.390 . S
C878 C877 1.387 . S
H879 C891 0.930 . S
H880 C893 0.930 . S
H881 C894 0.930 . S
H882 C898 0.959 . S
H883 C898 0.959 . S
H884 C898 0.961 . S
H885 C899 0.960 . S
H886 C899 0.961 . S
H887 C899 0.959 . S
H888 C902 0.929 . S
H889 C903 0.931 . S
H890 C905 0.930 . S
C891 H879 0.930 . S
C891 C892 1.399 . S
C891 C896 1.399 . S
C892 C891 1.399 . S
C892 C893 1.376 . S
C893 H880 0.930 . S
C893 C892 1.376 . S
C893 C894 1.388 . S
C894 H881 0.930 . S
C894 C893 1.388 . S
C894 C895 1.390 . S
C895 C894 1.390 . S
C895 C896 1.394 . S
C895 C901 1.465 . S
C896 C891 1.399 . S
C896 C895 1.394 . S
C896 C897 1.516 . S
C897 C896 1.516 . S
C897 C898 1.502 . S
C897 C899 1.561 . S
C897 C900 1.526 . S
C898 H882 0.959 . S
C898 H883 0.959 . S
C898 H884 0.961 . S
C898 C897 1.502 . S
C899 H885 0.960 . S
C899 H886 0.961 . S
C899 H887 0.959 . S
C899 C897 1.561 . S
C900 C897 1.526 . S
C900 C901 1.396 . S
C900 C905 1.390 . S
C901 C895 1.465 . S
C901 C900 1.396 . S
C901 C902 1.399 . S
C902 H888 0.929 . S
C902 C901 1.399 . S
C902 C903 1.385 . S
C903 H889 0.931 . S
C903 C902 1.385 . S
C903 C904 1.389 . S
C904 C903 1.389 . S
C904 C905 1.387 . S
C905 H890 0.930 . S
C905 C900 1.390 . S
C905 C904 1.387 . S
H906 C918 0.930 . S
H907 C920 0.930 . S
H908 C921 0.930 . S
H909 C925 0.959 . S
H910 C925 0.959 . S
H911 C925 0.961 . S
H912 C926 0.960 . S
H913 C926 0.961 . S
H914 C926 0.959 . S
H915 C929 0.929 . S
H916 C930 0.931 . S
H917 C932 0.930 . S
C918 H906 0.930 . S
C918 C919 1.399 . S
C918 C923 1.399 . S
C919 C918 1.399 . S
C919 C920 1.376 . S
C920 H907 0.930 . S
C920 C919 1.376 . S
C920 C921 1.388 . S
C921 H908 0.930 . S
C921 C920 1.388 . S
C921 C922 1.390 . S
C922 C921 1.390 . S
C922 C923 1.394 . S
C922 C928 1.465 . S
C923 C918 1.399 . S
C923 C922 1.394 . S
C923 C924 1.516 . S
C924 C923 1.516 . S
C924 C925 1.502 . S
C924 C926 1.561 . S
C924 C927 1.526 . S
C925 H909 0.959 . S
C925 H910 0.959 . S
C925 H911 0.961 . S
C925 C924 1.502 . S
C926 H912 0.960 . S
C926 H913 0.961 . S
C926 H914 0.959 . S
C926 C924 1.561 . S
C927 C924 1.526 . S
C927 C928 1.396 . S
C927 C932 1.390 . S
C928 C922 1.465 . S
C928 C927 1.396 . S
C928 C929 1.399 . S
C929 H915 0.929 . S
C929 C928 1.399 . S
C929 C930 1.385 . S
C930 H916 0.931 . S
C930 C929 1.385 . S
C930 C931 1.389 . S
C931 C930 1.389 . S
C931 C932 1.387 . S
C932 H917 0.930 . S
C932 C927 1.390 . S
C932 C931 1.387 . S
H933 C945 0.930 . S
H934 C947 0.930 . S
H935 C948 0.930 . S
H936 C952 0.959 . S
H937 C952 0.959 . S
H938 C952 0.961 . S
H939 C953 0.960 . S
H940 C953 0.961 . S
H941 C953 0.959 . S
H942 C956 0.929 . S
H943 C957 0.931 . S
H944 C959 0.930 . S
C945 H933 0.930 . S
C945 C946 1.399 . S
C945 C950 1.399 . S
C946 C945 1.399 . S
C946 C947 1.376 . S
C947 H934 0.930 . S
C947 C946 1.376 . S
C947 C948 1.388 . S
C948 H935 0.930 . S
C948 C947 1.388 . S
C948 C949 1.390 . S
C949 C948 1.390 . S
C949 C950 1.394 . S
C949 C955 1.465 . S
C950 C945 1.399 . S
C950 C949 1.394 . S
C950 C951 1.516 . S
C951 C950 1.516 . S
C951 C952 1.502 . S
C951 C953 1.561 . S
C951 C954 1.526 . S
C952 H936 0.959 . S
C952 H937 0.959 . S
C952 H938 0.961 . S
C952 C951 1.502 . S
C953 H939 0.960 . S
C953 H940 0.961 . S
C953 H941 0.959 . S
C953 C951 1.561 . S
C954 C951 1.526 . S
C954 C955 1.396 . S
C954 C959 1.390 . S
C955 C949 1.465 . S
C955 C954 1.396 . S
C955 C956 1.399 . S
C956 H942 0.929 . S
C956 C955 1.399 . S
C956 C957 1.385 . S
C957 H943 0.931 . S
C957 C956 1.385 . S
C957 C958 1.389 . S
C958 C957 1.389 . S
C958 C959 1.387 . S
C959 H944 0.930 . S
C959 C954 1.390 . S
C959 C958 1.387 . S
H960 C972 0.930 . S
H961 C974 0.930 . S
H962 C975 0.930 . S
H963 C979 0.959 . S
H964 C979 0.959 . S
H965 C979 0.961 . S
H966 C980 0.960 . S
H967 C980 0.961 . S
H968 C980 0.959 . S
H969 C983 0.929 . S
H970 C984 0.931 . S
H971 C986 0.930 . S
C972 H960 0.930 . S
C972 C973 1.399 . S
C972 C977 1.399 . S
C973 C972 1.399 . S
C973 C974 1.376 . S
C974 H961 0.930 . S
C974 C973 1.376 . S
C974 C975 1.388 . S
C975 H962 0.930 . S
C975 C974 1.388 . S
C975 C976 1.390 . S
C976 C975 1.390 . S
C976 C977 1.394 . S
C976 C982 1.465 . S
C977 C972 1.399 . S
C977 C976 1.394 . S
C977 C978 1.516 . S
C978 C977 1.516 . S
C978 C979 1.502 . S
C978 C980 1.561 . S
C978 C981 1.526 . S
C979 H963 0.959 . S
C979 H964 0.959 . S
C979 H965 0.961 . S
C979 C978 1.502 . S
C980 H966 0.960 . S
C980 H967 0.961 . S
C980 H968 0.959 . S
C980 C978 1.561 . S
C981 C978 1.526 . S
C981 C982 1.396 . S
C981 C986 1.390 . S
C982 C976 1.465 . S
C982 C981 1.396 . S
C982 C983 1.399 . S
C983 H969 0.929 . S
C983 C982 1.399 . S
C983 C984 1.385 . S
C984 H970 0.931 . S
C984 C983 1.385 . S
C984 C985 1.389 . S
C985 C984 1.389 . S
C985 C986 1.387 . S
C986 H971 0.930 . S
C986 C981 1.390 . S
C986 C985 1.387 . S
H987 C999 0.930 . S
H988 C1001 0.930 . S
H989 C1002 0.930 . S
H990 C1006 0.959 . S
H991 C1006 0.959 . S
H992 C1006 0.961 . S
H993 C1007 0.960 . S
H994 C1007 0.961 . S
H995 C1007 0.959 . S
H996 C1010 0.929 . S
H997 C1011 0.931 . S
H998 C1013 0.930 . S
C999 H987 0.930 . S
C999 C1000 1.399 . S
C999 C1004 1.399 . S
C1000 C999 1.399 . S
C1000 C1001 1.376 . S
C1001 H988 0.930 . S
C1001 C1000 1.376 . S
C1001 C1002 1.388 . S
C1002 H989 0.930 . S
C1002 C1001 1.388 . S
C1002 C1003 1.390 . S
C1003 C1002 1.390 . S
C1003 C1004 1.394 . S
C1003 C1009 1.465 . S
C1004 C999 1.399 . S
C1004 C1003 1.394 . S
C1004 C1005 1.516 . S
C1005 C1004 1.516 . S
C1005 C1006 1.502 . S
C1005 C1007 1.561 . S
C1005 C1008 1.526 . S
C1006 H990 0.959 . S
C1006 H991 0.959 . S
C1006 H992 0.961 . S
C1006 C1005 1.502 . S
C1007 H993 0.960 . S
C1007 H994 0.961 . S
C1007 H995 0.959 . S
C1007 C1005 1.561 . S
C1008 C1005 1.526 . S
C1008 C1009 1.396 . S
C1008 C1013 1.390 . S
C1009 C1003 1.465 . S
C1009 C1008 1.396 . S
C1009 C1010 1.399 . S
C1010 H996 0.929 . S
C1010 C1009 1.399 . S
C1010 C1011 1.385 . S
C1011 H997 0.931 . S
C1011 C1010 1.385 . S
C1011 C1012 1.389 . S
C1012 C1011 1.389 . S
C1012 C1013 1.387 . S
C1013 H998 0.930 . S
C1013 C1008 1.390 . S
C1013 C1012 1.387 . S
H1014 C1026 0.930 . S
H1015 C1028 0.930 . S
H1016 C1029 0.930 . S
H1017 C1033 0.959 . S
H1018 C1033 0.959 . S
H1019 C1033 0.961 . S
H1020 C1034 0.960 . S
H1021 C1034 0.961 . S
H1022 C1034 0.959 . S
H1023 C1037 0.929 . S
H1024 C1038 0.931 . S
H1025 C1040 0.930 . S
C1026 H1014 0.930 . S
C1026 C1027 1.399 . S
C1026 C1031 1.399 . S
C1027 C1026 1.399 . S
C1027 C1028 1.376 . S
C1028 H1015 0.930 . S
C1028 C1027 1.376 . S
C1028 C1029 1.388 . S
C1029 H1016 0.930 . S
C1029 C1028 1.388 . S
C1029 C1030 1.390 . S
C1030 C1029 1.390 . S
C1030 C1031 1.394 . S
C1030 C1036 1.465 . S
C1031 C1026 1.399 . S
C1031 C1030 1.394 . S
C1031 C1032 1.516 . S
C1032 C1031 1.516 . S
C1032 C1033 1.502 . S
C1032 C1034 1.561 . S
C1032 C1035 1.526 . S
C1033 H1017 0.959 . S
C1033 H1018 0.959 . S
C1033 H1019 0.961 . S
C1033 C1032 1.502 . S
C1034 H1020 0.960 . S
C1034 H1021 0.961 . S
C1034 H1022 0.959 . S
C1034 C1032 1.561 . S
C1035 C1032 1.526 . S
C1035 C1036 1.396 . S
C1035 C1040 1.390 . S
C1036 C1030 1.465 . S
C1036 C1035 1.396 . S
C1036 C1037 1.399 . S
C1037 H1023 0.929 . S
C1037 C1036 1.399 . S
C1037 C1038 1.385 . S
C1038 H1024 0.931 . S
C1038 C1037 1.385 . S
C1038 C1039 1.389 . S
C1039 C1038 1.389 . S
C1039 C1040 1.387 . S
C1040 H1025 0.930 . S
C1040 C1035 1.390 . S
C1040 C1039 1.387 . S
H1041 C1053 0.930 . S
H1042 C1055 0.930 . S
H1043 C1056 0.930 . S
H1044 C1060 0.959 . S
H1045 C1060 0.959 . S
H1046 C1060 0.961 . S
H1047 C1061 0.960 . S
H1048 C1061 0.961 . S
H1049 C1061 0.959 . S
H1050 C1064 0.929 . S
H1051 C1065 0.931 . S
H1052 C1067 0.930 . S
C1053 H1041 0.930 . S
C1053 C1054 1.399 . S
C1053 C1058 1.399 . S
C1054 C1053 1.399 . S
C1054 C1055 1.376 . S
C1055 H1042 0.930 . S
C1055 C1054 1.376 . S
C1055 C1056 1.388 . S
C1056 H1043 0.930 . S
C1056 C1055 1.388 . S
C1056 C1057 1.390 . S
C1057 C1056 1.390 . S
C1057 C1058 1.394 . S
C1057 C1063 1.465 . S
C1058 C1053 1.399 . S
C1058 C1057 1.394 . S
C1058 C1059 1.516 . S
C1059 C1058 1.516 . S
C1059 C1060 1.502 . S
C1059 C1061 1.561 . S
C1059 C1062 1.526 . S
C1060 H1044 0.959 . S
C1060 H1045 0.959 . S
C1060 H1046 0.961 . S
C1060 C1059 1.502 . S
C1061 H1047 0.960 . S
C1061 H1048 0.961 . S
C1061 H1049 0.959 . S
C1061 C1059 1.561 . S
C1062 C1059 1.526 . S
C1062 C1063 1.396 . S
C1062 C1067 1.390 . S
C1063 C1057 1.465 . S
C1063 C1062 1.396 . S
C1063 C1064 1.399 . S
C1064 H1050 0.929 . S
C1064 C1063 1.399 . S
C1064 C1065 1.385 . S
C1065 H1051 0.931 . S
C1065 C1064 1.385 . S
C1065 C1066 1.389 . S
C1066 C1065 1.389 . S
C1066 C1067 1.387 . S
C1067 H1052 0.930 . S
C1067 C1062 1.390 . S
C1067 C1066 1.387 . S
H1068 C1080 0.930 . S
H1069 C1082 0.930 . S
H1070 C1083 0.930 . S
H1071 C1087 0.959 . S
H1072 C1087 0.959 . S
H1073 C1087 0.961 . S
H1074 C1088 0.960 . S
H1075 C1088 0.961 . S
H1076 C1088 0.959 . S
H1077 C1091 0.929 . S
H1078 C1092 0.931 . S
H1079 C1094 0.930 . S
C1080 H1068 0.930 . S
C1080 C1081 1.399 . S
C1080 C1085 1.399 . S
C1081 C1080 1.399 . S
C1081 C1082 1.376 . S
C1082 H1069 0.930 . S
C1082 C1081 1.376 . S
C1082 C1083 1.388 . S
C1083 H1070 0.930 . S
C1083 C1082 1.388 . S
C1083 C1084 1.390 . S
C1084 C1083 1.390 . S
C1084 C1085 1.394 . S
C1084 C1090 1.465 . S
C1085 C1080 1.399 . S
C1085 C1084 1.394 . S
C1085 C1086 1.516 . S
C1086 C1085 1.516 . S
C1086 C1087 1.502 . S
C1086 C1088 1.561 . S
C1086 C1089 1.526 . S
C1087 H1071 0.959 . S
C1087 H1072 0.959 . S
C1087 H1073 0.961 . S
C1087 C1086 1.502 . S
C1088 H1074 0.960 . S
C1088 H1075 0.961 . S
C1088 H1076 0.959 . S
C1088 C1086 1.561 . S
C1089 C1086 1.526 . S
C1089 C1090 1.396 . S
C1089 C1094 1.390 . S
C1090 C1084 1.465 . S
C1090 C1089 1.396 . S
C1090 C1091 1.399 . S
C1091 H1077 0.929 . S
C1091 C1090 1.399 . S
C1091 C1092 1.385 . S
C1092 H1078 0.931 . S
C1092 C1091 1.385 . S
C1092 C1093 1.389 . S
C1093 C1092 1.389 . S
C1093 C1094 1.387 . S
C1094 H1079 0.930 . S
C1094 C1089 1.390 . S
C1094 C1093 1.387 . S
H1095 C1107 0.930 . S
H1096 C1109 0.930 . S
H1097 C1110 0.930 . S
H1098 C1114 0.959 . S
H1099 C1114 0.959 . S
H1100 C1114 0.961 . S
H1101 C1115 0.960 . S
H1102 C1115 0.961 . S
H1103 C1115 0.959 . S
H1104 C1118 0.929 . S
H1105 C1119 0.931 . S
H1106 C1121 0.930 . S
C1107 H1095 0.930 . S
C1107 C1108 1.399 . S
C1107 C1112 1.399 . S
C1108 C1107 1.399 . S
C1108 C1109 1.376 . S
C1109 H1096 0.930 . S
C1109 C1108 1.376 . S
C1109 C1110 1.388 . S
C1110 H1097 0.930 . S
C1110 C1109 1.388 . S
C1110 C1111 1.390 . S
C1111 C1110 1.390 . S
C1111 C1112 1.394 . S
C1111 C1117 1.465 . S
C1112 C1107 1.399 . S
C1112 C1111 1.394 . S
C1112 C1113 1.516 . S
C1113 C1112 1.516 . S
C1113 C1114 1.502 . S
C1113 C1115 1.561 . S
C1113 C1116 1.526 . S
C1114 H1098 0.959 . S
C1114 H1099 0.959 . S
C1114 H1100 0.961 . S
C1114 C1113 1.502 . S
C1115 H1101 0.960 . S
C1115 H1102 0.961 . S
C1115 H1103 0.959 . S
C1115 C1113 1.561 . S
C1116 C1113 1.526 . S
C1116 C1117 1.396 . S
C1116 C1121 1.390 . S
C1117 C1111 1.465 . S
C1117 C1116 1.396 . S
C1117 C1118 1.399 . S
C1118 H1104 0.929 . S
C1118 C1117 1.399 . S
C1118 C1119 1.385 . S
C1119 H1105 0.931 . S
C1119 C1118 1.385 . S
C1119 C1120 1.389 . S
C1120 C1119 1.389 . S
C1120 C1121 1.387 . S
C1121 H1106 0.930 . S
C1121 C1116 1.390 . S
C1121 C1120 1.387 . S
H1122 C1134 0.930 . S
H1123 C1136 0.930 . S
H1124 C1137 0.930 . S
H1125 C1141 0.959 . S
H1126 C1141 0.959 . S
H1127 C1141 0.961 . S
H1128 C1142 0.960 . S
H1129 C1142 0.961 . S
H1130 C1142 0.959 . S
H1131 C1145 0.929 . S
H1132 C1146 0.931 . S
H1133 C1148 0.930 . S
C1134 H1122 0.930 . S
C1134 C1135 1.399 . S
C1134 C1139 1.399 . S
C1135 C1134 1.399 . S
C1135 C1136 1.376 . S
C1136 H1123 0.930 . S
C1136 C1135 1.376 . S
C1136 C1137 1.388 . S
C1137 H1124 0.930 . S
C1137 C1136 1.388 . S
C1137 C1138 1.390 . S
C1138 C1137 1.390 . S
C1138 C1139 1.394 . S
C1138 C1144 1.465 . S
C1139 C1134 1.399 . S
C1139 C1138 1.394 . S
C1139 C1140 1.516 . S
C1140 C1139 1.516 . S
C1140 C1141 1.502 . S
C1140 C1142 1.561 . S
C1140 C1143 1.526 . S
C1141 H1125 0.959 . S
C1141 H1126 0.959 . S
C1141 H1127 0.961 . S
C1141 C1140 1.502 . S
C1142 H1128 0.960 . S
C1142 H1129 0.961 . S
C1142 H1130 0.959 . S
C1142 C1140 1.561 . S
C1143 C1140 1.526 . S
C1143 C1144 1.396 . S
C1143 C1148 1.390 . S
C1144 C1138 1.465 . S
C1144 C1143 1.396 . S
C1144 C1145 1.399 . S
C1145 H1131 0.929 . S
C1145 C1144 1.399 . S
C1145 C1146 1.385 . S
C1146 H1132 0.931 . S
C1146 C1145 1.385 . S
C1146 C1147 1.389 . S
C1147 C1146 1.389 . S
C1147 C1148 1.387 . S
C1148 H1133 0.930 . S
C1148 C1143 1.390 . S
C1148 C1147 1.387 . S
H1149 C1161 0.930 . S
H1150 C1163 0.930 . S
H1151 C1164 0.930 . S
H1152 C1168 0.959 . S
H1153 C1168 0.959 . S
H1154 C1168 0.961 . S
H1155 C1169 0.960 . S
H1156 C1169 0.961 . S
H1157 C1169 0.959 . S
H1158 C1172 0.929 . S
H1159 C1173 0.931 . S
H1160 C1175 0.930 . S
C1161 H1149 0.930 . S
C1161 C1162 1.399 . S
C1161 C1166 1.399 . S
C1162 C1161 1.399 . S
C1162 C1163 1.376 . S
C1163 H1150 0.930 . S
C1163 C1162 1.376 . S
C1163 C1164 1.388 . S
C1164 H1151 0.930 . S
C1164 C1163 1.388 . S
C1164 C1165 1.390 . S
C1165 C1164 1.390 . S
C1165 C1166 1.394 . S
C1165 C1171 1.465 . S
C1166 C1161 1.399 . S
C1166 C1165 1.394 . S
C1166 C1167 1.516 . S
C1167 C1166 1.516 . S
C1167 C1168 1.502 . S
C1167 C1169 1.561 . S
C1167 C1170 1.526 . S
C1168 H1152 0.959 . S
C1168 H1153 0.959 . S
C1168 H1154 0.961 . S
C1168 C1167 1.502 . S
C1169 H1155 0.960 . S
C1169 H1156 0.961 . S
C1169 H1157 0.959 . S
C1169 C1167 1.561 . S
C1170 C1167 1.526 . S
C1170 C1171 1.396 . S
C1170 C1175 1.390 . S
C1171 C1165 1.465 . S
C1171 C1170 1.396 . S
C1171 C1172 1.399 . S
C1172 H1158 0.929 . S
C1172 C1171 1.399 . S
C1172 C1173 1.385 . S
C1173 H1159 0.931 . S
C1173 C1172 1.385 . S
C1173 C1174 1.389 . S
C1174 C1173 1.389 . S
C1174 C1175 1.387 . S
C1175 H1160 0.930 . S
C1175 C1170 1.390 . S
C1175 C1174 1.387 . S
H1176 C1188 0.930 . S
H1177 C1190 0.930 . S
H1178 C1191 0.930 . S
H1179 C1195 0.959 . S
H1180 C1195 0.959 . S
H1181 C1195 0.961 . S
H1182 C1196 0.960 . S
H1183 C1196 0.961 . S
H1184 C1196 0.959 . S
H1185 C1199 0.929 . S
H1186 C1200 0.931 . S
H1187 C1202 0.930 . S
C1188 H1176 0.930 . S
C1188 C1189 1.399 . S
C1188 C1193 1.399 . S
C1189 C1188 1.399 . S
C1189 C1190 1.376 . S
C1190 H1177 0.930 . S
C1190 C1189 1.376 . S
C1190 C1191 1.388 . S
C1191 H1178 0.930 . S
C1191 C1190 1.388 . S
C1191 C1192 1.390 . S
C1192 C1191 1.390 . S
C1192 C1193 1.394 . S
C1192 C1198 1.465 . S
C1193 C1188 1.399 . S
C1193 C1192 1.394 . S
C1193 C1194 1.516 . S
C1194 C1193 1.516 . S
C1194 C1195 1.502 . S
C1194 C1196 1.561 . S
C1194 C1197 1.526 . S
C1195 H1179 0.959 . S
C1195 H1180 0.959 . S
C1195 H1181 0.961 . S
C1195 C1194 1.502 . S
C1196 H1182 0.960 . S
C1196 H1183 0.961 . S
C1196 H1184 0.959 . S
C1196 C1194 1.561 . S
C1197 C1194 1.526 . S
C1197 C1198 1.396 . S
C1197 C1202 1.390 . S
C1198 C1192 1.465 . S
C1198 C1197 1.396 . S
C1198 C1199 1.399 . S
C1199 H1185 0.929 . S
C1199 C1198 1.399 . S
C1199 C1200 1.385 . S
C1200 H1186 0.931 . S
C1200 C1199 1.385 . S
C1200 C1201 1.389 . S
C1201 C1200 1.389 . S
C1201 C1202 1.387 . S
C1202 H1187 0.930 . S
C1202 C1197 1.390 . S
C1202 C1201 1.387 . S
H1203 C1215 0.930 . S
H1204 C1217 0.930 . S
H1205 C1218 0.930 . S
H1206 C1222 0.959 . S
H1207 C1222 0.959 . S
H1208 C1222 0.961 . S
H1209 C1223 0.960 . S
H1210 C1223 0.961 . S
H1211 C1223 0.959 . S
H1212 C1226 0.929 . S
H1213 C1227 0.931 . S
H1214 C1229 0.930 . S
C1215 H1203 0.930 . S
C1215 C1216 1.399 . S
C1215 C1220 1.399 . S
C1216 C1215 1.399 . S
C1216 C1217 1.376 . S
C1217 H1204 0.930 . S
C1217 C1216 1.376 . S
C1217 C1218 1.388 . S
C1218 H1205 0.930 . S
C1218 C1217 1.388 . S
C1218 C1219 1.390 . S
C1219 C1218 1.390 . S
C1219 C1220 1.394 . S
C1219 C1225 1.465 . S
C1220 C1215 1.399 . S
C1220 C1219 1.394 . S
C1220 C1221 1.516 . S
C1221 C1220 1.516 . S
C1221 C1222 1.502 . S
C1221 C1223 1.561 . S
C1221 C1224 1.526 . S
C1222 H1206 0.959 . S
C1222 H1207 0.959 . S
C1222 H1208 0.961 . S
C1222 C1221 1.502 . S
C1223 H1209 0.960 . S
C1223 H1210 0.961 . S
C1223 H1211 0.959 . S
C1223 C1221 1.561 . S
C1224 C1221 1.526 . S
C1224 C1225 1.396 . S
C1224 C1229 1.390 . S
C1225 C1219 1.465 . S
C1225 C1224 1.396 . S
C1225 C1226 1.399 . S
C1226 H1212 0.929 . S
C1226 C1225 1.399 . S
C1226 C1227 1.385 . S
C1227 H1213 0.931 . S
C1227 C1226 1.385 . S
C1227 C1228 1.389 . S
C1228 C1227 1.389 . S
C1228 C1229 1.387 . S
C1229 H1214 0.930 . S
C1229 C1224 1.390 . S
C1229 C1228 1.387 . S
H1230 C1242 0.930 . S
H1231 C1244 0.930 . S
H1232 C1245 0.930 . S
H1233 C1249 0.959 . S
H1234 C1249 0.959 . S
H1235 C1249 0.961 . S
H1236 C1250 0.960 . S
H1237 C1250 0.961 . S
H1238 C1250 0.959 . S
H1239 C1253 0.929 . S
H1240 C1254 0.931 . S
H1241 C1256 0.930 . S
C1242 H1230 0.930 . S
C1242 C1243 1.399 . S
C1242 C1247 1.399 . S
C1243 C1242 1.399 . S
C1243 C1244 1.376 . S
C1244 H1231 0.930 . S
C1244 C1243 1.376 . S
C1244 C1245 1.388 . S
C1245 H1232 0.930 . S
C1245 C1244 1.388 . S
C1245 C1246 1.390 . S
C1246 C1245 1.390 . S
C1246 C1247 1.394 . S
C1246 C1252 1.465 . S
C1247 C1242 1.399 . S
C1247 C1246 1.394 . S
C1247 C1248 1.516 . S
C1248 C1247 1.516 . S
C1248 C1249 1.502 . S
C1248 C1250 1.561 . S
C1248 C1251 1.526 . S
C1249 H1233 0.959 . S
C1249 H1234 0.959 . S
C1249 H1235 0.961 . S
C1249 C1248 1.502 . S
C1250 H1236 0.960 . S
C1250 H1237 0.961 . S
C1250 H1238 0.959 . S
C1250 C1248 1.561 . S
C1251 C1248 1.526 . S
C1251 C1252 1.396 . S
C1251 C1256 1.390 . S
C1252 C1246 1.465 . S
C1252 C1251 1.396 . S
C1252 C1253 1.399 . S
C1253 H1239 0.929 . S
C1253 C1252 1.399 . S
C1253 C1254 1.385 . S
C1254 H1240 0.931 . S
C1254 C1253 1.385 . S
C1254 C1255 1.389 . S
C1255 C1254 1.389 . S
C1255 C1256 1.387 . S
C1256 H1241 0.930 . S
C1256 C1251 1.390 . S
C1256 C1255 1.387 . S
H1257 C1269 0.930 . S
H1258 C1271 0.930 . S
H1259 C1272 0.930 . S
H1260 C1276 0.959 . S
H1261 C1276 0.959 . S
H1262 C1276 0.961 . S
H1263 C1277 0.960 . S
H1264 C1277 0.961 . S
H1265 C1277 0.959 . S
H1266 C1280 0.929 . S
H1267 C1281 0.931 . S
H1268 C1283 0.930 . S
C1269 H1257 0.930 . S
C1269 C1270 1.399 . S
C1269 C1274 1.399 . S
C1270 C1269 1.399 . S
C1270 C1271 1.376 . S
C1271 H1258 0.930 . S
C1271 C1270 1.376 . S
C1271 C1272 1.388 . S
C1272 H1259 0.930 . S
C1272 C1271 1.388 . S
C1272 C1273 1.390 . S
C1273 C1272 1.390 . S
C1273 C1274 1.394 . S
C1273 C1279 1.465 . S
C1274 C1269 1.399 . S
C1274 C1273 1.394 . S
C1274 C1275 1.516 . S
C1275 C1274 1.516 . S
C1275 C1276 1.502 . S
C1275 C1277 1.561 . S
C1275 C1278 1.526 . S
C1276 H1260 0.959 . S
C1276 H1261 0.959 . S
C1276 H1262 0.961 . S
C1276 C1275 1.502 . S
C1277 H1263 0.960 . S
C1277 H1264 0.961 . S
C1277 H1265 0.959 . S
C1277 C1275 1.561 . S
C1278 C1275 1.526 . S
C1278 C1279 1.396 . S
C1278 C1283 1.390 . S
C1279 C1273 1.465 . S
C1279 C1278 1.396 . S
C1279 C1280 1.399 . S
C1280 H1266 0.929 . S
C1280 C1279 1.399 . S
C1280 C1281 1.385 . S
C1281 H1267 0.931 . S
C1281 C1280 1.385 . S
C1281 C1282 1.389 . S
C1282 C1281 1.389 . S
C1282 C1283 1.387 . S
C1283 H1268 0.930 . S
C1283 C1278 1.390 . S
C1283 C1282 1.387 . S
H1284 C1296 0.930 . S
H1285 C1298 0.930 . S
H1286 C1299 0.930 . S
H1287 C1303 0.959 . S
H1288 C1303 0.959 . S
H1289 C1303 0.961 . S
H1290 C1304 0.960 . S
H1291 C1304 0.961 . S
H1292 C1304 0.959 . S
H1293 C1307 0.929 . S
H1294 C1308 0.931 . S
H1295 C1310 0.930 . S
C1296 H1284 0.930 . S
C1296 C1297 1.399 . S
C1296 C1301 1.399 . S
C1297 C1296 1.399 . S
C1297 C1298 1.376 . S
C1298 H1285 0.930 . S
C1298 C1297 1.376 . S
C1298 C1299 1.388 . S
C1299 H1286 0.930 . S
C1299 C1298 1.388 . S
C1299 C1300 1.390 . S
C1300 C1299 1.390 . S
C1300 C1301 1.394 . S
C1300 C1306 1.465 . S
C1301 C1296 1.399 . S
C1301 C1300 1.394 . S
C1301 C1302 1.516 . S
C1302 C1301 1.516 . S
C1302 C1303 1.502 . S
C1302 C1304 1.561 . S
C1302 C1305 1.526 . S
C1303 H1287 0.959 . S
C1303 H1288 0.959 . S
C1303 H1289 0.961 . S
C1303 C1302 1.502 . S
C1304 H1290 0.960 . S
C1304 H1291 0.961 . S
C1304 H1292 0.959 . S
C1304 C1302 1.561 . S
C1305 C1302 1.526 . S
C1305 C1306 1.396 . S
C1305 C1310 1.390 . S
C1306 C1300 1.465 . S
C1306 C1305 1.396 . S
C1306 C1307 1.399 . S
C1307 H1293 0.929 . S
C1307 C1306 1.399 . S
C1307 C1308 1.385 . S
C1308 H1294 0.931 . S
C1308 C1307 1.385 . S
C1308 C1309 1.389 . S
C1309 C1308 1.389 . S
C1309 C1310 1.387 . S
C1310 H1295 0.930 . S
C1310 C1305 1.390 . S
C1310 C1309 1.387 . S
H1311 C1323 0.930 . S
H1312 C1325 0.930 . S
H1313 C1326 0.930 . S
H1314 C1330 0.959 . S
H1315 C1330 0.959 . S
H1316 C1330 0.961 . S
H1317 C1331 0.960 . S
H1318 C1331 0.961 . S
H1319 C1331 0.959 . S
H1320 C1334 0.929 . S
H1321 C1335 0.931 . S
H1322 C1337 0.930 . S
C1323 H1311 0.930 . S
C1323 C1324 1.399 . S
C1323 C1328 1.399 . S
C1324 C1323 1.399 . S
C1324 C1325 1.376 . S
C1325 H1312 0.930 . S
C1325 C1324 1.376 . S
C1325 C1326 1.388 . S
C1326 H1313 0.930 . S
C1326 C1325 1.388 . S
C1326 C1327 1.390 . S
C1327 C1326 1.390 . S
C1327 C1328 1.394 . S
C1327 C1333 1.465 . S
C1328 C1323 1.399 . S
C1328 C1327 1.394 . S
C1328 C1329 1.516 . S
C1329 C1328 1.516 . S
C1329 C1330 1.502 . S
C1329 C1331 1.561 . S
C1329 C1332 1.526 . S
C1330 H1314 0.959 . S
C1330 H1315 0.959 . S
C1330 H1316 0.961 . S
C1330 C1329 1.502 . S
C1331 H1317 0.960 . S
C1331 H1318 0.961 . S
C1331 H1319 0.959 . S
C1331 C1329 1.561 . S
C1332 C1329 1.526 . S
C1332 C1333 1.396 . S
C1332 C1337 1.390 . S
C1333 C1327 1.465 . S
C1333 C1332 1.396 . S
C1333 C1334 1.399 . S
C1334 H1320 0.929 . S
C1334 C1333 1.399 . S
C1334 C1335 1.385 . S
C1335 H1321 0.931 . S
C1335 C1334 1.385 . S
C1335 C1336 1.389 . S
C1336 C1335 1.389 . S
C1336 C1337 1.387 . S
C1337 H1322 0.930 . S
C1337 C1332 1.390 . S
C1337 C1336 1.387 . S
H1338 C1350 0.930 . S
H1339 C1352 0.930 . S
H1340 C1353 0.930 . S
H1341 C1357 0.959 . S
H1342 C1357 0.959 . S
H1343 C1357 0.961 . S
H1344 C1358 0.960 . S
H1345 C1358 0.961 . S
H1346 C1358 0.959 . S
H1347 C1361 0.929 . S
H1348 C1362 0.931 . S
H1349 C1364 0.930 . S
C1350 H1338 0.930 . S
C1350 C1351 1.399 . S
C1350 C1355 1.399 . S
C1351 C1350 1.399 . S
C1351 C1352 1.376 . S
C1352 H1339 0.930 . S
C1352 C1351 1.376 . S
C1352 C1353 1.388 . S
C1353 H1340 0.930 . S
C1353 C1352 1.388 . S
C1353 C1354 1.390 . S
C1354 C1353 1.390 . S
C1354 C1355 1.394 . S
C1354 C1360 1.465 . S
C1355 C1350 1.399 . S
C1355 C1354 1.394 . S
C1355 C1356 1.516 . S
C1356 C1355 1.516 . S
C1356 C1357 1.502 . S
C1356 C1358 1.561 . S
C1356 C1359 1.526 . S
C1357 H1341 0.959 . S
C1357 H1342 0.959 . S
C1357 H1343 0.961 . S
C1357 C1356 1.502 . S
C1358 H1344 0.960 . S
C1358 H1345 0.961 . S
C1358 H1346 0.959 . S
C1358 C1356 1.561 . S
C1359 C1356 1.526 . S
C1359 C1360 1.396 . S
C1359 C1364 1.390 . S
C1360 C1354 1.465 . S
C1360 C1359 1.396 . S
C1360 C1361 1.399 . S
C1361 H1347 0.929 . S
C1361 C1360 1.399 . S
C1361 C1362 1.385 . S
C1362 H1348 0.931 . S
C1362 C1361 1.385 . S
C1362 C1363 1.389 . S
C1363 C1362 1.389 . S
C1363 C1364 1.387 . S
C1364 H1349 0.930 . S
C1364 C1359 1.390 . S
C1364 C1363 1.387 . S
H1365 C1377 0.930 . S
H1366 C1379 0.930 . S
H1367 C1380 0.930 . S
H1368 C1384 0.959 . S
H1369 C1384 0.959 . S
H1370 C1384 0.961 . S
H1371 C1385 0.960 . S
H1372 C1385 0.961 . S
H1373 C1385 0.959 . S
H1374 C1388 0.929 . S
H1375 C1389 0.931 . S
H1376 C1391 0.930 . S
C1377 H1365 0.930 . S
C1377 C1378 1.399 . S
C1377 C1382 1.399 . S
C1378 C1377 1.399 . S
C1378 C1379 1.376 . S
C1379 H1366 0.930 . S
C1379 C1378 1.376 . S
C1379 C1380 1.388 . S
C1380 H1367 0.930 . S
C1380 C1379 1.388 . S
C1380 C1381 1.390 . S
C1381 C1380 1.390 . S
C1381 C1382 1.394 . S
C1381 C1387 1.465 . S
C1382 C1377 1.399 . S
C1382 C1381 1.394 . S
C1382 C1383 1.516 . S
C1383 C1382 1.516 . S
C1383 C1384 1.502 . S
C1383 C1385 1.561 . S
C1383 C1386 1.526 . S
C1384 H1368 0.959 . S
C1384 H1369 0.959 . S
C1384 H1370 0.961 . S
C1384 C1383 1.502 . S
C1385 H1371 0.960 . S
C1385 H1372 0.961 . S
C1385 H1373 0.959 . S
C1385 C1383 1.561 . S
C1386 C1383 1.526 . S
C1386 C1387 1.396 . S
C1386 C1391 1.390 . S
C1387 C1381 1.465 . S
C1387 C1386 1.396 . S
C1387 C1388 1.399 . S
C1388 H1374 0.929 . S
C1388 C1387 1.399 . S
C1388 C1389 1.385 . S
C1389 H1375 0.931 . S
C1389 C1388 1.385 . S
C1389 C1390 1.389 . S
C1390 C1389 1.389 . S
C1390 C1391 1.387 . S
C1391 H1376 0.930 . S
C1391 C1386 1.390 . S
C1391 C1390 1.387 . S
H1392 C1404 0.930 . S
H1393 C1406 0.930 . S
H1394 C1407 0.930 . S
H1395 C1411 0.959 . S
H1396 C1411 0.959 . S
H1397 C1411 0.961 . S
H1398 C1412 0.960 . S
H1399 C1412 0.961 . S
H1400 C1412 0.959 . S
H1401 C1415 0.929 . S
H1402 C1416 0.931 . S
H1403 C1418 0.930 . S
C1404 H1392 0.930 . S
C1404 C1405 1.399 . S
C1404 C1409 1.399 . S
C1405 C1404 1.399 . S
C1405 C1406 1.376 . S
C1406 H1393 0.930 . S
C1406 C1405 1.376 . S
C1406 C1407 1.388 . S
C1407 H1394 0.930 . S
C1407 C1406 1.388 . S
C1407 C1408 1.390 . S
C1408 C1407 1.390 . S
C1408 C1409 1.394 . S
C1408 C1414 1.465 . S
C1409 C1404 1.399 . S
C1409 C1408 1.394 . S
C1409 C1410 1.516 . S
C1410 C1409 1.516 . S
C1410 C1411 1.502 . S
C1410 C1412 1.561 . S
C1410 C1413 1.526 . S
C1411 H1395 0.959 . S
C1411 H1396 0.959 . S
C1411 H1397 0.961 . S
C1411 C1410 1.502 . S
C1412 H1398 0.960 . S
C1412 H1399 0.961 . S
C1412 H1400 0.959 . S
C1412 C1410 1.561 . S
C1413 C1410 1.526 . S
C1413 C1414 1.396 . S
C1413 C1418 1.390 . S
C1414 C1408 1.465 . S
C1414 C1413 1.396 . S
C1414 C1415 1.399 . S
C1415 H1401 0.929 . S
C1415 C1414 1.399 . S
C1415 C1416 1.385 . S
C1416 H1402 0.931 . S
C1416 C1415 1.385 . S
C1416 C1417 1.389 . S
C1417 C1416 1.389 . S
C1417 C1418 1.387 . S
C1418 H1403 0.930 . S
C1418 C1413 1.390 . S
C1418 C1417 1.387 . S
H1419 C1431 0.930 . S
H1420 C1433 0.930 . S
H1421 C1434 0.930 . S
H1422 C1438 0.959 1_455 S
H1423 C1438 0.959 . S
H1424 C1438 0.961 . S
H1425 C1439 0.960 . S
H1426 C1439 0.961 . S
H1427 C1439 0.959 . S
H1428 C1442 0.929 . S
H1429 C1443 0.931 . S
H1430 C1445 0.930 . S
C1431 H1419 0.930 . S
C1431 C1432 1.399 . S
C1431 C1436 1.399 . S
C1432 C1431 1.399 . S
C1432 C1433 1.376 . S
C1433 H1420 0.930 . S
C1433 C1432 1.376 . S
C1433 C1434 1.388 . S
C1434 H1421 0.930 . S
C1434 C1433 1.388 . S
C1434 C1435 1.390 . S
C1435 C1434 1.390 . S
C1435 C1436 1.394 . S
C1435 C1441 1.465 . S
C1436 C1431 1.399 . S
C1436 C1435 1.394 . S
C1436 C1437 1.516 . S
C1437 C1436 1.516 . S
C1437 C1438 1.502 . S
C1437 C1439 1.561 . S
C1437 C1440 1.526 . S
C1438 H1422 0.959 1_655 S
C1438 H1423 0.959 . S
C1438 H1424 0.961 . S
C1438 C1437 1.502 . S
C1439 H1425 0.960 . S
C1439 H1426 0.961 . S
C1439 H1427 0.959 . S
C1439 C1437 1.561 . S
C1440 C1437 1.526 . S
C1440 C1441 1.396 . S
C1440 C1445 1.390 . S
C1441 C1435 1.465 . S
C1441 C1440 1.396 . S
C1441 C1442 1.399 . S
C1442 H1428 0.929 . S
C1442 C1441 1.399 . S
C1442 C1443 1.385 . S
C1443 H1429 0.931 . S
C1443 C1442 1.385 . S
C1443 C1444 1.389 . S
C1444 C1443 1.389 . S
C1444 C1445 1.387 . S
C1445 H1430 0.930 . S
C1445 C1440 1.390 . S
C1445 C1444 1.387 . S
H1446 C1458 0.930 . S
H1447 C1460 0.930 . S
H1448 C1461 0.930 . S
H1449 C1465 0.959 1_655 S
H1450 C1465 0.959 . S
H1451 C1465 0.961 . S
H1452 C1466 0.960 . S
H1453 C1466 0.961 . S
H1454 C1466 0.959 . S
H1455 C1469 0.929 . S
H1456 C1470 0.931 . S
H1457 C1472 0.930 . S
C1458 H1446 0.930 . S
C1458 C1459 1.399 . S
C1458 C1463 1.399 . S
C1459 C1458 1.399 . S
C1459 C1460 1.376 . S
C1460 H1447 0.930 . S
C1460 C1459 1.376 . S
C1460 C1461 1.388 . S
C1461 H1448 0.930 . S
C1461 C1460 1.388 . S
C1461 C1462 1.390 . S
C1462 C1461 1.390 . S
C1462 C1463 1.394 . S
C1462 C1468 1.465 . S
C1463 C1458 1.399 . S
C1463 C1462 1.394 . S
C1463 C1464 1.516 . S
C1464 C1463 1.516 . S
C1464 C1465 1.502 . S
C1464 C1466 1.561 . S
C1464 C1467 1.526 . S
C1465 H1449 0.959 1_455 S
C1465 H1450 0.959 . S
C1465 H1451 0.961 . S
C1465 C1464 1.502 . S
C1466 H1452 0.960 . S
C1466 H1453 0.961 . S
C1466 H1454 0.959 . S
C1466 C1464 1.561 . S
C1467 C1464 1.526 . S
C1467 C1468 1.396 . S
C1467 C1472 1.390 . S
C1468 C1462 1.465 . S
C1468 C1467 1.396 . S
C1468 C1469 1.399 . S
C1469 H1455 0.929 . S
C1469 C1468 1.399 . S
C1469 C1470 1.385 . S
C1470 H1456 0.931 . S
C1470 C1469 1.385 . S
C1470 C1471 1.389 . S
C1471 C1470 1.389 . S
C1471 C1472 1.387 . S
C1472 H1457 0.930 . S
C1472 C1467 1.390 . S
C1472 C1471 1.387 . S
H1473 C1485 0.930 . S
H1474 C1487 0.930 . S
H1475 C1488 0.930 . S
H1476 C1492 0.959 1_455 S
H1477 C1492 0.959 . S
H1478 C1492 0.961 . S
H1479 C1493 0.960 . S
H1480 C1493 0.961 . S
H1481 C1493 0.959 . S
H1482 C1496 0.929 . S
H1483 C1497 0.931 . S
H1484 C1499 0.930 . S
C1485 H1473 0.930 . S
C1485 C1486 1.399 . S
C1485 C1490 1.399 . S
C1486 C1485 1.399 . S
C1486 C1487 1.376 . S
C1487 H1474 0.930 . S
C1487 C1486 1.376 . S
C1487 C1488 1.388 . S
C1488 H1475 0.930 . S
C1488 C1487 1.388 . S
C1488 C1489 1.390 . S
C1489 C1488 1.390 . S
C1489 C1490 1.394 . S
C1489 C1495 1.465 . S
C1490 C1485 1.399 . S
C1490 C1489 1.394 . S
C1490 C1491 1.516 . S
C1491 C1490 1.516 . S
C1491 C1492 1.502 . S
C1491 C1493 1.561 . S
C1491 C1494 1.526 . S
C1492 H1476 0.959 1_655 S
C1492 H1477 0.959 . S
C1492 H1478 0.961 . S
C1492 C1491 1.502 . S
C1493 H1479 0.960 . S
C1493 H1480 0.961 . S
C1493 H1481 0.959 . S
C1493 C1491 1.561 . S
C1494 C1491 1.526 . S
C1494 C1495 1.396 . S
C1494 C1499 1.390 . S
C1495 C1489 1.465 . S
C1495 C1494 1.396 . S
C1495 C1496 1.399 . S
C1496 H1482 0.929 . S
C1496 C1495 1.399 . S
C1496 C1497 1.385 . S
C1497 H1483 0.931 . S
C1497 C1496 1.385 . S
C1497 C1498 1.389 . S
C1498 C1497 1.389 . S
C1498 C1499 1.387 . S
C1499 H1484 0.930 . S
C1499 C1494 1.390 . S
C1499 C1498 1.387 . S
H1500 C1512 0.930 . S
H1501 C1514 0.930 . S
H1502 C1515 0.930 . S
H1503 C1519 0.959 . S
H1504 C1519 0.959 . S
H1505 C1519 0.961 . S
H1506 C1520 0.960 . S
H1507 C1520 0.961 . S
H1508 C1520 0.959 . S
H1509 C1523 0.929 . S
H1510 C1524 0.931 . S
H1511 C1526 0.930 . S
C1512 H1500 0.930 . S
C1512 C1513 1.399 . S
C1512 C1517 1.399 . S
C1513 C1512 1.399 . S
C1513 C1514 1.376 . S
C1514 H1501 0.930 . S
C1514 C1513 1.376 . S
C1514 C1515 1.388 . S
C1515 H1502 0.930 . S
C1515 C1514 1.388 . S
C1515 C1516 1.390 . S
C1516 C1515 1.390 . S
C1516 C1517 1.394 . S
C1516 C1522 1.465 . S
C1517 C1512 1.399 . S
C1517 C1516 1.394 . S
C1517 C1518 1.516 . S
C1518 C1517 1.516 . S
C1518 C1519 1.502 . S
C1518 C1520 1.561 . S
C1518 C1521 1.526 . S
C1519 H1503 0.959 . S
C1519 H1504 0.959 . S
C1519 H1505 0.961 . S
C1519 C1518 1.502 . S
C1520 H1506 0.960 . S
C1520 H1507 0.961 . S
C1520 H1508 0.959 . S
C1520 C1518 1.561 . S
C1521 C1518 1.526 . S
C1521 C1522 1.396 . S
C1521 C1526 1.390 . S
C1522 C1516 1.465 . S
C1522 C1521 1.396 . S
C1522 C1523 1.399 . S
C1523 H1509 0.929 . S
C1523 C1522 1.399 . S
C1523 C1524 1.385 . S
C1524 H1510 0.931 . S
C1524 C1523 1.385 . S
C1524 C1525 1.389 . S
C1525 C1524 1.389 . S
C1525 C1526 1.387 . S
C1526 H1511 0.930 . S
C1526 C1521 1.390 . S
C1526 C1525 1.387 . S
H1527 C1539 0.930 . S
H1528 C1541 0.930 . S
H1529 C1542 0.930 . S
H1530 C1546 0.959 . S
H1531 C1546 0.959 . S
H1532 C1546 0.961 . S
H1533 C1547 0.960 . S
H1534 C1547 0.961 . S
H1535 C1547 0.959 . S
H1536 C1550 0.929 . S
H1537 C1551 0.931 . S
H1538 C1553 0.930 . S
C1539 H1527 0.930 . S
C1539 C1540 1.399 . S
C1539 C1544 1.399 . S
C1540 C1539 1.399 . S
C1540 C1541 1.376 . S
C1541 H1528 0.930 . S
C1541 C1540 1.376 . S
C1541 C1542 1.388 . S
C1542 H1529 0.930 . S
C1542 C1541 1.388 . S
C1542 C1543 1.390 . S
C1543 C1542 1.390 . S
C1543 C1544 1.394 . S
C1543 C1549 1.465 . S
C1544 C1539 1.399 . S
C1544 C1543 1.394 . S
C1544 C1545 1.516 . S
C1545 C1544 1.516 . S
C1545 C1546 1.502 . S
C1545 C1547 1.561 . S
C1545 C1548 1.526 . S
C1546 H1530 0.959 . S
C1546 H1531 0.959 . S
C1546 H1532 0.961 . S
C1546 C1545 1.502 . S
C1547 H1533 0.960 . S
C1547 H1534 0.961 . S
C1547 H1535 0.959 . S
C1547 C1545 1.561 . S
C1548 C1545 1.526 . S
C1548 C1549 1.396 . S
C1548 C1553 1.390 . S
C1549 C1543 1.465 . S
C1549 C1548 1.396 . S
C1549 C1550 1.399 . S
C1550 H1536 0.929 . S
C1550 C1549 1.399 . S
C1550 C1551 1.385 . S
C1551 H1537 0.931 . S
C1551 C1550 1.385 . S
C1551 C1552 1.389 . S
C1552 C1551 1.389 . S
C1552 C1553 1.387 . S
C1553 H1538 0.930 . S
C1553 C1548 1.390 . S
C1553 C1552 1.387 . S
H1554 C1566 0.930 . S
H1555 C1568 0.930 . S
H1556 C1569 0.930 . S
H1557 C1573 0.959 . S
H1558 C1573 0.959 . S
H1559 C1573 0.961 . S
H1560 C1574 0.960 . S
H1561 C1574 0.961 . S
H1562 C1574 0.959 . S
H1563 C1577 0.929 . S
H1564 C1578 0.931 . S
H1565 C1580 0.930 . S
C1566 H1554 0.930 . S
C1566 C1567 1.399 . S
C1566 C1571 1.399 . S
C1567 C1566 1.399 . S
C1567 C1568 1.376 . S
C1568 H1555 0.930 . S
C1568 C1567 1.376 . S
C1568 C1569 1.388 . S
C1569 H1556 0.930 . S
C1569 C1568 1.388 . S
C1569 C1570 1.390 . S
C1570 C1569 1.390 . S
C1570 C1571 1.394 . S
C1570 C1576 1.465 . S
C1571 C1566 1.399 . S
C1571 C1570 1.394 . S
C1571 C1572 1.516 . S
C1572 C1571 1.516 . S
C1572 C1573 1.502 . S
C1572 C1574 1.561 . S
C1572 C1575 1.526 . S
C1573 H1557 0.959 . S
C1573 H1558 0.959 . S
C1573 H1559 0.961 . S
C1573 C1572 1.502 . S
C1574 H1560 0.960 . S
C1574 H1561 0.961 . S
C1574 H1562 0.959 . S
C1574 C1572 1.561 . S
C1575 C1572 1.526 . S
C1575 C1576 1.396 . S
C1575 C1580 1.390 . S
C1576 C1570 1.465 . S
C1576 C1575 1.396 . S
C1576 C1577 1.399 . S
C1577 H1563 0.929 . S
C1577 C1576 1.399 . S
C1577 C1578 1.385 . S
C1578 H1564 0.931 . S
C1578 C1577 1.385 . S
C1578 C1579 1.389 . S
C1579 C1578 1.389 . S
C1579 C1580 1.387 . S
C1580 H1565 0.930 . S
C1580 C1575 1.390 . S
C1580 C1579 1.387 . S
H1581 C1593 0.930 . S
H1582 C1595 0.930 . S
H1583 C1596 0.930 . S
H1584 C1600 0.959 . S
H1585 C1600 0.959 . S
H1586 C1600 0.961 . S
H1587 C1601 0.960 . S
H1588 C1601 0.961 . S
H1589 C1601 0.959 . S
H1590 C1604 0.929 . S
H1591 C1605 0.931 . S
H1592 C1607 0.930 . S
C1593 H1581 0.930 . S
C1593 C1594 1.399 . S
C1593 C1598 1.399 . S
C1594 C1593 1.399 . S
C1594 C1595 1.376 . S
C1595 H1582 0.930 . S
C1595 C1594 1.376 . S
C1595 C1596 1.388 . S
C1596 H1583 0.930 . S
C1596 C1595 1.388 . S
C1596 C1597 1.390 . S
C1597 C1596 1.390 . S
C1597 C1598 1.394 . S
C1597 C1603 1.465 . S
C1598 C1593 1.399 . S
C1598 C1597 1.394 . S
C1598 C1599 1.516 . S
C1599 C1598 1.516 . S
C1599 C1600 1.502 . S
C1599 C1601 1.561 . S
C1599 C1602 1.526 . S
C1600 H1584 0.959 . S
C1600 H1585 0.959 . S
C1600 H1586 0.961 . S
C1600 C1599 1.502 . S
C1601 H1587 0.960 . S
C1601 H1588 0.961 . S
C1601 H1589 0.959 . S
C1601 C1599 1.561 . S
C1602 C1599 1.526 . S
C1602 C1603 1.396 . S
C1602 C1607 1.390 . S
C1603 C1597 1.465 . S
C1603 C1602 1.396 . S
C1603 C1604 1.399 . S
C1604 H1590 0.929 . S
C1604 C1603 1.399 . S
C1604 C1605 1.385 . S
C1605 H1591 0.931 . S
C1605 C1604 1.385 . S
C1605 C1606 1.389 . S
C1606 C1605 1.389 . S
C1606 C1607 1.387 . S
C1607 H1592 0.930 . S
C1607 C1602 1.390 . S
C1607 C1606 1.387 . S
C541 N2 1.546 . S
C553 N464 1.619 . S
C568 N79 1.585 . S
C580 N13 1.608 . S
C595 N35 1.575 . S
C607 N365 1.599 . S
C622 N244 1.590 . S
C634 N46 1.604 . S
C649 N68 1.613 . S
C661 N398 1.543 . S
C676 N101 1.618 . S
C688 N299 1.541 . S
C703 N112 1.605 . S
C715 N178 1.584 . S
C730 N332 1.543 . S
C742 N134 1.621 . S
C757 N211 1.602 . S
C769 N145 1.587 . S
C784 N167 1.592 . S
C796 N497 1.583 . S
C811 N266 1.607 . S
C823 N200 1.547 . S
C838 N431 1.571 . S
C850 N233 1.579 . S
C865 N277 1.587 . S
C877 N343 1.607 . S
C892 N508 1.602 . S
C904 N310 1.586 . S
C919 N376 1.584 . S
C931 N442 1.608 . S
C946 N409 1.605 . S
C958 N475 1.585 . S
C973 C7 1.088 . S
C985 C318 1.125 . S
C1000 C304 1.088 . S
C1012 C21 1.130 . S
C1027 C40 1.163 . S
C1039 C285 1.142 . S
C1054 C54 1.162 . S
C1066 C271 1.133 . S
C1081 C384 1.137 . S
C1093 C73 1.091 . S
C1108 C370 1.125 . S
C1120 C87 1.160 . S
C1135 C106 1.140 . S
C1147 C351 1.108 . S
C1162 C120 1.145 . S
C1174 C337 1.089 . S
C1189 C139 1.163 . S
C1201 C450 1.137 . S
C1216 C436 1.163 . S
C1228 C153 1.138 . S
C1243 C172 1.091 . S
C1255 C417 1.141 . S
C1270 C403 1.089 . S
C1282 C186 1.137 . S
C1297 C516 1.136 . S
C1309 C205 1.091 . S
C1324 C219 1.141 . S
C1336 C502 1.089 . S
C1351 C238 1.135 . S
C1363 C483 1.109 . S
C1378 C252 1.156 . S
C1390 C469 1.138 . S
C1405 C51 1.092 . S
C1417 C18 1.105 . S
C1432 C84 1.090 . S
C1444 C117 1.105 . S
C1459 C150 1.104 . S
C1471 C183 1.089 . S
C1486 C216 1.091 . S
C1498 C249 1.105 . S
C1513 C315 1.106 . S
C1525 C282 1.089 . S
C1540 C381 1.100 . S
C1552 C348 1.093 . S
C1567 C414 1.103 . S
C1579 C447 1.090 . S
C1594 C513 1.105 . S
C1606 C480 1.090 . S
