# Generated by pormake.
# Topology wht, (6)-cn, num edge types: 1
# Building blocks:
#     Node 0, Type 0, BuildingBlock: VOLQOD_clean_sbu_1, # of connection points: 6
#     Node 1, Type 0, BuildingBlock: VOLQOD_clean_sbu_1, # of connection points: 6
#     Node 2, Type 0, BuildingBlock: VOLQOD_clean_sbu_1, # of connection points: 6
#     Node 3, Type 0, BuildingBlock: VOLQOD_clean_sbu_1, # of connection points: 6
#     Node 4, Type 0, BuildingBlock: VOLQOD_clean_sbu_1, # of connection points: 6
#     Node 5, Type 0, BuildingBlock: VOLQOD_clean_sbu_1, # of connection points: 6
#     Node 6, Type 0, BuildingBlock: VOLQOD_clean_sbu_1, # of connection points: 6
#     Node 7, Type 0, BuildingBlock: VOLQOD_clean_sbu_1, # of connection points: 6
#     Edge 8, Type (0, 0), BuildingBlock: EYOCIG_clean_linker_4, # of connection points: 2
#     Edge 9, Type (0, 0), BuildingBlock: EYOCIG_clean_linker_4, # of connection points: 2
#     Edge 10, Type (0, 0), BuildingBlock: EYOCIG_clean_linker_4, # of connection points: 2
#     Edge 11, Type (0, 0), BuildingBlock: EYOCIG_clean_linker_4, # of connection points: 2
#     Edge 12, Type (0, 0), BuildingBlock: EYOCIG_clean_linker_4, # of connection points: 2
#     Edge 13, Type (0, 0), BuildingBlock: EYOCIG_clean_linker_4, # of connection points: 2
#     Edge 14, Type (0, 0), BuildingBlock: EYOCIG_clean_linker_4, # of connection points: 2
#     Edge 15, Type (0, 0), BuildingBlock: EYOCIG_clean_linker_4, # of connection points: 2
#     Edge 16, Type (0, 0), BuildingBlock: EYOCIG_clean_linker_4, # of connection points: 2
#     Edge 17, Type (0, 0), BuildingBlock: EYOCIG_clean_linker_4, # of connection points: 2
#     Edge 18, Type (0, 0), BuildingBlock: EYOCIG_clean_linker_4, # of connection points: 2
#     Edge 19, Type (0, 0), BuildingBlock: EYOCIG_clean_linker_4, # of connection points: 2
#     Edge 20, Type (0, 0), BuildingBlock: EYOCIG_clean_linker_4, # of connection points: 2
#     Edge 21, Type (0, 0), BuildingBlock: EYOCIG_clean_linker_4, # of connection points: 2
#     Edge 22, Type (0, 0), BuildingBlock: EYOCIG_clean_linker_4, # of connection points: 2
#     Edge 23, Type (0, 0), BuildingBlock: EYOCIG_clean_linker_4, # of connection points: 2
#     Edge 24, Type (0, 0), BuildingBlock: EYOCIG_clean_linker_4, # of connection points: 2
#     Edge 25, Type (0, 0), BuildingBlock: EYOCIG_clean_linker_4, # of connection points: 2
#     Edge 26, Type (0, 0), BuildingBlock: EYOCIG_clean_linker_4, # of connection points: 2
#     Edge 27, Type (0, 0), BuildingBlock: EYOCIG_clean_linker_4, # of connection points: 2
#     Edge 28, Type (0, 0), BuildingBlock: EYOCIG_clean_linker_4, # of connection points: 2
#     Edge 29, Type (0, 0), BuildingBlock: EYOCIG_clean_linker_4, # of connection points: 2
#     Edge 30, Type (0, 0), BuildingBlock: EYOCIG_clean_linker_4, # of connection points: 2
#     Edge 31, Type (0, 0), BuildingBlock: EYOCIG_clean_linker_4, # of connection points: 2
# Relax obj value: 0.363
# Max RMSD: 0.254
# Mean RMSD: 0.253
data_MOF--net-wht--node1-VOLQOD_clean_sbu_1--edge1-EYOCIG_clean_linker_4
_symmetry_space_group_name_H-M    P1
_symmetry_Int_Tables_number       1
_symmetry_cell_setting            triclinic
loop_
_symmetry_equiv_pos_as_xyz
'x, y, z'
_cell_length_a     22.165725
_cell_length_b     22.002411
_cell_length_c     41.83267
_cell_angle_alpha  90.041279
_cell_angle_beta   90.010663
_cell_angle_gamma 89.997281
loop_
_atom_site_label
_atom_site_type_symbol
_atom_site_fract_x
_atom_site_fract_y
_atom_site_fract_z
_atom_type_partial_charge
O0 O 0.12835 0.29523 0.17963 0.0
Zn1 Zn 0.14983 0.26903 0.13451 0.0
O2 O 0.07462 0.25902 0.11161 0.0
Zn3 Zn 0.05673 0.17457 0.10429 0.0
Zn4 Zn 0.00831 0.29761 0.1336 0.0
Zn5 Zn 0.0827 0.29316 0.07024 0.0
O6 O 0.03805 0.15739 0.05836 0.0
O7 O 0.09933 0.22806 0.03841 0.0
O8 O 0.19885 0.1883 0.13328 0.0
O9 O 0.13016 0.12583 0.11244 0.0
O10 O 0.9951 0.14436 0.13516 0.0
O11 O 0.96209 0.23204 0.15519 0.0
O12 O 0.95303 0.34437 0.10194 0.0
O13 O 0.19565 0.34172 0.1152 0.0
O14 O 0.00604 0.3316 0.0572 0.0
O15 O 0.14465 0.35845 0.07019 0.0
C16 C 0.08614 0.32982 0.18975 0.0
C17 C 0.06985 0.17872 0.03568 0.0
C18 C 0.9625 0.17439 0.1545 0.0
C19 C 0.1825 0.13561 0.12351 0.0
C20 C 0.95957 0.35073 0.07172 0.0
C21 C 0.18601 0.37254 0.08982 0.0
O22 O 0.04072 0.34408 0.17236 0.0
O23 O 0.30042 0.61716 0.29249 0.0
Zn24 Zn 0.26873 0.64759 0.33429 0.0
O25 O 0.2595 0.57927 0.36258 0.0
Zn26 Zn 0.17619 0.56135 0.37197 0.0
Zn27 Zn 0.29631 0.50871 0.34315 0.0
Zn28 Zn 0.29983 0.59845 0.40157 0.0
O29 O 0.16267 0.55994 0.42056 0.0
O30 O 0.24094 0.61643 0.43651 0.0
O31 O 0.18809 0.69119 0.3281 0.0
O32 O 0.12601 0.62957 0.35482 0.0
O33 O 0.14713 0.48778 0.34604 0.0
O34 O 0.2316 0.46065 0.32099 0.0
O35 O 0.33929 0.45779 0.37642 0.0
O36 O 0.33779 0.70194 0.34903 0.0
O37 O 0.34094 0.52508 0.41624 0.0
O38 O 0.36431 0.66148 0.39563 0.0
C39 C 0.34081 0.57693 0.28792 0.0
C40 C 0.19071 0.59037 0.44202 0.0
C41 C 0.17488 0.45639 0.32497 0.0
C42 C 0.13545 0.67659 0.33789 0.0
C43 C 0.3532 0.47328 0.40482 0.0
C44 C 0.37311 0.69895 0.37302 0.0
O45 O 0.35222 0.53547 0.30824 0.0
O46 O 0.88038 0.72315 0.67914 0.0
Zn47 Zn 0.85912 0.74894 0.6339 0.0
O48 O 0.9344 0.76055 0.61122 0.0
Zn49 Zn 0.95173 0.84532 0.60402 0.0
Zn50 Zn 1.00099 0.72325 0.63376 0.0
Zn51 Zn 0.92696 0.72645 0.56963 0.0
O52 O 0.96865 0.8641 0.5581 0.0
O53 O 0.91087 0.79137 0.5373 0.0
O54 O 0.80973 0.82926 0.63312 0.0
O55 O 0.87841 0.89297 0.61332 0.0
O56 O 0.01454 0.87636 0.6339 0.0
O57 O 0.04747 0.78947 0.65474 0.0
O58 O 0.05645 0.6764 0.60268 0.0
O59 O 0.81409 0.67587 0.61406 0.0
O60 O 1.00432 0.6885 0.55755 0.0
O61 O 0.86532 0.66033 0.56901 0.0
C62 C 0.92354 0.69044 0.68978 0.0
C63 C 0.93861 0.84182 0.53501 0.0
C64 C 0.04756 0.84704 0.6533 0.0
C65 C 0.8261 0.88244 0.62417 0.0
C66 C 0.05053 0.6698 0.57246 0.0
C67 C 0.82398 0.6455 0.58851 0.0
O68 O 0.9697 0.67724 0.67275 0.0
O69 O 0.79027 0.38393 0.92897 0.0
Zn70 Zn 0.76494 0.36204 0.88373 0.0
O71 O 0.75417 0.43804 0.86103 0.0
Zn72 Zn 0.67003 0.45514 0.85381 0.0
Zn73 Zn 0.79107 0.50566 0.88329 0.0
Zn74 Zn 0.78844 0.43025 0.81957 0.0
O75 O 0.65244 0.47394 0.80811 0.0
O76 O 0.72377 0.41438 0.78746 0.0
O77 O 0.68487 0.31203 0.8826 0.0
O78 O 0.62216 0.38108 0.86226 0.0
O79 O 0.63906 0.51737 0.88413 0.0
O80 O 0.72507 0.55276 0.90428 0.0
O81 O 0.83855 0.561 0.85194 0.0
O82 O 0.83803 0.31669 0.86435 0.0
O83 O 0.8269 0.50765 0.80707 0.0
O84 O 0.85383 0.36785 0.81923 0.0
C85 C 0.82299 0.42735 0.93952 0.0
C86 C 0.67419 0.44321 0.78511 0.0
C87 C 0.66785 0.55148 0.90325 0.0
C88 C 0.63226 0.32836 0.87319 0.0
C89 C 0.84566 0.55438 0.82177 0.0
C90 C 0.8685 0.32648 0.8389 0.0
O91 O 0.83629 0.47373 0.92243 0.0
O92 O 0.62957 0.22129 0.50833 0.0
Zn93 Zn 0.65037 0.24804 0.55349 0.0
O94 O 0.5747 0.25857 0.57595 0.0
Zn95 Zn 0.55695 0.34327 0.58284 0.0
Zn96 Zn 0.50847 0.22006 0.55377 0.0
Zn97 Zn 0.58198 0.22508 0.61755 0.0
O98 O 0.53791 0.36158 0.62849 0.0
O99 O 0.59844 0.29092 0.64905 0.0
O100 O 0.69943 0.32884 0.55452 0.0
O101 O 0.6304 0.3918 0.5746 0.0
O102 O 0.49545 0.37336 0.55199 0.0
O103 O 0.46214 0.28563 0.5322 0.0
O104 O 0.45291 0.17331 0.58528 0.0
O105 O 0.69586 0.17567 0.57349 0.0
O106 O 0.50494 0.18693 0.63029 0.0
O107 O 0.64402 0.15971 0.6183 0.0
C108 C 0.58703 0.18746 0.49789 0.0
C109 C 0.56954 0.34068 0.65133 0.0
C110 C 0.46261 0.34327 0.53281 0.0
C111 C 0.68291 0.38178 0.56385 0.0
C112 C 0.45882 0.16745 0.61557 0.0
C113 C 0.68581 0.14531 0.59899 0.0
O114 O 0.54102 0.17383 0.51496 0.0
O115 O 0.28996 0.13379 0.75869 0.0
Zn116 Zn 0.26514 0.15456 0.80418 0.0
O117 O 0.25463 0.07796 0.82628 0.0
Zn118 Zn 0.17058 0.06018 0.83333 0.0
Zn119 Zn 0.29237 0.01131 0.80372 0.0
Zn120 Zn 0.28858 0.08484 0.86778 0.0
O121 O 0.15248 0.04214 0.87911 0.0
O122 O 0.22366 0.1022 0.89948 0.0
O123 O 0.18489 0.20431 0.80587 0.0
O124 O 0.12222 0.13389 0.82487 0.0
O125 O 0.14042 0.99775 0.80284 0.0
O126 O 0.22696 0.96425 0.78241 0.0
O127 O 0.3398 0.95542 0.83484 0.0
O128 O 0.33839 0.1993 0.82384 0.0
O129 O 0.32588 1.00676 0.88019 0.0
O130 O 0.35463 0.14641 0.86836 0.0
C131 C 0.32297 0.09085 0.74783 0.0
C132 C 0.17377 0.07396 0.90184 0.0
C133 C 0.16975 0.96463 0.78346 0.0
C134 C 0.13217 0.18718 0.81471 0.0
C135 C 0.34553 0.96075 0.86518 0.0
C136 C 0.36917 0.18845 0.84907 0.0
O137 O 0.3371 0.04443 0.7647 0.0
O138 O 0.37996 0.79276 0.00812 0.0
Zn139 Zn 0.35905 0.76841 0.05359 0.0
O140 O 0.43449 0.75715 0.07616 0.0
Zn141 Zn 0.4518 0.67246 0.08346 0.0
Zn142 Zn 0.50079 0.79437 0.05337 0.0
Zn143 Zn 0.42733 0.79158 0.11766 0.0
O144 O 0.46981 0.65415 0.12939 0.0
O145 O 0.41177 0.72677 0.15012 0.0
O146 O 0.30927 0.68852 0.05514 0.0
O147 O 0.37807 0.62498 0.07497 0.0
O148 O 0.51331 0.64115 0.05284 0.0
O149 O 0.54688 0.728 0.03222 0.0
O150 O 0.55654 0.8417 0.0843 0.0
O151 O 0.31446 0.84195 0.07308 0.0
O152 O 0.50466 0.8299 0.12952 0.0
O153 O 0.36545 0.8575 0.11822 0.0
C154 C 0.42286 0.82554 -0.00274 0.0
C155 C 0.43977 0.67647 0.15248 0.0
C156 C 0.54623 0.67039 0.03336 0.0
C157 C 0.32557 0.63551 0.06437 0.0
C158 C 0.55076 0.8486 0.11453 0.0
C159 C 0.32425 0.87235 0.09863 0.0
O160 O 0.46885 0.83965 0.01423 0.0
O161 O 0.79998 0.90171 0.39524 0.0
Zn162 Zn 0.7684 0.87067 0.35355 0.0
O163 O 0.75929 0.9385 0.32489 0.0
Zn164 Zn 0.67595 0.95623 0.31541 0.0
Zn165 Zn 0.79612 0.0092 0.3442 0.0
Zn166 Zn 0.8 0.91908 0.28601 0.0
O167 O 0.66264 0.95713 0.26672 0.0
O168 O 0.7414 0.90129 0.25079 0.0
O169 O 0.68778 0.82729 0.36005 0.0
O170 O 0.6257 0.88824 0.33291 0.0
O171 O 0.64697 0.03014 0.34119 0.0
O172 O 0.73142 0.0572 0.3663 0.0
O173 O 0.83907 0.06008 0.31093 0.0
O174 O 0.83746 0.81608 0.33913 0.0
O175 O 0.84151 0.99233 0.27135 0.0
O176 O 0.86431 0.85596 0.29243 0.0
C177 C 0.8405 0.94186 0.39965 0.0
C178 C 0.69102 0.92708 0.24523 0.0
C179 C 0.67472 0.06151 0.36228 0.0
C180 C 0.63513 0.84166 0.35019 0.0
C181 C 0.85348 0.04431 0.28265 0.0
C182 C 0.87297 0.8188 0.31522 0.0
O183 O 0.85212 0.98289 0.37914 0.0
C184 C 0.91743 0.12667 0.20636 0.0
C185 C 0.93886 0.14429 0.18178 0.0
C186 C 0.8979 0.1087 0.23673 0.0
C187 C 0.87874 0.08653 0.26081 0.0
C188 C 0.39752 0.40887 0.45071 0.0
C189 C 0.37847 0.431 0.42661 0.0
C190 C 0.41709 0.39095 0.48108 0.0
C191 C 0.43873 0.3733 0.50559 0.0
C192 C 0.09678 0.89821 0.7032 0.0
C193 C 0.07346 0.87857 0.67955 0.0
C194 C 0.11842 0.91821 0.7328 0.0
C195 C 0.13887 0.94018 0.75664 0.0
C196 C 0.59372 0.61921 -0.01708 0.0
C197 C 0.57117 0.63902 0.00676 0.0
C198 C 0.6154 0.5988 0.95339 0.0
C199 C 0.63645 0.57636 0.92981 0.0
C200 C 0.10123 0.37282 0.24841 0.0
C201 C 0.09173 0.35468 0.22155 0.0
C202 C 0.1195 0.39759 0.27824 0.0
C203 C 0.1408 0.42499 0.30065 0.0
C204 C 0.12401 0.62204 0.53064 0.0
C205 C 0.09643 0.64168 0.55329 0.0
C206 C 0.14745 0.60567 0.50037 0.0
C207 C 0.16507 0.59716 0.47341 0.0
C208 C 0.89432 0.62737 0.77961 0.0
C209 C 0.87428 0.60006 0.80234 0.0
C210 C 0.91078 0.65075 0.74921 0.0
C211 C 0.91905 0.66757 0.72202 0.0
C212 C 0.8867 0.39836 0.02924 0.0
C213 C 0.91409 0.37882 0.05205 0.0
C214 C 0.86307 0.41451 -0.00114 0.0
C215 C 0.84603 0.42275 -0.0283 0.0
C216 C 0.60196 0.14503 0.43906 0.0
C217 C 0.59264 0.16301 0.46598 0.0
C218 C 0.61978 0.12036 0.40913 0.0
C219 C 0.6407 0.09295 0.38661 0.0
C220 C 0.36187 0.10424 0.68829 0.0
C221 C 0.34528 0.09599 0.71552 0.0
C222 C 0.38541 0.12017 0.65785 0.0
C223 C 0.41303 0.13947 0.63507 0.0
C224 C 0.40995 0.86376 0.93755 0.0
C225 C 0.41816 0.84757 0.96486 0.0
C226 C 0.39374 0.88699 0.90709 0.0
C227 C 0.37408 0.91467 0.88437 0.0
C228 C 0.6244 0.89633 0.15636 0.0
C229 C 0.5968 0.87676 0.13367 0.0
C230 C 0.64796 0.91233 0.18671 0.0
C231 C 0.66559 0.92048 0.21373 0.0
C232 C 0.11262 0.09626 0.95396 0.0
C233 C 0.13787 0.08377 0.92952 0.0
C234 C 0.08969 0.11905 -0.01729 0.0
C235 C 0.07808 0.14345 0.00755 0.0
C236 C 0.42197 0.61671 0.2058 0.0
C237 C 0.43218 0.64147 0.18084 0.0
C238 C 0.40089 0.59355 0.23493 0.0
C239 C 0.37643 0.58156 0.2597 0.0
C240 C 0.90022 0.92559 0.45275 0.0
C241 C 0.87604 0.93754 0.42791 0.0
C242 C 0.92092 0.90211 0.48187 0.0
C243 C 0.93095 0.87696 0.50673 0.0
C244 C 0.59076 0.40212 0.70355 0.0
C245 C 0.57847 0.37702 0.679 0.0
C246 C 0.61403 0.42439 0.73231 0.0
C247 C 0.63895 0.4352 0.75705 0.0
C248 C 0.24762 0.03588 0.11897 0.0
C249 C 0.2236 0.08481 0.12271 0.0
C250 C 0.27104 0.97748 0.11143 0.0
C251 C 0.29344 0.92918 0.10419 0.0
C252 C 0.47807 0.75614 0.37017 0.0
C253 C 0.43024 0.72996 0.37157 0.0
C254 C 0.53569 0.78259 0.36564 0.0
C255 C 0.58336 0.80674 0.35977 0.0
C256 C 0.73882 0.04062 0.61236 0.0
C257 C 0.71677 0.08877 0.60474 0.0
C258 C 0.76139 0.98212 0.62014 0.0
C259 C 0.78486 0.93297 0.62373 0.0
C260 C 0.47441 0.24057 0.86174 0.0
C261 C 0.42604 0.21882 0.85453 0.0
C262 C 0.53287 0.26325 0.86914 0.0
C263 C 0.58177 0.28694 0.87271 0.0
C264 C 0.77096 0.54027 0.57562 0.0
C265 C 0.79325 0.58861 0.5829 0.0
C266 C 0.74778 0.48171 0.56815 0.0
C267 C 0.72397 0.43263 0.56454 0.0
C268 C 0.03241 0.2517 0.81927 0.0
C269 C 0.08144 0.2283 0.8156 0.0
C270 C 0.97384 0.2742 0.82663 0.0
C271 C 0.92544 0.29604 0.8337 0.0
C272 C 0.26077 0.53615 0.06921 0.0
C273 C 0.28421 0.58518 0.06527 0.0
C274 C 0.23856 0.47762 0.07711 0.0
C275 C 0.21685 0.42924 0.08455 0.0
C276 C 0.97813 0.76206 0.31849 0.0
C277 C 0.93017 0.78799 0.31696 0.0
C278 C 0.03588 0.73587 0.32294 0.0
C279 C 0.08365 0.71173 0.32858 0.0
loop_
_geom_bond_atom_site_label_1
_geom_bond_atom_site_label_2
_geom_bond_distance
_geom_bond_site_symmetry_2
_ccdc_geom_bond_type
O0 Zn1 1.953 . S
O0 C16 1.225 . S
Zn1 O0 1.953 . S
Zn1 O2 1.949 . S
Zn1 O8 1.919 . S
Zn1 O13 1.924 . S
O2 Zn1 1.949 . S
O2 Zn3 1.923 . S
O2 Zn4 1.950 1_455 S
O2 Zn5 1.945 . S
Zn3 O2 1.923 . S
Zn3 O6 1.933 . S
Zn3 O9 1.941 . S
Zn3 O10 1.965 1_455 S
Zn4 O2 1.950 1_655 S
Zn4 O11 1.938 . S
Zn4 O12 1.906 . S
Zn4 O22 1.953 1_655 S
Zn5 O2 1.945 . S
Zn5 O7 1.932 . S
Zn5 O14 1.977 . S
Zn5 O15 1.910 . S
O6 Zn3 1.933 . S
O6 C17 1.226 . S
O7 Zn5 1.932 . S
O7 C17 1.307 . S
O8 Zn1 1.919 . S
O8 C19 1.253 . S
O9 Zn3 1.941 . S
O9 C19 1.283 . S
O10 Zn3 1.965 1_655 S
O10 C18 1.303 . S
O11 Zn4 1.938 . S
O11 C18 1.247 . S
O12 Zn4 1.906 . S
O12 C20 1.304 . S
O13 Zn1 1.924 . S
O13 C21 1.311 . S
O14 Zn5 1.977 . S
O14 C20 1.272 1_455 S
O15 Zn5 1.910 . S
O15 C21 1.231 . S
C16 O0 1.225 . S
C16 O22 1.298 . S
C17 O6 1.226 . S
C17 O7 1.307 . S
C18 O10 1.303 . S
C18 O11 1.247 . S
C19 O8 1.253 . S
C19 O9 1.283 . S
C20 O12 1.304 . S
C20 O14 1.272 1_655 S
C21 O13 1.311 . S
C21 O15 1.231 . S
O22 Zn4 1.953 1_455 S
O22 C16 1.298 . S
O23 Zn24 1.953 . S
O23 C39 1.225 . S
Zn24 O23 1.953 . S
Zn24 O25 1.949 . S
Zn24 O31 1.919 . S
Zn24 O36 1.924 . S
O25 Zn24 1.949 . S
O25 Zn26 1.923 . S
O25 Zn27 1.950 . S
O25 Zn28 1.945 . S
Zn26 O25 1.923 . S
Zn26 O29 1.933 . S
Zn26 O32 1.941 . S
Zn26 O33 1.965 . S
Zn27 O25 1.950 . S
Zn27 O34 1.938 . S
Zn27 O35 1.906 . S
Zn27 O45 1.953 . S
Zn28 O25 1.945 . S
Zn28 O30 1.932 . S
Zn28 O37 1.977 . S
Zn28 O38 1.910 . S
O29 Zn26 1.933 . S
O29 C40 1.226 . S
O30 Zn28 1.932 . S
O30 C40 1.307 . S
O31 Zn24 1.919 . S
O31 C42 1.253 . S
O32 Zn26 1.941 . S
O32 C42 1.283 . S
O33 Zn26 1.965 . S
O33 C41 1.303 . S
O34 Zn27 1.938 . S
O34 C41 1.247 . S
O35 Zn27 1.906 . S
O35 C43 1.304 . S
O36 Zn24 1.924 . S
O36 C44 1.311 . S
O37 Zn28 1.977 . S
O37 C43 1.272 . S
O38 Zn28 1.910 . S
O38 C44 1.231 . S
C39 O23 1.225 . S
C39 O45 1.298 . S
C40 O29 1.226 . S
C40 O30 1.307 . S
C41 O33 1.303 . S
C41 O34 1.247 . S
C42 O31 1.253 . S
C42 O32 1.283 . S
C43 O35 1.304 . S
C43 O37 1.272 . S
C44 O36 1.311 . S
C44 O38 1.231 . S
O45 Zn27 1.953 . S
O45 C39 1.298 . S
O46 Zn47 1.953 . S
O46 C62 1.225 . S
Zn47 O46 1.953 . S
Zn47 O48 1.949 . S
Zn47 O54 1.919 . S
Zn47 O59 1.924 . S
O48 Zn47 1.949 . S
O48 Zn49 1.923 . S
O48 Zn50 1.950 1_655 S
O48 Zn51 1.945 . S
Zn49 O48 1.923 . S
Zn49 O52 1.933 . S
Zn49 O55 1.941 . S
Zn49 O56 1.965 1_655 S
Zn50 O48 1.950 1_455 S
Zn50 O57 1.938 . S
Zn50 O58 1.906 . S
Zn50 O68 1.953 1_455 S
Zn51 O48 1.945 . S
Zn51 O53 1.932 . S
Zn51 O60 1.977 . S
Zn51 O61 1.910 . S
O52 Zn49 1.933 . S
O52 C63 1.226 . S
O53 Zn51 1.932 . S
O53 C63 1.307 . S
O54 Zn47 1.919 . S
O54 C65 1.253 . S
O55 Zn49 1.941 . S
O55 C65 1.283 . S
O56 Zn49 1.965 1_455 S
O56 C64 1.303 . S
O57 Zn50 1.938 . S
O57 C64 1.247 . S
O58 Zn50 1.906 . S
O58 C66 1.304 . S
O59 Zn47 1.924 . S
O59 C67 1.311 . S
O60 Zn51 1.977 . S
O60 C66 1.272 1_655 S
O61 Zn51 1.910 . S
O61 C67 1.231 . S
C62 O46 1.225 . S
C62 O68 1.298 . S
C63 O52 1.226 . S
C63 O53 1.307 . S
C64 O56 1.303 . S
C64 O57 1.247 . S
C65 O54 1.253 . S
C65 O55 1.283 . S
C66 O58 1.304 . S
C66 O60 1.272 1_455 S
C67 O59 1.311 . S
C67 O61 1.231 . S
O68 Zn50 1.953 1_655 S
O68 C62 1.298 . S
O69 Zn70 1.953 . S
O69 C85 1.225 . S
Zn70 O69 1.953 . S
Zn70 O71 1.949 . S
Zn70 O77 1.919 . S
Zn70 O82 1.924 . S
O71 Zn70 1.949 . S
O71 Zn72 1.923 . S
O71 Zn73 1.950 . S
O71 Zn74 1.945 . S
Zn72 O71 1.923 . S
Zn72 O75 1.933 . S
Zn72 O78 1.941 . S
Zn72 O79 1.965 . S
Zn73 O71 1.950 . S
Zn73 O80 1.938 . S
Zn73 O81 1.906 . S
Zn73 O91 1.953 . S
Zn74 O71 1.945 . S
Zn74 O76 1.932 . S
Zn74 O83 1.977 . S
Zn74 O84 1.910 . S
O75 Zn72 1.933 . S
O75 C86 1.226 . S
O76 Zn74 1.932 . S
O76 C86 1.307 . S
O77 Zn70 1.919 . S
O77 C88 1.253 . S
O78 Zn72 1.941 . S
O78 C88 1.283 . S
O79 Zn72 1.965 . S
O79 C87 1.303 . S
O80 Zn73 1.938 . S
O80 C87 1.247 . S
O81 Zn73 1.906 . S
O81 C89 1.304 . S
O82 Zn70 1.924 . S
O82 C90 1.311 . S
O83 Zn74 1.977 . S
O83 C89 1.272 . S
O84 Zn74 1.910 . S
O84 C90 1.231 . S
C85 O69 1.225 . S
C85 O91 1.298 . S
C86 O75 1.226 . S
C86 O76 1.307 . S
C87 O79 1.303 . S
C87 O80 1.247 . S
C88 O77 1.253 . S
C88 O78 1.283 . S
C89 O81 1.304 . S
C89 O83 1.272 . S
C90 O82 1.311 . S
C90 O84 1.231 . S
O91 Zn73 1.953 . S
O91 C85 1.298 . S
O92 Zn93 1.953 . S
O92 C108 1.225 . S
Zn93 O92 1.953 . S
Zn93 O94 1.949 . S
Zn93 O100 1.919 . S
Zn93 O105 1.924 . S
O94 Zn93 1.949 . S
O94 Zn95 1.923 . S
O94 Zn96 1.950 . S
O94 Zn97 1.945 . S
Zn95 O94 1.923 . S
Zn95 O98 1.933 . S
Zn95 O101 1.941 . S
Zn95 O102 1.965 . S
Zn96 O94 1.950 . S
Zn96 O103 1.938 . S
Zn96 O104 1.906 . S
Zn96 O114 1.953 . S
Zn97 O94 1.945 . S
Zn97 O99 1.932 . S
Zn97 O106 1.977 . S
Zn97 O107 1.910 . S
O98 Zn95 1.933 . S
O98 C109 1.226 . S
O99 Zn97 1.932 . S
O99 C109 1.307 . S
O100 Zn93 1.919 . S
O100 C111 1.253 . S
O101 Zn95 1.941 . S
O101 C111 1.283 . S
O102 Zn95 1.965 . S
O102 C110 1.303 . S
O103 Zn96 1.938 . S
O103 C110 1.247 . S
O104 Zn96 1.906 . S
O104 C112 1.304 . S
O105 Zn93 1.924 . S
O105 C113 1.311 . S
O106 Zn97 1.977 . S
O106 C112 1.272 . S
O107 Zn97 1.910 . S
O107 C113 1.231 . S
C108 O92 1.225 . S
C108 O114 1.298 . S
C109 O98 1.226 . S
C109 O99 1.307 . S
C110 O102 1.303 . S
C110 O103 1.247 . S
C111 O100 1.253 . S
C111 O101 1.283 . S
C112 O104 1.304 . S
C112 O106 1.272 . S
C113 O105 1.311 . S
C113 O107 1.231 . S
O114 Zn96 1.953 . S
O114 C108 1.298 . S
O115 Zn116 1.953 . S
O115 C131 1.225 . S
Zn116 O115 1.953 . S
Zn116 O117 1.949 . S
Zn116 O123 1.919 . S
Zn116 O128 1.924 . S
O117 Zn116 1.949 . S
O117 Zn118 1.923 . S
O117 Zn119 1.950 1_545 S
O117 Zn120 1.945 . S
Zn118 O117 1.923 . S
Zn118 O121 1.933 . S
Zn118 O124 1.941 . S
Zn118 O125 1.965 1_545 S
Zn119 O117 1.950 1_565 S
Zn119 O126 1.938 . S
Zn119 O127 1.906 . S
Zn119 O137 1.953 1_565 S
Zn120 O117 1.945 . S
Zn120 O122 1.932 . S
Zn120 O129 1.977 . S
Zn120 O130 1.910 . S
O121 Zn118 1.933 . S
O121 C132 1.226 . S
O122 Zn120 1.932 . S
O122 C132 1.307 . S
O123 Zn116 1.919 . S
O123 C134 1.253 . S
O124 Zn118 1.941 . S
O124 C134 1.283 . S
O125 Zn118 1.965 1_565 S
O125 C133 1.303 . S
O126 Zn119 1.938 . S
O126 C133 1.247 . S
O127 Zn119 1.906 . S
O127 C135 1.304 . S
O128 Zn116 1.924 . S
O128 C136 1.311 . S
O129 Zn120 1.977 . S
O129 C135 1.272 1_545 S
O130 Zn120 1.910 . S
O130 C136 1.231 . S
C131 O115 1.225 . S
C131 O137 1.298 . S
C132 O121 1.226 . S
C132 O122 1.307 . S
C133 O125 1.303 . S
C133 O126 1.247 . S
C134 O123 1.253 . S
C134 O124 1.283 . S
C135 O127 1.304 . S
C135 O129 1.272 1_565 S
C136 O128 1.311 . S
C136 O130 1.231 . S
O137 Zn119 1.953 1_545 S
O137 C131 1.298 . S
O138 Zn139 1.953 . S
O138 C154 1.225 . S
Zn139 O138 1.953 . S
Zn139 O140 1.949 . S
Zn139 O146 1.919 . S
Zn139 O151 1.924 . S
O140 Zn139 1.949 . S
O140 Zn141 1.923 . S
O140 Zn142 1.950 . S
O140 Zn143 1.945 . S
Zn141 O140 1.923 . S
Zn141 O144 1.933 . S
Zn141 O147 1.941 . S
Zn141 O148 1.965 . S
Zn142 O140 1.950 . S
Zn142 O149 1.938 . S
Zn142 O150 1.906 . S
Zn142 O160 1.953 . S
Zn143 O140 1.945 . S
Zn143 O145 1.932 . S
Zn143 O152 1.977 . S
Zn143 O153 1.910 . S
O144 Zn141 1.933 . S
O144 C155 1.226 . S
O145 Zn143 1.932 . S
O145 C155 1.307 . S
O146 Zn139 1.919 . S
O146 C157 1.253 . S
O147 Zn141 1.941 . S
O147 C157 1.283 . S
O148 Zn141 1.965 . S
O148 C156 1.303 . S
O149 Zn142 1.938 . S
O149 C156 1.247 . S
O150 Zn142 1.906 . S
O150 C158 1.304 . S
O151 Zn139 1.924 . S
O151 C159 1.311 . S
O152 Zn143 1.977 . S
O152 C158 1.272 . S
O153 Zn143 1.910 . S
O153 C159 1.231 . S
C154 O138 1.225 . S
C154 O160 1.298 . S
C155 O144 1.226 . S
C155 O145 1.307 . S
C156 O148 1.303 . S
C156 O149 1.247 . S
C157 O146 1.253 . S
C157 O147 1.283 . S
C158 O150 1.304 . S
C158 O152 1.272 . S
C159 O151 1.311 . S
C159 O153 1.231 . S
O160 Zn142 1.953 . S
O160 C154 1.298 . S
O161 Zn162 1.953 . S
O161 C177 1.225 . S
Zn162 O161 1.953 . S
Zn162 O163 1.949 . S
Zn162 O169 1.919 . S
Zn162 O174 1.924 . S
O163 Zn162 1.949 . S
O163 Zn164 1.923 . S
O163 Zn165 1.950 1_565 S
O163 Zn166 1.945 . S
Zn164 O163 1.923 . S
Zn164 O167 1.933 . S
Zn164 O170 1.941 . S
Zn164 O171 1.965 1_565 S
Zn165 O163 1.950 1_545 S
Zn165 O172 1.938 . S
Zn165 O173 1.906 . S
Zn165 O183 1.953 1_545 S
Zn166 O163 1.945 . S
Zn166 O168 1.932 . S
Zn166 O175 1.977 . S
Zn166 O176 1.910 . S
O167 Zn164 1.933 . S
O167 C178 1.226 . S
O168 Zn166 1.932 . S
O168 C178 1.307 . S
O169 Zn162 1.919 . S
O169 C180 1.253 . S
O170 Zn164 1.941 . S
O170 C180 1.283 . S
O171 Zn164 1.965 1_545 S
O171 C179 1.303 . S
O172 Zn165 1.938 . S
O172 C179 1.247 . S
O173 Zn165 1.906 . S
O173 C181 1.304 . S
O174 Zn162 1.924 . S
O174 C182 1.311 . S
O175 Zn166 1.977 . S
O175 C181 1.272 1_565 S
O176 Zn166 1.910 . S
O176 C182 1.231 . S
C177 O161 1.225 . S
C177 O183 1.298 . S
C178 O167 1.226 . S
C178 O168 1.307 . S
C179 O171 1.303 . S
C179 O172 1.247 . S
C180 O169 1.253 . S
C180 O170 1.283 . S
C181 O173 1.304 . S
C181 O175 1.272 1_545 S
C182 O174 1.311 . S
C182 O176 1.231 . S
O183 Zn165 1.953 1_565 S
O183 C177 1.298 . S
C184 C185 1.170 . S
C184 C186 1.380 . S
C185 C184 1.170 . S
C186 C184 1.380 . S
C186 C187 1.170 . S
C187 C186 1.170 . S
C188 C189 1.170 . S
C188 C190 1.380 . S
C189 C188 1.170 . S
C190 C188 1.380 . S
C190 C191 1.170 . S
C191 C190 1.170 . S
C192 C193 1.170 . S
C192 C194 1.380 . S
C193 C192 1.170 . S
C194 C192 1.380 . S
C194 C195 1.170 . S
C195 C194 1.170 . S
C196 C197 1.170 . S
C196 C198 1.380 1_554 S
C197 C196 1.170 . S
C198 C196 1.380 1_556 S
C198 C199 1.170 . S
C199 C198 1.170 . S
C200 C201 1.170 . S
C200 C202 1.380 . S
C201 C200 1.170 . S
C202 C200 1.380 . S
C202 C203 1.170 . S
C203 C202 1.170 . S
C204 C205 1.170 . S
C204 C206 1.380 . S
C205 C204 1.170 . S
C206 C204 1.380 . S
C206 C207 1.170 . S
C207 C206 1.170 . S
C208 C209 1.170 . S
C208 C210 1.380 . S
C209 C208 1.170 . S
C210 C208 1.380 . S
C210 C211 1.170 . S
C211 C210 1.170 . S
C212 C213 1.170 . S
C212 C214 1.380 . S
C213 C212 1.170 . S
C214 C212 1.380 . S
C214 C215 1.170 . S
C215 C214 1.170 . S
C216 C217 1.170 . S
C216 C218 1.380 . S
C217 C216 1.170 . S
C218 C216 1.380 . S
C218 C219 1.170 . S
C219 C218 1.170 . S
C220 C221 1.170 . S
C220 C222 1.380 . S
C221 C220 1.170 . S
C222 C220 1.380 . S
C222 C223 1.170 . S
C223 C222 1.170 . S
C224 C225 1.170 . S
C224 C226 1.380 . S
C225 C224 1.170 . S
C226 C224 1.380 . S
C226 C227 1.170 . S
C227 C226 1.170 . S
C228 C229 1.170 . S
C228 C230 1.380 . S
C229 C228 1.170 . S
C230 C228 1.380 . S
C230 C231 1.170 . S
C231 C230 1.170 . S
C232 C233 1.170 . S
C232 C234 1.380 1_556 S
C233 C232 1.170 . S
C234 C232 1.380 1_554 S
C234 C235 1.170 . S
C235 C234 1.170 . S
C236 C237 1.170 . S
C236 C238 1.380 . S
C237 C236 1.170 . S
C238 C236 1.380 . S
C238 C239 1.170 . S
C239 C238 1.170 . S
C240 C241 1.170 . S
C240 C242 1.380 . S
C241 C240 1.170 . S
C242 C240 1.380 . S
C242 C243 1.170 . S
C243 C242 1.170 . S
C244 C245 1.170 . S
C244 C246 1.380 . S
C245 C244 1.170 . S
C246 C244 1.380 . S
C246 C247 1.170 . S
C247 C246 1.170 . S
C248 C249 1.170 . S
C248 C250 1.380 1_545 S
C249 C248 1.170 . S
C250 C248 1.380 1_565 S
C250 C251 1.170 . S
C251 C250 1.170 . S
C252 C253 1.170 . S
C252 C254 1.380 . S
C253 C252 1.170 . S
C254 C252 1.380 . S
C254 C255 1.170 . S
C255 C254 1.170 . S
C256 C257 1.170 . S
C256 C258 1.380 1_545 S
C257 C256 1.170 . S
C258 C256 1.380 1_565 S
C258 C259 1.170 . S
C259 C258 1.170 . S
C260 C261 1.170 . S
C260 C262 1.380 . S
C261 C260 1.170 . S
C262 C260 1.380 . S
C262 C263 1.170 . S
C263 C262 1.170 . S
C264 C265 1.170 . S
C264 C266 1.380 . S
C265 C264 1.170 . S
C266 C264 1.380 . S
C266 C267 1.170 . S
C267 C266 1.170 . S
C268 C269 1.170 . S
C268 C270 1.380 1_455 S
C269 C268 1.170 . S
C270 C268 1.380 1_655 S
C270 C271 1.170 . S
C271 C270 1.170 . S
C272 C273 1.170 . S
C272 C274 1.380 . S
C273 C272 1.170 . S
C274 C272 1.380 . S
C274 C275 1.170 . S
C275 C274 1.170 . S
C276 C277 1.170 . S
C276 C278 1.380 1_655 S
C277 C276 1.170 . S
C278 C276 1.380 1_455 S
C278 C279 1.170 . S
C279 C278 1.170 . S
C185 C18 1.306 . S
C187 C181 1.294 . S
C189 C43 1.269 . S
C191 C110 1.320 . S
C193 C64 1.332 . S
C195 C133 1.320 . S
C197 C156 1.319 . S
C199 C87 1.340 . S
C201 C16 1.389 . S
C203 C41 1.418 . S
C205 C66 1.338 . S
C207 C40 1.325 . S
C209 C89 1.345 . S
C211 C62 1.381 . S
C213 C20 1.351 . S
C215 C85 1.352 1_554 S
C217 C108 1.377 . S
C219 C179 1.418 . S
C221 C131 1.339 . S
C223 C112 1.373 . S
C225 C154 1.363 1_556 S
C227 C135 1.375 . S
C229 C158 1.336 . S
C231 C178 1.338 . S
C233 C132 1.015 . S
C235 C17 1.025 . S
C237 C155 1.085 . S
C239 C39 1.060 . S
C241 C177 1.079 . S
C243 C63 1.089 . S
C245 C109 1.039 . S
C247 C86 1.051 . S
C249 C19 1.847 . S
C251 C159 1.886 . S
C253 C44 1.863 . S
C255 C180 1.812 . S
C257 C113 1.821 . S
C259 C65 1.792 . S
C261 C136 1.857 . S
C263 C88 1.845 . S
C265 C67 1.881 . S
C267 C111 1.844 . S
C269 C134 1.830 . S
C271 C90 1.866 . S
C273 C157 1.804 . S
C275 C21 1.833 . S
C277 C182 1.854 . S
C279 C42 1.837 . S
