# Generated by pormake.
# Topology acs-f, (3)-cn, num edge types: 1
# Building blocks:
#     Node 0, Type 0, BuildingBlock: OLANEW_clean_sbu_2, # of connection points: 3
#     Node 1, Type 0, BuildingBlock: OLANEW_clean_sbu_2, # of connection points: 3
#     Node 2, Type 0, BuildingBlock: OLANEW_clean_sbu_2, # of connection points: 3
#     Node 3, Type 0, BuildingBlock: OLANEW_clean_sbu_2, # of connection points: 3
#     Node 4, Type 0, BuildingBlock: OLANEW_clean_sbu_2, # of connection points: 3
#     Node 5, Type 0, BuildingBlock: OLANEW_clean_sbu_2, # of connection points: 3
#     Node 6, Type 0, BuildingBlock: OLANEW_clean_sbu_2, # of connection points: 3
#     Node 7, Type 0, BuildingBlock: OLANEW_clean_sbu_2, # of connection points: 3
#     Node 8, Type 0, BuildingBlock: OLANEW_clean_sbu_2, # of connection points: 3
#     Node 9, Type 0, BuildingBlock: OLANEW_clean_sbu_2, # of connection points: 3
#     Node 10, Type 0, BuildingBlock: OLANEW_clean_sbu_2, # of connection points: 3
#     Node 11, Type 0, BuildingBlock: OLANEW_clean_sbu_2, # of connection points: 3
#     Edge 12, Type (0, 0), BuildingBlock: FUNLAD_clean_linker_0, # of connection points: 2
#     Edge 13, Type (0, 0), BuildingBlock: FUNLAD_clean_linker_0, # of connection points: 2
#     Edge 14, Type (0, 0), BuildingBlock: FUNLAD_clean_linker_0, # of connection points: 2
#     Edge 15, Type (0, 0), BuildingBlock: FUNLAD_clean_linker_0, # of connection points: 2
#     Edge 16, Type (0, 0), BuildingBlock: FUNLAD_clean_linker_0, # of connection points: 2
#     Edge 17, Type (0, 0), BuildingBlock: FUNLAD_clean_linker_0, # of connection points: 2
#     Edge 18, Type (0, 0), BuildingBlock: FUNLAD_clean_linker_0, # of connection points: 2
#     Edge 19, Type (0, 0), BuildingBlock: FUNLAD_clean_linker_0, # of connection points: 2
#     Edge 20, Type (0, 0), BuildingBlock: FUNLAD_clean_linker_0, # of connection points: 2
#     Edge 21, Type (0, 0), BuildingBlock: FUNLAD_clean_linker_0, # of connection points: 2
#     Edge 22, Type (0, 0), BuildingBlock: FUNLAD_clean_linker_0, # of connection points: 2
#     Edge 23, Type (0, 0), BuildingBlock: FUNLAD_clean_linker_0, # of connection points: 2
#     Edge 24, Type (0, 0), BuildingBlock: FUNLAD_clean_linker_0, # of connection points: 2
#     Edge 25, Type (0, 0), BuildingBlock: FUNLAD_clean_linker_0, # of connection points: 2
#     Edge 26, Type (0, 0), BuildingBlock: FUNLAD_clean_linker_0, # of connection points: 2
#     Edge 27, Type (0, 0), BuildingBlock: FUNLAD_clean_linker_0, # of connection points: 2
#     Edge 28, Type (0, 0), BuildingBlock: FUNLAD_clean_linker_0, # of connection points: 2
#     Edge 29, Type (0, 0), BuildingBlock: FUNLAD_clean_linker_0, # of connection points: 2
# Relax obj value: 0.069
# Max RMSD: 0.032
# Mean RMSD: 0.032
data_MOF--net-acs-f--node1-OLANEW_clean_sbu_2--edge1-FUNLAD_clean_linker_0
_symmetry_space_group_name_H-M    P1
_symmetry_Int_Tables_number       1
_symmetry_cell_setting            triclinic
loop_
_symmetry_equiv_pos_as_xyz
'x, y, z'
_cell_length_a     42.084033
_cell_length_b     42.032207
_cell_length_c     58.782983
_cell_angle_alpha  89.986679
_cell_angle_beta   90.020789
_cell_angle_gamma 120.02403
loop_
_atom_site_label
_atom_site_type_symbol
_atom_site_fract_x
_atom_site_fract_y
_atom_site_fract_z
_atom_type_partial_charge
O0 O 0.91461 0.38414 0.14586 0.0
Cd1 Cd 0.9095 0.35012 0.11111 0.0
O2 O 0.96796 0.3887 0.15244 0.0
Cd3 Cd 0.01662 0.40129 0.1726 0.0
O4 O 0.0633 0.40684 0.19211 0.0
C5 C 0.05736 0.3879 0.2101 0.0
O6 O 0.0233 0.36605 0.2166 0.0
C7 C 0.94296 0.39565 0.15831 0.0
C8 C 0.9423 0.39791 0.07465 0.0
O9 O 0.90828 0.38504 0.07931 0.0
O10 O 0.96074 0.38795 0.08717 0.0
O11 O 0.6405 0.54657 0.14434 0.0
Cd12 Cd 0.67361 0.57428 0.10917 0.0
O13 O 0.62993 0.59232 0.14782 0.0
Cd14 Cd 0.61157 0.6266 0.16486 0.0
O15 O 0.60099 0.66782 0.18008 0.0
C16 C 0.61972 0.68589 0.19722 0.0
O17 O 0.64437 0.67864 0.20559 0.0
C18 C 0.62596 0.56211 0.15527 0.0
C19 C 0.62496 0.55045 0.07261 0.0
O20 O 0.6415 0.53311 0.07851 0.0
O21 O 0.6318 0.57931 0.08386 0.0
O22 O 0.47166 0.10022 0.14886 0.0
Cd23 Cd 0.4478 0.10783 0.1127 0.0
O24 O 0.41897 0.05032 0.15495 0.0
Cd25 Cd 0.37937 0.99972 0.17227 0.0
O26 O 0.33275 0.9495 0.18554 0.0
C27 C 0.33043 0.94067 0.20641 0.0
O28 O 0.35707 0.96205 0.22034 0.0
C29 C 0.45146 0.07292 0.16148 0.0
C30 C 0.46906 0.07819 0.07748 0.0
O31 O 0.48879 0.11206 0.08311 0.0
O32 O 0.43908 0.05847 0.08838 0.0
O33 O 0.62371 0.10238 0.34827 0.0
Cd34 Cd 0.65485 0.11022 0.38457 0.0
O35 O 0.62663 0.05246 0.34244 0.0
Cd36 Cd 0.61548 0.00183 0.32509 0.0
O37 O 0.61111 0.95176 0.31094 0.0
C38 C 0.61077 0.94693 0.28958 0.0
O39 O 0.61241 0.97235 0.27582 0.0
C40 C 0.61674 0.07499 0.33576 0.0
C41 C 0.60351 0.07257 0.41861 0.0
O42 O 0.61392 0.10623 0.4141 0.0
O43 O 0.61776 0.05688 0.40717 0.0
O44 O 0.90451 0.53039 0.35077 0.0
Cd45 Cd 0.90392 0.562 0.38544 0.0
O46 O 0.95827 0.57736 0.34244 0.0
Cd47 Cd 0.00992 0.60958 0.32394 0.0
O48 O 0.06125 0.65085 0.30828 0.0
C49 C 0.06047 0.67347 0.29426 0.0
O50 O 0.02871 0.67063 0.28924 0.0
C51 C 0.93185 0.5456 0.3374 0.0
C52 C 0.93831 0.54653 0.42075 0.0
O53 O 0.90376 0.52631 0.41721 0.0
O54 O 0.95653 0.5743 0.4077 0.0
O55 O 0.48004 0.3818 0.34411 0.0
Cd56 Cd 0.44538 0.34577 0.37701 0.0
O57 O 0.43158 0.38395 0.33286 0.0
Cd58 Cd 0.39899 0.40043 0.31211 0.0
O59 O 0.35804 0.40794 0.29378 0.0
C60 C 0.32462 0.38811 0.29958 0.0
O61 O 0.3164 0.3644 0.31624 0.0
C62 C 0.46487 0.39257 0.32974 0.0
C63 C 0.45631 0.39178 0.41388 0.0
O64 O 0.47741 0.37841 0.41049 0.0
O65 O 0.4298 0.38307 0.39992 0.0
O66 O 0.09946 0.64061 0.84715 0.0
Cd67 Cd 0.10484 0.67449 0.882 0.0
O68 O 0.05242 0.6463 0.83722 0.0
Cd69 Cd 0.00509 0.63742 0.81686 0.0
O70 O 0.95884 0.63483 0.79837 0.0
C71 C 0.93759 0.60701 0.78641 0.0
O72 O 0.94376 0.57935 0.78512 0.0
C73 C 0.07426 0.63439 0.83292 0.0
C74 C 0.07184 0.62631 0.91828 0.0
O75 O 0.05351 0.63654 0.90587 0.0
O76 O 0.10585 0.63913 0.91361 0.0
O77 O 0.37495 0.46449 0.85127 0.0
Cd78 Cd 0.34065 0.43014 0.88473 0.0
O79 O 0.36794 0.41367 0.83644 0.0
Cd80 Cd 0.37029 0.37621 0.81145 0.0
O81 O 0.37258 0.33412 0.79087 0.0
C82 C 0.38958 0.31859 0.79866 0.0
O83 O 0.40559 0.32876 0.81864 0.0
C84 C 0.38101 0.44825 0.83505 0.0
C85 C 0.3871 0.45108 0.92234 0.0
O86 O 0.38251 0.42435 0.9096 0.0
O87 O 0.3693 0.46756 0.91744 0.0
O88 O 0.52633 0.90338 0.84904 0.0
Cd89 Cd 0.55762 0.89807 0.88252 0.0
O90 O 0.57829 0.94958 0.83718 0.0
Cd91 Cd 0.61509 0.99634 0.81581 0.0
O92 O 0.65814 0.04198 0.79651 0.0
C93 C 0.6535 0.06745 0.7885 0.0
O94 O 0.62194 0.06606 0.79175 0.0
C95 C 0.544 0.92821 0.83432 0.0
C96 C 0.53977 0.92614 0.92023 0.0
O97 O 0.52061 0.89207 0.91491 0.0
O98 O 0.56775 0.94679 0.9079 0.0
O99 O 0.36949 0.8977 0.64578 0.0
Cd100 Cd 0.33255 0.89124 0.61226 0.0
O101 O 0.36434 0.94475 0.65657 0.0
Cd102 Cd 0.37491 0.9927 0.67691 0.0
O103 O 0.3778 0.03905 0.69552 0.0
C104 C 0.40776 0.06407 0.70397 0.0
O105 O 0.43761 0.06182 0.70155 0.0
C106 C 0.37709 0.92334 0.65996 0.0
C107 C 0.37896 0.92735 0.57577 0.0
O108 O 0.36778 0.89339 0.57978 0.0
O109 O 0.36762 0.94405 0.5888 0.0
O110 O 0.09873 0.47115 0.65255 0.0
Cd111 Cd 0.10318 0.44268 0.61743 0.0
O112 O 0.05189 0.41838 0.6628 0.0
Cd113 Cd 0.00509 0.38043 0.68374 0.0
O114 O 0.95921 0.33773 0.70307 0.0
C115 C 0.92695 0.32236 0.69486 0.0
O116 O 0.92171 0.33301 0.67488 0.0
C117 C 0.07389 0.45218 0.66698 0.0
C118 C 0.069 0.45783 0.58185 0.0
O119 O 0.10317 0.47908 0.58611 0.0
O120 O 0.0511 0.42921 0.5943 0.0
O121 O 0.5227 0.61644 0.6456 0.0
Cd122 Cd 0.55091 0.65506 0.61227 0.0
O123 O 0.57741 0.63475 0.65969 0.0
Cd124 Cd 0.61591 0.63289 0.68394 0.0
O125 O 0.65886 0.63132 0.70397 0.0
C126 C 0.67879 0.62038 0.69442 0.0
O127 O 0.67259 0.61013 0.673 0.0
C128 C 0.5427 0.61531 0.66141 0.0
C129 C 0.53998 0.61141 0.57414 0.0
O130 O 0.56834 0.62206 0.58679 0.0
O131 O 0.51701 0.6218 0.5794 0.0
C132 C 0.2584 0.36881 0.29402 0.0
C133 C 0.29529 0.39123 0.28765 0.0
C134 C 0.23053 0.37126 0.28267 0.0
C135 C 0.23895 0.39647 0.26474 0.0
C136 C 0.2758 0.41863 0.25826 0.0
C137 C 0.3037 0.41619 0.26963 0.0
C138 C 0.21005 0.39928 0.25179 0.0
C139 C 0.17659 0.38925 0.26035 0.0
C140 C 0.14687 0.3903 0.24723 0.0
C141 C 0.11047 0.36829 0.25461 0.0
C142 C 0.08148 0.36772 0.24267 0.0
C143 C 0.08824 0.38942 0.22312 0.0
H144 H 0.18136 0.43101 0.22204 0.0
C145 C 0.12471 0.41213 0.21598 0.0
C146 C 0.15373 0.41268 0.22793 0.0
H147 H 0.13089 0.42948 0.20112 0.0
H148 H 0.25092 0.34902 0.30767 0.0
H149 H 0.20247 0.3527 0.28772 0.0
H150 H 0.28307 0.43801 0.24437 0.0
H151 H 0.33183 0.43377 0.26422 0.0
H152 H 0.21696 0.41002 0.23462 0.0
H153 H 0.16999 0.3788 0.27761 0.0
H154 H 0.10434 0.35102 0.26952 0.0
H155 H 0.05374 0.35003 0.24871 0.0
C156 C 0.63638 0.73619 0.22567 0.0
C157 C 0.61492 0.71564 0.20709 0.0
C158 C 0.63281 0.76509 0.23456 0.0
C159 C 0.60743 0.77394 0.22513 0.0
C160 C 0.58605 0.75342 0.20654 0.0
C161 C 0.5896 0.72449 0.19766 0.0
C162 C 0.60378 0.80538 0.2335 0.0
C163 C 0.61318 0.81919 0.25471 0.0
C164 C 0.61082 0.85139 0.263 0.0
C165 C 0.60978 0.85635 0.28654 0.0
C166 C 0.60919 0.88703 0.29516 0.0
C167 C 0.60994 0.9137 0.28039 0.0
H168 H 0.61339 0.87595 0.22995 0.0
C169 C 0.6109 0.90878 0.2568 0.0
C170 C 0.61147 0.87805 0.24818 0.0
H171 H 0.61178 0.92895 0.24496 0.0
H172 H 0.65638 0.73032 0.23322 0.0
H173 H 0.65071 0.7809 0.2484 0.0
H174 H 0.56653 0.75981 0.19881 0.0
H175 H 0.57273 0.70931 0.18327 0.0
H176 H 0.59174 0.81655 0.22192 0.0
H177 H 0.62194 0.80575 0.26692 0.0
H178 H 0.60956 0.83646 0.29837 0.0
H179 H 0.60855 0.88999 0.31343 0.0
C180 C 0.09388 0.72897 0.26939 0.0
C181 C 0.09488 0.70355 0.28448 0.0
C182 C 0.12634 0.75816 0.26073 0.0
C183 C 0.16063 0.76244 0.26685 0.0
C184 C 0.16158 0.73705 0.28195 0.0
C185 C 0.1291 0.70782 0.2906 0.0
C186 C 0.19586 0.7939 0.25869 0.0
C187 C 0.19886 0.81242 0.23934 0.0
C188 C 0.23369 0.84458 0.23134 0.0
C189 C 0.23706 0.85422 0.20824 0.0
C190 C 0.26863 0.88507 0.20011 0.0
C191 C 0.29753 0.90727 0.21496 0.0
H192 H 0.26079 0.86103 0.26428 0.0
C193 C 0.29425 0.8977 0.23809 0.0
C194 C 0.26266 0.86677 0.24624 0.0
H195 H 0.31589 0.91436 0.25002 0.0
H196 H 0.06801 0.72669 0.26448 0.0
H197 H 0.12433 0.77772 0.24975 0.0
H198 H 0.18758 0.73984 0.28712 0.0
H199 H 0.13087 0.68882 0.30226 0.0
H200 H 0.22025 0.80102 0.26865 0.0
H201 H 0.17512 0.80302 0.22831 0.0
H202 H 0.21511 0.83785 0.19641 0.0
H203 H 0.27017 0.89168 0.18218 0.0
C204 C 0.73145 0.60853 0.69622 0.0
C205 C 0.70898 0.61983 0.70705 0.0
C206 C 0.7604 0.6086 0.70793 0.0
C207 C 0.76737 0.61974 0.73085 0.0
C208 C 0.74501 0.63121 0.7416 0.0
C209 C 0.71605 0.63114 0.72988 0.0
C210 C 0.79852 0.62129 0.74379 0.0
C211 C 0.81457 0.60144 0.73834 0.0
C212 C 0.84606 0.60347 0.75113 0.0
C213 C 0.85263 0.5739 0.74972 0.0
C214 C 0.88226 0.57496 0.76119 0.0
C215 C 0.9062 0.60581 0.77421 0.0
H216 H 0.86706 0.65849 0.76487 0.0
C217 C 0.89992 0.63563 0.77541 0.0
C218 C 0.87031 0.63457 0.76395 0.0
H219 H 0.91804 0.65998 0.78511 0.0
H220 H 0.72697 0.59995 0.67858 0.0
H221 H 0.77763 0.60069 0.69874 0.0
H222 H 0.74991 0.64026 0.75916 0.0
H223 H 0.69936 0.64015 0.73871 0.0
H224 H 0.80746 0.63844 0.7589 0.0
H225 H 0.80343 0.58167 0.72454 0.0
H226 H 0.83466 0.54976 0.73979 0.0
H227 H 0.88638 0.55157 0.75982 0.0
C228 C 0.4084 0.27094 0.7948 0.0
C229 C 0.39053 0.2888 0.78577 0.0
C230 C 0.40856 0.24217 0.78297 0.0
C231 C 0.39104 0.23077 0.7617 0.0
C232 C 0.37312 0.24859 0.75274 0.0
C233 C 0.37296 0.27736 0.76457 0.0
C234 C 0.38938 0.19945 0.74887 0.0
C235 C 0.41344 0.18746 0.75177 0.0
C236 C 0.41122 0.15571 0.73916 0.0
C237 C 0.44306 0.15311 0.73686 0.0
C238 C 0.44201 0.12343 0.72541 0.0
C239 C 0.40895 0.09548 0.71618 0.0
H240 H 0.35257 0.12766 0.73223 0.0
C241 C 0.37695 0.09779 0.71874 0.0
C242 C 0.37801 0.12746 0.73017 0.0
H243 H 0.35094 0.07655 0.71203 0.0
H244 H 0.42194 0.27885 0.81119 0.0
H245 H 0.4217 0.2285 0.79089 0.0
H246 H 0.35913 0.24021 0.7365 0.0
H247 H 0.35882 0.29044 0.75715 0.0
H248 H 0.36821 0.1868 0.73595 0.0
H249 H 0.43668 0.20223 0.7631 0.0
H250 H 0.46893 0.17424 0.74382 0.0
H251 H 0.46714 0.12244 0.72383 0.0
C252 C 0.86031 0.27484 0.69811 0.0
C253 C 0.89591 0.29217 0.70732 0.0
C254 C 0.83114 0.24572 0.70957 0.0
C255 C 0.83692 0.23343 0.73063 0.0
C256 C 0.87254 0.25071 0.73975 0.0
C257 C 0.90168 0.27984 0.7283 0.0
C258 C 0.80704 0.20178 0.74309 0.0
C259 C 0.77108 0.19028 0.74029 0.0
C260 C 0.74144 0.15849 0.75279 0.0
C261 C 0.70745 0.15663 0.75577 0.0
C262 C 0.67886 0.1271 0.76733 0.0
C263 C 0.68356 0.09856 0.776 0.0
H264 H 0.77121 0.12925 0.75852 0.0
C265 C 0.71737 0.10007 0.77268 0.0
C266 C 0.74595 0.12959 0.76114 0.0
H267 H 0.72181 0.07835 0.77893 0.0
H268 H 0.85496 0.28346 0.68188 0.0
H269 H 0.80442 0.2325 0.70156 0.0
H270 H 0.87789 0.24165 0.75583 0.0
H271 H 0.92878 0.29247 0.73585 0.0
H272 H 0.81531 0.18854 0.75575 0.0
H273 H 0.76285 0.2056 0.72926 0.0
H274 H 0.70306 0.17827 0.7493 0.0
H275 H 0.65312 0.12672 0.7695 0.0
C276 C 0.93948 0.43484 0.04206 0.0
C277 C 0.95985 0.42378 0.05551 0.0
C278 C 0.95615 0.45969 0.02418 0.0
C279 C 0.99372 0.47422 0.01946 0.0
C280 C 0.01384 0.4626 0.03266 0.0
C281 C 0.99718 0.4378 0.05055 0.0
C282 C 0.01272 0.50072 0.00064 0.0
C283 C 1.00107 0.52279 0.99191 0.0
C284 C 0.02013 0.54938 0.97315 0.0
C285 C 1.00008 0.56118 0.96001 0.0
C286 C 0.01683 0.58618 0.94222 0.0
C287 C 0.05417 0.60021 0.9373 0.0
H288 H 0.07454 0.55662 0.9786 0.0
C289 C 0.07445 0.58892 0.95066 0.0
C290 C 0.0577 0.56389 0.96844 0.0
H291 H 0.10337 0.59949 0.94744 0.0
H292 H 0.91057 0.42426 0.04529 0.0
H293 H 0.93926 0.46682 0.01397 0.0
H294 H 0.04271 0.47304 0.02928 0.0
H295 H 0.01363 0.42971 0.06052 0.0
H296 H 0.03754 0.50224 0.99409 0.0
H297 H 0.97624 0.52127 -0.00154 0.0
H298 H 0.97122 0.55076 0.96338 0.0
H299 H 1.00045 0.59442 0.93232 0.0
C300 C 0.43255 0.44514 0.94688 0.0
C301 C 0.41278 0.46306 0.94183 0.0
C302 C 0.45768 0.45718 0.96484 0.0
C303 C 0.46378 0.48766 0.97808 0.0
C304 C 0.44336 0.50497 0.97334 0.0
C305 C 0.41825 0.49294 0.95537 0.0
C306 C 0.49055 0.50186 0.99719 0.0
C307 C 0.51934 0.49628 -0.00104 0.0
C308 C 0.54628 0.51093 0.01794 0.0
C309 C 0.56602 0.49315 0.02335 0.0
C310 C 0.59163 0.506 0.04105 0.0
C311 C 0.59835 0.53722 0.05359 0.0
H312 H 0.53984 0.55789 0.02615 0.0
C313 C 0.57914 0.55548 0.04792 0.0
C314 C 0.55345 0.54257 0.03026 0.0
H315 H 0.58393 0.57981 0.05713 0.0
H316 H 0.42869 0.42179 0.93692 0.0
H317 H 0.47177 0.44215 0.96837 0.0
H318 H 0.44718 0.52824 0.98338 0.0
H319 H 0.40334 0.50726 0.95201 0.0
H320 H 0.4865 0.5181 0.00999 0.0
H321 H 0.52344 0.47997 0.98625 0.0
H322 H 0.56134 0.46897 0.01399 0.0
H323 H 0.60609 0.49138 0.04491 0.0
C324 C 0.45982 0.02465 0.05382 0.0
C325 C 0.48074 0.06222 0.0591 0.0
C326 C 0.47104 0.00942 0.03666 0.0
C327 C 0.50336 0.03159 0.02422 0.0
C328 C 0.5244 0.06905 0.02971 0.0
C329 C 0.5132 0.08425 0.04689 0.0
C330 C 0.51662 0.01675 0.00585 0.0
C331 C 0.49483 0.98533 0.9945 0.0
C332 C 0.50797 0.97086 0.97587 0.0
C333 C 0.48742 0.93332 0.97051 0.0
C334 C 0.49804 0.91867 0.95269 0.0
C335 C 0.52935 0.94136 0.93967 0.0
H336 H 0.55536 0.02287 0.96582 0.0
C337 C 0.54995 0.97895 0.94498 0.0
C338 C 0.53935 0.99361 0.96282 0.0
H339 H 0.57403 0.99724 0.93513 0.0
H340 H 0.43487 0.00684 0.0631 0.0
H341 H 0.45457 0.98022 0.03362 0.0
H342 H 0.54955 0.08674 0.02056 0.0
H343 H 0.53005 0.11328 0.0506 0.0
H344 H 0.54545 0.03291 0.00141 0.0
H345 H 0.46601 0.96905 -0.00107 0.0
H346 H 0.46299 0.9152 0.98014 0.0
H347 H 0.48146 0.88961 0.94899 0.0
C348 C 0.41881 0.9289 0.54366 0.0
C349 C 0.40494 0.94694 0.557 0.0
C350 C 0.44444 0.94773 0.5265 0.0
C351 C 0.45658 0.98505 0.52218 0.0
C352 C 0.44264 0.00298 0.53555 0.0
C353 C 0.41705 0.98416 0.55272 0.0
C354 C 0.48469 0.00669 0.50462 0.0
C355 C 0.49287 0.99156 0.48697 0.0
C356 C 0.52151 0.01334 0.46975 0.0
C357 C 0.53712 0.99601 0.45737 0.0
C358 C 0.56394 0.01528 0.4409 0.0
C359 C 0.57555 0.05231 0.4363 0.0
H360 H 0.52076 0.0645 0.47352 0.0
C361 C 0.55969 0.06962 0.44849 0.0
C362 C 0.53288 0.05036 0.46498 0.0
H363 H 0.56775 0.09803 0.44518 0.0
H364 H 0.41031 0.90031 0.54668 0.0
H365 H 0.45519 0.933 0.51719 0.0
H366 H 0.45164 0.03175 0.53273 0.0
H367 H 0.40701 0.99892 0.56275 0.0
H368 H 0.49907 0.03635 0.5065 0.0
H369 H 0.47866 0.96193 0.48505 0.0
H370 H 0.5287 0.96746 0.46053 0.0
H371 H 0.57546 1.00106 0.43172 0.0
C372 C 0.07042 0.49803 0.54993 0.0
C373 C 0.05065 0.46633 0.56328 0.0
C374 C 0.05298 0.50643 0.53264 0.0
C375 C 0.01533 0.48309 0.52823 0.0
C376 C 0.9956 0.45159 0.54172 0.0
C377 C 0.01304 0.44319 0.55899 0.0
C378 C 0.99535 0.49114 0.51032 0.0
C379 C 0.01183 0.51262 0.49208 0.0
C380 C 0.99191 0.52075 0.47416 0.0
C381 C 0.01189 0.55179 0.46034 0.0
C382 C 0.99449 0.56034 0.4431 0.0
C383 C 0.95667 0.53783 0.43921 0.0
H384 H 0.93773 0.47314 0.47977 0.0
C385 C 0.93666 0.50657 0.45288 0.0
C386 C 0.95405 0.498 0.4701 0.0
H387 H 0.90755 0.48844 0.45015 0.0
H388 H 0.09936 0.51664 0.55295 0.0
H389 H 0.06903 0.53162 0.52321 0.0
H390 H 0.96654 0.43328 0.53885 0.0
H391 H 0.99697 0.41863 0.56903 0.0
H392 H 0.96586 0.47837 0.51234 0.0
H393 H 0.04133 0.52531 0.49009 0.0
H394 H 0.0411 0.56965 0.46293 0.0
H395 H 0.01076 0.58455 0.43281 0.0
C396 C 0.49269 0.42737 0.44784 0.0
C397 C 0.46268 0.41689 0.43318 0.0
C398 C 0.49912 0.45159 0.46584 0.0
C399 C 0.47572 0.46603 0.46949 0.0
C400 C 0.44536 0.45497 0.45509 0.0
C401 C 0.43898 0.43084 0.43705 0.0
C402 C 0.48138 0.49169 0.48848 0.0
C403 C 0.51441 0.51396 0.49799 0.0
C404 C 0.52029 0.53937 0.5172 0.0
C405 C 0.55187 0.55166 0.53066 0.0
C406 C 0.55842 0.57523 0.54904 0.0
C407 C 0.5336 0.58729 0.55429 0.0
H408 H 0.4718 0.54445 0.51182 0.0
C409 C 0.50236 0.57568 0.54056 0.0
C410 C 0.4958 0.5521 0.52217 0.0
H411 H 0.48289 0.58478 0.54402 0.0
H412 H 0.51127 0.41685 0.44545 0.0
H413 H 0.52207 0.45831 0.477 0.0
H414 H 0.42667 0.46535 0.45765 0.0
H415 H 0.41551 0.42318 0.42613 0.0
H416 H 0.45732 0.49231 0.49448 0.0
H417 H 0.53838 0.51332 0.49181 0.0
H418 H 0.57139 0.54263 0.52711 0.0
H419 H 0.58284 0.58378 0.55922 0.0
C420 C 0.95135 0.54481 0.29708 0.0
C421 C 0.93265 0.52581 0.31681 0.0
C422 C 0.95101 0.52557 0.27757 0.0
C423 C 0.9318 0.48686 0.27741 0.0
C424 C 0.91274 0.46801 0.29705 0.0
C425 C 0.91318 0.48722 0.31653 0.0
C426 C 0.92923 0.46516 0.25682 0.0
C427 C 0.9541 0.47782 0.23987 0.0
C428 C 0.95067 0.4558 0.21926 0.0
C429 C 0.98245 0.46341 0.20713 0.0
C430 C 0.98013 0.44366 0.18745 0.0
C431 C 0.94591 0.41597 0.17945 0.0
H432 H 0.89107 0.42268 0.21931 0.0
C433 C 0.91404 0.40885 0.19128 0.0
C434 C 0.91634 0.42849 0.21098 0.0
H435 H 0.88723 0.38805 0.1853 0.0
H436 H 0.96512 0.57446 0.29638 0.0
H437 H 0.96483 0.54115 0.26251 0.0
H438 H 0.89738 0.43824 0.29734 0.0
H439 H 0.89826 0.47178 0.33142 0.0
H440 H 0.90657 0.43704 0.25617 0.0
H441 H 0.97867 0.50457 0.24145 0.0
H442 H 0.00918 0.48478 0.21286 0.0
H443 H 0.00503 0.45089 0.17817 0.0
C444 C 0.46937 0.41386 0.28933 0.0
C445 C 0.48632 0.41527 0.31018 0.0
C446 C 0.49023 0.4347 0.27078 0.0
C447 C 0.52856 0.45735 0.27274 0.0
C448 C 0.54543 0.45833 0.29353 0.0
C449 C 0.52458 0.43759 0.31204 0.0
C450 C 0.55209 0.47849 0.2532 0.0
C451 C 0.53989 0.48919 0.23521 0.0
C452 C 0.56342 0.50904 0.21536 0.0
C453 C 0.55416 0.53071 0.2018 0.0
C454 C 0.57484 0.5486 0.18249 0.0
C455 C 0.60513 0.54504 0.17631 0.0
H456 H 0.6009 0.48774 0.21848 0.0
C457 C 0.61417 0.52302 0.18969 0.0
C458 C 0.5936 0.50522 0.20901 0.0
H459 H 0.63705 0.51932 0.18512 0.0
H460 H 0.44024 0.39563 0.28701 0.0
H461 H 0.47633 0.43199 0.2548 0.0
H462 H 0.57492 0.47515 0.29545 0.0
H463 H 0.53847 0.43903 0.32786 0.0
H464 H 0.58091 0.48649 0.25416 0.0
H465 H 0.51202 0.48437 0.2352 0.0
H466 H 0.53065 0.53357 0.20603 0.0
H467 H 0.56623 0.56408 0.172 0.0
C468 C 0.50404 0.08058 0.18509 0.0
C469 C 0.46628 0.06771 0.18306 0.0
C470 C 0.51882 0.07732 0.20564 0.0
C471 C 0.49608 0.06112 0.22469 0.0
C472 C 0.45835 0.04849 0.22267 0.0
C473 C 0.44355 0.05165 0.20206 0.0
C474 C 0.51122 0.0596 0.24726 0.0
C475 C 0.54324 0.06 0.24992 0.0
C476 C 0.56013 0.06207 0.27248 0.0
C477 C 0.58574 0.05008 0.27456 0.0
C478 C 0.60382 0.05367 0.29519 0.0
C479 C 0.59676 0.06953 0.31413 0.0
H480 H 0.53475 0.08893 0.29041 0.0
C481 C 0.57142 0.08183 0.31203 0.0
C482 C 0.55325 0.07813 0.29147 0.0
H483 H 0.56576 0.09456 0.3263 0.0
H484 H 0.52228 0.09347 0.17079 0.0
H485 H 0.5482 0.0886 0.20665 0.0
H486 H 0.44032 0.03655 0.23718 0.0
H487 H 0.41461 0.04277 0.2013 0.0
H488 H 0.49503 0.05763 0.26213 0.0
H489 H 0.55763 0.05826 0.23506 0.0
H490 H 0.59211 0.03828 0.2601 0.0
H491 H 0.62424 0.04526 0.29601 0.0
C492 C 0.08226 0.5871 0.81218 0.0
C493 C 0.07051 0.61304 0.8121 0.0
C494 C 0.08007 0.56751 0.79249 0.0
C495 C 0.06595 0.57339 0.7722 0.0
C496 C 0.05459 0.59965 0.7721 0.0
C497 C 0.05686 0.61929 0.79182 0.0
C498 C 0.0648 0.55448 0.75055 0.0
C499 C 0.06533 0.52269 0.74955 0.0
C500 C 0.06641 0.50493 0.72788 0.0
C501 C 0.05589 0.46751 0.72808 0.0
C502 C 0.05796 0.45013 0.7083 0.0
C503 C 0.07061 0.46987 0.68789 0.0
H504 H 0.08933 0.55395 0.70666 0.0
C505 C 0.08166 0.50741 0.68772 0.0
C506 C 0.07963 0.5248 0.70746 0.0
H507 H 0.09203 0.52345 0.67228 0.0
H508 H 0.09338 0.58204 0.8275 0.0
H509 H 0.0904 0.54859 0.79321 0.0
H510 H 0.04431 0.60532 0.75663 0.0
H511 H 0.04912 0.6402 0.7909 0.0
H512 H 0.06259 0.56703 0.73494 0.0
H513 H 0.06404 0.50833 0.76517 0.0
H514 H 0.04635 0.45168 0.74365 0.0
H515 H 0.05079 0.42162 0.70926 0.0
C516 C 0.53967 0.60268 0.70316 0.0
C517 C 0.52548 0.59114 0.68119 0.0
C518 C 0.52202 0.58043 0.72199 0.0
C519 C 0.49 0.54613 0.71909 0.0
C520 C 0.47646 0.53422 0.69706 0.0
C521 C 0.49372 0.55675 0.6783 0.0
C522 C 0.4701 0.52234 0.73874 0.0
C523 C 0.4667 0.53619 0.75863 0.0
C524 C 0.44455 0.51273 0.77785 0.0
C525 C 0.42653 0.52536 0.79213 0.0
C526 C 0.40554 0.50406 0.81044 0.0
C527 C 0.40249 0.46982 0.81508 0.0
H528 H 0.45671 0.46887 0.77238 0.0
C529 C 0.42145 0.45767 0.80116 0.0
C530 C 0.44201 0.47874 0.78259 0.0
H531 H 0.42157 0.43261 0.80495 0.0
H532 H 0.56378 0.62933 0.70588 0.0
H533 H 0.5335 0.59007 0.73875 0.0
H534 H 0.45195 0.50781 0.69441 0.0
H535 H 0.4823 0.54723 0.6615 0.0
H536 H 0.45535 0.49278 0.73611 0.0
H537 H 0.47823 0.56571 0.76034 0.0
H538 H 0.42839 0.55164 0.78897 0.0
H539 H 0.39166 0.51448 0.82098 0.0
C540 C 0.5416 0.94549 0.79369 0.0
C541 C 0.52423 0.93229 0.81477 0.0
C542 C 0.52215 0.94824 0.7752 0.0
C543 C 0.4847 0.93729 0.77737 0.0
C544 C 0.46761 0.92458 0.79855 0.0
C545 C 0.48704 0.92186 0.81699 0.0
C546 C 0.46238 0.93845 0.75808 0.0
C547 C 0.4708 0.93762 0.73605 0.0
C548 C 0.44678 0.93535 0.7168 0.0
C549 C 0.45045 0.92124 0.69595 0.0
C550 C 0.42785 0.91753 0.67756 0.0
C551 C 0.40133 0.92834 0.67948 0.0
H552 H 0.41725 0.95845 0.73421 0.0
C553 C 0.39783 0.94289 0.70021 0.0
C554 C 0.42049 0.94664 0.71865 0.0
H555 H 0.37699 0.95047 0.70246 0.0
H556 H 0.56989 0.95274 0.79123 0.0
H557 H 0.53669 0.95901 0.75936 0.0
H558 H 0.4389 0.91616 0.80079 0.0
H559 H 0.47291 0.91163 0.83305 0.0
H560 H 0.43665 0.93709 0.76238 0.0
H561 H 0.49489 0.93571 0.73181 0.0
H562 H 0.47055 0.91251 0.69395 0.0
H563 H 0.43123 0.90627 0.66177 0.0
loop_
_geom_bond_atom_site_label_1
_geom_bond_atom_site_label_2
_geom_bond_distance
_geom_bond_site_symmetry_2
_ccdc_geom_bond_type
O0 Cd1 2.300 1_655 S
O0 C7 1.275 . S
Cd1 O0 2.300 1_455 S
Cd1 O9 2.381 1_455 S
Cd1 O10 2.378 . S
O2 Cd3 2.385 . S
O2 C7 1.255 1_455 S
Cd3 O2 2.385 . S
Cd3 O4 2.317 . S
O4 Cd3 2.317 . S
O4 C5 1.232 . S
C5 O4 1.232 . S
C5 O6 1.218 . S
O6 C5 1.218 . S
C7 O0 1.275 . S
C7 O2 1.255 1_655 S
C8 O9 1.258 . S
C8 O10 1.256 1_655 S
O9 Cd1 2.381 1_655 S
O9 C8 1.258 . S
O10 Cd1 2.378 . S
O10 C8 1.256 1_455 S
O11 Cd12 2.300 . S
O11 C18 1.275 . S
Cd12 O11 2.300 . S
Cd12 O20 2.381 . S
Cd12 O21 2.378 . S
O13 Cd14 2.385 . S
O13 C18 1.255 . S
Cd14 O13 2.385 . S
Cd14 O15 2.317 . S
O15 Cd14 2.317 . S
O15 C16 1.232 . S
C16 O15 1.232 . S
C16 O17 1.218 . S
O17 C16 1.218 . S
C18 O11 1.275 . S
C18 O13 1.255 . S
C19 O20 1.258 . S
C19 O21 1.256 . S
O20 Cd12 2.381 . S
O20 C19 1.258 . S
O21 Cd12 2.378 . S
O21 C19 1.256 . S
O22 Cd23 2.300 1_545 S
O22 C29 1.275 . S
Cd23 O22 2.300 1_565 S
Cd23 O31 2.381 1_565 S
Cd23 O32 2.378 . S
O24 Cd25 2.385 . S
O24 C29 1.255 1_565 S
Cd25 O24 2.385 . S
Cd25 O26 2.317 . S
O26 Cd25 2.317 . S
O26 C27 1.232 . S
C27 O26 1.232 . S
C27 O28 1.218 . S
O28 C27 1.218 . S
C29 O22 1.275 . S
C29 O24 1.255 1_545 S
C30 O31 1.258 . S
C30 O32 1.256 1_545 S
O31 Cd23 2.381 1_545 S
O31 C30 1.258 . S
O32 Cd23 2.378 . S
O32 C30 1.256 1_565 S
O33 Cd34 2.300 1_545 S
O33 C40 1.275 . S
Cd34 O33 2.300 1_565 S
Cd34 O42 2.381 1_565 S
Cd34 O43 2.378 . S
O35 Cd36 2.385 . S
O35 C40 1.255 1_565 S
Cd36 O35 2.385 . S
Cd36 O37 2.317 . S
O37 Cd36 2.317 . S
O37 C38 1.232 . S
C38 O37 1.232 . S
C38 O39 1.218 . S
O39 C38 1.218 . S
C40 O33 1.275 . S
C40 O35 1.255 1_545 S
C41 O42 1.258 . S
C41 O43 1.256 1_545 S
O42 Cd34 2.381 1_545 S
O42 C41 1.258 . S
O43 Cd34 2.378 . S
O43 C41 1.256 1_565 S
O44 Cd45 2.300 1_655 S
O44 C51 1.275 . S
Cd45 O44 2.300 1_455 S
Cd45 O53 2.381 1_455 S
Cd45 O54 2.378 . S
O46 Cd47 2.385 . S
O46 C51 1.255 1_455 S
Cd47 O46 2.385 . S
Cd47 O48 2.317 . S
O48 Cd47 2.317 . S
O48 C49 1.232 . S
C49 O48 1.232 . S
C49 O50 1.218 . S
O50 C49 1.218 . S
C51 O44 1.275 . S
C51 O46 1.255 1_655 S
C52 O53 1.258 . S
C52 O54 1.256 1_655 S
O53 Cd45 2.381 1_655 S
O53 C52 1.258 . S
O54 Cd45 2.378 . S
O54 C52 1.256 1_455 S
O55 Cd56 2.300 . S
O55 C62 1.275 . S
Cd56 O55 2.300 . S
Cd56 O64 2.381 . S
Cd56 O65 2.378 . S
O57 Cd58 2.385 . S
O57 C62 1.255 . S
Cd58 O57 2.385 . S
Cd58 O59 2.317 . S
O59 Cd58 2.317 . S
O59 C60 1.232 . S
C60 O59 1.232 . S
C60 O61 1.218 . S
O61 C60 1.218 . S
C62 O55 1.275 . S
C62 O57 1.255 . S
C63 O64 1.258 . S
C63 O65 1.256 . S
O64 Cd56 2.381 . S
O64 C63 1.258 . S
O65 Cd56 2.378 . S
O65 C63 1.256 . S
O66 Cd67 2.300 . S
O66 C73 1.275 . S
Cd67 O66 2.300 . S
Cd67 O75 2.381 . S
Cd67 O76 2.378 . S
O68 Cd69 2.385 . S
O68 C73 1.255 . S
Cd69 O68 2.385 . S
Cd69 O70 2.317 1_455 S
O70 Cd69 2.317 1_655 S
O70 C71 1.232 . S
C71 O70 1.232 . S
C71 O72 1.218 . S
O72 C71 1.218 . S
C73 O66 1.275 . S
C73 O68 1.255 . S
C74 O75 1.258 . S
C74 O76 1.256 . S
O75 Cd67 2.381 . S
O75 C74 1.258 . S
O76 Cd67 2.378 . S
O76 C74 1.256 . S
O77 Cd78 2.300 . S
O77 C84 1.275 . S
Cd78 O77 2.300 . S
Cd78 O86 2.381 . S
Cd78 O87 2.378 . S
O79 Cd80 2.385 . S
O79 C84 1.255 . S
Cd80 O79 2.385 . S
Cd80 O81 2.317 . S
O81 Cd80 2.317 . S
O81 C82 1.232 . S
C82 O81 1.232 . S
C82 O83 1.218 . S
O83 C82 1.218 . S
C84 O77 1.275 . S
C84 O79 1.255 . S
C85 O86 1.258 . S
C85 O87 1.256 . S
O86 Cd78 2.381 . S
O86 C85 1.258 . S
O87 Cd78 2.378 . S
O87 C85 1.256 . S
O88 Cd89 2.300 . S
O88 C95 1.275 . S
Cd89 O88 2.300 . S
Cd89 O97 2.381 . S
Cd89 O98 2.378 . S
O90 Cd91 2.385 . S
O90 C95 1.255 . S
Cd91 O90 2.385 . S
Cd91 O92 2.317 1_565 S
O92 Cd91 2.317 1_545 S
O92 C93 1.232 . S
C93 O92 1.232 . S
C93 O94 1.218 . S
O94 C93 1.218 . S
C95 O88 1.275 . S
C95 O90 1.255 . S
C96 O97 1.258 . S
C96 O98 1.256 . S
O97 Cd89 2.381 . S
O97 C96 1.258 . S
O98 Cd89 2.378 . S
O98 C96 1.256 . S
O99 Cd100 2.300 . S
O99 C106 1.275 . S
Cd100 O99 2.300 . S
Cd100 O108 2.381 . S
Cd100 O109 2.378 . S
O101 Cd102 2.385 . S
O101 C106 1.255 . S
Cd102 O101 2.385 . S
Cd102 O103 2.317 1_565 S
O103 Cd102 2.317 1_545 S
O103 C104 1.232 . S
C104 O103 1.232 . S
C104 O105 1.218 . S
O105 C104 1.218 . S
C106 O99 1.275 . S
C106 O101 1.255 . S
C107 O108 1.258 . S
C107 O109 1.256 . S
O108 Cd100 2.381 . S
O108 C107 1.258 . S
O109 Cd100 2.378 . S
O109 C107 1.256 . S
O110 Cd111 2.300 . S
O110 C117 1.275 . S
Cd111 O110 2.300 . S
Cd111 O119 2.381 . S
Cd111 O120 2.378 . S
O112 Cd113 2.385 . S
O112 C117 1.255 . S
Cd113 O112 2.385 . S
Cd113 O114 2.317 1_455 S
O114 Cd113 2.317 1_655 S
O114 C115 1.232 . S
C115 O114 1.232 . S
C115 O116 1.218 . S
O116 C115 1.218 . S
C117 O110 1.275 . S
C117 O112 1.255 . S
C118 O119 1.258 . S
C118 O120 1.256 . S
O119 Cd111 2.381 . S
O119 C118 1.258 . S
O120 Cd111 2.378 . S
O120 C118 1.256 . S
O121 Cd122 2.300 . S
O121 C128 1.275 . S
Cd122 O121 2.300 . S
Cd122 O130 2.381 . S
Cd122 O131 2.378 . S
O123 Cd124 2.385 . S
O123 C128 1.255 . S
Cd124 O123 2.385 . S
Cd124 O125 2.317 . S
O125 Cd124 2.317 . S
O125 C126 1.232 . S
C126 O125 1.232 . S
C126 O127 1.218 . S
O127 C126 1.218 . S
C128 O121 1.275 . S
C128 O123 1.255 . S
C129 O130 1.258 . S
C129 O131 1.256 . S
O130 Cd122 2.381 . S
O130 C129 1.258 . S
O131 Cd122 2.378 . S
O131 C129 1.256 . S
C132 C133 1.386 . S
C132 C134 1.383 . S
C132 H148 0.951 . S
C133 C132 1.386 . S
C133 C137 1.383 . S
C134 C132 1.383 . S
C134 C135 1.402 . S
C134 H149 0.951 . S
C135 C134 1.402 . S
C135 C136 1.375 . S
C135 C138 1.481 . S
C136 C135 1.375 . S
C136 C137 1.367 . S
C136 H150 0.951 . S
C137 C133 1.383 . S
C137 C136 1.367 . S
C137 H151 0.950 . S
C138 C135 1.481 . S
C138 C139 1.297 . S
C138 H152 0.950 . S
C139 C138 1.297 . S
C139 C140 1.479 . S
C139 H153 0.950 . S
C140 C139 1.479 . S
C140 C141 1.375 . S
C140 C146 1.404 . S
C141 C140 1.375 . S
C141 C142 1.369 . S
C141 H154 0.950 . S
C142 C141 1.369 . S
C142 C143 1.392 . S
C142 H155 0.951 . S
C143 C142 1.392 . S
C143 C145 1.384 . S
H144 C146 0.949 . S
C145 C143 1.384 . S
C145 C146 1.385 . S
C145 H147 0.950 . S
C146 C140 1.404 . S
C146 H144 0.949 . S
C146 C145 1.385 . S
H147 C145 0.950 . S
H148 C132 0.951 . S
H149 C134 0.951 . S
H150 C136 0.951 . S
H151 C137 0.950 . S
H152 C138 0.950 . S
H153 C139 0.950 . S
H154 C141 0.950 . S
H155 C142 0.951 . S
C156 C157 1.386 . S
C156 C158 1.383 . S
C156 H172 0.951 . S
C157 C156 1.386 . S
C157 C161 1.383 . S
C158 C156 1.383 . S
C158 C159 1.402 . S
C158 H173 0.951 . S
C159 C158 1.402 . S
C159 C160 1.375 . S
C159 C162 1.481 . S
C160 C159 1.375 . S
C160 C161 1.367 . S
C160 H174 0.951 . S
C161 C157 1.383 . S
C161 C160 1.367 . S
C161 H175 0.950 . S
C162 C159 1.481 . S
C162 C163 1.297 . S
C162 H176 0.950 . S
C163 C162 1.297 . S
C163 C164 1.479 . S
C163 H177 0.950 . S
C164 C163 1.479 . S
C164 C165 1.375 . S
C164 C170 1.404 . S
C165 C164 1.375 . S
C165 C166 1.369 . S
C165 H178 0.950 . S
C166 C165 1.369 . S
C166 C167 1.392 . S
C166 H179 0.951 . S
C167 C166 1.392 . S
C167 C169 1.384 . S
H168 C170 0.949 . S
C169 C167 1.384 . S
C169 C170 1.385 . S
C169 H171 0.950 . S
C170 C164 1.404 . S
C170 H168 0.949 . S
C170 C169 1.385 . S
H171 C169 0.950 . S
H172 C156 0.951 . S
H173 C158 0.951 . S
H174 C160 0.951 . S
H175 C161 0.950 . S
H176 C162 0.950 . S
H177 C163 0.950 . S
H178 C165 0.950 . S
H179 C166 0.951 . S
C180 C181 1.386 . S
C180 C182 1.383 . S
C180 H196 0.951 . S
C181 C180 1.386 . S
C181 C185 1.383 . S
C182 C180 1.383 . S
C182 C183 1.402 . S
C182 H197 0.951 . S
C183 C182 1.402 . S
C183 C184 1.375 . S
C183 C186 1.481 . S
C184 C183 1.375 . S
C184 C185 1.367 . S
C184 H198 0.951 . S
C185 C181 1.383 . S
C185 C184 1.367 . S
C185 H199 0.950 . S
C186 C183 1.481 . S
C186 C187 1.297 . S
C186 H200 0.950 . S
C187 C186 1.297 . S
C187 C188 1.479 . S
C187 H201 0.950 . S
C188 C187 1.479 . S
C188 C189 1.375 . S
C188 C194 1.404 . S
C189 C188 1.375 . S
C189 C190 1.369 . S
C189 H202 0.950 . S
C190 C189 1.369 . S
C190 C191 1.392 . S
C190 H203 0.951 . S
C191 C190 1.392 . S
C191 C193 1.384 . S
H192 C194 0.949 . S
C193 C191 1.384 . S
C193 C194 1.385 . S
C193 H195 0.950 . S
C194 C188 1.404 . S
C194 H192 0.949 . S
C194 C193 1.385 . S
H195 C193 0.950 . S
H196 C180 0.951 . S
H197 C182 0.951 . S
H198 C184 0.951 . S
H199 C185 0.950 . S
H200 C186 0.950 . S
H201 C187 0.950 . S
H202 C189 0.950 . S
H203 C190 0.951 . S
C204 C205 1.386 . S
C204 C206 1.383 . S
C204 H220 0.951 . S
C205 C204 1.386 . S
C205 C209 1.383 . S
C206 C204 1.383 . S
C206 C207 1.402 . S
C206 H221 0.951 . S
C207 C206 1.402 . S
C207 C208 1.375 . S
C207 C210 1.481 . S
C208 C207 1.375 . S
C208 C209 1.367 . S
C208 H222 0.951 . S
C209 C205 1.383 . S
C209 C208 1.367 . S
C209 H223 0.950 . S
C210 C207 1.481 . S
C210 C211 1.297 . S
C210 H224 0.950 . S
C211 C210 1.297 . S
C211 C212 1.479 . S
C211 H225 0.950 . S
C212 C211 1.479 . S
C212 C213 1.375 . S
C212 C218 1.404 . S
C213 C212 1.375 . S
C213 C214 1.369 . S
C213 H226 0.950 . S
C214 C213 1.369 . S
C214 C215 1.392 . S
C214 H227 0.951 . S
C215 C214 1.392 . S
C215 C217 1.384 . S
H216 C218 0.949 . S
C217 C215 1.384 . S
C217 C218 1.385 . S
C217 H219 0.950 . S
C218 C212 1.404 . S
C218 H216 0.949 . S
C218 C217 1.385 . S
H219 C217 0.950 . S
H220 C204 0.951 . S
H221 C206 0.951 . S
H222 C208 0.951 . S
H223 C209 0.950 . S
H224 C210 0.950 . S
H225 C211 0.950 . S
H226 C213 0.950 . S
H227 C214 0.951 . S
C228 C229 1.386 . S
C228 C230 1.383 . S
C228 H244 0.951 . S
C229 C228 1.386 . S
C229 C233 1.383 . S
C230 C228 1.383 . S
C230 C231 1.402 . S
C230 H245 0.951 . S
C231 C230 1.402 . S
C231 C232 1.375 . S
C231 C234 1.481 . S
C232 C231 1.375 . S
C232 C233 1.367 . S
C232 H246 0.951 . S
C233 C229 1.383 . S
C233 C232 1.367 . S
C233 H247 0.950 . S
C234 C231 1.481 . S
C234 C235 1.297 . S
C234 H248 0.950 . S
C235 C234 1.297 . S
C235 C236 1.479 . S
C235 H249 0.950 . S
C236 C235 1.479 . S
C236 C237 1.375 . S
C236 C242 1.404 . S
C237 C236 1.375 . S
C237 C238 1.369 . S
C237 H250 0.950 . S
C238 C237 1.369 . S
C238 C239 1.392 . S
C238 H251 0.951 . S
C239 C238 1.392 . S
C239 C241 1.384 . S
H240 C242 0.949 . S
C241 C239 1.384 . S
C241 C242 1.385 . S
C241 H243 0.950 . S
C242 C236 1.404 . S
C242 H240 0.949 . S
C242 C241 1.385 . S
H243 C241 0.950 . S
H244 C228 0.951 . S
H245 C230 0.951 . S
H246 C232 0.951 . S
H247 C233 0.950 . S
H248 C234 0.950 . S
H249 C235 0.950 . S
H250 C237 0.950 . S
H251 C238 0.951 . S
C252 C253 1.386 . S
C252 C254 1.383 . S
C252 H268 0.951 . S
C253 C252 1.386 . S
C253 C257 1.383 . S
C254 C252 1.383 . S
C254 C255 1.402 . S
C254 H269 0.951 . S
C255 C254 1.402 . S
C255 C256 1.375 . S
C255 C258 1.481 . S
C256 C255 1.375 . S
C256 C257 1.367 . S
C256 H270 0.951 . S
C257 C253 1.383 . S
C257 C256 1.367 . S
C257 H271 0.950 . S
C258 C255 1.481 . S
C258 C259 1.297 . S
C258 H272 0.950 . S
C259 C258 1.297 . S
C259 C260 1.479 . S
C259 H273 0.950 . S
C260 C259 1.479 . S
C260 C261 1.375 . S
C260 C266 1.404 . S
C261 C260 1.375 . S
C261 C262 1.369 . S
C261 H274 0.950 . S
C262 C261 1.369 . S
C262 C263 1.392 . S
C262 H275 0.951 . S
C263 C262 1.392 . S
C263 C265 1.384 . S
H264 C266 0.949 . S
C265 C263 1.384 . S
C265 C266 1.385 . S
C265 H267 0.950 . S
C266 C260 1.404 . S
C266 H264 0.949 . S
C266 C265 1.385 . S
H267 C265 0.950 . S
H268 C252 0.951 . S
H269 C254 0.951 . S
H270 C256 0.951 . S
H271 C257 0.950 . S
H272 C258 0.950 . S
H273 C259 0.950 . S
H274 C261 0.950 . S
H275 C262 0.951 . S
C276 C277 1.386 . S
C276 C278 1.383 . S
C276 H292 0.951 . S
C277 C276 1.386 . S
C277 C281 1.383 1_655 S
C278 C276 1.383 . S
C278 C279 1.402 1_655 S
C278 H293 0.951 . S
C279 C278 1.402 1_455 S
C279 C280 1.375 . S
C279 C282 1.481 . S
C280 C279 1.375 . S
C280 C281 1.367 . S
C280 H294 0.951 . S
C281 C277 1.383 1_455 S
C281 C280 1.367 . S
C281 H295 0.950 . S
C282 C279 1.481 . S
C282 C283 1.297 1_454 S
C282 H296 0.950 . S
C283 C282 1.297 1_656 S
C283 C284 1.479 . S
C283 H297 0.950 1_556 S
C284 C283 1.479 . S
C284 C285 1.375 . S
C284 C290 1.404 1_655 S
C285 C284 1.375 . S
C285 C286 1.369 . S
C285 H298 0.950 . S
C286 C285 1.369 . S
C286 C287 1.392 1_655 S
C286 H299 0.951 . S
C287 C286 1.392 1_455 S
C287 C289 1.384 . S
H288 C290 0.949 . S
C289 C287 1.384 . S
C289 C290 1.385 . S
C289 H291 0.950 . S
C290 C284 1.404 1_455 S
C290 H288 0.949 . S
C290 C289 1.385 . S
H291 C289 0.950 . S
H292 C276 0.951 . S
H293 C278 0.951 . S
H294 C280 0.951 . S
H295 C281 0.950 . S
H296 C282 0.950 . S
H297 C283 0.950 1_554 S
H298 C285 0.950 . S
H299 C286 0.951 . S
C300 C301 1.386 . S
C300 C302 1.383 . S
C300 H316 0.951 . S
C301 C300 1.386 . S
C301 C305 1.383 . S
C302 C300 1.383 . S
C302 C303 1.402 . S
C302 H317 0.951 . S
C303 C302 1.402 . S
C303 C304 1.375 . S
C303 C306 1.481 . S
C304 C303 1.375 . S
C304 C305 1.367 . S
C304 H318 0.951 . S
C305 C301 1.383 . S
C305 C304 1.367 . S
C305 H319 0.950 . S
C306 C303 1.481 . S
C306 C307 1.297 . S
C306 H320 0.950 . S
C307 C306 1.297 . S
C307 C308 1.479 1_556 S
C307 H321 0.950 . S
C308 C307 1.479 1_554 S
C308 C309 1.375 . S
C308 C314 1.404 . S
C309 C308 1.375 . S
C309 C310 1.369 . S
C309 H322 0.950 . S
C310 C309 1.369 . S
C310 C311 1.392 . S
C310 H323 0.951 . S
C311 C310 1.392 . S
C311 C313 1.384 . S
H312 C314 0.949 . S
C313 C311 1.384 . S
C313 C314 1.385 . S
C313 H315 0.950 . S
C314 C308 1.404 . S
C314 H312 0.949 . S
C314 C313 1.385 . S
H315 C313 0.950 . S
H316 C300 0.951 . S
H317 C302 0.951 . S
H318 C304 0.951 . S
H319 C305 0.950 . S
H320 C306 0.950 . S
H321 C307 0.950 . S
H322 C309 0.950 . S
H323 C310 0.951 . S
C324 C325 1.386 1_565 S
C324 C326 1.383 . S
C324 H340 0.951 . S
C325 C324 1.386 1_545 S
C325 C329 1.383 . S
C326 C324 1.383 . S
C326 C327 1.402 1_565 S
C326 H341 0.951 . S
C327 C326 1.402 1_545 S
C327 C328 1.375 . S
C327 C330 1.481 . S
C328 C327 1.375 . S
C328 C329 1.367 . S
C328 H342 0.951 . S
C329 C325 1.383 . S
C329 C328 1.367 . S
C329 H343 0.950 . S
C330 C327 1.481 . S
C330 C331 1.297 1_554 S
C330 H344 0.950 . S
C331 C330 1.297 1_556 S
C331 C332 1.478 . S
C331 H345 0.950 1_545 S
C332 C331 1.478 . S
C332 C333 1.378 1_545 S
C332 C338 1.403 . S
C333 C332 1.378 1_565 S
C333 C334 1.369 . S
C333 H346 0.950 . S
C334 C333 1.369 . S
C334 C335 1.392 . S
C334 H347 0.951 . S
C335 C334 1.392 . S
C335 C337 1.384 1_565 S
H336 C338 0.949 . S
C337 C335 1.384 1_545 S
C337 C338 1.385 . S
C337 H339 0.950 . S
C338 C332 1.403 . S
C338 H336 0.949 . S
C338 C337 1.385 . S
H339 C337 0.950 . S
H340 C324 0.951 . S
H341 C326 0.951 . S
H342 C328 0.951 . S
H343 C329 0.950 . S
H344 C330 0.950 . S
H345 C331 0.950 1_565 S
H346 C333 0.950 . S
H347 C334 0.951 . S
C348 C349 1.386 . S
C348 C350 1.383 . S
C348 H364 0.951 . S
C349 C348 1.386 . S
C349 C353 1.383 1_565 S
C350 C348 1.383 . S
C350 C351 1.402 . S
C350 H365 0.951 . S
C351 C350 1.402 . S
C351 C352 1.375 1_565 S
C351 C354 1.481 1_565 S
C352 C351 1.375 1_545 S
C352 C353 1.367 . S
C352 H366 0.951 . S
C353 C349 1.383 1_545 S
C353 C352 1.367 . S
C353 H367 0.950 . S
C354 C351 1.481 1_545 S
C354 C355 1.297 1_545 S
C354 H368 0.950 . S
C355 C354 1.297 1_565 S
C355 C356 1.479 . S
C355 H369 0.950 . S
C356 C355 1.479 . S
C356 C357 1.375 . S
C356 C362 1.404 1_565 S
C357 C356 1.375 . S
C357 C358 1.369 . S
C357 H370 0.950 . S
C358 C357 1.369 . S
C358 C359 1.392 1_565 S
C358 H371 0.951 . S
C359 C358 1.392 1_545 S
C359 C361 1.384 . S
H360 C362 0.949 . S
C361 C359 1.384 . S
C361 C362 1.385 . S
C361 H363 0.950 . S
C362 C356 1.404 1_545 S
C362 H360 0.949 . S
C362 C361 1.385 . S
H363 C361 0.950 . S
H364 C348 0.951 . S
H365 C350 0.951 . S
H366 C352 0.951 . S
H367 C353 0.950 . S
H368 C354 0.950 . S
H369 C355 0.950 . S
H370 C357 0.950 . S
H371 C358 0.951 . S
C372 C373 1.386 . S
C372 C374 1.383 . S
C372 H388 0.951 . S
C373 C372 1.386 . S
C373 C377 1.383 1_455 S
C374 C372 1.383 . S
C374 C375 1.402 . S
C374 H389 0.951 . S
C375 C374 1.402 . S
C375 C376 1.375 1_455 S
C375 C378 1.481 1_455 S
C376 C375 1.375 1_655 S
C376 C377 1.367 . S
C376 H390 0.951 . S
C377 C373 1.383 1_655 S
C377 C376 1.367 . S
C377 H391 0.950 . S
C378 C375 1.481 1_655 S
C378 C379 1.297 1_655 S
C378 H392 0.950 . S
C379 C378 1.297 1_455 S
C379 C380 1.479 . S
C379 H393 0.950 . S
C380 C379 1.479 . S
C380 C381 1.375 . S
C380 C386 1.404 1_455 S
C381 C380 1.375 . S
C381 C382 1.369 . S
C381 H394 0.950 . S
C382 C381 1.369 . S
C382 C383 1.392 1_455 S
C382 H395 0.951 . S
C383 C382 1.392 1_655 S
C383 C385 1.384 . S
H384 C386 0.949 . S
C385 C383 1.384 . S
C385 C386 1.385 . S
C385 H387 0.950 . S
C386 C380 1.404 1_655 S
C386 H384 0.949 . S
C386 C385 1.385 . S
H387 C385 0.950 . S
H388 C372 0.951 . S
H389 C374 0.951 . S
H390 C376 0.951 . S
H391 C377 0.950 . S
H392 C378 0.950 . S
H393 C379 0.950 . S
H394 C381 0.950 . S
H395 C382 0.951 . S
C396 C397 1.386 . S
C396 C398 1.383 . S
C396 H412 0.951 . S
C397 C396 1.386 . S
C397 C401 1.383 . S
C398 C396 1.383 . S
C398 C399 1.402 . S
C398 H413 0.951 . S
C399 C398 1.402 . S
C399 C400 1.375 . S
C399 C402 1.481 . S
C400 C399 1.375 . S
C400 C401 1.367 . S
C400 H414 0.951 . S
C401 C397 1.383 . S
C401 C400 1.367 . S
C401 H415 0.950 . S
C402 C399 1.481 . S
C402 C403 1.297 . S
C402 H416 0.950 . S
C403 C402 1.297 . S
C403 C404 1.479 . S
C403 H417 0.950 . S
C404 C403 1.479 . S
C404 C405 1.375 . S
C404 C410 1.404 . S
C405 C404 1.375 . S
C405 C406 1.369 . S
C405 H418 0.950 . S
C406 C405 1.369 . S
C406 C407 1.392 . S
C406 H419 0.951 . S
C407 C406 1.392 . S
C407 C409 1.384 . S
H408 C410 0.949 . S
C409 C407 1.384 . S
C409 C410 1.385 . S
C409 H411 0.950 . S
C410 C404 1.404 . S
C410 H408 0.949 . S
C410 C409 1.385 . S
H411 C409 0.950 . S
H412 C396 0.951 . S
H413 C398 0.951 . S
H414 C400 0.951 . S
H415 C401 0.950 . S
H416 C402 0.950 . S
H417 C403 0.950 . S
H418 C405 0.950 . S
H419 C406 0.951 . S
C420 C421 1.386 1_455 S
C420 C422 1.383 . S
C420 H436 0.951 . S
C421 C420 1.386 1_655 S
C421 C425 1.383 . S
C422 C420 1.383 . S
C422 C423 1.402 1_455 S
C422 H437 0.951 . S
C423 C422 1.402 1_655 S
C423 C424 1.375 . S
C423 C426 1.481 . S
C424 C423 1.375 . S
C424 C425 1.367 . S
C424 H438 0.951 . S
C425 C421 1.383 . S
C425 C424 1.367 . S
C425 H439 0.950 . S
C426 C423 1.481 . S
C426 C427 1.297 . S
C426 H440 0.950 . S
C427 C426 1.297 . S
C427 C428 1.479 . S
C427 H441 0.950 1_655 S
C428 C427 1.479 . S
C428 C429 1.375 1_655 S
C428 C434 1.404 . S
C429 C428 1.375 1_455 S
C429 C430 1.369 . S
C429 H442 0.950 . S
C430 C429 1.369 . S
C430 C431 1.392 1_455 S
C430 H443 0.951 . S
C431 C430 1.392 1_655 S
C431 C433 1.384 . S
H432 C434 0.949 . S
C433 C431 1.384 . S
C433 C434 1.385 . S
C433 H435 0.950 . S
C434 C428 1.404 . S
C434 H432 0.949 . S
C434 C433 1.385 . S
H435 C433 0.950 . S
H436 C420 0.951 . S
H437 C422 0.951 . S
H438 C424 0.951 . S
H439 C425 0.950 . S
H440 C426 0.950 . S
H441 C427 0.950 1_455 S
H442 C429 0.950 . S
H443 C430 0.951 . S
C444 C445 1.386 . S
C444 C446 1.383 . S
C444 H460 0.951 . S
C445 C444 1.386 . S
C445 C449 1.383 . S
C446 C444 1.383 . S
C446 C447 1.402 . S
C446 H461 0.951 . S
C447 C446 1.402 . S
C447 C448 1.375 . S
C447 C450 1.481 . S
C448 C447 1.375 . S
C448 C449 1.367 . S
C448 H462 0.951 . S
C449 C445 1.383 . S
C449 C448 1.367 . S
C449 H463 0.950 . S
C450 C447 1.481 . S
C450 C451 1.297 . S
C450 H464 0.950 . S
C451 C450 1.297 . S
C451 C452 1.479 . S
C451 H465 0.950 . S
C452 C451 1.479 . S
C452 C453 1.375 . S
C452 C458 1.404 . S
C453 C452 1.375 . S
C453 C454 1.369 . S
C453 H466 0.950 . S
C454 C453 1.369 . S
C454 C455 1.392 . S
C454 H467 0.951 . S
C455 C454 1.392 . S
C455 C457 1.384 . S
H456 C458 0.949 . S
C457 C455 1.384 . S
C457 C458 1.385 . S
C457 H459 0.950 . S
C458 C452 1.404 . S
C458 H456 0.949 . S
C458 C457 1.385 . S
H459 C457 0.950 . S
H460 C444 0.951 . S
H461 C446 0.951 . S
H462 C448 0.951 . S
H463 C449 0.950 . S
H464 C450 0.950 . S
H465 C451 0.950 . S
H466 C453 0.950 . S
H467 C454 0.951 . S
C468 C469 1.386 . S
C468 C470 1.383 . S
C468 H484 0.951 . S
C469 C468 1.386 . S
C469 C473 1.383 . S
C470 C468 1.383 . S
C470 C471 1.402 . S
C470 H485 0.951 . S
C471 C470 1.402 . S
C471 C472 1.375 . S
C471 C474 1.481 . S
C472 C471 1.375 . S
C472 C473 1.367 . S
C472 H486 0.951 . S
C473 C469 1.383 . S
C473 C472 1.367 . S
C473 H487 0.950 . S
C474 C471 1.481 . S
C474 C475 1.297 . S
C474 H488 0.950 . S
C475 C474 1.297 . S
C475 C476 1.479 . S
C475 H489 0.950 . S
C476 C475 1.479 . S
C476 C477 1.375 . S
C476 C482 1.404 . S
C477 C476 1.375 . S
C477 C478 1.369 . S
C477 H490 0.950 . S
C478 C477 1.369 . S
C478 C479 1.392 . S
C478 H491 0.951 . S
C479 C478 1.392 . S
C479 C481 1.384 . S
H480 C482 0.949 . S
C481 C479 1.384 . S
C481 C482 1.385 . S
C481 H483 0.950 . S
C482 C476 1.404 . S
C482 H480 0.949 . S
C482 C481 1.385 . S
H483 C481 0.950 . S
H484 C468 0.951 . S
H485 C470 0.951 . S
H486 C472 0.951 . S
H487 C473 0.950 . S
H488 C474 0.950 . S
H489 C475 0.950 . S
H490 C477 0.950 . S
H491 C478 0.951 . S
C492 C493 1.386 1_655 S
C492 C494 1.383 . S
C492 H508 0.951 . S
C493 C492 1.386 1_455 S
C493 C497 1.383 . S
C494 C492 1.383 . S
C494 C495 1.402 1_655 S
C494 H509 0.951 . S
C495 C494 1.402 1_455 S
C495 C496 1.375 . S
C495 C498 1.481 . S
C496 C495 1.375 . S
C496 C497 1.367 . S
C496 H510 0.951 . S
C497 C493 1.383 . S
C497 C496 1.367 . S
C497 H511 0.950 . S
C498 C495 1.481 . S
C498 C499 1.296 1_455 S
C498 H512 0.950 . S
C499 C498 1.296 1_655 S
C499 C500 1.478 1_655 S
C499 H513 0.953 . S
C500 C499 1.478 1_455 S
C500 C501 1.375 1_455 S
C500 C506 1.404 . S
C501 C500 1.375 1_655 S
C501 C502 1.369 . S
C501 H514 0.950 . S
C502 C501 1.369 . S
C502 C503 1.392 1_655 S
C502 H515 0.951 . S
C503 C502 1.392 1_455 S
C503 C505 1.384 . S
H504 C506 0.949 . S
C505 C503 1.384 . S
C505 C506 1.385 . S
C505 H507 0.950 . S
C506 C500 1.404 . S
C506 H504 0.949 . S
C506 C505 1.385 . S
H507 C505 0.950 . S
H508 C492 0.951 . S
H509 C494 0.951 . S
H510 C496 0.951 . S
H511 C497 0.950 . S
H512 C498 0.950 . S
H513 C499 0.953 . S
H514 C501 0.950 . S
H515 C502 0.951 . S
C516 C517 1.386 . S
C516 C518 1.383 . S
C516 H532 0.951 . S
C517 C516 1.386 . S
C517 C521 1.383 . S
C518 C516 1.383 . S
C518 C519 1.402 . S
C518 H533 0.951 . S
C519 C518 1.402 . S
C519 C520 1.375 . S
C519 C522 1.481 . S
C520 C519 1.375 . S
C520 C521 1.367 . S
C520 H534 0.951 . S
C521 C517 1.383 . S
C521 C520 1.367 . S
C521 H535 0.950 . S
C522 C519 1.481 . S
C522 C523 1.297 . S
C522 H536 0.950 . S
C523 C522 1.297 . S
C523 C524 1.479 . S
C523 H537 0.950 . S
C524 C523 1.479 . S
C524 C525 1.375 . S
C524 C530 1.404 . S
C525 C524 1.375 . S
C525 C526 1.369 . S
C525 H538 0.950 . S
C526 C525 1.369 . S
C526 C527 1.392 . S
C526 H539 0.951 . S
C527 C526 1.392 . S
C527 C529 1.384 . S
H528 C530 0.949 . S
C529 C527 1.384 . S
C529 C530 1.385 . S
C529 H531 0.950 . S
C530 C524 1.404 . S
C530 H528 0.949 . S
C530 C529 1.385 . S
H531 C529 0.950 . S
H532 C516 0.951 . S
H533 C518 0.951 . S
H534 C520 0.951 . S
H535 C521 0.950 . S
H536 C522 0.950 . S
H537 C523 0.950 . S
H538 C525 0.950 . S
H539 C526 0.951 . S
C540 C541 1.386 . S
C540 C542 1.383 . S
C540 H556 0.951 . S
C541 C540 1.386 . S
C541 C545 1.383 . S
C542 C540 1.383 . S
C542 C543 1.402 . S
C542 H557 0.951 . S
C543 C542 1.402 . S
C543 C544 1.375 . S
C543 C546 1.481 . S
C544 C543 1.375 . S
C544 C545 1.367 . S
C544 H558 0.951 . S
C545 C541 1.383 . S
C545 C544 1.367 . S
C545 H559 0.950 . S
C546 C543 1.481 . S
C546 C547 1.297 . S
C546 H560 0.950 . S
C547 C546 1.297 . S
C547 C548 1.479 . S
C547 H561 0.950 . S
C548 C547 1.479 . S
C548 C549 1.375 . S
C548 C554 1.404 . S
C549 C548 1.375 . S
C549 C550 1.369 . S
C549 H562 0.950 . S
C550 C549 1.369 . S
C550 C551 1.392 . S
C550 H563 0.951 . S
C551 C550 1.392 . S
C551 C553 1.384 . S
H552 C554 0.949 . S
C553 C551 1.384 . S
C553 C554 1.385 . S
C553 H555 0.950 . S
C554 C548 1.404 . S
C554 H552 0.949 . S
C554 C553 1.385 . S
H555 C553 0.950 . S
H556 C540 0.951 . S
H557 C542 0.951 . S
H558 C544 0.951 . S
H559 C545 0.950 . S
H560 C546 0.950 . S
H561 C547 0.950 . S
H562 C549 0.950 . S
H563 C550 0.951 . S
C133 C60 1.443 . S
C143 C5 1.436 . S
C157 C16 1.509 . S
C167 C38 1.564 . S
C181 C49 1.504 . S
C191 C27 1.559 . S
C205 C126 1.743 . S
C215 C71 1.696 . S
C229 C82 1.747 . S
C239 C104 1.701 . S
C253 C115 1.747 . S
C263 C93 1.702 . S
C277 C8 1.944 . S
C287 C74 2.079 . S
C301 C85 2.068 . S
C311 C19 2.001 . S
C325 C30 1.991 . S
C335 C96 2.039 . S
C349 C107 2.084 . S
C359 C41 1.914 . S
C373 C118 2.085 . S
C383 C52 1.915 . S
C397 C63 1.968 . S
C407 C129 2.078 . S
C421 C51 0.847 . S
C431 C7 0.927 . S
C445 C62 0.814 . S
C455 C18 0.843 . S
C469 C29 0.950 . S
C479 C40 0.949 . S
C493 C73 0.950 . S
C503 C117 0.898 . S
C517 C128 0.896 . S
C527 C84 0.944 . S
C541 C95 0.898 . S
C551 C106 0.893 . S
