# Generated by pormake.
# Topology wjf, (4)-cn, num edge types: 1
# Building blocks:
#     Node 0, Type 0, BuildingBlock: UXUYUI_clean_sbu_0, # of connection points: 4
#     Node 1, Type 0, BuildingBlock: UXUYUI_clean_sbu_0, # of connection points: 4
#     Node 2, Type 0, BuildingBlock: UXUYUI_clean_sbu_0, # of connection points: 4
#     Node 3, Type 0, BuildingBlock: UXUYUI_clean_sbu_0, # of connection points: 4
#     Node 4, Type 0, BuildingBlock: UXUYUI_clean_sbu_0, # of connection points: 4
#     Node 5, Type 0, BuildingBlock: UXUYUI_clean_sbu_0, # of connection points: 4
#     Node 6, Type 0, BuildingBlock: UXUYUI_clean_sbu_0, # of connection points: 4
#     Node 7, Type 0, BuildingBlock: UXUYUI_clean_sbu_0, # of connection points: 4
#     Node 8, Type 0, BuildingBlock: UXUYUI_clean_sbu_0, # of connection points: 4
#     Node 9, Type 0, BuildingBlock: UXUYUI_clean_sbu_0, # of connection points: 4
#     Node 10, Type 0, BuildingBlock: UXUYUI_clean_sbu_0, # of connection points: 4
#     Node 11, Type 0, BuildingBlock: UXUYUI_clean_sbu_0, # of connection points: 4
#     Edge 12, Type (0, 0), BuildingBlock: ZUJKAS_clean_linker_0, # of connection points: 2
#     Edge 13, Type (0, 0), BuildingBlock: ZUJKAS_clean_linker_0, # of connection points: 2
#     Edge 14, Type (0, 0), BuildingBlock: ZUJKAS_clean_linker_0, # of connection points: 2
#     Edge 15, Type (0, 0), BuildingBlock: ZUJKAS_clean_linker_0, # of connection points: 2
#     Edge 16, Type (0, 0), BuildingBlock: ZUJKAS_clean_linker_0, # of connection points: 2
#     Edge 17, Type (0, 0), BuildingBlock: ZUJKAS_clean_linker_0, # of connection points: 2
#     Edge 18, Type (0, 0), BuildingBlock: ZUJKAS_clean_linker_0, # of connection points: 2
#     Edge 19, Type (0, 0), BuildingBlock: ZUJKAS_clean_linker_0, # of connection points: 2
#     Edge 20, Type (0, 0), BuildingBlock: ZUJKAS_clean_linker_0, # of connection points: 2
#     Edge 21, Type (0, 0), BuildingBlock: ZUJKAS_clean_linker_0, # of connection points: 2
#     Edge 22, Type (0, 0), BuildingBlock: ZUJKAS_clean_linker_0, # of connection points: 2
#     Edge 23, Type (0, 0), BuildingBlock: ZUJKAS_clean_linker_0, # of connection points: 2
#     Edge 24, Type (0, 0), BuildingBlock: ZUJKAS_clean_linker_0, # of connection points: 2
#     Edge 25, Type (0, 0), BuildingBlock: ZUJKAS_clean_linker_0, # of connection points: 2
#     Edge 26, Type (0, 0), BuildingBlock: ZUJKAS_clean_linker_0, # of connection points: 2
#     Edge 27, Type (0, 0), BuildingBlock: ZUJKAS_clean_linker_0, # of connection points: 2
#     Edge 28, Type (0, 0), BuildingBlock: ZUJKAS_clean_linker_0, # of connection points: 2
#     Edge 29, Type (0, 0), BuildingBlock: ZUJKAS_clean_linker_0, # of connection points: 2
#     Edge 30, Type (0, 0), BuildingBlock: ZUJKAS_clean_linker_0, # of connection points: 2
#     Edge 31, Type (0, 0), BuildingBlock: ZUJKAS_clean_linker_0, # of connection points: 2
#     Edge 32, Type (0, 0), BuildingBlock: ZUJKAS_clean_linker_0, # of connection points: 2
#     Edge 33, Type (0, 0), BuildingBlock: ZUJKAS_clean_linker_0, # of connection points: 2
#     Edge 34, Type (0, 0), BuildingBlock: ZUJKAS_clean_linker_0, # of connection points: 2
#     Edge 35, Type (0, 0), BuildingBlock: ZUJKAS_clean_linker_0, # of connection points: 2
# Relax obj value: 0.355
# Max RMSD: 0.304
# Mean RMSD: 0.304
data_MOF--net-wjf--node1-UXUYUI_clean_sbu_0--edge1-ZUJKAS_clean_linker_0
_symmetry_space_group_name_H-M    P1
_symmetry_Int_Tables_number       1
_symmetry_cell_setting            triclinic
loop_
_symmetry_equiv_pos_as_xyz
'x, y, z'
_cell_length_a     87.556657
_cell_length_b     87.566439
_cell_length_c     46.551167
_cell_angle_alpha  89.979599
_cell_angle_beta   90.000205
_cell_angle_gamma 119.97944
loop_
_atom_site_label
_atom_site_type_symbol
_atom_site_fract_x
_atom_site_fract_y
_atom_site_fract_z
_atom_type_partial_charge
Li0 Li 0.31591 0.39162 0.06622 0.0
Li1 Li 0.32365 0.37571 0.10133 0.0
Li2 Li 0.34572 0.39726 0.06961 0.0
Li3 Li 0.3231 0.36994 0.0513 0.0
C4 C 0.32494 0.40616 0.12165 0.0
N5 N 0.31016 0.4152 0.16625 0.0
C6 C 0.30683 0.39617 0.12708 0.0
C7 C 0.33551 0.42074 0.13892 0.0
C8 C 0.29962 0.40096 0.14972 0.0
C9 C 0.32779 0.4251 0.16135 0.0
C10 C 0.29124 0.34881 0.07196 0.0
C11 C 0.28275 0.31824 0.07832 0.0
N12 N 0.26799 0.31344 0.06246 0.0
C13 C 0.27597 0.34358 0.05579 0.0
C14 C 0.29467 0.33606 0.08338 0.0
C15 C 0.26438 0.32563 0.05121 0.0
C16 C 0.29076 0.39229 0.03299 0.0
N17 N 0.3012 0.40085 0.05579 0.0
C18 C 0.28981 0.42059 0.05765 0.0
C19 C 0.30121 0.41498 0.06796 0.0
C20 C 0.27852 0.41166 0.03449 0.0
C21 C 0.27929 0.39747 0.02195 0.0
H22 H 0.29153 0.38151 0.02319 0.0
H23 H 0.31006 0.42194 0.08551 0.0
C24 C 0.33391 0.36745 0.15271 0.0
N25 N 0.31968 0.36589 0.13846 0.0
C26 C 0.33191 0.36005 0.17992 0.0
C27 C 0.30064 0.34968 0.17732 0.0
C28 C 0.30324 0.35726 0.15008 0.0
C29 C 0.3151 0.35101 0.19259 0.0
H30 H 0.34679 0.37433 0.14275 0.0
H31 H 0.29215 0.35618 0.13812 0.0
C32 C 0.3372 0.4091 0.02035 0.0
N33 N 0.34836 0.44064 0.99191 0.0
C34 C 0.3378 0.40968 0.99036 0.0
C35 C 0.34224 0.42457 0.0359 0.0
C36 C 0.34349 0.42575 0.97637 0.0
C37 C 0.34785 0.44038 0.02112 0.0
C38 C 0.3544 0.37104 0.06633 0.0
C39 C 0.35868 0.3754 0.03741 0.0
C40 C 0.36334 0.36439 0.08222 0.0
C41 C 0.37185 0.37304 0.02488 0.0
C42 C 0.37643 0.36222 0.06891 0.0
N43 N 0.38038 0.36656 0.04076 0.0
C44 C 0.37821 0.42172 0.09311 0.0
C45 C 0.37871 0.41994 0.04233 0.0
C46 C 0.39605 0.43452 0.09353 0.0
N47 N 0.36995 0.41477 0.06777 0.0
C48 C 0.39655 0.43276 0.04174 0.0
C49 C 0.40548 0.44023 0.06759 0.0
H50 H 0.37091 0.4172 0.11301 0.0
H51 H 0.37187 0.41413 0.02247 0.0
C52 C 0.30761 0.35341 0.00045 0.0
N53 N 0.31645 0.35203 0.02334 0.0
C54 C 0.3019 0.34095 0.97853 0.0
C55 C 0.3144 0.32576 0.00424 0.0
C56 C 0.31971 0.33845 0.02591 0.0
C57 C 0.30545 0.32702 0.98011 0.0
H58 H 0.30511 0.3643 -0.00079 0.0
H59 H 0.32649 0.33752 0.04466 0.0
O60 O 0.33244 0.4017 0.09984 0.0
O61 O 0.30301 0.36633 0.076 0.0
O62 O 0.33154 0.39337 0.03415 0.0
O63 O 0.34162 0.37327 0.07929 0.0
H64 H 0.29839 0.38491 0.1139 0.0
H65 H 0.34955 0.42859 0.13502 0.0
H66 H 0.28563 0.39336 0.15413 0.0
H67 H 0.33583 0.43635 0.17488 0.0
H68 H 0.28529 0.30824 0.08688 0.0
H69 H 0.27309 0.35326 0.04681 0.0
H70 H 0.30656 0.33988 0.09558 0.0
H71 H 0.25253 0.32139 0.03867 0.0
H72 H 0.28967 0.43162 0.06791 0.0
H73 H 0.27124 0.39052 0.00355 0.0
H74 H 0.34338 0.36115 0.1907 0.0
H75 H 0.28749 0.34299 0.1864 0.0
H76 H 0.3339 0.3978 0.97803 0.0
H77 H 0.34186 0.42443 0.0591 0.0
H78 H 0.34403 0.42639 0.95316 0.0
H79 H 0.3518 0.45244 0.03288 0.0
H80 H 0.35191 0.3805 0.02468 0.0
H81 H 0.36018 0.36095 0.10463 0.0
H82 H 0.37529 0.37636 0.00253 0.0
H83 H 0.38345 0.3571 0.08096 0.0
H84 H 0.40244 0.43969 0.11399 0.0
H85 H 0.40322 0.43688 0.02122 0.0
H86 H 0.2953 0.34255 0.96007 0.0
H87 H 0.31732 0.31516 0.00622 0.0
Li88 Li 0.95965 0.32298 0.43278 0.0
Li89 Li 0.93545 0.31749 0.40095 0.0
Li90 Li 0.96537 0.325 0.38227 0.0
Li91 Li 0.96072 0.3478 0.40469 0.0
C92 C 0.94572 0.28959 0.41894 0.0
N93 N 0.9413 0.26104 0.45078 0.0
C94 C 0.92946 0.27829 0.43173 0.0
C95 C 0.95968 0.28627 0.42205 0.0
C96 C 0.9275 0.26394 0.44781 0.0
C97 C 0.9572 0.2718 0.43833 0.0
C98 C 0.931 0.33615 0.44635 0.0
C99 C 0.91263 0.34937 0.44252 0.0
N100 N 0.9054 0.34249 0.46855 0.0
C101 C 0.92353 0.32938 0.47321 0.0
C102 C 0.92562 0.34635 0.431 0.0
C103 C 0.91056 0.33266 0.484 0.0
C104 C 0.98251 0.32328 0.47538 0.0
N105 N 0.96526 0.31671 0.46858 0.0
C106 C 0.95628 0.30245 0.51419 0.0
C107 C 0.95217 0.3063 0.48715 0.0
C108 C 0.97403 0.30947 0.52211 0.0
C109 C 0.98721 0.31974 0.50208 0.0
H110 H 0.99265 0.33161 0.46033 0.0
H111 H 0.93856 0.30127 0.48116 0.0
C112 C 0.90726 0.29782 0.36522 0.0
N113 N 0.9111 0.30336 0.39288 0.0
C114 C 0.88992 0.28632 0.35702 0.0
C115 C 0.8807 0.28645 0.40595 0.0
C116 C 0.89829 0.298 0.41322 0.0
C117 C 0.8764 0.28026 0.37759 0.0
H118 H 0.91777 0.30213 0.34962 0.0
H119 H 0.90173 0.30218 0.43522 0.0
C120 C 0.99694 0.34897 0.4035 0.0
N121 N 0.03125 0.36205 0.38503 0.0
C122 C 0.00699 0.36654 0.39472 0.0
C123 C 0.00442 0.33811 0.40318 0.0
C124 C 0.02429 0.37289 0.38539 0.0
C125 C 0.02176 0.34495 0.39368 0.0
C126 C 0.94481 0.34126 0.34818 0.0
C127 C 0.95518 0.34769 0.32345 0.0
C128 C 0.92927 0.342 0.35035 0.0
C129 C 0.95006 0.35516 0.30164 0.0
C130 C 0.92458 0.34954 0.32807 0.0
N131 N 0.935 0.35594 0.3044 0.0
C132 C 0.97101 0.30338 0.34419 0.0
C133 C 0.98962 0.33404 0.33655 0.0
C134 C 0.97804 0.29953 0.32017 0.0
N135 N 0.97676 0.3204 0.35165 0.0
C136 C 0.99719 0.33082 0.31271 0.0
C137 C 0.99113 0.31338 0.30378 0.0
H138 H 0.96057 0.29279 0.35635 0.0
H139 H 0.99372 0.34745 0.34259 0.0
C140 C 0.96745 0.37991 0.42964 0.0
N141 N 0.96777 0.37216 0.40453 0.0
C142 C 0.97234 0.39772 0.43023 0.0
C143 C 0.97822 0.39933 0.37925 0.0
C144 C 0.97326 0.38152 0.37967 0.0
C145 C 0.97771 0.40764 0.40474 0.0
H146 H 0.96329 0.37222 0.44919 0.0
H147 H 0.97404 0.37524 0.36024 0.0
O148 O 0.94799 0.30387 0.40354 0.0
O149 O 0.94368 0.33298 0.43548 0.0
O150 O 0.97995 0.34252 0.41261 0.0
O151 O 0.9496 0.33377 0.36964 0.0
H152 H 0.91853 0.28067 0.42951 0.0
H153 H 0.97231 0.29483 0.41212 0.0
H154 H 0.91503 0.25514 0.45799 0.0
H155 H 0.96791 0.26913 0.44107 0.0
H156 H 0.90834 0.35723 0.43081 0.0
H157 H 0.92765 0.3216 0.48557 0.0
H158 H 0.93155 0.35209 0.41058 0.0
H159 H 0.9046 0.32741 0.50468 0.0
H160 H 0.9457 0.29466 0.5291 0.0
H161 H 0.00105 0.32525 0.50719 0.0
H162 H 0.88715 0.282 0.33487 0.0
H163 H 0.8707 0.28186 0.42254 0.0
H164 H 0.00149 0.37518 0.39508 0.0
H165 H 0.99685 0.3245 0.40992 0.0
H166 H 0.03219 0.38643 0.37843 0.0
H167 H 0.02766 0.33666 0.39313 0.0
H168 H 0.96713 0.34707 0.32119 0.0
H169 H 0.92074 0.33659 0.36881 0.0
H170 H 0.95805 0.36031 0.28251 0.0
H171 H 0.91261 0.35023 0.32953 0.0
H172 H 0.97277 0.2859 0.31388 0.0
H173 H 0.00744 0.34192 0.30106 0.0
H174 H 0.97169 0.4036 0.45033 0.0
H175 H 0.98268 0.40659 0.35927 0.0
Li176 Li 0.62868 0.94946 0.76603 0.0
Li177 Li 0.6111 0.92511 0.73417 0.0
Li178 Li 0.63198 0.9542 0.71573 0.0
Li179 Li 0.60444 0.94925 0.7368 0.0
C180 C 0.64957 0.93649 0.75302 0.0
N181 N 0.67477 0.93308 0.78364 0.0
C182 C 0.64636 0.91982 0.76156 0.0
C183 C 0.66567 0.9514 0.75993 0.0
C184 C 0.65925 0.91838 0.77704 0.0
C185 C 0.67821 0.94941 0.77547 0.0
C186 C 0.59339 0.91917 0.78637 0.0
C187 C 0.56681 0.90055 0.81301 0.0
N188 N 0.57428 0.89125 0.82325 0.0
C189 C 0.60075 0.90937 0.79703 0.0
C190 C 0.57625 0.91469 0.79427 0.0
C191 C 0.5909 0.89532 0.81569 0.0
C192 C 0.64624 0.97394 0.80933 0.0
N193 N 0.64048 0.95689 0.8021 0.0
C194 C 0.65274 0.95256 0.84514 0.0
C195 C 0.64339 0.94612 0.81954 0.0
C196 C 0.65904 0.97021 0.85293 0.0
C197 C 0.65561 0.98092 0.83469 0.0
H198 H 0.64352 0.98216 0.79541 0.0
H199 H 0.63874 0.93262 0.81349 0.0
C200 C 0.61202 0.8978 0.70771 0.0
N201 N 0.6016 0.90084 0.72562 0.0
C202 C 0.60696 0.88072 0.69898 0.0
C203 C 0.58012 0.87013 0.72654 0.0
C204 C 0.58573 0.88751 0.73474 0.0
C205 C 0.59091 0.86657 0.70864 0.0
H206 H 0.62434 0.90873 0.70021 0.0
H207 H 0.57739 0.8903 0.74824 0.0
C208 C 0.63897 0.98506 0.73162 0.0
N209 N 0.65999 0.01684 0.70425 0.0
C210 C 0.63142 0.99216 0.71341 0.0
C211 C 0.6572 0.99419 0.73609 0.0
C212 C 0.64227 0.00823 0.69973 0.0
C213 C 0.6676 0.01022 0.72201 0.0
C214 C 0.5918 0.9274 0.68884 0.0
C215 C 0.59099 0.92575 0.65896 0.0
C216 C 0.57646 0.91793 0.70515 0.0
C217 C 0.5748 0.91465 0.64582 0.0
C218 C 0.56052 0.90697 0.69122 0.0
N219 N 0.56002 0.90557 0.66209 0.0
C220 C 0.66436 0.96858 0.68481 0.0
C221 C 0.64092 0.97005 0.66198 0.0
C222 C 0.6751 0.97591 0.66074 0.0
N223 N 0.64761 0.96574 0.68486 0.0
C224 C 0.65114 0.97734 0.63747 0.0
C225 C 0.66843 0.98018 0.6365 0.0
H226 H 0.66927 0.96483 0.70315 0.0
H227 H 0.62747 0.96742 0.66257 0.0
C228 C 0.58053 0.95784 0.76183 0.0
N229 N 0.58669 0.95565 0.73628 0.0
C230 C 0.56776 0.96293 0.76255 0.0
C231 C 0.56796 0.96347 0.71061 0.0
C232 C 0.58076 0.95842 0.71091 0.0
C233 C 0.56132 0.96583 0.73668 0.0
H234 H 0.58564 0.95571 0.78166 0.0
H235 H 0.58614 0.95691 0.6909 0.0
O236 O 0.63711 0.93816 0.73778 0.0
O237 O 0.60273 0.93286 0.76783 0.0
O238 O 0.62862 0.9691 0.74457 0.0
O239 O 0.60761 0.93814 0.70194 0.0
H240 H 0.634 0.90812 0.75651 0.0
H241 H 0.66833 0.96441 0.75383 0.0
H242 H 0.6569 0.90557 0.78387 0.0
H243 H 0.69065 0.96085 0.78114 0.0
H244 H 0.55354 0.89695 0.81934 0.0
H245 H 0.61374 0.91229 0.79038 0.0
H246 H 0.57026 0.922 0.78595 0.0
H247 H 0.59642 0.88758 0.824 0.0
H248 H 0.65516 0.94388 0.85853 0.0
H249 H 0.65983 0.99447 0.84019 0.0
H250 H 0.61547 0.87866 0.68458 0.0
H251 H 0.56763 0.8596 0.73439 0.0
H252 H 0.61736 0.98525 0.70964 0.0
H253 H 0.66326 0.9889 0.75011 0.0
H254 H 0.63661 0.01383 0.68545 0.0
H255 H 0.68173 0.01738 0.72514 0.0
H256 H 0.60277 0.93296 0.64605 0.0
H257 H 0.57682 0.91903 0.72829 0.0
H258 H 0.57397 0.91325 0.6227 0.0
H259 H 0.54855 0.89957 0.70357 0.0
H260 H 0.68837 0.97797 0.66096 0.0
H261 H 0.6453 0.98007 0.6191 0.0
H262 H 0.5629 0.96447 0.78311 0.0
H263 H 0.56358 0.96586 0.6902 0.0
Li264 Li 0.67619 0.63167 0.10167 0.0
Li265 Li 0.67996 0.61076 0.07201 0.0
Li266 Li 0.67661 0.6351 0.05072 0.0
Li267 Li 0.65101 0.60919 0.07168 0.0
C268 C 0.7106 0.64787 0.09022 0.0
N269 N 0.74015 0.67042 0.12171 0.0
C270 C 0.72156 0.64196 0.10133 0.0
C271 C 0.71478 0.66531 0.09484 0.0
C272 C 0.73642 0.65355 0.11725 0.0
C273 C 0.72973 0.67649 0.11092 0.0
C274 C 0.66068 0.59105 0.12016 0.0
C275 C 0.64567 0.55955 0.12734 0.0
N276 N 0.65506 0.56197 0.15185 0.0
C277 C 0.66998 0.59322 0.14567 0.0
C278 C 0.64825 0.57408 0.11113 0.0
C279 C 0.66703 0.57836 0.16129 0.0
C280 C 0.67322 0.65313 0.14293 0.0
N281 N 0.68178 0.64415 0.13705 0.0
C282 C 0.69731 0.65325 0.18164 0.0
C283 C 0.69368 0.64406 0.15573 0.0
C284 C 0.68848 0.66247 0.18842 0.0
C285 C 0.67642 0.66247 0.16855 0.0
H286 H 0.66374 0.65291 0.12785 0.0
H287 H 0.70028 0.63677 0.15063 0.0
C288 C 0.69534 0.59585 0.03878 0.0
N289 N 0.69183 0.59773 0.06657 0.0
C290 C 0.70481 0.58743 0.03213 0.0
C291 C 0.7074 0.58341 0.08291 0.0
C292 C 0.69759 0.59169 0.08858 0.0
C293 C 0.71114 0.58127 0.05434 0.0
H294 H 0.69118 0.60131 0.02171 0.0
H295 H 0.69518 0.59385 0.11051 0.0
C296 C 0.65497 0.64638 0.06572 0.0
N297 N 0.64748 0.6703 0.03987 0.0
C298 C 0.63913 0.64047 0.05085 0.0
C299 C 0.66689 0.66446 0.06776 0.0
C300 C 0.63561 0.65277 0.03786 0.0
C301 C 0.6629 0.67634 0.05445 0.0
C302 C 0.6569 0.59623 0.01992 0.0
C303 C 0.65299 0.59904 0.99197 0.0
C304 C 0.65216 0.57917 0.02874 0.0
C305 C 0.64406 0.58465 0.97351 0.0
C306 C 0.64327 0.56514 0.00965 0.0
N307 N 0.6394 0.56814 0.98267 0.0
C308 C 0.70131 0.66399 0.01747 0.0
C309 C 0.67202 0.64948 -0.00028 0.0
C310 C 0.70715 0.67518 0.99366 0.0
N311 N 0.68405 0.65138 0.01988 0.0
C312 C 0.67726 0.66033 0.97558 0.0
C313 C 0.69509 0.67325 0.9721 0.0
H314 H 0.71064 0.66506 0.03363 0.0
H315 H 0.65843 0.6392 0.00202 0.0
C316 C 0.61748 0.58685 0.09506 0.0
N317 N 0.6262 0.59368 0.06998 0.0
C318 C 0.59937 0.57495 0.09497 0.0
C319 C 0.59946 0.57771 0.04329 0.0
C320 C 0.61755 0.5896 0.04441 0.0
C321 C 0.59015 0.57013 0.0688 0.0
H322 H 0.62466 0.59049 0.11513 0.0
H323 H 0.62464 0.59565 0.02487 0.0
O324 O 0.69594 0.63667 0.07472 0.0
O325 O 0.66332 0.6055 0.10474 0.0
O326 O 0.65876 0.63452 0.07826 0.0
O327 O 0.66556 0.61018 0.03833 0.0
H328 H 0.71862 0.62856 0.0978 0.0
H329 H 0.70649 0.67013 0.08632 0.0
H330 H 0.74497 0.64913 0.12609 0.0
H331 H 0.73305 0.68997 0.11483 0.0
H332 H 0.63613 0.54635 0.12051 0.0
H333 H 0.67948 0.60622 0.15323 0.0
H334 H 0.6405 0.5721 0.09199 0.0
H335 H 0.67426 0.57987 0.18092 0.0
H336 H 0.70653 0.65271 0.19655 0.0
H337 H 0.66943 0.66952 0.17283 0.0
H338 H 0.70782 0.58645 0.00986 0.0
H339 H 0.71227 0.57901 0.10061 0.0
H340 H 0.62971 0.62655 0.0492 0.0
H341 H 0.67915 0.66926 0.07935 0.0
H342 H 0.62345 0.64838 0.02614 0.0
H343 H 0.67207 0.69036 0.05569 0.0
H344 H 0.65674 0.61216 0.98461 0.0
H345 H 0.65556 0.57683 0.04992 0.0
H346 H 0.64085 0.58663 0.95189 0.0
H347 H 0.63951 0.55187 0.01625 0.0
H348 H 0.72099 0.68499 0.99188 0.0
H349 H 0.66755 0.65808 0.95925 0.0
H350 H 0.59272 0.56935 0.11511 0.0
H351 H 0.59279 0.57463 0.02273 0.0
Li352 Li 0.07149 0.68166 0.40089 0.0
Li353 Li 0.04873 0.6738 0.43459 0.0
Li354 Li 0.04868 0.65165 0.40337 0.0
Li355 Li 0.04319 0.67486 0.38434 0.0
C356 C 0.07784 0.67311 0.45553 0.0
N357 N 0.10155 0.68863 0.50006 0.0
C358 C 0.08551 0.69121 0.46065 0.0
C359 C 0.08222 0.66292 0.47306 0.0
C360 C 0.09747 0.6988 0.48326 0.0
C361 C 0.09424 0.67101 0.49546 0.0
C362 C 0.05137 0.70472 0.41469 0.0
C363 C 0.02574 0.70711 0.42585 0.0
N364 N 0.03592 0.72498 0.4256 0.0
C365 C 0.06156 0.72311 0.41451 0.0
C366 C 0.03329 0.69663 0.42037 0.0
C367 C 0.05351 0.73312 0.42009 0.0
C368 C 0.09917 0.7111 0.37621 0.0
N369 N 0.09563 0.69674 0.39221 0.0
C370 C 0.12588 0.70429 0.39098 0.0
C371 C 0.10849 0.69312 0.39977 0.0
C372 C 0.12987 0.71911 0.37406 0.0
C373 C 0.11627 0.7225 0.36681 0.0
H374 H 0.0886 0.71351 0.3704 0.0
H375 H 0.10521 0.68142 0.41216 0.0
C376 C 0.03022 0.66156 0.48514 0.0
N377 N 0.04228 0.67666 0.47202 0.0
C378 C 0.0243 0.66209 0.51268 0.0
C379 C 0.04339 0.69377 0.51273 0.0
C380 C 0.04903 0.6926 0.48517 0.0
C381 C 0.03089 0.67835 0.52679 0.0
H382 H 0.02516 0.64909 0.47408 0.0
H383 H 0.05877 0.7044 0.47432 0.0
C384 C 0.07154 0.66752 0.35131 0.0
N385 N 0.09964 0.67185 0.31825 0.0
C386 C 0.0764 0.67808 0.32672 0.0
C387 C 0.0809 0.65906 0.35898 0.0
C388 C 0.09067 0.68014 0.31033 0.0
C389 C 0.09507 0.66142 0.342 0.0
C390 C 0.01343 0.64246 0.40049 0.0
C391 C 0.01342 0.63667 0.37249 0.0
C392 C 0.99785 0.63457 0.41651 0.0
C393 C 0.99778 0.62308 0.36097 0.0
C394 C 0.98247 0.62102 0.40421 0.0
N395 N 0.98276 0.61561 0.37694 0.0
C396 C 0.03857 0.61871 0.42672 0.0
C397 C 0.04119 0.61961 0.37596 0.0
C398 C 0.03341 0.60085 0.427 0.0
N399 N 0.04234 0.62765 0.40148 0.0
C400 C 0.0361 0.60175 0.37522 0.0
C401 C 0.03212 0.59212 0.401 0.0
H402 H 0.03947 0.62549 0.44663 0.0
H403 H 0.04418 0.62705 0.35619 0.0
C404 C 0.0429 0.69503 0.33928 0.0
N405 N 0.03175 0.68154 0.35659 0.0
C406 C 0.03631 0.70065 0.31693 0.0
C407 C 0.00677 0.67895 0.33151 0.0
C408 C 0.01395 0.67391 0.35384 0.0
C409 C 0.01805 0.69224 0.3124 0.0
H410 H 0.05698 0.7012 0.34258 0.0
H411 H 0.00529 0.66376 0.36861 0.0
O412 O 0.066 0.66525 0.43366 0.0
O413 O 0.05921 0.69487 0.40913 0.0
O414 O 0.05795 0.66575 0.36816 0.0
O415 O 0.0286 0.65556 0.41253 0.0
H416 H 0.08233 0.69935 0.44736 0.0
H417 H 0.07637 0.64889 0.46939 0.0
H418 H 0.1035 0.71279 0.48746 0.0
H419 H 0.09776 0.66328 0.5092 0.0
H420 H 0.01178 0.70103 0.4303 0.0
H421 H 0.07557 0.72956 0.4101 0.0
H422 H 0.02514 0.68245 0.42062 0.0
H423 H 0.06125 0.74736 0.42004 0.0
H424 H 0.136 0.70121 0.39687 0.0
H425 H 0.11885 0.73395 0.3542 0.0
H426 H 0.0145 0.64993 0.52267 0.0
H427 H 0.0489 0.70652 0.52305 0.0
H428 H 0.06929 0.68469 0.32042 0.0
H429 H 0.07745 0.65101 0.37815 0.0
H430 H 0.09463 0.68835 0.29132 0.0
H431 H 0.10251 0.65506 0.3478 0.0
H432 H 0.0253 0.64265 0.35967 0.0
H433 H 0.99765 0.63887 0.43824 0.0
H434 H 0.99758 0.6185 0.33933 0.0
H435 H 0.97032 0.61481 0.41637 0.0
H436 H 0.0302 0.59389 0.44731 0.0
H437 H 0.03545 0.5956 0.35473 0.0
H438 H 0.04543 0.7109 0.30255 0.0
H439 H 0.99259 0.67234 0.32886 0.0
Li440 Li 0.39082 0.07063 0.72696 0.0
Li441 Li 0.37303 0.04764 0.76032 0.0
Li442 Li 0.39448 0.0454 0.73108 0.0
Li443 Li 0.36791 0.04224 0.71017 0.0
C444 C 0.40348 0.07513 0.78312 0.0
N445 N 0.41208 0.09877 0.82786 0.0
C446 C 0.39416 0.08409 0.78707 0.0
C447 C 0.41715 0.07819 0.80193 0.0
C448 C 0.39871 0.09599 0.80981 0.0
C449 C 0.42131 0.0902 0.82441 0.0
C450 C 0.34753 0.05386 0.73667 0.0
C451 C 0.3179 0.03056 0.74663 0.0
N452 N 0.31202 0.04218 0.74336 0.0
C453 C 0.34119 0.06557 0.73337 0.0
C454 C 0.3358 0.03619 0.74332 0.0
C455 C 0.32319 0.05942 0.73685 0.0
C456 C 0.39506 0.0977 0.69259 0.0
N457 N 0.40203 0.09482 0.71666 0.0
C458 C 0.42335 0.1255 0.72015 0.0
C459 C 0.41612 0.10821 0.73029 0.0
C460 C 0.41634 0.12873 0.69533 0.0
C461 C 0.40214 0.11463 0.68135 0.0
H462 H 0.38402 0.08673 0.68206 0.0
H463 H 0.42181 0.10555 0.74886 0.0
C464 C 0.36265 0.02887 0.81132 0.0
N465 N 0.36227 0.04218 0.79699 0.0
C466 C 0.35517 0.02396 0.83857 0.0
C467 C 0.34703 0.04656 0.83581 0.0
C468 C 0.35466 0.05103 0.80855 0.0
C469 C 0.34726 0.03287 0.85119 0.0
H470 H 0.36892 0.0222 0.8016 0.0
H471 H 0.35456 0.06159 0.79669 0.0
C472 C 0.40818 0.06563 0.68184 0.0
N473 N 0.44036 0.08467 0.65457 0.0
C474 C 0.40913 0.0658 0.65188 0.0
C475 C 0.4236 0.07519 0.69796 0.0
C476 C 0.42553 0.07549 0.63848 0.0
C477 C 0.43973 0.08472 0.68376 0.0
C478 C 0.36703 0.01122 0.72681 0.0
C479 C 0.37206 0.01102 0.69836 0.0
C480 C 0.35921 0.99561 0.74275 0.0
C481 C 0.36919 0.99518 0.68636 0.0
C482 C 0.35656 0.98004 0.72997 0.0
N483 N 0.36156 0.98015 0.70228 0.0
C484 C 0.41727 0.03561 0.75644 0.0
C485 C 0.41622 0.03332 0.70566 0.0
C486 C 0.42941 0.02971 0.75776 0.0
N487 N 0.41101 0.03733 0.73067 0.0
C488 C 0.42835 0.0274 0.70596 0.0
C489 C 0.43513 0.02553 0.73227 0.0
H490 H 0.41276 0.03878 0.77599 0.0
H491 H 0.411 0.03473 0.68543 0.0
C492 C 0.35149 0.04343 0.66062 0.0
N493 N 0.35041 0.03199 0.68129 0.0
C494 C 0.33931 0.03767 0.63824 0.0
C495 C 0.32505 0.00839 0.65887 0.0
C496 C 0.33733 0.01482 0.68122 0.0
C497 C 0.32606 0.01991 0.63702 0.0
H498 H 0.36193 0.05705 0.6615 0.0
H499 H 0.33645 0.0061 0.69837 0.0
O500 O 0.39916 0.06318 0.76132 0.0
O501 O 0.36513 0.05976 0.7331 0.0
O502 O 0.39216 0.0563 0.69511 0.0
O503 O 0.3698 0.02656 0.73927 0.0
H504 H 0.38361 0.08201 0.77269 0.0
H505 H 0.42446 0.07132 0.79919 0.0
H506 H 0.39162 0.10302 0.8131 0.0
H507 H 0.43187 0.09269 0.83913 0.0
H508 H 0.30868 0.01693 0.75179 0.0
H509 H 0.35011 0.07928 0.72814 0.0
H510 H 0.34042 0.02691 0.74595 0.0
H511 H 0.3181 0.06834 0.73437 0.0
H512 H 0.43437 0.13617 0.73131 0.0
H513 H 0.39638 0.11675 0.66224 0.0
H514 H 0.35593 0.01355 0.84988 0.0
H515 H 0.34098 0.05369 0.84471 0.0
H516 H 0.3973 0.05851 0.63913 0.0
H517 H 0.42315 0.07528 0.72116 0.0
H518 H 0.42646 0.07573 0.6153 0.0
H519 H 0.45176 0.09217 0.69595 0.0
H520 H 0.37803 0.02291 0.68557 0.0
H521 H 0.35524 0.99554 0.7648 0.0
H522 H 0.37301 0.99485 0.66437 0.0
H523 H 0.35052 0.96786 0.74208 0.0
H524 H 0.43408 0.02823 0.77854 0.0
H525 H 0.43254 0.02453 0.68577 0.0
H526 H 0.3406 0.04686 0.62154 0.0
H527 H 0.31494 0.99461 0.65857 0.0
Li528 Li 0.62874 0.66819 0.60953 0.0
Li529 Li 0.60221 0.64517 0.58534 0.0
Li530 Li 0.6269 0.67027 0.55812 0.0
Li531 Li 0.60662 0.67513 0.58755 0.0
C532 C 0.63803 0.64497 0.58956 0.0
N533 N 0.66016 0.63315 0.60892 0.0
C534 C 0.63103 0.62768 0.59951 0.0
C535 C 0.65631 0.65615 0.58903 0.0
C536 C 0.64243 0.62198 0.60931 0.0
C537 C 0.66727 0.64996 0.59903 0.0
C538 C 0.59038 0.64937 0.63886 0.0
C539 C 0.55976 0.63567 0.65258 0.0
N540 N 0.56344 0.62971 0.67713 0.0
C541 C 0.5939 0.64332 0.66441 0.0
C542 C 0.57321 0.64569 0.63304 0.0
C543 C 0.58009 0.63332 0.68341 0.0
C544 C 0.65499 0.6902 0.64877 0.0
N545 N 0.64406 0.6731 0.64126 0.0
C546 C 0.654 0.66309 0.68088 0.0
C547 C 0.64337 0.65962 0.65673 0.0
C548 C 0.66517 0.68061 0.68961 0.0
C549 C 0.66574 0.69428 0.67299 0.0
H550 H 0.65503 0.70066 0.63638 0.0
H551 H 0.63431 0.64615 0.65066 0.0
C552 C 0.57588 0.61347 0.56041 0.0
N553 N 0.585 0.62075 0.58502 0.0
C554 C 0.56302 0.59564 0.55959 0.0
C555 C 0.56945 0.59305 0.60926 0.0
C556 C 0.5822 0.6109 0.60909 0.0
C557 C 0.55961 0.58521 0.58431 0.0
H558 H 0.57858 0.62152 0.54141 0.0
H559 H 0.59004 0.61682 0.62805 0.0
C560 C 0.64601 0.70413 0.57473 0.0
N561 N 0.6726 0.73426 0.54934 0.0
C562 C 0.64237 0.71665 0.56296 0.0
C563 C 0.66324 0.70707 0.574 0.0
C564 C 0.65598 0.73177 0.55012 0.0
C565 C 0.67648 0.72234 0.56094 0.0
C566 C 0.58759 0.65976 0.53815 0.0
C567 C 0.59125 0.66944 0.5127 0.0
C568 C 0.57019 0.64998 0.5478 0.0
C569 C 0.57747 0.66951 0.49768 0.0
C570 C 0.55677 0.65038 0.53219 0.0
N571 N 0.56066 0.66008 0.50768 0.0
C572 C 0.64807 0.66672 0.51683 0.0
C573 C 0.64217 0.6898 0.50663 0.0
C574 C 0.65797 0.67029 0.49177 0.0
N575 N 0.64041 0.67642 0.52376 0.0
C576 C 0.65196 0.69382 0.48127 0.0
C577 C 0.65987 0.68387 0.47345 0.0
H578 H 0.64629 0.65602 0.53055 0.0
H579 H 0.63577 0.69717 0.51239 0.0
C580 C 0.59162 0.69055 0.62093 0.0
N581 N 0.59535 0.68868 0.59326 0.0
C582 C 0.5847 0.70139 0.6276 0.0
C583 C 0.58568 0.70839 0.57716 0.0
C584 C 0.59243 0.69723 0.57142 0.0
C585 C 0.5819 0.7107 0.60563 0.0
H586 H 0.59457 0.68407 0.638 0.0
H587 H 0.596 0.69599 0.54972 0.0
O588 O 0.62705 0.65082 0.58006 0.0
O589 O 0.60375 0.65914 0.61996 0.0
O590 O 0.63282 0.68917 0.58719 0.0
O591 O 0.60094 0.65957 0.55314 0.0
H592 H 0.61696 0.61876 0.5997 0.0
H593 H 0.66197 0.66946 0.58101 0.0
H594 H 0.63718 0.60866 0.61722 0.0
H595 H 0.68143 0.65851 0.5989 0.0
H596 H 0.5464 0.63268 0.64828 0.0
H597 H 0.60712 0.64621 0.66946 0.0
H598 H 0.57033 0.6507 0.61383 0.0
H599 H 0.58261 0.62844 0.70315 0.0
H600 H 0.65326 0.65213 0.69283 0.0
H601 H 0.67391 0.70796 0.67916 0.0
H602 H 0.55569 0.59014 0.53993 0.0
H603 H 0.56753 0.58541 0.6286 0.0
H604 H 0.62917 0.71468 0.56353 0.0
H605 H 0.66636 0.69769 0.58343 0.0
H606 H 0.65332 0.7415 0.54075 0.0
H607 H 0.68984 0.72473 0.56007 0.0
H608 H 0.60458 0.6769 0.50468 0.0
H609 H 0.56704 0.64201 0.56697 0.0
H610 H 0.58013 0.67706 0.47806 0.0
H611 H 0.54325 0.64291 0.53949 0.0
H612 H 0.66396 0.66238 0.48668 0.0
H613 H 0.65286 0.70422 0.46753 0.0
H614 H 0.58237 0.70313 0.6499 0.0
H615 H 0.58379 0.71542 0.55964 0.0
Li616 Li 0.94801 0.6055 0.93325 0.0
Li617 Li 0.95234 0.63273 0.95311 0.0
Li618 Li 0.9242 0.61154 0.93339 0.0
Li619 Li 0.94887 0.62802 0.90257 0.0
C620 C 0.9252 0.59282 0.98022 0.0
N621 N 0.9029 0.56103 0.00657 0.0
C622 C 0.92277 0.59204 0.00996 0.0
C623 C 0.91626 0.57743 0.96386 0.0
C624 C 0.91145 0.57584 0.02289 0.0
C625 C 0.90505 0.56149 0.97759 0.0
C626 C 0.98271 0.63118 0.94075 0.0
C627 C 0.01351 0.6397 0.94141 0.0
N628 N 0.01183 0.63425 0.96918 0.0
C629 C 0.98129 0.62566 0.96931 0.0
C630 C 0.99894 0.63825 0.92667 0.0
C631 C 0.99616 0.62733 0.9833 0.0
C632 C 0.95762 0.58202 0.9104 0.0
N633 N 0.95456 0.58784 0.9356 0.0
C634 C 0.9616 0.56886 0.96226 0.0
C635 C 0.95649 0.58161 0.96129 0.0
C636 C 0.96488 0.56256 0.93656 0.0
C637 C 0.96282 0.56933 0.91037 0.0
H638 H 0.95614 0.58737 0.89032 0.0
H639 H 0.95412 0.58655 0.98106 0.0
C640 C 0.95061 0.64913 0.00232 0.0
N641 N 0.96236 0.64974 0.98266 0.0
C642 C 0.95637 0.66068 0.02558 0.0
C643 C 0.98621 0.67348 0.00762 0.0
C644 C 0.97982 0.66188 0.98439 0.0
C645 C 0.97441 0.67279 0.02868 0.0
H646 H 0.93678 0.63944 9e-05 0.0
H647 H 0.98883 0.6624 0.96802 0.0
C648 C 0.92097 0.59872 0.87782 0.0
N649 N 0.89917 0.59163 0.83081 0.0
C650 C 0.91305 0.6089 0.87255 0.0
C651 C 0.9178 0.58493 0.85919 0.0
C652 C 0.90207 0.60511 0.84867 0.0
C653 C 0.90674 0.58156 0.83554 0.0
C654 C 0.94446 0.65516 0.92393 0.0
C655 C 0.93384 0.66288 0.92516 0.0
C656 C 0.96259 0.66576 0.91925 0.0
C657 C 0.94153 0.68109 0.92161 0.0
C658 C 0.96978 0.68393 0.91582 0.0
N659 N 0.95919 0.69115 0.91706 0.0
C660 C 0.89555 0.61236 0.95561 0.0
C661 C 0.88722 0.58609 0.9295 0.0
C662 C 0.87803 0.60662 0.96247 0.0
N663 N 0.89977 0.60212 0.9394 0.0
C664 C 0.86946 0.5798 0.93588 0.0
C665 C 0.8647 0.59015 0.95254 0.0
H666 H 0.90589 0.62493 0.96348 0.0
H667 H 0.891 0.57815 0.91685 0.0
C668 C 0.96909 0.63677 0.85303 0.0
N669 N 0.95631 0.63871 0.86612 0.0
C670 C 0.97529 0.64413 0.82601 0.0
C671 C 0.95511 0.65544 0.82655 0.0
C672 C 0.94921 0.64775 0.8535 0.0
C673 C 0.96831 0.65365 0.8124 0.0
H674 H 0.97433 0.62936 0.86355 0.0
H675 H 0.93894 0.64897 0.8643 0.0
O676 O 0.93617 0.60866 0.96737 0.0
O677 O 0.96835 0.62957 0.92636 0.0
O678 O 0.93188 0.60216 0.90092 0.0
O679 O 0.93703 0.63734 0.92755 0.0
H680 H 0.92958 0.60386 0.02289 0.0
H681 H 0.91795 0.57775 0.94082 0.0
H682 H 0.90945 0.57504 0.04589 0.0
H683 H 0.89806 0.54948 0.96519 0.0
H684 H 0.02615 0.64515 0.93076 0.0
H685 H 0.96889 0.62023 0.98065 0.0
H686 H 0.00025 0.64256 0.90455 0.0
H687 H 0.99525 0.62312 0.0054 0.0
H688 H 0.96282 0.56389 0.98293 0.0
H689 H 0.96549 0.56511 0.89005 0.0
H690 H 0.94692 0.65964 0.04161 0.0
H691 H 0.00022 0.68273 0.00936 0.0
H692 H 0.91528 0.61959 0.8867 0.0
H693 H 0.92385 0.57694 0.86297 0.0
H694 H 0.89586 0.61289 0.84434 0.0
H695 H 0.90417 0.57093 0.82093 0.0
H696 H 0.91979 0.65485 0.9288 0.0
H697 H 0.97105 0.66008 0.91822 0.0
H698 H 0.93346 0.68724 0.92249 0.0
H699 H 0.98378 0.69228 0.91217 0.0
H700 H 0.87499 0.61487 0.97584 0.0
H701 H 0.85958 0.56707 0.92769 0.0
H702 H 0.98519 0.64206 0.81568 0.0
H703 H 0.94945 0.66276 0.81698 0.0
Li704 Li 0.32294 0.95982 0.27929 0.0
Li705 Li 0.34668 0.95613 0.25766 0.0
Li706 Li 0.32399 0.95642 0.22837 0.0
Li707 Li 0.31692 0.93243 0.25925 0.0
C708 C 0.35461 0.99074 0.26561 0.0
N709 N 0.38046 0.0206 0.29273 0.0
C710 C 0.36054 0.98952 0.29295 0.0
C711 C 0.36184 0.00716 0.25209 0.0
C712 C 0.37362 0.00476 0.30629 0.0
C713 C 0.37489 0.0221 0.26616 0.0
C714 C 0.33186 0.93123 0.30756 0.0
C715 C 0.33857 0.90777 0.31217 0.0
N716 N 0.32916 0.90258 0.33703 0.0
C717 C 0.32235 0.92574 0.33324 0.0
C718 C 0.34011 0.92223 0.29697 0.0
C719 C 0.32111 0.9112 0.34778 0.0
C720 C 0.30309 0.95764 0.32669 0.0
N721 N 0.31584 0.96966 0.30917 0.0
C722 C 0.31707 0.99338 0.33631 0.0
C723 C 0.32247 0.98727 0.31295 0.0
C724 C 0.30448 0.98124 0.35551 0.0
C725 C 0.29717 0.96315 0.35013 0.0
H726 H 0.29769 0.94372 0.3226 0.0
H727 H 0.33205 0.9966 0.29808 0.0
C728 C 0.38017 0.9691 0.23402 0.0
N729 N 0.3709 0.96313 0.25884 0.0
C730 C 0.39814 0.97467 0.23346 0.0
C731 C 0.39662 0.96781 0.28408 0.0
C732 C 0.3787 0.96248 0.28367 0.0
C733 C 0.40661 0.97401 0.25872 0.0
H734 H 0.37358 0.96961 0.21468 0.0
H735 H 0.37102 0.95783 0.30318 0.0
C736 C 0.29261 0.95166 0.25022 0.0
N737 N 0.27114 0.96615 0.24309 0.0
C738 C 0.27429 0.94087 0.2505 0.0
C739 C 0.30002 0.96985 0.24634 0.0
C740 C 0.26365 0.94844 0.24685 0.0
C741 C 0.28894 0.97691 0.24277 0.0
C742 C 0.32575 0.92881 0.20302 0.0
C743 C 0.30751 0.92016 0.19883 0.0
C744 C 0.33639 0.92632 0.18341 0.0
C745 C 0.30021 0.90914 0.17503 0.0
C746 C 0.32859 0.91518 0.15988 0.0
N747 N 0.31081 0.9069 0.15621 0.0
C748 C 0.33439 0.97845 0.18098 0.0
C749 C 0.3044 0.95585 0.17886 0.0
C750 C 0.33287 0.98524 0.15476 0.0
N751 N 0.32027 0.96406 0.19244 0.0
C752 C 0.30232 0.96211 0.1524 0.0
C753 C 0.31669 0.97703 0.14013 0.0
H754 H 0.34686 0.98459 0.19223 0.0
H755 H 0.29336 0.94446 0.18855 0.0
C756 C 0.28893 0.90404 0.2847 0.0
N757 N 0.30242 0.90796 0.26631 0.0
C758 C 0.27826 0.88682 0.29422 0.0
C759 C 0.29517 0.8778 0.26485 0.0
C760 C 0.30571 0.89533 0.25614 0.0
C761 C 0.28143 0.8735 0.28449 0.0
H762 H 0.28678 0.91444 0.29255 0.0
H763 H 0.31676 0.89891 0.2419 0.0
O764 O 0.34193 0.97603 0.25185 0.0
O765 O 0.33277 0.94507 0.29247 0.0
O766 O 0.30308 0.9443 0.25384 0.0
O767 O 0.33332 0.93977 0.22603 0.0
H768 H 0.35508 0.977 0.30392 0.0
H769 H 0.35739 0.00835 0.23096 0.0
H770 H 0.37831 0.004 0.32744 0.0
H771 H 0.38058 0.03488 0.25594 0.0
H772 H 0.34477 0.9006 0.30411 0.0
H773 H 0.31594 0.93258 0.34181 0.0
H774 H 0.34735 0.92617 0.27694 0.0
H775 H 0.31371 0.90675 0.36761 0.0
H776 H 0.32281 0.00745 0.33956 0.0
H777 H 0.2875 0.95337 0.36451 0.0
H778 H 0.40535 0.97964 0.21354 0.0
H779 H 0.40252 0.96688 0.30397 0.0
H780 H 0.26836 0.92677 0.25351 0.0
H781 H 0.31415 0.97846 0.24605 0.0
H782 H 0.24945 0.94023 0.24701 0.0
H783 H 0.2945 0.99095 0.23974 0.0
H784 H 0.29903 0.92188 0.21373 0.0
H785 H 0.35054 0.93295 0.18635 0.0
H786 H 0.28611 0.90237 0.17153 0.0
H787 H 0.33667 0.91314 0.14453 0.0
H788 H 0.34434 0.99657 0.14576 0.0
H789 H 0.28962 0.95548 0.14178 0.0
H790 H 0.26762 0.88396 0.30906 0.0
H791 H 0.29799 0.86783 0.25699 0.0
Li792 Li 0.36147 0.31691 0.61272 0.0
Li793 Li 0.38675 0.34096 0.58757 0.0
Li794 Li 0.36151 0.31696 0.56216 0.0
Li795 Li 0.38193 0.31074 0.58655 0.0
C796 C 0.35259 0.34074 0.60393 0.0
N797 N 0.33424 0.35118 0.63956 0.0
C798 C 0.36147 0.35679 0.61857 0.0
C799 C 0.33436 0.33005 0.60724 0.0
C800 C 0.35196 0.36183 0.6365 0.0
C801 C 0.32533 0.33554 0.62542 0.0
C802 C 0.39464 0.32231 0.6416 0.0
C803 C 0.42031 0.32734 0.66853 0.0
N804 N 0.41 0.31294 0.68493 0.0
C805 C 0.3843 0.30764 0.65889 0.0
C806 C 0.41279 0.33232 0.64659 0.0
C807 C 0.39231 0.30308 0.6806 0.0
C808 C 0.33318 0.29566 0.65043 0.0
N809 N 0.34815 0.31149 0.64705 0.0
C810 C 0.34657 0.31949 0.69543 0.0
C811 C 0.35487 0.32341 0.66875 0.0
C812 C 0.33126 0.30311 0.69979 0.0
C813 C 0.32438 0.29122 0.67677 0.0
H814 H 0.32836 0.2863 0.63296 0.0
H815 H 0.36693 0.3358 0.66546 0.0
C816 C 0.40676 0.37445 0.56268 0.0
N817 N 0.40365 0.3653 0.58761 0.0
C818 C 0.41923 0.39239 0.56177 0.0
C819 C 0.42494 0.39113 0.61231 0.0
C820 C 0.41236 0.3732 0.61222 0.0
C821 C 0.42854 0.40096 0.58682 0.0
H822 H 0.39954 0.36777 0.54349 0.0
H823 H 0.40951 0.36556 0.63175 0.0
C824 C 0.3439 0.28352 0.57077 0.0
N825 N 0.31991 0.25752 0.53473 0.0
C826 C 0.34916 0.27392 0.55347 0.0
C827 C 0.32644 0.27987 0.5698 0.0
C828 C 0.33682 0.26082 0.5354 0.0
C829 C 0.31451 0.26669 0.5514 0.0
C830 C 0.40379 0.33349 0.54304 0.0
C831 C 0.40644 0.33231 0.51371 0.0
C832 C 0.41832 0.34174 0.5614 0.0
C833 C 0.42362 0.33931 0.50327 0.0
C834 C 0.43529 0.34861 0.55014 0.0
N835 N 0.43757 0.34726 0.52154 0.0
C836 C 0.3347 0.31601 0.52675 0.0
C837 C 0.35212 0.30526 0.50556 0.0
C838 C 0.32541 0.31339 0.50116 0.0
N839 N 0.34784 0.31208 0.52833 0.0
C840 C 0.3432 0.30244 0.47956 0.0
C841 C 0.32983 0.30678 0.47698 0.0
H842 H 0.33166 0.32152 0.54516 0.0
H843 H 0.36272 0.30236 0.50748 0.0
C844 C 0.38329 0.28212 0.60681 0.0
N845 N 0.39215 0.29592 0.58858 0.0
C846 C 0.38898 0.27007 0.61143 0.0
C847 C 0.41258 0.28614 0.57753 0.0
C848 C 0.40647 0.29803 0.57372 0.0
C849 C 0.40379 0.27193 0.59665 0.0
H850 H 0.37168 0.28045 0.6178 0.0
H851 H 0.4131 0.30871 0.55868 0.0
O852 O 0.36173 0.33543 0.58668 0.0
O853 O 0.38706 0.327 0.62017 0.0
O854 O 0.35588 0.29667 0.58812 0.0
O855 O 0.38706 0.32706 0.5534 0.0
H856 H 0.37555 0.36524 0.61624 0.0
H857 H 0.32729 0.3175 0.59633 0.0
H858 H 0.35867 0.37419 0.64804 0.0
H859 H 0.31125 0.32733 0.62838 0.0
H860 H 0.43434 0.33495 0.67255 0.0
H861 H 0.37027 0.29965 0.65537 0.0
H862 H 0.42103 0.34386 0.63376 0.0
H863 H 0.38445 0.29169 0.69398 0.0
H864 H 0.35216 0.32911 0.71256 0.0
H865 H 0.31271 0.27839 0.6794 0.0
H866 H 0.42141 0.3995 0.54176 0.0
H867 H 0.43192 0.39715 0.63202 0.0
H868 H 0.36265 0.27668 0.55368 0.0
H869 H 0.3222 0.28733 0.58272 0.0
H870 H 0.34072 0.25334 0.52181 0.0
H871 H 0.30099 0.26381 0.55028 0.0
H872 H 0.39535 0.32609 0.49915 0.0
H873 H 0.4165 0.34272 0.5841 0.0
H874 H 0.42587 0.33847 0.48062 0.0
H875 H 0.44664 0.355 0.56414 0.0
H876 H 0.31511 0.31679 0.50015 0.0
H877 H 0.34725 0.29759 0.46137 0.0
H878 H 0.38188 0.25948 0.62666 0.0
H879 H 0.42387 0.2879 0.56529 0.0
Li880 Li 0.04467 0.39589 0.92962 0.0
Li881 Li 0.04471 0.37044 0.94955 0.0
Li882 Li 0.07057 0.39388 0.92457 0.0
Li883 Li 0.04473 0.37371 0.89715 0.0
C884 C 0.06116 0.40736 0.9809 0.0
N885 N 0.0635 0.43168 0.02106 0.0
C886 C 0.05432 0.40186 0.00852 0.0
C887 C 0.06939 0.42525 0.97385 0.0
C888 C 0.05558 0.41435 0.02848 0.0
C889 C 0.07038 0.43733 0.99441 0.0
C890 C 0.01105 0.36738 0.93926 0.0
C891 C 0.9802 0.35869 0.93851 0.0
N892 N 0.98073 0.36143 0.96734 0.0
C893 C 0.01126 0.37007 0.96886 0.0
C894 C 0.99538 0.36161 0.92393 0.0
C895 C 0.99582 0.36701 0.98268 0.0
C896 C 0.03615 0.42058 0.90874 0.0
N897 N 0.03557 0.41166 0.93299 0.0
C898 C 0.02245 0.4257 0.95911 0.0
C899 C 0.02872 0.41385 0.95786 0.0
C900 C 0.02303 0.4352 0.93442 0.0
C901 C 0.02992 0.43246 0.90896 0.0
H902 H 0.0415 0.4185 0.88917 0.0
H903 H 0.0282 0.40653 0.97685 0.0
C904 C 0.05087 0.35667 -0.00116 0.0
N905 N 0.03814 0.3536 0.9793 0.0
C906 C 0.04732 0.34501 0.02156 0.0
C907 C 0.01774 0.32694 0.00312 0.0
C908 C 0.0219 0.33895 0.98065 0.0
C909 C 0.0305 0.33002 0.02411 0.0
H910 H 0.06372 0.36834 0.99691 0.0
H911 H 0.01215 0.33665 0.9644 0.0
C912 C 0.07278 0.4112 0.87823 0.0
N913 N 0.10236 0.43433 0.84736 0.0
C914 C 0.07868 0.40504 0.85554 0.0
C915 C 0.08179 0.42914 0.88503 0.0
C916 C 0.0937 0.41694 0.84024 0.0
C917 C 0.09675 0.44062 0.86922 0.0
C918 C 0.05563 0.35071 0.91827 0.0
C919 C 0.06871 0.34605 0.91979 0.0
C920 C 0.038 0.33759 0.91495 0.0
C921 C 0.06393 0.32828 0.91789 0.0
C922 C 0.03375 0.31998 0.91314 0.0
N923 N 0.0467 0.31573 0.91463 0.0
C924 C 0.10516 0.41821 0.94388 0.0
C925 C 0.10323 0.39915 0.90615 0.0
C926 C 0.12324 0.42466 0.94649 0.0
N927 N 0.09554 0.40547 0.9243 0.0
C928 C 0.12128 0.40527 0.90793 0.0
C929 C 0.13144 0.41782 0.9289 0.0
H930 H 0.0987 0.42274 0.95845 0.0
H931 H 0.09519 0.38883 0.89105 0.0
C932 C 0.02141 0.36032 0.85114 0.0
N933 N 0.03634 0.36152 0.86207 0.0
C934 C 0.01441 0.35142 0.8254 0.0
C935 C 0.03841 0.34526 0.82256 0.0
C936 C 0.04494 0.3543 0.84839 0.0
C937 C 0.02298 0.3438 0.81071 0.0
H938 H 0.01503 0.3664 0.86236 0.0
H939 H 0.05696 0.35571 0.85739 0.0
O940 O 0.06 0.39529 0.96105 0.0
O941 O 0.02606 0.37038 0.92526 0.0
O942 O 0.05833 0.39969 0.89386 0.0
O943 O 0.06014 0.36805 0.92036 0.0
H944 H 0.04809 0.3881 0.0145 0.0
H945 H 0.07478 0.42974 0.95263 0.0
H946 H 0.05027 0.41027 0.04988 0.0
H947 H 0.07659 0.4512 0.98915 0.0
H948 H 0.96799 0.35424 0.9269 0.0
H949 H 0.02323 0.37457 0.98104 0.0
H950 H 0.9949 0.35938 0.90103 0.0
H951 H 0.99584 0.36909 0.00558 0.0
H952 H 0.01705 0.42727 0.97908 0.0
H953 H 0.03074 0.43962 0.88951 0.0
H954 H 0.05745 0.34803 0.0375 0.0
H955 H 0.00466 0.31547 0.00421 0.0
H956 H 0.07187 0.3912 0.85002 0.0
H957 H 0.07728 0.43415 0.90231 0.0
H958 H 0.09849 0.41234 0.82276 0.0
H959 H 0.1039 0.45453 0.87432 0.0
H960 H 0.08242 0.35606 0.92244 0.0
H961 H 0.02769 0.34095 0.91378 0.0
H962 H 0.07392 0.32447 0.91902 0.0
H963 H 0.02016 0.3097 0.91056 0.0
H964 H 0.13049 0.43412 0.96326 0.0
H965 H 0.12709 0.39977 0.89373 0.0
H966 H 0.00242 0.3505 0.81711 0.0
H967 H 0.04557 0.33985 0.81167 0.0
Li968 Li 0.6517 0.04891 0.25207 0.0
Li969 Li 0.67461 0.04434 0.27369 0.0
Li970 Li 0.68077 0.07388 0.25619 0.0
Li971 Li 0.67644 0.05089 0.22205 0.0
C972 C 0.65277 0.05772 0.30719 0.0
N973 N 0.62694 0.05376 0.34551 0.0
C974 C 0.64736 0.04513 0.32904 0.0
C975 C 0.6452 0.06845 0.30501 0.0
C976 C 0.63426 0.0433 0.34817 0.0
C977 C 0.6321 0.06619 0.32453 0.0
C978 C 0.65285 0.01291 0.24098 0.0
C979 C 0.65934 0.99023 0.22691 0.0
N980 N 0.64313 0.97772 0.23626 0.0
C981 C 0.63617 -0.00019 0.25008 0.0
C982 C 0.66447 0.00807 0.229 0.0
C983 C 0.63154 0.9821 0.24767 0.0
C984 C 0.62068 0.04808 0.23321 0.0
N985 N 0.62719 0.04122 0.25264 0.0
C986 C 0.59867 0.02371 0.27355 0.0
C987 C 0.61659 0.02912 0.27241 0.0
C988 C 0.59158 0.03065 0.25387 0.0
C989 C 0.60279 0.04292 0.23339 0.0
H990 H 0.62939 0.05761 0.21761 0.0
H991 H 0.62207 0.02372 0.28741 0.0
C992 C 0.69545 0.04329 0.31761 0.0
N993 N 0.68022 0.03303 0.30307 0.0
C994 C 0.69994 0.03657 0.34125 0.0
C995 C 0.67313 0.00871 0.33415 0.0
C996 C 0.66917 0.01598 0.31063 0.0
C997 C 0.68852 0.01917 0.35014 0.0
H998 H 0.70383 0.0569 0.31133 0.0
H999 H 0.65698 0.00819 0.29916 0.0
C1000 C 0.66992 0.08187 0.20875 0.0
N1001 N 0.67941 0.11406 0.18394 0.0
C1002 C 0.68096 0.08759 0.18471 0.0
C1003 C 0.66355 0.09241 0.21999 0.0
C1004 C 0.68564 0.10393 0.17251 0.0
C1005 C 0.66855 0.10868 0.2072 0.0
C1006 C 0.71031 0.0618 0.24721 0.0
C1007 C 0.7261 0.07733 0.24143 0.0
C1008 C 0.71027 0.04585 0.2492 0.0
C1009 C 0.74151 0.07659 0.23716 0.0
C1010 C 0.72595 0.04565 0.24482 0.0
N1011 N 0.74112 0.06089 0.2389 0.0
C1012 C 0.69267 0.10442 0.28992 0.0
C1013 C 0.70745 0.10887 0.24539 0.0
C1014 C 0.7044 0.12174 0.29816 0.0
N1015 N 0.6946 0.09829 0.26416 0.0
C1016 C 0.71944 0.12628 0.2527 0.0
C1017 C 0.71829 0.13276 0.27975 0.0
H1018 H 0.68254 0.09562 0.30466 0.0
H1019 H 0.70884 0.10357 0.22523 0.0
C1020 C 0.66857 0.03304 0.17035 0.0
N1021 N 0.68227 0.04554 0.18579 0.0
C1022 C 0.67152 0.02772 0.14376 0.0
C1023 C 0.70266 0.04851 0.14912 0.0
C1024 C 0.69907 0.05348 0.17563 0.0
C1025 C 0.68878 0.03537 0.1329 0.0
H1026 H 0.65532 0.02715 0.17886 0.0
H1027 H 0.70969 0.06367 0.18799 0.0
O1028 O 0.66545 0.05957 0.28808 0.0
O1029 O 0.65752 0.03031 0.2431 0.0
O1030 O 0.66534 0.06599 0.22116 0.0
O1031 O 0.69512 0.06234 0.25148 0.0
H1032 H 0.65314 0.03678 0.33112 0.0
H1033 H 0.64928 0.0783 0.28828 0.0
H1034 H 0.62987 0.03355 0.3651 0.0
H1035 H 0.62603 0.0743 0.32297 0.0
H1036 H 0.66823 0.98633 0.21774 0.0
H1037 H 0.62691 0.00325 0.25906 0.0
H1038 H 0.67721 0.01793 0.22103 0.0
H1039 H 0.61872 0.97185 0.25482 0.0
H1040 H 0.59042 0.01404 0.28943 0.0
H1041 H 0.59784 0.04865 0.21796 0.0
H1042 H 0.71175 0.04519 0.35327 0.0
H1043 H 0.664 0.9952 0.34027 0.0
H1044 H 0.68596 0.07956 0.1757 0.0
H1045 H 0.65493 0.08813 0.23851 0.0
H1046 H 0.69425 0.10858 0.15399 0.0
H1047 H 0.66381 0.11703 0.21578 0.0
H1048 H 0.72646 0.08983 0.24012 0.0
H1049 H 0.69834 0.03379 0.25447 0.0
H1050 H 0.75379 0.0885 0.23249 0.0
H1051 H 0.72608 0.03338 0.24627 0.0
H1052 H 0.70319 0.12611 0.31938 0.0
H1053 H 0.72986 0.13439 0.23776 0.0
H1054 H 0.66037 0.01786 0.13169 0.0
H1055 H 0.71615 0.05475 0.14157 0.0
H1056 H 0.33655 0.36493 0.23928 0.0
H1057 H 0.33358 0.35127 0.2862 0.0
H1058 H 0.28528 0.30563 0.25886 0.0
H1059 H 0.28832 0.31905 0.2114 0.0
H1060 H 0.28473 0.32014 0.31571 0.0
H1061 H 0.34054 0.3079 0.30074 0.0
H1062 H 0.34577 0.32997 0.29191 0.0
H1063 H 0.32961 0.31178 0.27105 0.0
C1064 C 0.32538 0.35191 0.24308 0.0
C1065 C 0.31277 0.343 0.2215 0.0
C1066 C 0.32368 0.34416 0.26992 0.0
C1067 C 0.30936 0.32737 0.27572 0.0
C1068 C 0.29647 0.31858 0.25462 0.0
H1069 H 0.31933 0.28092 0.43604 0.0
H1070 H 0.31006 0.28187 0.38673 0.0
C1071 C 0.29819 0.32631 0.22764 0.0
C1072 C 0.30805 0.31921 0.30403 0.0
H1073 H 0.33111 0.30751 0.34914 0.0
C1074 C 0.29465 0.31706 0.32296 0.0
C1075 C 0.32082 0.31489 0.31312 0.0
C1076 C 0.33491 0.31607 0.29307 0.0
C1077 C 0.29443 0.31181 0.35153 0.0
C1078 C 0.30807 0.30889 0.36126 0.0
C1079 C 0.32073 0.30988 0.34171 0.0
C1080 C 0.3107 0.30673 0.39206 0.0
C1081 C 0.27985 0.30984 0.37116 0.0
C1082 C 0.31391 0.32028 0.41143 0.0
C1083 C 0.3193 0.31983 0.43946 0.0
C1084 C 0.32171 0.30588 0.44861 0.0
C1085 C 0.31777 0.29194 0.42951 0.0
C1086 C 0.31238 0.2924 0.40143 0.0
H1087 H 0.26769 0.30645 0.35885 0.0
H1088 H 0.27669 0.29951 0.38766 0.0
H1089 H 0.28409 0.32255 0.38227 0.0
H1090 H 0.31319 0.3317 0.40445 0.0
H1091 H 0.32252 0.33093 0.45343 0.0
H1092 H 0.95876 0.27986 0.5562 0.0
H1093 H 0.9654 0.27769 0.6068 0.0
H1094 H 0.00648 0.33226 0.60547 0.0
H1095 H -6e-05 0.33458 0.5554 0.0
H1096 H 0.01585 0.30963 0.63439 0.0
H1097 H 0.95131 0.30109 0.67052 0.0
H1098 H 0.95093 0.28555 0.64487 0.0
H1099 H 0.9595 0.30814 0.63457 0.0
C1100 C 0.96925 0.29135 0.56673 0.0
C1101 C 0.97881 0.3074 0.55183 0.0
C1102 C 0.97303 0.29007 0.59554 0.0
C1103 C 0.98633 0.30486 0.60983 0.0
C1104 C 0.99624 0.32067 0.59473 0.0
H1105 H 0.01046 0.35494 0.76673 0.0
H1106 H 0.0001 0.34122 0.71986 0.0
C1107 C 0.99251 0.32196 0.56606 0.0
C1108 C 0.98941 0.3046 0.64098 0.0
H1109 H 0.97243 0.30664 0.70587 0.0
C1110 C 0.00627 0.30858 0.65019 0.0
C1111 C 0.97683 0.30328 0.66135 0.0
C1112 C 0.95864 0.29938 0.65251 0.0
C1113 C 0.01127 0.31241 0.67908 0.0
C1114 C 0.99897 0.31201 0.69918 0.0
C1115 C 0.98177 0.30689 0.69029 0.0
C1116 C 0.00442 0.31937 0.72835 0.0
C1117 C 0.03001 0.3181 0.68751 0.0
C1118 C 0.01012 0.3115 0.74872 0.0
C1119 C 0.01605 0.31933 0.77566 0.0
C1120 C 0.01624 0.33507 0.7826 0.0
C1121 C 0.01023 0.3427 0.76222 0.0
C1122 C 0.00436 0.3349 0.7354 0.0
H1123 H 0.03847 0.31986 0.66858 0.0
H1124 H 0.03589 0.33069 0.69965 0.0
H1125 H 0.03009 0.30797 0.70172 0.0
H1126 H 0.01004 0.29938 0.74375 0.0
H1127 H 0.0204 0.31304 0.79109 0.0
H1128 H 0.68793 0.0026 0.86284 0.0
H1129 H 0.70094 0.01559 0.90937 0.0
H1130 H 0.66441 0.96696 0.95156 0.0
H1131 H 0.65122 0.95396 0.9053 0.0
H1132 H 0.68091 0.01927 0.95186 0.0
H1133 H 0.71095 0.98093 0.99277 0.0
H1134 H 0.70589 0.98134 0.95523 0.0
H1135 H 0.68884 0.96723 0.97996 0.0
C1136 C 0.68281 0.99462 0.88202 0.0
C1137 C 0.66845 0.9773 0.88045 0.0
C1138 C 0.69035 0.002 0.9085 0.0
C1139 C 0.68378 0.99215 0.93381 0.0
C1140 C 0.66997 0.97463 0.9322 0.0
H1141 H 0.67349 0.00205 0.1108 0.0
H1142 H 0.67603 0.99348 0.06195 0.0
C1143 C 0.6624 0.96724 0.90574 0.0
C1144 C 0.68954 0.00081 0.96209 0.0
H1145 H 0.7037 0.9964 0.0282 0.0
C1146 C 0.68627 0.01457 0.96842 0.0
C1147 C 0.69645 0.99455 0.98355 0.0
C1148 C 0.7009 0.98031 0.97749 0.0
C1149 C 0.68864 0.02151 0.99622 0.0
C1150 C 0.69486 0.01474 0.01806 0.0
C1151 C 0.69895 0.00156 0.01138 0.0
C1152 C 0.69531 0.01985 0.04843 0.0
C1153 C 0.68338 0.0352 0.00232 0.0
C1154 C 0.70572 0.03744 0.05722 0.0
C1155 C 0.70404 0.04246 0.085 0.0
C1156 C 0.69206 0.0299 0.10449 0.0
C1157 C 0.6825 0.01211 0.09608 0.0
C1158 C 0.68409 0.00715 0.06829 0.0
H1159 H 0.67557 0.03635 0.9845 0.0
H1160 H 0.67548 0.03197 0.02236 0.0
H1161 H 0.69541 0.04824 0.0052 0.0
H1162 H 0.71469 0.04738 0.0423 0.0
H1163 H 0.71159 0.05626 0.09078 0.0
H1164 H 0.6631 0.66157 0.22326 0.0
H1165 H 0.66661 0.67395 0.27116 0.0
H1166 H 0.72283 0.69498 0.26626 0.0
H1167 H 0.71938 0.68248 0.21792 0.0
H1168 H 0.70945 0.67704 0.31497 0.0
H1169 H 0.68431 0.723 0.3013 0.0
H1170 H 0.66884 0.70196 0.28652 0.0
H1171 H 0.69059 0.71437 0.27111 0.0
C1172 C 0.67628 0.66919 0.23201 0.0
C1173 C 0.69098 0.67113 0.21674 0.0
C1174 C 0.67828 0.67635 0.25939 0.0
C1175 C 0.69503 0.68577 0.27202 0.0
C1176 C 0.70981 0.68794 0.25674 0.0
H1177 H 0.68269 0.71541 0.44756 0.0
H1178 H 0.69645 0.7198 0.40004 0.0
C1179 C 0.70781 0.6807 0.22927 0.0
C1180 C 0.69653 0.69147 0.30231 0.0
H1181 H 0.6798 0.70938 0.34896 0.0
C1182 C 0.70341 0.68454 0.32238 0.0
C1183 C 0.68911 0.70165 0.31203 0.0
C1184 C 0.683 0.71083 0.2915 0.0
C1185 C 0.70142 0.68599 0.35195 0.0
C1186 C 0.69196 0.69422 0.36153 0.0
C1187 C 0.68673 0.70273 0.34159 0.0
C1188 C 0.68519 0.69195 0.39126 0.0
C1189 C 0.7088 0.67804 0.37258 0.0
C1190 C 0.67417 0.67488 0.40185 0.0
C1191 C 0.66628 0.67234 0.42872 0.0
C1192 C 0.6691 0.68684 0.44555 0.0
C1193 C 0.68021 0.70398 0.435 0.0
C1194 C 0.68815 0.70651 0.408 0.0
H1195 H 0.72083 0.67859 0.36363 0.0
H1196 H 0.71211 0.68491 0.39364 0.0
H1197 H 0.69889 0.66395 0.3761 0.0
H1198 H 0.67118 0.66344 0.38889 0.0
H1199 H 0.65747 0.65897 0.43588 0.0
H1200 H 0.00189 0.66929 0.79089 0.0
H1201 H 0.01115 0.67804 0.74139 0.0
H1202 H 0.95806 0.66436 0.7185 0.0
H1203 H 0.94844 0.65459 0.76768 0.0
H1204 H 0.97007 0.64929 0.68362 0.0
H1205 H 0.02085 0.71954 0.69243 0.0
H1206 H 0.02557 0.70646 0.71651 0.0
H1207 H 0.00581 0.70772 0.7214 0.0
C1208 C 0.99217 0.66819 0.77538 0.0
C1209 C 0.97438 0.66107 0.78322 0.0
C1210 C 0.99757 0.67352 0.74716 0.0
C1211 C 0.98537 0.67215 0.72632 0.0
C1212 C 0.96773 0.66569 0.73431 0.0
H1213 H 0.02107 0.70145 0.54751 0.0
H1214 H 0.00896 0.70121 0.59519 0.0
C1215 C 0.96228 0.6602 0.7625 0.0
C1216 C 0.99059 0.67533 0.69569 0.0
H1217 H 0.02284 0.70412 0.65041 0.0
C1218 C 0.98141 0.66142 0.67627 0.0
C1219 C 0.00521 0.69124 0.68594 0.0
C1220 C 0.01478 0.70714 0.70515 0.0
C1221 C 0.98706 0.6626 0.64782 0.0
C1222 C 0.00257 0.67791 0.63879 0.0
C1223 C 0.01114 0.69226 0.65761 0.0
C1224 C 0.01059 0.67873 0.6105 0.0
C1225 C 0.97654 0.64729 0.62784 0.0
C1226 C 0.01596 0.66651 0.60378 0.0
C1227 C 0.02282 0.66661 0.57674 0.0
C1228 C 0.02462 0.67906 0.55601 0.0
C1229 C 0.01987 0.69174 0.56314 0.0
C1230 C 0.01291 0.69158 0.59025 0.0
H1231 H 0.96257 0.63939 0.63487 0.0
H1232 H 0.97684 0.65186 0.60548 0.0
H1233 H 0.98225 0.63847 0.6279 0.0
H1234 H 0.01471 0.65679 0.61943 0.0
H1235 H 0.02671 0.65692 0.57203 0.0
H1236 H 0.32875 0.01121 0.12448 0.0
H1237 H 0.32939 0.02251 0.07614 0.0
H1238 H 0.30232 0.96933 0.0433 0.0
H1239 H 0.30149 0.95796 0.09159 0.0
H1240 H 0.34677 0.01782 0.0322 0.0
H1241 H 0.27676 0.99078 0.00197 0.0
H1242 H 0.2837 0.99137 0.03869 0.0
H1243 H 0.28134 0.97416 0.01482 0.0
C1244 C 0.32271 0.00194 0.10698 0.0
C1245 C 0.31514 0.98372 0.11171 0.0
C1246 C 0.323 0.00839 0.07946 0.0
C1247 C 0.31572 0.99676 0.0562 0.0
C1248 C 0.30761 0.97853 0.06104 0.0
H1249 H 0.3275 -1e-05 0.87443 0.0
H1250 H 0.31855 0.99258 0.92462 0.0
C1251 C 0.30721 0.97205 0.08862 0.0
C1252 C 0.31858 0.00372 0.02653 0.0
H1253 H 0.29774 0.00102 0.96317 0.0
C1254 C 0.33604 0.0144 0.01724 0.0
C1255 C 0.30455 0.99914 0.00706 0.0
C1256 C 0.28553 0.98837 0.0162 0.0
C1257 C 0.3399 0.02007 0.98868 0.0
C1258 C 0.3259 0.01512 0.96901 0.0
C1259 C 0.30841 0.00479 0.97839 0.0
C1260 C 0.32936 0.01965 0.93825 0.0
C1261 C 0.35896 0.03065 0.97948 0.0
C1262 C 0.33795 0.0373 0.92927 0.0
C1263 C 0.34324 0.04159 0.9007 0.0
C1264 C 0.33995 0.02827 0.88067 0.0
C1265 C 0.33051 0.01055 0.88949 0.0
C1266 C 0.32524 0.00628 0.91805 0.0
H1267 H 0.36805 0.0304 0.99587 0.0
H1268 H 0.36109 0.02557 0.9589 0.0
H1269 H 0.36249 0.04458 0.97611 0.0
H1270 H 0.34106 0.04778 0.94457 0.0
H1271 H 0.35054 0.05537 0.8946 0.0
H1272 H 0.14446 0.39534 0.92927 0.0
H1273 H 0.17374 0.40158 0.9437 0.0
H1274 H 0.18947 0.45623 0.95697 0.0
H1275 H 0.16001 0.45011 0.94227 0.0
H1276 H 0.20768 0.42537 0.92264 0.0
H1277 H 0.19809 0.44016 0.03556 0.0
H1278 H 0.18002 0.42979 0.01049 0.0
H1279 H 0.1956 0.45292 0.00759 0.0
C1280 C 0.15422 0.40879 0.93459 0.0
C1281 C 0.14988 0.42223 0.93463 0.0
C1282 C 0.17094 0.41231 0.94301 0.0
C1283 C 0.18367 0.4293 0.95174 0.0
C1284 C 0.1797 0.44296 0.95077 0.0
H1285 H 0.28372 0.44508 0.02653 0.0
H1286 H 0.26289 0.45314 0.00574 0.0
C1287 C 0.16289 0.43944 0.94236 0.0
C1288 C 0.20068 0.43217 0.96308 0.0
H1289 H 0.22305 0.43768 0.02589 0.0
C1290 C 0.21126 0.42844 0.94507 0.0
C1291 C 0.20529 0.43617 0.99239 0.0
C1292 C 0.19416 0.4399 0.0128 0.0
C1293 C 0.22578 0.42766 0.95594 0.0
C1294 C 0.22972 0.43062 0.98551 0.0
C1295 C 0.21991 0.43548 0.00319 0.0
C1296 C 0.24225 0.42618 -0.001 0.0
C1297 C 0.23632 0.42283 0.9361 0.0
C1298 C 0.23726 0.40842 0.0026 0.0
C1299 C 0.24893 0.40379 0.0147 0.0
C1300 C 0.26589 0.41685 0.02329 0.0
C1301 C 0.27072 0.43471 0.02028 0.0
C1302 C 0.25892 0.43935 0.00827 0.0
H1303 H 0.23414 0.42474 0.91317 0.0
H1304 H 0.25062 0.43084 0.94097 0.0
H1305 H 0.23228 0.40875 0.93933 0.0
H1306 H 0.22431 0.39811 0.99591 0.0
H1307 H 0.24463 0.38993 0.0173 0.0
H1308 H 0.86633 0.25107 0.34481 0.0
H1309 H 0.83647 0.22832 0.33217 0.0
H1310 H 0.81525 0.2554 0.38075 0.0
H1311 H 0.84532 0.27858 0.39318 0.0
H1312 H 0.80868 0.20748 0.37489 0.0
H1313 H 0.79151 0.24551 0.29809 0.0
H1314 H 0.81415 0.25205 0.3062 0.0
H1315 H 0.80093 0.25511 0.33242 0.0
C1316 C 0.85535 0.25237 0.35247 0.0
C1317 C 0.85817 0.2667 0.36978 0.0
C1318 C 0.83831 0.2393 0.34539 0.0
C1319 C 0.82374 0.24031 0.35537 0.0
C1320 C 0.8264 0.25454 0.37265 0.0
H1321 H 0.7153 0.15787 0.31074 0.0
H1322 H 0.73939 0.18498 0.33182 0.0
C1323 C 0.84353 0.26766 0.37987 0.0
C1324 C 0.80587 0.22597 0.34811 0.0
H1325 H 0.77162 0.21503 0.30197 0.0
C1326 C 0.80041 0.20916 0.35934 0.0
C1327 C 0.79515 0.22831 0.32794 0.0
C1328 C 0.80064 0.24617 0.31526 0.0
C1329 C 0.78485 0.19442 0.3499 0.0
C1330 C 0.77467 0.19657 0.32843 0.0
C1331 C 0.77956 0.21351 0.31838 0.0
C1332 C 0.76007 0.18113 0.31419 0.0
C1333 C 0.77969 0.17654 0.36221 0.0
C1334 C 0.76386 0.17038 0.29684 0.0
C1335 C 0.75026 0.15501 0.28487 0.0
C1336 C 0.73256 0.15011 0.28998 0.0
C1337 C 0.7288 0.16125 0.30664 0.0
C1338 C 0.7425 0.17673 0.31857 0.0
H1339 H 0.78618 0.17764 0.38322 0.0
H1340 H 0.76517 0.16852 0.36508 0.0
H1341 H 0.78379 0.16944 0.34713 0.0
H1342 H 0.77739 0.17369 0.29312 0.0
H1343 H 0.75363 0.14662 0.27254 0.0
H1344 H 0.61187 0.85184 0.70567 0.0
H1345 H 0.60411 0.82262 0.6882 0.0
H1346 H 0.55032 0.8103 0.67574 0.0
H1347 H 0.55817 0.83995 0.69225 0.0
H1348 H 0.57984 0.78979 0.70866 0.0
H1349 H 0.56386 0.79978 0.59693 0.0
H1350 H 0.57515 0.81778 0.62188 0.0
H1351 H 0.55182 0.80311 0.62517 0.0
C1352 C 0.59841 0.843 0.69899 0.0
C1353 C 0.58569 0.8483 0.69997 0.0
C1354 C 0.59396 0.82624 0.68922 0.0
C1355 C 0.57671 0.8144 0.68029 0.0
C1356 C 0.56379 0.81938 0.68207 0.0
H1357 H 0.55619 0.70725 0.64294 0.0
H1358 H 0.55102 0.73071 0.66033 0.0
C1359 C 0.56825 0.83623 0.6918 0.0
C1360 C 0.57262 0.79699 0.66887 0.0
H1361 H 0.56271 0.77292 0.60703 0.0
C1362 C 0.57585 0.78594 0.68656 0.0
C1363 C 0.56757 0.79216 0.63994 0.0
C1364 C 0.5645 0.80384 0.61972 0.0
C1365 C 0.57489 0.77053 0.67583 0.0
C1366 C 0.57012 0.76582 0.64677 0.0
C1367 C 0.56622 0.77652 0.62935 0.0
C1368 C 0.57104 0.75097 0.63338 0.0
C1369 C 0.58001 0.76002 0.69529 0.0
C1370 C 0.5833 0.7544 0.61138 0.0
C1371 C 0.58613 0.74103 0.60123 0.0
C1372 C 0.57678 0.72399 0.61298 0.0
C1373 C 0.56376 0.72033 0.63382 0.0
C1374 C 0.56083 0.7337 0.6438 0.0
H1375 H 0.58682 0.76742 0.71503 0.0
H1376 H 0.56797 0.74773 0.70194 0.0
H1377 H 0.58883 0.75629 0.68394 0.0
H1378 H 0.5913 0.76764 0.60302 0.0
H1379 H 0.59635 0.74428 0.58533 0.0
H1380 H 0.70622 0.55649 0.0142 0.0
H1381 H 0.72813 0.54899 -0.00289 0.0
H1382 H 0.76505 0.58388 0.06051 0.0
H1383 H 0.74307 0.59096 0.07808 0.0
H1384 H 0.75737 0.57153 0.97246 0.0
H1385 H 0.77513 0.54435 0.06498 0.0
H1386 H 0.75552 0.54624 0.06479 0.0
H1387 H 0.77652 0.56475 0.07497 0.0
C1388 C 0.71887 0.56215 0.02494 0.0
C1389 C 0.72299 0.57429 0.04744 0.0
C1390 C 0.73135 0.55786 0.01521 0.0
C1391 C 0.74819 0.5657 0.02771 0.0
C1392 C 0.75201 0.57722 0.05105 0.0
H1393 H 0.84793 0.60931 0.95291 0.0
H1394 H 0.818 0.5999 0.96872 0.0
C1395 C 0.73946 0.58135 0.06101 0.0
C1396 C 0.76254 0.564 0.01389 0.0
H1397 H 0.7983 0.55965 0.02905 0.0
C1398 C 0.76606 0.56851 0.98472 0.0
C1399 C 0.77375 0.55974 0.02959 0.0
C1400 C 0.76989 0.55331 0.06023 0.0
C1401 C 0.78118 0.57016 0.97146 0.0
C1402 C 0.79332 0.56771 0.988 0.0
C1403 C 0.78914 0.56186 0.01652 0.0
C1404 C 0.81113 0.57287 0.97704 0.0
C1405 C 0.7842 0.57498 0.94002 0.0
C1406 C 0.81737 0.5609 0.97704 0.0
C1407 C 0.83466 0.56635 0.96841 0.0
C1408 C 0.84601 0.5839 0.9599 0.0
C1409 C 0.83959 0.59575 0.9596 0.0
C1410 C 0.82239 0.59032 0.96827 0.0
H1411 H 0.7715 0.57014 0.92848 0.0
H1412 H 0.79174 0.58955 0.93787 0.0
H1413 H 0.79177 0.56947 0.92947 0.0
H1414 H 0.80893 0.54741 0.98403 0.0
H1415 H 0.83929 0.55697 0.96919 0.0
H1416 H 0.16024 0.73255 0.40555 0.0
H1417 H 0.1897 0.75596 0.39108 0.0
H1418 H 0.16999 0.75685 0.30662 0.0
H1419 H 0.1406 0.73337 0.32072 0.0
H1420 H 0.21115 0.76007 0.3256 0.0
H1421 H 0.18897 0.80666 0.3616 0.0
H1422 H 0.18129 0.78566 0.37911 0.0
H1423 H 0.17359 0.78644 0.34378 0.0
C1424 C 0.16231 0.73741 0.38368 0.0
C1425 C 0.14811 0.73132 0.36435 0.0
C1426 C 0.1791 0.75074 0.37548 0.0
C1427 C 0.18189 0.75801 0.34784 0.0
C1428 C 0.16801 0.75127 0.32801 0.0
H1429 H 0.26476 0.84327 0.25273 0.0
H1430 H 0.24254 0.81395 0.26972 0.0
C1431 C 0.15124 0.73802 0.33618 0.0
C1432 C 0.19848 0.77418 0.34083 0.0
H1433 H 0.21666 0.81881 0.3395 0.0
C1434 C 0.21251 0.77296 0.32878 0.0
C1435 C 0.20007 0.79085 0.34519 0.0
C1436 C 0.18525 0.79266 0.35818 0.0
C1437 C 0.22817 0.78819 0.32057 0.0
C1438 C 0.22956 0.80489 0.32424 0.0
C1439 C 0.21558 0.806 0.33679 0.0
C1440 C 0.24506 0.8215 0.31452 0.0
C1441 C 0.24307 0.78632 0.30824 0.0
C1442 C 0.25393 0.83539 0.33408 0.0
C1443 C 0.2664 0.85212 0.32439 0.0
C1444 C 0.27023 0.85525 0.29495 0.0
C1445 C 0.26211 0.84113 0.27555 0.0
C1446 C 0.2495 0.82438 0.28525 0.0
H1447 H 0.24197 0.77355 0.31439 0.0
H1448 H 0.24264 0.78681 0.28445 0.0
H1449 H 0.25605 0.79722 0.31552 0.0
H1450 H 0.25068 0.83344 0.35673 0.0
H1451 H 0.27266 0.86276 0.33981 0.0
H1452 H 0.43159 0.14181 0.64355 0.0
H1453 H 0.43846 0.17021 0.62247 0.0
H1454 H 0.42117 0.18353 0.70063 0.0
H1455 H 0.41536 0.15566 0.72209 0.0
H1456 H 0.416 0.17896 0.6095 0.0
H1457 H 0.46183 0.23029 0.68363 0.0
H1458 H 0.45746 0.20788 0.68582 0.0
H1459 H 0.44328 0.21434 0.70378 0.0
C1460 C 0.42986 0.15114 0.65641 0.0
C1461 C 0.42311 0.14676 0.6844 0.0
C1462 C 0.43372 0.16731 0.64441 0.0
C1463 C 0.43058 0.1792 0.66003 0.0
C1464 C 0.42432 0.17496 0.68841 0.0
H1465 H 0.38335 0.23631 0.60354 0.0
H1466 H 0.39284 0.2153 0.61523 0.0
C1467 C 0.42085 0.15897 0.70062 0.0
C1468 C 0.43132 0.19467 0.64553 0.0
H1469 H 0.44196 0.23736 0.65691 0.0
C1470 C 0.42208 0.19185 0.61958 0.0
C1471 C 0.43956 0.21167 0.65809 0.0
C1472 C 0.45125 0.21623 0.68418 0.0
C1473 C 0.41973 0.20508 0.6071 0.0
C1474 C 0.42619 0.22138 0.62151 0.0
C1475 C 0.43663 0.22472 0.64618 0.0
C1476 C 0.42077 0.2343 0.61306 0.0
C1477 C 0.41001 0.20128 0.57888 0.0
C1478 C 0.43329 0.25214 0.60876 0.0
C1479 C 0.42785 0.26437 0.60281 0.0
C1480 C 0.40979 0.25895 0.60118 0.0
C1481 C 0.39735 0.24101 0.60503 0.0
C1482 C 0.40277 0.22889 0.61124 0.0
H1483 H 0.41225 0.19201 0.56568 0.0
H1484 H 0.39564 0.19491 0.5831 0.0
H1485 H 0.41418 0.21351 0.56628 0.0
H1486 H 0.44725 0.25664 0.61036 0.0
H1487 H 0.43777 0.27812 0.60029 0.0
H1488 H 0.29611 0.28738 0.71321 0.0
H1489 H 0.28293 0.28135 0.76142 0.0
H1490 H 0.33456 0.30212 0.79907 0.0
H1491 H 0.34773 0.30786 0.75124 0.0
H1492 H 0.30605 0.26969 0.82559 0.0
H1493 H 0.29079 0.32403 0.81244 0.0
H1494 H 0.28281 0.30686 0.7858 0.0
H1495 H 0.30603 0.32196 0.78891 0.0
C1496 C 0.30458 0.29041 0.7318 0.0
C1497 C 0.32296 0.29834 0.72855 0.0
C1498 C 0.29705 0.287 0.75924 0.0
C1499 C 0.30782 0.29142 0.78368 0.0
C1500 C 0.32605 0.29862 0.78041 0.0
H1501 H 0.32679 0.31684 0.95432 0.0
H1502 H 0.32219 0.30227 0.908 0.0
C1503 C 0.33357 0.30207 0.75312 0.0
C1504 C 0.30063 0.29015 0.81281 0.0
H1505 H 0.28887 0.31285 0.85854 0.0
C1506 C 0.30189 0.27882 0.83278 0.0
C1507 C 0.29505 0.30196 0.82196 0.0
C1508 C 0.29361 0.31448 0.80131 0.0
C1509 C 0.29872 0.27976 0.8621 0.0
C1510 C 0.29464 0.29265 0.8716 0.0
C1511 C 0.29205 0.303 0.85127 0.0
C1512 C 0.29563 0.29762 0.90225 0.0
C1513 C 0.30032 0.26732 0.88265 0.0
C1514 C 0.28219 0.29972 0.91469 0.0
C1515 C 0.28492 0.30831 0.94106 0.0
C1516 C 0.30114 0.31491 0.95542 0.0
C1517 C 0.31409 0.31169 0.94392 0.0
C1518 C 0.31141 0.30325 0.91746 0.0
H1519 H 0.29631 0.25447 0.87213 0.0
H1520 H 0.31431 0.27306 0.88926 0.0
H1521 H 0.29213 0.26495 0.90216 0.0
H1522 H 0.26995 0.29556 0.90326 0.0
H1523 H 0.27466 0.31049 0.94962 0.0
H1524 H 0.99761 0.28633 0.2912 0.0
H1525 H 0.00694 0.28026 0.24483 0.0
H1526 H 0.00836 0.32625 0.20856 0.0
H1527 H 0.99851 0.33205 0.25391 0.0
H1528 H 0.98849 0.27644 0.18793 0.0
H1529 H 0.05784 0.33063 0.19071 0.0
H1530 H 0.04484 0.32123 0.22284 0.0
H1531 H 0.04257 0.33742 0.20237 0.0
C1532 C -0.00013 0.29511 0.2733 0.0
C1533 C 0.9975 0.30981 0.27641 0.0
C1534 C 0.00527 0.29166 0.24695 0.0
C1535 C 0.00858 0.30299 0.22358 0.0
C1536 C 0.00621 0.31758 0.22661 0.0
H1537 H 0.00068 0.31706 0.05639 0.0
H1538 H 0.99575 0.30378 0.10378 0.0
C1539 C 0.00068 0.32093 0.25266 0.0
C1540 C 0.01378 0.29958 0.19524 0.0
H1541 H 0.04452 0.32174 0.14364 0.0
C1542 C 0.00096 0.28596 0.17832 0.0
C1543 C 0.03017 0.31175 0.18301 0.0
C1544 C 0.04473 0.32599 0.20076 0.0
C1545 C 0.00341 0.28543 0.14862 0.0
C1546 C 0.0189 0.29905 0.13576 0.0
C1547 C 0.03252 0.3114 0.15333 0.0
C1548 C 0.02003 0.30286 0.10457 0.0
C1549 C 0.98901 0.27087 0.13115 0.0
C1550 C 0.03523 0.30662 0.08895 0.0
C1551 C 0.03817 0.31445 0.06183 0.0
C1552 C 0.02597 0.31867 0.04995 0.0
C1553 C 0.01021 0.31376 0.06476 0.0
C1554 C 0.00732 0.30603 0.09188 0.0
H1555 H 0.98243 0.25839 0.14366 0.0
H1556 H 0.97884 0.27446 0.1259 0.0
H1557 H 0.99417 0.26854 0.11083 0.0
H1558 H 0.04525 0.30438 0.0984 0.0
H1559 H 0.05034 0.3179 0.0507 0.0
H1560 H 0.67058 0.00538 0.59946 0.0
H1561 H 0.683 0.01156 0.5512 0.0
H1562 H 0.70302 0.976 0.56457 0.0
H1563 H 0.68973 0.96896 0.61245 0.0
H1564 H 0.71554 0.02371 0.52675 0.0
H1565 H 0.66988 0.95351 0.49726 0.0
H1566 H 0.66817 0.96256 0.53106 0.0
H1567 H 0.6855 0.95756 0.52538 0.0
C1568 C 0.67766 0.9989 0.5922 0.0
C1569 C 0.6788 0.98637 0.60954 0.0
C1570 C 0.68493 0.00259 0.56472 0.0
C1571 C 0.6936 0.99394 0.5541 0.0
C1572 C 0.69605 0.98253 0.57216 0.0
H1573 H 0.71975 0.02347 0.37127 0.0
H1574 H 0.72508 0.01584 0.41958 0.0
C1575 C 0.6886 0.97867 0.59964 0.0
C1576 C 0.69825 0.9957 0.52325 0.0
H1577 H 0.68411 0.97333 0.45992 0.0
C1578 C 0.70903 0.01267 0.51206 0.0
C1579 C 0.68968 0.9812 0.50426 0.0
C1580 C 0.67757 0.96268 0.51493 0.0
C1581 C 0.71031 0.01578 0.48236 0.0
C1582 C 0.70085 0.00141 0.46346 0.0
C1583 C 0.69133 0.98426 0.47457 0.0
C1584 C 0.69788 0.00419 0.43311 0.0
C1585 C 0.72054 0.03453 0.47161 0.0
C1586 C 0.68074 -0.0005 0.42445 0.0
C1587 C 0.67765 0.0037 0.39703 0.0
C1588 C 0.69167 0.0127 0.37767 0.0
C1589 C 0.70874 0.01671 0.38591 0.0
C1590 C 0.71182 0.0124 0.41344 0.0
H1591 H 0.72522 0.04428 0.48942 0.0
H1592 H 0.73223 0.03639 0.45938 0.0
H1593 H 0.71228 0.03738 0.45694 0.0
H1594 H 0.66981 0.99321 0.43936 0.0
H1595 H 0.6644 0.00065 0.39154 0.0
H1596 H 0.69876 0.70767 0.70119 0.0
H1597 H 0.71453 0.71424 0.74723 0.0
H1598 H 0.67007 0.66894 0.78527 0.0
H1599 H 0.65413 0.66258 0.74008 0.0
H1600 H 0.70234 0.72005 0.80259 0.0
H1601 H 0.71343 0.66322 0.80444 0.0
H1602 H 0.70908 0.67148 0.77168 0.0
H1603 H 0.69119 0.65684 0.79474 0.0
C1604 C 0.69235 0.69914 0.71941 0.0
C1605 C 0.67524 0.68448 0.71686 0.0
C1606 C 0.70142 0.70287 0.74557 0.0
C1607 C 0.69355 0.69188 0.76936 0.0
C1608 C 0.67651 0.67733 0.7669 0.0
H1609 H 0.67871 0.68741 0.94089 0.0
H1610 H 0.685 0.69779 0.89149 0.0
C1611 C 0.66744 0.67367 0.74097 0.0
C1612 C 0.70248 0.69567 0.79748 0.0
H1613 H 0.71101 0.67443 0.85079 0.0
C1614 C 0.70477 0.71039 0.81302 0.0
C1615 C 0.70609 0.68331 0.81074 0.0
C1616 C 0.70501 0.66792 0.79442 0.0
C1617 C 0.70877 0.71204 0.84246 0.0
C1618 C 0.71013 0.69844 0.85654 0.0
C1619 C 0.70974 0.68477 0.8402 0.0
C1620 C 0.70894 0.69634 0.88819 0.0
C1621 C 0.71072 0.72791 0.85835 0.0
C1622 C 0.72037 0.69221 0.90305 0.0
C1623 C 0.7165 0.68579 0.93116 0.0
C1624 C 0.70113 0.68338 0.94488 0.0
C1625 C 0.6905 0.68885 0.93074 0.0
C1626 C 0.69428 0.69511 0.90261 0.0
H1627 H 0.71679 0.73975 0.8443 0.0
H1628 H 0.69747 0.72551 0.86466 0.0
H1629 H 0.7189 0.7307 0.87797 0.0
H1630 H 0.73168 0.69293 0.89229 0.0
H1631 H 0.72492 0.68159 0.94133 0.0
H1632 H 0.99481 0.66843 0.27475 0.0
H1633 H 0.98691 0.67418 0.22747 0.0
H1634 H 0.01732 0.7302 0.2432 0.0
H1635 H 0.02588 0.72443 0.29046 0.0
H1636 H 0.97062 0.69038 0.20625 0.0
H1637 H 0.0411 0.72635 0.17241 0.0
H1638 H 0.03422 0.71487 0.20622 0.0
H1639 H 0.03525 0.73576 0.20168 0.0
C1640 C -0.00046 0.68197 0.26838 0.0
C1641 C 0.01106 0.69599 0.28609 0.0
C1642 C 0.99504 0.68526 0.24133 0.0
C1643 C 0.00182 0.70264 0.23153 0.0
C1644 C 0.01234 0.71671 0.24999 0.0
H1645 H 0.96311 0.69367 0.05379 0.0
H1646 H 0.97093 0.70702 0.1018 0.0
C1647 C 0.01712 0.7134 0.27699 0.0
C1648 C 0.99877 0.70553 0.20119 0.0
H1649 H 0.01991 0.71874 0.13665 0.0
C1650 C 0.98136 0.69685 0.191 0.0
C1651 C 0.01287 0.71406 0.18142 0.0
C1652 C 0.03192 0.7232 0.19082 0.0
C1653 C 0.97766 0.69497 0.16149 0.0
C1654 C 0.99181 0.70269 0.14165 0.0
C1655 C 0.00913 0.71281 0.15193 0.0
C1656 C 0.98928 0.69784 0.1108 0.0
C1657 C 0.95877 0.68344 0.15201 0.0
C1658 C 0.99791 0.68937 0.09918 0.0
C1659 C 0.99384 0.68222 0.07165 0.0
C1660 C 0.98091 0.68322 0.05534 0.0
C1661 C 0.973 0.69259 0.0662 0.0
C1662 C 0.97736 0.70009 0.09362 0.0
H1663 H 0.94996 0.67593 0.17016 0.0
H1664 H 0.95383 0.69181 0.14264 0.0
H1665 H 0.95777 0.67389 0.13539 0.0
H1666 H 0.00717 0.68748 0.112 0.0
H1667 H 3e-05 0.67496 0.06382 0.0
H1668 H 0.27188 0.96989 0.37924 0.0
H1669 H 0.26548 0.97738 0.42685 0.0
H1670 H 0.32114 0.01265 0.44033 0.0
H1671 H 0.32744 0.00566 0.39285 0.0
H1672 H 0.27431 0.97044 0.47561 0.0
H1673 H 0.30301 0.04217 0.47289 0.0
H1674 H 0.29906 0.02948 0.44039 0.0
H1675 H 0.31945 0.03743 0.46002 0.0
C1676 C 0.28266 0.97954 0.39222 0.0
C1677 C 0.30014 0.98729 0.38235 0.0
C1678 C 0.279 0.98383 0.41934 0.0
C1679 C 0.29278 0.99586 0.43702 0.0
C1680 C 0.31019 0.00387 0.42678 0.0
H1681 H 0.32044 0.99265 0.60269 0.0
H1682 H 0.30609 0.98529 0.55595 0.0
C1683 C 0.31381 -0.00023 0.39964 0.0
C1684 C 0.28956 0.99842 0.46745 0.0
H1685 H 0.30576 0.02995 0.51941 0.0
C1686 C 0.28073 0.98349 0.48512 0.0
C1687 C 0.29728 0.01537 0.47999 0.0
C1688 C 0.30501 0.03197 0.46216 0.0
C1689 C 0.28121 0.98506 0.51513 0.0
C1690 C 0.29135 0.00193 0.5277 0.0
C1691 C 0.29839 0.01692 0.50997 0.0
C1692 C 0.29707 0.00427 0.55819 0.0
C1693 C 0.27134 0.96855 0.53293 0.0
C1694 C 0.297 0.01751 0.57515 0.0
C1695 C 0.3057 0.02207 0.60162 0.0
C1696 C 0.31439 0.0133 0.61169 0.0
C1697 C 0.31358 -0.00061 0.59558 0.0
C1698 C 0.30521 0.99508 0.56892 0.0
H1699 H 0.25876 0.95906 0.52227 0.0
H1700 H 0.27936 0.962 0.53483 0.0
H1701 H 0.26834 0.97142 0.55479 0.0
H1702 H 0.2909 0.02485 0.56734 0.0
H1703 H 0.30617 0.03285 0.61377 0.0
H1704 H 0.4318 0.44141 0.03408 0.0
H1705 H 0.46309 0.46386 0.03416 0.0
H1706 H 0.45359 0.49209 0.10113 0.0
H1707 H 0.42223 0.46994 0.10086 0.0
H1708 H 0.47845 0.50156 0.02522 0.0
H1709 H 0.49412 0.48485 0.13241 0.0
H1710 H 0.47455 0.46991 0.11255 0.0
H1711 H 0.47554 0.4883 0.13129 0.0
C1712 C 0.43631 0.45247 0.04866 0.0
C1713 C 0.4245 0.45384 0.06754 0.0
C1714 C 0.45421 0.46522 0.04877 0.0
C1715 C 0.46064 0.47947 0.0679 0.0
C1716 C 0.44891 0.481 0.08658 0.0
H1717 H 0.56446 0.56799 0.10486 0.0
H1718 H 0.53293 0.54628 0.10387 0.0
C1719 C 0.43101 0.4683 0.08643 0.0
C1720 C 0.47959 0.49289 0.06803 0.0
H1721 H 0.51667 0.51024 0.10948 0.0
C1722 C 0.48686 0.50345 0.04357 0.0
C1723 C 0.49043 0.49531 0.09207 0.0
C1724 C 0.48336 0.48393 0.11853 0.0
C1725 C 0.50469 0.51663 0.04268 0.0
C1726 C 0.51558 0.51899 0.06668 0.0
C1727 C 0.50828 0.50841 0.09114 0.0
C1728 C 0.53463 0.53228 0.06682 0.0
C1729 C 0.51159 0.52815 0.01633 0.0
C1730 C 0.54605 0.53147 0.04652 0.0
C1731 C 0.56405 0.54385 0.04702 0.0
C1732 C 0.57099 0.55715 0.06805 0.0
C1733 C 0.55953 0.55782 0.08854 0.0
C1734 C 0.54152 0.54548 0.08793 0.0
H1735 H 0.50075 0.528 0.00366 0.0
H1736 H 0.52119 0.54199 0.02222 0.0
H1737 H 0.51838 0.52315 0.00232 0.0
H1738 H 0.54108 0.52112 0.0305 0.0
H1739 H 0.57259 0.5428 0.03128 0.0
H1740 H 0.0417 0.57432 0.43856 0.0
H1741 H 0.03209 0.54286 0.4387 0.0
H1742 H 0.00053 0.5354 0.36327 0.0
H1743 H 0.00984 0.5668 0.36317 0.0
H1744 H 0.9966 0.51398 0.44163 0.0
H1745 H 0.03099 0.51302 0.34183 0.0
H1746 H 0.03666 0.53313 0.36088 0.0
H1747 H 0.01739 0.52294 0.33847 0.0
C1748 C 0.03263 0.56598 0.42209 0.0
C1749 C 0.02656 0.57308 0.40081 0.0
C1750 C 0.02724 0.54804 0.42213 0.0
C1751 C 0.01579 0.5369 0.4008 0.0
C1752 C 0.00964 0.54387 0.37959 0.0
H1753 H 0.96916 0.42518 0.3651 0.0
H1754 H 0.97798 0.45646 0.36473 0.0
C1755 C 0.015 0.56182 0.37955 0.0
C1756 C 0.00998 0.51788 0.40119 0.0
H1757 H 0.01171 0.48544 0.36325 0.0
C1758 C -7e-05 0.50771 0.42457 0.0
C1759 C 0.01432 0.50981 0.37881 0.0
C1760 C 0.02555 0.52027 0.35365 0.0
C1761 C 0.99387 0.48957 0.426 0.0
C1762 C 0.99832 0.48151 0.40372 0.0
C1763 C 0.00833 0.49168 0.38029 0.0
C1764 C 0.99281 0.46254 0.40435 0.0
C1765 C 0.98246 0.47913 0.45103 0.0
C1766 C 0.99839 0.45565 0.4266 0.0
C1767 C 0.99338 0.4378 0.42687 0.0
C1768 C 0.98286 0.42655 0.40471 0.0
C1769 C 0.97741 0.43354 0.38233 0.0
C1770 C 0.98237 0.45138 0.38214 0.0
H1771 H 0.97637 0.48611 0.4618 0.0
H1772 H 0.97182 0.46595 0.44401 0.0
H1773 H 0.99071 0.4772 0.4671 0.0
H1774 H 0.0068 0.46414 0.44358 0.0
H1775 H 0.99803 0.43287 0.44413 0.0
H1776 H 0.56008 0.99028 0.7717 0.0
H1777 H 0.53815 -0.00016 0.77169 0.0
H1778 H 0.51081 0.96439 0.7016 0.0
H1779 H 0.53243 0.95444 0.7019 0.0
H1780 H 0.52958 0.01523 0.72504 0.0
H1781 H 0.47173 0.95259 0.76164 0.0
H1782 H 0.49412 0.95711 0.76571 0.0
H1783 H 0.48334 0.95053 0.73143 0.0
C1784 C 0.54926 0.98434 0.75655 0.0
C1785 C 0.54794 0.97154 0.73688 0.0
C1786 C 0.53682 0.98989 0.75646 0.0
C1787 C 0.52277 0.98266 0.73689 0.0
C1788 C 0.52142 0.96993 0.71717 0.0
H1789 H 0.43522 -0.00059 0.70002 0.0
H1790 H 0.45689 0.98956 0.70084 0.0
C1791 C 0.53388 0.9644 0.71718 0.0
C1792 C 0.5098 0.98881 0.73655 0.0
H1793 H 0.46619 0.97517 0.74618 0.0
C1794 C 0.51573 0.00652 0.72979 0.0
C1795 C 0.49176 0.97736 0.74267 0.0
C1796 C 0.48482 0.95837 0.75102 0.0
C1797 C 0.504 0.01304 0.72846 0.0
C1798 C 0.48595 0.0016 0.73465 0.0
C1799 C 0.48003 0.98389 0.74144 0.0
C1800 C 0.47296 0.00774 0.73414 0.0
C1801 C 0.51097 0.03199 0.71978 0.0
C1802 C 0.47471 0.0211 0.75283 0.0
C1803 C 0.46245 0.02687 0.75224 0.0
C1804 C 0.4481 0.0193 0.73309 0.0
C1805 C 0.44627 0.00574 0.71468 0.0
C1806 C 0.45856 -1e-05 0.71526 0.0
H1807 H 0.52384 0.03753 0.7085 0.0
H1808 H 0.5015 0.03328 0.70556 0.0
H1809 H 0.51296 0.04005 0.7393 0.0
H1810 H 0.48555 0.02702 0.76794 0.0
H1811 H 0.46433 0.03742 0.76655 0.0
H1812 H 0.53535 0.56661 0.62603 0.0
H1813 H 0.51323 0.5352 0.62603 0.0
H1814 H 0.53051 0.52964 0.54192 0.0
H1815 H 0.55297 0.56094 0.54202 0.0
H1816 H 0.48558 0.51655 0.58566 0.0
H1817 H 0.53214 0.49086 0.59008 0.0
H1818 H 0.5387 0.51343 0.59863 0.0
H1819 H 0.53627 0.50644 0.56182 0.0
C1820 C 0.53457 0.55866 0.60766 0.0
C1821 C 0.54597 0.56623 0.58409 0.0
C1822 C 0.52186 0.54076 0.60763 0.0
C1823 C 0.52042 0.53009 0.58415 0.0
C1824 C 0.53162 0.53762 0.56044 0.0
H1825 H 0.45308 0.41916 0.54517 0.0
H1826 H 0.47485 0.45065 0.54418 0.0
C1827 C 0.54431 0.55553 0.56041 0.0
C1828 C 0.50699 0.51113 0.58432 0.0
H1829 H 0.50195 0.46989 0.58328 0.0
C1830 C 0.48913 0.50632 0.58524 0.0
C1831 C 0.51172 0.49788 0.5837 0.0
C1832 C 0.53074 0.50234 0.58375 0.0
C1833 C 0.4758 0.48855 0.58511 0.0
C1834 C 0.48052 0.47528 0.58461 0.0
C1835 C 0.49839 0.4801 0.58364 0.0
C1836 C 0.46711 0.4563 0.58517 0.0
C1837 C 0.45678 0.48413 0.58492 0.0
C1838 C 0.45569 0.44904 0.60869 0.0
C1839 C 0.44315 0.43108 0.60923 0.0
C1840 C 0.44189 0.42004 0.58633 0.0
C1841 C 0.45351 0.42735 0.56293 0.0
C1842 C 0.46603 0.44531 0.56241 0.0
H1843 H 0.45542 0.4955 0.57774 0.0
H1844 H 0.44872 0.47273 0.57064 0.0
H1845 H 0.45136 0.48057 0.607 0.0
H1846 H 0.45653 0.45724 0.62671 0.0
H1847 H 0.43432 0.4259 0.62747 0.0
H1848 H 0.95494 0.53459 0.90004 0.0
H1849 H 0.9647 0.51284 0.90046 0.0
H1850 H 0.99705 0.53806 0.97465 0.0
H1851 H 0.98773 0.56014 0.97406 0.0
H1852 H 0.00126 0.52041 0.89777 0.0
H1853 H 0.96617 0.4848 -0.00294 0.0
H1854 H 0.96004 0.49859 0.97703 0.0
H1855 H 0.97915 0.50841 -0.00025 0.0
C1856 C 0.96424 0.53561 0.91634 0.0
C1857 C 0.97053 0.54912 0.93706 0.0
C1858 C 0.9697 0.52311 0.91663 0.0
C1859 C 0.98141 0.52376 0.93778 0.0
C1860 C 0.98775 0.53718 0.95846 0.0
H1861 H 0.02895 0.45965 0.97592 0.0
H1862 H 0.01897 0.48126 0.97644 0.0
C1863 C 0.98237 0.54975 0.95812 0.0
C1864 C 0.98736 0.51065 0.93772 0.0
H1865 H 0.98554 0.47653 0.976 0.0
C1866 C 0.9978 0.51076 0.91478 0.0
C1867 C 0.98288 0.49821 0.96008 0.0
C1868 C 0.97133 0.49731 0.98483 0.0
C1869 C 0.00411 0.49886 0.91379 0.0
C1870 C -0.00053 0.48625 0.936 0.0
C1871 C 0.98906 0.48619 0.95899 0.0
C1872 C 0.00526 0.47298 0.93576 0.0
C1873 C 0.01604 0.5002 0.88933 0.0
C1874 C 0.00059 0.46097 0.91298 0.0
C1875 C 0.00631 0.44866 0.9126 0.0
C1876 C 0.01661 0.44799 0.93519 0.0
C1877 C 0.02093 0.45977 0.95832 0.0
C1878 C 0.01529 0.47215 0.95859 0.0
H1879 H 0.02228 0.5134 0.87898 0.0
H1880 H 0.02659 0.49764 0.89681 0.0
H1881 H 0.00815 0.49024 0.87276 0.0
H1882 H 0.99246 0.46106 0.89553 0.0
H1883 H 0.00251 0.43954 0.89475 0.0
H1884 H 0.56878 0.02138 0.20862 0.0
H1885 H 0.53727 0.01192 0.21014 0.0
H1886 H 0.53999 0.01773 0.30225 0.0
H1887 H 0.57151 0.02726 0.30096 0.0
H1888 H 0.51013 0.98116 0.2513 0.0
H1889 H 0.5173 0.04773 0.26406 0.0
H1890 H 0.53392 0.04459 0.24644 0.0
H1891 H 0.53142 0.04236 0.28467 0.0
C1892 C 0.56269 0.02077 0.22916 0.0
C1893 C 0.57258 0.02506 0.25468 0.0
C1894 C 0.54472 0.01529 0.22999 0.0
C1895 C 0.53645 0.01423 0.25628 0.0
C1896 C 0.54625 0.01855 0.28178 0.0
H1897 H 0.43118 0.99236 0.30041 0.0
H1898 H 0.46246 0.00129 0.30036 0.0
C1899 C 0.56418 0.02388 0.281 0.0
C1900 C 0.51746 0.00835 0.25711 0.0
H1901 H 0.48845 0.02336 0.26419 0.0
C1902 C 0.50532 0.99033 0.25408 0.0
C1903 C 0.51139 0.0204 0.26099 0.0
C1904 C 0.5241 0.03989 0.26414 0.0
C1905 C 0.4871 0.98398 0.25505 0.0
C1906 C 0.48096 0.99608 0.25837 0.0
C1907 C 0.49319 0.01412 0.26157 0.0
C1908 C 0.46191 0.99033 0.25847 0.0
C1909 C 0.47465 0.96435 0.25318 0.0
C1910 C 0.45126 0.98136 0.23481 0.0
C1911 C 0.43333 0.976 0.23494 0.0
C1912 C 0.42571 0.97972 0.25859 0.0
C1913 C 0.43651 0.98897 0.28207 0.0
C1914 C 0.45443 0.99423 0.28199 0.0
H1915 H 0.48126 0.95681 0.25929 0.0
H1916 H 0.463 0.96019 0.26728 0.0
H1917 H 0.46996 0.96082 0.23071 0.0
H1918 H 0.45684 0.97857 0.21614 0.0
H1919 H 0.4254 0.96877 0.21659 0.0
loop_
_geom_bond_atom_site_label_1
_geom_bond_atom_site_label_2
_geom_bond_distance
_geom_bond_site_symmetry_2
_ccdc_geom_bond_type
Li0 N17 1.990 . S
Li0 O60 1.956 . S
Li0 O61 1.970 . S
Li0 O62 1.961 . S
Li1 N25 1.990 . S
Li1 O60 1.970 . S
Li1 O61 1.956 . S
Li1 O63 1.961 . S
Li2 N47 1.990 . S
Li2 O60 1.961 . S
Li2 O62 1.956 . S
Li2 O63 1.970 . S
Li3 N53 1.990 . S
Li3 O61 1.961 . S
Li3 O62 1.970 . S
Li3 O63 1.956 . S
C4 C6 1.348 . S
C4 C7 1.356 . S
C4 O60 1.325 . S
N5 C8 1.314 . S
N5 C9 1.279 . S
C6 C4 1.348 . S
C6 C8 1.353 . S
C6 H64 0.929 . S
C7 C4 1.356 . S
C7 C9 1.358 . S
C7 H65 0.930 . S
C8 N5 1.314 . S
C8 C6 1.353 . S
C8 H66 0.930 . S
C9 N5 1.279 . S
C9 C7 1.358 . S
C9 H67 0.930 . S
C10 C13 1.348 . S
C10 C14 1.356 . S
C10 O61 1.325 . S
C11 N12 1.279 . S
C11 C14 1.358 . S
C11 H68 0.930 . S
N12 C11 1.279 . S
N12 C15 1.314 . S
C13 C10 1.348 . S
C13 C15 1.353 . S
C13 H69 0.929 . S
C14 C10 1.356 . S
C14 C11 1.358 . S
C14 H70 0.930 . S
C15 N12 1.314 . S
C15 C13 1.353 . S
C15 H71 0.930 . S
C16 N17 1.314 . S
C16 C21 1.353 . S
C16 H22 0.930 . S
N17 Li0 1.990 . S
N17 C16 1.314 . S
N17 C19 1.279 . S
C18 C19 1.358 . S
C18 C20 1.356 . S
C18 H72 0.930 . S
C19 N17 1.279 . S
C19 C18 1.358 . S
C19 H23 0.930 . S
C20 C18 1.356 . S
C20 C21 1.348 . S
C21 C16 1.353 . S
C21 C20 1.348 . S
C21 H73 0.929 . S
H22 C16 0.930 . S
H23 C19 0.930 . S
C24 N25 1.314 . S
C24 C26 1.353 . S
C24 H30 0.930 . S
N25 Li1 1.990 . S
N25 C24 1.314 . S
N25 C28 1.279 . S
C26 C24 1.353 . S
C26 C29 1.348 . S
C26 H74 0.929 . S
C27 C28 1.358 . S
C27 C29 1.356 . S
C27 H75 0.930 . S
C28 N25 1.279 . S
C28 C27 1.358 . S
C28 H31 0.930 . S
C29 C26 1.348 . S
C29 C27 1.356 . S
H30 C24 0.930 . S
H31 C28 0.930 . S
C32 C34 1.348 1_554 S
C32 C35 1.356 . S
C32 O62 1.325 . S
N33 C36 1.314 . S
N33 C37 1.279 . S
C34 C32 1.348 1_556 S
C34 C36 1.353 . S
C34 H76 0.929 . S
C35 C32 1.356 . S
C35 C37 1.358 1_554 S
C35 H77 0.930 . S
C36 N33 1.314 . S
C36 C34 1.353 . S
C36 H78 0.930 . S
C37 N33 1.279 . S
C37 C35 1.358 1_556 S
C37 H79 0.930 . S
C38 C39 1.348 . S
C38 C40 1.356 . S
C38 O63 1.325 . S
C39 C38 1.348 . S
C39 C41 1.353 . S
C39 H80 0.929 . S
C40 C38 1.356 . S
C40 C42 1.358 . S
C40 H81 0.930 . S
C41 C39 1.353 . S
C41 N43 1.314 . S
C41 H82 0.930 . S
C42 C40 1.358 . S
C42 N43 1.279 . S
C42 H83 0.930 . S
N43 C41 1.314 . S
N43 C42 1.279 . S
C44 C46 1.353 . S
C44 N47 1.314 . S
C44 H50 0.930 . S
C45 N47 1.279 . S
C45 C48 1.358 . S
C45 H51 0.930 . S
C46 C44 1.353 . S
C46 C49 1.348 . S
C46 H84 0.929 . S
N47 Li2 1.990 . S
N47 C44 1.314 . S
N47 C45 1.279 . S
C48 C45 1.358 . S
C48 C49 1.356 . S
C48 H85 0.930 . S
C49 C46 1.348 . S
C49 C48 1.356 . S
H50 C44 0.930 . S
H51 C45 0.930 . S
C52 N53 1.314 1_556 S
C52 C54 1.353 . S
C52 H58 0.930 . S
N53 Li3 1.990 . S
N53 C52 1.314 1_554 S
N53 C56 1.279 1_554 S
C54 C52 1.353 . S
C54 C57 1.348 . S
C54 H86 0.929 . S
C55 C56 1.358 . S
C55 C57 1.356 . S
C55 H87 0.930 . S
C56 N53 1.279 1_556 S
C56 C55 1.358 . S
C56 H59 0.930 1_556 S
C57 C54 1.348 . S
C57 C55 1.356 . S
H58 C52 0.930 . S
H59 C56 0.930 1_554 S
O60 Li0 1.956 . S
O60 Li1 1.970 . S
O60 Li2 1.961 . S
O60 C4 1.325 . S
O61 Li0 1.970 . S
O61 Li1 1.956 . S
O61 Li3 1.961 . S
O61 C10 1.325 . S
O62 Li0 1.961 . S
O62 Li2 1.956 . S
O62 Li3 1.970 . S
O62 C32 1.325 . S
O63 Li1 1.961 . S
O63 Li2 1.970 . S
O63 Li3 1.956 . S
O63 C38 1.325 . S
H64 C6 0.929 . S
H65 C7 0.930 . S
H66 C8 0.930 . S
H67 C9 0.930 . S
H68 C11 0.930 . S
H69 C13 0.929 . S
H70 C14 0.930 . S
H71 C15 0.930 . S
H72 C18 0.930 . S
H73 C21 0.929 . S
H74 C26 0.929 . S
H75 C27 0.930 . S
H76 C34 0.929 . S
H77 C35 0.930 . S
H78 C36 0.930 . S
H79 C37 0.930 . S
H80 C39 0.929 . S
H81 C40 0.930 . S
H82 C41 0.930 . S
H83 C42 0.930 . S
H84 C46 0.929 . S
H85 C48 0.930 . S
H86 C54 0.929 . S
H87 C55 0.930 . S
Li88 N105 1.990 . S
Li88 O148 1.956 . S
Li88 O149 1.970 . S
Li88 O150 1.961 . S
Li89 N113 1.990 . S
Li89 O148 1.970 . S
Li89 O149 1.956 . S
Li89 O151 1.961 . S
Li90 N135 1.990 . S
Li90 O148 1.961 . S
Li90 O150 1.956 . S
Li90 O151 1.970 . S
Li91 N141 1.990 . S
Li91 O149 1.961 . S
Li91 O150 1.970 . S
Li91 O151 1.956 . S
C92 C94 1.348 . S
C92 C95 1.356 . S
C92 O148 1.325 . S
N93 C96 1.314 . S
N93 C97 1.279 . S
C94 C92 1.348 . S
C94 C96 1.353 . S
C94 H152 0.929 . S
C95 C92 1.356 . S
C95 C97 1.358 . S
C95 H153 0.930 . S
C96 N93 1.314 . S
C96 C94 1.353 . S
C96 H154 0.930 . S
C97 N93 1.279 . S
C97 C95 1.358 . S
C97 H155 0.930 . S
C98 C101 1.348 . S
C98 C102 1.356 . S
C98 O149 1.325 . S
C99 N100 1.279 . S
C99 C102 1.358 . S
C99 H156 0.930 . S
N100 C99 1.279 . S
N100 C103 1.314 . S
C101 C98 1.348 . S
C101 C103 1.353 . S
C101 H157 0.929 . S
C102 C98 1.356 . S
C102 C99 1.358 . S
C102 H158 0.930 . S
C103 N100 1.314 . S
C103 C101 1.353 . S
C103 H159 0.930 . S
C104 N105 1.314 . S
C104 C109 1.353 . S
C104 H110 0.930 . S
N105 Li88 1.990 . S
N105 C104 1.314 . S
N105 C107 1.279 . S
C106 C107 1.358 . S
C106 C108 1.356 . S
C106 H160 0.930 . S
C107 N105 1.279 . S
C107 C106 1.358 . S
C107 H111 0.930 . S
C108 C106 1.356 . S
C108 C109 1.348 . S
C109 C104 1.353 . S
C109 C108 1.348 . S
C109 H161 0.929 1_655 S
H110 C104 0.930 . S
H111 C107 0.930 . S
C112 N113 1.314 . S
C112 C114 1.353 . S
C112 H118 0.930 . S
N113 Li89 1.990 . S
N113 C112 1.314 . S
N113 C116 1.279 . S
C114 C112 1.353 . S
C114 C117 1.348 . S
C114 H162 0.929 . S
C115 C116 1.358 . S
C115 C117 1.356 . S
C115 H163 0.930 . S
C116 N113 1.279 . S
C116 C115 1.358 . S
C116 H119 0.930 . S
C117 C114 1.348 . S
C117 C115 1.356 . S
H118 C112 0.930 . S
H119 C116 0.930 . S
C120 C122 1.363 1_655 S
C120 C123 1.356 1_655 S
C120 O150 1.325 . S
N121 C124 1.314 . S
N121 C125 1.279 . S
C122 C120 1.363 1_455 S
C122 C124 1.396 . S
C122 H164 0.873 1_455 S
C123 C120 1.356 1_455 S
C123 C125 1.358 . S
C123 H165 0.930 . S
C124 N121 1.314 . S
C124 C122 1.396 . S
C124 H166 0.930 . S
C125 N121 1.279 . S
C125 C123 1.358 . S
C125 H167 0.930 . S
C126 C127 1.348 . S
C126 C128 1.356 . S
C126 O151 1.325 . S
C127 C126 1.348 . S
C127 C129 1.353 . S
C127 H168 0.929 . S
C128 C126 1.356 . S
C128 C130 1.358 . S
C128 H169 0.930 . S
C129 C127 1.353 . S
C129 N131 1.314 . S
C129 H170 0.930 . S
C130 C128 1.358 . S
C130 N131 1.279 . S
C130 H171 0.930 . S
N131 C129 1.314 . S
N131 C130 1.279 . S
C132 C134 1.353 . S
C132 N135 1.314 . S
C132 H138 0.930 . S
C133 N135 1.238 1_455 S
C133 C136 1.407 . S
C133 H139 0.928 . S
C134 C132 1.353 . S
C134 C137 1.348 1_655 S
C134 H172 0.929 . S
N135 Li90 1.990 . S
N135 C132 1.314 . S
N135 C133 1.238 1_655 S
C136 C133 1.407 . S
C136 C137 1.356 . S
C136 H173 0.930 . S
C137 C134 1.348 1_455 S
C137 C136 1.356 . S
H138 C132 0.930 . S
H139 C133 0.928 . S
C140 N141 1.314 . S
C140 C142 1.353 . S
C140 H146 0.930 . S
N141 Li91 1.990 . S
N141 C140 1.314 . S
N141 C144 1.279 . S
C142 C140 1.353 . S
C142 C145 1.348 . S
C142 H174 0.929 . S
C143 C144 1.358 . S
C143 C145 1.356 . S
C143 H175 0.930 . S
C144 N141 1.279 . S
C144 C143 1.358 . S
C144 H147 0.930 . S
C145 C142 1.348 . S
C145 C143 1.356 . S
H146 C140 0.930 . S
H147 C144 0.930 . S
O148 Li88 1.956 . S
O148 Li89 1.970 . S
O148 Li90 1.961 . S
O148 C92 1.325 . S
O149 Li88 1.970 . S
O149 Li89 1.956 . S
O149 Li91 1.961 . S
O149 C98 1.325 . S
O150 Li88 1.961 . S
O150 Li90 1.956 . S
O150 Li91 1.970 . S
O150 C120 1.325 . S
O151 Li89 1.961 . S
O151 Li90 1.970 . S
O151 Li91 1.956 . S
O151 C126 1.325 . S
H152 C94 0.929 . S
H153 C95 0.930 . S
H154 C96 0.930 . S
H155 C97 0.930 . S
H156 C99 0.930 . S
H157 C101 0.929 . S
H158 C102 0.930 . S
H159 C103 0.930 . S
H160 C106 0.930 . S
H161 C109 0.929 1_455 S
H162 C114 0.929 . S
H163 C115 0.930 . S
H164 C122 0.873 1_655 S
H165 C123 0.930 . S
H166 C124 0.930 . S
H167 C125 0.930 . S
H168 C127 0.929 . S
H169 C128 0.930 . S
H170 C129 0.930 . S
H171 C130 0.930 . S
H172 C134 0.929 . S
H173 C136 0.930 . S
H174 C142 0.929 . S
H175 C143 0.930 . S
Li176 N193 1.990 . S
Li176 O236 1.956 . S
Li176 O237 1.970 . S
Li176 O238 1.961 . S
Li177 N201 1.990 . S
Li177 O236 1.970 . S
Li177 O237 1.956 . S
Li177 O239 1.961 . S
Li178 N223 1.990 . S
Li178 O236 1.961 . S
Li178 O238 1.956 . S
Li178 O239 1.970 . S
Li179 N229 1.990 . S
Li179 O237 1.961 . S
Li179 O238 1.970 . S
Li179 O239 1.956 . S
C180 C182 1.348 . S
C180 C183 1.356 . S
C180 O236 1.325 . S
N181 C184 1.314 . S
N181 C185 1.279 . S
C182 C180 1.348 . S
C182 C184 1.353 . S
C182 H240 0.929 . S
C183 C180 1.356 . S
C183 C185 1.358 . S
C183 H241 0.930 . S
C184 N181 1.314 . S
C184 C182 1.353 . S
C184 H242 0.930 . S
C185 N181 1.279 . S
C185 C183 1.358 . S
C185 H243 0.930 . S
C186 C189 1.348 . S
C186 C190 1.356 . S
C186 O237 1.325 . S
C187 N188 1.279 . S
C187 C190 1.358 . S
C187 H244 0.930 . S
N188 C187 1.279 . S
N188 C191 1.314 . S
C189 C186 1.348 . S
C189 C191 1.353 . S
C189 H245 0.929 . S
C190 C186 1.356 . S
C190 C187 1.358 . S
C190 H246 0.930 . S
C191 N188 1.314 . S
C191 C189 1.353 . S
C191 H247 0.930 . S
C192 N193 1.314 . S
C192 C197 1.353 . S
C192 H198 0.930 . S
N193 Li176 1.990 . S
N193 C192 1.314 . S
N193 C195 1.279 . S
C194 C195 1.358 . S
C194 C196 1.356 . S
C194 H248 0.930 . S
C195 N193 1.279 . S
C195 C194 1.358 . S
C195 H199 0.930 . S
C196 C194 1.356 . S
C196 C197 1.348 . S
C197 C192 1.353 . S
C197 C196 1.348 . S
C197 H249 0.929 1_565 S
H198 C192 0.930 . S
H199 C195 0.930 . S
C200 N201 1.314 . S
C200 C202 1.353 . S
C200 H206 0.930 . S
N201 Li177 1.990 . S
N201 C200 1.314 . S
N201 C204 1.279 . S
C202 C200 1.353 . S
C202 C205 1.348 . S
C202 H250 0.929 . S
C203 C204 1.358 . S
C203 C205 1.356 . S
C203 H251 0.930 . S
C204 N201 1.279 . S
C204 C203 1.358 . S
C204 H207 0.930 . S
C205 C202 1.348 . S
C205 C203 1.356 . S
H206 C200 0.930 . S
H207 C204 0.930 . S
C208 C210 1.306 1_565 S
C208 C211 1.356 1_565 S
C208 O238 1.325 . S
N209 C212 1.314 . S
N209 C213 1.279 . S
C210 C208 1.306 1_545 S
C210 C212 1.412 . S
C210 H252 0.915 1_545 S
C211 C208 1.356 1_545 S
C211 C213 1.358 . S
C211 H253 0.930 . S
C212 N209 1.314 . S
C212 C210 1.412 . S
C212 H254 0.930 . S
C213 N209 1.279 . S
C213 C211 1.358 . S
C213 H255 0.930 . S
C214 C215 1.348 . S
C214 C216 1.356 . S
C214 O239 1.325 . S
C215 C214 1.348 . S
C215 C217 1.353 . S
C215 H256 0.929 . S
C216 C214 1.356 . S
C216 C218 1.358 . S
C216 H257 0.930 . S
C217 C215 1.353 . S
C217 N219 1.314 . S
C217 H258 0.930 . S
C218 C216 1.358 . S
C218 N219 1.279 . S
C218 H259 0.930 . S
N219 C217 1.314 . S
N219 C218 1.279 . S
C220 C222 1.353 . S
C220 N223 1.314 . S
C220 H226 0.930 . S
C221 N223 1.207 1_545 S
C221 C224 1.386 . S
C221 H227 0.984 . S
C222 C220 1.353 . S
C222 C225 1.348 1_565 S
C222 H260 0.929 . S
N223 Li178 1.990 . S
N223 C220 1.314 . S
N223 C221 1.207 1_565 S
C224 C221 1.386 . S
C224 C225 1.356 . S
C224 H261 0.930 . S
C225 C222 1.348 1_545 S
C225 C224 1.356 . S
H226 C220 0.930 . S
H227 C221 0.984 . S
C228 N229 1.314 . S
C228 C230 1.353 . S
C228 H234 0.930 . S
N229 Li179 1.990 . S
N229 C228 1.314 . S
N229 C232 1.279 . S
C230 C228 1.353 . S
C230 C233 1.348 . S
C230 H262 0.929 . S
C231 C232 1.358 . S
C231 C233 1.356 . S
C231 H263 0.930 . S
C232 N229 1.279 . S
C232 C231 1.358 . S
C232 H235 0.930 . S
C233 C230 1.348 . S
C233 C231 1.356 . S
H234 C228 0.930 . S
H235 C232 0.930 . S
O236 Li176 1.956 . S
O236 Li177 1.970 . S
O236 Li178 1.961 . S
O236 C180 1.325 . S
O237 Li176 1.970 . S
O237 Li177 1.956 . S
O237 Li179 1.961 . S
O237 C186 1.325 . S
O238 Li176 1.961 . S
O238 Li178 1.956 . S
O238 Li179 1.970 . S
O238 C208 1.325 . S
O239 Li177 1.961 . S
O239 Li178 1.970 . S
O239 Li179 1.956 . S
O239 C214 1.325 . S
H240 C182 0.929 . S
H241 C183 0.930 . S
H242 C184 0.930 . S
H243 C185 0.930 . S
H244 C187 0.930 . S
H245 C189 0.929 . S
H246 C190 0.930 . S
H247 C191 0.930 . S
H248 C194 0.930 . S
H249 C197 0.929 1_545 S
H250 C202 0.929 . S
H251 C203 0.930 . S
H252 C210 0.915 1_565 S
H253 C211 0.930 . S
H254 C212 0.930 . S
H255 C213 0.930 . S
H256 C215 0.929 . S
H257 C216 0.930 . S
H258 C217 0.930 . S
H259 C218 0.930 . S
H260 C222 0.929 . S
H261 C224 0.930 . S
H262 C230 0.929 . S
H263 C231 0.930 . S
Li264 N281 1.990 . S
Li264 O324 1.956 . S
Li264 O325 1.970 . S
Li264 O326 1.961 . S
Li265 N289 1.990 . S
Li265 O324 1.970 . S
Li265 O325 1.956 . S
Li265 O327 1.961 . S
Li266 N311 1.990 . S
Li266 O324 1.961 . S
Li266 O326 1.956 . S
Li266 O327 1.970 . S
Li267 N317 1.990 . S
Li267 O325 1.961 . S
Li267 O326 1.970 . S
Li267 O327 1.956 . S
C268 C270 1.348 . S
C268 C271 1.356 . S
C268 O324 1.325 . S
N269 C272 1.314 . S
N269 C273 1.279 . S
C270 C268 1.348 . S
C270 C272 1.353 . S
C270 H328 0.929 . S
C271 C268 1.356 . S
C271 C273 1.358 . S
C271 H329 0.930 . S
C272 N269 1.314 . S
C272 C270 1.353 . S
C272 H330 0.930 . S
C273 N269 1.279 . S
C273 C271 1.358 . S
C273 H331 0.930 . S
C274 C277 1.348 . S
C274 C278 1.356 . S
C274 O325 1.325 . S
C275 N276 1.279 . S
C275 C278 1.358 . S
C275 H332 0.930 . S
N276 C275 1.279 . S
N276 C279 1.314 . S
C277 C274 1.348 . S
C277 C279 1.353 . S
C277 H333 0.929 . S
C278 C274 1.356 . S
C278 C275 1.358 . S
C278 H334 0.930 . S
C279 N276 1.314 . S
C279 C277 1.353 . S
C279 H335 0.930 . S
C280 N281 1.314 . S
C280 C285 1.353 . S
C280 H286 0.930 . S
N281 Li264 1.990 . S
N281 C280 1.314 . S
N281 C283 1.279 . S
C282 C283 1.358 . S
C282 C284 1.356 . S
C282 H336 0.930 . S
C283 N281 1.279 . S
C283 C282 1.358 . S
C283 H287 0.930 . S
C284 C282 1.356 . S
C284 C285 1.348 . S
C285 C280 1.353 . S
C285 C284 1.348 . S
C285 H337 0.929 . S
H286 C280 0.930 . S
H287 C283 0.930 . S
C288 N289 1.314 . S
C288 C290 1.353 . S
C288 H294 0.930 . S
N289 Li265 1.990 . S
N289 C288 1.314 . S
N289 C292 1.279 . S
C290 C288 1.353 . S
C290 C293 1.348 . S
C290 H338 0.929 . S
C291 C292 1.358 . S
C291 C293 1.356 . S
C291 H339 0.930 . S
C292 N289 1.279 . S
C292 C291 1.358 . S
C292 H295 0.930 . S
C293 C290 1.348 . S
C293 C291 1.356 . S
H294 C288 0.930 . S
H295 C292 0.930 . S
C296 C298 1.348 . S
C296 C299 1.356 . S
C296 O326 1.325 . S
N297 C300 1.314 . S
N297 C301 1.279 . S
C298 C296 1.348 . S
C298 C300 1.353 . S
C298 H340 0.929 . S
C299 C296 1.356 . S
C299 C301 1.358 . S
C299 H341 0.930 . S
C300 N297 1.314 . S
C300 C298 1.353 . S
C300 H342 0.930 . S
C301 N297 1.279 . S
C301 C299 1.358 . S
C301 H343 0.930 . S
C302 C303 1.348 1_554 S
C302 C304 1.356 . S
C302 O327 1.325 . S
C303 C302 1.348 1_556 S
C303 C305 1.353 . S
C303 H344 0.929 . S
C304 C302 1.356 . S
C304 C306 1.358 1_554 S
C304 H345 0.930 . S
C305 C303 1.353 . S
C305 N307 1.314 . S
C305 H346 0.930 . S
C306 C304 1.358 1_556 S
C306 N307 1.279 . S
C306 H347 0.930 . S
N307 C305 1.314 . S
N307 C306 1.279 . S
C308 C310 1.353 . S
C308 N311 1.314 1_556 S
C308 H314 0.930 . S
C309 N311 1.279 1_556 S
C309 C312 1.358 . S
C309 H315 0.930 1_556 S
C310 C308 1.353 . S
C310 C313 1.348 . S
C310 H348 0.929 . S
N311 Li266 1.990 . S
N311 C308 1.314 1_554 S
N311 C309 1.279 1_554 S
C312 C309 1.358 . S
C312 C313 1.356 . S
C312 H349 0.930 . S
C313 C310 1.348 . S
C313 C312 1.356 . S
H314 C308 0.930 . S
H315 C309 0.930 1_554 S
C316 N317 1.314 . S
C316 C318 1.353 . S
C316 H322 0.930 . S
N317 Li267 1.990 . S
N317 C316 1.314 . S
N317 C320 1.279 . S
C318 C316 1.353 . S
C318 C321 1.348 . S
C318 H350 0.929 . S
C319 C320 1.358 . S
C319 C321 1.356 . S
C319 H351 0.930 . S
C320 N317 1.279 . S
C320 C319 1.358 . S
C320 H323 0.930 . S
C321 C318 1.348 . S
C321 C319 1.356 . S
H322 C316 0.930 . S
H323 C320 0.930 . S
O324 Li264 1.956 . S
O324 Li265 1.970 . S
O324 Li266 1.961 . S
O324 C268 1.325 . S
O325 Li264 1.970 . S
O325 Li265 1.956 . S
O325 Li267 1.961 . S
O325 C274 1.325 . S
O326 Li264 1.961 . S
O326 Li266 1.956 . S
O326 Li267 1.970 . S
O326 C296 1.325 . S
O327 Li265 1.961 . S
O327 Li266 1.970 . S
O327 Li267 1.956 . S
O327 C302 1.325 . S
H328 C270 0.929 . S
H329 C271 0.930 . S
H330 C272 0.930 . S
H331 C273 0.930 . S
H332 C275 0.930 . S
H333 C277 0.929 . S
H334 C278 0.930 . S
H335 C279 0.930 . S
H336 C282 0.930 . S
H337 C285 0.929 . S
H338 C290 0.929 . S
H339 C291 0.930 . S
H340 C298 0.929 . S
H341 C299 0.930 . S
H342 C300 0.930 . S
H343 C301 0.930 . S
H344 C303 0.929 . S
H345 C304 0.930 . S
H346 C305 0.930 . S
H347 C306 0.930 . S
H348 C310 0.929 . S
H349 C312 0.930 . S
H350 C318 0.929 . S
H351 C319 0.930 . S
Li352 N369 1.990 . S
Li352 O412 1.956 . S
Li352 O413 1.970 . S
Li352 O414 1.961 . S
Li353 N377 1.990 . S
Li353 O412 1.970 . S
Li353 O413 1.956 . S
Li353 O415 1.961 . S
Li354 N399 1.990 . S
Li354 O412 1.961 . S
Li354 O414 1.956 . S
Li354 O415 1.970 . S
Li355 N405 1.990 . S
Li355 O413 1.961 . S
Li355 O414 1.970 . S
Li355 O415 1.956 . S
C356 C358 1.348 . S
C356 C359 1.356 . S
C356 O412 1.325 . S
N357 C360 1.314 . S
N357 C361 1.279 . S
C358 C356 1.348 . S
C358 C360 1.353 . S
C358 H416 0.929 . S
C359 C356 1.356 . S
C359 C361 1.358 . S
C359 H417 0.930 . S
C360 N357 1.314 . S
C360 C358 1.353 . S
C360 H418 0.930 . S
C361 N357 1.279 . S
C361 C359 1.358 . S
C361 H419 0.930 . S
C362 C365 1.348 . S
C362 C366 1.356 . S
C362 O413 1.325 . S
C363 N364 1.279 . S
C363 C366 1.358 . S
C363 H420 0.930 . S
N364 C363 1.279 . S
N364 C367 1.314 . S
C365 C362 1.348 . S
C365 C367 1.353 . S
C365 H421 0.929 . S
C366 C362 1.356 . S
C366 C363 1.358 . S
C366 H422 0.930 . S
C367 N364 1.314 . S
C367 C365 1.353 . S
C367 H423 0.930 . S
C368 N369 1.314 . S
C368 C373 1.353 . S
C368 H374 0.930 . S
N369 Li352 1.990 . S
N369 C368 1.314 . S
N369 C371 1.279 . S
C370 C371 1.358 . S
C370 C372 1.356 . S
C370 H424 0.930 . S
C371 N369 1.279 . S
C371 C370 1.358 . S
C371 H375 0.930 . S
C372 C370 1.356 . S
C372 C373 1.348 . S
C373 C368 1.353 . S
C373 C372 1.348 . S
C373 H425 0.929 . S
H374 C368 0.930 . S
H375 C371 0.930 . S
C376 N377 1.314 . S
C376 C378 1.353 . S
C376 H382 0.930 . S
N377 Li353 1.990 . S
N377 C376 1.314 . S
N377 C380 1.279 . S
C378 C376 1.353 . S
C378 C381 1.348 . S
C378 H426 0.929 1_455 S
C379 C380 1.358 . S
C379 C381 1.356 . S
C379 H427 0.930 . S
C380 N377 1.279 . S
C380 C379 1.358 . S
C380 H383 0.930 . S
C381 C378 1.348 . S
C381 C379 1.356 . S
H382 C376 0.930 . S
H383 C380 0.930 . S
C384 C386 1.348 . S
C384 C387 1.356 . S
C384 O414 1.325 . S
N385 C388 1.314 . S
N385 C389 1.279 . S
C386 C384 1.348 . S
C386 C388 1.353 . S
C386 H428 0.929 . S
C387 C384 1.356 . S
C387 C389 1.358 . S
C387 H429 0.930 . S
C388 N385 1.314 . S
C388 C386 1.353 . S
C388 H430 0.930 . S
C389 N385 1.279 . S
C389 C387 1.358 . S
C389 H431 0.930 . S
C390 C391 1.363 1_455 S
C390 C392 1.356 1_455 S
C390 O415 1.325 . S
C391 C390 1.363 1_655 S
C391 C393 1.396 . S
C391 H432 0.873 1_655 S
C392 C390 1.356 1_655 S
C392 C394 1.358 . S
C392 H433 0.930 . S
C393 C391 1.396 . S
C393 N395 1.314 . S
C393 H434 0.930 . S
C394 C392 1.358 . S
C394 N395 1.279 . S
C394 H435 0.930 . S
N395 C393 1.314 . S
N395 C394 1.279 . S
C396 C398 1.353 . S
C396 N399 1.314 . S
C396 H402 0.930 . S
C397 N399 1.279 . S
C397 C400 1.358 . S
C397 H403 0.930 . S
C398 C396 1.353 . S
C398 C401 1.348 . S
C398 H436 0.929 . S
N399 Li354 1.990 . S
N399 C396 1.314 . S
N399 C397 1.279 . S
C400 C397 1.358 . S
C400 C401 1.356 . S
C400 H437 0.930 . S
C401 C398 1.348 . S
C401 C400 1.356 . S
H402 C396 0.930 . S
H403 C397 0.930 . S
C404 N405 1.314 . S
C404 C406 1.353 . S
C404 H410 0.930 . S
N405 Li355 1.990 . S
N405 C404 1.314 . S
N405 C408 1.238 1_455 S
C406 C404 1.353 . S
C406 C409 1.348 1_455 S
C406 H438 0.929 . S
C407 C408 1.407 . S
C407 C409 1.356 . S
C407 H439 0.930 . S
C408 N405 1.238 1_655 S
C408 C407 1.407 . S
C408 H411 0.928 . S
C409 C406 1.348 1_655 S
C409 C407 1.356 . S
H410 C404 0.930 . S
H411 C408 0.928 . S
O412 Li352 1.956 . S
O412 Li353 1.970 . S
O412 Li354 1.961 . S
O412 C356 1.325 . S
O413 Li352 1.970 . S
O413 Li353 1.956 . S
O413 Li355 1.961 . S
O413 C362 1.325 . S
O414 Li352 1.961 . S
O414 Li354 1.956 . S
O414 Li355 1.970 . S
O414 C384 1.325 . S
O415 Li353 1.961 . S
O415 Li354 1.970 . S
O415 Li355 1.956 . S
O415 C390 1.325 . S
H416 C358 0.929 . S
H417 C359 0.930 . S
H418 C360 0.930 . S
H419 C361 0.930 . S
H420 C363 0.930 . S
H421 C365 0.929 . S
H422 C366 0.930 . S
H423 C367 0.930 . S
H424 C370 0.930 . S
H425 C373 0.929 . S
H426 C378 0.929 1_655 S
H427 C379 0.930 . S
H428 C386 0.929 . S
H429 C387 0.930 . S
H430 C388 0.930 . S
H431 C389 0.930 . S
H432 C391 0.873 1_455 S
H433 C392 0.930 . S
H434 C393 0.930 . S
H435 C394 0.930 . S
H436 C398 0.929 . S
H437 C400 0.930 . S
H438 C406 0.929 . S
H439 C407 0.930 . S
Li440 N457 1.990 . S
Li440 O500 1.956 . S
Li440 O501 1.970 . S
Li440 O502 1.961 . S
Li441 N465 1.990 . S
Li441 O500 1.970 . S
Li441 O501 1.956 . S
Li441 O503 1.961 . S
Li442 N487 1.990 . S
Li442 O500 1.961 . S
Li442 O502 1.956 . S
Li442 O503 1.970 . S
Li443 N493 1.990 . S
Li443 O501 1.961 . S
Li443 O502 1.970 . S
Li443 O503 1.956 . S
C444 C446 1.348 . S
C444 C447 1.356 . S
C444 O500 1.325 . S
N445 C448 1.314 . S
N445 C449 1.279 . S
C446 C444 1.348 . S
C446 C448 1.353 . S
C446 H504 0.929 . S
C447 C444 1.356 . S
C447 C449 1.358 . S
C447 H505 0.930 . S
C448 N445 1.314 . S
C448 C446 1.353 . S
C448 H506 0.930 . S
C449 N445 1.279 . S
C449 C447 1.358 . S
C449 H507 0.930 . S
C450 C453 1.348 . S
C450 C454 1.356 . S
C450 O501 1.325 . S
C451 N452 1.279 . S
C451 C454 1.358 . S
C451 H508 0.930 . S
N452 C451 1.279 . S
N452 C455 1.314 . S
C453 C450 1.348 . S
C453 C455 1.353 . S
C453 H509 0.929 . S
C454 C450 1.356 . S
C454 C451 1.358 . S
C454 H510 0.930 . S
C455 N452 1.314 . S
C455 C453 1.353 . S
C455 H511 0.930 . S
C456 N457 1.314 . S
C456 C461 1.353 . S
C456 H462 0.930 . S
N457 Li440 1.990 . S
N457 C456 1.314 . S
N457 C459 1.279 . S
C458 C459 1.358 . S
C458 C460 1.356 . S
C458 H512 0.930 . S
C459 N457 1.279 . S
C459 C458 1.358 . S
C459 H463 0.930 . S
C460 C458 1.356 . S
C460 C461 1.348 . S
C461 C456 1.353 . S
C461 C460 1.348 . S
C461 H513 0.929 . S
H462 C456 0.930 . S
H463 C459 0.930 . S
C464 N465 1.314 . S
C464 C466 1.353 . S
C464 H470 0.930 . S
N465 Li441 1.990 . S
N465 C464 1.314 . S
N465 C468 1.279 . S
C466 C464 1.353 . S
C466 C469 1.348 . S
C466 H514 0.929 1_545 S
C467 C468 1.358 . S
C467 C469 1.356 . S
C467 H515 0.930 . S
C468 N465 1.279 . S
C468 C467 1.358 . S
C468 H471 0.930 . S
C469 C466 1.348 . S
C469 C467 1.356 . S
H470 C464 0.930 . S
H471 C468 0.930 . S
C472 C474 1.348 . S
C472 C475 1.356 . S
C472 O502 1.325 . S
N473 C476 1.314 . S
N473 C477 1.279 . S
C474 C472 1.348 . S
C474 C476 1.353 . S
C474 H516 0.929 . S
C475 C472 1.356 . S
C475 C477 1.358 . S
C475 H517 0.930 . S
C476 N473 1.314 . S
C476 C474 1.353 . S
C476 H518 0.930 . S
C477 N473 1.279 . S
C477 C475 1.358 . S
C477 H519 0.930 . S
C478 C479 1.306 1_545 S
C478 C480 1.356 1_545 S
C478 O503 1.325 . S
C479 C478 1.306 1_565 S
C479 C481 1.412 . S
C479 H520 0.915 1_565 S
C480 C478 1.356 1_565 S
C480 C482 1.358 . S
C480 H521 0.930 . S
C481 C479 1.412 . S
C481 N483 1.314 . S
C481 H522 0.930 . S
C482 C480 1.358 . S
C482 N483 1.279 . S
C482 H523 0.930 . S
N483 C481 1.314 . S
N483 C482 1.279 . S
C484 C486 1.353 . S
C484 N487 1.314 . S
C484 H490 0.930 . S
C485 N487 1.279 . S
C485 C488 1.358 . S
C485 H491 0.930 . S
C486 C484 1.353 . S
C486 C489 1.348 . S
C486 H524 0.929 . S
N487 Li442 1.990 . S
N487 C484 1.314 . S
N487 C485 1.279 . S
C488 C485 1.358 . S
C488 C489 1.356 . S
C488 H525 0.930 . S
C489 C486 1.348 . S
C489 C488 1.356 . S
H490 C484 0.930 . S
H491 C485 0.930 . S
C492 N493 1.314 . S
C492 C494 1.353 . S
C492 H498 0.930 . S
N493 Li443 1.990 . S
N493 C492 1.314 . S
N493 C496 1.207 1_545 S
C494 C492 1.353 . S
C494 C497 1.348 1_545 S
C494 H526 0.929 . S
C495 C496 1.386 . S
C495 C497 1.356 . S
C495 H527 0.930 . S
C496 N493 1.207 1_565 S
C496 C495 1.386 . S
C496 H499 0.984 . S
C497 C494 1.348 1_565 S
C497 C495 1.356 . S
H498 C492 0.930 . S
H499 C496 0.984 . S
O500 Li440 1.956 . S
O500 Li441 1.970 . S
O500 Li442 1.961 . S
O500 C444 1.325 . S
O501 Li440 1.970 . S
O501 Li441 1.956 . S
O501 Li443 1.961 . S
O501 C450 1.325 . S
O502 Li440 1.961 . S
O502 Li442 1.956 . S
O502 Li443 1.970 . S
O502 C472 1.325 . S
O503 Li441 1.961 . S
O503 Li442 1.970 . S
O503 Li443 1.956 . S
O503 C478 1.325 . S
H504 C446 0.929 . S
H505 C447 0.930 . S
H506 C448 0.930 . S
H507 C449 0.930 . S
H508 C451 0.930 . S
H509 C453 0.929 . S
H510 C454 0.930 . S
H511 C455 0.930 . S
H512 C458 0.930 . S
H513 C461 0.929 . S
H514 C466 0.929 1_565 S
H515 C467 0.930 . S
H516 C474 0.929 . S
H517 C475 0.930 . S
H518 C476 0.930 . S
H519 C477 0.930 . S
H520 C479 0.915 1_545 S
H521 C480 0.930 . S
H522 C481 0.930 . S
H523 C482 0.930 . S
H524 C486 0.929 . S
H525 C488 0.930 . S
H526 C494 0.929 . S
H527 C495 0.930 . S
Li528 N545 1.990 . S
Li528 O588 1.956 . S
Li528 O589 1.970 . S
Li528 O590 1.961 . S
Li529 N553 1.990 . S
Li529 O588 1.970 . S
Li529 O589 1.956 . S
Li529 O591 1.961 . S
Li530 N575 1.990 . S
Li530 O588 1.961 . S
Li530 O590 1.956 . S
Li530 O591 1.970 . S
Li531 N581 1.990 . S
Li531 O589 1.961 . S
Li531 O590 1.970 . S
Li531 O591 1.956 . S
C532 C534 1.348 . S
C532 C535 1.356 . S
C532 O588 1.325 . S
N533 C536 1.314 . S
N533 C537 1.279 . S
C534 C532 1.348 . S
C534 C536 1.353 . S
C534 H592 0.929 . S
C535 C532 1.356 . S
C535 C537 1.358 . S
C535 H593 0.930 . S
C536 N533 1.314 . S
C536 C534 1.353 . S
C536 H594 0.930 . S
C537 N533 1.279 . S
C537 C535 1.358 . S
C537 H595 0.930 . S
C538 C541 1.348 . S
C538 C542 1.356 . S
C538 O589 1.325 . S
C539 N540 1.279 . S
C539 C542 1.358 . S
C539 H596 0.930 . S
N540 C539 1.279 . S
N540 C543 1.314 . S
C541 C538 1.348 . S
C541 C543 1.353 . S
C541 H597 0.929 . S
C542 C538 1.356 . S
C542 C539 1.358 . S
C542 H598 0.930 . S
C543 N540 1.314 . S
C543 C541 1.353 . S
C543 H599 0.930 . S
C544 N545 1.314 . S
C544 C549 1.353 . S
C544 H550 0.930 . S
N545 Li528 1.990 . S
N545 C544 1.314 . S
N545 C547 1.279 . S
C546 C547 1.358 . S
C546 C548 1.356 . S
C546 H600 0.930 . S
C547 N545 1.279 . S
C547 C546 1.358 . S
C547 H551 0.930 . S
C548 C546 1.356 . S
C548 C549 1.348 . S
C549 C544 1.353 . S
C549 C548 1.348 . S
C549 H601 0.929 . S
H550 C544 0.930 . S
H551 C547 0.930 . S
C552 N553 1.314 . S
C552 C554 1.353 . S
C552 H558 0.930 . S
N553 Li529 1.990 . S
N553 C552 1.314 . S
N553 C556 1.279 . S
C554 C552 1.353 . S
C554 C557 1.348 . S
C554 H602 0.929 . S
C555 C556 1.358 . S
C555 C557 1.356 . S
C555 H603 0.930 . S
C556 N553 1.279 . S
C556 C555 1.358 . S
C556 H559 0.930 . S
C557 C554 1.348 . S
C557 C555 1.356 . S
H558 C552 0.930 . S
H559 C556 0.930 . S
C560 C562 1.348 . S
C560 C563 1.356 . S
C560 O590 1.325 . S
N561 C564 1.314 . S
N561 C565 1.279 . S
C562 C560 1.348 . S
C562 C564 1.353 . S
C562 H604 0.929 . S
C563 C560 1.356 . S
C563 C565 1.358 . S
C563 H605 0.930 . S
C564 N561 1.314 . S
C564 C562 1.353 . S
C564 H606 0.930 . S
C565 N561 1.279 . S
C565 C563 1.358 . S
C565 H607 0.930 . S
C566 C567 1.348 . S
C566 C568 1.356 . S
C566 O591 1.325 . S
C567 C566 1.348 . S
C567 C569 1.353 . S
C567 H608 0.929 . S
C568 C566 1.356 . S
C568 C570 1.358 . S
C568 H609 0.930 . S
C569 C567 1.353 . S
C569 N571 1.314 . S
C569 H610 0.930 . S
C570 C568 1.358 . S
C570 N571 1.279 . S
C570 H611 0.930 . S
N571 C569 1.314 . S
N571 C570 1.279 . S
C572 C574 1.353 . S
C572 N575 1.314 . S
C572 H578 0.930 . S
C573 N575 1.279 . S
C573 C576 1.358 . S
C573 H579 0.930 . S
C574 C572 1.353 . S
C574 C577 1.348 . S
C574 H612 0.929 . S
N575 Li530 1.990 . S
N575 C572 1.314 . S
N575 C573 1.279 . S
C576 C573 1.358 . S
C576 C577 1.356 . S
C576 H613 0.930 . S
C577 C574 1.348 . S
C577 C576 1.356 . S
H578 C572 0.930 . S
H579 C573 0.930 . S
C580 N581 1.314 . S
C580 C582 1.353 . S
C580 H586 0.930 . S
N581 Li531 1.990 . S
N581 C580 1.314 . S
N581 C584 1.279 . S
C582 C580 1.353 . S
C582 C585 1.348 . S
C582 H614 0.929 . S
C583 C584 1.358 . S
C583 C585 1.356 . S
C583 H615 0.930 . S
C584 N581 1.279 . S
C584 C583 1.358 . S
C584 H587 0.930 . S
C585 C582 1.348 . S
C585 C583 1.356 . S
H586 C580 0.930 . S
H587 C584 0.930 . S
O588 Li528 1.956 . S
O588 Li529 1.970 . S
O588 Li530 1.961 . S
O588 C532 1.325 . S
O589 Li528 1.970 . S
O589 Li529 1.956 . S
O589 Li531 1.961 . S
O589 C538 1.325 . S
O590 Li528 1.961 . S
O590 Li530 1.956 . S
O590 Li531 1.970 . S
O590 C560 1.325 . S
O591 Li529 1.961 . S
O591 Li530 1.970 . S
O591 Li531 1.956 . S
O591 C566 1.325 . S
H592 C534 0.929 . S
H593 C535 0.930 . S
H594 C536 0.930 . S
H595 C537 0.930 . S
H596 C539 0.930 . S
H597 C541 0.929 . S
H598 C542 0.930 . S
H599 C543 0.930 . S
H600 C546 0.930 . S
H601 C549 0.929 . S
H602 C554 0.929 . S
H603 C555 0.930 . S
H604 C562 0.929 . S
H605 C563 0.930 . S
H606 C564 0.930 . S
H607 C565 0.930 . S
H608 C567 0.929 . S
H609 C568 0.930 . S
H610 C569 0.930 . S
H611 C570 0.930 . S
H612 C574 0.929 . S
H613 C576 0.930 . S
H614 C582 0.929 . S
H615 C583 0.930 . S
Li616 N633 1.990 . S
Li616 O676 1.956 . S
Li616 O677 1.970 . S
Li616 O678 1.961 . S
Li617 N641 1.990 . S
Li617 O676 1.970 . S
Li617 O677 1.956 . S
Li617 O679 1.961 . S
Li618 N663 1.990 . S
Li618 O676 1.961 . S
Li618 O678 1.956 . S
Li618 O679 1.970 . S
Li619 N669 1.990 . S
Li619 O677 1.961 . S
Li619 O678 1.970 . S
Li619 O679 1.956 . S
C620 C622 1.348 1_556 S
C620 C623 1.356 . S
C620 O676 1.325 . S
N621 C624 1.314 . S
N621 C625 1.279 . S
C622 C620 1.348 1_554 S
C622 C624 1.353 . S
C622 H680 0.929 . S
C623 C620 1.356 . S
C623 C625 1.358 1_556 S
C623 H681 0.930 . S
C624 N621 1.314 . S
C624 C622 1.353 . S
C624 H682 0.930 . S
C625 N621 1.279 . S
C625 C623 1.358 1_554 S
C625 H683 0.930 . S
C626 C629 1.306 1_655 S
C626 C630 1.356 1_655 S
C626 O677 1.325 . S
C627 N628 1.279 . S
C627 C630 1.358 . S
C627 H684 0.930 . S
N628 C627 1.279 . S
N628 C631 1.314 . S
C629 C626 1.306 1_455 S
C629 C631 1.413 . S
C629 H685 0.915 1_455 S
C630 C626 1.356 1_455 S
C630 C627 1.358 . S
C630 H686 0.930 . S
C631 N628 1.314 . S
C631 C629 1.413 . S
C631 H687 0.930 . S
C632 N633 1.314 . S
C632 C637 1.353 . S
C632 H638 0.930 . S
N633 Li616 1.990 . S
N633 C632 1.314 . S
N633 C635 1.279 . S
C634 C635 1.358 . S
C634 C636 1.356 . S
C634 H688 0.930 . S
C635 N633 1.279 . S
C635 C634 1.358 . S
C635 H639 0.930 . S
C636 C634 1.356 . S
C636 C637 1.348 . S
C637 C632 1.353 . S
C637 C636 1.348 . S
C637 H689 0.929 . S
H638 C632 0.930 . S
H639 C635 0.930 . S
C640 N641 1.314 1_554 S
C640 C642 1.353 . S
C640 H646 0.930 . S
N641 Li617 1.990 . S
N641 C640 1.314 1_556 S
N641 C644 1.207 1_656 S
C642 C640 1.353 . S
C642 C645 1.348 1_655 S
C642 H690 0.929 . S
C643 C644 1.386 . S
C643 C645 1.356 . S
C643 H691 0.930 . S
C644 N641 1.207 1_454 S
C644 C643 1.386 . S
C644 H647 0.984 1_554 S
C645 C642 1.348 1_455 S
C645 C643 1.356 . S
H646 C640 0.930 . S
H647 C644 0.984 1_556 S
C648 C650 1.348 . S
C648 C651 1.356 . S
C648 O678 1.325 . S
N649 C652 1.314 . S
N649 C653 1.279 . S
C650 C648 1.348 . S
C650 C652 1.353 . S
C650 H692 0.929 . S
C651 C648 1.356 . S
C651 C653 1.358 . S
C651 H693 0.930 . S
C652 N649 1.314 . S
C652 C650 1.353 . S
C652 H694 0.930 . S
C653 N649 1.279 . S
C653 C651 1.358 . S
C653 H695 0.930 . S
C654 C655 1.348 . S
C654 C656 1.356 . S
C654 O679 1.325 . S
C655 C654 1.348 . S
C655 C657 1.353 . S
C655 H696 0.929 . S
C656 C654 1.356 . S
C656 C658 1.358 . S
C656 H697 0.930 . S
C657 C655 1.353 . S
C657 N659 1.314 . S
C657 H698 0.930 . S
C658 C656 1.358 . S
C658 N659 1.279 . S
C658 H699 0.930 . S
N659 C657 1.314 . S
N659 C658 1.279 . S
C660 C662 1.353 . S
C660 N663 1.314 . S
C660 H666 0.930 . S
C661 N663 1.279 . S
C661 C664 1.358 . S
C661 H667 0.930 . S
C662 C660 1.353 . S
C662 C665 1.348 . S
C662 H700 0.929 . S
N663 Li618 1.990 . S
N663 C660 1.314 . S
N663 C661 1.279 . S
C664 C661 1.358 . S
C664 C665 1.356 . S
C664 H701 0.930 . S
C665 C662 1.348 . S
C665 C664 1.356 . S
H666 C660 0.930 . S
H667 C661 0.930 . S
C668 N669 1.314 . S
C668 C670 1.353 . S
C668 H674 0.930 . S
N669 Li619 1.990 . S
N669 C668 1.314 . S
N669 C672 1.279 . S
C670 C668 1.353 . S
C670 C673 1.348 . S
C670 H702 0.929 1_655 S
C671 C672 1.358 . S
C671 C673 1.356 . S
C671 H703 0.930 . S
C672 N669 1.279 . S
C672 C671 1.358 . S
C672 H675 0.930 . S
C673 C670 1.348 . S
C673 C671 1.356 . S
H674 C668 0.930 . S
H675 C672 0.930 . S
O676 Li616 1.956 . S
O676 Li617 1.970 . S
O676 Li618 1.961 . S
O676 C620 1.325 . S
O677 Li616 1.970 . S
O677 Li617 1.956 . S
O677 Li619 1.961 . S
O677 C626 1.325 . S
O678 Li616 1.961 . S
O678 Li618 1.956 . S
O678 Li619 1.970 . S
O678 C648 1.325 . S
O679 Li617 1.961 . S
O679 Li618 1.970 . S
O679 Li619 1.956 . S
O679 C654 1.325 . S
H680 C622 0.929 . S
H681 C623 0.930 . S
H682 C624 0.930 . S
H683 C625 0.930 . S
H684 C627 0.930 . S
H685 C629 0.915 1_655 S
H686 C630 0.930 . S
H687 C631 0.930 . S
H688 C634 0.930 . S
H689 C637 0.929 . S
H690 C642 0.929 . S
H691 C643 0.930 . S
H692 C650 0.929 . S
H693 C651 0.930 . S
H694 C652 0.930 . S
H695 C653 0.930 . S
H696 C655 0.929 . S
H697 C656 0.930 . S
H698 C657 0.930 . S
H699 C658 0.930 . S
H700 C662 0.929 . S
H701 C664 0.930 . S
H702 C670 0.929 1_455 S
H703 C671 0.930 . S
Li704 N721 1.990 . S
Li704 O764 1.956 . S
Li704 O765 1.970 . S
Li704 O766 1.961 . S
Li705 N729 1.990 . S
Li705 O764 1.970 . S
Li705 O765 1.956 . S
Li705 O767 1.961 . S
Li706 N751 1.990 . S
Li706 O764 1.961 . S
Li706 O766 1.956 . S
Li706 O767 1.970 . S
Li707 N757 1.990 . S
Li707 O765 1.961 . S
Li707 O766 1.970 . S
Li707 O767 1.956 . S
C708 C710 1.363 1_565 S
C708 C711 1.356 1_565 S
C708 O764 1.325 . S
N709 C712 1.314 . S
N709 C713 1.279 . S
C710 C708 1.363 1_545 S
C710 C712 1.396 . S
C710 H768 0.874 1_545 S
C711 C708 1.356 1_545 S
C711 C713 1.358 . S
C711 H769 0.930 . S
C712 N709 1.314 . S
C712 C710 1.396 . S
C712 H770 0.930 . S
C713 N709 1.279 . S
C713 C711 1.358 . S
C713 H771 0.930 . S
C714 C717 1.348 . S
C714 C718 1.356 . S
C714 O765 1.325 . S
C715 N716 1.279 . S
C715 C718 1.358 . S
C715 H772 0.930 . S
N716 C715 1.279 . S
N716 C719 1.314 . S
C717 C714 1.348 . S
C717 C719 1.353 . S
C717 H773 0.929 . S
C718 C714 1.356 . S
C718 C715 1.358 . S
C718 H774 0.930 . S
C719 N716 1.314 . S
C719 C717 1.353 . S
C719 H775 0.930 . S
C720 N721 1.314 . S
C720 C725 1.353 . S
C720 H726 0.930 . S
N721 Li704 1.990 . S
N721 C720 1.314 . S
N721 C723 1.238 1_565 S
C722 C723 1.407 . S
C722 C724 1.356 . S
C722 H776 0.930 . S
C723 N721 1.238 1_545 S
C723 C722 1.407 . S
C723 H727 0.928 . S
C724 C722 1.356 . S
C724 C725 1.348 1_545 S
C725 C720 1.353 . S
C725 C724 1.348 1_565 S
C725 H777 0.929 . S
H726 C720 0.930 . S
H727 C723 0.928 . S
C728 N729 1.314 . S
C728 C730 1.353 . S
C728 H734 0.930 . S
N729 Li705 1.990 . S
N729 C728 1.314 . S
N729 C732 1.279 . S
C730 C728 1.353 . S
C730 C733 1.348 . S
C730 H778 0.929 . S
C731 C732 1.358 . S
C731 C733 1.356 . S
C731 H779 0.930 . S
C732 N729 1.279 . S
C732 C731 1.358 . S
C732 H735 0.930 . S
C733 C730 1.348 . S
C733 C731 1.356 . S
H734 C728 0.930 . S
H735 C732 0.930 . S
C736 C738 1.348 . S
C736 C739 1.356 . S
C736 O766 1.325 . S
N737 C740 1.314 . S
N737 C741 1.279 . S
C738 C736 1.348 . S
C738 C740 1.353 . S
C738 H780 0.929 . S
C739 C736 1.356 . S
C739 C741 1.358 . S
C739 H781 0.930 . S
C740 N737 1.314 . S
C740 C738 1.353 . S
C740 H782 0.930 . S
C741 N737 1.279 . S
C741 C739 1.358 . S
C741 H783 0.930 . S
C742 C743 1.348 . S
C742 C744 1.356 . S
C742 O767 1.325 . S
C743 C742 1.348 . S
C743 C745 1.353 . S
C743 H784 0.929 . S
C744 C742 1.356 . S
C744 C746 1.358 . S
C744 H785 0.930 . S
C745 C743 1.353 . S
C745 N747 1.314 . S
C745 H786 0.930 . S
C746 C744 1.358 . S
C746 N747 1.279 . S
C746 H787 0.930 . S
N747 C745 1.314 . S
N747 C746 1.279 . S
C748 C750 1.353 . S
C748 N751 1.314 . S
C748 H754 0.930 . S
C749 N751 1.279 . S
C749 C752 1.358 . S
C749 H755 0.930 . S
C750 C748 1.353 . S
C750 C753 1.348 . S
C750 H788 0.929 1_565 S
N751 Li706 1.990 . S
N751 C748 1.314 . S
N751 C749 1.279 . S
C752 C749 1.358 . S
C752 C753 1.356 . S
C752 H789 0.930 . S
C753 C750 1.348 . S
C753 C752 1.356 . S
H754 C748 0.930 . S
H755 C749 0.930 . S
C756 N757 1.314 . S
C756 C758 1.353 . S
C756 H762 0.930 . S
N757 Li707 1.990 . S
N757 C756 1.314 . S
N757 C760 1.279 . S
C758 C756 1.353 . S
C758 C761 1.348 . S
C758 H790 0.929 . S
C759 C760 1.358 . S
C759 C761 1.356 . S
C759 H791 0.930 . S
C760 N757 1.279 . S
C760 C759 1.358 . S
C760 H763 0.930 . S
C761 C758 1.348 . S
C761 C759 1.356 . S
H762 C756 0.930 . S
H763 C760 0.930 . S
O764 Li704 1.956 . S
O764 Li705 1.970 . S
O764 Li706 1.961 . S
O764 C708 1.325 . S
O765 Li704 1.970 . S
O765 Li705 1.956 . S
O765 Li707 1.961 . S
O765 C714 1.325 . S
O766 Li704 1.961 . S
O766 Li706 1.956 . S
O766 Li707 1.970 . S
O766 C736 1.325 . S
O767 Li705 1.961 . S
O767 Li706 1.970 . S
O767 Li707 1.956 . S
O767 C742 1.325 . S
H768 C710 0.874 1_565 S
H769 C711 0.930 . S
H770 C712 0.930 . S
H771 C713 0.930 . S
H772 C715 0.930 . S
H773 C717 0.929 . S
H774 C718 0.930 . S
H775 C719 0.930 . S
H776 C722 0.930 . S
H777 C725 0.929 . S
H778 C730 0.929 . S
H779 C731 0.930 . S
H780 C738 0.929 . S
H781 C739 0.930 . S
H782 C740 0.930 . S
H783 C741 0.930 . S
H784 C743 0.929 . S
H785 C744 0.930 . S
H786 C745 0.930 . S
H787 C746 0.930 . S
H788 C750 0.929 1_545 S
H789 C752 0.930 . S
H790 C758 0.929 . S
H791 C759 0.930 . S
Li792 N809 1.990 . S
Li792 O852 1.956 . S
Li792 O853 1.970 . S
Li792 O854 1.961 . S
Li793 N817 1.990 . S
Li793 O852 1.970 . S
Li793 O853 1.956 . S
Li793 O855 1.961 . S
Li794 N839 1.990 . S
Li794 O852 1.961 . S
Li794 O854 1.956 . S
Li794 O855 1.970 . S
Li795 N845 1.990 . S
Li795 O853 1.961 . S
Li795 O854 1.970 . S
Li795 O855 1.956 . S
C796 C798 1.348 . S
C796 C799 1.356 . S
C796 O852 1.325 . S
N797 C800 1.314 . S
N797 C801 1.279 . S
C798 C796 1.348 . S
C798 C800 1.353 . S
C798 H856 0.929 . S
C799 C796 1.356 . S
C799 C801 1.358 . S
C799 H857 0.930 . S
C800 N797 1.314 . S
C800 C798 1.353 . S
C800 H858 0.930 . S
C801 N797 1.279 . S
C801 C799 1.358 . S
C801 H859 0.930 . S
C802 C805 1.348 . S
C802 C806 1.356 . S
C802 O853 1.325 . S
C803 N804 1.279 . S
C803 C806 1.358 . S
C803 H860 0.930 . S
N804 C803 1.279 . S
N804 C807 1.314 . S
C805 C802 1.348 . S
C805 C807 1.353 . S
C805 H861 0.929 . S
C806 C802 1.356 . S
C806 C803 1.358 . S
C806 H862 0.930 . S
C807 N804 1.314 . S
C807 C805 1.353 . S
C807 H863 0.930 . S
C808 N809 1.314 . S
C808 C813 1.353 . S
C808 H814 0.930 . S
N809 Li792 1.990 . S
N809 C808 1.314 . S
N809 C811 1.279 . S
C810 C811 1.358 . S
C810 C812 1.356 . S
C810 H864 0.930 . S
C811 N809 1.279 . S
C811 C810 1.358 . S
C811 H815 0.930 . S
C812 C810 1.356 . S
C812 C813 1.348 . S
C813 C808 1.353 . S
C813 C812 1.348 . S
C813 H865 0.929 . S
H814 C808 0.930 . S
H815 C811 0.930 . S
C816 N817 1.314 . S
C816 C818 1.353 . S
C816 H822 0.930 . S
N817 Li793 1.990 . S
N817 C816 1.314 . S
N817 C820 1.279 . S
C818 C816 1.353 . S
C818 C821 1.348 . S
C818 H866 0.929 . S
C819 C820 1.358 . S
C819 C821 1.356 . S
C819 H867 0.930 . S
C820 N817 1.279 . S
C820 C819 1.358 . S
C820 H823 0.930 . S
C821 C818 1.348 . S
C821 C819 1.356 . S
H822 C816 0.930 . S
H823 C820 0.930 . S
C824 C826 1.348 . S
C824 C827 1.356 . S
C824 O854 1.325 . S
N825 C828 1.314 . S
N825 C829 1.279 . S
C826 C824 1.348 . S
C826 C828 1.353 . S
C826 H868 0.929 . S
C827 C824 1.356 . S
C827 C829 1.358 . S
C827 H869 0.930 . S
C828 N825 1.314 . S
C828 C826 1.353 . S
C828 H870 0.930 . S
C829 N825 1.279 . S
C829 C827 1.358 . S
C829 H871 0.930 . S
C830 C831 1.348 . S
C830 C832 1.356 . S
C830 O855 1.325 . S
C831 C830 1.348 . S
C831 C833 1.353 . S
C831 H872 0.929 . S
C832 C830 1.356 . S
C832 C834 1.358 . S
C832 H873 0.930 . S
C833 C831 1.353 . S
C833 N835 1.314 . S
C833 H874 0.930 . S
C834 C832 1.358 . S
C834 N835 1.279 . S
C834 H875 0.930 . S
N835 C833 1.314 . S
N835 C834 1.279 . S
C836 C838 1.353 . S
C836 N839 1.314 . S
C836 H842 0.930 . S
C837 N839 1.279 . S
C837 C840 1.358 . S
C837 H843 0.930 . S
C838 C836 1.353 . S
C838 C841 1.348 . S
C838 H876 0.929 . S
N839 Li794 1.990 . S
N839 C836 1.314 . S
N839 C837 1.279 . S
C840 C837 1.358 . S
C840 C841 1.356 . S
C840 H877 0.930 . S
C841 C838 1.348 . S
C841 C840 1.356 . S
H842 C836 0.930 . S
H843 C837 0.930 . S
C844 N845 1.314 . S
C844 C846 1.353 . S
C844 H850 0.930 . S
N845 Li795 1.990 . S
N845 C844 1.314 . S
N845 C848 1.279 . S
C846 C844 1.353 . S
C846 C849 1.348 . S
C846 H878 0.929 . S
C847 C848 1.358 . S
C847 C849 1.356 . S
C847 H879 0.930 . S
C848 N845 1.279 . S
C848 C847 1.358 . S
C848 H851 0.930 . S
C849 C846 1.348 . S
C849 C847 1.356 . S
H850 C844 0.930 . S
H851 C848 0.930 . S
O852 Li792 1.956 . S
O852 Li793 1.970 . S
O852 Li794 1.961 . S
O852 C796 1.325 . S
O853 Li792 1.970 . S
O853 Li793 1.956 . S
O853 Li795 1.961 . S
O853 C802 1.325 . S
O854 Li792 1.961 . S
O854 Li794 1.956 . S
O854 Li795 1.970 . S
O854 C824 1.325 . S
O855 Li793 1.961 . S
O855 Li794 1.970 . S
O855 Li795 1.956 . S
O855 C830 1.325 . S
H856 C798 0.929 . S
H857 C799 0.930 . S
H858 C800 0.930 . S
H859 C801 0.930 . S
H860 C803 0.930 . S
H861 C805 0.929 . S
H862 C806 0.930 . S
H863 C807 0.930 . S
H864 C810 0.930 . S
H865 C813 0.929 . S
H866 C818 0.929 . S
H867 C819 0.930 . S
H868 C826 0.929 . S
H869 C827 0.930 . S
H870 C828 0.930 . S
H871 C829 0.930 . S
H872 C831 0.929 . S
H873 C832 0.930 . S
H874 C833 0.930 . S
H875 C834 0.930 . S
H876 C838 0.929 . S
H877 C840 0.930 . S
H878 C846 0.929 . S
H879 C847 0.930 . S
Li880 N897 1.990 . S
Li880 O940 1.956 . S
Li880 O941 1.970 . S
Li880 O942 1.961 . S
Li881 N905 1.990 . S
Li881 O940 1.970 . S
Li881 O941 1.956 . S
Li881 O943 1.961 . S
Li882 N927 1.990 . S
Li882 O940 1.961 . S
Li882 O942 1.956 . S
Li882 O943 1.970 . S
Li883 N933 1.990 . S
Li883 O941 1.961 . S
Li883 O942 1.970 . S
Li883 O943 1.956 . S
C884 C886 1.348 1_556 S
C884 C887 1.356 . S
C884 O940 1.325 . S
N885 C888 1.314 . S
N885 C889 1.279 . S
C886 C884 1.348 1_554 S
C886 C888 1.353 . S
C886 H944 0.929 . S
C887 C884 1.356 . S
C887 C889 1.358 1_556 S
C887 H945 0.930 . S
C888 N885 1.314 . S
C888 C886 1.353 . S
C888 H946 0.930 . S
C889 N885 1.279 . S
C889 C887 1.358 1_554 S
C889 H947 0.930 . S
C890 C893 1.306 1_455 S
C890 C894 1.356 1_455 S
C890 O941 1.325 . S
C891 N892 1.279 . S
C891 C894 1.358 . S
C891 H948 0.930 . S
N892 C891 1.279 . S
N892 C895 1.314 . S
C893 C890 1.306 1_655 S
C893 C895 1.413 . S
C893 H949 0.915 1_655 S
C894 C890 1.356 1_655 S
C894 C891 1.358 . S
C894 H950 0.930 . S
C895 N892 1.314 . S
C895 C893 1.413 . S
C895 H951 0.930 . S
C896 N897 1.314 . S
C896 C901 1.353 . S
C896 H902 0.930 . S
N897 Li880 1.990 . S
N897 C896 1.314 . S
N897 C899 1.279 . S
C898 C899 1.358 . S
C898 C900 1.356 . S
C898 H952 0.930 . S
C899 N897 1.279 . S
C899 C898 1.358 . S
C899 H903 0.930 . S
C900 C898 1.356 . S
C900 C901 1.348 . S
C901 C896 1.353 . S
C901 C900 1.348 . S
C901 H953 0.929 . S
H902 C896 0.930 . S
H903 C899 0.930 . S
C904 N905 1.314 1_554 S
C904 C906 1.353 . S
C904 H910 0.930 . S
N905 Li881 1.990 . S
N905 C904 1.314 1_556 S
N905 C908 1.207 1_456 S
C906 C904 1.353 . S
C906 C909 1.348 1_455 S
C906 H954 0.929 . S
C907 C908 1.386 . S
C907 C909 1.356 . S
C907 H955 0.930 . S
C908 N905 1.207 1_654 S
C908 C907 1.386 . S
C908 H911 0.984 1_554 S
C909 C906 1.348 1_655 S
C909 C907 1.356 . S
H910 C904 0.930 . S
H911 C908 0.984 1_556 S
C912 C914 1.348 . S
C912 C915 1.356 . S
C912 O942 1.325 . S
N913 C916 1.314 . S
N913 C917 1.279 . S
C914 C912 1.348 . S
C914 C916 1.353 . S
C914 H956 0.929 . S
C915 C912 1.356 . S
C915 C917 1.358 . S
C915 H957 0.930 . S
C916 N913 1.314 . S
C916 C914 1.353 . S
C916 H958 0.930 . S
C917 N913 1.279 . S
C917 C915 1.358 . S
C917 H959 0.930 . S
C918 C919 1.348 . S
C918 C920 1.356 . S
C918 O943 1.325 . S
C919 C918 1.348 . S
C919 C921 1.353 . S
C919 H960 0.929 . S
C920 C918 1.356 . S
C920 C922 1.358 . S
C920 H961 0.930 . S
C921 C919 1.353 . S
C921 N923 1.314 . S
C921 H962 0.930 . S
C922 C920 1.358 . S
C922 N923 1.279 . S
C922 H963 0.930 . S
N923 C921 1.314 . S
N923 C922 1.279 . S
C924 C926 1.353 . S
C924 N927 1.314 . S
C924 H930 0.930 . S
C925 N927 1.279 . S
C925 C928 1.358 . S
C925 H931 0.930 . S
C926 C924 1.353 . S
C926 C929 1.348 . S
C926 H964 0.929 . S
N927 Li882 1.990 . S
N927 C924 1.314 . S
N927 C925 1.279 . S
C928 C925 1.358 . S
C928 C929 1.356 . S
C928 H965 0.930 . S
C929 C926 1.348 . S
C929 C928 1.356 . S
H930 C924 0.930 . S
H931 C925 0.930 . S
C932 N933 1.314 . S
C932 C934 1.353 . S
C932 H938 0.930 . S
N933 Li883 1.990 . S
N933 C932 1.314 . S
N933 C936 1.279 . S
C934 C932 1.353 . S
C934 C937 1.348 . S
C934 H966 0.929 1_455 S
C935 C936 1.358 . S
C935 C937 1.356 . S
C935 H967 0.930 . S
C936 N933 1.279 . S
C936 C935 1.358 . S
C936 H939 0.930 . S
C937 C934 1.348 . S
C937 C935 1.356 . S
H938 C932 0.930 . S
H939 C936 0.930 . S
O940 Li880 1.956 . S
O940 Li881 1.970 . S
O940 Li882 1.961 . S
O940 C884 1.325 . S
O941 Li880 1.970 . S
O941 Li881 1.956 . S
O941 Li883 1.961 . S
O941 C890 1.325 . S
O942 Li880 1.961 . S
O942 Li882 1.956 . S
O942 Li883 1.970 . S
O942 C912 1.325 . S
O943 Li881 1.961 . S
O943 Li882 1.970 . S
O943 Li883 1.956 . S
O943 C918 1.325 . S
H944 C886 0.929 . S
H945 C887 0.930 . S
H946 C888 0.930 . S
H947 C889 0.930 . S
H948 C891 0.930 . S
H949 C893 0.915 1_455 S
H950 C894 0.930 . S
H951 C895 0.930 . S
H952 C898 0.930 . S
H953 C901 0.929 . S
H954 C906 0.929 . S
H955 C907 0.930 . S
H956 C914 0.929 . S
H957 C915 0.930 . S
H958 C916 0.930 . S
H959 C917 0.930 . S
H960 C919 0.929 . S
H961 C920 0.930 . S
H962 C921 0.930 . S
H963 C922 0.930 . S
H964 C926 0.929 . S
H965 C928 0.930 . S
H966 C934 0.929 1_655 S
H967 C935 0.930 . S
Li968 N985 1.990 . S
Li968 O1028 1.956 . S
Li968 O1029 1.970 . S
Li968 O1030 1.961 . S
Li969 N993 1.990 . S
Li969 O1028 1.970 . S
Li969 O1029 1.956 . S
Li969 O1031 1.961 . S
Li970 N1015 1.990 . S
Li970 O1028 1.961 . S
Li970 O1030 1.956 . S
Li970 O1031 1.970 . S
Li971 N1021 1.990 . S
Li971 O1029 1.961 . S
Li971 O1030 1.970 . S
Li971 O1031 1.956 . S
C972 C974 1.348 . S
C972 C975 1.356 . S
C972 O1028 1.325 . S
N973 C976 1.314 . S
N973 C977 1.279 . S
C974 C972 1.348 . S
C974 C976 1.353 . S
C974 H1032 0.929 . S
C975 C972 1.356 . S
C975 C977 1.358 . S
C975 H1033 0.930 . S
C976 N973 1.314 . S
C976 C974 1.353 . S
C976 H1034 0.930 . S
C977 N973 1.279 . S
C977 C975 1.358 . S
C977 H1035 0.930 . S
C978 C981 1.363 1_545 S
C978 C982 1.356 1_545 S
C978 O1029 1.325 . S
C979 N980 1.279 . S
C979 C982 1.358 . S
C979 H1036 0.930 . S
N980 C979 1.279 . S
N980 C983 1.314 . S
C981 C978 1.363 1_565 S
C981 C983 1.396 . S
C981 H1037 0.874 1_565 S
C982 C978 1.356 1_565 S
C982 C979 1.358 . S
C982 H1038 0.930 . S
C983 N980 1.314 . S
C983 C981 1.396 . S
C983 H1039 0.930 . S
C984 N985 1.314 . S
C984 C989 1.353 . S
C984 H990 0.930 . S
N985 Li968 1.990 . S
N985 C984 1.314 . S
N985 C987 1.279 . S
C986 C987 1.358 . S
C986 C988 1.356 . S
C986 H1040 0.930 . S
C987 N985 1.279 . S
C987 C986 1.358 . S
C987 H991 0.930 . S
C988 C986 1.356 . S
C988 C989 1.348 . S
C989 C984 1.353 . S
C989 C988 1.348 . S
C989 H1041 0.929 . S
H990 C984 0.930 . S
H991 C987 0.930 . S
C992 N993 1.314 . S
C992 C994 1.353 . S
C992 H998 0.930 . S
N993 Li969 1.990 . S
N993 C992 1.314 . S
N993 C996 1.238 1_545 S
C994 C992 1.353 . S
C994 C997 1.348 1_545 S
C994 H1042 0.929 . S
C995 C996 1.407 . S
C995 C997 1.356 . S
C995 H1043 0.930 . S
C996 N993 1.238 1_565 S
C996 C995 1.407 . S
C996 H999 0.928 . S
C997 C994 1.348 1_565 S
C997 C995 1.356 . S
H998 C992 0.930 . S
H999 C996 0.928 . S
C1000 C1002 1.348 . S
C1000 C1003 1.356 . S
C1000 O1030 1.325 . S
N1001 C1004 1.314 . S
N1001 C1005 1.279 . S
C1002 C1000 1.348 . S
C1002 C1004 1.353 . S
C1002 H1044 0.929 . S
C1003 C1000 1.356 . S
C1003 C1005 1.358 . S
C1003 H1045 0.930 . S
C1004 N1001 1.314 . S
C1004 C1002 1.353 . S
C1004 H1046 0.930 . S
C1005 N1001 1.279 . S
C1005 C1003 1.358 . S
C1005 H1047 0.930 . S
C1006 C1007 1.348 . S
C1006 C1008 1.356 . S
C1006 O1031 1.325 . S
C1007 C1006 1.348 . S
C1007 C1009 1.353 . S
C1007 H1048 0.929 . S
C1008 C1006 1.356 . S
C1008 C1010 1.358 . S
C1008 H1049 0.930 . S
C1009 C1007 1.353 . S
C1009 N1011 1.314 . S
C1009 H1050 0.930 . S
C1010 C1008 1.358 . S
C1010 N1011 1.279 . S
C1010 H1051 0.930 . S
N1011 C1009 1.314 . S
N1011 C1010 1.279 . S
C1012 C1014 1.353 . S
C1012 N1015 1.314 . S
C1012 H1018 0.930 . S
C1013 N1015 1.279 . S
C1013 C1016 1.358 . S
C1013 H1019 0.930 . S
C1014 C1012 1.353 . S
C1014 C1017 1.348 . S
C1014 H1052 0.929 . S
N1015 Li970 1.990 . S
N1015 C1012 1.314 . S
N1015 C1013 1.279 . S
C1016 C1013 1.358 . S
C1016 C1017 1.356 . S
C1016 H1053 0.930 . S
C1017 C1014 1.348 . S
C1017 C1016 1.356 . S
H1018 C1012 0.930 . S
H1019 C1013 0.930 . S
C1020 N1021 1.314 . S
C1020 C1022 1.353 . S
C1020 H1026 0.930 . S
N1021 Li971 1.990 . S
N1021 C1020 1.314 . S
N1021 C1024 1.279 . S
C1022 C1020 1.353 . S
C1022 C1025 1.348 . S
C1022 H1054 0.929 1_545 S
C1023 C1024 1.358 . S
C1023 C1025 1.356 . S
C1023 H1055 0.930 . S
C1024 N1021 1.279 . S
C1024 C1023 1.358 . S
C1024 H1027 0.930 . S
C1025 C1022 1.348 . S
C1025 C1023 1.356 . S
H1026 C1020 0.930 . S
H1027 C1024 0.930 . S
O1028 Li968 1.956 . S
O1028 Li969 1.970 . S
O1028 Li970 1.961 . S
O1028 C972 1.325 . S
O1029 Li968 1.970 . S
O1029 Li969 1.956 . S
O1029 Li971 1.961 . S
O1029 C978 1.325 . S
O1030 Li968 1.961 . S
O1030 Li970 1.956 . S
O1030 Li971 1.970 . S
O1030 C1000 1.325 . S
O1031 Li969 1.961 . S
O1031 Li970 1.970 . S
O1031 Li971 1.956 . S
O1031 C1006 1.325 . S
H1032 C974 0.929 . S
H1033 C975 0.930 . S
H1034 C976 0.930 . S
H1035 C977 0.930 . S
H1036 C979 0.930 . S
H1037 C981 0.874 1_545 S
H1038 C982 0.930 . S
H1039 C983 0.930 . S
H1040 C986 0.930 . S
H1041 C989 0.929 . S
H1042 C994 0.929 . S
H1043 C995 0.930 . S
H1044 C1002 0.929 . S
H1045 C1003 0.930 . S
H1046 C1004 0.930 . S
H1047 C1005 0.930 . S
H1048 C1007 0.929 . S
H1049 C1008 0.930 . S
H1050 C1009 0.930 . S
H1051 C1010 0.930 . S
H1052 C1014 0.929 . S
H1053 C1016 0.930 . S
H1054 C1022 0.929 1_565 S
H1055 C1023 0.930 . S
H1056 C1064 0.929 . S
H1057 C1066 0.930 . S
H1058 C1068 0.930 . S
H1059 C1071 0.929 . S
H1060 C1074 0.930 . S
H1061 C1076 0.960 . S
H1062 C1076 0.960 . S
H1063 C1076 0.960 . S
C1064 H1056 0.929 . S
C1064 C1065 1.377 . S
C1064 C1066 1.384 . S
C1065 C1064 1.377 . S
C1065 C1071 1.390 . S
C1066 H1057 0.930 . S
C1066 C1064 1.384 . S
C1066 C1067 1.372 . S
C1067 C1066 1.372 . S
C1067 C1068 1.400 . S
C1067 C1072 1.490 . S
C1068 H1058 0.930 . S
C1068 C1067 1.400 . S
C1068 C1071 1.386 . S
H1069 C1085 0.930 . S
H1070 C1086 0.931 . S
C1071 H1059 0.929 . S
C1071 C1065 1.390 . S
C1071 C1068 1.386 . S
C1072 C1067 1.490 . S
C1072 C1074 1.395 . S
C1072 C1075 1.403 . S
H1073 C1079 0.930 . S
C1074 H1060 0.930 . S
C1074 C1072 1.395 . S
C1074 C1077 1.403 . S
C1075 C1072 1.403 . S
C1075 C1076 1.524 . S
C1075 C1079 1.400 . S
C1076 H1061 0.960 . S
C1076 H1062 0.960 . S
C1076 H1063 0.960 . S
C1076 C1075 1.524 . S
C1077 C1074 1.403 . S
C1077 C1078 1.392 . S
C1077 C1081 1.495 . S
C1078 C1077 1.392 . S
C1078 C1079 1.385 . S
C1078 C1080 1.478 . S
C1079 H1073 0.930 . S
C1079 C1075 1.400 . S
C1079 C1078 1.385 . S
C1080 C1078 1.478 . S
C1080 C1082 1.381 . S
C1080 C1086 1.383 . S
C1081 C1077 1.495 . S
C1081 H1087 0.959 . S
C1081 H1088 0.961 . S
C1081 H1089 0.960 . S
C1082 C1080 1.381 . S
C1082 C1083 1.394 . S
C1082 H1090 0.930 . S
C1083 C1082 1.394 . S
C1083 C1084 1.383 . S
C1083 H1091 0.929 . S
C1084 C1083 1.383 . S
C1084 C1085 1.377 . S
C1085 H1069 0.930 . S
C1085 C1084 1.377 . S
C1085 C1086 1.379 . S
C1086 H1070 0.931 . S
C1086 C1080 1.383 . S
C1086 C1085 1.379 . S
H1087 C1081 0.959 . S
H1088 C1081 0.961 . S
H1089 C1081 0.960 . S
H1090 C1082 0.930 . S
H1091 C1083 0.929 . S
H1092 C1100 0.929 . S
H1093 C1102 0.882 1_455 S
H1094 C1104 0.930 . S
H1095 C1107 0.929 . S
H1096 C1110 0.930 . S
H1097 C1112 0.960 . S
H1098 C1112 0.960 . S
H1099 C1112 0.960 . S
C1100 H1092 0.929 . S
C1100 C1101 1.377 . S
C1100 C1102 1.389 . S
C1101 C1100 1.377 . S
C1101 C1107 1.390 . S
C1102 H1093 0.882 1_655 S
C1102 C1100 1.389 . S
C1102 C1103 1.404 . S
C1103 C1102 1.404 . S
C1103 C1104 1.400 . S
C1103 C1108 1.491 . S
C1104 H1094 0.930 . S
C1104 C1103 1.400 . S
C1104 C1107 1.386 . S
H1105 C1121 0.930 . S
H1106 C1122 0.931 . S
C1107 H1095 0.929 . S
C1107 C1101 1.390 . S
C1107 C1104 1.386 . S
C1108 C1103 1.491 . S
C1108 C1110 1.378 1_655 S
C1108 C1111 1.418 . S
H1109 C1115 0.930 . S
C1110 H1096 0.930 . S
C1110 C1108 1.378 1_455 S
C1110 C1113 1.403 . S
C1111 C1108 1.418 . S
C1111 C1112 1.524 . S
C1111 C1115 1.400 . S
C1112 H1097 0.960 . S
C1112 H1098 0.960 . S
C1112 H1099 0.960 . S
C1112 C1111 1.524 . S
C1113 C1110 1.403 . S
C1113 C1114 1.392 . S
C1113 C1117 1.495 . S
C1114 C1113 1.392 . S
C1114 C1115 1.385 1_455 S
C1114 C1116 1.478 . S
C1115 H1109 0.930 . S
C1115 C1111 1.400 . S
C1115 C1114 1.385 1_655 S
C1116 C1114 1.478 . S
C1116 C1118 1.381 . S
C1116 C1122 1.383 . S
C1117 C1113 1.495 . S
C1117 H1123 0.959 . S
C1117 H1124 0.961 . S
C1117 H1125 0.960 . S
C1118 C1116 1.381 . S
C1118 C1119 1.394 . S
C1118 H1126 0.930 . S
C1119 C1118 1.394 . S
C1119 C1120 1.383 . S
C1119 H1127 0.929 . S
C1120 C1119 1.383 . S
C1120 C1121 1.377 . S
C1121 H1105 0.930 . S
C1121 C1120 1.377 . S
C1121 C1122 1.379 . S
C1122 H1106 0.931 . S
C1122 C1116 1.383 . S
C1122 C1121 1.379 . S
H1123 C1117 0.959 . S
H1124 C1117 0.961 . S
H1125 C1117 0.960 . S
H1126 C1118 0.930 . S
H1127 C1119 0.929 . S
H1128 C1136 0.929 . S
H1129 C1138 0.930 . S
H1130 C1140 0.930 . S
H1131 C1143 0.929 . S
H1132 C1146 0.930 . S
H1133 C1148 0.960 . S
H1134 C1148 0.960 . S
H1135 C1148 0.960 . S
C1136 H1128 0.929 . S
C1136 C1137 1.377 1_545 S
C1136 C1138 1.384 . S
C1137 C1136 1.377 1_565 S
C1137 C1143 1.390 . S
C1138 H1129 0.930 . S
C1138 C1136 1.384 . S
C1138 C1139 1.332 1_545 S
C1139 C1138 1.332 1_565 S
C1139 C1140 1.443 . S
C1139 C1144 1.487 1_565 S
C1140 H1130 0.930 . S
C1140 C1139 1.443 . S
C1140 C1143 1.386 . S
H1141 C1157 0.930 . S
H1142 C1158 0.931 . S
C1143 H1131 0.929 . S
C1143 C1137 1.390 . S
C1143 C1140 1.386 . S
C1144 C1139 1.487 1_545 S
C1144 C1146 1.414 . S
C1144 C1147 1.385 1_545 S
H1145 C1151 0.930 . S
C1146 H1132 0.930 . S
C1146 C1144 1.414 . S
C1146 C1149 1.403 1_556 S
C1147 C1144 1.385 1_565 S
C1147 C1148 1.524 . S
C1147 C1151 1.400 1_556 S
C1148 H1133 0.960 . S
C1148 H1134 0.960 . S
C1148 H1135 0.960 . S
C1148 C1147 1.524 . S
C1149 C1146 1.403 1_554 S
C1149 C1150 1.392 . S
C1149 C1153 1.495 . S
C1150 C1149 1.392 . S
C1150 C1151 1.385 1_545 S
C1150 C1152 1.478 . S
C1151 H1145 0.930 . S
C1151 C1147 1.400 1_554 S
C1151 C1150 1.385 1_565 S
C1152 C1150 1.478 . S
C1152 C1154 1.381 . S
C1152 C1158 1.383 1_545 S
C1153 C1149 1.495 . S
C1153 H1159 0.959 . S
C1153 H1160 0.961 . S
C1153 H1161 0.960 . S
C1154 C1152 1.381 . S
C1154 C1155 1.394 . S
C1154 H1162 0.930 . S
C1155 C1154 1.394 . S
C1155 C1156 1.383 . S
C1155 H1163 0.929 . S
C1156 C1155 1.383 . S
C1156 C1157 1.377 1_545 S
C1157 H1141 0.930 . S
C1157 C1156 1.377 1_565 S
C1157 C1158 1.379 . S
C1158 H1142 0.931 . S
C1158 C1152 1.383 1_565 S
C1158 C1157 1.379 . S
H1159 C1153 0.959 . S
H1160 C1153 0.961 . S
H1161 C1153 0.960 . S
H1162 C1154 0.930 . S
H1163 C1155 0.929 . S
H1164 C1172 0.929 . S
H1165 C1174 0.930 . S
H1166 C1176 0.930 . S
H1167 C1179 0.929 . S
H1168 C1182 0.930 . S
H1169 C1184 0.960 . S
H1170 C1184 0.960 . S
H1171 C1184 0.960 . S
C1172 H1164 0.929 . S
C1172 C1173 1.377 . S
C1172 C1174 1.384 . S
C1173 C1172 1.377 . S
C1173 C1179 1.390 . S
C1174 H1165 0.930 . S
C1174 C1172 1.384 . S
C1174 C1175 1.372 . S
C1175 C1174 1.372 . S
C1175 C1176 1.400 . S
C1175 C1180 1.490 . S
C1176 H1166 0.930 . S
C1176 C1175 1.400 . S
C1176 C1179 1.386 . S
H1177 C1193 0.930 . S
H1178 C1194 0.931 . S
C1179 H1167 0.929 . S
C1179 C1173 1.390 . S
C1179 C1176 1.386 . S
C1180 C1175 1.490 . S
C1180 C1182 1.395 . S
C1180 C1183 1.403 . S
H1181 C1187 0.930 . S
C1182 H1168 0.930 . S
C1182 C1180 1.395 . S
C1182 C1185 1.403 . S
C1183 C1180 1.403 . S
C1183 C1184 1.524 . S
C1183 C1187 1.400 . S
C1184 H1169 0.960 . S
C1184 H1170 0.960 . S
C1184 H1171 0.960 . S
C1184 C1183 1.524 . S
C1185 C1182 1.403 . S
C1185 C1186 1.392 . S
C1185 C1189 1.495 . S
C1186 C1185 1.392 . S
C1186 C1187 1.385 . S
C1186 C1188 1.478 . S
C1187 H1181 0.930 . S
C1187 C1183 1.400 . S
C1187 C1186 1.385 . S
C1188 C1186 1.478 . S
C1188 C1190 1.381 . S
C1188 C1194 1.383 . S
C1189 C1185 1.495 . S
C1189 H1195 0.959 . S
C1189 H1196 0.961 . S
C1189 H1197 0.960 . S
C1190 C1188 1.381 . S
C1190 C1191 1.394 . S
C1190 H1198 0.930 . S
C1191 C1190 1.394 . S
C1191 C1192 1.383 . S
C1191 H1199 0.929 . S
C1192 C1191 1.383 . S
C1192 C1193 1.377 . S
C1193 H1177 0.930 . S
C1193 C1192 1.377 . S
C1193 C1194 1.379 . S
C1194 H1178 0.931 . S
C1194 C1188 1.383 . S
C1194 C1193 1.379 . S
H1195 C1189 0.959 . S
H1196 C1189 0.961 . S
H1197 C1189 0.960 . S
H1198 C1190 0.930 . S
H1199 C1191 0.929 . S
H1200 C1208 0.929 . S
H1201 C1210 0.930 . S
H1202 C1212 0.930 . S
H1203 C1215 0.929 . S
H1204 C1218 0.930 . S
H1205 C1220 0.960 . S
H1206 C1220 0.960 . S
H1207 C1220 0.960 . S
C1208 H1200 0.929 . S
C1208 C1209 1.377 1_455 S
C1208 C1210 1.384 . S
C1209 C1208 1.377 1_655 S
C1209 C1215 1.390 . S
C1210 H1201 0.930 . S
C1210 C1208 1.384 . S
C1210 C1211 1.372 1_455 S
C1211 C1210 1.372 1_655 S
C1211 C1212 1.400 . S
C1211 C1216 1.491 . S
C1212 H1202 0.930 . S
C1212 C1211 1.400 . S
C1212 C1215 1.386 . S
H1213 C1229 0.930 . S
H1214 C1230 0.931 . S
C1215 H1203 0.929 . S
C1215 C1209 1.390 . S
C1215 C1212 1.386 . S
C1216 C1211 1.491 . S
C1216 C1218 1.393 . S
C1216 C1219 1.403 1_655 S
H1217 C1223 0.930 . S
C1218 H1204 0.930 . S
C1218 C1216 1.393 . S
C1218 C1221 1.403 . S
C1219 C1216 1.403 1_455 S
C1219 C1220 1.524 . S
C1219 C1223 1.400 . S
C1220 H1205 0.960 . S
C1220 H1206 0.960 . S
C1220 H1207 0.960 . S
C1220 C1219 1.524 . S
C1221 C1218 1.403 . S
C1221 C1222 1.392 . S
C1221 C1225 1.495 . S
C1222 C1221 1.392 . S
C1222 C1223 1.386 1_655 S
C1222 C1224 1.477 1_655 S
C1223 H1217 0.930 . S
C1223 C1219 1.400 . S
C1223 C1222 1.386 1_455 S
C1224 C1222 1.477 1_455 S
C1224 C1226 1.378 . S
C1224 C1230 1.386 1_455 S
C1225 C1221 1.495 . S
C1225 H1231 0.959 . S
C1225 H1232 0.961 . S
C1225 H1233 0.960 . S
C1226 C1224 1.378 . S
C1226 C1227 1.394 . S
C1226 H1234 0.930 . S
C1227 C1226 1.394 . S
C1227 C1228 1.383 . S
C1227 H1235 0.929 . S
C1228 C1227 1.383 . S
C1228 C1229 1.377 1_455 S
C1229 H1213 0.930 . S
C1229 C1228 1.377 1_655 S
C1229 C1230 1.379 . S
C1230 H1214 0.931 . S
C1230 C1224 1.386 1_655 S
C1230 C1229 1.379 . S
H1231 C1225 0.959 . S
H1232 C1225 0.961 . S
H1233 C1225 0.960 . S
H1234 C1226 0.930 . S
H1235 C1227 0.929 . S
H1236 C1244 0.929 . S
H1237 C1246 0.930 . S
H1238 C1248 0.930 . S
H1239 C1251 0.929 . S
H1240 C1254 0.930 . S
H1241 C1256 0.968 . S
H1242 C1256 0.929 1_545 S
H1243 C1256 0.988 . S
C1244 H1236 0.929 . S
C1244 C1245 1.377 1_545 S
C1244 C1246 1.384 . S
C1245 C1244 1.377 1_565 S
C1245 C1251 1.390 . S
C1246 H1237 0.930 . S
C1246 C1244 1.384 . S
C1246 C1247 1.348 1_545 S
C1247 C1246 1.348 1_565 S
C1247 C1248 1.427 . S
C1247 C1252 1.490 1_565 S
C1248 H1238 0.930 . S
C1248 C1247 1.427 . S
C1248 C1251 1.386 . S
H1249 C1265 0.930 . S
H1250 C1266 0.931 . S
C1251 H1239 0.929 . S
C1251 C1245 1.390 . S
C1251 C1248 1.386 . S
C1252 C1247 1.490 1_545 S
C1252 C1254 1.392 . S
C1252 C1255 1.407 1_545 S
H1253 C1259 0.939 1_565 S
C1254 H1240 0.930 . S
C1254 C1252 1.392 . S
C1254 C1257 1.403 1_554 S
C1255 C1252 1.407 1_565 S
C1255 C1256 1.540 . S
C1255 C1259 1.401 1_564 S
C1256 H1241 0.968 . S
C1256 H1242 0.929 1_565 S
C1256 H1243 0.988 . S
C1256 C1255 1.540 . S
C1257 C1254 1.403 1_556 S
C1257 C1258 1.392 . S
C1257 C1261 1.495 . S
C1258 C1257 1.392 . S
C1258 C1259 1.376 . S
C1258 C1260 1.478 . S
C1259 H1253 0.939 1_545 S
C1259 C1255 1.401 1_546 S
C1259 C1258 1.376 . S
C1260 C1258 1.478 . S
C1260 C1262 1.381 . S
C1260 C1266 1.383 1_545 S
C1261 C1257 1.495 . S
C1261 H1267 0.959 . S
C1261 H1268 0.961 1_545 S
C1261 H1269 0.960 . S
C1262 C1260 1.381 . S
C1262 C1263 1.394 . S
C1262 H1270 0.930 . S
C1263 C1262 1.394 . S
C1263 C1264 1.383 . S
C1263 H1271 0.929 . S
C1264 C1263 1.383 . S
C1264 C1265 1.377 1_545 S
C1265 H1249 0.930 . S
C1265 C1264 1.377 1_565 S
C1265 C1266 1.379 . S
C1266 H1250 0.931 . S
C1266 C1260 1.383 1_565 S
C1266 C1265 1.379 . S
H1267 C1261 0.959 . S
H1268 C1261 0.961 1_565 S
H1269 C1261 0.960 . S
H1270 C1262 0.930 . S
H1271 C1263 0.929 . S
H1272 C1280 0.929 . S
H1273 C1282 0.930 . S
H1274 C1284 0.930 . S
H1275 C1287 0.929 . S
H1276 C1290 0.930 . S
H1277 C1292 0.960 . S
H1278 C1292 0.960 . S
H1279 C1292 0.960 . S
C1280 H1272 0.929 . S
C1280 C1281 1.377 . S
C1280 C1282 1.384 . S
C1281 C1280 1.377 . S
C1281 C1287 1.390 . S
C1282 H1273 0.930 . S
C1282 C1280 1.384 . S
C1282 C1283 1.372 . S
C1283 C1282 1.372 . S
C1283 C1284 1.400 . S
C1283 C1288 1.490 . S
C1284 H1274 0.930 . S
C1284 C1283 1.400 . S
C1284 C1287 1.386 . S
H1285 C1301 0.930 . S
H1286 C1302 0.931 . S
C1287 H1275 0.929 . S
C1287 C1281 1.390 . S
C1287 C1284 1.386 . S
C1288 C1283 1.490 . S
C1288 C1290 1.395 . S
C1288 C1291 1.403 1_556 S
H1289 C1295 0.930 . S
C1290 H1276 0.930 . S
C1290 C1288 1.395 . S
C1290 C1293 1.403 . S
C1291 C1288 1.403 1_554 S
C1291 C1292 1.524 . S
C1291 C1295 1.400 . S
C1292 H1277 0.960 . S
C1292 H1278 0.960 . S
C1292 H1279 0.960 . S
C1292 C1291 1.524 . S
C1293 C1290 1.403 . S
C1293 C1294 1.392 1_556 S
C1293 C1297 1.495 . S
C1294 C1293 1.392 1_554 S
C1294 C1295 1.385 . S
C1294 C1296 1.478 . S
C1295 H1289 0.930 . S
C1295 C1291 1.400 . S
C1295 C1294 1.385 . S
C1296 C1294 1.478 . S
C1296 C1298 1.381 . S
C1296 C1302 1.383 . S
C1297 C1293 1.495 . S
C1297 H1303 0.959 . S
C1297 H1304 0.961 . S
C1297 H1305 0.960 . S
C1298 C1296 1.381 . S
C1298 C1299 1.394 . S
C1298 H1306 0.930 . S
C1299 C1298 1.394 . S
C1299 C1300 1.383 . S
C1299 H1307 0.929 . S
C1300 C1299 1.383 . S
C1300 C1301 1.377 . S
C1301 H1285 0.930 . S
C1301 C1300 1.377 . S
C1301 C1302 1.379 . S
C1302 H1286 0.931 . S
C1302 C1296 1.383 . S
C1302 C1301 1.379 . S
H1303 C1297 0.959 . S
H1304 C1297 0.961 . S
H1305 C1297 0.960 . S
H1306 C1298 0.930 . S
H1307 C1299 0.929 . S
H1308 C1316 0.929 . S
H1309 C1318 0.930 . S
H1310 C1320 0.930 . S
H1311 C1323 0.929 . S
H1312 C1326 0.930 . S
H1313 C1328 0.960 . S
H1314 C1328 0.960 . S
H1315 C1328 0.960 . S
C1316 H1308 0.929 . S
C1316 C1317 1.377 . S
C1316 C1318 1.384 . S
C1317 C1316 1.377 . S
C1317 C1323 1.390 . S
C1318 H1309 0.930 . S
C1318 C1316 1.384 . S
C1318 C1319 1.372 . S
C1319 C1318 1.372 . S
C1319 C1320 1.400 . S
C1319 C1324 1.490 . S
C1320 H1310 0.930 . S
C1320 C1319 1.400 . S
C1320 C1323 1.386 . S
H1321 C1337 0.930 . S
H1322 C1338 0.931 . S
C1323 H1311 0.929 . S
C1323 C1317 1.390 . S
C1323 C1320 1.386 . S
C1324 C1319 1.490 . S
C1324 C1326 1.395 . S
C1324 C1327 1.403 . S
H1325 C1331 0.930 . S
C1326 H1312 0.930 . S
C1326 C1324 1.395 . S
C1326 C1329 1.403 . S
C1327 C1324 1.403 . S
C1327 C1328 1.524 . S
C1327 C1331 1.400 . S
C1328 H1313 0.960 . S
C1328 H1314 0.960 . S
C1328 H1315 0.960 . S
C1328 C1327 1.524 . S
C1329 C1326 1.403 . S
C1329 C1330 1.392 . S
C1329 C1333 1.495 . S
C1330 C1329 1.392 . S
C1330 C1331 1.385 . S
C1330 C1332 1.478 . S
C1331 H1325 0.930 . S
C1331 C1327 1.400 . S
C1331 C1330 1.385 . S
C1332 C1330 1.478 . S
C1332 C1334 1.381 . S
C1332 C1338 1.383 . S
C1333 C1329 1.495 . S
C1333 H1339 0.959 . S
C1333 H1340 0.961 . S
C1333 H1341 0.960 . S
C1334 C1332 1.381 . S
C1334 C1335 1.394 . S
C1334 H1342 0.930 . S
C1335 C1334 1.394 . S
C1335 C1336 1.383 . S
C1335 H1343 0.929 . S
C1336 C1335 1.383 . S
C1336 C1337 1.377 . S
C1337 H1321 0.930 . S
C1337 C1336 1.377 . S
C1337 C1338 1.379 . S
C1338 H1322 0.931 . S
C1338 C1332 1.383 . S
C1338 C1337 1.379 . S
H1339 C1333 0.959 . S
H1340 C1333 0.961 . S
H1341 C1333 0.960 . S
H1342 C1334 0.930 . S
H1343 C1335 0.929 . S
H1344 C1352 0.929 . S
H1345 C1354 0.930 . S
H1346 C1356 0.930 . S
H1347 C1359 0.929 . S
H1348 C1362 0.930 . S
H1349 C1364 0.960 . S
H1350 C1364 0.960 . S
H1351 C1364 0.960 . S
C1352 H1344 0.929 . S
C1352 C1353 1.377 . S
C1352 C1354 1.384 . S
C1353 C1352 1.377 . S
C1353 C1359 1.390 . S
C1354 H1345 0.930 . S
C1354 C1352 1.384 . S
C1354 C1355 1.372 . S
C1355 C1354 1.372 . S
C1355 C1356 1.400 . S
C1355 C1360 1.490 . S
C1356 H1346 0.930 . S
C1356 C1355 1.400 . S
C1356 C1359 1.386 . S
H1357 C1373 0.930 . S
H1358 C1374 0.931 . S
C1359 H1347 0.929 . S
C1359 C1353 1.390 . S
C1359 C1356 1.386 . S
C1360 C1355 1.490 . S
C1360 C1362 1.395 . S
C1360 C1363 1.403 . S
H1361 C1367 0.930 . S
C1362 H1348 0.930 . S
C1362 C1360 1.395 . S
C1362 C1365 1.403 . S
C1363 C1360 1.403 . S
C1363 C1364 1.524 . S
C1363 C1367 1.400 . S
C1364 H1349 0.960 . S
C1364 H1350 0.960 . S
C1364 H1351 0.960 . S
C1364 C1363 1.524 . S
C1365 C1362 1.403 . S
C1365 C1366 1.392 . S
C1365 C1369 1.495 . S
C1366 C1365 1.392 . S
C1366 C1367 1.385 . S
C1366 C1368 1.478 . S
C1367 H1361 0.930 . S
C1367 C1363 1.400 . S
C1367 C1366 1.385 . S
C1368 C1366 1.478 . S
C1368 C1370 1.381 . S
C1368 C1374 1.383 . S
C1369 C1365 1.495 . S
C1369 H1375 0.959 . S
C1369 H1376 0.961 . S
C1369 H1377 0.960 . S
C1370 C1368 1.381 . S
C1370 C1371 1.394 . S
C1370 H1378 0.930 . S
C1371 C1370 1.394 . S
C1371 C1372 1.383 . S
C1371 H1379 0.929 . S
C1372 C1371 1.383 . S
C1372 C1373 1.377 . S
C1373 H1357 0.930 . S
C1373 C1372 1.377 . S
C1373 C1374 1.379 . S
C1374 H1358 0.931 . S
C1374 C1368 1.383 . S
C1374 C1373 1.379 . S
H1375 C1369 0.959 . S
H1376 C1369 0.961 . S
H1377 C1369 0.960 . S
H1378 C1370 0.930 . S
H1379 C1371 0.929 . S
H1380 C1388 0.929 . S
H1381 C1390 0.930 1_556 S
H1382 C1392 0.930 . S
H1383 C1395 0.929 . S
H1384 C1398 0.930 . S
H1385 C1400 0.960 . S
H1386 C1400 0.960 . S
H1387 C1400 0.960 . S
C1388 H1380 0.929 . S
C1388 C1389 1.377 . S
C1388 C1390 1.384 . S
C1389 C1388 1.377 . S
C1389 C1395 1.390 . S
C1390 H1381 0.930 1_554 S
C1390 C1388 1.384 . S
C1390 C1391 1.372 . S
C1391 C1390 1.372 . S
C1391 C1392 1.400 . S
C1391 C1396 1.490 . S
C1392 H1382 0.930 . S
C1392 C1391 1.400 . S
C1392 C1395 1.386 . S
H1393 C1409 0.930 . S
H1394 C1410 0.931 . S
C1395 H1383 0.929 . S
C1395 C1389 1.390 . S
C1395 C1392 1.386 . S
C1396 C1391 1.490 . S
C1396 C1398 1.395 1_554 S
C1396 C1399 1.403 . S
H1397 C1403 0.930 . S
C1398 H1384 0.930 . S
C1398 C1396 1.395 1_556 S
C1398 C1401 1.403 . S
C1399 C1396 1.403 . S
C1399 C1400 1.524 . S
C1399 C1403 1.400 . S
C1400 H1385 0.960 . S
C1400 H1386 0.960 . S
C1400 H1387 0.960 . S
C1400 C1399 1.524 . S
C1401 C1398 1.403 . S
C1401 C1402 1.392 . S
C1401 C1405 1.495 . S
C1402 C1401 1.392 . S
C1402 C1403 1.385 1_556 S
C1402 C1404 1.478 . S
C1403 H1397 0.930 . S
C1403 C1399 1.400 . S
C1403 C1402 1.385 1_554 S
C1404 C1402 1.478 . S
C1404 C1406 1.381 . S
C1404 C1410 1.383 . S
C1405 C1401 1.495 . S
C1405 H1411 0.959 . S
C1405 H1412 0.961 . S
C1405 H1413 0.960 . S
C1406 C1404 1.381 . S
C1406 C1407 1.394 . S
C1406 H1414 0.930 . S
C1407 C1406 1.394 . S
C1407 C1408 1.383 . S
C1407 H1415 0.929 . S
C1408 C1407 1.383 . S
C1408 C1409 1.377 . S
C1409 H1393 0.930 . S
C1409 C1408 1.377 . S
C1409 C1410 1.379 . S
C1410 H1394 0.931 . S
C1410 C1404 1.383 . S
C1410 C1409 1.379 . S
H1411 C1405 0.959 . S
H1412 C1405 0.961 . S
H1413 C1405 0.960 . S
H1414 C1406 0.930 . S
H1415 C1407 0.929 . S
H1416 C1424 0.929 . S
H1417 C1426 0.930 . S
H1418 C1428 0.930 . S
H1419 C1431 0.929 . S
H1420 C1434 0.930 . S
H1421 C1436 0.960 . S
H1422 C1436 0.960 . S
H1423 C1436 0.960 . S
C1424 H1416 0.929 . S
C1424 C1425 1.377 . S
C1424 C1426 1.384 . S
C1425 C1424 1.377 . S
C1425 C1431 1.390 . S
C1426 H1417 0.930 . S
C1426 C1424 1.384 . S
C1426 C1427 1.372 . S
C1427 C1426 1.372 . S
C1427 C1428 1.400 . S
C1427 C1432 1.490 . S
C1428 H1418 0.930 . S
C1428 C1427 1.400 . S
C1428 C1431 1.386 . S
H1429 C1445 0.930 . S
H1430 C1446 0.931 . S
C1431 H1419 0.929 . S
C1431 C1425 1.390 . S
C1431 C1428 1.386 . S
C1432 C1427 1.490 . S
C1432 C1434 1.395 . S
C1432 C1435 1.403 . S
H1433 C1439 0.930 . S
C1434 H1420 0.930 . S
C1434 C1432 1.395 . S
C1434 C1437 1.403 . S
C1435 C1432 1.403 . S
C1435 C1436 1.524 . S
C1435 C1439 1.400 . S
C1436 H1421 0.960 . S
C1436 H1422 0.960 . S
C1436 H1423 0.960 . S
C1436 C1435 1.524 . S
C1437 C1434 1.403 . S
C1437 C1438 1.392 . S
C1437 C1441 1.495 . S
C1438 C1437 1.392 . S
C1438 C1439 1.385 . S
C1438 C1440 1.478 . S
C1439 H1433 0.930 . S
C1439 C1435 1.400 . S
C1439 C1438 1.385 . S
C1440 C1438 1.478 . S
C1440 C1442 1.381 . S
C1440 C1446 1.383 . S
C1441 C1437 1.495 . S
C1441 H1447 0.959 . S
C1441 H1448 0.961 . S
C1441 H1449 0.960 . S
C1442 C1440 1.381 . S
C1442 C1443 1.394 . S
C1442 H1450 0.930 . S
C1443 C1442 1.394 . S
C1443 C1444 1.383 . S
C1443 H1451 0.929 . S
C1444 C1443 1.383 . S
C1444 C1445 1.377 . S
C1445 H1429 0.930 . S
C1445 C1444 1.377 . S
C1445 C1446 1.379 . S
C1446 H1430 0.931 . S
C1446 C1440 1.383 . S
C1446 C1445 1.379 . S
H1447 C1441 0.959 . S
H1448 C1441 0.961 . S
H1449 C1441 0.960 . S
H1450 C1442 0.930 . S
H1451 C1443 0.929 . S
H1452 C1460 0.929 . S
H1453 C1462 0.930 . S
H1454 C1464 0.930 . S
H1455 C1467 0.929 . S
H1456 C1470 0.930 . S
H1457 C1472 0.960 . S
H1458 C1472 0.960 . S
H1459 C1472 0.960 . S
C1460 H1452 0.929 . S
C1460 C1461 1.377 . S
C1460 C1462 1.384 . S
C1461 C1460 1.377 . S
C1461 C1467 1.390 . S
C1462 H1453 0.930 . S
C1462 C1460 1.384 . S
C1462 C1463 1.372 . S
C1463 C1462 1.372 . S
C1463 C1464 1.400 . S
C1463 C1468 1.490 . S
C1464 H1454 0.930 . S
C1464 C1463 1.400 . S
C1464 C1467 1.386 . S
H1465 C1481 0.930 . S
H1466 C1482 0.931 . S
C1467 H1455 0.929 . S
C1467 C1461 1.390 . S
C1467 C1464 1.386 . S
C1468 C1463 1.490 . S
C1468 C1470 1.395 . S
C1468 C1471 1.403 . S
H1469 C1475 0.930 . S
C1470 H1456 0.930 . S
C1470 C1468 1.395 . S
C1470 C1473 1.403 . S
C1471 C1468 1.403 . S
C1471 C1472 1.524 . S
C1471 C1475 1.400 . S
C1472 H1457 0.960 . S
C1472 H1458 0.960 . S
C1472 H1459 0.960 . S
C1472 C1471 1.524 . S
C1473 C1470 1.403 . S
C1473 C1474 1.392 . S
C1473 C1477 1.495 . S
C1474 C1473 1.392 . S
C1474 C1475 1.385 . S
C1474 C1476 1.478 . S
C1475 H1469 0.930 . S
C1475 C1471 1.400 . S
C1475 C1474 1.385 . S
C1476 C1474 1.478 . S
C1476 C1478 1.381 . S
C1476 C1482 1.383 . S
C1477 C1473 1.495 . S
C1477 H1483 0.959 . S
C1477 H1484 0.961 . S
C1477 H1485 0.960 . S
C1478 C1476 1.381 . S
C1478 C1479 1.394 . S
C1478 H1486 0.930 . S
C1479 C1478 1.394 . S
C1479 C1480 1.383 . S
C1479 H1487 0.929 . S
C1480 C1479 1.383 . S
C1480 C1481 1.377 . S
C1481 H1465 0.930 . S
C1481 C1480 1.377 . S
C1481 C1482 1.379 . S
C1482 H1466 0.931 . S
C1482 C1476 1.383 . S
C1482 C1481 1.379 . S
H1483 C1477 0.959 . S
H1484 C1477 0.961 . S
H1485 C1477 0.960 . S
H1486 C1478 0.930 . S
H1487 C1479 0.929 . S
H1488 C1496 0.929 . S
H1489 C1498 0.930 . S
H1490 C1500 0.930 . S
H1491 C1503 0.929 . S
H1492 C1506 0.930 . S
H1493 C1508 0.960 . S
H1494 C1508 0.960 . S
H1495 C1508 0.960 . S
C1496 H1488 0.929 . S
C1496 C1497 1.377 . S
C1496 C1498 1.384 . S
C1497 C1496 1.377 . S
C1497 C1503 1.390 . S
C1498 H1489 0.930 . S
C1498 C1496 1.384 . S
C1498 C1499 1.372 . S
C1499 C1498 1.372 . S
C1499 C1500 1.400 . S
C1499 C1504 1.490 . S
C1500 H1490 0.930 . S
C1500 C1499 1.400 . S
C1500 C1503 1.386 . S
H1501 C1517 0.930 . S
H1502 C1518 0.931 . S
C1503 H1491 0.929 . S
C1503 C1497 1.390 . S
C1503 C1500 1.386 . S
C1504 C1499 1.490 . S
C1504 C1506 1.395 . S
C1504 C1507 1.403 . S
H1505 C1511 0.930 . S
C1506 H1492 0.930 . S
C1506 C1504 1.395 . S
C1506 C1509 1.403 . S
C1507 C1504 1.403 . S
C1507 C1508 1.524 . S
C1507 C1511 1.400 . S
C1508 H1493 0.960 . S
C1508 H1494 0.960 . S
C1508 H1495 0.960 . S
C1508 C1507 1.524 . S
C1509 C1506 1.403 . S
C1509 C1510 1.392 . S
C1509 C1513 1.495 . S
C1510 C1509 1.392 . S
C1510 C1511 1.385 . S
C1510 C1512 1.478 . S
C1511 H1505 0.930 . S
C1511 C1507 1.400 . S
C1511 C1510 1.385 . S
C1512 C1510 1.478 . S
C1512 C1514 1.381 . S
C1512 C1518 1.383 . S
C1513 C1509 1.495 . S
C1513 H1519 0.959 . S
C1513 H1520 0.961 . S
C1513 H1521 0.960 . S
C1514 C1512 1.381 . S
C1514 C1515 1.394 . S
C1514 H1522 0.930 . S
C1515 C1514 1.394 . S
C1515 C1516 1.383 . S
C1515 H1523 0.929 . S
C1516 C1515 1.383 . S
C1516 C1517 1.377 . S
C1517 H1501 0.930 . S
C1517 C1516 1.377 . S
C1517 C1518 1.379 . S
C1518 H1502 0.931 . S
C1518 C1512 1.383 . S
C1518 C1517 1.379 . S
H1519 C1513 0.959 . S
H1520 C1513 0.961 . S
H1521 C1513 0.960 . S
H1522 C1514 0.930 . S
H1523 C1515 0.929 . S
H1524 C1532 0.929 . S
H1525 C1534 0.930 . S
H1526 C1536 0.930 . S
H1527 C1539 0.929 . S
H1528 C1542 0.959 . S
H1529 C1544 0.960 . S
H1530 C1544 0.960 . S
H1531 C1544 0.914 1_655 S
C1532 H1524 0.929 . S
C1532 C1533 1.377 . S
C1532 C1534 1.384 . S
C1533 C1532 1.377 . S
C1533 C1539 1.390 1_455 S
C1534 H1525 0.930 . S
C1534 C1532 1.384 . S
C1534 C1535 1.372 . S
C1535 C1534 1.372 . S
C1535 C1536 1.400 1_455 S
C1535 C1540 1.490 . S
C1536 H1526 0.930 . S
C1536 C1535 1.400 1_655 S
C1536 C1539 1.386 . S
H1537 C1553 0.930 . S
H1538 C1554 0.931 . S
C1539 H1527 0.929 . S
C1539 C1533 1.390 1_655 S
C1539 C1536 1.386 . S
C1540 C1535 1.490 . S
C1540 C1542 1.376 . S
C1540 C1543 1.403 . S
H1541 C1547 0.927 1_655 S
C1542 H1528 0.959 . S
C1542 C1540 1.376 . S
C1542 C1545 1.398 1_455 S
C1543 C1540 1.403 . S
C1543 C1544 1.524 . S
C1543 C1547 1.401 . S
C1544 H1529 0.960 . S
C1544 H1530 0.960 . S
C1544 H1531 0.914 1_455 S
C1544 C1543 1.524 . S
C1545 C1542 1.398 1_655 S
C1545 C1546 1.392 . S
C1545 C1549 1.495 . S
C1546 C1545 1.392 . S
C1546 C1547 1.389 1_655 S
C1546 C1548 1.478 . S
C1547 H1541 0.927 1_455 S
C1547 C1543 1.401 . S
C1547 C1546 1.389 1_455 S
C1548 C1546 1.478 . S
C1548 C1550 1.381 1_655 S
C1548 C1554 1.383 . S
C1549 C1545 1.495 . S
C1549 H1555 0.959 . S
C1549 H1556 0.961 . S
C1549 H1557 0.960 1_655 S
C1550 C1548 1.381 1_455 S
C1550 C1551 1.394 . S
C1550 H1558 0.930 . S
C1551 C1550 1.394 . S
C1551 C1552 1.383 1_455 S
C1551 H1559 0.929 . S
C1552 C1551 1.383 1_655 S
C1552 C1553 1.377 . S
C1553 H1537 0.930 . S
C1553 C1552 1.377 . S
C1553 C1554 1.379 . S
C1554 H1538 0.931 . S
C1554 C1548 1.383 . S
C1554 C1553 1.379 . S
H1555 C1549 0.959 . S
H1556 C1549 0.961 . S
H1557 C1549 0.960 1_455 S
H1558 C1550 0.930 . S
H1559 C1551 0.929 . S
H1560 C1568 0.929 . S
H1561 C1570 0.930 . S
H1562 C1572 0.930 . S
H1563 C1575 0.929 . S
H1564 C1578 0.930 . S
H1565 C1580 0.960 . S
H1566 C1580 0.960 . S
H1567 C1580 0.960 . S
C1568 H1560 0.929 . S
C1568 C1569 1.377 . S
C1568 C1570 1.384 . S
C1569 C1568 1.377 . S
C1569 C1575 1.390 1_545 S
C1570 H1561 0.930 . S
C1570 C1568 1.384 . S
C1570 C1571 1.372 . S
C1571 C1570 1.372 . S
C1571 C1572 1.400 1_545 S
C1571 C1576 1.490 . S
C1572 H1562 0.930 . S
C1572 C1571 1.400 1_565 S
C1572 C1575 1.386 . S
H1573 C1589 0.930 . S
H1574 C1590 0.931 . S
C1575 H1563 0.929 . S
C1575 C1569 1.390 1_565 S
C1575 C1572 1.386 . S
C1576 C1571 1.490 . S
C1576 C1578 1.395 . S
C1576 C1579 1.403 1_545 S
H1577 C1583 0.930 . S
C1578 H1564 0.930 . S
C1578 C1576 1.395 . S
C1578 C1581 1.403 . S
C1579 C1576 1.403 1_565 S
C1579 C1580 1.524 . S
C1579 C1583 1.400 . S
C1580 H1565 0.960 . S
C1580 H1566 0.960 . S
C1580 H1567 0.960 . S
C1580 C1579 1.524 . S
C1581 C1578 1.403 . S
C1581 C1582 1.392 1_545 S
C1581 C1585 1.495 . S
C1582 C1581 1.392 1_565 S
C1582 C1583 1.385 . S
C1582 C1584 1.478 . S
C1583 H1577 0.930 . S
C1583 C1579 1.400 . S
C1583 C1582 1.385 . S
C1584 C1582 1.478 . S
C1584 C1586 1.381 1_565 S
C1584 C1590 1.383 . S
C1585 C1581 1.495 . S
C1585 H1591 0.959 . S
C1585 H1592 0.961 . S
C1585 H1593 0.960 . S
C1586 C1584 1.381 1_545 S
C1586 C1587 1.394 . S
C1586 H1594 0.930 . S
C1587 C1586 1.394 . S
C1587 C1588 1.383 1_545 S
C1587 H1595 0.929 . S
C1588 C1587 1.383 1_565 S
C1588 C1589 1.377 . S
C1589 H1573 0.930 . S
C1589 C1588 1.377 . S
C1589 C1590 1.379 . S
C1590 H1574 0.931 . S
C1590 C1584 1.383 . S
C1590 C1589 1.379 . S
H1591 C1585 0.959 . S
H1592 C1585 0.961 . S
H1593 C1585 0.960 . S
H1594 C1586 0.930 . S
H1595 C1587 0.929 . S
H1596 C1604 0.929 . S
H1597 C1606 0.930 . S
H1598 C1608 0.930 . S
H1599 C1611 0.929 . S
H1600 C1614 0.930 . S
H1601 C1616 0.960 . S
H1602 C1616 0.960 . S
H1603 C1616 0.960 . S
C1604 H1596 0.929 . S
C1604 C1605 1.377 . S
C1604 C1606 1.384 . S
C1605 C1604 1.377 . S
C1605 C1611 1.390 . S
C1606 H1597 0.930 . S
C1606 C1604 1.384 . S
C1606 C1607 1.372 . S
C1607 C1606 1.372 . S
C1607 C1608 1.400 . S
C1607 C1612 1.490 . S
C1608 H1598 0.930 . S
C1608 C1607 1.400 . S
C1608 C1611 1.386 . S
H1609 C1625 0.930 . S
H1610 C1626 0.931 . S
C1611 H1599 0.929 . S
C1611 C1605 1.390 . S
C1611 C1608 1.386 . S
C1612 C1607 1.490 . S
C1612 C1614 1.395 . S
C1612 C1615 1.403 . S
H1613 C1619 0.930 . S
C1614 H1600 0.930 . S
C1614 C1612 1.395 . S
C1614 C1617 1.403 . S
C1615 C1612 1.403 . S
C1615 C1616 1.524 . S
C1615 C1619 1.400 . S
C1616 H1601 0.960 . S
C1616 H1602 0.960 . S
C1616 H1603 0.960 . S
C1616 C1615 1.524 . S
C1617 C1614 1.403 . S
C1617 C1618 1.392 . S
C1617 C1621 1.495 . S
C1618 C1617 1.392 . S
C1618 C1619 1.385 . S
C1618 C1620 1.478 . S
C1619 H1613 0.930 . S
C1619 C1615 1.400 . S
C1619 C1618 1.385 . S
C1620 C1618 1.478 . S
C1620 C1622 1.381 . S
C1620 C1626 1.383 . S
C1621 C1617 1.495 . S
C1621 H1627 0.959 . S
C1621 H1628 0.961 . S
C1621 H1629 0.960 . S
C1622 C1620 1.381 . S
C1622 C1623 1.394 . S
C1622 H1630 0.930 . S
C1623 C1622 1.394 . S
C1623 C1624 1.383 . S
C1623 H1631 0.929 . S
C1624 C1623 1.383 . S
C1624 C1625 1.377 . S
C1625 H1609 0.930 . S
C1625 C1624 1.377 . S
C1625 C1626 1.379 . S
C1626 H1610 0.931 . S
C1626 C1620 1.383 . S
C1626 C1625 1.379 . S
H1627 C1621 0.959 . S
H1628 C1621 0.961 . S
H1629 C1621 0.960 . S
H1630 C1622 0.930 . S
H1631 C1623 0.929 . S
H1632 C1640 0.929 . S
H1633 C1642 0.930 . S
H1634 C1644 0.930 1_455 S
H1635 C1647 0.923 . S
H1636 C1650 0.930 . S
H1637 C1652 0.960 . S
H1638 C1652 0.960 . S
H1639 C1652 0.960 . S
C1640 H1632 0.929 . S
C1640 C1641 1.377 . S
C1640 C1642 1.384 . S
C1641 C1640 1.377 . S
C1641 C1647 1.390 . S
C1642 H1633 0.930 . S
C1642 C1640 1.384 . S
C1642 C1643 1.372 . S
C1643 C1642 1.372 . S
C1643 C1644 1.400 . S
C1643 C1648 1.490 . S
C1644 H1634 0.930 1_655 S
C1644 C1643 1.400 . S
C1644 C1647 1.386 . S
H1645 C1661 0.930 . S
H1646 C1662 0.931 . S
C1647 H1635 0.923 . S
C1647 C1641 1.390 . S
C1647 C1644 1.386 . S
C1648 C1643 1.490 . S
C1648 C1650 1.395 . S
C1648 C1651 1.403 1_655 S
H1649 C1655 0.930 . S
C1650 H1636 0.930 . S
C1650 C1648 1.395 . S
C1650 C1653 1.403 . S
C1651 C1648 1.403 1_455 S
C1651 C1652 1.524 . S
C1651 C1655 1.400 . S
C1652 H1637 0.960 . S
C1652 H1638 0.960 . S
C1652 H1639 0.960 . S
C1652 C1651 1.524 . S
C1653 C1650 1.403 . S
C1653 C1654 1.424 . S
C1653 C1657 1.495 . S
C1654 C1653 1.424 . S
C1654 C1655 1.358 1_655 S
C1654 C1656 1.473 1_655 S
C1655 H1649 0.930 . S
C1655 C1651 1.400 . S
C1655 C1654 1.358 1_455 S
C1656 C1654 1.473 1_455 S
C1656 C1658 1.383 1_455 S
C1656 C1662 1.383 . S
C1657 C1653 1.495 . S
C1657 H1663 0.959 . S
C1657 H1664 0.961 . S
C1657 H1665 0.960 . S
C1658 C1656 1.383 1_655 S
C1658 C1659 1.393 1_655 S
C1658 H1666 0.929 . S
C1659 C1658 1.393 1_455 S
C1659 C1660 1.383 . S
C1659 H1667 0.929 . S
C1660 C1659 1.383 . S
C1660 C1661 1.377 . S
C1661 H1645 0.930 . S
C1661 C1660 1.377 . S
C1661 C1662 1.379 . S
C1662 H1646 0.931 . S
C1662 C1656 1.383 . S
C1662 C1661 1.379 . S
H1663 C1657 0.959 . S
H1664 C1657 0.961 . S
H1665 C1657 0.960 . S
H1666 C1658 0.929 . S
H1667 C1659 0.929 . S
H1668 C1676 0.929 . S
H1669 C1678 0.930 . S
H1670 C1680 0.930 . S
H1671 C1683 0.929 . S
H1672 C1686 0.930 . S
H1673 C1688 0.960 . S
H1674 C1688 0.960 . S
H1675 C1688 0.960 . S
C1676 H1668 0.929 . S
C1676 C1677 1.377 . S
C1676 C1678 1.384 . S
C1677 C1676 1.377 . S
C1677 C1683 1.390 . S
C1678 H1669 0.930 . S
C1678 C1676 1.384 . S
C1678 C1679 1.372 . S
C1679 C1678 1.372 . S
C1679 C1680 1.400 . S
C1679 C1684 1.490 . S
C1680 H1670 0.930 . S
C1680 C1679 1.400 . S
C1680 C1683 1.386 . S
H1681 C1697 0.930 . S
H1682 C1698 0.931 . S
C1683 H1671 0.929 . S
C1683 C1677 1.390 . S
C1683 C1680 1.386 . S
C1684 C1679 1.490 . S
C1684 C1686 1.395 1_545 S
C1684 C1687 1.403 . S
H1685 C1691 0.930 . S
C1686 H1672 0.930 . S
C1686 C1684 1.395 1_565 S
C1686 C1689 1.403 . S
C1687 C1684 1.403 . S
C1687 C1688 1.524 . S
C1687 C1691 1.400 . S
C1688 H1673 0.960 . S
C1688 H1674 0.960 . S
C1688 H1675 0.960 . S
C1688 C1687 1.524 . S
C1689 C1686 1.403 . S
C1689 C1690 1.392 . S
C1689 C1693 1.495 . S
C1690 C1689 1.392 . S
C1690 C1691 1.385 1_565 S
C1690 C1692 1.478 . S
C1691 H1685 0.930 . S
C1691 C1687 1.400 . S
C1691 C1690 1.385 1_545 S
C1692 C1690 1.478 . S
C1692 C1694 1.381 . S
C1692 C1698 1.383 . S
C1693 C1689 1.495 . S
C1693 H1699 0.959 . S
C1693 H1700 0.961 . S
C1693 H1701 0.960 . S
C1694 C1692 1.381 . S
C1694 C1695 1.394 . S
C1694 H1702 0.930 . S
C1695 C1694 1.394 . S
C1695 C1696 1.383 . S
C1695 H1703 0.929 . S
C1696 C1695 1.383 . S
C1696 C1697 1.377 . S
C1697 H1681 0.930 . S
C1697 C1696 1.377 . S
C1697 C1698 1.379 . S
C1698 H1682 0.931 . S
C1698 C1692 1.383 . S
C1698 C1697 1.379 . S
H1699 C1693 0.959 . S
H1700 C1693 0.961 . S
H1701 C1693 0.960 . S
H1702 C1694 0.930 . S
H1703 C1695 0.929 . S
H1704 C1712 0.929 . S
H1705 C1714 0.930 . S
H1706 C1716 0.930 . S
H1707 C1719 0.929 . S
H1708 C1722 0.930 . S
H1709 C1724 0.960 . S
H1710 C1724 0.960 . S
H1711 C1724 0.960 . S
C1712 H1704 0.929 . S
C1712 C1713 1.377 . S
C1712 C1714 1.384 . S
C1713 C1712 1.377 . S
C1713 C1719 1.390 . S
C1714 H1705 0.930 . S
C1714 C1712 1.384 . S
C1714 C1715 1.372 . S
C1715 C1714 1.372 . S
C1715 C1716 1.400 . S
C1715 C1720 1.490 . S
C1716 H1706 0.930 . S
C1716 C1715 1.400 . S
C1716 C1719 1.386 . S
H1717 C1733 0.930 . S
H1718 C1734 0.931 . S
C1719 H1707 0.929 . S
C1719 C1713 1.390 . S
C1719 C1716 1.386 . S
C1720 C1715 1.490 . S
C1720 C1722 1.395 . S
C1720 C1723 1.403 . S
H1721 C1727 0.930 . S
C1722 H1708 0.930 . S
C1722 C1720 1.395 . S
C1722 C1725 1.403 . S
C1723 C1720 1.403 . S
C1723 C1724 1.524 . S
C1723 C1727 1.400 . S
C1724 H1709 0.960 . S
C1724 H1710 0.960 . S
C1724 H1711 0.960 . S
C1724 C1723 1.524 . S
C1725 C1722 1.403 . S
C1725 C1726 1.392 . S
C1725 C1729 1.495 . S
C1726 C1725 1.392 . S
C1726 C1727 1.385 . S
C1726 C1728 1.478 . S
C1727 H1721 0.930 . S
C1727 C1723 1.400 . S
C1727 C1726 1.385 . S
C1728 C1726 1.478 . S
C1728 C1730 1.381 . S
C1728 C1734 1.383 . S
C1729 C1725 1.495 . S
C1729 H1735 0.959 1_554 S
C1729 H1736 0.961 . S
C1729 H1737 0.970 . S
C1730 C1728 1.381 . S
C1730 C1731 1.394 . S
C1730 H1738 0.930 . S
C1731 C1730 1.394 . S
C1731 C1732 1.383 . S
C1731 H1739 0.929 . S
C1732 C1731 1.383 . S
C1732 C1733 1.377 . S
C1733 H1717 0.930 . S
C1733 C1732 1.377 . S
C1733 C1734 1.379 . S
C1734 H1718 0.931 . S
C1734 C1728 1.383 . S
C1734 C1733 1.379 . S
H1735 C1729 0.959 1_556 S
H1736 C1729 0.961 . S
H1737 C1729 0.970 . S
H1738 C1730 0.930 . S
H1739 C1731 0.929 . S
H1740 C1748 0.929 . S
H1741 C1750 0.930 . S
H1742 C1752 0.930 . S
H1743 C1755 0.929 . S
H1744 C1758 0.930 . S
H1745 C1760 0.960 . S
H1746 C1760 0.960 . S
H1747 C1760 0.960 . S
C1748 H1740 0.929 . S
C1748 C1749 1.377 . S
C1748 C1750 1.384 . S
C1749 C1748 1.377 . S
C1749 C1755 1.390 . S
C1750 H1741 0.930 . S
C1750 C1748 1.384 . S
C1750 C1751 1.372 . S
C1751 C1750 1.372 . S
C1751 C1752 1.400 . S
C1751 C1756 1.490 . S
C1752 H1742 0.930 . S
C1752 C1751 1.400 . S
C1752 C1755 1.386 . S
H1753 C1769 0.930 . S
H1754 C1770 0.931 . S
C1755 H1743 0.929 . S
C1755 C1749 1.390 . S
C1755 C1752 1.386 . S
C1756 C1751 1.490 . S
C1756 C1758 1.395 1_455 S
C1756 C1759 1.403 . S
H1757 C1763 0.930 . S
C1758 H1744 0.930 . S
C1758 C1756 1.395 1_655 S
C1758 C1761 1.403 . S
C1759 C1756 1.403 . S
C1759 C1760 1.524 . S
C1759 C1763 1.400 . S
C1760 H1745 0.960 . S
C1760 H1746 0.960 . S
C1760 H1747 0.960 . S
C1760 C1759 1.524 . S
C1761 C1758 1.403 . S
C1761 C1762 1.392 . S
C1761 C1765 1.495 . S
C1762 C1761 1.392 . S
C1762 C1763 1.385 1_655 S
C1762 C1764 1.478 . S
C1763 H1757 0.930 . S
C1763 C1759 1.400 . S
C1763 C1762 1.385 1_455 S
C1764 C1762 1.478 . S
C1764 C1766 1.381 . S
C1764 C1770 1.383 . S
C1765 C1761 1.495 . S
C1765 H1771 0.959 . S
C1765 H1772 0.961 . S
C1765 H1773 0.960 . S
C1766 C1764 1.381 . S
C1766 C1767 1.394 . S
C1766 H1774 0.930 . S
C1767 C1766 1.394 . S
C1767 C1768 1.383 . S
C1767 H1775 0.929 . S
C1768 C1767 1.383 . S
C1768 C1769 1.377 . S
C1769 H1753 0.930 . S
C1769 C1768 1.377 . S
C1769 C1770 1.379 . S
C1770 H1754 0.931 . S
C1770 C1764 1.383 . S
C1770 C1769 1.379 . S
H1771 C1765 0.959 . S
H1772 C1765 0.961 . S
H1773 C1765 0.960 . S
H1774 C1766 0.930 . S
H1775 C1767 0.929 . S
H1776 C1784 0.929 . S
H1777 C1786 0.930 1_545 S
H1778 C1788 0.930 . S
H1779 C1791 0.929 . S
H1780 C1794 0.930 . S
H1781 C1796 0.960 . S
H1782 C1796 0.960 . S
H1783 C1796 0.960 . S
C1784 H1776 0.929 . S
C1784 C1785 1.377 . S
C1784 C1786 1.384 . S
C1785 C1784 1.377 . S
C1785 C1791 1.390 . S
C1786 H1777 0.930 1_565 S
C1786 C1784 1.384 . S
C1786 C1787 1.372 . S
C1787 C1786 1.372 . S
C1787 C1788 1.400 . S
C1787 C1792 1.490 . S
C1788 H1778 0.930 . S
C1788 C1787 1.400 . S
C1788 C1791 1.386 . S
H1789 C1805 0.930 . S
H1790 C1806 0.926 1_565 S
C1791 H1779 0.929 . S
C1791 C1785 1.390 . S
C1791 C1788 1.386 . S
C1792 C1787 1.490 . S
C1792 C1794 1.395 1_565 S
C1792 C1795 1.403 . S
H1793 C1799 0.944 1_565 S
C1794 H1780 0.930 . S
C1794 C1792 1.395 1_545 S
C1794 C1797 1.403 . S
C1795 C1792 1.403 . S
C1795 C1796 1.524 . S
C1795 C1799 1.361 1_565 S
C1796 H1781 0.960 . S
C1796 H1782 0.960 . S
C1796 H1783 0.960 . S
C1796 C1795 1.524 . S
C1797 C1794 1.403 . S
C1797 C1798 1.392 . S
C1797 C1801 1.495 . S
C1798 C1797 1.392 . S
C1798 C1799 1.412 . S
C1798 C1800 1.478 . S
C1799 H1793 0.944 1_545 S
C1799 C1795 1.361 1_545 S
C1799 C1798 1.412 . S
C1800 C1798 1.478 . S
C1800 C1802 1.381 . S
C1800 C1806 1.383 . S
C1801 C1797 1.495 . S
C1801 H1807 0.959 . S
C1801 H1808 0.961 . S
C1801 H1809 0.960 . S
C1802 C1800 1.381 . S
C1802 C1803 1.394 . S
C1802 H1810 0.930 . S
C1803 C1802 1.394 . S
C1803 C1804 1.383 . S
C1803 H1811 0.929 . S
C1804 C1803 1.383 . S
C1804 C1805 1.377 . S
C1805 H1789 0.930 . S
C1805 C1804 1.377 . S
C1805 C1806 1.379 . S
C1806 H1790 0.926 1_545 S
C1806 C1800 1.383 . S
C1806 C1805 1.379 . S
H1807 C1801 0.959 . S
H1808 C1801 0.961 . S
H1809 C1801 0.960 . S
H1810 C1802 0.930 . S
H1811 C1803 0.929 . S
H1812 C1820 0.929 . S
H1813 C1822 0.930 . S
H1814 C1824 0.930 . S
H1815 C1827 0.929 . S
H1816 C1830 0.930 . S
H1817 C1832 0.960 . S
H1818 C1832 0.960 . S
H1819 C1832 0.960 . S
C1820 H1812 0.929 . S
C1820 C1821 1.377 . S
C1820 C1822 1.384 . S
C1821 C1820 1.377 . S
C1821 C1827 1.390 . S
C1822 H1813 0.930 . S
C1822 C1820 1.384 . S
C1822 C1823 1.372 . S
C1823 C1822 1.372 . S
C1823 C1824 1.400 . S
C1823 C1828 1.490 . S
C1824 H1814 0.930 . S
C1824 C1823 1.400 . S
C1824 C1827 1.386 . S
H1825 C1841 0.930 . S
H1826 C1842 0.931 . S
C1827 H1815 0.929 . S
C1827 C1821 1.390 . S
C1827 C1824 1.386 . S
C1828 C1823 1.490 . S
C1828 C1830 1.395 . S
C1828 C1831 1.403 . S
H1829 C1835 0.930 . S
C1830 H1816 0.930 . S
C1830 C1828 1.395 . S
C1830 C1833 1.403 . S
C1831 C1828 1.403 . S
C1831 C1832 1.524 . S
C1831 C1835 1.400 . S
C1832 H1817 0.960 . S
C1832 H1818 0.960 . S
C1832 H1819 0.960 . S
C1832 C1831 1.524 . S
C1833 C1830 1.403 . S
C1833 C1834 1.392 . S
C1833 C1837 1.495 . S
C1834 C1833 1.392 . S
C1834 C1835 1.385 . S
C1834 C1836 1.478 . S
C1835 H1829 0.930 . S
C1835 C1831 1.400 . S
C1835 C1834 1.385 . S
C1836 C1834 1.478 . S
C1836 C1838 1.381 . S
C1836 C1842 1.383 . S
C1837 C1833 1.495 . S
C1837 H1843 0.959 . S
C1837 H1844 0.961 . S
C1837 H1845 0.960 . S
C1838 C1836 1.381 . S
C1838 C1839 1.394 . S
C1838 H1846 0.930 . S
C1839 C1838 1.394 . S
C1839 C1840 1.383 . S
C1839 H1847 0.929 . S
C1840 C1839 1.383 . S
C1840 C1841 1.377 . S
C1841 H1825 0.930 . S
C1841 C1840 1.377 . S
C1841 C1842 1.379 . S
C1842 H1826 0.931 . S
C1842 C1836 1.383 . S
C1842 C1841 1.379 . S
H1843 C1837 0.959 . S
H1844 C1837 0.961 . S
H1845 C1837 0.960 . S
H1846 C1838 0.930 . S
H1847 C1839 0.929 . S
H1848 C1856 0.929 . S
H1849 C1858 0.930 . S
H1850 C1860 0.930 . S
H1851 C1863 0.929 . S
H1852 C1866 0.930 . S
H1853 C1868 0.960 1_554 S
H1854 C1868 0.960 . S
H1855 C1868 0.960 . S
C1856 H1848 0.929 . S
C1856 C1857 1.377 . S
C1856 C1858 1.384 . S
C1857 C1856 1.377 . S
C1857 C1863 1.390 . S
C1858 H1849 0.930 . S
C1858 C1856 1.384 . S
C1858 C1859 1.372 . S
C1859 C1858 1.372 . S
C1859 C1860 1.400 . S
C1859 C1864 1.490 . S
C1860 H1850 0.930 . S
C1860 C1859 1.400 . S
C1860 C1863 1.386 . S
H1861 C1877 0.930 . S
H1862 C1878 0.931 . S
C1863 H1851 0.929 . S
C1863 C1857 1.390 . S
C1863 C1860 1.386 . S
C1864 C1859 1.490 . S
C1864 C1866 1.395 . S
C1864 C1867 1.403 . S
H1865 C1871 0.930 . S
C1866 H1852 0.930 . S
C1866 C1864 1.395 . S
C1866 C1869 1.403 1_655 S
C1867 C1864 1.403 . S
C1867 C1868 1.524 . S
C1867 C1871 1.400 1_655 S
C1868 H1853 0.960 1_556 S
C1868 H1854 0.960 . S
C1868 H1855 0.960 . S
C1868 C1867 1.524 . S
C1869 C1866 1.403 1_455 S
C1869 C1870 1.392 . S
C1869 C1873 1.495 . S
C1870 C1869 1.392 . S
C1870 C1871 1.385 . S
C1870 C1872 1.478 . S
C1871 H1865 0.930 . S
C1871 C1867 1.400 1_455 S
C1871 C1870 1.385 . S
C1872 C1870 1.478 . S
C1872 C1874 1.381 . S
C1872 C1878 1.383 . S
C1873 C1869 1.495 . S
C1873 H1879 0.995 . S
C1873 H1880 0.961 . S
C1873 H1881 0.960 . S
C1874 C1872 1.381 . S
C1874 C1875 1.394 . S
C1874 H1882 0.933 . S
C1875 C1874 1.394 . S
C1875 C1876 1.383 . S
C1875 H1883 0.929 . S
C1876 C1875 1.383 . S
C1876 C1877 1.377 . S
C1877 H1861 0.930 . S
C1877 C1876 1.377 . S
C1877 C1878 1.379 . S
C1878 H1862 0.931 . S
C1878 C1872 1.383 . S
C1878 C1877 1.379 . S
H1879 C1873 0.995 . S
H1880 C1873 0.961 . S
H1881 C1873 0.960 . S
H1882 C1874 0.933 . S
H1883 C1875 0.929 . S
H1884 C1892 0.929 . S
H1885 C1894 0.930 . S
H1886 C1896 0.930 . S
H1887 C1899 0.929 . S
H1888 C1902 0.930 . S
H1889 C1904 0.960 . S
H1890 C1904 0.960 . S
H1891 C1904 0.960 . S
C1892 H1884 0.929 . S
C1892 C1893 1.377 . S
C1892 C1894 1.384 . S
C1893 C1892 1.377 . S
C1893 C1899 1.390 . S
C1894 H1885 0.930 . S
C1894 C1892 1.384 . S
C1894 C1895 1.372 . S
C1895 C1894 1.372 . S
C1895 C1896 1.400 . S
C1895 C1900 1.490 . S
C1896 H1886 0.930 . S
C1896 C1895 1.400 . S
C1896 C1899 1.386 . S
H1897 C1913 0.930 . S
H1898 C1914 0.931 . S
C1899 H1887 0.929 . S
C1899 C1893 1.390 . S
C1899 C1896 1.386 . S
C1900 C1895 1.490 . S
C1900 C1902 1.395 1_545 S
C1900 C1903 1.403 . S
H1901 C1907 0.930 . S
C1902 H1888 0.930 . S
C1902 C1900 1.395 1_565 S
C1902 C1905 1.403 . S
C1903 C1900 1.403 . S
C1903 C1904 1.524 . S
C1903 C1907 1.400 . S
C1904 H1889 0.960 . S
C1904 H1890 0.960 . S
C1904 H1891 0.960 . S
C1904 C1903 1.524 . S
C1905 C1902 1.403 . S
C1905 C1906 1.392 . S
C1905 C1909 1.495 . S
C1906 C1905 1.392 . S
C1906 C1907 1.385 1_565 S
C1906 C1908 1.478 . S
C1907 H1901 0.930 . S
C1907 C1903 1.400 . S
C1907 C1906 1.385 1_545 S
C1908 C1906 1.478 . S
C1908 C1910 1.381 . S
C1908 C1914 1.383 . S
C1909 C1905 1.495 . S
C1909 H1915 0.959 . S
C1909 H1916 0.961 . S
C1909 H1917 0.960 . S
C1910 C1908 1.381 . S
C1910 C1911 1.394 . S
C1910 H1918 0.930 . S
C1911 C1910 1.394 . S
C1911 C1912 1.383 . S
C1911 H1919 0.929 . S
C1912 C1911 1.383 . S
C1912 C1913 1.377 . S
C1913 H1897 0.930 . S
C1913 C1912 1.377 . S
C1913 C1914 1.379 . S
C1914 H1898 0.931 . S
C1914 C1908 1.383 . S
C1914 C1913 1.379 . S
H1915 C1909 0.959 . S
H1916 C1909 0.961 . S
H1917 C1909 0.960 . S
H1918 C1910 0.930 . S
H1919 C1911 0.929 . S
C1065 C29 1.439 . S
C1084 C841 1.440 . S
C1101 C108 1.437 . S
C1120 C937 1.422 . S
C1137 C196 1.442 . S
C1156 C1025 1.414 . S
C1173 C284 1.440 . S
C1192 C577 1.438 . S
C1209 C673 1.441 . S
C1228 C381 1.431 . S
C1245 C753 1.442 . S
C1264 C469 1.419 . S
C1281 C929 1.180 . S
C1300 C20 1.164 . S
C1317 C117 1.180 . S
C1336 C1017 1.163 . S
C1353 C205 1.179 . S
C1372 C585 1.165 . S
C1389 C293 1.185 . S
C1408 C665 1.194 . S
C1425 C372 1.185 . S
C1444 C761 1.183 . S
C1461 C460 1.183 . S
C1480 C849 1.184 . S
C1497 C812 0.547 . S
C1516 C57 0.592 . S
C1533 C137 0.549 . S
C1552 C909 0.599 . S
C1569 C225 0.533 . S
C1588 C997 0.526 . S
C1605 C548 0.543 . S
C1624 C313 0.571 . S
C1641 C409 0.516 . S
C1660 C645 0.445 . S
C1677 C724 0.553 . S
C1696 C497 0.633 . S
C1713 C49 1.474 . S
C1732 C321 1.460 . S
C1749 C401 1.485 . S
C1768 C145 1.496 . S
C1785 C233 1.476 . S
C1804 C489 1.485 . S
C1821 C557 1.476 . S
C1840 C821 1.450 . S
C1857 C636 1.484 . S
C1876 C900 1.478 . S
C1893 C988 1.480 . S
C1912 C733 1.499 . S
