# Generated by pormake.
# Topology fnz, (5)-cn, num edge types: 1
# Building blocks:
#     Node 0, Type 0, BuildingBlock: XOMCOT_clean_sbu_0, # of connection points: 5
#     Node 1, Type 0, BuildingBlock: XOMCOT_clean_sbu_0, # of connection points: 5
#     Node 2, Type 0, BuildingBlock: XOMCOT_clean_sbu_0, # of connection points: 5
#     Node 3, Type 0, BuildingBlock: XOMCOT_clean_sbu_0, # of connection points: 5
#     Node 4, Type 0, BuildingBlock: XOMCOT_clean_sbu_0, # of connection points: 5
#     Node 5, Type 0, BuildingBlock: XOMCOT_clean_sbu_0, # of connection points: 5
#     Node 6, Type 0, BuildingBlock: XOMCOT_clean_sbu_0, # of connection points: 5
#     Node 7, Type 0, BuildingBlock: XOMCOT_clean_sbu_0, # of connection points: 5
#     Node 8, Type 0, BuildingBlock: XOMCOT_clean_sbu_0, # of connection points: 5
#     Node 9, Type 0, BuildingBlock: XOMCOT_clean_sbu_0, # of connection points: 5
#     Node 10, Type 0, BuildingBlock: XOMCOT_clean_sbu_0, # of connection points: 5
#     Node 11, Type 0, BuildingBlock: XOMCOT_clean_sbu_0, # of connection points: 5
#     Edge 12, Type (0, 0), BuildingBlock: XIVTED_clean_linker_0, # of connection points: 2
#     Edge 13, Type (0, 0), BuildingBlock: XIVTED_clean_linker_0, # of connection points: 2
#     Edge 14, Type (0, 0), BuildingBlock: XIVTED_clean_linker_0, # of connection points: 2
#     Edge 15, Type (0, 0), BuildingBlock: XIVTED_clean_linker_0, # of connection points: 2
#     Edge 16, Type (0, 0), BuildingBlock: XIVTED_clean_linker_0, # of connection points: 2
#     Edge 17, Type (0, 0), BuildingBlock: XIVTED_clean_linker_0, # of connection points: 2
#     Edge 18, Type (0, 0), BuildingBlock: XIVTED_clean_linker_0, # of connection points: 2
#     Edge 19, Type (0, 0), BuildingBlock: XIVTED_clean_linker_0, # of connection points: 2
#     Edge 20, Type (0, 0), BuildingBlock: XIVTED_clean_linker_0, # of connection points: 2
#     Edge 21, Type (0, 0), BuildingBlock: XIVTED_clean_linker_0, # of connection points: 2
#     Edge 22, Type (0, 0), BuildingBlock: XIVTED_clean_linker_0, # of connection points: 2
#     Edge 23, Type (0, 0), BuildingBlock: XIVTED_clean_linker_0, # of connection points: 2
#     Edge 24, Type (0, 0), BuildingBlock: XIVTED_clean_linker_0, # of connection points: 2
#     Edge 25, Type (0, 0), BuildingBlock: XIVTED_clean_linker_0, # of connection points: 2
#     Edge 26, Type (0, 0), BuildingBlock: XIVTED_clean_linker_0, # of connection points: 2
#     Edge 27, Type (0, 0), BuildingBlock: XIVTED_clean_linker_0, # of connection points: 2
#     Edge 28, Type (0, 0), BuildingBlock: XIVTED_clean_linker_0, # of connection points: 2
#     Edge 29, Type (0, 0), BuildingBlock: XIVTED_clean_linker_0, # of connection points: 2
#     Edge 30, Type (0, 0), BuildingBlock: XIVTED_clean_linker_0, # of connection points: 2
#     Edge 31, Type (0, 0), BuildingBlock: XIVTED_clean_linker_0, # of connection points: 2
#     Edge 32, Type (0, 0), BuildingBlock: XIVTED_clean_linker_0, # of connection points: 2
#     Edge 33, Type (0, 0), BuildingBlock: XIVTED_clean_linker_0, # of connection points: 2
#     Edge 34, Type (0, 0), BuildingBlock: XIVTED_clean_linker_0, # of connection points: 2
#     Edge 35, Type (0, 0), BuildingBlock: XIVTED_clean_linker_0, # of connection points: 2
#     Edge 36, Type (0, 0), BuildingBlock: XIVTED_clean_linker_0, # of connection points: 2
#     Edge 37, Type (0, 0), BuildingBlock: XIVTED_clean_linker_0, # of connection points: 2
#     Edge 38, Type (0, 0), BuildingBlock: XIVTED_clean_linker_0, # of connection points: 2
#     Edge 39, Type (0, 0), BuildingBlock: XIVTED_clean_linker_0, # of connection points: 2
#     Edge 40, Type (0, 0), BuildingBlock: XIVTED_clean_linker_0, # of connection points: 2
#     Edge 41, Type (0, 0), BuildingBlock: XIVTED_clean_linker_0, # of connection points: 2
# Relax obj value: 0.175
# Max RMSD: 0.246
# Mean RMSD: 0.246
data_MOF--net-fnz--node1-XOMCOT_clean_sbu_0--edge1-XIVTED_clean_linker_0
_symmetry_space_group_name_H-M    P1
_symmetry_Int_Tables_number       1
_symmetry_cell_setting            triclinic
loop_
_symmetry_equiv_pos_as_xyz
'x, y, z'
_cell_length_a     44.687322
_cell_length_b     44.732041
_cell_length_c     31.040708
_cell_angle_alpha  90.030185
_cell_angle_beta   90.04376
_cell_angle_gamma 120.00676
loop_
_atom_site_label
_atom_site_type_symbol
_atom_site_fract_x
_atom_site_fract_y
_atom_site_fract_z
_atom_type_partial_charge
Co0 Co 0.41553 0.13885 0.05051 0.0
C1 C 0.37289 0.17353 0.04241 0.0
C2 C 0.35299 0.13251 0.08871 0.0
C3 C 0.33282 0.14774 0.08968 0.0
N4 N 0.3782 0.14865 0.05912 0.0
N5 N 0.34535 0.17333 0.06041 0.0
H6 H 0.38924 0.19251 0.01917 0.0
H7 H 0.34998 0.11151 0.10895 0.0
C8 C 0.35139 0.07582 0.02081 0.0
O9 O 0.3428 0.09561 -0.00093 0.0
N10 N 0.45204 0.1283 0.04341 0.0
C11 C 0.48352 0.14836 0.02613 0.0
C12 C 0.50069 0.12991 0.02547 0.0
C13 C 0.45045 0.09825 0.05329 0.0
N14 N 0.47975 0.09834 0.04241 0.0
C15 C 0.43405 0.18421 0.9778 0.0
C16 C 0.41412 0.13444 0.91446 0.0
C17 C 0.42616 0.16878 0.90225 0.0
C18 C 0.43701 0.19393 0.93462 0.0
C19 C 0.41176 0.12591 0.95816 0.0
N20 N 0.41934 0.15031 0.98932 0.0
H21 H 0.44315 0.20413 0.00209 0.0
H22 H 0.40419 0.0997 0.96667 0.0
H23 H 0.493 0.17424 0.01408 0.0
H24 H 0.42818 0.07676 0.06807 0.0
O25 O 0.448 0.18388 0.0737 0.0
O26 O 0.41898 0.13609 0.11217 0.0
O27 O 0.38026 0.08885 0.04067 0.0
C28 C 0.44065 0.16911 0.11134 0.0
H29 H 0.31094 0.14088 0.11057 0.0
H30 H 0.52616 0.13874 0.01229 0.0
H31 H 0.40703 0.11441 0.89047 0.0
H32 H 0.44712 0.22089 0.92682 0.0
Co33 Co 0.27034 0.41003 0.04618 0.0
C34 C 0.19299 0.37029 0.03902 0.0
C35 C 0.21276 0.34816 0.08409 0.0
C36 C 0.17722 0.3296 0.08563 0.0
N37 N 0.22274 0.37371 0.05481 0.0
N38 N 0.165 0.34354 0.05711 0.0
H39 H 0.19119 0.38764 0.0166 0.0
H40 H 0.23024 0.34395 0.1039 0.0
C41 C 0.26771 0.34477 0.01781 0.0
O42 O 0.23919 0.33607 0.99623 0.0
N43 N 0.3177 0.44578 0.03887 0.0
C44 C 0.32931 0.47815 0.02476 0.0
C45 C 0.3649 0.49513 0.02413 0.0
C46 C 0.34607 0.44341 0.04676 0.0
N47 N 0.37547 0.47321 0.03788 0.0
C48 C 0.24459 0.42934 0.97294 0.0
C49 C 0.27278 0.40693 0.91041 0.0
C50 C 0.25104 0.41955 0.89772 0.0
C51 C 0.23765 0.43173 0.92966 0.0
C52 C 0.27904 0.40505 0.95416 0.0
N53 N 0.2629 0.41378 0.98496 0.0
H54 H 0.23462 0.43954 0.99691 0.0
H55 H 0.2972 0.39689 0.96298 0.0
H56 H 0.31305 0.48861 0.01549 0.0
H57 H 0.34501 0.4201 0.05823 0.0
O58 O 0.25886 0.44336 0.06924 0.0
O59 O 0.27677 0.41349 0.10764 0.0
O60 O 0.28396 0.37394 0.03685 0.0
C61 C 0.26638 0.4359 0.1068 0.0
H62 H 0.16157 0.30793 0.1065 0.0
H63 H 0.3815 0.52165 0.01443 0.0
H64 H 0.28518 0.39893 0.88675 0.0
H65 H 0.22132 0.4424 0.92149 0.0
Co66 Co 0.85662 0.27908 0.04612 0.0
C67 C 0.81801 0.20203 0.04017 0.0
C68 C 0.86587 0.22147 0.07416 0.0
C69 C 0.84952 0.18596 0.07391 0.0
N70 N 0.84643 0.23163 0.05219 0.0
N71 N 0.81945 0.17382 0.05233 0.0
H72 H 0.79577 0.20061 0.02489 0.0
H73 H 0.89017 0.23876 0.08975 0.0
C74 C 0.91907 0.27899 0.01124 0.0
O75 O 0.89882 0.25155 0.98813 0.0
N76 N 0.86714 0.32624 0.04122 0.0
C77 C 0.84764 0.33774 0.02233 0.0
C78 C 0.86629 0.37329 0.02138 0.0
C79 C 0.89695 0.35467 0.05225 0.0
N80 N 0.89716 0.38374 0.04028 0.0
C81 C 0.80908 0.25297 0.97551 0.0
C82 C 0.8566 0.2831 0.91002 0.0
C83 C 0.82195 0.26001 0.89936 0.0
C84 C 0.79797 0.24564 0.93294 0.0
C85 C 0.86662 0.28944 0.95332 0.0
N86 N 0.84334 0.27232 0.98544 0.0
H87 H 0.78983 0.24279 0.00053 0.0
H88 H 0.89305 0.3083 0.9608 0.0
H89 H 0.82221 0.32141 0.00884 0.0
H90 H 0.91868 0.35408 0.0668 0.0
O91 O 0.81233 0.26642 0.07129 0.0
O92 O 0.861 0.28398 0.10785 0.0
O93 O 0.90641 0.29395 0.03367 0.0
C94 C 0.82798 0.2729 0.10833 0.0
H95 H 0.85904 0.17037 0.08858 0.0
H96 H 0.85814 0.39014 0.0071 0.0
H97 H 0.87579 0.29635 0.88523 0.0
H98 H 0.77079 0.22826 0.9267 0.0
Co99 Co 0.58846 0.85923 0.04762 0.0
C100 C 0.62554 0.82023 0.04234 0.0
C101 C 0.65066 0.8635 0.08543 0.0
C102 C 0.66856 0.84581 0.08593 0.0
N103 N 0.62374 0.84736 0.05817 0.0
N104 N 0.65279 0.81884 0.05862 0.0
H105 H 0.60683 0.80135 0.02034 0.0
H106 H 0.65646 0.88618 0.10415 0.0
C107 C 0.62836 0.93083 0.01039 0.0
O108 O 0.60467 0.92245 0.98042 0.0
N109 N 0.553 0.87164 0.03834 0.0
C110 C 0.52091 0.85248 0.02188 0.0
C111 C 0.50443 0.87149 0.02305 0.0
C112 C 0.55485 0.90142 0.05098 0.0
N113 N 0.52593 0.90238 0.04107 0.0
C114 C 0.55977 0.81722 0.97226 0.0
C115 C 0.61629 0.85355 0.91929 0.0
C116 C 0.58693 0.82458 0.90273 0.0
C117 C 0.5586 0.80605 0.93001 0.0
C118 C 0.61644 0.86366 0.96191 0.0
N119 N 0.5877 0.84667 0.98725 0.0
H120 H 0.53858 0.80128 0.99333 0.0
H121 H 0.64021 0.88442 0.97476 0.0
H122 H 0.50947 0.82628 0.01061 0.0
H123 H 0.57692 0.92192 0.06748 0.0
O124 O 0.55436 0.81482 0.07047 0.0
O125 O 0.58364 0.86286 0.10873 0.0
O126 O 0.62581 0.90848 0.03793 0.0
C127 C 0.56119 0.83002 0.10788 0.0
H128 H 0.69137 0.85221 0.10482 0.0
H129 H 0.47873 0.86326 0.01099 0.0
H130 H 0.63935 0.86766 0.89991 0.0
H131 H 0.53569 0.783 0.91891 0.0
Co132 Co 0.72201 0.57832 0.04448 0.0
C133 C 0.79866 0.61459 0.03391 0.0
C134 C 0.78191 0.64454 0.06947 0.0
C135 C 0.81747 0.66208 0.06875 0.0
N136 N 0.77004 0.61494 0.04702 0.0
N137 N 0.82805 0.64316 0.04637 0.0
H138 H 0.79828 0.59348 0.01706 0.0
H139 H 0.76578 0.65226 0.08656 0.0
C140 C 0.72162 0.64113 0.01071 0.0
O141 O 0.74816 0.64834 0.98582 0.0
N142 N 0.6743 0.54228 0.04306 0.0
C143 C 0.66179 0.50875 0.03338 0.0
C144 C 0.62618 0.49227 0.03393 0.0
C145 C 0.64644 0.54585 0.04938 0.0
N146 N 0.61669 0.51576 0.04373 0.0
C147 C 0.74335 0.55421 0.97178 0.0
C148 C 0.71182 0.57251 0.909 0.0
C149 C 0.73393 0.56026 0.89632 0.0
C150 C 0.74889 0.55004 0.92861 0.0
C151 C 0.70739 0.57665 0.95278 0.0
N152 N 0.72535 0.57014 0.98343 0.0
H153 H 0.75414 0.54497 0.99587 0.0
H154 H 0.68944 0.58503 0.9618 0.0
H155 H 0.67743 0.49728 0.02555 0.0
H156 H 0.64783 0.56998 0.05778 0.0
O157 O 0.73515 0.54674 0.06896 0.0
O158 O 0.72018 0.57947 0.10637 0.0
O159 O 0.7076 0.61365 0.03337 0.0
C160 C 0.73074 0.55716 0.10633 0.0
H161 H 0.83405 0.68619 0.0851 0.0
H162 H 0.60867 0.46541 0.02625 0.0
H163 H 0.69801 0.57886 0.88541 0.0
H164 H 0.76558 0.53972 0.92093 0.0
Co165 Co 0.14205 0.72386 0.04965 0.0
C166 C 0.17809 0.79992 0.04683 0.0
C167 C 0.13428 0.7791 0.08927 0.0
C168 C 0.15085 0.81461 0.09143 0.0
N169 N 0.15149 0.77005 0.06142 0.0
N170 N 0.17817 0.82747 0.06455 0.0
H171 H 0.1977 0.80155 0.02496 0.0
H172 H 0.11178 0.7611 0.10747 0.0
C173 C 0.06968 0.6881 0.01369 0.0
O174 O 0.07839 0.67219 0.98503 0.0
N175 N 0.13211 0.67695 0.03903 0.0
C176 C 0.14932 0.66563 0.01436 0.0
C177 C 0.1308 0.63016 0.01288 0.0
C178 C 0.10429 0.64803 0.05393 0.0
N179 N 0.10247 0.61923 0.03756 0.0
C180 C 0.18544 0.74234 0.97475 0.0
C181 C 0.14371 0.75456 0.92051 0.0
C182 C 0.17435 0.75767 0.9043 0.0
C183 C 0.19577 0.75225 0.93223 0.0
C184 C 0.1347 0.74521 0.9635 0.0
N185 N 0.1543 0.73695 0.98939 0.0
H186 H 0.20278 0.73922 0.99603 0.0
H187 H 0.11245 0.74569 0.97591 0.0
H188 H 0.17323 0.68143 0.99767 0.0
H189 H 0.08448 0.64813 0.07386 0.0
O190 O 0.18708 0.73605 0.07247 0.0
O191 O 0.13886 0.7148 0.11067 0.0
O192 O 0.09206 0.70962 0.04006 0.0
C193 C 0.17205 0.72691 0.1099 0.0
H194 H 0.14357 0.82983 0.11132 0.0
H195 H 0.13711 0.61365 0.99412 0.0
H196 H 0.12732 0.76022 0.90044 0.0
H197 H 0.22016 0.75535 0.92123 0.0
Co198 Co 0.86056 0.58595 0.45165 0.0
C199 C 0.82303 0.62581 0.45306 0.0
C200 C 0.87171 0.65272 0.42056 0.0
C201 C 0.8563 0.67275 0.41904 0.0
N202 N 0.85124 0.62359 0.44284 0.0
N203 N 0.82566 0.65566 0.43942 0.0
H204 H 0.8007 0.6062 0.46957 0.0
H205 H 0.89616 0.65887 0.40614 0.0
C206 C 0.92181 0.64838 0.48904 0.0
O207 O 0.90075 0.65706 0.50739 0.0
N208 N 0.87043 0.54907 0.45898 0.0
C209 C 0.84987 0.51747 0.47556 0.0
C210 C 0.86806 0.50003 0.47636 0.0
C211 C 0.90047 0.55046 0.44958 0.0
N212 N 0.89995 0.52092 0.46012 0.0
C213 C 0.80981 0.56461 0.51843 0.0
C214 C 0.85422 0.58101 0.58757 0.0
C215 C 0.81923 0.56954 0.59524 0.0
C216 C 0.79679 0.56048 0.56008 0.0
C217 C 0.86626 0.58531 0.54514 0.0
N218 N 0.84447 0.57936 0.51116 0.0
H219 H 0.79176 0.55593 0.49196 0.0
H220 H 0.89303 0.59306 0.53988 0.0
H221 H 0.82379 0.50802 0.48694 0.0
H222 H 0.9222 0.57277 0.43523 0.0
O223 O 0.81747 0.55477 0.42345 0.0
O224 O 0.86786 0.58555 0.39046 0.0
O225 O 0.9098 0.62017 0.46792 0.0
C226 C 0.83487 0.56382 0.38764 0.0
H227 H 0.86641 0.69752 0.40325 0.0
H228 H 0.85875 0.47435 0.48903 0.0
H229 H 0.87217 0.58711 0.61405 0.0
H230 H 0.76929 0.54993 0.56476 0.0
Co231 Co 0.27509 0.85751 0.45099 0.0
C232 C 0.19907 0.81895 0.45411 0.0
C233 C 0.21819 0.86826 0.42354 0.0
C234 C 0.18268 0.85225 0.42574 0.0
N235 N 0.22832 0.84743 0.44166 0.0
N236 N 0.17077 0.8213 0.44502 0.0
H237 H 0.19862 0.79743 0.47061 0.0
H238 H 0.2354 0.89345 0.41009 0.0
C239 C 0.31125 0.92985 0.48718 0.0
O240 O 0.32829 0.92164 0.51476 0.0
N241 N 0.32253 0.86808 0.45951 0.0
C242 C 0.33481 0.85158 0.48388 0.0
C243 C 0.37033 0.87064 0.48427 0.0
C244 C 0.35093 0.89605 0.44375 0.0
N245 N 0.38033 0.89862 0.45925 0.0
C246 C 0.25842 0.81398 0.52571 0.0
C247 C 0.2461 0.85516 0.58077 0.0
C248 C 0.24337 0.82463 0.59662 0.0
C249 C 0.24886 0.80347 0.56833 0.0
C250 C 0.25508 0.86432 0.5378 0.0
N251 N 0.26334 0.84501 0.51143 0.0
H252 H 0.26158 0.79688 0.50405 0.0
H253 H 0.25414 0.8864 0.52575 0.0
H254 H 0.31964 0.8279 0.50126 0.0
H255 H 0.35003 0.91551 0.42396 0.0
O256 O 0.26293 0.81276 0.42713 0.0
O257 O 0.28287 0.8613 0.38981 0.0
O258 O 0.28917 0.90727 0.4615 0.0
C259 C 0.27142 0.82827 0.38993 0.0
H260 H 0.16685 0.86255 0.41395 0.0
H261 H 0.3875 0.86497 0.50265 0.0
H262 H 0.24033 0.87131 0.60112 0.0
H263 H 0.24601 0.77915 0.57908 0.0
Co264 Co 0.42079 0.27661 0.453 0.0
C265 C 0.38749 0.2013 0.45952 0.0
C266 C 0.35557 0.21641 0.4249 0.0
C267 C 0.33899 0.18087 0.42631 0.0
N268 N 0.38583 0.22898 0.44589 0.0
N269 N 0.35911 0.17139 0.44818 0.0
H270 H 0.40913 0.20327 0.47752 0.0
H271 H 0.34648 0.23196 0.40917 0.0
C272 C 0.38108 0.30879 0.49009 0.0
O273 O 0.40572 0.32587 0.51844 0.0
N274 N 0.4562 0.32487 0.45897 0.0
C275 C 0.48922 0.33836 0.47232 0.0
C276 C 0.50545 0.37376 0.46976 0.0
C277 C 0.45351 0.35236 0.44648 0.0
N278 N 0.48286 0.38255 0.45382 0.0
C279 C 0.45226 0.26697 0.52865 0.0
C280 C 0.39576 0.24499 0.58217 0.0
C281 C 0.42567 0.24634 0.59841 0.0
C282 C 0.45415 0.25742 0.57096 0.0
C283 C 0.39506 0.25495 0.53971 0.0
N284 N 0.42358 0.26717 0.51387 0.0
H285 H 0.47327 0.27233 0.50721 0.0
H286 H 0.37091 0.25127 0.52726 0.0
H287 H 0.50146 0.324 0.48219 0.0
H288 H 0.43056 0.35028 0.43189 0.0
O289 O 0.45444 0.26582 0.42942 0.0
O290 O 0.42325 0.28245 0.39144 0.0
O291 O 0.38327 0.28824 0.4634 0.0
C292 C 0.44589 0.2723 0.39189 0.0
H293 H 0.31436 0.16353 0.4115 0.0
H294 H 0.53177 0.39159 0.47947 0.0
H295 H 0.37284 0.23587 0.60188 0.0
H296 H 0.47721 0.2573 0.58145 0.0
Co297 Co 0.13987 0.41204 0.44675 0.0
C298 C 0.18237 0.37914 0.45149 0.0
C299 C 0.13555 0.34753 0.41628 0.0
C300 C 0.15474 0.33114 0.41734 0.0
N301 N 0.15294 0.37747 0.43791 0.0
N302 N 0.18422 0.35103 0.43965 0.0
H303 H 0.20171 0.40052 0.47013 0.0
H304 H 0.11086 0.33842 0.4006 0.0
C305 C 0.06886 0.36912 0.48585 0.0
O306 O 0.07759 0.38982 0.51931 0.0
N307 N 0.12685 0.44724 0.45454 0.0
C308 C 0.14797 0.48137 0.46125 0.0
C309 C 0.12874 0.49758 0.46118 0.0
C310 C 0.0953 0.4437 0.44819 0.0
N311 N 0.09554 0.47382 0.45311 0.0
C312 C 0.17801 0.44344 0.52432 0.0
C313 C 0.14831 0.38426 0.57392 0.0
C314 C 0.1739 0.41521 0.59234 0.0
C315 C 0.18897 0.44499 0.56677 0.0
C316 C 0.1381 0.38389 0.53128 0.0
N317 N 0.15186 0.41357 0.50748 0.0
H318 H 0.19183 0.46596 0.50455 0.0
H319 H 0.11961 0.35947 0.5171 0.0
H320 H 0.17573 0.49434 0.46381 0.0
H321 H 0.07287 0.41996 0.43809 0.0
O322 O 0.18442 0.44624 0.42407 0.0
O323 O 0.13658 0.41595 0.38556 0.0
O324 O 0.09055 0.37439 0.45595 0.0
C325 C 0.16934 0.43873 0.3865 0.0
H326 H 0.14753 0.30666 0.40224 0.0
H327 H 0.13867 0.52488 0.46626 0.0
H328 H 0.13633 0.36045 0.59216 0.0
H329 H 0.20997 0.46911 0.57892 0.0
Co330 Co 0.72078 0.14348 0.45131 0.0
C331 C 0.79792 0.18339 0.45101 0.0
C332 C 0.7785 0.13113 0.43079 0.0
C333 C 0.8141 0.14761 0.43122 0.0
N334 N 0.76824 0.15315 0.44507 0.0
N335 N 0.82599 0.18039 0.44381 0.0
H336 H 0.7995 0.20746 0.45956 0.0
H337 H 0.7614 0.10491 0.42032 0.0
C338 C 0.71764 0.07955 0.48813 0.0
O339 O 0.74436 0.09861 0.51299 0.0
N340 N 0.67374 0.13363 0.4565 0.0
C341 C 0.66277 0.15349 0.47553 0.0
C342 C 0.62718 0.13523 0.47709 0.0
C343 C 0.64492 0.10394 0.446 0.0
N344 N 0.61612 0.10418 0.45845 0.0
C345 C 0.74995 0.19095 0.52144 0.0
C346 C 0.71782 0.14446 0.58752 0.0
C347 C 0.74355 0.17829 0.5974 0.0
C348 C 0.75877 0.20193 0.56381 0.0
C349 C 0.71011 0.13445 0.54429 0.0
N350 N 0.72821 0.15701 0.51187 0.0
H351 H 0.7605 0.21006 0.49639 0.0
H352 H 0.68981 0.10853 0.53704 0.0
H353 H 0.6795 0.17889 0.48883 0.0
H354 H 0.64504 0.08197 0.43156 0.0
O355 O 0.73388 0.18778 0.42608 0.0
O356 O 0.71564 0.13899 0.38963 0.0
O357 O 0.70487 0.09354 0.46408 0.0
C358 C 0.7271 0.17206 0.38908 0.0
H359 H 0.83001 0.13669 0.42211 0.0
H360 H 0.61071 0.14374 0.49167 0.0
H361 H 0.70445 0.12578 0.6128 0.0
H362 H 0.77725 0.22881 0.57027 0.0
Co363 Co 0.587 0.72861 0.44747 0.0
C364 C 0.62635 0.80598 0.45478 0.0
C365 C 0.64551 0.78701 0.40477 0.0
C366 C 0.66382 0.82255 0.4038 0.0
N367 N 0.6219 0.77651 0.43672 0.0
N368 N 0.65177 0.83426 0.43544 0.0
H369 H 0.61087 0.80743 0.48027 0.0
H370 H 0.64877 0.76992 0.38309 0.0
C371 C 0.6545 0.73553 0.47384 0.0
O372 O 0.66321 0.7657 0.49085 0.0
N373 N 0.55256 0.68109 0.45677 0.0
C374 C 0.52127 0.6689 0.47498 0.0
C375 C 0.50502 0.63337 0.47573 0.0
C376 C 0.55497 0.65314 0.44646 0.0
N377 N 0.52629 0.62352 0.45785 0.0
C378 C 0.56701 0.75455 0.51985 0.0
C379 C 0.59337 0.73086 0.58322 0.0
C380 C 0.57953 0.75172 0.59501 0.0
C381 C 0.56533 0.76276 0.56278 0.0
C382 C 0.59471 0.72346 0.53975 0.0
N383 N 0.5839 0.73739 0.50841 0.0
H384 H 0.55566 0.76308 0.49556 0.0
H385 H 0.60426 0.7063 0.53168 0.0
H386 H 0.51115 0.68473 0.48717 0.0
H387 H 0.57718 0.65456 0.43059 0.0
O388 O 0.55221 0.73795 0.42434 0.0
O389 O 0.58268 0.72058 0.38624 0.0
O390 O 0.62447 0.71682 0.45752 0.0
C391 C 0.55962 0.73018 0.38693 0.0
H392 H 0.68419 0.83854 0.38144 0.0
H393 H 0.47981 0.61625 0.48928 0.0
H394 H 0.60366 0.72084 0.6072 0.0
H395 H 0.55302 0.77766 0.57065 0.0
H396 H 0.43231 0.02983 0.04635 0.0
H397 H 0.57417 0.97066 0.04414 0.0
H398 H 0.54218 0.10151 0.04572 0.0
H399 H 0.4642 0.89997 0.04864 0.0
H400 H 0.56332 0.01897 0.04799 0.0
H401 H 0.44381 0.98218 0.0502 0.0
C402 C 0.45889 0.03568 0.04745 0.0
C403 C 0.48632 0.06993 0.04573 0.0
C404 C 0.54157 0.99288 0.04835 0.0
C405 C 0.49969 0.01508 0.0495 0.0
C406 C 0.54775 0.96523 0.04646 0.0
C407 C 0.52003 0.9311 0.04595 0.0
C408 C 0.50742 0.98642 0.04971 0.0
C409 C 0.48633 0.92577 0.04831 0.0
C410 C 0.46544 0.00833 0.04939 0.0
C411 C 0.52022 0.07561 0.04644 0.0
N412 N 0.48099 0.9531 0.04995 0.0
N413 N 0.52594 0.04848 0.04818 0.0
H414 H 0.59672 0.5621 0.0233 0.0
H415 H 0.39827 0.4345 0.07977 0.0
H416 H 0.55782 0.45741 0.06631 0.0
H417 H 0.43387 0.52711 0.00365 0.0
H418 H 0.45717 0.44507 0.08241 0.0
H419 H 0.53787 0.55243 0.02392 0.0
C420 C 0.57582 0.53716 0.03325 0.0
C421 C 0.58217 0.5105 0.04483 0.0
C422 C 0.45198 0.46303 0.06514 0.0
C423 C 0.51468 0.49919 0.04535 0.0
C424 C 0.41819 0.45698 0.06341 0.0
C425 C 0.41057 0.47977 0.04113 0.0
C426 C 0.47859 0.49225 0.04487 0.0
C427 C 0.43812 0.50885 0.0215 0.0
C428 C 0.54219 0.53158 0.03328 0.0
C429 C 0.55399 0.47852 0.05677 0.0
N430 N 0.47082 0.51422 0.02386 0.0
N431 N 0.52146 0.47376 0.05685 0.0
H432 H 0.0742 0.57539 0.97082 0.0
H433 H 0.94199 0.4134 0.10642 0.0
H434 H 0.06393 0.58542 0.10728 0.0
H435 H 0.91814 0.4324 0.97836 0.0
H436 H 0.9927 0.47207 0.10761 0.0
H437 H 0.0229 0.5177 0.97273 0.0
C438 C 0.06128 0.56517 0.00126 0.0
C439 C 0.07324 0.58489 0.03902 0.0
C440 C 0.97615 0.46335 0.07944 0.0
C441 C 0.01487 0.51917 0.04148 0.0
C442 C 0.94747 0.43002 0.07869 0.0
C443 C 0.92597 0.41833 0.04231 0.0
C444 C 0.98374 0.48455 0.04307 0.0
C445 C 0.93394 0.44068 0.00713 0.0
C446 C 0.03194 0.5325 0.00227 0.0
C447 C 0.05533 0.57084 0.07758 0.0
N448 N 0.96245 0.47261 0.00815 0.0
N449 N 0.0271 0.53857 0.07798 0.0
H450 H 0.02746 0.42631 0.4639 0.0
H451 H 0.96863 0.56778 0.454 0.0
H452 H 0.09678 0.53423 0.43695 0.0
H453 H 0.89622 0.45819 0.45875 0.0
H454 H 0.0158 0.5557 0.449 0.0
H455 H 0.97902 0.43708 0.46297 0.0
C456 C 0.03256 0.4522 0.45737 0.0
C457 C 0.06645 0.47942 0.45067 0.0
C458 C 0.98958 0.53425 0.45094 0.0
C459 C 0.01101 0.492 0.45028 0.0
C460 C 0.96247 0.54113 0.45358 0.0
C461 C 0.92813 0.51397 0.45667 0.0
C462 C 0.98253 0.49996 0.45169 0.0
C463 C 0.92217 0.47999 0.45692 0.0
C464 C 0.00484 0.45835 0.45709 0.0
C465 C 0.07133 0.51252 0.44302 0.0
N466 N 0.94909 0.47396 0.45458 0.0
N467 N 0.04398 0.51787 0.44321 0.0
H468 H 0.56806 0.08463 0.52105 0.0
H469 H 0.41283 0.93648 0.38854 0.0
H470 H 0.58514 0.0586 0.39325 0.0
H471 H 0.4249 0.92856 0.52503 0.0
H472 H 0.4711 0.98807 0.3864 0.0
H473 H 0.50963 0.03422 0.51996 0.0
C474 C 0.55928 0.06847 0.49259 0.0
C475 C 0.58128 0.07563 0.45718 0.0
C476 C 0.4609 0.97485 0.41669 0.0
C477 C 0.51468 0.01831 0.45557 0.0
C478 C 0.42783 0.94566 0.41791 0.0
C479 C 0.41445 0.92825 0.45691 0.0
C480 C 0.48001 0.9871 0.45499 0.0
C481 C 0.43462 0.94104 0.49426 0.0
C482 C 0.52615 0.03967 0.4921 0.0
C483 C 0.56889 0.05368 0.42122 0.0
N484 N 0.46627 0.96988 0.49248 0.0
N485 N 0.53622 0.02604 0.42115 0.0
H486 H 0.43415 0.40206 0.45481 0.0
H487 H 0.57435 0.60338 0.4508 0.0
H488 H 0.5439 0.44201 0.44231 0.0
H489 H 0.46428 0.56392 0.45469 0.0
H490 H 0.56348 0.54445 0.44512 0.0
H491 H 0.44435 0.46096 0.45183 0.0
C492 C 0.46036 0.42312 0.45087 0.0
C493 C 0.48823 0.41697 0.44896 0.0
C494 C 0.54168 0.54867 0.44703 0.0
C495 C 0.50015 0.48467 0.44627 0.0
C496 C 0.54787 0.58242 0.45005 0.0
C497 C 0.52019 0.58879 0.45332 0.0
C498 C 0.50756 0.52093 0.44737 0.0
C499 C 0.48644 0.56034 0.4529 0.0
C500 C 0.46619 0.45683 0.44948 0.0
C501 C 0.52168 0.44547 0.44458 0.0
N502 N 0.48109 0.52769 0.45011 0.0
N503 N 0.5267 0.47803 0.44357 0.0
H504 H 0.30016 0.03388 0.96444 0.0
H505 H 0.20753 0.87712 0.12515 0.0
H506 H 0.34649 0.03309 0.08616 0.0
H507 H 0.20584 0.85866 0.98871 0.0
H508 H 0.25113 0.93794 0.11318 0.0
H509 H 0.25793 0.9722 0.97394 0.0
C510 C 0.30147 0.02071 0.99304 0.0
C511 C 0.32682 0.03848 0.02454 0.0
C512 C 0.24118 0.92052 0.08591 0.0
C513 C 0.27846 0.9687 0.03591 0.0
C514 C 0.21626 0.88606 0.09269 0.0
C515 C 0.2033 0.86314 0.05783 0.0
C516 C 0.25246 0.93222 0.04387 0.0
C517 C 0.21552 0.87569 0.01633 0.0
C518 C 0.27753 0.98564 0.99833 0.0
C519 C 0.32748 0.02027 0.06099 0.0
N520 N 0.23925 0.90959 0.01035 0.0
N521 N 0.30336 0.98645 0.06596 0.0
H522 H 0.33839 0.19715 0.98323 0.0
H523 H 0.30727 0.34198 0.0825 0.0
H524 H 0.32618 0.2045 0.1198 0.0
H525 H 0.2568 0.29157 0.96384 0.0
H526 H 0.32602 0.29957 0.09206 0.0
H527 H 0.31919 0.2394 0.97083 0.0
C528 C 0.33168 0.20776 0.01048 0.0
C529 C 0.33365 0.19743 0.05254 0.0
C530 C 0.31091 0.2979 0.06391 0.0
C531 C 0.31256 0.24576 0.03882 0.0
C532 C 0.30039 0.32215 0.05825 0.0
C533 C 0.28038 0.32017 0.02235 0.0
C534 C 0.30207 0.27197 0.03297 0.0
C535 C 0.27203 0.29382 0.99207 0.0
C536 C 0.32064 0.23158 0.00343 0.0
C537 C 0.32463 0.21166 0.08693 0.0
N538 N 0.28316 0.27079 0.99788 0.0
N539 N 0.31482 0.23543 0.07937 0.0
H540 H 0.96023 0.26936 0.95395 0.0
H541 H 0.11526 0.3253 0.11728 0.0
H542 H 0.96222 0.31433 0.07771 0.0
H543 H 0.13433 0.34032 0.9808 0.0
H544 H 0.05521 0.31076 0.10469 0.0
H545 H 0.02119 0.28583 0.964 0.0
C546 C 0.97353 0.28282 0.98307 0.0
C547 C 0.95626 0.29061 0.01499 0.0
C548 C 0.07257 0.31722 0.07753 0.0
C549 C 0.02524 0.30861 0.02701 0.0
C550 C 0.10661 0.32522 0.08467 0.0
C551 C 0.12953 0.33395 0.04998 0.0
C552 C 0.06124 0.31719 0.03533 0.0
C553 C 0.11732 0.33388 0.0083 0.0
C554 C 0.00819 0.29222 0.98871 0.0
C555 C 0.97464 0.30806 0.05215 0.0
N556 N 0.08383 0.32531 0.00201 0.0
N557 N 0.00802 0.31609 0.05739 0.0
H558 H 0.80768 0.11764 0.09932 0.0
H559 H 0.64163 0.98713 0.96104 0.0
H560 H 0.77174 0.14852 0.98803 0.0
H561 H 0.68229 0.95589 0.06721 0.0
H562 H 0.68953 0.04632 0.9695 0.0
H563 H 0.76247 0.05798 0.08702 0.0
C564 C 0.79048 0.11191 0.07214 0.0
C565 C 0.79347 0.13829 0.04488 0.0
C566 C 0.68802 0.02645 0.99081 0.0
C567 C 0.74128 0.06993 0.03081 0.0
C568 C 0.66069 0.99264 0.98596 0.0
C569 C 0.65786 0.96649 0.0135 0.0
C570 C 0.71263 0.03415 0.0235 0.0
C571 C 0.68331 0.97519 0.04529 0.0
C572 C 0.76451 0.07781 0.06523 0.0
C573 C 0.77007 0.12922 0.0104 0.0
N574 N 0.70951 0.00825 0.04948 0.0
N575 N 0.74494 0.09586 0.00444 0.0
H576 H 0.65275 0.79094 0.9813 0.0
H577 H 0.68706 0.64747 0.07893 0.0
H578 H 0.67412 0.78828 0.11617 0.0
H579 H 0.72868 0.69178 0.95451 0.0
H580 H 0.66982 0.69089 0.08959 0.0
H581 H 0.66909 0.74672 0.96737 0.0
C582 C 0.66078 0.78088 0.00788 0.0
C583 C 0.66226 0.79314 0.04989 0.0
C584 C 0.68262 0.69099 0.05992 0.0
C585 C 0.68021 0.74263 0.03446 0.0
C586 C 0.69227 0.66614 0.05363 0.0
C587 C 0.70942 0.66612 0.01578 0.0
C588 C 0.68945 0.71555 0.02777 0.0
C589 C 0.71569 0.69106 0.98424 0.0
C590 C 0.67022 0.75594 -7e-05 0.0
C591 C 0.67297 0.77961 0.08334 0.0
N592 N 0.70548 0.71475 0.9908 0.0
N593 N 0.68121 0.75479 0.07499 0.0
H594 H 0.88751 0.70488 0.05732 0.0
H595 H 0.01124 0.6347 0.97782 0.0
H596 H 0.84994 0.59894 0.01922 0.0
H597 H 0.04693 0.72765 0.05307 0.0
H598 H 0.95208 0.62431 0.98347 0.0
H599 H 0.94645 0.71655 0.04723 0.0
C600 C 0.89138 0.68397 0.04701 0.0
C601 C 0.8632 0.65073 0.03945 0.0
C602 C 0.97292 0.647 0.99864 0.0
C603 C 0.93104 0.66432 0.02703 0.0
C604 C 0.00667 0.65302 0.99527 0.0
C605 C 0.034 0.682 0.01514 0.0
C606 C 0.96658 0.67036 0.02158 0.0
C607 C 0.0266 0.70483 0.0375 0.0
C608 C 0.92518 0.69077 0.04107 0.0
C609 C 0.87036 0.62505 0.0252 0.0
N610 N 0.99361 0.69856 0.04005 0.0
N611 N 0.90349 0.6324 0.01947 0.0
H612 H 0.11903 0.83422 0.46357 0.0
H613 H 0.97343 0.63543 0.46627 0.0
H614 H 0.14173 0.75167 0.44951 0.0
H615 H 0.95604 0.71688 0.51102 0.0
H616 H 0.03497 0.6774 0.45908 0.0
H617 H 0.05884 0.79161 0.47916 0.0
C618 C 0.1113 0.80711 0.46362 0.0
C619 C 0.13538 0.79646 0.45499 0.0
C620 C 0.01775 0.68603 0.47085 0.0
C621 C 0.06655 0.74751 0.47302 0.0
C622 C 0.98259 0.66209 0.47494 0.0
C623 C 0.95951 0.67269 0.48908 0.0
C624 C 0.02988 0.72094 0.48042 0.0
C625 C 0.97288 0.70754 0.50003 0.0
C626 C 0.07701 0.7828 0.47288 0.0
C627 C 0.12407 0.761 0.45624 0.0
N628 N 0.00713 0.73048 0.49505 0.0
N629 N 0.09041 0.73778 0.46474 0.0
H630 H 0.40507 0.15128 0.47314 0.0
H631 H 0.26859 0.95093 0.45333 0.0
H632 H 0.29715 0.11158 0.44344 0.0
H633 H 0.36703 0.98948 0.51705 0.0
H634 H 0.27967 0.00989 0.44663 0.0
H635 H 0.39269 0.09264 0.48683 0.0
C636 C 0.37871 0.13047 0.46976 0.0
C637 C 0.35215 0.13675 0.45691 0.0
C638 C 0.29878 0.0055 0.46233 0.0
C639 C 0.33802 0.06916 0.47201 0.0
C640 C 0.29254 0.97183 0.46604 0.0
C641 C 0.31702 0.96533 0.48563 0.0
C642 C 0.32994 0.033 0.47781 0.0
C643 C 0.34744 0.99338 0.50183 0.0
C644 C 0.37173 0.09686 0.47752 0.0
C645 C 0.31865 0.10826 0.45254 0.0
N646 N 0.3532 0.02609 0.49722 0.0
N647 N 0.31262 0.07577 0.45985 0.0
H648 H 0.18333 0.28982 0.43045 0.0
H649 H 0.37468 0.36242 0.52261 0.0
H650 H 0.24888 0.39571 0.47081 0.0
H651 H 0.31925 0.26749 0.45055 0.0
H652 H 0.32581 0.37224 0.5127 0.0
H653 H 0.23032 0.27874 0.44563 0.0
C654 C 0.20746 0.31086 0.4423 0.0
C655 C 0.21179 0.34389 0.44902 0.0
C656 C 0.32435 0.34921 0.49923 0.0
C657 C 0.26583 0.33098 0.46727 0.0
C658 C 0.35212 0.3435 0.5051 0.0
C659 C 0.35107 0.31416 0.48727 0.0
C660 C 0.29522 0.32522 0.47578 0.0
C661 C 0.32128 0.29059 0.4646 0.0
C662 C 0.23432 0.30439 0.45118 0.0
C663 C 0.24382 0.36976 0.46531 0.0
N664 N 0.29458 0.29663 0.45953 0.0
N665 N 0.26952 0.36274 0.47385 0.0
H666 H 0.03191 0.35046 0.4116 0.0
H667 H 0.87415 0.17682 0.49224 0.0
H668 H 0.02416 0.32504 0.54664 0.0
H669 H 0.85745 0.24402 0.40895 0.0
H670 H 0.93403 0.22378 0.50449 0.0
H671 H 0.97193 0.30414 0.40147 0.0
C672 C 0.01756 0.33497 0.43905 0.0
C673 C 0.03279 0.34142 0.48003 0.0
C674 C 0.91718 0.22809 0.48351 0.0
C675 C 0.96487 0.28825 0.46841 0.0
C676 C 0.88337 0.20141 0.4763 0.0
C677 C 0.8613 0.20686 0.4495 0.0
C678 C 0.92902 0.25987 0.46268 0.0
C679 C 0.87394 0.23911 0.42979 0.0
C680 C 0.98344 0.30877 0.43326 0.0
C681 C 0.01314 0.32085 0.51462 0.0
N682 N 0.90721 0.26439 0.43633 0.0
N683 N 0.98017 0.29475 0.50796 0.0
H684 H 0.68062 0.03807 0.42113 0.0
H685 H 0.65841 0.86305 0.51405 0.0
H686 H 0.72707 0.03641 0.54246 0.0
H687 H 0.66752 0.88545 0.37814 0.0
H688 H 0.67371 0.92307 0.52918 0.0
H689 H 0.66462 0.97794 0.40922 0.0
C690 C 0.68712 0.02496 0.44555 0.0
C691 C 0.70531 0.04232 0.48286 0.0
C692 C 0.67246 0.91478 0.49611 0.0
C693 C 0.6869 0.97345 0.46931 0.0
C694 C 0.66365 0.88068 0.48749 0.0
C695 C 0.66187 0.86953 0.44482 0.0
C696 C 0.67862 0.93748 0.46172 0.0
C697 C 0.669 0.89324 0.41144 0.0
C698 C 0.6782 0.99073 0.43851 0.0
C699 C 0.7132 0.02401 0.5132 0.0
N700 N 0.67673 0.92605 0.42057 0.0
N701 N 0.7038 0.99042 0.50586 0.0
H702 H 0.72393 0.77263 0.49057 0.0
H703 H 0.75598 0.61509 0.44316 0.0
H704 H 0.64285 0.67103 0.45325 0.0
H705 H 0.83815 0.72116 0.44895 0.0
H706 H 0.71394 0.6341 0.45434 0.0
H707 H 0.76592 0.75305 0.48342 0.0
C708 C 0.7149 0.74614 0.48119 0.0
C709 C 0.67983 0.72347 0.47236 0.0
C710 C 0.74116 0.65324 0.45314 0.0
C711 C 0.72776 0.70096 0.46404 0.0
C712 C 0.76518 0.64238 0.447 0.0
C713 C 0.80062 0.66661 0.44516 0.0
C714 C 0.75265 0.68857 0.45787 0.0
C715 C 0.81105 0.7017 0.44971 0.0
C716 C 0.73892 0.73505 0.47689 0.0
C717 C 0.66965 0.68945 0.46016 0.0
N718 N 0.78718 0.71164 0.45603 0.0
N719 N 0.6935 0.67924 0.45638 0.0
H720 H 0.46971 0.22732 0.37974 0.0
H721 H 0.46588 0.23825 0.12267 0.0
H722 H 0.44711 0.29782 0.31175 0.0
H723 H 0.44258 0.1454 0.1917 0.0
H724 H 0.47702 0.26891 0.19159 0.0
H725 H 0.47794 0.20609 0.31036 0.0
C726 C 0.46735 0.23893 0.35025 0.0
C727 C 0.45745 0.26414 0.35133 0.0
C728 C 0.47003 0.24197 0.1915 0.0
C729 C 0.46681 0.24009 0.27228 0.0
C730 C 0.46385 0.22452 0.15226 0.0
C731 C 0.45299 0.18918 0.15162 0.0
C732 C 0.46578 0.22403 0.23019 0.0
C733 C 0.45058 0.17258 0.19087 0.0
C734 C 0.4718 0.22665 0.31076 0.0
C735 C 0.45444 0.27812 0.31223 0.0
N736 N 0.45674 0.19011 0.22863 0.0
N737 N 0.4589 0.26577 0.27423 0.0
H738 H 0.29502 0.43962 0.18545 0.0
H739 H 0.14445 0.44301 0.30809 0.0
H740 H 0.22287 0.46143 0.12009 0.0
H741 H 0.23813 0.46311 0.37288 0.0
H742 H 0.17421 0.45369 0.23895 0.0
H743 H 0.27696 0.45194 0.25432 0.0
C744 C 0.27578 0.4476 0.18561 0.0
C745 C 0.26013 0.4492 0.14719 0.0
C746 C 0.18852 0.45651 0.2683 0.0
C747 C 0.23891 0.46271 0.22579 0.0
C748 C 0.17152 0.45035 0.30774 0.0
C749 C 0.18883 0.45189 0.34609 0.0
C750 C 0.22279 0.4634 0.2672 0.0
C751 C 0.22389 0.46163 0.34397 0.0
C752 C 0.26556 0.45474 0.22489 0.0
C753 C 0.2355 0.45984 0.14907 0.0
N754 N 0.23956 0.46631 0.30504 0.0
N755 N 0.2251 0.46552 0.18787 0.0
H756 H 0.75911 0.22878 0.12039 0.0
H757 H 0.77173 0.24072 0.37704 0.0
H758 H 0.8531 0.29687 0.18886 0.0
H759 H 0.70283 0.14711 0.30853 0.0
H760 H 0.79256 0.27049 0.30794 0.0
H761 H 0.72937 0.20792 0.18953 0.0
C762 C 0.77328 0.23986 0.14996 0.0
C763 C 0.80865 0.26434 0.1491 0.0
C764 C 0.77249 0.24358 0.30818 0.0
C765 C 0.77486 0.2408 0.22779 0.0
C766 C 0.76047 0.22664 0.34747 0.0
C767 C 0.73576 0.19137 0.34831 0.0
C768 C 0.75927 0.2252 0.26965 0.0
C769 C 0.72215 0.17426 0.30915 0.0
C770 C 0.75635 0.22782 0.18927 0.0
C771 C 0.82587 0.27773 0.18825 0.0
N772 N 0.73421 0.19133 0.27129 0.0
N773 N 0.80882 0.26567 0.22613 0.0
H774 H 0.55756 0.85485 0.18675 0.0
H775 H 0.55651 0.70196 0.3081 0.0
H776 H 0.5353 0.76101 0.12083 0.0
H777 H 0.53383 0.77337 0.37364 0.0
H778 H 0.54541 0.721 0.23914 0.0
H779 H 0.54559 0.82432 0.2555 0.0
C780 C 0.54951 0.82763 0.18675 0.0
C781 C 0.54771 0.81046 0.14821 0.0
C782 C 0.54211 0.73199 0.26863 0.0
C783 C 0.53467 0.77561 0.22662 0.0
C784 C 0.54851 0.72118 0.30796 0.0
C785 C 0.54635 0.73636 0.34647 0.0
C786 C 0.53436 0.75878 0.26782 0.0
C787 C 0.5358 0.76106 0.34459 0.0
C788 C 0.54259 0.8102 0.22596 0.0
C789 C 0.53704 0.77519 0.1499 0.0
N790 N 0.53091 0.77207 0.30579 0.0
N791 N 0.53162 0.75906 0.18859 0.0
H792 H 0.86423 0.56777 0.30916 0.0
H793 H 0.77341 0.53026 0.11624 0.0
H794 H 0.76619 0.53613 0.37035 0.0
H795 H 0.71183 0.56255 0.18811 0.0
H796 H 0.79713 0.52307 0.18418 0.0
H797 H 0.83605 0.55732 0.2388 0.0
C798 C 0.83663 0.55795 0.30774 0.0
C799 C 0.81749 0.55286 0.34551 0.0
C800 C 0.77833 0.53159 0.18499 0.0
C801 C 0.7851 0.54081 0.26537 0.0
C802 C 0.7645 0.53532 0.14635 0.0
C803 C 0.74099 0.54743 0.14669 0.0
C804 C 0.76828 0.53983 0.22405 0.0
C805 C 0.73025 0.55358 0.1865 0.0
C806 C 0.8205 0.5517 0.26761 0.0
C807 C 0.78185 0.54026 0.34196 0.0
N808 N 0.74409 0.54981 0.22364 0.0
N809 N 0.76691 0.53533 0.30251 0.0
H810 H 0.24226 0.76477 0.1203 0.0
H811 H 0.30043 0.85387 0.31174 0.0
H812 H 0.14739 0.70665 0.19154 0.0
H813 H 0.2266 0.75968 0.37492 0.0
H814 H 0.28215 0.82474 0.24232 0.0
H815 H 0.27362 0.78558 0.1884 0.0
C816 C 0.2281 0.75601 0.15027 0.0
C817 C 0.19208 0.73446 0.15029 0.0
C818 C 0.27066 0.81001 0.27131 0.0
C819 C 0.22758 0.75885 0.22816 0.0
C820 C 0.28091 0.82676 0.31099 0.0
C821 C 0.26493 0.80916 0.34904 0.0
C822 C 0.24383 0.77546 0.26961 0.0
C823 C 0.23967 0.77412 0.34629 0.0
C824 C 0.24596 0.76823 0.18912 0.0
C825 C 0.17509 0.72368 0.19007 0.0
N826 N 0.22935 0.75859 0.30711 0.0
N827 N 0.19295 0.73624 0.22743 0.0
H828 H 0.59619 0.81558 0.62508 0.0
H829 H 0.5628 0.75877 0.87269 0.0
H830 H 0.56504 0.71239 0.66828 0.0
H831 H 0.60933 0.86455 0.83021 0.0
H832 H 0.56066 0.74063 0.79787 0.0
H833 H 0.59812 0.83329 0.69991 0.0
C834 C 0.58952 0.79658 0.65034 0.0
C835 C 0.58034 0.76242 0.64043 0.0
C836 C 0.5714 0.76782 0.80492 0.0
C837 C 0.58281 0.78262 0.72626 0.0
C838 C 0.57244 0.77817 0.84758 0.0
C839 C 0.58617 0.81323 0.85765 0.0
C840 C 0.58394 0.79267 0.77202 0.0
C841 C 0.5988 0.83729 0.82391 0.0
C842 C 0.59088 0.80678 0.69307 0.0
C843 C 0.57253 0.73905 0.6745 0.0
N844 N 0.59724 0.82656 0.7826 0.0
N845 N 0.57384 0.74956 0.71592 0.0
H846 H 0.8289 0.53828 0.66552 0.0
H847 H 0.74056 0.60509 0.83158 0.0
H848 H 0.77916 0.59502 0.62507 0.0
H849 H 0.74727 0.51339 0.85518 0.0
H850 H 0.75952 0.60599 0.75769 0.0
H851 H 0.80542 0.53396 0.73825 0.0
C852 C 0.81316 0.54992 0.67209 0.0
C853 C 0.80587 0.56699 0.63945 0.0
C854 C 0.75663 0.58559 0.77909 0.0
C855 C 0.7792 0.56233 0.72207 0.0
C856 C 0.74552 0.58485 0.82127 0.0
C857 C 0.74245 0.55925 0.85011 0.0
C858 C 0.76529 0.56092 0.76571 0.0
C859 C 0.75003 0.53417 0.8347 0.0
C860 C 0.79959 0.54724 0.71335 0.0
C861 C 0.78514 0.58143 0.64938 0.0
N862 N 0.76144 0.53586 0.79373 0.0
N863 N 0.77272 0.579 0.68992 0.0
H864 H 0.27231 0.86417 0.66815 0.0
H865 H 0.13476 0.72891 0.83262 0.0
H866 H 0.19295 0.76266 0.62841 0.0
H867 H 0.23635 0.80805 0.87265 0.0
H868 H 0.15177 0.74472 0.75724 0.0
H869 H 0.25573 0.84778 0.74344 0.0
C870 C 0.25136 0.83845 0.67538 0.0
C871 C 0.23396 0.81468 0.64219 0.0
C872 C 0.17033 0.75854 0.78255 0.0
C873 C 0.21472 0.79592 0.72789 0.0
C874 C 0.16059 0.7497 0.82545 0.0
C875 C 0.18424 0.76721 0.85874 0.0
C876 C 0.20373 0.78549 0.77298 0.0
C877 C 0.21747 0.79377 0.84784 0.0
C878 C 0.24205 0.82908 0.71824 0.0
C879 C 0.20715 0.78161 0.65317 0.0
N880 N 0.22618 0.80229 0.80586 0.0
N881 N 0.19814 0.77326 0.69513 0.0
H882 H 0.37745 0.1342 0.83984 0.0
H883 H 0.47865 0.27591 0.65698 0.0
H884 H 0.47682 0.22543 0.85984 0.0
H885 H 0.37511 0.19 0.64121 0.0
H886 H 0.47993 0.25598 0.72994 0.0
H887 H 0.37784 0.15212 0.76535 0.0
C888 C 0.39951 0.15783 0.82845 0.0
C889 C 0.42708 0.1784 0.85623 0.0
C890 C 0.45692 0.24149 0.71054 0.0
C891 C 0.42753 0.19931 0.77104 0.0
C892 C 0.45623 0.25278 0.66881 0.0
C893 C 0.42668 0.23469 0.64297 0.0
C894 C 0.42792 0.21175 0.72657 0.0
C895 C 0.39825 0.20507 0.66019 0.0
C896 C 0.3996 0.16819 0.786 0.0
C897 C 0.45478 0.20901 0.83979 0.0
N898 N 0.39959 0.19452 0.70084 0.0
N899 N 0.45427 0.21854 0.79834 0.0
H900 H 0.2364 0.36973 0.83677 0.0
H901 H 0.1903 0.46573 0.65286 0.0
H902 H 0.24476 0.46944 0.85366 0.0
H903 H 0.18484 0.36746 0.63439 0.0
H904 H 0.21093 0.4678 0.72626 0.0
H905 H 0.21868 0.36894 0.76212 0.0
C906 C 0.23485 0.39163 0.82469 0.0
C907 C 0.242 0.41965 0.85165 0.0
C908 C 0.20522 0.44577 0.70617 0.0
C909 C 0.2212 0.41867 0.76628 0.0
C910 C 0.19357 0.44463 0.66417 0.0
C911 C 0.18578 0.41636 0.63735 0.0
C912 C 0.20918 0.41844 0.72162 0.0
C913 C 0.19004 0.38954 0.65405 0.0
C914 C 0.22448 0.39104 0.78212 0.0
C915 C 0.239 0.44704 0.83432 0.0
N916 N 0.20146 0.39125 0.69507 0.0
N917 N 0.22877 0.44582 0.79281 0.0
H918 H 0.76062 0.24642 0.86133 0.0
H919 H 0.80951 0.21206 0.62726 0.0
H920 H 0.85757 0.2511 0.83327 0.0
H921 H 0.70394 0.1701 0.66878 0.0
H922 H 0.82913 0.23321 0.70038 0.0
H923 H 0.74101 0.22537 0.78835 0.0
C924 C 0.77781 0.24298 0.84 0.0
C925 C 0.81077 0.25028 0.85385 0.0
C926 C 0.80167 0.21927 0.69357 0.0
C927 C 0.78854 0.22681 0.76988 0.0
C928 C 0.79049 0.20731 0.65191 0.0
C929 C 0.75509 0.1894 0.64215 0.0
C930 C 0.77731 0.21373 0.72559 0.0
C931 C 0.73145 0.18364 0.67519 0.0
C932 C 0.76656 0.23103 0.79828 0.0
C933 C 0.83215 0.24621 0.82409 0.0
N934 N 0.743 0.19605 0.71549 0.0
N935 N 0.82066 0.23475 0.78354 0.0
loop_
_geom_bond_atom_site_label_1
_geom_bond_atom_site_label_2
_geom_bond_distance
_geom_bond_site_symmetry_2
_ccdc_geom_bond_type
Co0 N4 2.148 . S
Co0 N10 2.128 . S
Co0 N20 2.194 1_554 S
Co0 O25 2.351 . S
Co0 O26 2.155 . S
Co0 O27 2.096 . S
C1 N4 1.301 . S
C1 N5 1.328 . S
C1 H6 0.930 . S
C2 C3 1.333 . S
C2 N4 1.317 . S
C2 H7 0.930 . S
C3 C2 1.333 . S
C3 N5 1.350 . S
C3 H29 0.931 . S
N4 Co0 2.148 . S
N4 C1 1.301 . S
N4 C2 1.317 . S
N5 C1 1.328 . S
N5 C3 1.350 . S
H6 C1 0.930 . S
H7 C2 0.930 . S
C8 O9 1.224 1_554 S
C8 O27 1.247 . S
O9 C8 1.224 1_556 S
N10 Co0 2.128 . S
N10 C11 1.355 . S
N10 C13 1.311 . S
C11 N10 1.355 . S
C11 C12 1.363 . S
C11 H23 0.929 . S
C12 C11 1.363 . S
C12 N14 1.375 . S
C12 H30 0.931 . S
C13 N10 1.311 . S
C13 N14 1.347 . S
C13 H24 0.929 . S
N14 C12 1.375 . S
N14 C13 1.347 . S
C15 C18 1.365 . S
C15 N20 1.328 . S
C15 H21 0.929 1_556 S
C16 C17 1.362 . S
C16 C19 1.378 . S
C16 H31 0.929 . S
C17 C16 1.362 . S
C17 C18 1.366 . S
C18 C15 1.365 . S
C18 C17 1.366 . S
C18 H32 0.930 . S
C19 C16 1.378 . S
C19 N20 1.315 . S
C19 H22 0.930 . S
N20 Co0 2.194 1_556 S
N20 C15 1.328 . S
N20 C19 1.315 . S
H21 C15 0.929 1_554 S
H22 C19 0.930 . S
H23 C11 0.929 . S
H24 C13 0.929 . S
O25 Co0 2.351 . S
O25 C28 1.244 . S
O26 Co0 2.155 . S
O26 C28 1.240 . S
O27 Co0 2.096 . S
O27 C8 1.247 . S
C28 O25 1.244 . S
C28 O26 1.240 . S
H29 C3 0.931 . S
H30 C12 0.931 . S
H31 C16 0.929 . S
H32 C18 0.930 . S
Co33 N37 2.148 . S
Co33 N43 2.128 . S
Co33 N53 2.194 1_554 S
Co33 O58 2.351 . S
Co33 O59 2.155 . S
Co33 O60 2.096 . S
C34 N37 1.301 . S
C34 N38 1.328 . S
C34 H39 0.930 . S
C35 C36 1.333 . S
C35 N37 1.317 . S
C35 H40 0.930 . S
C36 C35 1.333 . S
C36 N38 1.350 . S
C36 H62 0.931 . S
N37 Co33 2.148 . S
N37 C34 1.301 . S
N37 C35 1.317 . S
N38 C34 1.328 . S
N38 C36 1.350 . S
H39 C34 0.930 . S
H40 C35 0.930 . S
C41 O42 1.224 1_554 S
C41 O60 1.247 . S
O42 C41 1.224 1_556 S
N43 Co33 2.128 . S
N43 C44 1.355 . S
N43 C46 1.311 . S
C44 N43 1.355 . S
C44 C45 1.363 . S
C44 H56 0.929 . S
C45 C44 1.363 . S
C45 N47 1.375 . S
C45 H63 0.931 . S
C46 N43 1.311 . S
C46 N47 1.347 . S
C46 H57 0.929 . S
N47 C45 1.375 . S
N47 C46 1.347 . S
C48 C51 1.365 . S
C48 N53 1.328 . S
C48 H54 0.929 1_556 S
C49 C50 1.362 . S
C49 C52 1.378 . S
C49 H64 0.929 . S
C50 C49 1.362 . S
C50 C51 1.366 . S
C51 C48 1.365 . S
C51 C50 1.366 . S
C51 H65 0.930 . S
C52 C49 1.378 . S
C52 N53 1.315 . S
C52 H55 0.930 . S
N53 Co33 2.194 1_556 S
N53 C48 1.328 . S
N53 C52 1.315 . S
H54 C48 0.929 1_554 S
H55 C52 0.930 . S
H56 C44 0.929 . S
H57 C46 0.929 . S
O58 Co33 2.351 . S
O58 C61 1.244 . S
O59 Co33 2.155 . S
O59 C61 1.240 . S
O60 Co33 2.096 . S
O60 C41 1.247 . S
C61 O58 1.244 . S
C61 O59 1.240 . S
H62 C36 0.931 . S
H63 C45 0.931 . S
H64 C49 0.929 . S
H65 C51 0.930 . S
Co66 N70 2.148 . S
Co66 N76 2.128 . S
Co66 N86 2.194 1_554 S
Co66 O91 2.351 . S
Co66 O92 2.155 . S
Co66 O93 2.096 . S
C67 N70 1.301 . S
C67 N71 1.328 . S
C67 H72 0.930 . S
C68 C69 1.333 . S
C68 N70 1.317 . S
C68 H73 0.930 . S
C69 C68 1.333 . S
C69 N71 1.350 . S
C69 H95 0.931 . S
N70 Co66 2.148 . S
N70 C67 1.301 . S
N70 C68 1.317 . S
N71 C67 1.328 . S
N71 C69 1.350 . S
H72 C67 0.930 . S
H73 C68 0.930 . S
C74 O75 1.224 1_554 S
C74 O93 1.247 . S
O75 C74 1.224 1_556 S
N76 Co66 2.128 . S
N76 C77 1.355 . S
N76 C79 1.311 . S
C77 N76 1.355 . S
C77 C78 1.363 . S
C77 H89 0.929 . S
C78 C77 1.363 . S
C78 N80 1.375 . S
C78 H96 0.931 . S
C79 N76 1.311 . S
C79 N80 1.347 . S
C79 H90 0.929 . S
N80 C78 1.375 . S
N80 C79 1.347 . S
C81 C84 1.365 . S
C81 N86 1.328 . S
C81 H87 0.929 1_556 S
C82 C83 1.362 . S
C82 C85 1.378 . S
C82 H97 0.929 . S
C83 C82 1.362 . S
C83 C84 1.366 . S
C84 C81 1.365 . S
C84 C83 1.366 . S
C84 H98 0.930 . S
C85 C82 1.378 . S
C85 N86 1.315 . S
C85 H88 0.930 . S
N86 Co66 2.194 1_556 S
N86 C81 1.328 . S
N86 C85 1.315 . S
H87 C81 0.929 1_554 S
H88 C85 0.930 . S
H89 C77 0.929 . S
H90 C79 0.929 . S
O91 Co66 2.351 . S
O91 C94 1.244 . S
O92 Co66 2.155 . S
O92 C94 1.240 . S
O93 Co66 2.096 . S
O93 C74 1.247 . S
C94 O91 1.244 . S
C94 O92 1.240 . S
H95 C69 0.931 . S
H96 C78 0.931 . S
H97 C82 0.929 . S
H98 C84 0.930 . S
Co99 N103 2.148 . S
Co99 N109 2.128 . S
Co99 N119 2.194 1_554 S
Co99 O124 2.351 . S
Co99 O125 2.155 . S
Co99 O126 2.096 . S
C100 N103 1.301 . S
C100 N104 1.328 . S
C100 H105 0.930 . S
C101 C102 1.333 . S
C101 N103 1.317 . S
C101 H106 0.930 . S
C102 C101 1.333 . S
C102 N104 1.350 . S
C102 H128 0.931 . S
N103 Co99 2.148 . S
N103 C100 1.301 . S
N103 C101 1.317 . S
N104 C100 1.328 . S
N104 C102 1.350 . S
H105 C100 0.930 . S
H106 C101 0.930 . S
C107 O108 1.224 1_554 S
C107 O126 1.247 . S
O108 C107 1.224 1_556 S
N109 Co99 2.128 . S
N109 C110 1.355 . S
N109 C112 1.311 . S
C110 N109 1.355 . S
C110 C111 1.363 . S
C110 H122 0.929 . S
C111 C110 1.363 . S
C111 N113 1.375 . S
C111 H129 0.931 . S
C112 N109 1.311 . S
C112 N113 1.347 . S
C112 H123 0.929 . S
N113 C111 1.375 . S
N113 C112 1.347 . S
C114 C117 1.365 . S
C114 N119 1.328 . S
C114 H120 0.929 1_556 S
C115 C116 1.362 . S
C115 C118 1.378 . S
C115 H130 0.929 . S
C116 C115 1.362 . S
C116 C117 1.366 . S
C117 C114 1.365 . S
C117 C116 1.366 . S
C117 H131 0.930 . S
C118 C115 1.378 . S
C118 N119 1.315 . S
C118 H121 0.930 . S
N119 Co99 2.194 1_556 S
N119 C114 1.328 . S
N119 C118 1.315 . S
H120 C114 0.929 1_554 S
H121 C118 0.930 . S
H122 C110 0.929 . S
H123 C112 0.929 . S
O124 Co99 2.351 . S
O124 C127 1.244 . S
O125 Co99 2.155 . S
O125 C127 1.240 . S
O126 Co99 2.096 . S
O126 C107 1.247 . S
C127 O124 1.244 . S
C127 O125 1.240 . S
H128 C102 0.931 . S
H129 C111 0.931 . S
H130 C115 0.929 . S
H131 C117 0.930 . S
Co132 N136 2.148 . S
Co132 N142 2.128 . S
Co132 N152 2.194 1_554 S
Co132 O157 2.351 . S
Co132 O158 2.155 . S
Co132 O159 2.096 . S
C133 N136 1.301 . S
C133 N137 1.328 . S
C133 H138 0.930 . S
C134 C135 1.333 . S
C134 N136 1.317 . S
C134 H139 0.930 . S
C135 C134 1.333 . S
C135 N137 1.350 . S
C135 H161 0.931 . S
N136 Co132 2.148 . S
N136 C133 1.301 . S
N136 C134 1.317 . S
N137 C133 1.328 . S
N137 C135 1.350 . S
H138 C133 0.930 . S
H139 C134 0.930 . S
C140 O141 1.224 1_554 S
C140 O159 1.247 . S
O141 C140 1.224 1_556 S
N142 Co132 2.128 . S
N142 C143 1.355 . S
N142 C145 1.311 . S
C143 N142 1.355 . S
C143 C144 1.363 . S
C143 H155 0.929 . S
C144 C143 1.363 . S
C144 N146 1.375 . S
C144 H162 0.931 . S
C145 N142 1.311 . S
C145 N146 1.347 . S
C145 H156 0.929 . S
N146 C144 1.375 . S
N146 C145 1.347 . S
C147 C150 1.365 . S
C147 N152 1.328 . S
C147 H153 0.929 1_556 S
C148 C149 1.362 . S
C148 C151 1.378 . S
C148 H163 0.929 . S
C149 C148 1.362 . S
C149 C150 1.366 . S
C150 C147 1.365 . S
C150 C149 1.366 . S
C150 H164 0.930 . S
C151 C148 1.378 . S
C151 N152 1.315 . S
C151 H154 0.930 . S
N152 Co132 2.194 1_556 S
N152 C147 1.328 . S
N152 C151 1.315 . S
H153 C147 0.929 1_554 S
H154 C151 0.930 . S
H155 C143 0.929 . S
H156 C145 0.929 . S
O157 Co132 2.351 . S
O157 C160 1.244 . S
O158 Co132 2.155 . S
O158 C160 1.240 . S
O159 Co132 2.096 . S
O159 C140 1.247 . S
C160 O157 1.244 . S
C160 O158 1.240 . S
H161 C135 0.931 . S
H162 C144 0.931 . S
H163 C148 0.929 . S
H164 C150 0.930 . S
Co165 N169 2.148 . S
Co165 N175 2.128 . S
Co165 N185 2.194 1_554 S
Co165 O190 2.351 . S
Co165 O191 2.155 . S
Co165 O192 2.096 . S
C166 N169 1.301 . S
C166 N170 1.328 . S
C166 H171 0.930 . S
C167 C168 1.333 . S
C167 N169 1.317 . S
C167 H172 0.930 . S
C168 C167 1.333 . S
C168 N170 1.350 . S
C168 H194 0.931 . S
N169 Co165 2.148 . S
N169 C166 1.301 . S
N169 C167 1.317 . S
N170 C166 1.328 . S
N170 C168 1.350 . S
H171 C166 0.930 . S
H172 C167 0.930 . S
C173 O174 1.224 1_554 S
C173 O192 1.247 . S
O174 C173 1.224 1_556 S
N175 Co165 2.128 . S
N175 C176 1.355 . S
N175 C178 1.311 . S
C176 N175 1.355 . S
C176 C177 1.363 . S
C176 H188 0.929 . S
C177 C176 1.363 . S
C177 N179 1.375 . S
C177 H195 0.931 . S
C178 N175 1.311 . S
C178 N179 1.347 . S
C178 H189 0.929 . S
N179 C177 1.375 . S
N179 C178 1.347 . S
C180 C183 1.365 . S
C180 N185 1.328 . S
C180 H186 0.929 1_556 S
C181 C182 1.362 . S
C181 C184 1.378 . S
C181 H196 0.929 . S
C182 C181 1.362 . S
C182 C183 1.366 . S
C183 C180 1.365 . S
C183 C182 1.366 . S
C183 H197 0.930 . S
C184 C181 1.378 . S
C184 N185 1.315 . S
C184 H187 0.930 . S
N185 Co165 2.194 1_556 S
N185 C180 1.328 . S
N185 C184 1.315 . S
H186 C180 0.929 1_554 S
H187 C184 0.930 . S
H188 C176 0.929 . S
H189 C178 0.929 . S
O190 Co165 2.351 . S
O190 C193 1.244 . S
O191 Co165 2.155 . S
O191 C193 1.240 . S
O192 Co165 2.096 . S
O192 C173 1.247 . S
C193 O190 1.244 . S
C193 O191 1.240 . S
H194 C168 0.931 . S
H195 C177 0.931 . S
H196 C181 0.929 . S
H197 C183 0.930 . S
Co198 N202 2.148 . S
Co198 N208 2.128 . S
Co198 N218 2.194 . S
Co198 O223 2.351 . S
Co198 O224 2.155 . S
Co198 O225 2.096 . S
C199 N202 1.301 . S
C199 N203 1.328 . S
C199 H204 0.930 . S
C200 C201 1.333 . S
C200 N202 1.317 . S
C200 H205 0.930 . S
C201 C200 1.333 . S
C201 N203 1.350 . S
C201 H227 0.931 . S
N202 Co198 2.148 . S
N202 C199 1.301 . S
N202 C200 1.317 . S
N203 C199 1.328 . S
N203 C201 1.350 . S
H204 C199 0.930 . S
H205 C200 0.930 . S
C206 O207 1.224 . S
C206 O225 1.247 . S
O207 C206 1.224 . S
N208 Co198 2.128 . S
N208 C209 1.355 . S
N208 C211 1.311 . S
C209 N208 1.355 . S
C209 C210 1.363 . S
C209 H221 0.929 . S
C210 C209 1.363 . S
C210 N212 1.375 . S
C210 H228 0.931 . S
C211 N208 1.311 . S
C211 N212 1.347 . S
C211 H222 0.929 . S
N212 C210 1.375 . S
N212 C211 1.347 . S
C213 C216 1.365 . S
C213 N218 1.328 . S
C213 H219 0.929 . S
C214 C215 1.362 . S
C214 C217 1.378 . S
C214 H229 0.929 . S
C215 C214 1.362 . S
C215 C216 1.366 . S
C216 C213 1.365 . S
C216 C215 1.366 . S
C216 H230 0.930 . S
C217 C214 1.378 . S
C217 N218 1.315 . S
C217 H220 0.930 . S
N218 Co198 2.194 . S
N218 C213 1.328 . S
N218 C217 1.315 . S
H219 C213 0.929 . S
H220 C217 0.930 . S
H221 C209 0.929 . S
H222 C211 0.929 . S
O223 Co198 2.351 . S
O223 C226 1.244 . S
O224 Co198 2.155 . S
O224 C226 1.240 . S
O225 Co198 2.096 . S
O225 C206 1.247 . S
C226 O223 1.244 . S
C226 O224 1.240 . S
H227 C201 0.931 . S
H228 C210 0.931 . S
H229 C214 0.929 . S
H230 C216 0.930 . S
Co231 N235 2.148 . S
Co231 N241 2.128 . S
Co231 N251 2.194 . S
Co231 O256 2.351 . S
Co231 O257 2.155 . S
Co231 O258 2.096 . S
C232 N235 1.301 . S
C232 N236 1.328 . S
C232 H237 0.930 . S
C233 C234 1.333 . S
C233 N235 1.317 . S
C233 H238 0.930 . S
C234 C233 1.333 . S
C234 N236 1.350 . S
C234 H260 0.931 . S
N235 Co231 2.148 . S
N235 C232 1.301 . S
N235 C233 1.317 . S
N236 C232 1.328 . S
N236 C234 1.350 . S
H237 C232 0.930 . S
H238 C233 0.930 . S
C239 O240 1.224 . S
C239 O258 1.247 . S
O240 C239 1.224 . S
N241 Co231 2.128 . S
N241 C242 1.355 . S
N241 C244 1.311 . S
C242 N241 1.355 . S
C242 C243 1.363 . S
C242 H254 0.929 . S
C243 C242 1.363 . S
C243 N245 1.375 . S
C243 H261 0.931 . S
C244 N241 1.311 . S
C244 N245 1.347 . S
C244 H255 0.929 . S
N245 C243 1.375 . S
N245 C244 1.347 . S
C246 C249 1.365 . S
C246 N251 1.328 . S
C246 H252 0.929 . S
C247 C248 1.362 . S
C247 C250 1.378 . S
C247 H262 0.929 . S
C248 C247 1.362 . S
C248 C249 1.366 . S
C249 C246 1.365 . S
C249 C248 1.366 . S
C249 H263 0.930 . S
C250 C247 1.378 . S
C250 N251 1.315 . S
C250 H253 0.930 . S
N251 Co231 2.194 . S
N251 C246 1.328 . S
N251 C250 1.315 . S
H252 C246 0.929 . S
H253 C250 0.930 . S
H254 C242 0.929 . S
H255 C244 0.929 . S
O256 Co231 2.351 . S
O256 C259 1.244 . S
O257 Co231 2.155 . S
O257 C259 1.240 . S
O258 Co231 2.096 . S
O258 C239 1.247 . S
C259 O256 1.244 . S
C259 O257 1.240 . S
H260 C234 0.931 . S
H261 C243 0.931 . S
H262 C247 0.929 . S
H263 C249 0.930 . S
Co264 N268 2.148 . S
Co264 N274 2.128 . S
Co264 N284 2.194 . S
Co264 O289 2.351 . S
Co264 O290 2.155 . S
Co264 O291 2.096 . S
C265 N268 1.301 . S
C265 N269 1.328 . S
C265 H270 0.930 . S
C266 C267 1.333 . S
C266 N268 1.317 . S
C266 H271 0.930 . S
C267 C266 1.333 . S
C267 N269 1.350 . S
C267 H293 0.931 . S
N268 Co264 2.148 . S
N268 C265 1.301 . S
N268 C266 1.317 . S
N269 C265 1.328 . S
N269 C267 1.350 . S
H270 C265 0.930 . S
H271 C266 0.930 . S
C272 O273 1.224 . S
C272 O291 1.247 . S
O273 C272 1.224 . S
N274 Co264 2.128 . S
N274 C275 1.355 . S
N274 C277 1.311 . S
C275 N274 1.355 . S
C275 C276 1.363 . S
C275 H287 0.929 . S
C276 C275 1.363 . S
C276 N278 1.375 . S
C276 H294 0.931 . S
C277 N274 1.311 . S
C277 N278 1.347 . S
C277 H288 0.929 . S
N278 C276 1.375 . S
N278 C277 1.347 . S
C279 C282 1.365 . S
C279 N284 1.328 . S
C279 H285 0.929 . S
C280 C281 1.362 . S
C280 C283 1.378 . S
C280 H295 0.929 . S
C281 C280 1.362 . S
C281 C282 1.366 . S
C282 C279 1.365 . S
C282 C281 1.366 . S
C282 H296 0.930 . S
C283 C280 1.378 . S
C283 N284 1.315 . S
C283 H286 0.930 . S
N284 Co264 2.194 . S
N284 C279 1.328 . S
N284 C283 1.315 . S
H285 C279 0.929 . S
H286 C283 0.930 . S
H287 C275 0.929 . S
H288 C277 0.929 . S
O289 Co264 2.351 . S
O289 C292 1.244 . S
O290 Co264 2.155 . S
O290 C292 1.240 . S
O291 Co264 2.096 . S
O291 C272 1.247 . S
C292 O289 1.244 . S
C292 O290 1.240 . S
H293 C267 0.931 . S
H294 C276 0.931 . S
H295 C280 0.929 . S
H296 C282 0.930 . S
Co297 N301 2.148 . S
Co297 N307 2.128 . S
Co297 N317 2.194 . S
Co297 O322 2.351 . S
Co297 O323 2.155 . S
Co297 O324 2.096 . S
C298 N301 1.301 . S
C298 N302 1.328 . S
C298 H303 0.930 . S
C299 C300 1.333 . S
C299 N301 1.317 . S
C299 H304 0.930 . S
C300 C299 1.333 . S
C300 N302 1.350 . S
C300 H326 0.931 . S
N301 Co297 2.148 . S
N301 C298 1.301 . S
N301 C299 1.317 . S
N302 C298 1.328 . S
N302 C300 1.350 . S
H303 C298 0.930 . S
H304 C299 0.930 . S
C305 O306 1.224 . S
C305 O324 1.247 . S
O306 C305 1.224 . S
N307 Co297 2.128 . S
N307 C308 1.355 . S
N307 C310 1.311 . S
C308 N307 1.355 . S
C308 C309 1.363 . S
C308 H320 0.929 . S
C309 C308 1.363 . S
C309 N311 1.375 . S
C309 H327 0.931 . S
C310 N307 1.311 . S
C310 N311 1.347 . S
C310 H321 0.929 . S
N311 C309 1.375 . S
N311 C310 1.347 . S
C312 C315 1.365 . S
C312 N317 1.328 . S
C312 H318 0.929 . S
C313 C314 1.362 . S
C313 C316 1.378 . S
C313 H328 0.929 . S
C314 C313 1.362 . S
C314 C315 1.366 . S
C315 C312 1.365 . S
C315 C314 1.366 . S
C315 H329 0.930 . S
C316 C313 1.378 . S
C316 N317 1.315 . S
C316 H319 0.930 . S
N317 Co297 2.194 . S
N317 C312 1.328 . S
N317 C316 1.315 . S
H318 C312 0.929 . S
H319 C316 0.930 . S
H320 C308 0.929 . S
H321 C310 0.929 . S
O322 Co297 2.351 . S
O322 C325 1.244 . S
O323 Co297 2.155 . S
O323 C325 1.240 . S
O324 Co297 2.096 . S
O324 C305 1.247 . S
C325 O322 1.244 . S
C325 O323 1.240 . S
H326 C300 0.931 . S
H327 C309 0.931 . S
H328 C313 0.929 . S
H329 C315 0.930 . S
Co330 N334 2.148 . S
Co330 N340 2.128 . S
Co330 N350 2.194 . S
Co330 O355 2.351 . S
Co330 O356 2.155 . S
Co330 O357 2.096 . S
C331 N334 1.301 . S
C331 N335 1.328 . S
C331 H336 0.930 . S
C332 C333 1.333 . S
C332 N334 1.317 . S
C332 H337 0.930 . S
C333 C332 1.333 . S
C333 N335 1.350 . S
C333 H359 0.931 . S
N334 Co330 2.148 . S
N334 C331 1.301 . S
N334 C332 1.317 . S
N335 C331 1.328 . S
N335 C333 1.350 . S
H336 C331 0.930 . S
H337 C332 0.930 . S
C338 O339 1.224 . S
C338 O357 1.247 . S
O339 C338 1.224 . S
N340 Co330 2.128 . S
N340 C341 1.355 . S
N340 C343 1.311 . S
C341 N340 1.355 . S
C341 C342 1.363 . S
C341 H353 0.929 . S
C342 C341 1.363 . S
C342 N344 1.375 . S
C342 H360 0.931 . S
C343 N340 1.311 . S
C343 N344 1.347 . S
C343 H354 0.929 . S
N344 C342 1.375 . S
N344 C343 1.347 . S
C345 C348 1.365 . S
C345 N350 1.328 . S
C345 H351 0.929 . S
C346 C347 1.362 . S
C346 C349 1.378 . S
C346 H361 0.929 . S
C347 C346 1.362 . S
C347 C348 1.366 . S
C348 C345 1.365 . S
C348 C347 1.366 . S
C348 H362 0.930 . S
C349 C346 1.378 . S
C349 N350 1.315 . S
C349 H352 0.930 . S
N350 Co330 2.194 . S
N350 C345 1.328 . S
N350 C349 1.315 . S
H351 C345 0.929 . S
H352 C349 0.930 . S
H353 C341 0.929 . S
H354 C343 0.929 . S
O355 Co330 2.351 . S
O355 C358 1.244 . S
O356 Co330 2.155 . S
O356 C358 1.240 . S
O357 Co330 2.096 . S
O357 C338 1.247 . S
C358 O355 1.244 . S
C358 O356 1.240 . S
H359 C333 0.931 . S
H360 C342 0.931 . S
H361 C346 0.929 . S
H362 C348 0.930 . S
Co363 N367 2.148 . S
Co363 N373 2.128 . S
Co363 N383 2.194 . S
Co363 O388 2.351 . S
Co363 O389 2.155 . S
Co363 O390 2.096 . S
C364 N367 1.301 . S
C364 N368 1.328 . S
C364 H369 0.930 . S
C365 C366 1.333 . S
C365 N367 1.317 . S
C365 H370 0.930 . S
C366 C365 1.333 . S
C366 N368 1.350 . S
C366 H392 0.931 . S
N367 Co363 2.148 . S
N367 C364 1.301 . S
N367 C365 1.317 . S
N368 C364 1.328 . S
N368 C366 1.350 . S
H369 C364 0.930 . S
H370 C365 0.930 . S
C371 O372 1.224 . S
C371 O390 1.247 . S
O372 C371 1.224 . S
N373 Co363 2.128 . S
N373 C374 1.355 . S
N373 C376 1.311 . S
C374 N373 1.355 . S
C374 C375 1.363 . S
C374 H386 0.929 . S
C375 C374 1.363 . S
C375 N377 1.375 . S
C375 H393 0.931 . S
C376 N373 1.311 . S
C376 N377 1.347 . S
C376 H387 0.929 . S
N377 C375 1.375 . S
N377 C376 1.347 . S
C378 C381 1.365 . S
C378 N383 1.328 . S
C378 H384 0.929 . S
C379 C380 1.362 . S
C379 C382 1.378 . S
C379 H394 0.929 . S
C380 C379 1.362 . S
C380 C381 1.366 . S
C381 C378 1.365 . S
C381 C380 1.366 . S
C381 H395 0.930 . S
C382 C379 1.378 . S
C382 N383 1.315 . S
C382 H385 0.930 . S
N383 Co363 2.194 . S
N383 C378 1.328 . S
N383 C382 1.315 . S
H384 C378 0.929 . S
H385 C382 0.930 . S
H386 C374 0.929 . S
H387 C376 0.929 . S
O388 Co363 2.351 . S
O388 C391 1.244 . S
O389 Co363 2.155 . S
O389 C391 1.240 . S
O390 Co363 2.096 . S
O390 C371 1.247 . S
C391 O388 1.244 . S
C391 O389 1.240 . S
H392 C366 0.931 . S
H393 C375 0.931 . S
H394 C379 0.929 . S
H395 C381 0.930 . S
H396 C402 0.930 . S
H397 C406 0.930 . S
H398 C411 0.929 . S
H399 C409 0.929 . S
H400 C404 0.903 1_545 S
H401 C410 0.903 1_565 S
C402 H396 0.930 . S
C402 C403 1.367 . S
C402 C410 1.410 . S
C403 C402 1.367 . S
C403 C411 1.433 . S
C404 H400 0.903 1_565 S
C404 C406 1.410 . S
C404 C408 1.344 . S
C405 C408 1.463 1_545 S
C405 C410 1.344 . S
C405 N413 1.427 . S
C406 H397 0.930 . S
C406 C404 1.410 . S
C406 C407 1.367 . S
C407 C406 1.367 . S
C407 C409 1.433 . S
C408 C404 1.344 . S
C408 C405 1.463 1_565 S
C408 N412 1.427 . S
C409 H399 0.929 . S
C409 C407 1.433 . S
C409 N412 1.384 . S
C410 H401 0.903 1_545 S
C410 C402 1.410 . S
C410 C405 1.344 . S
C411 H398 0.929 . S
C411 C403 1.433 . S
C411 N413 1.384 . S
N412 C408 1.427 . S
N412 C409 1.384 . S
N413 C405 1.427 . S
N413 C411 1.384 . S
H414 C420 0.930 1_556 S
H415 C424 0.930 . S
H416 C429 0.929 . S
H417 C427 0.929 1_556 S
H418 C422 0.929 . S
H419 C428 0.929 1_556 S
C420 H414 0.930 1_554 S
C420 C421 1.367 . S
C420 C428 1.378 . S
C421 C420 1.367 . S
C421 C429 1.433 . S
C422 H418 0.929 . S
C422 C424 1.378 . S
C422 C426 1.350 . S
C423 C426 1.463 . S
C423 C428 1.350 . S
C423 N431 1.427 . S
C424 H415 0.930 . S
C424 C422 1.378 . S
C424 C425 1.367 . S
C425 C424 1.367 . S
C425 C427 1.433 . S
C426 C422 1.350 . S
C426 C423 1.463 . S
C426 N430 1.427 . S
C427 H417 0.929 1_554 S
C427 C425 1.433 . S
C427 N430 1.384 . S
C428 H419 0.929 1_554 S
C428 C420 1.378 . S
C428 C423 1.350 . S
C429 H416 0.929 . S
C429 C421 1.433 . S
C429 N431 1.384 . S
N430 C426 1.427 . S
N430 C427 1.384 . S
N431 C423 1.427 . S
N431 C429 1.384 . S
H432 C438 0.930 . S
H433 C442 0.930 . S
H434 C447 0.929 . S
H435 C445 0.929 . S
H436 C440 0.929 . S
H437 C446 0.929 . S
C438 H432 0.930 . S
C438 C439 1.367 1_556 S
C438 C446 1.378 . S
C439 C438 1.367 1_554 S
C439 C447 1.433 . S
C440 H436 0.929 . S
C440 C442 1.378 . S
C440 C444 1.350 . S
C441 C444 1.463 1_455 S
C441 C446 1.350 1_554 S
C441 N449 1.427 . S
C442 H433 0.930 . S
C442 C440 1.378 . S
C442 C443 1.367 . S
C443 C442 1.367 . S
C443 C445 1.433 1_554 S
C444 C440 1.350 . S
C444 C441 1.463 1_655 S
C444 N448 1.427 1_554 S
C445 H435 0.929 . S
C445 C443 1.433 1_556 S
C445 N448 1.384 . S
C446 H437 0.929 . S
C446 C438 1.378 . S
C446 C441 1.350 1_556 S
C447 H434 0.929 . S
C447 C439 1.433 . S
C447 N449 1.384 . S
N448 C444 1.427 1_556 S
N448 C445 1.384 . S
N449 C441 1.427 . S
N449 C447 1.384 . S
H450 C456 0.930 . S
H451 C460 0.930 . S
H452 C465 0.929 . S
H453 C463 0.929 . S
H454 C458 0.904 1_455 S
H455 C464 0.904 1_655 S
C456 H450 0.930 . S
C456 C457 1.367 . S
C456 C464 1.409 . S
C457 C456 1.367 . S
C457 C465 1.433 . S
C458 H454 0.904 1_655 S
C458 C460 1.409 . S
C458 C462 1.344 . S
C459 C462 1.463 1_455 S
C459 C464 1.344 . S
C459 N467 1.427 . S
C460 H451 0.930 . S
C460 C458 1.409 . S
C460 C461 1.367 . S
C461 C460 1.367 . S
C461 C463 1.433 . S
C462 C458 1.344 . S
C462 C459 1.463 1_655 S
C462 N466 1.427 . S
C463 H453 0.929 . S
C463 C461 1.433 . S
C463 N466 1.384 . S
C464 H455 0.904 1_455 S
C464 C456 1.409 . S
C464 C459 1.344 . S
C465 H452 0.929 . S
C465 C457 1.433 . S
C465 N467 1.384 . S
N466 C462 1.427 . S
N466 C463 1.384 . S
N467 C459 1.427 . S
N467 C465 1.384 . S
H468 C474 0.930 . S
H469 C478 0.930 . S
H470 C483 0.929 . S
H471 C481 0.929 . S
H472 C476 0.929 . S
H473 C482 0.929 . S
C474 H468 0.930 . S
C474 C475 1.367 . S
C474 C482 1.378 . S
C475 C474 1.367 . S
C475 C483 1.433 . S
C476 H472 0.929 . S
C476 C478 1.378 . S
C476 C480 1.350 . S
C477 C480 1.463 1_545 S
C477 C482 1.350 . S
C477 N485 1.427 . S
C478 H469 0.930 . S
C478 C476 1.378 . S
C478 C479 1.367 . S
C479 C478 1.367 . S
C479 C481 1.433 . S
C480 C476 1.350 . S
C480 C477 1.463 1_565 S
C480 N484 1.427 . S
C481 H471 0.929 . S
C481 C479 1.433 . S
C481 N484 1.384 . S
C482 H473 0.929 . S
C482 C474 1.378 . S
C482 C477 1.350 . S
C483 H470 0.929 . S
C483 C475 1.433 . S
C483 N485 1.384 . S
N484 C480 1.427 . S
N484 C481 1.384 . S
N485 C477 1.427 . S
N485 C483 1.384 . S
H486 C492 0.930 . S
H487 C496 0.930 . S
H488 C501 0.929 . S
H489 C499 0.929 . S
H490 C494 0.929 . S
H491 C500 0.929 . S
C492 H486 0.930 . S
C492 C493 1.367 . S
C492 C500 1.378 . S
C493 C492 1.367 . S
C493 C501 1.433 . S
C494 H490 0.929 . S
C494 C496 1.378 . S
C494 C498 1.350 . S
C495 C498 1.463 . S
C495 C500 1.350 . S
C495 N503 1.427 . S
C496 H487 0.930 . S
C496 C494 1.378 . S
C496 C497 1.367 . S
C497 C496 1.367 . S
C497 C499 1.433 . S
C498 C494 1.350 . S
C498 C495 1.463 . S
C498 N502 1.427 . S
C499 H489 0.929 . S
C499 C497 1.433 . S
C499 N502 1.384 . S
C500 H491 0.929 . S
C500 C492 1.378 . S
C500 C495 1.350 . S
C501 H488 0.929 . S
C501 C493 1.433 . S
C501 N503 1.384 . S
N502 C498 1.427 . S
N502 C499 1.384 . S
N503 C495 1.427 . S
N503 C501 1.384 . S
H504 C510 0.920 1_556 S
H505 C514 0.930 . S
H506 C519 0.929 . S
H507 C517 0.929 1_556 S
H508 C512 0.929 . S
H509 C518 0.929 1_556 S
C510 H504 0.920 1_554 S
C510 C511 1.376 . S
C510 C518 1.379 1_545 S
C511 C510 1.376 . S
C511 C519 1.433 . S
C512 H508 0.929 . S
C512 C514 1.378 . S
C512 C516 1.350 . S
C513 C516 1.463 . S
C513 C518 1.350 . S
C513 N521 1.427 . S
C514 H505 0.930 . S
C514 C512 1.378 . S
C514 C515 1.367 . S
C515 C514 1.367 . S
C515 C517 1.433 . S
C516 C512 1.350 . S
C516 C513 1.463 . S
C516 N520 1.427 . S
C517 H507 0.929 1_554 S
C517 C515 1.433 . S
C517 N520 1.384 . S
C518 H509 0.929 1_554 S
C518 C510 1.379 1_565 S
C518 C513 1.350 . S
C519 H506 0.929 . S
C519 C511 1.433 . S
C519 N521 1.384 1_545 S
N520 C516 1.427 . S
N520 C517 1.384 . S
N521 C513 1.427 . S
N521 C519 1.384 1_565 S
H522 C528 0.930 1_556 S
H523 C532 0.930 . S
H524 C537 0.929 . S
H525 C535 0.929 . S
H526 C530 0.929 . S
H527 C536 0.929 1_556 S
C528 H522 0.930 1_554 S
C528 C529 1.367 . S
C528 C536 1.378 . S
C529 C528 1.367 . S
C529 C537 1.433 . S
C530 H526 0.929 . S
C530 C532 1.378 . S
C530 C534 1.350 . S
C531 C534 1.463 . S
C531 C536 1.350 . S
C531 N539 1.427 . S
C532 H523 0.930 . S
C532 C530 1.378 . S
C532 C533 1.367 . S
C533 C532 1.367 . S
C533 C535 1.433 1_554 S
C534 C530 1.350 . S
C534 C531 1.463 . S
C534 N538 1.442 . S
C535 H525 0.929 . S
C535 C533 1.433 1_556 S
C535 N538 1.383 1_556 S
C536 H527 0.929 1_554 S
C536 C528 1.378 . S
C536 C531 1.350 . S
C537 H524 0.929 . S
C537 C529 1.433 . S
C537 N539 1.384 . S
N538 C534 1.442 . S
N538 C535 1.383 1_554 S
N539 C531 1.427 . S
N539 C537 1.384 . S
H540 C546 0.930 1_556 S
H541 C550 0.930 . S
H542 C555 0.929 . S
H543 C553 0.929 1_556 S
H544 C548 0.929 . S
H545 C554 0.929 1_556 S
C546 H540 0.930 1_554 S
C546 C547 1.367 . S
C546 C554 1.378 1_655 S
C547 C546 1.367 . S
C547 C555 1.433 . S
C548 H544 0.929 . S
C548 C550 1.378 . S
C548 C552 1.350 . S
C549 C552 1.463 . S
C549 C554 1.350 . S
C549 N557 1.427 . S
C550 H541 0.930 . S
C550 C548 1.378 . S
C550 C551 1.367 . S
C551 C550 1.367 . S
C551 C553 1.433 . S
C552 C548 1.350 . S
C552 C549 1.463 . S
C552 N556 1.427 . S
C553 H543 0.929 1_554 S
C553 C551 1.433 . S
C553 N556 1.384 . S
C554 H545 0.929 1_554 S
C554 C546 1.378 1_455 S
C554 C549 1.350 . S
C555 H542 0.929 . S
C555 C547 1.433 . S
C555 N557 1.384 1_655 S
N556 C552 1.427 . S
N556 C553 1.384 . S
N557 C549 1.427 . S
N557 C555 1.384 1_455 S
H558 C564 0.930 . S
H559 C568 0.917 1_556 S
H560 C573 0.929 1_556 S
H561 C571 0.929 . S
H562 C566 0.929 1_556 S
H563 C572 0.929 . S
C564 H558 0.930 . S
C564 C565 1.367 . S
C564 C572 1.378 . S
C565 C564 1.367 . S
C565 C573 1.433 . S
C566 H562 0.929 1_554 S
C566 C568 1.379 1_545 S
C566 C570 1.350 . S
C567 C570 1.463 . S
C567 C572 1.350 . S
C567 N575 1.427 . S
C568 H559 0.917 1_554 S
C568 C566 1.379 1_565 S
C568 C569 1.380 . S
C569 C568 1.380 . S
C569 C571 1.433 . S
C570 C566 1.350 . S
C570 C567 1.463 . S
C570 N574 1.427 . S
C571 H561 0.929 . S
C571 C569 1.433 . S
C571 N574 1.384 1_565 S
C572 H563 0.929 . S
C572 C564 1.378 . S
C572 C567 1.350 . S
C573 H560 0.929 1_554 S
C573 C565 1.433 . S
C573 N575 1.384 . S
N574 C570 1.427 . S
N574 C571 1.384 1_545 S
N575 C567 1.427 . S
N575 C573 1.384 . S
H576 C582 0.930 1_556 S
H577 C586 0.930 . S
H578 C591 0.929 . S
H579 C589 0.929 . S
H580 C584 0.929 . S
H581 C590 0.929 1_556 S
C582 H576 0.930 1_554 S
C582 C583 1.367 . S
C582 C590 1.378 . S
C583 C582 1.367 . S
C583 C591 1.433 . S
C584 H580 0.929 . S
C584 C586 1.378 . S
C584 C588 1.350 . S
C585 C588 1.463 . S
C585 C590 1.350 . S
C585 N593 1.427 . S
C586 H577 0.930 . S
C586 C584 1.378 . S
C586 C587 1.367 . S
C587 C586 1.367 . S
C587 C589 1.433 1_554 S
C588 C584 1.350 . S
C588 C585 1.463 . S
C588 N592 1.432 . S
C589 H579 0.929 . S
C589 C587 1.433 1_556 S
C589 N592 1.383 1_556 S
C590 H581 0.929 1_554 S
C590 C582 1.378 . S
C590 C585 1.350 . S
C591 H578 0.929 . S
C591 C583 1.433 . S
C591 N593 1.384 . S
N592 C588 1.432 . S
N592 C589 1.383 1_554 S
N593 C585 1.427 . S
N593 C591 1.384 . S
H594 C600 0.930 . S
H595 C604 0.930 . S
H596 C609 0.929 . S
H597 C607 0.929 . S
H598 C602 0.929 . S
H599 C608 0.929 . S
C600 H594 0.930 . S
C600 C601 1.367 . S
C600 C608 1.378 . S
C601 C600 1.367 . S
C601 C609 1.433 . S
C602 H598 0.929 . S
C602 C604 1.378 1_655 S
C602 C606 1.350 . S
C603 C606 1.463 . S
C603 C608 1.350 . S
C603 N611 1.427 . S
C604 H595 0.930 . S
C604 C602 1.378 1_455 S
C604 C605 1.367 . S
C605 C604 1.367 . S
C605 C607 1.433 . S
C606 C602 1.350 . S
C606 C603 1.463 . S
C606 N610 1.427 . S
C607 H597 0.929 . S
C607 C605 1.433 . S
C607 N610 1.384 1_455 S
C608 H599 0.929 . S
C608 C600 1.378 . S
C608 C603 1.350 . S
C609 H596 0.929 . S
C609 C601 1.433 . S
C609 N611 1.384 . S
N610 C606 1.427 . S
N610 C607 1.384 1_655 S
N611 C603 1.427 . S
N611 C609 1.384 . S
H612 C618 0.930 . S
H613 C622 0.930 . S
H614 C627 0.929 . S
H615 C625 0.929 . S
H616 C620 0.929 . S
H617 C626 0.929 . S
C618 H612 0.930 . S
C618 C619 1.367 . S
C618 C626 1.378 . S
C619 C618 1.367 . S
C619 C627 1.433 . S
C620 H616 0.929 . S
C620 C622 1.378 1_455 S
C620 C624 1.350 . S
C621 C624 1.463 . S
C621 C626 1.350 . S
C621 N629 1.427 . S
C622 H613 0.930 . S
C622 C620 1.378 1_655 S
C622 C623 1.367 . S
C623 C622 1.367 . S
C623 C625 1.433 . S
C624 C620 1.350 . S
C624 C621 1.463 . S
C624 N628 1.427 . S
C625 H615 0.929 . S
C625 C623 1.433 . S
C625 N628 1.384 1_655 S
C626 H617 0.929 . S
C626 C618 1.378 . S
C626 C621 1.350 . S
C627 H614 0.929 . S
C627 C619 1.433 . S
C627 N629 1.384 . S
N628 C624 1.427 . S
N628 C625 1.384 1_455 S
N629 C621 1.427 . S
N629 C627 1.384 . S
H630 C636 0.930 . S
H631 C640 0.930 . S
H632 C645 0.929 . S
H633 C643 0.929 . S
H634 C638 0.929 . S
H635 C644 0.929 . S
C636 H630 0.930 . S
C636 C637 1.367 . S
C636 C644 1.378 . S
C637 C636 1.367 . S
C637 C645 1.433 . S
C638 H634 0.929 . S
C638 C640 1.378 1_545 S
C638 C642 1.350 . S
C639 C642 1.463 . S
C639 C644 1.350 . S
C639 N647 1.427 . S
C640 H631 0.930 . S
C640 C638 1.378 1_565 S
C640 C641 1.367 . S
C641 C640 1.367 . S
C641 C643 1.433 . S
C642 C638 1.350 . S
C642 C639 1.463 . S
C642 N646 1.427 . S
C643 H633 0.929 . S
C643 C641 1.433 . S
C643 N646 1.384 1_565 S
C644 H635 0.929 . S
C644 C636 1.378 . S
C644 C639 1.350 . S
C645 H632 0.929 . S
C645 C637 1.433 . S
C645 N647 1.384 . S
N646 C642 1.427 . S
N646 C643 1.384 1_545 S
N647 C639 1.427 . S
N647 C645 1.384 . S
H648 C654 0.930 . S
H649 C658 0.930 . S
H650 C663 0.929 . S
H651 C661 0.929 . S
H652 C656 0.929 . S
H653 C662 0.929 . S
C654 H648 0.930 . S
C654 C655 1.367 . S
C654 C662 1.378 . S
C655 C654 1.367 . S
C655 C663 1.433 . S
C656 H652 0.929 . S
C656 C658 1.378 . S
C656 C660 1.350 . S
C657 C660 1.463 . S
C657 C662 1.350 . S
C657 N665 1.427 . S
C658 H649 0.930 . S
C658 C656 1.378 . S
C658 C659 1.367 . S
C659 C658 1.367 . S
C659 C661 1.433 . S
C660 C656 1.350 . S
C660 C657 1.463 . S
C660 N664 1.427 . S
C661 H651 0.929 . S
C661 C659 1.433 . S
C661 N664 1.384 . S
C662 H653 0.929 . S
C662 C654 1.378 . S
C662 C657 1.350 . S
C663 H650 0.929 . S
C663 C655 1.433 . S
C663 N665 1.384 . S
N664 C660 1.427 . S
N664 C661 1.384 . S
N665 C657 1.427 . S
N665 C663 1.384 . S
H666 C672 0.930 . S
H667 C676 0.930 . S
H668 C681 0.929 . S
H669 C679 0.929 . S
H670 C674 0.929 . S
H671 C680 0.929 . S
C672 H666 0.930 . S
C672 C673 1.367 . S
C672 C680 1.378 1_455 S
C673 C672 1.367 . S
C673 C681 1.433 . S
C674 H670 0.929 . S
C674 C676 1.378 . S
C674 C678 1.350 . S
C675 C678 1.463 . S
C675 C680 1.350 . S
C675 N683 1.427 . S
C676 H667 0.930 . S
C676 C674 1.378 . S
C676 C677 1.367 . S
C677 C676 1.367 . S
C677 C679 1.433 . S
C678 C674 1.350 . S
C678 C675 1.463 . S
C678 N682 1.427 . S
C679 H669 0.929 . S
C679 C677 1.433 . S
C679 N682 1.384 . S
C680 H671 0.929 . S
C680 C672 1.378 1_655 S
C680 C675 1.350 . S
C681 H668 0.929 . S
C681 C673 1.433 . S
C681 N683 1.384 1_455 S
N682 C678 1.427 . S
N682 C679 1.384 . S
N683 C675 1.427 . S
N683 C681 1.384 1_655 S
H684 C690 0.930 . S
H685 C694 0.930 . S
H686 C699 0.929 . S
H687 C697 0.929 . S
H688 C692 0.929 . S
H689 C698 0.929 . S
C690 H684 0.930 . S
C690 C691 1.367 . S
C690 C698 1.378 1_545 S
C691 C690 1.367 . S
C691 C699 1.433 . S
C692 H688 0.929 . S
C692 C694 1.378 . S
C692 C696 1.350 . S
C693 C696 1.463 . S
C693 C698 1.350 . S
C693 N701 1.427 . S
C694 H685 0.930 . S
C694 C692 1.378 . S
C694 C695 1.367 . S
C695 C694 1.367 . S
C695 C697 1.433 . S
C696 C692 1.350 . S
C696 C693 1.463 . S
C696 N700 1.427 . S
C697 H687 0.929 . S
C697 C695 1.433 . S
C697 N700 1.384 . S
C698 H689 0.929 . S
C698 C690 1.378 1_565 S
C698 C693 1.350 . S
C699 H686 0.929 . S
C699 C691 1.433 . S
C699 N701 1.384 1_545 S
N700 C696 1.427 . S
N700 C697 1.384 . S
N701 C693 1.427 . S
N701 C699 1.384 1_565 S
H702 C708 0.930 . S
H703 C712 0.930 . S
H704 C717 0.929 . S
H705 C715 0.929 . S
H706 C710 0.929 . S
H707 C716 0.929 . S
C708 H702 0.930 . S
C708 C709 1.367 . S
C708 C716 1.378 . S
C709 C708 1.367 . S
C709 C717 1.433 . S
C710 H706 0.929 . S
C710 C712 1.378 . S
C710 C714 1.350 . S
C711 C714 1.463 . S
C711 C716 1.350 . S
C711 N719 1.427 . S
C712 H703 0.930 . S
C712 C710 1.378 . S
C712 C713 1.367 . S
C713 C712 1.367 . S
C713 C715 1.433 . S
C714 C710 1.350 . S
C714 C711 1.463 . S
C714 N718 1.427 . S
C715 H705 0.929 . S
C715 C713 1.433 . S
C715 N718 1.384 . S
C716 H707 0.929 . S
C716 C708 1.378 . S
C716 C711 1.350 . S
C717 H704 0.929 . S
C717 C709 1.433 . S
C717 N719 1.384 . S
N718 C714 1.427 . S
N718 C715 1.384 . S
N719 C711 1.427 . S
N719 C717 1.384 . S
H720 C726 0.930 . S
H721 C730 0.930 . S
H722 C735 0.929 . S
H723 C733 0.929 . S
H724 C728 0.929 . S
H725 C734 0.929 . S
C726 H720 0.930 . S
C726 C727 1.367 . S
C726 C734 1.378 . S
C727 C726 1.367 . S
C727 C735 1.433 . S
C728 H724 0.929 . S
C728 C730 1.378 . S
C728 C732 1.350 . S
C729 C732 1.463 . S
C729 C734 1.350 . S
C729 N737 1.427 . S
C730 H721 0.930 . S
C730 C728 1.378 . S
C730 C731 1.367 . S
C731 C730 1.367 . S
C731 C733 1.433 . S
C732 C728 1.350 . S
C732 C729 1.463 . S
C732 N736 1.427 . S
C733 H723 0.929 . S
C733 C731 1.433 . S
C733 N736 1.384 . S
C734 H725 0.929 . S
C734 C726 1.378 . S
C734 C729 1.350 . S
C735 H722 0.929 . S
C735 C727 1.433 . S
C735 N737 1.384 . S
N736 C732 1.427 . S
N736 C733 1.384 . S
N737 C729 1.427 . S
N737 C735 1.384 . S
H738 C744 0.930 . S
H739 C748 0.930 . S
H740 C753 0.929 . S
H741 C751 0.929 . S
H742 C746 0.929 . S
H743 C752 0.929 . S
C744 H738 0.930 . S
C744 C745 1.367 . S
C744 C752 1.378 . S
C745 C744 1.367 . S
C745 C753 1.433 . S
C746 H742 0.929 . S
C746 C748 1.378 . S
C746 C750 1.350 . S
C747 C750 1.463 . S
C747 C752 1.350 . S
C747 N755 1.427 . S
C748 H739 0.930 . S
C748 C746 1.378 . S
C748 C749 1.367 . S
C749 C748 1.367 . S
C749 C751 1.433 . S
C750 C746 1.350 . S
C750 C747 1.463 . S
C750 N754 1.427 . S
C751 H741 0.929 . S
C751 C749 1.433 . S
C751 N754 1.384 . S
C752 H743 0.929 . S
C752 C744 1.378 . S
C752 C747 1.350 . S
C753 H740 0.929 . S
C753 C745 1.433 . S
C753 N755 1.384 . S
N754 C750 1.427 . S
N754 C751 1.384 . S
N755 C747 1.427 . S
N755 C753 1.384 . S
H756 C762 0.930 . S
H757 C766 0.930 . S
H758 C771 0.929 . S
H759 C769 0.929 . S
H760 C764 0.929 . S
H761 C770 0.929 . S
C762 H756 0.930 . S
C762 C763 1.367 . S
C762 C770 1.378 . S
C763 C762 1.367 . S
C763 C771 1.433 . S
C764 H760 0.929 . S
C764 C766 1.378 . S
C764 C768 1.350 . S
C765 C768 1.463 . S
C765 C770 1.350 . S
C765 N773 1.427 . S
C766 H757 0.930 . S
C766 C764 1.378 . S
C766 C767 1.367 . S
C767 C766 1.367 . S
C767 C769 1.433 . S
C768 C764 1.350 . S
C768 C765 1.463 . S
C768 N772 1.427 . S
C769 H759 0.929 . S
C769 C767 1.433 . S
C769 N772 1.384 . S
C770 H761 0.929 . S
C770 C762 1.378 . S
C770 C765 1.350 . S
C771 H758 0.929 . S
C771 C763 1.433 . S
C771 N773 1.384 . S
N772 C768 1.427 . S
N772 C769 1.384 . S
N773 C765 1.427 . S
N773 C771 1.384 . S
H774 C780 0.930 . S
H775 C784 0.930 . S
H776 C789 0.929 . S
H777 C787 0.929 . S
H778 C782 0.929 . S
H779 C788 0.929 . S
C780 H774 0.930 . S
C780 C781 1.367 . S
C780 C788 1.378 . S
C781 C780 1.367 . S
C781 C789 1.433 . S
C782 H778 0.929 . S
C782 C784 1.378 . S
C782 C786 1.350 . S
C783 C786 1.463 . S
C783 C788 1.350 . S
C783 N791 1.427 . S
C784 H775 0.930 . S
C784 C782 1.378 . S
C784 C785 1.367 . S
C785 C784 1.367 . S
C785 C787 1.433 . S
C786 C782 1.350 . S
C786 C783 1.463 . S
C786 N790 1.427 . S
C787 H777 0.929 . S
C787 C785 1.433 . S
C787 N790 1.384 . S
C788 H779 0.929 . S
C788 C780 1.378 . S
C788 C783 1.350 . S
C789 H776 0.929 . S
C789 C781 1.433 . S
C789 N791 1.384 . S
N790 C786 1.427 . S
N790 C787 1.384 . S
N791 C783 1.427 . S
N791 C789 1.384 . S
H792 C798 0.930 . S
H793 C802 0.930 . S
H794 C807 0.929 . S
H795 C805 0.929 . S
H796 C800 0.929 . S
H797 C806 0.929 . S
C798 H792 0.930 . S
C798 C799 1.367 . S
C798 C806 1.378 . S
C799 C798 1.367 . S
C799 C807 1.433 . S
C800 H796 0.929 . S
C800 C802 1.378 . S
C800 C804 1.350 . S
C801 C804 1.463 . S
C801 C806 1.350 . S
C801 N809 1.427 . S
C802 H793 0.930 . S
C802 C800 1.378 . S
C802 C803 1.367 . S
C803 C802 1.367 . S
C803 C805 1.433 . S
C804 C800 1.350 . S
C804 C801 1.463 . S
C804 N808 1.427 . S
C805 H795 0.929 . S
C805 C803 1.433 . S
C805 N808 1.384 . S
C806 H797 0.929 . S
C806 C798 1.378 . S
C806 C801 1.350 . S
C807 H794 0.929 . S
C807 C799 1.433 . S
C807 N809 1.384 . S
N808 C804 1.427 . S
N808 C805 1.384 . S
N809 C801 1.427 . S
N809 C807 1.384 . S
H810 C816 0.930 . S
H811 C820 0.930 . S
H812 C825 0.929 . S
H813 C823 0.929 . S
H814 C818 0.929 . S
H815 C824 0.929 . S
C816 H810 0.930 . S
C816 C817 1.367 . S
C816 C824 1.378 . S
C817 C816 1.367 . S
C817 C825 1.433 . S
C818 H814 0.929 . S
C818 C820 1.378 . S
C818 C822 1.350 . S
C819 C822 1.463 . S
C819 C824 1.350 . S
C819 N827 1.427 . S
C820 H811 0.930 . S
C820 C818 1.378 . S
C820 C821 1.367 . S
C821 C820 1.367 . S
C821 C823 1.433 . S
C822 C818 1.350 . S
C822 C819 1.463 . S
C822 N826 1.427 . S
C823 H813 0.929 . S
C823 C821 1.433 . S
C823 N826 1.384 . S
C824 H815 0.929 . S
C824 C816 1.378 . S
C824 C819 1.350 . S
C825 H812 0.929 . S
C825 C817 1.433 . S
C825 N827 1.384 . S
N826 C822 1.427 . S
N826 C823 1.384 . S
N827 C819 1.427 . S
N827 C825 1.384 . S
H828 C834 0.930 . S
H829 C838 0.930 . S
H830 C843 0.929 . S
H831 C841 0.929 . S
H832 C836 0.929 . S
H833 C842 0.929 . S
C834 H828 0.930 . S
C834 C835 1.367 . S
C834 C842 1.378 . S
C835 C834 1.367 . S
C835 C843 1.433 . S
C836 H832 0.929 . S
C836 C838 1.378 . S
C836 C840 1.350 . S
C837 C840 1.463 . S
C837 C842 1.350 . S
C837 N845 1.427 . S
C838 H829 0.930 . S
C838 C836 1.378 . S
C838 C839 1.367 . S
C839 C838 1.367 . S
C839 C841 1.433 . S
C840 C836 1.350 . S
C840 C837 1.463 . S
C840 N844 1.427 . S
C841 H831 0.929 . S
C841 C839 1.433 . S
C841 N844 1.384 . S
C842 H833 0.929 . S
C842 C834 1.378 . S
C842 C837 1.350 . S
C843 H830 0.929 . S
C843 C835 1.433 . S
C843 N845 1.384 . S
N844 C840 1.427 . S
N844 C841 1.384 . S
N845 C837 1.427 . S
N845 C843 1.384 . S
H846 C852 0.930 . S
H847 C856 0.930 . S
H848 C861 0.929 . S
H849 C859 0.929 . S
H850 C854 0.929 . S
H851 C860 0.929 . S
C852 H846 0.930 . S
C852 C853 1.367 . S
C852 C860 1.378 . S
C853 C852 1.367 . S
C853 C861 1.433 . S
C854 H850 0.929 . S
C854 C856 1.378 . S
C854 C858 1.350 . S
C855 C858 1.463 . S
C855 C860 1.350 . S
C855 N863 1.427 . S
C856 H847 0.930 . S
C856 C854 1.378 . S
C856 C857 1.367 . S
C857 C856 1.367 . S
C857 C859 1.433 . S
C858 C854 1.350 . S
C858 C855 1.463 . S
C858 N862 1.427 . S
C859 H849 0.929 . S
C859 C857 1.433 . S
C859 N862 1.384 . S
C860 H851 0.929 . S
C860 C852 1.378 . S
C860 C855 1.350 . S
C861 H848 0.929 . S
C861 C853 1.433 . S
C861 N863 1.384 . S
N862 C858 1.427 . S
N862 C859 1.384 . S
N863 C855 1.427 . S
N863 C861 1.384 . S
H864 C870 0.930 . S
H865 C874 0.930 . S
H866 C879 0.929 . S
H867 C877 0.929 . S
H868 C872 0.929 . S
H869 C878 0.929 . S
C870 H864 0.930 . S
C870 C871 1.367 . S
C870 C878 1.378 . S
C871 C870 1.367 . S
C871 C879 1.433 . S
C872 H868 0.929 . S
C872 C874 1.378 . S
C872 C876 1.350 . S
C873 C876 1.463 . S
C873 C878 1.350 . S
C873 N881 1.427 . S
C874 H865 0.930 . S
C874 C872 1.378 . S
C874 C875 1.367 . S
C875 C874 1.367 . S
C875 C877 1.433 . S
C876 C872 1.350 . S
C876 C873 1.463 . S
C876 N880 1.427 . S
C877 H867 0.929 . S
C877 C875 1.433 . S
C877 N880 1.384 . S
C878 H869 0.929 . S
C878 C870 1.378 . S
C878 C873 1.350 . S
C879 H866 0.929 . S
C879 C871 1.433 . S
C879 N881 1.384 . S
N880 C876 1.427 . S
N880 C877 1.384 . S
N881 C873 1.427 . S
N881 C879 1.384 . S
H882 C888 0.930 . S
H883 C892 0.930 . S
H884 C897 0.929 . S
H885 C895 0.929 . S
H886 C890 0.929 . S
H887 C896 0.929 . S
C888 H882 0.930 . S
C888 C889 1.367 . S
C888 C896 1.378 . S
C889 C888 1.367 . S
C889 C897 1.433 . S
C890 H886 0.929 . S
C890 C892 1.378 . S
C890 C894 1.350 . S
C891 C894 1.463 . S
C891 C896 1.350 . S
C891 N899 1.427 . S
C892 H883 0.930 . S
C892 C890 1.378 . S
C892 C893 1.367 . S
C893 C892 1.367 . S
C893 C895 1.433 . S
C894 C890 1.350 . S
C894 C891 1.463 . S
C894 N898 1.427 . S
C895 H885 0.929 . S
C895 C893 1.433 . S
C895 N898 1.384 . S
C896 H887 0.929 . S
C896 C888 1.378 . S
C896 C891 1.350 . S
C897 H884 0.929 . S
C897 C889 1.433 . S
C897 N899 1.384 . S
N898 C894 1.427 . S
N898 C895 1.384 . S
N899 C891 1.427 . S
N899 C897 1.384 . S
H900 C906 0.930 . S
H901 C910 0.930 . S
H902 C915 0.929 . S
H903 C913 0.929 . S
H904 C908 0.929 . S
H905 C914 0.929 . S
C906 H900 0.930 . S
C906 C907 1.367 . S
C906 C914 1.378 . S
C907 C906 1.367 . S
C907 C915 1.433 . S
C908 H904 0.929 . S
C908 C910 1.378 . S
C908 C912 1.350 . S
C909 C912 1.463 . S
C909 C914 1.350 . S
C909 N917 1.427 . S
C910 H901 0.930 . S
C910 C908 1.378 . S
C910 C911 1.367 . S
C911 C910 1.367 . S
C911 C913 1.433 . S
C912 C908 1.350 . S
C912 C909 1.463 . S
C912 N916 1.427 . S
C913 H903 0.929 . S
C913 C911 1.433 . S
C913 N916 1.384 . S
C914 H905 0.929 . S
C914 C906 1.378 . S
C914 C909 1.350 . S
C915 H902 0.929 . S
C915 C907 1.433 . S
C915 N917 1.384 . S
N916 C912 1.427 . S
N916 C913 1.384 . S
N917 C909 1.427 . S
N917 C915 1.384 . S
H918 C924 0.930 . S
H919 C928 0.930 . S
H920 C933 0.929 . S
H921 C931 0.929 . S
H922 C926 0.929 . S
H923 C932 0.929 . S
C924 H918 0.930 . S
C924 C925 1.367 . S
C924 C932 1.378 . S
C925 C924 1.367 . S
C925 C933 1.433 . S
C926 H922 0.929 . S
C926 C928 1.378 . S
C926 C930 1.350 . S
C927 C930 1.463 . S
C927 C932 1.350 . S
C927 N935 1.427 . S
C928 H919 0.930 . S
C928 C926 1.378 . S
C928 C929 1.367 . S
C929 C928 1.367 . S
C929 C931 1.433 . S
C930 C926 1.350 . S
C930 C927 1.463 . S
C930 N934 1.427 . S
C931 H921 0.929 . S
C931 C929 1.433 . S
C931 N934 1.384 . S
C932 H923 0.929 . S
C932 C924 1.378 . S
C932 C927 1.350 . S
C933 H920 0.929 . S
C933 C925 1.433 . S
C933 N935 1.384 . S
N934 C930 1.427 . S
N934 C931 1.384 . S
N935 C927 1.427 . S
N935 C933 1.384 . S
C403 N14 1.541 . S
C407 N113 1.541 . S
C421 N146 1.541 . S
C425 N47 1.541 . S
C439 N179 1.539 . S
C443 N80 1.539 . S
C457 N311 1.541 . S
C461 N212 1.541 . S
C475 N344 1.539 . S
C479 N245 1.539 . S
C493 N278 1.540 . S
C497 N377 1.540 . S
C511 C8 1.064 . S
C515 N170 1.065 . S
C529 N5 1.062 . S
C533 C41 1.066 . S
C547 C74 1.065 . S
C551 N38 1.065 . S
C565 N71 1.066 . S
C569 C107 1.065 . S
C583 N104 1.062 . S
C587 C140 1.066 . S
C601 N137 1.062 . S
C605 C173 1.065 . S
C619 N236 1.064 . S
C623 C206 1.064 . S
C637 N269 1.066 . S
C641 C239 1.065 . S
C655 N302 1.063 . S
C659 C272 1.065 . S
C673 C305 1.065 . S
C677 N335 1.061 . S
C691 C338 1.066 . S
C695 N368 1.063 . S
C709 C371 1.066 . S
C713 N203 1.064 . S
C727 C292 1.238 . S
C731 C28 1.248 . S
C745 C61 1.234 . S
C749 C325 1.245 . S
C763 C94 1.239 . S
C767 C358 1.247 . S
C781 C127 1.235 . S
C785 C391 1.243 . S
C799 C226 1.235 . S
C803 C160 1.247 . S
C817 C193 1.248 . S
C821 C259 1.235 . S
C835 C380 1.513 . S
C839 C116 1.514 . S
C853 C215 1.521 . S
C857 C149 1.510 . S
C871 C248 1.514 . S
C875 C182 1.518 . S
C889 C17 1.510 . S
C893 C281 1.518 . S
C907 C50 1.511 . S
C911 C314 1.520 . S
C925 C83 1.519 . S
C929 C347 1.509 . S
