# Generated by pormake.
# Topology ume, (4)-cn, num edge types: 1
# Building blocks:
#     Node 0, Type 0, BuildingBlock: ICAMEG_clean_sbu_1, # of connection points: 4
#     Node 1, Type 0, BuildingBlock: ICAMEG_clean_sbu_1, # of connection points: 4
#     Node 2, Type 0, BuildingBlock: ICAMEG_clean_sbu_1, # of connection points: 4
#     Node 3, Type 0, BuildingBlock: ICAMEG_clean_sbu_1, # of connection points: 4
#     Node 4, Type 0, BuildingBlock: ICAMEG_clean_sbu_1, # of connection points: 4
#     Node 5, Type 0, BuildingBlock: ICAMEG_clean_sbu_1, # of connection points: 4
#     Node 6, Type 0, BuildingBlock: ICAMEG_clean_sbu_1, # of connection points: 4
#     Node 7, Type 0, BuildingBlock: ICAMEG_clean_sbu_1, # of connection points: 4
#     Node 8, Type 0, BuildingBlock: ICAMEG_clean_sbu_1, # of connection points: 4
#     Node 9, Type 0, BuildingBlock: ICAMEG_clean_sbu_1, # of connection points: 4
#     Node 10, Type 0, BuildingBlock: ICAMEG_clean_sbu_1, # of connection points: 4
#     Node 11, Type 0, BuildingBlock: ICAMEG_clean_sbu_1, # of connection points: 4
#     Node 12, Type 0, BuildingBlock: ICAMEG_clean_sbu_1, # of connection points: 4
#     Node 13, Type 0, BuildingBlock: ICAMEG_clean_sbu_1, # of connection points: 4
#     Node 14, Type 0, BuildingBlock: ICAMEG_clean_sbu_1, # of connection points: 4
#     Node 15, Type 0, BuildingBlock: ICAMEG_clean_sbu_1, # of connection points: 4
#     Edge 16, Type (0, 0), BuildingBlock: CIFDUS_clean_linker_0, # of connection points: 2
#     Edge 17, Type (0, 0), BuildingBlock: CIFDUS_clean_linker_0, # of connection points: 2
#     Edge 18, Type (0, 0), BuildingBlock: CIFDUS_clean_linker_0, # of connection points: 2
#     Edge 19, Type (0, 0), BuildingBlock: CIFDUS_clean_linker_0, # of connection points: 2
#     Edge 20, Type (0, 0), BuildingBlock: CIFDUS_clean_linker_0, # of connection points: 2
#     Edge 21, Type (0, 0), BuildingBlock: CIFDUS_clean_linker_0, # of connection points: 2
#     Edge 22, Type (0, 0), BuildingBlock: CIFDUS_clean_linker_0, # of connection points: 2
#     Edge 23, Type (0, 0), BuildingBlock: CIFDUS_clean_linker_0, # of connection points: 2
#     Edge 24, Type (0, 0), BuildingBlock: CIFDUS_clean_linker_0, # of connection points: 2
#     Edge 25, Type (0, 0), BuildingBlock: CIFDUS_clean_linker_0, # of connection points: 2
#     Edge 26, Type (0, 0), BuildingBlock: CIFDUS_clean_linker_0, # of connection points: 2
#     Edge 27, Type (0, 0), BuildingBlock: CIFDUS_clean_linker_0, # of connection points: 2
#     Edge 28, Type (0, 0), BuildingBlock: CIFDUS_clean_linker_0, # of connection points: 2
#     Edge 29, Type (0, 0), BuildingBlock: CIFDUS_clean_linker_0, # of connection points: 2
#     Edge 30, Type (0, 0), BuildingBlock: CIFDUS_clean_linker_0, # of connection points: 2
#     Edge 31, Type (0, 0), BuildingBlock: CIFDUS_clean_linker_0, # of connection points: 2
#     Edge 32, Type (0, 0), BuildingBlock: CIFDUS_clean_linker_0, # of connection points: 2
#     Edge 33, Type (0, 0), BuildingBlock: CIFDUS_clean_linker_0, # of connection points: 2
#     Edge 34, Type (0, 0), BuildingBlock: CIFDUS_clean_linker_0, # of connection points: 2
#     Edge 35, Type (0, 0), BuildingBlock: CIFDUS_clean_linker_0, # of connection points: 2
#     Edge 36, Type (0, 0), BuildingBlock: CIFDUS_clean_linker_0, # of connection points: 2
#     Edge 37, Type (0, 0), BuildingBlock: CIFDUS_clean_linker_0, # of connection points: 2
#     Edge 38, Type (0, 0), BuildingBlock: CIFDUS_clean_linker_0, # of connection points: 2
#     Edge 39, Type (0, 0), BuildingBlock: CIFDUS_clean_linker_0, # of connection points: 2
#     Edge 40, Type (0, 0), BuildingBlock: CIFDUS_clean_linker_0, # of connection points: 2
#     Edge 41, Type (0, 0), BuildingBlock: CIFDUS_clean_linker_0, # of connection points: 2
#     Edge 42, Type (0, 0), BuildingBlock: CIFDUS_clean_linker_0, # of connection points: 2
#     Edge 43, Type (0, 0), BuildingBlock: CIFDUS_clean_linker_0, # of connection points: 2
#     Edge 44, Type (0, 0), BuildingBlock: CIFDUS_clean_linker_0, # of connection points: 2
#     Edge 45, Type (0, 0), BuildingBlock: CIFDUS_clean_linker_0, # of connection points: 2
#     Edge 46, Type (0, 0), BuildingBlock: CIFDUS_clean_linker_0, # of connection points: 2
#     Edge 47, Type (0, 0), BuildingBlock: CIFDUS_clean_linker_0, # of connection points: 2
# Relax obj value: 0.074
# Max RMSD: 0.096
# Mean RMSD: 0.096
data_MOF--net-ume--node1-ICAMEG_clean_sbu_1--edge1-CIFDUS_clean_linker_0
_symmetry_space_group_name_H-M    P1
_symmetry_Int_Tables_number       1
_symmetry_cell_setting            triclinic
loop_
_symmetry_equiv_pos_as_xyz
'x, y, z'
_cell_length_a     26.052719
_cell_length_b     26.014592
_cell_length_c     104.54211
_cell_angle_alpha  90.095811
_cell_angle_beta   90.087519
_cell_angle_gamma 89.976012
loop_
_atom_site_label
_atom_site_type_symbol
_atom_site_fract_x
_atom_site_fract_y
_atom_site_fract_z
_atom_type_partial_charge
Co0 Co 0.28654 0.14962 0.32269 0.0
Co1 Co 0.2582 0.0359 0.30705 0.0
O2 O 0.24253 0.0901 0.3194 0.0
C3 C 0.27265 0.10326 0.34826 0.0
O4 O 0.2832 0.0588 0.34291 0.0
C5 C 0.15422 0.07035 0.29955 0.0
O6 O 0.17146 0.11776 0.29993 0.0
O7 O 0.27215 0.08775 0.29338 0.0
O8 O 0.30267 0.15645 0.30406 0.0
H9 H 0.36161 0.9498 0.27259 0.0
H10 H 0.1803 0.14818 0.33279 0.0
O11 O 0.27185 0.14396 0.34149 0.0
H12 H 0.18797 0.29858 0.30421 0.0
H13 H 0.33204 0.31639 0.34441 0.0
H14 H 0.38824 0.18479 0.31347 0.0
H15 H 0.26447 0.24437 0.30763 0.0
H16 H 0.2774 0.24127 0.33969 0.0
O17 O 0.18428 0.03303 0.30194 0.0
H18 H 0.34163 0.0177 0.28833 0.0
H19 H 0.20602 0.93867 0.29926 0.0
H20 H 0.44396 0.25944 0.31781 0.0
H21 H 0.10297 0.20154 0.32972 0.0
H22 H 0.4159 0.32593 0.33339 0.0
H23 H 0.10649 0.27728 0.31531 0.0
O24 O 0.34806 0.10497 0.32478 0.0
H25 H 0.15865 0.95898 0.34343 0.0
H26 H 0.31358 0.9432 0.31667 0.0
H27 H 0.29885 0.88088 0.33403 0.0
H28 H 0.22088 0.88855 0.34755 0.0
H29 H 0.17515 0.02078 0.32605 0.0
H30 H 0.22433 0.87013 0.28358 0.0
H31 H 0.30275 0.87533 0.27018 0.0
O32 O 0.332 0.03671 0.31208 0.0
C33 C 0.2935 0.13196 0.29372 0.0
C34 C 0.3274 0.94704 0.27842 0.0
C35 C 0.25031 0.90236 0.28457 0.0
N36 N 0.27292 0.98195 0.29477 0.0
C37 C 0.31596 0.98529 0.28736 0.0
C38 C 0.24008 0.94134 0.29341 0.0
C39 C 0.29433 0.90529 0.27705 0.0
C40 C 0.18225 0.18138 0.32661 0.0
N41 N 0.22689 0.19333 0.32046 0.0
C42 C 0.13829 0.21132 0.32487 0.0
C43 C 0.14028 0.25376 0.31677 0.0
C44 C 0.18597 0.26572 0.31053 0.0
C45 C 0.22913 0.23483 0.31248 0.0
C46 C 0.34464 0.28774 0.33758 0.0
C47 C 0.37567 0.2137 0.32019 0.0
C48 C 0.31391 0.24508 0.33488 0.0
N49 N 0.32947 0.20889 0.32622 0.0
C50 C 0.40743 0.25582 0.32264 0.0
C51 C 0.39168 0.29308 0.33139 0.0
C52 C 0.36117 0.06302 0.31936 0.0
C53 C 0.19269 0.95516 0.33758 0.0
C54 C 0.27963 0.94687 0.32253 0.0
C55 C 0.27143 0.91139 0.33233 0.0
C56 C 0.22766 0.9157 0.3399 0.0
N57 N 0.24519 0.98553 0.32033 0.0
C58 C 0.20213 0.98991 0.32769 0.0
Co59 Co 0.85697 0.78552 0.57004 0.0
Co60 Co 0.97121 0.75968 0.55461 0.0
O61 O 0.91862 0.74432 0.56731 0.0
C62 C 0.90418 0.77899 0.59567 0.0
O63 O 0.94817 0.79087 0.59033 0.0
C64 C 0.94144 0.65131 0.5495 0.0
O65 O 0.89351 0.6669 0.54964 0.0
O66 O 0.91816 0.7677 0.54084 0.0
O67 O 0.84886 0.79715 0.55134 0.0
H68 H 0.05046 0.85889 0.51849 0.0
H69 H 0.86443 0.68173 0.58158 0.0
O70 O 0.86374 0.77518 0.58889 0.0
H71 H 0.71341 0.67498 0.55313 0.0
H72 H 0.68868 0.82663 0.59135 0.0
H73 H 0.81592 0.88304 0.55947 0.0
H74 H 0.76336 0.75501 0.55541 0.0
H75 H 0.76648 0.77513 0.58726 0.0
O76 O 0.97757 0.68399 0.55076 0.0
H77 H 0.98463 0.83959 0.53473 0.0
H78 H 0.07002 0.70982 0.54718 0.0
H79 H 0.7385 0.93555 0.56317 0.0
H80 H 0.81536 0.60101 0.57965 0.0
H81 H 0.6742 0.90739 0.57922 0.0
H82 H 0.73934 0.59726 0.56531 0.0
O83 O 0.89826 0.84972 0.57123 0.0
H84 H 0.05375 0.67381 0.59245 0.0
H85 H 0.0626 0.82057 0.56277 0.0
H86 H 0.12636 0.81329 0.58014 0.0
H87 H 0.12218 0.73942 0.59512 0.0
H88 H 0.99044 0.68298 0.57505 0.0
H89 H 0.13654 0.72743 0.53099 0.0
H90 H 0.12709 0.8026 0.51655 0.0
O91 O 0.96676 0.83541 0.55857 0.0
C92 C 0.87304 0.78707 0.54105 0.0
C93 C 0.05509 0.82612 0.52475 0.0
C94 C 0.10336 0.75229 0.53176 0.0
N95 N 0.02368 0.77387 0.54195 0.0
C96 C 0.01802 0.81509 0.53399 0.0
C97 C 0.0655 0.74243 0.54088 0.0
C98 C 0.09805 0.79448 0.52366 0.0
C99 C 0.83107 0.68055 0.57543 0.0
N100 N 0.81661 0.7231 0.56867 0.0
C101 C 0.80357 0.63467 0.57433 0.0
C102 C 0.76098 0.63257 0.56626 0.0
C103 C 0.74643 0.67616 0.55942 0.0
C104 C 0.77492 0.72133 0.56073 0.0
C105 C 0.71636 0.83926 0.58432 0.0
C106 C 0.78799 0.87041 0.56641 0.0
C107 C 0.76054 0.81032 0.58198 0.0
N108 N 0.79554 0.82592 0.57306 0.0
C109 C 0.74428 0.90036 0.56849 0.0
C110 C 0.70825 0.88456 0.5775 0.0
C111 C 0.93881 0.86479 0.56551 0.0
C112 C 0.056 0.70615 0.58598 0.0
C113 C 0.06031 0.78859 0.56931 0.0
C114 C 0.09666 0.78451 0.57909 0.0
C115 C 0.09434 0.74302 0.58749 0.0
N116 N 0.02271 0.7524 0.56792 0.0
C117 C 0.02036 0.71146 0.57608 0.0
Co118 Co 0.23588 0.38145 0.81937 0.0
Co119 Co 0.24642 0.50096 0.80504 0.0
O120 O 0.26919 0.44817 0.81701 0.0
C121 C 0.23328 0.43066 0.84477 0.0
O122 O 0.21714 0.47159 0.83864 0.0
C123 C 0.35523 0.48367 0.79819 0.0
O124 O 0.34577 0.43409 0.79819 0.0
O125 O 0.24155 0.44937 0.79092 0.0
O126 O 0.2273 0.37287 0.80036 0.0
H127 H 0.13393 0.57448 0.77053 0.0
H128 H 0.33643 0.40213 0.83166 0.0
O129 O 0.24308 0.38955 0.83853 0.0
H130 H 0.36593 0.25439 0.80298 0.0
H131 H 0.21485 0.20852 0.84022 0.0
H132 H 0.1464 0.32808 0.80786 0.0
H133 H 0.27984 0.29323 0.80483 0.0
H134 H 0.25579 0.29283 0.83669 0.0
O135 O 0.31935 0.51554 0.80044 0.0
H136 H 0.16239 0.50877 0.786 0.0
H137 H 0.28423 0.60566 0.79821 0.0
H138 H 0.10453 0.24402 0.81098 0.0
H139 H 0.42308 0.36431 0.83017 0.0
H140 H 0.13878 0.18358 0.82727 0.0
H141 H 0.43827 0.28999 0.81571 0.0
O142 O 0.16666 0.41348 0.82024 0.0
H143 H 0.33027 0.58619 0.84284 0.0
H144 H 0.17838 0.58477 0.81466 0.0
H145 H 0.18234 0.64631 0.8326 0.0
H146 H 0.25875 0.64726 0.84685 0.0
H147 H 0.32438 0.52489 0.82487 0.0
H148 H 0.25738 0.67217 0.7828 0.0
H149 H 0.18167 0.65683 0.76886 0.0
O150 O 0.17327 0.48849 0.80964 0.0
C151 C 0.23151 0.4013 0.79044 0.0
C152 C 0.16691 0.58165 0.77658 0.0
C153 C 0.23625 0.63646 0.78345 0.0
N154 N 0.22467 0.55353 0.79306 0.0
C155 C 0.18311 0.54467 0.78538 0.0
C156 C 0.25135 0.5986 0.79214 0.0
C157 C 0.19373 0.62784 0.77564 0.0
C158 C 0.34266 0.36947 0.82545 0.0
N159 N 0.3031 0.3497 0.8184 0.0
C160 C 0.39184 0.34836 0.8246 0.0
C161 C 0.40034 0.3067 0.81648 0.0
C162 C 0.35978 0.28673 0.80933 0.0
C163 C 0.31114 0.30891 0.8104 0.0
C164 C 0.19963 0.23448 0.83308 0.0
C165 C 0.16172 0.30183 0.81489 0.0
C166 C 0.22259 0.28228 0.83105 0.0
N167 N 0.20374 0.31511 0.82199 0.0
C168 C 0.13776 0.25436 0.81665 0.0
C169 C 0.15696 0.22049 0.8258 0.0
C170 C 0.14757 0.45471 0.8157 0.0
C171 C 0.29679 0.58617 0.8367 0.0
C172 C 0.21155 0.58473 0.82087 0.0
C173 C 0.2137 0.61982 0.83098 0.0
C174 C 0.25662 0.62038 0.83895 0.0
N175 N 0.25097 0.55112 0.81875 0.0
C176 C 0.29331 0.55166 0.82649 0.0
Co177 Co 0.63289 0.7163 0.07322 0.0
Co178 Co 0.5244 0.74846 0.05587 0.0
O179 O 0.57631 0.76269 0.06894 0.0
C180 C 0.58181 0.73196 0.09818 0.0
O181 O 0.53796 0.72343 0.09235 0.0
C182 C 0.56519 0.85058 0.04857 0.0
O183 O 0.61187 0.83224 0.04989 0.0
O184 O 0.57842 0.73011 0.04304 0.0
O185 O 0.64358 0.69899 0.05484 0.0
H186 H 0.44182 0.64564 0.0207 0.0
H187 H 0.63356 0.82306 0.08315 0.0
O188 O 0.62352 0.73187 0.09185 0.0
H189 H 0.79017 0.80753 0.05699 0.0
H190 H 0.79158 0.66434 0.09754 0.0
H191 H 0.66586 0.61268 0.06467 0.0
H192 H 0.73194 0.73357 0.05961 0.0
H193 H 0.72051 0.72223 0.09156 0.0
O194 O 0.52655 0.82166 0.05031 0.0
H195 H 0.50612 0.66362 0.03747 0.0
H196 H 0.43243 0.80506 0.04618 0.0
H197 H 0.73646 0.55368 0.07028 0.0
H198 H 0.69091 0.89793 0.08084 0.0
H199 H 0.79998 0.57943 0.08684 0.0
H200 H 0.7698 0.89043 0.06766 0.0
O201 O 0.5852 0.6568 0.07473 0.0
H202 H 0.44603 0.85613 0.09069 0.0
H203 H 0.42506 0.70145 0.06389 0.0
H204 H 0.35961 0.72209 0.08013 0.0
H205 H 0.36988 0.80001 0.09367 0.0
H206 H 0.5108 0.83364 0.07444 0.0
H207 H 0.36764 0.78883 0.02944 0.0
H208 H 0.37198 0.70853 0.01659 0.0
O209 O 0.5199 0.67534 0.06136 0.0
C210 C 0.62177 0.70751 0.04413 0.0
C211 C 0.43944 0.6807 0.02626 0.0
C212 C 0.39785 0.7611 0.03115 0.0
N213 N 0.47285 0.73516 0.04285 0.0
C214 C 0.47564 0.69102 0.03579 0.0
C215 C 0.43475 0.77015 0.04059 0.0
C216 C 0.40029 0.71603 0.02395 0.0
C217 C 0.66808 0.8194 0.07749 0.0
N218 N 0.67955 0.77396 0.07158 0.0
C219 C 0.70029 0.86196 0.07618 0.0
C220 C 0.74451 0.85775 0.06877 0.0
C221 C 0.75594 0.81126 0.06277 0.0
C222 C 0.72278 0.76954 0.06427 0.0
C223 C 0.7642 0.6527 0.0903 0.0
C224 C 0.69347 0.62422 0.07183 0.0
C225 C 0.72382 0.68528 0.08689 0.0
N226 N 0.68922 0.67093 0.07771 0.0
C227 C 0.73332 0.59062 0.07499 0.0
C228 C 0.7689 0.60508 0.08429 0.0
C229 C 0.54354 0.64524 0.06897 0.0
C230 C 0.44114 0.82206 0.08486 0.0
C231 C 0.43002 0.73508 0.06983 0.0
C232 C 0.39271 0.74676 0.07896 0.0
C233 C 0.39845 0.79052 0.08654 0.0
N234 N 0.47187 0.76606 0.06827 0.0
C235 C 0.47763 0.80918 0.07562 0.0
Co236 Co 0.26798 0.36341 0.9471 0.0
Co237 Co 0.25434 0.48585 0.95965 0.0
O238 O 0.23229 0.42928 0.94866 0.0
C239 C 0.26519 0.40372 0.92073 0.0
O240 O 0.28061 0.44739 0.92573 0.0
C241 C 0.14635 0.46821 0.96748 0.0
O242 O 0.15677 0.41892 0.9683 0.0
O243 O 0.26192 0.43852 0.97457 0.0
O244 O 0.2803 0.36104 0.96606 0.0
H245 H 0.36739 0.57182 0.99226 0.0
H246 H 0.16477 0.37616 0.93556 0.0
O247 O 0.25737 0.36505 0.92798 0.0
H248 H 0.14629 0.23688 0.96716 0.0
H249 H 0.2925 0.18527 0.92926 0.0
H250 H 0.36179 0.31732 0.95842 0.0
H251 H 0.23023 0.27845 0.96371 0.0
H252 H 0.2487 0.2688 0.93174 0.0
O253 O 0.18133 0.49989 0.96437 0.0
H254 H 0.33948 0.50118 0.97809 0.0
H255 H 0.21423 0.59135 0.96491 0.0
H256 H 0.40658 0.2342 0.95635 0.0
H257 H 0.08018 0.33545 0.93864 0.0
H258 H 0.37192 0.16746 0.94167 0.0
H259 H 0.07054 0.26537 0.95457 0.0
O260 O 0.3356 0.39776 0.94494 0.0
H261 H 0.16535 0.55736 0.92088 0.0
H262 H 0.31905 0.56868 0.9483 0.0
H263 H 0.31203 0.62456 0.92934 0.0
H264 H 0.2347 0.61906 0.91547 0.0
H265 H 0.1743 0.50182 0.93985 0.0
H266 H 0.24052 0.66278 0.97901 0.0
H267 H 0.31774 0.65332 0.99278 0.0
O268 O 0.32756 0.47393 0.95497 0.0
C269 C 0.27558 0.3915 0.97561 0.0
C270 C 0.33376 0.57645 0.98627 0.0
C271 C 0.26251 0.62748 0.97885 0.0
N272 N 0.27549 0.54226 0.97062 0.0
C273 C 0.31785 0.53665 0.97821 0.0
C274 C 0.24772 0.58684 0.97091 0.0
C275 C 0.30586 0.62216 0.98657 0.0
C276 C 0.16096 0.34535 0.94241 0.0
N277 N 0.2024 0.32947 0.94939 0.0
C278 C 0.11293 0.32259 0.94416 0.0
C279 C 0.10754 0.28332 0.95311 0.0
C280 C 0.15002 0.26734 0.96018 0.0
C281 C 0.19742 0.29107 0.9582 0.0
C282 C 0.30791 0.21398 0.93571 0.0
C283 C 0.34628 0.28834 0.9521 0.0
C284 C 0.28334 0.26138 0.93713 0.0
N285 N 0.30244 0.2977 0.94531 0.0
C286 C 0.3719 0.24141 0.95093 0.0
C287 C 0.35246 0.20401 0.94268 0.0
C288 C 0.35394 0.44007 0.94908 0.0
C289 C 0.19923 0.56011 0.92685 0.0
C290 C 0.28554 0.56581 0.94226 0.0
C291 C 0.28162 0.59772 0.93157 0.0
C292 C 0.23819 0.59467 0.92381 0.0
N293 N 0.24733 0.53181 0.94514 0.0
C294 C 0.20445 0.52888 0.93762 0.0
Co295 Co 0.59922 0.76652 0.19876 0.0
Co296 Co 0.48184 0.7585 0.21409 0.0
O297 O 0.53304 0.73383 0.20197 0.0
C298 C 0.5473 0.76529 0.17375 0.0
O299 O 0.50663 0.78183 0.1799 0.0
C300 C 0.50181 0.6509 0.22154 0.0
O301 O 0.55101 0.66159 0.22103 0.0
O302 O 0.535 0.76665 0.22773 0.0
O303 O 0.61012 0.77859 0.21751 0.0
H304 H 0.41114 0.87727 0.24768 0.0
H305 H 0.57709 0.66389 0.18769 0.0
O306 O 0.58878 0.75623 0.17986 0.0
H307 H 0.7277 0.63884 0.21562 0.0
H308 H 0.76937 0.78322 0.17643 0.0
H309 H 0.65371 0.8584 0.20873 0.0
H310 H 0.68897 0.72481 0.21311 0.0
H311 H 0.68567 0.74308 0.18108 0.0
O312 O 0.4688 0.68609 0.21958 0.0
H313 H 0.4754 0.84621 0.23215 0.0
H314 H 0.37878 0.72088 0.22219 0.0
H315 H 0.73724 0.89955 0.20449 0.0
H316 H 0.6147 0.5773 0.18989 0.0
H317 H 0.79573 0.8619 0.18823 0.0
H318 H 0.69047 0.56435 0.20397 0.0
O319 O 0.56706 0.83552 0.19741 0.0
H320 H 0.39262 0.66691 0.178 0.0
H321 H 0.39661 0.82426 0.20433 0.0
H322 H 0.33296 0.81656 0.18694 0.0
H323 H 0.3307 0.73738 0.17363 0.0
H324 H 0.45602 0.67654 0.19537 0.0
H325 H 0.3137 0.75033 0.23767 0.0
H326 H 0.32956 0.8292 0.25047 0.0
O327 O 0.4932 0.83099 0.20854 0.0
C328 C 0.58298 0.77695 0.22767 0.0
C329 C 0.40372 0.84295 0.24212 0.0
C330 C 0.34905 0.77165 0.23651 0.0
N331 N 0.43066 0.78204 0.22621 0.0
C332 C 0.43988 0.82526 0.23329 0.0
C333 C 0.3861 0.75508 0.22779 0.0
C334 C 0.35799 0.81593 0.2437 0.0
C335 C 0.61039 0.65863 0.19373 0.0
N336 N 0.63101 0.69937 0.2002 0.0
C337 C 0.63138 0.60949 0.19498 0.0
C338 C 0.67384 0.60223 0.2029 0.0
C339 C 0.69473 0.64401 0.20945 0.0
C340 C 0.67261 0.69258 0.208 0.0
C341 C 0.7443 0.79991 0.18356 0.0
C342 C 0.67914 0.84159 0.20172 0.0
C343 C 0.69684 0.7774 0.18622 0.0
N344 N 0.66512 0.7981 0.19527 0.0
C345 C 0.7263 0.86515 0.19932 0.0
C346 C 0.75906 0.84404 0.19019 0.0
C347 C 0.52638 0.85555 0.20198 0.0
C348 C 0.3932 0.70158 0.18373 0.0
C349 C 0.39606 0.78988 0.19852 0.0
C350 C 0.3598 0.78562 0.18873 0.0
C351 C 0.35851 0.74116 0.18128 0.0
N352 N 0.43011 0.751 0.20084 0.0
C353 C 0.42888 0.70718 0.19362 0.0
Co354 Co 0.22531 0.12441 0.44869 0.0
Co355 Co 0.25 0.00742 0.46311 0.0
O356 O 0.26472 0.06118 0.45074 0.0
C357 C 0.22296 0.07403 0.42347 0.0
O358 O 0.20957 0.03245 0.42972 0.0
C359 C 0.35842 0.03638 0.46784 0.0
O360 O 0.34265 0.08431 0.46809 0.0
O361 O 0.24391 0.05914 0.47718 0.0
O362 O 0.21906 0.13293 0.46773 0.0
H363 H 0.15372 0.92533 0.49932 0.0
H364 H 0.32523 0.11251 0.43542 0.0
O365 O 0.23036 0.11597 0.42956 0.0
H366 H 0.34581 0.26344 0.46356 0.0
H367 H 0.18514 0.29356 0.42764 0.0
H368 H 0.1336 0.17042 0.46103 0.0
H369 H 0.26345 0.21679 0.46265 0.0
H370 H 0.23406 0.21343 0.43097 0.0
O371 O 0.32586 1.00017 0.46648 0.0
H372 H 0.17211 0.9928 0.4834 0.0
H373 H 0.29933 0.90722 0.46955 0.0
H374 H 0.08381 0.25022 0.45813 0.0
H375 H 0.40814 0.15819 0.43598 0.0
H376 H 0.10954 0.31246 0.44132 0.0
H377 H 0.41886 0.23415 0.45015 0.0
O378 O 0.15927 0.08619 0.44866 0.0
H379 H 0.33118 0.9275 0.42429 0.0
H380 H 0.18653 0.91836 0.45456 0.0
H381 H 0.19114 0.8565 0.43669 0.0
H382 H 0.2639 0.86085 0.4214 0.0
H383 H 0.32476 0.98892 0.44221 0.0
H384 H 0.28261 0.83904 0.48538 0.0
H385 H 0.20917 0.84777 0.50037 0.0
O386 O 0.17424 0.01315 0.45964 0.0
C387 C 0.22838 0.10576 0.47765 0.0
C388 C 0.18572 0.92101 0.49281 0.0
C389 C 0.2581 0.87261 0.485 0.0
N390 N 0.23647 0.95372 0.47549 0.0
C391 C 0.19622 0.959 0.48376 0.0
C392 C 0.26747 0.91139 0.47608 0.0
C393 C 0.21689 0.87752 0.4934 0.0
C394 C 0.32943 0.14585 0.44151 0.0
N395 N 0.28947 0.16216 0.44893 0.0
C396 C 0.37654 0.17143 0.44183 0.0
C397 C 0.38255 0.21399 0.4498 0.0
C398 C 0.34158 0.23043 0.45733 0.0
C399 C 0.29507 0.20382 0.45679 0.0
C400 C 0.1736 0.26679 0.43501 0.0
C401 C 0.14518 0.19745 0.45376 0.0
C402 C 0.20108 0.22132 0.43692 0.0
N403 N 0.18688 0.18749 0.44626 0.0
C404 C 0.11677 0.24251 0.45213 0.0
C405 C 0.1312 0.27738 0.44269 0.0
C406 C 0.14443 0.04424 0.45376 0.0
C407 C 0.29936 0.92513 0.4309 0.0
C408 C 0.2182 0.92058 0.44792 0.0
C409 C 0.2207 0.88536 0.43785 0.0
C410 C 0.26156 0.8878 0.42928 0.0
N411 N 0.25536 0.95717 0.44944 0.0
C412 C 0.29564 0.95967 0.4411 0.0
Co413 Co 0.86942 0.72122 0.69465 0.0
Co414 Co 0.97902 0.74423 0.71236 0.0
O415 O 0.93063 0.76092 0.6988 0.0
C416 C 0.92796 0.72565 0.67063 0.0
O417 O 0.9683 0.7121 0.67737 0.0
C418 C 0.94665 0.85124 0.71768 0.0
O419 O 0.89917 0.83491 0.7166 0.0
O420 O 0.9221 0.73487 0.7249 0.0
O421 O 0.85398 0.71015 0.71314 0.0
H422 H 0.04675 0.64233 0.74952 0.0
H423 H 0.88413 0.82451 0.68323 0.0
O424 O 0.88446 0.73088 0.67604 0.0
H425 H 0.72324 0.83611 0.70786 0.0
H426 H 0.70972 0.68401 0.66913 0.0
H427 H 0.82133 0.62549 0.70434 0.0
H428 H 0.77158 0.75464 0.70685 0.0
H429 H 0.787 0.73332 0.67511 0.0
O430 O 0.9837 0.81941 0.71676 0.0
H431 H 0.98632 0.66266 0.73205 0.0
H432 H 0.07511 0.79328 0.72194 0.0
H433 H 0.74423 0.57521 0.69876 0.0
H434 H 0.83686 0.90663 0.68392 0.0
H435 H 0.68779 0.60444 0.68103 0.0
H436 H 0.75587 0.91283 0.69634 0.0
O437 O 0.90892 0.65581 0.69458 0.0
H438 H 0.07356 0.83378 0.67694 0.0
H439 H 0.07186 0.68314 0.70549 0.0
H440 H 0.14083 0.69185 0.68951 0.0
H441 H 0.14196 0.76766 0.67509 0.0
H442 H 0.00504 0.82322 0.69297 0.0
H443 H 0.13627 0.77461 0.73937 0.0
H444 H 0.12228 0.69861 0.75327 0.0
O445 O 0.97549 0.66907 0.70797 0.0
C446 C 0.87631 0.71772 0.72385 0.0
C447 C 0.05331 0.67548 0.7435 0.0
C448 C 0.10352 0.74978 0.73781 0.0
N449 N 0.02742 0.72886 0.72593 0.0
C450 C 0.01933 0.68709 0.73357 0.0
C451 C 0.06871 0.76022 0.72798 0.0
C452 C 0.09568 0.70709 0.74561 0.0
C453 C 0.84863 0.82676 0.68854 0.0
N454 N 0.83047 0.78476 0.69493 0.0
C455 C 0.82215 0.87342 0.68895 0.0
C456 C 0.77676 0.87689 0.69593 0.0
C457 C 0.75844 0.83387 0.70241 0.0
C458 C 0.78602 0.78787 0.70182 0.0
C459 C 0.73394 0.67094 0.67689 0.0
C460 C 0.79679 0.63861 0.69668 0.0
C461 C 0.7778 0.69864 0.6803 0.0
N462 N 0.80841 0.68248 0.69014 0.0
C463 C 0.75326 0.60991 0.69353 0.0
C464 C 0.72165 0.6263 0.68357 0.0
C465 C 0.948 0.64008 0.70083 0.0
C466 C 0.07353 0.80062 0.68318 0.0
C467 C 0.07196 0.71605 0.69921 0.0
C468 C 0.11121 0.7209 0.69021 0.0
C469 C 0.11185 0.76347 0.68214 0.0
N470 N 0.03446 0.75259 0.70017 0.0
C471 C 0.03494 0.79454 0.69231 0.0
Co472 Co 0.77698 0.63512 0.82177 0.0
Co473 Co 0.76287 0.52083 0.80527 0.0
O474 O 0.74015 0.57148 0.81788 0.0
C475 C 0.76734 0.58559 0.84701 0.0
O476 O 0.78265 0.54275 0.84156 0.0
C477 C 0.65532 0.54302 0.79788 0.0
O478 O 0.66573 0.59227 0.79884 0.0
O479 O 0.77171 0.57545 0.79202 0.0
O480 O 0.79395 0.64552 0.80338 0.0
H481 H 0.87847 0.45145 0.7709 0.0
H482 H 0.67079 0.62117 0.83127 0.0
O483 O 0.76167 0.62618 0.84036 0.0
H484 H 0.66414 0.77402 0.80348 0.0
H485 H 0.80178 0.80407 0.84451 0.0
H486 H 0.87564 0.68143 0.8136 0.0
H487 H 0.74585 0.72826 0.80705 0.0
H488 H 0.75601 0.72399 0.83903 0.0
O489 O 0.69032 0.50984 0.79978 0.0
H490 H 0.84953 0.51446 0.78701 0.0
H491 H 0.72272 0.41924 0.79641 0.0
H492 H 0.92254 0.76122 0.8187 0.0
H493 H 0.58831 0.66595 0.82802 0.0
H494 H 0.88558 0.82321 0.83427 0.0
H495 H 0.58463 0.74289 0.81401 0.0
O496 O 0.84272 0.59725 0.82403 0.0
H497 H 0.67031 0.43058 0.84089 0.0
H498 H 0.82584 0.43169 0.81412 0.0
H499 H 0.81673 0.36619 0.83098 0.0
H500 H 0.73842 0.36535 0.84451 0.0
H501 H 0.68141 0.49577 0.82403 0.0
H502 H 0.75001 0.35544 0.78031 0.0
H503 H 0.82857 0.37126 0.76747 0.0
O504 O 0.83576 0.52956 0.81072 0.0
C505 C 0.78833 0.62156 0.79283 0.0
C506 C 0.84426 0.44405 0.77646 0.0
C507 C 0.77212 0.39021 0.78173 0.0
N508 N 0.78469 0.47039 0.7927 0.0
C509 C 0.82776 0.47952 0.78562 0.0
C510 C 0.75676 0.42656 0.7908 0.0
C511 C 0.81621 0.39909 0.77453 0.0
C512 C 0.66957 0.65493 0.82526 0.0
N513 N 0.7131 0.67224 0.81941 0.0
C514 C 0.62272 0.68 0.82341 0.0
C515 C 0.62067 0.72311 0.81553 0.0
C516 C 0.66527 0.74057 0.80961 0.0
C517 C 0.7114 0.71445 0.81165 0.0
C518 C 0.8182 0.77745 0.83768 0.0
C519 C 0.85912 0.70843 0.82028 0.0
C520 C 0.79249 0.73202 0.83455 0.0
N521 N 0.81287 0.69837 0.82588 0.0
C522 C 0.88594 0.75345 0.82318 0.0
C523 C 0.86521 0.78818 0.83193 0.0
C524 C 0.86136 0.55803 0.81835 0.0
C525 C 0.70463 0.43057 0.83507 0.0
C526 C 0.792 0.4319 0.82005 0.0
C527 C 0.78686 0.39453 0.82954 0.0
C528 C 0.74289 0.39403 0.83711 0.0
N529 N 0.75446 0.46778 0.81815 0.0
C530 C 0.71108 0.46731 0.82548 0.0
Co531 Co 0.38919 0.27501 0.06765 0.0
Co532 Co 0.50366 0.24363 0.05276 0.0
O533 O 0.44833 0.23003 0.06486 0.0
C534 C 0.43867 0.26669 0.09292 0.0
O535 O 0.48185 0.27534 0.08685 0.0
C536 C 0.46666 0.13984 0.04567 0.0
O537 O 0.41955 0.15776 0.04597 0.0
O538 O 0.45304 0.25872 0.03889 0.0
O539 O 0.3813 0.28636 0.04875 0.0
H540 H 0.5942 0.34318 0.01842 0.0
H541 H 0.39128 0.17128 0.07932 0.0
O542 O 0.39654 0.26493 0.08668 0.0
H543 H 0.23922 0.17231 0.05117 0.0
H544 H 0.22445 0.32676 0.08921 0.0
H545 H 0.35339 0.37406 0.05682 0.0
H546 H 0.29359 0.2495 0.05325 0.0
H547 H 0.29917 0.27076 0.08515 0.0
O548 O 0.50441 0.1696 0.04779 0.0
H549 H 0.52558 0.3262 0.03408 0.0
H550 H 0.59906 0.18758 0.04527 0.0
H551 H 0.27908 0.43097 0.06048 0.0
H552 H 0.33781 0.09333 0.07758 0.0
H553 H 0.21395 0.40741 0.07679 0.0
H554 H 0.26123 0.09351 0.0634 0.0
O555 O 0.43372 0.33687 0.0688 0.0
H556 H 0.57321 0.14292 0.08992 0.0
H557 H 0.59991 0.29339 0.06214 0.0
H558 H 0.66049 0.27672 0.0798 0.0
H559 H 0.64729 0.20094 0.09385 0.0
H560 H 0.51325 0.16151 0.07226 0.0
H561 H 0.66827 0.20281 0.02967 0.0
H562 H 0.66626 0.28108 0.01614 0.0
O563 O 0.5053 0.31762 0.05777 0.0
C564 C 0.4076 0.27731 0.03868 0.0
C565 C 0.59565 0.30897 0.02429 0.0
C566 C 0.63715 0.23014 0.03059 0.0
N567 N 0.55852 0.25617 0.04064 0.0
C568 C 0.55697 0.29924 0.03319 0.0
C569 C 0.59778 0.22166 0.03938 0.0
C570 C 0.636 0.27413 0.023 0.0
C571 C 0.35774 0.17179 0.07323 0.0
N572 N 0.3454 0.21494 0.06646 0.0
C573 C 0.32773 0.12748 0.07224 0.0
C574 C 0.28481 0.12759 0.06427 0.0
C575 C 0.27246 0.17178 0.0574 0.0
C576 C 0.30343 0.21534 0.0586 0.0
C577 C 0.2525 0.33738 0.08206 0.0
C578 C 0.32501 0.36338 0.06386 0.0
C579 C 0.29491 0.30588 0.07974 0.0
N580 N 0.33031 0.31893 0.07067 0.0
C581 C 0.28311 0.39584 0.06593 0.0
C582 C 0.24662 0.38262 0.07508 0.0
C583 C 0.47746 0.34855 0.06421 0.0
C584 C 0.57934 0.17609 0.08388 0.0
C585 C 0.59364 0.26074 0.06829 0.0
C586 C 0.62823 0.25127 0.07823 0.0
C587 C 0.62086 0.2087 0.08609 0.0
N588 N 0.55281 0.22881 0.06624 0.0
C589 C 0.54559 0.18675 0.07384 0.0
Co590 Co 0.72435 0.89878 0.31628 0.0
Co591 Co 0.76066 0.00687 0.29955 0.0
O592 O 0.77194 0.95505 0.31276 0.0
C593 C 0.73713 0.94994 0.34128 0.0
O594 O 0.72895 0.99339 0.33524 0.0
C595 C 0.86602 0.96848 0.29469 0.0
O596 O 0.84813 0.9214 0.29546 0.0
O597 O 0.74831 0.95231 0.28646 0.0
O598 O 0.71031 0.88893 0.29757 0.0
H599 H 0.66795 0.08741 0.26247 0.0
H600 H 0.82907 0.89609 0.32737 0.0
O601 O 0.73702 0.90765 0.3351 0.0
H602 H 0.81602 0.74034 0.30061 0.0
H603 H 0.66583 0.73972 0.3394 0.0
H604 H 0.62188 0.86817 0.30652 0.0
H605 H 0.74267 0.79984 0.30254 0.0
H606 H 0.72564 0.81034 0.33437 0.0
O607 O 0.83568 0.0066 0.29562 0.0
H608 H 0.68219 0.02299 0.2794 0.0
H609 H 0.81763 0.10061 0.29123 0.0
H610 H 0.56114 0.79795 0.31116 0.0
H611 H 0.90324 0.83744 0.32579 0.0
H612 H 0.583 0.73309 0.32772 0.0
H613 H 0.89699 0.75897 0.31231 0.0
O614 O 0.66562 0.94728 0.31739 0.0
H615 H 0.85439 0.08852 0.33639 0.0
H616 H 0.70729 0.10416 0.30694 0.0
H617 H 0.72048 0.16995 0.32362 0.0
H618 H 0.79454 0.16238 0.33849 0.0
H619 H 0.83937 0.02329 0.31967 0.0
H620 H 0.80512 0.16559 0.27435 0.0
H621 H 0.72968 0.15935 0.25987 0.0
O622 O 0.68561 0.00961 0.30342 0.0
C623 C 0.72379 0.90984 0.28705 0.0
C624 C 0.70088 0.09063 0.26875 0.0
C625 C 0.7779 0.13446 0.2754 0.0
N626 N 0.75047 0.05824 0.28635 0.0
C627 C 0.70907 0.05435 0.27837 0.0
C628 C 0.78486 0.09748 0.28492 0.0
C629 C 0.73556 0.13095 0.26728 0.0
C630 C 0.82592 0.86177 0.32158 0.0
N631 N 0.78154 0.85126 0.31511 0.0
C632 C 0.8681 0.82882 0.32068 0.0
C633 C 0.8646 0.78484 0.3131 0.0
C634 C 0.81919 0.77439 0.30653 0.0
C635 C 0.77783 0.80827 0.30763 0.0
C636 C 0.65594 0.76765 0.33214 0.0
C637 C 0.63184 0.83984 0.31366 0.0
C638 C 0.68961 0.80775 0.32927 0.0
N639 N 0.67749 0.84297 0.32006 0.0
C640 C 0.59721 0.80028 0.31628 0.0
C641 C 0.60947 0.76395 0.32558 0.0
C642 C 0.65439 0.98751 0.31103 0.0
C643 C 0.82202 0.09228 0.32996 0.0
C644 C 0.73936 0.10041 0.31342 0.0
C645 C 0.74679 0.1379 0.32282 0.0
C646 C 0.78838 0.13367 0.33115 0.0
N647 N 0.77242 0.05985 0.31233 0.0
C648 C 0.81342 0.05556 0.32043 0.0
Co649 Co 0.14183 0.22678 0.57049 0.0
Co650 Co 0.02239 0.25504 0.55783 0.0
O651 O 0.07971 0.2687 0.56939 0.0
C652 C 0.10217 0.22927 0.59703 0.0
O653 O 0.05707 0.21815 0.59214 0.0
C654 C 0.05136 0.36316 0.55215 0.0
O655 O 0.09915 0.34729 0.55153 0.0
O656 O 0.06993 0.24742 0.54294 0.0
O657 O 0.14382 0.21834 0.55143 0.0
H658 H 0.9289 0.15981 0.52304 0.0
H659 H 0.1385 0.32854 0.58329 0.0
O660 O 0.14095 0.23401 0.58969 0.0
H661 H 0.28006 0.33984 0.55216 0.0
H662 H 0.31596 0.18147 0.58812 0.0
H663 H 0.17941 0.13182 0.55783 0.0
H664 H 0.23061 0.25957 0.5545 0.0
H665 H 0.23716 0.23353 0.5862 0.0
O666 O 0.01559 0.33097 0.55436 0.0
H667 H 0.0007 0.17699 0.53786 0.0
H668 H 0.92175 0.30633 0.55299 0.0
H669 H 0.25772 0.0789 0.55934 0.0
H670 H 0.18718 0.40946 0.58133 0.0
H671 H 0.3267 0.10364 0.57458 0.0
H672 H 0.25843 0.4155 0.56565 0.0
O673 O 0.10095 0.16226 0.57172 0.0
H674 H 0.95542 0.33937 0.59773 0.0
H675 H 0.93416 0.19415 0.56783 0.0
H676 H 0.8775 0.20086 0.58664 0.0
H677 H 0.88798 0.27393 0.60175 0.0
H678 H 0.01156 0.33082 0.57887 0.0
H679 H 0.8493 0.29083 0.53826 0.0
H680 H 0.85252 0.21697 0.52319 0.0
O681 O 0.02732 0.17911 0.56121 0.0
C682 C 0.11523 0.22901 0.54186 0.0
C683 C 0.92698 0.19201 0.52959 0.0
C684 C 0.88234 0.2656 0.53812 0.0
N685 N 0.96524 0.24236 0.54634 0.0
C686 C 0.96745 0.20184 0.53803 0.0
C687 C 0.92353 0.27426 0.54641 0.0
C688 C 0.88416 0.22414 0.52967 0.0
C689 C 0.1698 0.33072 0.57654 0.0
N690 N 0.1819 0.28931 0.56908 0.0
C691 C 0.19708 0.3767 0.57543 0.0
C692 C 0.237 0.38009 0.56662 0.0
C693 C 0.24913 0.33766 0.55904 0.0
C694 C 0.22095 0.29234 0.56039 0.0
C695 C 0.28621 0.17031 0.58143 0.0
C696 C 0.20935 0.14297 0.56443 0.0
C697 C 0.24145 0.19956 0.58033 0.0
N698 N 0.20384 0.18585 0.57186 0.0
C699 C 0.25356 0.11278 0.56527 0.0
C700 C 0.29222 0.12666 0.57383 0.0
C701 C 0.05799 0.14839 0.56694 0.0
C702 C 0.95044 0.30739 0.59121 0.0
C703 C 0.93912 0.22584 0.5744 0.0
C704 C 0.9068 0.22958 0.58501 0.0
C705 C 0.91265 0.27062 0.59347 0.0
N706 N 0.97619 0.26196 0.57227 0.0
C707 C 0.98199 0.30245 0.58049 0.0
Co708 Co 0.78194 0.85074 0.44128 0.0
Co709 Co 0.75428 0.96251 0.45772 0.0
O710 O 0.73978 0.91139 0.44455 0.0
C711 C 0.77657 0.90275 0.41625 0.0
O712 O 0.78871 0.94525 0.42233 0.0
C713 C 0.64698 0.93045 0.46295 0.0
O714 O 0.66325 0.88275 0.46227 0.0
O715 O 0.76294 0.90785 0.47094 0.0
O716 O 0.79341 0.83988 0.45999 0.0
H717 H 0.8514 0.03806 0.49481 0.0
H718 H 0.67853 0.85864 0.42954 0.0
O719 O 0.77199 0.86077 0.42242 0.0
H720 H 0.67299 0.70321 0.45644 0.0
H721 H 0.82573 0.68637 0.41828 0.0
H722 H 0.87961 0.80923 0.45166 0.0
H723 H 0.75233 0.75453 0.45485 0.0
H724 H 0.77328 0.76301 0.42305 0.0
O725 O 0.67873 0.96734 0.46162 0.0
H726 H 0.83337 0.97411 0.47795 0.0
H727 H 0.70353 0.06007 0.46582 0.0
H728 H 0.93301 0.73293 0.44728 0.0
H729 H 0.5985 0.80826 0.43079 0.0
H730 H 0.90613 0.67084 0.43049 0.0
H731 H 0.59536 0.73002 0.44435 0.0
O732 O 0.84564 0.89283 0.44073 0.0
H733 H 0.66737 0.04971 0.4207 0.0
H734 H 0.81523 0.05464 0.45017 0.0
H735 H 0.80735 0.12059 0.43336 0.0
H736 H 0.73295 0.11838 0.41848 0.0
H737 H 0.67706 0.98425 0.43757 0.0
H738 H 0.71991 0.12475 0.48262 0.0
H739 H 0.79444 0.11405 0.49722 0.0
O740 O 0.82982 0.95918 0.45399 0.0
C741 C 0.78315 0.86311 0.47044 0.0
C742 C 0.8189 0.04324 0.48848 0.0
C743 C 0.74506 0.09185 0.48165 0.0
N744 N 0.76768 0.01356 0.47085 0.0
C745 C 0.80858 0.00723 0.47889 0.0
C746 C 0.7359 0.05504 0.47217 0.0
C747 C 0.78689 0.08583 0.48984 0.0
C748 C 0.67761 0.82434 0.43535 0.0
N749 N 0.72011 0.80937 0.44206 0.0
C750 C 0.63212 0.79609 0.43607 0.0
C751 C 0.63037 0.75224 0.44369 0.0
C752 C 0.6739 0.7372 0.45049 0.0
C753 C 0.71868 0.76645 0.44957 0.0
C754 C 0.83779 0.71307 0.42565 0.0
C755 C 0.86748 0.78221 0.4444 0.0
C756 C 0.8083 0.75658 0.42837 0.0
N757 N 0.82316 0.79031 0.4377 0.0
C758 C 0.89796 0.73916 0.44193 0.0
C759 C 0.88288 0.70437 0.4325 0.0
C760 C 0.86002 0.93237 0.44703 0.0
C761 C 0.69991 0.05115 0.42714 0.0
C762 C 0.7829 0.05331 0.4437 0.0
C763 C 0.77853 0.09085 0.43423 0.0
C764 C 0.73676 0.08962 0.42589 0.0
N765 N 0.74664 0.01567 0.44486 0.0
C766 C 0.70549 0.0143 0.43675 0.0
Co767 Co 0.13695 0.27171 0.6979 0.0
Co768 Co 0.02095 0.2485 0.71287 0.0
O769 O 0.07391 0.2326 0.70038 0.0
C770 C 0.0846 0.27253 0.6729 0.0
O771 O 0.04378 0.2863 0.6794 0.0
C772 C 0.05072 0.14095 0.71831 0.0
O773 O 0.09847 0.15707 0.71823 0.0
O774 O 0.07324 0.25606 0.7267 0.0
O775 O 0.14675 0.27933 0.71694 0.0
H776 H 0.94071 0.34831 0.74885 0.0
H777 H 0.1238 0.17083 0.68502 0.0
O778 O 0.12707 0.26541 0.67876 0.0
H779 H 0.27632 0.15142 0.71258 0.0
H780 H 0.30427 0.30978 0.6759 0.0
H781 H 0.18434 0.36395 0.70977 0.0
H782 H 0.22997 0.23405 0.71159 0.0
H783 H 0.22434 0.26143 0.67977 0.0
O784 O 0.01422 0.173 0.71672 0.0
H785 H 0.00724 0.32848 0.7328 0.0
H786 H 0.92141 0.19961 0.71991 0.0
H787 H 0.26398 0.4132 0.70632 0.0
H788 H 0.16915 0.08762 0.68566 0.0
H789 H 0.32461 0.38616 0.68927 0.0
H790 H 0.24591 0.0775 0.69955 0.0
O791 O 0.09905 0.33805 0.69785 0.0
H792 H 0.93903 0.16305 0.67483 0.0
H793 H 0.93148 0.31114 0.70427 0.0
H794 H 0.86868 0.3046 0.68666 0.0
H795 H 0.87224 0.2301 0.67179 0.0
H796 H 0.00138 0.17142 0.69249 0.0
H797 H 0.85416 0.21777 0.73589 0.0
H798 H 0.8635 0.29274 0.75046 0.0
O799 O 0.0265 0.32396 0.70904 0.0
C800 C 0.11989 0.27125 0.72698 0.0
C801 C 0.93613 0.31564 0.74253 0.0
C802 C 0.88759 0.24232 0.73527 0.0
N803 N 0.96798 0.26321 0.72537 0.0
C804 C 0.97359 0.30432 0.7334 0.0
C805 C 0.92584 0.23216 0.72626 0.0
C806 C 0.89284 0.28441 0.74344 0.0
C807 C 0.15749 0.16688 0.69098 0.0
N808 N 0.17443 0.20732 0.69819 0.0
C809 C 0.18288 0.1196 0.69135 0.0
C810 C 0.2259 0.11393 0.69916 0.0
C811 C 0.24296 0.15538 0.70648 0.0
C812 C 0.21653 0.20204 0.70589 0.0
C813 C 0.27821 0.32191 0.68337 0.0
C814 C 0.21067 0.3518 0.7024 0.0
C815 C 0.23285 0.29476 0.68558 0.0
N816 N 0.1999 0.30971 0.69505 0.0
C817 C 0.25564 0.37991 0.70046 0.0
C818 C 0.2896 0.36474 0.69088 0.0
C819 C 0.0575 0.35342 0.70305 0.0
C820 C 0.93702 0.19563 0.68126 0.0
C821 C 0.93337 0.27874 0.69781 0.0
C822 C 0.89762 0.27514 0.68788 0.0
C823 C 0.8996 0.23331 0.67955 0.0
N824 N 0.97003 0.24171 0.69941 0.0
C825 C 0.97208 0.20047 0.69131 0.0
Co826 Co 0.72839 0.61494 0.94672 0.0
Co827 Co 0.73842 0.50297 0.96435 0.0
O828 O 0.7625 0.55063 0.95128 0.0
C829 C 0.73367 0.55697 0.92255 0.0
O830 O 0.71812 0.51682 0.92906 0.0
C831 C 0.84603 0.52594 0.9714 0.0
O832 O 0.8354 0.57487 0.96983 0.0
O833 O 0.7294 0.56021 0.9769 0.0
O834 O 0.71412 0.63079 0.96508 0.0
H835 H 0.62087 0.44256 0.99926 0.0
H836 H 0.83255 0.5929 0.93673 0.0
O837 O 0.74083 0.59988 0.92818 0.0
H838 H 0.85029 0.75192 0.9621 0.0
H839 H 0.70894 0.77804 0.92133 0.0
H840 H 0.634 0.66929 0.95506 0.0
H841 H 0.76593 0.70985 0.95974 0.0
H842 H 0.75119 0.6972 0.92777 0.0
O843 O 0.81083 0.49241 0.97017 0.0
H844 H 0.65077 0.5014 0.98235 0.0
H845 H 0.77714 0.40308 0.97455 0.0
H846 H 0.59068 0.75001 0.94901 0.0
H847 H 0.91759 0.6338 0.93879 0.0
H848 H 0.62819 0.80501 0.93203 0.0
H849 H 0.92686 0.71382 0.95158 0.0
O850 O 0.66065 0.5803 0.94547 0.0
H851 H 0.83154 0.40373 0.93022 0.0
H852 H 0.67436 0.41353 0.95631 0.0
H853 H 0.68328 0.34439 0.9403 0.0
H854 H 0.7624 0.33917 0.92712 0.0
H855 H 0.82067 0.47258 0.94623 0.0
H856 H 0.74884 0.34341 0.99144 0.0
H857 H 0.67019 0.36307 1.0039 0.0
O858 O 0.66588 0.51159 0.95849 0.0
C859 C 0.71673 0.60747 0.97579 0.0
C860 C 0.65515 0.43356 0.99386 0.0
C861 C 0.72704 0.37795 0.98949 0.0
N862 N 0.71542 0.4555 0.97742 0.0
C863 C 0.67217 0.46664 0.98426 0.0
C864 C 0.74294 0.41194 0.97996 0.0
C865 C 0.68285 0.38895 0.99647 0.0
C866 C 0.83621 0.62801 0.9422 0.0
N867 N 0.79432 0.64912 0.94805 0.0
C868 C 0.88448 0.65087 0.94338 0.0
C869 C 0.88967 0.69572 0.95058 0.0
C870 C 0.84673 0.71709 0.95649 0.0
C871 C 0.79909 0.69307 0.95513 0.0
C872 C 0.6923 0.75448 0.92877 0.0
C873 C 0.65074 0.69321 0.94774 0.0
C874 C 0.716 0.70864 0.93244 0.0
N875 N 0.69532 0.67883 0.94187 0.0
C876 C 0.62596 0.73879 0.94432 0.0
C877 C 0.64699 0.7696 0.93478 0.0
C878 C 0.6411 0.54132 0.951 0.0
C879 C 0.79689 0.40559 0.9359 0.0
C880 C 0.70864 0.41175 0.95054 0.0
C881 C 0.71363 0.37237 0.94153 0.0
C882 C 0.75805 0.36942 0.93416 0.0
N883 N 0.74678 0.44722 0.95216 0.0
C884 C 0.79058 0.44439 0.94502 0.0
Co885 Co 0.35236 0.22928 0.19406 0.0
Co886 Co 0.46999 0.24248 0.2091 0.0
O887 O 0.41716 0.2652 0.1971 0.0
C888 C 0.39977 0.23469 0.16847 0.0
O889 O 0.44215 0.21872 0.17398 0.0
C890 C 0.44885 0.3497 0.21707 0.0
O891 O 0.39967 0.3387 0.21679 0.0
O892 O 0.41812 0.23353 0.22298 0.0
O893 O 0.34425 0.21509 0.21276 0.0
H894 H 0.54586 0.12696 0.24266 0.0
H895 H 0.36767 0.33392 0.18356 0.0
O896 O 0.3595 0.24192 0.17516 0.0
H897 H 0.21906 0.34815 0.21251 0.0
H898 H 0.18065 0.20511 0.17274 0.0
H899 H 0.30415 0.13373 0.20378 0.0
H900 H 0.26221 0.26474 0.20923 0.0
H901 H 0.26246 0.24955 0.17714 0.0
O902 O 0.48187 0.31522 0.21448 0.0
H903 H 0.47985 0.15584 0.22733 0.0
H904 H 0.57303 0.28264 0.21668 0.0
H905 H 0.22267 0.08823 0.19975 0.0
H906 H 0.32549 0.41805 0.18649 0.0
H907 H 0.16025 0.12394 0.18413 0.0
H908 H 0.25071 0.42554 0.20109 0.0
O909 O 0.38797 0.16205 0.19208 0.0
H910 H 0.55361 0.33498 0.17248 0.0
H911 H 0.5563 0.17866 0.19906 0.0
H912 H 0.61827 0.18747 0.18139 0.0
H913 H 0.61716 0.26614 0.16795 0.0
H914 H 0.49199 0.32424 0.19016 0.0
H915 H 0.63986 0.25539 0.23198 0.0
H916 H 0.62658 0.17688 0.24506 0.0
O917 O 0.45999 0.16956 0.20383 0.0
C918 C 0.37117 0.21928 0.22294 0.0
C919 C 0.55217 0.16115 0.23699 0.0
C920 C 0.60488 0.23327 0.23101 0.0
N921 N 0.52272 0.22066 0.22105 0.0
C922 C 0.51499 0.17761 0.22827 0.0
C923 C 0.56684 0.2486 0.22239 0.0
C924 C 0.59742 0.1892 0.23834 0.0
C925 C 0.33483 0.33681 0.18982 0.0
N926 N 0.31722 0.29446 0.19616 0.0
C927 C 0.31124 0.38457 0.19149 0.0
C928 C 0.26933 0.38876 0.1997 0.0
C929 C 0.25157 0.34536 0.20611 0.0
C930 C 0.2762 0.29826 0.20424 0.0
C931 C 0.20748 0.18923 0.17959 0.0
C932 C 0.27703 0.14968 0.19704 0.0
C933 C 0.25389 0.21417 0.18211 0.0
N934 N 0.28783 0.19446 0.19079 0.0
C935 C 0.23102 0.12367 0.19477 0.0
C936 C 0.19605 0.14369 0.18599 0.0
C937 C 0.42866 0.14348 0.19705 0.0
C938 C 0.55448 0.30052 0.17827 0.0
C939 C 0.55534 0.21275 0.1932 0.0
C940 C 0.59068 0.21768 0.18324 0.0
C941 C 0.59008 0.26185 0.17572 0.0
N942 N 0.5204 0.25073 0.19561 0.0
C943 C 0.51979 0.29429 0.18832 0.0
H944 H 0.91374 0.06107 0.29312 0.0
H945 H 0.94434 0.89812 0.29529 0.0
H946 H 0.03649 0.91546 0.29636 0.0
H947 H 0.10771 0.97695 0.29785 0.0
H948 H 0.07661 0.13991 0.29614 0.0
H949 H 0.98504 0.12228 0.29369 0.0
C950 C 0.94048 0.02919 0.29372 0.0
C951 C 0.92202 0.9783 0.29415 0.0
C952 C 0.99326 0.03945 0.29449 0.0
C953 C 0.95739 0.93762 0.29491 0.0
C954 C 0.0101 0.94753 0.29558 0.0
C955 C 0.08101 0.0087 0.29686 0.0
C956 C 0.0991 0.05975 0.29723 0.0
C957 C 0.02838 0.99831 0.29555 0.0
C958 C 0.06385 0.10029 0.2959 0.0
C959 C 0.01144 0.09024 0.29452 0.0
H960 H 0.03603 0.60584 0.54875 0.0
H961 H 0.87413 0.57058 0.54945 0.0
H962 H 0.8937 0.47882 0.55007 0.0
H963 H 0.95668 0.40835 0.55109 0.0
H964 H 0.11856 0.44361 0.55037 0.0
H965 H 0.09896 0.53526 0.54907 0.0
C966 C 0.00494 0.57813 0.54895 0.0
C967 C 0.95361 0.59538 0.54904 0.0
C968 C 0.01645 0.52522 0.54936 0.0
C969 C 0.91397 0.55868 0.54932 0.0
C970 C 0.92513 0.50605 0.54972 0.0
C971 C 0.98774 0.43601 0.5506 0.0
C972 C 0.03909 0.41884 0.55085 0.0
C973 C 0.97621 0.48886 0.54985 0.0
C974 C 0.0787 0.45547 0.55017 0.0
C975 C 0.06753 0.50803 0.54945 0.0
H976 H 0.56753 0.60027 0.79751 0.0
H977 H 0.62318 0.44442 0.79419 0.0
H978 H 0.53544 0.41249 0.7933 0.0
H979 H 0.44281 0.42795 0.79483 0.0
H980 H 0.38697 0.58365 0.79835 0.0
H981 H 0.47458 0.61615 0.79771 0.0
C982 C 0.56048 0.5594 0.79642 0.0
C983 C 0.60197 0.5249 0.79599 0.0
C984 C 0.50976 0.54104 0.79603 0.0
C985 C 0.59204 0.47197 0.79462 0.0
C986 C 0.5418 0.45354 0.79412 0.0
C987 C 0.44974 0.46901 0.79533 0.0
C988 C 0.40829 0.50314 0.7967 0.0
C989 C 0.50035 0.48761 0.79504 0.0
C990 C 0.41808 0.55633 0.79733 0.0
C991 C 0.46826 0.57507 0.79698 0.0
H992 H 0.55937 0.09213 0.04508 0.0
H993 H 0.39644 0.06213 0.04325 0.0
H994 H 0.41329 0.96971 0.04303 0.0
H995 H 0.47367 0.89804 0.04483 0.0
H996 H 0.63645 0.92791 0.04739 0.0
H997 H 0.62008 0.02024 0.04575 0.0
C998 C 0.52744 0.06549 0.04452 0.0
C999 C 0.47662 0.08411 0.04425 0.0
C1000 C 0.53737 0.01251 0.04458 0.0
C1001 C 0.43587 0.04892 0.04348 0.0
C1002 C 0.44548 0.99607 0.04339 0.0
C1003 C 0.50574 0.92461 0.04493 0.0
C1004 C 0.55627 0.90603 0.04631 0.0
C1005 C 0.49601 0.97751 0.04417 0.0
C1006 C 0.59723 0.94111 0.04634 0.0
C1007 C 0.58787 0.99391 0.04545 0.0
H1008 H 0.06015 0.41275 0.97295 0.0
H1009 H 0.11313 0.56749 0.96601 0.0
H1010 H 0.02555 0.59951 0.96751 0.0
H1011 H 0.93319 0.58331 0.96956 0.0
H1012 H 0.87982 0.42857 0.97624 0.0
H1013 H 0.96802 0.39725 0.9762 0.0
C1014 C 0.05262 0.45352 0.97188 0.0
C1015 C 0.09329 0.48747 0.96931 0.0
C1016 C 0.00193 0.47187 0.9727 0.0
C1017 C 0.08268 0.54028 0.96795 0.0
C1018 C 0.0325 0.55876 0.96881 0.0
C1019 C 0.94085 0.54286 0.97119 0.0
C1020 C 0.89984 0.50843 0.97286 0.0
C1021 C 0.99173 0.52486 0.97101 0.0
C1022 C 0.91058 0.45602 0.97489 0.0
C1023 C 0.96108 0.43796 0.97484 0.0
H1024 H 0.39055 0.43566 0.22074 0.0
H1025 H 0.54773 0.3836 0.2185 0.0
H1026 H 0.57805 0.4717 0.2206 0.0
H1027 H 0.56022 0.56409 0.22174 0.0
H1028 H 0.40317 0.6166 0.22368 0.0
H1029 H 0.37286 0.52798 0.22317 0.0
C1030 C 0.43143 0.44352 0.22084 0.0
C1031 C 0.46666 0.40298 0.21939 0.0
C1032 C 0.44881 0.49449 0.22198 0.0
C1033 C 0.51958 0.41397 0.21954 0.0
C1034 C 0.53709 0.46443 0.22074 0.0
C1035 C 0.51939 0.55618 0.22223 0.0
C1036 C 0.48412 0.59703 0.2227 0.0
C1037 C 0.50207 0.50508 0.22178 0.0
C1038 C 0.43128 0.58596 0.22328 0.0
C1039 C 0.41381 0.53523 0.22295 0.0
H1040 H 0.40468 0.94204 0.46705 0.0
H1041 H 0.43829 0.10443 0.46879 0.0
H1042 H 0.53004 0.08601 0.46776 0.0
H1043 H 0.60092 0.02416 0.46568 0.0
H1044 H 0.56751 0.86178 0.46381 0.0
H1045 H 0.47582 0.87997 0.4656 0.0
C1046 C 0.43204 0.97345 0.46729 0.0
C1047 C 0.41433 0.0246 0.46801 0.0
C1048 C 0.48496 0.96263 0.46663 0.0
C1049 C 0.45056 0.06469 0.46828 0.0
C1050 C 0.50318 0.05421 0.46766 0.0
C1051 C 0.57367 0.99265 0.46572 0.0
C1052 C 0.59134 0.94162 0.46459 0.0
C1053 C 0.52083 0.00337 0.46672 0.0
C1054 C 0.55524 0.90141 0.46468 0.0
C1055 C 0.50267 0.91179 0.46569 0.0
H1056 H 0.95686 0.09421 0.71868 0.0
H1057 H 0.11934 0.06174 0.72003 0.0
H1058 H 0.10146 0.96969 0.72048 0.0
H1059 H 0.04001 0.89813 0.71969 0.0
H1060 H 0.87755 0.93043 0.71808 0.0
H1061 H 0.89525 0.02257 0.7186 0.0
C1062 C 0.98841 0.06706 0.71916 0.0
C1063 C 0.03941 0.0851 0.71932 0.0
C1064 C 0.9779 0.01398 0.71934 0.0
C1065 C 0.07971 0.04916 0.71992 0.0
C1066 C 0.06954 0.99639 0.72015 0.0
C1067 C 0.00839 0.92526 0.71954 0.0
C1068 C 0.95748 0.90715 0.71885 0.0
C1069 C 0.01882 0.97833 0.71976 0.0
C1070 C 0.9171 0.94307 0.71865 0.0
C1071 C 0.92718 0.99588 0.71891 0.0
H1072 H 0.57099 0.94525 0.32275 0.0
H1073 H 0.62084 0.08082 0.30242 0.0
H1074 H 0.53591 0.11844 0.30463 0.0
H1075 H 0.44596 0.11124 0.31126 0.0
H1076 H 0.39348 0.97333 0.32979 0.0
H1077 H 0.48091 0.93827 0.32948 0.0
C1078 C 0.56344 0.98317 0.31888 0.0
C1079 C 0.6026 0.01021 0.31252 0.0
C1080 C 0.51397 0.00422 0.31989 0.0
C1081 C 0.59176 0.05911 0.30744 0.0
C1082 C 0.54308 0.08077 0.30868 0.0
C1083 C 0.45413 0.07406 0.31547 0.0
C1084 C 0.41415 0.0451 0.32074 0.0
C1085 C 0.50383 0.05356 0.3148 0.0
C1086 C 0.42426 0.99625 0.32581 0.0
C1087 C 0.47402 0.97622 0.32557 0.0
H1088 H 0.03485 0.90655 0.56539 0.0
H1089 H 0.87474 0.94696 0.56825 0.0
H1090 H 0.89711 0.03802 0.56886 0.0
H1091 H 0.96218 0.10649 0.56801 0.0
H1092 H 0.12264 0.06585 0.56718 0.0
H1093 H 0.10025 0.97478 0.56643 0.0
C1094 C 0.00488 0.93523 0.56617 0.0
C1095 C 0.95315 0.91982 0.56661 0.0
C1096 C 0.01813 0.98761 0.56689 0.0
C1097 C 0.91484 0.95761 0.56785 0.0
C1098 C 0.9276 0.00979 0.56818 0.0
C1099 C 0.99224 0.07774 0.56772 0.0
C1100 C 0.044 0.09314 0.56752 0.0
C1101 C 0.9791 0.02528 0.56762 0.0
C1102 C 0.08249 0.05522 0.56733 0.0
C1103 C 0.06971 0.00304 0.56686 0.0
H1104 H 0.10207 0.54429 0.82218 0.0
H1105 H 0.06994 0.38583 0.81311 0.0
H1106 H 0.97768 0.4035 0.81372 0.0
H1107 H 0.90728 0.46535 0.81532 0.0
H1108 H 0.93882 0.62307 0.82547 0.0
H1109 H 0.03075 0.60437 0.82599 0.0
C1110 C 0.07478 0.51372 0.82037 0.0
C1111 C 0.09242 0.46412 0.81739 0.0
C1112 C 0.02205 0.52407 0.8209 0.0
C1113 C 0.05698 0.42433 0.81539 0.0
C1114 C 0.00438 0.43447 0.81569 0.0
C1115 C 0.93407 0.49556 0.81777 0.0
C1116 C 0.9162 0.54566 0.82019 0.0
C1117 C 0.9866 0.4844 0.81821 0.0
C1118 C 0.95155 0.58422 0.82352 0.0
C1119 C 0.00411 0.57361 0.82378 0.0
H1120 H 0.59734 0.55678 0.07091 0.0
H1121 H 0.44311 0.6166 0.06983 0.0
H1122 H 0.40859 0.5294 0.06923 0.0
H1123 H 0.42269 0.43634 0.06732 0.0
H1124 H 0.5775 0.37761 0.06639 0.0
H1125 H 0.61144 0.46396 0.06943 0.0
C1126 C 0.55622 0.55068 0.07074 0.0
C1127 C 0.52282 0.59294 0.07038 0.0
C1128 C 0.53679 0.50057 0.06988 0.0
C1129 C 0.46956 0.58458 0.07002 0.0
C1130 C 0.44982 0.53475 0.06966 0.0
C1131 C 0.46382 0.44247 0.0679 0.0
C1132 C 0.49754 0.40068 0.06657 0.0
C1133 C 0.48313 0.49248 0.0693 0.0
C1134 C 0.55075 0.40916 0.06723 0.0
C1135 C 0.57021 0.45854 0.06903 0.0
H1136 H 0.4008 0.5324 0.94671 0.0
H1137 H 0.43144 0.36956 0.94811 0.0
H1138 H 0.5237 0.38653 0.94845 0.0
H1139 H 0.59503 0.44808 0.94983 0.0
H1140 H 0.56427 0.61065 0.94731 0.0
H1141 H 0.47227 0.59342 0.94584 0.0
C1142 C 0.42762 0.50063 0.94699 0.0
C1143 C 0.40934 0.44988 0.94758 0.0
C1144 C 0.48042 0.51066 0.94705 0.0
C1145 C 0.44457 0.40899 0.94769 0.0
C1146 C 0.49729 0.41868 0.94794 0.0
C1147 C 0.5682 0.47965 0.94892 0.0
C1148 C 0.58623 0.53054 0.9489 0.0
C1149 C 0.51555 0.4694 0.94788 0.0
C1150 C 0.55122 0.57115 0.94741 0.0
C1151 C 0.49866 0.56133 0.9466 0.0
H1152 H 0.43555 0.90191 0.19703 0.0
H1153 H 0.59721 0.93211 0.20173 0.0
H1154 H 0.58147 0.02442 0.19982 0.0
H1155 H 0.52105 0.09609 0.19831 0.0
H1156 H 0.3597 0.06627 0.19262 0.0
H1157 H 0.37603 0.97379 0.19328 0.0
C1158 C 0.46723 0.92876 0.19761 0.0
C1159 C 0.51728 0.91056 0.19973 0.0
C1160 C 0.45796 0.98156 0.19631 0.0
C1161 C 0.55834 0.94543 0.20014 0.0
C1162 C 0.54934 0.99811 0.19909 0.0
C1163 C 0.4895 0.06946 0.19709 0.0
C1164 C 0.43918 0.08805 0.1956 0.0
C1165 C 0.49921 0.01657 0.19738 0.0
C1166 C 0.39879 0.05296 0.19382 0.0
C1167 C 0.40806 1.0001 0.19426 0.0
H1168 H 0.90325 0.02473 0.45305 0.0
H1169 H 0.94141 0.87102 0.44069 0.0
H1170 H 0.03265 0.89132 0.44211 0.0
H1171 H 0.10207 0.95245 0.44729 0.0
H1172 H 0.06368 0.10785 0.45793 0.0
H1173 H 0.97221 0.08732 0.45675 0.0
C1174 C 0.93143 0.99573 0.45059 0.0
C1175 C 0.91527 0.9463 0.44685 0.0
C1176 C 0.98393 0.00794 0.45118 0.0
C1177 C 0.95255 0.90939 0.44359 0.0
C1178 C 0.00486 0.92089 0.44445 0.0
C1179 C 0.07357 0.98161 0.44939 0.0
C1180 C 0.0894 0.03137 0.45284 0.0
C1181 C 0.02102 0.9699 0.44833 0.0
C1182 C 0.05227 0.06927 0.45527 0.0
C1183 C 1.00001 0.05753 0.45461 0.0
H1184 H 0.96405 0.39776 0.69958 0.0
H1185 H 0.12427 0.43328 0.7049 0.0
H1186 H 0.10482 0.52513 0.70479 0.0
H1187 H 0.04186 0.5954 0.70366 0.0
H1188 H 0.88262 0.56009 0.69649 0.0
H1189 H 0.90198 0.46834 0.6968 0.0
C1190 C 0.99459 0.42567 0.70072 0.0
C1191 C 0.0454 0.40882 0.70238 0.0
C1192 C 0.98329 0.47849 0.70031 0.0
C1193 C 0.08484 0.44534 0.7036 0.0
C1194 C 0.07373 0.49787 0.70358 0.0
C1195 C 0.01145 0.56766 0.70213 0.0
C1196 C 0.96081 0.58467 0.70018 0.0
C1197 C 0.02305 0.5149 0.70201 0.0
C1198 C 0.92193 0.54815 0.69802 0.0
C1199 C 0.93293 0.49558 0.69824 0.0
H1200 H 0.25795 0.02424 0.36492 0.0
H1201 H 0.26483 0.18984 0.36297 0.0
H1202 H 0.25028 0.19557 0.38599 0.0
H1203 H 0.23638 0.15361 0.4068 0.0
H1204 H 0.22783 0.98803 0.40859 0.0
H1205 H 0.24225 0.98243 0.38559 0.0
C1206 C 0.25631 0.0616 0.36953 0.0
C1207 C 0.26269 0.10648 0.36221 0.0
C1208 C 0.24763 0.06471 0.38278 0.0
C1209 C 0.26002 0.1546 0.36834 0.0
C1210 C 0.25178 0.15796 0.38153 0.0
C1211 C 0.23766 0.11631 0.40215 0.0
C1212 C 0.23103 0.07136 0.40944 0.0
C1213 C 0.24567 0.11328 0.38886 0.0
C1214 C 0.23259 0.02333 0.40324 0.0
C1215 C 0.24095 0.02003 0.39007 0.0
H1216 H 0.98291 0.76608 0.61263 0.0
H1217 H 0.81749 0.77106 0.61 0.0
H1218 H 0.81057 0.7554 0.63287 0.0
H1219 H 0.85088 0.74001 0.65359 0.0
H1220 H 0.01604 0.73311 0.65651 0.0
H1221 H 0.02355 0.74975 0.63356 0.0
C1222 C 0.94539 0.76392 0.61708 0.0
C1223 C 0.90084 0.76986 0.6096 0.0
C1224 C 0.94155 0.75445 0.63028 0.0
C1225 C 0.85246 0.76653 0.6155 0.0
C1226 C 0.84839 0.75762 0.6286 0.0
C1227 C 0.88858 0.7422 0.64923 0.0
C1228 C 0.9328 0.73534 0.65675 0.0
C1229 C 0.89262 0.75147 0.63607 0.0
C1230 C 0.98133 0.73806 0.65092 0.0
C1231 C 0.98568 0.74768 0.63781 0.0
H1232 H 0.23926 0.35091 0.86181 0.0
H1233 H 0.24269 0.51652 0.85939 0.0
H1234 H 0.25284 0.52264 0.88252 0.0
H1235 H 0.26043 0.48153 0.90349 0.0
H1236 H 0.25395 0.31621 0.90634 0.0
H1237 H 0.24499 0.30951 0.88308 0.0
C1238 C 0.24243 0.38828 0.86635 0.0
C1239 C 0.24032 0.43316 0.85885 0.0
C1240 C 0.24749 0.39166 0.87977 0.0
C1241 C 0.244 0.48133 0.86491 0.0
C1242 C 0.24987 0.48492 0.87816 0.0
C1243 C 0.25712 0.44397 0.89904 0.0
C1244 C 0.2581 0.39945 0.90667 0.0
C1245 C 0.25155 0.44041 0.88569 0.0
C1246 C 0.25323 0.35115 0.90071 0.0
C1247 C 0.24825 0.34727 0.8874 0.0
H1248 H 0.50124 0.74239 0.11464 0.0
H1249 H 0.66685 0.73724 0.11339 0.0
H1250 H 0.67072 0.74579 0.13658 0.0
H1251 H 0.62741 0.75436 0.1573 0.0
H1252 H 0.46198 0.76164 0.15862 0.0
H1253 H 0.45786 0.75241 0.13539 0.0
C1254 C 0.53818 0.74319 0.11944 0.0
C1255 C 0.58361 0.73906 0.11225 0.0
C1256 C 0.54025 0.74833 0.13282 0.0
C1257 C 0.63118 0.74043 0.11865 0.0
C1258 C 0.63351 0.74519 0.13194 0.0
C1259 C 0.59044 0.7537 0.15251 0.0
C1260 C 0.54511 0.75855 0.1597 0.0
C1261 C 0.58832 0.749 0.13913 0.0
C1262 C 0.49752 0.7581 0.15332 0.0
C1263 C 0.49509 0.7528 0.14003 0.0
H1264 H 0.76289 0.50583 0.8639 0.0
H1265 H 0.75416 0.67138 0.86159 0.0
H1266 H 0.74424 0.67691 0.8847 0.0
H1267 H 0.73855 0.6353 0.90558 0.0
H1268 H 0.74431 0.46985 0.90814 0.0
H1269 H 0.75507 0.46381 0.88493 0.0
C1270 C 0.75878 0.54309 0.86846 0.0
C1271 C 0.75942 0.58808 0.86101 0.0
C1272 C 0.75273 0.54609 0.8818 0.0
C1273 C 0.75368 0.63607 0.86706 0.0
C1274 C 0.74816 0.63935 0.8803 0.0
C1275 C 0.7424 0.5979 0.90108 0.0
C1276 C 0.74091 0.55312 0.90857 0.0
C1277 C 0.74781 0.59469 0.88776 0.0
C1278 C 0.7453 0.50492 0.90257 0.0
C1279 C 0.75147 0.50144 0.88931 0.0
H1280 H 0.48022 0.23356 0.15189 0.0
H1281 H 0.31587 0.25382 0.15341 0.0
H1282 H 0.31311 0.26457 0.13021 0.0
H1283 H 0.35734 0.26779 0.10939 0.0
H1284 H 0.52194 0.24924 0.10808 0.0
H1285 H 0.52443 0.23808 0.13123 0.0
C1286 C 0.44375 0.24031 0.14717 0.0
C1287 C 0.39833 0.2427 0.15442 0.0
C1288 C 0.44241 0.24666 0.13382 0.0
C1289 C 0.35148 0.25185 0.1481 0.0
C1290 C 0.34982 0.25789 0.13481 0.0
C1291 C 0.39372 0.26115 0.11417 0.0
C1292 C 0.43935 0.25931 0.10698 0.0
C1293 C 0.39502 0.25523 0.12755 0.0
C1294 C 0.48622 0.25102 0.11336 0.0
C1295 C 0.48772 0.24458 0.12661 0.0
H1296 H 0.74131 0.86718 0.35711 0.0
H1297 H 0.75201 0.03279 0.35697 0.0
H1298 H 0.76524 0.03287 0.38011 0.0
H1299 H 0.7735 0.98595 0.40043 0.0
H1300 H 0.76145 0.82038 0.40048 0.0
H1301 H 0.74893 0.82044 0.37737 0.0
C1302 C 0.74667 0.90333 0.36212 0.0
C1303 C 0.74569 0.94989 0.35529 0.0
C1304 C 0.75394 0.90316 0.37544 0.0
C1305 C 0.75244 0.99636 0.36198 0.0
C1306 C 0.76006 0.99647 0.37522 0.0
C1307 C 0.76823 0.94986 0.39539 0.0
C1308 C 0.76857 0.90325 0.40221 0.0
C1309 C 0.76082 0.9501 0.38206 0.0
C1310 C 0.76135 0.85687 0.39551 0.0
C1311 C 0.75424 0.85681 0.38226 0.0
H1312 H 0.16194 0.26086 0.65536 0.0
H1313 H 0.99688 0.26517 0.65886 0.0
H1314 H 0.98785 0.25164 0.63591 0.0
H1315 H 0.02626 0.23901 0.61474 0.0
H1316 H 0.19115 0.23692 0.61089 0.0
H1317 H 0.20062 0.24919 0.63397 0.0
C1318 C 0.12403 0.25874 0.6511 0.0
C1319 C 0.08022 0.2641 0.65887 0.0
C1320 C 0.11896 0.25139 0.63778 0.0
C1321 C 0.03135 0.26147 0.65315 0.0
C1322 C 0.02606 0.25362 0.63999 0.0
C1323 C 0.06432 0.24106 0.61894 0.0
C1324 C 0.10789 0.23682 0.61106 0.0
C1325 C 0.06953 0.2486 0.63221 0.0
C1326 C 0.15688 0.24008 0.61669 0.0
C1327 C 0.16236 0.24705 0.62991 0.0
H1328 H 0.25588 0.11647 0.26959 0.0
H1329 H 0.37156 0.20032 0.29057 0.0
H1330 H 0.40505 0.23568 0.2707 0.0
H1331 H 0.40383 0.24053 0.24723 0.0
H1332 H 0.28502 0.16088 0.22629 0.0
H1333 H 0.2505 0.1268 0.24618 0.0
C1334 C 0.28829 0.14262 0.2698 0.0
C1335 C 0.3113 0.15535 0.28157 0.0
C1336 C 0.30695 0.16372 0.25831 0.0
C1337 C 0.35293 0.18984 0.28168 0.0
C1338 C 0.37229 0.21006 0.2703 0.0
C1339 C 0.37017 0.21602 0.24701 0.0
C1340 C 0.34749 0.20306 0.23522 0.0
C1341 C 0.34991 0.19696 0.25854 0.0
C1342 C 0.3035 0.1716 0.23518 0.0
C1343 C 0.28371 0.15184 0.24658 0.0
H1344 H 0.75404 0.88737 0.49476 0.0
H1345 H 0.85088 0.78359 0.4734 0.0
H1346 H 0.887 0.75026 0.49322 0.0
H1347 H 0.89489 0.75391 0.51673 0.0
H1348 H 0.79403 0.85444 0.53793 0.0
H1349 H 0.75607 0.88521 0.51817 0.0
C1350 C 0.78268 0.85712 0.49443 0.0
C1351 C 0.79997 0.83859 0.48256 0.0
C1352 C 0.80305 0.83759 0.50589 0.0
C1353 C 0.83679 0.79889 0.48236 0.0
C1354 C 0.85774 0.77982 0.49372 0.0
C1355 C 0.86442 0.78231 0.51702 0.0
C1356 C 0.84795 0.8021 0.52885 0.0
C1357 C 0.84181 0.79947 0.50555 0.0
C1358 C 0.80786 0.83848 0.52902 0.0
C1359 C 0.78599 0.85631 0.51769 0.0
H1360 H 0.19352 0.3424 0.73248 0.0
H1361 H 0.09552 0.22938 0.75013 0.0
H1362 H 0.12513 0.25647 0.7713 0.0
H1363 H 0.17392 0.31653 0.78486 0.0
H1364 H 0.26593 0.43454 0.7672 0.0
H1365 H 0.24386 0.40115 0.74603 0.0
C1366 C 0.17924 0.32312 0.74094 0.0
C1367 C 0.14246 0.28373 0.73968 0.0
C1368 C 0.19508 0.34014 0.75312 0.0
C1369 C 0.12381 0.25979 0.7508 0.0
C1370 C 0.14066 0.27534 0.76292 0.0
C1371 C 0.1897 0.33458 0.7764 0.0
C1372 C 0.22162 0.37803 0.77766 0.0
C1373 C 0.17555 0.31613 0.76421 0.0
C1374 C 0.24116 0.4012 0.76654 0.0
C1375 C 0.22854 0.38212 0.75441 0.0
H1376 H 0.73621 0.58363 1.00072 0.0
H1377 H 0.65908 0.69523 0.97698 0.0
H1378 H 0.62306 0.73642 0.99589 0.0
H1379 H 0.60963 0.73824 0.01925 0.0
H1380 H 0.69149 0.62972 0.04291 0.0
H1381 H 0.72922 0.59034 0.02405 0.0
C1382 C 0.71188 0.61722 0.99968 0.0
C1383 C 0.70004 0.63579 0.9874 0.0
C1384 C 0.69172 0.6413 0.01062 0.0
C1385 C 0.66887 0.67982 0.98627 0.0
C1386 C 0.64799 0.70342 0.99711 0.0
C1387 C 0.63592 0.70616 0.02027 0.0
C1388 C 0.64715 0.68677 0.03251 0.0
C1389 C 0.6585 0.68404 0.00933 0.0
C1390 C 0.6819 0.64555 0.03364 0.0
C1391 C 0.70356 0.62279 0.02284 0.0
H1392 H 0.33189 0.34695 0.03349 0.0
H1393 H 0.4319 0.23638 0.0154 0.0
H1394 H 0.3967 0.25898 0.99448 0.0
H1395 H 0.34042 0.31259 0.98122 0.0
H1396 H 0.2454 0.42815 0.99901 0.0
H1397 H 0.27538 0.40086 0.02013 0.0
C1398 C 0.34572 0.3275 0.02498 0.0
C1399 C 0.38451 0.28991 0.02605 0.0
C1400 C 0.3262 0.34163 0.01291 0.0
C1401 C 0.4023 0.26556 0.01488 0.0
C1402 C 0.3821 0.27841 1.0029 0.0
C1403 C 0.32576 0.3315 0.9897 0.0
C1404 C 0.29043 0.37225 0.98849 0.0
C1405 C 0.34442 0.31671 1.00179 0.0
C1406 C 0.27254 0.39668 0.99963 0.0
C1407 C 0.28975 0.38114 0.01172 0.0
H1408 H 0.64827 0.83865 0.28381 0.0
H1409 H 0.76214 0.925 0.26296 0.0
H1410 H 0.73156 0.88754 0.24288 0.0
H1411 H 0.6694 0.83429 0.23116 0.0
H1412 H 0.55128 0.75351 0.25191 0.0
H1413 H 0.58704 0.78441 0.27213 0.0
C1414 C 0.66683 0.84899 0.27491 0.0
C1415 C 0.70755 0.88467 0.27494 0.0
C1416 C 0.64818 0.82835 0.26336 0.0
C1417 C 0.73066 0.89782 0.26324 0.0
C1418 C 0.7132 0.87639 0.25175 0.0
C1419 C 0.65175 0.8229 0.2401 0.0
C1420 C 0.60766 0.7915 0.23998 0.0
C1421 C 0.67154 0.84216 0.25168 0.0
C1422 C 0.58514 0.77766 0.25169 0.0
C1423 C 0.60552 0.7954 0.26327 0.0
H1424 H 0.16148 0.183 0.48351 0.0
H1425 H 0.27032 0.07856 0.50064 0.0
H1426 H 0.24776 0.11061 0.52188 0.0
H1427 H 0.1938 0.16446 0.53565 0.0
H1428 H 0.07987 0.2639 0.51871 0.0
H1429 H 0.10797 0.23782 0.49735 0.0
C1430 C 0.18074 0.16765 0.49187 0.0
C1431 C 0.21771 0.12845 0.49044 0.0
C1432 C 0.16643 0.18517 0.50411 0.0
C1433 C 0.24172 0.10863 0.50143 0.0
C1434 C 0.22879 0.12693 0.5136 0.0
C1435 C 0.17532 0.1809 0.52731 0.0
C1436 C 0.13471 0.21623 0.52885 0.0
C1437 C 0.19068 0.16463 0.51506 0.0
C1438 C 0.11111 0.23662 0.51786 0.0
C1439 C 0.12715 0.22168 0.50562 0.0
H1440 H 0.89919 0.74233 0.74856 0.0
H1441 H 0.79239 0.65497 0.72559 0.0
H1442 H 0.75515 0.61778 0.74481 0.0
H1443 H 0.75637 0.60567 0.76821 0.0
H1444 H 0.8599 0.69716 0.79109 0.0
H1445 H 0.89453 0.73688 0.77193 0.0
C1446 C 0.86742 0.71558 0.74775 0.0
C1447 C 0.84925 0.70107 0.73561 0.0
C1448 C 0.84566 0.69462 0.75887 0.0
C1449 C 0.80753 0.66678 0.73478 0.0
C1450 C 0.78621 0.64522 0.74579 0.0
C1451 C 0.78628 0.63452 0.76898 0.0
C1452 C 0.80577 0.64796 0.78107 0.0
C1453 C 0.8056 0.6581 0.75788 0.0
C1454 C 0.84409 0.68596 0.78193 0.0
C1455 C 0.86411 0.70872 0.77095 0.0
loop_
_geom_bond_atom_site_label_1
_geom_bond_atom_site_label_2
_geom_bond_distance
_geom_bond_site_symmetry_2
_ccdc_geom_bond_type
Co0 O2 2.143 . S
Co0 O8 2.074 . S
Co0 O11 2.093 . S
Co0 O24 2.097 . S
Co0 N41 2.151 . S
Co0 N49 2.214 . S
Co1 O2 2.160 . S
Co1 O7 2.058 . S
Co1 O17 2.057 . S
Co1 O32 2.037 . S
Co1 N36 2.145 1_545 S
Co1 N57 2.257 1_545 S
O2 Co0 2.143 . S
O2 Co1 2.160 . S
C3 O4 1.278 . S
C3 O11 1.224 . S
O4 C3 1.278 . S
C5 O6 1.245 . S
C5 O17 1.232 . S
O6 C5 1.245 . S
O7 Co1 2.058 . S
O7 C33 1.269 . S
O8 Co0 2.074 . S
O8 C33 1.257 . S
H9 C34 0.930 . S
H10 C40 0.930 . S
O11 Co0 2.093 . S
O11 C3 1.224 . S
H12 C44 0.929 . S
H13 C46 0.930 . S
H14 C47 0.930 . S
H15 C45 0.929 . S
H16 C48 0.928 . S
O17 Co1 2.057 . S
O17 C5 1.232 . S
H18 C37 0.929 1_545 S
H19 C38 0.929 . S
H20 C50 0.931 . S
H21 C42 0.929 . S
H22 C51 0.930 . S
H23 C43 0.931 . S
O24 Co0 2.097 . S
O24 C52 1.214 . S
H25 C53 0.929 . S
H26 C54 0.929 . S
H27 C55 0.930 . S
H28 C56 0.929 . S
H29 C58 0.930 1_545 S
H30 C35 0.930 . S
H31 C39 0.930 . S
O32 Co1 2.037 . S
O32 C52 1.234 . S
C33 O7 1.269 . S
C33 O8 1.257 . S
C34 H9 0.930 . S
C34 C37 1.388 . S
C34 C39 1.418 . S
C35 H30 0.930 . S
C35 C38 1.404 . S
C35 C39 1.353 . S
N36 Co1 2.145 1_565 S
N36 C37 1.397 . S
N36 C38 1.334 . S
C37 H18 0.929 1_565 S
C37 C34 1.388 . S
C37 N36 1.397 . S
C38 H19 0.929 . S
C38 C35 1.404 . S
C38 N36 1.334 . S
C39 H31 0.930 . S
C39 C34 1.418 . S
C39 C35 1.353 . S
C40 H10 0.930 . S
C40 N41 1.330 . S
C40 C42 1.446 . S
N41 Co0 2.151 . S
N41 C40 1.330 . S
N41 C45 1.418 . S
C42 H21 0.929 . S
C42 C40 1.446 . S
C42 C43 1.332 . S
C43 H23 0.931 . S
C43 C42 1.332 . S
C43 C44 1.267 . S
C44 H12 0.929 . S
C44 C43 1.267 . S
C44 C45 1.251 . S
C45 H15 0.929 . S
C45 N41 1.418 . S
C45 C44 1.251 . S
C46 H13 0.930 . S
C46 C48 1.406 . S
C46 C51 1.261 . S
C47 H14 0.930 . S
C47 N49 1.325 . S
C47 C50 1.357 . S
C48 H16 0.928 . S
C48 C46 1.406 . S
C48 N49 1.261 . S
N49 Co0 2.214 . S
N49 C47 1.325 . S
N49 C48 1.261 . S
C50 H20 0.931 . S
C50 C47 1.357 . S
C50 C51 1.312 . S
C51 H22 0.930 . S
C51 C46 1.261 . S
C51 C50 1.312 . S
C52 O24 1.214 . S
C52 O32 1.234 . S
C53 H25 0.929 . S
C53 C56 1.391 . S
C53 C58 1.391 . S
C54 H26 0.929 . S
C54 C55 1.390 . S
C54 N57 1.391 . S
C55 H27 0.930 . S
C55 C54 1.390 . S
C55 C56 1.392 . S
C56 H28 0.929 . S
C56 C53 1.391 . S
C56 C55 1.392 . S
N57 Co1 2.257 1_565 S
N57 C54 1.391 . S
N57 C58 1.388 . S
C58 H29 0.930 1_565 S
C58 C53 1.391 . S
C58 N57 1.388 . S
Co59 O61 2.143 . S
Co59 O67 2.074 . S
Co59 O70 2.093 . S
Co59 O83 2.097 . S
Co59 N100 2.151 . S
Co59 N108 2.214 . S
Co60 O61 2.160 . S
Co60 O66 2.058 . S
Co60 O76 2.057 . S
Co60 O91 2.037 . S
Co60 N95 2.145 1_655 S
Co60 N116 2.257 1_655 S
O61 Co59 2.143 . S
O61 Co60 2.160 . S
C62 O63 1.278 . S
C62 O70 1.224 . S
O63 C62 1.278 . S
C64 O65 1.245 . S
C64 O76 1.232 . S
O65 C64 1.245 . S
O66 Co60 2.058 . S
O66 C92 1.269 . S
O67 Co59 2.074 . S
O67 C92 1.257 . S
H68 C93 0.930 . S
H69 C99 0.930 . S
O70 Co59 2.093 . S
O70 C62 1.224 . S
H71 C103 0.929 . S
H72 C105 0.930 . S
H73 C106 0.930 . S
H74 C104 0.929 . S
H75 C107 0.928 . S
O76 Co60 2.057 . S
O76 C64 1.232 . S
H77 C96 0.929 1_655 S
H78 C97 0.929 . S
H79 C109 0.931 . S
H80 C101 0.929 . S
H81 C110 0.930 . S
H82 C102 0.931 . S
O83 Co59 2.097 . S
O83 C111 1.214 . S
H84 C112 0.929 . S
H85 C113 0.929 . S
H86 C114 0.930 . S
H87 C115 0.929 . S
H88 C117 0.930 1_655 S
H89 C94 0.930 . S
H90 C98 0.930 . S
O91 Co60 2.037 . S
O91 C111 1.234 . S
C92 O66 1.269 . S
C92 O67 1.257 . S
C93 H68 0.930 . S
C93 C96 1.388 . S
C93 C98 1.418 . S
C94 H89 0.930 . S
C94 C97 1.404 . S
C94 C98 1.353 . S
N95 Co60 2.145 1_455 S
N95 C96 1.397 . S
N95 C97 1.334 . S
C96 H77 0.929 1_455 S
C96 C93 1.388 . S
C96 N95 1.397 . S
C97 H78 0.929 . S
C97 C94 1.404 . S
C97 N95 1.334 . S
C98 H90 0.930 . S
C98 C93 1.418 . S
C98 C94 1.353 . S
C99 H69 0.930 . S
C99 N100 1.330 . S
C99 C101 1.446 . S
N100 Co59 2.151 . S
N100 C99 1.330 . S
N100 C104 1.418 . S
C101 H80 0.929 . S
C101 C99 1.446 . S
C101 C102 1.332 . S
C102 H82 0.931 . S
C102 C101 1.332 . S
C102 C103 1.267 . S
C103 H71 0.929 . S
C103 C102 1.267 . S
C103 C104 1.251 . S
C104 H74 0.929 . S
C104 N100 1.418 . S
C104 C103 1.251 . S
C105 H72 0.930 . S
C105 C107 1.406 . S
C105 C110 1.261 . S
C106 H73 0.930 . S
C106 N108 1.325 . S
C106 C109 1.357 . S
C107 H75 0.928 . S
C107 C105 1.406 . S
C107 N108 1.261 . S
N108 Co59 2.214 . S
N108 C106 1.325 . S
N108 C107 1.261 . S
C109 H79 0.931 . S
C109 C106 1.357 . S
C109 C110 1.312 . S
C110 H81 0.930 . S
C110 C105 1.261 . S
C110 C109 1.312 . S
C111 O83 1.214 . S
C111 O91 1.234 . S
C112 H84 0.929 . S
C112 C115 1.391 . S
C112 C117 1.391 . S
C113 H85 0.929 . S
C113 C114 1.390 . S
C113 N116 1.391 . S
C114 H86 0.930 . S
C114 C113 1.390 . S
C114 C115 1.392 . S
C115 H87 0.929 . S
C115 C112 1.391 . S
C115 C114 1.392 . S
N116 Co60 2.257 1_455 S
N116 C113 1.391 . S
N116 C117 1.388 . S
C117 H88 0.930 1_455 S
C117 C112 1.391 . S
C117 N116 1.388 . S
Co118 O120 2.143 . S
Co118 O126 2.074 . S
Co118 O129 2.093 . S
Co118 O142 2.097 . S
Co118 N159 2.151 . S
Co118 N167 2.214 . S
Co119 O120 2.160 . S
Co119 O125 2.058 . S
Co119 O135 2.057 . S
Co119 O150 2.037 . S
Co119 N154 2.145 . S
Co119 N175 2.257 . S
O120 Co118 2.143 . S
O120 Co119 2.160 . S
C121 O122 1.278 . S
C121 O129 1.224 . S
O122 C121 1.278 . S
C123 O124 1.245 . S
C123 O135 1.232 . S
O124 C123 1.245 . S
O125 Co119 2.058 . S
O125 C151 1.269 . S
O126 Co118 2.074 . S
O126 C151 1.257 . S
H127 C152 0.930 . S
H128 C158 0.930 . S
O129 Co118 2.093 . S
O129 C121 1.224 . S
H130 C162 0.929 . S
H131 C164 0.930 . S
H132 C165 0.930 . S
H133 C163 0.929 . S
H134 C166 0.928 . S
O135 Co119 2.057 . S
O135 C123 1.232 . S
H136 C155 0.929 . S
H137 C156 0.929 . S
H138 C168 0.931 . S
H139 C160 0.929 . S
H140 C169 0.930 . S
H141 C161 0.931 . S
O142 Co118 2.097 . S
O142 C170 1.214 . S
H143 C171 0.929 . S
H144 C172 0.929 . S
H145 C173 0.930 . S
H146 C174 0.929 . S
H147 C176 0.930 . S
H148 C153 0.930 . S
H149 C157 0.930 . S
O150 Co119 2.037 . S
O150 C170 1.234 . S
C151 O125 1.269 . S
C151 O126 1.257 . S
C152 H127 0.930 . S
C152 C155 1.388 . S
C152 C157 1.418 . S
C153 H148 0.930 . S
C153 C156 1.404 . S
C153 C157 1.353 . S
N154 Co119 2.145 . S
N154 C155 1.397 . S
N154 C156 1.334 . S
C155 H136 0.929 . S
C155 C152 1.388 . S
C155 N154 1.397 . S
C156 H137 0.929 . S
C156 C153 1.404 . S
C156 N154 1.334 . S
C157 H149 0.930 . S
C157 C152 1.418 . S
C157 C153 1.353 . S
C158 H128 0.930 . S
C158 N159 1.330 . S
C158 C160 1.446 . S
N159 Co118 2.151 . S
N159 C158 1.330 . S
N159 C163 1.418 . S
C160 H139 0.929 . S
C160 C158 1.446 . S
C160 C161 1.332 . S
C161 H141 0.931 . S
C161 C160 1.332 . S
C161 C162 1.267 . S
C162 H130 0.929 . S
C162 C161 1.267 . S
C162 C163 1.251 . S
C163 H133 0.929 . S
C163 N159 1.418 . S
C163 C162 1.251 . S
C164 H131 0.930 . S
C164 C166 1.406 . S
C164 C169 1.261 . S
C165 H132 0.930 . S
C165 N167 1.325 . S
C165 C168 1.357 . S
C166 H134 0.928 . S
C166 C164 1.406 . S
C166 N167 1.261 . S
N167 Co118 2.214 . S
N167 C165 1.325 . S
N167 C166 1.261 . S
C168 H138 0.931 . S
C168 C165 1.357 . S
C168 C169 1.312 . S
C169 H140 0.930 . S
C169 C164 1.261 . S
C169 C168 1.312 . S
C170 O142 1.214 . S
C170 O150 1.234 . S
C171 H143 0.929 . S
C171 C174 1.391 . S
C171 C176 1.391 . S
C172 H144 0.929 . S
C172 C173 1.390 . S
C172 N175 1.391 . S
C173 H145 0.930 . S
C173 C172 1.390 . S
C173 C174 1.392 . S
C174 H146 0.929 . S
C174 C171 1.391 . S
C174 C173 1.392 . S
N175 Co119 2.257 . S
N175 C172 1.391 . S
N175 C176 1.388 . S
C176 H147 0.930 . S
C176 C171 1.391 . S
C176 N175 1.388 . S
Co177 O179 2.143 . S
Co177 O185 2.074 . S
Co177 O188 2.093 . S
Co177 O201 2.097 . S
Co177 N218 2.151 . S
Co177 N226 2.214 . S
Co178 O179 2.160 . S
Co178 O184 2.058 . S
Co178 O194 2.057 . S
Co178 O209 2.037 . S
Co178 N213 2.145 . S
Co178 N234 2.257 . S
O179 Co177 2.143 . S
O179 Co178 2.160 . S
C180 O181 1.278 . S
C180 O188 1.224 . S
O181 C180 1.278 . S
C182 O183 1.245 . S
C182 O194 1.232 . S
O183 C182 1.245 . S
O184 Co178 2.058 . S
O184 C210 1.269 . S
O185 Co177 2.074 . S
O185 C210 1.257 . S
H186 C211 0.930 . S
H187 C217 0.930 . S
O188 Co177 2.093 . S
O188 C180 1.224 . S
H189 C221 0.929 . S
H190 C223 0.930 . S
H191 C224 0.930 . S
H192 C222 0.929 . S
H193 C225 0.928 . S
O194 Co178 2.057 . S
O194 C182 1.232 . S
H195 C214 0.929 . S
H196 C215 0.929 . S
H197 C227 0.931 . S
H198 C219 0.929 . S
H199 C228 0.930 . S
H200 C220 0.931 . S
O201 Co177 2.097 . S
O201 C229 1.214 . S
H202 C230 0.929 . S
H203 C231 0.929 . S
H204 C232 0.930 . S
H205 C233 0.929 . S
H206 C235 0.930 . S
H207 C212 0.930 . S
H208 C216 0.930 . S
O209 Co178 2.037 . S
O209 C229 1.234 . S
C210 O184 1.269 . S
C210 O185 1.257 . S
C211 H186 0.930 . S
C211 C214 1.388 . S
C211 C216 1.418 . S
C212 H207 0.930 . S
C212 C215 1.404 . S
C212 C216 1.353 . S
N213 Co178 2.145 . S
N213 C214 1.397 . S
N213 C215 1.334 . S
C214 H195 0.929 . S
C214 C211 1.388 . S
C214 N213 1.397 . S
C215 H196 0.929 . S
C215 C212 1.404 . S
C215 N213 1.334 . S
C216 H208 0.930 . S
C216 C211 1.418 . S
C216 C212 1.353 . S
C217 H187 0.930 . S
C217 N218 1.330 . S
C217 C219 1.446 . S
N218 Co177 2.151 . S
N218 C217 1.330 . S
N218 C222 1.418 . S
C219 H198 0.929 . S
C219 C217 1.446 . S
C219 C220 1.332 . S
C220 H200 0.931 . S
C220 C219 1.332 . S
C220 C221 1.267 . S
C221 H189 0.929 . S
C221 C220 1.267 . S
C221 C222 1.251 . S
C222 H192 0.929 . S
C222 N218 1.418 . S
C222 C221 1.251 . S
C223 H190 0.930 . S
C223 C225 1.406 . S
C223 C228 1.261 . S
C224 H191 0.930 . S
C224 N226 1.325 . S
C224 C227 1.357 . S
C225 H193 0.928 . S
C225 C223 1.406 . S
C225 N226 1.261 . S
N226 Co177 2.214 . S
N226 C224 1.325 . S
N226 C225 1.261 . S
C227 H197 0.931 . S
C227 C224 1.357 . S
C227 C228 1.312 . S
C228 H199 0.930 . S
C228 C223 1.261 . S
C228 C227 1.312 . S
C229 O201 1.214 . S
C229 O209 1.234 . S
C230 H202 0.929 . S
C230 C233 1.391 . S
C230 C235 1.391 . S
C231 H203 0.929 . S
C231 C232 1.390 . S
C231 N234 1.391 . S
C232 H204 0.930 . S
C232 C231 1.390 . S
C232 C233 1.392 . S
C233 H205 0.929 . S
C233 C230 1.391 . S
C233 C232 1.392 . S
N234 Co178 2.257 . S
N234 C231 1.391 . S
N234 C235 1.388 . S
C235 H206 0.930 . S
C235 C230 1.391 . S
C235 N234 1.388 . S
Co236 O238 2.143 . S
Co236 O244 2.074 . S
Co236 O247 2.093 . S
Co236 O260 2.097 . S
Co236 N277 2.151 . S
Co236 N285 2.214 . S
Co237 O238 2.160 . S
Co237 O243 2.058 . S
Co237 O253 2.057 . S
Co237 O268 2.037 . S
Co237 N272 2.145 . S
Co237 N293 2.257 . S
O238 Co236 2.143 . S
O238 Co237 2.160 . S
C239 O240 1.278 . S
C239 O247 1.224 . S
O240 C239 1.278 . S
C241 O242 1.245 . S
C241 O253 1.232 . S
O242 C241 1.245 . S
O243 Co237 2.058 . S
O243 C269 1.269 . S
O244 Co236 2.074 . S
O244 C269 1.257 . S
H245 C270 0.930 . S
H246 C276 0.930 . S
O247 Co236 2.093 . S
O247 C239 1.224 . S
H248 C280 0.929 . S
H249 C282 0.930 . S
H250 C283 0.930 . S
H251 C281 0.929 . S
H252 C284 0.928 . S
O253 Co237 2.057 . S
O253 C241 1.232 . S
H254 C273 0.929 . S
H255 C274 0.929 . S
H256 C286 0.931 . S
H257 C278 0.929 . S
H258 C287 0.930 . S
H259 C279 0.931 . S
O260 Co236 2.097 . S
O260 C288 1.214 . S
H261 C289 0.929 . S
H262 C290 0.929 . S
H263 C291 0.930 . S
H264 C292 0.929 . S
H265 C294 0.930 . S
H266 C271 0.930 . S
H267 C275 0.930 . S
O268 Co237 2.037 . S
O268 C288 1.234 . S
C269 O243 1.269 . S
C269 O244 1.257 . S
C270 H245 0.930 . S
C270 C273 1.388 . S
C270 C275 1.418 . S
C271 H266 0.930 . S
C271 C274 1.404 . S
C271 C275 1.353 . S
N272 Co237 2.145 . S
N272 C273 1.397 . S
N272 C274 1.334 . S
C273 H254 0.929 . S
C273 C270 1.388 . S
C273 N272 1.397 . S
C274 H255 0.929 . S
C274 C271 1.404 . S
C274 N272 1.334 . S
C275 H267 0.930 . S
C275 C270 1.418 . S
C275 C271 1.353 . S
C276 H246 0.930 . S
C276 N277 1.330 . S
C276 C278 1.446 . S
N277 Co236 2.151 . S
N277 C276 1.330 . S
N277 C281 1.418 . S
C278 H257 0.929 . S
C278 C276 1.446 . S
C278 C279 1.332 . S
C279 H259 0.931 . S
C279 C278 1.332 . S
C279 C280 1.267 . S
C280 H248 0.929 . S
C280 C279 1.267 . S
C280 C281 1.251 . S
C281 H251 0.929 . S
C281 N277 1.418 . S
C281 C280 1.251 . S
C282 H249 0.930 . S
C282 C284 1.406 . S
C282 C287 1.261 . S
C283 H250 0.930 . S
C283 N285 1.325 . S
C283 C286 1.357 . S
C284 H252 0.928 . S
C284 C282 1.406 . S
C284 N285 1.261 . S
N285 Co236 2.214 . S
N285 C283 1.325 . S
N285 C284 1.261 . S
C286 H256 0.931 . S
C286 C283 1.357 . S
C286 C287 1.312 . S
C287 H258 0.930 . S
C287 C282 1.261 . S
C287 C286 1.312 . S
C288 O260 1.214 . S
C288 O268 1.234 . S
C289 H261 0.929 . S
C289 C292 1.391 . S
C289 C294 1.391 . S
C290 H262 0.929 . S
C290 C291 1.390 . S
C290 N293 1.391 . S
C291 H263 0.930 . S
C291 C290 1.390 . S
C291 C292 1.392 . S
C292 H264 0.929 . S
C292 C289 1.391 . S
C292 C291 1.392 . S
N293 Co237 2.257 . S
N293 C290 1.391 . S
N293 C294 1.388 . S
C294 H265 0.930 . S
C294 C289 1.391 . S
C294 N293 1.388 . S
Co295 O297 2.143 . S
Co295 O303 2.074 . S
Co295 O306 2.093 . S
Co295 O319 2.097 . S
Co295 N336 2.151 . S
Co295 N344 2.214 . S
Co296 O297 2.160 . S
Co296 O302 2.058 . S
Co296 O312 2.057 . S
Co296 O327 2.037 . S
Co296 N331 2.145 . S
Co296 N352 2.257 . S
O297 Co295 2.143 . S
O297 Co296 2.160 . S
C298 O299 1.278 . S
C298 O306 1.224 . S
O299 C298 1.278 . S
C300 O301 1.245 . S
C300 O312 1.232 . S
O301 C300 1.245 . S
O302 Co296 2.058 . S
O302 C328 1.269 . S
O303 Co295 2.074 . S
O303 C328 1.257 . S
H304 C329 0.930 . S
H305 C335 0.930 . S
O306 Co295 2.093 . S
O306 C298 1.224 . S
H307 C339 0.929 . S
H308 C341 0.930 . S
H309 C342 0.930 . S
H310 C340 0.929 . S
H311 C343 0.928 . S
O312 Co296 2.057 . S
O312 C300 1.232 . S
H313 C332 0.929 . S
H314 C333 0.929 . S
H315 C345 0.931 . S
H316 C337 0.929 . S
H317 C346 0.930 . S
H318 C338 0.931 . S
O319 Co295 2.097 . S
O319 C347 1.214 . S
H320 C348 0.929 . S
H321 C349 0.929 . S
H322 C350 0.930 . S
H323 C351 0.929 . S
H324 C353 0.930 . S
H325 C330 0.930 . S
H326 C334 0.930 . S
O327 Co296 2.037 . S
O327 C347 1.234 . S
C328 O302 1.269 . S
C328 O303 1.257 . S
C329 H304 0.930 . S
C329 C332 1.388 . S
C329 C334 1.418 . S
C330 H325 0.930 . S
C330 C333 1.404 . S
C330 C334 1.353 . S
N331 Co296 2.145 . S
N331 C332 1.397 . S
N331 C333 1.334 . S
C332 H313 0.929 . S
C332 C329 1.388 . S
C332 N331 1.397 . S
C333 H314 0.929 . S
C333 C330 1.404 . S
C333 N331 1.334 . S
C334 H326 0.930 . S
C334 C329 1.418 . S
C334 C330 1.353 . S
C335 H305 0.930 . S
C335 N336 1.330 . S
C335 C337 1.446 . S
N336 Co295 2.151 . S
N336 C335 1.330 . S
N336 C340 1.418 . S
C337 H316 0.929 . S
C337 C335 1.446 . S
C337 C338 1.332 . S
C338 H318 0.931 . S
C338 C337 1.332 . S
C338 C339 1.267 . S
C339 H307 0.929 . S
C339 C338 1.267 . S
C339 C340 1.251 . S
C340 H310 0.929 . S
C340 N336 1.418 . S
C340 C339 1.251 . S
C341 H308 0.930 . S
C341 C343 1.406 . S
C341 C346 1.261 . S
C342 H309 0.930 . S
C342 N344 1.325 . S
C342 C345 1.357 . S
C343 H311 0.928 . S
C343 C341 1.406 . S
C343 N344 1.261 . S
N344 Co295 2.214 . S
N344 C342 1.325 . S
N344 C343 1.261 . S
C345 H315 0.931 . S
C345 C342 1.357 . S
C345 C346 1.312 . S
C346 H317 0.930 . S
C346 C341 1.261 . S
C346 C345 1.312 . S
C347 O319 1.214 . S
C347 O327 1.234 . S
C348 H320 0.929 . S
C348 C351 1.391 . S
C348 C353 1.391 . S
C349 H321 0.929 . S
C349 C350 1.390 . S
C349 N352 1.391 . S
C350 H322 0.930 . S
C350 C349 1.390 . S
C350 C351 1.392 . S
C351 H323 0.929 . S
C351 C348 1.391 . S
C351 C350 1.392 . S
N352 Co296 2.257 . S
N352 C349 1.391 . S
N352 C353 1.388 . S
C353 H324 0.930 . S
C353 C348 1.391 . S
C353 N352 1.388 . S
Co354 O356 2.143 . S
Co354 O362 2.074 . S
Co354 O365 2.093 . S
Co354 O378 2.097 . S
Co354 N395 2.151 . S
Co354 N403 2.214 . S
Co355 O356 2.160 . S
Co355 O361 2.058 . S
Co355 O371 2.057 . S
Co355 O386 2.037 . S
Co355 N390 2.145 1_545 S
Co355 N411 2.257 1_545 S
O356 Co354 2.143 . S
O356 Co355 2.160 . S
C357 O358 1.278 . S
C357 O365 1.224 . S
O358 C357 1.278 . S
C359 O360 1.245 . S
C359 O371 1.232 . S
O360 C359 1.245 . S
O361 Co355 2.058 . S
O361 C387 1.269 . S
O362 Co354 2.074 . S
O362 C387 1.257 . S
H363 C388 0.930 . S
H364 C394 0.930 . S
O365 Co354 2.093 . S
O365 C357 1.224 . S
H366 C398 0.929 . S
H367 C400 0.930 . S
H368 C401 0.930 . S
H369 C399 0.929 . S
H370 C402 0.928 . S
O371 Co355 2.057 . S
O371 C359 1.232 . S
H372 C391 0.929 1_545 S
H373 C392 0.929 . S
H374 C404 0.931 . S
H375 C396 0.929 . S
H376 C405 0.930 . S
H377 C397 0.931 . S
O378 Co354 2.097 . S
O378 C406 1.214 . S
H379 C407 0.929 . S
H380 C408 0.929 . S
H381 C409 0.930 . S
H382 C410 0.929 . S
H383 C412 0.930 1_545 S
H384 C389 0.930 . S
H385 C393 0.930 . S
O386 Co355 2.037 . S
O386 C406 1.234 . S
C387 O361 1.269 . S
C387 O362 1.257 . S
C388 H363 0.930 . S
C388 C391 1.388 . S
C388 C393 1.418 . S
C389 H384 0.930 . S
C389 C392 1.404 . S
C389 C393 1.353 . S
N390 Co355 2.145 1_565 S
N390 C391 1.397 . S
N390 C392 1.334 . S
C391 H372 0.929 1_565 S
C391 C388 1.388 . S
C391 N390 1.397 . S
C392 H373 0.929 . S
C392 C389 1.404 . S
C392 N390 1.334 . S
C393 H385 0.930 . S
C393 C388 1.418 . S
C393 C389 1.353 . S
C394 H364 0.930 . S
C394 N395 1.330 . S
C394 C396 1.446 . S
N395 Co354 2.151 . S
N395 C394 1.330 . S
N395 C399 1.418 . S
C396 H375 0.929 . S
C396 C394 1.446 . S
C396 C397 1.332 . S
C397 H377 0.931 . S
C397 C396 1.332 . S
C397 C398 1.267 . S
C398 H366 0.929 . S
C398 C397 1.267 . S
C398 C399 1.251 . S
C399 H369 0.929 . S
C399 N395 1.418 . S
C399 C398 1.251 . S
C400 H367 0.930 . S
C400 C402 1.406 . S
C400 C405 1.261 . S
C401 H368 0.930 . S
C401 N403 1.325 . S
C401 C404 1.357 . S
C402 H370 0.928 . S
C402 C400 1.406 . S
C402 N403 1.261 . S
N403 Co354 2.214 . S
N403 C401 1.325 . S
N403 C402 1.261 . S
C404 H374 0.931 . S
C404 C401 1.357 . S
C404 C405 1.312 . S
C405 H376 0.930 . S
C405 C400 1.261 . S
C405 C404 1.312 . S
C406 O378 1.214 . S
C406 O386 1.234 . S
C407 H379 0.929 . S
C407 C410 1.391 . S
C407 C412 1.391 . S
C408 H380 0.929 . S
C408 C409 1.390 . S
C408 N411 1.391 . S
C409 H381 0.930 . S
C409 C408 1.390 . S
C409 C410 1.392 . S
C410 H382 0.929 . S
C410 C407 1.391 . S
C410 C409 1.392 . S
N411 Co355 2.257 1_565 S
N411 C408 1.391 . S
N411 C412 1.388 . S
C412 H383 0.930 1_565 S
C412 C407 1.391 . S
C412 N411 1.388 . S
Co413 O415 2.143 . S
Co413 O421 2.074 . S
Co413 O424 2.093 . S
Co413 O437 2.097 . S
Co413 N454 2.151 . S
Co413 N462 2.214 . S
Co414 O415 2.160 . S
Co414 O420 2.058 . S
Co414 O430 2.057 . S
Co414 O445 2.037 . S
Co414 N449 2.145 1_655 S
Co414 N470 2.257 1_655 S
O415 Co413 2.143 . S
O415 Co414 2.160 . S
C416 O417 1.278 . S
C416 O424 1.224 . S
O417 C416 1.278 . S
C418 O419 1.245 . S
C418 O430 1.232 . S
O419 C418 1.245 . S
O420 Co414 2.058 . S
O420 C446 1.269 . S
O421 Co413 2.074 . S
O421 C446 1.257 . S
H422 C447 0.930 . S
H423 C453 0.930 . S
O424 Co413 2.093 . S
O424 C416 1.224 . S
H425 C457 0.929 . S
H426 C459 0.930 . S
H427 C460 0.930 . S
H428 C458 0.929 . S
H429 C461 0.928 . S
O430 Co414 2.057 . S
O430 C418 1.232 . S
H431 C450 0.929 1_655 S
H432 C451 0.929 . S
H433 C463 0.931 . S
H434 C455 0.929 . S
H435 C464 0.930 . S
H436 C456 0.931 . S
O437 Co413 2.097 . S
O437 C465 1.214 . S
H438 C466 0.929 . S
H439 C467 0.929 . S
H440 C468 0.930 . S
H441 C469 0.929 . S
H442 C471 0.930 1_655 S
H443 C448 0.930 . S
H444 C452 0.930 . S
O445 Co414 2.037 . S
O445 C465 1.234 . S
C446 O420 1.269 . S
C446 O421 1.257 . S
C447 H422 0.930 . S
C447 C450 1.388 . S
C447 C452 1.418 . S
C448 H443 0.930 . S
C448 C451 1.404 . S
C448 C452 1.353 . S
N449 Co414 2.145 1_455 S
N449 C450 1.397 . S
N449 C451 1.334 . S
C450 H431 0.929 1_455 S
C450 C447 1.388 . S
C450 N449 1.397 . S
C451 H432 0.929 . S
C451 C448 1.404 . S
C451 N449 1.334 . S
C452 H444 0.930 . S
C452 C447 1.418 . S
C452 C448 1.353 . S
C453 H423 0.930 . S
C453 N454 1.330 . S
C453 C455 1.446 . S
N454 Co413 2.151 . S
N454 C453 1.330 . S
N454 C458 1.418 . S
C455 H434 0.929 . S
C455 C453 1.446 . S
C455 C456 1.332 . S
C456 H436 0.931 . S
C456 C455 1.332 . S
C456 C457 1.267 . S
C457 H425 0.929 . S
C457 C456 1.267 . S
C457 C458 1.251 . S
C458 H428 0.929 . S
C458 N454 1.418 . S
C458 C457 1.251 . S
C459 H426 0.930 . S
C459 C461 1.406 . S
C459 C464 1.261 . S
C460 H427 0.930 . S
C460 N462 1.325 . S
C460 C463 1.357 . S
C461 H429 0.928 . S
C461 C459 1.406 . S
C461 N462 1.261 . S
N462 Co413 2.214 . S
N462 C460 1.325 . S
N462 C461 1.261 . S
C463 H433 0.931 . S
C463 C460 1.357 . S
C463 C464 1.312 . S
C464 H435 0.930 . S
C464 C459 1.261 . S
C464 C463 1.312 . S
C465 O437 1.214 . S
C465 O445 1.234 . S
C466 H438 0.929 . S
C466 C469 1.391 . S
C466 C471 1.391 . S
C467 H439 0.929 . S
C467 C468 1.390 . S
C467 N470 1.391 . S
C468 H440 0.930 . S
C468 C467 1.390 . S
C468 C469 1.392 . S
C469 H441 0.929 . S
C469 C466 1.391 . S
C469 C468 1.392 . S
N470 Co414 2.257 1_455 S
N470 C467 1.391 . S
N470 C471 1.388 . S
C471 H442 0.930 1_455 S
C471 C466 1.391 . S
C471 N470 1.388 . S
Co472 O474 2.143 . S
Co472 O480 2.074 . S
Co472 O483 2.093 . S
Co472 O496 2.097 . S
Co472 N513 2.151 . S
Co472 N521 2.214 . S
Co473 O474 2.160 . S
Co473 O479 2.058 . S
Co473 O489 2.057 . S
Co473 O504 2.037 . S
Co473 N508 2.145 . S
Co473 N529 2.257 . S
O474 Co472 2.143 . S
O474 Co473 2.160 . S
C475 O476 1.278 . S
C475 O483 1.224 . S
O476 C475 1.278 . S
C477 O478 1.245 . S
C477 O489 1.232 . S
O478 C477 1.245 . S
O479 Co473 2.058 . S
O479 C505 1.269 . S
O480 Co472 2.074 . S
O480 C505 1.257 . S
H481 C506 0.930 . S
H482 C512 0.930 . S
O483 Co472 2.093 . S
O483 C475 1.224 . S
H484 C516 0.929 . S
H485 C518 0.930 . S
H486 C519 0.930 . S
H487 C517 0.929 . S
H488 C520 0.928 . S
O489 Co473 2.057 . S
O489 C477 1.232 . S
H490 C509 0.929 . S
H491 C510 0.929 . S
H492 C522 0.931 . S
H493 C514 0.929 . S
H494 C523 0.930 . S
H495 C515 0.931 . S
O496 Co472 2.097 . S
O496 C524 1.214 . S
H497 C525 0.929 . S
H498 C526 0.929 . S
H499 C527 0.930 . S
H500 C528 0.929 . S
H501 C530 0.930 . S
H502 C507 0.930 . S
H503 C511 0.930 . S
O504 Co473 2.037 . S
O504 C524 1.234 . S
C505 O479 1.269 . S
C505 O480 1.257 . S
C506 H481 0.930 . S
C506 C509 1.388 . S
C506 C511 1.418 . S
C507 H502 0.930 . S
C507 C510 1.404 . S
C507 C511 1.353 . S
N508 Co473 2.145 . S
N508 C509 1.397 . S
N508 C510 1.334 . S
C509 H490 0.929 . S
C509 C506 1.388 . S
C509 N508 1.397 . S
C510 H491 0.929 . S
C510 C507 1.404 . S
C510 N508 1.334 . S
C511 H503 0.930 . S
C511 C506 1.418 . S
C511 C507 1.353 . S
C512 H482 0.930 . S
C512 N513 1.330 . S
C512 C514 1.446 . S
N513 Co472 2.151 . S
N513 C512 1.330 . S
N513 C517 1.418 . S
C514 H493 0.929 . S
C514 C512 1.446 . S
C514 C515 1.332 . S
C515 H495 0.931 . S
C515 C514 1.332 . S
C515 C516 1.267 . S
C516 H484 0.929 . S
C516 C515 1.267 . S
C516 C517 1.251 . S
C517 H487 0.929 . S
C517 N513 1.418 . S
C517 C516 1.251 . S
C518 H485 0.930 . S
C518 C520 1.406 . S
C518 C523 1.261 . S
C519 H486 0.930 . S
C519 N521 1.325 . S
C519 C522 1.357 . S
C520 H488 0.928 . S
C520 C518 1.406 . S
C520 N521 1.261 . S
N521 Co472 2.214 . S
N521 C519 1.325 . S
N521 C520 1.261 . S
C522 H492 0.931 . S
C522 C519 1.357 . S
C522 C523 1.312 . S
C523 H494 0.930 . S
C523 C518 1.261 . S
C523 C522 1.312 . S
C524 O496 1.214 . S
C524 O504 1.234 . S
C525 H497 0.929 . S
C525 C528 1.391 . S
C525 C530 1.391 . S
C526 H498 0.929 . S
C526 C527 1.390 . S
C526 N529 1.391 . S
C527 H499 0.930 . S
C527 C526 1.390 . S
C527 C528 1.392 . S
C528 H500 0.929 . S
C528 C525 1.391 . S
C528 C527 1.392 . S
N529 Co473 2.257 . S
N529 C526 1.391 . S
N529 C530 1.388 . S
C530 H501 0.930 . S
C530 C525 1.391 . S
C530 N529 1.388 . S
Co531 O533 2.143 . S
Co531 O539 2.074 . S
Co531 O542 2.093 . S
Co531 O555 2.097 . S
Co531 N572 2.151 . S
Co531 N580 2.214 . S
Co532 O533 2.160 . S
Co532 O538 2.058 . S
Co532 O548 2.057 . S
Co532 O563 2.037 . S
Co532 N567 2.145 . S
Co532 N588 2.257 . S
O533 Co531 2.143 . S
O533 Co532 2.160 . S
C534 O535 1.278 . S
C534 O542 1.224 . S
O535 C534 1.278 . S
C536 O537 1.245 . S
C536 O548 1.232 . S
O537 C536 1.245 . S
O538 Co532 2.058 . S
O538 C564 1.269 . S
O539 Co531 2.074 . S
O539 C564 1.257 . S
H540 C565 0.930 . S
H541 C571 0.930 . S
O542 Co531 2.093 . S
O542 C534 1.224 . S
H543 C575 0.929 . S
H544 C577 0.930 . S
H545 C578 0.930 . S
H546 C576 0.929 . S
H547 C579 0.928 . S
O548 Co532 2.057 . S
O548 C536 1.232 . S
H549 C568 0.929 . S
H550 C569 0.929 . S
H551 C581 0.931 . S
H552 C573 0.929 . S
H553 C582 0.930 . S
H554 C574 0.931 . S
O555 Co531 2.097 . S
O555 C583 1.214 . S
H556 C584 0.929 . S
H557 C585 0.929 . S
H558 C586 0.930 . S
H559 C587 0.929 . S
H560 C589 0.930 . S
H561 C566 0.930 . S
H562 C570 0.930 . S
O563 Co532 2.037 . S
O563 C583 1.234 . S
C564 O538 1.269 . S
C564 O539 1.257 . S
C565 H540 0.930 . S
C565 C568 1.388 . S
C565 C570 1.418 . S
C566 H561 0.930 . S
C566 C569 1.404 . S
C566 C570 1.353 . S
N567 Co532 2.145 . S
N567 C568 1.397 . S
N567 C569 1.334 . S
C568 H549 0.929 . S
C568 C565 1.388 . S
C568 N567 1.397 . S
C569 H550 0.929 . S
C569 C566 1.404 . S
C569 N567 1.334 . S
C570 H562 0.930 . S
C570 C565 1.418 . S
C570 C566 1.353 . S
C571 H541 0.930 . S
C571 N572 1.330 . S
C571 C573 1.446 . S
N572 Co531 2.151 . S
N572 C571 1.330 . S
N572 C576 1.418 . S
C573 H552 0.929 . S
C573 C571 1.446 . S
C573 C574 1.332 . S
C574 H554 0.931 . S
C574 C573 1.332 . S
C574 C575 1.267 . S
C575 H543 0.929 . S
C575 C574 1.267 . S
C575 C576 1.251 . S
C576 H546 0.929 . S
C576 N572 1.418 . S
C576 C575 1.251 . S
C577 H544 0.930 . S
C577 C579 1.406 . S
C577 C582 1.261 . S
C578 H545 0.930 . S
C578 N580 1.325 . S
C578 C581 1.357 . S
C579 H547 0.928 . S
C579 C577 1.406 . S
C579 N580 1.261 . S
N580 Co531 2.214 . S
N580 C578 1.325 . S
N580 C579 1.261 . S
C581 H551 0.931 . S
C581 C578 1.357 . S
C581 C582 1.312 . S
C582 H553 0.930 . S
C582 C577 1.261 . S
C582 C581 1.312 . S
C583 O555 1.214 . S
C583 O563 1.234 . S
C584 H556 0.929 . S
C584 C587 1.391 . S
C584 C589 1.391 . S
C585 H557 0.929 . S
C585 C586 1.390 . S
C585 N588 1.391 . S
C586 H558 0.930 . S
C586 C585 1.390 . S
C586 C587 1.392 . S
C587 H559 0.929 . S
C587 C584 1.391 . S
C587 C586 1.392 . S
N588 Co532 2.257 . S
N588 C585 1.391 . S
N588 C589 1.388 . S
C589 H560 0.930 . S
C589 C584 1.391 . S
C589 N588 1.388 . S
Co590 O592 2.143 . S
Co590 O598 2.074 . S
Co590 O601 2.093 . S
Co590 O614 2.097 . S
Co590 N631 2.151 . S
Co590 N639 2.214 . S
Co591 O592 2.160 . S
Co591 O597 2.058 . S
Co591 O607 2.057 . S
Co591 O622 2.037 . S
Co591 N626 2.145 1_565 S
Co591 N647 2.257 1_565 S
O592 Co590 2.143 . S
O592 Co591 2.160 . S
C593 O594 1.278 . S
C593 O601 1.224 . S
O594 C593 1.278 . S
C595 O596 1.245 . S
C595 O607 1.232 . S
O596 C595 1.245 . S
O597 Co591 2.058 . S
O597 C623 1.269 . S
O598 Co590 2.074 . S
O598 C623 1.257 . S
H599 C624 0.930 . S
H600 C630 0.930 . S
O601 Co590 2.093 . S
O601 C593 1.224 . S
H602 C634 0.929 . S
H603 C636 0.930 . S
H604 C637 0.930 . S
H605 C635 0.929 . S
H606 C638 0.928 . S
O607 Co591 2.057 . S
O607 C595 1.232 . S
H608 C627 0.929 1_565 S
H609 C628 0.929 . S
H610 C640 0.931 . S
H611 C632 0.929 . S
H612 C641 0.930 . S
H613 C633 0.931 . S
O614 Co590 2.097 . S
O614 C642 1.214 . S
H615 C643 0.929 . S
H616 C644 0.929 . S
H617 C645 0.930 . S
H618 C646 0.929 . S
H619 C648 0.930 1_565 S
H620 C625 0.930 . S
H621 C629 0.930 . S
O622 Co591 2.037 . S
O622 C642 1.234 . S
C623 O597 1.269 . S
C623 O598 1.257 . S
C624 H599 0.930 . S
C624 C627 1.388 . S
C624 C629 1.418 . S
C625 H620 0.930 . S
C625 C628 1.404 . S
C625 C629 1.353 . S
N626 Co591 2.145 1_545 S
N626 C627 1.397 . S
N626 C628 1.334 . S
C627 H608 0.929 1_545 S
C627 C624 1.388 . S
C627 N626 1.397 . S
C628 H609 0.929 . S
C628 C625 1.404 . S
C628 N626 1.334 . S
C629 H621 0.930 . S
C629 C624 1.418 . S
C629 C625 1.353 . S
C630 H600 0.930 . S
C630 N631 1.330 . S
C630 C632 1.446 . S
N631 Co590 2.151 . S
N631 C630 1.330 . S
N631 C635 1.418 . S
C632 H611 0.929 . S
C632 C630 1.446 . S
C632 C633 1.332 . S
C633 H613 0.931 . S
C633 C632 1.332 . S
C633 C634 1.267 . S
C634 H602 0.929 . S
C634 C633 1.267 . S
C634 C635 1.251 . S
C635 H605 0.929 . S
C635 N631 1.418 . S
C635 C634 1.251 . S
C636 H603 0.930 . S
C636 C638 1.406 . S
C636 C641 1.261 . S
C637 H604 0.930 . S
C637 N639 1.325 . S
C637 C640 1.357 . S
C638 H606 0.928 . S
C638 C636 1.406 . S
C638 N639 1.261 . S
N639 Co590 2.214 . S
N639 C637 1.325 . S
N639 C638 1.261 . S
C640 H610 0.931 . S
C640 C637 1.357 . S
C640 C641 1.312 . S
C641 H612 0.930 . S
C641 C636 1.261 . S
C641 C640 1.312 . S
C642 O614 1.214 . S
C642 O622 1.234 . S
C643 H615 0.929 . S
C643 C646 1.391 . S
C643 C648 1.391 . S
C644 H616 0.929 . S
C644 C645 1.390 . S
C644 N647 1.391 . S
C645 H617 0.930 . S
C645 C644 1.390 . S
C645 C646 1.392 . S
C646 H618 0.929 . S
C646 C643 1.391 . S
C646 C645 1.392 . S
N647 Co591 2.257 1_545 S
N647 C644 1.391 . S
N647 C648 1.388 . S
C648 H619 0.930 1_545 S
C648 C643 1.391 . S
C648 N647 1.388 . S
Co649 O651 2.143 . S
Co649 O657 2.074 . S
Co649 O660 2.093 . S
Co649 O673 2.097 . S
Co649 N690 2.151 . S
Co649 N698 2.214 . S
Co650 O651 2.160 . S
Co650 O656 2.058 . S
Co650 O666 2.057 . S
Co650 O681 2.037 . S
Co650 N685 2.145 1_455 S
Co650 N706 2.257 1_455 S
O651 Co649 2.143 . S
O651 Co650 2.160 . S
C652 O653 1.278 . S
C652 O660 1.224 . S
O653 C652 1.278 . S
C654 O655 1.245 . S
C654 O666 1.232 . S
O655 C654 1.245 . S
O656 Co650 2.058 . S
O656 C682 1.269 . S
O657 Co649 2.074 . S
O657 C682 1.257 . S
H658 C683 0.930 . S
H659 C689 0.930 . S
O660 Co649 2.093 . S
O660 C652 1.224 . S
H661 C693 0.929 . S
H662 C695 0.930 . S
H663 C696 0.930 . S
H664 C694 0.929 . S
H665 C697 0.928 . S
O666 Co650 2.057 . S
O666 C654 1.232 . S
H667 C686 0.929 1_455 S
H668 C687 0.929 . S
H669 C699 0.931 . S
H670 C691 0.929 . S
H671 C700 0.930 . S
H672 C692 0.931 . S
O673 Co649 2.097 . S
O673 C701 1.214 . S
H674 C702 0.929 . S
H675 C703 0.929 . S
H676 C704 0.930 . S
H677 C705 0.929 . S
H678 C707 0.930 1_455 S
H679 C684 0.930 . S
H680 C688 0.930 . S
O681 Co650 2.037 . S
O681 C701 1.234 . S
C682 O656 1.269 . S
C682 O657 1.257 . S
C683 H658 0.930 . S
C683 C686 1.388 . S
C683 C688 1.418 . S
C684 H679 0.930 . S
C684 C687 1.404 . S
C684 C688 1.353 . S
N685 Co650 2.145 1_655 S
N685 C686 1.397 . S
N685 C687 1.334 . S
C686 H667 0.929 1_655 S
C686 C683 1.388 . S
C686 N685 1.397 . S
C687 H668 0.929 . S
C687 C684 1.404 . S
C687 N685 1.334 . S
C688 H680 0.930 . S
C688 C683 1.418 . S
C688 C684 1.353 . S
C689 H659 0.930 . S
C689 N690 1.330 . S
C689 C691 1.446 . S
N690 Co649 2.151 . S
N690 C689 1.330 . S
N690 C694 1.418 . S
C691 H670 0.929 . S
C691 C689 1.446 . S
C691 C692 1.332 . S
C692 H672 0.931 . S
C692 C691 1.332 . S
C692 C693 1.267 . S
C693 H661 0.929 . S
C693 C692 1.267 . S
C693 C694 1.251 . S
C694 H664 0.929 . S
C694 N690 1.418 . S
C694 C693 1.251 . S
C695 H662 0.930 . S
C695 C697 1.406 . S
C695 C700 1.261 . S
C696 H663 0.930 . S
C696 N698 1.325 . S
C696 C699 1.357 . S
C697 H665 0.928 . S
C697 C695 1.406 . S
C697 N698 1.261 . S
N698 Co649 2.214 . S
N698 C696 1.325 . S
N698 C697 1.261 . S
C699 H669 0.931 . S
C699 C696 1.357 . S
C699 C700 1.312 . S
C700 H671 0.930 . S
C700 C695 1.261 . S
C700 C699 1.312 . S
C701 O673 1.214 . S
C701 O681 1.234 . S
C702 H674 0.929 . S
C702 C705 1.391 . S
C702 C707 1.391 . S
C703 H675 0.929 . S
C703 C704 1.390 . S
C703 N706 1.391 . S
C704 H676 0.930 . S
C704 C703 1.390 . S
C704 C705 1.392 . S
C705 H677 0.929 . S
C705 C702 1.391 . S
C705 C704 1.392 . S
N706 Co650 2.257 1_655 S
N706 C703 1.391 . S
N706 C707 1.388 . S
C707 H678 0.930 1_655 S
C707 C702 1.391 . S
C707 N706 1.388 . S
Co708 O710 2.143 . S
Co708 O716 2.074 . S
Co708 O719 2.093 . S
Co708 O732 2.097 . S
Co708 N749 2.151 . S
Co708 N757 2.214 . S
Co709 O710 2.160 . S
Co709 O715 2.058 . S
Co709 O725 2.057 . S
Co709 O740 2.037 . S
Co709 N744 2.145 1_565 S
Co709 N765 2.257 1_565 S
O710 Co708 2.143 . S
O710 Co709 2.160 . S
C711 O712 1.278 . S
C711 O719 1.224 . S
O712 C711 1.278 . S
C713 O714 1.245 . S
C713 O725 1.232 . S
O714 C713 1.245 . S
O715 Co709 2.058 . S
O715 C741 1.269 . S
O716 Co708 2.074 . S
O716 C741 1.257 . S
H717 C742 0.930 . S
H718 C748 0.930 . S
O719 Co708 2.093 . S
O719 C711 1.224 . S
H720 C752 0.929 . S
H721 C754 0.930 . S
H722 C755 0.930 . S
H723 C753 0.929 . S
H724 C756 0.928 . S
O725 Co709 2.057 . S
O725 C713 1.232 . S
H726 C745 0.929 1_565 S
H727 C746 0.929 . S
H728 C758 0.931 . S
H729 C750 0.929 . S
H730 C759 0.930 . S
H731 C751 0.931 . S
O732 Co708 2.097 . S
O732 C760 1.214 . S
H733 C761 0.929 . S
H734 C762 0.929 . S
H735 C763 0.930 . S
H736 C764 0.929 . S
H737 C766 0.930 1_565 S
H738 C743 0.930 . S
H739 C747 0.930 . S
O740 Co709 2.037 . S
O740 C760 1.234 . S
C741 O715 1.269 . S
C741 O716 1.257 . S
C742 H717 0.930 . S
C742 C745 1.388 . S
C742 C747 1.418 . S
C743 H738 0.930 . S
C743 C746 1.404 . S
C743 C747 1.353 . S
N744 Co709 2.145 1_545 S
N744 C745 1.397 . S
N744 C746 1.334 . S
C745 H726 0.929 1_545 S
C745 C742 1.388 . S
C745 N744 1.397 . S
C746 H727 0.929 . S
C746 C743 1.404 . S
C746 N744 1.334 . S
C747 H739 0.930 . S
C747 C742 1.418 . S
C747 C743 1.353 . S
C748 H718 0.930 . S
C748 N749 1.330 . S
C748 C750 1.446 . S
N749 Co708 2.151 . S
N749 C748 1.330 . S
N749 C753 1.418 . S
C750 H729 0.929 . S
C750 C748 1.446 . S
C750 C751 1.332 . S
C751 H731 0.931 . S
C751 C750 1.332 . S
C751 C752 1.267 . S
C752 H720 0.929 . S
C752 C751 1.267 . S
C752 C753 1.251 . S
C753 H723 0.929 . S
C753 N749 1.418 . S
C753 C752 1.251 . S
C754 H721 0.930 . S
C754 C756 1.406 . S
C754 C759 1.261 . S
C755 H722 0.930 . S
C755 N757 1.325 . S
C755 C758 1.357 . S
C756 H724 0.928 . S
C756 C754 1.406 . S
C756 N757 1.261 . S
N757 Co708 2.214 . S
N757 C755 1.325 . S
N757 C756 1.261 . S
C758 H728 0.931 . S
C758 C755 1.357 . S
C758 C759 1.312 . S
C759 H730 0.930 . S
C759 C754 1.261 . S
C759 C758 1.312 . S
C760 O732 1.214 . S
C760 O740 1.234 . S
C761 H733 0.929 . S
C761 C764 1.391 . S
C761 C766 1.391 . S
C762 H734 0.929 . S
C762 C763 1.390 . S
C762 N765 1.391 . S
C763 H735 0.930 . S
C763 C762 1.390 . S
C763 C764 1.392 . S
C764 H736 0.929 . S
C764 C761 1.391 . S
C764 C763 1.392 . S
N765 Co709 2.257 1_545 S
N765 C762 1.391 . S
N765 C766 1.388 . S
C766 H737 0.930 1_545 S
C766 C761 1.391 . S
C766 N765 1.388 . S
Co767 O769 2.143 . S
Co767 O775 2.074 . S
Co767 O778 2.093 . S
Co767 O791 2.097 . S
Co767 N808 2.151 . S
Co767 N816 2.214 . S
Co768 O769 2.160 . S
Co768 O774 2.058 . S
Co768 O784 2.057 . S
Co768 O799 2.037 . S
Co768 N803 2.145 1_455 S
Co768 N824 2.257 1_455 S
O769 Co767 2.143 . S
O769 Co768 2.160 . S
C770 O771 1.278 . S
C770 O778 1.224 . S
O771 C770 1.278 . S
C772 O773 1.245 . S
C772 O784 1.232 . S
O773 C772 1.245 . S
O774 Co768 2.058 . S
O774 C800 1.269 . S
O775 Co767 2.074 . S
O775 C800 1.257 . S
H776 C801 0.930 . S
H777 C807 0.930 . S
O778 Co767 2.093 . S
O778 C770 1.224 . S
H779 C811 0.929 . S
H780 C813 0.930 . S
H781 C814 0.930 . S
H782 C812 0.929 . S
H783 C815 0.928 . S
O784 Co768 2.057 . S
O784 C772 1.232 . S
H785 C804 0.929 1_455 S
H786 C805 0.929 . S
H787 C817 0.931 . S
H788 C809 0.929 . S
H789 C818 0.930 . S
H790 C810 0.931 . S
O791 Co767 2.097 . S
O791 C819 1.214 . S
H792 C820 0.929 . S
H793 C821 0.929 . S
H794 C822 0.930 . S
H795 C823 0.929 . S
H796 C825 0.930 1_455 S
H797 C802 0.930 . S
H798 C806 0.930 . S
O799 Co768 2.037 . S
O799 C819 1.234 . S
C800 O774 1.269 . S
C800 O775 1.257 . S
C801 H776 0.930 . S
C801 C804 1.388 . S
C801 C806 1.418 . S
C802 H797 0.930 . S
C802 C805 1.404 . S
C802 C806 1.353 . S
N803 Co768 2.145 1_655 S
N803 C804 1.397 . S
N803 C805 1.334 . S
C804 H785 0.929 1_655 S
C804 C801 1.388 . S
C804 N803 1.397 . S
C805 H786 0.929 . S
C805 C802 1.404 . S
C805 N803 1.334 . S
C806 H798 0.930 . S
C806 C801 1.418 . S
C806 C802 1.353 . S
C807 H777 0.930 . S
C807 N808 1.330 . S
C807 C809 1.446 . S
N808 Co767 2.151 . S
N808 C807 1.330 . S
N808 C812 1.418 . S
C809 H788 0.929 . S
C809 C807 1.446 . S
C809 C810 1.332 . S
C810 H790 0.931 . S
C810 C809 1.332 . S
C810 C811 1.267 . S
C811 H779 0.929 . S
C811 C810 1.267 . S
C811 C812 1.251 . S
C812 H782 0.929 . S
C812 N808 1.418 . S
C812 C811 1.251 . S
C813 H780 0.930 . S
C813 C815 1.406 . S
C813 C818 1.261 . S
C814 H781 0.930 . S
C814 N816 1.325 . S
C814 C817 1.357 . S
C815 H783 0.928 . S
C815 C813 1.406 . S
C815 N816 1.261 . S
N816 Co767 2.214 . S
N816 C814 1.325 . S
N816 C815 1.261 . S
C817 H787 0.931 . S
C817 C814 1.357 . S
C817 C818 1.312 . S
C818 H789 0.930 . S
C818 C813 1.261 . S
C818 C817 1.312 . S
C819 O791 1.214 . S
C819 O799 1.234 . S
C820 H792 0.929 . S
C820 C823 1.391 . S
C820 C825 1.391 . S
C821 H793 0.929 . S
C821 C822 1.390 . S
C821 N824 1.391 . S
C822 H794 0.930 . S
C822 C821 1.390 . S
C822 C823 1.392 . S
C823 H795 0.929 . S
C823 C820 1.391 . S
C823 C822 1.392 . S
N824 Co768 2.257 1_655 S
N824 C821 1.391 . S
N824 C825 1.388 . S
C825 H796 0.930 1_655 S
C825 C820 1.391 . S
C825 N824 1.388 . S
Co826 O828 2.143 . S
Co826 O834 2.074 . S
Co826 O837 2.093 . S
Co826 O850 2.097 . S
Co826 N867 2.151 . S
Co826 N875 2.214 . S
Co827 O828 2.160 . S
Co827 O833 2.058 . S
Co827 O843 2.057 . S
Co827 O858 2.037 . S
Co827 N862 2.145 . S
Co827 N883 2.257 . S
O828 Co826 2.143 . S
O828 Co827 2.160 . S
C829 O830 1.278 . S
C829 O837 1.224 . S
O830 C829 1.278 . S
C831 O832 1.245 . S
C831 O843 1.232 . S
O832 C831 1.245 . S
O833 Co827 2.058 . S
O833 C859 1.269 . S
O834 Co826 2.074 . S
O834 C859 1.257 . S
H835 C860 0.930 . S
H836 C866 0.930 . S
O837 Co826 2.093 . S
O837 C829 1.224 . S
H838 C870 0.929 . S
H839 C872 0.930 . S
H840 C873 0.930 . S
H841 C871 0.929 . S
H842 C874 0.928 . S
O843 Co827 2.057 . S
O843 C831 1.232 . S
H844 C863 0.929 . S
H845 C864 0.929 . S
H846 C876 0.931 . S
H847 C868 0.929 . S
H848 C877 0.930 . S
H849 C869 0.931 . S
O850 Co826 2.097 . S
O850 C878 1.214 . S
H851 C879 0.929 . S
H852 C880 0.929 . S
H853 C881 0.930 . S
H854 C882 0.929 . S
H855 C884 0.930 . S
H856 C861 0.930 . S
H857 C865 0.930 . S
O858 Co827 2.037 . S
O858 C878 1.234 . S
C859 O833 1.269 . S
C859 O834 1.257 . S
C860 H835 0.930 . S
C860 C863 1.388 . S
C860 C865 1.418 . S
C861 H856 0.930 . S
C861 C864 1.404 . S
C861 C865 1.353 . S
N862 Co827 2.145 . S
N862 C863 1.397 . S
N862 C864 1.334 . S
C863 H844 0.929 . S
C863 C860 1.388 . S
C863 N862 1.397 . S
C864 H845 0.929 . S
C864 C861 1.404 . S
C864 N862 1.334 . S
C865 H857 0.930 . S
C865 C860 1.418 . S
C865 C861 1.353 . S
C866 H836 0.930 . S
C866 N867 1.330 . S
C866 C868 1.446 . S
N867 Co826 2.151 . S
N867 C866 1.330 . S
N867 C871 1.418 . S
C868 H847 0.929 . S
C868 C866 1.446 . S
C868 C869 1.332 . S
C869 H849 0.931 . S
C869 C868 1.332 . S
C869 C870 1.267 . S
C870 H838 0.929 . S
C870 C869 1.267 . S
C870 C871 1.251 . S
C871 H841 0.929 . S
C871 N867 1.418 . S
C871 C870 1.251 . S
C872 H839 0.930 . S
C872 C874 1.406 . S
C872 C877 1.261 . S
C873 H840 0.930 . S
C873 N875 1.325 . S
C873 C876 1.357 . S
C874 H842 0.928 . S
C874 C872 1.406 . S
C874 N875 1.261 . S
N875 Co826 2.214 . S
N875 C873 1.325 . S
N875 C874 1.261 . S
C876 H846 0.931 . S
C876 C873 1.357 . S
C876 C877 1.312 . S
C877 H848 0.930 . S
C877 C872 1.261 . S
C877 C876 1.312 . S
C878 O850 1.214 . S
C878 O858 1.234 . S
C879 H851 0.929 . S
C879 C882 1.391 . S
C879 C884 1.391 . S
C880 H852 0.929 . S
C880 C881 1.390 . S
C880 N883 1.391 . S
C881 H853 0.930 . S
C881 C880 1.390 . S
C881 C882 1.392 . S
C882 H854 0.929 . S
C882 C879 1.391 . S
C882 C881 1.392 . S
N883 Co827 2.257 . S
N883 C880 1.391 . S
N883 C884 1.388 . S
C884 H855 0.930 . S
C884 C879 1.391 . S
C884 N883 1.388 . S
Co885 O887 2.143 . S
Co885 O893 2.074 . S
Co885 O896 2.093 . S
Co885 O909 2.097 . S
Co885 N926 2.151 . S
Co885 N934 2.214 . S
Co886 O887 2.160 . S
Co886 O892 2.058 . S
Co886 O902 2.057 . S
Co886 O917 2.037 . S
Co886 N921 2.145 . S
Co886 N942 2.257 . S
O887 Co885 2.143 . S
O887 Co886 2.160 . S
C888 O889 1.278 . S
C888 O896 1.224 . S
O889 C888 1.278 . S
C890 O891 1.245 . S
C890 O902 1.232 . S
O891 C890 1.245 . S
O892 Co886 2.058 . S
O892 C918 1.269 . S
O893 Co885 2.074 . S
O893 C918 1.257 . S
H894 C919 0.930 . S
H895 C925 0.930 . S
O896 Co885 2.093 . S
O896 C888 1.224 . S
H897 C929 0.929 . S
H898 C931 0.930 . S
H899 C932 0.930 . S
H900 C930 0.929 . S
H901 C933 0.928 . S
O902 Co886 2.057 . S
O902 C890 1.232 . S
H903 C922 0.929 . S
H904 C923 0.929 . S
H905 C935 0.931 . S
H906 C927 0.929 . S
H907 C936 0.930 . S
H908 C928 0.931 . S
O909 Co885 2.097 . S
O909 C937 1.214 . S
H910 C938 0.929 . S
H911 C939 0.929 . S
H912 C940 0.930 . S
H913 C941 0.929 . S
H914 C943 0.930 . S
H915 C920 0.930 . S
H916 C924 0.930 . S
O917 Co886 2.037 . S
O917 C937 1.234 . S
C918 O892 1.269 . S
C918 O893 1.257 . S
C919 H894 0.930 . S
C919 C922 1.388 . S
C919 C924 1.418 . S
C920 H915 0.930 . S
C920 C923 1.404 . S
C920 C924 1.353 . S
N921 Co886 2.145 . S
N921 C922 1.397 . S
N921 C923 1.334 . S
C922 H903 0.929 . S
C922 C919 1.388 . S
C922 N921 1.397 . S
C923 H904 0.929 . S
C923 C920 1.404 . S
C923 N921 1.334 . S
C924 H916 0.930 . S
C924 C919 1.418 . S
C924 C920 1.353 . S
C925 H895 0.930 . S
C925 N926 1.330 . S
C925 C927 1.446 . S
N926 Co885 2.151 . S
N926 C925 1.330 . S
N926 C930 1.418 . S
C927 H906 0.929 . S
C927 C925 1.446 . S
C927 C928 1.332 . S
C928 H908 0.931 . S
C928 C927 1.332 . S
C928 C929 1.267 . S
C929 H897 0.929 . S
C929 C928 1.267 . S
C929 C930 1.251 . S
C930 H900 0.929 . S
C930 N926 1.418 . S
C930 C929 1.251 . S
C931 H898 0.930 . S
C931 C933 1.406 . S
C931 C936 1.261 . S
C932 H899 0.930 . S
C932 N934 1.325 . S
C932 C935 1.357 . S
C933 H901 0.928 . S
C933 C931 1.406 . S
C933 N934 1.261 . S
N934 Co885 2.214 . S
N934 C932 1.325 . S
N934 C933 1.261 . S
C935 H905 0.931 . S
C935 C932 1.357 . S
C935 C936 1.312 . S
C936 H907 0.930 . S
C936 C931 1.261 . S
C936 C935 1.312 . S
C937 O909 1.214 . S
C937 O917 1.234 . S
C938 H910 0.929 . S
C938 C941 1.391 . S
C938 C943 1.391 . S
C939 H911 0.929 . S
C939 C940 1.390 . S
C939 N942 1.391 . S
C940 H912 0.930 . S
C940 C939 1.390 . S
C940 C941 1.392 . S
C941 H913 0.929 . S
C941 C938 1.391 . S
C941 C940 1.392 . S
N942 Co886 2.257 . S
N942 C939 1.391 . S
N942 C943 1.388 . S
C943 H914 0.930 . S
C943 C938 1.391 . S
C943 N942 1.388 . S
H944 C950 0.930 . S
H945 C953 0.930 . S
H946 C954 0.930 1_455 S
H947 C955 0.930 . S
H948 C958 0.930 . S
H949 C959 0.930 1_655 S
C950 H944 0.930 . S
C950 C951 1.355 . S
C950 C952 1.415 1_565 S
C951 C950 1.355 . S
C951 C953 1.419 . S
C952 C950 1.415 1_545 S
C952 C957 1.425 1_645 S
C952 C959 1.409 1_655 S
C953 H945 0.930 . S
C953 C951 1.419 . S
C953 C954 1.362 . S
C954 H946 0.930 1_655 S
C954 C953 1.362 . S
C954 C957 1.409 1_655 S
C955 H947 0.930 . S
C955 C956 1.355 . S
C955 C957 1.415 1_545 S
C956 C955 1.355 . S
C956 C958 1.419 . S
C957 C952 1.425 1_465 S
C957 C954 1.409 1_455 S
C957 C955 1.415 1_565 S
C958 H948 0.930 . S
C958 C956 1.419 . S
C958 C959 1.362 . S
C959 H949 0.930 1_455 S
C959 C952 1.409 1_455 S
C959 C958 1.362 . S
H960 C966 0.930 . S
H961 C969 0.930 . S
H962 C970 0.930 . S
H963 C971 0.930 . S
H964 C974 0.930 . S
H965 C975 0.930 . S
C966 H960 0.930 . S
C966 C967 1.355 . S
C966 C968 1.415 . S
C967 C966 1.355 . S
C967 C969 1.419 . S
C968 C966 1.415 . S
C968 C973 1.425 1_655 S
C968 C975 1.409 1_655 S
C969 H961 0.930 . S
C969 C967 1.419 . S
C969 C970 1.362 . S
C970 H962 0.930 . S
C970 C969 1.362 . S
C970 C973 1.409 1_655 S
C971 H963 0.930 . S
C971 C972 1.355 . S
C971 C973 1.415 . S
C972 C971 1.355 . S
C972 C974 1.419 . S
C973 C968 1.425 1_455 S
C973 C970 1.409 1_455 S
C973 C971 1.415 . S
C974 H964 0.930 . S
C974 C972 1.419 . S
C974 C975 1.362 . S
C975 H965 0.930 . S
C975 C968 1.409 1_455 S
C975 C974 1.362 . S
H976 C982 0.930 . S
H977 C985 0.930 . S
H978 C986 0.930 . S
H979 C987 0.930 . S
H980 C990 0.930 . S
H981 C991 0.930 . S
C982 H976 0.930 . S
C982 C983 1.355 . S
C982 C984 1.415 . S
C983 C982 1.355 . S
C983 C985 1.419 . S
C984 C982 1.415 . S
C984 C989 1.425 . S
C984 C991 1.409 . S
C985 H977 0.930 . S
C985 C983 1.419 . S
C985 C986 1.362 . S
C986 H978 0.930 . S
C986 C985 1.362 . S
C986 C989 1.409 . S
C987 H979 0.930 . S
C987 C988 1.355 . S
C987 C989 1.415 . S
C988 C987 1.355 . S
C988 C990 1.419 . S
C989 C984 1.425 . S
C989 C986 1.409 . S
C989 C987 1.415 . S
C990 H980 0.930 . S
C990 C988 1.419 . S
C990 C991 1.362 . S
C991 H981 0.930 . S
C991 C984 1.409 . S
C991 C990 1.362 . S
H992 C998 0.930 . S
H993 C1001 0.930 . S
H994 C1002 0.930 . S
H995 C1003 0.930 . S
H996 C1006 0.930 . S
H997 C1007 0.930 . S
C998 H992 0.930 . S
C998 C999 1.355 . S
C998 C1000 1.415 . S
C999 C998 1.355 . S
C999 C1001 1.419 . S
C1000 C998 1.415 . S
C1000 C1005 1.425 1_545 S
C1000 C1007 1.409 1_545 S
C1001 H993 0.930 . S
C1001 C999 1.419 . S
C1001 C1002 1.362 . S
C1002 H994 0.930 . S
C1002 C1001 1.362 . S
C1002 C1005 1.409 1_545 S
C1003 H995 0.930 . S
C1003 C1004 1.355 . S
C1003 C1005 1.415 . S
C1004 C1003 1.355 . S
C1004 C1006 1.419 . S
C1005 C1000 1.425 1_565 S
C1005 C1002 1.409 1_565 S
C1005 C1003 1.415 . S
C1006 H996 0.930 . S
C1006 C1004 1.419 . S
C1006 C1007 1.362 . S
C1007 H997 0.930 . S
C1007 C1000 1.409 1_565 S
C1007 C1006 1.362 . S
H1008 C1014 0.930 . S
H1009 C1017 0.930 . S
H1010 C1018 0.930 . S
H1011 C1019 0.930 . S
H1012 C1022 0.930 . S
H1013 C1023 0.930 . S
C1014 H1008 0.930 . S
C1014 C1015 1.355 . S
C1014 C1016 1.415 1_455 S
C1015 C1014 1.355 . S
C1015 C1017 1.419 . S
C1016 C1014 1.415 1_655 S
C1016 C1021 1.425 1_655 S
C1016 C1023 1.409 . S
C1017 H1009 0.930 . S
C1017 C1015 1.419 . S
C1017 C1018 1.362 . S
C1018 H1010 0.930 . S
C1018 C1017 1.362 . S
C1018 C1021 1.409 . S
C1019 H1011 0.930 . S
C1019 C1020 1.355 . S
C1019 C1021 1.415 1_655 S
C1020 C1019 1.355 . S
C1020 C1022 1.419 . S
C1021 C1016 1.425 1_455 S
C1021 C1018 1.409 . S
C1021 C1019 1.415 1_455 S
C1022 H1012 0.930 . S
C1022 C1020 1.419 . S
C1022 C1023 1.362 . S
C1023 H1013 0.930 . S
C1023 C1016 1.409 . S
C1023 C1022 1.362 . S
H1024 C1030 0.930 . S
H1025 C1033 0.930 . S
H1026 C1034 0.930 . S
H1027 C1035 0.930 . S
H1028 C1038 0.930 . S
H1029 C1039 0.930 . S
C1030 H1024 0.930 . S
C1030 C1031 1.355 . S
C1030 C1032 1.415 . S
C1031 C1030 1.355 . S
C1031 C1033 1.419 . S
C1032 C1030 1.415 . S
C1032 C1037 1.425 . S
C1032 C1039 1.409 . S
C1033 H1025 0.930 . S
C1033 C1031 1.419 . S
C1033 C1034 1.362 . S
C1034 H1026 0.930 . S
C1034 C1033 1.362 . S
C1034 C1037 1.409 . S
C1035 H1027 0.930 . S
C1035 C1036 1.355 . S
C1035 C1037 1.415 . S
C1036 C1035 1.355 . S
C1036 C1038 1.419 . S
C1037 C1032 1.425 . S
C1037 C1034 1.409 . S
C1037 C1035 1.415 . S
C1038 H1028 0.930 . S
C1038 C1036 1.419 . S
C1038 C1039 1.362 . S
C1039 H1029 0.930 . S
C1039 C1032 1.409 . S
C1039 C1038 1.362 . S
H1040 C1046 0.930 1_565 S
H1041 C1049 0.930 . S
H1042 C1050 0.930 . S
H1043 C1051 0.930 1_545 S
H1044 C1054 0.930 . S
H1045 C1055 0.930 . S
C1046 H1040 0.930 1_545 S
C1046 C1047 1.355 . S
C1046 C1048 1.415 1_545 S
C1047 C1046 1.355 . S
C1047 C1049 1.419 . S
C1048 C1046 1.415 1_565 S
C1048 C1053 1.425 1_565 S
C1048 C1055 1.409 . S
C1049 H1041 0.930 . S
C1049 C1047 1.419 . S
C1049 C1050 1.362 . S
C1050 H1042 0.930 . S
C1050 C1049 1.362 . S
C1050 C1053 1.409 . S
C1051 H1043 0.930 1_565 S
C1051 C1052 1.355 . S
C1051 C1053 1.415 1_565 S
C1052 C1051 1.355 . S
C1052 C1054 1.419 . S
C1053 C1048 1.425 1_545 S
C1053 C1050 1.409 . S
C1053 C1051 1.415 1_545 S
C1054 H1044 0.930 . S
C1054 C1052 1.419 . S
C1054 C1055 1.362 . S
C1055 H1045 0.930 . S
C1055 C1048 1.409 . S
C1055 C1054 1.362 . S
H1056 C1062 0.930 1_655 S
H1057 C1065 0.930 . S
H1058 C1066 0.930 . S
H1059 C1067 0.930 1_455 S
H1060 C1070 0.930 . S
H1061 C1071 0.930 . S
C1062 H1056 0.930 1_455 S
C1062 C1063 1.355 . S
C1062 C1064 1.415 1_455 S
C1063 C1062 1.355 . S
C1063 C1065 1.419 . S
C1064 C1062 1.415 1_655 S
C1064 C1069 1.425 1_645 S
C1064 C1071 1.409 . S
C1065 H1057 0.930 . S
C1065 C1063 1.419 . S
C1065 C1066 1.362 1_545 S
C1066 H1058 0.930 . S
C1066 C1065 1.362 1_565 S
C1066 C1069 1.409 . S
C1067 H1059 0.930 1_655 S
C1067 C1068 1.355 . S
C1067 C1069 1.415 1_655 S
C1068 C1067 1.355 . S
C1068 C1070 1.419 . S
C1069 C1064 1.425 1_465 S
C1069 C1066 1.409 . S
C1069 C1067 1.415 1_455 S
C1070 H1060 0.930 . S
C1070 C1068 1.419 . S
C1070 C1071 1.362 1_565 S
C1071 H1061 0.930 . S
C1071 C1064 1.409 . S
C1071 C1070 1.362 1_545 S
H1072 C1078 0.930 . S
H1073 C1081 0.930 . S
H1074 C1082 0.930 . S
H1075 C1083 0.930 . S
H1076 C1086 0.930 . S
H1077 C1087 0.930 . S
C1078 H1072 0.930 . S
C1078 C1079 1.355 . S
C1078 C1080 1.415 . S
C1079 C1078 1.355 . S
C1079 C1081 1.419 1_565 S
C1080 C1078 1.415 . S
C1080 C1085 1.425 1_565 S
C1080 C1087 1.409 . S
C1081 H1073 0.930 . S
C1081 C1079 1.419 1_545 S
C1081 C1082 1.362 . S
C1082 H1074 0.930 . S
C1082 C1081 1.362 . S
C1082 C1085 1.409 . S
C1083 H1075 0.930 . S
C1083 C1084 1.355 . S
C1083 C1085 1.415 . S
C1084 C1083 1.355 . S
C1084 C1086 1.419 1_545 S
C1085 C1080 1.425 1_545 S
C1085 C1082 1.409 . S
C1085 C1083 1.415 . S
C1086 H1076 0.930 . S
C1086 C1084 1.419 1_565 S
C1086 C1087 1.362 . S
C1087 H1077 0.930 . S
C1087 C1080 1.409 . S
C1087 C1086 1.362 . S
H1088 C1094 0.930 1_455 S
H1089 C1097 0.930 . S
H1090 C1098 0.930 . S
H1091 C1099 0.930 1_655 S
H1092 C1102 0.930 . S
H1093 C1103 0.930 . S
C1094 H1088 0.930 1_655 S
C1094 C1095 1.355 . S
C1094 C1096 1.415 1_655 S
C1095 C1094 1.355 . S
C1095 C1097 1.419 . S
C1096 C1094 1.415 1_455 S
C1096 C1101 1.425 1_465 S
C1096 C1103 1.409 . S
C1097 H1089 0.930 . S
C1097 C1095 1.419 . S
C1097 C1098 1.362 1_565 S
C1098 H1090 0.930 . S
C1098 C1097 1.362 1_545 S
C1098 C1101 1.409 . S
C1099 H1091 0.930 1_455 S
C1099 C1100 1.355 . S
C1099 C1101 1.415 1_455 S
C1100 C1099 1.355 . S
C1100 C1102 1.419 . S
C1101 C1096 1.425 1_645 S
C1101 C1098 1.409 . S
C1101 C1099 1.415 1_655 S
C1102 H1092 0.930 . S
C1102 C1100 1.419 . S
C1102 C1103 1.362 1_545 S
C1103 H1093 0.930 . S
C1103 C1096 1.409 . S
C1103 C1102 1.362 1_565 S
H1104 C1110 0.930 . S
H1105 C1113 0.930 . S
H1106 C1114 0.930 . S
H1107 C1115 0.930 . S
H1108 C1118 0.930 . S
H1109 C1119 0.930 . S
C1110 H1104 0.930 . S
C1110 C1111 1.355 . S
C1110 C1112 1.415 . S
C1111 C1110 1.355 . S
C1111 C1113 1.419 . S
C1112 C1110 1.415 . S
C1112 C1117 1.425 1_455 S
C1112 C1119 1.409 . S
C1113 H1105 0.930 . S
C1113 C1111 1.419 . S
C1113 C1114 1.362 1_455 S
C1114 H1106 0.930 . S
C1114 C1113 1.362 1_655 S
C1114 C1117 1.409 . S
C1115 H1107 0.930 . S
C1115 C1116 1.355 . S
C1115 C1117 1.415 . S
C1116 C1115 1.355 . S
C1116 C1118 1.419 . S
C1117 C1112 1.425 1_655 S
C1117 C1114 1.409 . S
C1117 C1115 1.415 . S
C1118 H1108 0.930 . S
C1118 C1116 1.419 . S
C1118 C1119 1.362 1_655 S
C1119 H1109 0.930 . S
C1119 C1112 1.409 . S
C1119 C1118 1.362 1_455 S
H1120 C1126 0.930 . S
H1121 C1129 0.930 . S
H1122 C1130 0.930 . S
H1123 C1131 0.930 . S
H1124 C1134 0.930 . S
H1125 C1135 0.930 . S
C1126 H1120 0.930 . S
C1126 C1127 1.355 . S
C1126 C1128 1.415 . S
C1127 C1126 1.355 . S
C1127 C1129 1.419 . S
C1128 C1126 1.415 . S
C1128 C1133 1.425 . S
C1128 C1135 1.409 . S
C1129 H1121 0.930 . S
C1129 C1127 1.419 . S
C1129 C1130 1.362 . S
C1130 H1122 0.930 . S
C1130 C1129 1.362 . S
C1130 C1133 1.409 . S
C1131 H1123 0.930 . S
C1131 C1132 1.355 . S
C1131 C1133 1.415 . S
C1132 C1131 1.355 . S
C1132 C1134 1.419 . S
C1133 C1128 1.425 . S
C1133 C1130 1.409 . S
C1133 C1131 1.415 . S
C1134 H1124 0.930 . S
C1134 C1132 1.419 . S
C1134 C1135 1.362 . S
C1135 H1125 0.930 . S
C1135 C1128 1.409 . S
C1135 C1134 1.362 . S
H1136 C1142 0.930 . S
H1137 C1145 0.930 . S
H1138 C1146 0.930 . S
H1139 C1147 0.930 . S
H1140 C1150 0.930 . S
H1141 C1151 0.930 . S
C1142 H1136 0.930 . S
C1142 C1143 1.355 . S
C1142 C1144 1.415 . S
C1143 C1142 1.355 . S
C1143 C1145 1.419 . S
C1144 C1142 1.415 . S
C1144 C1149 1.425 . S
C1144 C1151 1.409 . S
C1145 H1137 0.930 . S
C1145 C1143 1.419 . S
C1145 C1146 1.362 . S
C1146 H1138 0.930 . S
C1146 C1145 1.362 . S
C1146 C1149 1.409 . S
C1147 H1139 0.930 . S
C1147 C1148 1.355 . S
C1147 C1149 1.415 . S
C1148 C1147 1.355 . S
C1148 C1150 1.419 . S
C1149 C1144 1.425 . S
C1149 C1146 1.409 . S
C1149 C1147 1.415 . S
C1150 H1140 0.930 . S
C1150 C1148 1.419 . S
C1150 C1151 1.362 . S
C1151 H1141 0.930 . S
C1151 C1144 1.409 . S
C1151 C1150 1.362 . S
H1152 C1158 0.930 . S
H1153 C1161 0.930 . S
H1154 C1162 0.930 . S
H1155 C1163 0.930 . S
H1156 C1166 0.930 . S
H1157 C1167 0.930 . S
C1158 H1152 0.930 . S
C1158 C1159 1.355 . S
C1158 C1160 1.415 . S
C1159 C1158 1.355 . S
C1159 C1161 1.419 . S
C1160 C1158 1.415 . S
C1160 C1165 1.425 1_565 S
C1160 C1167 1.409 . S
C1161 H1153 0.930 . S
C1161 C1159 1.419 . S
C1161 C1162 1.362 1_565 S
C1162 H1154 0.930 . S
C1162 C1161 1.362 1_545 S
C1162 C1165 1.409 . S
C1163 H1155 0.930 . S
C1163 C1164 1.355 . S
C1163 C1165 1.415 . S
C1164 C1163 1.355 . S
C1164 C1166 1.419 . S
C1165 C1160 1.425 1_545 S
C1165 C1162 1.409 . S
C1165 C1163 1.415 . S
C1166 H1156 0.930 . S
C1166 C1164 1.419 . S
C1166 C1167 1.362 1_545 S
C1167 H1157 0.930 . S
C1167 C1160 1.409 . S
C1167 C1166 1.362 1_565 S
H1168 C1174 0.930 . S
H1169 C1177 0.930 . S
H1170 C1178 0.930 1_455 S
H1171 C1179 0.930 . S
H1172 C1182 0.930 . S
H1173 C1183 0.930 1_655 S
C1174 H1168 0.930 . S
C1174 C1175 1.355 . S
C1174 C1176 1.415 1_565 S
C1175 C1174 1.355 . S
C1175 C1177 1.419 . S
C1176 C1174 1.415 1_545 S
C1176 C1181 1.425 1_645 S
C1176 C1183 1.409 1_655 S
C1177 H1169 0.930 . S
C1177 C1175 1.419 . S
C1177 C1178 1.362 . S
C1178 H1170 0.930 1_655 S
C1178 C1177 1.362 . S
C1178 C1181 1.409 1_655 S
C1179 H1171 0.930 . S
C1179 C1180 1.355 . S
C1179 C1181 1.415 1_545 S
C1180 C1179 1.355 . S
C1180 C1182 1.419 . S
C1181 C1176 1.425 1_465 S
C1181 C1178 1.409 1_455 S
C1181 C1179 1.415 1_565 S
C1182 H1172 0.930 . S
C1182 C1180 1.419 . S
C1182 C1183 1.362 . S
C1183 H1173 0.930 1_455 S
C1183 C1176 1.409 1_455 S
C1183 C1182 1.362 . S
H1184 C1190 0.930 1_655 S
H1185 C1193 0.930 . S
H1186 C1194 0.930 . S
H1187 C1195 0.930 1_455 S
H1188 C1198 0.930 . S
H1189 C1199 0.930 . S
C1190 H1184 0.930 1_455 S
C1190 C1191 1.355 . S
C1190 C1192 1.415 1_455 S
C1191 C1190 1.355 . S
C1191 C1193 1.419 . S
C1192 C1190 1.415 1_655 S
C1192 C1197 1.425 1_655 S
C1192 C1199 1.409 . S
C1193 H1185 0.930 . S
C1193 C1191 1.419 . S
C1193 C1194 1.362 . S
C1194 H1186 0.930 . S
C1194 C1193 1.362 . S
C1194 C1197 1.409 . S
C1195 H1187 0.930 1_655 S
C1195 C1196 1.355 . S
C1195 C1197 1.415 1_655 S
C1196 C1195 1.355 . S
C1196 C1198 1.419 . S
C1197 C1192 1.425 1_455 S
C1197 C1194 1.409 . S
C1197 C1195 1.415 1_455 S
C1198 H1188 0.930 . S
C1198 C1196 1.419 . S
C1198 C1199 1.362 . S
C1199 H1189 0.930 . S
C1199 C1192 1.409 . S
C1199 C1198 1.362 . S
H1200 C1206 0.930 . S
H1201 C1209 0.930 . S
H1202 C1210 0.930 . S
H1203 C1211 0.930 . S
H1204 C1214 0.930 . S
H1205 C1215 0.930 . S
C1206 H1200 0.930 . S
C1206 C1207 1.355 . S
C1206 C1208 1.415 . S
C1207 C1206 1.355 . S
C1207 C1209 1.419 . S
C1208 C1206 1.415 . S
C1208 C1213 1.425 . S
C1208 C1215 1.409 . S
C1209 H1201 0.930 . S
C1209 C1207 1.419 . S
C1209 C1210 1.362 . S
C1210 H1202 0.930 . S
C1210 C1209 1.362 . S
C1210 C1213 1.409 . S
C1211 H1203 0.930 . S
C1211 C1212 1.355 . S
C1211 C1213 1.415 . S
C1212 C1211 1.355 . S
C1212 C1214 1.419 . S
C1213 C1208 1.425 . S
C1213 C1210 1.409 . S
C1213 C1211 1.415 . S
C1214 H1204 0.930 . S
C1214 C1212 1.419 . S
C1214 C1215 1.362 . S
C1215 H1205 0.930 . S
C1215 C1208 1.409 . S
C1215 C1214 1.362 . S
H1216 C1222 0.930 . S
H1217 C1225 0.930 . S
H1218 C1226 0.930 . S
H1219 C1227 0.930 . S
H1220 C1230 0.930 . S
H1221 C1231 0.930 . S
C1222 H1216 0.930 . S
C1222 C1223 1.355 . S
C1222 C1224 1.415 . S
C1223 C1222 1.355 . S
C1223 C1225 1.419 . S
C1224 C1222 1.415 . S
C1224 C1229 1.425 . S
C1224 C1231 1.409 . S
C1225 H1217 0.930 . S
C1225 C1223 1.419 . S
C1225 C1226 1.362 . S
C1226 H1218 0.930 . S
C1226 C1225 1.362 . S
C1226 C1229 1.409 . S
C1227 H1219 0.930 . S
C1227 C1228 1.355 . S
C1227 C1229 1.415 . S
C1228 C1227 1.355 . S
C1228 C1230 1.419 . S
C1229 C1224 1.425 . S
C1229 C1226 1.409 . S
C1229 C1227 1.415 . S
C1230 H1220 0.930 . S
C1230 C1228 1.419 . S
C1230 C1231 1.362 . S
C1231 H1221 0.930 . S
C1231 C1224 1.409 . S
C1231 C1230 1.362 . S
H1232 C1238 0.930 . S
H1233 C1241 0.930 . S
H1234 C1242 0.930 . S
H1235 C1243 0.930 . S
H1236 C1246 0.930 . S
H1237 C1247 0.930 . S
C1238 H1232 0.930 . S
C1238 C1239 1.355 . S
C1238 C1240 1.415 . S
C1239 C1238 1.355 . S
C1239 C1241 1.419 . S
C1240 C1238 1.415 . S
C1240 C1245 1.425 . S
C1240 C1247 1.409 . S
C1241 H1233 0.930 . S
C1241 C1239 1.419 . S
C1241 C1242 1.362 . S
C1242 H1234 0.930 . S
C1242 C1241 1.362 . S
C1242 C1245 1.409 . S
C1243 H1235 0.930 . S
C1243 C1244 1.355 . S
C1243 C1245 1.415 . S
C1244 C1243 1.355 . S
C1244 C1246 1.419 . S
C1245 C1240 1.425 . S
C1245 C1242 1.409 . S
C1245 C1243 1.415 . S
C1246 H1236 0.930 . S
C1246 C1244 1.419 . S
C1246 C1247 1.362 . S
C1247 H1237 0.930 . S
C1247 C1240 1.409 . S
C1247 C1246 1.362 . S
H1248 C1254 0.930 . S
H1249 C1257 0.930 . S
H1250 C1258 0.930 . S
H1251 C1259 0.930 . S
H1252 C1262 0.930 . S
H1253 C1263 0.930 . S
C1254 H1248 0.930 . S
C1254 C1255 1.355 . S
C1254 C1256 1.415 . S
C1255 C1254 1.355 . S
C1255 C1257 1.419 . S
C1256 C1254 1.415 . S
C1256 C1261 1.425 . S
C1256 C1263 1.409 . S
C1257 H1249 0.930 . S
C1257 C1255 1.419 . S
C1257 C1258 1.362 . S
C1258 H1250 0.930 . S
C1258 C1257 1.362 . S
C1258 C1261 1.409 . S
C1259 H1251 0.930 . S
C1259 C1260 1.355 . S
C1259 C1261 1.415 . S
C1260 C1259 1.355 . S
C1260 C1262 1.419 . S
C1261 C1256 1.425 . S
C1261 C1258 1.409 . S
C1261 C1259 1.415 . S
C1262 H1252 0.930 . S
C1262 C1260 1.419 . S
C1262 C1263 1.362 . S
C1263 H1253 0.930 . S
C1263 C1256 1.409 . S
C1263 C1262 1.362 . S
H1264 C1270 0.930 . S
H1265 C1273 0.930 . S
H1266 C1274 0.930 . S
H1267 C1275 0.930 . S
H1268 C1278 0.930 . S
H1269 C1279 0.930 . S
C1270 H1264 0.930 . S
C1270 C1271 1.355 . S
C1270 C1272 1.415 . S
C1271 C1270 1.355 . S
C1271 C1273 1.419 . S
C1272 C1270 1.415 . S
C1272 C1277 1.425 . S
C1272 C1279 1.409 . S
C1273 H1265 0.930 . S
C1273 C1271 1.419 . S
C1273 C1274 1.362 . S
C1274 H1266 0.930 . S
C1274 C1273 1.362 . S
C1274 C1277 1.409 . S
C1275 H1267 0.930 . S
C1275 C1276 1.355 . S
C1275 C1277 1.415 . S
C1276 C1275 1.355 . S
C1276 C1278 1.419 . S
C1277 C1272 1.425 . S
C1277 C1274 1.409 . S
C1277 C1275 1.415 . S
C1278 H1268 0.930 . S
C1278 C1276 1.419 . S
C1278 C1279 1.362 . S
C1279 H1269 0.930 . S
C1279 C1272 1.409 . S
C1279 C1278 1.362 . S
H1280 C1286 0.930 . S
H1281 C1289 0.930 . S
H1282 C1290 0.930 . S
H1283 C1291 0.930 . S
H1284 C1294 0.930 . S
H1285 C1295 0.930 . S
C1286 H1280 0.930 . S
C1286 C1287 1.355 . S
C1286 C1288 1.415 . S
C1287 C1286 1.355 . S
C1287 C1289 1.419 . S
C1288 C1286 1.415 . S
C1288 C1293 1.425 . S
C1288 C1295 1.409 . S
C1289 H1281 0.930 . S
C1289 C1287 1.419 . S
C1289 C1290 1.362 . S
C1290 H1282 0.930 . S
C1290 C1289 1.362 . S
C1290 C1293 1.409 . S
C1291 H1283 0.930 . S
C1291 C1292 1.355 . S
C1291 C1293 1.415 . S
C1292 C1291 1.355 . S
C1292 C1294 1.419 . S
C1293 C1288 1.425 . S
C1293 C1290 1.409 . S
C1293 C1291 1.415 . S
C1294 H1284 0.930 . S
C1294 C1292 1.419 . S
C1294 C1295 1.362 . S
C1295 H1285 0.930 . S
C1295 C1288 1.409 . S
C1295 C1294 1.362 . S
H1296 C1302 0.930 . S
H1297 C1305 0.930 . S
H1298 C1306 0.930 . S
H1299 C1307 0.930 . S
H1300 C1310 0.930 . S
H1301 C1311 0.930 . S
C1302 H1296 0.930 . S
C1302 C1303 1.355 . S
C1302 C1304 1.415 . S
C1303 C1302 1.355 . S
C1303 C1305 1.419 . S
C1304 C1302 1.415 . S
C1304 C1309 1.425 . S
C1304 C1311 1.409 . S
C1305 H1297 0.930 . S
C1305 C1303 1.419 . S
C1305 C1306 1.362 . S
C1306 H1298 0.930 . S
C1306 C1305 1.362 . S
C1306 C1309 1.409 . S
C1307 H1299 0.930 . S
C1307 C1308 1.355 . S
C1307 C1309 1.415 . S
C1308 C1307 1.355 . S
C1308 C1310 1.419 . S
C1309 C1304 1.425 . S
C1309 C1306 1.409 . S
C1309 C1307 1.415 . S
C1310 H1300 0.930 . S
C1310 C1308 1.419 . S
C1310 C1311 1.362 . S
C1311 H1301 0.930 . S
C1311 C1304 1.409 . S
C1311 C1310 1.362 . S
H1312 C1318 0.930 . S
H1313 C1321 0.930 . S
H1314 C1322 0.930 . S
H1315 C1323 0.930 . S
H1316 C1326 0.930 . S
H1317 C1327 0.930 . S
C1318 H1312 0.930 . S
C1318 C1319 1.355 . S
C1318 C1320 1.415 . S
C1319 C1318 1.355 . S
C1319 C1321 1.419 . S
C1320 C1318 1.415 . S
C1320 C1325 1.425 . S
C1320 C1327 1.409 . S
C1321 H1313 0.930 . S
C1321 C1319 1.419 . S
C1321 C1322 1.362 . S
C1322 H1314 0.930 . S
C1322 C1321 1.362 . S
C1322 C1325 1.409 . S
C1323 H1315 0.930 . S
C1323 C1324 1.355 . S
C1323 C1325 1.415 . S
C1324 C1323 1.355 . S
C1324 C1326 1.419 . S
C1325 C1320 1.425 . S
C1325 C1322 1.409 . S
C1325 C1323 1.415 . S
C1326 H1316 0.930 . S
C1326 C1324 1.419 . S
C1326 C1327 1.362 . S
C1327 H1317 0.930 . S
C1327 C1320 1.409 . S
C1327 C1326 1.362 . S
H1328 C1334 0.930 . S
H1329 C1337 0.930 . S
H1330 C1338 0.930 . S
H1331 C1339 0.930 . S
H1332 C1342 0.930 . S
H1333 C1343 0.930 . S
C1334 H1328 0.930 . S
C1334 C1335 1.355 . S
C1334 C1336 1.415 . S
C1335 C1334 1.355 . S
C1335 C1337 1.419 . S
C1336 C1334 1.415 . S
C1336 C1341 1.425 . S
C1336 C1343 1.409 . S
C1337 H1329 0.930 . S
C1337 C1335 1.419 . S
C1337 C1338 1.362 . S
C1338 H1330 0.930 . S
C1338 C1337 1.362 . S
C1338 C1341 1.409 . S
C1339 H1331 0.930 . S
C1339 C1340 1.355 . S
C1339 C1341 1.415 . S
C1340 C1339 1.355 . S
C1340 C1342 1.419 . S
C1341 C1336 1.425 . S
C1341 C1338 1.409 . S
C1341 C1339 1.415 . S
C1342 H1332 0.930 . S
C1342 C1340 1.419 . S
C1342 C1343 1.362 . S
C1343 H1333 0.930 . S
C1343 C1336 1.409 . S
C1343 C1342 1.362 . S
H1344 C1350 0.930 . S
H1345 C1353 0.930 . S
H1346 C1354 0.930 . S
H1347 C1355 0.930 . S
H1348 C1358 0.930 . S
H1349 C1359 0.930 . S
C1350 H1344 0.930 . S
C1350 C1351 1.355 . S
C1350 C1352 1.415 . S
C1351 C1350 1.355 . S
C1351 C1353 1.419 . S
C1352 C1350 1.415 . S
C1352 C1357 1.425 . S
C1352 C1359 1.409 . S
C1353 H1345 0.930 . S
C1353 C1351 1.419 . S
C1353 C1354 1.362 . S
C1354 H1346 0.930 . S
C1354 C1353 1.362 . S
C1354 C1357 1.409 . S
C1355 H1347 0.930 . S
C1355 C1356 1.355 . S
C1355 C1357 1.415 . S
C1356 C1355 1.355 . S
C1356 C1358 1.419 . S
C1357 C1352 1.425 . S
C1357 C1354 1.409 . S
C1357 C1355 1.415 . S
C1358 H1348 0.930 . S
C1358 C1356 1.419 . S
C1358 C1359 1.362 . S
C1359 H1349 0.930 . S
C1359 C1352 1.409 . S
C1359 C1358 1.362 . S
H1360 C1366 0.930 . S
H1361 C1369 0.930 . S
H1362 C1370 0.930 . S
H1363 C1371 0.930 . S
H1364 C1374 0.930 . S
H1365 C1375 0.930 . S
C1366 H1360 0.930 . S
C1366 C1367 1.355 . S
C1366 C1368 1.415 . S
C1367 C1366 1.355 . S
C1367 C1369 1.419 . S
C1368 C1366 1.415 . S
C1368 C1373 1.425 . S
C1368 C1375 1.409 . S
C1369 H1361 0.930 . S
C1369 C1367 1.419 . S
C1369 C1370 1.362 . S
C1370 H1362 0.930 . S
C1370 C1369 1.362 . S
C1370 C1373 1.409 . S
C1371 H1363 0.930 . S
C1371 C1372 1.355 . S
C1371 C1373 1.415 . S
C1372 C1371 1.355 . S
C1372 C1374 1.419 . S
C1373 C1368 1.425 . S
C1373 C1370 1.409 . S
C1373 C1371 1.415 . S
C1374 H1364 0.930 . S
C1374 C1372 1.419 . S
C1374 C1375 1.362 . S
C1375 H1365 0.930 . S
C1375 C1368 1.409 . S
C1375 C1374 1.362 . S
H1376 C1382 0.930 . S
H1377 C1385 0.930 . S
H1378 C1386 0.930 . S
H1379 C1387 0.930 . S
H1380 C1390 0.930 . S
H1381 C1391 0.930 . S
C1382 H1376 0.930 . S
C1382 C1383 1.355 . S
C1382 C1384 1.415 . S
C1383 C1382 1.355 . S
C1383 C1385 1.419 . S
C1384 C1382 1.415 . S
C1384 C1389 1.425 1_556 S
C1384 C1391 1.409 1_556 S
C1385 H1377 0.930 . S
C1385 C1383 1.419 . S
C1385 C1386 1.362 . S
C1386 H1378 0.930 . S
C1386 C1385 1.362 . S
C1386 C1389 1.409 1_556 S
C1387 H1379 0.930 . S
C1387 C1388 1.355 . S
C1387 C1389 1.415 . S
C1388 C1387 1.355 . S
C1388 C1390 1.419 . S
C1389 C1384 1.425 1_554 S
C1389 C1386 1.409 1_554 S
C1389 C1387 1.415 . S
C1390 H1380 0.930 . S
C1390 C1388 1.419 . S
C1390 C1391 1.362 . S
C1391 H1381 0.930 . S
C1391 C1384 1.409 1_554 S
C1391 C1390 1.362 . S
H1392 C1398 0.930 . S
H1393 C1401 0.930 . S
H1394 C1402 0.925 1_556 S
H1395 C1403 0.930 . S
H1396 C1406 0.930 . S
H1397 C1407 0.925 1_554 S
C1398 H1392 0.930 . S
C1398 C1399 1.355 . S
C1398 C1400 1.415 . S
C1399 C1398 1.355 . S
C1399 C1401 1.419 . S
C1400 C1398 1.415 . S
C1400 C1405 1.425 1_554 S
C1400 C1407 1.409 1_554 S
C1401 H1393 0.930 . S
C1401 C1399 1.419 . S
C1401 C1402 1.362 . S
C1402 H1394 0.925 1_554 S
C1402 C1401 1.362 . S
C1402 C1405 1.409 1_554 S
C1403 H1395 0.930 . S
C1403 C1404 1.355 . S
C1403 C1405 1.415 . S
C1404 C1403 1.355 . S
C1404 C1406 1.419 . S
C1405 C1400 1.425 1_556 S
C1405 C1402 1.409 1_556 S
C1405 C1403 1.415 . S
C1406 H1396 0.930 . S
C1406 C1404 1.419 . S
C1406 C1407 1.362 . S
C1407 H1397 0.925 1_556 S
C1407 C1400 1.409 1_556 S
C1407 C1406 1.362 . S
H1408 C1414 0.930 . S
H1409 C1417 0.930 . S
H1410 C1418 0.930 . S
H1411 C1419 0.930 . S
H1412 C1422 0.930 . S
H1413 C1423 0.930 . S
C1414 H1408 0.930 . S
C1414 C1415 1.355 . S
C1414 C1416 1.415 . S
C1415 C1414 1.355 . S
C1415 C1417 1.419 . S
C1416 C1414 1.415 . S
C1416 C1421 1.425 . S
C1416 C1423 1.409 . S
C1417 H1409 0.930 . S
C1417 C1415 1.419 . S
C1417 C1418 1.362 . S
C1418 H1410 0.930 . S
C1418 C1417 1.362 . S
C1418 C1421 1.409 . S
C1419 H1411 0.930 . S
C1419 C1420 1.355 . S
C1419 C1421 1.415 . S
C1420 C1419 1.355 . S
C1420 C1422 1.419 . S
C1421 C1416 1.425 . S
C1421 C1418 1.409 . S
C1421 C1419 1.415 . S
C1422 H1412 0.930 . S
C1422 C1420 1.419 . S
C1422 C1423 1.362 . S
C1423 H1413 0.930 . S
C1423 C1416 1.409 . S
C1423 C1422 1.362 . S
H1424 C1430 0.930 . S
H1425 C1433 0.930 . S
H1426 C1434 0.930 . S
H1427 C1435 0.930 . S
H1428 C1438 0.930 . S
H1429 C1439 0.930 . S
C1430 H1424 0.930 . S
C1430 C1431 1.355 . S
C1430 C1432 1.415 . S
C1431 C1430 1.355 . S
C1431 C1433 1.419 . S
C1432 C1430 1.415 . S
C1432 C1437 1.425 . S
C1432 C1439 1.409 . S
C1433 H1425 0.930 . S
C1433 C1431 1.419 . S
C1433 C1434 1.362 . S
C1434 H1426 0.930 . S
C1434 C1433 1.362 . S
C1434 C1437 1.409 . S
C1435 H1427 0.930 . S
C1435 C1436 1.355 . S
C1435 C1437 1.415 . S
C1436 C1435 1.355 . S
C1436 C1438 1.419 . S
C1437 C1432 1.425 . S
C1437 C1434 1.409 . S
C1437 C1435 1.415 . S
C1438 H1428 0.930 . S
C1438 C1436 1.419 . S
C1438 C1439 1.362 . S
C1439 H1429 0.930 . S
C1439 C1432 1.409 . S
C1439 C1438 1.362 . S
H1440 C1446 0.930 . S
H1441 C1449 0.930 . S
H1442 C1450 0.930 . S
H1443 C1451 0.930 . S
H1444 C1454 0.930 . S
H1445 C1455 0.930 . S
C1446 H1440 0.930 . S
C1446 C1447 1.355 . S
C1446 C1448 1.415 . S
C1447 C1446 1.355 . S
C1447 C1449 1.419 . S
C1448 C1446 1.415 . S
C1448 C1453 1.425 . S
C1448 C1455 1.409 . S
C1449 H1441 0.930 . S
C1449 C1447 1.419 . S
C1449 C1450 1.362 . S
C1450 H1442 0.930 . S
C1450 C1449 1.362 . S
C1450 C1453 1.409 . S
C1451 H1443 0.930 . S
C1451 C1452 1.355 . S
C1451 C1453 1.415 . S
C1452 C1451 1.355 . S
C1452 C1454 1.419 . S
C1453 C1448 1.425 . S
C1453 C1450 1.409 . S
C1453 C1451 1.415 . S
C1454 H1444 0.930 . S
C1454 C1452 1.419 . S
C1454 C1455 1.362 . S
C1455 H1445 0.930 . S
C1455 C1448 1.409 . S
C1455 C1454 1.362 . S
C951 C595 1.461 . S
C956 C5 1.449 . S
C967 C64 1.450 . S
C972 C654 1.462 . S
C983 C477 1.441 . S
C988 C123 1.443 . S
C999 C536 1.449 . S
C1004 C182 1.440 . S
C1015 C241 1.440 . S
C1020 C831 1.444 . S
C1031 C890 1.440 . S
C1036 C300 1.446 . S
C1047 C359 1.466 . S
C1052 C713 1.458 . S
C1063 C772 1.463 . S
C1068 C418 1.466 . S
C1079 C642 1.656 . S
C1084 C52 1.648 . S
C1095 C111 1.660 . S
C1100 C701 1.671 . S
C1111 C170 1.667 . S
C1116 C524 1.671 . S
C1127 C229 1.657 . S
C1132 C583 1.648 . S
C1143 C288 1.672 . S
C1148 C878 1.662 . S
C1159 C347 1.670 . S
C1164 C937 1.668 . S
C1175 C760 1.672 . S
C1180 C406 1.661 . S
C1191 C819 1.660 . S
C1196 C465 1.671 . S
C1207 C3 1.449 . S
C1212 C357 1.420 . S
C1223 C62 1.449 . S
C1228 C416 1.422 . S
C1239 C121 1.424 . S
C1244 C239 1.449 . S
C1255 C180 1.443 . S
C1260 C298 1.436 . S
C1271 C475 1.448 . S
C1276 C829 1.426 . S
C1287 C888 1.419 . S
C1292 C534 1.416 . S
C1303 C593 1.407 . S
C1308 C711 1.436 . S
C1319 C770 1.412 . S
C1324 C652 1.447 . S
C1335 C33 1.285 . S
C1340 C918 1.320 . S
C1351 C741 1.295 . S
C1356 C92 1.320 . S
C1367 C800 1.277 . S
C1372 C151 1.299 . S
C1383 C859 1.275 . S
C1388 C210 1.311 . S
C1399 C564 1.276 . S
C1404 C269 1.302 . S
C1415 C623 1.292 . S
C1420 C328 1.281 . S
C1431 C387 1.283 . S
C1436 C682 1.289 . S
C1447 C446 1.303 . S
C1452 C505 1.316 . S
