# Generated by pormake.
# Topology uov, (4)-cn, num edge types: 1
# Building blocks:
#     Node 0, Type 0, BuildingBlock: ICAMEG_clean_sbu_1, # of connection points: 4
#     Node 1, Type 0, BuildingBlock: ICAMEG_clean_sbu_1, # of connection points: 4
#     Node 2, Type 0, BuildingBlock: ICAMEG_clean_sbu_1, # of connection points: 4
#     Node 3, Type 0, BuildingBlock: ICAMEG_clean_sbu_1, # of connection points: 4
#     Node 4, Type 0, BuildingBlock: ICAMEG_clean_sbu_1, # of connection points: 4
#     Node 5, Type 0, BuildingBlock: ICAMEG_clean_sbu_1, # of connection points: 4
#     Node 6, Type 0, BuildingBlock: ICAMEG_clean_sbu_1, # of connection points: 4
#     Node 7, Type 0, BuildingBlock: ICAMEG_clean_sbu_1, # of connection points: 4
#     Edge 8, Type (0, 0), BuildingBlock: EZIPEK_clean_linker_0, # of connection points: 2
#     Edge 9, Type (0, 0), BuildingBlock: EZIPEK_clean_linker_0, # of connection points: 2
#     Edge 10, Type (0, 0), BuildingBlock: EZIPEK_clean_linker_0, # of connection points: 2
#     Edge 11, Type (0, 0), BuildingBlock: EZIPEK_clean_linker_0, # of connection points: 2
#     Edge 12, Type (0, 0), BuildingBlock: EZIPEK_clean_linker_0, # of connection points: 2
#     Edge 13, Type (0, 0), BuildingBlock: EZIPEK_clean_linker_0, # of connection points: 2
#     Edge 14, Type (0, 0), BuildingBlock: EZIPEK_clean_linker_0, # of connection points: 2
#     Edge 15, Type (0, 0), BuildingBlock: EZIPEK_clean_linker_0, # of connection points: 2
#     Edge 16, Type (0, 0), BuildingBlock: EZIPEK_clean_linker_0, # of connection points: 2
#     Edge 17, Type (0, 0), BuildingBlock: EZIPEK_clean_linker_0, # of connection points: 2
#     Edge 18, Type (0, 0), BuildingBlock: EZIPEK_clean_linker_0, # of connection points: 2
#     Edge 19, Type (0, 0), BuildingBlock: EZIPEK_clean_linker_0, # of connection points: 2
#     Edge 20, Type (0, 0), BuildingBlock: EZIPEK_clean_linker_0, # of connection points: 2
#     Edge 21, Type (0, 0), BuildingBlock: EZIPEK_clean_linker_0, # of connection points: 2
#     Edge 22, Type (0, 0), BuildingBlock: EZIPEK_clean_linker_0, # of connection points: 2
#     Edge 23, Type (0, 0), BuildingBlock: EZIPEK_clean_linker_0, # of connection points: 2
# Relax obj value: 0.046
# Max RMSD: 0.048
# Mean RMSD: 0.048
data_MOF--net-uov--node1-ICAMEG_clean_sbu_1--edge1-EZIPEK_clean_linker_0
_symmetry_space_group_name_H-M    P1
_symmetry_Int_Tables_number       1
_symmetry_cell_setting            triclinic
loop_
_symmetry_equiv_pos_as_xyz
'x, y, z'
_cell_length_a     23.882633
_cell_length_b     23.898971
_cell_length_c     35.288335
_cell_angle_alpha  89.942486
_cell_angle_beta   90.083215
_cell_angle_gamma 90.017472
loop_
_atom_site_label
_atom_site_type_symbol
_atom_site_fract_x
_atom_site_fract_y
_atom_site_fract_z
_atom_type_partial_charge
Co0 Co 0.07553 0.18595 0.61173 0.0
Co1 Co 0.10544 0.30296 0.55845 0.0
O2 O 0.09046 0.26632 0.60777 0.0
C3 C 0.14424 0.21647 0.68224 0.0
O4 O 0.14165 0.26979 0.67379 0.0
C5 C 0.02556 0.38135 0.59491 0.0
O6 O 0.9955 0.33791 0.60494 0.0
O7 O 0.0303 0.27805 0.54035 0.0
O8 O 0.02511 0.19096 0.56541 0.0
H9 H 0.10382 0.32363 0.41638 0.0
H10 H 0.04027 0.27188 0.66961 0.0
O11 O 0.12311 0.17975 0.65984 0.0
H12 H 0.8797 0.14435 0.65581 0.0
H13 H 0.07296 0.99576 0.67378 0.0
H14 H 0.06526 0.09855 0.55288 0.0
H15 H 0.9638 0.13203 0.61664 0.0
H16 H 0.06453 0.09811 0.67304 0.0
O17 O 0.07221 0.37459 0.57821 0.0
H18 H 0.08993 0.27457 0.47701 0.0
H19 H 0.1484 0.41597 0.53755 0.0
H20 H 0.06859 0.99584 0.55231 0.0
H21 H 0.95669 0.28662 0.70856 0.0
H22 H 0.07518 0.94364 0.61295 0.0
H23 H 0.87561 0.22224 0.70226 0.0
O24 O 0.14295 0.17044 0.58117 0.0
H25 H 0.23889 0.38312 0.65421 0.0
H26 H 0.22214 0.29882 0.52739 0.0
H27 H 0.31532 0.32491 0.55153 0.0
H28 H 0.3242 0.36754 0.61543 0.0
H29 H 0.14665 0.3556 0.62887 0.0
H30 H 0.16326 0.46691 0.47768 0.0
H31 H 0.14103 0.42072 0.41645 0.0
O32 O 0.13902 0.23305 0.53516 0.0
C33 C 0.00655 0.23026 0.54392 0.0
C34 C 0.1137 0.34427 0.44284 0.0
C35 C 0.1471 0.4246 0.47723 0.0
N36 N 0.11838 0.34188 0.5108 0.0
C37 C 0.10567 0.31656 0.47726 0.0
C38 C 0.13853 0.39548 0.51107 0.0
C39 C 0.13459 0.3987 0.4429 0.0
C40 C 0.00605 0.24298 0.66689 0.0
N41 N 0.00882 0.19901 0.64222 0.0
C42 C 0.95836 0.25185 0.68896 0.0
C43 C 0.91286 0.21578 0.68539 0.0
C44 C 0.91524 0.17195 0.6595 0.0
C45 C 0.96351 0.16457 0.6378 0.0
C46 C 0.07071 0.01803 0.6471 0.0
C47 C 0.0649 0.07638 0.57956 0.0
C48 C 0.06602 0.07628 0.64658 0.0
N49 N 0.06479 0.10502 0.61312 0.0
C50 C 0.06789 0.01804 0.57898 0.0
C51 C 0.07191 0.9888 0.61299 0.0
C52 C 0.15699 0.18672 0.5483 0.0
C53 C 0.23563 0.36462 0.62631 0.0
C54 C 0.22558 0.31676 0.55528 0.0
C55 C 0.27851 0.33179 0.56876 0.0
C56 C 0.28346 0.35578 0.60458 0.0
N57 N 0.17886 0.32538 0.57681 0.0
C58 C 0.18345 0.34912 0.61182 0.0
Co59 Co 0.18881 0.93529 0.37849 0.0
Co60 Co 0.28455 0.8909 0.44614 0.0
O61 O 0.26225 0.90899 0.39442 0.0
C62 C 0.20439 0.83188 0.33105 0.0
O63 O 0.21414 0.80196 0.36157 0.0
C64 C 0.3761 0.96614 0.41809 0.0
O65 O 0.33757 0.00452 0.41282 0.0
O66 O 0.25842 0.9665 0.46304 0.0
O67 O 0.1864 0.98913 0.42336 0.0
H68 H 0.26216 0.86394 0.58758 0.0
H69 H 0.28918 0.94092 0.32872 0.0
O70 O 0.19338 0.88387 0.33347 0.0
H71 H 0.20529 0.12901 0.32373 0.0
H72 H 0.04477 0.96659 0.27709 0.0
H73 H 0.07783 0.95676 0.41433 0.0
H74 H 0.16425 0.05541 0.36411 0.0
H75 H 0.14069 0.96182 0.30244 0.0
O76 O 0.36179 0.92044 0.43395 0.0
H77 H 0.22976 0.88297 0.52305 0.0
H78 H 0.393 0.85399 0.48018 0.0
H79 H 0.98097 0.95573 0.39047 0.0
H80 H 0.33084 0.01256 0.28712 0.0
H81 H 0.96389 0.96058 0.32109 0.0
H82 H 0.28903 0.10765 0.28464 0.0
O83 O 0.15056 0.87653 0.40973 0.0
H84 H 0.37579 0.7557 0.35645 0.0
H85 H 0.27022 0.77487 0.47571 0.0
H86 H 0.29762 0.68096 0.45361 0.0
H87 H 0.35082 0.67092 0.39356 0.0
H88 H 0.34755 0.84878 0.37961 0.0
H89 H 0.42725 0.8343 0.54436 0.0
H90 H 0.36183 0.83947 0.59886 0.0
O91 O 0.20836 0.86037 0.45883 0.0
C92 C 0.2177 0.99833 0.45268 0.0
C93 C 0.29144 0.86278 0.5642 0.0
C94 C 0.38398 0.84614 0.53997 0.0
N95 N 0.30981 0.87346 0.49756 0.0
C96 C 0.27335 0.87456 0.52739 0.0
C97 C 0.36437 0.85823 0.50357 0.0
C98 C 0.34727 0.84888 0.57051 0.0
C99 C 0.27041 0.98179 0.3274 0.0
N100 N 0.224 0.9936 0.34844 0.0
C101 C 0.29421 0.02235 0.30387 0.0
C102 C 0.27078 0.0757 0.30253 0.0
C103 C 0.22382 0.0877 0.32443 0.0
C104 C 0.20078 0.04585 0.34725 0.0
C105 C 0.05159 0.96399 0.30737 0.0
C106 C 0.07078 0.95829 0.38451 0.0
C107 C 0.10593 0.96213 0.32202 0.0
N108 N 0.11507 0.95794 0.36026 0.0
C109 C 0.01583 0.95764 0.37092 0.0
C110 C 0.00627 0.96036 0.33202 0.0
C111 C 0.16105 0.85573 0.44232 0.0
C112 C 0.35286 0.75952 0.38275 0.0
C113 C 0.29367 0.77089 0.44969 0.0
C114 C 0.30898 0.71759 0.43727 0.0
C115 C 0.33878 0.71198 0.40356 0.0
N116 N 0.30776 0.81732 0.42918 0.0
C117 C 0.33686 0.81214 0.39606 0.0
Co118 Co 0.92089 0.80454 0.60928 0.0
Co119 Co 0.87884 0.69989 0.54984 0.0
O120 O 0.90007 0.72668 0.60064 0.0
C121 C 0.85385 0.76829 0.67897 0.0
O122 O 0.85161 0.71641 0.66713 0.0
C123 C 0.94967 0.61026 0.58424 0.0
O124 O 0.98623 0.64937 0.59263 0.0
O125 O 0.95377 0.72271 0.53029 0.0
O126 O 0.96273 0.80591 0.55958 0.0
H127 H 0.87259 0.70719 0.40759 0.0
H128 H 0.95396 0.71567 0.66558 0.0
O129 O 0.87968 0.80562 0.65961 0.0
H130 H 0.12797 0.81547 0.63363 0.0
H131 H 0.95834 0.97453 0.68866 0.0
H132 H 0.9202 0.90505 0.55985 0.0
H133 H 0.03872 0.84234 0.60379 0.0
H134 H 0.9606 0.87359 0.6747 0.0
O135 O 0.90774 0.62334 0.56374 0.0
H136 H 0.89434 0.74233 0.47158 0.0
H137 H 0.82382 0.59615 0.5206 0.0
H138 H 0.92238 0.00663 0.57146 0.0
H139 H 0.04186 0.68822 0.69661 0.0
H140 H 0.93719 0.04166 0.63697 0.0
H141 H 0.12994 0.73809 0.68067 0.0
O142 O 0.85073 0.82905 0.58472 0.0
H143 H 0.74918 0.61094 0.6445 0.0
H144 H 0.75957 0.71525 0.52442 0.0
H145 H 0.66744 0.69058 0.55047 0.0
H146 H 0.66168 0.63783 0.61102 0.0
H147 H 0.84045 0.63735 0.61756 0.0
H148 H 0.80158 0.55924 0.45717 0.0
H149 H 0.82577 0.61502 0.40005 0.0
O150 O 0.84784 0.77548 0.53381 0.0
C151 C 0.97778 0.77014 0.53446 0.0
C152 C 0.8617 0.68253 0.43224 0.0
C153 C 0.82185 0.59952 0.46007 0.0
N154 N 0.85989 0.67159 0.49989 0.0
C155 C 0.87391 0.70221 0.46858 0.0
C156 C 0.83463 0.6206 0.49596 0.0
C157 C 0.83545 0.63083 0.42804 0.0
C158 C 0.99144 0.73851 0.65899 0.0
N159 N 0.99042 0.78171 0.63364 0.0
C160 C 0.04145 0.72237 0.67644 0.0
C161 C 0.09088 0.75027 0.66743 0.0
C162 C 0.08981 0.79365 0.64107 0.0
C163 C 0.03902 0.80872 0.6243 0.0
C164 C 0.95006 0.95963 0.66024 0.0
C165 C 0.92988 0.92004 0.58791 0.0
C166 C 0.95104 0.90246 0.65232 0.0
N167 N 0.93849 0.88315 0.61694 0.0
C168 C 0.92998 0.97764 0.59447 0.0
C169 C 0.93841 0.99733 0.63117 0.0
C170 C 0.8325 0.81935 0.5516 0.0
C171 C 0.75106 0.63412 0.61816 0.0
C172 C 0.75767 0.69331 0.55095 0.0
C173 C 0.70523 0.67894 0.56549 0.0
C174 C 0.70202 0.64925 0.5994 0.0
N175 N 0.80568 0.67875 0.5696 0.0
C176 C 0.80272 0.64932 0.60276 0.0
Co177 Co 0.80676 0.08353 0.4013 0.0
Co178 Co 0.6921 0.11579 0.45429 0.0
O179 O 0.7259 0.0971 0.40457 0.0
C180 C 0.77917 0.15988 0.33539 0.0
O181 O 0.75117 0.19284 0.35814 0.0
C182 C 0.60805 0.04001 0.41758 0.0
O183 O 0.64966 0.01049 0.40399 0.0
O184 O 0.71576 0.04077 0.47259 0.0
O185 O 0.80483 0.04171 0.45148 0.0
H186 H 0.68246 0.11882 0.59668 0.0
H187 H 0.72893 0.04289 0.34197 0.0
O188 O 0.80798 0.12013 0.3497 0.0
H189 H 0.84971 0.88177 0.37291 0.0
H190 H 0.99607 0.08244 0.33845 0.0
H191 H 0.89593 0.08071 0.46016 0.0
H192 H 0.86087 0.9713 0.40664 0.0
H193 H 0.89428 0.06819 0.34036 0.0
O194 O 0.61781 0.08406 0.43682 0.0
H195 H 0.72623 0.10161 0.53462 0.0
H196 H 0.58131 0.1616 0.47827 0.0
H197 H 0.99846 0.08454 0.45996 0.0
H198 H 0.71537 0.95356 0.30812 0.0
H199 H 0.04935 0.08936 0.39876 0.0
H200 H 0.77626 0.87233 0.3234 0.0
O201 O 0.81987 0.15642 0.42542 0.0
H202 H 0.61173 0.24889 0.3583 0.0
H203 H 0.69656 0.23254 0.4851 0.0
H204 H 0.66817 0.32527 0.46153 0.0
H205 H 0.62465 0.33385 0.39781 0.0
H206 H 0.64374 0.15734 0.38249 0.0
H207 H 0.53558 0.1794 0.53965 0.0
H208 H 0.5863 0.15823 0.59947 0.0
O209 O 0.76476 0.14901 0.47507 0.0
C210 C 0.76514 0.02026 0.47121 0.0
C211 C 0.65994 0.12842 0.57084 0.0
C212 C 0.57755 0.1624 0.53883 0.0
N213 N 0.65691 0.13106 0.50285 0.0
C214 C 0.68466 0.11871 0.53562 0.0
C215 C 0.60369 0.15214 0.50414 0.0
C216 C 0.60601 0.15049 0.57238 0.0
C217 C 0.75518 0.00753 0.349 0.0
N218 N 0.79555 0.01232 0.37624 0.0
C219 C 0.74748 0.95714 0.32966 0.0
C220 C 0.78172 0.91161 0.3382 0.0
C221 C 0.82301 0.91689 0.36592 0.0
C222 C 0.82926 0.96782 0.38483 0.0
C223 C 0.97435 0.08113 0.36534 0.0
C224 C 0.91739 0.07836 0.43333 0.0
C225 C 0.91634 0.07388 0.36645 0.0
N226 N 0.88809 0.07494 0.40002 0.0
C227 C 0.97575 0.08193 0.43345 0.0
C228 C 0.00424 0.08492 0.39915 0.0
C229 C 0.8079 0.17002 0.45906 0.0
C230 C 0.63017 0.24565 0.38625 0.0
C231 C 0.67841 0.23588 0.45723 0.0
C232 C 0.66208 0.28855 0.44408 0.0
C233 C 0.63759 0.29332 0.40837 0.0
N234 N 0.6705 0.18919 0.43552 0.0
C235 C 0.64738 0.19375 0.4003 0.0
Co236 Co 0.92591 0.19776 0.1223 0.0
Co237 Co 0.89508 0.29421 0.05207 0.0
O238 O 0.90165 0.27242 0.1059 0.0
C239 C 0.84173 0.23365 0.18415 0.0
O240 O 0.83403 0.28383 0.16995 0.0
C241 C 0.96455 0.38253 0.0864 0.0
O242 O 0.99208 0.34248 0.10361 0.0
O243 O 0.97313 0.26835 0.04186 0.0
O244 O 0.9821 0.19442 0.08019 0.0
H245 H 0.91842 0.26758 0.91176 0.0
H246 H 0.93502 0.29898 0.17276 0.0
O247 O 0.87289 0.19801 0.16716 0.0
H248 H 0.12368 0.21638 0.17045 0.0
H249 H 0.97175 0.0505 0.21994 0.0
H250 H 0.92661 0.08429 0.08617 0.0
H251 H 0.04669 0.17289 0.13467 0.0
H252 H 0.9712 0.14577 0.19431 0.0
O253 O 0.92372 0.37101 0.06462 0.0
H254 H 0.92314 0.2399 0.979 0.0
H255 H 0.85668 0.39738 0.01192 0.0
H256 H 0.92794 0.98823 0.10994 0.0
H257 H 0.01036 0.34313 0.20933 0.0
H258 H 0.947 0.97073 0.17808 0.0
H259 H 0.10574 0.30182 0.20853 0.0
O260 O 0.86617 0.16361 0.08922 0.0
H261 H 0.74556 0.3945 0.12536 0.0
H262 H 0.78523 0.2784 0.01312 0.0
H263 H 0.68825 0.30835 0.02587 0.0
H264 H 0.6679 0.36679 0.08238 0.0
H265 H 0.84192 0.36353 0.11151 0.0
H266 H 0.85162 0.42692 0.94501 0.0
H267 H 0.88245 0.36173 0.89439 0.0
O268 O 0.86599 0.21852 0.03747 0.0
C269 C 1.00044 0.22581 0.05364 0.0
C270 C 0.90462 0.29628 0.93355 0.0
C271 C 0.86721 0.38573 0.95222 0.0
N272 N 0.88962 0.31675 0.99935 0.0
C273 C 0.907 0.28077 0.97168 0.0
C274 C 0.87024 0.3688 0.99006 0.0
C275 C 0.88451 0.34913 0.92382 0.0
C276 C 0.97557 0.27956 0.17293 0.0
N277 N 0.98518 0.23165 0.15285 0.0
C278 C 0.01851 0.30528 0.19344 0.0
C279 C 0.07204 0.28226 0.19284 0.0
C280 C 0.08212 0.23434 0.17152 0.0
C281 C 0.03818 0.20984 0.15134 0.0
C282 C 0.96161 0.05765 0.19042 0.0
C283 C 0.93712 0.07764 0.11523 0.0
C284 C 0.96117 0.11193 0.17568 0.0
N285 N 0.94694 0.12201 0.13874 0.0
C286 C 0.93722 0.02274 0.12879 0.0
C287 C 0.94792 0.01294 0.16696 0.0
C288 C 0.85298 0.17347 0.05466 0.0
C289 C 0.75388 0.36904 0.10065 0.0
C290 C 0.77668 0.30375 0.0378 0.0
C291 C 0.72171 0.32068 0.04483 0.0
C292 C 0.71033 0.35346 0.07653 0.0
N293 N 0.81912 0.31901 0.06167 0.0
C294 C 0.80834 0.3514 0.09267 0.0
Co295 Co 0.19396 0.08722 0.90571 0.0
Co296 Co 0.31462 0.11457 0.95551 0.0
O297 O 0.27497 0.09703 0.9077 0.0
C298 C 0.22566 0.14506 0.83122 0.0
O299 O 0.279 0.13558 0.83707 0.0
C300 C 0.3904 0.03189 0.9182 0.0
O301 O 0.348 0.99707 0.91773 0.0
O302 O 0.28952 0.04059 0.97598 0.0
O303 O 0.20017 0.03754 0.95345 0.0
H304 H 0.34268 0.14475 0.09663 0.0
H305 H 0.28047 0.03734 0.85294 0.0
O306 O 0.18925 0.13247 0.85657 0.0
H307 H 0.12782 0.89932 0.8587 0.0
H308 H 0.00757 0.13216 0.85021 0.0
H309 H 0.10834 0.07745 0.96613 0.0
H310 H 0.12415 0.98387 0.89774 0.0
H311 H 0.10051 0.08914 0.84669 0.0
O312 O 0.38346 0.07994 0.933 0.0
H313 H 0.28782 0.12687 0.03948 0.0
H314 H 0.43295 0.14578 0.97148 0.0
H315 H 0.01511 0.12027 0.97124 0.0
H316 H 0.28628 0.9526 0.81449 0.0
H317 H 0.96526 0.15128 0.91325 0.0
H318 H 0.20929 0.88289 0.81657 0.0
O319 O 0.18428 0.15754 0.93474 0.0
H320 H 0.38895 0.24406 0.85519 0.0
H321 H 0.31174 0.23184 0.98444 0.0
H322 H 0.3365 0.32409 0.95806 0.0
H323 H 0.37546 0.33065 0.89297 0.0
H324 H 0.36331 0.15269 0.88267 0.0
H325 H 0.4896 0.16368 0.02811 0.0
H326 H 0.44471 0.16302 0.09153 0.0
O327 O 0.24717 0.14878 0.98019 0.0
C328 C 0.24059 0.01813 0.97438 0.0
C329 C 0.36309 0.14372 0.06926 0.0
C330 C 0.44545 0.15431 0.03088 0.0
N331 N 0.3573 0.13068 1.00173 0.0
C332 C 0.33212 0.1326 0.03651 0.0
C333 C 0.41311 0.14302 0.99878 0.0
C334 C 0.42024 0.15415 0.0664 0.0
C335 C 0.24607 0.00844 0.85392 0.0
N336 N 0.20024 0.01837 0.87618 0.0
C337 C 0.24992 0.95986 0.8321 0.0
C338 C 0.2068 0.92073 0.8333 0.0
C339 C 0.16099 0.93007 0.85678 0.0
C340 C 0.15875 0.9789 0.87844 0.0
C341 C 0.02956 0.12067 0.87591 0.0
C342 C 0.08626 0.08843 0.94063 0.0
C343 C 0.08241 0.09571 0.87403 0.0
N344 N 0.11208 0.08398 0.90626 0.0
C345 C 0.03352 0.11336 0.94376 0.0
C346 C 0.00582 0.13131 0.91121 0.0
C347 C 0.20007 0.16599 0.96841 0.0
C348 C 0.37206 0.24177 0.8836 0.0
C349 C 0.32851 0.23429 0.95607 0.0
C350 C 0.34257 0.28668 0.9413 0.0
C351 C 0.36444 0.29033 0.90479 0.0
N352 N 0.33602 0.18685 0.93507 0.0
C353 C 0.35748 0.19013 0.8993 0.0
Co354 Co 0.08669 0.80201 0.11632 0.0
Co355 Co 0.11978 0.69901 0.05444 0.0
O356 O 0.10618 0.72422 0.10631 0.0
C357 C 0.17729 0.78061 0.17409 0.0
O358 O 0.21113 0.76238 0.14755 0.0
C359 C 0.0524 0.6073 0.08905 0.0
O360 O 0.01758 0.64586 0.101 0.0
O361 O 0.04191 0.72111 0.0414 0.0
O362 O 0.04179 0.80686 0.06777 0.0
H363 H 0.09527 0.70555 0.91292 0.0
H364 H 0.05793 0.71132 0.17048 0.0
O365 O 0.12808 0.79721 0.16594 0.0
H366 H 0.88136 0.81216 0.14719 0.0
H367 H 0.06364 0.96764 0.20183 0.0
H368 H 0.08328 0.90469 0.06954 0.0
H369 H 0.96864 0.8418 0.11582 0.0
H370 H 0.05897 0.86732 0.18609 0.0
O371 O 0.09393 0.62201 0.06883 0.0
H372 H 0.08525 0.73965 0.97832 0.0
H373 H 0.17764 0.60056 0.01947 0.0
H374 H 0.08668 0.00512 0.08404 0.0
H375 H 0.97194 0.68059 0.20307 0.0
H376 H 0.07859 0.03744 0.15057 0.0
H377 H 0.88268 0.7311 0.19132 0.0
O378 O 0.15562 0.82685 0.08926 0.0
H379 H 0.26506 0.61151 0.13869 0.0
H380 H 0.23374 0.71894 0.02128 0.0
H381 H 0.33006 0.69576 0.04067 0.0
H382 H 0.34627 0.64141 0.09971 0.0
H383 H 0.1694 0.63644 0.11855 0.0
H384 H 0.18847 0.56474 0.95455 0.0
H385 H 0.1473 0.61746 0.9006 0.0
O386 O 0.14739 0.77506 0.03754 0.0
C387 C 0.02062 0.76965 0.04581 0.0
C388 C 0.11339 0.68214 0.93617 0.0
C389 C 0.16571 0.60318 0.95952 0.0
N390 N 0.13084 0.67227 1.00293 0.0
C391 C 0.1077 0.70118 0.97337 0.0
C392 C 0.15925 0.6236 0.99633 0.0
C393 C 0.14259 0.63276 0.92928 0.0
C394 C 0.01962 0.73405 0.16591 0.0
N395 N 0.01867 0.77884 0.14193 0.0
C396 C 0.97088 0.71624 0.18414 0.0
C397 C 0.9208 0.74451 0.17747 0.0
C398 C 0.92003 0.78999 0.15274 0.0
C399 C 0.96963 0.80662 0.13508 0.0
C400 C 0.06752 0.95418 0.17268 0.0
C401 C 0.07739 0.9183 0.09845 0.0
C402 C 0.06453 0.89743 0.16353 0.0
N403 N 0.07129 0.88005 0.12692 0.0
C404 C 0.07993 0.97536 0.10652 0.0
C405 C 0.0759 0.99331 0.14393 0.0
C406 C 0.16776 0.81746 0.05464 0.0
C407 C 0.25855 0.63502 0.11283 0.0
C408 C 0.24032 0.6957 0.04712 0.0
C409 C 0.29503 0.68245 0.05789 0.0
C410 C 0.30409 0.65191 0.09099 0.0
N411 N 0.19581 0.67887 0.06863 0.0
C412 C 0.20443 0.64903 0.10117 0.0
Co413 Co 0.80359 0.9211 0.89084 0.0
Co414 Co 0.70823 0.88163 0.95895 0.0
O415 O 0.72951 0.89406 0.90572 0.0
C416 C 0.76663 0.84239 0.82508 0.0
O417 O 0.71543 0.83422 0.83723 0.0
C418 C 0.61661 0.94857 0.92591 0.0
O419 O 0.65639 0.97972 0.91141 0.0
O420 O 0.72856 0.96032 0.97156 0.0
O421 O 0.80721 0.97059 0.93748 0.0
H422 H 0.7347 0.89439 0.09998 0.0
H423 H 0.70674 0.93243 0.83677 0.0
O424 O 0.8007 0.87251 0.84409 0.0
H425 H 0.77565 0.12419 0.85298 0.0
H426 H 0.98894 0.89271 0.82417 0.0
H427 H 0.88888 0.01205 0.91481 0.0
H428 H 0.81716 0.04787 0.88879 0.0
H429 H 0.89391 0.87097 0.84107 0.0
O430 O 0.6293 0.9063 0.94627 0.0
H431 H 0.76197 0.90525 0.03302 0.0
H432 H 0.60575 0.83807 0.9976 0.0
H433 H 0.98699 0.0258 0.90397 0.0
H434 H 0.66405 0.0076 0.80009 0.0
H435 H 0.03779 0.97131 0.85565 0.0
H436 H 0.69851 0.1049 0.80769 0.0
O437 O 0.83913 0.85894 0.91961 0.0
H438 H 0.62615 0.72875 0.87836 0.0
H439 H 0.72205 0.77187 0.9986 0.0
H440 H 0.69641 0.67429 0.98419 0.0
H441 H 0.64816 0.65211 0.92361 0.0
H442 H 0.65239 0.82567 0.89432 0.0
H443 H 0.57649 0.82724 0.06419 0.0
H444 H 0.64132 0.85517 0.11593 0.0
O445 O 0.78719 0.85597 0.97265 0.0
C446 C 0.77347 0.98648 0.96356 0.0
C447 C 0.70619 0.8818 0.07769 0.0
C448 C 0.61734 0.84424 0.0576 0.0
N449 N 0.68581 0.87167 0.01141 0.0
C450 C 0.72151 0.88759 0.03971 0.0
C451 C 0.63407 0.85068 0.01994 0.0
C452 C 0.65375 0.85988 0.08662 0.0
C453 C 0.72451 0.97327 0.83913 0.0
N454 N 0.76891 0.98327 0.86274 0.0
C455 C 0.69898 0.01642 0.81873 0.0
C456 C 0.71807 0.07097 0.82313 0.0
C457 C 0.76146 0.08172 0.84838 0.0
C458 C 0.78593 0.03742 0.86825 0.0
C459 C 0.96635 0.92016 0.84316 0.0
C460 C 0.90791 0.9873 0.89293 0.0
C461 C 0.91046 0.90944 0.85205 0.0
N462 N 0.88022 0.94395 0.87566 0.0
C463 C 0.96486 0.99625 0.88684 0.0
C464 C 0.99378 0.96398 0.86081 0.0
C465 C 0.83242 0.84551 0.9543 0.0
C466 C 0.64701 0.73781 0.90491 0.0
C467 C 0.70069 0.7627 0.97231 0.0
C468 C 0.68639 0.70728 0.96427 0.0
C469 C 0.65938 0.69486 0.93028 0.0
N470 N 0.68838 0.80466 0.94731 0.0
C471 C 0.66186 0.7927 0.91404 0.0
C472 C 0.00435 0.53554 0.62043 0.0
C473 C 0.9604 0.54986 0.59494 0.0
C474 C 0.95312 0.45164 0.57536 0.0
C475 C 0.00128 0.4385 0.59717 0.0
N476 N 0.07232 0.46664 0.64174 0.0
N477 N 0.87409 0.51331 0.56885 0.0
C478 C 0.02668 0.48011 0.62022 0.0
C479 C 0.92901 0.50568 0.57826 0.0
N480 N 0.0201 0.57295 0.64769 0.0
N481 N 0.93155 0.41352 0.55041 0.0
H482 H 0.85155 0.54819 0.57761 0.0
H483 H 0.84846 0.48124 0.55887 0.0
H484 H 0.94796 0.37347 0.54674 0.0
H485 H 0.90056 0.42364 0.53073 0.0
H486 H 0.04948 0.56464 0.66874 0.0
H487 H 0.99773 0.60963 0.6527 0.0
H488 H 0.09773 0.49606 0.65505 0.0
H489 H 0.08609 0.42561 0.64514 0.0
C490 C 0.50813 0.05009 0.39415 0.0
C491 C 0.54946 0.01872 0.41395 0.0
C492 C 0.48081 0.94364 0.42398 0.0
C493 C 0.43722 0.97887 0.41015 0.0
N494 N 0.41657 0.05102 0.36454 0.0
N495 N 0.57274 0.93846 0.45252 0.0
C496 C 0.45271 0.02845 0.39042 0.0
C497 C 0.53522 0.96614 0.42998 0.0
N498 N 0.5217 0.10079 0.37892 0.0
N499 N 0.47242 0.88738 0.42745 0.0
H500 H 0.61279 0.95356 0.45841 0.0
H501 H 0.56205 0.90328 0.46843 0.0
H502 H 0.43731 0.86747 0.41639 0.0
H503 H 0.50404 0.8594 0.43488 0.0
H504 H 0.49226 0.12963 0.3693 0.0
H505 H 0.56263 0.11516 0.3775 0.0
H506 H 0.42622 0.08463 0.34697 0.0
H507 H 0.37991 0.03076 0.35643 0.0
C508 C 0.02169 0.45968 0.05929 0.0
C509 C 0.98609 0.44041 0.08844 0.0
C510 C 0.00195 0.52793 0.12344 0.0
C511 C 0.03849 0.54628 0.09403 0.0
N512 N 0.10573 0.51196 0.04837 0.0
N513 N 0.94841 0.4513 0.15124 0.0
C514 C 0.05515 0.50728 0.06594 0.0
C515 C 0.97806 0.47308 0.12157 0.0
N516 N 0.02434 0.43255 0.02531 0.0
N517 N 0.99195 0.56197 0.15374 0.0
H518 H 0.92874 0.41234 0.14998 0.0
H519 H 0.94532 0.47026 0.17768 0.0
H520 H 0.01648 0.59706 0.1595 0.0
H521 H 0.96022 0.55515 0.17339 0.0
H522 H 0.04696 0.4483 1.00239 0.0
H523 H 0.99978 0.39775 0.01887 0.0
H524 H 0.12017 0.48278 0.02873 0.0
H525 H 0.13717 0.53764 0.05909 0.0
C526 C 0.46096 0.95638 0.89822 0.0
C527 C 0.44905 0.0123 0.90972 0.0
C528 C 0.54437 0.0227 0.93304 0.0
C529 C 0.55747 0.96745 0.92205 0.0
N530 N 0.53162 0.88514 0.88671 0.0
N531 N 0.49155 0.10376 0.91504 0.0
C532 C 0.51659 0.93492 0.90261 0.0
C533 C 0.49444 0.04728 0.92 0.0
N534 N 0.42017 0.92478 0.88159 0.0
N535 N 0.57832 0.05119 0.95739 0.0
H536 H 0.45864 0.12251 0.90033 0.0
H537 H 0.52542 0.13019 0.92045 0.0
H538 H 0.61205 0.03192 0.97088 0.0
H539 H 0.56812 0.09075 0.96782 0.0
H540 H 0.42276 0.88156 0.87836 0.0
H541 H 0.38427 0.94244 0.86977 0.0
H542 H 0.50582 0.86164 0.86906 0.0
H543 H 0.57182 0.86904 0.88911 0.0
C544 C 0.20956 0.10389 0.46074 0.0
C545 C 0.2068 0.04927 0.47651 0.0
C546 C 0.20198 0.09213 0.53933 0.0
C547 C 0.18761 0.14482 0.52336 0.0
N548 N 0.18855 0.20229 0.46656 0.0
N549 N 0.19083 0.99286 0.53212 0.0
C550 C 0.19418 0.15123 0.48328 0.0
C551 C 0.20057 0.04383 0.51624 0.0
N552 N 0.23173 0.11115 0.42547 0.0
N553 N 0.21931 0.08822 0.57611 0.0
H554 H 0.18266 0.95795 0.51554 0.0
H555 H 0.18344 0.98731 0.561 0.0
H556 H 0.22791 0.12359 0.59245 0.0
H557 H 0.23301 0.05073 0.5881 0.0
H558 H 0.23927 0.1502 0.41339 0.0
H559 H 0.24933 0.07813 0.41042 0.0
H560 H 0.18267 0.20731 0.43747 0.0
H561 H 0.19222 0.23947 0.48148 0.0
C562 C 0.07098 0.86681 0.47833 0.0
C563 C 0.11361 0.83118 0.46435 0.0
C564 C 0.06888 0.75266 0.49782 0.0
C565 C 0.02259 0.78772 0.50726 0.0
N566 N 0.97286 0.87324 0.493 0.0
N567 N 0.1475 0.73729 0.45532 0.0
C568 C 0.02152 0.84325 0.49328 0.0
C569 C 0.11079 0.77304 0.47232 0.0
N570 N 0.07872 0.92321 0.47977 0.0
N571 N 0.07479 0.70144 0.51448 0.0
H572 H 0.1778 0.75107 0.4362 0.0
H573 H 0.14435 0.69391 0.45744 0.0
H574 H 0.04658 0.68567 0.53421 0.0
H575 H 0.11054 0.67691 0.51136 0.0
H576 H 0.05002 0.95024 0.4924 0.0
H577 H 0.11589 0.94206 0.47127 0.0
H578 H 0.96983 0.9128 0.48061 0.0
H579 H 0.93448 0.8557 0.50063 0.0
C580 C 0.79084 0.96857 0.53093 0.0
C581 C 0.77657 0.96742 0.49214 0.0
C582 C 0.78668 0.86504 0.49226 0.0
C583 C 0.80068 0.86618 0.53174 0.0
N584 N 0.78215 0.91783 0.58959 0.0
N585 N 0.74212 0.91289 0.43974 0.0
C586 C 0.79222 0.9176 0.55152 0.0
C587 C 0.76888 0.91517 0.47392 0.0
N588 N 0.80405 0.01791 0.54814 0.0
N589 N 0.78933 0.81684 0.47178 0.0
H590 H 0.72829 0.94853 0.42562 0.0
H591 H 0.7294 0.87565 0.42703 0.0
H592 H 0.7883 0.77742 0.48386 0.0
H593 H 0.79066 0.81641 0.44224 0.0
H594 H 0.8172 0.02022 0.57628 0.0
H595 H 0.80786 0.05525 0.53304 0.0
H596 H 0.77303 0.95433 0.60452 0.0
H597 H 0.77414 0.88117 0.60472 0.0
C598 C 0.90344 0.21553 0.46245 0.0
C599 C 0.85267 0.20119 0.48129 0.0
C600 C 0.90092 0.22211 0.54158 0.0
C601 C 0.95339 0.22024 0.52268 0.0
N602 N 0.00391 0.20558 0.46464 0.0
N603 N 0.80173 0.20223 0.54064 0.0
C604 C 0.95448 0.2145 0.48291 0.0
C605 C 0.8509 0.20777 0.52149 0.0
N606 N 0.90285 0.23237 0.42549 0.0
N607 N 0.89838 0.24082 0.57806 0.0
H608 H 0.76303 0.20595 0.52746 0.0
H609 H 0.79964 0.19599 0.56984 0.0
H610 H 0.9338 0.2535 0.59294 0.0
H611 H 0.86108 0.24872 0.59233 0.0
H612 H 0.93874 0.24595 0.41141 0.0
H613 H 0.86559 0.24072 0.41106 0.0
H614 H 0.0065 0.19932 0.43546 0.0
H615 H 0.0408 0.19708 0.4794 0.0
C616 C 0.75589 0.08228 0.99358 0.0
C617 C 0.79055 0.03453 0.98809 0.0
C618 C 0.86666 0.08454 0.01841 0.0
C619 C 0.83002 0.12684 0.03119 0.0
N620 N 0.73565 0.16226 0.03386 0.0
N621 N 0.87279 0.9854 0.00965 0.0
C622 C 0.77306 0.12458 0.01983 0.0
C623 C 0.84419 0.03408 0.00481 0.0
N624 N 0.70898 0.08922 0.97214 0.0
N625 N 0.92267 0.09369 0.01632 0.0
H626 H 0.85416 0.94672 0.00433 0.0
H627 H 0.91132 0.98389 0.02365 0.0
H628 H 0.93956 0.13321 0.0213 0.0
H629 H 0.95016 0.0638 0.00544 0.0
H630 H 0.68461 0.12537 0.97301 0.0
H631 H 0.69866 0.06154 0.95044 0.0
H632 H 0.6928 0.15982 0.02845 0.0
H633 H 0.74722 0.19261 0.0536 0.0
C634 C 0.1332 0.23988 0.99258 0.0
C635 C 0.15744 0.18622 0.99606 0.0
C636 C 0.07986 0.1573 0.03677 0.0
C637 C 0.05661 0.2124 0.03587 0.0
N638 N 0.07978 0.3101 0.02536 0.0
N639 N 0.16295 0.10164 0.03355 0.0
C640 C 0.08846 0.25508 0.01721 0.0
C641 C 0.13434 0.14817 0.02254 0.0
N642 N 0.15353 0.27698 0.9666 0.0
N643 N 0.04991 0.11161 0.04806 0.0
H644 H 0.20212 0.09187 0.02333 0.0
H645 H 0.14971 0.07596 0.05572 0.0
H646 H 0.0105 0.11206 0.05978 0.0
H647 H 0.06253 0.07111 0.04125 0.0
H648 H 0.13344 0.31464 0.96039 0.0
H649 H 0.18862 0.2685 0.94996 0.0
H650 H 0.10459 0.34212 0.01437 0.0
H651 H 0.05437 0.32279 0.0476 0.0
C652 C 0.19929 0.86533 0.99218 0.0
C653 C 0.20008 0.86182 0.03266 0.0
C654 C 0.23843 0.95758 0.03495 0.0
C655 C 0.23139 0.96334 0.99502 0.0
N656 N 0.23194 0.91345 0.93607 0.0
N657 N 0.24959 0.894 0.08796 0.0
C658 C 0.21894 0.91466 0.97371 0.0
C659 C 0.22813 0.90498 0.05281 0.0
N660 N 0.18223 0.82116 0.97074 0.0
N661 N 0.25548 0.0019 0.05614 0.0
H662 H 0.24971 0.85379 0.09949 0.0
H663 H 0.27432 0.9221 0.10309 0.0
H664 H 0.27102 0.038 0.04398 0.0
H665 H 0.25276 0.003 0.08561 0.0
H666 H 0.16818 0.82554 0.9429 0.0
H667 H 0.18715 0.78007 0.97962 0.0
H668 H 0.2298 0.87756 0.91942 0.0
H669 H 0.25173 0.94676 0.92263 0.0
C670 C 0.8786 0.77197 0.99578 0.0
C671 C 0.88229 0.82292 0.97538 0.0
C672 C 0.98092 0.83113 0.9951 0.0
C673 C 0.97353 0.78623 0.02074 0.0
N674 N 0.91195 0.71822 0.04941 0.0
N675 N 0.93659 0.90543 0.96068 0.0
C676 C 0.92141 0.75768 0.02218 0.0
C677 C 0.93363 0.85338 0.97609 0.0
N678 N 0.83618 0.73555 0.98815 0.0
N679 N 0.03321 0.85222 0.98834 0.0
H680 H 0.90157 0.9248 0.94962 0.0
H681 H 0.97093 0.93197 0.96368 0.0
H682 H 0.0691 0.83728 1.00175 0.0
H683 H 0.04174 0.88061 0.96667 0.0
H684 H 0.8334 0.69584 1.00022 0.0
H685 H 0.8086 0.7424 0.96574 0.0
H686 H 0.87283 0.70006 0.05387 0.0
H687 H 0.94175 0.70775 0.06981 0.0
C688 C 0.21655 0.22257 0.73559 0.0
C689 C 0.16641 0.19923 0.72036 0.0
C690 C 0.16317 0.1347 0.77396 0.0
C691 C 0.20671 0.16392 0.79272 0.0
N692 N 0.26955 0.24318 0.79271 0.0
N693 N 0.08187 0.148 0.73524 0.0
C694 C 0.23208 0.21013 0.77391 0.0
C695 C 0.13672 0.15951 0.74239 0.0
N696 N 0.25047 0.25476 0.71335 0.0
N697 N 0.14897 0.08169 0.78442 0.0
H698 H 0.05868 0.17027 0.7153 0.0
H699 H 0.05826 0.12156 0.75254 0.0
H700 H 0.17089 0.05971 0.80514 0.0
H701 H 0.11968 0.05801 0.7694 0.0
H702 H 0.28977 0.26862 0.72215 0.0
H703 H 0.24212 0.26255 0.68482 0.0
H704 H 0.28531 0.28026 0.7814 0.0
H705 H 0.28051 0.23652 0.82097 0.0
C706 C 0.16394 0.75163 0.24168 0.0
C707 C 0.19506 0.78244 0.21454 0.0
C708 C 0.24682 0.82684 0.26637 0.0
C709 C 0.20683 0.80642 0.29262 0.0
N710 N 0.12557 0.74944 0.30521 0.0
N711 N 0.26597 0.85165 0.20111 0.0
C712 C 0.16525 0.76813 0.28041 0.0
C713 C 0.23714 0.82018 0.22684 0.0
N714 N 0.13459 0.70557 0.23043 0.0
N715 N 0.29482 0.85108 0.27943 0.0
H716 H 0.2605 0.84762 0.17193 0.0
H717 H 0.29249 0.88433 0.20887 0.0
H718 H 0.30441 0.85215 0.30828 0.0
H719 H 0.32756 0.86341 0.26182 0.0
H720 H 0.11401 0.67895 0.24921 0.0
H721 H 0.1371 0.6904 0.20277 0.0
H722 H 0.09061 0.72652 0.29675 0.0
H723 H 0.12569 0.75992 0.33389 0.0
C724 C 0.77961 0.76045 0.73118 0.0
C725 C 0.83041 0.7835 0.7169 0.0
C726 C 0.82848 0.85179 0.76764 0.0
C727 C 0.78494 0.82252 0.78668 0.0
N728 N 0.72892 0.73751 0.78839 0.0
N729 N 0.91393 0.83423 0.73451 0.0
C730 C 0.763 0.77338 0.76907 0.0
C731 C 0.85824 0.82419 0.73894 0.0
N732 N 0.74607 0.7282 0.70874 0.0
N733 N 0.8402 0.90655 0.7751 0.0
H734 H 0.939 0.80837 0.71785 0.0
H735 H 0.93558 0.86254 0.75166 0.0
H736 H 0.8146 0.93157 0.79191 0.0
H737 H 0.87094 0.92845 0.76016 0.0
H738 H 0.70673 0.71438 0.71748 0.0
H739 H 0.75433 0.72094 0.6802 0.0
H740 H 0.71583 0.69942 0.77701 0.0
H741 H 0.71958 0.74192 0.81702 0.0
C742 C 0.83242 0.15299 0.27443 0.0
C743 C 0.78526 0.1736 0.29376 0.0
C744 C 0.76585 0.2303 0.23629 0.0
C745 C 0.82119 0.21905 0.22315 0.0
N746 N 0.91288 0.18876 0.24359 0.0
N747 N 0.70025 0.22838 0.28908 0.0
C748 C 0.85632 0.18616 0.24634 0.0
C749 C 0.74995 0.21202 0.27374 0.0
N750 N 0.85169 0.10007 0.27974 0.0
N751 N 0.72785 0.25516 0.21276 0.0
H752 H 0.68225 0.20787 0.31209 0.0
H753 H 0.67679 0.26169 0.27854 0.0
H754 H 0.73739 0.26707 0.18512 0.0
H755 H 0.68567 0.25972 0.21952 0.0
H756 H 0.88609 0.08472 0.26473 0.0
H757 H 0.828 0.07 0.29397 0.0
H758 H 0.93898 0.16579 0.26161 0.0
H759 H 0.9324 0.21878 0.22686 0.0
loop_
_geom_bond_atom_site_label_1
_geom_bond_atom_site_label_2
_geom_bond_distance
_geom_bond_site_symmetry_2
_ccdc_geom_bond_type
Co0 O2 2.143 . S
Co0 O8 2.074 . S
Co0 O11 2.093 . S
Co0 O24 2.097 . S
Co0 N41 2.151 . S
Co0 N49 2.214 . S
Co1 O2 2.160 . S
Co1 O7 2.058 . S
Co1 O17 2.057 . S
Co1 O32 2.037 . S
Co1 N36 2.145 . S
Co1 N57 2.257 . S
O2 Co0 2.143 . S
O2 Co1 2.160 . S
C3 O4 1.278 . S
C3 O11 1.224 . S
O4 C3 1.278 . S
C5 O6 1.245 . S
C5 O17 1.232 . S
O6 C5 1.245 . S
O7 Co1 2.058 . S
O7 C33 1.269 . S
O8 Co0 2.074 . S
O8 C33 1.257 . S
H9 C34 0.930 . S
H10 C40 0.930 . S
O11 Co0 2.093 . S
O11 C3 1.224 . S
H12 C44 0.929 . S
H13 C46 0.930 1_565 S
H14 C47 0.930 . S
H15 C45 0.929 . S
H16 C48 0.928 . S
O17 Co1 2.057 . S
O17 C5 1.232 . S
H18 C37 0.929 . S
H19 C38 0.929 . S
H20 C50 0.931 1_565 S
H21 C42 0.929 . S
H22 C51 0.930 . S
H23 C43 0.931 . S
O24 Co0 2.097 . S
O24 C52 1.214 . S
H25 C53 0.929 . S
H26 C54 0.929 . S
H27 C55 0.930 . S
H28 C56 0.929 . S
H29 C58 0.930 . S
H30 C35 0.930 . S
H31 C39 0.930 . S
O32 Co1 2.037 . S
O32 C52 1.234 . S
C33 O7 1.269 . S
C33 O8 1.257 . S
C34 H9 0.930 . S
C34 C37 1.388 . S
C34 C39 1.418 . S
C35 H30 0.930 . S
C35 C38 1.404 . S
C35 C39 1.353 . S
N36 Co1 2.145 . S
N36 C37 1.397 . S
N36 C38 1.334 . S
C37 H18 0.929 . S
C37 C34 1.388 . S
C37 N36 1.397 . S
C38 H19 0.929 . S
C38 C35 1.404 . S
C38 N36 1.334 . S
C39 H31 0.930 . S
C39 C34 1.418 . S
C39 C35 1.353 . S
C40 H10 0.930 . S
C40 N41 1.330 . S
C40 C42 1.446 1_455 S
N41 Co0 2.151 . S
N41 C40 1.330 . S
N41 C45 1.418 1_455 S
C42 H21 0.929 . S
C42 C40 1.446 1_655 S
C42 C43 1.332 . S
C43 H23 0.931 . S
C43 C42 1.332 . S
C43 C44 1.267 . S
C44 H12 0.929 . S
C44 C43 1.267 . S
C44 C45 1.251 . S
C45 H15 0.929 . S
C45 N41 1.418 1_655 S
C45 C44 1.251 . S
C46 H13 0.930 1_545 S
C46 C48 1.406 . S
C46 C51 1.261 1_545 S
C47 H14 0.930 . S
C47 N49 1.325 . S
C47 C50 1.357 . S
C48 H16 0.928 . S
C48 C46 1.406 . S
C48 N49 1.261 . S
N49 Co0 2.214 . S
N49 C47 1.325 . S
N49 C48 1.261 . S
C50 H20 0.931 1_545 S
C50 C47 1.357 . S
C50 C51 1.312 1_545 S
C51 H22 0.930 . S
C51 C46 1.261 1_565 S
C51 C50 1.312 1_565 S
C52 O24 1.214 . S
C52 O32 1.234 . S
C53 H25 0.929 . S
C53 C56 1.391 . S
C53 C58 1.391 . S
C54 H26 0.929 . S
C54 C55 1.390 . S
C54 N57 1.391 . S
C55 H27 0.930 . S
C55 C54 1.390 . S
C55 C56 1.392 . S
C56 H28 0.929 . S
C56 C53 1.391 . S
C56 C55 1.392 . S
N57 Co1 2.257 . S
N57 C54 1.391 . S
N57 C58 1.388 . S
C58 H29 0.930 . S
C58 C53 1.391 . S
C58 N57 1.388 . S
Co59 O61 2.143 . S
Co59 O67 2.074 . S
Co59 O70 2.093 . S
Co59 O83 2.097 . S
Co59 N100 2.151 . S
Co59 N108 2.214 . S
Co60 O61 2.160 . S
Co60 O66 2.058 . S
Co60 O76 2.057 . S
Co60 O91 2.037 . S
Co60 N95 2.145 . S
Co60 N116 2.257 . S
O61 Co59 2.143 . S
O61 Co60 2.160 . S
C62 O63 1.278 . S
C62 O70 1.224 . S
O63 C62 1.278 . S
C64 O65 1.245 . S
C64 O76 1.232 . S
O65 C64 1.245 . S
O66 Co60 2.058 . S
O66 C92 1.269 . S
O67 Co59 2.074 . S
O67 C92 1.257 . S
H68 C93 0.930 . S
H69 C99 0.930 . S
O70 Co59 2.093 . S
O70 C62 1.224 . S
H71 C103 0.929 . S
H72 C105 0.930 1_655 S
H73 C106 0.930 . S
H74 C104 0.929 . S
H75 C107 0.928 . S
O76 Co60 2.057 . S
O76 C64 1.232 . S
H77 C96 0.929 . S
H78 C97 0.929 . S
H79 C109 0.931 1_655 S
H80 C101 0.929 . S
H81 C110 0.930 . S
H82 C102 0.931 . S
O83 Co59 2.097 . S
O83 C111 1.214 . S
H84 C112 0.929 . S
H85 C113 0.929 . S
H86 C114 0.930 . S
H87 C115 0.929 . S
H88 C117 0.930 . S
H89 C94 0.930 . S
H90 C98 0.930 . S
O91 Co60 2.037 . S
O91 C111 1.234 . S
C92 O66 1.269 . S
C92 O67 1.257 . S
C93 H68 0.930 . S
C93 C96 1.388 . S
C93 C98 1.418 . S
C94 H89 0.930 . S
C94 C97 1.404 . S
C94 C98 1.353 . S
N95 Co60 2.145 . S
N95 C96 1.397 . S
N95 C97 1.334 . S
C96 H77 0.929 . S
C96 C93 1.388 . S
C96 N95 1.397 . S
C97 H78 0.929 . S
C97 C94 1.404 . S
C97 N95 1.334 . S
C98 H90 0.930 . S
C98 C93 1.418 . S
C98 C94 1.353 . S
C99 H69 0.930 . S
C99 N100 1.330 . S
C99 C101 1.446 1_565 S
N100 Co59 2.151 . S
N100 C99 1.330 . S
N100 C104 1.418 1_565 S
C101 H80 0.929 . S
C101 C99 1.446 1_545 S
C101 C102 1.332 . S
C102 H82 0.931 . S
C102 C101 1.332 . S
C102 C103 1.267 . S
C103 H71 0.929 . S
C103 C102 1.267 . S
C103 C104 1.251 . S
C104 H74 0.929 . S
C104 N100 1.418 1_545 S
C104 C103 1.251 . S
C105 H72 0.930 1_455 S
C105 C107 1.406 . S
C105 C110 1.261 1_455 S
C106 H73 0.930 . S
C106 N108 1.325 . S
C106 C109 1.357 . S
C107 H75 0.928 . S
C107 C105 1.406 . S
C107 N108 1.261 . S
N108 Co59 2.214 . S
N108 C106 1.325 . S
N108 C107 1.261 . S
C109 H79 0.931 1_455 S
C109 C106 1.357 . S
C109 C110 1.312 1_455 S
C110 H81 0.930 . S
C110 C105 1.261 1_655 S
C110 C109 1.312 1_655 S
C111 O83 1.214 . S
C111 O91 1.234 . S
C112 H84 0.929 . S
C112 C115 1.391 . S
C112 C117 1.391 . S
C113 H85 0.929 . S
C113 C114 1.390 . S
C113 N116 1.391 . S
C114 H86 0.930 . S
C114 C113 1.390 . S
C114 C115 1.392 . S
C115 H87 0.929 . S
C115 C112 1.391 . S
C115 C114 1.392 . S
N116 Co60 2.257 . S
N116 C113 1.391 . S
N116 C117 1.388 . S
C117 H88 0.930 . S
C117 C112 1.391 . S
C117 N116 1.388 . S
Co118 O120 2.143 . S
Co118 O126 2.074 . S
Co118 O129 2.093 . S
Co118 O142 2.097 . S
Co118 N159 2.151 . S
Co118 N167 2.214 . S
Co119 O120 2.160 . S
Co119 O125 2.058 . S
Co119 O135 2.057 . S
Co119 O150 2.037 . S
Co119 N154 2.145 . S
Co119 N175 2.257 . S
O120 Co118 2.143 . S
O120 Co119 2.160 . S
C121 O122 1.278 . S
C121 O129 1.224 . S
O122 C121 1.278 . S
C123 O124 1.245 . S
C123 O135 1.232 . S
O124 C123 1.245 . S
O125 Co119 2.058 . S
O125 C151 1.269 . S
O126 Co118 2.074 . S
O126 C151 1.257 . S
H127 C152 0.930 . S
H128 C158 0.930 . S
O129 Co118 2.093 . S
O129 C121 1.224 . S
H130 C162 0.929 . S
H131 C164 0.930 1_545 S
H132 C165 0.930 . S
H133 C163 0.929 . S
H134 C166 0.928 . S
O135 Co119 2.057 . S
O135 C123 1.232 . S
H136 C155 0.929 . S
H137 C156 0.929 . S
H138 C168 0.931 1_545 S
H139 C160 0.929 . S
H140 C169 0.930 . S
H141 C161 0.931 . S
O142 Co118 2.097 . S
O142 C170 1.214 . S
H143 C171 0.929 . S
H144 C172 0.929 . S
H145 C173 0.930 . S
H146 C174 0.929 . S
H147 C176 0.930 . S
H148 C153 0.930 . S
H149 C157 0.930 . S
O150 Co119 2.037 . S
O150 C170 1.234 . S
C151 O125 1.269 . S
C151 O126 1.257 . S
C152 H127 0.930 . S
C152 C155 1.388 . S
C152 C157 1.418 . S
C153 H148 0.930 . S
C153 C156 1.404 . S
C153 C157 1.353 . S
N154 Co119 2.145 . S
N154 C155 1.397 . S
N154 C156 1.334 . S
C155 H136 0.929 . S
C155 C152 1.388 . S
C155 N154 1.397 . S
C156 H137 0.929 . S
C156 C153 1.404 . S
C156 N154 1.334 . S
C157 H149 0.930 . S
C157 C152 1.418 . S
C157 C153 1.353 . S
C158 H128 0.930 . S
C158 N159 1.330 . S
C158 C160 1.446 1_655 S
N159 Co118 2.151 . S
N159 C158 1.330 . S
N159 C163 1.418 1_655 S
C160 H139 0.929 . S
C160 C158 1.446 1_455 S
C160 C161 1.332 . S
C161 H141 0.931 . S
C161 C160 1.332 . S
C161 C162 1.267 . S
C162 H130 0.929 . S
C162 C161 1.267 . S
C162 C163 1.251 . S
C163 H133 0.929 . S
C163 N159 1.418 1_455 S
C163 C162 1.251 . S
C164 H131 0.930 1_565 S
C164 C166 1.406 . S
C164 C169 1.261 1_565 S
C165 H132 0.930 . S
C165 N167 1.325 . S
C165 C168 1.357 . S
C166 H134 0.928 . S
C166 C164 1.406 . S
C166 N167 1.261 . S
N167 Co118 2.214 . S
N167 C165 1.325 . S
N167 C166 1.261 . S
C168 H138 0.931 1_565 S
C168 C165 1.357 . S
C168 C169 1.312 1_565 S
C169 H140 0.930 . S
C169 C164 1.261 1_545 S
C169 C168 1.312 1_545 S
C170 O142 1.214 . S
C170 O150 1.234 . S
C171 H143 0.929 . S
C171 C174 1.391 . S
C171 C176 1.391 . S
C172 H144 0.929 . S
C172 C173 1.390 . S
C172 N175 1.391 . S
C173 H145 0.930 . S
C173 C172 1.390 . S
C173 C174 1.392 . S
C174 H146 0.929 . S
C174 C171 1.391 . S
C174 C173 1.392 . S
N175 Co119 2.257 . S
N175 C172 1.391 . S
N175 C176 1.388 . S
C176 H147 0.930 . S
C176 C171 1.391 . S
C176 N175 1.388 . S
Co177 O179 2.143 . S
Co177 O185 2.074 . S
Co177 O188 2.093 . S
Co177 O201 2.097 . S
Co177 N218 2.151 . S
Co177 N226 2.214 . S
Co178 O179 2.160 . S
Co178 O184 2.058 . S
Co178 O194 2.057 . S
Co178 O209 2.037 . S
Co178 N213 2.145 . S
Co178 N234 2.257 . S
O179 Co177 2.143 . S
O179 Co178 2.160 . S
C180 O181 1.278 . S
C180 O188 1.224 . S
O181 C180 1.278 . S
C182 O183 1.245 . S
C182 O194 1.232 . S
O183 C182 1.245 . S
O184 Co178 2.058 . S
O184 C210 1.269 . S
O185 Co177 2.074 . S
O185 C210 1.257 . S
H186 C211 0.930 . S
H187 C217 0.930 . S
O188 Co177 2.093 . S
O188 C180 1.224 . S
H189 C221 0.929 . S
H190 C223 0.930 1_455 S
H191 C224 0.930 . S
H192 C222 0.929 . S
H193 C225 0.928 . S
O194 Co178 2.057 . S
O194 C182 1.232 . S
H195 C214 0.929 . S
H196 C215 0.929 . S
H197 C227 0.931 1_455 S
H198 C219 0.929 . S
H199 C228 0.930 . S
H200 C220 0.931 . S
O201 Co177 2.097 . S
O201 C229 1.214 . S
H202 C230 0.929 . S
H203 C231 0.929 . S
H204 C232 0.930 . S
H205 C233 0.929 . S
H206 C235 0.930 . S
H207 C212 0.930 . S
H208 C216 0.930 . S
O209 Co178 2.037 . S
O209 C229 1.234 . S
C210 O184 1.269 . S
C210 O185 1.257 . S
C211 H186 0.930 . S
C211 C214 1.388 . S
C211 C216 1.418 . S
C212 H207 0.930 . S
C212 C215 1.404 . S
C212 C216 1.353 . S
N213 Co178 2.145 . S
N213 C214 1.397 . S
N213 C215 1.334 . S
C214 H195 0.929 . S
C214 C211 1.388 . S
C214 N213 1.397 . S
C215 H196 0.929 . S
C215 C212 1.404 . S
C215 N213 1.334 . S
C216 H208 0.930 . S
C216 C211 1.418 . S
C216 C212 1.353 . S
C217 H187 0.930 . S
C217 N218 1.330 . S
C217 C219 1.446 1_545 S
N218 Co177 2.151 . S
N218 C217 1.330 . S
N218 C222 1.418 1_545 S
C219 H198 0.929 . S
C219 C217 1.446 1_565 S
C219 C220 1.332 . S
C220 H200 0.931 . S
C220 C219 1.332 . S
C220 C221 1.267 . S
C221 H189 0.929 . S
C221 C220 1.267 . S
C221 C222 1.251 . S
C222 H192 0.929 . S
C222 N218 1.418 1_565 S
C222 C221 1.251 . S
C223 H190 0.930 1_655 S
C223 C225 1.406 . S
C223 C228 1.261 1_655 S
C224 H191 0.930 . S
C224 N226 1.325 . S
C224 C227 1.357 . S
C225 H193 0.928 . S
C225 C223 1.406 . S
C225 N226 1.261 . S
N226 Co177 2.214 . S
N226 C224 1.325 . S
N226 C225 1.261 . S
C227 H197 0.931 1_655 S
C227 C224 1.357 . S
C227 C228 1.312 1_655 S
C228 H199 0.930 . S
C228 C223 1.261 1_455 S
C228 C227 1.312 1_455 S
C229 O201 1.214 . S
C229 O209 1.234 . S
C230 H202 0.929 . S
C230 C233 1.391 . S
C230 C235 1.391 . S
C231 H203 0.929 . S
C231 C232 1.390 . S
C231 N234 1.391 . S
C232 H204 0.930 . S
C232 C231 1.390 . S
C232 C233 1.392 . S
C233 H205 0.929 . S
C233 C230 1.391 . S
C233 C232 1.392 . S
N234 Co178 2.257 . S
N234 C231 1.391 . S
N234 C235 1.388 . S
C235 H206 0.930 . S
C235 C230 1.391 . S
C235 N234 1.388 . S
Co236 O238 2.143 . S
Co236 O244 2.074 . S
Co236 O247 2.093 . S
Co236 O260 2.097 . S
Co236 N277 2.151 . S
Co236 N285 2.214 . S
Co237 O238 2.160 . S
Co237 O243 2.058 . S
Co237 O253 2.057 . S
Co237 O268 2.037 . S
Co237 N272 2.145 1_554 S
Co237 N293 2.257 . S
O238 Co236 2.143 . S
O238 Co237 2.160 . S
C239 O240 1.278 . S
C239 O247 1.224 . S
O240 C239 1.278 . S
C241 O242 1.245 . S
C241 O253 1.232 . S
O242 C241 1.245 . S
O243 Co237 2.058 . S
O243 C269 1.269 . S
O244 Co236 2.074 . S
O244 C269 1.257 . S
H245 C270 0.930 . S
H246 C276 0.930 . S
O247 Co236 2.093 . S
O247 C239 1.224 . S
H248 C280 0.929 . S
H249 C282 0.930 1_565 S
H250 C283 0.930 . S
H251 C281 0.929 . S
H252 C284 0.928 . S
O253 Co237 2.057 . S
O253 C241 1.232 . S
H254 C273 0.929 . S
H255 C274 0.929 1_554 S
H256 C286 0.931 1_565 S
H257 C278 0.929 . S
H258 C287 0.930 . S
H259 C279 0.931 . S
O260 Co236 2.097 . S
O260 C288 1.214 . S
H261 C289 0.929 . S
H262 C290 0.929 . S
H263 C291 0.930 . S
H264 C292 0.929 . S
H265 C294 0.930 . S
H266 C271 0.930 . S
H267 C275 0.930 . S
O268 Co237 2.037 . S
O268 C288 1.234 . S
C269 O243 1.269 . S
C269 O244 1.257 . S
C270 H245 0.930 . S
C270 C273 1.388 . S
C270 C275 1.418 . S
C271 H266 0.930 . S
C271 C274 1.404 . S
C271 C275 1.353 . S
N272 Co237 2.145 1_556 S
N272 C273 1.397 . S
N272 C274 1.334 . S
C273 H254 0.929 . S
C273 C270 1.388 . S
C273 N272 1.397 . S
C274 H255 0.929 1_556 S
C274 C271 1.404 . S
C274 N272 1.334 . S
C275 H267 0.930 . S
C275 C270 1.418 . S
C275 C271 1.353 . S
C276 H246 0.930 . S
C276 N277 1.330 . S
C276 C278 1.446 1_655 S
N277 Co236 2.151 . S
N277 C276 1.330 . S
N277 C281 1.418 1_655 S
C278 H257 0.929 . S
C278 C276 1.446 1_455 S
C278 C279 1.332 . S
C279 H259 0.931 . S
C279 C278 1.332 . S
C279 C280 1.267 . S
C280 H248 0.929 . S
C280 C279 1.267 . S
C280 C281 1.251 . S
C281 H251 0.929 . S
C281 N277 1.418 1_455 S
C281 C280 1.251 . S
C282 H249 0.930 1_545 S
C282 C284 1.406 . S
C282 C287 1.261 1_545 S
C283 H250 0.930 . S
C283 N285 1.325 . S
C283 C286 1.357 . S
C284 H252 0.928 . S
C284 C282 1.406 . S
C284 N285 1.261 . S
N285 Co236 2.214 . S
N285 C283 1.325 . S
N285 C284 1.261 . S
C286 H256 0.931 1_545 S
C286 C283 1.357 . S
C286 C287 1.312 1_545 S
C287 H258 0.930 . S
C287 C282 1.261 1_565 S
C287 C286 1.312 1_565 S
C288 O260 1.214 . S
C288 O268 1.234 . S
C289 H261 0.929 . S
C289 C292 1.391 . S
C289 C294 1.391 . S
C290 H262 0.929 . S
C290 C291 1.390 . S
C290 N293 1.391 . S
C291 H263 0.930 . S
C291 C290 1.390 . S
C291 C292 1.392 . S
C292 H264 0.929 . S
C292 C289 1.391 . S
C292 C291 1.392 . S
N293 Co237 2.257 . S
N293 C290 1.391 . S
N293 C294 1.388 . S
C294 H265 0.930 . S
C294 C289 1.391 . S
C294 N293 1.388 . S
Co295 O297 2.143 . S
Co295 O303 2.074 . S
Co295 O306 2.093 . S
Co295 O319 2.097 . S
Co295 N336 2.151 . S
Co295 N344 2.214 . S
Co296 O297 2.160 . S
Co296 O302 2.058 . S
Co296 O312 2.057 . S
Co296 O327 2.037 . S
Co296 N331 2.145 1_556 S
Co296 N352 2.257 . S
O297 Co295 2.143 . S
O297 Co296 2.160 . S
C298 O299 1.278 . S
C298 O306 1.224 . S
O299 C298 1.278 . S
C300 O301 1.245 . S
C300 O312 1.232 . S
O301 C300 1.245 . S
O302 Co296 2.058 . S
O302 C328 1.269 . S
O303 Co295 2.074 . S
O303 C328 1.257 . S
H304 C329 0.930 . S
H305 C335 0.930 . S
O306 Co295 2.093 . S
O306 C298 1.224 . S
H307 C339 0.929 . S
H308 C341 0.930 1_655 S
H309 C342 0.930 . S
H310 C340 0.929 . S
H311 C343 0.928 . S
O312 Co296 2.057 . S
O312 C300 1.232 . S
H313 C332 0.929 . S
H314 C333 0.929 1_556 S
H315 C345 0.931 1_655 S
H316 C337 0.929 . S
H317 C346 0.930 . S
H318 C338 0.931 . S
O319 Co295 2.097 . S
O319 C347 1.214 . S
H320 C348 0.929 . S
H321 C349 0.929 . S
H322 C350 0.930 . S
H323 C351 0.929 . S
H324 C353 0.930 . S
H325 C330 0.930 . S
H326 C334 0.930 . S
O327 Co296 2.037 . S
O327 C347 1.234 . S
C328 O302 1.269 . S
C328 O303 1.257 . S
C329 H304 0.930 . S
C329 C332 1.388 . S
C329 C334 1.418 . S
C330 H325 0.930 . S
C330 C333 1.404 . S
C330 C334 1.353 . S
N331 Co296 2.145 1_554 S
N331 C332 1.397 . S
N331 C333 1.334 . S
C332 H313 0.929 . S
C332 C329 1.388 . S
C332 N331 1.397 . S
C333 H314 0.929 1_554 S
C333 C330 1.404 . S
C333 N331 1.334 . S
C334 H326 0.930 . S
C334 C329 1.418 . S
C334 C330 1.353 . S
C335 H305 0.930 . S
C335 N336 1.330 . S
C335 C337 1.446 1_545 S
N336 Co295 2.151 . S
N336 C335 1.330 . S
N336 C340 1.418 1_545 S
C337 H316 0.929 . S
C337 C335 1.446 1_565 S
C337 C338 1.332 . S
C338 H318 0.931 . S
C338 C337 1.332 . S
C338 C339 1.267 . S
C339 H307 0.929 . S
C339 C338 1.267 . S
C339 C340 1.251 . S
C340 H310 0.929 . S
C340 N336 1.418 1_565 S
C340 C339 1.251 . S
C341 H308 0.930 1_455 S
C341 C343 1.406 . S
C341 C346 1.261 1_455 S
C342 H309 0.930 . S
C342 N344 1.325 . S
C342 C345 1.357 . S
C343 H311 0.928 . S
C343 C341 1.406 . S
C343 N344 1.261 . S
N344 Co295 2.214 . S
N344 C342 1.325 . S
N344 C343 1.261 . S
C345 H315 0.931 1_455 S
C345 C342 1.357 . S
C345 C346 1.312 1_455 S
C346 H317 0.930 . S
C346 C341 1.261 1_655 S
C346 C345 1.312 1_655 S
C347 O319 1.214 . S
C347 O327 1.234 . S
C348 H320 0.929 . S
C348 C351 1.391 . S
C348 C353 1.391 . S
C349 H321 0.929 . S
C349 C350 1.390 . S
C349 N352 1.391 . S
C350 H322 0.930 . S
C350 C349 1.390 . S
C350 C351 1.392 . S
C351 H323 0.929 . S
C351 C348 1.391 . S
C351 C350 1.392 . S
N352 Co296 2.257 . S
N352 C349 1.391 . S
N352 C353 1.388 . S
C353 H324 0.930 . S
C353 C348 1.391 . S
C353 N352 1.388 . S
Co354 O356 2.143 . S
Co354 O362 2.074 . S
Co354 O365 2.093 . S
Co354 O378 2.097 . S
Co354 N395 2.151 . S
Co354 N403 2.214 . S
Co355 O356 2.160 . S
Co355 O361 2.058 . S
Co355 O371 2.057 . S
Co355 O386 2.037 . S
Co355 N390 2.145 1_554 S
Co355 N411 2.257 . S
O356 Co354 2.143 . S
O356 Co355 2.160 . S
C357 O358 1.278 . S
C357 O365 1.224 . S
O358 C357 1.278 . S
C359 O360 1.245 . S
C359 O371 1.232 . S
O360 C359 1.245 . S
O361 Co355 2.058 . S
O361 C387 1.269 . S
O362 Co354 2.074 . S
O362 C387 1.257 . S
H363 C388 0.930 . S
H364 C394 0.930 . S
O365 Co354 2.093 . S
O365 C357 1.224 . S
H366 C398 0.929 . S
H367 C400 0.930 1_545 S
H368 C401 0.930 . S
H369 C399 0.929 . S
H370 C402 0.928 . S
O371 Co355 2.057 . S
O371 C359 1.232 . S
H372 C391 0.929 . S
H373 C392 0.929 1_554 S
H374 C404 0.931 1_545 S
H375 C396 0.929 . S
H376 C405 0.930 . S
H377 C397 0.931 . S
O378 Co354 2.097 . S
O378 C406 1.214 . S
H379 C407 0.929 . S
H380 C408 0.929 . S
H381 C409 0.930 . S
H382 C410 0.929 . S
H383 C412 0.930 . S
H384 C389 0.930 . S
H385 C393 0.930 . S
O386 Co355 2.037 . S
O386 C406 1.234 . S
C387 O361 1.269 . S
C387 O362 1.257 . S
C388 H363 0.930 . S
C388 C391 1.388 . S
C388 C393 1.418 . S
C389 H384 0.930 . S
C389 C392 1.404 . S
C389 C393 1.353 . S
N390 Co355 2.145 1_556 S
N390 C391 1.397 . S
N390 C392 1.334 . S
C391 H372 0.929 . S
C391 C388 1.388 . S
C391 N390 1.397 . S
C392 H373 0.929 1_556 S
C392 C389 1.404 . S
C392 N390 1.334 . S
C393 H385 0.930 . S
C393 C388 1.418 . S
C393 C389 1.353 . S
C394 H364 0.930 . S
C394 N395 1.330 . S
C394 C396 1.446 1_455 S
N395 Co354 2.151 . S
N395 C394 1.330 . S
N395 C399 1.418 1_455 S
C396 H375 0.929 . S
C396 C394 1.446 1_655 S
C396 C397 1.332 . S
C397 H377 0.931 . S
C397 C396 1.332 . S
C397 C398 1.267 . S
C398 H366 0.929 . S
C398 C397 1.267 . S
C398 C399 1.251 . S
C399 H369 0.929 . S
C399 N395 1.418 1_655 S
C399 C398 1.251 . S
C400 H367 0.930 1_565 S
C400 C402 1.406 . S
C400 C405 1.261 1_565 S
C401 H368 0.930 . S
C401 N403 1.325 . S
C401 C404 1.357 . S
C402 H370 0.928 . S
C402 C400 1.406 . S
C402 N403 1.261 . S
N403 Co354 2.214 . S
N403 C401 1.325 . S
N403 C402 1.261 . S
C404 H374 0.931 1_565 S
C404 C401 1.357 . S
C404 C405 1.312 1_565 S
C405 H376 0.930 . S
C405 C400 1.261 1_545 S
C405 C404 1.312 1_545 S
C406 O378 1.214 . S
C406 O386 1.234 . S
C407 H379 0.929 . S
C407 C410 1.391 . S
C407 C412 1.391 . S
C408 H380 0.929 . S
C408 C409 1.390 . S
C408 N411 1.391 . S
C409 H381 0.930 . S
C409 C408 1.390 . S
C409 C410 1.392 . S
C410 H382 0.929 . S
C410 C407 1.391 . S
C410 C409 1.392 . S
N411 Co355 2.257 . S
N411 C408 1.391 . S
N411 C412 1.388 . S
C412 H383 0.930 . S
C412 C407 1.391 . S
C412 N411 1.388 . S
Co413 O415 2.143 . S
Co413 O421 2.074 . S
Co413 O424 2.093 . S
Co413 O437 2.097 . S
Co413 N454 2.151 . S
Co413 N462 2.214 . S
Co414 O415 2.160 . S
Co414 O420 2.058 . S
Co414 O430 2.057 . S
Co414 O445 2.037 . S
Co414 N449 2.145 1_556 S
Co414 N470 2.257 . S
O415 Co413 2.143 . S
O415 Co414 2.160 . S
C416 O417 1.278 . S
C416 O424 1.224 . S
O417 C416 1.278 . S
C418 O419 1.245 . S
C418 O430 1.232 . S
O419 C418 1.245 . S
O420 Co414 2.058 . S
O420 C446 1.269 . S
O421 Co413 2.074 . S
O421 C446 1.257 . S
H422 C447 0.930 . S
H423 C453 0.930 . S
O424 Co413 2.093 . S
O424 C416 1.224 . S
H425 C457 0.929 . S
H426 C459 0.930 1_455 S
H427 C460 0.930 . S
H428 C458 0.929 . S
H429 C461 0.928 . S
O430 Co414 2.057 . S
O430 C418 1.232 . S
H431 C450 0.929 . S
H432 C451 0.929 1_556 S
H433 C463 0.931 1_455 S
H434 C455 0.929 . S
H435 C464 0.930 . S
H436 C456 0.931 . S
O437 Co413 2.097 . S
O437 C465 1.214 . S
H438 C466 0.929 . S
H439 C467 0.929 . S
H440 C468 0.930 . S
H441 C469 0.929 . S
H442 C471 0.930 . S
H443 C448 0.930 . S
H444 C452 0.930 . S
O445 Co414 2.037 . S
O445 C465 1.234 . S
C446 O420 1.269 . S
C446 O421 1.257 . S
C447 H422 0.930 . S
C447 C450 1.388 . S
C447 C452 1.418 . S
C448 H443 0.930 . S
C448 C451 1.404 . S
C448 C452 1.353 . S
N449 Co414 2.145 1_554 S
N449 C450 1.397 . S
N449 C451 1.334 . S
C450 H431 0.929 . S
C450 C447 1.388 . S
C450 N449 1.397 . S
C451 H432 0.929 1_554 S
C451 C448 1.404 . S
C451 N449 1.334 . S
C452 H444 0.930 . S
C452 C447 1.418 . S
C452 C448 1.353 . S
C453 H423 0.930 . S
C453 N454 1.330 . S
C453 C455 1.446 1_565 S
N454 Co413 2.151 . S
N454 C453 1.330 . S
N454 C458 1.418 1_565 S
C455 H434 0.929 . S
C455 C453 1.446 1_545 S
C455 C456 1.332 . S
C456 H436 0.931 . S
C456 C455 1.332 . S
C456 C457 1.267 . S
C457 H425 0.929 . S
C457 C456 1.267 . S
C457 C458 1.251 . S
C458 H428 0.929 . S
C458 N454 1.418 1_545 S
C458 C457 1.251 . S
C459 H426 0.930 1_655 S
C459 C461 1.406 . S
C459 C464 1.261 1_655 S
C460 H427 0.930 . S
C460 N462 1.325 . S
C460 C463 1.357 . S
C461 H429 0.928 . S
C461 C459 1.406 . S
C461 N462 1.261 . S
N462 Co413 2.214 . S
N462 C460 1.325 . S
N462 C461 1.261 . S
C463 H433 0.931 1_655 S
C463 C460 1.357 . S
C463 C464 1.312 1_655 S
C464 H435 0.930 . S
C464 C459 1.261 1_455 S
C464 C463 1.312 1_455 S
C465 O437 1.214 . S
C465 O445 1.234 . S
C466 H438 0.929 . S
C466 C469 1.391 . S
C466 C471 1.391 . S
C467 H439 0.929 . S
C467 C468 1.390 . S
C467 N470 1.391 . S
C468 H440 0.930 . S
C468 C467 1.390 . S
C468 C469 1.392 . S
C469 H441 0.929 . S
C469 C466 1.391 . S
C469 C468 1.392 . S
N470 Co414 2.257 . S
N470 C467 1.391 . S
N470 C471 1.388 . S
C471 H442 0.930 . S
C471 C466 1.391 . S
C471 N470 1.388 . S
C472 C473 1.363 1_455 S
C472 C478 1.379 . S
C472 N480 1.356 1_455 S
C473 C472 1.363 1_655 S
C473 C479 1.363 . S
C474 C475 1.363 1_655 S
C474 C479 1.379 . S
C474 N481 1.356 1_655 S
C475 C474 1.363 1_455 S
C475 C478 1.363 . S
N476 C478 1.356 . S
N476 H488 0.984 . S
N476 H489 0.985 . S
N477 C479 1.356 . S
N477 H482 0.984 . S
N477 H483 0.985 . S
C478 C472 1.379 . S
C478 C475 1.363 . S
C478 N476 1.356 . S
C479 C473 1.363 . S
C479 C474 1.379 . S
C479 N477 1.356 . S
N480 C472 1.356 1_655 S
N480 H486 0.984 1_655 S
N480 H487 0.984 . S
N481 C474 1.356 1_455 S
N481 H484 0.984 . S
N481 H485 0.985 1_455 S
H482 N477 0.984 . S
H483 N477 0.985 . S
H484 N481 0.984 . S
H485 N481 0.985 1_655 S
H486 N480 0.984 1_455 S
H487 N480 0.984 . S
H488 N476 0.984 . S
H489 N476 0.985 . S
C490 C491 1.363 . S
C490 C496 1.379 . S
C490 N498 1.356 . S
C491 C490 1.363 . S
C491 C497 1.363 1_545 S
C492 C493 1.363 . S
C492 C497 1.379 . S
C492 N499 1.356 . S
C493 C492 1.363 . S
C493 C496 1.363 1_565 S
N494 C496 1.356 1_565 S
N494 H506 0.984 1_565 S
N494 H507 0.985 . S
N495 C497 1.356 1_545 S
N495 H500 0.984 . S
N495 H501 0.985 1_545 S
C496 C490 1.379 . S
C496 C493 1.363 1_545 S
C496 N494 1.356 1_545 S
C497 C491 1.363 1_565 S
C497 C492 1.379 . S
C497 N495 1.356 1_565 S
N498 C490 1.356 . S
N498 H504 0.984 . S
N498 H505 0.984 . S
N499 C492 1.356 . S
N499 H502 0.984 . S
N499 H503 0.985 . S
H500 N495 0.984 . S
H501 N495 0.985 1_565 S
H502 N499 0.984 . S
H503 N499 0.985 . S
H504 N498 0.984 . S
H505 N498 0.984 . S
H506 N494 0.984 1_545 S
H507 N494 0.985 . S
C508 C509 1.363 1_455 S
C508 C514 1.379 . S
C508 N516 1.356 1_455 S
C509 C508 1.363 1_655 S
C509 C515 1.363 . S
C510 C511 1.363 1_655 S
C510 C515 1.379 . S
C510 N517 1.356 1_655 S
C511 C510 1.363 1_455 S
C511 C514 1.363 . S
N512 C514 1.356 . S
N512 H524 0.984 . S
N512 H525 0.985 . S
N513 C515 1.356 . S
N513 H518 0.984 . S
N513 H519 0.985 . S
C514 C508 1.379 . S
C514 C511 1.363 . S
C514 N512 1.356 . S
C515 C509 1.363 . S
C515 C510 1.379 . S
C515 N513 1.356 . S
N516 C508 1.356 1_655 S
N516 H522 0.984 1_655 S
N516 H523 0.984 . S
N517 C510 1.356 1_455 S
N517 H520 0.984 . S
N517 H521 0.985 1_455 S
H518 N513 0.984 . S
H519 N513 0.985 . S
H520 N517 0.984 . S
H521 N517 0.985 1_655 S
H522 N516 0.984 1_455 S
H523 N516 0.984 . S
H524 N512 0.984 . S
H525 N512 0.985 . S
C526 C527 1.363 1_565 S
C526 C532 1.379 . S
C526 N534 1.356 1_565 S
C527 C526 1.363 1_545 S
C527 C533 1.363 . S
C528 C529 1.363 1_545 S
C528 C533 1.379 . S
C528 N535 1.356 1_545 S
C529 C528 1.363 1_565 S
C529 C532 1.363 . S
N530 C532 1.356 . S
N530 H542 0.984 . S
N530 H543 0.985 . S
N531 C533 1.356 . S
N531 H536 0.984 . S
N531 H537 0.985 . S
C532 C526 1.379 . S
C532 C529 1.363 . S
C532 N530 1.356 . S
C533 C527 1.363 . S
C533 C528 1.379 . S
C533 N531 1.356 . S
N534 C526 1.356 1_545 S
N534 H540 0.984 1_545 S
N534 H541 0.984 . S
N535 C528 1.356 1_565 S
N535 H538 0.984 . S
N535 H539 0.985 1_565 S
H536 N531 0.984 . S
H537 N531 0.985 . S
H538 N535 0.984 . S
H539 N535 0.985 1_545 S
H540 N534 0.984 1_565 S
H541 N534 0.984 . S
H542 N530 0.984 . S
H543 N530 0.985 . S
C544 C545 1.363 . S
C544 C550 1.379 . S
C544 N552 1.356 . S
C545 C544 1.363 . S
C545 C551 1.363 . S
C546 C547 1.363 . S
C546 C551 1.379 . S
C546 N553 1.356 . S
C547 C546 1.363 . S
C547 C550 1.363 . S
N548 C550 1.356 . S
N548 H560 0.984 . S
N548 H561 0.985 . S
N549 C551 1.356 1_565 S
N549 H554 0.984 . S
N549 H555 0.985 . S
C550 C544 1.379 . S
C550 C547 1.363 . S
C550 N548 1.356 . S
C551 C545 1.363 . S
C551 C546 1.379 . S
C551 N549 1.356 1_545 S
N552 C544 1.356 . S
N552 H558 0.984 . S
N552 H559 0.984 . S
N553 C546 1.356 . S
N553 H556 0.984 . S
N553 H557 0.985 . S
H554 N549 0.984 . S
H555 N549 0.985 . S
H556 N553 0.984 . S
H557 N553 0.985 . S
H558 N552 0.984 . S
H559 N552 0.984 . S
H560 N548 0.984 . S
H561 N548 0.985 . S
C562 C563 1.363 . S
C562 C568 1.379 . S
C562 N570 1.356 . S
C563 C562 1.363 . S
C563 C569 1.363 . S
C564 C565 1.363 . S
C564 C569 1.379 . S
C564 N571 1.356 . S
C565 C564 1.363 . S
C565 C568 1.363 . S
N566 C568 1.356 1_655 S
N566 H578 0.984 . S
N566 H579 0.985 . S
N567 C569 1.356 . S
N567 H572 0.984 . S
N567 H573 0.985 . S
C568 C562 1.379 . S
C568 C565 1.363 . S
C568 N566 1.356 1_455 S
C569 C563 1.363 . S
C569 C564 1.379 . S
C569 N567 1.356 . S
N570 C562 1.356 . S
N570 H576 0.984 . S
N570 H577 0.984 . S
N571 C564 1.356 . S
N571 H574 0.984 . S
N571 H575 0.985 . S
H572 N567 0.984 . S
H573 N567 0.985 . S
H574 N571 0.984 . S
H575 N571 0.985 . S
H576 N570 0.984 . S
H577 N570 0.984 . S
H578 N566 0.984 . S
H579 N566 0.985 . S
C580 C581 1.363 . S
C580 C586 1.379 . S
C580 N588 1.356 1_565 S
C581 C580 1.363 . S
C581 C587 1.363 . S
C582 C583 1.363 . S
C582 C587 1.379 . S
C582 N589 1.356 . S
C583 C582 1.363 . S
C583 C586 1.363 . S
N584 C586 1.356 . S
N584 H596 0.984 . S
N584 H597 0.985 . S
N585 C587 1.356 . S
N585 H590 0.984 . S
N585 H591 0.985 . S
C586 C580 1.379 . S
C586 C583 1.363 . S
C586 N584 1.356 . S
C587 C581 1.363 . S
C587 C582 1.379 . S
C587 N585 1.356 . S
N588 C580 1.356 1_545 S
N588 H594 0.984 . S
N588 H595 0.984 . S
N589 C582 1.356 . S
N589 H592 0.984 . S
N589 H593 0.985 . S
H590 N585 0.984 . S
H591 N585 0.985 . S
H592 N589 0.984 . S
H593 N589 0.985 . S
H594 N588 0.984 . S
H595 N588 0.984 . S
H596 N584 0.984 . S
H597 N584 0.985 . S
C598 C599 1.363 . S
C598 C604 1.379 . S
C598 N606 1.356 . S
C599 C598 1.363 . S
C599 C605 1.363 . S
C600 C601 1.363 . S
C600 C605 1.379 . S
C600 N607 1.356 . S
C601 C600 1.363 . S
C601 C604 1.363 . S
N602 C604 1.356 1_455 S
N602 H614 0.984 . S
N602 H615 0.985 . S
N603 C605 1.356 . S
N603 H608 0.984 . S
N603 H609 0.985 . S
C604 C598 1.379 . S
C604 C601 1.363 . S
C604 N602 1.356 1_655 S
C605 C599 1.363 . S
C605 C600 1.379 . S
C605 N603 1.356 . S
N606 C598 1.356 . S
N606 H612 0.984 . S
N606 H613 0.984 . S
N607 C600 1.356 . S
N607 H610 0.984 . S
N607 H611 0.985 . S
H608 N603 0.984 . S
H609 N603 0.985 . S
H610 N607 0.984 . S
H611 N607 0.985 . S
H612 N606 0.984 . S
H613 N606 0.984 . S
H614 N602 0.984 . S
H615 N602 0.985 . S
C616 C617 1.363 . S
C616 C622 1.379 1_556 S
C616 N624 1.356 . S
C617 C616 1.363 . S
C617 C623 1.363 . S
C618 C619 1.363 . S
C618 C623 1.379 1_554 S
C618 N625 1.356 . S
C619 C618 1.363 . S
C619 C622 1.363 . S
N620 C622 1.356 . S
N620 H632 0.984 . S
N620 H633 0.985 . S
N621 C623 1.356 1_565 S
N621 H626 0.984 . S
N621 H627 0.985 . S
C622 C616 1.379 1_554 S
C622 C619 1.363 . S
C622 N620 1.356 . S
C623 C617 1.363 . S
C623 C618 1.379 1_556 S
C623 N621 1.356 1_545 S
N624 C616 1.356 . S
N624 H630 0.984 . S
N624 H631 0.984 . S
N625 C618 1.356 . S
N625 H628 0.984 . S
N625 H629 0.985 . S
H626 N621 0.984 . S
H627 N621 0.985 . S
H628 N625 0.984 . S
H629 N625 0.985 . S
H630 N624 0.984 . S
H631 N624 0.984 . S
H632 N620 0.984 . S
H633 N620 0.985 . S
C634 C635 1.363 . S
C634 C640 1.379 1_556 S
C634 N642 1.356 . S
C635 C634 1.363 . S
C635 C641 1.363 . S
C636 C637 1.363 . S
C636 C641 1.379 1_554 S
C636 N643 1.356 . S
C637 C636 1.363 . S
C637 C640 1.363 . S
N638 C640 1.356 . S
N638 H650 0.984 . S
N638 H651 0.985 . S
N639 C641 1.356 . S
N639 H644 0.984 . S
N639 H645 0.985 . S
C640 C634 1.379 1_554 S
C640 C637 1.363 . S
C640 N638 1.356 . S
C641 C635 1.363 . S
C641 C636 1.379 1_556 S
C641 N639 1.356 . S
N642 C634 1.356 . S
N642 H648 0.984 . S
N642 H649 0.984 . S
N643 C636 1.356 . S
N643 H646 0.984 1_455 S
N643 H647 0.985 1_455 S
H644 N639 0.984 . S
H645 N639 0.985 . S
H646 N643 0.984 1_655 S
H647 N643 0.985 1_655 S
H648 N642 0.984 . S
H649 N642 0.984 . S
H650 N638 0.984 . S
H651 N638 0.985 . S
C652 C653 1.363 1_556 S
C652 C658 1.379 . S
C652 N660 1.356 . S
C653 C652 1.363 1_554 S
C653 C659 1.363 . S
C654 C655 1.363 1_554 S
C654 C659 1.379 . S
C654 N661 1.356 1_565 S
C655 C654 1.363 1_556 S
C655 C658 1.363 . S
N656 C658 1.356 . S
N656 H668 0.984 . S
N656 H669 0.985 . S
N657 C659 1.356 . S
N657 H662 0.984 . S
N657 H663 0.985 . S
C658 C652 1.379 . S
C658 C655 1.363 . S
C658 N656 1.356 . S
C659 C653 1.363 . S
C659 C654 1.379 . S
C659 N657 1.356 . S
N660 C652 1.356 . S
N660 H666 0.984 . S
N660 H667 0.984 1_556 S
N661 C654 1.356 1_545 S
N661 H664 0.984 . S
N661 H665 0.985 . S
H662 N657 0.984 . S
H663 N657 0.985 . S
H664 N661 0.984 . S
H665 N661 0.985 . S
H666 N660 0.984 . S
H667 N660 0.984 1_554 S
H668 N656 0.984 . S
H669 N656 0.985 . S
C670 C671 1.363 . S
C670 C676 1.379 1_556 S
C670 N678 1.356 . S
C671 C670 1.363 . S
C671 C677 1.363 . S
C672 C673 1.363 . S
C672 C677 1.379 1_554 S
C672 N679 1.356 . S
C673 C672 1.363 . S
C673 C676 1.363 . S
N674 C676 1.356 . S
N674 H686 0.984 . S
N674 H687 0.985 . S
N675 C677 1.356 . S
N675 H680 0.984 . S
N675 H681 0.985 . S
C676 C670 1.379 1_554 S
C676 C673 1.363 . S
C676 N674 1.356 . S
C677 C671 1.363 . S
C677 C672 1.379 1_556 S
C677 N675 1.356 . S
N678 C670 1.356 . S
N678 H684 0.984 . S
N678 H685 0.984 . S
N679 C672 1.356 . S
N679 H682 0.984 1_655 S
N679 H683 0.985 1_655 S
H680 N675 0.984 . S
H681 N675 0.985 . S
H682 N679 0.984 1_455 S
H683 N679 0.985 1_455 S
H684 N678 0.984 . S
H685 N678 0.984 . S
H686 N674 0.984 . S
H687 N674 0.985 . S
C688 C689 1.363 . S
C688 C694 1.379 . S
C688 N696 1.356 . S
C689 C688 1.363 . S
C689 C695 1.363 . S
C690 C691 1.363 . S
C690 C695 1.379 . S
C690 N697 1.356 . S
C691 C690 1.363 . S
C691 C694 1.363 . S
N692 C694 1.356 . S
N692 H704 0.984 . S
N692 H705 0.985 . S
N693 C695 1.356 . S
N693 H698 0.984 . S
N693 H699 0.985 . S
C694 C688 1.379 . S
C694 C691 1.363 . S
C694 N692 1.356 . S
C695 C689 1.363 . S
C695 C690 1.379 . S
C695 N693 1.356 . S
N696 C688 1.356 . S
N696 H702 0.984 . S
N696 H703 0.984 . S
N697 C690 1.356 . S
N697 H700 0.984 . S
N697 H701 0.985 . S
H698 N693 0.984 . S
H699 N693 0.985 . S
H700 N697 0.984 . S
H701 N697 0.985 . S
H702 N696 0.984 . S
H703 N696 0.984 . S
H704 N692 0.984 . S
H705 N692 0.985 . S
C706 C707 1.363 . S
C706 C712 1.379 . S
C706 N714 1.356 . S
C707 C706 1.363 . S
C707 C713 1.363 . S
C708 C709 1.363 . S
C708 C713 1.379 . S
C708 N715 1.356 . S
C709 C708 1.363 . S
C709 C712 1.363 . S
N710 C712 1.356 . S
N710 H722 0.984 . S
N710 H723 0.985 . S
N711 C713 1.356 . S
N711 H716 0.984 . S
N711 H717 0.985 . S
C712 C706 1.379 . S
C712 C709 1.363 . S
C712 N710 1.356 . S
C713 C707 1.363 . S
C713 C708 1.379 . S
C713 N711 1.356 . S
N714 C706 1.356 . S
N714 H720 0.984 . S
N714 H721 0.984 . S
N715 C708 1.356 . S
N715 H718 0.984 . S
N715 H719 0.985 . S
H716 N711 0.984 . S
H717 N711 0.985 . S
H718 N715 0.984 . S
H719 N715 0.985 . S
H720 N714 0.984 . S
H721 N714 0.984 . S
H722 N710 0.984 . S
H723 N710 0.985 . S
C724 C725 1.363 . S
C724 C730 1.379 . S
C724 N732 1.356 . S
C725 C724 1.363 . S
C725 C731 1.363 . S
C726 C727 1.363 . S
C726 C731 1.379 . S
C726 N733 1.356 . S
C727 C726 1.363 . S
C727 C730 1.363 . S
N728 C730 1.356 . S
N728 H740 0.984 . S
N728 H741 0.985 . S
N729 C731 1.356 . S
N729 H734 0.984 . S
N729 H735 0.985 . S
C730 C724 1.379 . S
C730 C727 1.363 . S
C730 N728 1.356 . S
C731 C725 1.363 . S
C731 C726 1.379 . S
C731 N729 1.356 . S
N732 C724 1.356 . S
N732 H738 0.984 . S
N732 H739 0.984 . S
N733 C726 1.356 . S
N733 H736 0.984 . S
N733 H737 0.985 . S
H734 N729 0.984 . S
H735 N729 0.985 . S
H736 N733 0.984 . S
H737 N733 0.985 . S
H738 N732 0.984 . S
H739 N732 0.984 . S
H740 N728 0.984 . S
H741 N728 0.985 . S
C742 C743 1.363 . S
C742 C748 1.379 . S
C742 N750 1.356 . S
C743 C742 1.363 . S
C743 C749 1.363 . S
C744 C745 1.363 . S
C744 C749 1.379 . S
C744 N751 1.356 . S
C745 C744 1.363 . S
C745 C748 1.363 . S
N746 C748 1.356 . S
N746 H758 0.984 . S
N746 H759 0.985 . S
N747 C749 1.356 . S
N747 H752 0.984 . S
N747 H753 0.985 . S
C748 C742 1.379 . S
C748 C745 1.363 . S
C748 N746 1.356 . S
C749 C743 1.363 . S
C749 C744 1.379 . S
C749 N747 1.356 . S
N750 C742 1.356 . S
N750 H756 0.984 . S
N750 H757 0.984 . S
N751 C744 1.356 . S
N751 H754 0.984 . S
N751 H755 0.985 . S
H752 N747 0.984 . S
H753 N747 0.985 . S
H754 N751 0.984 . S
H755 N751 0.985 . S
H756 N750 0.984 . S
H757 N750 0.984 . S
H758 N746 0.984 . S
H759 N746 0.985 . S
C473 C123 1.525 . S
C475 C5 1.525 . S
C491 C182 1.525 . S
C493 C64 1.525 . S
C509 C241 1.525 . S
C511 C359 1.525 . S
C527 C300 1.525 . S
C529 C418 1.525 . S
C545 C92 1.433 1_545 S
C547 C52 1.416 . S
C563 C111 1.416 . S
C565 C151 1.433 1_455 S
C581 C210 1.433 1_565 S
C583 C170 1.416 . S
C599 C229 1.416 . S
C601 C33 1.433 1_655 S
C617 C446 1.433 1_545 S
C619 C288 1.416 . S
C635 C347 1.416 . S
C637 C269 1.433 1_455 S
C653 C406 1.416 . S
C655 C328 1.433 1_565 S
C671 C465 1.416 . S
C673 C387 1.433 1_655 S
C689 C3 1.606 . S
C691 C298 1.606 . S
C707 C357 1.606 . S
C709 C62 1.606 . S
C725 C121 1.606 . S
C727 C416 1.606 . S
C743 C180 1.605 . S
C745 C239 1.605 . S
