# Generated by pormake.
# Topology fnh, (5)-cn, num edge types: 1
# Building blocks:
#     Node 0, Type 0, BuildingBlock: BEQFEK_clean_sbu_0, # of connection points: 5
#     Node 1, Type 0, BuildingBlock: BEQFEK_clean_sbu_0, # of connection points: 5
#     Node 2, Type 0, BuildingBlock: BEQFEK_clean_sbu_0, # of connection points: 5
#     Node 3, Type 0, BuildingBlock: BEQFEK_clean_sbu_0, # of connection points: 5
#     Node 4, Type 0, BuildingBlock: BEQFEK_clean_sbu_0, # of connection points: 5
#     Node 5, Type 0, BuildingBlock: BEQFEK_clean_sbu_0, # of connection points: 5
#     Node 6, Type 0, BuildingBlock: BEQFEK_clean_sbu_0, # of connection points: 5
#     Node 7, Type 0, BuildingBlock: BEQFEK_clean_sbu_0, # of connection points: 5
#     Node 8, Type 0, BuildingBlock: BEQFEK_clean_sbu_0, # of connection points: 5
#     Node 9, Type 0, BuildingBlock: BEQFEK_clean_sbu_0, # of connection points: 5
#     Node 10, Type 0, BuildingBlock: BEQFEK_clean_sbu_0, # of connection points: 5
#     Node 11, Type 0, BuildingBlock: BEQFEK_clean_sbu_0, # of connection points: 5
#     Node 12, Type 0, BuildingBlock: BEQFEK_clean_sbu_0, # of connection points: 5
#     Node 13, Type 0, BuildingBlock: BEQFEK_clean_sbu_0, # of connection points: 5
#     Node 14, Type 0, BuildingBlock: BEQFEK_clean_sbu_0, # of connection points: 5
#     Node 15, Type 0, BuildingBlock: BEQFEK_clean_sbu_0, # of connection points: 5
#     Node 16, Type 0, BuildingBlock: BEQFEK_clean_sbu_0, # of connection points: 5
#     Node 17, Type 0, BuildingBlock: BEQFEK_clean_sbu_0, # of connection points: 5
#     Edge 18, Type (0, 0), BuildingBlock: KIFKEQ_clean_linker_1, # of connection points: 2
#     Edge 19, Type (0, 0), BuildingBlock: KIFKEQ_clean_linker_1, # of connection points: 2
#     Edge 20, Type (0, 0), BuildingBlock: KIFKEQ_clean_linker_1, # of connection points: 2
#     Edge 21, Type (0, 0), BuildingBlock: KIFKEQ_clean_linker_1, # of connection points: 2
#     Edge 22, Type (0, 0), BuildingBlock: KIFKEQ_clean_linker_1, # of connection points: 2
#     Edge 23, Type (0, 0), BuildingBlock: KIFKEQ_clean_linker_1, # of connection points: 2
#     Edge 24, Type (0, 0), BuildingBlock: KIFKEQ_clean_linker_1, # of connection points: 2
#     Edge 25, Type (0, 0), BuildingBlock: KIFKEQ_clean_linker_1, # of connection points: 2
#     Edge 26, Type (0, 0), BuildingBlock: KIFKEQ_clean_linker_1, # of connection points: 2
#     Edge 27, Type (0, 0), BuildingBlock: KIFKEQ_clean_linker_1, # of connection points: 2
#     Edge 28, Type (0, 0), BuildingBlock: KIFKEQ_clean_linker_1, # of connection points: 2
#     Edge 29, Type (0, 0), BuildingBlock: KIFKEQ_clean_linker_1, # of connection points: 2
#     Edge 30, Type (0, 0), BuildingBlock: KIFKEQ_clean_linker_1, # of connection points: 2
#     Edge 31, Type (0, 0), BuildingBlock: KIFKEQ_clean_linker_1, # of connection points: 2
#     Edge 32, Type (0, 0), BuildingBlock: KIFKEQ_clean_linker_1, # of connection points: 2
#     Edge 33, Type (0, 0), BuildingBlock: KIFKEQ_clean_linker_1, # of connection points: 2
#     Edge 34, Type (0, 0), BuildingBlock: KIFKEQ_clean_linker_1, # of connection points: 2
#     Edge 35, Type (0, 0), BuildingBlock: KIFKEQ_clean_linker_1, # of connection points: 2
#     Edge 36, Type (0, 0), BuildingBlock: KIFKEQ_clean_linker_1, # of connection points: 2
#     Edge 37, Type (0, 0), BuildingBlock: KIFKEQ_clean_linker_1, # of connection points: 2
#     Edge 38, Type (0, 0), BuildingBlock: KIFKEQ_clean_linker_1, # of connection points: 2
#     Edge 39, Type (0, 0), BuildingBlock: KIFKEQ_clean_linker_1, # of connection points: 2
#     Edge 40, Type (0, 0), BuildingBlock: KIFKEQ_clean_linker_1, # of connection points: 2
#     Edge 41, Type (0, 0), BuildingBlock: KIFKEQ_clean_linker_1, # of connection points: 2
#     Edge 42, Type (0, 0), BuildingBlock: KIFKEQ_clean_linker_1, # of connection points: 2
#     Edge 43, Type (0, 0), BuildingBlock: KIFKEQ_clean_linker_1, # of connection points: 2
#     Edge 44, Type (0, 0), BuildingBlock: KIFKEQ_clean_linker_1, # of connection points: 2
#     Edge 45, Type (0, 0), BuildingBlock: KIFKEQ_clean_linker_1, # of connection points: 2
#     Edge 46, Type (0, 0), BuildingBlock: KIFKEQ_clean_linker_1, # of connection points: 2
#     Edge 47, Type (0, 0), BuildingBlock: KIFKEQ_clean_linker_1, # of connection points: 2
#     Edge 48, Type (0, 0), BuildingBlock: KIFKEQ_clean_linker_1, # of connection points: 2
#     Edge 49, Type (0, 0), BuildingBlock: KIFKEQ_clean_linker_1, # of connection points: 2
#     Edge 50, Type (0, 0), BuildingBlock: KIFKEQ_clean_linker_1, # of connection points: 2
#     Edge 51, Type (0, 0), BuildingBlock: KIFKEQ_clean_linker_1, # of connection points: 2
#     Edge 52, Type (0, 0), BuildingBlock: KIFKEQ_clean_linker_1, # of connection points: 2
#     Edge 53, Type (0, 0), BuildingBlock: KIFKEQ_clean_linker_1, # of connection points: 2
#     Edge 54, Type (0, 0), BuildingBlock: KIFKEQ_clean_linker_1, # of connection points: 2
#     Edge 55, Type (0, 0), BuildingBlock: KIFKEQ_clean_linker_1, # of connection points: 2
#     Edge 56, Type (0, 0), BuildingBlock: KIFKEQ_clean_linker_1, # of connection points: 2
#     Edge 57, Type (0, 0), BuildingBlock: KIFKEQ_clean_linker_1, # of connection points: 2
#     Edge 58, Type (0, 0), BuildingBlock: KIFKEQ_clean_linker_1, # of connection points: 2
#     Edge 59, Type (0, 0), BuildingBlock: KIFKEQ_clean_linker_1, # of connection points: 2
#     Edge 60, Type (0, 0), BuildingBlock: KIFKEQ_clean_linker_1, # of connection points: 2
#     Edge 61, Type (0, 0), BuildingBlock: KIFKEQ_clean_linker_1, # of connection points: 2
#     Edge 62, Type (0, 0), BuildingBlock: KIFKEQ_clean_linker_1, # of connection points: 2
# Relax obj value: 0.241
# Max RMSD: 0.099
# Mean RMSD: 0.099
data_MOF--net-fnh--node1-BEQFEK_clean_sbu_0--edge1-KIFKEQ_clean_linker_1
_symmetry_space_group_name_H-M    P1
_symmetry_Int_Tables_number       1
_symmetry_cell_setting            triclinic
loop_
_symmetry_equiv_pos_as_xyz
'x, y, z'
_cell_length_a     67.299585
_cell_length_b     67.462764
_cell_length_c     23.507419
_cell_angle_alpha  89.969982
_cell_angle_beta   89.864064
_cell_angle_gamma 120.09028
loop_
_atom_site_label
_atom_site_type_symbol
_atom_site_fract_x
_atom_site_fract_y
_atom_site_fract_z
_atom_type_partial_charge
Co0 Co 0.14716 0.22387 0.35996 0.0
Co1 Co 0.12269 0.23738 0.27556 0.0
C2 C 0.09808 0.21547 0.38278 0.0
O3 O 0.11689 0.21638 0.39523 0.0
O4 O 0.09577 0.22194 0.33326 0.0
C5 C 0.13895 0.18528 0.41197 0.0
O6 O 0.12243 0.17707 0.3741 0.0
C7 C 0.09704 0.25039 0.19712 0.0
C8 C 0.12628 0.27976 0.15407 0.0
C9 C 0.10258 0.26828 0.15885 0.0
N10 N 0.11666 0.25187 0.21481 0.0
N11 N 0.13401 0.26932 0.18868 0.0
C12 C 0.07387 0.23144 0.21495 0.0
H13 H 0.07517 0.21678 0.23193 0.0
H14 H 0.06184 0.22553 0.17843 0.0
H15 H 0.06695 0.2377 0.24902 0.0
C16 C 0.15596 0.20294 0.25658 0.0
N17 N 0.14588 0.21342 0.28326 0.0
N18 N 0.1343 0.21811 0.2462 0.0
C19 C 0.13638 0.21041 0.19437 0.0
C20 C 0.15031 0.20033 0.19862 0.0
C21 C 0.17273 0.19784 0.28534 0.0
H22 H 0.18081 0.20952 0.32196 0.0
H23 H 0.16348 0.17998 0.30152 0.0
H24 H 0.18631 0.19972 0.25527 0.0
O25 O 0.16919 0.25722 0.36829 0.0
O26 O 0.14864 0.2656 0.31061 0.0
H27 H 0.13737 0.22937 0.12072 0.0
H28 H 0.12118 0.19868 0.11174 0.0
C29 C 0.12534 0.2129 0.14183 0.0
H30 H 0.10947 0.2132 0.15303 0.0
H31 H 0.15124 0.27446 0.1956 0.0
O32 O 0.15466 0.20617 0.40992 0.0
C33 C 0.16576 0.272 0.34355 0.0
Co34 Co 0.83747 0.93322 0.35647 0.0
Co35 Co 0.82512 0.89588 0.27132 0.0
C36 C 0.8465 0.89336 0.3804 0.0
O37 O 0.84529 0.91103 0.39331 0.0
O38 O 0.84037 0.88479 0.33056 0.0
C39 C 0.87463 0.9648 0.41167 0.0
O40 O 0.88314 0.95366 0.38467 0.0
C41 C 0.81276 0.85693 0.19458 0.0
C42 C 0.78873 0.86067 0.13737 0.0
C43 C 0.79765 0.84664 0.14966 0.0
N44 N 0.81236 0.87595 0.20887 0.0
N45 N 0.79791 0.87803 0.17476 0.0
C46 C 0.82817 0.84964 0.22177 0.0
H47 H 0.84373 0.86475 0.2389 0.0
H48 H 0.83336 0.84067 0.19079 0.0
H49 H 0.81887 0.8378 0.25751 0.0
C50 C 0.85928 0.96371 0.25487 0.0
N51 N 0.84867 0.94292 0.28057 0.0
N52 N 0.84448 0.92698 0.2429 0.0
C53 C 0.85268 0.93727 0.1916 0.0
C54 C 0.86233 0.96112 0.19707 0.0
C55 C 0.86648 0.9857 0.28575 0.0
H56 H 0.88185 0.99 0.31169 0.0
H57 H 0.87103 1.00022 0.25649 0.0
H58 H 0.85257 0.98358 0.31494 0.0
O59 O 0.80386 0.92102 0.36275 0.0
O60 O 0.79597 0.89253 0.30396 0.0
H61 H 0.83242 0.92011 0.119 0.0
H62 H 0.86282 0.93483 0.10586 0.0
C63 C 0.84928 0.92439 0.13739 0.0
H64 H 0.84925 0.90819 0.1458 0.0
H65 H 0.79408 0.89119 0.1776 0.0
O66 O 0.85386 0.95942 0.40391 0.0
C67 C 0.78927 0.90294 0.33712 0.0
Co68 Co 0.1285 0.91603 0.35752 0.0
Co69 Co 0.16672 0.94168 0.27421 0.0
C70 C 0.16799 0.96625 0.37826 0.0
O71 O 0.15074 0.94693 0.39125 0.0
O72 O 0.17684 0.96899 0.32863 0.0
C73 C 0.09722 0.92392 0.40537 0.0
O74 O 0.10539 0.93965 0.36538 0.0
C75 C 0.20513 0.96705 0.19419 0.0
C76 C 0.20687 0.93793 0.15615 0.0
C77 C 0.218 0.96162 0.15739 0.0
N78 N 0.18768 0.94743 0.21441 0.0
N79 N 0.18877 0.93013 0.19139 0.0
C80 C 0.20823 0.99007 0.20819 0.0
H81 H 0.22137 0.99815 0.242 0.0
H82 H 0.19188 0.98828 0.22421 0.0
H83 H 0.21396 1.00133 0.17012 0.0
C84 C 0.0989 0.90583 0.25348 0.0
N85 N 0.1194 0.91642 0.28039 0.0
N86 N 0.13572 0.92852 0.24362 0.0
C87 C 0.12598 0.9263 0.19168 0.0
C88 C 0.10196 0.91172 0.19557 0.0
C89 C 0.07711 0.88863 0.28221 0.0
H90 H 0.08098 0.88092 0.3192 0.0
H91 H 0.0679 0.89734 0.29791 0.0
H92 H 0.0658 0.87488 0.25225 0.0
O93 O 0.14085 0.89492 0.36825 0.0
O94 O 0.17068 0.91775 0.31502 0.0
H95 H 0.14437 0.92656 0.11737 0.0
H96 H 0.12931 0.94227 0.1101 0.0
C97 C 0.13956 0.93808 0.13952 0.0
H98 H 0.15558 0.95398 0.15131 0.0
H99 H 0.17738 0.91294 0.20079 0.0
O100 O 0.1029 0.90859 0.40673 0.0
C101 C 0.16043 0.90038 0.34756 0.0
Co102 Co 0.23922 0.13839 0.72736 0.0
Co103 Co 0.24865 0.10905 0.8053 0.0
C104 C 0.22686 0.08894 0.6945 0.0
O105 O 0.22981 0.10875 0.6836 0.0
O106 O 0.2317 0.08487 0.74405 0.0
C107 C 0.20058 0.13506 0.69234 0.0
O108 O 0.19415 0.11544 0.71798 0.0
C109 C 0.26339 0.07979 0.85881 0.0
C110 C 0.27703 0.09738 0.9408 0.0
C111 C 0.27415 0.07901 0.90827 0.0
N112 N 0.25968 0.09751 0.86256 0.0
N113 N 0.26833 0.10827 0.91104 0.0
C114 C 0.25937 0.06596 0.80587 0.0
H115 H 0.26458 0.07738 0.76811 0.0
H116 H 0.24078 0.05329 0.80213 0.0
H117 H 0.2693 0.05689 0.80617 0.0
C118 C 0.22002 0.14693 0.8342 0.0
N119 N 0.22921 0.13606 0.80532 0.0
N120 N 0.23098 0.12165 0.8393 0.0
C121 C 0.22192 0.12217 0.8908 0.0
C122 C 0.21455 0.13839 0.88978 0.0
C123 C 0.21899 0.16705 0.81075 0.0
H124 H 0.23224 0.17574 0.77728 0.0
H125 H 0.20184 0.16107 0.79177 0.0
H126 H 0.22174 0.17953 0.84487 0.0
O127 O 0.27304 0.15865 0.72135 0.0
O128 O 0.2784 0.13437 0.77314 0.0
H129 H 0.2337 0.11628 0.9699 0.0
H130 H 0.20304 0.10125 0.96226 0.0
C131 C 0.21947 0.10679 0.93941 0.0
H132 H 0.2201 0.09157 0.924 0.0
H133 H 0.2688 0.12338 0.92317 0.0
O134 O 0.22184 0.14983 0.6884 0.0
C135 C 0.28649 0.15264 0.74341 0.0
Co136 Co 0.92727 0.11384 0.73577 0.0
Co137 Co 0.95411 0.15372 0.8131 0.0
C138 C 0.97528 0.15275 0.70122 0.0
O139 O 0.95623 0.13471 0.69109 0.0
O140 O 0.97844 0.1622 0.74999 0.0
C141 C 0.93249 0.0794 0.7008 0.0
O142 O 0.95256 0.09335 0.72356 0.0
C143 C 0.98295 0.19823 0.86527 0.0
C144 C 0.96529 0.19436 0.94735 0.0
C145 C 0.98378 0.20984 0.9147 0.0
N146 N 0.96517 0.17677 0.8693 0.0
N147 N 0.95432 0.17473 0.91774 0.0
C148 C 0.99684 0.20802 0.81217 0.0
H149 H 0.98536 0.20195 0.7746 0.0
H150 H 1.00937 0.20198 0.80804 0.0
H151 H 1.00611 0.22703 0.8125 0.0
C152 C 0.92029 0.08698 0.84287 0.0
N153 N 0.93024 0.10702 0.81375 0.0
N154 N 0.94337 0.12382 0.84811 0.0
C155 C 0.94277 0.11467 0.90029 0.0
C156 C 0.92805 0.09079 0.89884 0.0
C157 C 0.90137 0.06486 0.81974 0.0
H158 H 0.89209 0.06808 0.78538 0.0
H159 H 0.90881 0.05467 0.80264 0.0
H160 H 0.88896 0.05464 0.85377 0.0
O161 O 0.90541 0.12541 0.72929 0.0
O162 O 0.92687 0.15539 0.78376 0.0
H163 H 0.94498 0.1316 0.97868 0.0
H164 H 0.96235 0.11839 0.97553 0.0
C165 C 0.95623 0.12826 0.95058 0.0
H166 H 0.97108 0.14483 0.93679 0.0
H167 H 0.93921 0.16006 0.93017 0.0
O168 O 0.91712 0.08508 0.69841 0.0
C169 C 0.90905 0.14388 0.75325 0.0
Co170 Co 0.95171 0.82643 0.72218 0.0
Co171 Co 0.91243 0.81231 0.804 0.0
C172 C 0.91126 0.83455 0.69508 0.0
O173 O 0.92967 0.83437 0.6834 0.0
O174 O 0.90192 0.82753 0.74401 0.0
C175 C 0.98582 0.86653 0.68614 0.0
O176 O 0.97224 0.87235 0.7123 0.0
C177 C 0.87207 0.79842 0.87767 0.0
C178 C 0.87539 0.77401 0.93437 0.0
C179 C 0.86133 0.78288 0.92174 0.0
N180 N 0.89136 0.79829 0.86416 0.0
N181 N 0.89319 0.78362 0.89796 0.0
C182 C 0.86507 0.81414 0.85106 0.0
H183 H 0.88035 0.82971 0.83433 0.0
H184 H 0.85606 0.81922 0.88232 0.0
H185 H 0.85326 0.80518 0.81515 0.0
C186 C 0.97959 0.84529 0.82894 0.0
N187 N 0.9594 0.83557 0.80044 0.0
N188 N 0.94275 0.8315 0.8359 0.0
C189 C 0.95196 0.83916 0.88832 0.0
C190 C 0.97597 0.84845 0.88615 0.0
C191 C 1.00148 0.84866 0.80331 0.0
H192 H 0.99775 0.83644 0.76791 0.0
H193 H 1.01156 0.86636 0.78635 0.0
H194 H 1.01199 0.84611 0.8356 0.0
O195 O 0.94005 0.79307 0.71212 0.0
O196 O 0.91078 0.78431 0.76977 0.0
H197 H 0.9332 0.8212 0.96243 0.0
H198 H 0.94783 0.85196 0.96872 0.0
C199 C 0.93792 0.83736 0.93949 0.0
H200 H 0.92188 0.83696 0.9265 0.0
H201 H 0.90657 0.78007 0.89582 0.0
O202 O 0.98 0.84551 0.68215 0.0
C203 C 0.92168 0.77814 0.73666 0.0
Co204 Co 0.81628 0.5591 0.68491 0.0
Co205 Co 0.7905 0.57239 0.60377 0.0
C206 C 0.76747 0.54993 0.71333 0.0
O207 O 0.78627 0.55051 0.72449 0.0
O208 O 0.76497 0.55695 0.6647 0.0
C209 C 0.81193 0.51998 0.72353 0.0
O210 O 0.79212 0.51297 0.69823 0.0
C211 C 0.76292 0.58478 0.5305 0.0
C212 C 0.79019 0.60945 0.47274 0.0
C213 C 0.76717 0.60001 0.48608 0.0
N214 N 0.7827 0.58564 0.54353 0.0
N215 N 0.79893 0.60046 0.50907 0.0
C216 C 0.74036 0.56865 0.55785 0.0
H217 H 0.74061 0.55344 0.57488 0.0
H218 H 0.72609 0.56299 0.52696 0.0
H219 H 0.73728 0.5775 0.59364 0.0
C220 C 0.82458 0.53936 0.57878 0.0
N221 N 0.81442 0.5494 0.60718 0.0
N222 N 0.80168 0.55324 0.57195 0.0
C223 C 0.8028 0.54508 0.51983 0.0
C224 C 0.81738 0.53571 0.52201 0.0
C225 C 0.84321 0.53612 0.60378 0.0
H226 H 0.85219 0.54875 0.63812 0.0
H227 H 0.83558 0.51862 0.62194 0.0
H228 H 0.85594 0.53817 0.57081 0.0
O229 O 0.83774 0.59254 0.69333 0.0
O230 O 0.81697 0.60097 0.6363 0.0
H231 H 0.80163 0.56249 0.44525 0.0
H232 H 0.78548 0.53169 0.44018 0.0
C233 C 0.79029 0.54645 0.4689 0.0
H234 H 0.77465 0.54683 0.48225 0.0
H235 H 0.81605 0.60454 0.51072 0.0
O236 O 0.82656 0.54125 0.72555 0.0
C237 C 0.83424 0.60733 0.66877 0.0
Co238 Co 0.50686 0.26951 0.68429 0.0
Co239 Co 0.49458 0.22914 0.60848 0.0
C240 C 0.51871 0.23231 0.7177 0.0
O241 O 0.51772 0.25039 0.72719 0.0
O242 O 0.51125 0.22179 0.67057 0.0
C243 C 0.5457 0.30631 0.71551 0.0
O244 O 0.55282 0.29347 0.69104 0.0
C245 C 0.47946 0.18471 0.55642 0.0
C246 C 0.46476 0.18798 0.47541 0.0
C247 C 0.46846 0.17288 0.50741 0.0
N248 N 0.48261 0.20594 0.55272 0.0
N249 N 0.47325 0.20761 0.50496 0.0
C250 C 0.48426 0.1753 0.60902 0.0
H251 H 0.47895 0.18124 0.64706 0.0
H252 H 0.50298 0.18179 0.61202 0.0
H253 H 0.47482 0.15629 0.60897 0.0
C254 C 0.52491 0.29575 0.57498 0.0
N255 N 0.51563 0.27603 0.60545 0.0
N256 N 0.51247 0.25912 0.57215 0.0
C257 C 0.52058 0.2679 0.51935 0.0
C258 C 0.52885 0.29162 0.51914 0.0
C259 C 0.52749 0.31776 0.59697 0.0
H260 H 0.51506 0.3144 0.63185 0.0
H261 H 0.54518 0.32869 0.61323 0.0
H262 H 0.52464 0.3273 0.56249 0.0
O263 O 0.47292 0.25588 0.69386 0.0
O264 O 0.46566 0.22576 0.64166 0.0
H265 H 0.50638 0.24985 0.44185 0.0
H266 H 0.53711 0.26432 0.44502 0.0
C267 C 0.52115 0.25415 0.4702 0.0
H268 H 0.52014 0.23808 0.48529 0.0
H269 H 0.47234 0.22201 0.49297 0.0
O270 O 0.52429 0.29888 0.72054 0.0
C271 C 0.45863 0.23652 0.67256 0.0
Co272 Co 0.79223 0.24654 0.69247 0.0
Co273 Co 0.8335 0.26983 0.61449 0.0
C274 C 0.83277 0.29457 0.71986 0.0
O275 O 0.81342 0.27685 0.73 0.0
O276 O 0.84365 0.29556 0.67422 0.0
C277 C 0.75767 0.25327 0.72276 0.0
O278 O 0.7717 0.27258 0.69671 0.0
C279 C 0.8737 0.29714 0.54147 0.0
C280 C 0.87798 0.26953 0.50321 0.0
C281 C 0.88803 0.29312 0.50628 0.0
N282 N 0.85648 0.27686 0.55911 0.0
N283 N 0.85909 0.26045 0.53602 0.0
C284 C 0.87504 0.31941 0.55552 0.0
H285 H 0.88763 0.32795 0.59025 0.0
H286 H 0.85807 0.31642 0.57024 0.0
H287 H 0.8806 0.33087 0.51781 0.0
C288 C 0.76669 0.23831 0.58259 0.0
N289 N 0.78643 0.24794 0.61287 0.0
N290 N 0.8039 0.25948 0.57849 0.0
C291 C 0.79565 0.25789 0.52483 0.0
C292 C 0.7715 0.24451 0.52538 0.0
C293 C 0.74383 0.22095 0.60661 0.0
H294 H 0.7461 0.21186 0.64311 0.0
H295 H 0.73454 0.22971 0.6213 0.0
H296 H 0.73319 0.20817 0.5739 0.0
O297 O 0.80315 0.22426 0.70789 0.0
O298 O 0.83308 0.24299 0.65088 0.0
H299 H 0.81529 0.25616 0.45575 0.0
H300 H 0.80157 0.27269 0.44095 0.0
C301 C 0.81066 0.26849 0.47394 0.0
H302 H 0.82673 0.2842 0.48641 0.0
H303 H 0.84803 0.24301 0.54301 0.0
O304 O 0.76327 0.23797 0.72868 0.0
C305 C 0.82131 0.22647 0.68479 0.0
Co306 Co 0.90401 0.46604 0.05882 0.0
Co307 Co 0.91527 0.43996 0.14394 0.0
C308 C 0.89246 0.41652 1.0354 0.0
O309 O 0.89358 0.43534 1.02265 0.0
O310 O 0.89963 0.4144 0.08398 0.0
C311 C 0.86707 0.46198 1.00727 0.0
O312 O 0.85762 0.44564 0.04559 0.0
C313 C 0.92967 0.41194 0.20536 0.0
C314 C 0.9427 0.43111 0.28574 0.0
C315 C 0.93999 0.4121 0.25647 0.0
N316 N 0.92592 0.42968 0.20515 0.0
N317 N 0.93425 0.4414 0.25266 0.0
C318 C 0.92648 0.39737 0.1543 0.0
H319 H 0.93228 0.40825 0.11557 0.0
H320 H 0.90798 0.38459 0.14945 0.0
H321 H 0.93645 0.3884 0.15793 0.0
C322 C 0.88363 0.47623 0.16092 0.0
N323 N 0.89357 0.46541 0.13524 0.0
N324 N 0.89646 0.45258 0.17243 0.0
C325 C 0.88747 0.45417 0.22304 0.0
C326 C 0.87907 0.4695 0.21806 0.0
C327 C 0.88068 0.49438 0.13217 0.0
H328 H 0.89332 0.50236 0.09709 0.0
H329 H 0.86316 0.4865 0.11391 0.0
H330 H 0.88291 0.50784 0.16284 0.0
O331 O 0.93786 0.48553 0.05139 0.0
O332 O 0.9452 0.46524 0.11288 0.0
H333 H 0.90003 0.45081 0.30384 0.0
H334 H 0.86934 0.43504 0.29741 0.0
C335 C 0.88569 0.4403 0.27446 0.0
H336 H 0.88657 0.42489 0.26213 0.0
H337 H 0.93479 0.4568 0.26176 0.0
O338 O 0.88848 0.4762 1.00884 0.0
C339 C 0.95218 0.48192 0.07807 0.0
Co340 Co 0.59411 0.44661 0.05121 0.0
Co341 Co 0.62008 0.48304 0.13761 0.0
C342 C 0.64397 0.48697 1.02997 0.0
O343 O 0.62464 0.46989 1.01673 0.0
O344 O 0.647 0.49468 0.08076 0.0
C345 C 0.60268 0.41837 0.99148 0.0
O346 O 0.61894 0.42562 1.03 0.0
C347 C 0.64531 0.5218 0.21561 0.0
C348 C 0.61692 0.51651 0.27304 0.0
C349 C 0.63978 0.53146 0.26069 0.0
N350 N 0.62636 0.50225 0.20126 0.0
N351 N 0.60946 0.49925 0.23551 0.0
C352 C 0.66824 0.53029 0.188 0.0
H353 H 0.66972 0.51568 0.17156 0.0
H354 H 0.68238 0.54018 0.21849 0.0
H355 H 0.66998 0.54158 0.1517 0.0
C356 C 0.58476 0.41498 0.15249 0.0
N357 N 0.59525 0.43576 0.12649 0.0
N358 N 0.60768 0.45156 0.16393 0.0
C359 C 0.60585 0.44125 0.21495 0.0
C360 C 0.59103 0.41748 0.2099 0.0
C361 C 0.56809 0.3931 0.12369 0.0
H362 H 0.57217 0.39365 0.07796 0.0
H363 H 0.56814 0.37825 0.14391 0.0
H364 H 0.55058 0.3907 0.1275 0.0
O365 O 0.57259 0.45871 0.04701 0.0
O366 O 0.59539 0.48743 0.10276 0.0
H367 H 0.60342 0.45813 0.28907 0.0
H368 H 0.61973 0.44406 0.29937 0.0
C369 C 0.61596 0.45421 0.26879 0.0
H370 H 0.63193 0.47057 0.25945 0.0
H371 H 0.59266 0.48557 0.23246 0.0
O372 O 0.58655 0.42286 0.99641 0.0
C373 C 0.57775 0.47757 0.07105 0.0
Co374 Co 0.61865 0.16164 0.0549 0.0
Co375 Co 0.58058 0.14802 0.14022 0.0
C376 C 0.57833 0.17127 1.03666 0.0
O377 O 0.59619 0.17041 1.02329 0.0
O378 O 0.56908 0.16385 0.08538 0.0
C379 C 0.64837 0.20082 1.00376 0.0
O380 O 0.64064 0.2084 0.04472 0.0
C381 C 0.54243 0.13471 0.22099 0.0
C382 C 0.54084 0.10381 0.25838 0.0
C383 C 0.52959 0.11625 0.25742 0.0
N384 N 0.55998 0.13273 0.20067 0.0
N385 N 0.55899 0.11433 0.22334 0.0
C386 C 0.53913 0.15451 0.20711 0.0
H387 H 0.55547 0.16922 0.19146 0.0
H388 H 0.53319 0.15984 0.24515 0.0
H389 H 0.52609 0.14943 0.17305 0.0
C390 C 0.6486 0.18075 0.15964 0.0
N391 N 0.62817 0.17118 0.13218 0.0
N392 N 0.61177 0.16666 0.16917 0.0
C393 C 0.62137 0.17361 0.22145 0.0
C394 C 0.64527 0.18285 0.21754 0.0
C395 C 0.67096 0.18677 0.13177 0.0
H396 H 0.67075 0.19026 0.08596 0.0
H397 H 0.68536 0.2019 0.15261 0.0
H398 H 0.67394 0.17209 0.13617 0.0
O399 O 0.60653 0.12795 0.04434 0.0
O400 O 0.57755 0.12053 0.10116 0.0
H401 H 0.61831 0.179 0.31115 0.0
H402 H 0.59354 0.17282 0.26776 0.0
C403 C 0.60754 0.16894 0.27476 0.0
H404 H 0.59946 0.15045 0.28524 0.0
H405 H 0.57042 0.10861 0.2137 0.0
O406 O 0.64338 0.17998 1.00326 0.0
C407 C 0.58762 0.11357 0.06773 0.0
Co408 Co 0.48416 0.89358 1.02181 0.0
Co409 Co 0.45705 0.90619 0.94363 0.0
C410 C 0.43452 0.88293 0.05121 0.0
O411 O 0.45388 0.88464 0.06219 0.0
O412 O 0.43136 0.88932 1.00246 0.0
C413 C 0.47883 0.85366 0.05663 0.0
O414 O 0.4593 0.8476 1.0309 0.0
C415 C 0.42948 0.91847 0.87002 0.0
C416 C 0.45737 0.95047 0.83211 0.0
C417 C 0.43371 0.93697 0.83521 0.0
N418 N 0.44975 0.92143 0.88735 0.0
N419 N 0.4663 0.94049 0.86443 0.0
C420 C 0.40705 0.89769 0.88469 0.0
H421 H 0.40985 0.88365 0.89944 0.0
H422 H 0.39549 0.89179 0.84724 0.0
H423 H 0.39868 0.90192 0.91959 0.0
C424 C 0.4926 0.87507 0.91393 0.0
N425 N 0.48219 0.88461 0.94333 0.0
N426 N 0.46906 0.88824 0.90896 0.0
C427 C 0.47023 0.8805 0.85633 0.0
C428 C 0.4852 0.87153 0.85733 0.0
C429 C 0.51155 0.87214 0.93812 0.0
H430 H 0.52037 0.88462 0.97285 0.0
H431 H 0.50424 0.85458 0.95569 0.0
H432 H 0.52433 0.87464 0.90483 0.0
O433 O 0.50605 0.9271 1.03137 0.0
O434 O 0.48266 0.93389 0.98046 0.0
H435 H 0.46865 0.89801 0.78246 0.0
H436 H 0.45246 0.86721 0.77717 0.0
C437 C 0.45743 0.88194 0.80613 0.0
H438 H 0.44189 0.88234 0.82032 0.0
H439 H 0.48377 0.94696 0.87178 0.0
O440 O 0.49394 0.87476 0.06042 0.0
C441 C 0.50067 0.9412 1.01053 0.0
Co442 Co 0.17155 0.60088 1.02125 0.0
Co443 Co 0.16047 0.56171 0.94283 0.0
C444 C 0.18319 0.56359 0.05376 0.0
O445 O 0.18155 0.58123 0.06437 0.0
O446 O 0.17696 0.55405 1.00508 0.0
C447 C 0.20971 0.63767 0.05588 0.0
O448 O 0.21753 0.62539 1.03153 0.0
C449 C 0.14589 0.51778 0.88888 0.0
C450 C 0.13196 0.52173 0.80733 0.0
C451 C 0.13513 0.5063 0.83932 0.0
N452 N 0.14935 0.53913 0.88561 0.0
N453 N 0.1405 0.54123 0.83743 0.0
C454 C 0.15009 0.50792 0.94151 0.0
H455 H 0.14472 0.51384 0.97948 0.0
H456 H 0.16873 0.51409 0.94519 0.0
H457 H 0.14038 0.48891 0.94088 0.0
C458 C 0.19043 0.6284 0.91361 0.0
N459 N 0.18112 0.60838 0.94285 0.0
N460 N 0.17867 0.59197 0.90872 0.0
C461 C 0.18744 0.60136 0.85684 0.0
C462 C 0.19531 0.62504 0.85778 0.0
C463 C 0.19195 0.64982 0.93667 0.0
H464 H 0.17897 0.64563 0.97063 0.0
H465 H 0.2093 0.66096 0.95464 0.0
H466 H 0.18912 0.65948 0.90246 0.0
O467 O 0.13784 0.58705 1.02953 0.0
O468 O 0.13077 0.55788 0.97362 0.0
H469 H 0.17467 0.58371 0.77812 0.0
H470 H 0.20537 0.59879 0.78405 0.0
C471 C 0.1891 0.58818 0.80775 0.0
H472 H 0.18826 0.57218 0.82279 0.0
H473 H 0.13982 0.55579 0.8257 0.0
O474 O 0.18819 0.62978 0.05946 0.0
C475 C 0.12365 0.56828 1.00566 0.0
Co476 Co 0.45933 0.57869 1.02409 0.0
Co477 Co 0.49878 0.60768 0.94641 0.0
C478 C 0.49669 0.62795 0.05699 0.0
O479 O 0.47954 0.60826 0.06793 0.0
O480 O 0.50587 0.63183 1.00766 0.0
C481 C 0.42363 0.58176 0.05834 0.0
O482 O 0.43697 0.60154 1.03339 0.0
C483 C 0.54292 0.63758 0.89288 0.0
C484 C 0.53955 0.61991 0.81132 0.0
C485 C 0.55467 0.6387 0.84332 0.0
N486 N 0.52171 0.61932 0.88958 0.0
N487 N 0.51998 0.60849 0.84142 0.0
C488 C 0.55241 0.65176 0.94545 0.0
H489 H 0.54657 0.64049 0.98349 0.0
H490 H 0.54585 0.66387 0.9489 0.0
H491 H 0.57147 0.66148 0.9449 0.0
C492 C 0.43206 0.57047 0.91673 0.0
N493 N 0.45206 0.58115 0.94596 0.0
N494 N 0.46861 0.59517 0.91189 0.0
C495 C 0.45936 0.59449 0.85993 0.0
C496 C 0.43564 0.57868 0.86092 0.0
C497 C 0.41035 0.55079 0.93991 0.0
H498 H 0.41425 0.5419 0.974 0.0
H499 H 0.39942 0.55728 0.95775 0.0
H500 H 0.40055 0.53834 0.90579 0.0
O501 O 0.47266 0.55828 1.03031 0.0
O502 O 0.50276 0.58231 0.97881 0.0
H503 H 0.47722 0.59914 0.7814 0.0
H504 H 0.4621 0.61467 0.78647 0.0
C505 C 0.47269 0.60918 0.8106 0.0
H506 H 0.48869 0.62445 0.82541 0.0
H507 H 0.50558 0.59309 0.82957 0.0
O508 O 0.43027 0.56717 0.06248 0.0
C509 C 0.4922 0.56408 1.00856 0.0
Co510 Co 0.56944 0.80139 0.38896 0.0
Co511 Co 0.58251 0.77707 0.47521 0.0
C512 C 0.55982 0.7518 0.3701 0.0
O513 O 0.56111 0.77064 0.35646 0.0
O514 O 0.56643 0.74975 0.41964 0.0
C515 C 0.53065 0.79356 0.33818 0.0
O516 O 0.52236 0.77758 0.37753 0.0
C517 C 0.59516 0.75182 0.55597 0.0
C518 C 0.62476 0.78115 0.59766 0.0
C519 C 0.61298 0.75747 0.59447 0.0
N520 N 0.59693 0.77134 0.53667 0.0
N521 N 0.61453 0.78876 0.56195 0.0
C522 C 0.57601 0.72864 0.53945 0.0
H523 H 0.56136 0.72996 0.52228 0.0
H524 H 0.57007 0.7169 0.57663 0.0
H525 H 0.58212 0.72142 0.50584 0.0
C526 C 0.54929 0.81167 0.49172 0.0
N527 N 0.55943 0.8011 0.46574 0.0
N528 N 0.56376 0.78947 0.50345 0.0
C529 C 0.55611 0.79197 0.55501 0.0
C530 C 0.54649 0.80626 0.54991 0.0
C531 C 0.54464 0.82854 0.46194 0.0
H532 H 0.5563 0.8361 0.42487 0.0
H533 H 0.52669 0.81957 0.44625 0.0
H534 H 0.54696 0.84244 0.49121 0.0
O535 O 0.60298 0.8226 0.37877 0.0
O536 O 0.6109 0.80215 0.43802 0.0
H537 H 0.57459 0.79262 0.62929 0.0
H538 H 0.54376 0.77693 0.63773 0.0
C539 C 0.55811 0.78083 0.608 0.0
H540 H 0.55813 0.76481 0.59735 0.0
H541 H 0.6199 0.80592 0.55374 0.0
O542 O 0.55178 0.80879 0.33835 0.0
C543 C 0.61758 0.8189 0.40368 0.0
Co544 Co 0.26039 0.78163 0.39406 0.0
Co545 Co 0.28896 0.81798 0.47753 0.0
C546 C 0.31071 0.81907 0.36736 0.0
O547 O 0.29079 0.80277 0.35468 0.0
O548 O 0.31443 0.8269 0.41799 0.0
C549 C 0.26425 0.74988 0.3379 0.0
O550 O 0.28089 0.75665 0.3752 0.0
C551 C 0.31691 0.86053 0.53757 0.0
C552 C 0.29818 0.85424 0.61903 0.0
C553 C 0.31667 0.87083 0.58839 0.0
N554 N 0.29966 0.83874 0.53875 0.0
N555 N 0.28822 0.83521 0.58695 0.0
C556 C 0.33082 0.87193 0.48541 0.0
H557 H 0.31964 0.86585 0.44733 0.0
H558 H 0.34433 0.86721 0.48039 0.0
H559 H 0.33894 0.89084 0.48782 0.0
C560 C 0.25118 0.75024 0.49462 0.0
N561 N 0.26195 0.77108 0.46916 0.0
N562 N 0.27554 0.78657 0.50583 0.0
C563 C 0.27445 0.77581 0.55572 0.0
C564 C 0.25866 0.75218 0.551 0.0
C565 C 0.23258 0.72923 0.46649 0.0
H566 H 0.22431 0.73401 0.43261 0.0
H567 H 0.2402 0.71962 0.44673 0.0
H568 H 0.21941 0.71793 0.49793 0.0
O569 O 0.24054 0.79554 0.39219 0.0
O570 O 0.26453 0.82414 0.44684 0.0
H571 H 0.27948 0.79155 0.63742 0.0
H572 H 0.29465 0.77628 0.62696 0.0
C573 C 0.28931 0.78761 0.60598 0.0
H574 H 0.30473 0.80384 0.59274 0.0
H575 H 0.27307 0.82014 0.59696 0.0
O576 O 0.24963 0.75644 0.34239 0.0
C577 C 0.24645 0.81455 0.4164 0.0
Co578 Co 0.28252 0.49123 0.39086 0.0
Co579 Co 0.24464 0.47771 0.47612 0.0
C580 C 0.24172 0.49962 0.37032 0.0
O581 O 0.25939 0.49838 0.35738 0.0
O582 O 0.23312 0.49343 0.42013 0.0
C583 C 0.31098 0.52962 0.33477 0.0
O584 O 0.30286 0.53777 0.3734 0.0
C585 C 0.20578 0.46438 0.55474 0.0
C586 C 0.20438 0.43393 0.59445 0.0
C587 C 0.19288 0.4461 0.59166 0.0
N588 N 0.22358 0.46251 0.53587 0.0
N589 N 0.2227 0.44438 0.55994 0.0
C590 C 0.20242 0.48404 0.5395 0.0
H591 H 0.21875 0.49869 0.52364 0.0
H592 H 0.19641 0.4896 0.57698 0.0
H593 H 0.18941 0.47868 0.50526 0.0
C594 C 0.31275 0.51199 0.49445 0.0
N595 N 0.29209 0.50161 0.46792 0.0
N596 N 0.27581 0.49697 0.50544 0.0
C597 C 0.2858 0.50472 0.55715 0.0
C598 C 0.30972 0.51449 0.55235 0.0
C599 C 0.33508 0.51877 0.46533 0.0
H600 H 0.33474 0.52344 0.4205 0.0
H601 H 0.34956 0.53343 0.48732 0.0
H602 H 0.33805 0.50401 0.46595 0.0
O603 O 0.27118 0.45795 0.38158 0.0
O604 O 0.24224 0.44972 0.43948 0.0
H605 H 0.28198 0.49975 0.648 0.0
H606 H 0.271 0.51691 0.61816 0.0
C607 C 0.27273 0.50159 0.61116 0.0
H608 H 0.25532 0.48643 0.60865 0.0
H609 H 0.23445 0.43892 0.552 0.0
O610 O 0.30688 0.50911 0.33828 0.0
C611 C 0.25277 0.44323 0.40615 0.0
H612 H 0.18043 0.1496 0.88069 0.0
H613 H 0.22415 0.14413 1.00588 0.0
H614 H 0.16529 0.16445 0.95305 0.0
H615 H 0.20807 0.15791 0.0791 0.0
H616 H 0.15647 0.16279 0.20467 0.0
H617 H 0.17179 0.14778 0.13295 0.0
H618 H 0.17749 0.19908 1.01419 0.0
H619 H 0.16329 0.21487 0.08689 0.0
C620 C 0.187 0.15164 0.92352 0.0
C621 C 0.20392 0.14578 0.93645 0.0
C622 C 0.17815 0.16012 0.96539 0.0
C623 C 0.18542 0.16266 1.02244 0.0
C624 C 0.20181 0.15614 1.03594 0.0
C625 C 0.211 0.14802 0.9937 0.0
C626 C 0.16129 0.1712 0.16366 0.0
C627 C 0.15858 0.19029 0.1525 0.0
C628 C 0.17006 0.16245 0.12216 0.0
C629 C 0.17604 0.1721 0.06722 0.0
C630 C 0.17292 0.19091 0.05556 0.0
C631 C 0.16454 0.19993 0.09747 0.0
H632 H 0.9255 0.04894 0.89389 0.0
H633 H 0.91353 0.09153 1.00904 0.0
H634 H 0.90989 1.01796 0.96379 0.0
H635 H 0.8983 0.06066 0.08004 0.0
H636 H 0.84856 0.99202 0.16929 0.0
H637 H 0.86551 1.02357 0.10069 0.0
H638 H 0.91512 1.00385 0.05279 0.0
H639 H 0.89815 0.9724 0.12205 0.0
C640 C 0.9197 0.05181 0.93444 0.0
C641 C 0.92081 0.0729 0.94535 0.0
C642 C 0.91083 0.03397 0.975 0.0
C643 C 0.90254 0.03641 1.0282 0.0
C644 C 0.90412 0.05776 0.03958 0.0
C645 C 0.9132 0.07571 0.99901 0.0
C646 C 0.86317 0.99447 0.14428 0.0
C647 C 0.87198 0.97958 0.15172 0.0
C648 C 0.87302 1.01273 0.10487 0.0
C649 C 0.89199 1.01673 0.07078 0.0
C650 C 0.90048 1.00147 0.07748 0.0
C651 C 0.89069 0.98328 0.11728 0.0
H652 H 0.05741 0.90368 0.2026 0.0
H653 H 0.10433 0.90066 0.08243 0.0
H654 H 1.02715 0.88821 0.13089 0.0
H655 H 0.07438 0.88657 1.00961 0.0
H656 H 1.02051 0.88473 0.87985 0.0
H657 H 0.05053 0.89946 0.95209 0.0
H658 H 1.00259 0.85134 0.07365 0.0
H659 H 0.97282 0.83553 1.00024 0.0
C660 C 0.0614 0.89964 0.16113 0.0
C661 C 0.08365 0.90342 0.14938 0.0
C662 C 0.04391 0.89083 0.1196 0.0
C663 C 0.04805 0.88596 0.06397 0.0
C664 C 0.07041 0.89022 0.05163 0.0
C665 C 0.08778 0.89855 0.09362 0.0
C666 C 1.0163 0.87687 0.92154 0.0
C667 C 0.99394 0.85856 0.93311 0.0
C668 C 1.03365 0.8855 0.96337 0.0
C669 C 1.02927 0.87664 1.01917 0.0
C670 C 1.00675 0.85881 1.03146 0.0
C671 C 0.98949 0.8498 0.98914 0.0
H672 H 0.79085 0.80542 0.18837 0.0
H673 H 0.79503 0.84274 1.03547 0.0
H674 H 0.79384 0.77668 0.1316 0.0
H675 H 0.79875 0.81485 0.979 0.0
H676 H 0.82035 0.77672 0.88249 0.0
H677 H 0.79156 0.77989 0.93904 0.0
H678 H 0.82884 0.78339 0.09207 0.0
H679 H 0.85676 0.77949 1.03582 0.0
C680 C 0.79208 0.80723 0.14253 0.0
C681 C 0.79385 0.8267 0.11617 0.0
C682 C 0.79361 0.79076 0.11001 0.0
C683 C 0.79733 0.79384 0.05095 0.0
C684 C 0.79595 0.8118 1.0243 0.0
C685 C 0.79411 0.82804 0.05673 0.0
C686 C 0.82194 0.77765 0.92838 0.0
C687 C 0.84119 0.77898 0.95495 0.0
C688 C 0.80543 0.7793 0.96076 0.0
C689 C 0.80829 0.78271 1.01989 0.0
C690 C 0.82597 0.78085 0.04671 0.0
C691 C 0.84223 0.77889 1.0144 0.0
H692 H 0.30762 0.08272 0.97986 0.0
H693 H 0.24798 0.03338 0.88648 0.0
H694 H 0.30615 0.05166 1.03666 0.0
H695 H 0.2466 1.00289 0.94156 0.0
H696 H 0.23032 0.95125 0.05637 0.0
H697 H 0.25719 0.97818 0.98717 0.0
H698 H 0.2777 0.03306 0.10886 0.0
H699 H 0.25245 1.00585 0.17918 0.0
C700 C 0.29482 0.0652 0.96988 0.0
C701 C 0.27783 0.0605 0.92901 0.0
C702 C 0.29401 0.04745 1.00226 0.0
C703 C 0.27598 1.02484 0.99459 0.0
C704 C 0.2609 1.02 0.94861 0.0
C705 C 0.26168 0.03767 0.91653 0.0
C706 C 0.2411 0.96896 0.06893 0.0
C707 C 0.23798 0.97686 0.12164 0.0
C708 C 0.25657 0.98437 1.02928 0.0
C709 C 0.26873 1.00791 0.04145 0.0
C710 C 0.26826 1.01511 0.09736 0.0
C711 C 0.25313 0.99961 0.13733 0.0
H712 H 0.98093 0.23948 0.98853 0.0
H713 H 1.02942 0.22888 0.89152 0.0
H714 H 1.01254 0.26849 0.04524 0.0
H715 H 0.06038 0.25747 0.94615 0.0
H716 H 0.11275 0.29146 0.05847 0.0
H717 H 0.08576 0.29238 0.99176 0.0
H718 H 1.03134 0.25841 0.11578 0.0
H719 H 0.05871 0.25962 0.18403 0.0
C720 C 0.99837 0.24402 0.9777 0.0
C721 C 1.00265 0.23181 0.93571 0.0
C722 C 1.01644 0.26064 1.01005 0.0
C723 C 1.03895 0.265 1.00111 0.0
C724 C 0.04338 0.25485 0.9542 0.0
C725 C 1.02541 0.23827 0.92228 0.0
C726 C 0.09515 0.2848 0.07218 0.0
C727 C 0.08739 0.2736 0.12484 0.0
C728 C 0.07971 0.28544 1.03392 0.0
C729 C 0.05619 0.27437 0.04726 0.0
C730 C 0.04923 0.26661 0.1033 0.0
C731 C 0.06482 0.2665 0.14202 0.0
H732 H 0.82731 0.54787 0.40764 0.0
H733 H 0.82416 0.49874 0.52998 0.0
H734 H 0.84086 0.53124 0.33521 0.0
H735 H 0.83878 0.48298 0.45868 0.0
H736 H 0.89064 0.47915 0.3322 0.0
H737 H 0.87483 0.49387 0.40339 0.0
H738 H 0.82901 0.49526 0.27778 0.0
H739 H 0.8439 0.47934 0.20737 0.0
C740 C 0.82925 0.53343 0.41929 0.0
C741 C 0.82467 0.52494 0.47555 0.0
C742 C 0.83723 0.52392 0.37757 0.0
C743 C 0.84126 0.50579 0.39073 0.0
C744 C 0.83639 0.49715 0.44673 0.0
C745 C 0.82803 0.50635 0.48798 0.0
C746 C 0.87685 0.48204 0.3197 0.0
C747 C 0.86877 0.47791 0.26317 0.0
C748 C 0.86784 0.49074 0.36077 0.0
C749 C 0.85062 0.49603 0.34678 0.0
C750 C 0.84247 0.49184 0.29037 0.0
C751 C 0.85117 0.48273 0.24964 0.0
H752 H 0.61574 0.40768 0.28764 0.0
H753 H 0.54629 0.3847 0.23499 0.0
H754 H 0.60155 0.37736 0.3596 0.0
H755 H 0.53199 0.35412 0.30619 0.0
H756 H 0.51358 0.28858 0.40808 0.0
H757 H 0.52864 0.31819 0.33388 0.0
H758 H 0.58179 0.36436 0.44838 0.0
H759 H 0.56705 0.33462 0.52148 0.0
C760 C 0.59739 0.3964 0.2919 0.0
C761 C 0.58226 0.39903 0.25548 0.0
C762 C 0.58916 0.37879 0.33323 0.0
C763 C 0.56544 0.36293 0.33952 0.0
C764 C 0.55035 0.36555 0.30273 0.0
C765 C 0.55859 0.38325 0.26168 0.0
C766 C 0.52869 0.30492 0.41715 0.0
C767 C 0.53898 0.30903 0.47126 0.0
C768 C 0.53723 0.32214 0.37464 0.0
C769 C 0.55654 0.34407 0.38444 0.0
C770 C 0.56709 0.34786 0.43827 0.0
C771 C 0.55845 0.33074 0.48072 0.0
H772 H 0.77304 0.22928 0.41621 0.0
H773 H 0.73005 0.24317 0.52561 0.0
H774 H 0.74337 0.21531 0.34265 0.0
H775 H 0.69997 0.22814 0.45415 0.0
H776 H 0.65472 0.21622 0.29799 0.0
H777 H 0.68545 0.2322 0.36864 0.0
H778 H 0.70778 0.1855 0.31271 0.0
H779 H 0.67728 0.16998 0.24171 0.0
C780 C 0.75735 0.22952 0.42462 0.0
C781 C 0.75413 0.23736 0.4775 0.0
C782 C 0.74 0.22111 0.38252 0.0
C783 C 0.71873 0.2202 0.39163 0.0
C784 C 0.71589 0.22857 0.44425 0.0
C785 C 0.73321 0.23702 0.48601 0.0
C786 C 0.66603 0.20918 0.30125 0.0
C787 C 0.6633 0.19168 0.26391 0.0
C788 C 0.68383 0.21839 0.34203 0.0
C789 C 0.6996 0.2104 0.34732 0.0
C790 C 0.6966 0.19268 0.31003 0.0
C791 C 0.67887 0.18358 0.26915 0.0
H792 H 0.51687 0.09285 0.35744 0.0
H793 H 0.49496 0.12576 0.23524 0.0
H794 H 0.48917 0.09174 0.42575 0.0
H795 H 0.4688 0.1265 0.30482 0.0
H796 H 0.43596 0.14294 0.43407 0.0
H797 H 0.43919 0.1147 0.37574 0.0
H798 H 0.49878 0.12676 0.47257 0.0
H799 H 0.49588 0.15471 0.52872 0.0
C800 C 0.50597 0.09964 0.34482 0.0
C801 C 0.50935 0.11108 0.29262 0.0
C802 C 0.49002 0.09889 0.38392 0.0
C803 C 0.47756 0.10997 0.37176 0.0
C804 C 0.47842 0.11818 0.31625 0.0
C805 C 0.49407 0.11851 0.27679 0.0
C806 C 0.44916 0.13878 0.44409 0.0
C807 C 0.46571 0.15114 0.48585 0.0
C808 C 0.45097 0.1226 0.41083 0.0
C809 C 0.46948 0.11878 0.41872 0.0
C810 C 0.48413 0.12899 0.46541 0.0
C811 C 0.48242 0.14519 0.4982 0.0
H812 H 0.9146 0.36615 0.23865 0.0
H813 H 0.9731 0.4175 0.33178 0.0
H814 H 0.91462 0.33655 0.29484 0.0
H815 H 0.97289 0.38734 0.39005 0.0
H816 H 0.92018 0.33796 0.53108 0.0
H817 H 0.94441 0.3667 0.46212 0.0
H818 H 0.92842 0.31361 0.33779 0.0
H819 H 0.90257 0.28501 0.40555 0.0
C820 C 0.92833 0.3711 0.26903 0.0
C821 C 0.94391 0.3942 0.28058 0.0
C822 C 0.92835 0.35397 0.30171 0.0
C823 C 0.94363 0.35956 0.34755 0.0
C824 C 0.96074 0.38254 0.35544 0.0
C825 C 0.96081 0.39977 0.32229 0.0
C826 C 0.9217 0.33242 0.48898 0.0
C827 C 0.90798 0.30954 0.47206 0.0
C828 C 0.93624 0.34886 0.44982 0.0
C829 C 0.93754 0.34248 0.39358 0.0
C830 C 0.92708 0.31908 0.38025 0.0
C831 C 0.9122 0.30272 0.41908 0.0
H832 H 0.64092 0.53551 0.37486 0.0
H833 H 0.67278 0.57346 0.22142 0.0
H834 H 0.67198 0.5645 0.4308 0.0
H835 H 0.70395 0.60324 0.27764 0.0
H836 H 0.76569 0.60317 0.372 0.0
H837 H 0.73328 0.59797 0.31643 0.0
H838 H 0.69892 0.60018 0.47016 0.0
H839 H 0.73153 0.60476 0.52604 0.0
C840 C 0.65426 0.55055 0.35338 0.0
C841 C 0.65525 0.55182 0.29393 0.0
C842 C 0.67201 0.56741 0.38549 0.0
C843 C 0.69092 0.58591 0.35849 0.0
C844 C 0.69001 0.5888 0.29947 0.0
C845 C 0.67234 0.57173 0.26727 0.0
C846 C 0.7515 0.60322 0.39373 0.0
C847 C 0.75044 0.60316 0.45321 0.0
C848 C 0.73293 0.60051 0.3618 0.0
C849 C 0.7131 0.5979 0.38904 0.0
C850 C 0.71363 0.60135 0.44815 0.0
C851 C 0.73216 0.60379 0.48015 0.0
H852 H 0.56052 0.81873 0.66195 0.0
H853 H 0.50978 0.81388 0.54235 0.0
H854 H 0.54481 0.83329 0.73398 0.0
H855 H 0.4951 0.82983 0.61329 0.0
H856 H 0.49397 0.88353 0.74245 0.0
H857 H 0.50759 0.86729 0.66902 0.0
H858 H 0.50797 0.8201 0.79196 0.0
H859 H 0.49306 0.83523 0.86414 0.0
C860 C 0.54592 0.82052 0.65076 0.0
C861 C 0.53661 0.81495 0.59545 0.0
C862 C 0.53698 0.82913 0.69226 0.0
C863 C 0.51867 0.83299 0.67982 0.0
C864 C 0.50939 0.8275 0.62459 0.0
C865 C 0.51798 0.8184 0.58354 0.0
C866 C 0.49646 0.86939 0.75381 0.0
C867 C 0.4925 0.86103 0.8102 0.0
C868 C 0.50449 0.86013 0.71152 0.0
C869 C 0.50926 0.84246 0.72428 0.0
C870 C 0.505 0.83394 0.78037 0.0
C871 C 0.49651 0.84281 0.82213 0.0
H872 H 0.23084 0.6697 0.86541 0.0
H873 H 0.18405 0.62155 0.74277 0.0
H874 H 0.24605 0.69971 0.79313 0.0
H875 H 0.19985 0.65149 0.66959 0.0
H876 H 0.24842 0.70712 0.53944 0.0
H877 H 0.23356 0.67651 0.61056 0.0
H878 H 0.23598 0.72386 0.73726 0.0
H879 H 0.25002 0.75418 0.66572 0.0
C880 C 0.22363 0.66542 0.8231 0.0
C881 C 0.20587 0.64295 0.81086 0.0
C882 C 0.23247 0.68278 0.78125 0.0
C883 C 0.22421 0.6784 0.7249 0.0
C884 C 0.20692 0.65574 0.71208 0.0
C885 C 0.19786 0.63839 0.75429 0.0
C886 C 0.24555 0.71105 0.58223 0.0
C887 C 0.25055 0.73346 0.59603 0.0
C888 C 0.23701 0.69335 0.62338 0.0
C889 C 0.23342 0.69739 0.68038 0.0
C890 C 0.23873 0.71989 0.69436 0.0
C891 C 0.247 0.7375 0.65302 0.0
H892 H 0.31589 0.54493 0.63863 0.0
H893 H 0.34498 0.50562 0.5716 0.0
H894 H 0.3462 0.56143 0.71043 0.0
H895 H 0.3752 0.52189 0.64307 0.0
H896 H 0.43902 0.56863 0.74801 0.0
H897 H 0.40935 0.55417 0.67459 0.0
H898 H 0.36157 0.55587 0.79461 0.0
H899 H 0.39155 0.57125 0.86674 0.0
C900 C 0.32864 0.53963 0.63938 0.0
C901 C 0.3279 0.52402 0.59847 0.0
C902 C 0.34617 0.54913 0.68084 0.0
C903 C 0.36366 0.54333 0.6832 0.0
C904 C 0.36264 0.52743 0.64256 0.0
C905 C 0.34513 0.51797 0.60122 0.0
C906 C 0.42233 0.56631 0.75853 0.0
C907 C 0.4179 0.57115 0.8139 0.0
C908 C 0.40503 0.55761 0.7164 0.0
C909 C 0.3826 0.55347 0.72788 0.0
C910 C 0.37843 0.55884 0.78307 0.0
C911 C 0.3957 0.5675 0.82506 0.0
H912 H 0.10204 0.47669 0.7667 0.0
H913 H 0.16164 0.48716 0.86066 0.0
H914 H 0.10391 0.44741 0.70952 0.0
H915 H 0.1633 0.45827 0.80547 0.0
H916 H 0.17988 0.423 0.69212 0.0
H917 H 0.1526 0.42281 0.76026 0.0
H918 H 0.13269 0.45743 0.63774 0.0
H919 H 0.15833 0.45568 0.56828 0.0
C920 C 0.1149 0.47207 0.77674 0.0
C921 C 0.13174 0.4843 0.81799 0.0
C922 C 0.11593 0.4553 0.74416 0.0
C923 C 0.13398 0.45078 0.75211 0.0
C924 C 0.14896 0.46101 0.79828 0.0
C925 C 0.148 0.47775 0.83046 0.0
C926 C 0.16915 0.42993 0.67909 0.0
C927 C 0.17259 0.44113 0.62648 0.0
C928 C 0.15344 0.42971 0.71813 0.0
C929 C 0.14135 0.44113 0.70551 0.0
C930 C 0.1421 0.44892 0.64958 0.0
C931 C 0.15746 0.44868 0.61016 0.0
H932 H 0.60441 0.71368 0.57143 0.0
H933 H 0.63527 0.76785 0.69589 0.0
H934 H 0.60298 0.68658 0.64097 0.0
H935 H 0.63588 0.74112 0.7641 0.0
H936 H 0.57245 0.68416 0.86477 0.0
H937 H 0.60068 0.71532 0.80931 0.0
H938 H 0.61361 0.66843 0.71239 0.0
H939 H 0.58498 0.63665 0.76985 0.0
C940 C 0.61104 0.71986 0.61348 0.0
C941 C 0.61799 0.7424 0.62983 0.0
C942 C 0.611 0.70444 0.65298 0.0
C943 C 0.61845 0.71153 0.70904 0.0
C944 C 0.62924 0.73499 0.72187 0.0
C945 C 0.62878 0.75028 0.68277 0.0
C946 C 0.58219 0.68045 0.83429 0.0
C947 C 0.5764 0.65787 0.8217 0.0
C948 C 0.59856 0.69852 0.80193 0.0
C949 C 0.60915 0.69436 0.75546 0.0
C950 C 0.60541 0.67211 0.74726 0.0
C951 C 0.58902 0.65394 0.78003 0.0
H952 H 0.44249 0.96111 0.73666 0.0
H953 H 0.38866 0.92403 0.86007 0.0
H954 H 0.41431 0.95945 0.6696 0.0
H955 H 0.36033 0.92054 0.79159 0.0
H956 H 0.31015 0.89801 0.66286 0.0
H957 H 0.33987 0.92857 0.7206 0.0
H958 H 0.39183 0.92355 0.62338 0.0
H959 H 0.36266 0.89341 0.56756 0.0
C960 C 0.42467 0.95284 0.74989 0.0
C961 C 0.41748 0.94096 0.80185 0.0
C962 C 0.40854 0.952 0.71147 0.0
C963 C 0.38501 0.93883 0.72406 0.0
C964 C 0.37828 0.93037 0.77971 0.0
C965 C 0.39449 0.93165 0.81854 0.0
C966 C 0.32802 0.90414 0.65275 0.0
C967 C 0.33407 0.89324 0.61093 0.0
C968 C 0.34501 0.92167 0.6856 0.0
C969 C 0.3682 0.92824 0.67737 0.0
C970 C 0.37422 0.91922 0.63079 0.0
C971 C 0.35732 0.90174 0.59831 0.0
H972 H 0.22483 0.40855 0.47786 0.0
H973 H 0.25868 0.42109 0.31469 0.0
H974 H 0.20686 0.36737 0.46269 0.0
H975 H 0.2401 0.37955 0.29895 0.0
H976 H 0.173 0.30669 0.2715 0.0
H977 H 0.19691 0.34789 0.28621 0.0
H978 H 0.21787 0.33556 0.44946 0.0
H979 H 0.19421 0.29405 0.43425 0.0
C980 C 0.22856 0.40253 0.43881 0.0
C981 C 0.24318 0.41818 0.3974 0.0
C982 C 0.21834 0.37888 0.43033 0.0
C983 C 0.22206 0.37018 0.3797 0.0
C984 C 0.23689 0.38576 0.33841 0.0
C985 C 0.24757 0.40953 0.34747 0.0
C986 C 0.18287 0.31269 0.31035 0.0
C987 C 0.1816 0.29702 0.35184 0.0
C988 C 0.1967 0.33634 0.31854 0.0
C989 C 0.20929 0.34499 0.36893 0.0
C990 C 0.20831 0.32938 0.4102 0.0
C991 C 0.19483 0.30563 0.40145 0.0
H992 H 0.75453 0.87493 0.26563 0.0
H993 H 0.76707 0.90927 0.42763 0.0
H994 H 0.71316 0.8573 0.28102 0.0
H995 H 0.7255 0.89116 0.44344 0.0
H996 H 0.65237 0.82579 0.4748 0.0
H997 H 0.69366 0.84858 0.45821 0.0
H998 H 0.68138 0.86857 0.29356 0.0
H999 H 0.63977 0.84602 0.31064 0.0
C1000 C 0.74847 0.87881 0.30445 0.0
C1001 C 0.76415 0.89347 0.34553 0.0
C1002 C 0.72474 0.86881 0.31303 0.0
C1003 C 0.71605 0.87282 0.36341 0.0
C1004 C 0.7317 0.8877 0.40424 0.0
C1005 C 0.75549 0.89812 0.39512 0.0
C1006 C 0.65841 0.83519 0.4352 0.0
C1007 C 0.6427 0.83401 0.39396 0.0
C1008 C 0.68211 0.84837 0.4259 0.0
C1009 C 0.69081 0.86039 0.37463 0.0
C1010 C 0.67518 0.85944 0.33346 0.0
C1011 C 0.65137 0.84661 0.34331 0.0
H1012 H 0.25823 0.85824 0.44633 0.0
H1013 H 0.20322 0.79712 0.36996 0.0
H1014 H 0.23651 0.87783 0.43237 0.0
H1015 H 0.18135 0.8169 0.3563 0.0
H1016 H 0.14194 0.85705 0.39491 0.0
H1017 H 0.16166 0.83531 0.4131 0.0
H1018 H 0.22462 0.89155 0.34686 0.0
H1019 H 0.20518 0.91302 0.32841 0.0
C1020 C 0.24145 0.84889 0.42675 0.0
C1021 C 0.23259 0.82607 0.409 0.0
C1022 C 0.22902 0.8602 0.41859 0.0
C1023 C 0.20721 0.84899 0.39302 0.0
C1024 C 0.19803 0.82599 0.37644 0.0
C1025 C 0.21065 0.81471 0.38395 0.0
C1026 C 0.15999 0.86476 0.3844 0.0
C1027 C 0.17192 0.88685 0.3603 0.0
C1028 C 0.17125 0.85225 0.3945 0.0
C1029 C 0.19476 0.86173 0.38167 0.0
C1030 C 0.2066 0.88381 0.35788 0.0
C1031 C 0.19536 0.8961 0.34707 0.0
H1032 H 0.43433 0.25569 0.71966 0.0
H1033 H 0.42563 0.19254 0.65014 0.0
H1034 H 0.3927 0.23674 0.73713 0.0
H1035 H 0.3846 0.17393 0.66771 0.0
H1036 H 0.31848 0.1407 0.77055 0.0
H1037 H 0.35973 0.16218 0.75488 0.0
H1038 H 0.35395 0.21762 0.68095 0.0
H1039 H 0.3122 0.19594 0.69648 0.0
C1040 C 0.42363 0.23784 0.70815 0.0
C1041 C 0.43345 0.22568 0.68366 0.0
C1042 C 0.39978 0.22704 0.71784 0.0
C1043 C 0.38535 0.20378 0.70411 0.0
C1044 C 0.39522 0.19177 0.67943 0.0
C1045 C 0.41883 0.20254 0.66914 0.0
C1046 C 0.32586 0.15749 0.75104 0.0
C1047 C 0.31185 0.16647 0.73449 0.0
C1048 C 0.34959 0.16979 0.7419 0.0
C1049 C 0.36016 0.19157 0.71638 0.0
C1050 C 0.34634 0.20092 0.70096 0.0
C1051 C 0.32241 0.18843 0.70953 0.0
H1052 H 0.87664 0.13306 0.66967 0.0
H1053 H 0.90441 0.17436 0.82052 0.0
H1054 H 0.85187 0.1496 0.65497 0.0
H1055 H 0.8795 0.19057 0.80615 0.0
H1056 H 0.81854 0.20315 0.78383 0.0
H1057 H 0.83695 0.18018 0.80288 0.0
H1058 H 0.86101 0.19002 0.62918 0.0
H1059 H 0.8431 0.21301 0.61063 0.0
C1060 C 0.87727 0.14542 0.70006 0.0
C1061 C 0.89267 0.15249 0.746 0.0
C1062 C 0.86311 0.15493 0.69159 0.0
C1063 C 0.86368 0.17139 0.72947 0.0
C1064 C 0.87845 0.17778 0.77654 0.0
C1065 C 0.89288 0.1686 0.78444 0.0
C1066 C 0.82744 0.20005 0.74963 0.0
C1067 C 0.82945 0.20999 0.69582 0.0
C1068 C 0.8381 0.18704 0.76056 0.0
C1069 C 0.85047 0.18329 0.71749 0.0
C1070 C 0.85149 0.19238 0.66314 0.0
C1071 C 0.84131 0.2057 0.65263 0.0
H1072 H 0.92694 0.75651 0.64326 0.0
H1073 H 0.89476 0.74323 0.80876 0.0
H1074 H 0.90811 0.71506 0.62594 0.0
H1075 H 0.87647 0.70208 0.79191 0.0
H1076 H 0.86323 0.62891 0.75873 0.0
H1077 H 0.887 0.67029 0.7751 0.0
H1078 H 0.86496 0.68354 0.61446 0.0
H1079 H 0.84094 0.64238 0.59854 0.0
C1080 C 0.91617 0.74479 0.67622 0.0
C1081 C 0.91229 0.75319 0.72727 0.0
C1082 C 0.90532 0.72108 0.66622 0.0
C1083 C 0.89082 0.7053 0.70762 0.0
C1084 C 0.88767 0.71375 0.7594 0.0
C1085 C 0.89807 0.73736 0.76887 0.0
C1086 C 0.86363 0.64066 0.72672 0.0
C1087 C 0.85008 0.63231 0.6775 0.0
C1088 C 0.87717 0.66434 0.73617 0.0
C1089 C 0.87788 0.68018 0.696 0.0
C1090 C 0.86495 0.6718 0.64595 0.0
C1091 C 0.85107 0.6482 0.63707 0.0
H1092 H 0.10154 0.57441 0.09658 0.0
H1093 H 0.08878 0.53839 0.93701 0.0
H1094 H 0.06003 0.55511 0.11465 0.0
H1095 H 0.04744 0.51961 0.95456 0.0
H1096 H 0.97413 0.50865 0.98484 0.0
H1097 H 1.01561 0.53118 0.96696 0.0
H1098 H 1.02854 0.5117 0.1315 0.0
H1099 H 0.9872 0.48879 0.14898 0.0
C1100 C 0.0899 0.56262 0.06508 0.0
C1101 C 0.0985 0.55792 1.01542 0.0
C1102 C 0.06616 0.5515 0.07555 0.0
C1103 C 0.05049 0.53588 1.03596 0.0
C1104 C 0.05907 0.53168 0.98563 0.0
C1105 C 0.08277 0.54237 0.97577 0.0
C1106 C 0.98582 0.5093 1.01735 0.0
C1107 C 0.97732 0.49685 0.06826 0.0
C1108 C 1.00955 0.52213 1.00701 0.0
C1109 C 1.02532 0.52323 0.04787 0.0
C1110 C 1.01684 0.51132 0.0994 0.0
C1111 C 0.99314 0.49811 0.10923 0.0
H1112 H 0.53656 0.57618 0.98543 0.0
H1113 H 0.47333 0.52008 0.05168 0.0
H1114 H 0.55562 0.5541 1.00017 0.0
H1115 H 0.49269 0.49776 0.06616 0.0
H1116 H 0.53491 0.45996 1.02134 0.0
H1117 H 0.51282 0.47959 1.007 0.0
H1118 H 0.56692 0.54015 0.08704 0.0
H1119 H 0.58874 0.52082 0.10167 0.0
C1120 C 0.52664 0.55908 1.00305 0.0
C1121 C 0.50335 0.55 1.0176 0.0
C1122 C 0.53766 0.54644 1.01168 0.0
C1123 C 0.52573 0.52421 1.03457 0.0
C1124 C 0.50231 0.51482 0.0482 0.0
C1125 C 0.49128 0.52766 0.04024 0.0
C1126 C 0.54203 0.47744 1.03594 0.0
C1127 C 0.56369 0.48879 0.0624 0.0
C1128 C 0.52932 0.48862 1.02804 0.0
C1129 C 0.53818 0.51148 0.04559 0.0
C1130 C 0.5597 0.52265 0.07244 0.0
C1131 C 0.57219 0.51147 0.08097 0.0
H1132 H 0.54425 0.08098 0.09669 0.0
H1133 H 0.60583 0.08874 1.01773 0.0
H1134 H 0.52537 0.0399 0.08362 0.0
H1135 H 0.58649 0.04686 1.00472 0.0
H1136 H 0.5447 0.9663 0.05506 0.0
H1137 H 0.56761 1.0082 0.06698 0.0
H1138 H 0.51209 1.01479 0.99642 0.0
H1139 H 0.4895 0.97364 0.98445 0.0
C1140 C 0.55386 0.07397 0.07643 0.0
C1141 C 0.57662 0.08837 0.0579 0.0
C1142 C 0.54292 0.05029 0.06889 0.0
C1143 C 0.55435 0.04007 0.04294 0.0
C1144 C 0.57727 0.05425 1.02512 0.0
C1145 C 0.58826 0.07822 1.03213 0.0
C1146 C 0.53744 0.97674 0.04221 0.0
C1147 C 0.51514 0.96646 1.01922 0.0
C1148 C 0.55062 1.00072 0.04858 0.0
C1149 C 0.54162 1.01481 1.03285 0.0
C1150 C 0.51947 1.00447 1.00949 0.0
C1151 C 0.5065 0.98076 1.00261 0.0
H1152 H 0.1329 0.14254 0.4216 0.0
H1153 H 0.13818 0.19938 0.51805 0.0
H1154 H 0.13755 0.12567 0.50904 0.0
H1155 H 0.14184 0.18219 0.6058 0.0
H1156 H 0.20577 0.17657 0.66837 0.0
H1157 H 0.17949 0.18421 0.61562 0.0
H1158 H 0.12994 0.11169 0.61081 0.0
H1159 H 0.15653 0.10401 0.66417 0.0
C1160 C 0.13421 0.15088 0.46193 0.0
C1161 C 0.13627 0.17252 0.46381 0.0
C1162 C 0.13649 0.14113 0.51197 0.0
C1163 C 0.14058 0.153 0.56377 0.0
C1164 C 0.13914 0.17301 0.56613 0.0
C1165 C 0.13736 0.18293 0.51615 0.0
C1166 C 0.1891 0.16231 0.65702 0.0
C1167 C 0.18334 0.13972 0.66861 0.0
C1168 C 0.17385 0.16667 0.62773 0.0
C1169 C 0.1527 0.14845 0.6091 0.0
C1170 C 0.14617 0.12594 0.62477 0.0
C1171 C 0.1614 0.1216 0.65484 0.0
H1172 H 0.89273 0.03922 0.70486 0.0
H1173 H 0.9624 0.07151 0.64151 0.0
H1174 H 0.8822 1.00663 0.64278 0.0
H1175 H 0.95145 0.03923 0.57675 0.0
H1176 H 0.91142 0.96866 0.47016 0.0
H1177 H 0.92882 0.99234 0.5551 0.0
H1178 H 0.88448 1.02107 0.53593 0.0
H1179 H 0.86724 0.99775 0.45232 0.0
C1180 C 0.90591 0.03893 0.67891 0.0
C1181 C 0.9281 0.05788 0.67611 0.0
C1182 C 0.89997 1.0203 0.64391 0.0
C1183 C 0.91596 1.021 0.60446 0.0
C1184 C 0.93895 0.03854 0.60702 0.0
C1185 C 0.94509 0.05699 0.64341 0.0
C1186 C 0.90574 0.98035 0.4839 0.0
C1187 C 0.88782 0.98128 0.45573 0.0
C1188 C 0.91551 0.99361 0.53238 0.0
C1189 C 0.90724 1.00765 0.55251 0.0
C1190 C 0.89044 1.00962 0.522 0.0
C1191 C 0.88075 0.99649 0.47405 0.0
H1192 H 0.05954 0.9286 0.41058 0.0
H1193 H 0.11262 0.92821 0.51224 0.0
H1194 H 1.03813 0.92608 0.49704 0.0
H1195 H 0.09197 0.92688 0.59888 0.0
H1196 H 1.02371 0.86333 0.66933 0.0
H1197 H 0.05745 0.88934 0.61531 0.0
H1198 H 1.03107 0.93571 0.59561 0.0
H1199 H 0.99693 0.9093 0.65061 0.0
C1200 C 0.06689 0.9288 0.45168 0.0
C1201 C 0.0869 0.92748 0.45568 0.0
C1202 C 0.05495 0.92779 0.50111 0.0
C1203 C 0.06324 0.92574 0.55442 0.0
C1204 C 0.08507 0.92798 0.55814 0.0
C1205 C 0.09666 0.92841 0.50885 0.0
C1206 C 1.02536 0.8793 0.65453 0.0
C1207 C 1.00761 0.88412 0.66231 0.0
C1208 C 0.04487 0.89445 0.62447 0.0
C1209 C 0.04677 0.91452 0.60107 0.0
C1210 C 1.02989 0.92031 0.6132 0.0
C1211 C 1.01041 0.9052 0.64421 0.0
H1212 H 0.87513 0.84356 0.70307 0.0
H1213 H 0.92333 0.84338 0.58214 0.0
H1214 H 0.85882 0.85628 0.6277 0.0
H1215 H 0.90707 0.85589 0.50732 0.0
H1216 H 0.85914 0.85975 0.37088 0.0
H1217 H 0.87366 0.8449 0.4459 0.0
H1218 H 0.86764 0.88931 0.56799 0.0
H1219 H 0.85339 0.90407 0.49385 0.0
C1220 C 0.88229 0.84619 0.66059 0.0
C1221 C 0.90074 0.84242 0.64952 0.0
C1222 C 0.87295 0.8536 0.61706 0.0
C1223 C 0.88145 0.85719 0.56056 0.0
C1224 C 0.8997 0.85314 0.54958 0.0
C1225 C 0.90922 0.84607 0.59309 0.0
C1226 C 0.86085 0.86631 0.41371 0.0
C1227 C 0.85499 0.88325 0.42551 0.0
C1228 C 0.86932 0.85785 0.457 0.0
C1229 C 0.8719 0.86574 0.51386 0.0
C1230 C 0.86573 0.88243 0.52546 0.0
C1231 C 0.85762 0.89107 0.48232 0.0
H1232 H 0.20228 1.01234 0.36952 0.0
H1233 H 0.15505 0.96281 0.49018 0.0
H1234 H 0.21674 0.04169 0.44448 0.0
H1235 H 0.16932 0.9918 0.56416 0.0
H1236 H 0.21481 0.04315 0.70141 0.0
H1237 H 0.20171 1.01455 0.62542 0.0
H1238 H 0.20682 0.06517 0.50497 0.0
H1239 H 0.21988 0.0937 0.58082 0.0
C1240 C 0.19494 1.00762 0.41179 0.0
C1241 C 0.17739 0.98495 0.42304 0.0
C1242 C 0.20318 1.02455 0.45502 0.0
C1243 C 0.1944 1.01935 0.51124 0.0
C1244 C 0.17692 0.99666 0.52217 0.0
C1245 C 0.16856 0.97992 0.47911 0.0
C1246 C 0.2131 0.04824 0.65883 0.0
C1247 C 0.2184 0.07095 0.64803 0.0
C1248 C 0.20547 0.03172 0.61491 0.0
C1249 C 0.20307 0.03728 0.55824 0.0
C1250 C 0.20859 0.06006 0.54746 0.0
C1251 C 0.21597 0.07649 0.59144 0.0
H1252 H 1.02077 0.18804 0.70696 0.0
H1253 H 0.97101 0.14037 0.58827 0.0
H1254 H 0.0495 0.20366 0.63051 0.0
H1255 H 0.99956 0.156 0.51212 0.0
H1256 H 0.05191 0.2037 0.3743 0.0
H1257 H 1.02257 0.18943 0.44992 0.0
H1258 H 0.07282 0.19376 0.57037 0.0
H1259 H 0.10177 0.20772 0.49571 0.0
C1260 C 1.01587 0.18084 0.66472 0.0
C1261 C 0.99336 0.16275 0.65461 0.0
C1262 C 1.03245 0.18979 0.62056 0.0
C1263 C 1.02711 0.18124 0.56432 0.0
C1264 C 1.0045 0.16336 0.55421 0.0
C1265 C 0.98805 0.15422 0.59842 0.0
C1266 C 0.05672 0.20165 0.41689 0.0
C1267 C 0.07946 0.20699 0.42811 0.0
C1268 C 1.03981 0.19333 0.46051 0.0
C1269 C 0.0451 0.1904 0.5171 0.0
C1270 C 0.06789 0.19597 0.52807 0.0
C1271 C 0.0846 0.20393 0.48462 0.0
H1272 H 0.85413 0.52632 0.74341 0.0
H1273 H 0.78185 0.47648 0.75863 0.0
H1274 H 0.86348 0.50196 0.79876 0.0
H1275 H 0.79127 0.45165 0.81448 0.0
H1276 H 0.88135 0.46304 0.9001 0.0
H1277 H 0.8632 0.46604 0.81346 0.0
H1278 H 0.80656 0.46048 0.91345 0.0
H1279 H 0.82432 0.45626 0.99976 0.0
C1280 C 0.84027 0.50988 0.75777 0.0
C1281 C 0.81731 0.50347 0.7485 0.0
C1282 C 0.84561 0.49569 0.78862 0.0
C1283 C 0.82802 0.47494 0.81108 0.0
C1284 C 0.80506 0.46763 0.79772 0.0
C1285 C 0.79972 0.48182 0.76613 0.0
C1286 C 0.86477 0.462 0.90304 0.0
C1287 C 0.85449 0.46048 0.95595 0.0
C1288 C 0.8543 0.46339 0.85368 0.0
C1289 C 0.83384 0.46405 0.85711 0.0
C1290 C 0.82234 0.45996 0.90963 0.0
C1291 C 0.83261 0.45798 0.95902 0.0
H1292 H 0.6134 0.385 0.97691 0.0
H1293 H 0.59951 0.43244 0.8867 0.0
H1294 H 0.61017 0.36489 0.88817 0.0
H1295 H 0.59753 0.41324 0.79724 0.0
H1296 H 0.53788 0.34119 0.73589 0.0
H1297 H 0.56293 0.37646 0.78489 0.0
H1298 H 0.61655 0.35886 0.78786 0.0
H1299 H 0.59101 0.32303 0.73863 0.0
C1300 C 0.61042 0.39148 0.93758 0.0
C1301 C 0.6055 0.40928 0.93808 0.0
C1302 C 0.60901 0.38032 0.88666 0.0
C1303 C 0.60298 0.38722 0.83614 0.0
C1304 C 0.60161 0.40729 0.8359 0.0
C1305 C 0.60241 0.41802 0.88691 0.0
C1306 C 0.55516 0.34505 0.74601 0.0
C1307 C 0.56231 0.32918 0.73564 0.0
C1308 C 0.56974 0.3655 0.7731 0.0
C1309 C 0.59166 0.37027 0.79072 0.0
C1310 C 0.59966 0.35542 0.77508 0.0
C1311 C 0.58503 0.33494 0.74737 0.0
H1312 H 0.68552 0.24344 0.99591 0.0
H1313 H 0.63169 0.18905 0.89802 0.0
H1314 H 0.70586 0.26198 0.90815 0.0
H1315 H 0.65128 0.20803 0.80994 0.0
H1316 H 0.71923 0.21243 0.73781 0.0
H1317 H 0.68544 0.2051 0.79087 0.0
H1318 H 0.71251 0.278 0.80984 0.0
H1319 H 0.74673 0.28531 0.75588 0.0
C1320 C 0.67775 0.236 0.95534 0.0
C1321 C 0.65788 0.21451 0.95274 0.0
C1322 C 0.68909 0.24674 0.90513 0.0
C1323 C 0.68035 0.23604 0.85238 0.0
C1324 C 0.65856 0.2163 0.85017 0.0
C1325 C 0.64758 0.20533 0.90027 0.0
C1326 C 0.7177 0.22688 0.75214 0.0
C1327 C 0.73571 0.24935 0.74472 0.0
C1328 C 0.69815 0.22274 0.78166 0.0
C1329 C 0.69647 0.24105 0.80495 0.0
C1330 C 0.71352 0.26365 0.79252 0.0
C1331 C 0.73305 0.26779 0.76208 0.0
H1332 H 0.60229 0.20506 0.95845 0.0
H1333 H 0.53298 0.1593 1.01505 0.0
H1334 H 0.58786 0.21951 0.8831 0.0
H1335 H 0.51842 0.17327 0.9376 0.0
H1336 H 0.50727 0.18748 0.74045 0.0
H1337 H 0.52036 0.17295 0.81955 0.0
H1338 H 0.56417 0.24204 0.87807 0.0
H1339 H 0.55049 0.25649 0.80067 0.0
C1340 C 0.58392 0.1981 0.95507 0.0
C1341 C 0.56888 0.18105 0.9936 0.0
C1342 C 0.57563 0.20642 0.9116 0.0
C1343 C 0.55192 0.19756 0.90369 0.0
C1344 C 0.53678 0.18046 0.94205 0.0
C1345 C 0.54514 0.17257 0.98685 0.0
C1346 C 0.51975 0.19961 0.77003 0.0
C1347 C 0.52782 0.22325 0.76357 0.0
C1348 C 0.52712 0.19123 0.81579 0.0
C1349 C 0.54331 0.20626 0.85568 0.0
C1350 C 0.55172 0.2299 0.84845 0.0
C1351 C 0.54386 0.23821 0.80382 0.0
H1352 H 0.90284 0.38186 1.0185 0.0
H1353 H 0.86151 0.40865 0.95076 0.0
H1354 H 0.88971 0.35349 0.94094 0.0
H1355 H 0.84795 0.38003 0.87501 0.0
H1356 H 0.80888 0.30674 0.79248 0.0
H1357 H 0.82328 0.3354 0.86816 0.0
H1358 H 0.89272 0.3536 0.8257 0.0
H1359 H 0.87826 0.3252 0.74811 0.0
C1360 C 0.89075 0.38155 0.98768 0.0
C1361 C 0.88321 0.39762 0.99152 0.0
C1362 C 0.88337 0.36539 0.94279 0.0
C1363 C 0.86775 0.36439 0.90123 0.0
C1364 C 0.85989 0.38014 0.906 0.0
C1365 C 0.8677 0.3966 0.94973 0.0
C1366 C 0.82727 0.31696 0.79866 0.0
C1367 C 0.84233 0.3136 0.76343 0.0
C1368 C 0.83555 0.33346 0.84233 0.0
C1369 C 0.85922 0.34687 0.8537 0.0
C1370 C 0.87438 0.34353 0.81868 0.0
C1371 C 0.86609 0.32737 0.77373 0.0
H1372 H 0.6399 0.47688 0.91594 0.0
H1373 H 0.69019 0.52078 1.03908 0.0
H1374 H 0.66882 0.49257 0.84109 0.0
H1375 H 0.7194 0.53659 0.96347 0.0
H1376 H 0.77092 0.5405 0.82542 0.0
H1377 H 0.74204 0.52677 0.90047 0.0
H1378 H 0.69278 0.52607 0.78227 0.0
H1379 H 0.72195 0.54 0.70654 0.0
C1380 C 0.65715 0.48998 0.92735 0.0
C1381 C 0.66245 0.49741 0.9844 0.0
C1382 C 0.67384 0.49916 0.88383 0.0
C1383 C 0.69672 0.51603 0.89533 0.0
C1384 C 0.70211 0.52351 0.95243 0.0
C1385 C 0.68527 0.51449 0.99608 0.0
C1386 C 0.75397 0.5375 0.81499 0.0
C1387 C 0.74902 0.54144 0.75907 0.0
C1388 C 0.73731 0.52972 0.85864 0.0
C1389 C 0.71481 0.52522 0.84834 0.0
C1390 C 0.70976 0.52909 0.79234 0.0
C1391 C 0.72659 0.5372 0.74863 0.0
H1392 H 0.54304 0.79119 0.2311 0.0
H1393 H 0.48828 0.78891 0.33193 0.0
H1394 H 0.52484 0.79417 0.14446 0.0
H1395 H 0.47047 0.793 0.24553 0.0
H1396 H 0.52013 0.85761 0.07608 0.0
H1397 H 0.52769 0.8317 0.13054 0.0
H1398 H 0.45472 0.7843 0.146 0.0
H1399 H 0.44714 0.81059 0.09078 0.0
C1400 C 0.52684 0.79093 0.23426 0.0
C1401 C 0.51732 0.79081 0.28738 0.0
C1402 C 0.51634 0.79234 0.18493 0.0
C1403 C 0.49666 0.79442 0.18862 0.0
C1404 C 0.48566 0.79141 0.24153 0.0
C1405 C 0.49595 0.78946 0.29095 0.0
C1406 C 0.50573 0.84145 0.0901 0.0
C1407 C 0.48311 0.83627 0.08092 0.0
C1408 C 0.51002 0.82639 0.12043 0.0
C1409 C 0.49172 0.80601 0.1426 0.0
C1410 C 0.46905 0.79994 0.12936 0.0
C1411 C 0.46476 0.81498 0.09816 0.0
H1412 H 0.27382 0.71568 0.32406 0.0
H1413 H 0.25982 0.76284 0.23275 0.0
H1414 H 0.27065 0.69538 0.23561 0.0
H1415 H 0.25787 0.74346 0.1437 0.0
H1416 H 0.25474 0.65503 0.08347 0.0
H1417 H 0.27876 0.69045 0.13594 0.0
H1418 H 0.2241 0.70649 0.1281 0.0
H1419 H 0.20057 0.67166 0.07583 0.0
C1420 C 0.27067 0.72196 0.28462 0.0
C1421 C 0.26584 0.73983 0.28475 0.0
C1422 C 0.26932 0.71072 0.2339 0.0
C1423 C 0.26352 0.71764 0.18308 0.0
C1424 C 0.26183 0.73753 0.18259 0.0
C1425 C 0.26259 0.74834 0.23338 0.0
C1426 C 0.24823 0.66653 0.09186 0.0
C1427 C 0.22562 0.66043 0.07777 0.0
C1428 C 0.26198 0.68676 0.12147 0.0
C1429 C 0.2532 0.70101 0.13664 0.0
C1430 C 0.23148 0.69598 0.11676 0.0
C1431 C 0.21777 0.67579 0.08775 0.0
H1432 H 0.34598 0.57329 0.32279 0.0
H1433 H 0.29626 0.51409 0.22938 0.0
H1434 H 0.36701 0.59025 0.23469 0.0
H1435 H 0.31649 0.5314 0.14074 0.0
H1436 H 0.38752 0.5398 0.08093 0.0
H1437 H 0.35268 0.53121 0.13088 0.0
H1438 H 0.37384 0.60327 0.13351 0.0
H1439 H 0.40914 0.6119 0.08312 0.0
C1440 C 0.33919 0.56441 0.28292 0.0
C1441 C 0.3204 0.54215 0.28219 0.0
C1442 C 0.35091 0.5742 0.23242 0.0
C1443 C 0.34361 0.56176 0.18127 0.0
C1444 C 0.32267 0.54103 0.17991 0.0
C1445 C 0.31133 0.53105 0.23041 0.0
C1446 C 0.38454 0.55375 0.09121 0.0
C1447 C 0.40119 0.57651 0.08011 0.0
C1448 C 0.36436 0.54884 0.11884 0.0
C1449 C 0.36066 0.56667 0.13631 0.0
C1450 C 0.37642 0.5893 0.12061 0.0
C1451 C 0.39659 0.5942 0.09227 0.0
H1452 H 0.25331 0.50738 0.2575 0.0
H1453 H 0.2078 0.51196 0.37953 0.0
H1454 H 0.23893 0.52192 0.18335 0.0
H1455 H 0.19327 0.52676 0.30431 0.0
H1456 H 0.19169 0.5762 0.16656 0.0
H1457 H 0.20428 0.56032 0.24245 0.0
H1458 H 0.20601 0.51255 0.12351 0.0
H1459 H 0.19329 0.52843 0.04739 0.0
C1460 C 0.24012 0.5114 0.26882 0.0
C1461 C 0.23182 0.50833 0.32534 0.0
C1462 C 0.23171 0.51969 0.22566 0.0
C1463 C 0.21475 0.52557 0.23693 0.0
C1464 C 0.20642 0.52262 0.29353 0.0
C1465 C 0.21469 0.51399 0.33689 0.0
C1466 C 0.19475 0.56231 0.15624 0.0
C1467 C 0.19148 0.55381 0.10003 0.0
C1468 C 0.20184 0.55302 0.20028 0.0
C1469 C 0.20626 0.535 0.18993 0.0
C1470 C 0.20306 0.52653 0.13363 0.0
C1471 C 0.19568 0.53564 0.08965 0.0
H1472 H 0.54871 0.70597 0.38038 0.0
H1473 H 0.55027 0.75446 0.2581 0.0
H1474 H 0.53402 0.67623 0.30623 0.0
H1475 H 0.53583 0.72514 0.18505 0.0
H1476 H 0.53064 0.6737 0.04939 0.0
H1477 H 0.54612 0.70252 0.12486 0.0
H1478 H 0.50027 0.65222 0.24605 0.0
H1479 H 0.48478 0.62346 0.17069 0.0
C1480 C 0.54599 0.71038 0.33794 0.0
C1481 C 0.55083 0.73287 0.32597 0.0
C1482 C 0.53743 0.69324 0.2952 0.0
C1483 C 0.53373 0.69807 0.23882 0.0
C1484 C 0.53868 0.72058 0.22719 0.0
C1485 C 0.54691 0.73751 0.26973 0.0
C1486 C 0.52377 0.66872 0.09202 0.0
C1487 C 0.50625 0.64605 0.10317 0.0
C1488 C 0.53265 0.68536 0.13563 0.0
C1489 C 0.52457 0.67996 0.19232 0.0
C1490 C 0.50723 0.65721 0.20351 0.0
C1491 C 0.49817 0.64065 0.15981 0.0
H1492 H 0.35696 0.85229 0.37614 0.0
H1493 H 0.30656 0.80822 0.25345 0.0
H1494 H 0.38617 0.86783 0.30077 0.0
H1495 H 0.33559 0.82368 0.17854 0.0
H1496 H 0.3887 0.87175 0.04435 0.0
H1497 H 0.35943 0.85707 0.1197 0.0
H1498 H 0.40908 0.85859 0.23794 0.0
H1499 H 0.43813 0.87315 0.16312 0.0
C1500 C 0.35203 0.84584 0.33326 0.0
C1501 C 0.32916 0.82885 0.32164 0.0
C1502 C 0.36889 0.85473 0.28972 0.0
C1503 C 0.36351 0.8472 0.23271 0.0
C1504 C 0.3406 0.8303 0.22124 0.0
C1505 C 0.32385 0.82126 0.26473 0.0
C1506 C 0.39341 0.86895 0.08636 0.0
C1507 C 0.41603 0.87374 0.09689 0.0
C1508 C 0.37651 0.86039 0.12985 0.0
C1509 C 0.38162 0.85655 0.18577 0.0
C1510 C 0.40429 0.86149 0.19615 0.0
C1511 C 0.42105 0.86977 0.15267 0.0
loop_
_geom_bond_atom_site_label_1
_geom_bond_atom_site_label_2
_geom_bond_distance
_geom_bond_site_symmetry_2
_ccdc_geom_bond_type
Co0 O3 1.970 . S
Co0 N17 1.989 . S
Co0 O25 1.967 . S
Co0 O32 1.920 . S
Co1 O4 1.966 . S
Co1 N10 2.022 . S
Co1 N18 1.993 . S
Co1 O26 1.941 . S
C2 O3 1.258 . S
C2 O4 1.263 . S
O3 Co0 1.970 . S
O3 C2 1.258 . S
O4 Co1 1.966 . S
O4 C2 1.263 . S
C5 O6 1.235 . S
C5 O32 1.289 . S
O6 C5 1.235 . S
C7 C9 1.400 . S
C7 N10 1.351 . S
C7 C12 1.501 . S
C8 C9 1.387 . S
C8 N11 1.341 . S
C9 C7 1.400 . S
C9 C8 1.387 . S
N10 Co1 2.022 . S
N10 C7 1.351 . S
N10 N11 1.365 . S
N11 C8 1.341 . S
N11 N10 1.365 . S
N11 H31 0.862 . S
C12 C7 1.501 . S
C12 H13 0.961 . S
C12 H14 0.961 . S
C12 H15 0.960 . S
H13 C12 0.961 . S
H14 C12 0.961 . S
H15 C12 0.960 . S
C16 N17 1.342 . S
C16 C20 1.401 . S
C16 C21 1.499 . S
N17 Co0 1.989 . S
N17 C16 1.342 . S
N17 N18 1.388 . S
N18 Co1 1.993 . S
N18 N17 1.388 . S
N18 C19 1.346 . S
C19 N18 1.346 . S
C19 C20 1.396 . S
C19 C29 1.510 . S
C20 C16 1.401 . S
C20 C19 1.396 . S
C21 C16 1.499 . S
C21 H22 0.959 . S
C21 H23 0.960 . S
C21 H24 0.961 . S
H22 C21 0.959 . S
H23 C21 0.960 . S
H24 C21 0.961 . S
O25 Co0 1.967 . S
O25 C33 1.258 . S
O26 Co1 1.941 . S
O26 C33 1.266 . S
H27 C29 0.959 . S
H28 C29 0.961 . S
C29 C19 1.510 . S
C29 H27 0.959 . S
C29 H28 0.961 . S
C29 H30 0.960 . S
H30 C29 0.960 . S
H31 N11 0.862 . S
O32 Co0 1.920 . S
O32 C5 1.289 . S
C33 O25 1.258 . S
C33 O26 1.266 . S
Co34 O37 1.970 . S
Co34 N51 1.989 . S
Co34 O59 1.967 . S
Co34 O66 1.920 . S
Co35 O38 1.966 . S
Co35 N44 2.022 . S
Co35 N52 1.993 . S
Co35 O60 1.941 . S
C36 O37 1.258 . S
C36 O38 1.263 . S
O37 Co34 1.970 . S
O37 C36 1.258 . S
O38 Co35 1.966 . S
O38 C36 1.263 . S
C39 O40 1.235 . S
C39 O66 1.289 . S
O40 C39 1.235 . S
C41 C43 1.400 . S
C41 N44 1.351 . S
C41 C46 1.501 . S
C42 C43 1.387 . S
C42 N45 1.341 . S
C43 C41 1.400 . S
C43 C42 1.387 . S
N44 Co35 2.022 . S
N44 C41 1.351 . S
N44 N45 1.365 . S
N45 C42 1.341 . S
N45 N44 1.365 . S
N45 H65 0.862 . S
C46 C41 1.501 . S
C46 H47 0.961 . S
C46 H48 0.961 . S
C46 H49 0.960 . S
H47 C46 0.961 . S
H48 C46 0.961 . S
H49 C46 0.960 . S
C50 N51 1.342 . S
C50 C54 1.401 . S
C50 C55 1.499 . S
N51 Co34 1.989 . S
N51 C50 1.342 . S
N51 N52 1.388 . S
N52 Co35 1.993 . S
N52 N51 1.388 . S
N52 C53 1.346 . S
C53 N52 1.346 . S
C53 C54 1.396 . S
C53 C63 1.510 . S
C54 C50 1.401 . S
C54 C53 1.396 . S
C55 C50 1.499 . S
C55 H56 0.959 . S
C55 H57 0.960 . S
C55 H58 0.961 . S
H56 C55 0.959 . S
H57 C55 0.960 . S
H58 C55 0.961 . S
O59 Co34 1.967 . S
O59 C67 1.258 . S
O60 Co35 1.941 . S
O60 C67 1.266 . S
H61 C63 0.959 . S
H62 C63 0.961 . S
C63 C53 1.510 . S
C63 H61 0.959 . S
C63 H62 0.961 . S
C63 H64 0.960 . S
H64 C63 0.960 . S
H65 N45 0.862 . S
O66 Co34 1.920 . S
O66 C39 1.289 . S
C67 O59 1.258 . S
C67 O60 1.266 . S
Co68 O71 1.970 . S
Co68 N85 1.989 . S
Co68 O93 1.967 . S
Co68 O100 1.920 . S
Co69 O72 1.966 . S
Co69 N78 2.022 . S
Co69 N86 1.993 . S
Co69 O94 1.941 . S
C70 O71 1.258 . S
C70 O72 1.263 . S
O71 Co68 1.970 . S
O71 C70 1.258 . S
O72 Co69 1.966 . S
O72 C70 1.263 . S
C73 O74 1.235 . S
C73 O100 1.289 . S
O74 C73 1.235 . S
C75 C77 1.400 . S
C75 N78 1.351 . S
C75 C80 1.501 . S
C76 C77 1.387 . S
C76 N79 1.341 . S
C77 C75 1.400 . S
C77 C76 1.387 . S
N78 Co69 2.022 . S
N78 C75 1.351 . S
N78 N79 1.365 . S
N79 C76 1.341 . S
N79 N78 1.365 . S
N79 H99 0.862 . S
C80 C75 1.501 . S
C80 H81 0.961 . S
C80 H82 0.961 . S
C80 H83 0.960 . S
H81 C80 0.961 . S
H82 C80 0.961 . S
H83 C80 0.960 . S
C84 N85 1.342 . S
C84 C88 1.401 . S
C84 C89 1.499 . S
N85 Co68 1.989 . S
N85 C84 1.342 . S
N85 N86 1.388 . S
N86 Co69 1.993 . S
N86 N85 1.388 . S
N86 C87 1.346 . S
C87 N86 1.346 . S
C87 C88 1.396 . S
C87 C97 1.510 . S
C88 C84 1.401 . S
C88 C87 1.396 . S
C89 C84 1.499 . S
C89 H90 0.959 . S
C89 H91 0.960 . S
C89 H92 0.961 . S
H90 C89 0.959 . S
H91 C89 0.960 . S
H92 C89 0.961 . S
O93 Co68 1.967 . S
O93 C101 1.258 . S
O94 Co69 1.941 . S
O94 C101 1.266 . S
H95 C97 0.959 . S
H96 C97 0.961 . S
C97 C87 1.510 . S
C97 H95 0.959 . S
C97 H96 0.961 . S
C97 H98 0.960 . S
H98 C97 0.960 . S
H99 N79 0.862 . S
O100 Co68 1.920 . S
O100 C73 1.289 . S
C101 O93 1.258 . S
C101 O94 1.266 . S
Co102 O105 1.970 . S
Co102 N119 1.989 . S
Co102 O127 1.967 . S
Co102 O134 1.920 . S
Co103 O106 1.966 . S
Co103 N112 2.022 . S
Co103 N120 1.993 . S
Co103 O128 1.941 . S
C104 O105 1.258 . S
C104 O106 1.263 . S
O105 Co102 1.970 . S
O105 C104 1.258 . S
O106 Co103 1.966 . S
O106 C104 1.263 . S
C107 O108 1.235 . S
C107 O134 1.289 . S
O108 C107 1.235 . S
C109 C111 1.400 . S
C109 N112 1.351 . S
C109 C114 1.501 . S
C110 C111 1.387 . S
C110 N113 1.341 . S
C111 C109 1.400 . S
C111 C110 1.387 . S
N112 Co103 2.022 . S
N112 C109 1.351 . S
N112 N113 1.365 . S
N113 C110 1.341 . S
N113 N112 1.365 . S
N113 H133 0.862 . S
C114 C109 1.501 . S
C114 H115 0.961 . S
C114 H116 0.961 . S
C114 H117 0.960 . S
H115 C114 0.961 . S
H116 C114 0.961 . S
H117 C114 0.960 . S
C118 N119 1.342 . S
C118 C122 1.401 . S
C118 C123 1.499 . S
N119 Co102 1.989 . S
N119 C118 1.342 . S
N119 N120 1.388 . S
N120 Co103 1.993 . S
N120 N119 1.388 . S
N120 C121 1.346 . S
C121 N120 1.346 . S
C121 C122 1.396 . S
C121 C131 1.510 . S
C122 C118 1.401 . S
C122 C121 1.396 . S
C123 C118 1.499 . S
C123 H124 0.959 . S
C123 H125 0.960 . S
C123 H126 0.961 . S
H124 C123 0.959 . S
H125 C123 0.960 . S
H126 C123 0.961 . S
O127 Co102 1.967 . S
O127 C135 1.258 . S
O128 Co103 1.941 . S
O128 C135 1.266 . S
H129 C131 0.959 . S
H130 C131 0.961 . S
C131 C121 1.510 . S
C131 H129 0.959 . S
C131 H130 0.961 . S
C131 H132 0.960 . S
H132 C131 0.960 . S
H133 N113 0.862 . S
O134 Co102 1.920 . S
O134 C107 1.289 . S
C135 O127 1.258 . S
C135 O128 1.266 . S
Co136 O139 1.970 . S
Co136 N153 1.989 . S
Co136 O161 1.967 . S
Co136 O168 1.920 . S
Co137 O140 1.966 . S
Co137 N146 2.022 . S
Co137 N154 1.993 . S
Co137 O162 1.941 . S
C138 O139 1.258 . S
C138 O140 1.263 . S
O139 Co136 1.970 . S
O139 C138 1.258 . S
O140 Co137 1.966 . S
O140 C138 1.263 . S
C141 O142 1.235 . S
C141 O168 1.289 . S
O142 C141 1.235 . S
C143 C145 1.400 . S
C143 N146 1.351 . S
C143 C148 1.501 . S
C144 C145 1.387 . S
C144 N147 1.341 . S
C145 C143 1.400 . S
C145 C144 1.387 . S
N146 Co137 2.022 . S
N146 C143 1.351 . S
N146 N147 1.365 . S
N147 C144 1.341 . S
N147 N146 1.365 . S
N147 H167 0.862 . S
C148 C143 1.501 . S
C148 H149 0.961 . S
C148 H150 0.961 . S
C148 H151 0.960 . S
H149 C148 0.961 . S
H150 C148 0.961 . S
H151 C148 0.960 . S
C152 N153 1.342 . S
C152 C156 1.401 . S
C152 C157 1.499 . S
N153 Co136 1.989 . S
N153 C152 1.342 . S
N153 N154 1.388 . S
N154 Co137 1.993 . S
N154 N153 1.388 . S
N154 C155 1.346 . S
C155 N154 1.346 . S
C155 C156 1.396 . S
C155 C165 1.510 . S
C156 C152 1.401 . S
C156 C155 1.396 . S
C157 C152 1.499 . S
C157 H158 0.959 . S
C157 H159 0.960 . S
C157 H160 0.961 . S
H158 C157 0.959 . S
H159 C157 0.960 . S
H160 C157 0.961 . S
O161 Co136 1.967 . S
O161 C169 1.258 . S
O162 Co137 1.941 . S
O162 C169 1.266 . S
H163 C165 0.959 . S
H164 C165 0.961 . S
C165 C155 1.510 . S
C165 H163 0.959 . S
C165 H164 0.961 . S
C165 H166 0.960 . S
H166 C165 0.960 . S
H167 N147 0.862 . S
O168 Co136 1.920 . S
O168 C141 1.289 . S
C169 O161 1.258 . S
C169 O162 1.266 . S
Co170 O173 1.970 . S
Co170 N187 1.989 . S
Co170 O195 1.967 . S
Co170 O202 1.920 . S
Co171 O174 1.966 . S
Co171 N180 2.022 . S
Co171 N188 1.993 . S
Co171 O196 1.941 . S
C172 O173 1.258 . S
C172 O174 1.263 . S
O173 Co170 1.970 . S
O173 C172 1.258 . S
O174 Co171 1.966 . S
O174 C172 1.263 . S
C175 O176 1.235 . S
C175 O202 1.289 . S
O176 C175 1.235 . S
C177 C179 1.400 . S
C177 N180 1.351 . S
C177 C182 1.501 . S
C178 C179 1.387 . S
C178 N181 1.341 . S
C179 C177 1.400 . S
C179 C178 1.387 . S
N180 Co171 2.022 . S
N180 C177 1.351 . S
N180 N181 1.365 . S
N181 C178 1.341 . S
N181 N180 1.365 . S
N181 H201 0.862 . S
C182 C177 1.501 . S
C182 H183 0.961 . S
C182 H184 0.961 . S
C182 H185 0.960 . S
H183 C182 0.961 . S
H184 C182 0.961 . S
H185 C182 0.960 . S
C186 N187 1.342 . S
C186 C190 1.401 . S
C186 C191 1.499 . S
N187 Co170 1.989 . S
N187 C186 1.342 . S
N187 N188 1.388 . S
N188 Co171 1.993 . S
N188 N187 1.388 . S
N188 C189 1.346 . S
C189 N188 1.346 . S
C189 C190 1.396 . S
C189 C199 1.510 . S
C190 C186 1.401 . S
C190 C189 1.396 . S
C191 C186 1.499 . S
C191 H192 0.959 . S
C191 H193 0.960 . S
C191 H194 0.961 . S
H192 C191 0.959 . S
H193 C191 0.960 . S
H194 C191 0.961 . S
O195 Co170 1.967 . S
O195 C203 1.258 . S
O196 Co171 1.941 . S
O196 C203 1.266 . S
H197 C199 0.959 . S
H198 C199 0.961 . S
C199 C189 1.510 . S
C199 H197 0.959 . S
C199 H198 0.961 . S
C199 H200 0.960 . S
H200 C199 0.960 . S
H201 N181 0.862 . S
O202 Co170 1.920 . S
O202 C175 1.289 . S
C203 O195 1.258 . S
C203 O196 1.266 . S
Co204 O207 1.970 . S
Co204 N221 1.989 . S
Co204 O229 1.967 . S
Co204 O236 1.920 . S
Co205 O208 1.966 . S
Co205 N214 2.022 . S
Co205 N222 1.993 . S
Co205 O230 1.941 . S
C206 O207 1.258 . S
C206 O208 1.263 . S
O207 Co204 1.970 . S
O207 C206 1.258 . S
O208 Co205 1.966 . S
O208 C206 1.263 . S
C209 O210 1.235 . S
C209 O236 1.289 . S
O210 C209 1.235 . S
C211 C213 1.400 . S
C211 N214 1.351 . S
C211 C216 1.501 . S
C212 C213 1.387 . S
C212 N215 1.341 . S
C213 C211 1.400 . S
C213 C212 1.387 . S
N214 Co205 2.022 . S
N214 C211 1.351 . S
N214 N215 1.365 . S
N215 C212 1.341 . S
N215 N214 1.365 . S
N215 H235 0.862 . S
C216 C211 1.501 . S
C216 H217 0.961 . S
C216 H218 0.961 . S
C216 H219 0.960 . S
H217 C216 0.961 . S
H218 C216 0.961 . S
H219 C216 0.960 . S
C220 N221 1.342 . S
C220 C224 1.401 . S
C220 C225 1.499 . S
N221 Co204 1.989 . S
N221 C220 1.342 . S
N221 N222 1.388 . S
N222 Co205 1.993 . S
N222 N221 1.388 . S
N222 C223 1.346 . S
C223 N222 1.346 . S
C223 C224 1.396 . S
C223 C233 1.510 . S
C224 C220 1.401 . S
C224 C223 1.396 . S
C225 C220 1.499 . S
C225 H226 0.959 . S
C225 H227 0.960 . S
C225 H228 0.961 . S
H226 C225 0.959 . S
H227 C225 0.960 . S
H228 C225 0.961 . S
O229 Co204 1.967 . S
O229 C237 1.258 . S
O230 Co205 1.941 . S
O230 C237 1.266 . S
H231 C233 0.959 . S
H232 C233 0.961 . S
C233 C223 1.510 . S
C233 H231 0.959 . S
C233 H232 0.961 . S
C233 H234 0.960 . S
H234 C233 0.960 . S
H235 N215 0.862 . S
O236 Co204 1.920 . S
O236 C209 1.289 . S
C237 O229 1.258 . S
C237 O230 1.266 . S
Co238 O241 1.970 . S
Co238 N255 1.989 . S
Co238 O263 1.967 . S
Co238 O270 1.920 . S
Co239 O242 1.966 . S
Co239 N248 2.022 . S
Co239 N256 1.993 . S
Co239 O264 1.941 . S
C240 O241 1.258 . S
C240 O242 1.263 . S
O241 Co238 1.970 . S
O241 C240 1.258 . S
O242 Co239 1.966 . S
O242 C240 1.263 . S
C243 O244 1.235 . S
C243 O270 1.289 . S
O244 C243 1.235 . S
C245 C247 1.400 . S
C245 N248 1.351 . S
C245 C250 1.501 . S
C246 C247 1.387 . S
C246 N249 1.341 . S
C247 C245 1.400 . S
C247 C246 1.387 . S
N248 Co239 2.022 . S
N248 C245 1.351 . S
N248 N249 1.365 . S
N249 C246 1.341 . S
N249 N248 1.365 . S
N249 H269 0.862 . S
C250 C245 1.501 . S
C250 H251 0.961 . S
C250 H252 0.961 . S
C250 H253 0.960 . S
H251 C250 0.961 . S
H252 C250 0.961 . S
H253 C250 0.960 . S
C254 N255 1.342 . S
C254 C258 1.401 . S
C254 C259 1.499 . S
N255 Co238 1.989 . S
N255 C254 1.342 . S
N255 N256 1.388 . S
N256 Co239 1.993 . S
N256 N255 1.388 . S
N256 C257 1.346 . S
C257 N256 1.346 . S
C257 C258 1.396 . S
C257 C267 1.510 . S
C258 C254 1.401 . S
C258 C257 1.396 . S
C259 C254 1.499 . S
C259 H260 0.959 . S
C259 H261 0.960 . S
C259 H262 0.961 . S
H260 C259 0.959 . S
H261 C259 0.960 . S
H262 C259 0.961 . S
O263 Co238 1.967 . S
O263 C271 1.258 . S
O264 Co239 1.941 . S
O264 C271 1.266 . S
H265 C267 0.959 . S
H266 C267 0.961 . S
C267 C257 1.510 . S
C267 H265 0.959 . S
C267 H266 0.961 . S
C267 H268 0.960 . S
H268 C267 0.960 . S
H269 N249 0.862 . S
O270 Co238 1.920 . S
O270 C243 1.289 . S
C271 O263 1.258 . S
C271 O264 1.266 . S
Co272 O275 1.970 . S
Co272 N289 1.989 . S
Co272 O297 1.967 . S
Co272 O304 1.920 . S
Co273 O276 1.966 . S
Co273 N282 2.022 . S
Co273 N290 1.993 . S
Co273 O298 1.941 . S
C274 O275 1.258 . S
C274 O276 1.263 . S
O275 Co272 1.970 . S
O275 C274 1.258 . S
O276 Co273 1.966 . S
O276 C274 1.263 . S
C277 O278 1.235 . S
C277 O304 1.289 . S
O278 C277 1.235 . S
C279 C281 1.400 . S
C279 N282 1.351 . S
C279 C284 1.501 . S
C280 C281 1.387 . S
C280 N283 1.341 . S
C281 C279 1.400 . S
C281 C280 1.387 . S
N282 Co273 2.022 . S
N282 C279 1.351 . S
N282 N283 1.365 . S
N283 C280 1.341 . S
N283 N282 1.365 . S
N283 H303 0.862 . S
C284 C279 1.501 . S
C284 H285 0.961 . S
C284 H286 0.961 . S
C284 H287 0.960 . S
H285 C284 0.961 . S
H286 C284 0.961 . S
H287 C284 0.960 . S
C288 N289 1.342 . S
C288 C292 1.401 . S
C288 C293 1.499 . S
N289 Co272 1.989 . S
N289 C288 1.342 . S
N289 N290 1.388 . S
N290 Co273 1.993 . S
N290 N289 1.388 . S
N290 C291 1.346 . S
C291 N290 1.346 . S
C291 C292 1.396 . S
C291 C301 1.510 . S
C292 C288 1.401 . S
C292 C291 1.396 . S
C293 C288 1.499 . S
C293 H294 0.959 . S
C293 H295 0.960 . S
C293 H296 0.961 . S
H294 C293 0.959 . S
H295 C293 0.960 . S
H296 C293 0.961 . S
O297 Co272 1.967 . S
O297 C305 1.258 . S
O298 Co273 1.941 . S
O298 C305 1.266 . S
H299 C301 0.959 . S
H300 C301 0.961 . S
C301 C291 1.510 . S
C301 H299 0.959 . S
C301 H300 0.961 . S
C301 H302 0.960 . S
H302 C301 0.960 . S
H303 N283 0.862 . S
O304 Co272 1.920 . S
O304 C277 1.289 . S
C305 O297 1.258 . S
C305 O298 1.266 . S
Co306 O309 1.970 1_554 S
Co306 N323 1.989 . S
Co306 O331 1.967 . S
Co306 O338 1.920 1_554 S
Co307 O310 1.966 . S
Co307 N316 2.022 . S
Co307 N324 1.993 . S
Co307 O332 1.941 . S
C308 O309 1.258 1_554 S
C308 O310 1.263 . S
O309 Co306 1.970 1_556 S
O309 C308 1.258 1_556 S
O310 Co307 1.966 . S
O310 C308 1.263 . S
C311 O312 1.235 . S
C311 O338 1.289 . S
O312 C311 1.235 . S
C313 C315 1.400 . S
C313 N316 1.351 . S
C313 C318 1.501 . S
C314 C315 1.387 . S
C314 N317 1.341 . S
C315 C313 1.400 . S
C315 C314 1.387 . S
N316 Co307 2.022 . S
N316 C313 1.351 . S
N316 N317 1.365 . S
N317 C314 1.341 . S
N317 N316 1.365 . S
N317 H337 0.862 . S
C318 C313 1.501 . S
C318 H319 0.961 . S
C318 H320 0.961 . S
C318 H321 0.960 . S
H319 C318 0.961 . S
H320 C318 0.961 . S
H321 C318 0.960 . S
C322 N323 1.342 . S
C322 C326 1.401 . S
C322 C327 1.499 . S
N323 Co306 1.989 . S
N323 C322 1.342 . S
N323 N324 1.388 . S
N324 Co307 1.993 . S
N324 N323 1.388 . S
N324 C325 1.346 . S
C325 N324 1.346 . S
C325 C326 1.396 . S
C325 C335 1.510 . S
C326 C322 1.401 . S
C326 C325 1.396 . S
C327 C322 1.499 . S
C327 H328 0.959 . S
C327 H329 0.960 . S
C327 H330 0.961 . S
H328 C327 0.959 . S
H329 C327 0.960 . S
H330 C327 0.961 . S
O331 Co306 1.967 . S
O331 C339 1.258 . S
O332 Co307 1.941 . S
O332 C339 1.266 . S
H333 C335 0.959 . S
H334 C335 0.961 . S
C335 C325 1.510 . S
C335 H333 0.959 . S
C335 H334 0.961 . S
C335 H336 0.960 . S
H336 C335 0.960 . S
H337 N317 0.862 . S
O338 Co306 1.920 1_556 S
O338 C311 1.289 . S
C339 O331 1.258 . S
C339 O332 1.266 . S
Co340 O343 1.970 1_554 S
Co340 N357 1.989 . S
Co340 O365 1.967 . S
Co340 O372 1.920 1_554 S
Co341 O344 1.966 . S
Co341 N350 2.022 . S
Co341 N358 1.993 . S
Co341 O366 1.941 . S
C342 O343 1.258 1_554 S
C342 O344 1.263 . S
O343 Co340 1.970 1_556 S
O343 C342 1.258 1_556 S
O344 Co341 1.966 . S
O344 C342 1.263 . S
C345 O346 1.235 . S
C345 O372 1.289 . S
O346 C345 1.235 . S
C347 C349 1.400 . S
C347 N350 1.351 . S
C347 C352 1.501 . S
C348 C349 1.387 . S
C348 N351 1.341 . S
C349 C347 1.400 . S
C349 C348 1.387 . S
N350 Co341 2.022 . S
N350 C347 1.351 . S
N350 N351 1.365 . S
N351 C348 1.341 . S
N351 N350 1.365 . S
N351 H371 0.862 . S
C352 C347 1.501 . S
C352 H353 0.961 . S
C352 H354 0.961 . S
C352 H355 0.960 . S
H353 C352 0.961 . S
H354 C352 0.961 . S
H355 C352 0.960 . S
C356 N357 1.342 . S
C356 C360 1.401 . S
C356 C361 1.499 . S
N357 Co340 1.989 . S
N357 C356 1.342 . S
N357 N358 1.388 . S
N358 Co341 1.993 . S
N358 N357 1.388 . S
N358 C359 1.346 . S
C359 N358 1.346 . S
C359 C360 1.396 . S
C359 C369 1.510 . S
C360 C356 1.401 . S
C360 C359 1.396 . S
C361 C356 1.499 . S
C361 H362 0.959 . S
C361 H363 0.960 . S
C361 H364 0.961 . S
H362 C361 0.959 . S
H363 C361 0.960 . S
H364 C361 0.961 . S
O365 Co340 1.967 . S
O365 C373 1.258 . S
O366 Co341 1.941 . S
O366 C373 1.266 . S
H367 C369 0.959 . S
H368 C369 0.961 . S
C369 C359 1.510 . S
C369 H367 0.959 . S
C369 H368 0.961 . S
C369 H370 0.960 . S
H370 C369 0.960 . S
H371 N351 0.862 . S
O372 Co340 1.920 1_556 S
O372 C345 1.289 . S
C373 O365 1.258 . S
C373 O366 1.266 . S
Co374 O377 1.970 1_554 S
Co374 N391 1.989 . S
Co374 O399 1.967 . S
Co374 O406 1.920 1_554 S
Co375 O378 1.966 . S
Co375 N384 2.022 . S
Co375 N392 1.993 . S
Co375 O400 1.941 . S
C376 O377 1.258 1_554 S
C376 O378 1.263 . S
O377 Co374 1.970 1_556 S
O377 C376 1.258 1_556 S
O378 Co375 1.966 . S
O378 C376 1.263 . S
C379 O380 1.235 . S
C379 O406 1.289 . S
O380 C379 1.235 . S
C381 C383 1.400 . S
C381 N384 1.351 . S
C381 C386 1.501 . S
C382 C383 1.387 . S
C382 N385 1.341 . S
C383 C381 1.400 . S
C383 C382 1.387 . S
N384 Co375 2.022 . S
N384 C381 1.351 . S
N384 N385 1.365 . S
N385 C382 1.341 . S
N385 N384 1.365 . S
N385 H405 0.862 . S
C386 C381 1.501 . S
C386 H387 0.961 . S
C386 H388 0.961 . S
C386 H389 0.960 . S
H387 C386 0.961 . S
H388 C386 0.961 . S
H389 C386 0.960 . S
C390 N391 1.342 . S
C390 C394 1.401 . S
C390 C395 1.499 . S
N391 Co374 1.989 . S
N391 C390 1.342 . S
N391 N392 1.388 . S
N392 Co375 1.993 . S
N392 N391 1.388 . S
N392 C393 1.346 . S
C393 N392 1.346 . S
C393 C394 1.396 . S
C393 C403 1.510 . S
C394 C390 1.401 . S
C394 C393 1.396 . S
C395 C390 1.499 . S
C395 H396 0.959 . S
C395 H397 0.960 . S
C395 H398 0.961 . S
H396 C395 0.959 . S
H397 C395 0.960 . S
H398 C395 0.961 . S
O399 Co374 1.967 . S
O399 C407 1.258 . S
O400 Co375 1.941 . S
O400 C407 1.266 . S
H401 C403 0.959 . S
H402 C403 0.961 . S
C403 C393 1.510 . S
C403 H401 0.959 . S
C403 H402 0.961 . S
C403 H404 0.960 . S
H404 C403 0.960 . S
H405 N385 0.862 . S
O406 Co374 1.920 1_556 S
O406 C379 1.289 . S
C407 O399 1.258 . S
C407 O400 1.266 . S
Co408 O411 1.970 1_556 S
Co408 N425 1.989 . S
Co408 O433 1.967 . S
Co408 O440 1.920 1_556 S
Co409 O412 1.966 . S
Co409 N418 2.022 . S
Co409 N426 1.993 . S
Co409 O434 1.941 . S
C410 O411 1.258 1_556 S
C410 O412 1.263 . S
O411 Co408 1.970 1_554 S
O411 C410 1.258 1_554 S
O412 Co409 1.966 . S
O412 C410 1.263 . S
C413 O414 1.235 . S
C413 O440 1.289 . S
O414 C413 1.235 . S
C415 C417 1.400 . S
C415 N418 1.351 . S
C415 C420 1.501 . S
C416 C417 1.387 . S
C416 N419 1.341 . S
C417 C415 1.400 . S
C417 C416 1.387 . S
N418 Co409 2.022 . S
N418 C415 1.351 . S
N418 N419 1.365 . S
N419 C416 1.341 . S
N419 N418 1.365 . S
N419 H439 0.862 . S
C420 C415 1.501 . S
C420 H421 0.961 . S
C420 H422 0.961 . S
C420 H423 0.960 . S
H421 C420 0.961 . S
H422 C420 0.961 . S
H423 C420 0.960 . S
C424 N425 1.342 . S
C424 C428 1.401 . S
C424 C429 1.499 . S
N425 Co408 1.989 . S
N425 C424 1.342 . S
N425 N426 1.388 . S
N426 Co409 1.993 . S
N426 N425 1.388 . S
N426 C427 1.346 . S
C427 N426 1.346 . S
C427 C428 1.396 . S
C427 C437 1.510 . S
C428 C424 1.401 . S
C428 C427 1.396 . S
C429 C424 1.499 . S
C429 H430 0.959 . S
C429 H431 0.960 . S
C429 H432 0.961 . S
H430 C429 0.959 . S
H431 C429 0.960 . S
H432 C429 0.961 . S
O433 Co408 1.967 . S
O433 C441 1.258 . S
O434 Co409 1.941 . S
O434 C441 1.266 . S
H435 C437 0.959 . S
H436 C437 0.961 . S
C437 C427 1.510 . S
C437 H435 0.959 . S
C437 H436 0.961 . S
C437 H438 0.960 . S
H438 C437 0.960 . S
H439 N419 0.862 . S
O440 Co408 1.920 1_554 S
O440 C413 1.289 . S
C441 O433 1.258 . S
C441 O434 1.266 . S
Co442 O445 1.970 1_556 S
Co442 N459 1.989 . S
Co442 O467 1.967 . S
Co442 O474 1.920 1_556 S
Co443 O446 1.966 . S
Co443 N452 2.022 . S
Co443 N460 1.993 . S
Co443 O468 1.941 . S
C444 O445 1.258 1_556 S
C444 O446 1.263 . S
O445 Co442 1.970 1_554 S
O445 C444 1.258 1_554 S
O446 Co443 1.966 . S
O446 C444 1.263 . S
C447 O448 1.235 . S
C447 O474 1.289 . S
O448 C447 1.235 . S
C449 C451 1.400 . S
C449 N452 1.351 . S
C449 C454 1.501 . S
C450 C451 1.387 . S
C450 N453 1.341 . S
C451 C449 1.400 . S
C451 C450 1.387 . S
N452 Co443 2.022 . S
N452 C449 1.351 . S
N452 N453 1.365 . S
N453 C450 1.341 . S
N453 N452 1.365 . S
N453 H473 0.862 . S
C454 C449 1.501 . S
C454 H455 0.961 . S
C454 H456 0.961 . S
C454 H457 0.960 . S
H455 C454 0.961 . S
H456 C454 0.961 . S
H457 C454 0.960 . S
C458 N459 1.342 . S
C458 C462 1.401 . S
C458 C463 1.499 . S
N459 Co442 1.989 . S
N459 C458 1.342 . S
N459 N460 1.388 . S
N460 Co443 1.993 . S
N460 N459 1.388 . S
N460 C461 1.346 . S
C461 N460 1.346 . S
C461 C462 1.396 . S
C461 C471 1.510 . S
C462 C458 1.401 . S
C462 C461 1.396 . S
C463 C458 1.499 . S
C463 H464 0.959 . S
C463 H465 0.960 . S
C463 H466 0.961 . S
H464 C463 0.959 . S
H465 C463 0.960 . S
H466 C463 0.961 . S
O467 Co442 1.967 . S
O467 C475 1.258 . S
O468 Co443 1.941 . S
O468 C475 1.266 . S
H469 C471 0.959 . S
H470 C471 0.961 . S
C471 C461 1.510 . S
C471 H469 0.959 . S
C471 H470 0.961 . S
C471 H472 0.960 . S
H472 C471 0.960 . S
H473 N453 0.862 . S
O474 Co442 1.920 1_554 S
O474 C447 1.289 . S
C475 O467 1.258 . S
C475 O468 1.266 . S
Co476 O479 1.970 1_556 S
Co476 N493 1.989 . S
Co476 O501 1.967 . S
Co476 O508 1.920 1_556 S
Co477 O480 1.966 . S
Co477 N486 2.022 . S
Co477 N494 1.993 . S
Co477 O502 1.941 . S
C478 O479 1.258 1_556 S
C478 O480 1.263 . S
O479 Co476 1.970 1_554 S
O479 C478 1.258 1_554 S
O480 Co477 1.966 . S
O480 C478 1.263 . S
C481 O482 1.235 . S
C481 O508 1.289 . S
O482 C481 1.235 . S
C483 C485 1.400 . S
C483 N486 1.351 . S
C483 C488 1.501 . S
C484 C485 1.387 . S
C484 N487 1.341 . S
C485 C483 1.400 . S
C485 C484 1.387 . S
N486 Co477 2.022 . S
N486 C483 1.351 . S
N486 N487 1.365 . S
N487 C484 1.341 . S
N487 N486 1.365 . S
N487 H507 0.862 . S
C488 C483 1.501 . S
C488 H489 0.961 . S
C488 H490 0.961 . S
C488 H491 0.960 . S
H489 C488 0.961 . S
H490 C488 0.961 . S
H491 C488 0.960 . S
C492 N493 1.342 . S
C492 C496 1.401 . S
C492 C497 1.499 . S
N493 Co476 1.989 . S
N493 C492 1.342 . S
N493 N494 1.388 . S
N494 Co477 1.993 . S
N494 N493 1.388 . S
N494 C495 1.346 . S
C495 N494 1.346 . S
C495 C496 1.396 . S
C495 C505 1.510 . S
C496 C492 1.401 . S
C496 C495 1.396 . S
C497 C492 1.499 . S
C497 H498 0.959 . S
C497 H499 0.960 . S
C497 H500 0.961 . S
H498 C497 0.959 . S
H499 C497 0.960 . S
H500 C497 0.961 . S
O501 Co476 1.967 . S
O501 C509 1.258 . S
O502 Co477 1.941 . S
O502 C509 1.266 . S
H503 C505 0.959 . S
H504 C505 0.961 . S
C505 C495 1.510 . S
C505 H503 0.959 . S
C505 H504 0.961 . S
C505 H506 0.960 . S
H506 C505 0.960 . S
H507 N487 0.862 . S
O508 Co476 1.920 1_554 S
O508 C481 1.289 . S
C509 O501 1.258 . S
C509 O502 1.266 . S
Co510 O513 1.970 . S
Co510 N527 1.989 . S
Co510 O535 1.967 . S
Co510 O542 1.920 . S
Co511 O514 1.966 . S
Co511 N520 2.022 . S
Co511 N528 1.993 . S
Co511 O536 1.941 . S
C512 O513 1.258 . S
C512 O514 1.263 . S
O513 Co510 1.970 . S
O513 C512 1.258 . S
O514 Co511 1.966 . S
O514 C512 1.263 . S
C515 O516 1.235 . S
C515 O542 1.289 . S
O516 C515 1.235 . S
C517 C519 1.400 . S
C517 N520 1.351 . S
C517 C522 1.501 . S
C518 C519 1.387 . S
C518 N521 1.341 . S
C519 C517 1.400 . S
C519 C518 1.387 . S
N520 Co511 2.022 . S
N520 C517 1.351 . S
N520 N521 1.365 . S
N521 C518 1.341 . S
N521 N520 1.365 . S
N521 H541 0.862 . S
C522 C517 1.501 . S
C522 H523 0.961 . S
C522 H524 0.961 . S
C522 H525 0.960 . S
H523 C522 0.961 . S
H524 C522 0.961 . S
H525 C522 0.960 . S
C526 N527 1.342 . S
C526 C530 1.401 . S
C526 C531 1.499 . S
N527 Co510 1.989 . S
N527 C526 1.342 . S
N527 N528 1.388 . S
N528 Co511 1.993 . S
N528 N527 1.388 . S
N528 C529 1.346 . S
C529 N528 1.346 . S
C529 C530 1.396 . S
C529 C539 1.510 . S
C530 C526 1.401 . S
C530 C529 1.396 . S
C531 C526 1.499 . S
C531 H532 0.959 . S
C531 H533 0.960 . S
C531 H534 0.961 . S
H532 C531 0.959 . S
H533 C531 0.960 . S
H534 C531 0.961 . S
O535 Co510 1.967 . S
O535 C543 1.258 . S
O536 Co511 1.941 . S
O536 C543 1.266 . S
H537 C539 0.959 . S
H538 C539 0.961 . S
C539 C529 1.510 . S
C539 H537 0.959 . S
C539 H538 0.961 . S
C539 H540 0.960 . S
H540 C539 0.960 . S
H541 N521 0.862 . S
O542 Co510 1.920 . S
O542 C515 1.289 . S
C543 O535 1.258 . S
C543 O536 1.266 . S
Co544 O547 1.970 . S
Co544 N561 1.989 . S
Co544 O569 1.967 . S
Co544 O576 1.920 . S
Co545 O548 1.966 . S
Co545 N554 2.022 . S
Co545 N562 1.993 . S
Co545 O570 1.941 . S
C546 O547 1.258 . S
C546 O548 1.263 . S
O547 Co544 1.970 . S
O547 C546 1.258 . S
O548 Co545 1.966 . S
O548 C546 1.263 . S
C549 O550 1.235 . S
C549 O576 1.289 . S
O550 C549 1.235 . S
C551 C553 1.400 . S
C551 N554 1.351 . S
C551 C556 1.501 . S
C552 C553 1.387 . S
C552 N555 1.341 . S
C553 C551 1.400 . S
C553 C552 1.387 . S
N554 Co545 2.022 . S
N554 C551 1.351 . S
N554 N555 1.365 . S
N555 C552 1.341 . S
N555 N554 1.365 . S
N555 H575 0.862 . S
C556 C551 1.501 . S
C556 H557 0.961 . S
C556 H558 0.961 . S
C556 H559 0.960 . S
H557 C556 0.961 . S
H558 C556 0.961 . S
H559 C556 0.960 . S
C560 N561 1.342 . S
C560 C564 1.401 . S
C560 C565 1.499 . S
N561 Co544 1.989 . S
N561 C560 1.342 . S
N561 N562 1.388 . S
N562 Co545 1.993 . S
N562 N561 1.388 . S
N562 C563 1.346 . S
C563 N562 1.346 . S
C563 C564 1.396 . S
C563 C573 1.510 . S
C564 C560 1.401 . S
C564 C563 1.396 . S
C565 C560 1.499 . S
C565 H566 0.959 . S
C565 H567 0.960 . S
C565 H568 0.961 . S
H566 C565 0.959 . S
H567 C565 0.960 . S
H568 C565 0.961 . S
O569 Co544 1.967 . S
O569 C577 1.258 . S
O570 Co545 1.941 . S
O570 C577 1.266 . S
H571 C573 0.959 . S
H572 C573 0.961 . S
C573 C563 1.510 . S
C573 H571 0.959 . S
C573 H572 0.961 . S
C573 H574 0.960 . S
H574 C573 0.960 . S
H575 N555 0.862 . S
O576 Co544 1.920 . S
O576 C549 1.289 . S
C577 O569 1.258 . S
C577 O570 1.266 . S
Co578 O581 1.970 . S
Co578 N595 1.989 . S
Co578 O603 1.967 . S
Co578 O610 1.920 . S
Co579 O582 1.966 . S
Co579 N588 2.022 . S
Co579 N596 1.993 . S
Co579 O604 1.941 . S
C580 O581 1.258 . S
C580 O582 1.263 . S
O581 Co578 1.970 . S
O581 C580 1.258 . S
O582 Co579 1.966 . S
O582 C580 1.263 . S
C583 O584 1.235 . S
C583 O610 1.289 . S
O584 C583 1.235 . S
C585 C587 1.400 . S
C585 N588 1.351 . S
C585 C590 1.501 . S
C586 C587 1.387 . S
C586 N589 1.341 . S
C587 C585 1.400 . S
C587 C586 1.387 . S
N588 Co579 2.022 . S
N588 C585 1.351 . S
N588 N589 1.365 . S
N589 C586 1.341 . S
N589 N588 1.365 . S
N589 H609 0.862 . S
C590 C585 1.501 . S
C590 H591 0.961 . S
C590 H592 0.961 . S
C590 H593 0.960 . S
H591 C590 0.961 . S
H592 C590 0.961 . S
H593 C590 0.960 . S
C594 N595 1.342 . S
C594 C598 1.401 . S
C594 C599 1.499 . S
N595 Co578 1.989 . S
N595 C594 1.342 . S
N595 N596 1.388 . S
N596 Co579 1.993 . S
N596 N595 1.388 . S
N596 C597 1.346 . S
C597 N596 1.346 . S
C597 C598 1.396 . S
C597 C607 1.510 . S
C598 C594 1.401 . S
C598 C597 1.396 . S
C599 C594 1.499 . S
C599 H600 0.959 . S
C599 H601 0.960 . S
C599 H602 0.961 . S
H600 C599 0.959 . S
H601 C599 0.960 . S
H602 C599 0.961 . S
O603 Co578 1.967 . S
O603 C611 1.258 . S
O604 Co579 1.941 . S
O604 C611 1.266 . S
H605 C607 0.959 . S
H606 C607 0.961 . S
C607 C597 1.510 . S
C607 H605 0.959 . S
C607 H606 0.961 . S
C607 H608 0.960 . S
H608 C607 0.960 . S
H609 N589 0.862 . S
O610 Co578 1.920 . S
O610 C583 1.289 . S
C611 O603 1.258 . S
C611 O604 1.266 . S
H612 C620 0.950 . S
H613 C625 0.950 . S
H614 C622 0.950 . S
H615 C624 0.950 1_554 S
H616 C626 0.950 . S
H617 C628 0.950 . S
H618 C630 0.950 1_556 S
H619 C631 0.950 . S
C620 H612 0.950 . S
C620 C621 1.386 . S
C620 C622 1.391 . S
C621 C620 1.386 . S
C621 C625 1.393 . S
C622 H614 0.950 . S
C622 C620 1.391 . S
C622 C623 1.400 . S
C623 C622 1.400 . S
C623 C624 1.398 . S
C623 C629 1.491 1_556 S
C624 H615 0.950 1_556 S
C624 C623 1.398 . S
C624 C625 1.391 . S
C625 H613 0.950 . S
C625 C621 1.393 . S
C625 C624 1.391 . S
C626 H616 0.950 . S
C626 C627 1.386 . S
C626 C628 1.391 . S
C627 C626 1.386 . S
C627 C631 1.393 . S
C628 H617 0.950 . S
C628 C626 1.391 . S
C628 C629 1.400 . S
C629 C623 1.491 1_554 S
C629 C628 1.400 . S
C629 C630 1.398 . S
C630 H618 0.950 1_554 S
C630 C629 1.398 . S
C630 C631 1.391 . S
C631 H619 0.950 . S
C631 C627 1.393 . S
C631 C630 1.391 . S
H632 C640 0.950 . S
H633 C645 0.950 . S
H634 C642 0.950 1_565 S
H635 C644 0.950 1_554 S
H636 C646 0.950 . S
H637 C648 0.950 1_545 S
H638 C650 0.950 1_556 S
H639 C651 0.950 . S
C640 H632 0.950 . S
C640 C641 1.386 . S
C640 C642 1.391 . S
C641 C640 1.386 . S
C641 C645 1.393 . S
C642 H634 0.950 1_545 S
C642 C640 1.391 . S
C642 C643 1.400 . S
C643 C642 1.400 . S
C643 C644 1.398 . S
C643 C649 1.491 1_546 S
C644 H635 0.950 1_556 S
C644 C643 1.398 . S
C644 C645 1.391 . S
C645 H633 0.950 . S
C645 C641 1.393 . S
C645 C644 1.391 . S
C646 H636 0.950 . S
C646 C647 1.386 . S
C646 C648 1.391 . S
C647 C646 1.386 . S
C647 C651 1.393 . S
C648 H637 0.950 1_565 S
C648 C646 1.391 . S
C648 C649 1.400 . S
C649 C643 1.491 1_564 S
C649 C648 1.400 . S
C649 C650 1.398 . S
C650 H638 0.950 1_554 S
C650 C649 1.398 . S
C650 C651 1.391 . S
C651 H639 0.950 . S
C651 C647 1.393 . S
C651 C650 1.391 . S
H652 C660 0.950 . S
H653 C665 0.950 . S
H654 C662 0.950 1_655 S
H655 C664 0.950 1_556 S
H656 C666 0.950 . S
H657 C668 0.950 1_455 S
H658 C670 0.950 1_554 S
H659 C671 0.950 . S
C660 H652 0.950 . S
C660 C661 1.386 . S
C660 C662 1.391 . S
C661 C660 1.386 . S
C661 C665 1.393 . S
C662 H654 0.950 1_455 S
C662 C660 1.391 . S
C662 C663 1.400 . S
C663 C662 1.400 . S
C663 C664 1.398 . S
C663 C669 1.491 1_454 S
C664 H655 0.950 1_554 S
C664 C663 1.398 . S
C664 C665 1.391 . S
C665 H653 0.950 . S
C665 C661 1.393 . S
C665 C664 1.391 . S
C666 H656 0.950 . S
C666 C667 1.386 . S
C666 C668 1.391 . S
C667 C666 1.386 . S
C667 C671 1.393 . S
C668 H657 0.950 1_655 S
C668 C666 1.391 . S
C668 C669 1.400 . S
C669 C663 1.491 1_656 S
C669 C668 1.400 . S
C669 C670 1.398 . S
C670 H658 0.950 1_556 S
C670 C669 1.398 . S
C670 C671 1.391 . S
C671 H659 0.950 . S
C671 C667 1.393 . S
C671 C670 1.391 . S
H672 C680 0.950 . S
H673 C685 0.950 . S
H674 C682 0.950 . S
H675 C684 0.950 1_556 S
H676 C686 0.950 . S
H677 C688 0.950 . S
H678 C690 0.950 1_554 S
H679 C691 0.950 . S
C680 H672 0.950 . S
C680 C681 1.386 . S
C680 C682 1.391 . S
C681 C680 1.386 . S
C681 C685 1.393 . S
C682 H674 0.950 . S
C682 C680 1.391 . S
C682 C683 1.400 . S
C683 C682 1.400 . S
C683 C684 1.398 . S
C683 C689 1.491 1_554 S
C684 H675 0.950 1_554 S
C684 C683 1.398 . S
C684 C685 1.391 . S
C685 H673 0.950 . S
C685 C681 1.393 . S
C685 C684 1.391 . S
C686 H676 0.950 . S
C686 C687 1.386 . S
C686 C688 1.391 . S
C687 C686 1.386 . S
C687 C691 1.393 . S
C688 H677 0.950 . S
C688 C686 1.391 . S
C688 C689 1.400 . S
C689 C683 1.491 1_556 S
C689 C688 1.400 . S
C689 C690 1.398 . S
C690 H678 0.950 1_556 S
C690 C689 1.398 . S
C690 C691 1.391 . S
C691 H679 0.950 . S
C691 C687 1.393 . S
C691 C690 1.391 . S
H692 C700 0.950 . S
H693 C705 0.950 . S
H694 C702 0.950 . S
H695 C704 0.950 . S
H696 C706 0.950 . S
H697 C708 0.950 . S
H698 C710 0.950 . S
H699 C711 0.950 . S
C700 H692 0.950 . S
C700 C701 1.386 . S
C700 C702 1.391 . S
C701 C700 1.386 . S
C701 C705 1.393 . S
C702 H694 0.950 . S
C702 C700 1.391 . S
C702 C703 1.400 . S
C703 C702 1.400 . S
C703 C704 1.398 . S
C703 C709 1.491 1_546 S
C704 H695 0.950 . S
C704 C703 1.398 . S
C704 C705 1.391 . S
C705 H693 0.950 . S
C705 C701 1.393 . S
C705 C704 1.391 . S
C706 H696 0.950 . S
C706 C707 1.386 . S
C706 C708 1.391 . S
C707 C706 1.386 . S
C707 C711 1.393 . S
C708 H697 0.950 . S
C708 C706 1.391 . S
C708 C709 1.400 . S
C709 C703 1.491 1_564 S
C709 C708 1.400 . S
C709 C710 1.398 . S
C710 H698 0.950 . S
C710 C709 1.398 . S
C710 C711 1.391 . S
C711 H699 0.950 . S
C711 C707 1.393 . S
C711 C710 1.391 . S
H712 C720 0.950 . S
H713 C725 0.950 . S
H714 C722 0.950 1_554 S
H715 C724 0.910 1_455 S
H716 C726 0.950 . S
H717 C728 0.950 1_556 S
H718 C730 0.950 1_655 S
H719 C731 0.950 . S
C720 H712 0.950 . S
C720 C721 1.386 . S
C720 C722 1.391 . S
C721 C720 1.386 . S
C721 C725 1.393 . S
C722 H714 0.950 1_556 S
C722 C720 1.391 . S
C722 C723 1.400 . S
C723 C722 1.400 . S
C723 C724 1.398 . S
C723 C729 1.491 1_656 S
C724 H715 0.910 1_655 S
C724 C723 1.398 . S
C724 C725 1.391 . S
C725 H713 0.950 . S
C725 C721 1.393 . S
C725 C724 1.391 . S
C726 H716 0.950 . S
C726 C727 1.386 . S
C726 C728 1.391 . S
C727 C726 1.386 . S
C727 C731 1.393 . S
C728 H717 0.950 1_554 S
C728 C726 1.391 . S
C728 C729 1.400 . S
C729 C723 1.491 1_454 S
C729 C728 1.400 . S
C729 C730 1.398 . S
C730 H718 0.950 1_455 S
C730 C729 1.398 . S
C730 C731 1.391 . S
C731 H719 0.950 . S
C731 C727 1.393 . S
C731 C730 1.391 . S
H732 C740 0.950 . S
H733 C745 0.950 . S
H734 C742 0.950 . S
H735 C744 0.950 . S
H736 C746 0.950 . S
H737 C748 0.950 . S
H738 C750 0.950 . S
H739 C751 0.950 . S
C740 H732 0.950 . S
C740 C741 1.386 . S
C740 C742 1.391 . S
C741 C740 1.386 . S
C741 C745 1.393 . S
C742 H734 0.950 . S
C742 C740 1.391 . S
C742 C743 1.400 . S
C743 C742 1.400 . S
C743 C744 1.398 . S
C743 C749 1.491 . S
C744 H735 0.950 . S
C744 C743 1.398 . S
C744 C745 1.391 . S
C745 H733 0.950 . S
C745 C741 1.393 . S
C745 C744 1.391 . S
C746 H736 0.950 . S
C746 C747 1.386 . S
C746 C748 1.391 . S
C747 C746 1.386 . S
C747 C751 1.393 . S
C748 H737 0.950 . S
C748 C746 1.391 . S
C748 C749 1.400 . S
C749 C743 1.491 . S
C749 C748 1.400 . S
C749 C750 1.398 . S
C750 H738 0.950 . S
C750 C749 1.398 . S
C750 C751 1.391 . S
C751 H739 0.950 . S
C751 C747 1.393 . S
C751 C750 1.391 . S
H752 C760 0.950 . S
H753 C765 0.950 . S
H754 C762 0.950 . S
H755 C764 0.950 . S
H756 C766 0.950 . S
H757 C768 0.950 . S
H758 C770 0.950 . S
H759 C771 0.950 . S
C760 H752 0.950 . S
C760 C761 1.386 . S
C760 C762 1.391 . S
C761 C760 1.386 . S
C761 C765 1.393 . S
C762 H754 0.950 . S
C762 C760 1.391 . S
C762 C763 1.400 . S
C763 C762 1.400 . S
C763 C764 1.398 . S
C763 C769 1.491 . S
C764 H755 0.950 . S
C764 C763 1.398 . S
C764 C765 1.391 . S
C765 H753 0.950 . S
C765 C761 1.393 . S
C765 C764 1.391 . S
C766 H756 0.950 . S
C766 C767 1.386 . S
C766 C768 1.391 . S
C767 C766 1.386 . S
C767 C771 1.393 . S
C768 H757 0.950 . S
C768 C766 1.391 . S
C768 C769 1.400 . S
C769 C763 1.491 . S
C769 C768 1.400 . S
C769 C770 1.398 . S
C770 H758 0.950 . S
C770 C769 1.398 . S
C770 C771 1.391 . S
C771 H759 0.950 . S
C771 C767 1.393 . S
C771 C770 1.391 . S
H772 C780 0.950 . S
H773 C785 0.950 . S
H774 C782 0.950 . S
H775 C784 0.950 . S
H776 C786 0.950 . S
H777 C788 0.950 . S
H778 C790 0.950 . S
H779 C791 0.950 . S
C780 H772 0.950 . S
C780 C781 1.386 . S
C780 C782 1.391 . S
C781 C780 1.386 . S
C781 C785 1.393 . S
C782 H774 0.950 . S
C782 C780 1.391 . S
C782 C783 1.400 . S
C783 C782 1.400 . S
C783 C784 1.398 . S
C783 C789 1.491 . S
C784 H775 0.950 . S
C784 C783 1.398 . S
C784 C785 1.391 . S
C785 H773 0.950 . S
C785 C781 1.393 . S
C785 C784 1.391 . S
C786 H776 0.950 . S
C786 C787 1.386 . S
C786 C788 1.391 . S
C787 C786 1.386 . S
C787 C791 1.393 . S
C788 H777 0.950 . S
C788 C786 1.391 . S
C788 C789 1.400 . S
C789 C783 1.491 . S
C789 C788 1.400 . S
C789 C790 1.398 . S
C790 H778 0.950 . S
C790 C789 1.398 . S
C790 C791 1.391 . S
C791 H779 0.950 . S
C791 C787 1.393 . S
C791 C790 1.391 . S
H792 C800 0.950 . S
H793 C805 0.950 . S
H794 C802 0.950 . S
H795 C804 0.950 . S
H796 C806 0.950 . S
H797 C808 0.950 . S
H798 C810 0.950 . S
H799 C811 0.950 . S
C800 H792 0.950 . S
C800 C801 1.386 . S
C800 C802 1.391 . S
C801 C800 1.386 . S
C801 C805 1.393 . S
C802 H794 0.950 . S
C802 C800 1.391 . S
C802 C803 1.400 . S
C803 C802 1.400 . S
C803 C804 1.398 . S
C803 C809 1.491 . S
C804 H795 0.950 . S
C804 C803 1.398 . S
C804 C805 1.391 . S
C805 H793 0.950 . S
C805 C801 1.393 . S
C805 C804 1.391 . S
C806 H796 0.950 . S
C806 C807 1.386 . S
C806 C808 1.391 . S
C807 C806 1.386 . S
C807 C811 1.393 . S
C808 H797 0.950 . S
C808 C806 1.391 . S
C808 C809 1.400 . S
C809 C803 1.491 . S
C809 C808 1.400 . S
C809 C810 1.398 . S
C810 H798 0.950 . S
C810 C809 1.398 . S
C810 C811 1.391 . S
C811 H799 0.950 . S
C811 C807 1.393 . S
C811 C810 1.391 . S
H812 C820 0.950 . S
H813 C825 0.950 . S
H814 C822 0.950 . S
H815 C824 0.950 . S
H816 C826 0.950 . S
H817 C828 0.950 . S
H818 C830 0.950 . S
H819 C831 0.950 . S
C820 H812 0.950 . S
C820 C821 1.386 . S
C820 C822 1.391 . S
C821 C820 1.386 . S
C821 C825 1.393 . S
C822 H814 0.950 . S
C822 C820 1.391 . S
C822 C823 1.400 . S
C823 C822 1.400 . S
C823 C824 1.398 . S
C823 C829 1.491 . S
C824 H815 0.950 . S
C824 C823 1.398 . S
C824 C825 1.391 . S
C825 H813 0.950 . S
C825 C821 1.393 . S
C825 C824 1.391 . S
C826 H816 0.950 . S
C826 C827 1.386 . S
C826 C828 1.391 . S
C827 C826 1.386 . S
C827 C831 1.393 . S
C828 H817 0.950 . S
C828 C826 1.391 . S
C828 C829 1.400 . S
C829 C823 1.491 . S
C829 C828 1.400 . S
C829 C830 1.398 . S
C830 H818 0.950 . S
C830 C829 1.398 . S
C830 C831 1.391 . S
C831 H819 0.950 . S
C831 C827 1.393 . S
C831 C830 1.391 . S
H832 C840 0.950 . S
H833 C845 0.950 . S
H834 C842 0.950 . S
H835 C844 0.950 . S
H836 C846 0.950 . S
H837 C848 0.950 . S
H838 C850 0.950 . S
H839 C851 0.950 . S
C840 H832 0.950 . S
C840 C841 1.386 . S
C840 C842 1.391 . S
C841 C840 1.386 . S
C841 C845 1.393 . S
C842 H834 0.950 . S
C842 C840 1.391 . S
C842 C843 1.400 . S
C843 C842 1.400 . S
C843 C844 1.398 . S
C843 C849 1.491 . S
C844 H835 0.950 . S
C844 C843 1.398 . S
C844 C845 1.391 . S
C845 H833 0.950 . S
C845 C841 1.393 . S
C845 C844 1.391 . S
C846 H836 0.950 . S
C846 C847 1.386 . S
C846 C848 1.391 . S
C847 C846 1.386 . S
C847 C851 1.393 . S
C848 H837 0.950 . S
C848 C846 1.391 . S
C848 C849 1.400 . S
C849 C843 1.491 . S
C849 C848 1.400 . S
C849 C850 1.398 . S
C850 H838 0.950 . S
C850 C849 1.398 . S
C850 C851 1.391 . S
C851 H839 0.950 . S
C851 C847 1.393 . S
C851 C850 1.391 . S
H852 C860 0.950 . S
H853 C865 0.950 . S
H854 C862 0.950 . S
H855 C864 0.950 . S
H856 C866 0.950 . S
H857 C868 0.950 . S
H858 C870 0.950 . S
H859 C871 0.950 . S
C860 H852 0.950 . S
C860 C861 1.386 . S
C860 C862 1.391 . S
C861 C860 1.386 . S
C861 C865 1.393 . S
C862 H854 0.950 . S
C862 C860 1.391 . S
C862 C863 1.400 . S
C863 C862 1.400 . S
C863 C864 1.398 . S
C863 C869 1.491 . S
C864 H855 0.950 . S
C864 C863 1.398 . S
C864 C865 1.391 . S
C865 H853 0.950 . S
C865 C861 1.393 . S
C865 C864 1.391 . S
C866 H856 0.950 . S
C866 C867 1.386 . S
C866 C868 1.391 . S
C867 C866 1.386 . S
C867 C871 1.393 . S
C868 H857 0.950 . S
C868 C866 1.391 . S
C868 C869 1.400 . S
C869 C863 1.491 . S
C869 C868 1.400 . S
C869 C870 1.398 . S
C870 H858 0.950 . S
C870 C869 1.398 . S
C870 C871 1.391 . S
C871 H859 0.950 . S
C871 C867 1.393 . S
C871 C870 1.391 . S
H872 C880 0.950 . S
H873 C885 0.950 . S
H874 C882 0.950 . S
H875 C884 0.950 . S
H876 C886 0.950 . S
H877 C888 0.950 . S
H878 C890 0.950 . S
H879 C891 0.950 . S
C880 H872 0.950 . S
C880 C881 1.386 . S
C880 C882 1.391 . S
C881 C880 1.386 . S
C881 C885 1.393 . S
C882 H874 0.950 . S
C882 C880 1.391 . S
C882 C883 1.400 . S
C883 C882 1.400 . S
C883 C884 1.398 . S
C883 C889 1.491 . S
C884 H875 0.950 . S
C884 C883 1.398 . S
C884 C885 1.391 . S
C885 H873 0.950 . S
C885 C881 1.393 . S
C885 C884 1.391 . S
C886 H876 0.950 . S
C886 C887 1.386 . S
C886 C888 1.391 . S
C887 C886 1.386 . S
C887 C891 1.393 . S
C888 H877 0.950 . S
C888 C886 1.391 . S
C888 C889 1.400 . S
C889 C883 1.491 . S
C889 C888 1.400 . S
C889 C890 1.398 . S
C890 H878 0.950 . S
C890 C889 1.398 . S
C890 C891 1.391 . S
C891 H879 0.950 . S
C891 C887 1.393 . S
C891 C890 1.391 . S
H892 C900 0.950 . S
H893 C905 0.950 . S
H894 C902 0.950 . S
H895 C904 0.950 . S
H896 C906 0.950 . S
H897 C908 0.950 . S
H898 C910 0.950 . S
H899 C911 0.950 . S
C900 H892 0.950 . S
C900 C901 1.386 . S
C900 C902 1.391 . S
C901 C900 1.386 . S
C901 C905 1.393 . S
C902 H894 0.950 . S
C902 C900 1.391 . S
C902 C903 1.400 . S
C903 C902 1.400 . S
C903 C904 1.398 . S
C903 C909 1.491 . S
C904 H895 0.950 . S
C904 C903 1.398 . S
C904 C905 1.391 . S
C905 H893 0.950 . S
C905 C901 1.393 . S
C905 C904 1.391 . S
C906 H896 0.950 . S
C906 C907 1.386 . S
C906 C908 1.391 . S
C907 C906 1.386 . S
C907 C911 1.393 . S
C908 H897 0.950 . S
C908 C906 1.391 . S
C908 C909 1.400 . S
C909 C903 1.491 . S
C909 C908 1.400 . S
C909 C910 1.398 . S
C910 H898 0.950 . S
C910 C909 1.398 . S
C910 C911 1.391 . S
C911 H899 0.950 . S
C911 C907 1.393 . S
C911 C910 1.391 . S
H912 C920 0.950 . S
H913 C925 0.950 . S
H914 C922 0.950 . S
H915 C924 0.950 . S
H916 C926 0.950 . S
H917 C928 0.950 . S
H918 C930 0.950 . S
H919 C931 0.950 . S
C920 H912 0.950 . S
C920 C921 1.386 . S
C920 C922 1.391 . S
C921 C920 1.386 . S
C921 C925 1.393 . S
C922 H914 0.950 . S
C922 C920 1.391 . S
C922 C923 1.400 . S
C923 C922 1.400 . S
C923 C924 1.398 . S
C923 C929 1.491 . S
C924 H915 0.950 . S
C924 C923 1.398 . S
C924 C925 1.391 . S
C925 H913 0.950 . S
C925 C921 1.393 . S
C925 C924 1.391 . S
C926 H916 0.950 . S
C926 C927 1.386 . S
C926 C928 1.391 . S
C927 C926 1.386 . S
C927 C931 1.393 . S
C928 H917 0.950 . S
C928 C926 1.391 . S
C928 C929 1.400 . S
C929 C923 1.491 . S
C929 C928 1.400 . S
C929 C930 1.398 . S
C930 H918 0.950 . S
C930 C929 1.398 . S
C930 C931 1.391 . S
C931 H919 0.950 . S
C931 C927 1.393 . S
C931 C930 1.391 . S
H932 C940 0.950 . S
H933 C945 0.950 . S
H934 C942 0.950 . S
H935 C944 0.950 . S
H936 C946 0.950 . S
H937 C948 0.950 . S
H938 C950 0.950 . S
H939 C951 0.950 . S
C940 H932 0.950 . S
C940 C941 1.386 . S
C940 C942 1.391 . S
C941 C940 1.386 . S
C941 C945 1.393 . S
C942 H934 0.950 . S
C942 C940 1.391 . S
C942 C943 1.400 . S
C943 C942 1.400 . S
C943 C944 1.398 . S
C943 C949 1.491 . S
C944 H935 0.950 . S
C944 C943 1.398 . S
C944 C945 1.391 . S
C945 H933 0.950 . S
C945 C941 1.393 . S
C945 C944 1.391 . S
C946 H936 0.950 . S
C946 C947 1.386 . S
C946 C948 1.391 . S
C947 C946 1.386 . S
C947 C951 1.393 . S
C948 H937 0.950 . S
C948 C946 1.391 . S
C948 C949 1.400 . S
C949 C943 1.491 . S
C949 C948 1.400 . S
C949 C950 1.398 . S
C950 H938 0.950 . S
C950 C949 1.398 . S
C950 C951 1.391 . S
C951 H939 0.950 . S
C951 C947 1.393 . S
C951 C950 1.391 . S
H952 C960 0.950 . S
H953 C965 0.950 . S
H954 C962 0.950 . S
H955 C964 0.950 . S
H956 C966 0.950 . S
H957 C968 0.950 . S
H958 C970 0.950 . S
H959 C971 0.950 . S
C960 H952 0.950 . S
C960 C961 1.386 . S
C960 C962 1.391 . S
C961 C960 1.386 . S
C961 C965 1.393 . S
C962 H954 0.950 . S
C962 C960 1.391 . S
C962 C963 1.400 . S
C963 C962 1.400 . S
C963 C964 1.398 . S
C963 C969 1.491 . S
C964 H955 0.950 . S
C964 C963 1.398 . S
C964 C965 1.391 . S
C965 H953 0.950 . S
C965 C961 1.393 . S
C965 C964 1.391 . S
C966 H956 0.950 . S
C966 C967 1.386 . S
C966 C968 1.391 . S
C967 C966 1.386 . S
C967 C971 1.393 . S
C968 H957 0.950 . S
C968 C966 1.391 . S
C968 C969 1.400 . S
C969 C963 1.491 . S
C969 C968 1.400 . S
C969 C970 1.398 . S
C970 H958 0.950 . S
C970 C969 1.398 . S
C970 C971 1.391 . S
C971 H959 0.950 . S
C971 C967 1.393 . S
C971 C970 1.391 . S
H972 C980 0.950 . S
H973 C985 0.950 . S
H974 C982 0.950 . S
H975 C984 0.950 . S
H976 C986 0.950 . S
H977 C988 0.950 . S
H978 C990 0.950 . S
H979 C991 0.950 . S
C980 H972 0.950 . S
C980 C981 1.386 . S
C980 C982 1.391 . S
C981 C980 1.386 . S
C981 C985 1.393 . S
C982 H974 0.950 . S
C982 C980 1.391 . S
C982 C983 1.400 . S
C983 C982 1.400 . S
C983 C984 1.398 . S
C983 C989 1.491 . S
C984 H975 0.950 . S
C984 C983 1.398 . S
C984 C985 1.391 . S
C985 H973 0.950 . S
C985 C981 1.393 . S
C985 C984 1.391 . S
C986 H976 0.950 . S
C986 C987 1.386 . S
C986 C988 1.391 . S
C987 C986 1.386 . S
C987 C991 1.393 . S
C988 H977 0.950 . S
C988 C986 1.391 . S
C988 C989 1.400 . S
C989 C983 1.491 . S
C989 C988 1.400 . S
C989 C990 1.398 . S
C990 H978 0.950 . S
C990 C989 1.398 . S
C990 C991 1.391 . S
C991 H979 0.950 . S
C991 C987 1.393 . S
C991 C990 1.391 . S
H992 C1000 0.950 . S
H993 C1005 0.950 . S
H994 C1002 0.950 . S
H995 C1004 0.950 . S
H996 C1006 0.950 . S
H997 C1008 0.950 . S
H998 C1010 0.950 . S
H999 C1011 0.950 . S
C1000 H992 0.950 . S
C1000 C1001 1.386 . S
C1000 C1002 1.391 . S
C1001 C1000 1.386 . S
C1001 C1005 1.393 . S
C1002 H994 0.950 . S
C1002 C1000 1.391 . S
C1002 C1003 1.400 . S
C1003 C1002 1.400 . S
C1003 C1004 1.398 . S
C1003 C1009 1.491 . S
C1004 H995 0.950 . S
C1004 C1003 1.398 . S
C1004 C1005 1.391 . S
C1005 H993 0.950 . S
C1005 C1001 1.393 . S
C1005 C1004 1.391 . S
C1006 H996 0.950 . S
C1006 C1007 1.386 . S
C1006 C1008 1.391 . S
C1007 C1006 1.386 . S
C1007 C1011 1.393 . S
C1008 H997 0.950 . S
C1008 C1006 1.391 . S
C1008 C1009 1.400 . S
C1009 C1003 1.491 . S
C1009 C1008 1.400 . S
C1009 C1010 1.398 . S
C1010 H998 0.950 . S
C1010 C1009 1.398 . S
C1010 C1011 1.391 . S
C1011 H999 0.950 . S
C1011 C1007 1.393 . S
C1011 C1010 1.391 . S
H1012 C1020 0.950 . S
H1013 C1025 0.950 . S
H1014 C1022 0.950 . S
H1015 C1024 0.950 . S
H1016 C1026 0.950 . S
H1017 C1028 0.950 . S
H1018 C1030 0.950 . S
H1019 C1031 0.950 . S
C1020 H1012 0.950 . S
C1020 C1021 1.386 . S
C1020 C1022 1.391 . S
C1021 C1020 1.386 . S
C1021 C1025 1.393 . S
C1022 H1014 0.950 . S
C1022 C1020 1.391 . S
C1022 C1023 1.400 . S
C1023 C1022 1.400 . S
C1023 C1024 1.398 . S
C1023 C1029 1.491 . S
C1024 H1015 0.950 . S
C1024 C1023 1.398 . S
C1024 C1025 1.391 . S
C1025 H1013 0.950 . S
C1025 C1021 1.393 . S
C1025 C1024 1.391 . S
C1026 H1016 0.950 . S
C1026 C1027 1.386 . S
C1026 C1028 1.391 . S
C1027 C1026 1.386 . S
C1027 C1031 1.393 . S
C1028 H1017 0.950 . S
C1028 C1026 1.391 . S
C1028 C1029 1.400 . S
C1029 C1023 1.491 . S
C1029 C1028 1.400 . S
C1029 C1030 1.398 . S
C1030 H1018 0.950 . S
C1030 C1029 1.398 . S
C1030 C1031 1.391 . S
C1031 H1019 0.950 . S
C1031 C1027 1.393 . S
C1031 C1030 1.391 . S
H1032 C1040 0.950 . S
H1033 C1045 0.950 . S
H1034 C1042 0.950 . S
H1035 C1044 0.950 . S
H1036 C1046 0.950 . S
H1037 C1048 0.950 . S
H1038 C1050 0.950 . S
H1039 C1051 0.950 . S
C1040 H1032 0.950 . S
C1040 C1041 1.386 . S
C1040 C1042 1.391 . S
C1041 C1040 1.386 . S
C1041 C1045 1.393 . S
C1042 H1034 0.950 . S
C1042 C1040 1.391 . S
C1042 C1043 1.400 . S
C1043 C1042 1.400 . S
C1043 C1044 1.398 . S
C1043 C1049 1.491 . S
C1044 H1035 0.950 . S
C1044 C1043 1.398 . S
C1044 C1045 1.391 . S
C1045 H1033 0.950 . S
C1045 C1041 1.393 . S
C1045 C1044 1.391 . S
C1046 H1036 0.950 . S
C1046 C1047 1.386 . S
C1046 C1048 1.391 . S
C1047 C1046 1.386 . S
C1047 C1051 1.393 . S
C1048 H1037 0.950 . S
C1048 C1046 1.391 . S
C1048 C1049 1.400 . S
C1049 C1043 1.491 . S
C1049 C1048 1.400 . S
C1049 C1050 1.398 . S
C1050 H1038 0.950 . S
C1050 C1049 1.398 . S
C1050 C1051 1.391 . S
C1051 H1039 0.950 . S
C1051 C1047 1.393 . S
C1051 C1050 1.391 . S
H1052 C1060 0.950 . S
H1053 C1065 0.950 . S
H1054 C1062 0.950 . S
H1055 C1064 0.950 . S
H1056 C1066 0.950 . S
H1057 C1068 0.950 . S
H1058 C1070 0.950 . S
H1059 C1071 0.950 . S
C1060 H1052 0.950 . S
C1060 C1061 1.386 . S
C1060 C1062 1.391 . S
C1061 C1060 1.386 . S
C1061 C1065 1.393 . S
C1062 H1054 0.950 . S
C1062 C1060 1.391 . S
C1062 C1063 1.400 . S
C1063 C1062 1.400 . S
C1063 C1064 1.398 . S
C1063 C1069 1.491 . S
C1064 H1055 0.950 . S
C1064 C1063 1.398 . S
C1064 C1065 1.391 . S
C1065 H1053 0.950 . S
C1065 C1061 1.393 . S
C1065 C1064 1.391 . S
C1066 H1056 0.950 . S
C1066 C1067 1.386 . S
C1066 C1068 1.391 . S
C1067 C1066 1.386 . S
C1067 C1071 1.393 . S
C1068 H1057 0.950 . S
C1068 C1066 1.391 . S
C1068 C1069 1.400 . S
C1069 C1063 1.491 . S
C1069 C1068 1.400 . S
C1069 C1070 1.398 . S
C1070 H1058 0.950 . S
C1070 C1069 1.398 . S
C1070 C1071 1.391 . S
C1071 H1059 0.950 . S
C1071 C1067 1.393 . S
C1071 C1070 1.391 . S
H1072 C1080 0.950 . S
H1073 C1085 0.950 . S
H1074 C1082 0.950 . S
H1075 C1084 0.950 . S
H1076 C1086 0.950 . S
H1077 C1088 0.950 . S
H1078 C1090 0.950 . S
H1079 C1091 0.950 . S
C1080 H1072 0.950 . S
C1080 C1081 1.386 . S
C1080 C1082 1.391 . S
C1081 C1080 1.386 . S
C1081 C1085 1.393 . S
C1082 H1074 0.950 . S
C1082 C1080 1.391 . S
C1082 C1083 1.400 . S
C1083 C1082 1.400 . S
C1083 C1084 1.398 . S
C1083 C1089 1.491 . S
C1084 H1075 0.950 . S
C1084 C1083 1.398 . S
C1084 C1085 1.391 . S
C1085 H1073 0.950 . S
C1085 C1081 1.393 . S
C1085 C1084 1.391 . S
C1086 H1076 0.950 . S
C1086 C1087 1.386 . S
C1086 C1088 1.391 . S
C1087 C1086 1.386 . S
C1087 C1091 1.393 . S
C1088 H1077 0.950 . S
C1088 C1086 1.391 . S
C1088 C1089 1.400 . S
C1089 C1083 1.491 . S
C1089 C1088 1.400 . S
C1089 C1090 1.398 . S
C1090 H1078 0.950 . S
C1090 C1089 1.398 . S
C1090 C1091 1.391 . S
C1091 H1079 0.950 . S
C1091 C1087 1.393 . S
C1091 C1090 1.391 . S
H1092 C1100 0.950 . S
H1093 C1105 0.950 . S
H1094 C1102 0.950 . S
H1095 C1104 0.950 . S
H1096 C1106 0.950 . S
H1097 C1108 0.950 . S
H1098 C1110 0.950 . S
H1099 C1111 0.950 . S
C1100 H1092 0.950 . S
C1100 C1101 1.386 1_554 S
C1100 C1102 1.391 . S
C1101 C1100 1.386 1_556 S
C1101 C1105 1.393 . S
C1102 H1094 0.950 . S
C1102 C1100 1.391 . S
C1102 C1103 1.400 1_554 S
C1103 C1102 1.400 1_556 S
C1103 C1104 1.398 . S
C1103 C1109 1.491 1_456 S
C1104 H1095 0.950 . S
C1104 C1103 1.398 . S
C1104 C1105 1.391 . S
C1105 H1093 0.950 . S
C1105 C1101 1.393 . S
C1105 C1104 1.391 . S
C1106 H1096 0.950 . S
C1106 C1107 1.386 1_556 S
C1106 C1108 1.391 . S
C1107 C1106 1.386 1_554 S
C1107 C1111 1.393 . S
C1108 H1097 0.950 . S
C1108 C1106 1.391 . S
C1108 C1109 1.400 1_556 S
C1109 C1103 1.491 1_654 S
C1109 C1108 1.400 1_554 S
C1109 C1110 1.398 . S
C1110 H1098 0.950 . S
C1110 C1109 1.398 . S
C1110 C1111 1.391 . S
C1111 H1099 0.950 . S
C1111 C1107 1.393 . S
C1111 C1110 1.391 . S
H1112 C1120 0.950 . S
H1113 C1125 0.950 . S
H1114 C1122 0.950 . S
H1115 C1124 0.950 . S
H1116 C1126 0.950 . S
H1117 C1128 0.950 . S
H1118 C1130 0.950 . S
H1119 C1131 0.950 . S
C1120 H1112 0.950 . S
C1120 C1121 1.386 . S
C1120 C1122 1.391 . S
C1121 C1120 1.386 . S
C1121 C1125 1.393 . S
C1122 H1114 0.950 . S
C1122 C1120 1.391 . S
C1122 C1123 1.400 . S
C1123 C1122 1.400 . S
C1123 C1124 1.398 1_556 S
C1123 C1129 1.491 1_556 S
C1124 H1115 0.950 . S
C1124 C1123 1.398 1_554 S
C1124 C1125 1.391 1_554 S
C1125 H1113 0.950 . S
C1125 C1121 1.393 . S
C1125 C1124 1.391 1_556 S
C1126 H1116 0.950 . S
C1126 C1127 1.386 . S
C1126 C1128 1.391 . S
C1127 C1126 1.386 . S
C1127 C1131 1.393 . S
C1128 H1117 0.950 . S
C1128 C1126 1.391 . S
C1128 C1129 1.400 . S
C1129 C1123 1.491 1_554 S
C1129 C1128 1.400 . S
C1129 C1130 1.398 1_554 S
C1130 H1118 0.950 . S
C1130 C1129 1.398 1_556 S
C1130 C1131 1.391 1_556 S
C1131 H1119 0.950 . S
C1131 C1127 1.393 . S
C1131 C1130 1.391 1_554 S
H1132 C1140 0.950 . S
H1133 C1145 0.950 . S
H1134 C1142 0.950 1_556 S
H1135 C1144 0.950 . S
H1136 C1146 0.950 . S
H1137 C1148 0.950 1_554 S
H1138 C1150 0.950 . S
H1139 C1151 0.950 . S
C1140 H1132 0.950 . S
C1140 C1141 1.386 . S
C1140 C1142 1.391 . S
C1141 C1140 1.386 . S
C1141 C1145 1.393 . S
C1142 H1134 0.950 1_554 S
C1142 C1140 1.391 . S
C1142 C1143 1.400 . S
C1143 C1142 1.400 . S
C1143 C1144 1.398 . S
C1143 C1149 1.491 1_544 S
C1144 H1135 0.950 . S
C1144 C1143 1.398 . S
C1144 C1145 1.391 . S
C1145 H1133 0.950 . S
C1145 C1141 1.393 . S
C1145 C1144 1.391 . S
C1146 H1136 0.950 . S
C1146 C1147 1.386 . S
C1146 C1148 1.391 . S
C1147 C1146 1.386 . S
C1147 C1151 1.393 . S
C1148 H1137 0.950 1_556 S
C1148 C1146 1.391 . S
C1148 C1149 1.400 . S
C1149 C1143 1.491 1_566 S
C1149 C1148 1.400 . S
C1149 C1150 1.398 . S
C1150 H1138 0.950 . S
C1150 C1149 1.398 . S
C1150 C1151 1.391 . S
C1151 H1139 0.950 . S
C1151 C1147 1.393 . S
C1151 C1150 1.391 . S
H1152 C1160 0.950 . S
H1153 C1165 0.950 . S
H1154 C1162 0.950 . S
H1155 C1164 0.950 . S
H1156 C1166 0.950 . S
H1157 C1168 0.950 . S
H1158 C1170 0.950 . S
H1159 C1171 0.950 . S
C1160 H1152 0.950 . S
C1160 C1161 1.386 . S
C1160 C1162 1.391 . S
C1161 C1160 1.386 . S
C1161 C1165 1.393 . S
C1162 H1154 0.950 . S
C1162 C1160 1.391 . S
C1162 C1163 1.400 . S
C1163 C1162 1.400 . S
C1163 C1164 1.398 . S
C1163 C1169 1.491 . S
C1164 H1155 0.950 . S
C1164 C1163 1.398 . S
C1164 C1165 1.391 . S
C1165 H1153 0.950 . S
C1165 C1161 1.393 . S
C1165 C1164 1.391 . S
C1166 H1156 0.950 . S
C1166 C1167 1.386 . S
C1166 C1168 1.391 . S
C1167 C1166 1.386 . S
C1167 C1171 1.393 . S
C1168 H1157 0.950 . S
C1168 C1166 1.391 . S
C1168 C1169 1.400 . S
C1169 C1163 1.491 . S
C1169 C1168 1.400 . S
C1169 C1170 1.398 . S
C1170 H1158 0.950 . S
C1170 C1169 1.398 . S
C1170 C1171 1.391 . S
C1171 H1159 0.950 . S
C1171 C1167 1.393 . S
C1171 C1170 1.391 . S
H1172 C1180 0.950 . S
H1173 C1185 0.950 . S
H1174 C1182 0.950 . S
H1175 C1184 0.950 . S
H1176 C1186 0.950 . S
H1177 C1188 0.950 . S
H1178 C1190 0.950 . S
H1179 C1191 0.950 . S
C1180 H1172 0.950 . S
C1180 C1181 1.386 . S
C1180 C1182 1.391 . S
C1181 C1180 1.386 . S
C1181 C1185 1.393 . S
C1182 H1174 0.950 . S
C1182 C1180 1.391 . S
C1182 C1183 1.400 . S
C1183 C1182 1.400 . S
C1183 C1184 1.398 . S
C1183 C1189 1.491 1_545 S
C1184 H1175 0.950 . S
C1184 C1183 1.398 . S
C1184 C1185 1.391 . S
C1185 H1173 0.950 . S
C1185 C1181 1.393 . S
C1185 C1184 1.391 . S
C1186 H1176 0.950 . S
C1186 C1187 1.386 . S
C1186 C1188 1.391 . S
C1187 C1186 1.386 . S
C1187 C1191 1.393 . S
C1188 H1177 0.950 . S
C1188 C1186 1.391 . S
C1188 C1189 1.400 . S
C1189 C1183 1.491 1_565 S
C1189 C1188 1.400 . S
C1189 C1190 1.398 . S
C1190 H1178 0.950 . S
C1190 C1189 1.398 . S
C1190 C1191 1.391 . S
C1191 H1179 0.950 . S
C1191 C1187 1.393 . S
C1191 C1190 1.391 . S
H1192 C1200 0.950 . S
H1193 C1205 0.950 . S
H1194 C1202 0.950 . S
H1195 C1204 0.950 1_655 S
H1196 C1206 0.950 . S
H1197 C1208 0.950 . S
H1198 C1210 0.939 1_455 S
H1199 C1211 0.950 . S
C1200 H1192 0.950 . S
C1200 C1201 1.386 . S
C1200 C1202 1.391 . S
C1201 C1200 1.386 . S
C1201 C1205 1.393 . S
C1202 H1194 0.950 . S
C1202 C1200 1.391 . S
C1202 C1203 1.400 . S
C1203 C1202 1.400 . S
C1203 C1204 1.398 . S
C1203 C1209 1.491 1_455 S
C1204 H1195 0.950 1_455 S
C1204 C1203 1.398 . S
C1204 C1205 1.391 . S
C1205 H1193 0.950 . S
C1205 C1201 1.393 . S
C1205 C1204 1.391 . S
C1206 H1196 0.950 . S
C1206 C1207 1.386 . S
C1206 C1208 1.391 . S
C1207 C1206 1.386 . S
C1207 C1211 1.393 . S
C1208 H1197 0.950 . S
C1208 C1206 1.391 . S
C1208 C1209 1.400 . S
C1209 C1203 1.491 1_655 S
C1209 C1208 1.400 . S
C1209 C1210 1.398 . S
C1210 H1198 0.939 1_655 S
C1210 C1209 1.398 . S
C1210 C1211 1.391 . S
C1211 H1199 0.950 . S
C1211 C1207 1.393 . S
C1211 C1210 1.391 . S
H1212 C1220 0.950 . S
H1213 C1225 0.950 . S
H1214 C1222 0.950 . S
H1215 C1224 0.950 . S
H1216 C1226 0.950 . S
H1217 C1228 0.950 . S
H1218 C1230 0.950 . S
H1219 C1231 0.950 . S
C1220 H1212 0.950 . S
C1220 C1221 1.386 . S
C1220 C1222 1.391 . S
C1221 C1220 1.386 . S
C1221 C1225 1.393 . S
C1222 H1214 0.950 . S
C1222 C1220 1.391 . S
C1222 C1223 1.400 . S
C1223 C1222 1.400 . S
C1223 C1224 1.398 . S
C1223 C1229 1.491 . S
C1224 H1215 0.950 . S
C1224 C1223 1.398 . S
C1224 C1225 1.391 . S
C1225 H1213 0.950 . S
C1225 C1221 1.393 . S
C1225 C1224 1.391 . S
C1226 H1216 0.950 . S
C1226 C1227 1.386 . S
C1226 C1228 1.391 . S
C1227 C1226 1.386 . S
C1227 C1231 1.393 . S
C1228 H1217 0.950 . S
C1228 C1226 1.391 . S
C1228 C1229 1.400 . S
C1229 C1223 1.491 . S
C1229 C1228 1.400 . S
C1229 C1230 1.398 . S
C1230 H1218 0.950 . S
C1230 C1229 1.398 . S
C1230 C1231 1.391 . S
C1231 H1219 0.950 . S
C1231 C1227 1.393 . S
C1231 C1230 1.391 . S
H1232 C1240 0.950 . S
H1233 C1245 0.950 . S
H1234 C1242 0.950 . S
H1235 C1244 0.950 . S
H1236 C1246 0.950 . S
H1237 C1248 0.927 1_565 S
H1238 C1250 0.950 . S
H1239 C1251 0.950 . S
C1240 H1232 0.950 . S
C1240 C1241 1.386 . S
C1240 C1242 1.391 . S
C1241 C1240 1.386 . S
C1241 C1245 1.393 . S
C1242 H1234 0.950 . S
C1242 C1240 1.391 . S
C1242 C1243 1.400 . S
C1243 C1242 1.400 . S
C1243 C1244 1.398 . S
C1243 C1249 1.491 1_565 S
C1244 H1235 0.950 . S
C1244 C1243 1.398 . S
C1244 C1245 1.391 . S
C1245 H1233 0.950 . S
C1245 C1241 1.393 . S
C1245 C1244 1.391 . S
C1246 H1236 0.950 . S
C1246 C1247 1.386 . S
C1246 C1248 1.391 . S
C1247 C1246 1.386 . S
C1247 C1251 1.393 . S
C1248 H1237 0.927 1_545 S
C1248 C1246 1.391 . S
C1248 C1249 1.400 . S
C1249 C1243 1.491 1_545 S
C1249 C1248 1.400 . S
C1249 C1250 1.398 . S
C1250 H1238 0.950 . S
C1250 C1249 1.398 . S
C1250 C1251 1.391 . S
C1251 H1239 0.950 . S
C1251 C1247 1.393 . S
C1251 C1250 1.391 . S
H1252 C1260 0.950 . S
H1253 C1265 0.950 . S
H1254 C1262 0.950 1_455 S
H1255 C1264 0.950 . S
H1256 C1266 0.950 . S
H1257 C1268 0.950 1_655 S
H1258 C1270 0.950 . S
H1259 C1271 0.950 . S
C1260 H1252 0.950 . S
C1260 C1261 1.386 . S
C1260 C1262 1.391 . S
C1261 C1260 1.386 . S
C1261 C1265 1.393 . S
C1262 H1254 0.950 1_655 S
C1262 C1260 1.391 . S
C1262 C1263 1.400 . S
C1263 C1262 1.400 . S
C1263 C1264 1.398 . S
C1263 C1269 1.491 1_655 S
C1264 H1255 0.950 . S
C1264 C1263 1.398 . S
C1264 C1265 1.391 . S
C1265 H1253 0.950 . S
C1265 C1261 1.393 . S
C1265 C1264 1.391 . S
C1266 H1256 0.950 . S
C1266 C1267 1.386 . S
C1266 C1268 1.391 . S
C1267 C1266 1.386 . S
C1267 C1271 1.393 . S
C1268 H1257 0.950 1_455 S
C1268 C1266 1.391 . S
C1268 C1269 1.400 . S
C1269 C1263 1.491 1_455 S
C1269 C1268 1.400 . S
C1269 C1270 1.398 . S
C1270 H1258 0.950 . S
C1270 C1269 1.398 . S
C1270 C1271 1.391 . S
C1271 H1259 0.950 . S
C1271 C1267 1.393 . S
C1271 C1270 1.391 . S
H1272 C1280 0.950 . S
H1273 C1285 0.950 . S
H1274 C1282 0.950 . S
H1275 C1284 0.950 . S
H1276 C1286 0.950 . S
H1277 C1288 0.950 . S
H1278 C1290 0.950 . S
H1279 C1291 0.950 . S
C1280 H1272 0.950 . S
C1280 C1281 1.386 . S
C1280 C1282 1.391 . S
C1281 C1280 1.386 . S
C1281 C1285 1.393 . S
C1282 H1274 0.950 . S
C1282 C1280 1.391 . S
C1282 C1283 1.400 . S
C1283 C1282 1.400 . S
C1283 C1284 1.398 . S
C1283 C1289 1.491 . S
C1284 H1275 0.950 . S
C1284 C1283 1.398 . S
C1284 C1285 1.391 . S
C1285 H1273 0.950 . S
C1285 C1281 1.393 . S
C1285 C1284 1.391 . S
C1286 H1276 0.950 . S
C1286 C1287 1.386 . S
C1286 C1288 1.391 . S
C1287 C1286 1.386 . S
C1287 C1291 1.393 . S
C1288 H1277 0.950 . S
C1288 C1286 1.391 . S
C1288 C1289 1.400 . S
C1289 C1283 1.491 . S
C1289 C1288 1.400 . S
C1289 C1290 1.398 . S
C1290 H1278 0.950 . S
C1290 C1289 1.398 . S
C1290 C1291 1.391 . S
C1291 H1279 0.950 . S
C1291 C1287 1.393 . S
C1291 C1290 1.391 . S
H1292 C1300 0.950 . S
H1293 C1305 0.950 . S
H1294 C1302 0.950 . S
H1295 C1304 0.950 . S
H1296 C1306 0.950 . S
H1297 C1308 0.950 . S
H1298 C1310 0.950 . S
H1299 C1311 0.950 . S
C1300 H1292 0.950 . S
C1300 C1301 1.386 . S
C1300 C1302 1.391 . S
C1301 C1300 1.386 . S
C1301 C1305 1.393 . S
C1302 H1294 0.950 . S
C1302 C1300 1.391 . S
C1302 C1303 1.400 . S
C1303 C1302 1.400 . S
C1303 C1304 1.398 . S
C1303 C1309 1.491 . S
C1304 H1295 0.950 . S
C1304 C1303 1.398 . S
C1304 C1305 1.391 . S
C1305 H1293 0.950 . S
C1305 C1301 1.393 . S
C1305 C1304 1.391 . S
C1306 H1296 0.950 . S
C1306 C1307 1.386 . S
C1306 C1308 1.391 . S
C1307 C1306 1.386 . S
C1307 C1311 1.393 . S
C1308 H1297 0.950 . S
C1308 C1306 1.391 . S
C1308 C1309 1.400 . S
C1309 C1303 1.491 . S
C1309 C1308 1.400 . S
C1309 C1310 1.398 . S
C1310 H1298 0.950 . S
C1310 C1309 1.398 . S
C1310 C1311 1.391 . S
C1311 H1299 0.950 . S
C1311 C1307 1.393 . S
C1311 C1310 1.391 . S
H1312 C1320 0.950 . S
H1313 C1325 0.950 . S
H1314 C1322 0.950 . S
H1315 C1324 0.950 . S
H1316 C1326 0.950 . S
H1317 C1328 0.950 . S
H1318 C1330 0.950 . S
H1319 C1331 0.950 . S
C1320 H1312 0.950 . S
C1320 C1321 1.386 . S
C1320 C1322 1.391 . S
C1321 C1320 1.386 . S
C1321 C1325 1.393 . S
C1322 H1314 0.950 . S
C1322 C1320 1.391 . S
C1322 C1323 1.400 . S
C1323 C1322 1.400 . S
C1323 C1324 1.398 . S
C1323 C1329 1.491 . S
C1324 H1315 0.950 . S
C1324 C1323 1.398 . S
C1324 C1325 1.391 . S
C1325 H1313 0.950 . S
C1325 C1321 1.393 . S
C1325 C1324 1.391 . S
C1326 H1316 0.950 . S
C1326 C1327 1.386 . S
C1326 C1328 1.391 . S
C1327 C1326 1.386 . S
C1327 C1331 1.393 . S
C1328 H1317 0.950 . S
C1328 C1326 1.391 . S
C1328 C1329 1.400 . S
C1329 C1323 1.491 . S
C1329 C1328 1.400 . S
C1329 C1330 1.398 . S
C1330 H1318 0.950 . S
C1330 C1329 1.398 . S
C1330 C1331 1.391 . S
C1331 H1319 0.950 . S
C1331 C1327 1.393 . S
C1331 C1330 1.391 . S
H1332 C1340 0.950 . S
H1333 C1345 0.950 . S
H1334 C1342 0.950 . S
H1335 C1344 0.950 . S
H1336 C1346 0.950 . S
H1337 C1348 0.950 . S
H1338 C1350 0.950 . S
H1339 C1351 0.950 . S
C1340 H1332 0.950 . S
C1340 C1341 1.386 . S
C1340 C1342 1.391 . S
C1341 C1340 1.386 . S
C1341 C1345 1.393 . S
C1342 H1334 0.950 . S
C1342 C1340 1.391 . S
C1342 C1343 1.400 . S
C1343 C1342 1.400 . S
C1343 C1344 1.398 . S
C1343 C1349 1.491 . S
C1344 H1335 0.950 . S
C1344 C1343 1.398 . S
C1344 C1345 1.391 . S
C1345 H1333 0.950 . S
C1345 C1341 1.393 . S
C1345 C1344 1.391 . S
C1346 H1336 0.950 . S
C1346 C1347 1.386 . S
C1346 C1348 1.391 . S
C1347 C1346 1.386 . S
C1347 C1351 1.393 . S
C1348 H1337 0.950 . S
C1348 C1346 1.391 . S
C1348 C1349 1.400 . S
C1349 C1343 1.491 . S
C1349 C1348 1.400 . S
C1349 C1350 1.398 . S
C1350 H1338 0.950 . S
C1350 C1349 1.398 . S
C1350 C1351 1.391 . S
C1351 H1339 0.950 . S
C1351 C1347 1.393 . S
C1351 C1350 1.391 . S
H1352 C1360 0.950 . S
H1353 C1365 0.950 . S
H1354 C1362 0.950 . S
H1355 C1364 0.950 . S
H1356 C1366 0.950 . S
H1357 C1368 0.950 . S
H1358 C1370 0.950 . S
H1359 C1371 0.950 . S
C1360 H1352 0.950 . S
C1360 C1361 1.386 . S
C1360 C1362 1.391 . S
C1361 C1360 1.386 . S
C1361 C1365 1.393 . S
C1362 H1354 0.950 . S
C1362 C1360 1.391 . S
C1362 C1363 1.400 . S
C1363 C1362 1.400 . S
C1363 C1364 1.398 . S
C1363 C1369 1.491 . S
C1364 H1355 0.950 . S
C1364 C1363 1.398 . S
C1364 C1365 1.391 . S
C1365 H1353 0.950 . S
C1365 C1361 1.393 . S
C1365 C1364 1.391 . S
C1366 H1356 0.950 . S
C1366 C1367 1.386 . S
C1366 C1368 1.391 . S
C1367 C1366 1.386 . S
C1367 C1371 1.393 . S
C1368 H1357 0.950 . S
C1368 C1366 1.391 . S
C1368 C1369 1.400 . S
C1369 C1363 1.491 . S
C1369 C1368 1.400 . S
C1369 C1370 1.398 . S
C1370 H1358 0.950 . S
C1370 C1369 1.398 . S
C1370 C1371 1.391 . S
C1371 H1359 0.950 . S
C1371 C1367 1.393 . S
C1371 C1370 1.391 . S
H1372 C1380 0.950 . S
H1373 C1385 0.950 . S
H1374 C1382 0.950 . S
H1375 C1384 0.950 . S
H1376 C1386 0.950 . S
H1377 C1388 0.950 . S
H1378 C1390 0.950 . S
H1379 C1391 0.950 . S
C1380 H1372 0.950 . S
C1380 C1381 1.386 . S
C1380 C1382 1.391 . S
C1381 C1380 1.386 . S
C1381 C1385 1.393 . S
C1382 H1374 0.950 . S
C1382 C1380 1.391 . S
C1382 C1383 1.400 . S
C1383 C1382 1.400 . S
C1383 C1384 1.398 . S
C1383 C1389 1.491 . S
C1384 H1375 0.950 . S
C1384 C1383 1.398 . S
C1384 C1385 1.391 . S
C1385 H1373 0.950 . S
C1385 C1381 1.393 . S
C1385 C1384 1.391 . S
C1386 H1376 0.950 . S
C1386 C1387 1.386 . S
C1386 C1388 1.391 . S
C1387 C1386 1.386 . S
C1387 C1391 1.393 . S
C1388 H1377 0.950 . S
C1388 C1386 1.391 . S
C1388 C1389 1.400 . S
C1389 C1383 1.491 . S
C1389 C1388 1.400 . S
C1389 C1390 1.398 . S
C1390 H1378 0.950 . S
C1390 C1389 1.398 . S
C1390 C1391 1.391 . S
C1391 H1379 0.950 . S
C1391 C1387 1.393 . S
C1391 C1390 1.391 . S
H1392 C1400 0.950 . S
H1393 C1405 0.950 . S
H1394 C1402 0.950 . S
H1395 C1404 0.950 . S
H1396 C1406 0.950 . S
H1397 C1408 0.950 . S
H1398 C1410 0.950 . S
H1399 C1411 0.950 . S
C1400 H1392 0.950 . S
C1400 C1401 1.386 . S
C1400 C1402 1.391 . S
C1401 C1400 1.386 . S
C1401 C1405 1.393 . S
C1402 H1394 0.950 . S
C1402 C1400 1.391 . S
C1402 C1403 1.400 . S
C1403 C1402 1.400 . S
C1403 C1404 1.398 . S
C1403 C1409 1.491 . S
C1404 H1395 0.950 . S
C1404 C1403 1.398 . S
C1404 C1405 1.391 . S
C1405 H1393 0.950 . S
C1405 C1401 1.393 . S
C1405 C1404 1.391 . S
C1406 H1396 0.950 . S
C1406 C1407 1.386 . S
C1406 C1408 1.391 . S
C1407 C1406 1.386 . S
C1407 C1411 1.393 . S
C1408 H1397 0.950 . S
C1408 C1406 1.391 . S
C1408 C1409 1.400 . S
C1409 C1403 1.491 . S
C1409 C1408 1.400 . S
C1409 C1410 1.398 . S
C1410 H1398 0.950 . S
C1410 C1409 1.398 . S
C1410 C1411 1.391 . S
C1411 H1399 0.950 . S
C1411 C1407 1.393 . S
C1411 C1410 1.391 . S
H1412 C1420 0.950 . S
H1413 C1425 0.950 . S
H1414 C1422 0.950 . S
H1415 C1424 0.950 . S
H1416 C1426 0.950 . S
H1417 C1428 0.950 . S
H1418 C1430 0.950 . S
H1419 C1431 0.950 . S
C1420 H1412 0.950 . S
C1420 C1421 1.386 . S
C1420 C1422 1.391 . S
C1421 C1420 1.386 . S
C1421 C1425 1.393 . S
C1422 H1414 0.950 . S
C1422 C1420 1.391 . S
C1422 C1423 1.400 . S
C1423 C1422 1.400 . S
C1423 C1424 1.398 . S
C1423 C1429 1.491 . S
C1424 H1415 0.950 . S
C1424 C1423 1.398 . S
C1424 C1425 1.391 . S
C1425 H1413 0.950 . S
C1425 C1421 1.393 . S
C1425 C1424 1.391 . S
C1426 H1416 0.950 . S
C1426 C1427 1.386 . S
C1426 C1428 1.391 . S
C1427 C1426 1.386 . S
C1427 C1431 1.393 . S
C1428 H1417 0.950 . S
C1428 C1426 1.391 . S
C1428 C1429 1.400 . S
C1429 C1423 1.491 . S
C1429 C1428 1.400 . S
C1429 C1430 1.398 . S
C1430 H1418 0.950 . S
C1430 C1429 1.398 . S
C1430 C1431 1.391 . S
C1431 H1419 0.950 . S
C1431 C1427 1.393 . S
C1431 C1430 1.391 . S
H1432 C1440 0.950 . S
H1433 C1445 0.950 . S
H1434 C1442 0.950 . S
H1435 C1444 0.950 . S
H1436 C1446 0.950 . S
H1437 C1448 0.950 . S
H1438 C1450 0.950 . S
H1439 C1451 0.950 . S
C1440 H1432 0.950 . S
C1440 C1441 1.386 . S
C1440 C1442 1.391 . S
C1441 C1440 1.386 . S
C1441 C1445 1.393 . S
C1442 H1434 0.950 . S
C1442 C1440 1.391 . S
C1442 C1443 1.400 . S
C1443 C1442 1.400 . S
C1443 C1444 1.398 . S
C1443 C1449 1.491 . S
C1444 H1435 0.950 . S
C1444 C1443 1.398 . S
C1444 C1445 1.391 . S
C1445 H1433 0.950 . S
C1445 C1441 1.393 . S
C1445 C1444 1.391 . S
C1446 H1436 0.950 . S
C1446 C1447 1.386 . S
C1446 C1448 1.391 . S
C1447 C1446 1.386 . S
C1447 C1451 1.393 . S
C1448 H1437 0.950 . S
C1448 C1446 1.391 . S
C1448 C1449 1.400 . S
C1449 C1443 1.491 . S
C1449 C1448 1.400 . S
C1449 C1450 1.398 . S
C1450 H1438 0.950 . S
C1450 C1449 1.398 . S
C1450 C1451 1.391 . S
C1451 H1439 0.950 . S
C1451 C1447 1.393 . S
C1451 C1450 1.391 . S
H1452 C1460 0.950 . S
H1453 C1465 0.950 . S
H1454 C1462 0.950 . S
H1455 C1464 0.950 . S
H1456 C1466 0.950 . S
H1457 C1468 0.950 . S
H1458 C1470 0.950 . S
H1459 C1471 0.950 . S
C1460 H1452 0.950 . S
C1460 C1461 1.386 . S
C1460 C1462 1.391 . S
C1461 C1460 1.386 . S
C1461 C1465 1.393 . S
C1462 H1454 0.950 . S
C1462 C1460 1.391 . S
C1462 C1463 1.400 . S
C1463 C1462 1.400 . S
C1463 C1464 1.398 . S
C1463 C1469 1.491 . S
C1464 H1455 0.950 . S
C1464 C1463 1.398 . S
C1464 C1465 1.391 . S
C1465 H1453 0.950 . S
C1465 C1461 1.393 . S
C1465 C1464 1.391 . S
C1466 H1456 0.950 . S
C1466 C1467 1.386 . S
C1466 C1468 1.391 . S
C1467 C1466 1.386 . S
C1467 C1471 1.393 . S
C1468 H1457 0.950 . S
C1468 C1466 1.391 . S
C1468 C1469 1.400 . S
C1469 C1463 1.491 . S
C1469 C1468 1.400 . S
C1469 C1470 1.398 . S
C1470 H1458 0.950 . S
C1470 C1469 1.398 . S
C1470 C1471 1.391 . S
C1471 H1459 0.950 . S
C1471 C1467 1.393 . S
C1471 C1470 1.391 . S
H1472 C1480 0.950 . S
H1473 C1485 0.950 . S
H1474 C1482 0.950 . S
H1475 C1484 0.950 . S
H1476 C1486 0.950 . S
H1477 C1488 0.950 . S
H1478 C1490 0.950 . S
H1479 C1491 0.950 . S
C1480 H1472 0.950 . S
C1480 C1481 1.386 . S
C1480 C1482 1.391 . S
C1481 C1480 1.386 . S
C1481 C1485 1.393 . S
C1482 H1474 0.950 . S
C1482 C1480 1.391 . S
C1482 C1483 1.400 . S
C1483 C1482 1.400 . S
C1483 C1484 1.398 . S
C1483 C1489 1.491 . S
C1484 H1475 0.950 . S
C1484 C1483 1.398 . S
C1484 C1485 1.391 . S
C1485 H1473 0.950 . S
C1485 C1481 1.393 . S
C1485 C1484 1.391 . S
C1486 H1476 0.950 . S
C1486 C1487 1.386 . S
C1486 C1488 1.391 . S
C1487 C1486 1.386 . S
C1487 C1491 1.393 . S
C1488 H1477 0.950 . S
C1488 C1486 1.391 . S
C1488 C1489 1.400 . S
C1489 C1483 1.491 . S
C1489 C1488 1.400 . S
C1489 C1490 1.398 . S
C1490 H1478 0.950 . S
C1490 C1489 1.398 . S
C1490 C1491 1.391 . S
C1491 H1479 0.950 . S
C1491 C1487 1.393 . S
C1491 C1490 1.391 . S
H1492 C1500 0.950 . S
H1493 C1505 0.950 . S
H1494 C1502 0.950 . S
H1495 C1504 0.950 . S
H1496 C1506 0.950 . S
H1497 C1508 0.950 . S
H1498 C1510 0.950 . S
H1499 C1511 0.950 . S
C1500 H1492 0.950 . S
C1500 C1501 1.386 . S
C1500 C1502 1.391 . S
C1501 C1500 1.386 . S
C1501 C1505 1.393 . S
C1502 H1494 0.950 . S
C1502 C1500 1.391 . S
C1502 C1503 1.400 . S
C1503 C1502 1.400 . S
C1503 C1504 1.398 . S
C1503 C1509 1.491 . S
C1504 H1495 0.950 . S
C1504 C1503 1.398 . S
C1504 C1505 1.391 . S
C1505 H1493 0.950 . S
C1505 C1501 1.393 . S
C1505 C1504 1.391 . S
C1506 H1496 0.950 . S
C1506 C1507 1.386 . S
C1506 C1508 1.391 . S
C1507 C1506 1.386 . S
C1507 C1511 1.393 . S
C1508 H1497 0.950 . S
C1508 C1506 1.391 . S
C1508 C1509 1.400 . S
C1509 C1503 1.491 . S
C1509 C1508 1.400 . S
C1509 C1510 1.398 . S
C1510 H1498 0.950 . S
C1510 C1509 1.398 . S
C1510 C1511 1.391 . S
C1511 H1499 0.950 . S
C1511 C1507 1.393 . S
C1511 C1510 1.391 . S
C621 C122 2.330 . S
C627 C20 2.334 . S
C641 C156 2.331 . S
C647 C54 2.333 . S
C661 C88 2.331 . S
C667 C190 2.333 . S
C681 C43 0.625 . S
C687 C179 0.644 . S
C701 C111 0.629 . S
C707 C77 0.623 . S
C721 C145 0.639 . S
C727 C9 0.623 . S
C741 C224 2.334 . S
C747 C326 2.331 . S
C761 C360 2.333 . S
C767 C258 2.331 . S
C781 C292 2.333 . S
C787 C394 2.331 . S
C801 C383 0.654 . S
C807 C247 0.647 . S
C821 C315 0.649 . S
C827 C281 0.653 . S
C841 C349 0.649 . S
C847 C213 0.629 . S
C861 C530 2.334 . S
C867 C428 2.330 . S
C881 C462 2.332 . S
C887 C564 2.333 . S
C901 C598 2.334 . S
C907 C496 2.331 . S
C921 C451 0.640 . S
C927 C587 0.623 . S
C941 C519 0.623 . S
C947 C485 0.630 . S
C961 C417 0.654 . S
C967 C553 0.638 . S
C981 C611 0.889 . S
C987 C33 0.891 . S
C1001 C67 0.890 . S
C1007 C543 0.892 . S
C1021 C577 0.891 . S
C1027 C101 0.889 . S
C1041 C271 0.893 . S
C1047 C135 0.893 . S
C1061 C169 0.893 . S
C1067 C305 0.891 . S
C1081 C203 0.893 . S
C1087 C237 0.890 . S
C1101 C475 0.893 . S
C1107 C339 0.891 . S
C1121 C509 0.889 . S
C1127 C373 0.889 . S
C1141 C407 0.890 . S
C1147 C441 0.889 . S
C1161 C5 1.180 . S
C1167 C107 1.190 . S
C1181 C141 1.189 . S
C1187 C39 1.203 . S
C1201 C73 1.177 . S
C1207 C175 1.195 . S
C1221 C172 2.911 . S
C1227 C36 2.914 . S
C1241 C70 2.911 . S
C1247 C104 2.912 . S
C1261 C138 2.911 . S
C1267 C2 2.914 . S
C1281 C209 1.176 . S
C1287 C311 1.205 . S
C1301 C345 1.181 . S
C1307 C243 1.190 . S
C1321 C379 1.181 . S
C1327 C277 1.190 . S
C1341 C376 2.912 1_556 S
C1347 C240 2.912 . S
C1361 C308 2.913 1_556 S
C1367 C274 2.913 . S
C1381 C342 2.914 1_556 S
C1387 C206 2.912 . S
C1401 C515 1.175 . S
C1407 C413 1.204 . S
C1421 C549 1.206 . S
C1427 C447 1.177 . S
C1441 C583 1.176 . S
C1447 C481 1.197 . S
C1461 C580 2.914 . S
C1467 C444 2.912 1_554 S
C1481 C512 2.911 . S
C1487 C478 2.914 1_554 S
C1501 C546 2.911 . S
C1507 C410 2.914 1_554 S
