# Generated by pormake.
# Topology atn, (4)-cn, num edge types: 1
# Building blocks:
#     Node 0, Type 0, BuildingBlock: QUQFOY_clean_sbu_3, # of connection points: 4
#     Node 1, Type 0, BuildingBlock: QUQFOY_clean_sbu_3, # of connection points: 4
#     Node 2, Type 0, BuildingBlock: QUQFOY_clean_sbu_3, # of connection points: 4
#     Node 3, Type 0, BuildingBlock: QUQFOY_clean_sbu_3, # of connection points: 4
#     Node 4, Type 0, BuildingBlock: QUQFOY_clean_sbu_3, # of connection points: 4
#     Node 5, Type 0, BuildingBlock: QUQFOY_clean_sbu_3, # of connection points: 4
#     Node 6, Type 0, BuildingBlock: QUQFOY_clean_sbu_3, # of connection points: 4
#     Node 7, Type 0, BuildingBlock: QUQFOY_clean_sbu_3, # of connection points: 4
#     Node 8, Type 0, BuildingBlock: QUQFOY_clean_sbu_3, # of connection points: 4
#     Node 9, Type 0, BuildingBlock: QUQFOY_clean_sbu_3, # of connection points: 4
#     Node 10, Type 0, BuildingBlock: QUQFOY_clean_sbu_3, # of connection points: 4
#     Node 11, Type 0, BuildingBlock: QUQFOY_clean_sbu_3, # of connection points: 4
#     Node 12, Type 0, BuildingBlock: QUQFOY_clean_sbu_3, # of connection points: 4
#     Node 13, Type 0, BuildingBlock: QUQFOY_clean_sbu_3, # of connection points: 4
#     Node 14, Type 0, BuildingBlock: QUQFOY_clean_sbu_3, # of connection points: 4
#     Node 15, Type 0, BuildingBlock: QUQFOY_clean_sbu_3, # of connection points: 4
#     Edge 16, Type (0, 0), BuildingBlock: MIFKUJ_clean_linker_0, # of connection points: 2
#     Edge 17, Type (0, 0), BuildingBlock: MIFKUJ_clean_linker_0, # of connection points: 2
#     Edge 18, Type (0, 0), BuildingBlock: MIFKUJ_clean_linker_0, # of connection points: 2
#     Edge 19, Type (0, 0), BuildingBlock: MIFKUJ_clean_linker_0, # of connection points: 2
#     Edge 20, Type (0, 0), BuildingBlock: MIFKUJ_clean_linker_0, # of connection points: 2
#     Edge 21, Type (0, 0), BuildingBlock: MIFKUJ_clean_linker_0, # of connection points: 2
#     Edge 22, Type (0, 0), BuildingBlock: MIFKUJ_clean_linker_0, # of connection points: 2
#     Edge 23, Type (0, 0), BuildingBlock: MIFKUJ_clean_linker_0, # of connection points: 2
#     Edge 24, Type (0, 0), BuildingBlock: MIFKUJ_clean_linker_0, # of connection points: 2
#     Edge 25, Type (0, 0), BuildingBlock: MIFKUJ_clean_linker_0, # of connection points: 2
#     Edge 26, Type (0, 0), BuildingBlock: MIFKUJ_clean_linker_0, # of connection points: 2
#     Edge 27, Type (0, 0), BuildingBlock: MIFKUJ_clean_linker_0, # of connection points: 2
#     Edge 28, Type (0, 0), BuildingBlock: MIFKUJ_clean_linker_0, # of connection points: 2
#     Edge 29, Type (0, 0), BuildingBlock: MIFKUJ_clean_linker_0, # of connection points: 2
#     Edge 30, Type (0, 0), BuildingBlock: MIFKUJ_clean_linker_0, # of connection points: 2
#     Edge 31, Type (0, 0), BuildingBlock: MIFKUJ_clean_linker_0, # of connection points: 2
#     Edge 32, Type (0, 0), BuildingBlock: MIFKUJ_clean_linker_0, # of connection points: 2
#     Edge 33, Type (0, 0), BuildingBlock: MIFKUJ_clean_linker_0, # of connection points: 2
#     Edge 34, Type (0, 0), BuildingBlock: MIFKUJ_clean_linker_0, # of connection points: 2
#     Edge 35, Type (0, 0), BuildingBlock: MIFKUJ_clean_linker_0, # of connection points: 2
#     Edge 36, Type (0, 0), BuildingBlock: MIFKUJ_clean_linker_0, # of connection points: 2
#     Edge 37, Type (0, 0), BuildingBlock: MIFKUJ_clean_linker_0, # of connection points: 2
#     Edge 38, Type (0, 0), BuildingBlock: MIFKUJ_clean_linker_0, # of connection points: 2
#     Edge 39, Type (0, 0), BuildingBlock: MIFKUJ_clean_linker_0, # of connection points: 2
#     Edge 40, Type (0, 0), BuildingBlock: MIFKUJ_clean_linker_0, # of connection points: 2
#     Edge 41, Type (0, 0), BuildingBlock: MIFKUJ_clean_linker_0, # of connection points: 2
#     Edge 42, Type (0, 0), BuildingBlock: MIFKUJ_clean_linker_0, # of connection points: 2
#     Edge 43, Type (0, 0), BuildingBlock: MIFKUJ_clean_linker_0, # of connection points: 2
#     Edge 44, Type (0, 0), BuildingBlock: MIFKUJ_clean_linker_0, # of connection points: 2
#     Edge 45, Type (0, 0), BuildingBlock: MIFKUJ_clean_linker_0, # of connection points: 2
#     Edge 46, Type (0, 0), BuildingBlock: MIFKUJ_clean_linker_0, # of connection points: 2
#     Edge 47, Type (0, 0), BuildingBlock: MIFKUJ_clean_linker_0, # of connection points: 2
# Relax obj value: 0.028
# Max RMSD: 0.057
# Mean RMSD: 0.057
data_MOF--net-atn--node1-QUQFOY_clean_sbu_3--edge1-MIFKUJ_clean_linker_0
_symmetry_space_group_name_H-M    P1
_symmetry_Int_Tables_number       1
_symmetry_cell_setting            triclinic
loop_
_symmetry_equiv_pos_as_xyz
'x, y, z'
_cell_length_a     79.700103
_cell_length_b     79.714746
_cell_length_c     36.469508
_cell_angle_alpha  89.958914
_cell_angle_beta   90.023767
_cell_angle_gamma 89.915305
loop_
_atom_site_label
_atom_site_type_symbol
_atom_site_fract_x
_atom_site_fract_y
_atom_site_fract_z
_atom_type_partial_charge
C0 C 0.16657 0.35465 0.92954 0.0
O1 O 0.15915 0.34482 0.95162 0.0
Cd2 Cd 0.16518 0.34294 0.01576 0.0
O3 O 0.17762 0.36495 0.94103 0.0
Cd4 Cd 0.1907 0.37405 -0.0005 0.0
C5 C 0.20779 0.33533 0.01077 0.0
O6 O 0.16538 0.37141 0.03548 0.0
O7 O 0.18768 0.37702 0.0663 0.0
O8 O 0.18892 0.40234 0.97541 0.0
C9 C 0.17199 0.37451 0.06626 0.0
O10 O 0.19307 0.33016 0.01832 0.0
C11 C 0.20376 0.40653 0.98412 0.0
O12 O 0.21035 0.35055 0.00164 0.0
O13 O 0.21284 0.39534 -0.0009 0.0
C14 C 0.63422 0.16825 0.92497 0.0
O15 O 0.64457 0.16198 0.94767 0.0
Cd16 Cd 0.64715 0.17062 0.00993 0.0
O17 O 0.62369 0.17941 0.93504 0.0
Cd18 Cd 0.61475 0.19431 -0.00822 0.0
C19 C 0.65278 0.21316 -0.00447 0.0
O20 O 0.61892 0.17033 0.031 0.0
O21 O 0.61295 0.1932 0.05937 0.0
O22 O 0.58639 0.19057 0.96923 0.0
C23 C 0.61598 0.17761 0.06109 0.0
O24 O 0.65869 0.19893 0.00489 0.0
C25 C 0.58148 0.20534 0.97657 0.0
O26 O 0.63725 0.21497 0.98821 0.0
O27 O 0.59227 0.21529 -0.0099 0.0
C28 C 0.82559 0.6336 0.92176 0.0
O29 O 0.83169 0.64469 0.94284 0.0
Cd30 Cd 0.82295 0.64887 0.00458 0.0
O31 O 0.81462 0.6233 0.93353 0.0
Cd32 Cd 0.80014 0.6169 -0.0077 0.0
C33 C 0.78046 0.65425 -0.00987 0.0
O34 O 0.82338 0.62208 0.03384 0.0
O35 O 0.79884 0.62099 0.05866 0.0
O36 O 0.80546 0.58727 0.98485 0.0
C37 C 0.81462 0.62171 0.06278 0.0
O38 O 0.79462 0.66038 -0.00082 0.0
C39 C 0.79031 0.58262 0.98791 0.0
O40 O 0.77884 0.6386 0.98407 0.0
O41 O 0.77935 0.5941 -0.00849 0.0
C42 C 0.35376 0.82526 0.93579 0.0
O43 O 0.34309 0.83155 0.95767 0.0
Cd44 Cd 0.33919 0.82158 0.01861 0.0
O45 O 0.36365 0.81365 0.94644 0.0
Cd46 Cd 0.37032 0.79804 0.00367 0.0
C47 C 0.33236 0.7796 0.00106 0.0
O48 O 0.3665 0.82118 0.04584 0.0
O49 O 0.36747 0.79659 0.07052 0.0
O50 O 0.39987 0.8025 -0.00728 0.0
C51 C 0.36733 0.81238 0.07468 0.0
O52 O 0.3266 0.7938 0.01103 0.0
C53 C 0.40423 0.78724 -0.0043 0.0
O54 O 0.34797 0.77762 -0.00504 0.0
O55 O 0.3926 0.77664 0.00101 0.0
C56 C 0.16592 0.63438 0.04686 0.0
O57 O 0.1586 0.64398 0.02407 0.0
Cd58 Cd 0.16451 0.64444 0.95978 0.0
O59 O 0.17678 0.62371 0.03607 0.0
Cd60 Cd 0.18969 0.61374 0.97815 0.0
C61 C 0.20695 0.65215 0.9646 0.0
O62 O 0.16425 0.61563 0.94197 0.0
O63 O 0.18668 0.60996 0.91159 0.0
O64 O 0.18829 0.58572 0.00401 0.0
C65 C 0.17092 0.61205 0.91149 0.0
O66 O 0.1923 0.65727 0.95615 0.0
C67 C 0.20314 0.58156 -0.00476 0.0
O68 O 0.20938 0.63708 0.97497 0.0
O69 O 0.21202 0.59264 0.97947 0.0
C70 C 0.3539 0.16359 0.0446 0.0
O71 O 0.34404 0.15673 0.02177 0.0
Cd72 Cd 0.34147 0.16608 0.95989 0.0
O73 O 0.36385 0.1752 0.03441 0.0
Cd74 Cd 0.3721 0.19008 0.97728 0.0
C75 C 0.33395 0.2081 0.97651 0.0
O76 O 0.36925 0.16671 0.93491 0.0
O77 O 0.37054 0.19129 0.91038 0.0
O78 O 0.40108 0.18686 -0.0035 0.0
C79 C 0.3703 0.17552 0.90608 0.0
O80 O 0.3285 0.19388 0.9659 0.0
C81 C 0.40532 0.20191 -0.01009 0.0
O82 O 0.3494 0.21016 0.98411 0.0
O83 O 0.39392 0.2117 0.97821 0.0
C84 C 0.82558 0.35228 0.04781 0.0
O85 O 0.83139 0.34206 0.02428 0.0
Cd86 Cd 0.82398 0.34176 0.96064 0.0
O87 O 0.81522 0.36372 0.03842 0.0
Cd88 Cd 0.8009 0.37461 0.98294 0.0
C89 C 0.78108 0.3373 0.97018 0.0
O90 O 0.82471 0.37049 0.94324 0.0
O91 O 0.8022 0.37878 0.91616 0.0
O92 O 0.80508 0.40261 0.00705 0.0
C93 C 0.81752 0.37464 0.91367 0.0
O94 O 0.79522 0.3313 0.96039 0.0
C95 C 0.79001 0.4074 0.00261 0.0
O96 O 0.77977 0.35243 0.98106 0.0
O97 O 0.77976 0.3967 -0.01018 0.0
C98 C 0.63416 0.82133 0.04955 0.0
O99 O 0.64365 0.8281 0.02579 0.0
Cd100 Cd 0.64405 0.82099 0.96204 0.0
O101 O 0.62332 0.81038 0.04019 0.0
Cd102 Cd 0.61235 0.79629 0.98445 0.0
C103 C 0.65046 0.77816 0.97096 0.0
O104 O 0.61527 0.82053 0.94548 0.0
O105 O 0.60774 0.79795 0.9178 0.0
O106 O 0.58461 0.80008 0.01007 0.0
C107 C 0.61122 0.81342 0.91579 0.0
O108 O 0.65571 0.79266 0.96173 0.0
C109 C 0.57976 0.78511 0.00488 0.0
O110 O 0.63539 0.77598 0.9816 0.0
O111 O 0.59037 0.77499 -0.00886 0.0
C112 C 0.66549 0.8487 0.43179 0.0
O113 O 0.66007 0.83772 0.45408 0.0
Cd114 Cd 0.66697 0.83668 0.51798 0.0
O115 O 0.67509 0.86044 0.44277 0.0
Cd116 Cd 0.68798 0.87016 0.50078 0.0
C117 C 0.70979 0.83389 0.51029 0.0
O118 O 0.66371 0.86477 0.53879 0.0
O119 O 0.68614 0.87151 0.56816 0.0
O120 O 0.68244 0.89884 0.48258 0.0
C121 C 0.67061 0.86811 0.56914 0.0
O122 O 0.69608 0.82721 0.52067 0.0
C123 C 0.69727 0.9041 0.48793 0.0
O124 O 0.71021 0.84904 0.49921 0.0
O125 O 0.70811 0.89333 0.49794 0.0
C126 C 0.13944 0.66235 0.43132 0.0
O127 O 0.14917 0.65544 0.45448 0.0
Cd128 Cd 0.14933 0.66167 0.51864 0.0
O129 O 0.12844 0.67299 0.44163 0.0
Cd130 Cd 0.11807 0.68604 0.49916 0.0
C131 C 0.15597 0.70428 0.51277 0.0
O132 O 0.12048 0.66064 0.53601 0.0
O133 O 0.11347 0.68303 0.5652 0.0
O134 O 0.09065 0.68486 0.46971 0.0
C135 C 0.11624 0.6674 0.56599 0.0
O136 O 0.16138 0.68977 0.52154 0.0
C137 C 0.08572 0.69897 0.48173 0.0
O138 O 0.14088 0.70636 0.50223 0.0
O139 O 0.09609 0.70737 0.50072 0.0
C140 C 0.32237 0.13496 0.42611 0.0
O141 O 0.32888 0.1447 0.44967 0.0
Cd142 Cd 0.3209 0.14546 0.51271 0.0
O143 O 0.31133 0.12423 0.43561 0.0
Cd144 Cd 0.29706 0.11431 0.49228 0.0
C145 C 0.27827 0.15197 0.50168 0.0
O146 O 0.32125 0.11694 0.53266 0.0
O147 O 0.29751 0.11276 0.55921 0.0
O148 O 0.29998 0.08636 0.46638 0.0
C149 C 0.31326 0.11437 0.56213 0.0
O150 O 0.29257 0.15737 0.51189 0.0
C151 C 0.28548 0.08138 0.47576 0.0
O152 O 0.27641 0.13685 0.4912 0.0
O153 O 0.27609 0.09192 0.49196 0.0
C154 C 0.85262 0.31968 0.42936 0.0
O155 O 0.84221 0.3262 0.45155 0.0
Cd156 Cd 0.83945 0.3185 0.51446 0.0
O157 O 0.86326 0.3088 0.44028 0.0
Cd158 Cd 0.87231 0.29515 0.49842 0.0
C159 C 0.83479 0.27553 0.50431 0.0
O160 O 0.86739 0.31932 0.53673 0.0
O161 O 0.87344 0.29662 0.56589 0.0
O162 O 0.90092 0.30046 0.48009 0.0
C163 C 0.87019 0.31218 0.56709 0.0
O164 O 0.82873 0.28986 0.51243 0.0
C165 C 0.90628 0.28571 0.48599 0.0
O166 O 0.85029 0.27381 0.49662 0.0
O167 O 0.89556 0.2749 0.49626 0.0
C168 C 0.66131 0.13559 0.54433 0.0
O169 O 0.65563 0.14634 0.52174 0.0
Cd170 Cd 0.66382 0.14822 0.45872 0.0
O171 O 0.67166 0.12433 0.53399 0.0
Cd172 Cd 0.68599 0.11432 0.47775 0.0
C173 C 0.70672 0.15145 0.47138 0.0
O174 O 0.66251 0.11999 0.43802 0.0
O175 O 0.68488 0.11157 0.41054 0.0
O176 O 0.68063 0.08602 0.49877 0.0
C177 C 0.66969 0.11618 0.40826 0.0
O178 O 0.69279 0.15805 0.46206 0.0
C179 C 0.69555 0.08079 0.49447 0.0
O180 O 0.70768 0.13594 0.47964 0.0
O181 O 0.70629 0.09137 0.48323 0.0
C182 C 0.85365 0.66356 0.54193 0.0
O183 O 0.84338 0.65915 0.51713 0.0
Cd184 Cd 0.84443 0.66828 0.45469 0.0
O185 O 0.8655 0.6738 0.53487 0.0
Cd186 Cd 0.87564 0.69007 0.48127 0.0
C187 C 0.83874 0.71026 0.47084 0.0
O188 O 0.87325 0.66726 0.43736 0.0
O189 O 0.87729 0.69177 0.41435 0.0
O190 O 0.9038 0.68637 0.50578 0.0
C191 C 0.87608 0.67611 0.40923 0.0
O192 O 0.83354 0.69694 0.45528 0.0
C193 C 0.90868 0.70113 0.49833 0.0
O194 O 0.85314 0.7108 0.48595 0.0
O195 O 0.89792 0.71103 0.48446 0.0
C196 C 0.32478 0.85446 0.55591 0.0
O197 O 0.33158 0.84449 0.53319 0.0
Cd198 Cd 0.32284 0.84145 0.47127 0.0
O199 O 0.31295 0.86425 0.5459 0.0
Cd200 Cd 0.29759 0.87182 0.48868 0.0
C201 C 0.28075 0.83313 0.48585 0.0
O202 O 0.32187 0.86952 0.44877 0.0
O203 O 0.29802 0.87166 0.42153 0.0
O204 O 0.29912 0.9004 0.51154 0.0
C205 C 0.31385 0.87106 0.41902 0.0
O206 O 0.29525 0.82814 0.47592 0.0
C207 C 0.28463 0.90469 0.5005 0.0
O208 O 0.27811 0.84846 0.49377 0.0
O209 O 0.2758 0.89346 0.48516 0.0
C210 C 0.13783 0.32579 0.54734 0.0
O211 O 0.14818 0.33142 0.52391 0.0
Cd212 Cd 0.14926 0.32286 0.4612 0.0
O213 O 0.12655 0.31528 0.53798 0.0
Cd214 Cd 0.11635 0.30066 0.48211 0.0
C215 C 0.1536 0.28024 0.4751 0.0
O216 O 0.12085 0.32408 0.44119 0.0
O217 O 0.11345 0.30106 0.4149 0.0
O218 O 0.08795 0.30589 0.50284 0.0
C219 C 0.11705 0.31648 0.41192 0.0
O220 O 0.15986 0.29419 0.46496 0.0
C221 C 0.08294 0.29086 0.49944 0.0
O222 O 0.13819 0.27912 0.48399 0.0
O223 O 0.09371 0.28011 0.48904 0.0
H224 H 0.2323 0.56761 0.96968 0.0
H225 H 0.23979 0.53779 0.96954 0.0
H226 H 0.1949 0.52648 0.03074 0.0
H227 H 0.18742 0.55614 0.03132 0.0
H228 H 0.22087 0.5068 0.05243 0.0
H229 H 0.19467 0.52491 0.93831 0.0
H230 H 0.19279 0.54222 0.88234 0.0
H231 H 0.24096 0.5241 0.84734 0.0
H232 H 0.24319 0.50684 0.9034 0.0
H233 H 0.1876 0.43208 0.94937 0.0
H234 H 0.19482 0.46177 0.9505 0.0
H235 H 0.24012 0.45041 0.01045 0.0
H236 H 0.23286 0.42054 0.00977 0.0
H237 H 0.22041 0.48144 0.92816 0.0
H238 H 0.24407 0.48153 0.07623 0.0
H239 H 0.24248 0.46428 0.1324 0.0
H240 H 0.19416 0.44589 0.09944 0.0
H241 H 0.19538 0.46318 0.04337 0.0
C242 C 0.22422 0.5588 0.98378 0.0
C243 C 0.20916 0.56417 0.00013 0.0
C244 C 0.22851 0.54178 0.9836 0.0
C245 C 0.21779 0.52993 -0.00028 0.0
C246 C 0.20335 0.53542 0.01815 0.0
C247 C 0.19905 0.55238 0.01829 0.0
C248 C 0.22045 0.51171 -0.00565 0.0
C249 C 0.2211 0.50126 0.02527 0.0
C250 C 0.22057 0.50448 0.95891 0.0
C251 C 0.21919 0.51477 0.92519 0.0
C252 C 0.20491 0.52472 0.91879 0.0
C253 C 0.20377 0.5345 0.88705 0.0
C254 C 0.21677 0.5343 0.86136 0.0
C255 C 0.23092 0.52427 0.86731 0.0
C256 C 0.23213 0.51449 0.89905 0.0
C257 C 0.19924 0.43584 0.96228 0.0
C258 C 0.20956 0.42401 0.97987 0.0
C259 C 0.2034 0.45281 0.96274 0.0
C260 C 0.2179 0.4583 0.98091 0.0
C261 C 0.22878 0.44642 -0.00341 0.0
C262 C 0.22463 0.42938 -0.00391 0.0
C263 C 0.22053 0.47652 0.98625 0.0
C264 C 0.22084 0.48698 0.95532 0.0
C265 C 0.22092 0.48375 0.02168 0.0
C266 C 0.21994 0.47346 0.05545 0.0
C267 C 0.2331 0.47382 0.08105 0.0
C268 C 0.23226 0.46404 0.11285 0.0
C269 C 0.21826 0.45394 0.11941 0.0
C270 C 0.20503 0.45366 0.09426 0.0
C271 C 0.2058 0.46343 0.06246 0.0
H272 H 0.21764 0.44637 0.14402 0.0
H273 H 0.21587 0.54188 0.8368 0.0
H274 H 0.41956 0.23076 0.96381 0.0
H275 H 0.44951 0.23767 0.96228 0.0
H276 H 0.46075 0.19212 0.02134 0.0
H277 H 0.43095 0.18512 0.02294 0.0
H278 H 0.48029 0.21877 0.04426 0.0
H279 H 0.46256 0.19193 0.93093 0.0
H280 H 0.44536 0.1896 0.87492 0.0
H281 H 0.46321 0.23759 0.83837 0.0
H282 H 0.48035 0.24028 0.89446 0.0
H283 H 0.5567 0.18749 0.9433 0.0
H284 H 0.52666 0.19333 0.94422 0.0
H285 H 0.5358 0.23978 0.00142 0.0
H286 H 0.56601 0.23396 0.00083 0.0
H287 H 0.5059 0.21822 0.92021 0.0
H288 H 0.50463 0.24268 0.06761 0.0
H289 H 0.52186 0.24204 0.12388 0.0
H290 H 0.54221 0.19426 0.09237 0.0
H291 H 0.52495 0.19454 0.03621 0.0
C292 C 0.4284 0.22238 0.97704 0.0
C293 C 0.42295 0.20732 -0.0068 0.0
C294 C 0.44548 0.22634 0.97609 0.0
C295 C 0.45731 0.21533 -0.00855 0.0
C296 C 0.4518 0.20079 0.0094 0.0
C297 C 0.43478 0.19676 0.01011 0.0
C298 C 0.47551 0.21798 0.98616 0.0
C299 C 0.48588 0.21895 0.01714 0.0
C300 C 0.48279 0.21804 0.95077 0.0
C301 C 0.47255 0.2164 0.91705 0.0
C302 C 0.4627 0.20204 0.91108 0.0
C303 C 0.45299 0.20064 0.87931 0.0
C304 C 0.45315 0.21346 0.85316 0.0
C305 C 0.46306 0.22769 0.85869 0.0
C306 C 0.47278 0.22916 0.89046 0.0
C307 C 0.55237 0.19909 0.95556 0.0
C308 C 0.56369 0.21018 0.97235 0.0
C309 C 0.5352 0.20244 0.9559 0.0
C310 C 0.52902 0.21689 0.97322 0.0
C311 C 0.54034 0.22849 0.9882 0.0
C312 C 0.55758 0.22516 0.98776 0.0
C313 C 0.5107 0.21881 0.97832 0.0
C314 C 0.50029 0.21864 0.9473 0.0
C315 C 0.5034 0.21918 0.0137 0.0
C316 C 0.51368 0.21875 0.04755 0.0
C317 C 0.51277 0.23203 0.07277 0.0
C318 C 0.52253 0.23173 0.10463 0.0
C319 C 0.53318 0.21815 0.11162 0.0
C320 C 0.53402 0.2048 0.08685 0.0
C321 C 0.52426 0.20504 0.055 0.0
H322 H 0.54074 0.21794 0.13628 0.0
H323 H 0.44562 0.21236 0.82857 0.0
H324 H 0.80972 0.43263 0.02813 0.0
H325 H 0.80275 0.46225 0.03255 0.0
H326 H 0.75213 0.45181 -0.00271 0.0
H327 H 0.75919 0.42196 -0.00805 0.0
H328 H 0.76447 0.47682 0.95916 0.0
H329 H 0.75984 0.4657 0.08537 0.0
H330 H 0.76711 0.45397 0.14588 0.0
H331 H 0.81243 0.483 0.14754 0.0
H332 H 0.80558 0.49473 0.08679 0.0
H333 H 0.75905 0.56815 0.98532 0.0
H334 H 0.75234 0.53824 -0.00693 0.0
H335 H 0.80502 0.52698 0.00434 0.0
H336 H 0.81184 0.55651 -0.00401 0.0
H337 H 0.78273 0.51351 0.06144 0.0
H338 H 0.78865 0.51874 0.9277 0.0
H339 H 0.78041 0.53033 0.8676 0.0
H340 H 0.73015 0.51233 0.88324 0.0
H341 H 0.73808 0.50083 0.94371 0.0
C342 C 0.79702 0.43655 0.02185 0.0
C343 C 0.78502 0.42496 0.00958 0.0
C344 C 0.793 0.45352 0.02465 0.0
C345 C 0.77684 0.45925 0.01572 0.0
C346 C 0.76465 0.44764 0.00448 0.0
C347 C 0.7687 0.43061 0.00153 0.0
C348 C 0.77343 0.47754 0.015 0.0
C349 C 0.768 0.48482 0.98195 0.0
C350 C 0.77798 0.48802 0.04469 0.0
C351 C 0.7822 0.48107 0.08138 0.0
C352 C 0.77141 0.46951 0.09851 0.0
C353 C 0.77545 0.46287 0.13289 0.0
C354 C 0.79022 0.46773 0.15053 0.0
C355 C 0.80098 0.47926 0.13385 0.0
C356 C 0.797 0.48594 0.09947 0.0
C357 C 0.76918 0.55925 -0.01085 0.0
C358 C 0.78597 0.56465 -0.01001 0.0
C359 C 0.76532 0.54223 -0.00635 0.0
C360 C 0.7782 0.53052 -0.00046 0.0
C361 C 0.79493 0.53589 7e-05 0.0
C362 C 0.79879 0.55276 -0.00496 0.0
C363 C 0.7746 0.51255 0.00524 0.0
C364 C 0.77869 0.50542 0.03923 0.0
C365 C 0.76859 0.50224 0.97668 0.0
C366 C 0.76389 0.50915 0.94039 0.0
C367 C 0.7758 0.51741 0.91848 0.0
C368 C 0.7712 0.52393 0.88432 0.0
C369 C 0.75475 0.52213 0.87167 0.0
C370 C 0.74288 0.51376 0.89312 0.0
C371 C 0.74742 0.50724 0.92732 0.0
H372 H 0.75121 0.52717 0.84521 0.0
H373 H 0.79333 0.46257 0.17714 0.0
H374 H 0.56497 0.75451 -0.00697 0.0
H375 H 0.535 0.74788 -0.00283 0.0
H376 H 0.52494 0.79821 0.03484 0.0
H377 H 0.55471 0.80475 0.03169 0.0
H378 H 0.5056 0.77695 0.06998 0.0
H379 H 0.52169 0.78656 0.94286 0.0
H380 H 0.53766 0.78064 0.88638 0.0
H381 H 0.51804 0.7305 0.88431 0.0
H382 H 0.50211 0.73609 0.94107 0.0
H383 H 0.43105 0.80813 -0.00166 0.0
H384 H 0.46055 0.80058 0.00453 0.0
H385 H 0.44774 0.74811 -0.00042 0.0
H386 H 0.41786 0.75556 -0.00595 0.0
H387 H 0.47764 0.76207 0.95281 0.0
H388 H 0.45646 0.75647 0.07533 0.0
H389 H 0.43975 0.76525 0.12888 0.0
H390 H 0.46862 0.81052 0.13722 0.0
H391 H 0.48533 0.80214 0.08333 0.0
C392 C 0.55638 0.76405 0.0028 0.0
C393 C 0.56217 0.78021 0.0117 0.0
C394 C 0.53927 0.76026 0.00501 0.0
C395 C 0.5277 0.77263 0.01578 0.0
C396 C 0.53362 0.78846 0.02646 0.0
C397 C 0.55066 0.79221 0.02449 0.0
C398 C 0.50935 0.76978 0.01361 0.0
C399 C 0.49951 0.77356 0.04443 0.0
C400 C 0.50136 0.765 0.98048 0.0
C401 C 0.51091 0.76166 0.94642 0.0
C402 C 0.52089 0.77423 0.93049 0.0
C403 C 0.52991 0.77095 0.89842 0.0
C404 C 0.52891 0.75518 0.88184 0.0
C405 C 0.51884 0.74269 0.89724 0.0
C406 C 0.50982 0.7459 0.92935 0.0
C407 C 0.43445 0.79497 -0.00179 0.0
C408 C 0.42212 0.78243 -0.00418 0.0
C409 C 0.4513 0.79069 0.00186 0.0
C410 C 0.45621 0.77382 0.0028 0.0
C411 C 0.44409 0.7612 -0.001 0.0
C412 C 0.4271 0.76548 -0.00413 0.0
C413 C 0.47406 0.76976 0.00879 0.0
C414 C 0.48377 0.7648 0.97869 0.0
C415 C 0.48195 0.77369 0.04239 0.0
C416 C 0.47209 0.7787 0.07514 0.0
C417 C 0.45916 0.76836 0.08841 0.0
C418 C 0.4497 0.77325 0.11886 0.0
C419 C 0.4531 0.78845 0.13642 0.0
C420 C 0.466 0.79875 0.1236 0.0
C421 C 0.47549 0.79392 0.09314 0.0
H422 H 0.44576 0.79222 0.15997 0.0
H423 H 0.5359 0.75266 0.857 0.0
H424 H 0.72627 0.06564 0.48688 0.0
H425 H 0.73243 0.03554 0.49016 0.0
H426 H 0.68057 0.02564 0.51627 0.0
H427 H 0.67445 0.05554 0.51399 0.0
H428 H 0.70008 0.0061 0.55558 0.0
H429 H 0.69646 0.02258 0.42746 0.0
H430 H 0.70485 0.0387 0.3727 0.0
H431 H 0.75488 0.01898 0.38102 0.0
H432 H 0.74682 0.0029 0.43614 0.0
H433 H 0.67524 0.92989 0.48018 0.0
H434 H 0.68113 0.95984 0.48449 0.0
H435 H 0.73398 0.94937 0.49522 0.0
H436 H 0.72818 0.91913 0.49165 0.0
H437 H 0.72104 0.97842 0.44259 0.0
H438 H 0.72169 0.95804 0.56701 0.0
H439 H 0.71091 0.94119 0.61856 0.0
H440 H 0.66417 0.96799 0.61436 0.0
H441 H 0.67459 0.98482 0.56236 0.0
C442 C 0.71625 0.05704 0.49381 0.0
C443 C 0.69985 0.06293 0.49992 0.0
C444 C 0.71978 0.03985 0.49552 0.0
C445 C 0.70691 0.02833 0.50296 0.0
C446 C 0.6907 0.03429 0.51051 0.0
C447 C 0.68721 0.05141 0.50906 0.0
C448 C 0.70984 0.00998 0.50112 0.0
C449 C 0.70476 8e-05 0.53093 0.0
C450 C 0.71627 0.0021 0.46924 0.0
C451 C 0.7211 0.01173 0.43615 0.0
C452 C 0.70928 0.0218 0.41776 0.0
C453 C 0.71397 0.0309 0.38664 0.0
C454 C 0.73041 0.02991 0.37347 0.0
C455 C 0.74217 0.01977 0.39132 0.0
C456 C 0.73755 0.01066 0.42249 0.0
C457 C 0.68815 0.93391 0.48295 0.0
C458 C 0.70125 0.92216 0.48578 0.0
C459 C 0.69148 0.95101 0.48547 0.0
C460 C 0.70794 0.95669 0.49043 0.0
C461 C 0.72119 0.94512 0.49143 0.0
C462 C 0.71785 0.92791 0.48944 0.0
C463 C 0.71085 0.97473 0.4966 0.0
C464 C 0.71692 0.98452 0.46762 0.0
C465 C 0.70513 0.98254 0.52902 0.0
C466 C 0.69889 0.97261 0.56062 0.0
C467 C 0.70907 0.96025 0.57689 0.0
C468 C 0.70303 0.95071 0.60622 0.0
C469 C 0.68685 0.95349 0.61969 0.0
C470 C 0.6767 0.96584 0.6039 0.0
C471 C 0.68267 0.9754 0.57452 0.0
H472 H 0.6822 0.94609 0.64239 0.0
H473 H 0.73401 0.03697 0.34936 0.0
H474 H 0.92497 0.72635 0.46255 0.0
H475 H 0.95534 0.73017 0.45783 0.0
H476 H 0.96295 0.69062 0.53703 0.0
H477 H 0.93266 0.68625 0.54056 0.0
H478 H 0.98176 0.73724 0.49759 0.0
H479 H -0.00597 0.66562 0.51156 0.0
H480 H 0.97915 0.63898 0.50033 0.0
H481 H 0.94821 0.6631 0.4195 0.0
H482 H 0.96305 0.6898 0.42987 0.0
H483 H 0.06788 0.71959 0.5265 0.0
H484 H 0.03766 0.72438 0.52557 0.0
H485 H 0.03382 0.69592 0.42516 0.0
H486 H 0.06396 0.69023 0.42744 0.0
H487 H 0.01241 0.68481 0.4677 0.0
H488 H 0.02583 0.74037 0.43213 0.0
H489 H 0.04003 0.76781 0.43405 0.0
H490 H 0.0191 0.77741 0.54046 0.0
H491 H 0.00495 0.74992 0.53942 0.0
C492 C 0.93312 0.71869 0.47949 0.0
C493 C 0.92651 0.70581 0.50148 0.0
C494 C 0.95047 0.72091 0.47679 0.0
C495 C 0.96142 0.71039 0.49634 0.0
C496 C 0.95474 0.69857 0.52092 0.0
C497 C 0.93744 0.69613 0.52307 0.0
C498 C 0.97969 0.71063 0.48861 0.0
C499 C 0.98852 0.72581 0.49105 0.0
C500 C 0.98837 0.69583 0.4786 0.0
C501 C 0.97955 0.67974 0.47176 0.0
C502 C 0.9841 0.66521 0.49127 0.0
C503 C 0.97566 0.65011 0.48508 0.0
C504 C 0.96271 0.64936 0.4593 0.0
C505 C 0.95821 0.66371 0.43955 0.0
C506 C 0.96662 0.67883 0.44559 0.0
C507 C 0.06063 0.71466 0.50383 0.0
C508 C 0.06819 0.70446 0.47715 0.0
C509 C 0.04333 0.71749 0.50317 0.0
C510 C 0.03338 0.71059 0.47518 0.0
C511 C 0.04117 0.70128 0.44722 0.0
C512 C 0.05839 0.69808 0.44842 0.0
C513 C 0.01476 0.7114 0.47737 0.0
C514 C 0.00578 0.69635 0.47394 0.0
C515 C 0.00593 0.72645 0.485 0.0
C516 C 0.01443 0.74301 0.4858 0.0
C517 C 0.02435 0.74827 0.45607 0.0
C518 C 0.03238 0.76385 0.45698 0.0
C519 C 0.03049 0.77433 0.48739 0.0
C520 C 0.02055 0.76927 0.51693 0.0
C521 C 0.01251 0.7537 0.51617 0.0
H522 H 0.03672 0.78639 0.48804 0.0
H523 H 0.95618 0.63767 0.45459 0.0
H524 H 0.29784 0.05888 0.42661 0.0
H525 H 0.29264 0.0287 0.42493 0.0
H526 H 0.25768 0.03372 0.51472 0.0
H527 H 0.2622 0.06401 0.51506 0.0
H528 H 0.30102 0.00823 0.47335 0.0
H529 H 0.23145 0.00069 0.52075 0.0
H530 H 0.2041 0.01452 0.51101 0.0
H531 H 0.22142 0.03438 0.40834 0.0
H532 H 0.24878 0.0205 0.4172 0.0
H533 H 0.29537 0.92899 0.54727 0.0
H534 H 0.29054 0.95916 0.54174 0.0
H535 H 0.25788 0.95057 0.44925 0.0
H536 H 0.26202 0.92029 0.45586 0.0
H537 H 0.24739 0.97716 0.48509 0.0
H538 H 0.2998 0.95864 0.43652 0.0
H539 H 0.32712 0.94407 0.43711 0.0
H540 H 0.34395 0.97579 0.52481 0.0
H541 H 0.31663 0.9904 0.52508 0.0
C542 C 0.28874 0.05357 0.44535 0.0
C543 C 0.28048 0.06373 0.47106 0.0
C544 C 0.2858 0.03632 0.44446 0.0
C545 C 0.27478 0.02886 0.46973 0.0
C546 C 0.26599 0.03914 0.49445 0.0
C547 C 0.26865 0.05646 0.49477 0.0
C548 C 0.27402 0.0103 0.47299 0.0
C549 C 0.28924 0.0015 0.47565 0.0
C550 C 0.25871 0.00136 0.47552 0.0
C551 C 0.24223 0.00967 0.46984 0.0
C552 C 0.2294 0.00795 0.49603 0.0
C553 C 0.2139 0.01581 0.49067 0.0
C554 C 0.21104 0.02536 0.45913 0.0
C555 C 0.22367 0.02704 0.43283 0.0
C556 C 0.23919 0.0192 0.43804 0.0
C557 C 0.28683 0.93352 0.52635 0.0
C558 C 0.27924 0.92237 0.50169 0.0
C559 C 0.28414 0.95075 0.5231 0.0
C560 C 0.27425 0.95713 0.49437 0.0
C561 C 0.26564 0.94593 0.47145 0.0
C562 C 0.26804 0.92864 0.47523 0.0
C563 C 0.27435 0.97535 0.48606 0.0
C564 C 0.25908 0.98401 0.48254 0.0
C565 C 0.28961 0.98415 0.48131 0.0
C566 C 0.30613 0.97551 0.48102 0.0
C567 C 0.3093 0.96244 0.45607 0.0
C568 C 0.32478 0.95418 0.45624 0.0
C569 C 0.33725 0.95898 0.48104 0.0
C570 C 0.33428 0.97207 0.50565 0.0
C571 C 0.3188 0.98036 0.50563 0.0
H572 H 0.34923 0.95256 0.48114 0.0
H573 H 0.19903 0.03144 0.45504 0.0
H574 H 0.06845 0.25968 0.49686 0.0
H575 H 0.03844 0.25313 0.49967 0.0
H576 H 0.02728 0.30567 0.51499 0.0
H577 H 0.05707 0.31217 0.51342 0.0
H578 H 0.00761 0.28798 0.55639 0.0
H579 H 0.02548 0.28545 0.42907 0.0
H580 H 0.0423 0.27466 0.37743 0.0
H581 H 0.02332 0.22503 0.39665 0.0
H582 H 0.00653 0.23552 0.44871 0.0
H583 H 0.93167 0.30768 0.47361 0.0
H584 H 0.96169 0.30253 0.47965 0.0
H585 H 0.95224 0.2502 0.50099 0.0
H586 H 0.92189 0.25527 0.49559 0.0
H587 H 0.98157 0.26102 0.44776 0.0
H588 H 0.95971 0.26651 0.57051 0.0
H589 H 0.94208 0.27975 0.61794 0.0
H590 H 0.96834 0.32627 0.60343 0.0
H591 H 0.98596 0.31338 0.55546 0.0
C592 C 0.05958 0.26978 0.50133 0.0
C593 C 0.0651 0.28645 0.5047 0.0
C594 C 0.04244 0.26603 0.50274 0.0
C595 C 0.03058 0.27894 0.50698 0.0
C596 C 0.03617 0.29548 0.51173 0.0
C597 C 0.05324 0.2992 0.51072 0.0
C598 C 0.0123 0.27563 0.50482 0.0
C599 C 0.00196 0.282 0.5327 0.0
C600 C 0.00487 0.26751 0.47429 0.0
C601 C 0.01494 0.26122 0.44303 0.0
C602 C 0.025 0.27221 0.42244 0.0
C603 C 0.03451 0.26616 0.39308 0.0
C604 C 0.03393 0.24916 0.38384 0.0
C605 C 0.02379 0.23819 0.40389 0.0
C606 C 0.01428 0.24418 0.43332 0.0
C607 C 0.93592 0.295 0.47904 0.0
C608 C 0.9244 0.28189 0.48439 0.0
C609 C 0.95308 0.29211 0.48252 0.0
C610 C 0.95906 0.27604 0.49105 0.0
C611 C 0.94775 0.26268 0.49443 0.0
C612 C 0.93048 0.26561 0.49137 0.0
C613 C 0.9771 0.27381 0.49874 0.0
C614 C 0.98732 0.26648 0.47193 0.0
C615 C 0.98446 0.28127 0.52995 0.0
C616 C 0.97408 0.289 0.55922 0.0
C617 C 0.96164 0.2796 0.57724 0.0
C618 C 0.95167 0.28704 0.60425 0.0
C619 C 0.95407 0.30385 0.61365 0.0
C620 C 0.96649 0.31325 0.59612 0.0
C621 C 0.97649 0.30588 0.56905 0.0
H622 H 0.94632 0.30959 0.63456 0.0
H623 H 0.04129 0.24449 0.3611 0.0
H624 H 0.24137 0.34204 0.00364 0.0
H625 H 0.26446 0.32183 0.00164 0.0
H626 H 0.22931 0.28124 0.01598 0.0
H627 H 0.20626 0.30132 0.01903 0.0
H628 H 0.25625 0.27564 0.05568 0.0
H629 H 0.24539 0.29204 0.93065 0.0
H630 H 0.24207 0.31197 0.8794 0.0
H631 H 0.29279 0.32875 0.89426 0.0
H632 H 0.29634 0.30905 0.94594 0.0
H633 H 0.29978 0.20662 0.97961 0.0
H634 H 0.28017 0.2298 -0.011 0.0
H635 H 0.32145 0.26465 -0.00717 0.0
H636 H 0.34127 0.24147 0.98382 0.0
H637 H 0.29376 0.2747 0.9471 0.0
H638 H 0.3049 0.25563 0.06921 0.0
H639 H 0.30775 0.23448 0.11813 0.0
H640 H 0.25572 0.22161 0.10674 0.0
H641 H 0.25262 0.24249 0.05721 0.0
C642 C 0.23856 0.32882 0.00657 0.0
C643 C 0.22195 0.32329 0.01125 0.0
C644 C 0.25178 0.31728 0.00529 0.0
C645 C 0.24859 0.3 0.0081 0.0
C646 C 0.23207 0.2945 0.01373 0.0
C647 C 0.21889 0.30602 0.01535 0.0
C648 C 0.26232 0.28754 0.00428 0.0
C649 C 0.26436 0.27537 0.03181 0.0
C650 C 0.27316 0.2874 0.97351 0.0
C651 C 0.27106 0.29922 0.94241 0.0
C652 C 0.25579 0.30008 0.92317 0.0
C653 C 0.25388 0.31131 0.89401 0.0
C654 C 0.26719 0.32166 0.88365 0.0
C655 C 0.28247 0.32076 0.90236 0.0
C656 C 0.28445 0.30955 0.93157 0.0
C657 C 0.30471 0.21921 0.98232 0.0
C658 C 0.32208 0.22221 0.98104 0.0
C659 C 0.29349 0.23242 0.98784 0.0
C660 C 0.29942 0.24887 -0.00813 0.0
C661 C 0.31669 0.252 -0.01014 0.0
C662 C 0.32797 0.23875 0.98482 0.0
C663 C 0.28744 0.26274 -0.00183 0.0
C664 C 0.28575 0.27513 0.97114 0.0
C665 C 0.27682 0.26299 0.02919 0.0
C666 C 0.27857 0.25054 0.05926 0.0
C667 C 0.2941 0.2482 0.07691 0.0
C668 C 0.29575 0.23627 0.1048 0.0
C669 C 0.28194 0.22668 0.11551 0.0
C670 C 0.26642 0.22904 0.09839 0.0
C671 C 0.2647 0.24093 0.07043 0.0
H672 H 0.28325 0.21745 0.13711 0.0
H673 H 0.26569 0.33035 0.86107 0.0
H674 H 0.78017 0.30357 0.95808 0.0
H675 H 0.75582 0.28522 0.95872 0.0
H676 H 0.72366 0.32761 0.98095 0.0
H677 H 0.74817 0.34612 0.98135 0.0
H678 H 0.71536 0.30221 0.02335 0.0
H679 H 0.72418 0.30898 0.89583 0.0
H680 H 0.74011 0.31007 0.83795 0.0
H681 H 0.75265 0.25791 0.84898 0.0
H682 H 0.73703 0.25656 0.90726 0.0
H683 H 0.64483 0.24662 -0.00814 0.0
H684 H 0.66426 0.27024 0.98447 0.0
H685 H 0.70603 0.23581 0.98243 0.0
H686 H 0.68685 0.21224 -0.00973 0.0
H687 H 0.70581 0.26045 0.92471 0.0
H688 H 0.69947 0.25587 0.05716 0.0
H689 H 0.68307 0.25552 0.11448 0.0
H690 H 0.66447 0.30498 0.09118 0.0
H691 H 0.6806 0.30551 0.03342 0.0
C692 C 0.76793 0.30906 0.96291 0.0
C693 C 0.76612 0.32634 0.96955 0.0
C694 C 0.75398 0.29854 0.96306 0.0
C695 C 0.73786 0.30508 0.96922 0.0
C696 C 0.73598 0.32231 0.97595 0.0
C697 C 0.74999 0.33287 0.97611 0.0
C698 C 0.72319 0.29366 0.96992 0.0
C699 C 0.71305 0.29333 0.00139 0.0
C700 C 0.7202 0.28201 0.94136 0.0
C701 C 0.7295 0.2827 0.90609 0.0
C702 C 0.73042 0.29776 0.88605 0.0
C703 C 0.73939 0.29843 0.85315 0.0
C704 C 0.74741 0.28408 0.83982 0.0
C705 C 0.74644 0.26902 0.85934 0.0
C706 C 0.73751 0.26829 0.8923 0.0
C707 C 0.65816 0.2441 -0.0101 0.0
C708 C 0.66432 0.22757 -0.00824 0.0
C709 C 0.66921 0.25759 0.98572 0.0
C710 C 0.68653 0.2547 0.98288 0.0
C711 C 0.69268 0.23824 0.98447 0.0
C712 C 0.6817 0.22481 -0.01083 0.0
C713 C 0.69843 0.26875 0.97846 0.0
C714 C 0.70799 0.26957 0.94626 0.0
C715 C 0.70073 0.28097 0.00607 0.0
C716 C 0.69106 0.28064 0.04077 0.0
C717 C 0.69175 0.2666 0.06408 0.0
C718 C 0.68254 0.26638 0.09669 0.0
C719 C 0.67269 0.2802 0.1064 0.0
C720 C 0.67207 0.29427 0.08358 0.0
C721 C 0.68125 0.29454 0.05092 0.0
H722 H 0.66557 0.28001 0.13167 0.0
H723 H 0.75435 0.28462 0.81435 0.0
H724 H 0.78069 0.68834 0.98574 0.0
H725 H 0.75671 0.70723 0.98237 0.0
H726 H 0.72303 0.66491 0.98457 0.0
H727 H 0.74713 0.64578 0.98684 0.0
H728 H 0.71221 0.68772 0.93688 0.0
H729 H 0.72951 0.68874 0.06176 0.0
H730 H 0.74926 0.69105 0.11355 0.0
H731 H 0.76118 0.74151 0.0817 0.0
H732 H 0.74167 0.73942 0.02938 0.0
H733 H 0.64366 0.74463 0.98015 0.0
H734 H 0.66396 0.72148 0.98287 0.0
H735 H 0.70439 0.7564 0.96484 0.0
H736 H 0.68437 0.77948 0.96182 0.0
H737 H 0.70917 0.73492 0.02528 0.0
H738 H 0.69283 0.73232 0.89729 0.0
H739 H 0.67248 0.72952 0.84671 0.0
H740 H 0.6576 0.68124 0.88747 0.0
H741 H 0.6777 0.68386 0.93863 0.0
C742 C 0.7682 0.68301 0.98549 0.0
C743 C 0.76581 0.66556 0.98692 0.0
C744 C 0.75448 0.69384 0.9837 0.0
C745 C 0.73806 0.68751 0.98406 0.0
C746 C 0.7356 0.67007 0.9845 0.0
C747 C 0.74937 0.65917 0.98586 0.0
C748 C 0.72359 0.69923 0.98422 0.0
C749 C 0.71137 0.69785 0.95663 0.0
C750 C 0.72252 0.71252 0.00988 0.0
C751 C 0.7342 0.71387 0.04149 0.0
C752 C 0.73642 0.70029 0.06565 0.0
C753 C 0.74756 0.70156 0.09513 0.0
C754 C 0.75649 0.7164 0.10088 0.0
C755 C 0.75426 0.73002 0.07721 0.0
C756 C 0.74315 0.7288 0.04766 0.0
C757 C 0.65687 0.74735 0.97654 0.0
C758 C 0.66239 0.76391 0.97085 0.0
C759 C 0.66841 0.73412 0.97801 0.0
C760 C 0.68563 0.73729 0.97407 0.0
C761 C 0.69114 0.75374 0.96803 0.0
C762 C 0.67965 0.76691 0.96619 0.0
C763 C 0.69813 0.72365 0.97741 0.0
C764 C 0.70993 0.72465 0.00583 0.0
C765 C 0.69866 0.70996 0.95282 0.0
C766 C 0.68662 0.70838 0.92204 0.0
C767 C 0.6851 0.72118 0.89568 0.0
C768 C 0.67364 0.71961 0.86686 0.0
C769 C 0.66371 0.70524 0.86395 0.0
C770 C 0.66527 0.69238 0.8898 0.0
C771 C 0.6767 0.69389 0.9187 0.0
H772 H 0.65485 0.70404 0.84161 0.0
H773 H 0.76512 0.71736 0.12371 0.0
H774 H 0.2403 0.64558 0.97631 0.0
H775 H 0.26331 0.66579 0.97908 0.0
H776 H 0.22863 0.70602 0.95569 0.0
H777 H 0.20568 0.68591 0.95196 0.0
H778 H 0.25659 0.71062 0.91898 0.0
H779 H 0.24218 0.69765 0.04362 0.0
H780 H 0.23708 0.67927 0.0969 0.0
H781 H 0.28797 0.66166 0.092 0.0
H782 H 0.29331 0.67979 0.03837 0.0
H783 H 0.29833 0.78102 -0.00605 0.0
H784 H 0.27896 0.75773 0.98433 0.0
H785 H 0.32031 0.72281 0.98707 0.0
H786 H 0.33992 0.74613 -0.00374 0.0
H787 H 0.29126 0.71398 0.03182 0.0
H788 H 0.30541 0.7301 0.90858 0.0
H789 H 0.30929 0.75009 0.85768 0.0
H790 H 0.25717 0.76356 0.86294 0.0
H791 H 0.25302 0.74383 0.91427 0.0
C792 C 0.23758 0.65871 0.9715 0.0
C793 C 0.22112 0.66413 0.96414 0.0
C794 C 0.25074 0.67026 0.97325 0.0
C795 C 0.24764 0.68745 0.96815 0.0
C796 C 0.23131 0.69282 0.95976 0.0
C797 C 0.21819 0.68129 0.95773 0.0
C798 C 0.26126 0.69995 0.97235 0.0
C799 C 0.26409 0.71141 0.94376 0.0
C800 C 0.27124 0.70082 0.00445 0.0
C801 C 0.26809 0.68993 0.03673 0.0
C802 C 0.25224 0.68976 0.05372 0.0
C803 C 0.24932 0.67941 0.08401 0.0
C804 C 0.26218 0.66926 0.09775 0.0
C805 C 0.27801 0.66949 0.08129 0.0
C806 C 0.281 0.67981 0.05096 0.0
C807 C 0.30334 0.7684 -0.00743 0.0
C808 C 0.32067 0.76542 -0.00418 0.0
C809 C 0.29225 0.75512 0.98695 0.0
C810 C 0.29826 0.73861 0.98479 0.0
C811 C 0.31549 0.73551 -0.0114 0.0
C812 C 0.32665 0.74883 -0.00628 0.0
C813 C 0.28639 0.72467 0.97866 0.0
C814 C 0.28389 0.713 0.00689 0.0
C815 C 0.27651 0.72377 0.94652 0.0
C816 C 0.27894 0.73558 0.91549 0.0
C817 C 0.2948 0.73742 0.89909 0.0
C818 C 0.29704 0.74869 0.87012 0.0
C819 C 0.28349 0.75812 0.85714 0.0
C820 C 0.26766 0.75626 0.87304 0.0
C821 C 0.26535 0.74502 0.90205 0.0
H822 H 0.28525 0.76684 0.8347 0.0
H823 H 0.25989 0.66126 0.1212 0.0
H824 H 0.81354 0.7182 0.42359 0.0
H825 H 0.79389 0.74162 0.42774 0.0
H826 H 0.8184 0.75847 0.52669 0.0
H827 H 0.83862 0.7355 0.52151 0.0
H828 H 0.77156 0.74735 0.47433 0.0
H829 H 0.81206 0.79979 0.54122 0.0
H830 H 0.84126 0.81 0.53984 0.0
H831 H 0.84791 0.78887 0.43255 0.0
H832 H 0.8187 0.77873 0.43307 0.0
H833 H 0.7164 0.80553 0.54944 0.0
H834 H 0.74039 0.78671 0.54283 0.0
H835 H 0.76143 0.81945 0.46058 0.0
H836 H 0.73775 0.83872 0.46821 0.0
H837 H 0.78575 0.80678 0.4998 0.0
H838 H 0.73847 0.78435 0.43661 0.0
H839 H 0.7092 0.775 0.42886 0.0
H840 H 0.7164 0.7374 0.51179 0.0
H841 H 0.74566 0.74669 0.52039 0.0
C842 C 0.81486 0.72703 0.44596 0.0
C843 C 0.82758 0.72503 0.47226 0.0
C844 C 0.8036 0.7404 0.44837 0.0
C845 C 0.80466 0.7519 0.47743 0.0
C846 C 0.81751 0.75002 0.50355 0.0
C847 C 0.82901 0.73682 0.5007 0.0
C848 C 0.79165 0.76514 0.48158 0.0
C849 C 0.77473 0.76034 0.47977 0.0
C850 C 0.79568 0.78219 0.48808 0.0
C851 C 0.81323 0.78836 0.48737 0.0
C852 C 0.81974 0.79738 0.51728 0.0
C853 C 0.83629 0.80314 0.51666 0.0
C854 C 0.84645 0.80004 0.48618 0.0
C855 C 0.84005 0.79121 0.4562 0.0
C856 C 0.8235 0.78543 0.45667 0.0
C857 C 0.72624 0.80882 0.53026 0.0
C858 C 0.72512 0.82349 0.50902 0.0
C859 C 0.73992 0.79803 0.52641 0.0
C860 C 0.7525 0.80145 0.50055 0.0
C861 C 0.75183 0.81651 0.48059 0.0
C862 C 0.73828 0.82749 0.48492 0.0
C863 C 0.76579 0.78887 0.49294 0.0
C864 C 0.78268 0.79378 0.49422 0.0
C865 C 0.76177 0.77201 0.48456 0.0
C866 C 0.74421 0.76632 0.47936 0.0
C867 C 0.73378 0.77416 0.45336 0.0
C868 C 0.71719 0.76886 0.4488 0.0
C869 C 0.71093 0.75564 0.46988 0.0
C870 C 0.72126 0.74766 0.49551 0.0
C871 C 0.73785 0.75292 0.50022 0.0
H872 H 0.69809 0.75156 0.46631 0.0
H873 H 0.85927 0.8045 0.48576 0.0
H874 H 0.28331 0.79907 0.48887 0.0
H875 H 0.26068 0.77869 0.49359 0.0
H876 H 0.22426 0.81881 0.49295 0.0
H877 H 0.24699 0.8394 0.48957 0.0
H878 H 0.21554 0.79642 0.54149 0.0
H879 H 0.23153 0.79399 0.41586 0.0
H880 H 0.25071 0.79164 0.36307 0.0
H881 H 0.26555 0.74242 0.39844 0.0
H882 H 0.24663 0.74456 0.45173 0.0
H883 H 0.14865 0.73765 0.50325 0.0
H884 H 0.16855 0.76099 0.4995 0.0
H885 H 0.2096 0.72673 0.51815 0.0
H886 H 0.18993 0.7034 0.52214 0.0
H887 H 0.21388 0.74771 0.45697 0.0
H888 H 0.19801 0.75169 0.5849 0.0
H889 H 0.17785 0.75462 0.63578 0.0
H890 H 0.16125 0.80188 0.59225 0.0
H891 H 0.18117 0.79911 0.5408 0.0
C892 C 0.27049 0.80359 0.48962 0.0
C893 C 0.26693 0.82085 0.48858 0.0
C894 C 0.25755 0.7919 0.49217 0.0
C895 C 0.24074 0.79719 0.49285 0.0
C896 C 0.23713 0.81444 0.49229 0.0
C897 C 0.25012 0.82618 0.49029 0.0
C898 C 0.22702 0.78465 0.49454 0.0
C899 C 0.21502 0.78593 0.52259 0.0
C900 C 0.22638 0.77087 0.47007 0.0
C901 C 0.23775 0.7695 0.43796 0.0
C902 C 0.23897 0.78271 0.41252 0.0
C903 C 0.24978 0.78141 0.38249 0.0
C904 C 0.25937 0.7669 0.37745 0.0
C905 C 0.25813 0.75365 0.40239 0.0
C906 C 0.24734 0.75489 0.43249 0.0
C907 C 0.16191 0.7351 0.50685 0.0
C908 C 0.1677 0.71865 0.51291 0.0
C909 C 0.17323 0.74846 0.50479 0.0
C910 C 0.19051 0.74554 0.50856 0.0
C911 C 0.1963 0.7292 0.5151 0.0
C912 C 0.18501 0.7159 0.51751 0.0
C913 C 0.20272 0.75934 0.5043 0.0
C914 C 0.21438 0.7583 0.47563 0.0
C915 C 0.20287 0.77342 0.52782 0.0
C916 C 0.19094 0.7751 0.55879 0.0
C917 C 0.18995 0.76263 0.586 0.0
C918 C 0.17859 0.76428 0.61498 0.0
C919 C 0.16824 0.7784 0.61719 0.0
C920 C 0.16926 0.79093 0.59047 0.0
C921 C 0.18059 0.78934 0.56141 0.0
H922 H 0.15945 0.77965 0.63965 0.0
H923 H 0.26774 0.76592 0.35418 0.0
H924 H 0.2788 0.18599 0.50883 0.0
H925 H 0.25511 0.20527 0.50762 0.0
H926 H 0.22111 0.16366 0.49383 0.0
H927 H 0.24494 0.14421 0.49384 0.0
H928 H 0.21244 0.18798 0.44971 0.0
H929 H 0.22428 0.18474 0.5768 0.0
H930 H 0.24144 0.18486 0.63306 0.0
H931 H 0.25542 0.23603 0.61275 0.0
H932 H 0.23855 0.23615 0.55606 0.0
H933 H 0.1446 0.24719 0.48279 0.0
H934 H 0.16338 0.22297 0.48993 0.0
H935 H 0.20628 0.25569 0.48241 0.0
H936 H 0.18776 0.27982 0.47486 0.0
H937 H 0.20676 0.23287 0.54308 0.0
H938 H 0.19672 0.23371 0.41124 0.0
H939 H 0.17864 0.23283 0.35638 0.0
H940 H 0.15958 0.18479 0.38948 0.0
H941 H 0.1774 0.1855 0.44484 0.0
C942 C 0.26629 0.18089 0.50572 0.0
C943 C 0.26376 0.16355 0.50159 0.0
C944 C 0.25272 0.19194 0.50524 0.0
C945 C 0.23628 0.18589 0.50137 0.0
C946 C 0.23368 0.16859 0.49704 0.0
C947 C 0.24731 0.15751 0.49709 0.0
C948 C 0.22197 0.19782 0.5007 0.0
C949 C 0.21099 0.19757 0.47057 0.0
C950 C 0.22007 0.21038 0.52784 0.0
C951 C 0.23022 0.21041 0.56201 0.0
C952 C 0.23111 0.19599 0.58418 0.0
C953 C 0.24077 0.19602 0.61617 0.0
C954 C 0.24954 0.21043 0.62644 0.0
C955 C 0.24863 0.22487 0.60476 0.0
C956 C 0.23899 0.2249 0.57272 0.0
C957 C 0.15803 0.2492 0.48252 0.0
C958 C 0.1647 0.26542 0.4782 0.0
C959 C 0.16872 0.23537 0.48656 0.0
C960 C 0.18617 0.23761 0.48673 0.0
C961 C 0.19282 0.25375 0.48244 0.0
C962 C 0.18221 0.2675 0.47794 0.0
C963 C 0.19771 0.22326 0.49165 0.0
C964 C 0.2081 0.22307 0.52266 0.0
C965 C 0.19889 0.21017 0.46567 0.0
C966 C 0.18822 0.20975 0.43239 0.0
C967 C 0.18855 0.22303 0.407 0.0
C968 C 0.17838 0.22255 0.37578 0.0
C969 C 0.16792 0.20879 0.36952 0.0
C970 C 0.16766 0.19546 0.39441 0.0
C971 C 0.17779 0.19589 0.4257 0.0
H972 H 0.16006 0.20844 0.34532 0.0
H973 H 0.25702 0.21043 0.65122 0.0
H974 H 0.84308 0.24217 0.49813 0.0
H975 H 0.82384 0.21825 0.49546 0.0
H976 H 0.78164 0.25203 0.5036 0.0
H977 H 0.80065 0.27579 0.50733 0.0
H978 H 0.7768 0.22634 0.54631 0.0
H979 H 0.79488 0.23407 0.42066 0.0
H980 H 0.81566 0.23595 0.37075 0.0
H981 H 0.83241 0.18585 0.39416 0.0
H982 H 0.81184 0.18375 0.44454 0.0
H983 H 0.70795 0.18559 0.46848 0.0
H984 H 0.73234 0.20359 0.47678 0.0
H985 H 0.76401 0.16005 0.48908 0.0
H986 H 0.73952 0.14177 0.48106 0.0
H987 H 0.77703 0.18666 0.44152 0.0
H988 H 0.75536 0.17846 0.56274 0.0
H989 H 0.73324 0.17727 0.60992 0.0
H990 H 0.72211 0.22937 0.59223 0.0
H991 H 0.74399 0.23081 0.54451 0.0
C992 C 0.8297 0.24447 0.49942 0.0
C993 C 0.8234 0.26089 0.50293 0.0
C994 C 0.81872 0.2308 0.49776 0.0
C995 C 0.80128 0.23336 0.49902 0.0
C996 C 0.79504 0.24973 0.50274 0.0
C997 C 0.80595 0.26333 0.50478 0.0
C998 C 0.78933 0.21916 0.49635 0.0
C999 C 0.77684 0.21772 0.5233 0.0
C1000 C 0.78963 0.20758 0.46689 0.0
C1001 C 0.80198 0.20883 0.43663 0.0
C1002 C 0.80309 0.22351 0.41535 0.0
C1003 C 0.81481 0.2246 0.38694 0.0
C1004 C 0.82539 0.21105 0.37937 0.0
C1005 C 0.82423 0.19635 0.40011 0.0
C1006 C 0.81255 0.1952 0.42858 0.0
C1007 C 0.72008 0.17977 0.47271 0.0
C1008 C 0.72177 0.16223 0.4743 0.0
C1009 C 0.734 0.1901 0.47755 0.0
C1010 C 0.74989 0.18312 0.48386 0.0
C1011 C 0.7518 0.16563 0.48433 0.0
C1012 C 0.7378 0.15524 0.47986 0.0
C1013 C 0.76431 0.19431 0.49081 0.0
C1014 C 0.77723 0.19513 0.4648 0.0
C1015 C 0.76432 0.20547 0.5209 0.0
C1016 C 0.75125 0.2047 0.54986 0.0
C1017 C 0.74811 0.18963 0.56871 0.0
C1018 C 0.73563 0.18892 0.59559 0.0
C1019 C 0.72626 0.20323 0.60402 0.0
C1020 C 0.72938 0.21829 0.58566 0.0
C1021 C 0.74183 0.21907 0.55873 0.0
H1022 H 0.7166 0.20265 0.62483 0.0
H1023 H 0.83446 0.21192 0.35736 0.0
H1024 H 0.13514 0.34437 0.39558 0.0
H1025 H 0.13993 0.35661 0.33527 0.0
H1026 H 0.10715 0.31967 0.28675 0.0
H1027 H 0.10305 0.30681 0.34706 0.0
H1028 H 0.13339 0.3214 0.24831 0.0
H1029 H 0.09657 0.36319 0.29472 0.0
H1030 H 0.08533 0.3838 0.33873 0.0
H1031 H 0.13078 0.41243 0.33099 0.0
H1032 H 0.1424 0.39187 0.28731 0.0
H1033 H 0.14101 0.3606 0.0749 0.0
H1034 H 0.12709 0.3536 0.13268 0.0
H1035 H 0.16765 0.37639 0.19295 0.0
H1036 H 0.18178 0.3833 0.13527 0.0
H1037 H 0.13361 0.38248 0.22185 0.0
H1038 H 0.17078 0.33751 0.18089 0.0
H1039 H 0.18077 0.31707 0.13506 0.0
H1040 H 0.13185 0.29464 0.13116 0.0
H1041 H 0.1215 0.31515 0.17656 0.0
C1042 C 0.12881 0.33897 0.37209 0.0
C1043 C 0.11876 0.32463 0.37588 0.0
C1044 C 0.13144 0.34608 0.33762 0.0
C1045 C 0.12367 0.33927 0.30643 0.0
C1046 C 0.11326 0.32517 0.31039 0.0
C1047 C 0.11092 0.31784 0.3448 0.0
C1048 C 0.12755 0.34602 0.26946 0.0
C1049 C 0.13302 0.33474 0.24242 0.0
C1050 C 0.12735 0.36345 0.26169 0.0
C1051 C 0.1204 0.37591 0.28789 0.0
C1052 C 0.10422 0.37381 0.30258 0.0
C1053 C 0.09777 0.3855 0.32745 0.0
C1054 C 0.10735 0.3994 0.3377 0.0
C1055 C 0.12338 0.40166 0.32304 0.0
C1056 C 0.12989 0.39 0.29817 0.0
C1057 C 0.14683 0.36439 0.10043 0.0
C1058 C 0.16257 0.37232 0.10068 0.0
C1059 C 0.13885 0.36039 0.13333 0.0
C1060 C 0.14643 0.36442 0.16688 0.0
C1061 C 0.16163 0.37324 0.16722 0.0
C1062 C 0.16972 0.37707 0.13432 0.0
C1063 C 0.13949 0.35786 0.2015 0.0
C1064 C 0.13357 0.36916 0.22791 0.0
C1065 C 0.13902 0.34044 0.2086 0.0
C1066 C 0.14532 0.32797 0.18177 0.0
C1067 C 0.16212 0.3283 0.17003 0.0
C1068 C 0.16785 0.31669 0.14417 0.0
C1069 C 0.15694 0.30459 0.13012 0.0
C1070 C 0.14028 0.30404 0.14201 0.0
C1071 C 0.13447 0.31565 0.1678 0.0
H1072 H 0.1614 0.29562 0.1101 0.0
H1073 H 0.10233 0.40843 0.35696 0.0
H1074 H 0.67771 0.10245 0.34218 0.0
H1075 H 0.66584 0.10965 0.28232 0.0
H1076 H 0.63254 0.14523 0.33412 0.0
H1077 H 0.64372 0.13738 0.39408 0.0
H1078 H 0.61673 0.13137 0.28084 0.0
H1079 H 0.67098 0.15684 0.29322 0.0
H1080 H 0.70149 0.15759 0.30448 0.0
H1081 H 0.70969 0.12487 0.21271 0.0
H1082 H 0.6792 0.12376 0.2012 0.0
H1083 H 0.60776 0.18878 0.1296 0.0
H1084 H 0.61416 0.17515 0.18827 0.0
H1085 H 0.63664 0.13355 0.13077 0.0
H1086 H 0.63014 0.14693 0.07213 0.0
H1087 H 0.65726 0.14892 0.18501 0.0
H1088 H 0.6015 0.12662 0.17095 0.0
H1089 H 0.57098 0.12851 0.16067 0.0
H1090 H 0.56574 0.15888 0.25719 0.0
H1091 H 0.59628 0.15737 0.26776 0.0
C1092 C 0.66772 0.11166 0.34072 0.0
C1093 C 0.66173 0.11949 0.37259 0.0
C1094 C 0.661 0.11582 0.30656 0.0
C1095 C 0.64858 0.12829 0.30363 0.0
C1096 C 0.64213 0.13562 0.33566 0.0
C1097 C 0.64857 0.13117 0.36989 0.0
C1098 C 0.6429 0.13433 0.26722 0.0
C1099 C 0.62561 0.13533 0.26002 0.0
C1100 C 0.65446 0.13937 0.23985 0.0
C1101 C 0.6728 0.14008 0.2466 0.0
C1102 C 0.67929 0.14972 0.2756 0.0
C1103 C 0.69657 0.15022 0.282 0.0
C1104 C 0.70752 0.14124 0.25939 0.0
C1105 C 0.7012 0.13179 0.23024 0.0
C1106 C 0.68392 0.13123 0.22375 0.0
C1107 C 0.61389 0.17664 0.1295 0.0
C1108 C 0.61853 0.16895 0.09637 0.0
C1109 C 0.61746 0.16886 0.16295 0.0
C1110 C 0.62582 0.15337 0.16366 0.0
C1111 C 0.63014 0.1455 0.13064 0.0
C1112 C 0.6264 0.15316 0.09723 0.0
C1113 C 0.63119 0.14596 0.19883 0.0
C1114 C 0.64843 0.14479 0.20579 0.0
C1115 C 0.61959 0.14116 0.22616 0.0
C1116 C 0.60121 0.14201 0.21995 0.0
C1117 C 0.59387 0.13382 0.18981 0.0
C1118 C 0.57655 0.1348 0.18397 0.0
C1119 C 0.56643 0.14384 0.20821 0.0
C1120 C 0.5736 0.15189 0.23841 0.0
C1121 C 0.59091 0.15096 0.24436 0.0
H1122 H 0.55303 0.14459 0.20364 0.0
H1123 H 0.7209 0.14164 0.26439 0.0
H1124 H 0.87128 0.69324 0.34537 0.0
H1125 H 0.86372 0.68153 0.28585 0.0
H1126 H 0.86933 0.63145 0.32934 0.0
H1127 H 0.87627 0.64313 0.38947 0.0
H1128 H 0.87663 0.66246 0.23575 0.0
H1129 H 0.83917 0.6064 0.29394 0.0
H1130 H 0.82432 0.59836 0.35067 0.0
H1131 H 0.81525 0.65028 0.37516 0.0
H1132 H 0.82982 0.65859 0.31835 0.0
H1133 H 0.84729 0.6171 0.08222 0.0
H1134 H 0.86031 0.62341 0.14137 0.0
H1135 H 0.81234 0.63979 0.18329 0.0
H1136 H 0.79918 0.63273 0.12487 0.0
H1137 H 0.8277 0.62404 0.23424 0.0
H1138 H 0.84315 0.6677 0.14978 0.0
H1139 H 0.85519 0.67939 0.09296 0.0
H1140 H 0.90333 0.6587 0.12073 0.0
H1141 H 0.89151 0.6467 0.17753 0.0
C1142 C 0.87111 0.67973 0.34215 0.0
C1143 C 0.87409 0.66908 0.37215 0.0
C1144 C 0.86684 0.67305 0.30807 0.0
C1145 C 0.86564 0.65562 0.30335 0.0
C1146 C 0.86981 0.64495 0.33262 0.0
C1147 C 0.87382 0.65163 0.36688 0.0
C1148 C 0.85885 0.64879 0.26865 0.0
C1149 C 0.86601 0.65396 0.2354 0.0
C1150 C 0.84477 0.63797 0.26819 0.0
C1151 C 0.83577 0.6331 0.30215 0.0
C1152 C 0.83395 0.61608 0.31139 0.0
C1153 C 0.82559 0.61148 0.34355 0.0
C1154 C 0.8189 0.6238 0.36657 0.0
C1155 C 0.82049 0.64075 0.35739 0.0
C1156 C 0.82881 0.64541 0.32522 0.0
C1157 C 0.83953 0.62191 0.10422 0.0
C1158 C 0.82227 0.62456 0.09898 0.0
C1159 C 0.84698 0.62558 0.13792 0.0
C1160 C 0.83737 0.63239 0.16655 0.0
C1161 C 0.82002 0.63455 0.16161 0.0
C1162 C 0.81251 0.63057 0.12819 0.0
C1163 C 0.84537 0.63784 0.20124 0.0
C1164 C 0.83846 0.63236 0.23453 0.0
C1165 C 0.85926 0.6489 0.20169 0.0
C1166 C 0.86641 0.65615 0.16767 0.0
C1167 C 0.85628 0.66555 0.14363 0.0
C1168 C 0.86306 0.67224 0.11146 0.0
C1169 C 0.88 0.66974 0.10319 0.0
C1170 C 0.8902 0.66059 0.12714 0.0
C1171 C 0.88347 0.65385 0.15933 0.0
H1172 H 0.88523 0.67493 0.07826 0.0
H1173 H 0.81245 0.62022 0.39148 0.0
H1174 H 0.34752 0.87081 0.40552 0.0
H1175 H 0.36149 0.8654 0.34698 0.0
H1176 H 0.31324 0.86101 0.29406 0.0
H1177 H 0.29927 0.86693 0.35205 0.0
H1178 H 0.36125 0.83864 0.30779 0.0
H1179 H 0.3145 0.87148 0.20656 0.0
H1180 H 0.29765 0.89742 0.20383 0.0
H1181 H 0.33067 0.92086 0.28142 0.0
H1182 H 0.34786 0.89516 0.28422 0.0
H1183 H 0.3578 0.79761 0.13876 0.0
H1184 H 0.35368 0.8112 0.19801 0.0
H1185 H 0.37077 0.85818 0.15242 0.0
H1186 H 0.37411 0.84477 0.09259 0.0
H1187 H 0.34464 0.86399 0.18894 0.0
H1188 H 0.3947 0.83491 0.21635 0.0
H1189 H 0.41444 0.81111 0.21924 0.0
H1190 H 0.38058 0.78443 0.28977 0.0
H1191 H 0.36051 0.80796 0.28688 0.0
C1192 C 0.33992 0.86894 0.38124 0.0
C1193 C 0.32231 0.86925 0.38331 0.0
C1194 C 0.34791 0.86582 0.34787 0.0
C1195 C 0.33843 0.86294 0.31607 0.0
C1196 C 0.32084 0.86356 0.31803 0.0
C1197 C 0.31285 0.86684 0.35127 0.0
C1198 C 0.34673 0.85803 0.28137 0.0
C1199 C 0.35777 0.84429 0.2818 0.0
C1200 C 0.34263 0.86574 0.2476 0.0
C1201 C 0.33241 0.88132 0.24576 0.0
C1202 C 0.31823 0.88219 0.22288 0.0
C1203 C 0.3086 0.89686 0.22136 0.0
C1204 C 0.31306 0.91077 0.24249 0.0
C1205 C 0.32719 0.91006 0.26514 0.0
C1206 C 0.33687 0.89543 0.26675 0.0
C1207 C 0.36083 0.81079 0.1415 0.0
C1208 C 0.36619 0.82018 0.11115 0.0
C1209 C 0.3586 0.81854 0.17545 0.0
C1210 C 0.36215 0.83569 0.17986 0.0
C1211 C 0.36794 0.84495 0.14969 0.0
C1212 C 0.36986 0.83728 0.11557 0.0
C1213 C 0.35858 0.84413 0.21522 0.0
C1214 C 0.34842 0.85854 0.21492 0.0
C1215 C 0.36397 0.83738 0.24915 0.0
C1216 C 0.37605 0.8232 0.25124 0.0
C1217 C 0.39141 0.82393 0.23231 0.0
C1218 C 0.40267 0.81049 0.23396 0.0
C1219 C 0.39876 0.79626 0.25464 0.0
C1220 C 0.3836 0.79546 0.27377 0.0
C1221 C 0.37228 0.80886 0.27218 0.0
H1222 H 0.40749 0.78586 0.25587 0.0
H1223 H 0.30559 0.9221 0.24129 0.0
H1224 H 0.13372 0.63882 0.58097 0.0
H1225 H 0.13796 0.62586 0.64089 0.0
H1226 H 0.1042 0.66195 0.68958 0.0
H1227 H 0.10065 0.67547 0.62989 0.0
H1228 H 0.13062 0.6612 0.72726 0.0
H1229 H 0.09508 0.61813 0.68205 0.0
H1230 H 0.08447 0.59692 0.63873 0.0
H1231 H 0.13077 0.56961 0.64741 0.0
H1232 H 0.14177 0.59078 0.6904 0.0
H1233 H 0.13926 0.62427 0.90184 0.0
H1234 H 0.12503 0.6297 0.84359 0.0
H1235 H 0.16662 0.60778 0.78504 0.0
H1236 H 0.18106 0.60244 0.84319 0.0
H1237 H 0.13271 0.60034 0.75561 0.0
H1238 H 0.16854 0.64663 0.79475 0.0
H1239 H 0.17801 0.66765 0.83981 0.0
H1240 H 0.1284 0.68868 0.84358 0.0
H1241 H 0.11859 0.66758 0.79895 0.0
C1242 C 0.12699 0.6438 0.60438 0.0
C1243 C 0.11696 0.6582 0.60097 0.0
C1244 C 0.12932 0.6363 0.63862 0.0
C1245 C 0.12127 0.64281 0.66983 0.0
C1246 C 0.11058 0.65672 0.66597 0.0
C1247 C 0.10854 0.66444 0.6319 0.0
C1248 C 0.12547 0.6363 0.70687 0.0
C1249 C 0.13065 0.64789 0.73355 0.0
C1250 C 0.12585 0.61892 0.71513 0.0
C1251 C 0.1193 0.60613 0.68927 0.0
C1252 C 0.10306 0.60767 0.67452 0.0
C1253 C 0.09696 0.59564 0.65005 0.0
C1254 C 0.10695 0.58194 0.64027 0.0
C1255 C 0.12305 0.58023 0.655 0.0
C1256 C 0.12921 0.59223 0.67946 0.0
C1257 C 0.14524 0.62032 0.87662 0.0
C1258 C 0.16137 0.61314 0.87695 0.0
C1259 C 0.13708 0.62339 0.84344 0.0
C1260 C 0.14485 0.6192 0.8102 0.0
C1261 C 0.16043 0.61103 0.81053 0.0
C1262 C 0.1687 0.60811 0.84369 0.0
C1263 C 0.1378 0.62525 0.77521 0.0
C1264 C 0.13226 0.61361 0.74912 0.0
C1265 C 0.13683 0.64259 0.76751 0.0
C1266 C 0.1428 0.65542 0.79388 0.0
C1267 C 0.15963 0.65565 0.80542 0.0
C1268 C 0.16506 0.66759 0.83084 0.0
C1269 C 0.1538 0.67946 0.84464 0.0
C1270 C 0.1371 0.67945 0.83293 0.0
C1271 C 0.1316 0.66752 0.80757 0.0
H1272 H 0.15802 0.68869 0.86432 0.0
H1273 H 0.10221 0.57264 0.62132 0.0
H1274 H 0.29789 0.11824 0.62829 0.0
H1275 H 0.31097 0.12573 0.68643 0.0
H1276 H 0.3599 0.12258 0.63615 0.0
H1277 H 0.34679 0.11571 0.57735 0.0
H1278 H 0.33166 0.11284 0.73303 0.0
H1279 H 0.38504 0.15288 0.67137 0.0
H1280 H 0.39129 0.16879 0.61492 0.0
H1281 H 0.33862 0.17655 0.59663 0.0
H1282 H 0.33208 0.1609 0.65321 0.0
H1283 H 0.37673 0.14321 0.886 0.0
H1284 H 0.37116 0.13018 0.82646 0.0
H1285 H 0.35269 0.17755 0.78529 0.0
H1286 H 0.35913 0.19076 0.84392 0.0
H1287 H 0.36825 0.16315 0.73361 0.0
H1288 H 0.32631 0.14505 0.82031 0.0
H1289 H 0.31607 0.132 0.87741 0.0
H1290 H 0.3389 0.08525 0.84668 0.0
H1291 H 0.34946 0.09811 0.78958 0.0
C1292 C 0.31145 0.11897 0.62968 0.0
C1293 C 0.32132 0.11663 0.59819 0.0
C1294 C 0.31892 0.12319 0.66299 0.0
C1295 C 0.3364 0.125 0.66551 0.0
C1296 C 0.34636 0.12161 0.63463 0.0
C1297 C 0.33887 0.11763 0.60112 0.0
C1298 C 0.34393 0.13151 0.69983 0.0
C1299 C 0.33978 0.12376 0.73315 0.0
C1300 C 0.35429 0.14593 0.70007 0.0
C1301 C 0.35809 0.15553 0.66623 0.0
C1302 C 0.37481 0.15802 0.65533 0.0
C1303 C 0.3784 0.16699 0.62332 0.0
C1304 C 0.36536 0.17361 0.60212 0.0
C1305 C 0.3487 0.17136 0.61299 0.0
C1306 C 0.34505 0.16243 0.645 0.0
C1307 C 0.37168 0.15085 0.86401 0.0
C1308 C 0.36822 0.16794 0.86956 0.0
C1309 C 0.36842 0.14339 0.8301 0.0
C1310 C 0.36116 0.15279 0.8016 0.0
C1311 C 0.35829 0.17001 0.80681 0.0
C1312 C 0.36192 0.17755 0.84038 0.0
C1313 C 0.35572 0.14467 0.76696 0.0
C1314 C 0.36035 0.15207 0.73353 0.0
C1315 C 0.34522 0.13034 0.76672 0.0
C1316 C 0.33883 0.12258 0.80092 0.0
C1317 C 0.32923 0.13202 0.82586 0.0
C1318 C 0.32336 0.12466 0.8582 0.0
C1319 C 0.32688 0.10782 0.86572 0.0
C1320 C 0.33622 0.0983 0.84085 0.0
C1321 C 0.34215 0.10561 0.8085 0.0
H1322 H 0.32232 0.10214 0.89077 0.0
H1323 H 0.36816 0.18054 0.57734 0.0
H1324 H 0.807 0.38585 0.8469 0.0
H1325 H 0.81839 0.37827 0.78692 0.0
H1326 H 0.85682 0.34856 0.83954 0.0
H1327 H 0.84587 0.35662 0.89955 0.0
H1328 H 0.86944 0.36305 0.78138 0.0
H1329 H 0.82047 0.33062 0.80714 0.0
H1330 H 0.79098 0.32551 0.82415 0.0
H1331 H 0.77445 0.35302 0.7295 0.0
H1332 H 0.80387 0.35849 0.71218 0.0
H1333 H 0.88045 0.30258 0.63537 0.0
H1334 H 0.87395 0.31638 0.6938 0.0
H1335 H 0.84662 0.35493 0.63604 0.0
H1336 H 0.85332 0.34146 0.57759 0.0
H1337 H 0.82894 0.33684 0.6954 0.0
H1338 H 0.8802 0.36684 0.66921 0.0
H1339 H 0.91024 0.36886 0.65375 0.0
H1340 H 0.92296 0.34183 0.7518 0.0
H1341 H 0.89296 0.33943 0.76758 0.0
C1342 C 0.81802 0.3779 0.84563 0.0
C1343 C 0.82544 0.37166 0.87779 0.0
C1344 C 0.82448 0.37353 0.8114 0.0
C1345 C 0.83822 0.36254 0.80878 0.0
C1346 C 0.84617 0.357 0.84092 0.0
C1347 C 0.83987 0.36158 0.87518 0.0
C1348 C 0.84363 0.35598 0.77269 0.0
C1349 C 0.8606 0.35722 0.76271 0.0
C1350 C 0.83209 0.34838 0.74828 0.0
C1351 C 0.81437 0.34513 0.75859 0.0
C1352 C 0.81055 0.3357 0.79011 0.0
C1353 C 0.79384 0.33271 0.79978 0.0
C1354 C 0.78085 0.33898 0.77798 0.0
C1355 C 0.78453 0.3482 0.7464 0.0
C1356 C 0.80122 0.35124 0.73663 0.0
C1357 C 0.87321 0.31409 0.63517 0.0
C1358 C 0.86733 0.32094 0.60206 0.0
C1359 C 0.86958 0.32196 0.66844 0.0
C1360 C 0.85986 0.33663 0.66898 0.0
C1361 C 0.85418 0.34362 0.63597 0.0
C1362 C 0.85805 0.33594 0.6027 0.0
C1363 C 0.85463 0.34406 0.70414 0.0
C1364 C 0.8377 0.34285 0.714 0.0
C1365 C 0.86627 0.35127 0.7287 0.0
C1366 C 0.88432 0.35281 0.71938 0.0
C1367 C 0.88939 0.36119 0.68731 0.0
C1368 C 0.90642 0.36243 0.67852 0.0
C1369 C 0.9185 0.35543 0.70172 0.0
C1370 C 0.91359 0.34722 0.73383 0.0
C1371 C 0.89657 0.34594 0.74272 0.0
H1372 H 0.93168 0.3564 0.69487 0.0
H1373 H 0.76792 0.33665 0.7855 0.0
H1374 H 0.59816 0.80417 0.84982 0.0
H1375 H 0.60447 0.81632 0.78979 0.0
H1376 H 0.63643 0.85309 0.84135 0.0
H1377 H 0.62952 0.84149 0.90147 0.0
H1378 H 0.62142 0.867 0.78591 0.0
H1379 H 0.65219 0.816 0.80438 0.0
H1380 H 0.65607 0.78597 0.81842 0.0
H1381 H 0.62569 0.77276 0.7256 0.0
H1382 H 0.62144 0.80273 0.7113 0.0
H1383 H 0.68032 0.87808 0.63756 0.0
H1384 H 0.66642 0.87167 0.69589 0.0
H1385 H 0.62719 0.84564 0.63775 0.0
H1386 H 0.6408 0.8522 0.57942 0.0
H1387 H 0.6443 0.82691 0.6946 0.0
H1388 H 0.61664 0.87991 0.6745 0.0
H1389 H 0.61564 0.91026 0.66171 0.0
H1390 H 0.64403 0.92004 0.75945 0.0
H1391 H 0.64542 0.8897 0.77255 0.0
C1392 C 0.60634 0.815 0.84831 0.0
C1393 C 0.61352 0.82178 0.88015 0.0
C1394 C 0.60998 0.82189 0.81405 0.0
C1395 C 0.62125 0.83535 0.81103 0.0
C1396 C 0.62775 0.84267 0.843 0.0
C1397 C 0.62384 0.836 0.87732 0.0
C1398 C 0.62718 0.84107 0.7746 0.0
C1399 C 0.62652 0.85824 0.76605 0.0
C1400 C 0.63377 0.82964 0.74857 0.0
C1401 C 0.63634 0.8116 0.75702 0.0
C1402 C 0.64624 0.80669 0.78712 0.0
C1403 C 0.64852 0.78968 0.79511 0.0
C1404 C 0.64109 0.77746 0.77298 0.0
C1405 C 0.63141 0.78223 0.74276 0.0
C1406 C 0.62906 0.79923 0.73469 0.0
C1407 C 0.66863 0.87118 0.63724 0.0
C1408 C 0.66168 0.86555 0.60405 0.0
C1409 C 0.66068 0.86761 0.67047 0.0
C1410 C 0.6458 0.85824 0.6709 0.0
C1411 C 0.63865 0.85294 0.6378 0.0
C1412 C 0.64644 0.8567 0.60458 0.0
C1413 C 0.63847 0.85275 0.70601 0.0
C1414 C 0.639 0.83561 0.71435 0.0
C1415 C 0.63217 0.86425 0.73205 0.0
C1416 C 0.63126 0.88251 0.72432 0.0
C1417 C 0.6228 0.88851 0.6931 0.0
C1418 C 0.62214 0.90572 0.68582 0.0
C1419 C 0.62981 0.91707 0.7097 0.0
C1420 C 0.63811 0.91123 0.74096 0.0
C1421 C 0.63883 0.89403 0.74834 0.0
H1422 H 0.62928 0.93039 0.70402 0.0
H1423 H 0.64287 0.7643 0.7792 0.0
H1424 H 0.87692 0.66239 0.59701 0.0
H1425 H 0.87249 0.6533 0.66053 0.0
H1426 H 0.82084 0.64196 0.63576 0.0
H1427 H 0.8252 0.65064 0.57213 0.0
H1428 H 0.82717 0.66442 0.69807 0.0
H1429 H 0.84246 0.6107 0.64843 0.0
H1430 H 0.8604 0.5909 0.61436 0.0
H1431 H 0.90086 0.59996 0.68952 0.0
H1432 H 0.88324 0.62002 0.72374 0.0
H1433 H 0.81731 0.61045 0.86919 0.0
H1434 H 0.82301 0.61217 0.80324 0.0
H1435 H 0.85028 0.6582 0.82002 0.0
H1436 H 0.84483 0.65658 0.88571 0.0
H1437 H 0.85433 0.61607 0.76037 0.0
H1438 H 0.83426 0.6852 0.75502 0.0
H1439 H 0.81634 0.70498 0.78937 0.0
H1440 H 0.78452 0.66437 0.82299 0.0
H1441 H 0.80209 0.6444 0.7884 0.0
C1442 C 0.86467 0.65781 0.60504 0.0
C1443 C 0.85139 0.65727 0.57967 0.0
C1444 C 0.86219 0.65257 0.64119 0.0
C1445 C 0.84637 0.64695 0.65257 0.0
C1446 C 0.83315 0.64622 0.62729 0.0
C1447 C 0.83568 0.65115 0.591 0.0
C1448 C 0.8433 0.64293 0.69145 0.0
C1449 C 0.83306 0.65381 0.71166 0.0
C1450 C 0.85095 0.62905 0.70893 0.0
C1451 C 0.86158 0.617 0.68842 0.0
C1452 C 0.85524 0.60861 0.65748 0.0
C1453 C 0.86534 0.5973 0.63819 0.0
C1454 C 0.88178 0.59421 0.6497 0.0
C1455 C 0.88814 0.60238 0.6806 0.0
C1456 C 0.87809 0.61371 0.69998 0.0
C1457 C 0.82473 0.62081 0.85891 0.0
C1458 C 0.83047 0.63346 0.88265 0.0
C1459 C 0.82803 0.62171 0.82131 0.0
C1460 C 0.83693 0.63537 0.80696 0.0
C1461 C 0.84331 0.64761 0.83071 0.0
C1462 C 0.84016 0.64665 0.86823 0.0
C1463 C 0.8384 0.6377 0.76696 0.0
C1464 C 0.84839 0.62659 0.74664 0.0
C1465 C 0.83049 0.65136 0.74924 0.0
C1466 C 0.81958 0.66331 0.7694 0.0
C1467 C 0.82339 0.68052 0.7696 0.0
C1468 C 0.8133 0.69176 0.78913 0.0
C1469 C 0.79933 0.68593 0.80844 0.0
C1470 C 0.79538 0.66886 0.80813 0.0
C1471 C 0.80541 0.65757 0.7886 0.0
H1472 H 0.79156 0.69465 0.82359 0.0
H1473 H 0.88957 0.58544 0.63474 0.0
H1474 H 0.35096 0.83686 0.58513 0.0
H1475 H 0.35876 0.83447 0.64954 0.0
H1476 H 0.31904 0.86872 0.67891 0.0
H1477 H 0.31122 0.8714 0.61425 0.0
H1478 H 0.34793 0.87424 0.71883 0.0
H1479 H 0.31254 0.82774 0.68661 0.0
H1480 H 0.30373 0.80332 0.64991 0.0
H1481 H 0.35008 0.77831 0.67507 0.0
H1482 H 0.35927 0.8027 0.71152 0.0
H1483 H 0.33457 0.84972 0.90402 0.0
H1484 H 0.33312 0.85712 0.83923 0.0
H1485 H 0.37211 0.82119 0.81521 0.0
H1486 H 0.37353 0.81351 0.88004 0.0
H1487 H 0.34524 0.81698 0.77199 0.0
H1488 H 0.37963 0.86312 0.80871 0.0
H1489 H 0.38779 0.88759 0.84597 0.0
H1490 H 0.34279 0.91332 0.81357 0.0
H1491 H 0.33424 0.88891 0.7765 0.0
C1492 C 0.34394 0.84401 0.60518 0.0
C1493 C 0.33032 0.85416 0.59459 0.0
C1494 C 0.34843 0.84262 0.64198 0.0
C1495 C 0.33931 0.85122 0.66895 0.0
C1496 C 0.32619 0.86195 0.65844 0.0
C1497 C 0.32171 0.86341 0.62152 0.0
C1498 C 0.34284 0.84818 0.70819 0.0
C1499 C 0.34721 0.86177 0.73063 0.0
C1500 C 0.34219 0.83183 0.72324 0.0
C1501 C 0.33666 0.81712 0.70146 0.0
C1502 C 0.32091 0.81709 0.68407 0.0
C1503 C 0.31584 0.80325 0.66336 0.0
C1504 C 0.32636 0.78929 0.66008 0.0
C1505 C 0.34196 0.78914 0.67759 0.0
C1506 C 0.3471 0.80297 0.69829 0.0
C1507 C 0.343 0.84351 0.88508 0.0
C1508 C 0.35409 0.83092 0.89718 0.0
C1509 C 0.34222 0.84785 0.84806 0.0
C1510 C 0.35259 0.83978 0.82248 0.0
C1511 C 0.36402 0.82757 0.83458 0.0
C1512 C 0.36482 0.82322 0.87163 0.0
C1513 C 0.35042 0.84303 0.78282 0.0
C1514 C 0.34618 0.82946 0.76024 0.0
C1515 C 0.35112 0.8594 0.76782 0.0
C1516 C 0.35623 0.87412 0.79006 0.0
C1517 C 0.3714 0.87394 0.80977 0.0
C1518 C 0.37611 0.88781 0.8308 0.0
C1519 C 0.3658 0.90198 0.8322 0.0
C1520 C 0.35076 0.90233 0.81249 0.0
C1521 C 0.34599 0.88848 0.79142 0.0
H1522 H 0.36947 0.91271 0.8485 0.0
H1523 H 0.32241 0.77858 0.64404 0.0
H1524 H 0.16092 0.34711 0.57719 0.0
H1525 H 0.16468 0.35412 0.64177 0.0
H1526 H 0.12226 0.32318 0.67009 0.0
H1527 H 0.11825 0.31619 0.6054 0.0
H1528 H 0.12255 0.35279 0.7085 0.0
H1529 H 0.16078 0.308 0.6808 0.0
H1530 H 0.18326 0.29368 0.64647 0.0
H1531 H 0.2174 0.33355 0.67265 0.0
H1532 H 0.19503 0.34823 0.70672 0.0
H1533 H 0.14097 0.33758 0.89658 0.0
H1534 H 0.13513 0.3353 0.83103 0.0
H1535 H 0.1772 0.36751 0.80737 0.0
H1536 H 0.18317 0.36989 0.87296 0.0
H1537 H 0.17714 0.33849 0.76624 0.0
H1538 H 0.13879 0.38253 0.79712 0.0
H1539 H 0.11612 0.3962 0.8321 0.0
H1540 H 0.08204 0.35705 0.80095 0.0
H1541 H 0.10458 0.343 0.76619 0.0
C1542 C 0.15229 0.34187 0.59706 0.0
C1543 C 0.13936 0.33096 0.58614 0.0
C1544 C 0.1545 0.34587 0.63397 0.0
C1545 C 0.14389 0.33898 0.66068 0.0
C1546 C 0.1306 0.32859 0.64984 0.0
C1547 C 0.12837 0.32457 0.61288 0.0
C1548 C 0.14708 0.34211 0.70004 0.0
C1549 C 0.13441 0.34952 0.72127 0.0
C1550 C 0.16269 0.33811 0.7164 0.0
C1551 C 0.17617 0.3293 0.69596 0.0
C1552 C 0.17304 0.31379 0.67897 0.0
C1553 C 0.18577 0.30559 0.65961 0.0
C1554 C 0.20173 0.31272 0.65729 0.0
C1555 C 0.20501 0.32805 0.67441 0.0
C1556 C 0.19232 0.33631 0.69377 0.0
C1557 C 0.14893 0.34427 0.87749 0.0
C1558 C 0.16256 0.35389 0.88999 0.0
C1559 C 0.14552 0.34302 0.84006 0.0
C1560 C 0.15567 0.35133 0.81447 0.0
C1561 C 0.16921 0.36104 0.82679 0.0
C1562 C 0.17257 0.3624 0.86425 0.0
C1563 C 0.15262 0.34919 0.77475 0.0
C1564 C 0.16532 0.34189 0.75345 0.0
C1565 C 0.13702 0.35321 0.75845 0.0
C1566 C 0.12342 0.36163 0.77933 0.0
C1567 C 0.1265 0.37675 0.79799 0.0
C1568 C 0.11367 0.38459 0.81773 0.0
C1569 C 0.09766 0.37748 0.81883 0.0
C1570 C 0.09445 0.36253 0.80011 0.0
C1571 C 0.10724 0.35464 0.78035 0.0
H1572 H 0.08774 0.38357 0.83411 0.0
H1573 H 0.21157 0.30636 0.64229 0.0
H1574 H 0.65224 0.14234 0.89584 0.0
H1575 H 0.65476 0.13459 0.83141 0.0
H1576 H 0.62042 0.17424 0.80177 0.0
H1577 H 0.61753 0.1819 0.8664 0.0
H1578 H 0.61457 0.14618 0.7622 0.0
H1579 H 0.66236 0.17989 0.79377 0.0
H1580 H 0.68723 0.18789 0.82998 0.0
H1581 H 0.71063 0.14078 0.80436 0.0
H1582 H 0.68578 0.13241 0.76839 0.0
H1583 H 0.63881 0.15717 0.57577 0.0
H1584 H 0.63221 0.1601 0.6408 0.0
H1585 H 0.66589 0.11931 0.6663 0.0
H1586 H 0.6727 0.11635 0.60131 0.0
H1587 H 0.67172 0.14671 0.70826 0.0
H1588 H 0.62408 0.11386 0.67313 0.0
H1589 H 0.59921 0.10658 0.63625 0.0
H1590 H 0.57553 0.15283 0.66742 0.0
H1591 H 0.60037 0.16052 0.70409 0.0
C1592 C 0.64512 0.14937 0.87569 0.0
C1593 C 0.63482 0.16287 0.88621 0.0
C1594 C 0.6466 0.14492 0.83887 0.0
C1595 C 0.638 0.15403 0.81181 0.0
C1596 C 0.62721 0.16709 0.82227 0.0
C1597 C 0.62562 0.17148 0.85919 0.0
C1598 C 0.64084 0.15036 0.77253 0.0
C1599 C 0.62703 0.14646 0.75026 0.0
C1600 C 0.65716 0.15042 0.75722 0.0
C1601 C 0.67214 0.15546 0.77871 0.0
C1602 C 0.67276 0.17119 0.79609 0.0
C1603 C 0.68685 0.1758 0.81654 0.0
C1604 C 0.70048 0.16483 0.81955 0.0
C1605 C 0.70005 0.14925 0.80204 0.0
C1606 C 0.68597 0.14457 0.78161 0.0
C1607 C 0.64471 0.14871 0.59513 0.0
C1608 C 0.65635 0.13657 0.58334 0.0
C1609 C 0.64084 0.15034 0.63227 0.0
C1610 C 0.64848 0.13985 0.65828 0.0
C1611 C 0.65985 0.12752 0.64659 0.0
C1612 C 0.6637 0.12583 0.60944 0.0
C1613 C 0.64546 0.14249 0.69787 0.0
C1614 C 0.65926 0.14629 0.7202 0.0
C1615 C 0.62913 0.14243 0.71309 0.0
C1616 C 0.61416 0.13783 0.6911 0.0
C1617 C 0.61363 0.12255 0.67187 0.0
C1618 C 0.59952 0.11833 0.65106 0.0
C1619 C 0.58581 0.12925 0.64942 0.0
C1620 C 0.58617 0.14439 0.66868 0.0
C1621 C 0.60025 0.14868 0.68952 0.0
H1622 H 0.5749 0.12596 0.63329 0.0
H1623 H 0.71139 0.16842 0.83539 0.0
H1624 H 0.8671 0.30364 0.37106 0.0
H1625 H 0.86445 0.31084 0.30616 0.0
H1626 H 0.83461 0.35414 0.33462 0.0
H1627 H 0.83675 0.34673 0.39936 0.0
H1628 H 0.82011 0.33758 0.28209 0.0
H1629 H 0.87613 0.35726 0.30378 0.0
H1630 H 0.90554 0.35517 0.32434 0.0
H1631 H 0.91445 0.31567 0.24673 0.0
H1632 H 0.88502 0.31737 0.22603 0.0
H1633 H 0.81737 0.37294 0.10495 0.0
H1634 H 0.82412 0.36907 0.16973 0.0
H1635 H 0.85131 0.32378 0.14377 0.0
H1636 H 0.84491 0.32769 0.07884 0.0
H1637 H 0.86764 0.34221 0.19488 0.0
H1638 H 0.8114 0.32181 0.17547 0.0
H1639 H 0.78198 0.32385 0.1549 0.0
H1640 H 0.77365 0.36491 0.22886 0.0
H1641 H 0.80309 0.36326 0.24952 0.0
C1642 C 0.8601 0.31478 0.3635 0.0
C1643 C 0.85208 0.32458 0.39031 0.0
C1644 C 0.85867 0.31893 0.32641 0.0
C1645 C 0.84946 0.33313 0.31555 0.0
C1646 C 0.84175 0.34311 0.34236 0.0
C1647 C 0.84299 0.33886 0.37936 0.0
C1648 C 0.84702 0.33707 0.27619 0.0
C1649 C 0.83054 0.33888 0.26319 0.0
C1650 C 0.86059 0.33833 0.25131 0.0
C1651 C 0.87832 0.33734 0.26358 0.0
C1652 C 0.88432 0.34804 0.29128 0.0
C1653 C 0.901 0.34694 0.30293 0.0
C1654 C 0.91184 0.33527 0.28691 0.0
C1655 C 0.90603 0.3247 0.25914 0.0
C1656 C 0.88936 0.32574 0.24741 0.0
C1657 C 0.82488 0.36221 0.11294 0.0
C1658 C 0.83047 0.35053 0.08675 0.0
C1659 C 0.8287 0.36001 0.14999 0.0
C1660 C 0.838 0.346 0.16155 0.0
C1661 C 0.84409 0.33465 0.13538 0.0
C1662 C 0.84036 0.33688 0.0983 0.0
C1663 C 0.84077 0.34279 0.20106 0.0
C1664 C 0.85727 0.34104 0.21397 0.0
C1665 C 0.82723 0.3416 0.22596 0.0
C1666 C 0.80948 0.34252 0.21377 0.0
C1667 C 0.80332 0.33135 0.18715 0.0
C1668 C 0.78664 0.33242 0.17551 0.0
C1669 C 0.77596 0.34453 0.19049 0.0
C1670 C 0.78193 0.35556 0.21724 0.0
C1671 C 0.79861 0.35455 0.22895 0.0
H1672 H 0.76305 0.34534 0.18144 0.0
H1673 H 0.92475 0.33444 0.29597 0.0
H1674 H 0.6183 0.8074 0.10872 0.0
H1675 H 0.62252 0.81408 0.17337 0.0
H1676 H 0.65822 0.85238 0.14361 0.0
H1677 H 0.65435 0.84557 0.0789 0.0
H1678 H 0.67021 0.83329 0.197 0.0
H1679 H 0.61874 0.86253 0.17442 0.0
H1680 H 0.58954 0.86587 0.15324 0.0
H1681 H 0.5733 0.82865 0.23057 0.0
H1682 H 0.60245 0.82491 0.25188 0.0
H1683 H 0.67701 0.86807 0.37518 0.0
H1684 H 0.67047 0.8652 0.31001 0.0
H1685 H 0.63729 0.82397 0.3343 0.0
H1686 H 0.64365 0.82676 0.39954 0.0
H1687 H 0.62388 0.84596 0.28354 0.0
H1688 H 0.67553 0.81588 0.30367 0.0
H1689 H 0.70473 0.81253 0.32485 0.0
H1690 H 0.72054 0.85164 0.25165 0.0
H1691 H 0.69137 0.85539 0.2304 0.0
C1692 C 0.62697 0.81733 0.11587 0.0
C1693 C 0.63601 0.82593 0.08862 0.0
C1694 C 0.6293 0.82119 0.15285 0.0
C1695 C 0.64056 0.83385 0.16327 0.0
C1696 C 0.64947 0.84257 0.13615 0.0
C1697 C 0.64721 0.83867 0.09917 0.0
C1698 C 0.64361 0.83747 0.20254 0.0
C1699 C 0.66011 0.83635 0.21577 0.0
C1700 C 0.63037 0.84107 0.22718 0.0
C1701 C 0.61281 0.84334 0.21452 0.0
C1702 C 0.60897 0.85496 0.18672 0.0
C1703 C 0.59242 0.85695 0.17472 0.0
C1704 C 0.57958 0.84745 0.19049 0.0
C1705 C 0.58326 0.83598 0.21836 0.0
C1706 C 0.59979 0.83394 0.23043 0.0
C1707 C 0.66824 0.85845 0.36673 0.0
C1708 C 0.66094 0.84756 0.39255 0.0
C1709 C 0.66456 0.85681 0.32948 0.0
C1710 C 0.65353 0.84427 0.3174 0.0
C1711 C 0.64584 0.83372 0.34314 0.0
C1712 C 0.64956 0.8353 0.38037 0.0
C1713 C 0.65044 0.84176 0.27781 0.0
C1714 C 0.63396 0.84303 0.2646 0.0
C1715 C 0.66369 0.83832 0.25313 0.0
C1716 C 0.68124 0.83604 0.26575 0.0
C1717 C 0.68521 0.82386 0.29232 0.0
C1718 C 0.70176 0.82188 0.30429 0.0
C1719 C 0.71448 0.8319 0.28968 0.0
C1720 C 0.71068 0.84391 0.26299 0.0
C1721 C 0.69414 0.84596 0.25095 0.0
H1722 H 0.72728 0.83035 0.29899 0.0
H1723 H 0.56678 0.84901 0.18116 0.0
H1724 H 0.12212 0.67584 0.3735 0.0
H1725 H 0.12592 0.66984 0.30837 0.0
H1726 H 0.16439 0.63366 0.33471 0.0
H1727 H 0.1609 0.63976 0.39986 0.0
H1728 H 0.17418 0.65388 0.2802 0.0
H1729 H 0.12534 0.62109 0.30797 0.0
H1730 H 0.09685 0.61598 0.33182 0.0
H1731 H 0.0767 0.6518 0.25557 0.0
H1732 H 0.10511 0.6573 0.23159 0.0
H1733 H 0.18037 0.61731 0.10388 0.0
H1734 H 0.17501 0.62098 0.16934 0.0
H1735 H 0.13779 0.65872 0.14498 0.0
H1736 H 0.14293 0.65506 0.07945 0.0
H1737 H 0.12732 0.63712 0.19848 0.0
H1738 H 0.17604 0.67036 0.1717 0.0
H1739 H 0.20444 0.6755 0.14736 0.0
H1740 H 0.22474 0.63894 0.2217 0.0
H1741 H 0.19641 0.6334 0.24613 0.0
C1742 C 0.13134 0.66654 0.3655 0.0
C1743 C 0.1412 0.65828 0.39193 0.0
C1744 C 0.13344 0.66309 0.32825 0.0
C1745 C 0.14533 0.6512 0.31675 0.0
C1746 C 0.15514 0.64288 0.34303 0.0
C1747 C 0.15309 0.64636 0.38026 0.0
C1748 C 0.14788 0.64776 0.27723 0.0
C1749 C 0.16398 0.64996 0.26245 0.0
C1750 C 0.13449 0.64305 0.25394 0.0
C1751 C 0.11738 0.63972 0.26822 0.0
C1752 C 0.11485 0.62798 0.29648 0.0
C1753 C 0.09872 0.62499 0.30999 0.0
C1754 C 0.08498 0.63359 0.29529 0.0
C1755 C 0.08735 0.64517 0.26697 0.0
C1756 C 0.10347 0.64821 0.25338 0.0
C1757 C 0.17098 0.62633 0.11239 0.0
C1758 C 0.16216 0.63597 0.08642 0.0
C1759 C 0.16797 0.62844 0.14981 0.0
C1760 C 0.15615 0.64026 0.16193 0.0
C1761 C 0.14699 0.64956 0.13612 0.0
C1762 C 0.15 0.64748 0.0987 0.0
C1763 C 0.1536 0.64321 0.20158 0.0
C1764 C 0.13751 0.64096 0.21633 0.0
C1765 C 0.16699 0.64791 0.22485 0.0
C1766 C 0.18407 0.65134 0.21048 0.0
C1767 C 0.18654 0.66333 0.18267 0.0
C1768 C 0.20263 0.66633 0.16888 0.0
C1769 C 0.21638 0.65752 0.1829 0.0
C1770 C 0.21408 0.64573 0.21083 0.0
C1771 C 0.19801 0.64267 0.22467 0.0
H1772 H 0.22882 0.65985 0.17217 0.0
H1773 H 0.0725 0.63127 0.30578 0.0
H1774 H 0.31044 0.11712 0.36745 0.0
H1775 H 0.31787 0.12064 0.30289 0.0
H1776 H 0.35303 0.15951 0.33204 0.0
H1777 H 0.34555 0.15626 0.39652 0.0
H1778 H 0.33333 0.16905 0.27623 0.0
H1779 H 0.36667 0.12078 0.30633 0.0
H1780 H 0.37194 0.09234 0.33039 0.0
H1781 H 0.33794 0.07174 0.25097 0.0
H1782 H 0.33229 0.1001 0.22675 0.0
H1783 H 0.37115 0.17726 0.1022 0.0
H1784 H 0.36772 0.17092 0.16733 0.0
H1785 H 0.33123 0.1329 0.14083 0.0
H1786 H 0.33466 0.13901 0.07564 0.0
H1787 H 0.35247 0.12275 0.19545 0.0
H1788 H 0.31823 0.17077 0.16709 0.0
H1789 H 0.31244 0.19914 0.14312 0.0
H1790 H 0.34762 0.22007 0.21958 0.0
H1791 H 0.35381 0.19179 0.24365 0.0
C1792 C 0.31984 0.12634 0.36018 0.0
C1793 C 0.32738 0.13643 0.38717 0.0
C1794 C 0.32412 0.12828 0.32328 0.0
C1795 C 0.33609 0.14025 0.31274 0.0
C1796 C 0.34375 0.1502 0.33962 0.0
C1797 C 0.33948 0.14829 0.37648 0.0
C1798 C 0.34013 0.1429 0.27354 0.0
C1799 C 0.33778 0.15898 0.25871 0.0
C1800 C 0.34551 0.12966 0.25052 0.0
C1801 C 0.34894 0.11259 0.26495 0.0
C1802 C 0.36021 0.1102 0.29418 0.0
C1803 C 0.36329 0.09409 0.30781 0.0
C1804 C 0.35525 0.08025 0.29228 0.0
C1805 C 0.34415 0.08248 0.26301 0.0
C1806 C 0.34102 0.09857 0.24929 0.0
C1807 C 0.36252 0.16742 0.11015 0.0
C1808 C 0.35306 0.15875 0.08372 0.0
C1809 C 0.36055 0.16386 0.14739 0.0
C1810 C 0.34905 0.15161 0.15884 0.0
C1811 C 0.34013 0.14243 0.13251 0.0
C1812 C 0.34208 0.14599 0.09528 0.0
C1813 C 0.34574 0.14889 0.19831 0.0
C1814 C 0.34814 0.13282 0.2131 0.0
C1815 C 0.34034 0.16212 0.22133 0.0
C1816 C 0.33662 0.17914 0.2069 0.0
C1817 C 0.32484 0.18141 0.17858 0.0
C1818 C 0.32146 0.19748 0.16502 0.0
C1819 C 0.32969 0.21139 0.17976 0.0
C1820 C 0.34128 0.20927 0.20815 0.0
C1821 C 0.34472 0.19323 0.22178 0.0
H1822 H 0.32706 0.22382 0.16927 0.0
H1823 H 0.35765 0.06779 0.30287 0.0
loop_
_geom_bond_atom_site_label_1
_geom_bond_atom_site_label_2
_geom_bond_distance
_geom_bond_site_symmetry_2
_ccdc_geom_bond_type
C0 O1 1.306 . S
C0 O3 1.160 . S
O1 C0 1.306 . S
O1 Cd2 2.228 1_556 S
Cd2 O1 2.228 1_554 S
Cd2 O6 2.273 . S
Cd2 O10 2.277 . S
O3 C0 1.160 . S
O3 Cd4 2.203 1_556 S
Cd4 O3 2.203 1_554 S
Cd4 O6 2.411 . S
Cd4 O7 2.333 . S
Cd4 O8 2.351 1_554 S
Cd4 O12 2.277 1_554 S
Cd4 O13 2.356 . S
C5 O10 1.211 . S
C5 O12 1.225 1_554 S
O6 Cd2 2.273 . S
O6 Cd4 2.411 . S
O6 C9 1.320 . S
O7 Cd4 2.333 . S
O7 C9 1.214 . S
O8 Cd4 2.351 1_556 S
O8 C11 1.257 1_556 S
C9 O6 1.320 . S
C9 O7 1.214 . S
O10 Cd2 2.277 . S
O10 C5 1.211 . S
C11 O8 1.257 1_554 S
C11 O13 1.282 . S
O12 Cd4 2.277 1_556 S
O12 C5 1.225 1_556 S
O13 Cd4 2.356 . S
O13 C11 1.282 . S
C14 O15 1.306 . S
C14 O17 1.160 . S
O15 C14 1.306 . S
O15 Cd16 2.228 1_556 S
Cd16 O15 2.228 1_554 S
Cd16 O20 2.273 . S
Cd16 O24 2.277 . S
O17 C14 1.160 . S
O17 Cd18 2.203 1_556 S
Cd18 O17 2.203 1_554 S
Cd18 O20 2.411 . S
Cd18 O21 2.333 . S
Cd18 O22 2.351 1_554 S
Cd18 O26 2.277 1_554 S
Cd18 O27 2.356 . S
C19 O24 1.211 . S
C19 O26 1.225 1_554 S
O20 Cd16 2.273 . S
O20 Cd18 2.411 . S
O20 C23 1.320 . S
O21 Cd18 2.333 . S
O21 C23 1.214 . S
O22 Cd18 2.351 1_556 S
O22 C25 1.257 1_556 S
C23 O20 1.320 . S
C23 O21 1.214 . S
O24 Cd16 2.277 . S
O24 C19 1.211 . S
C25 O22 1.257 1_554 S
C25 O27 1.282 . S
O26 Cd18 2.277 1_556 S
O26 C19 1.225 1_556 S
O27 Cd18 2.356 . S
O27 C25 1.282 . S
C28 O29 1.306 . S
C28 O31 1.160 . S
O29 C28 1.306 . S
O29 Cd30 2.228 1_556 S
Cd30 O29 2.228 1_554 S
Cd30 O34 2.273 . S
Cd30 O38 2.277 . S
O31 C28 1.160 . S
O31 Cd32 2.203 1_556 S
Cd32 O31 2.203 1_554 S
Cd32 O34 2.411 . S
Cd32 O35 2.333 . S
Cd32 O36 2.351 1_554 S
Cd32 O40 2.277 1_554 S
Cd32 O41 2.356 . S
C33 O38 1.211 . S
C33 O40 1.225 1_554 S
O34 Cd30 2.273 . S
O34 Cd32 2.411 . S
O34 C37 1.320 . S
O35 Cd32 2.333 . S
O35 C37 1.214 . S
O36 Cd32 2.351 1_556 S
O36 C39 1.257 1_556 S
C37 O34 1.320 . S
C37 O35 1.214 . S
O38 Cd30 2.277 . S
O38 C33 1.211 . S
C39 O36 1.257 1_554 S
C39 O41 1.282 . S
O40 Cd32 2.277 1_556 S
O40 C33 1.225 1_556 S
O41 Cd32 2.356 . S
O41 C39 1.282 . S
C42 O43 1.306 . S
C42 O45 1.160 . S
O43 C42 1.306 . S
O43 Cd44 2.228 1_556 S
Cd44 O43 2.228 1_554 S
Cd44 O48 2.273 . S
Cd44 O52 2.277 . S
O45 C42 1.160 . S
O45 Cd46 2.203 1_556 S
Cd46 O45 2.203 1_554 S
Cd46 O48 2.411 . S
Cd46 O49 2.333 . S
Cd46 O50 2.351 1_554 S
Cd46 O54 2.277 1_554 S
Cd46 O55 2.356 . S
C47 O52 1.211 . S
C47 O54 1.225 1_554 S
O48 Cd44 2.273 . S
O48 Cd46 2.411 . S
O48 C51 1.320 . S
O49 Cd46 2.333 . S
O49 C51 1.214 . S
O50 Cd46 2.351 1_556 S
O50 C53 1.257 1_556 S
C51 O48 1.320 . S
C51 O49 1.214 . S
O52 Cd44 2.277 . S
O52 C47 1.211 . S
C53 O50 1.257 1_554 S
C53 O55 1.282 . S
O54 Cd46 2.277 1_556 S
O54 C47 1.225 1_556 S
O55 Cd46 2.356 . S
O55 C53 1.282 . S
C56 O57 1.306 . S
C56 O59 1.160 . S
O57 C56 1.306 . S
O57 Cd58 2.228 1_554 S
Cd58 O57 2.228 1_556 S
Cd58 O62 2.273 . S
Cd58 O66 2.277 . S
O59 C56 1.160 . S
O59 Cd60 2.175 1_554 S
Cd60 O59 2.175 1_556 S
Cd60 O62 2.426 . S
Cd60 O63 2.362 . S
Cd60 O64 2.350 1_556 S
Cd60 O68 2.275 1_556 S
Cd60 O69 2.359 . S
C61 O66 1.207 1_554 S
C61 O68 1.228 . S
O62 Cd58 2.273 . S
O62 Cd60 2.426 . S
O62 C65 1.320 . S
O63 Cd60 2.362 . S
O63 C65 1.214 . S
O64 Cd60 2.350 1_554 S
O64 C67 1.258 1_554 S
C65 O62 1.320 . S
C65 O63 1.214 . S
O66 Cd58 2.277 . S
O66 C61 1.207 1_556 S
C67 O64 1.258 1_556 S
C67 O69 1.282 . S
O68 Cd60 2.275 1_554 S
O68 C61 1.228 . S
O69 Cd60 2.359 . S
O69 C67 1.282 . S
C70 O71 1.306 . S
C70 O73 1.160 . S
O71 C70 1.306 . S
O71 Cd72 2.228 1_554 S
Cd72 O71 2.228 1_556 S
Cd72 O76 2.273 . S
Cd72 O80 2.277 . S
O73 C70 1.160 . S
O73 Cd74 2.175 1_554 S
Cd74 O73 2.175 1_556 S
Cd74 O76 2.426 . S
Cd74 O77 2.362 . S
Cd74 O78 2.350 1_556 S
Cd74 O82 2.275 1_556 S
Cd74 O83 2.359 . S
C75 O80 1.207 1_554 S
C75 O82 1.228 . S
O76 Cd72 2.273 . S
O76 Cd74 2.426 . S
O76 C79 1.320 . S
O77 Cd74 2.362 . S
O77 C79 1.214 . S
O78 Cd74 2.350 1_554 S
O78 C81 1.258 1_554 S
C79 O76 1.320 . S
C79 O77 1.214 . S
O80 Cd72 2.277 . S
O80 C75 1.207 1_556 S
C81 O78 1.258 1_556 S
C81 O83 1.282 . S
O82 Cd74 2.275 1_554 S
O82 C75 1.228 . S
O83 Cd74 2.359 . S
O83 C81 1.282 . S
C84 O85 1.306 . S
C84 O87 1.160 . S
O85 C84 1.306 . S
O85 Cd86 2.228 1_554 S
Cd86 O85 2.228 1_556 S
Cd86 O90 2.273 . S
Cd86 O94 2.277 . S
O87 C84 1.160 . S
O87 Cd88 2.175 1_554 S
Cd88 O87 2.175 1_556 S
Cd88 O90 2.426 . S
Cd88 O91 2.362 . S
Cd88 O92 2.350 1_556 S
Cd88 O96 2.275 1_556 S
Cd88 O97 2.359 . S
C89 O94 1.207 1_554 S
C89 O96 1.228 . S
O90 Cd86 2.273 . S
O90 Cd88 2.426 . S
O90 C93 1.320 . S
O91 Cd88 2.362 . S
O91 C93 1.214 . S
O92 Cd88 2.350 1_554 S
O92 C95 1.258 1_554 S
C93 O90 1.320 . S
C93 O91 1.214 . S
O94 Cd86 2.277 . S
O94 C89 1.207 1_556 S
C95 O92 1.258 1_556 S
C95 O97 1.282 . S
O96 Cd88 2.275 1_554 S
O96 C89 1.228 . S
O97 Cd88 2.359 . S
O97 C95 1.282 . S
C98 O99 1.306 . S
C98 O101 1.160 . S
O99 C98 1.306 . S
O99 Cd100 2.228 1_554 S
Cd100 O99 2.228 1_556 S
Cd100 O104 2.273 . S
Cd100 O108 2.277 . S
O101 C98 1.160 . S
O101 Cd102 2.175 1_554 S
Cd102 O101 2.175 1_556 S
Cd102 O104 2.426 . S
Cd102 O105 2.362 . S
Cd102 O106 2.350 1_556 S
Cd102 O110 2.275 1_556 S
Cd102 O111 2.359 . S
C103 O108 1.207 1_554 S
C103 O110 1.228 . S
O104 Cd100 2.273 . S
O104 Cd102 2.426 . S
O104 C107 1.320 . S
O105 Cd102 2.362 . S
O105 C107 1.214 . S
O106 Cd102 2.350 1_554 S
O106 C109 1.258 1_554 S
C107 O104 1.320 . S
C107 O105 1.214 . S
O108 Cd100 2.277 . S
O108 C103 1.207 1_556 S
C109 O106 1.258 1_556 S
C109 O111 1.282 . S
O110 Cd102 2.275 1_554 S
O110 C103 1.228 . S
O111 Cd102 2.359 . S
O111 C109 1.282 . S
C112 O113 1.306 . S
C112 O115 1.160 . S
O113 C112 1.306 . S
O113 Cd114 2.228 . S
Cd114 O113 2.228 . S
Cd114 O118 2.273 . S
Cd114 O122 2.277 . S
O115 C112 1.160 . S
O115 Cd116 2.203 . S
Cd116 O115 2.203 . S
Cd116 O118 2.411 . S
Cd116 O119 2.333 . S
Cd116 O120 2.352 . S
Cd116 O124 2.277 . S
Cd116 O125 2.356 . S
C117 O122 1.209 . S
C117 O124 1.226 . S
O118 Cd114 2.273 . S
O118 Cd116 2.411 . S
O118 C121 1.320 . S
O119 Cd116 2.333 . S
O119 C121 1.214 . S
O120 Cd116 2.352 . S
O120 C123 1.258 . S
C121 O118 1.320 . S
C121 O119 1.214 . S
O122 Cd114 2.277 . S
O122 C117 1.209 . S
C123 O120 1.258 . S
C123 O125 1.282 . S
O124 Cd116 2.277 . S
O124 C117 1.226 . S
O125 Cd116 2.356 . S
O125 C123 1.282 . S
C126 O127 1.306 . S
C126 O129 1.160 . S
O127 C126 1.306 . S
O127 Cd128 2.228 . S
Cd128 O127 2.228 . S
Cd128 O132 2.273 . S
Cd128 O136 2.277 . S
O129 C126 1.160 . S
O129 Cd130 2.203 . S
Cd130 O129 2.203 . S
Cd130 O132 2.411 . S
Cd130 O133 2.333 . S
Cd130 O134 2.352 . S
Cd130 O138 2.277 . S
Cd130 O139 2.356 . S
C131 O136 1.209 . S
C131 O138 1.226 . S
O132 Cd128 2.273 . S
O132 Cd130 2.411 . S
O132 C135 1.320 . S
O133 Cd130 2.333 . S
O133 C135 1.214 . S
O134 Cd130 2.352 . S
O134 C137 1.258 . S
C135 O132 1.320 . S
C135 O133 1.214 . S
O136 Cd128 2.277 . S
O136 C131 1.209 . S
C137 O134 1.258 . S
C137 O139 1.282 . S
O138 Cd130 2.277 . S
O138 C131 1.226 . S
O139 Cd130 2.356 . S
O139 C137 1.282 . S
C140 O141 1.306 . S
C140 O143 1.160 . S
O141 C140 1.306 . S
O141 Cd142 2.228 . S
Cd142 O141 2.228 . S
Cd142 O146 2.273 . S
Cd142 O150 2.277 . S
O143 C140 1.160 . S
O143 Cd144 2.203 . S
Cd144 O143 2.203 . S
Cd144 O146 2.411 . S
Cd144 O147 2.333 . S
Cd144 O148 2.352 . S
Cd144 O152 2.277 . S
Cd144 O153 2.356 . S
C145 O150 1.209 . S
C145 O152 1.226 . S
O146 Cd142 2.273 . S
O146 Cd144 2.411 . S
O146 C149 1.320 . S
O147 Cd144 2.333 . S
O147 C149 1.214 . S
O148 Cd144 2.352 . S
O148 C151 1.258 . S
C149 O146 1.320 . S
C149 O147 1.214 . S
O150 Cd142 2.277 . S
O150 C145 1.209 . S
C151 O148 1.258 . S
C151 O153 1.282 . S
O152 Cd144 2.277 . S
O152 C145 1.226 . S
O153 Cd144 2.356 . S
O153 C151 1.282 . S
C154 O155 1.306 . S
C154 O157 1.160 . S
O155 C154 1.306 . S
O155 Cd156 2.228 . S
Cd156 O155 2.228 . S
Cd156 O160 2.273 . S
Cd156 O164 2.277 . S
O157 C154 1.160 . S
O157 Cd158 2.203 . S
Cd158 O157 2.203 . S
Cd158 O160 2.411 . S
Cd158 O161 2.333 . S
Cd158 O162 2.352 . S
Cd158 O166 2.277 . S
Cd158 O167 2.356 . S
C159 O164 1.209 . S
C159 O166 1.226 . S
O160 Cd156 2.273 . S
O160 Cd158 2.411 . S
O160 C163 1.320 . S
O161 Cd158 2.333 . S
O161 C163 1.214 . S
O162 Cd158 2.352 . S
O162 C165 1.258 . S
C163 O160 1.320 . S
C163 O161 1.214 . S
O164 Cd156 2.277 . S
O164 C159 1.209 . S
C165 O162 1.258 . S
C165 O167 1.282 . S
O166 Cd158 2.277 . S
O166 C159 1.226 . S
O167 Cd158 2.356 . S
O167 C165 1.282 . S
C168 O169 1.306 . S
C168 O171 1.160 . S
O169 C168 1.306 . S
O169 Cd170 2.228 . S
Cd170 O169 2.228 . S
Cd170 O174 2.273 . S
Cd170 O178 2.277 . S
O171 C168 1.160 . S
O171 Cd172 2.203 . S
Cd172 O171 2.203 . S
Cd172 O174 2.411 . S
Cd172 O175 2.333 . S
Cd172 O176 2.352 . S
Cd172 O180 2.277 . S
Cd172 O181 2.356 . S
C173 O178 1.209 . S
C173 O180 1.226 . S
O174 Cd170 2.273 . S
O174 Cd172 2.411 . S
O174 C177 1.320 . S
O175 Cd172 2.333 . S
O175 C177 1.214 . S
O176 Cd172 2.352 . S
O176 C179 1.258 . S
C177 O174 1.320 . S
C177 O175 1.214 . S
O178 Cd170 2.277 . S
O178 C173 1.209 . S
C179 O176 1.258 . S
C179 O181 1.282 . S
O180 Cd172 2.277 . S
O180 C173 1.226 . S
O181 Cd172 2.356 . S
O181 C179 1.282 . S
C182 O183 1.306 . S
C182 O185 1.160 . S
O183 C182 1.306 . S
O183 Cd184 2.228 . S
Cd184 O183 2.228 . S
Cd184 O188 2.273 . S
Cd184 O192 2.277 . S
O185 C182 1.160 . S
O185 Cd186 2.203 . S
Cd186 O185 2.203 . S
Cd186 O188 2.411 . S
Cd186 O189 2.333 . S
Cd186 O190 2.352 . S
Cd186 O194 2.277 . S
Cd186 O195 2.356 . S
C187 O192 1.209 . S
C187 O194 1.226 . S
O188 Cd184 2.273 . S
O188 Cd186 2.411 . S
O188 C191 1.320 . S
O189 Cd186 2.333 . S
O189 C191 1.214 . S
O190 Cd186 2.352 . S
O190 C193 1.258 . S
C191 O188 1.320 . S
C191 O189 1.214 . S
O192 Cd184 2.277 . S
O192 C187 1.209 . S
C193 O190 1.258 . S
C193 O195 1.282 . S
O194 Cd186 2.277 . S
O194 C187 1.226 . S
O195 Cd186 2.356 . S
O195 C193 1.282 . S
C196 O197 1.306 . S
C196 O199 1.160 . S
O197 C196 1.306 . S
O197 Cd198 2.228 . S
Cd198 O197 2.228 . S
Cd198 O202 2.273 . S
Cd198 O206 2.277 . S
O199 C196 1.160 . S
O199 Cd200 2.203 . S
Cd200 O199 2.203 . S
Cd200 O202 2.411 . S
Cd200 O203 2.333 . S
Cd200 O204 2.352 . S
Cd200 O208 2.277 . S
Cd200 O209 2.356 . S
C201 O206 1.209 . S
C201 O208 1.226 . S
O202 Cd198 2.273 . S
O202 Cd200 2.411 . S
O202 C205 1.320 . S
O203 Cd200 2.333 . S
O203 C205 1.214 . S
O204 Cd200 2.352 . S
O204 C207 1.258 . S
C205 O202 1.320 . S
C205 O203 1.214 . S
O206 Cd198 2.277 . S
O206 C201 1.209 . S
C207 O204 1.258 . S
C207 O209 1.282 . S
O208 Cd200 2.277 . S
O208 C201 1.226 . S
O209 Cd200 2.356 . S
O209 C207 1.282 . S
C210 O211 1.306 . S
C210 O213 1.160 . S
O211 C210 1.306 . S
O211 Cd212 2.228 . S
Cd212 O211 2.228 . S
Cd212 O216 2.273 . S
Cd212 O220 2.277 . S
O213 C210 1.160 . S
O213 Cd214 2.203 . S
Cd214 O213 2.203 . S
Cd214 O216 2.411 . S
Cd214 O217 2.333 . S
Cd214 O218 2.352 . S
Cd214 O222 2.277 . S
Cd214 O223 2.356 . S
C215 O220 1.209 . S
C215 O222 1.226 . S
O216 Cd212 2.273 . S
O216 Cd214 2.411 . S
O216 C219 1.320 . S
O217 Cd214 2.333 . S
O217 C219 1.214 . S
O218 Cd214 2.352 . S
O218 C221 1.258 . S
C219 O216 1.320 . S
C219 O217 1.214 . S
O220 Cd212 2.277 . S
O220 C215 1.209 . S
C221 O218 1.258 . S
C221 O223 1.282 . S
O222 Cd214 2.277 . S
O222 C215 1.226 . S
O223 Cd214 2.356 . S
O223 C221 1.282 . S
H224 C242 0.951 . S
H225 C244 0.951 . S
H226 C246 0.950 . S
H227 C247 0.950 . S
H228 C249 0.950 . S
H229 C252 0.950 . S
H230 C253 0.950 . S
H231 C255 0.950 . S
H232 C256 0.950 . S
H233 C257 0.951 . S
H234 C259 0.951 . S
H235 C261 0.950 . S
H236 C262 0.950 . S
H237 C264 0.950 . S
H238 C267 0.950 . S
H239 C268 0.950 . S
H240 C270 0.950 . S
H241 C271 0.950 . S
C242 H224 0.951 . S
C242 C243 1.383 . S
C242 C244 1.388 . S
C243 C242 1.383 . S
C243 C247 1.368 1_556 S
C244 H225 0.951 . S
C244 C242 1.388 . S
C244 C245 1.366 . S
C245 C244 1.366 . S
C245 C246 1.414 1_556 S
C245 C248 1.499 1_556 S
C246 H226 0.950 . S
C246 C245 1.414 1_554 S
C246 C247 1.374 . S
C247 H227 0.950 . S
C247 C243 1.368 1_554 S
C247 C246 1.374 . S
C248 C245 1.499 1_554 S
C248 C249 1.373 . S
C248 C250 1.390 1_554 S
C249 H228 0.950 . S
C249 C248 1.373 . S
C249 C265 1.377 . S
C250 C248 1.390 1_556 S
C250 C251 1.524 . S
C250 C264 1.377 . S
C251 C250 1.524 . S
C251 C252 1.397 . S
C251 C256 1.363 . S
C252 H229 0.950 . S
C252 C251 1.397 . S
C252 C253 1.334 . S
C253 H230 0.950 . S
C253 C252 1.334 . S
C253 C254 1.287 . S
C254 C253 1.287 . S
C254 C255 1.524 . S
C254 H273 0.913 . S
C255 H231 0.950 . S
C255 C254 1.524 . S
C255 C256 1.415 . S
C256 H232 0.950 . S
C256 C251 1.363 . S
C256 C255 1.415 . S
C257 H233 0.951 . S
C257 C258 1.366 . S
C257 C259 1.388 . S
C258 C257 1.366 . S
C258 C262 1.385 1_554 S
C259 H234 0.951 . S
C259 C257 1.388 . S
C259 C260 1.366 . S
C260 C259 1.366 . S
C260 C261 1.414 1_554 S
C260 C263 1.499 . S
C261 H235 0.950 . S
C261 C260 1.414 1_556 S
C261 C262 1.374 . S
C262 H236 0.950 . S
C262 C258 1.385 1_556 S
C262 C261 1.374 . S
C263 C260 1.499 . S
C263 C264 1.373 1_554 S
C263 C265 1.389 . S
C264 H237 0.950 . S
C264 C250 1.377 . S
C264 C263 1.373 1_556 S
C265 C249 1.377 . S
C265 C263 1.389 . S
C265 C266 1.524 . S
C266 C265 1.524 . S
C266 C267 1.397 . S
C266 C271 1.363 . S
C267 H238 0.950 . S
C267 C266 1.397 . S
C267 C268 1.334 . S
C268 H239 0.950 . S
C268 C267 1.334 . S
C268 C269 1.287 . S
C269 C268 1.287 . S
C269 C270 1.524 . S
C269 H272 0.999 . S
C270 H240 0.950 . S
C270 C269 1.524 . S
C270 C271 1.415 . S
C271 H241 0.950 . S
C271 C266 1.363 . S
C271 C270 1.415 . S
H272 C269 0.999 . S
H273 C254 0.913 . S
H274 C292 0.951 . S
H275 C294 0.951 . S
H276 C296 0.950 . S
H277 C297 0.950 . S
H278 C299 0.950 . S
H279 C302 0.950 . S
H280 C303 0.950 . S
H281 C305 0.950 . S
H282 C306 0.950 . S
H283 C307 0.951 . S
H284 C309 0.951 . S
H285 C311 0.950 . S
H286 C312 0.950 . S
H287 C314 0.950 . S
H288 C317 0.950 . S
H289 C318 0.950 . S
H290 C320 0.950 . S
H291 C321 0.950 . S
C292 H274 0.951 . S
C292 C293 1.387 . S
C292 C294 1.388 . S
C293 C292 1.387 . S
C293 C297 1.364 1_556 S
C294 H275 0.951 . S
C294 C292 1.388 . S
C294 C295 1.375 . S
C295 C294 1.375 . S
C295 C296 1.404 1_556 S
C295 C298 1.498 1_556 S
C296 H276 0.950 . S
C296 C295 1.404 1_554 S
C296 C297 1.374 . S
C297 H277 0.950 . S
C297 C293 1.364 1_554 S
C297 C296 1.374 . S
C298 C295 1.498 1_554 S
C298 C299 1.373 . S
C298 C300 1.389 1_554 S
C299 H278 0.950 . S
C299 C298 1.373 . S
C299 C315 1.377 . S
C300 C298 1.389 1_556 S
C300 C301 1.524 . S
C300 C314 1.377 . S
C301 C300 1.524 . S
C301 C302 1.397 . S
C301 C306 1.363 . S
C302 H279 0.950 . S
C302 C301 1.397 . S
C302 C303 1.334 . S
C303 H280 0.950 . S
C303 C302 1.334 . S
C303 C304 1.287 . S
C304 C303 1.287 . S
C304 C305 1.524 . S
C304 H323 0.913 . S
C305 H281 0.950 . S
C305 C304 1.524 . S
C305 C306 1.415 . S
C306 H282 0.950 . S
C306 C301 1.363 . S
C306 C305 1.415 . S
C307 H283 0.951 . S
C307 C308 1.366 . S
C307 C309 1.388 . S
C308 C307 1.366 . S
C308 C312 1.385 1_554 S
C309 H284 0.951 . S
C309 C307 1.388 . S
C309 C310 1.366 . S
C310 C309 1.366 . S
C310 C311 1.414 1_554 S
C310 C313 1.499 . S
C311 H285 0.950 . S
C311 C310 1.414 1_556 S
C311 C312 1.374 . S
C312 H286 0.950 . S
C312 C308 1.385 1_556 S
C312 C311 1.374 . S
C313 C310 1.499 . S
C313 C314 1.367 1_554 S
C313 C315 1.396 . S
C314 H287 0.950 . S
C314 C300 1.377 . S
C314 C313 1.367 1_556 S
C315 C299 1.377 . S
C315 C313 1.396 . S
C315 C316 1.524 . S
C316 C315 1.524 . S
C316 C317 1.397 . S
C316 C321 1.363 . S
C317 H288 0.950 . S
C317 C316 1.397 . S
C317 C318 1.334 . S
C318 H289 0.950 . S
C318 C317 1.334 . S
C318 C319 1.287 . S
C319 C318 1.287 . S
C319 C320 1.524 . S
C319 H322 0.999 . S
C320 H290 0.950 . S
C320 C319 1.524 . S
C320 C321 1.415 . S
C321 H291 0.950 . S
C321 C316 1.363 . S
C321 C320 1.415 . S
H322 C319 0.999 . S
H323 C304 0.913 . S
H324 C342 0.951 . S
H325 C344 0.951 . S
H326 C346 0.950 . S
H327 C347 0.950 . S
H328 C349 0.950 . S
H329 C352 0.950 . S
H330 C353 0.950 . S
H331 C355 0.950 . S
H332 C356 0.950 . S
H333 C357 0.951 . S
H334 C359 0.951 . S
H335 C361 0.950 . S
H336 C362 0.950 . S
H337 C364 0.950 . S
H338 C367 0.950 . S
H339 C368 0.950 . S
H340 C370 0.950 . S
H341 C371 0.950 . S
C342 H324 0.951 . S
C342 C343 1.355 1_554 S
C342 C344 1.388 . S
C343 C342 1.355 1_556 S
C343 C347 1.395 . S
C344 H325 0.951 . S
C344 C342 1.388 . S
C344 C345 1.366 . S
C345 C344 1.366 . S
C345 C346 1.414 1_554 S
C345 C348 1.499 . S
C346 H326 0.950 . S
C346 C345 1.414 1_556 S
C346 C347 1.374 . S
C347 H327 0.950 . S
C347 C343 1.395 . S
C347 C346 1.374 . S
C348 C345 1.499 . S
C348 C349 1.373 1_554 S
C348 C350 1.389 . S
C349 H328 0.950 . S
C349 C348 1.373 1_556 S
C349 C365 1.377 . S
C350 C348 1.389 . S
C350 C351 1.524 . S
C350 C364 1.377 . S
C351 C350 1.524 . S
C351 C352 1.397 . S
C351 C356 1.363 . S
C352 H329 0.950 . S
C352 C351 1.397 . S
C352 C353 1.334 . S
C353 H330 0.950 . S
C353 C352 1.334 . S
C353 C354 1.287 . S
C354 C353 1.287 . S
C354 C355 1.524 . S
C354 H373 0.913 . S
C355 H331 0.950 . S
C355 C354 1.524 . S
C355 C356 1.415 . S
C356 H332 0.950 . S
C356 C351 1.363 . S
C356 C355 1.415 . S
C357 H333 0.951 . S
C357 C358 1.366 1_556 S
C357 C359 1.388 . S
C358 C357 1.366 1_554 S
C358 C362 1.385 . S
C359 H334 0.951 . S
C359 C357 1.388 . S
C359 C360 1.368 . S
C360 C359 1.368 . S
C360 C361 1.412 1_556 S
C360 C363 1.499 . S
C361 H335 0.950 . S
C361 C360 1.412 1_554 S
C361 C362 1.374 . S
C362 H336 0.950 . S
C362 C358 1.385 . S
C362 C361 1.374 . S
C363 C360 1.499 . S
C363 C364 1.367 1_556 S
C363 C365 1.395 . S
C364 H337 0.950 . S
C364 C350 1.377 . S
C364 C363 1.367 1_554 S
C365 C349 1.377 . S
C365 C363 1.395 . S
C365 C366 1.524 . S
C366 C365 1.524 . S
C366 C367 1.397 . S
C366 C371 1.363 . S
C367 H338 0.950 . S
C367 C366 1.397 . S
C367 C368 1.334 . S
C368 H339 0.950 . S
C368 C367 1.334 . S
C368 C369 1.287 . S
C369 C368 1.287 . S
C369 C370 1.524 . S
C369 H372 0.999 . S
C370 H340 0.950 . S
C370 C369 1.524 . S
C370 C371 1.415 . S
C371 H341 0.950 . S
C371 C366 1.363 . S
C371 C370 1.415 . S
H372 C369 0.999 . S
H373 C354 0.913 . S
H374 C392 0.951 . S
H375 C394 0.951 . S
H376 C396 0.950 . S
H377 C397 0.950 . S
H378 C399 0.950 . S
H379 C402 0.950 . S
H380 C403 0.950 . S
H381 C405 0.950 . S
H382 C406 0.950 . S
H383 C407 0.951 . S
H384 C409 0.951 . S
H385 C411 0.950 . S
H386 C412 0.950 . S
H387 C414 0.950 . S
H388 C417 0.950 . S
H389 C418 0.950 . S
H390 C420 0.950 . S
H391 C421 0.950 . S
C392 H374 0.951 . S
C392 C393 1.372 . S
C392 C394 1.388 . S
C393 C392 1.372 . S
C393 C397 1.379 1_556 S
C394 H375 0.951 . S
C394 C392 1.388 . S
C394 C395 1.366 . S
C395 C394 1.366 . S
C395 C396 1.414 1_556 S
C395 C398 1.499 . S
C396 H376 0.950 . S
C396 C395 1.414 1_554 S
C396 C397 1.374 . S
C397 H377 0.950 . S
C397 C393 1.379 1_554 S
C397 C396 1.374 . S
C398 C395 1.499 . S
C398 C399 1.373 1_556 S
C398 C400 1.389 . S
C399 H378 0.950 . S
C399 C398 1.373 1_554 S
C399 C415 1.377 . S
C400 C398 1.389 . S
C400 C401 1.524 . S
C400 C414 1.377 . S
C401 C400 1.524 . S
C401 C402 1.397 . S
C401 C406 1.363 . S
C402 H379 0.950 . S
C402 C401 1.397 . S
C402 C403 1.334 . S
C403 H380 0.950 . S
C403 C402 1.334 . S
C403 C404 1.287 . S
C404 C403 1.287 . S
C404 C405 1.524 . S
C404 H423 0.913 . S
C405 H381 0.950 . S
C405 C404 1.524 . S
C405 C406 1.415 . S
C406 H382 0.950 . S
C406 C401 1.363 . S
C406 C405 1.415 . S
C407 H383 0.951 . S
C407 C408 1.366 . S
C407 C409 1.388 . S
C408 C407 1.366 . S
C408 C412 1.385 1_554 S
C409 H384 0.951 . S
C409 C407 1.388 . S
C409 C410 1.366 . S
C410 C409 1.366 . S
C410 C411 1.414 1_554 S
C410 C413 1.499 . S
C411 H385 0.950 . S
C411 C410 1.414 1_556 S
C411 C412 1.374 . S
C412 H386 0.950 . S
C412 C408 1.385 1_556 S
C412 C411 1.374 . S
C413 C410 1.499 . S
C413 C414 1.373 1_554 S
C413 C415 1.389 . S
C414 H387 0.950 . S
C414 C400 1.377 . S
C414 C413 1.373 1_556 S
C415 C399 1.377 . S
C415 C413 1.389 . S
C415 C416 1.524 . S
C416 C415 1.524 . S
C416 C417 1.397 . S
C416 C421 1.363 . S
C417 H388 0.950 . S
C417 C416 1.397 . S
C417 C418 1.334 . S
C418 H389 0.950 . S
C418 C417 1.334 . S
C418 C419 1.287 . S
C419 C418 1.287 . S
C419 C420 1.524 . S
C419 H422 0.999 . S
C420 H390 0.950 . S
C420 C419 1.524 . S
C420 C421 1.415 . S
C421 H391 0.950 . S
C421 C416 1.363 . S
C421 C420 1.415 . S
H422 C419 0.999 . S
H423 C404 0.913 . S
H424 C442 0.951 . S
H425 C444 0.951 . S
H426 C446 0.950 . S
H427 C447 0.950 . S
H428 C449 0.950 . S
H429 C452 0.950 . S
H430 C453 0.950 . S
H431 C455 0.950 . S
H432 C456 0.950 . S
H433 C457 0.951 . S
H434 C459 0.951 . S
H435 C461 0.950 . S
H436 C462 0.950 . S
H437 C464 0.950 . S
H438 C467 0.950 . S
H439 C468 0.950 . S
H440 C470 0.950 . S
H441 C471 0.950 . S
C442 H424 0.951 . S
C442 C443 1.366 . S
C442 C444 1.388 . S
C443 C442 1.366 . S
C443 C447 1.385 . S
C444 H425 0.951 . S
C444 C442 1.388 . S
C444 C445 1.366 . S
C445 C444 1.366 . S
C445 C446 1.414 . S
C445 C448 1.499 . S
C446 H426 0.950 . S
C446 C445 1.414 . S
C446 C447 1.374 . S
C447 H427 0.950 . S
C447 C443 1.385 . S
C447 C446 1.374 . S
C448 C445 1.499 . S
C448 C449 1.373 . S
C448 C450 1.389 . S
C449 H428 0.950 . S
C449 C448 1.373 . S
C449 C465 1.377 1_545 S
C450 C448 1.389 . S
C450 C451 1.524 . S
C450 C464 1.377 1_545 S
C451 C450 1.524 . S
C451 C452 1.397 . S
C451 C456 1.363 . S
C452 H429 0.950 . S
C452 C451 1.397 . S
C452 C453 1.334 . S
C453 H430 0.950 . S
C453 C452 1.334 . S
C453 C454 1.287 . S
C454 C453 1.287 . S
C454 C455 1.524 . S
C454 H473 0.913 . S
C455 H431 0.950 . S
C455 C454 1.524 . S
C455 C456 1.415 . S
C456 H432 0.950 . S
C456 C451 1.363 . S
C456 C455 1.415 . S
C457 H433 0.951 . S
C457 C458 1.366 . S
C457 C459 1.388 . S
C458 C457 1.366 . S
C458 C462 1.385 . S
C459 H434 0.951 . S
C459 C457 1.388 . S
C459 C460 1.366 . S
C460 C459 1.366 . S
C460 C461 1.414 . S
C460 C463 1.499 . S
C461 H435 0.950 . S
C461 C460 1.414 . S
C461 C462 1.374 . S
C462 H436 0.950 . S
C462 C458 1.385 . S
C462 C461 1.374 . S
C463 C460 1.499 . S
C463 C464 1.373 . S
C463 C465 1.389 . S
C464 H437 0.950 . S
C464 C450 1.377 1_565 S
C464 C463 1.373 . S
C465 C449 1.377 1_565 S
C465 C463 1.389 . S
C465 C466 1.524 . S
C466 C465 1.524 . S
C466 C467 1.397 . S
C466 C471 1.363 . S
C467 H438 0.950 . S
C467 C466 1.397 . S
C467 C468 1.334 . S
C468 H439 0.950 . S
C468 C467 1.334 . S
C468 C469 1.287 . S
C469 C468 1.287 . S
C469 C470 1.524 . S
C469 H472 0.999 . S
C470 H440 0.950 . S
C470 C469 1.524 . S
C470 C471 1.415 . S
C471 H441 0.950 . S
C471 C466 1.363 . S
C471 C470 1.415 . S
H472 C469 0.999 . S
H473 C454 0.913 . S
H474 C492 0.951 . S
H475 C494 0.951 . S
H476 C496 0.950 . S
H477 C497 0.950 . S
H478 C499 0.950 . S
H479 C502 0.950 . S
H480 C503 0.950 . S
H481 C505 0.950 . S
H482 C506 0.950 . S
H483 C507 0.951 . S
H484 C509 0.951 . S
H485 C511 0.950 . S
H486 C512 0.950 . S
H487 C514 0.950 . S
H488 C517 0.950 . S
H489 C518 0.950 . S
H490 C520 0.950 . S
H491 C521 0.950 . S
C492 H474 0.951 . S
C492 C493 1.366 . S
C492 C494 1.388 . S
C493 C492 1.366 . S
C493 C497 1.385 . S
C494 H475 0.951 . S
C494 C492 1.388 . S
C494 C495 1.366 . S
C495 C494 1.366 . S
C495 C496 1.414 . S
C495 C498 1.499 . S
C496 H476 0.950 . S
C496 C495 1.414 . S
C496 C497 1.374 . S
C497 H477 0.950 . S
C497 C493 1.385 . S
C497 C496 1.374 . S
C498 C495 1.499 . S
C498 C499 1.373 . S
C498 C500 1.389 . S
C499 H478 0.950 . S
C499 C498 1.373 . S
C499 C515 1.377 1_655 S
C500 C498 1.389 . S
C500 C501 1.524 . S
C500 C514 1.377 1_655 S
C501 C500 1.524 . S
C501 C502 1.397 . S
C501 C506 1.363 . S
C502 H479 0.950 . S
C502 C501 1.397 . S
C502 C503 1.334 . S
C503 H480 0.950 . S
C503 C502 1.334 . S
C503 C504 1.287 . S
C504 C503 1.287 . S
C504 C505 1.524 . S
C504 H523 0.913 . S
C505 H481 0.950 . S
C505 C504 1.524 . S
C505 C506 1.415 . S
C506 H482 0.950 . S
C506 C501 1.363 . S
C506 C505 1.415 . S
C507 H483 0.951 . S
C507 C508 1.366 . S
C507 C509 1.388 . S
C508 C507 1.366 . S
C508 C512 1.385 . S
C509 H484 0.951 . S
C509 C507 1.388 . S
C509 C510 1.366 . S
C510 C509 1.366 . S
C510 C511 1.414 . S
C510 C513 1.499 . S
C511 H485 0.950 . S
C511 C510 1.414 . S
C511 C512 1.374 . S
C512 H486 0.950 . S
C512 C508 1.385 . S
C512 C511 1.374 . S
C513 C510 1.499 . S
C513 C514 1.373 . S
C513 C515 1.389 . S
C514 H487 0.950 . S
C514 C500 1.377 1_455 S
C514 C513 1.373 . S
C515 C499 1.377 1_455 S
C515 C513 1.389 . S
C515 C516 1.524 . S
C516 C515 1.524 . S
C516 C517 1.397 . S
C516 C521 1.363 . S
C517 H488 0.950 . S
C517 C516 1.397 . S
C517 C518 1.334 . S
C518 H489 0.950 . S
C518 C517 1.334 . S
C518 C519 1.287 . S
C519 C518 1.287 . S
C519 C520 1.524 . S
C519 H522 0.999 . S
C520 H490 0.950 . S
C520 C519 1.524 . S
C520 C521 1.415 . S
C521 H491 0.950 . S
C521 C516 1.363 . S
C521 C520 1.415 . S
H522 C519 0.999 . S
H523 C504 0.913 . S
H524 C542 0.951 . S
H525 C544 0.951 . S
H526 C546 0.950 . S
H527 C547 0.950 . S
H528 C549 0.950 . S
H529 C552 0.950 . S
H530 C553 0.950 . S
H531 C555 0.950 . S
H532 C556 0.950 . S
H533 C557 0.951 . S
H534 C559 0.951 . S
H535 C561 0.950 . S
H536 C562 0.950 . S
H537 C564 0.950 . S
H538 C567 0.950 . S
H539 C568 0.950 . S
H540 C570 0.950 . S
H541 C571 0.950 . S
C542 H524 0.951 . S
C542 C543 1.366 . S
C542 C544 1.388 . S
C543 C542 1.366 . S
C543 C547 1.385 . S
C544 H525 0.951 . S
C544 C542 1.388 . S
C544 C545 1.366 . S
C545 C544 1.366 . S
C545 C546 1.414 . S
C545 C548 1.499 . S
C546 H526 0.950 . S
C546 C545 1.414 . S
C546 C547 1.374 . S
C547 H527 0.950 . S
C547 C543 1.385 . S
C547 C546 1.374 . S
C548 C545 1.499 . S
C548 C549 1.373 . S
C548 C550 1.389 . S
C549 H528 0.950 . S
C549 C548 1.373 . S
C549 C565 1.377 1_545 S
C550 C548 1.389 . S
C550 C551 1.524 . S
C550 C564 1.377 1_545 S
C551 C550 1.524 . S
C551 C552 1.397 . S
C551 C556 1.363 . S
C552 H529 0.950 . S
C552 C551 1.397 . S
C552 C553 1.334 . S
C553 H530 0.950 . S
C553 C552 1.334 . S
C553 C554 1.287 . S
C554 C553 1.287 . S
C554 C555 1.524 . S
C554 H573 0.913 . S
C555 H531 0.950 . S
C555 C554 1.524 . S
C555 C556 1.415 . S
C556 H532 0.950 . S
C556 C551 1.363 . S
C556 C555 1.415 . S
C557 H533 0.951 . S
C557 C558 1.366 . S
C557 C559 1.388 . S
C558 C557 1.366 . S
C558 C562 1.385 . S
C559 H534 0.951 . S
C559 C557 1.388 . S
C559 C560 1.366 . S
C560 C559 1.366 . S
C560 C561 1.414 . S
C560 C563 1.499 . S
C561 H535 0.950 . S
C561 C560 1.414 . S
C561 C562 1.374 . S
C562 H536 0.950 . S
C562 C558 1.385 . S
C562 C561 1.374 . S
C563 C560 1.499 . S
C563 C564 1.373 . S
C563 C565 1.389 . S
C564 H537 0.950 . S
C564 C550 1.377 1_565 S
C564 C563 1.373 . S
C565 C549 1.377 1_565 S
C565 C563 1.389 . S
C565 C566 1.524 . S
C566 C565 1.524 . S
C566 C567 1.397 . S
C566 C571 1.363 . S
C567 H538 0.950 . S
C567 C566 1.397 . S
C567 C568 1.334 . S
C568 H539 0.950 . S
C568 C567 1.334 . S
C568 C569 1.287 . S
C569 C568 1.287 . S
C569 C570 1.524 . S
C569 H572 0.999 . S
C570 H540 0.950 . S
C570 C569 1.524 . S
C570 C571 1.415 . S
C571 H541 0.950 . S
C571 C566 1.363 . S
C571 C570 1.415 . S
H572 C569 0.999 . S
H573 C554 0.913 . S
H574 C592 0.951 . S
H575 C594 0.951 . S
H576 C596 0.950 . S
H577 C597 0.950 . S
H578 C599 0.950 . S
H579 C602 0.950 . S
H580 C603 0.950 . S
H581 C605 0.950 . S
H582 C606 0.950 . S
H583 C607 0.951 . S
H584 C609 0.951 . S
H585 C611 0.950 . S
H586 C612 0.950 . S
H587 C614 0.950 . S
H588 C617 0.950 . S
H589 C618 0.950 . S
H590 C620 0.950 . S
H591 C621 0.950 . S
C592 H574 0.951 . S
C592 C593 1.366 . S
C592 C594 1.388 . S
C593 C592 1.366 . S
C593 C597 1.385 . S
C594 H575 0.951 . S
C594 C592 1.388 . S
C594 C595 1.366 . S
C595 C594 1.366 . S
C595 C596 1.414 . S
C595 C598 1.499 . S
C596 H576 0.950 . S
C596 C595 1.414 . S
C596 C597 1.374 . S
C597 H577 0.950 . S
C597 C593 1.385 . S
C597 C596 1.374 . S
C598 C595 1.499 . S
C598 C599 1.373 . S
C598 C600 1.389 . S
C599 H578 0.950 . S
C599 C598 1.373 . S
C599 C615 1.377 1_455 S
C600 C598 1.389 . S
C600 C601 1.524 . S
C600 C614 1.377 1_455 S
C601 C600 1.524 . S
C601 C602 1.397 . S
C601 C606 1.363 . S
C602 H579 0.950 . S
C602 C601 1.397 . S
C602 C603 1.334 . S
C603 H580 0.950 . S
C603 C602 1.334 . S
C603 C604 1.287 . S
C604 C603 1.287 . S
C604 C605 1.524 . S
C604 H623 0.913 . S
C605 H581 0.950 . S
C605 C604 1.524 . S
C605 C606 1.415 . S
C606 H582 0.950 . S
C606 C601 1.363 . S
C606 C605 1.415 . S
C607 H583 0.951 . S
C607 C608 1.366 . S
C607 C609 1.388 . S
C608 C607 1.366 . S
C608 C612 1.385 . S
C609 H584 0.951 . S
C609 C607 1.388 . S
C609 C610 1.366 . S
C610 C609 1.366 . S
C610 C611 1.414 . S
C610 C613 1.499 . S
C611 H585 0.950 . S
C611 C610 1.414 . S
C611 C612 1.374 . S
C612 H586 0.950 . S
C612 C608 1.385 . S
C612 C611 1.374 . S
C613 C610 1.499 . S
C613 C614 1.373 . S
C613 C615 1.389 . S
C614 H587 0.950 . S
C614 C600 1.377 1_655 S
C614 C613 1.373 . S
C615 C599 1.377 1_655 S
C615 C613 1.389 . S
C615 C616 1.524 . S
C616 C615 1.524 . S
C616 C617 1.397 . S
C616 C621 1.363 . S
C617 H588 0.950 . S
C617 C616 1.397 . S
C617 C618 1.334 . S
C618 H589 0.950 . S
C618 C617 1.334 . S
C618 C619 1.287 . S
C619 C618 1.287 . S
C619 C620 1.524 . S
C619 H622 0.999 . S
C620 H590 0.950 . S
C620 C619 1.524 . S
C620 C621 1.415 . S
C621 H591 0.950 . S
C621 C616 1.363 . S
C621 C620 1.415 . S
H622 C619 0.999 . S
H623 C604 0.913 . S
H624 C642 0.951 . S
H625 C644 0.951 . S
H626 C646 0.950 . S
H627 C647 0.950 . S
H628 C649 0.950 . S
H629 C652 0.950 . S
H630 C653 0.950 . S
H631 C655 0.950 . S
H632 C656 0.950 . S
H633 C657 0.951 . S
H634 C659 0.951 . S
H635 C661 0.950 . S
H636 C662 0.950 . S
H637 C664 0.950 . S
H638 C667 0.950 . S
H639 C668 0.950 . S
H640 C670 0.950 . S
H641 C671 0.950 . S
C642 H624 0.951 . S
C642 C643 1.367 . S
C642 C644 1.388 . S
C643 C642 1.367 . S
C643 C647 1.383 1_554 S
C644 H625 0.951 . S
C644 C642 1.388 . S
C644 C645 1.366 1_554 S
C645 C644 1.366 1_556 S
C645 C646 1.414 . S
C645 C648 1.499 . S
C646 H626 0.950 . S
C646 C645 1.414 . S
C646 C647 1.374 . S
C647 H627 0.950 . S
C647 C643 1.383 1_556 S
C647 C646 1.374 . S
C648 C645 1.499 . S
C648 C649 1.373 1_556 S
C648 C650 1.389 . S
C649 H628 0.950 . S
C649 C648 1.373 1_554 S
C649 C665 1.377 . S
C650 C648 1.389 . S
C650 C651 1.524 . S
C650 C664 1.377 . S
C651 C650 1.524 . S
C651 C652 1.397 . S
C651 C656 1.363 . S
C652 H629 0.950 . S
C652 C651 1.397 . S
C652 C653 1.334 . S
C653 H630 0.950 . S
C653 C652 1.334 . S
C653 C654 1.287 . S
C654 C653 1.287 . S
C654 C655 1.524 . S
C654 H673 0.913 . S
C655 H631 0.950 . S
C655 C654 1.524 . S
C655 C656 1.415 . S
C656 H632 0.950 . S
C656 C651 1.363 . S
C656 C655 1.415 . S
C657 H633 0.951 . S
C657 C658 1.363 1_556 S
C657 C659 1.388 . S
C658 C657 1.363 1_554 S
C658 C662 1.389 . S
C659 H634 0.951 . S
C659 C657 1.388 . S
C659 C660 1.366 1_556 S
C660 C659 1.366 1_554 S
C660 C661 1.414 . S
C660 C663 1.499 . S
C661 H635 0.950 . S
C661 C660 1.414 . S
C661 C662 1.374 . S
C662 H636 0.950 . S
C662 C658 1.389 . S
C662 C661 1.374 . S
C663 C660 1.499 . S
C663 C664 1.373 1_554 S
C663 C665 1.389 . S
C664 H637 0.950 . S
C664 C650 1.377 . S
C664 C663 1.373 1_556 S
C665 C649 1.377 . S
C665 C663 1.389 . S
C665 C666 1.524 . S
C666 C665 1.524 . S
C666 C667 1.397 . S
C666 C671 1.363 . S
C667 H638 0.950 . S
C667 C666 1.397 . S
C667 C668 1.334 . S
C668 H639 0.950 . S
C668 C667 1.334 . S
C668 C669 1.287 . S
C669 C668 1.287 . S
C669 C670 1.524 . S
C669 H672 0.999 . S
C670 H640 0.950 . S
C670 C669 1.524 . S
C670 C671 1.415 . S
C671 H641 0.950 . S
C671 C666 1.363 . S
C671 C670 1.415 . S
H672 C669 0.999 . S
H673 C654 0.913 . S
H674 C692 0.951 . S
H675 C694 0.951 . S
H676 C696 0.950 . S
H677 C697 0.950 . S
H678 C699 0.950 . S
H679 C702 0.950 . S
H680 C703 0.950 . S
H681 C705 0.950 . S
H682 C706 0.950 . S
H683 C707 0.951 . S
H684 C709 0.951 . S
H685 C711 0.950 . S
H686 C712 0.950 . S
H687 C714 0.950 . S
H688 C717 0.950 . S
H689 C718 0.950 . S
H690 C720 0.950 . S
H691 C721 0.950 . S
C692 H674 0.951 . S
C692 C693 1.366 1_556 S
C692 C694 1.388 . S
C693 C692 1.366 1_554 S
C693 C697 1.385 . S
C694 H675 0.951 . S
C694 C692 1.388 . S
C694 C695 1.366 . S
C695 C694 1.366 . S
C695 C696 1.414 1_556 S
C695 C698 1.499 . S
C696 H676 0.950 . S
C696 C695 1.414 1_554 S
C696 C697 1.374 . S
C697 H677 0.950 . S
C697 C693 1.385 . S
C697 C696 1.374 . S
C698 C695 1.499 . S
C698 C699 1.373 1_556 S
C698 C700 1.389 . S
C699 H678 0.950 . S
C699 C698 1.373 1_554 S
C699 C715 1.377 . S
C700 C698 1.389 . S
C700 C701 1.524 . S
C700 C714 1.377 . S
C701 C700 1.524 . S
C701 C702 1.397 . S
C701 C706 1.363 . S
C702 H679 0.950 . S
C702 C701 1.397 . S
C702 C703 1.334 . S
C703 H680 0.950 . S
C703 C702 1.334 . S
C703 C704 1.287 . S
C704 C703 1.287 . S
C704 C705 1.524 . S
C704 H723 0.913 . S
C705 H681 0.950 . S
C705 C704 1.524 . S
C705 C706 1.415 . S
C706 H682 0.950 . S
C706 C701 1.363 . S
C706 C705 1.415 . S
C707 H683 0.951 . S
C707 C708 1.367 . S
C707 C709 1.388 . S
C708 C707 1.367 . S
C708 C712 1.383 1_554 S
C709 H684 0.951 . S
C709 C707 1.388 . S
C709 C710 1.366 . S
C710 C709 1.366 . S
C710 C711 1.414 1_554 S
C710 C713 1.499 . S
C711 H685 0.950 . S
C711 C710 1.414 1_556 S
C711 C712 1.374 . S
C712 H686 0.950 . S
C712 C708 1.383 1_556 S
C712 C711 1.374 . S
C713 C710 1.499 . S
C713 C714 1.373 1_554 S
C713 C715 1.389 . S
C714 H687 0.950 . S
C714 C700 1.377 . S
C714 C713 1.373 1_556 S
C715 C699 1.377 . S
C715 C713 1.389 . S
C715 C716 1.524 . S
C716 C715 1.524 . S
C716 C717 1.397 . S
C716 C721 1.363 . S
C717 H688 0.950 . S
C717 C716 1.397 . S
C717 C718 1.334 . S
C718 H689 0.950 . S
C718 C717 1.334 . S
C718 C719 1.287 . S
C719 C718 1.287 . S
C719 C720 1.524 . S
C719 H722 0.999 . S
C720 H690 0.950 . S
C720 C719 1.524 . S
C720 C721 1.415 . S
C721 H691 0.950 . S
C721 C716 1.363 . S
C721 C720 1.415 . S
H722 C719 0.999 . S
H723 C704 0.913 . S
H724 C742 0.951 . S
H725 C744 0.951 . S
H726 C746 0.950 . S
H727 C747 0.950 . S
H728 C749 0.950 . S
H729 C752 0.950 . S
H730 C753 0.950 . S
H731 C755 0.950 . S
H732 C756 0.950 1_556 S
H733 C757 0.951 . S
H734 C759 0.951 . S
H735 C761 0.950 . S
H736 C762 0.950 . S
H737 C764 0.950 . S
H738 C767 0.950 . S
H739 C768 0.950 . S
H740 C770 0.950 . S
H741 C771 0.950 1_554 S
C742 H724 0.951 . S
C742 C743 1.361 1_556 S
C742 C744 1.388 . S
C743 C742 1.361 1_554 S
C743 C747 1.389 . S
C744 H725 0.951 . S
C744 C742 1.388 . S
C744 C745 1.366 1_556 S
C745 C744 1.366 1_554 S
C745 C746 1.414 . S
C745 C748 1.499 . S
C746 H726 0.950 . S
C746 C745 1.414 . S
C746 C747 1.374 . S
C747 H727 0.950 . S
C747 C743 1.389 . S
C747 C746 1.374 . S
C748 C745 1.499 . S
C748 C749 1.373 1_554 S
C748 C750 1.389 . S
C749 H728 0.950 . S
C749 C748 1.373 1_556 S
C749 C765 1.377 . S
C750 C748 1.389 . S
C750 C751 1.524 . S
C750 C764 1.377 . S
C751 C750 1.524 . S
C751 C752 1.397 . S
C751 C756 1.363 . S
C752 H729 0.950 . S
C752 C751 1.397 . S
C752 C753 1.334 . S
C753 H730 0.950 . S
C753 C752 1.334 . S
C753 C754 1.287 . S
C754 C753 1.287 . S
C754 C755 1.524 . S
C754 H773 0.913 . S
C755 H731 0.950 . S
C755 C754 1.524 . S
C755 C756 1.415 . S
C756 H732 0.950 1_554 S
C756 C751 1.363 . S
C756 C755 1.415 . S
C757 H733 0.951 . S
C757 C758 1.366 . S
C757 C759 1.388 . S
C758 C757 1.366 . S
C758 C762 1.385 1_554 S
C759 H734 0.951 . S
C759 C757 1.388 . S
C759 C760 1.352 1_554 S
C760 C759 1.352 1_556 S
C760 C761 1.426 . S
C760 C763 1.500 . S
C761 H735 0.950 . S
C761 C760 1.426 . S
C761 C762 1.374 . S
C762 H736 0.950 . S
C762 C758 1.385 1_556 S
C762 C761 1.374 . S
C763 C760 1.500 . S
C763 C764 1.373 1_556 S
C763 C765 1.389 . S
C764 H737 0.950 . S
C764 C750 1.377 . S
C764 C763 1.373 1_554 S
C765 C749 1.377 . S
C765 C763 1.389 . S
C765 C766 1.524 . S
C766 C765 1.524 . S
C766 C767 1.397 . S
C766 C771 1.363 . S
C767 H738 0.950 . S
C767 C766 1.397 . S
C767 C768 1.334 . S
C768 H739 0.950 . S
C768 C767 1.334 . S
C768 C769 1.287 . S
C769 C768 1.287 . S
C769 C770 1.524 . S
C769 H772 0.999 . S
C770 H740 0.950 . S
C770 C769 1.524 . S
C770 C771 1.415 . S
C771 H741 0.950 1_556 S
C771 C766 1.363 . S
C771 C770 1.415 . S
H772 C769 0.999 . S
H773 C754 0.913 . S
H774 C792 0.951 . S
H775 C794 0.954 . S
H776 C796 0.950 . S
H777 C797 0.950 . S
H778 C799 0.950 . S
H779 C802 0.950 . S
H780 C803 0.950 . S
H781 C805 0.950 . S
H782 C806 0.950 . S
H783 C807 0.951 . S
H784 C809 0.951 . S
H785 C811 0.950 . S
H786 C812 0.950 . S
H787 C814 0.950 . S
H788 C817 0.950 . S
H789 C818 0.950 . S
H790 C820 0.950 . S
H791 C821 0.950 . S
C792 H774 0.951 . S
C792 C793 1.364 1_556 S
C792 C794 1.389 . S
C793 C792 1.364 1_554 S
C793 C797 1.387 . S
C794 H775 0.954 . S
C794 C792 1.389 . S
C794 C795 1.363 1_556 S
C795 C794 1.363 1_554 S
C795 C796 1.414 . S
C795 C798 1.499 . S
C796 H776 0.950 . S
C796 C795 1.414 . S
C796 C797 1.374 . S
C797 H777 0.950 . S
C797 C793 1.387 . S
C797 C796 1.374 . S
C798 C795 1.499 . S
C798 C799 1.373 1_554 S
C798 C800 1.389 . S
C799 H778 0.950 . S
C799 C798 1.373 1_556 S
C799 C815 1.377 . S
C800 C798 1.389 . S
C800 C801 1.524 . S
C800 C814 1.377 . S
C801 C800 1.524 . S
C801 C802 1.397 . S
C801 C806 1.363 . S
C802 H779 0.950 . S
C802 C801 1.397 . S
C802 C803 1.334 . S
C803 H780 0.950 . S
C803 C802 1.334 . S
C803 C804 1.287 . S
C804 C803 1.287 . S
C804 C805 1.524 . S
C804 H823 0.913 . S
C805 H781 0.950 . S
C805 C804 1.524 . S
C805 C806 1.415 . S
C806 H782 0.950 . S
C806 C801 1.363 . S
C806 C805 1.415 . S
C807 H783 0.951 . S
C807 C808 1.367 . S
C807 C809 1.388 . S
C808 C807 1.367 . S
C808 C812 1.383 1_554 S
C809 H784 0.951 . S
C809 C807 1.388 . S
C809 C810 1.366 1_554 S
C810 C809 1.366 1_556 S
C810 C811 1.414 . S
C810 C813 1.499 . S
C811 H785 0.950 . S
C811 C810 1.414 . S
C811 C812 1.374 . S
C812 H786 0.950 . S
C812 C808 1.383 1_556 S
C812 C811 1.374 . S
C813 C810 1.499 . S
C813 C814 1.373 1_556 S
C813 C815 1.389 . S
C814 H787 0.950 . S
C814 C800 1.377 . S
C814 C813 1.373 1_554 S
C815 C799 1.377 . S
C815 C813 1.389 . S
C815 C816 1.524 . S
C816 C815 1.524 . S
C816 C817 1.397 . S
C816 C821 1.363 . S
C817 H788 0.950 . S
C817 C816 1.397 . S
C817 C818 1.334 . S
C818 H789 0.950 . S
C818 C817 1.334 . S
C818 C819 1.287 . S
C819 C818 1.287 . S
C819 C820 1.524 . S
C819 H822 0.999 . S
C820 H790 0.950 . S
C820 C819 1.524 . S
C820 C821 1.415 . S
C821 H791 0.950 . S
C821 C816 1.363 . S
C821 C820 1.415 . S
H822 C819 0.999 . S
H823 C804 0.913 . S
H824 C842 0.951 . S
H825 C844 0.951 . S
H826 C846 0.950 . S
H827 C847 0.950 . S
H828 C849 0.950 . S
H829 C852 0.950 . S
H830 C853 0.950 . S
H831 C855 0.950 . S
H832 C856 0.950 . S
H833 C857 0.951 . S
H834 C859 0.951 . S
H835 C861 0.950 . S
H836 C862 0.950 . S
H837 C864 0.950 . S
H838 C867 0.950 . S
H839 C868 0.950 . S
H840 C870 0.950 . S
H841 C871 0.950 . S
C842 H824 0.951 . S
C842 C843 1.366 . S
C842 C844 1.388 . S
C843 C842 1.366 . S
C843 C847 1.385 . S
C844 H825 0.951 . S
C844 C842 1.388 . S
C844 C845 1.366 . S
C845 C844 1.366 . S
C845 C846 1.414 . S
C845 C848 1.499 . S
C846 H826 0.950 . S
C846 C845 1.414 . S
C846 C847 1.374 . S
C847 H827 0.950 . S
C847 C843 1.385 . S
C847 C846 1.374 . S
C848 C845 1.499 . S
C848 C849 1.373 . S
C848 C850 1.389 . S
C849 H828 0.950 . S
C849 C848 1.373 . S
C849 C865 1.377 . S
C850 C848 1.389 . S
C850 C851 1.524 . S
C850 C864 1.377 . S
C851 C850 1.524 . S
C851 C852 1.397 . S
C851 C856 1.363 . S
C852 H829 0.950 . S
C852 C851 1.397 . S
C852 C853 1.334 . S
C853 H830 0.950 . S
C853 C852 1.334 . S
C853 C854 1.287 . S
C854 C853 1.287 . S
C854 C855 1.524 . S
C854 H873 0.913 . S
C855 H831 0.950 . S
C855 C854 1.524 . S
C855 C856 1.415 . S
C856 H832 0.950 . S
C856 C851 1.363 . S
C856 C855 1.415 . S
C857 H833 0.951 . S
C857 C858 1.366 . S
C857 C859 1.388 . S
C858 C857 1.366 . S
C858 C862 1.385 . S
C859 H834 0.951 . S
C859 C857 1.388 . S
C859 C860 1.366 . S
C860 C859 1.366 . S
C860 C861 1.414 . S
C860 C863 1.499 . S
C861 H835 0.950 . S
C861 C860 1.414 . S
C861 C862 1.374 . S
C862 H836 0.950 . S
C862 C858 1.385 . S
C862 C861 1.374 . S
C863 C860 1.499 . S
C863 C864 1.373 . S
C863 C865 1.389 . S
C864 H837 0.950 . S
C864 C850 1.377 . S
C864 C863 1.373 . S
C865 C849 1.377 . S
C865 C863 1.389 . S
C865 C866 1.524 . S
C866 C865 1.524 . S
C866 C867 1.397 . S
C866 C871 1.363 . S
C867 H838 0.950 . S
C867 C866 1.397 . S
C867 C868 1.334 . S
C868 H839 0.950 . S
C868 C867 1.334 . S
C868 C869 1.287 . S
C869 C868 1.287 . S
C869 C870 1.524 . S
C869 H872 0.999 . S
C870 H840 0.950 . S
C870 C869 1.524 . S
C870 C871 1.415 . S
C871 H841 0.950 . S
C871 C866 1.363 . S
C871 C870 1.415 . S
H872 C869 0.999 . S
H873 C854 0.913 . S
H874 C892 0.951 . S
H875 C894 0.951 . S
H876 C896 0.950 . S
H877 C897 0.950 . S
H878 C899 0.950 . S
H879 C902 0.950 . S
H880 C903 0.950 . S
H881 C905 0.950 . S
H882 C906 0.950 . S
H883 C907 0.951 . S
H884 C909 0.951 . S
H885 C911 0.950 . S
H886 C912 0.950 . S
H887 C914 0.950 . S
H888 C917 0.950 . S
H889 C918 0.950 . S
H890 C920 0.950 . S
H891 C921 0.950 . S
C892 H874 0.951 . S
C892 C893 1.366 . S
C892 C894 1.388 . S
C893 C892 1.366 . S
C893 C897 1.385 . S
C894 H875 0.951 . S
C894 C892 1.388 . S
C894 C895 1.366 . S
C895 C894 1.366 . S
C895 C896 1.414 . S
C895 C898 1.499 . S
C896 H876 0.950 . S
C896 C895 1.414 . S
C896 C897 1.374 . S
C897 H877 0.950 . S
C897 C893 1.385 . S
C897 C896 1.374 . S
C898 C895 1.499 . S
C898 C899 1.373 . S
C898 C900 1.389 . S
C899 H878 0.950 . S
C899 C898 1.373 . S
C899 C915 1.377 . S
C900 C898 1.389 . S
C900 C901 1.524 . S
C900 C914 1.377 . S
C901 C900 1.524 . S
C901 C902 1.397 . S
C901 C906 1.363 . S
C902 H879 0.950 . S
C902 C901 1.397 . S
C902 C903 1.334 . S
C903 H880 0.950 . S
C903 C902 1.334 . S
C903 C904 1.287 . S
C904 C903 1.287 . S
C904 C905 1.524 . S
C904 H923 0.913 . S
C905 H881 0.950 . S
C905 C904 1.524 . S
C905 C906 1.415 . S
C906 H882 0.950 . S
C906 C901 1.363 . S
C906 C905 1.415 . S
C907 H883 0.951 . S
C907 C908 1.366 . S
C907 C909 1.388 . S
C908 C907 1.366 . S
C908 C912 1.385 . S
C909 H884 0.951 . S
C909 C907 1.388 . S
C909 C910 1.366 . S
C910 C909 1.366 . S
C910 C911 1.414 . S
C910 C913 1.499 . S
C911 H885 0.950 . S
C911 C910 1.414 . S
C911 C912 1.374 . S
C912 H886 0.950 . S
C912 C908 1.385 . S
C912 C911 1.374 . S
C913 C910 1.499 . S
C913 C914 1.373 . S
C913 C915 1.389 . S
C914 H887 0.950 . S
C914 C900 1.377 . S
C914 C913 1.373 . S
C915 C899 1.377 . S
C915 C913 1.389 . S
C915 C916 1.524 . S
C916 C915 1.524 . S
C916 C917 1.397 . S
C916 C921 1.363 . S
C917 H888 0.950 . S
C917 C916 1.397 . S
C917 C918 1.334 . S
C918 H889 0.950 . S
C918 C917 1.334 . S
C918 C919 1.287 . S
C919 C918 1.287 . S
C919 C920 1.524 . S
C919 H922 0.999 . S
C920 H890 0.950 . S
C920 C919 1.524 . S
C920 C921 1.415 . S
C921 H891 0.950 . S
C921 C916 1.363 . S
C921 C920 1.415 . S
H922 C919 0.999 . S
H923 C904 0.913 . S
H924 C942 0.951 . S
H925 C944 0.951 . S
H926 C946 0.950 . S
H927 C947 0.950 . S
H928 C949 0.950 . S
H929 C952 0.950 . S
H930 C953 0.950 . S
H931 C955 0.950 . S
H932 C956 0.950 . S
H933 C957 0.951 . S
H934 C959 0.951 . S
H935 C961 0.950 . S
H936 C962 0.950 . S
H937 C964 0.950 . S
H938 C967 0.950 . S
H939 C968 0.950 . S
H940 C970 0.950 . S
H941 C971 0.950 . S
C942 H924 0.951 . S
C942 C943 1.366 . S
C942 C944 1.388 . S
C943 C942 1.366 . S
C943 C947 1.385 . S
C944 H925 0.951 . S
C944 C942 1.388 . S
C944 C945 1.366 . S
C945 C944 1.366 . S
C945 C946 1.414 . S
C945 C948 1.499 . S
C946 H926 0.950 . S
C946 C945 1.414 . S
C946 C947 1.374 . S
C947 H927 0.950 . S
C947 C943 1.385 . S
C947 C946 1.374 . S
C948 C945 1.499 . S
C948 C949 1.373 . S
C948 C950 1.389 . S
C949 H928 0.950 . S
C949 C948 1.373 . S
C949 C965 1.377 . S
C950 C948 1.389 . S
C950 C951 1.524 . S
C950 C964 1.377 . S
C951 C950 1.524 . S
C951 C952 1.397 . S
C951 C956 1.363 . S
C952 H929 0.950 . S
C952 C951 1.397 . S
C952 C953 1.334 . S
C953 H930 0.950 . S
C953 C952 1.334 . S
C953 C954 1.287 . S
C954 C953 1.287 . S
C954 C955 1.524 . S
C954 H973 0.913 . S
C955 H931 0.950 . S
C955 C954 1.524 . S
C955 C956 1.415 . S
C956 H932 0.950 . S
C956 C951 1.363 . S
C956 C955 1.415 . S
C957 H933 0.951 . S
C957 C958 1.366 . S
C957 C959 1.388 . S
C958 C957 1.366 . S
C958 C962 1.385 . S
C959 H934 0.951 . S
C959 C957 1.388 . S
C959 C960 1.366 . S
C960 C959 1.366 . S
C960 C961 1.414 . S
C960 C963 1.499 . S
C961 H935 0.950 . S
C961 C960 1.414 . S
C961 C962 1.374 . S
C962 H936 0.950 . S
C962 C958 1.385 . S
C962 C961 1.374 . S
C963 C960 1.499 . S
C963 C964 1.373 . S
C963 C965 1.389 . S
C964 H937 0.950 . S
C964 C950 1.377 . S
C964 C963 1.373 . S
C965 C949 1.377 . S
C965 C963 1.389 . S
C965 C966 1.524 . S
C966 C965 1.524 . S
C966 C967 1.397 . S
C966 C971 1.363 . S
C967 H938 0.950 . S
C967 C966 1.397 . S
C967 C968 1.334 . S
C968 H939 0.950 . S
C968 C967 1.334 . S
C968 C969 1.287 . S
C969 C968 1.287 . S
C969 C970 1.524 . S
C969 H972 0.999 . S
C970 H940 0.950 . S
C970 C969 1.524 . S
C970 C971 1.415 . S
C971 H941 0.950 . S
C971 C966 1.363 . S
C971 C970 1.415 . S
H972 C969 0.999 . S
H973 C954 0.913 . S
H974 C992 0.951 . S
H975 C994 0.951 . S
H976 C996 0.950 . S
H977 C997 0.950 . S
H978 C999 0.950 . S
H979 C1002 0.950 . S
H980 C1003 0.950 . S
H981 C1005 0.950 . S
H982 C1006 0.950 . S
H983 C1007 0.951 . S
H984 C1009 0.951 . S
H985 C1011 0.950 . S
H986 C1012 0.950 . S
H987 C1014 0.950 . S
H988 C1017 0.950 . S
H989 C1018 0.950 . S
H990 C1020 0.950 . S
H991 C1021 0.950 . S
C992 H974 0.951 . S
C992 C993 1.366 . S
C992 C994 1.388 . S
C993 C992 1.366 . S
C993 C997 1.385 . S
C994 H975 0.951 . S
C994 C992 1.388 . S
C994 C995 1.366 . S
C995 C994 1.366 . S
C995 C996 1.414 . S
C995 C998 1.499 . S
C996 H976 0.950 . S
C996 C995 1.414 . S
C996 C997 1.374 . S
C997 H977 0.950 . S
C997 C993 1.385 . S
C997 C996 1.374 . S
C998 C995 1.499 . S
C998 C999 1.373 . S
C998 C1000 1.389 . S
C999 H978 0.950 . S
C999 C998 1.373 . S
C999 C1015 1.377 . S
C1000 C998 1.389 . S
C1000 C1001 1.524 . S
C1000 C1014 1.377 . S
C1001 C1000 1.524 . S
C1001 C1002 1.397 . S
C1001 C1006 1.363 . S
C1002 H979 0.950 . S
C1002 C1001 1.397 . S
C1002 C1003 1.334 . S
C1003 H980 0.950 . S
C1003 C1002 1.334 . S
C1003 C1004 1.287 . S
C1004 C1003 1.287 . S
C1004 C1005 1.524 . S
C1004 H1023 0.913 . S
C1005 H981 0.950 . S
C1005 C1004 1.524 . S
C1005 C1006 1.415 . S
C1006 H982 0.950 . S
C1006 C1001 1.363 . S
C1006 C1005 1.415 . S
C1007 H983 0.951 . S
C1007 C1008 1.366 . S
C1007 C1009 1.388 . S
C1008 C1007 1.366 . S
C1008 C1012 1.385 . S
C1009 H984 0.951 . S
C1009 C1007 1.388 . S
C1009 C1010 1.366 . S
C1010 C1009 1.366 . S
C1010 C1011 1.414 . S
C1010 C1013 1.499 . S
C1011 H985 0.950 . S
C1011 C1010 1.414 . S
C1011 C1012 1.374 . S
C1012 H986 0.950 . S
C1012 C1008 1.385 . S
C1012 C1011 1.374 . S
C1013 C1010 1.499 . S
C1013 C1014 1.373 . S
C1013 C1015 1.389 . S
C1014 H987 0.950 . S
C1014 C1000 1.377 . S
C1014 C1013 1.373 . S
C1015 C999 1.377 . S
C1015 C1013 1.389 . S
C1015 C1016 1.524 . S
C1016 C1015 1.524 . S
C1016 C1017 1.397 . S
C1016 C1021 1.363 . S
C1017 H988 0.950 . S
C1017 C1016 1.397 . S
C1017 C1018 1.334 . S
C1018 H989 0.950 . S
C1018 C1017 1.334 . S
C1018 C1019 1.287 . S
C1019 C1018 1.287 . S
C1019 C1020 1.524 . S
C1019 H1022 0.999 . S
C1020 H990 0.950 . S
C1020 C1019 1.524 . S
C1020 C1021 1.415 . S
C1021 H991 0.950 . S
C1021 C1016 1.363 . S
C1021 C1020 1.415 . S
H1022 C1019 0.999 . S
H1023 C1004 0.913 . S
H1024 C1042 0.951 . S
H1025 C1044 0.951 . S
H1026 C1046 0.950 . S
H1027 C1047 0.950 . S
H1028 C1049 0.950 . S
H1029 C1052 0.950 . S
H1030 C1053 0.950 . S
H1031 C1055 0.950 . S
H1032 C1056 0.950 . S
H1033 C1057 0.951 . S
H1034 C1059 0.951 . S
H1035 C1061 0.950 . S
H1036 C1062 0.950 . S
H1037 C1064 0.950 . S
H1038 C1067 0.950 . S
H1039 C1068 0.950 . S
H1040 C1070 0.950 . S
H1041 C1071 0.950 . S
C1042 H1024 0.951 . S
C1042 C1043 1.366 . S
C1042 C1044 1.388 . S
C1043 C1042 1.366 . S
C1043 C1047 1.385 . S
C1044 H1025 0.951 . S
C1044 C1042 1.388 . S
C1044 C1045 1.366 . S
C1045 C1044 1.366 . S
C1045 C1046 1.414 . S
C1045 C1048 1.499 . S
C1046 H1026 0.950 . S
C1046 C1045 1.414 . S
C1046 C1047 1.374 . S
C1047 H1027 0.950 . S
C1047 C1043 1.385 . S
C1047 C1046 1.374 . S
C1048 C1045 1.499 . S
C1048 C1049 1.373 . S
C1048 C1050 1.389 . S
C1049 H1028 0.950 . S
C1049 C1048 1.373 . S
C1049 C1065 1.377 . S
C1050 C1048 1.389 . S
C1050 C1051 1.524 . S
C1050 C1064 1.377 . S
C1051 C1050 1.524 . S
C1051 C1052 1.397 . S
C1051 C1056 1.363 . S
C1052 H1029 0.950 . S
C1052 C1051 1.397 . S
C1052 C1053 1.334 . S
C1053 H1030 0.950 . S
C1053 C1052 1.334 . S
C1053 C1054 1.287 . S
C1054 C1053 1.287 . S
C1054 C1055 1.524 . S
C1054 H1073 0.913 . S
C1055 H1031 0.950 . S
C1055 C1054 1.524 . S
C1055 C1056 1.415 . S
C1056 H1032 0.950 . S
C1056 C1051 1.363 . S
C1056 C1055 1.415 . S
C1057 H1033 0.951 . S
C1057 C1058 1.366 . S
C1057 C1059 1.388 . S
C1058 C1057 1.366 . S
C1058 C1062 1.385 . S
C1059 H1034 0.951 . S
C1059 C1057 1.388 . S
C1059 C1060 1.366 . S
C1060 C1059 1.366 . S
C1060 C1061 1.414 . S
C1060 C1063 1.499 . S
C1061 H1035 0.950 . S
C1061 C1060 1.414 . S
C1061 C1062 1.374 . S
C1062 H1036 0.950 . S
C1062 C1058 1.385 . S
C1062 C1061 1.374 . S
C1063 C1060 1.499 . S
C1063 C1064 1.373 . S
C1063 C1065 1.389 . S
C1064 H1037 0.950 . S
C1064 C1050 1.377 . S
C1064 C1063 1.373 . S
C1065 C1049 1.377 . S
C1065 C1063 1.389 . S
C1065 C1066 1.524 . S
C1066 C1065 1.524 . S
C1066 C1067 1.397 . S
C1066 C1071 1.363 . S
C1067 H1038 0.950 . S
C1067 C1066 1.397 . S
C1067 C1068 1.334 . S
C1068 H1039 0.950 . S
C1068 C1067 1.334 . S
C1068 C1069 1.287 . S
C1069 C1068 1.287 . S
C1069 C1070 1.524 . S
C1069 H1072 0.999 . S
C1070 H1040 0.950 . S
C1070 C1069 1.524 . S
C1070 C1071 1.415 . S
C1071 H1041 0.950 . S
C1071 C1066 1.363 . S
C1071 C1070 1.415 . S
H1072 C1069 0.999 . S
H1073 C1054 0.913 . S
H1074 C1092 0.951 . S
H1075 C1094 0.951 . S
H1076 C1096 0.950 . S
H1077 C1097 0.950 . S
H1078 C1099 0.950 . S
H1079 C1102 0.950 . S
H1080 C1103 0.950 . S
H1081 C1105 0.950 . S
H1082 C1106 0.950 . S
H1083 C1107 0.951 . S
H1084 C1109 0.951 . S
H1085 C1111 0.950 . S
H1086 C1112 0.950 . S
H1087 C1114 0.950 . S
H1088 C1117 0.950 . S
H1089 C1118 0.950 . S
H1090 C1120 0.950 . S
H1091 C1121 0.950 . S
C1092 H1074 0.951 . S
C1092 C1093 1.366 . S
C1092 C1094 1.388 . S
C1093 C1092 1.366 . S
C1093 C1097 1.385 . S
C1094 H1075 0.951 . S
C1094 C1092 1.388 . S
C1094 C1095 1.366 . S
C1095 C1094 1.366 . S
C1095 C1096 1.414 . S
C1095 C1098 1.499 . S
C1096 H1076 0.950 . S
C1096 C1095 1.414 . S
C1096 C1097 1.374 . S
C1097 H1077 0.950 . S
C1097 C1093 1.385 . S
C1097 C1096 1.374 . S
C1098 C1095 1.499 . S
C1098 C1099 1.373 . S
C1098 C1100 1.389 . S
C1099 H1078 0.950 . S
C1099 C1098 1.373 . S
C1099 C1115 1.377 . S
C1100 C1098 1.389 . S
C1100 C1101 1.524 . S
C1100 C1114 1.377 . S
C1101 C1100 1.524 . S
C1101 C1102 1.397 . S
C1101 C1106 1.363 . S
C1102 H1079 0.950 . S
C1102 C1101 1.397 . S
C1102 C1103 1.334 . S
C1103 H1080 0.950 . S
C1103 C1102 1.334 . S
C1103 C1104 1.287 . S
C1104 C1103 1.287 . S
C1104 C1105 1.524 . S
C1104 H1123 0.913 . S
C1105 H1081 0.950 . S
C1105 C1104 1.524 . S
C1105 C1106 1.415 . S
C1106 H1082 0.950 . S
C1106 C1101 1.363 . S
C1106 C1105 1.415 . S
C1107 H1083 0.951 . S
C1107 C1108 1.366 . S
C1107 C1109 1.388 . S
C1108 C1107 1.366 . S
C1108 C1112 1.385 . S
C1109 H1084 0.951 . S
C1109 C1107 1.388 . S
C1109 C1110 1.366 . S
C1110 C1109 1.366 . S
C1110 C1111 1.414 . S
C1110 C1113 1.499 . S
C1111 H1085 0.950 . S
C1111 C1110 1.414 . S
C1111 C1112 1.374 . S
C1112 H1086 0.950 . S
C1112 C1108 1.385 . S
C1112 C1111 1.374 . S
C1113 C1110 1.499 . S
C1113 C1114 1.373 . S
C1113 C1115 1.389 . S
C1114 H1087 0.950 . S
C1114 C1100 1.377 . S
C1114 C1113 1.373 . S
C1115 C1099 1.377 . S
C1115 C1113 1.389 . S
C1115 C1116 1.524 . S
C1116 C1115 1.524 . S
C1116 C1117 1.397 . S
C1116 C1121 1.363 . S
C1117 H1088 0.950 . S
C1117 C1116 1.397 . S
C1117 C1118 1.334 . S
C1118 H1089 0.950 . S
C1118 C1117 1.334 . S
C1118 C1119 1.287 . S
C1119 C1118 1.287 . S
C1119 C1120 1.524 . S
C1119 H1122 0.999 . S
C1120 H1090 0.950 . S
C1120 C1119 1.524 . S
C1120 C1121 1.415 . S
C1121 H1091 0.950 . S
C1121 C1116 1.363 . S
C1121 C1120 1.415 . S
H1122 C1119 0.999 . S
H1123 C1104 0.913 . S
H1124 C1142 0.951 . S
H1125 C1144 0.951 . S
H1126 C1146 0.950 . S
H1127 C1147 0.950 . S
H1128 C1149 0.950 . S
H1129 C1152 0.950 . S
H1130 C1153 0.950 . S
H1131 C1155 0.950 . S
H1132 C1156 0.950 . S
H1133 C1157 0.951 . S
H1134 C1159 0.951 . S
H1135 C1161 0.950 . S
H1136 C1162 0.950 . S
H1137 C1164 0.950 . S
H1138 C1167 0.950 . S
H1139 C1168 0.950 . S
H1140 C1170 0.950 . S
H1141 C1171 0.950 . S
C1142 H1124 0.951 . S
C1142 C1143 1.366 . S
C1142 C1144 1.388 . S
C1143 C1142 1.366 . S
C1143 C1147 1.385 . S
C1144 H1125 0.951 . S
C1144 C1142 1.388 . S
C1144 C1145 1.366 . S
C1145 C1144 1.366 . S
C1145 C1146 1.414 . S
C1145 C1148 1.499 . S
C1146 H1126 0.950 . S
C1146 C1145 1.414 . S
C1146 C1147 1.374 . S
C1147 H1127 0.950 . S
C1147 C1143 1.385 . S
C1147 C1146 1.374 . S
C1148 C1145 1.499 . S
C1148 C1149 1.373 . S
C1148 C1150 1.389 . S
C1149 H1128 0.950 . S
C1149 C1148 1.373 . S
C1149 C1165 1.377 . S
C1150 C1148 1.389 . S
C1150 C1151 1.524 . S
C1150 C1164 1.377 . S
C1151 C1150 1.524 . S
C1151 C1152 1.397 . S
C1151 C1156 1.363 . S
C1152 H1129 0.950 . S
C1152 C1151 1.397 . S
C1152 C1153 1.334 . S
C1153 H1130 0.950 . S
C1153 C1152 1.334 . S
C1153 C1154 1.287 . S
C1154 C1153 1.287 . S
C1154 C1155 1.524 . S
C1154 H1173 0.913 . S
C1155 H1131 0.950 . S
C1155 C1154 1.524 . S
C1155 C1156 1.415 . S
C1156 H1132 0.950 . S
C1156 C1151 1.363 . S
C1156 C1155 1.415 . S
C1157 H1133 0.951 . S
C1157 C1158 1.366 . S
C1157 C1159 1.388 . S
C1158 C1157 1.366 . S
C1158 C1162 1.385 . S
C1159 H1134 0.951 . S
C1159 C1157 1.388 . S
C1159 C1160 1.366 . S
C1160 C1159 1.366 . S
C1160 C1161 1.414 . S
C1160 C1163 1.499 . S
C1161 H1135 0.950 . S
C1161 C1160 1.414 . S
C1161 C1162 1.374 . S
C1162 H1136 0.950 . S
C1162 C1158 1.385 . S
C1162 C1161 1.374 . S
C1163 C1160 1.499 . S
C1163 C1164 1.373 . S
C1163 C1165 1.389 . S
C1164 H1137 0.950 . S
C1164 C1150 1.377 . S
C1164 C1163 1.373 . S
C1165 C1149 1.377 . S
C1165 C1163 1.389 . S
C1165 C1166 1.524 . S
C1166 C1165 1.524 . S
C1166 C1167 1.397 . S
C1166 C1171 1.363 . S
C1167 H1138 0.950 . S
C1167 C1166 1.397 . S
C1167 C1168 1.334 . S
C1168 H1139 0.950 . S
C1168 C1167 1.334 . S
C1168 C1169 1.287 . S
C1169 C1168 1.287 . S
C1169 C1170 1.524 . S
C1169 H1172 0.999 . S
C1170 H1140 0.950 . S
C1170 C1169 1.524 . S
C1170 C1171 1.415 . S
C1171 H1141 0.950 . S
C1171 C1166 1.363 . S
C1171 C1170 1.415 . S
H1172 C1169 0.999 . S
H1173 C1154 0.913 . S
H1174 C1192 0.951 . S
H1175 C1194 0.951 . S
H1176 C1196 0.950 . S
H1177 C1197 0.950 . S
H1178 C1199 0.950 . S
H1179 C1202 0.950 . S
H1180 C1203 0.950 . S
H1181 C1205 0.950 . S
H1182 C1206 0.950 . S
H1183 C1207 0.951 . S
H1184 C1209 0.951 . S
H1185 C1211 0.950 . S
H1186 C1212 0.950 . S
H1187 C1214 0.950 . S
H1188 C1217 0.950 . S
H1189 C1218 0.950 . S
H1190 C1220 0.950 . S
H1191 C1221 0.950 . S
C1192 H1174 0.951 . S
C1192 C1193 1.366 . S
C1192 C1194 1.388 . S
C1193 C1192 1.366 . S
C1193 C1197 1.385 . S
C1194 H1175 0.951 . S
C1194 C1192 1.388 . S
C1194 C1195 1.366 . S
C1195 C1194 1.366 . S
C1195 C1196 1.414 . S
C1195 C1198 1.499 . S
C1196 H1176 0.950 . S
C1196 C1195 1.414 . S
C1196 C1197 1.374 . S
C1197 H1177 0.950 . S
C1197 C1193 1.385 . S
C1197 C1196 1.374 . S
C1198 C1195 1.499 . S
C1198 C1199 1.373 . S
C1198 C1200 1.389 . S
C1199 H1178 0.950 . S
C1199 C1198 1.373 . S
C1199 C1215 1.377 . S
C1200 C1198 1.389 . S
C1200 C1201 1.524 . S
C1200 C1214 1.377 . S
C1201 C1200 1.524 . S
C1201 C1202 1.397 . S
C1201 C1206 1.363 . S
C1202 H1179 0.950 . S
C1202 C1201 1.397 . S
C1202 C1203 1.334 . S
C1203 H1180 0.950 . S
C1203 C1202 1.334 . S
C1203 C1204 1.287 . S
C1204 C1203 1.287 . S
C1204 C1205 1.524 . S
C1204 H1223 0.913 . S
C1205 H1181 0.950 . S
C1205 C1204 1.524 . S
C1205 C1206 1.415 . S
C1206 H1182 0.950 . S
C1206 C1201 1.363 . S
C1206 C1205 1.415 . S
C1207 H1183 0.951 . S
C1207 C1208 1.366 . S
C1207 C1209 1.388 . S
C1208 C1207 1.366 . S
C1208 C1212 1.385 . S
C1209 H1184 0.951 . S
C1209 C1207 1.388 . S
C1209 C1210 1.366 . S
C1210 C1209 1.366 . S
C1210 C1211 1.414 . S
C1210 C1213 1.499 . S
C1211 H1185 0.950 . S
C1211 C1210 1.414 . S
C1211 C1212 1.374 . S
C1212 H1186 0.950 . S
C1212 C1208 1.385 . S
C1212 C1211 1.374 . S
C1213 C1210 1.499 . S
C1213 C1214 1.373 . S
C1213 C1215 1.389 . S
C1214 H1187 0.950 . S
C1214 C1200 1.377 . S
C1214 C1213 1.373 . S
C1215 C1199 1.377 . S
C1215 C1213 1.389 . S
C1215 C1216 1.524 . S
C1216 C1215 1.524 . S
C1216 C1217 1.397 . S
C1216 C1221 1.363 . S
C1217 H1188 0.950 . S
C1217 C1216 1.397 . S
C1217 C1218 1.334 . S
C1218 H1189 0.950 . S
C1218 C1217 1.334 . S
C1218 C1219 1.287 . S
C1219 C1218 1.287 . S
C1219 C1220 1.524 . S
C1219 H1222 0.999 . S
C1220 H1190 0.950 . S
C1220 C1219 1.524 . S
C1220 C1221 1.415 . S
C1221 H1191 0.950 . S
C1221 C1216 1.363 . S
C1221 C1220 1.415 . S
H1222 C1219 0.999 . S
H1223 C1204 0.913 . S
H1224 C1242 0.951 . S
H1225 C1244 0.951 . S
H1226 C1246 0.950 . S
H1227 C1247 0.950 . S
H1228 C1249 0.950 . S
H1229 C1252 0.950 . S
H1230 C1253 0.950 . S
H1231 C1255 0.950 . S
H1232 C1256 0.950 . S
H1233 C1257 0.951 . S
H1234 C1259 0.951 . S
H1235 C1261 0.950 . S
H1236 C1262 0.950 . S
H1237 C1264 0.950 . S
H1238 C1267 0.950 . S
H1239 C1268 0.950 . S
H1240 C1270 0.950 . S
H1241 C1271 0.950 . S
C1242 H1224 0.951 . S
C1242 C1243 1.366 . S
C1242 C1244 1.388 . S
C1243 C1242 1.366 . S
C1243 C1247 1.385 . S
C1244 H1225 0.951 . S
C1244 C1242 1.388 . S
C1244 C1245 1.366 . S
C1245 C1244 1.366 . S
C1245 C1246 1.414 . S
C1245 C1248 1.499 . S
C1246 H1226 0.950 . S
C1246 C1245 1.414 . S
C1246 C1247 1.374 . S
C1247 H1227 0.950 . S
C1247 C1243 1.385 . S
C1247 C1246 1.374 . S
C1248 C1245 1.499 . S
C1248 C1249 1.373 . S
C1248 C1250 1.389 . S
C1249 H1228 0.950 . S
C1249 C1248 1.373 . S
C1249 C1265 1.377 . S
C1250 C1248 1.389 . S
C1250 C1251 1.524 . S
C1250 C1264 1.377 . S
C1251 C1250 1.524 . S
C1251 C1252 1.397 . S
C1251 C1256 1.363 . S
C1252 H1229 0.950 . S
C1252 C1251 1.397 . S
C1252 C1253 1.334 . S
C1253 H1230 0.950 . S
C1253 C1252 1.334 . S
C1253 C1254 1.287 . S
C1254 C1253 1.287 . S
C1254 C1255 1.524 . S
C1254 H1273 0.913 . S
C1255 H1231 0.950 . S
C1255 C1254 1.524 . S
C1255 C1256 1.415 . S
C1256 H1232 0.950 . S
C1256 C1251 1.363 . S
C1256 C1255 1.415 . S
C1257 H1233 0.951 . S
C1257 C1258 1.366 . S
C1257 C1259 1.388 . S
C1258 C1257 1.366 . S
C1258 C1262 1.385 . S
C1259 H1234 0.951 . S
C1259 C1257 1.388 . S
C1259 C1260 1.366 . S
C1260 C1259 1.366 . S
C1260 C1261 1.414 . S
C1260 C1263 1.499 . S
C1261 H1235 0.950 . S
C1261 C1260 1.414 . S
C1261 C1262 1.374 . S
C1262 H1236 0.950 . S
C1262 C1258 1.385 . S
C1262 C1261 1.374 . S
C1263 C1260 1.499 . S
C1263 C1264 1.373 . S
C1263 C1265 1.389 . S
C1264 H1237 0.950 . S
C1264 C1250 1.377 . S
C1264 C1263 1.373 . S
C1265 C1249 1.377 . S
C1265 C1263 1.389 . S
C1265 C1266 1.524 . S
C1266 C1265 1.524 . S
C1266 C1267 1.397 . S
C1266 C1271 1.363 . S
C1267 H1238 0.950 . S
C1267 C1266 1.397 . S
C1267 C1268 1.334 . S
C1268 H1239 0.950 . S
C1268 C1267 1.334 . S
C1268 C1269 1.287 . S
C1269 C1268 1.287 . S
C1269 C1270 1.524 . S
C1269 H1272 0.999 . S
C1270 H1240 0.950 . S
C1270 C1269 1.524 . S
C1270 C1271 1.415 . S
C1271 H1241 0.950 . S
C1271 C1266 1.363 . S
C1271 C1270 1.415 . S
H1272 C1269 0.999 . S
H1273 C1254 0.913 . S
H1274 C1292 0.951 . S
H1275 C1294 0.951 . S
H1276 C1296 0.950 . S
H1277 C1297 0.950 . S
H1278 C1299 0.950 . S
H1279 C1302 0.950 . S
H1280 C1303 0.950 . S
H1281 C1305 0.950 . S
H1282 C1306 0.950 . S
H1283 C1307 0.951 . S
H1284 C1309 0.951 . S
H1285 C1311 0.950 . S
H1286 C1312 0.950 . S
H1287 C1314 0.950 . S
H1288 C1317 0.950 . S
H1289 C1318 0.950 . S
H1290 C1320 0.950 . S
H1291 C1321 0.950 . S
C1292 H1274 0.951 . S
C1292 C1293 1.366 . S
C1292 C1294 1.388 . S
C1293 C1292 1.366 . S
C1293 C1297 1.385 . S
C1294 H1275 0.951 . S
C1294 C1292 1.388 . S
C1294 C1295 1.366 . S
C1295 C1294 1.366 . S
C1295 C1296 1.414 . S
C1295 C1298 1.499 . S
C1296 H1276 0.950 . S
C1296 C1295 1.414 . S
C1296 C1297 1.374 . S
C1297 H1277 0.950 . S
C1297 C1293 1.385 . S
C1297 C1296 1.374 . S
C1298 C1295 1.499 . S
C1298 C1299 1.373 . S
C1298 C1300 1.389 . S
C1299 H1278 0.950 . S
C1299 C1298 1.373 . S
C1299 C1315 1.377 . S
C1300 C1298 1.389 . S
C1300 C1301 1.524 . S
C1300 C1314 1.377 . S
C1301 C1300 1.524 . S
C1301 C1302 1.397 . S
C1301 C1306 1.363 . S
C1302 H1279 0.950 . S
C1302 C1301 1.397 . S
C1302 C1303 1.334 . S
C1303 H1280 0.950 . S
C1303 C1302 1.334 . S
C1303 C1304 1.287 . S
C1304 C1303 1.287 . S
C1304 C1305 1.524 . S
C1304 H1323 0.913 . S
C1305 H1281 0.950 . S
C1305 C1304 1.524 . S
C1305 C1306 1.415 . S
C1306 H1282 0.950 . S
C1306 C1301 1.363 . S
C1306 C1305 1.415 . S
C1307 H1283 0.951 . S
C1307 C1308 1.366 . S
C1307 C1309 1.388 . S
C1308 C1307 1.366 . S
C1308 C1312 1.385 . S
C1309 H1284 0.951 . S
C1309 C1307 1.388 . S
C1309 C1310 1.366 . S
C1310 C1309 1.366 . S
C1310 C1311 1.414 . S
C1310 C1313 1.499 . S
C1311 H1285 0.950 . S
C1311 C1310 1.414 . S
C1311 C1312 1.374 . S
C1312 H1286 0.950 . S
C1312 C1308 1.385 . S
C1312 C1311 1.374 . S
C1313 C1310 1.499 . S
C1313 C1314 1.373 . S
C1313 C1315 1.389 . S
C1314 H1287 0.950 . S
C1314 C1300 1.377 . S
C1314 C1313 1.373 . S
C1315 C1299 1.377 . S
C1315 C1313 1.389 . S
C1315 C1316 1.524 . S
C1316 C1315 1.524 . S
C1316 C1317 1.397 . S
C1316 C1321 1.363 . S
C1317 H1288 0.950 . S
C1317 C1316 1.397 . S
C1317 C1318 1.334 . S
C1318 H1289 0.950 . S
C1318 C1317 1.334 . S
C1318 C1319 1.287 . S
C1319 C1318 1.287 . S
C1319 C1320 1.524 . S
C1319 H1322 0.999 . S
C1320 H1290 0.950 . S
C1320 C1319 1.524 . S
C1320 C1321 1.415 . S
C1321 H1291 0.950 . S
C1321 C1316 1.363 . S
C1321 C1320 1.415 . S
H1322 C1319 0.999 . S
H1323 C1304 0.913 . S
H1324 C1342 0.951 . S
H1325 C1344 0.951 . S
H1326 C1346 0.950 . S
H1327 C1347 0.950 . S
H1328 C1349 0.950 . S
H1329 C1352 0.950 . S
H1330 C1353 0.950 . S
H1331 C1355 0.950 . S
H1332 C1356 0.950 . S
H1333 C1357 0.951 . S
H1334 C1359 0.951 . S
H1335 C1361 0.950 . S
H1336 C1362 0.950 . S
H1337 C1364 0.950 . S
H1338 C1367 0.950 . S
H1339 C1368 0.950 . S
H1340 C1370 0.950 . S
H1341 C1371 0.950 . S
C1342 H1324 0.951 . S
C1342 C1343 1.366 . S
C1342 C1344 1.388 . S
C1343 C1342 1.366 . S
C1343 C1347 1.385 . S
C1344 H1325 0.951 . S
C1344 C1342 1.388 . S
C1344 C1345 1.366 . S
C1345 C1344 1.366 . S
C1345 C1346 1.414 . S
C1345 C1348 1.499 . S
C1346 H1326 0.950 . S
C1346 C1345 1.414 . S
C1346 C1347 1.374 . S
C1347 H1327 0.950 . S
C1347 C1343 1.385 . S
C1347 C1346 1.374 . S
C1348 C1345 1.499 . S
C1348 C1349 1.373 . S
C1348 C1350 1.389 . S
C1349 H1328 0.950 . S
C1349 C1348 1.373 . S
C1349 C1365 1.377 . S
C1350 C1348 1.389 . S
C1350 C1351 1.524 . S
C1350 C1364 1.377 . S
C1351 C1350 1.524 . S
C1351 C1352 1.397 . S
C1351 C1356 1.363 . S
C1352 H1329 0.950 . S
C1352 C1351 1.397 . S
C1352 C1353 1.334 . S
C1353 H1330 0.950 . S
C1353 C1352 1.334 . S
C1353 C1354 1.287 . S
C1354 C1353 1.287 . S
C1354 C1355 1.524 . S
C1354 H1373 0.913 . S
C1355 H1331 0.950 . S
C1355 C1354 1.524 . S
C1355 C1356 1.415 . S
C1356 H1332 0.950 . S
C1356 C1351 1.363 . S
C1356 C1355 1.415 . S
C1357 H1333 0.951 . S
C1357 C1358 1.366 . S
C1357 C1359 1.388 . S
C1358 C1357 1.366 . S
C1358 C1362 1.385 . S
C1359 H1334 0.951 . S
C1359 C1357 1.388 . S
C1359 C1360 1.366 . S
C1360 C1359 1.366 . S
C1360 C1361 1.414 . S
C1360 C1363 1.499 . S
C1361 H1335 0.950 . S
C1361 C1360 1.414 . S
C1361 C1362 1.374 . S
C1362 H1336 0.950 . S
C1362 C1358 1.385 . S
C1362 C1361 1.374 . S
C1363 C1360 1.499 . S
C1363 C1364 1.373 . S
C1363 C1365 1.389 . S
C1364 H1337 0.950 . S
C1364 C1350 1.377 . S
C1364 C1363 1.373 . S
C1365 C1349 1.377 . S
C1365 C1363 1.389 . S
C1365 C1366 1.524 . S
C1366 C1365 1.524 . S
C1366 C1367 1.397 . S
C1366 C1371 1.363 . S
C1367 H1338 0.950 . S
C1367 C1366 1.397 . S
C1367 C1368 1.334 . S
C1368 H1339 0.950 . S
C1368 C1367 1.334 . S
C1368 C1369 1.287 . S
C1369 C1368 1.287 . S
C1369 C1370 1.524 . S
C1369 H1372 0.999 . S
C1370 H1340 0.950 . S
C1370 C1369 1.524 . S
C1370 C1371 1.415 . S
C1371 H1341 0.950 . S
C1371 C1366 1.363 . S
C1371 C1370 1.415 . S
H1372 C1369 0.999 . S
H1373 C1354 0.913 . S
H1374 C1392 0.951 . S
H1375 C1394 0.951 . S
H1376 C1396 0.950 . S
H1377 C1397 0.950 . S
H1378 C1399 0.950 . S
H1379 C1402 0.950 . S
H1380 C1403 0.950 . S
H1381 C1405 0.950 . S
H1382 C1406 0.950 . S
H1383 C1407 0.951 . S
H1384 C1409 0.951 . S
H1385 C1411 0.950 . S
H1386 C1412 0.950 . S
H1387 C1414 0.950 . S
H1388 C1417 0.950 . S
H1389 C1418 0.950 . S
H1390 C1420 0.950 . S
H1391 C1421 0.950 . S
C1392 H1374 0.951 . S
C1392 C1393 1.366 . S
C1392 C1394 1.388 . S
C1393 C1392 1.366 . S
C1393 C1397 1.385 . S
C1394 H1375 0.951 . S
C1394 C1392 1.388 . S
C1394 C1395 1.366 . S
C1395 C1394 1.366 . S
C1395 C1396 1.414 . S
C1395 C1398 1.499 . S
C1396 H1376 0.950 . S
C1396 C1395 1.414 . S
C1396 C1397 1.374 . S
C1397 H1377 0.950 . S
C1397 C1393 1.385 . S
C1397 C1396 1.374 . S
C1398 C1395 1.499 . S
C1398 C1399 1.373 . S
C1398 C1400 1.389 . S
C1399 H1378 0.950 . S
C1399 C1398 1.373 . S
C1399 C1415 1.377 . S
C1400 C1398 1.389 . S
C1400 C1401 1.524 . S
C1400 C1414 1.377 . S
C1401 C1400 1.524 . S
C1401 C1402 1.397 . S
C1401 C1406 1.363 . S
C1402 H1379 0.950 . S
C1402 C1401 1.397 . S
C1402 C1403 1.334 . S
C1403 H1380 0.950 . S
C1403 C1402 1.334 . S
C1403 C1404 1.287 . S
C1404 C1403 1.287 . S
C1404 C1405 1.524 . S
C1404 H1423 0.913 . S
C1405 H1381 0.950 . S
C1405 C1404 1.524 . S
C1405 C1406 1.415 . S
C1406 H1382 0.950 . S
C1406 C1401 1.363 . S
C1406 C1405 1.415 . S
C1407 H1383 0.951 . S
C1407 C1408 1.366 . S
C1407 C1409 1.388 . S
C1408 C1407 1.366 . S
C1408 C1412 1.385 . S
C1409 H1384 0.951 . S
C1409 C1407 1.388 . S
C1409 C1410 1.366 . S
C1410 C1409 1.366 . S
C1410 C1411 1.414 . S
C1410 C1413 1.499 . S
C1411 H1385 0.950 . S
C1411 C1410 1.414 . S
C1411 C1412 1.374 . S
C1412 H1386 0.950 . S
C1412 C1408 1.385 . S
C1412 C1411 1.374 . S
C1413 C1410 1.499 . S
C1413 C1414 1.373 . S
C1413 C1415 1.389 . S
C1414 H1387 0.950 . S
C1414 C1400 1.377 . S
C1414 C1413 1.373 . S
C1415 C1399 1.377 . S
C1415 C1413 1.389 . S
C1415 C1416 1.524 . S
C1416 C1415 1.524 . S
C1416 C1417 1.397 . S
C1416 C1421 1.363 . S
C1417 H1388 0.950 . S
C1417 C1416 1.397 . S
C1417 C1418 1.334 . S
C1418 H1389 0.950 . S
C1418 C1417 1.334 . S
C1418 C1419 1.287 . S
C1419 C1418 1.287 . S
C1419 C1420 1.524 . S
C1419 H1422 0.999 . S
C1420 H1390 0.950 . S
C1420 C1419 1.524 . S
C1420 C1421 1.415 . S
C1421 H1391 0.950 . S
C1421 C1416 1.363 . S
C1421 C1420 1.415 . S
H1422 C1419 0.999 . S
H1423 C1404 0.913 . S
H1424 C1442 0.951 . S
H1425 C1444 0.951 . S
H1426 C1446 0.950 . S
H1427 C1447 0.950 . S
H1428 C1449 0.950 . S
H1429 C1452 0.950 . S
H1430 C1453 0.950 . S
H1431 C1455 0.950 . S
H1432 C1456 0.950 . S
H1433 C1457 0.951 . S
H1434 C1459 0.951 . S
H1435 C1461 0.950 . S
H1436 C1462 0.950 . S
H1437 C1464 0.950 . S
H1438 C1467 0.950 . S
H1439 C1468 0.950 . S
H1440 C1470 0.950 . S
H1441 C1471 0.950 . S
C1442 H1424 0.951 . S
C1442 C1443 1.366 . S
C1442 C1444 1.388 . S
C1443 C1442 1.366 . S
C1443 C1447 1.385 . S
C1444 H1425 0.951 . S
C1444 C1442 1.388 . S
C1444 C1445 1.366 . S
C1445 C1444 1.366 . S
C1445 C1446 1.414 . S
C1445 C1448 1.499 . S
C1446 H1426 0.950 . S
C1446 C1445 1.414 . S
C1446 C1447 1.374 . S
C1447 H1427 0.950 . S
C1447 C1443 1.385 . S
C1447 C1446 1.374 . S
C1448 C1445 1.499 . S
C1448 C1449 1.373 . S
C1448 C1450 1.389 . S
C1449 H1428 0.950 . S
C1449 C1448 1.373 . S
C1449 C1465 1.377 . S
C1450 C1448 1.389 . S
C1450 C1451 1.524 . S
C1450 C1464 1.377 . S
C1451 C1450 1.524 . S
C1451 C1452 1.397 . S
C1451 C1456 1.363 . S
C1452 H1429 0.950 . S
C1452 C1451 1.397 . S
C1452 C1453 1.334 . S
C1453 H1430 0.950 . S
C1453 C1452 1.334 . S
C1453 C1454 1.287 . S
C1454 C1453 1.287 . S
C1454 C1455 1.524 . S
C1454 H1473 0.913 . S
C1455 H1431 0.950 . S
C1455 C1454 1.524 . S
C1455 C1456 1.415 . S
C1456 H1432 0.950 . S
C1456 C1451 1.363 . S
C1456 C1455 1.415 . S
C1457 H1433 0.951 . S
C1457 C1458 1.366 . S
C1457 C1459 1.388 . S
C1458 C1457 1.366 . S
C1458 C1462 1.385 . S
C1459 H1434 0.951 . S
C1459 C1457 1.388 . S
C1459 C1460 1.366 . S
C1460 C1459 1.366 . S
C1460 C1461 1.414 . S
C1460 C1463 1.499 . S
C1461 H1435 0.950 . S
C1461 C1460 1.414 . S
C1461 C1462 1.374 . S
C1462 H1436 0.950 . S
C1462 C1458 1.385 . S
C1462 C1461 1.374 . S
C1463 C1460 1.499 . S
C1463 C1464 1.373 . S
C1463 C1465 1.389 . S
C1464 H1437 0.950 . S
C1464 C1450 1.377 . S
C1464 C1463 1.373 . S
C1465 C1449 1.377 . S
C1465 C1463 1.389 . S
C1465 C1466 1.524 . S
C1466 C1465 1.524 . S
C1466 C1467 1.397 . S
C1466 C1471 1.363 . S
C1467 H1438 0.950 . S
C1467 C1466 1.397 . S
C1467 C1468 1.334 . S
C1468 H1439 0.950 . S
C1468 C1467 1.334 . S
C1468 C1469 1.287 . S
C1469 C1468 1.287 . S
C1469 C1470 1.524 . S
C1469 H1472 0.999 . S
C1470 H1440 0.950 . S
C1470 C1469 1.524 . S
C1470 C1471 1.415 . S
C1471 H1441 0.950 . S
C1471 C1466 1.363 . S
C1471 C1470 1.415 . S
H1472 C1469 0.999 . S
H1473 C1454 0.913 . S
H1474 C1492 0.951 . S
H1475 C1494 0.951 . S
H1476 C1496 0.950 . S
H1477 C1497 0.950 . S
H1478 C1499 0.950 . S
H1479 C1502 0.950 . S
H1480 C1503 0.950 . S
H1481 C1505 0.950 . S
H1482 C1506 0.950 . S
H1483 C1507 0.951 . S
H1484 C1509 0.951 . S
H1485 C1511 0.950 . S
H1486 C1512 0.950 . S
H1487 C1514 0.950 . S
H1488 C1517 0.950 . S
H1489 C1518 0.950 . S
H1490 C1520 0.950 . S
H1491 C1521 0.950 . S
C1492 H1474 0.951 . S
C1492 C1493 1.366 . S
C1492 C1494 1.388 . S
C1493 C1492 1.366 . S
C1493 C1497 1.385 . S
C1494 H1475 0.951 . S
C1494 C1492 1.388 . S
C1494 C1495 1.366 . S
C1495 C1494 1.366 . S
C1495 C1496 1.414 . S
C1495 C1498 1.499 . S
C1496 H1476 0.950 . S
C1496 C1495 1.414 . S
C1496 C1497 1.374 . S
C1497 H1477 0.950 . S
C1497 C1493 1.385 . S
C1497 C1496 1.374 . S
C1498 C1495 1.499 . S
C1498 C1499 1.373 . S
C1498 C1500 1.389 . S
C1499 H1478 0.950 . S
C1499 C1498 1.373 . S
C1499 C1515 1.377 . S
C1500 C1498 1.389 . S
C1500 C1501 1.524 . S
C1500 C1514 1.377 . S
C1501 C1500 1.524 . S
C1501 C1502 1.397 . S
C1501 C1506 1.363 . S
C1502 H1479 0.950 . S
C1502 C1501 1.397 . S
C1502 C1503 1.334 . S
C1503 H1480 0.950 . S
C1503 C1502 1.334 . S
C1503 C1504 1.287 . S
C1504 C1503 1.287 . S
C1504 C1505 1.524 . S
C1504 H1523 0.913 . S
C1505 H1481 0.950 . S
C1505 C1504 1.524 . S
C1505 C1506 1.415 . S
C1506 H1482 0.950 . S
C1506 C1501 1.363 . S
C1506 C1505 1.415 . S
C1507 H1483 0.951 . S
C1507 C1508 1.366 . S
C1507 C1509 1.388 . S
C1508 C1507 1.366 . S
C1508 C1512 1.385 . S
C1509 H1484 0.951 . S
C1509 C1507 1.388 . S
C1509 C1510 1.366 . S
C1510 C1509 1.366 . S
C1510 C1511 1.414 . S
C1510 C1513 1.499 . S
C1511 H1485 0.950 . S
C1511 C1510 1.414 . S
C1511 C1512 1.374 . S
C1512 H1486 0.950 . S
C1512 C1508 1.385 . S
C1512 C1511 1.374 . S
C1513 C1510 1.499 . S
C1513 C1514 1.373 . S
C1513 C1515 1.389 . S
C1514 H1487 0.950 . S
C1514 C1500 1.377 . S
C1514 C1513 1.373 . S
C1515 C1499 1.377 . S
C1515 C1513 1.389 . S
C1515 C1516 1.524 . S
C1516 C1515 1.524 . S
C1516 C1517 1.397 . S
C1516 C1521 1.363 . S
C1517 H1488 0.950 . S
C1517 C1516 1.397 . S
C1517 C1518 1.334 . S
C1518 H1489 0.950 . S
C1518 C1517 1.334 . S
C1518 C1519 1.287 . S
C1519 C1518 1.287 . S
C1519 C1520 1.524 . S
C1519 H1522 0.999 . S
C1520 H1490 0.950 . S
C1520 C1519 1.524 . S
C1520 C1521 1.415 . S
C1521 H1491 0.950 . S
C1521 C1516 1.363 . S
C1521 C1520 1.415 . S
H1522 C1519 0.999 . S
H1523 C1504 0.913 . S
H1524 C1542 0.951 . S
H1525 C1544 0.951 . S
H1526 C1546 0.950 . S
H1527 C1547 0.950 . S
H1528 C1549 0.950 . S
H1529 C1552 0.950 . S
H1530 C1553 0.950 . S
H1531 C1555 0.950 . S
H1532 C1556 0.950 . S
H1533 C1557 0.951 . S
H1534 C1559 0.951 . S
H1535 C1561 0.950 . S
H1536 C1562 0.950 . S
H1537 C1564 0.950 . S
H1538 C1567 0.950 . S
H1539 C1568 0.950 . S
H1540 C1570 0.950 . S
H1541 C1571 0.950 . S
C1542 H1524 0.951 . S
C1542 C1543 1.366 . S
C1542 C1544 1.388 . S
C1543 C1542 1.366 . S
C1543 C1547 1.385 . S
C1544 H1525 0.951 . S
C1544 C1542 1.388 . S
C1544 C1545 1.366 . S
C1545 C1544 1.366 . S
C1545 C1546 1.414 . S
C1545 C1548 1.499 . S
C1546 H1526 0.950 . S
C1546 C1545 1.414 . S
C1546 C1547 1.374 . S
C1547 H1527 0.950 . S
C1547 C1543 1.385 . S
C1547 C1546 1.374 . S
C1548 C1545 1.499 . S
C1548 C1549 1.373 . S
C1548 C1550 1.389 . S
C1549 H1528 0.950 . S
C1549 C1548 1.373 . S
C1549 C1565 1.377 . S
C1550 C1548 1.389 . S
C1550 C1551 1.524 . S
C1550 C1564 1.377 . S
C1551 C1550 1.524 . S
C1551 C1552 1.397 . S
C1551 C1556 1.363 . S
C1552 H1529 0.950 . S
C1552 C1551 1.397 . S
C1552 C1553 1.334 . S
C1553 H1530 0.950 . S
C1553 C1552 1.334 . S
C1553 C1554 1.287 . S
C1554 C1553 1.287 . S
C1554 C1555 1.524 . S
C1554 H1573 0.913 . S
C1555 H1531 0.950 . S
C1555 C1554 1.524 . S
C1555 C1556 1.415 . S
C1556 H1532 0.950 . S
C1556 C1551 1.363 . S
C1556 C1555 1.415 . S
C1557 H1533 0.951 . S
C1557 C1558 1.366 . S
C1557 C1559 1.388 . S
C1558 C1557 1.366 . S
C1558 C1562 1.385 . S
C1559 H1534 0.951 . S
C1559 C1557 1.388 . S
C1559 C1560 1.366 . S
C1560 C1559 1.366 . S
C1560 C1561 1.414 . S
C1560 C1563 1.499 . S
C1561 H1535 0.950 . S
C1561 C1560 1.414 . S
C1561 C1562 1.374 . S
C1562 H1536 0.950 . S
C1562 C1558 1.385 . S
C1562 C1561 1.374 . S
C1563 C1560 1.499 . S
C1563 C1564 1.373 . S
C1563 C1565 1.389 . S
C1564 H1537 0.950 . S
C1564 C1550 1.377 . S
C1564 C1563 1.373 . S
C1565 C1549 1.377 . S
C1565 C1563 1.389 . S
C1565 C1566 1.524 . S
C1566 C1565 1.524 . S
C1566 C1567 1.397 . S
C1566 C1571 1.363 . S
C1567 H1538 0.950 . S
C1567 C1566 1.397 . S
C1567 C1568 1.334 . S
C1568 H1539 0.950 . S
C1568 C1567 1.334 . S
C1568 C1569 1.287 . S
C1569 C1568 1.287 . S
C1569 C1570 1.524 . S
C1569 H1572 0.999 . S
C1570 H1540 0.950 . S
C1570 C1569 1.524 . S
C1570 C1571 1.415 . S
C1571 H1541 0.950 . S
C1571 C1566 1.363 . S
C1571 C1570 1.415 . S
H1572 C1569 0.999 . S
H1573 C1554 0.913 . S
H1574 C1592 0.951 . S
H1575 C1594 0.951 . S
H1576 C1596 0.950 . S
H1577 C1597 0.950 . S
H1578 C1599 0.950 . S
H1579 C1602 0.950 . S
H1580 C1603 0.950 . S
H1581 C1605 0.950 . S
H1582 C1606 0.950 . S
H1583 C1607 0.951 . S
H1584 C1609 0.951 . S
H1585 C1611 0.950 . S
H1586 C1612 0.950 . S
H1587 C1614 0.950 . S
H1588 C1617 0.950 . S
H1589 C1618 0.950 . S
H1590 C1620 0.950 . S
H1591 C1621 0.950 . S
C1592 H1574 0.951 . S
C1592 C1593 1.366 . S
C1592 C1594 1.388 . S
C1593 C1592 1.366 . S
C1593 C1597 1.385 . S
C1594 H1575 0.951 . S
C1594 C1592 1.388 . S
C1594 C1595 1.366 . S
C1595 C1594 1.366 . S
C1595 C1596 1.414 . S
C1595 C1598 1.499 . S
C1596 H1576 0.950 . S
C1596 C1595 1.414 . S
C1596 C1597 1.374 . S
C1597 H1577 0.950 . S
C1597 C1593 1.385 . S
C1597 C1596 1.374 . S
C1598 C1595 1.499 . S
C1598 C1599 1.373 . S
C1598 C1600 1.389 . S
C1599 H1578 0.950 . S
C1599 C1598 1.373 . S
C1599 C1615 1.377 . S
C1600 C1598 1.389 . S
C1600 C1601 1.524 . S
C1600 C1614 1.377 . S
C1601 C1600 1.524 . S
C1601 C1602 1.397 . S
C1601 C1606 1.363 . S
C1602 H1579 0.950 . S
C1602 C1601 1.397 . S
C1602 C1603 1.334 . S
C1603 H1580 0.950 . S
C1603 C1602 1.334 . S
C1603 C1604 1.287 . S
C1604 C1603 1.287 . S
C1604 C1605 1.524 . S
C1604 H1623 0.913 . S
C1605 H1581 0.950 . S
C1605 C1604 1.524 . S
C1605 C1606 1.415 . S
C1606 H1582 0.950 . S
C1606 C1601 1.363 . S
C1606 C1605 1.415 . S
C1607 H1583 0.951 . S
C1607 C1608 1.366 . S
C1607 C1609 1.388 . S
C1608 C1607 1.366 . S
C1608 C1612 1.385 . S
C1609 H1584 0.951 . S
C1609 C1607 1.388 . S
C1609 C1610 1.366 . S
C1610 C1609 1.366 . S
C1610 C1611 1.414 . S
C1610 C1613 1.499 . S
C1611 H1585 0.950 . S
C1611 C1610 1.414 . S
C1611 C1612 1.374 . S
C1612 H1586 0.950 . S
C1612 C1608 1.385 . S
C1612 C1611 1.374 . S
C1613 C1610 1.499 . S
C1613 C1614 1.373 . S
C1613 C1615 1.389 . S
C1614 H1587 0.950 . S
C1614 C1600 1.377 . S
C1614 C1613 1.373 . S
C1615 C1599 1.377 . S
C1615 C1613 1.389 . S
C1615 C1616 1.524 . S
C1616 C1615 1.524 . S
C1616 C1617 1.397 . S
C1616 C1621 1.363 . S
C1617 H1588 0.950 . S
C1617 C1616 1.397 . S
C1617 C1618 1.334 . S
C1618 H1589 0.950 . S
C1618 C1617 1.334 . S
C1618 C1619 1.287 . S
C1619 C1618 1.287 . S
C1619 C1620 1.524 . S
C1619 H1622 0.999 . S
C1620 H1590 0.950 . S
C1620 C1619 1.524 . S
C1620 C1621 1.415 . S
C1621 H1591 0.950 . S
C1621 C1616 1.363 . S
C1621 C1620 1.415 . S
H1622 C1619 0.999 . S
H1623 C1604 0.913 . S
H1624 C1642 0.951 . S
H1625 C1644 0.951 . S
H1626 C1646 0.950 . S
H1627 C1647 0.950 . S
H1628 C1649 0.950 . S
H1629 C1652 0.950 . S
H1630 C1653 0.950 . S
H1631 C1655 0.950 . S
H1632 C1656 0.950 . S
H1633 C1657 0.951 . S
H1634 C1659 0.951 . S
H1635 C1661 0.950 . S
H1636 C1662 0.950 . S
H1637 C1664 0.950 . S
H1638 C1667 0.950 . S
H1639 C1668 0.950 . S
H1640 C1670 0.950 . S
H1641 C1671 0.950 . S
C1642 H1624 0.951 . S
C1642 C1643 1.366 . S
C1642 C1644 1.388 . S
C1643 C1642 1.366 . S
C1643 C1647 1.385 . S
C1644 H1625 0.951 . S
C1644 C1642 1.388 . S
C1644 C1645 1.366 . S
C1645 C1644 1.366 . S
C1645 C1646 1.414 . S
C1645 C1648 1.499 . S
C1646 H1626 0.950 . S
C1646 C1645 1.414 . S
C1646 C1647 1.374 . S
C1647 H1627 0.950 . S
C1647 C1643 1.385 . S
C1647 C1646 1.374 . S
C1648 C1645 1.499 . S
C1648 C1649 1.373 . S
C1648 C1650 1.389 . S
C1649 H1628 0.950 . S
C1649 C1648 1.373 . S
C1649 C1665 1.377 . S
C1650 C1648 1.389 . S
C1650 C1651 1.524 . S
C1650 C1664 1.377 . S
C1651 C1650 1.524 . S
C1651 C1652 1.397 . S
C1651 C1656 1.363 . S
C1652 H1629 0.950 . S
C1652 C1651 1.397 . S
C1652 C1653 1.334 . S
C1653 H1630 0.950 . S
C1653 C1652 1.334 . S
C1653 C1654 1.287 . S
C1654 C1653 1.287 . S
C1654 C1655 1.524 . S
C1654 H1673 0.913 . S
C1655 H1631 0.950 . S
C1655 C1654 1.524 . S
C1655 C1656 1.415 . S
C1656 H1632 0.950 . S
C1656 C1651 1.363 . S
C1656 C1655 1.415 . S
C1657 H1633 0.951 . S
C1657 C1658 1.366 . S
C1657 C1659 1.388 . S
C1658 C1657 1.366 . S
C1658 C1662 1.385 . S
C1659 H1634 0.951 . S
C1659 C1657 1.388 . S
C1659 C1660 1.366 . S
C1660 C1659 1.366 . S
C1660 C1661 1.414 . S
C1660 C1663 1.499 . S
C1661 H1635 0.950 . S
C1661 C1660 1.414 . S
C1661 C1662 1.374 . S
C1662 H1636 0.950 . S
C1662 C1658 1.385 . S
C1662 C1661 1.374 . S
C1663 C1660 1.499 . S
C1663 C1664 1.373 . S
C1663 C1665 1.389 . S
C1664 H1637 0.950 . S
C1664 C1650 1.377 . S
C1664 C1663 1.373 . S
C1665 C1649 1.377 . S
C1665 C1663 1.389 . S
C1665 C1666 1.524 . S
C1666 C1665 1.524 . S
C1666 C1667 1.397 . S
C1666 C1671 1.363 . S
C1667 H1638 0.950 . S
C1667 C1666 1.397 . S
C1667 C1668 1.334 . S
C1668 H1639 0.950 . S
C1668 C1667 1.334 . S
C1668 C1669 1.287 . S
C1669 C1668 1.287 . S
C1669 C1670 1.524 . S
C1669 H1672 0.999 . S
C1670 H1640 0.950 . S
C1670 C1669 1.524 . S
C1670 C1671 1.415 . S
C1671 H1641 0.950 . S
C1671 C1666 1.363 . S
C1671 C1670 1.415 . S
H1672 C1669 0.999 . S
H1673 C1654 0.913 . S
H1674 C1692 0.951 . S
H1675 C1694 0.951 . S
H1676 C1696 0.950 . S
H1677 C1697 0.950 . S
H1678 C1699 0.950 . S
H1679 C1702 0.950 . S
H1680 C1703 0.950 . S
H1681 C1705 0.950 . S
H1682 C1706 0.950 . S
H1683 C1707 0.951 . S
H1684 C1709 0.951 . S
H1685 C1711 0.950 . S
H1686 C1712 0.950 . S
H1687 C1714 0.950 . S
H1688 C1717 0.950 . S
H1689 C1718 0.950 . S
H1690 C1720 0.950 . S
H1691 C1721 0.950 . S
C1692 H1674 0.951 . S
C1692 C1693 1.366 . S
C1692 C1694 1.388 . S
C1693 C1692 1.366 . S
C1693 C1697 1.385 . S
C1694 H1675 0.951 . S
C1694 C1692 1.388 . S
C1694 C1695 1.366 . S
C1695 C1694 1.366 . S
C1695 C1696 1.414 . S
C1695 C1698 1.499 . S
C1696 H1676 0.950 . S
C1696 C1695 1.414 . S
C1696 C1697 1.374 . S
C1697 H1677 0.950 . S
C1697 C1693 1.385 . S
C1697 C1696 1.374 . S
C1698 C1695 1.499 . S
C1698 C1699 1.373 . S
C1698 C1700 1.389 . S
C1699 H1678 0.950 . S
C1699 C1698 1.373 . S
C1699 C1715 1.377 . S
C1700 C1698 1.389 . S
C1700 C1701 1.524 . S
C1700 C1714 1.377 . S
C1701 C1700 1.524 . S
C1701 C1702 1.397 . S
C1701 C1706 1.363 . S
C1702 H1679 0.950 . S
C1702 C1701 1.397 . S
C1702 C1703 1.334 . S
C1703 H1680 0.950 . S
C1703 C1702 1.334 . S
C1703 C1704 1.287 . S
C1704 C1703 1.287 . S
C1704 C1705 1.524 . S
C1704 H1723 0.913 . S
C1705 H1681 0.950 . S
C1705 C1704 1.524 . S
C1705 C1706 1.415 . S
C1706 H1682 0.950 . S
C1706 C1701 1.363 . S
C1706 C1705 1.415 . S
C1707 H1683 0.951 . S
C1707 C1708 1.366 . S
C1707 C1709 1.388 . S
C1708 C1707 1.366 . S
C1708 C1712 1.385 . S
C1709 H1684 0.951 . S
C1709 C1707 1.388 . S
C1709 C1710 1.366 . S
C1710 C1709 1.366 . S
C1710 C1711 1.414 . S
C1710 C1713 1.499 . S
C1711 H1685 0.950 . S
C1711 C1710 1.414 . S
C1711 C1712 1.374 . S
C1712 H1686 0.950 . S
C1712 C1708 1.385 . S
C1712 C1711 1.374 . S
C1713 C1710 1.499 . S
C1713 C1714 1.373 . S
C1713 C1715 1.389 . S
C1714 H1687 0.950 . S
C1714 C1700 1.377 . S
C1714 C1713 1.373 . S
C1715 C1699 1.377 . S
C1715 C1713 1.389 . S
C1715 C1716 1.524 . S
C1716 C1715 1.524 . S
C1716 C1717 1.397 . S
C1716 C1721 1.363 . S
C1717 H1688 0.950 . S
C1717 C1716 1.397 . S
C1717 C1718 1.334 . S
C1718 H1689 0.950 . S
C1718 C1717 1.334 . S
C1718 C1719 1.287 . S
C1719 C1718 1.287 . S
C1719 C1720 1.524 . S
C1719 H1722 0.999 . S
C1720 H1690 0.950 . S
C1720 C1719 1.524 . S
C1720 C1721 1.415 . S
C1721 H1691 0.950 . S
C1721 C1716 1.363 . S
C1721 C1720 1.415 . S
H1722 C1719 0.999 . S
H1723 C1704 0.913 . S
H1724 C1742 0.951 . S
H1725 C1744 0.951 . S
H1726 C1746 0.950 . S
H1727 C1747 0.950 . S
H1728 C1749 0.950 . S
H1729 C1752 0.950 . S
H1730 C1753 0.950 . S
H1731 C1755 0.950 . S
H1732 C1756 0.950 . S
H1733 C1757 0.951 . S
H1734 C1759 0.951 . S
H1735 C1761 0.950 . S
H1736 C1762 0.950 . S
H1737 C1764 0.950 . S
H1738 C1767 0.950 . S
H1739 C1768 0.950 . S
H1740 C1770 0.950 . S
H1741 C1771 0.950 . S
C1742 H1724 0.951 . S
C1742 C1743 1.366 . S
C1742 C1744 1.388 . S
C1743 C1742 1.366 . S
C1743 C1747 1.385 . S
C1744 H1725 0.951 . S
C1744 C1742 1.388 . S
C1744 C1745 1.366 . S
C1745 C1744 1.366 . S
C1745 C1746 1.414 . S
C1745 C1748 1.499 . S
C1746 H1726 0.950 . S
C1746 C1745 1.414 . S
C1746 C1747 1.374 . S
C1747 H1727 0.950 . S
C1747 C1743 1.385 . S
C1747 C1746 1.374 . S
C1748 C1745 1.499 . S
C1748 C1749 1.373 . S
C1748 C1750 1.389 . S
C1749 H1728 0.950 . S
C1749 C1748 1.373 . S
C1749 C1765 1.377 . S
C1750 C1748 1.389 . S
C1750 C1751 1.524 . S
C1750 C1764 1.377 . S
C1751 C1750 1.524 . S
C1751 C1752 1.397 . S
C1751 C1756 1.363 . S
C1752 H1729 0.950 . S
C1752 C1751 1.397 . S
C1752 C1753 1.334 . S
C1753 H1730 0.950 . S
C1753 C1752 1.334 . S
C1753 C1754 1.287 . S
C1754 C1753 1.287 . S
C1754 C1755 1.524 . S
C1754 H1773 0.913 . S
C1755 H1731 0.950 . S
C1755 C1754 1.524 . S
C1755 C1756 1.415 . S
C1756 H1732 0.950 . S
C1756 C1751 1.363 . S
C1756 C1755 1.415 . S
C1757 H1733 0.951 . S
C1757 C1758 1.366 . S
C1757 C1759 1.388 . S
C1758 C1757 1.366 . S
C1758 C1762 1.385 . S
C1759 H1734 0.951 . S
C1759 C1757 1.388 . S
C1759 C1760 1.366 . S
C1760 C1759 1.366 . S
C1760 C1761 1.414 . S
C1760 C1763 1.499 . S
C1761 H1735 0.950 . S
C1761 C1760 1.414 . S
C1761 C1762 1.374 . S
C1762 H1736 0.950 . S
C1762 C1758 1.385 . S
C1762 C1761 1.374 . S
C1763 C1760 1.499 . S
C1763 C1764 1.373 . S
C1763 C1765 1.389 . S
C1764 H1737 0.950 . S
C1764 C1750 1.377 . S
C1764 C1763 1.373 . S
C1765 C1749 1.377 . S
C1765 C1763 1.389 . S
C1765 C1766 1.524 . S
C1766 C1765 1.524 . S
C1766 C1767 1.397 . S
C1766 C1771 1.363 . S
C1767 H1738 0.950 . S
C1767 C1766 1.397 . S
C1767 C1768 1.334 . S
C1768 H1739 0.950 . S
C1768 C1767 1.334 . S
C1768 C1769 1.287 . S
C1769 C1768 1.287 . S
C1769 C1770 1.524 . S
C1769 H1772 0.999 . S
C1770 H1740 0.950 . S
C1770 C1769 1.524 . S
C1770 C1771 1.415 . S
C1771 H1741 0.950 . S
C1771 C1766 1.363 . S
C1771 C1770 1.415 . S
H1772 C1769 0.999 . S
H1773 C1754 0.913 . S
H1774 C1792 0.951 . S
H1775 C1794 0.951 . S
H1776 C1796 0.950 . S
H1777 C1797 0.950 . S
H1778 C1799 0.950 . S
H1779 C1802 0.950 . S
H1780 C1803 0.950 . S
H1781 C1805 0.950 . S
H1782 C1806 0.950 . S
H1783 C1807 0.951 . S
H1784 C1809 0.951 . S
H1785 C1811 0.950 . S
H1786 C1812 0.950 . S
H1787 C1814 0.950 . S
H1788 C1817 0.950 . S
H1789 C1818 0.950 . S
H1790 C1820 0.950 . S
H1791 C1821 0.950 . S
C1792 H1774 0.951 . S
C1792 C1793 1.366 . S
C1792 C1794 1.388 . S
C1793 C1792 1.366 . S
C1793 C1797 1.385 . S
C1794 H1775 0.951 . S
C1794 C1792 1.388 . S
C1794 C1795 1.366 . S
C1795 C1794 1.366 . S
C1795 C1796 1.414 . S
C1795 C1798 1.499 . S
C1796 H1776 0.950 . S
C1796 C1795 1.414 . S
C1796 C1797 1.374 . S
C1797 H1777 0.950 . S
C1797 C1793 1.385 . S
C1797 C1796 1.374 . S
C1798 C1795 1.499 . S
C1798 C1799 1.373 . S
C1798 C1800 1.389 . S
C1799 H1778 0.950 . S
C1799 C1798 1.373 . S
C1799 C1815 1.377 . S
C1800 C1798 1.389 . S
C1800 C1801 1.524 . S
C1800 C1814 1.377 . S
C1801 C1800 1.524 . S
C1801 C1802 1.397 . S
C1801 C1806 1.363 . S
C1802 H1779 0.950 . S
C1802 C1801 1.397 . S
C1802 C1803 1.334 . S
C1803 H1780 0.950 . S
C1803 C1802 1.334 . S
C1803 C1804 1.287 . S
C1804 C1803 1.287 . S
C1804 C1805 1.524 . S
C1804 H1823 0.913 . S
C1805 H1781 0.950 . S
C1805 C1804 1.524 . S
C1805 C1806 1.415 . S
C1806 H1782 0.950 . S
C1806 C1801 1.363 . S
C1806 C1805 1.415 . S
C1807 H1783 0.951 . S
C1807 C1808 1.366 . S
C1807 C1809 1.388 . S
C1808 C1807 1.366 . S
C1808 C1812 1.385 . S
C1809 H1784 0.951 . S
C1809 C1807 1.388 . S
C1809 C1810 1.366 . S
C1810 C1809 1.366 . S
C1810 C1811 1.414 . S
C1810 C1813 1.499 . S
C1811 H1785 0.950 . S
C1811 C1810 1.414 . S
C1811 C1812 1.374 . S
C1812 H1786 0.950 . S
C1812 C1808 1.385 . S
C1812 C1811 1.374 . S
C1813 C1810 1.499 . S
C1813 C1814 1.373 . S
C1813 C1815 1.389 . S
C1814 H1787 0.950 . S
C1814 C1800 1.377 . S
C1814 C1813 1.373 . S
C1815 C1799 1.377 . S
C1815 C1813 1.389 . S
C1815 C1816 1.524 . S
C1816 C1815 1.524 . S
C1816 C1817 1.397 . S
C1816 C1821 1.363 . S
C1817 H1788 0.950 . S
C1817 C1816 1.397 . S
C1817 C1818 1.334 . S
C1818 H1789 0.950 . S
C1818 C1817 1.334 . S
C1818 C1819 1.287 . S
C1819 C1818 1.287 . S
C1819 C1820 1.524 . S
C1819 H1822 0.999 . S
C1820 H1790 0.950 . S
C1820 C1819 1.524 . S
C1820 C1821 1.415 . S
C1821 H1791 0.950 . S
C1821 C1816 1.363 . S
C1821 C1820 1.415 . S
H1822 C1819 0.999 . S
H1823 C1804 0.913 . S
C243 C67 1.378 . S
C258 C11 1.378 . S
C293 C81 1.378 . S
C308 C25 1.378 . S
C343 C95 1.379 . S
C358 C39 1.377 . S
C393 C109 1.378 . S
C408 C53 1.378 . S
C443 C179 1.378 . S
C458 C123 1.378 . S
C493 C193 1.377 . S
C508 C137 1.378 . S
C543 C151 1.378 . S
C558 C207 1.377 . S
C593 C221 1.378 . S
C608 C165 1.377 . S
C643 C5 1.458 . S
C658 C75 1.458 . S
C693 C89 1.459 . S
C708 C19 1.458 . S
C743 C33 1.458 . S
C758 C103 1.459 . S
C793 C61 1.458 . S
C808 C47 1.458 . S
C843 C187 1.458 . S
C858 C117 1.458 . S
C893 C201 1.458 . S
C908 C131 1.458 . S
C943 C145 1.458 . S
C958 C215 1.458 . S
C993 C159 1.458 . S
C1008 C173 1.458 . S
C1043 C219 1.421 . S
C1058 C9 1.421 . S
C1093 C177 1.422 . S
C1108 C23 1.422 . S
C1143 C191 1.421 . S
C1158 C37 1.421 . S
C1193 C205 1.422 . S
C1208 C51 1.422 . S
C1243 C135 1.421 . S
C1258 C65 1.421 . S
C1293 C149 1.421 . S
C1308 C79 1.421 . S
C1343 C93 1.422 . S
C1358 C163 1.421 . S
C1393 C107 1.422 . S
C1408 C121 1.421 . S
C1443 C182 1.328 . S
C1458 C28 1.328 . S
C1493 C196 1.328 . S
C1508 C42 1.328 . S
C1543 C210 1.328 . S
C1558 C0 1.328 . S
C1593 C14 1.328 . S
C1608 C168 1.328 . S
C1643 C154 1.328 . S
C1658 C84 1.328 . S
C1693 C98 1.327 . S
C1708 C112 1.328 . S
C1743 C126 1.327 . S
C1758 C56 1.328 . S
C1793 C140 1.327 . S
C1808 C70 1.328 . S
