# Generated by pormake.
# Topology lhb, (8)-cn, num edge types: 1
# Building blocks:
#     Node 0, Type 0, BuildingBlock: EBIMEJ_clean_sbu_0, # of connection points: 8
#     Node 1, Type 0, BuildingBlock: EBIMEJ_clean_sbu_0, # of connection points: 8
#     Node 2, Type 0, BuildingBlock: EBIMEJ_clean_sbu_0, # of connection points: 8
#     Node 3, Type 0, BuildingBlock: EBIMEJ_clean_sbu_0, # of connection points: 8
#     Node 4, Type 0, BuildingBlock: EBIMEJ_clean_sbu_0, # of connection points: 8
#     Node 5, Type 0, BuildingBlock: EBIMEJ_clean_sbu_0, # of connection points: 8
#     Node 6, Type 0, BuildingBlock: EBIMEJ_clean_sbu_0, # of connection points: 8
#     Node 7, Type 0, BuildingBlock: EBIMEJ_clean_sbu_0, # of connection points: 8
#     Edge 8, Type (0, 0), None
#     Edge 9, Type (0, 0), None
#     Edge 10, Type (0, 0), None
#     Edge 11, Type (0, 0), None
#     Edge 12, Type (0, 0), None
#     Edge 13, Type (0, 0), None
#     Edge 14, Type (0, 0), None
#     Edge 15, Type (0, 0), None
#     Edge 16, Type (0, 0), None
#     Edge 17, Type (0, 0), None
#     Edge 18, Type (0, 0), None
#     Edge 19, Type (0, 0), None
#     Edge 20, Type (0, 0), None
#     Edge 21, Type (0, 0), None
#     Edge 22, Type (0, 0), None
#     Edge 23, Type (0, 0), None
#     Edge 24, Type (0, 0), None
#     Edge 25, Type (0, 0), None
#     Edge 26, Type (0, 0), None
#     Edge 27, Type (0, 0), None
#     Edge 28, Type (0, 0), None
#     Edge 29, Type (0, 0), None
#     Edge 30, Type (0, 0), None
#     Edge 31, Type (0, 0), None
#     Edge 32, Type (0, 0), None
#     Edge 33, Type (0, 0), None
#     Edge 34, Type (0, 0), None
#     Edge 35, Type (0, 0), None
#     Edge 36, Type (0, 0), None
#     Edge 37, Type (0, 0), None
#     Edge 38, Type (0, 0), None
#     Edge 39, Type (0, 0), None
# Relax obj value: 0.057
# Max RMSD: 0.160
# Mean RMSD: 0.160
data_MOF--net-lhb--node1-EBIMEJ_clean_sbu_0--edge1-none
_symmetry_space_group_name_H-M    P1
_symmetry_Int_Tables_number       1
_symmetry_cell_setting            triclinic
loop_
_symmetry_equiv_pos_as_xyz
'x, y, z'
_cell_length_a     16.983982
_cell_length_b     7.5420864
_cell_length_c     36.562125
_cell_angle_alpha  82.217604
_cell_angle_beta   89.999881
_cell_angle_gamma 90.001065
loop_
_atom_site_label
_atom_site_type_symbol
_atom_site_fract_x
_atom_site_fract_y
_atom_site_fract_z
_atom_type_partial_charge
Co0 Co 0.92162 0.85125 0.9831 0.0
Co1 Co 0.07311 0.03918 1.01802 0.0
Co2 Co 0.93976 0.89762 0.06605 0.0
H3 H 0.94163 0.92334 1.02339 0.0
O4 O 0.95845 0.02654 1.01392 0.0
H5 H 0.06768 0.0381 0.06211 0.0
O6 O 0.05293 0.93297 0.07159 0.0
Co7 Co 0.08127 0.11678 0.10351 0.0
O8 O 0.18043 0.21527 0.07533 0.0
O9 O 0.18691 0.07273 1.0251 0.0
O10 O 0.01721 0.96589 0.14567 0.0
O11 O 0.92896 0.80625 0.1176 0.0
O12 O 0.88657 0.86277 0.92994 0.0
O13 O 0.84447 0.05268 0.96145 0.0
O14 O 0.01294 0.3097 0.07693 0.0
O15 O 0.05374 0.30117 1.01893 0.0
C16 C 0.79481 0.74997 1.0381 0.0
C17 C 0.0727 0.95314 0.94253 0.0
C18 C 0.15781 0.18024 0.159 0.0
C19 C 0.98746 0.55956 1.0334 0.0
C20 C 0.21673 0.17315 0.04694 0.0
C21 C 0.96244 0.84741 0.14619 0.0
C22 C 0.84447 -0.00082 0.93044 0.0
C23 C 0.01891 0.37922 0.04334 0.0
O24 O 0.8286 0.71811 1.00852 0.0
O25 O 0.82561 0.85005 0.05971 0.0
O26 O 0.08908 0.07595 0.96269 0.0
O27 O 0.01802 0.83837 0.95091 0.0
O28 O 0.09778 0.26706 0.14714 0.0
O29 O 0.17291 0.05864 0.13977 0.0
O30 O 0.97911 0.62292 0.99971 0.0
O31 O 0.96805 0.64611 0.05963 0.0
Co32 Co 0.19501 0.36677 0.35351 0.0
Co33 Co 0.33652 0.14761 0.31606 0.0
Co34 Co 0.20318 0.28917 0.26802 0.0
H35 H 0.2086 0.28809 0.31211 0.0
O36 O 0.22335 0.18295 0.32159 0.0
H37 H 0.33465 0.17333 0.27339 0.0
O38 O 0.31784 0.27653 0.26393 0.0
Co39 Co 0.35467 0.10124 0.23311 0.0
O40 O 0.44769 0.96812 0.25853 0.0
O41 O 0.45067 0.10004 0.30972 0.0
O42 O 0.25827 0.08838 0.2009 0.0
O43 O 0.18721 0.32595 0.21269 0.0
O44 O 0.17851 0.51703 0.39715 0.0
O45 O 0.10336 0.30867 0.38977 0.0
O46 O 0.29719 0.8729 0.24971 0.0
O47 O 0.30823 0.89609 0.30963 0.0
C48 C 0.05955 0.42316 0.29694 0.0
C49 C 0.31382 0.09739 0.39619 0.0
C50 C 0.4318 0.24919 0.18044 0.0
C51 C 0.25739 0.62919 0.29334 0.0
C52 C 0.48148 -2e-05 0.28811 0.0
C53 C 0.2036 0.20317 0.19253 0.0
C54 C 0.11848 0.43024 0.409 0.0
C55 C 0.28884 0.80954 0.2834 0.0
O56 O 0.09586 0.46527 0.32532 0.0
O57 O 0.08938 0.32273 0.27509 0.0
O58 O 0.34731 0.05623 0.3676 0.0
O59 O 0.25906 0.21588 0.39567 0.0
O60 O 0.38967 0.11282 0.17994 0.0
O61 O 0.43183 0.30266 0.21145 0.0
O62 O 0.26335 0.55968 0.32693 0.0
O63 O 0.22255 0.55116 0.26893 0.0
Co64 Co 0.69501 0.86679 0.35351 0.0
Co65 Co 0.83653 0.64763 0.31606 0.0
Co66 Co 0.70318 0.78919 0.26802 0.0
H67 H 0.70861 0.78811 0.31211 0.0
O68 O 0.72335 0.68298 0.3216 0.0
H69 H 0.83465 0.67336 0.2734 0.0
O70 O 0.81784 0.77656 0.26393 0.0
Co71 Co 0.85466 0.60127 0.23311 0.0
O72 O 0.94769 0.46815 0.25852 0.0
O73 O 0.95067 0.60005 0.30972 0.0
O74 O 0.75825 0.58836 0.20092 0.0
O75 O 0.68721 0.82596 0.21269 0.0
O76 O 0.6785 0.01706 0.39715 0.0
O77 O 0.60336 0.80866 0.38978 0.0
O78 O 0.79721 0.37289 0.24972 0.0
O79 O 0.80823 0.39612 0.30963 0.0
C80 C 0.55955 0.92315 0.29694 0.0
C81 C 0.81382 0.5974 0.39619 0.0
C82 C 0.93165 0.74939 0.18042 0.0
C83 C 0.75739 0.1292 0.29334 0.0
C84 C 0.98148 0.49998 0.28811 0.0
C85 C 0.70359 0.70315 0.19254 0.0
C86 C 0.61847 0.93025 0.409 0.0
C87 C 0.78885 0.30955 0.2834 0.0
O88 O 0.59585 0.96529 0.32533 0.0
O89 O 0.58938 0.82274 0.2751 0.0
O90 O 0.84732 0.55625 0.36761 0.0
O91 O 0.75906 0.71589 0.39567 0.0
O92 O 0.88945 0.61313 0.17991 0.0
O93 O 0.93191 0.80254 0.21146 0.0
O94 O 0.76335 0.0597 0.32693 0.0
O95 O 0.72255 0.05118 0.26894 0.0
Co96 Co 0.92162 0.35127 0.48311 0.0
Co97 Co 0.07311 0.53919 0.51802 0.0
Co98 Co 0.93976 0.39763 0.56606 0.0
H99 H 0.94163 0.42335 0.5234 0.0
O100 O 0.95845 0.52655 0.51393 0.0
H101 H 0.06768 0.53811 0.56211 0.0
O102 O 0.05293 0.43298 0.5716 0.0
Co103 Co 0.08127 0.61679 0.60351 0.0
O104 O 0.18043 0.71528 0.57533 0.0
O105 O 0.18691 0.57274 0.5251 0.0
O106 O 0.01721 0.46591 0.64567 0.0
O107 O 0.92897 0.30625 0.6176 0.0
O108 O 0.88679 0.36309 0.42991 0.0
O109 O 0.84439 0.55255 0.46147 0.0
O110 O 0.01293 0.8097 0.57693 0.0
O111 O 0.05374 0.80118 0.51893 0.0
C112 C 0.79481 0.24999 0.5381 0.0
C113 C 0.07269 0.45316 0.44253 0.0
C114 C 0.15781 0.68026 0.659 0.0
C115 C 0.98745 0.05956 0.5334 0.0
C116 C 0.21673 0.67317 0.54694 0.0
C117 C 0.96245 0.34742 0.64619 0.0
C118 C 0.84462 0.49937 0.43042 0.0
C119 C 0.0189 0.87922 0.54334 0.0
O120 O 0.8286 0.21814 0.50852 0.0
O121 O 0.82562 0.35005 0.55972 0.0
O122 O 0.08908 0.57596 0.46269 0.0
O123 O 0.01803 0.33838 0.45091 0.0
O124 O 0.09777 0.76706 0.64715 0.0
O125 O 0.17292 0.55869 0.63977 0.0
O126 O 0.97908 0.12291 0.49972 0.0
O127 O 0.96805 0.14612 0.55963 0.0
Co128 Co 0.19502 0.86678 0.85351 0.0
Co129 Co 0.33653 0.64763 0.81605 0.0
Co130 Co 0.20318 0.78918 0.76802 0.0
H131 H 0.20861 0.7881 0.81211 0.0
O132 O 0.22336 0.68297 0.82159 0.0
H133 H 0.33466 0.67335 0.77339 0.0
O134 O 0.31784 0.77655 0.76392 0.0
Co135 Co 0.35467 0.60126 0.73311 0.0
O136 O 0.44769 0.46813 0.75852 0.0
O137 O 0.45068 0.60007 0.80971 0.0
O138 O 0.25827 0.5884 0.7009 0.0
O139 O 0.18721 0.82597 0.71269 0.0
O140 O 0.1785 0.01708 0.89714 0.0
O141 O 0.1034 0.80858 0.88979 0.0
O142 O 0.29719 0.37292 0.74971 0.0
O143 O 0.30824 0.39612 0.80963 0.0
C144 C 0.05956 0.92317 0.79694 0.0
C145 C 0.31384 0.5974 0.89619 0.0
C146 C 0.4318 0.74921 0.68044 0.0
C147 C 0.25739 0.12921 0.79334 0.0
C148 C 0.48149 0.49999 0.7881 0.0
C149 C 0.2036 0.70319 0.69253 0.0
C150 C 0.11851 0.93017 0.90901 0.0
C151 C 0.28885 0.30956 0.7834 0.0
O152 O 0.09587 0.96528 0.82533 0.0
O153 O 0.08938 0.82274 0.7751 0.0
O154 O 0.34733 0.55626 0.8676 0.0
O155 O 0.25908 0.71588 0.89567 0.0
O156 O 0.38967 0.61284 0.67994 0.0
O157 O 0.43183 0.80267 0.71145 0.0
O158 O 0.26336 0.05971 0.82693 0.0
O159 O 0.22255 0.05118 0.76893 0.0
Co160 Co 0.695 0.36678 0.85351 0.0
Co161 Co 0.83652 0.1476 0.81607 0.0
Co162 Co 0.70319 0.28918 0.76802 0.0
H163 H 0.7086 0.28809 0.81211 0.0
O164 O 0.72335 0.18296 0.8216 0.0
H165 H 0.83466 0.17334 0.77341 0.0
O166 O 0.81785 0.27654 0.76394 0.0
Co167 Co 0.85467 0.10127 0.73312 0.0
O168 O 0.9477 0.96816 0.75853 0.0
O169 O 0.95067 0.10001 0.80973 0.0
O170 O 0.75827 0.08835 0.70092 0.0
O171 O 0.68724 0.32596 0.71269 0.0
O172 O 0.6785 0.51705 0.89715 0.0
O173 O 0.60334 0.30868 0.88977 0.0
O174 O 0.79723 0.87288 0.74972 0.0
O175 O 0.80823 0.8961 0.80964 0.0
C176 C 0.55955 0.42317 0.79693 0.0
C177 C 0.81376 0.0973 0.8962 0.0
C178 C 0.93166 0.2494 0.68042 0.0
C179 C 0.7574 0.62919 0.79334 0.0
C180 C 0.98148 -3e-05 0.78812 0.0
C181 C 0.70361 0.20314 0.69254 0.0
C182 C 0.61846 0.43026 0.909 0.0
C183 C 0.78886 0.80953 0.78341 0.0
O184 O 0.59586 0.4653 0.82532 0.0
O185 O 0.58939 0.32274 0.77509 0.0
O186 O 0.84729 0.0562 0.86762 0.0
O187 O 0.759 0.21579 0.89567 0.0
O188 O 0.88947 0.11312 0.67991 0.0
O189 O 0.93191 0.30255 0.71147 0.0
O190 O 0.76335 0.55968 0.82694 0.0
O191 O 0.72256 0.55117 0.76894 0.0
Co192 Co 0.42162 0.85128 0.48311 0.0
Co193 Co 0.5731 0.0392 0.51802 0.0
Co194 Co 0.43976 0.89762 0.56606 0.0
H195 H 0.44163 0.92335 0.5234 0.0
O196 O 0.45844 0.02656 0.51394 0.0
H197 H 0.56768 0.03812 0.56211 0.0
O198 O 0.55294 0.93298 0.5716 0.0
Co199 Co 0.58129 0.1168 0.60351 0.0
O200 O 0.68043 0.21531 0.57532 0.0
O201 O 0.6869 0.07275 0.52509 0.0
O202 O 0.51728 0.96582 0.64567 0.0
O203 O 0.42898 0.80622 0.61762 0.0
O204 O 0.38679 0.86308 0.42992 0.0
O205 O 0.34439 0.05257 0.46147 0.0
O206 O 0.51295 0.30972 0.57694 0.0
O207 O 0.55373 0.30119 0.51893 0.0
C208 C 0.29481 0.74997 0.53811 0.0
C209 C 0.57268 0.95317 0.44253 0.0
C210 C 0.6578 0.18018 0.65902 0.0
C211 C 0.48745 0.55957 0.5334 0.0
C212 C 0.71674 0.17317 0.54694 0.0
C213 C 0.46251 0.84733 0.6462 0.0
C214 C 0.34462 -0.00063 0.43042 0.0
C215 C 0.51891 0.37923 0.54334 0.0
O216 O 0.3286 0.71815 0.50853 0.0
O217 O 0.32562 0.85003 0.55973 0.0
O218 O 0.58906 0.07597 0.46269 0.0
O219 O 0.51802 0.83838 0.45091 0.0
O220 O 0.59782 0.26712 0.64714 0.0
O221 O 0.6729 0.05857 0.63979 0.0
O222 O 0.47908 0.62292 0.49972 0.0
O223 O 0.46806 0.64612 0.55963 0.0
Co224 Co 0.42162 0.35126 0.98311 0.0
Co225 Co 0.5731 0.53918 1.01802 0.0
Co226 Co 0.43976 0.3976 0.06606 0.0
H227 H 0.44163 0.42333 1.0234 0.0
O228 O 0.45844 0.52654 1.01394 0.0
H229 H 0.56768 0.5381 0.06211 0.0
O230 O 0.55294 0.43296 0.0716 0.0
Co231 Co 0.58129 0.61678 0.10351 0.0
O232 O 0.68043 0.71529 0.07532 0.0
O233 O 0.6869 0.57273 1.02509 0.0
O234 O 0.51728 0.4658 0.14567 0.0
O235 O 0.42899 0.30619 0.11762 0.0
O236 O 0.38682 0.36311 0.92991 0.0
O237 O 0.34438 0.55253 0.96147 0.0
O238 O 0.51294 0.80969 0.07693 0.0
O239 O 0.55373 0.80117 1.01893 0.0
C240 C 0.29481 0.24995 1.03811 0.0
C241 C 0.57268 0.45316 0.94253 0.0
C242 C 0.65779 0.68019 0.15901 0.0
C243 C 0.48744 0.05954 1.0334 0.0
C244 C 0.71674 0.67315 0.04693 0.0
C245 C 0.46251 0.34731 0.1462 0.0
C246 C 0.34463 0.49938 0.93042 0.0
C247 C 0.51891 0.8792 0.04334 0.0
O248 O 0.3286 0.21813 1.00853 0.0
O249 O 0.32562 0.35 0.05973 0.0
O250 O 0.58906 0.57596 0.96269 0.0
O251 O 0.51802 0.33837 0.95091 0.0
O252 O 0.5978 0.7671 0.14714 0.0
O253 O 0.6729 0.55859 0.13979 0.0
O254 O 0.47907 0.12289 0.99972 0.0
O255 O 0.46806 0.1461 0.05963 0.0
loop_
_geom_bond_atom_site_label_1
_geom_bond_atom_site_label_2
_geom_bond_distance
_geom_bond_site_symmetry_2
_ccdc_geom_bond_type
Co0 H3 2.400 1_565 S
Co0 O4 2.009 1_565 S
Co0 O12 2.115 . S
Co0 O13 2.315 1_565 S
Co0 O24 2.053 . S
Co0 O27 2.094 1_655 S
Co0 O30 2.122 . S
Co1 O4 2.126 1_455 S
Co1 H5 2.388 1_546 S
Co1 O6 2.053 1_546 S
Co1 O9 2.047 . S
Co1 O15 2.113 . S
Co1 O26 2.063 . S
Co2 H3 2.388 1_564 S
Co2 O4 2.053 1_564 S
Co2 O6 2.126 1_655 S
Co2 O11 2.063 . S
Co2 O25 2.047 . S
Co2 O31 2.113 . S
H3 Co0 2.400 1_545 S
H3 Co2 2.388 1_546 S
H3 O4 0.760 . S
O4 Co0 2.009 1_545 S
O4 Co1 2.126 1_655 S
O4 Co2 2.053 1_546 S
O4 H3 0.760 . S
H5 Co1 2.388 1_564 S
H5 O6 0.760 . S
H5 Co7 2.400 1_565 S
O6 Co1 2.053 1_564 S
O6 Co2 2.126 1_455 S
O6 H5 0.760 . S
O6 Co7 2.009 1_565 S
Co7 H5 2.400 1_545 S
Co7 O6 2.009 1_545 S
Co7 O8 2.053 . S
Co7 O10 2.094 1_455 S
Co7 O14 2.122 . S
Co7 O28 2.115 . S
Co7 O29 2.315 1_545 S
O8 Co7 2.053 . S
O8 C20 1.259 . S
O9 Co1 2.047 . S
O9 C20 1.257 1_556 S
O10 Co7 2.094 1_655 S
O10 C21 1.253 1_545 S
O11 Co2 2.063 . S
O11 C21 1.268 . S
O12 Co0 2.115 . S
O12 C22 1.281 . S
O13 Co0 2.315 1_545 S
O13 C22 1.252 1_545 S
O14 Co7 2.122 . S
O14 C23 1.272 . S
O15 Co1 2.113 . S
O15 C23 1.245 1_556 S
C16 O24 1.259 . S
C16 O25 1.257 1_556 S
C17 O26 1.268 . S
C17 O27 1.253 1_545 S
C18 O28 1.281 . S
C18 O29 1.252 1_545 S
C19 O30 1.272 . S
C19 O31 1.245 1_556 S
C20 O8 1.259 . S
C20 O9 1.257 1_554 S
C21 O10 1.253 1_565 S
C21 O11 1.268 . S
C22 O12 1.281 . S
C22 O13 1.252 1_565 S
C23 O14 1.272 . S
C23 O15 1.245 1_554 S
O24 Co0 2.053 . S
O24 C16 1.259 . S
O25 Co2 2.047 . S
O25 C16 1.257 1_554 S
O26 Co1 2.063 . S
O26 C17 1.268 . S
O27 Co0 2.094 1_455 S
O27 C17 1.253 1_565 S
O28 Co7 2.115 . S
O28 C18 1.281 . S
O29 Co7 2.315 1_565 S
O29 C18 1.252 1_565 S
O30 Co0 2.122 . S
O30 C19 1.272 . S
O31 Co2 2.113 . S
O31 C19 1.245 1_554 S
Co32 H35 2.400 . S
Co32 O36 2.009 . S
Co32 O44 2.115 . S
Co32 O45 2.315 . S
Co32 O56 2.053 . S
Co32 O59 2.094 . S
Co32 O62 2.122 . S
Co33 O36 2.126 . S
Co33 H37 2.388 . S
Co33 O38 2.053 . S
Co33 O41 2.047 . S
Co33 O47 2.113 1_545 S
Co33 O58 2.063 . S
Co34 H35 2.388 . S
Co34 O36 2.053 . S
Co34 O38 2.126 . S
Co34 O43 2.063 . S
Co34 O57 2.047 . S
Co34 O63 2.113 . S
H35 Co32 2.400 . S
H35 Co34 2.388 . S
H35 O36 0.760 . S
O36 Co32 2.009 . S
O36 Co33 2.126 . S
O36 Co34 2.053 . S
O36 H35 0.760 . S
H37 Co33 2.388 . S
H37 O38 0.760 . S
H37 Co39 2.400 . S
O38 Co33 2.053 . S
O38 Co34 2.126 . S
O38 H37 0.760 . S
O38 Co39 2.009 . S
Co39 H37 2.400 . S
Co39 O38 2.009 . S
Co39 O40 2.053 . S
Co39 O42 2.094 . S
Co39 O46 2.122 1_545 S
Co39 O60 2.115 . S
Co39 O61 2.315 . S
O40 Co39 2.053 . S
O40 C52 1.259 . S
O41 Co33 2.047 . S
O41 C52 1.257 . S
O42 Co39 2.094 . S
O42 C53 1.253 . S
O43 Co34 2.063 . S
O43 C53 1.268 . S
O44 Co32 2.115 . S
O44 C54 1.281 . S
O45 Co32 2.315 . S
O45 C54 1.252 . S
O46 Co39 2.122 1_565 S
O46 C55 1.272 . S
O47 Co33 2.113 1_565 S
O47 C55 1.245 . S
C48 O56 1.259 . S
C48 O57 1.257 . S
C49 O58 1.268 . S
C49 O59 1.253 . S
C50 O60 1.281 . S
C50 O61 1.252 . S
C51 O62 1.272 . S
C51 O63 1.245 . S
C52 O40 1.259 . S
C52 O41 1.257 . S
C53 O42 1.253 . S
C53 O43 1.268 . S
C54 O44 1.281 . S
C54 O45 1.252 . S
C55 O46 1.272 . S
C55 O47 1.245 . S
O56 Co32 2.053 . S
O56 C48 1.259 . S
O57 Co34 2.047 . S
O57 C48 1.257 . S
O58 Co33 2.063 . S
O58 C49 1.268 . S
O59 Co32 2.094 . S
O59 C49 1.253 . S
O60 Co39 2.115 . S
O60 C50 1.281 . S
O61 Co39 2.315 . S
O61 C50 1.252 . S
O62 Co32 2.122 . S
O62 C51 1.272 . S
O63 Co34 2.113 . S
O63 C51 1.245 . S
Co64 H67 2.400 . S
Co64 O68 2.009 . S
Co64 O76 2.115 . S
Co64 O77 2.315 . S
Co64 O88 2.053 . S
Co64 O91 2.094 . S
Co64 O94 2.122 1_565 S
Co65 O68 2.126 . S
Co65 H69 2.388 . S
Co65 O70 2.053 . S
Co65 O73 2.047 . S
Co65 O79 2.113 . S
Co65 O90 2.063 . S
Co66 H67 2.388 . S
Co66 O68 2.053 . S
Co66 O70 2.126 . S
Co66 O75 2.063 . S
Co66 O89 2.047 . S
Co66 O95 2.113 1_565 S
H67 Co64 2.400 . S
H67 Co66 2.388 . S
H67 O68 0.760 . S
O68 Co64 2.009 . S
O68 Co65 2.126 . S
O68 Co66 2.053 . S
O68 H67 0.760 . S
H69 Co65 2.388 . S
H69 O70 0.760 . S
H69 Co71 2.400 . S
O70 Co65 2.053 . S
O70 Co66 2.126 . S
O70 H69 0.760 . S
O70 Co71 2.009 . S
Co71 H69 2.400 . S
Co71 O70 2.009 . S
Co71 O72 2.053 . S
Co71 O74 2.094 . S
Co71 O78 2.122 . S
Co71 O92 2.115 . S
Co71 O93 2.315 . S
O72 Co71 2.053 . S
O72 C84 1.259 . S
O73 Co65 2.047 . S
O73 C84 1.257 . S
O74 Co71 2.094 . S
O74 C85 1.253 . S
O75 Co66 2.063 . S
O75 C85 1.268 . S
O76 Co64 2.115 . S
O76 C86 1.281 . S
O77 Co64 2.315 . S
O77 C86 1.252 . S
O78 Co71 2.122 . S
O78 C87 1.272 . S
O79 Co65 2.113 . S
O79 C87 1.245 . S
C80 O88 1.259 . S
C80 O89 1.257 . S
C81 O90 1.268 . S
C81 O91 1.253 . S
C82 O92 1.281 . S
C82 O93 1.252 . S
C83 O94 1.272 . S
C83 O95 1.245 . S
C84 O72 1.259 . S
C84 O73 1.257 . S
C85 O74 1.253 . S
C85 O75 1.268 . S
C86 O76 1.281 . S
C86 O77 1.252 . S
C87 O78 1.272 . S
C87 O79 1.245 . S
O88 Co64 2.053 . S
O88 C80 1.259 . S
O89 Co66 2.047 . S
O89 C80 1.257 . S
O90 Co65 2.063 . S
O90 C81 1.268 . S
O91 Co64 2.094 . S
O91 C81 1.253 . S
O92 Co71 2.115 . S
O92 C82 1.281 . S
O93 Co71 2.315 . S
O93 C82 1.252 . S
O94 Co64 2.122 1_545 S
O94 C83 1.272 . S
O95 Co66 2.113 1_545 S
O95 C83 1.245 . S
Co96 H99 2.400 . S
Co96 O100 2.009 . S
Co96 O108 2.115 . S
Co96 O109 2.315 . S
Co96 O120 2.053 . S
Co96 O123 2.094 1_655 S
Co96 O126 2.122 . S
Co97 O100 2.126 1_455 S
Co97 H101 2.388 . S
Co97 O102 2.053 . S
Co97 O105 2.047 . S
Co97 O111 2.113 . S
Co97 O122 2.063 . S
Co98 H99 2.388 . S
Co98 O100 2.053 . S
Co98 O102 2.126 1_655 S
Co98 O107 2.063 . S
Co98 O121 2.047 . S
Co98 O127 2.113 . S
H99 Co96 2.400 . S
H99 Co98 2.388 . S
H99 O100 0.760 . S
O100 Co96 2.009 . S
O100 Co97 2.126 1_655 S
O100 Co98 2.053 . S
O100 H99 0.760 . S
H101 Co97 2.388 . S
H101 O102 0.760 . S
H101 Co103 2.400 . S
O102 Co97 2.053 . S
O102 Co98 2.126 1_455 S
O102 H101 0.760 . S
O102 Co103 2.009 . S
Co103 H101 2.400 . S
Co103 O102 2.009 . S
Co103 O104 2.053 . S
Co103 O106 2.094 1_455 S
Co103 O110 2.122 . S
Co103 O124 2.115 . S
Co103 O125 2.315 . S
O104 Co103 2.053 . S
O104 C116 1.259 . S
O105 Co97 2.047 . S
O105 C116 1.257 . S
O106 Co103 2.094 1_655 S
O106 C117 1.253 . S
O107 Co98 2.063 . S
O107 C117 1.268 . S
O108 Co96 2.115 . S
O108 C118 1.281 . S
O109 Co96 2.315 . S
O109 C118 1.252 . S
O110 Co103 2.122 . S
O110 C119 1.272 . S
O111 Co97 2.113 . S
O111 C119 1.245 . S
C112 O120 1.259 . S
C112 O121 1.257 . S
C113 O122 1.268 . S
C113 O123 1.253 . S
C114 O124 1.281 . S
C114 O125 1.252 . S
C115 O126 1.272 . S
C115 O127 1.245 . S
C116 O104 1.259 . S
C116 O105 1.257 . S
C117 O106 1.253 . S
C117 O107 1.268 . S
C118 O108 1.281 . S
C118 O109 1.252 . S
C119 O110 1.272 . S
C119 O111 1.245 . S
O120 Co96 2.053 . S
O120 C112 1.259 . S
O121 Co98 2.047 . S
O121 C112 1.257 . S
O122 Co97 2.063 . S
O122 C113 1.268 . S
O123 Co96 2.094 1_455 S
O123 C113 1.253 . S
O124 Co103 2.115 . S
O124 C114 1.281 . S
O125 Co103 2.315 . S
O125 C114 1.252 . S
O126 Co96 2.122 . S
O126 C115 1.272 . S
O127 Co98 2.113 . S
O127 C115 1.245 . S
Co128 H131 2.400 . S
Co128 O132 2.009 . S
Co128 O140 2.115 . S
Co128 O141 2.315 . S
Co128 O152 2.053 . S
Co128 O155 2.094 . S
Co128 O158 2.122 1_565 S
Co129 O132 2.126 . S
Co129 H133 2.388 . S
Co129 O134 2.053 . S
Co129 O137 2.047 . S
Co129 O143 2.113 . S
Co129 O154 2.063 . S
Co130 H131 2.388 . S
Co130 O132 2.053 . S
Co130 O134 2.126 . S
Co130 O139 2.063 . S
Co130 O153 2.047 . S
Co130 O159 2.113 1_565 S
H131 Co128 2.400 . S
H131 Co130 2.388 . S
H131 O132 0.760 . S
O132 Co128 2.009 . S
O132 Co129 2.126 . S
O132 Co130 2.053 . S
O132 H131 0.760 . S
H133 Co129 2.388 . S
H133 O134 0.760 . S
H133 Co135 2.400 . S
O134 Co129 2.053 . S
O134 Co130 2.126 . S
O134 H133 0.760 . S
O134 Co135 2.009 . S
Co135 H133 2.400 . S
Co135 O134 2.009 . S
Co135 O136 2.053 . S
Co135 O138 2.094 . S
Co135 O142 2.122 . S
Co135 O156 2.115 . S
Co135 O157 2.315 . S
O136 Co135 2.053 . S
O136 C148 1.259 . S
O137 Co129 2.047 . S
O137 C148 1.257 . S
O138 Co135 2.094 . S
O138 C149 1.253 . S
O139 Co130 2.063 . S
O139 C149 1.268 . S
O140 Co128 2.115 . S
O140 C150 1.281 . S
O141 Co128 2.315 . S
O141 C150 1.252 . S
O142 Co135 2.122 . S
O142 C151 1.272 . S
O143 Co129 2.113 . S
O143 C151 1.245 . S
C144 O152 1.259 . S
C144 O153 1.257 . S
C145 O154 1.268 . S
C145 O155 1.253 . S
C146 O156 1.281 . S
C146 O157 1.252 . S
C147 O158 1.272 . S
C147 O159 1.245 . S
C148 O136 1.259 . S
C148 O137 1.257 . S
C149 O138 1.253 . S
C149 O139 1.268 . S
C150 O140 1.281 . S
C150 O141 1.252 . S
C151 O142 1.272 . S
C151 O143 1.245 . S
O152 Co128 2.053 . S
O152 C144 1.259 . S
O153 Co130 2.047 . S
O153 C144 1.257 . S
O154 Co129 2.063 . S
O154 C145 1.268 . S
O155 Co128 2.094 . S
O155 C145 1.253 . S
O156 Co135 2.115 . S
O156 C146 1.281 . S
O157 Co135 2.315 . S
O157 C146 1.252 . S
O158 Co128 2.122 1_545 S
O158 C147 1.272 . S
O159 Co130 2.113 1_545 S
O159 C147 1.245 . S
Co160 H163 2.400 . S
Co160 O164 2.009 . S
Co160 O172 2.115 . S
Co160 O173 2.315 . S
Co160 O184 2.053 . S
Co160 O187 2.094 . S
Co160 O190 2.122 . S
Co161 O164 2.126 . S
Co161 H165 2.388 . S
Co161 O166 2.053 . S
Co161 O169 2.047 . S
Co161 O175 2.113 1_545 S
Co161 O186 2.063 . S
Co162 H163 2.388 . S
Co162 O164 2.053 . S
Co162 O166 2.126 . S
Co162 O171 2.063 . S
Co162 O185 2.047 . S
Co162 O191 2.113 . S
H163 Co160 2.400 . S
H163 Co162 2.388 . S
H163 O164 0.760 . S
O164 Co160 2.009 . S
O164 Co161 2.126 . S
O164 Co162 2.053 . S
O164 H163 0.760 . S
H165 Co161 2.388 . S
H165 O166 0.760 . S
H165 Co167 2.400 . S
O166 Co161 2.053 . S
O166 Co162 2.126 . S
O166 H165 0.760 . S
O166 Co167 2.009 . S
Co167 H165 2.400 . S
Co167 O166 2.009 . S
Co167 O168 2.053 . S
Co167 O170 2.094 . S
Co167 O174 2.122 1_545 S
Co167 O188 2.115 . S
Co167 O189 2.315 . S
O168 Co167 2.053 . S
O168 C180 1.259 . S
O169 Co161 2.047 . S
O169 C180 1.257 . S
O170 Co167 2.094 . S
O170 C181 1.253 . S
O171 Co162 2.063 . S
O171 C181 1.268 . S
O172 Co160 2.115 . S
O172 C182 1.281 . S
O173 Co160 2.315 . S
O173 C182 1.252 . S
O174 Co167 2.122 1_565 S
O174 C183 1.272 . S
O175 Co161 2.113 1_565 S
O175 C183 1.245 . S
C176 O184 1.259 . S
C176 O185 1.257 . S
C177 O186 1.268 . S
C177 O187 1.253 . S
C178 O188 1.281 . S
C178 O189 1.252 . S
C179 O190 1.272 . S
C179 O191 1.245 . S
C180 O168 1.259 . S
C180 O169 1.257 . S
C181 O170 1.253 . S
C181 O171 1.268 . S
C182 O172 1.281 . S
C182 O173 1.252 . S
C183 O174 1.272 . S
C183 O175 1.245 . S
O184 Co160 2.053 . S
O184 C176 1.259 . S
O185 Co162 2.047 . S
O185 C176 1.257 . S
O186 Co161 2.063 . S
O186 C177 1.268 . S
O187 Co160 2.094 . S
O187 C177 1.253 . S
O188 Co167 2.115 . S
O188 C178 1.281 . S
O189 Co167 2.315 . S
O189 C178 1.252 . S
O190 Co160 2.122 . S
O190 C179 1.272 . S
O191 Co162 2.113 . S
O191 C179 1.245 . S
Co192 H195 2.400 1_565 S
Co192 O196 2.009 1_565 S
Co192 O204 2.115 . S
Co192 O205 2.315 1_565 S
Co192 O216 2.053 . S
Co192 O219 2.094 . S
Co192 O222 2.122 . S
Co193 O196 2.126 . S
Co193 H197 2.388 1_545 S
Co193 O198 2.053 1_545 S
Co193 O201 2.047 . S
Co193 O207 2.113 . S
Co193 O218 2.063 . S
Co194 H195 2.388 1_565 S
Co194 O196 2.053 1_565 S
Co194 O198 2.126 . S
Co194 O203 2.063 . S
Co194 O217 2.047 . S
Co194 O223 2.113 . S
H195 Co192 2.400 1_545 S
H195 Co194 2.388 1_545 S
H195 O196 0.760 . S
O196 Co192 2.009 1_545 S
O196 Co193 2.126 . S
O196 Co194 2.053 1_545 S
O196 H195 0.760 . S
H197 Co193 2.388 1_565 S
H197 O198 0.760 . S
H197 Co199 2.400 1_565 S
O198 Co193 2.053 1_565 S
O198 Co194 2.126 . S
O198 H197 0.760 . S
O198 Co199 2.009 1_565 S
Co199 H197 2.400 1_545 S
Co199 O198 2.009 1_545 S
Co199 O200 2.053 . S
Co199 O202 2.094 . S
Co199 O206 2.122 . S
Co199 O220 2.115 . S
Co199 O221 2.315 1_545 S
O200 Co199 2.053 . S
O200 C212 1.259 . S
O201 Co193 2.047 . S
O201 C212 1.257 . S
O202 Co199 2.094 . S
O202 C213 1.253 1_545 S
O203 Co194 2.063 . S
O203 C213 1.268 . S
O204 Co192 2.115 . S
O204 C214 1.281 . S
O205 Co192 2.315 1_545 S
O205 C214 1.252 1_545 S
O206 Co199 2.122 . S
O206 C215 1.272 . S
O207 Co193 2.113 . S
O207 C215 1.245 . S
C208 O216 1.259 . S
C208 O217 1.257 . S
C209 O218 1.268 . S
C209 O219 1.253 1_545 S
C210 O220 1.281 . S
C210 O221 1.252 1_545 S
C211 O222 1.272 . S
C211 O223 1.245 . S
C212 O200 1.259 . S
C212 O201 1.257 . S
C213 O202 1.253 1_565 S
C213 O203 1.268 . S
C214 O204 1.281 . S
C214 O205 1.252 1_565 S
C215 O206 1.272 . S
C215 O207 1.245 . S
O216 Co192 2.053 . S
O216 C208 1.259 . S
O217 Co194 2.047 . S
O217 C208 1.257 . S
O218 Co193 2.063 . S
O218 C209 1.268 . S
O219 Co192 2.094 . S
O219 C209 1.253 1_565 S
O220 Co199 2.115 . S
O220 C210 1.281 . S
O221 Co199 2.315 1_565 S
O221 C210 1.252 1_565 S
O222 Co192 2.122 . S
O222 C211 1.272 . S
O223 Co194 2.113 . S
O223 C211 1.245 . S
Co224 H227 2.400 . S
Co224 O228 2.009 . S
Co224 O236 2.115 . S
Co224 O237 2.315 . S
Co224 O248 2.053 . S
Co224 O251 2.094 . S
Co224 O254 2.122 . S
Co225 O228 2.126 . S
Co225 H229 2.388 1_556 S
Co225 O230 2.053 1_556 S
Co225 O233 2.047 . S
Co225 O239 2.113 . S
Co225 O250 2.063 . S
Co226 H227 2.388 1_554 S
Co226 O228 2.053 1_554 S
Co226 O230 2.126 . S
Co226 O235 2.063 . S
Co226 O249 2.047 . S
Co226 O255 2.113 . S
H227 Co224 2.400 . S
H227 Co226 2.388 1_556 S
H227 O228 0.760 . S
O228 Co224 2.009 . S
O228 Co225 2.126 . S
O228 Co226 2.053 1_556 S
O228 H227 0.760 . S
H229 Co225 2.388 1_554 S
H229 O230 0.760 . S
H229 Co231 2.400 . S
O230 Co225 2.053 1_554 S
O230 Co226 2.126 . S
O230 H229 0.760 . S
O230 Co231 2.009 . S
Co231 H229 2.400 . S
Co231 O230 2.009 . S
Co231 O232 2.053 . S
Co231 O234 2.094 . S
Co231 O238 2.122 . S
Co231 O252 2.115 . S
Co231 O253 2.315 . S
O232 Co231 2.053 . S
O232 C244 1.259 . S
O233 Co225 2.047 . S
O233 C244 1.257 1_556 S
O234 Co231 2.094 . S
O234 C245 1.253 . S
O235 Co226 2.063 . S
O235 C245 1.268 . S
O236 Co224 2.115 . S
O236 C246 1.281 . S
O237 Co224 2.315 . S
O237 C246 1.252 . S
O238 Co231 2.122 . S
O238 C247 1.272 . S
O239 Co225 2.113 . S
O239 C247 1.245 1_556 S
C240 O248 1.259 . S
C240 O249 1.257 1_556 S
C241 O250 1.268 . S
C241 O251 1.253 . S
C242 O252 1.281 . S
C242 O253 1.252 . S
C243 O254 1.272 . S
C243 O255 1.245 1_556 S
C244 O232 1.259 . S
C244 O233 1.257 1_554 S
C245 O234 1.253 . S
C245 O235 1.268 . S
C246 O236 1.281 . S
C246 O237 1.252 . S
C247 O238 1.272 . S
C247 O239 1.245 1_554 S
O248 Co224 2.053 . S
O248 C240 1.259 . S
O249 Co226 2.047 . S
O249 C240 1.257 1_554 S
O250 Co225 2.063 . S
O250 C241 1.268 . S
O251 Co224 2.094 . S
O251 C241 1.253 . S
O252 Co231 2.115 . S
O252 C242 1.281 . S
O253 Co231 2.315 . S
O253 C242 1.252 . S
O254 Co224 2.122 . S
O254 C243 1.272 . S
O255 Co226 2.113 . S
O255 C243 1.245 1_554 S
C18 C53 2.420 . S
C21 C82 2.632 . S
C113 C54 2.420 . S
C81 C118 2.632 . S
C114 C149 2.420 . S
C178 C117 2.632 . S
C150 C17 2.420 1_565 S
C177 C22 2.631 1_545 S
C181 C210 2.419 . S
C213 C146 2.632 . S
C241 C182 2.420 . S
C246 C145 2.632 . S
C242 C85 2.420 . S
C50 C245 2.631 . S
C209 C86 2.421 1_545 S
C214 C49 2.631 1_565 S
C19 C23 1.341 1_656 S
C51 C55 1.341 . S
C83 C87 1.341 . S
C119 C115 1.341 1_465 S
C147 C151 1.341 . S
C179 C183 1.341 . S
C211 C215 1.341 . S
C247 C243 1.341 1_564 S
C240 C20 1.691 1_556 S
C16 C244 1.692 1_556 S
C48 C84 1.692 1_455 S
C208 C116 1.692 . S
C112 C212 1.692 . S
C180 C144 1.692 1_645 S
C176 C148 1.692 . S
C80 C52 1.692 1_565 S
