# Generated by pormake.
# Topology smu, (6)-cn, num edge types: 1
# Building blocks:
#     Node 0, Type 0, BuildingBlock: PAMTOO_clean_sbu_0, # of connection points: 6
#     Node 1, Type 0, BuildingBlock: PAMTOO_clean_sbu_0, # of connection points: 6
#     Node 2, Type 0, BuildingBlock: PAMTOO_clean_sbu_0, # of connection points: 6
#     Node 3, Type 0, BuildingBlock: PAMTOO_clean_sbu_0, # of connection points: 6
#     Node 4, Type 0, BuildingBlock: PAMTOO_clean_sbu_0, # of connection points: 6
#     Node 5, Type 0, BuildingBlock: PAMTOO_clean_sbu_0, # of connection points: 6
#     Edge 6, Type (0, 0), BuildingBlock: XUDNAN_clean_linker_2, # of connection points: 2
#     Edge 7, Type (0, 0), BuildingBlock: XUDNAN_clean_linker_2, # of connection points: 2
#     Edge 8, Type (0, 0), BuildingBlock: XUDNAN_clean_linker_2, # of connection points: 2
#     Edge 9, Type (0, 0), BuildingBlock: XUDNAN_clean_linker_2, # of connection points: 2
#     Edge 10, Type (0, 0), BuildingBlock: XUDNAN_clean_linker_2, # of connection points: 2
#     Edge 11, Type (0, 0), BuildingBlock: XUDNAN_clean_linker_2, # of connection points: 2
#     Edge 12, Type (0, 0), BuildingBlock: XUDNAN_clean_linker_2, # of connection points: 2
#     Edge 13, Type (0, 0), BuildingBlock: XUDNAN_clean_linker_2, # of connection points: 2
#     Edge 14, Type (0, 0), BuildingBlock: XUDNAN_clean_linker_2, # of connection points: 2
#     Edge 15, Type (0, 0), BuildingBlock: XUDNAN_clean_linker_2, # of connection points: 2
#     Edge 16, Type (0, 0), BuildingBlock: XUDNAN_clean_linker_2, # of connection points: 2
#     Edge 17, Type (0, 0), BuildingBlock: XUDNAN_clean_linker_2, # of connection points: 2
#     Edge 18, Type (0, 0), BuildingBlock: XUDNAN_clean_linker_2, # of connection points: 2
#     Edge 19, Type (0, 0), BuildingBlock: XUDNAN_clean_linker_2, # of connection points: 2
#     Edge 20, Type (0, 0), BuildingBlock: XUDNAN_clean_linker_2, # of connection points: 2
#     Edge 21, Type (0, 0), BuildingBlock: XUDNAN_clean_linker_2, # of connection points: 2
#     Edge 22, Type (0, 0), BuildingBlock: XUDNAN_clean_linker_2, # of connection points: 2
#     Edge 23, Type (0, 0), BuildingBlock: XUDNAN_clean_linker_2, # of connection points: 2
# Relax obj value: 0.217
# Max RMSD: 0.312
# Mean RMSD: 0.312
data_MOF--net-smu--node1-PAMTOO_clean_sbu_0--edge1-XUDNAN_clean_linker_2
_symmetry_space_group_name_H-M    P1
_symmetry_Int_Tables_number       1
_symmetry_cell_setting            triclinic
loop_
_symmetry_equiv_pos_as_xyz
'x, y, z'
_cell_length_a     39.344239
_cell_length_b     39.479469
_cell_length_c     27.999254
_cell_angle_alpha  90.009357
_cell_angle_beta   89.866877
_cell_angle_gamma 119.98086
loop_
_atom_site_label
_atom_site_type_symbol
_atom_site_fract_x
_atom_site_fract_y
_atom_site_fract_z
_atom_type_partial_charge
Dy0 Dy 0.37783 0.08042 0.25637 0.0
Dy1 Dy 0.31994 0.11776 0.25666 0.0
C2 C 0.33402 0.07992 0.35225 0.0
O3 O 0.31698 0.02799 0.24958 0.0
O4 O 0.27955 0.05543 0.27412 0.0
O5 O 0.41684 0.06625 0.29462 0.0
O6 O 0.41376 0.06216 0.21773 0.0
O7 O 0.30773 0.08515 0.18786 0.0
O8 O 0.36541 0.08488 0.17868 0.0
O9 O 0.37854 0.16257 0.22883 0.0
O10 O 0.41131 0.14365 0.2774 0.0
O11 O 0.2741 0.1256 0.22568 0.0
O12 O 0.30874 0.16242 0.28452 0.0
C13 C 0.28318 0.02505 0.2625 0.0
O14 O 0.34668 0.06082 0.32621 0.0
O15 O 0.32995 0.10873 0.33436 0.0
C16 C 0.47624 0.08309 0.25274 0.0
C17 C 0.55932 0.1223 0.24513 0.0
C18 C 0.54116 0.12683 0.28605 0.0
C19 C 0.50009 0.10758 0.28977 0.0
C20 C 0.49447 0.0782 0.21224 0.0
C21 C 0.53541 0.09762 0.20839 0.0
C22 C 0.43264 0.06196 0.25582 0.0
C23 C 0.3312 0.07781 0.16205 0.0
C24 C 0.40973 0.17143 0.25391 0.0
C25 C 0.24643 0.15817 0.26974 0.0
C26 C 0.18951 0.1808 0.28657 0.0
C27 C 0.18512 0.1556 0.24855 0.0
C28 C 0.21336 0.14462 0.24009 0.0
C29 C 0.2498 0.18165 0.30914 0.0
C30 C 0.22173 0.19283 0.31745 0.0
C31 C 0.28025 0.15402 0.2545 0.0
H32 H 0.5587 0.14587 0.31481 0.0
H33 H 0.48711 0.11204 0.32158 0.0
H34 H 0.47697 0.05927 0.18337 0.0
H35 H 0.54838 0.09303 0.17666 0.0
H36 H 0.16038 0.14509 0.22451 0.0
H37 H 0.21011 0.12691 0.209 0.0
H38 H 0.27521 0.19315 0.33224 0.0
H39 H 0.22654 0.21262 0.34673 0.0
Dy40 Dy 0.71676 0.64049 0.26298 0.0
Dy41 Dy 0.81077 0.69979 0.26373 0.0
C42 C 0.75664 0.69146 0.35491 0.0
O43 O 0.72223 0.69965 0.2475 0.0
O44 O 0.78857 0.74107 0.26326 0.0
O45 O 0.66303 0.60135 0.29999 0.0
O46 O 0.66396 0.6028 0.22285 0.0
O47 O 0.79085 0.70862 0.19189 0.0
O48 O 0.74002 0.646 0.18844 0.0
O49 O 0.79974 0.64025 0.24625 0.0
O50 O 0.74632 0.6088 0.2929 0.0
O51 O 0.86643 0.72316 0.2277 0.0
O52 O 0.86465 0.73323 0.30375 0.0
C53 C 0.75327 0.73503 0.25353 0.0
O54 O 0.72592 0.67719 0.32699 0.0
O55 O 0.78951 0.69298 0.34089 0.0
C56 C 0.62397 0.54141 0.26031 0.0
C57 C 0.58355 0.45852 0.26451 0.0
C58 C 0.62359 0.48063 0.27671 0.0
C59 C 0.64355 0.52157 0.27465 0.0
C60 C 0.58444 0.51961 0.24688 0.0
C61 C 0.56441 0.47862 0.24891 0.0
C62 C 0.64405 0.58464 0.26095 0.0
C63 C 0.76288 0.67979 0.16751 0.0
C64 C 0.77656 0.60987 0.27184 0.0
C65 C 0.92502 0.77503 0.26232 0.0
C66 C 1.00559 0.8303 0.25405 0.0
C67 C 0.98155 0.81784 0.21333 0.0
C68 C 0.94161 0.7904 0.21739 0.0
C69 C 0.94849 0.78955 0.30324 0.0
C70 C 0.98836 0.817 0.2992 0.0
C71 C 0.88664 0.73887 0.26632 0.0
H72 H 0.63962 0.46633 0.28799 0.0
H73 H 0.67417 0.53774 0.28488 0.0
H74 H 0.5688 0.53433 0.23567 0.0
H75 H 0.5336 0.46278 0.23961 0.0
H76 H 0.99393 0.82818 0.17815 0.0
H77 H 0.92435 0.77968 0.18511 0.0
H78 H 0.93662 0.7778 0.33822 0.0
H79 H 1.00612 0.82585 0.33122 0.0
Dy80 Dy 0.93789 0.30148 0.2625 0.0
Dy81 Dy 0.90312 0.20659 0.26187 0.0
C82 C 0.93668 0.25601 0.35917 0.0
O83 O 0.99094 0.29481 0.27526 0.0
O84 O 0.96697 0.23042 0.25125 0.0
O85 O 0.95004 0.35307 0.30249 0.0
O86 O 0.95393 0.35592 0.22565 0.0
O87 O 0.91837 0.22593 0.18494 0.0
O88 O 0.96012 0.29243 0.19329 0.0
O89 O 0.85621 0.21857 0.28664 0.0
O90 O 0.87525 0.2702 0.2382 0.0
O91 O 0.85972 0.15117 0.23168 0.0
O92 O 0.89536 0.15288 0.29235 0.0
C93 C 0.99577 0.26478 0.26465 0.0
O94 O 0.9344 0.28536 0.34026 0.0
O95 O 0.92862 0.22457 0.33458 0.0
C96 C 0.93006 0.39349 0.26424 0.0
C97 C 0.887 0.4334 0.27046 0.0
C98 C 0.86913 0.39318 0.28113 0.0
C99 C 0.8904 0.37346 0.27802 0.0
C100 C 0.94765 0.43318 0.25202 0.0
C101 C 0.92638 0.45295 0.25501 0.0
C102 C 0.95367 0.37378 0.26464 0.0
C103 C 0.94526 0.26024 0.16774 0.0
C104 C 0.84729 0.24045 0.26097 0.0
C105 C 0.85893 0.09137 0.25217 0.0
C106 C 0.83125 0.01106 0.23667 0.0
C107 C 0.83958 0.03671 0.19774 0.0
C108 C 0.85313 0.07659 0.20544 0.0
C109 C 0.85201 0.06614 0.29073 0.0
C110 C 0.83815 0.02653 0.28319 0.0
C111 C 0.86698 0.13117 0.26313 0.0
H112 H 0.83869 0.3769 0.29219 0.0
H113 H 0.87604 0.34269 0.2872 0.0
H114 H 0.97818 0.44916 0.24117 0.0
H115 H 0.94126 0.48388 0.24676 0.0
H116 H 0.83515 0.02594 0.16142 0.0
H117 H 0.85809 0.09553 0.17508 0.0
H118 H 0.85566 0.07678 0.32712 0.0
H119 H 0.83135 0.00783 0.31421 0.0
Dy120 Dy 0.08941 0.3737 0.75951 0.0
Dy121 Dy 0.11394 0.30604 0.76426 0.0
C122 C 0.07801 0.31967 0.66745 0.0
O123 O 0.03229 0.31608 0.75206 0.0
O124 O 0.05124 0.27394 0.78375 0.0
O125 O 0.07744 0.41336 0.71936 0.0
O126 O 0.07971 0.41646 0.79637 0.0
O127 O 0.10955 0.32134 0.84045 0.0
O128 O 0.06929 0.34739 0.832 0.0
O129 O 0.16062 0.35782 0.72665 0.0
O130 O 0.15505 0.40274 0.77021 0.0
O131 O 0.15586 0.29208 0.79513 0.0
O132 O 0.11186 0.25224 0.74319 0.0
C133 C 0.02411 0.28122 0.76814 0.0
O134 O 0.08656 0.35468 0.68278 0.0
O135 O 0.08344 0.29543 0.69426 0.0
C136 C 0.10139 0.47635 0.75475 0.0
C137 C 0.14372 0.55935 0.75052 0.0
C138 C 0.14548 0.53677 0.71263 0.0
C139 C 0.12467 0.49584 0.71473 0.0
C140 C 0.09958 0.49878 0.79261 0.0
C141 C 0.12053 0.53974 0.79061 0.0
C142 C 0.07779 0.43298 0.75699 0.0
C143 C 0.08424 0.33055 0.85823 0.0
C144 C 0.1767 0.39282 0.74478 0.0
C145 C 0.15691 0.23292 0.77497 0.0
C146 C 0.19248 0.18657 0.78291 0.0
C147 C 0.17919 0.19721 0.82388 0.0
C148 C 0.16197 0.22059 0.81994 0.0
C149 C 0.16879 0.22142 0.7339 0.0
C150 C 0.18681 0.1988 0.73782 0.0
C151 C 0.1413 0.2595 0.771 0.0
H152 H 0.16248 0.55068 0.68082 0.0
H153 H 0.12663 0.47955 0.68476 0.0
H154 H 0.0818 0.48458 0.82385 0.0
H155 H 0.11882 0.55601 0.82076 0.0
H156 H 0.18215 0.1876 0.85905 0.0
H157 H 0.15266 0.22912 0.85198 0.0
H158 H 0.16535 0.23105 0.69892 0.0
H159 H 0.19722 0.19188 0.70549 0.0
Dy160 Dy 0.31283 0.93669 0.76107 0.0
Dy161 Dy 0.21714 0.90443 0.75497 0.0
C162 C 0.27516 0.94961 0.6656 0.0
O163 O 0.30763 0.99031 0.77469 0.0
O164 O 0.24439 0.96832 0.74725 0.0
O165 O 0.36553 0.94811 0.72341 0.0
O166 O 0.3666 0.95443 0.80019 0.0
O167 O 0.23445 0.92641 0.82996 0.0
O168 O 0.2946 0.93035 0.83784 0.0
O169 O 0.22291 0.85287 0.77491 0.0
O170 O 0.28216 0.87351 0.7398 0.0
O171 O 0.16572 0.90239 0.78436 0.0
O172 O 0.16012 0.86676 0.72143 0.0
C173 C 0.27847 0.99615 0.76276 0.0
O174 O 0.30567 0.96244 0.69392 0.0
O175 O 0.23986 0.92159 0.67884 0.0
C176 C 0.40844 0.93342 0.76704 0.0
C177 C 0.45352 0.89612 0.77824 0.0
C178 C 0.42066 0.88008 0.74787 0.0
C179 C 0.39818 0.89847 0.74248 0.0
C180 C 0.44148 0.94962 0.79667 0.0
C181 C 0.46374 0.93128 0.8022 0.0
C182 C 0.3857 0.95386 0.76241 0.0
C183 C 0.26515 0.93315 0.85572 0.0
C184 C 0.2489 0.84525 0.75658 0.0
C185 C 0.09975 0.86199 0.7546 0.0
C186 C 0.01749 0.82814 0.76157 0.0
C187 C 0.04172 0.84924 0.80001 0.0
C188 C 0.0824 0.86608 0.79652 0.0
C189 C 0.07571 0.84189 0.71561 0.0
C190 C 0.03492 0.8253 0.71896 0.0
C191 C 0.14249 0.87708 0.75303 0.0
H192 H 0.41182 0.85291 0.72919 0.0
H193 H 0.3727 0.88523 0.71944 0.0
H194 H 0.45007 0.9766 0.81575 0.0
H195 H 0.48918 0.94481 0.82528 0.0
H196 H 0.02918 0.85246 0.83301 0.0
H197 H 0.10019 0.8815 0.82717 0.0
H198 H 0.08836 0.83844 0.68285 0.0
H199 H 0.01693 0.80913 0.68878 0.0
Dy200 Dy 0.6481 0.71784 0.75963 0.0
Dy201 Dy 0.71414 0.80977 0.76922 0.0
C202 C 0.69733 0.76356 0.66797 0.0
O203 O 0.70597 0.7189 0.7692 0.0
O204 O 0.74944 0.78317 0.74773 0.0
O205 O 0.60985 0.66631 0.71848 0.0
O206 O 0.60405 0.66533 0.79524 0.0
O207 O 0.72094 0.78423 0.83818 0.0
O208 O 0.65998 0.72913 0.83787 0.0
O209 O 0.65759 0.79632 0.80306 0.0
O210 O 0.62046 0.7549 0.74583 0.0
O211 O 0.76803 0.86144 0.79092 0.0
O212 O 0.72063 0.86663 0.75824 0.0
C213 C 0.74155 0.7474 0.75733 0.0
O214 O 0.67972 0.73004 0.6906 0.0
O215 O 0.70495 0.79662 0.68933 0.0
C216 C 0.54536 0.62624 0.7507 0.0
C217 C 0.46282 0.57826 0.74071 0.0
C218 C 0.4871 0.59514 0.70051 0.0
C219 C 0.52776 0.61863 0.70539 0.0
C220 C 0.52095 0.61092 0.79117 0.0
C221 C 0.48012 0.58735 0.78625 0.0
C222 C 0.58889 0.64694 0.75541 0.0
C223 C 0.69371 0.7521 0.85893 0.0
C224 C 0.62585 0.78146 0.77737 0.0
C225 C 0.78439 0.92404 0.75704 0.0
C226 C 0.83425 1.00484 0.73897 0.0
C227 C 0.84809 0.98324 0.76409 0.0
C228 C 0.82336 0.94337 0.77326 0.0
C229 C 0.7713 0.94504 0.72946 0.0
C230 C 0.79592 0.98491 0.72052 0.0
C231 C 0.75588 0.88506 0.77647 0.0
H232 H 0.47474 0.58935 0.66491 0.0
H233 H 0.54547 0.62983 0.67339 0.0
H234 H 0.53353 0.61603 0.82662 0.0
H235 H 0.46238 0.5747 0.81794 0.0
H236 H 0.87769 0.99738 0.77804 0.0
H237 H 0.83422 0.92818 0.79509 0.0
H238 H 0.74127 0.93126 0.71698 0.0
H239 H 0.784 1.00051 0.70149 0.0
H240 H 0.33185 0.9853 0.90483 0.0
H241 H 0.20501 0.91809 0.91687 0.0
H242 H 0.20872 0.94857 0.9952 0.0
H243 H 0.35588 0.98398 0.02898 0.0
H244 H 0.39535 0.03405 0.02956 0.0
H245 H 0.38303 1.00625 0.97499 0.0
H246 H 0.37386 0.0594 0.93249 0.0
H247 H 0.38596 0.08729 0.98702 0.0
H248 H 0.34027 0.07329 0.95721 0.0
H249 H 0.22563 0.98721 0.07097 0.0
H250 H 0.25441 0.02956 0.14098 0.0
H251 H 0.37113 0.07277 0.08207 0.0
C252 C 0.30494 0.97635 0.92451 0.0
C253 C 0.26809 0.94852 0.90509 0.0
C254 C 0.23352 0.93883 0.93118 0.0
C255 C 0.23535 0.95615 0.97566 0.0
C256 C 0.27198 0.98369 0.99351 0.0
C257 C 0.30621 0.99387 0.96883 0.0
C258 C 0.34161 0.02548 0.99549 0.0
C259 C 0.37068 0.01159 1.00801 0.0
C260 C 0.36161 0.06362 0.96631 0.0
C261 C 0.32209 0.03023 0.03996 0.0
C262 C 0.28181 1.00632 0.03742 0.0
C263 C 0.25712 1.00606 0.07326 0.0
C264 C 0.27386 0.03055 0.11288 0.0
C265 C 0.31514 0.05491 0.11713 0.0
C266 C 0.33954 0.05459 0.07998 0.0
H267 H 0.7227 0.71559 0.63227 0.0
H268 H 0.70301 0.81038 0.59167 0.0
H269 H 0.72088 0.80502 0.50799 0.0
H270 H 0.80771 0.74449 0.55224 0.0
H271 H 0.79451 0.69455 0.54014 0.0
H272 H 0.78198 0.70725 0.59677 0.0
H273 H 0.70897 0.65538 0.58333 0.0
H274 H 0.72124 0.64266 0.5267 0.0
H275 H 0.68469 0.65739 0.52976 0.0
H276 H 0.7331 0.78368 0.42755 0.0
H277 H 0.74378 0.75216 0.35765 0.0
H278 H 0.76189 0.675 0.4505 0.0
C279 C 0.72239 0.73544 0.6058 0.0
C280 C 0.71105 0.76326 0.61839 0.0
C281 C 0.71159 0.78898 0.5829 0.0
C282 C 0.72165 0.78603 0.5353 0.0
C283 C 0.73205 0.75785 0.52401 0.0
C284 C 0.73316 0.73344 0.55847 0.0
C285 C 0.74526 0.70557 0.53706 0.0
C286 C 0.78471 0.71343 0.55779 0.0
C287 C 0.71312 0.66272 0.54466 0.0
C288 C 0.74936 0.71698 0.48464 0.0
C289 C 0.7416 0.74726 0.47805 0.0
C290 C 0.74028 0.76079 0.43256 0.0
C291 C 0.74668 0.74287 0.39297 0.0
C292 C 0.75526 0.71226 0.39856 0.0
C293 C 0.75691 0.69934 0.44519 0.0
H294 H 0.9803 0.32368 0.10751 0.0
H295 H 0.95023 0.20229 0.11984 0.0
H296 H 0.98488 0.20799 0.04377 0.0
H297 H 0.96685 0.32235 0.97922 0.0
H298 H 1.00696 0.37152 0.97087 0.0
H299 H 0.98024 0.35781 0.02646 0.0
H300 H 0.04528 0.38075 0.07233 0.0
H301 H 0.07215 0.39416 0.01683 0.0
H302 H 0.07605 0.36055 0.05691 0.0
H303 H 0.02667 0.22848 0.96851 0.0
H304 H 0.0641 0.25908 0.89461 0.0
H305 H 0.06232 0.36546 0.92763 0.0
C306 C 0.9807 0.29818 0.09399 0.0
C307 C 0.9624 0.26246 0.11963 0.0
C308 C 0.9636 0.2298 0.10064 0.0
C309 C 0.98353 0.23288 0.05763 0.0
C310 C 1.00168 0.26867 0.0336 0.0
C311 C 0.9998 0.30054 0.05067 0.0
C312 C 0.0207 0.33532 0.01724 0.0
C313 C 0.99197 0.34745 0.99726 0.0
C314 C 0.05561 0.36973 0.04234 0.0
C315 C 0.03463 0.3181 0.97861 0.0
C316 C 0.02403 0.27985 0.98923 0.0
C317 C 0.03489 0.25833 0.9598 0.0
C318 C 0.0565 0.27609 0.91813 0.0
C319 C 0.06643 0.31476 0.90565 0.0
C320 C 0.05527 0.33594 0.93641 0.0
H321 H 0.29159 1.00502 0.3868 0.0
H322 H 0.35207 0.12644 0.43107 0.0
H323 H 0.33924 0.10547 0.51576 0.0
H324 H 0.21515 0.97218 0.48275 0.0
H325 H 0.21224 0.92539 0.48913 0.0
H326 H 0.22435 0.94981 0.43201 0.0
H327 H 0.28799 0.9458 0.42891 0.0
H328 H 0.27622 0.92155 0.48598 0.0
H329 H 0.3226 0.96578 0.47738 0.0
H330 H 0.3268 0.07179 0.59452 0.0
H331 H 0.31113 0.02799 0.66358 0.0
H332 H 0.25284 0.92695 0.57073 0.0
C333 C 0.30173 0.02711 0.41447 0.0
C334 C 0.32309 0.06745 0.40261 0.0
C335 C 0.33557 0.09553 0.43948 0.0
C336 C 0.32844 0.08383 0.4876 0.0
C337 C 0.30778 0.04389 0.49819 0.0
C338 C 0.29383 0.01589 0.46273 0.0
C339 C 0.2722 0.97489 0.48412 0.0
C340 C 0.22839 0.95435 0.47123 0.0
C341 C 0.2909 0.95059 0.46814 0.0
C342 C 0.27826 0.98417 0.53722 0.0
C343 C 0.29863 0.02426 0.54423 0.0
C344 C 0.31021 0.04043 0.5895 0.0
C345 C 0.30119 0.01521 0.62856 0.0
C346 C 0.28033 0.97403 0.62273 0.0
C347 C 0.26811 0.95825 0.5764 0.0
H348 H 0.73748 0.79202 0.94012 0.0
H349 H 0.67099 0.67682 0.87625 0.0
H350 H 0.68518 0.6478 0.94537 0.0
H351 H 0.81273 0.77798 0.99696 0.0
H352 H 0.81431 0.80326 0.05127 0.0
H353 H 0.80068 0.81643 0.99586 0.0
H354 H 0.73566 0.80455 0.03412 0.0
H355 H 0.74926 0.79154 0.08966 0.0
H356 H 0.70332 0.75803 0.06171 0.0
H357 H 0.70448 0.62987 0.02023 0.0
H358 H 0.72568 0.62338 0.10063 0.0
H359 H 0.77912 0.74874 0.12125 0.0
C360 C 0.72603 0.76074 0.94089 0.0
C361 C 0.70278 0.73666 0.90272 0.0
C362 C 0.68825 0.69584 0.90518 0.0
C363 C 0.69641 0.67901 0.94423 0.0
C364 C 0.71889 0.70316 0.98134 0.0
C365 C 0.73325 0.74307 0.98061 0.0
C366 C 0.75501 0.76147 0.02701 0.0
C367 C 0.79826 0.79157 0.01716 0.0
C368 C 0.7346 0.77999 0.05476 0.0
C369 C 0.75096 0.72568 0.05314 0.0
C370 C 0.72999 0.6925 0.02576 0.0
C371 C 0.7211 0.65562 0.04201 0.0
C372 C 0.73333 0.65222 0.08781 0.0
C373 C 0.75451 0.68547 0.11718 0.0
C374 C 0.76377 0.72284 0.09928 0.0
H375 H 0.98538 0.32277 0.41125 0.0
H376 H 0.92438 0.19595 0.41785 0.0
H377 H 0.955 0.19934 0.4956 0.0
H378 H 0.07543 0.33669 0.46328 0.0
H379 H 0.08566 0.37999 0.49622 0.0
H380 H 0.05816 0.36833 0.4414 0.0
H381 H 1.0013 0.37041 0.48547 0.0
H382 H 0.02873 0.38237 0.54034 0.0
H383 H 0.97995 0.3405 0.53781 0.0
H384 H 0.99323 0.21548 0.57064 0.0
H385 H 0.03421 0.24334 0.64172 0.0
H386 H 0.0712 0.36053 0.59002 0.0
C387 C 0.97783 0.29576 0.4296 0.0
C388 C 0.95189 0.25902 0.40858 0.0
C389 C 0.9438 0.2244 0.43319 0.0
C390 C 0.9612 0.22601 0.47739 0.0
C391 C 0.98699 0.26249 0.49672 0.0
C392 C 0.99529 0.29681 0.47391 0.0
C393 C 0.02496 0.33208 0.50251 0.0
C394 C 0.06332 0.35567 0.47415 0.0
C395 C 1.00769 0.35786 0.51743 0.0
C396 C 0.03113 0.31212 0.54543 0.0
C397 C 1.00929 0.27194 0.54071 0.0
C398 C 1.01046 0.2469 0.57475 0.0
C399 C 0.0342 0.26316 0.615 0.0
C400 C 0.05637 0.30427 0.62164 0.0
C401 C 0.05475 0.32905 0.5861 0.0
H402 H 0.61535 0.13247 0.31211 0.0
H403 H 0.60205 0.16075 0.16606 0.0
H404 H 0.6739 0.19527 0.15554 0.0
H405 H 0.70548 0.22443 0.33735 0.0
H406 H 0.72646 0.20146 0.37291 0.0
H407 H 0.67394 0.18022 0.36995 0.0
H408 H 0.66719 0.11464 0.34181 0.0
H409 H 0.71964 0.13568 0.3446 0.0
H410 H 0.69397 0.11395 0.28981 0.0
H411 H 0.74705 0.22786 0.16084 0.0
H412 H 0.81673 0.25205 0.17968 0.0
H413 H 0.78356 0.20002 0.32074 0.0
C414 C 0.62761 0.14627 0.27809 0.0
C415 C 0.60293 0.14384 0.23986 0.0
C416 C 0.62021 0.16185 0.1957 0.0
C417 C 0.66105 0.18177 0.18946 0.0
C418 C 0.68447 0.18346 0.22766 0.0
C419 C 0.66848 0.16605 0.27106 0.0
C420 C 0.70042 0.17127 0.30573 0.0
C421 C 0.70163 0.1958 0.34905 0.0
C422 C 0.69497 0.13151 0.32138 0.0
C423 C 0.73669 0.19364 0.27468 0.0
C424 C 0.72679 0.20101 0.2301 0.0
C425 C 0.75516 0.22219 0.19557 0.0
C426 C 0.79469 0.23599 0.20669 0.0
C427 C 0.80556 0.22795 0.25161 0.0
C428 C 0.77607 0.20645 0.28601 0.0
H429 H 0.5253 0.40309 0.20626 0.0
H430 H 0.59136 0.41479 0.33532 0.0
H431 H 0.55566 0.34318 0.34475 0.0
H432 H 0.433 0.32459 0.2489 0.0
H433 H 0.41894 0.29993 0.19208 0.0
H434 H 0.45072 0.35217 0.19424 0.0
H435 H 0.5025 0.34599 0.14351 0.0
H436 H 0.47089 0.2937 0.14128 0.0
H437 H 0.52025 0.31424 0.16352 0.0
H438 H 0.51332 0.27024 0.34026 0.0
H439 H 0.46488 0.20113 0.32438 0.0
H440 H 0.42333 0.23602 0.20065 0.0
C441 C 0.53218 0.3907 0.23668 0.0
C442 C 0.56165 0.41492 0.26975 0.0
C443 C 0.56971 0.39714 0.3088 0.0
C444 C 0.54935 0.35638 0.3147 0.0
C445 C 0.52074 0.3335 0.28142 0.0
C446 C 0.51195 0.34995 0.24329 0.0
C447 C 0.47937 0.31861 0.2131 0.0
C448 C 0.44337 0.32416 0.21204 0.0
C449 C 0.49414 0.31812 0.16235 0.0
C450 C 0.4709 0.28204 0.24059 0.0
C451 C 0.49547 0.29134 0.27955 0.0
C452 C 0.49388 0.26261 0.3099 0.0
C453 C 0.46633 0.22336 0.30042 0.0
C454 C 0.44028 0.21302 0.26123 0.0
C455 C 0.44276 0.24292 0.23094 0.0
H456 H 0.88913 0.49241 0.21458 0.0
H457 H 0.83585 0.42426 0.34281 0.0
H458 H 0.80017 0.46007 0.35547 0.0
H459 H 0.90395 0.58363 0.26012 0.0
H460 H 0.89266 0.59871 0.20445 0.0
H461 H 0.91277 0.56655 0.20427 0.0
H462 H 0.85376 0.51616 0.15425 0.0
H463 H 0.83343 0.54816 0.15437 0.0
H464 H 0.80456 0.49869 0.17589 0.0
H465 H 0.76987 0.50347 0.35443 0.0
H466 H 0.75016 0.55334 0.34155 0.0
H467 H 0.82532 0.59516 0.21637 0.0
C468 C 0.87009 0.48505 0.24545 0.0
C469 C 0.86514 0.45506 0.27741 0.0
C470 C 0.8396 0.44638 0.31713 0.0
C471 C 0.81933 0.46677 0.32485 0.0
C472 C 0.82479 0.49597 0.29264 0.0
C473 C 0.84965 0.50522 0.2538 0.0
C474 C 0.85078 0.53833 0.22499 0.0
C475 C 0.89252 0.57391 0.2234 0.0
C476 C 0.83467 0.5245 0.17438 0.0
C477 C 0.82326 0.5467 0.25423 0.0
C478 C 0.80815 0.52161 0.29275 0.0
C479 C 0.78157 0.52333 0.32441 0.0
C480 C 0.77041 0.55164 0.31675 0.0
C481 C 0.7862 0.57822 0.27812 0.0
C482 C 0.81284 0.57542 0.24644 0.0
H483 H 0.12109 0.6116 0.78246 0.0
H484 H 0.21745 0.60652 0.71349 0.0
H485 H 0.25417 0.67841 0.70771 0.0
H486 H 0.12766 0.69148 0.71482 0.0
H487 H 0.11683 0.71351 0.76463 0.0
H488 H 0.09789 0.66149 0.76366 0.0
H489 H 0.13024 0.66559 0.84549 0.0
H490 H 0.14918 0.71762 0.84682 0.0
H491 H 0.18213 0.69858 0.85278 0.0
H492 H 0.28075 0.75083 0.70921 0.0
H493 H 0.29529 0.81892 0.71753 0.0
H494 H 0.18237 0.77787 0.78665 0.0
C495 C 0.15008 0.62554 0.76658 0.0
C496 C 0.16615 0.60306 0.74817 0.0
C497 C 0.20404 0.62276 0.7271 0.0
C498 C 0.22533 0.66371 0.72395 0.0
C499 C 0.20856 0.68483 0.74222 0.0
C500 C 0.17185 0.6665 0.76324 0.0
C501 C 0.16062 0.69621 0.77996 0.0
C502 C 0.12356 0.69032 0.75422 0.0
C503 C 0.15523 0.69439 0.8345 0.0
C504 C 0.19666 0.73408 0.7647 0.0
C505 C 0.22397 0.72677 0.74316 0.0
C506 C 0.25961 0.75692 0.72607 0.0
C507 C 0.2676 0.79559 0.73101 0.0
C508 C 0.24008 0.804 0.75278 0.0
C509 C 0.20413 0.77261 0.76988 0.0
H510 H 0.47874 0.86056 0.71244 0.0
H511 H 0.48043 0.88607 0.86359 0.0
H512 H 0.52183 0.85689 0.879 0.0
H513 H 0.47544 0.76648 0.72751 0.0
H514 H 0.5073 0.77415 0.67733 0.0
H515 H 0.47642 0.79584 0.67763 0.0
H516 H 0.53738 0.86417 0.66418 0.0
H517 H 0.56844 0.84273 0.66392 0.0
H518 H 0.57808 0.88167 0.705 0.0
H519 H 0.56602 0.8295 0.8784 0.0
H520 H 0.60949 0.80266 0.86216 0.0
H521 H 0.57827 0.79093 0.71212 0.0
C522 C 0.48737 0.85945 0.74884 0.0
C523 C 0.47652 0.87599 0.78679 0.0
C524 C 0.48884 0.8743 0.83381 0.0
C525 C 0.51218 0.85752 0.84302 0.0
C526 C 0.52287 0.84212 0.80494 0.0
C527 C 0.5108 0.84262 0.75879 0.0
C528 C 0.52764 0.82485 0.72443 0.0
C529 C 0.49473 0.78814 0.7003 0.0
C530 C 0.55448 0.85517 0.68719 0.0
C531 C 0.55107 0.81449 0.75863 0.0
C532 C 0.54787 0.82497 0.80482 0.0
C533 C 0.56835 0.82063 0.84254 0.0
C534 C 0.593 0.80538 0.83294 0.0
C535 C 0.59675 0.79414 0.78611 0.0
C536 C 0.57517 0.79838 0.74847 0.0
H537 H 0.22927 0.4607 0.79394 0.0
H538 H 0.22101 0.38517 0.67627 0.0
H539 H 0.2919 0.42487 0.66296 0.0
H540 H 0.30609 0.55227 0.74024 0.0
H541 H 0.3314 0.57184 0.79583 0.0
H542 H 0.27918 0.53862 0.79575 0.0
H543 H 0.28826 0.49319 0.8546 0.0
H544 H 0.3405 0.52618 0.85467 0.0
H545 H 0.32117 0.47551 0.83918 0.0
H546 H 0.36287 0.46997 0.66264 0.0
H547 H 0.43187 0.51979 0.67501 0.0
H548 H 0.39786 0.56838 0.79272 0.0
C549 C 0.24239 0.45295 0.76502 0.0
C550 C 0.2193 0.41975 0.73606 0.0
C551 C 0.23779 0.41029 0.69903 0.0
C552 C 0.27819 0.43272 0.69106 0.0
C553 C 0.30015 0.46474 0.72038 0.0
C554 C 0.2832 0.47512 0.75659 0.0
C555 C 0.31447 0.51066 0.78334 0.0
C556 C 0.30736 0.54541 0.77849 0.0
C557 C 0.31619 0.50078 0.83608 0.0
C558 C 0.35136 0.51821 0.75651 0.0
C559 C 0.34207 0.49129 0.72027 0.0
C560 C 0.37057 0.49152 0.69058 0.0
C561 C 0.40976 0.52019 0.69773 0.0
C562 C 0.42047 0.54853 0.73431 0.0
C563 C 0.3907 0.54723 0.76437 0.0
H564 H 0.1532 0.20037 0.21618 0.0
H565 H 0.16323 0.19645 0.37036 0.0
H566 H 0.12194 0.22666 0.38006 0.0
H567 H 0.15168 0.29114 0.20956 0.0
H568 H 0.11531 0.27426 0.16298 0.0
H569 H 0.1483 0.25513 0.16729 0.0
H570 H 0.08929 0.1844 0.17179 0.0
H571 H 0.05632 0.20333 0.16633 0.0
H572 H 0.0517 0.17244 0.21623 0.0
H573 H 0.07959 0.25742 0.37337 0.0
H574 H 0.02962 0.27517 0.35114 0.0
H575 H 0.04229 0.25343 0.20236 0.0
C576 C 0.14651 0.20543 0.25209 0.0
C577 C 0.16215 0.19642 0.29251 0.0
C578 C 0.15264 0.20397 0.33873 0.0
C579 C 0.12912 0.22111 0.34465 0.0
C580 C 0.11498 0.23033 0.30407 0.0
C581 C 0.12264 0.22204 0.2587 0.0
C582 C 0.10154 0.23228 0.22115 0.0
C583 C 0.13097 0.26515 0.1883 0.0
C584 C 0.07301 0.19594 0.1922 0.0
C585 C 0.07995 0.24659 0.25263 0.0
C586 C 0.08908 0.2464 0.30026 0.0
C587 C 0.07241 0.25795 0.33619 0.0
C588 C 0.04448 0.26846 0.32325 0.0
C589 C 0.03305 0.26645 0.27506 0.0
C590 C 0.05148 0.25611 0.23928 0.0
H591 H 0.05626 0.89263 0.30923 0.0
H592 H 0.05262 0.82181 0.18865 0.0
H593 H 0.1249 0.85983 0.18287 0.0
H594 H 0.13278 0.98261 0.26498 0.0
H595 H 0.15476 1.00044 0.32264 0.0
H596 H 0.10304 0.96626 0.31828 0.0
H597 H 0.11097 0.91968 0.37681 0.0
H598 H 0.16291 0.95362 0.38069 0.0
H599 H 0.14557 0.90374 0.36301 0.0
H600 H 0.19773 0.90704 0.1889 0.0
H601 H 0.26424 0.9639 0.20158 0.0
H602 H 0.21946 1.00211 0.31894 0.0
C603 C 0.07069 0.88488 0.28189 0.0
C604 C 0.04884 0.85433 0.24935 0.0
C605 C 0.06876 0.8455 0.21356 0.0
C606 C 0.10982 0.86657 0.21036 0.0
C607 C 0.1305 0.89625 0.24335 0.0
C608 C 0.11157 0.90557 0.27822 0.0
C609 C 0.14034 0.94017 0.30761 0.0
C610 C 0.13225 0.97438 0.30307 0.0
C611 C 0.1399 0.92859 0.36014 0.0
C612 C 0.17831 0.94924 0.28332 0.0
C613 C 0.17223 0.92333 0.24676 0.0
C614 C 0.20294 0.92726 0.2178 0.0
C615 C 0.24062 0.95935 0.22547 0.0
C616 C 0.24679 0.98703 0.26136 0.0
C617 C 0.21548 0.98115 0.29141 0.0
H618 H 0.84604 0.96105 0.2887 0.0
H619 H 0.77698 0.96345 0.16938 0.0
H620 H 0.74502 0.89144 0.16297 0.0
H621 H 0.86077 0.88454 0.24786 0.0
H622 H 0.85619 0.86405 0.30663 0.0
H623 H 0.87369 0.91546 0.29987 0.0
H624 H 0.81866 0.90885 0.35705 0.0
H625 H 0.80047 0.85715 0.36306 0.0
H626 H 0.76816 0.87433 0.34331 0.0
H627 H 0.72065 0.81749 0.17042 0.0
H628 H 0.71088 0.75136 0.18801 0.0
H629 H 0.79321 0.80037 0.30518 0.0
C630 C 0.82391 0.94664 0.26144 0.0
C631 C 0.81396 0.96813 0.22977 0.0
C632 C 0.78555 0.94782 0.19381 0.0
C633 C 0.76684 0.90683 0.19024 0.0
C634 C 0.77657 0.88657 0.22318 0.0
C635 C 0.80459 0.90602 0.25797 0.0
C636 C 0.8103 0.8781 0.28908 0.0
C637 C 0.85273 0.886 0.2856 0.0
C638 C 0.7987 0.87972 0.3412 0.0
C639 C 0.78162 0.83986 0.26594 0.0
C640 C 0.76206 0.84489 0.22816 0.0
C641 C 0.73543 0.81322 0.20039 0.0
C642 C 0.72967 0.77575 0.21085 0.0
C643 C 0.75073 0.77079 0.24844 0.0
C644 C 0.77613 0.80316 0.27675 0.0
H645 H 0.18854 0.13062 0.72131 0.0
H646 H 0.24263 0.19011 0.85397 0.0
H647 H 0.27679 0.1522 0.85971 0.0
H648 H 0.1735 0.0381 0.75218 0.0
H649 H 0.18489 0.0278 0.69345 0.0
H650 H 0.16551 0.06022 0.70027 0.0
H651 H 0.22553 0.11396 0.654 0.0
H652 H 0.24549 0.08184 0.64796 0.0
H653 H 0.27439 0.12927 0.67501 0.0
H654 H 0.30279 0.10496 0.85242 0.0
H655 H 0.31406 0.04971 0.8346 0.0
H656 H 0.24732 0.027 0.70389 0.0
C657 C 0.20813 0.13643 0.75116 0.0
C658 C 0.21289 0.16358 0.78703 0.0
C659 C 0.23796 0.16913 0.82624 0.0
C660 C 0.25795 0.1481 0.82956 0.0
C661 C 0.25309 0.12214 0.79302 0.0
C662 C 0.22876 0.11633 0.75459 0.0
C663 C 0.22736 0.08594 0.72072 0.0
C664 C 0.18534 0.05096 0.71646 0.0
C665 C 0.2442 0.10384 0.67151 0.0
C666 C 0.25406 0.07494 0.7466 0.0
C667 C 0.26896 0.09619 0.78809 0.0
C668 C 0.29195 0.08867 0.81953 0.0
C669 C 0.29861 0.05763 0.80897 0.0
C670 C 0.28203 0.03475 0.76761 0.0
C671 C 0.26082 0.04455 0.7354 0.0
H672 H 0.96387 0.82735 0.6983 0.0
H673 H 0.97341 0.78387 0.83697 0.0
H674 H 0.90133 0.75016 0.84613 0.0
H675 H 0.88876 0.84732 0.73162 0.0
H676 H 0.86429 0.83364 0.67467 0.0
H677 H 0.91618 0.85163 0.67806 0.0
H678 H 0.90586 0.78867 0.63574 0.0
H679 H 0.85376 0.77034 0.63318 0.0
H680 H 0.87215 0.74154 0.661 0.0
H681 H 0.82823 0.72329 0.84164 0.0
H682 H 0.76143 0.71288 0.82785 0.0
H683 H 0.80003 0.77371 0.69252 0.0
C684 C 0.9507 0.81018 0.7302 0.0
C685 C 0.97416 0.80792 0.76673 0.0
C686 C 0.95595 0.78607 0.80858 0.0
C687 C 0.91503 0.76651 0.81391 0.0
C688 C 0.89268 0.76903 0.77705 0.0
C689 C 0.90992 0.7907 0.73623 0.0
C690 C 0.87964 0.7914 0.70368 0.0
C691 C 0.8877 0.83348 0.69664 0.0
C692 C 0.87776 0.77181 0.65555 0.0
C693 C 0.8428 0.76709 0.73277 0.0
C694 C 0.85073 0.7539 0.77467 0.0
C695 C 0.82152 0.73288 0.80858 0.0
C696 C 0.78358 0.72661 0.80026 0.0
C697 C 0.77568 0.7418 0.75875 0.0
C698 C 0.80529 0.76106 0.72402 0.0
H699 H 0.98884 0.21912 0.82744 0.0
H700 H 0.97428 0.26388 0.69242 0.0
H701 H 0.92095 0.19751 0.67088 0.0
H702 H 0.98102 0.1352 0.78299 0.0
H703 H 0.95506 0.10424 0.83306 0.0
H704 H 0.9866 0.15593 0.8418 0.0
H705 H 0.92938 0.16165 0.87901 0.0
H706 H 0.89777 0.10969 0.87183 0.0
H707 H 0.88388 0.14308 0.8468 0.0
H708 H 0.87655 0.1242 0.65968 0.0
H709 H 0.83962 0.05201 0.6632 0.0
H710 H 0.88358 0.05641 0.80655 0.0
C711 C 0.97316 0.21525 0.79427 0.0
C712 C 0.985 0.2466 0.76193 0.0
C713 C 0.96476 0.24041 0.71823 0.0
C714 C 0.93483 0.2027 0.70551 0.0
C715 C 0.92538 0.17189 0.73722 0.0
C716 C 0.94345 0.17803 0.78117 0.0
C717 C 0.93047 0.13996 0.80737 0.0
C718 C 0.96537 0.13348 0.81683 0.0
C719 C 0.90908 0.13851 0.85401 0.0
C720 C 0.90268 0.1112 0.77102 0.0
C721 C 0.9001 0.13005 0.73077 0.0
C722 C 0.87773 0.10923 0.69147 0.0
C723 C 0.85683 0.06818 0.69383 0.0
C724 C 0.85839 0.04827 0.73523 0.0
C725 C 0.88189 0.07041 0.77411 0.0
loop_
_geom_bond_atom_site_label_1
_geom_bond_atom_site_label_2
_geom_bond_distance
_geom_bond_site_symmetry_2
_ccdc_geom_bond_type
Dy0 O3 2.307 . S
Dy0 O5 2.395 . S
Dy0 O6 2.379 . S
Dy0 O8 2.339 . S
Dy0 O10 2.298 . S
Dy0 O14 2.275 . S
Dy0 C22 2.738 . S
Dy1 O4 2.298 . S
Dy1 O7 2.275 . S
Dy1 O9 2.307 . S
Dy1 O11 2.395 . S
Dy1 O12 2.379 . S
Dy1 O15 2.339 . S
Dy1 C31 2.738 . S
C2 O14 1.254 . S
C2 O15 1.257 . S
O3 Dy0 2.307 . S
O3 C13 1.266 . S
O4 Dy1 2.298 . S
O4 C13 1.236 . S
O5 Dy0 2.395 . S
O5 C22 1.255 . S
O6 Dy0 2.379 . S
O6 C22 1.249 . S
O7 Dy1 2.275 . S
O7 C23 1.254 . S
O8 Dy0 2.339 . S
O8 C23 1.257 . S
O9 Dy1 2.307 . S
O9 C24 1.266 . S
O10 Dy0 2.298 . S
O10 C24 1.236 . S
O11 Dy1 2.395 . S
O11 C31 1.255 . S
O12 Dy1 2.379 . S
O12 C31 1.249 . S
C13 O3 1.266 . S
C13 O4 1.236 . S
O14 Dy0 2.275 . S
O14 C2 1.254 . S
O15 Dy1 2.339 . S
O15 C2 1.257 . S
C16 C19 1.344 . S
C16 C20 1.328 . S
C16 C22 1.516 . S
C17 C18 1.304 . S
C17 C21 1.323 . S
C18 C17 1.304 . S
C18 C19 1.371 . S
C18 H32 0.930 . S
C19 C16 1.344 . S
C19 C18 1.371 . S
C19 H33 0.931 . S
C20 C16 1.328 . S
C20 C21 1.433 . S
C20 H34 0.931 . S
C21 C17 1.323 . S
C21 C20 1.433 . S
C21 H35 0.933 . S
C22 Dy0 2.738 . S
C22 O5 1.255 . S
C22 O6 1.249 . S
C22 C16 1.516 . S
C23 O7 1.254 . S
C23 O8 1.257 . S
C24 O9 1.266 . S
C24 O10 1.236 . S
C25 C28 1.344 . S
C25 C29 1.328 . S
C25 C31 1.516 . S
C26 C27 1.304 . S
C26 C30 1.323 . S
C27 C26 1.304 . S
C27 C28 1.371 . S
C27 H36 0.930 . S
C28 C25 1.344 . S
C28 C27 1.371 . S
C28 H37 0.931 . S
C29 C25 1.328 . S
C29 C30 1.433 . S
C29 H38 0.931 . S
C30 C26 1.323 . S
C30 C29 1.433 . S
C30 H39 0.933 . S
C31 Dy1 2.738 . S
C31 O11 1.255 . S
C31 O12 1.249 . S
C31 C25 1.516 . S
H32 C18 0.930 . S
H33 C19 0.931 . S
H34 C20 0.931 . S
H35 C21 0.933 . S
H36 C27 0.930 . S
H37 C28 0.931 . S
H38 C29 0.931 . S
H39 C30 0.933 . S
Dy40 O43 2.307 . S
Dy40 O45 2.395 . S
Dy40 O46 2.379 . S
Dy40 O48 2.339 . S
Dy40 O50 2.298 . S
Dy40 O54 2.275 . S
Dy40 C62 2.738 . S
Dy41 O44 2.298 . S
Dy41 O47 2.275 . S
Dy41 O49 2.307 . S
Dy41 O51 2.395 . S
Dy41 O52 2.379 . S
Dy41 O55 2.339 . S
Dy41 C71 2.738 . S
C42 O54 1.254 . S
C42 O55 1.257 . S
O43 Dy40 2.307 . S
O43 C53 1.266 . S
O44 Dy41 2.298 . S
O44 C53 1.236 . S
O45 Dy40 2.395 . S
O45 C62 1.255 . S
O46 Dy40 2.379 . S
O46 C62 1.249 . S
O47 Dy41 2.275 . S
O47 C63 1.254 . S
O48 Dy40 2.339 . S
O48 C63 1.257 . S
O49 Dy41 2.307 . S
O49 C64 1.266 . S
O50 Dy40 2.298 . S
O50 C64 1.236 . S
O51 Dy41 2.395 . S
O51 C71 1.255 . S
O52 Dy41 2.379 . S
O52 C71 1.249 . S
C53 O43 1.266 . S
C53 O44 1.236 . S
O54 Dy40 2.275 . S
O54 C42 1.254 . S
O55 Dy41 2.339 . S
O55 C42 1.257 . S
C56 C59 1.344 . S
C56 C60 1.328 . S
C56 C62 1.516 . S
C57 C58 1.304 . S
C57 C61 1.323 . S
C58 C57 1.304 . S
C58 C59 1.371 . S
C58 H72 0.930 . S
C59 C56 1.344 . S
C59 C58 1.371 . S
C59 H73 0.931 . S
C60 C56 1.328 . S
C60 C61 1.433 . S
C60 H74 0.931 . S
C61 C57 1.323 . S
C61 C60 1.433 . S
C61 H75 0.933 . S
C62 Dy40 2.738 . S
C62 O45 1.255 . S
C62 O46 1.249 . S
C62 C56 1.516 . S
C63 O47 1.254 . S
C63 O48 1.257 . S
C64 O49 1.266 . S
C64 O50 1.236 . S
C65 C68 1.344 . S
C65 C69 1.328 . S
C65 C71 1.516 . S
C66 C67 1.310 . S
C66 C70 1.322 . S
C67 C66 1.310 . S
C67 C68 1.371 . S
C67 H76 0.930 . S
C68 C65 1.344 . S
C68 C67 1.371 . S
C68 H77 0.931 . S
C69 C65 1.328 . S
C69 C70 1.433 . S
C69 H78 0.931 . S
C70 C66 1.322 . S
C70 C69 1.433 . S
C70 H79 0.933 1_655 S
C71 Dy41 2.738 . S
C71 O51 1.255 . S
C71 O52 1.249 . S
C71 C65 1.516 . S
H72 C58 0.930 . S
H73 C59 0.931 . S
H74 C60 0.931 . S
H75 C61 0.933 . S
H76 C67 0.930 . S
H77 C68 0.931 . S
H78 C69 0.931 . S
H79 C70 0.933 1_455 S
Dy80 O83 2.307 . S
Dy80 O85 2.395 . S
Dy80 O86 2.379 . S
Dy80 O88 2.339 . S
Dy80 O90 2.298 . S
Dy80 O94 2.275 . S
Dy80 C102 2.738 . S
Dy81 O84 2.298 . S
Dy81 O87 2.275 . S
Dy81 O89 2.307 . S
Dy81 O91 2.395 . S
Dy81 O92 2.379 . S
Dy81 O95 2.339 . S
Dy81 C111 2.738 . S
C82 O94 1.254 . S
C82 O95 1.257 . S
O83 Dy80 2.307 . S
O83 C93 1.266 . S
O84 Dy81 2.298 . S
O84 C93 1.236 . S
O85 Dy80 2.395 . S
O85 C102 1.255 . S
O86 Dy80 2.379 . S
O86 C102 1.249 . S
O87 Dy81 2.275 . S
O87 C103 1.254 . S
O88 Dy80 2.339 . S
O88 C103 1.257 . S
O89 Dy81 2.307 . S
O89 C104 1.266 . S
O90 Dy80 2.298 . S
O90 C104 1.236 . S
O91 Dy81 2.395 . S
O91 C111 1.255 . S
O92 Dy81 2.379 . S
O92 C111 1.249 . S
C93 O83 1.266 . S
C93 O84 1.236 . S
O94 Dy80 2.275 . S
O94 C82 1.254 . S
O95 Dy81 2.339 . S
O95 C82 1.257 . S
C96 C99 1.344 . S
C96 C100 1.328 . S
C96 C102 1.516 . S
C97 C98 1.304 . S
C97 C101 1.323 . S
C98 C97 1.304 . S
C98 C99 1.371 . S
C98 H112 0.930 . S
C99 C96 1.344 . S
C99 C98 1.371 . S
C99 H113 0.931 . S
C100 C96 1.328 . S
C100 C101 1.433 . S
C100 H114 0.931 . S
C101 C97 1.323 . S
C101 C100 1.433 . S
C101 H115 0.933 . S
C102 Dy80 2.738 . S
C102 O85 1.255 . S
C102 O86 1.249 . S
C102 C96 1.516 . S
C103 O87 1.254 . S
C103 O88 1.257 . S
C104 O89 1.266 . S
C104 O90 1.236 . S
C105 C108 1.344 . S
C105 C109 1.328 . S
C105 C111 1.516 . S
C106 C107 1.311 . S
C106 C110 1.327 . S
C107 C106 1.311 . S
C107 C108 1.371 . S
C107 H116 0.930 . S
C108 C105 1.344 . S
C108 C107 1.371 . S
C108 H117 0.931 . S
C109 C105 1.328 . S
C109 C110 1.433 . S
C109 H118 0.931 . S
C110 C106 1.327 . S
C110 C109 1.433 . S
C110 H119 0.933 1_545 S
C111 Dy81 2.738 . S
C111 O91 1.255 . S
C111 O92 1.249 . S
C111 C105 1.516 . S
H112 C98 0.930 . S
H113 C99 0.931 . S
H114 C100 0.931 . S
H115 C101 0.933 . S
H116 C107 0.930 . S
H117 C108 0.931 . S
H118 C109 0.931 . S
H119 C110 0.933 1_565 S
Dy120 O123 2.307 . S
Dy120 O125 2.395 . S
Dy120 O126 2.379 . S
Dy120 O128 2.339 . S
Dy120 O130 2.298 . S
Dy120 O134 2.275 . S
Dy120 C142 2.738 . S
Dy121 O124 2.298 . S
Dy121 O127 2.275 . S
Dy121 O129 2.307 . S
Dy121 O131 2.395 . S
Dy121 O132 2.379 . S
Dy121 O135 2.339 . S
Dy121 C151 2.738 . S
C122 O134 1.254 . S
C122 O135 1.257 . S
O123 Dy120 2.307 . S
O123 C133 1.266 . S
O124 Dy121 2.298 . S
O124 C133 1.236 . S
O125 Dy120 2.395 . S
O125 C142 1.255 . S
O126 Dy120 2.379 . S
O126 C142 1.249 . S
O127 Dy121 2.275 . S
O127 C143 1.254 . S
O128 Dy120 2.339 . S
O128 C143 1.257 . S
O129 Dy121 2.307 . S
O129 C144 1.266 . S
O130 Dy120 2.298 . S
O130 C144 1.236 . S
O131 Dy121 2.395 . S
O131 C151 1.255 . S
O132 Dy121 2.379 . S
O132 C151 1.249 . S
C133 O123 1.266 . S
C133 O124 1.236 . S
O134 Dy120 2.275 . S
O134 C122 1.254 . S
O135 Dy121 2.339 . S
O135 C122 1.257 . S
C136 C139 1.344 . S
C136 C140 1.328 . S
C136 C142 1.516 . S
C137 C138 1.304 . S
C137 C141 1.323 . S
C138 C137 1.304 . S
C138 C139 1.371 . S
C138 H152 0.930 . S
C139 C136 1.344 . S
C139 C138 1.371 . S
C139 H153 0.931 . S
C140 C136 1.328 . S
C140 C141 1.433 . S
C140 H154 0.931 . S
C141 C137 1.323 . S
C141 C140 1.433 . S
C141 H155 0.933 . S
C142 Dy120 2.738 . S
C142 O125 1.255 . S
C142 O126 1.249 . S
C142 C136 1.516 . S
C143 O127 1.254 . S
C143 O128 1.257 . S
C144 O129 1.266 . S
C144 O130 1.236 . S
C145 C148 1.344 . S
C145 C149 1.328 . S
C145 C151 1.516 . S
C146 C147 1.304 . S
C146 C150 1.323 . S
C147 C146 1.304 . S
C147 C148 1.371 . S
C147 H156 0.930 . S
C148 C145 1.344 . S
C148 C147 1.371 . S
C148 H157 0.931 . S
C149 C145 1.328 . S
C149 C150 1.433 . S
C149 H158 0.931 . S
C150 C146 1.323 . S
C150 C149 1.433 . S
C150 H159 0.933 . S
C151 Dy121 2.738 . S
C151 O131 1.255 . S
C151 O132 1.249 . S
C151 C145 1.516 . S
H152 C138 0.930 . S
H153 C139 0.931 . S
H154 C140 0.931 . S
H155 C141 0.933 . S
H156 C147 0.930 . S
H157 C148 0.931 . S
H158 C149 0.931 . S
H159 C150 0.933 . S
Dy160 O163 2.307 . S
Dy160 O165 2.395 . S
Dy160 O166 2.379 . S
Dy160 O168 2.339 . S
Dy160 O170 2.298 . S
Dy160 O174 2.275 . S
Dy160 C182 2.738 . S
Dy161 O164 2.298 . S
Dy161 O167 2.275 . S
Dy161 O169 2.307 . S
Dy161 O171 2.395 . S
Dy161 O172 2.379 . S
Dy161 O175 2.339 . S
Dy161 C191 2.738 . S
C162 O174 1.254 . S
C162 O175 1.257 . S
O163 Dy160 2.307 . S
O163 C173 1.266 . S
O164 Dy161 2.298 . S
O164 C173 1.236 . S
O165 Dy160 2.395 . S
O165 C182 1.255 . S
O166 Dy160 2.379 . S
O166 C182 1.249 . S
O167 Dy161 2.275 . S
O167 C183 1.254 . S
O168 Dy160 2.339 . S
O168 C183 1.257 . S
O169 Dy161 2.307 . S
O169 C184 1.266 . S
O170 Dy160 2.298 . S
O170 C184 1.236 . S
O171 Dy161 2.395 . S
O171 C191 1.255 . S
O172 Dy161 2.379 . S
O172 C191 1.249 . S
C173 O163 1.266 . S
C173 O164 1.236 . S
O174 Dy160 2.275 . S
O174 C162 1.254 . S
O175 Dy161 2.339 . S
O175 C162 1.257 . S
C176 C179 1.344 . S
C176 C180 1.328 . S
C176 C182 1.516 . S
C177 C178 1.304 . S
C177 C181 1.323 . S
C178 C177 1.304 . S
C178 C179 1.371 . S
C178 H192 0.930 . S
C179 C176 1.344 . S
C179 C178 1.371 . S
C179 H193 0.931 . S
C180 C176 1.328 . S
C180 C181 1.433 . S
C180 H194 0.931 . S
C181 C177 1.323 . S
C181 C180 1.433 . S
C181 H195 0.933 . S
C182 Dy160 2.738 . S
C182 O165 1.255 . S
C182 O166 1.249 . S
C182 C176 1.516 . S
C183 O167 1.254 . S
C183 O168 1.257 . S
C184 O169 1.266 . S
C184 O170 1.236 . S
C185 C188 1.344 . S
C185 C189 1.328 . S
C185 C191 1.516 . S
C186 C187 1.311 . S
C186 C190 1.327 . S
C187 C186 1.311 . S
C187 C188 1.371 . S
C187 H196 0.930 . S
C188 C185 1.344 . S
C188 C187 1.371 . S
C188 H197 0.931 . S
C189 C185 1.328 . S
C189 C190 1.433 . S
C189 H198 0.931 . S
C190 C186 1.327 . S
C190 C189 1.433 . S
C190 H199 0.933 1_455 S
C191 Dy161 2.738 . S
C191 O171 1.255 . S
C191 O172 1.249 . S
C191 C185 1.516 . S
H192 C178 0.930 . S
H193 C179 0.931 . S
H194 C180 0.931 . S
H195 C181 0.933 . S
H196 C187 0.930 . S
H197 C188 0.931 . S
H198 C189 0.931 . S
H199 C190 0.933 1_655 S
Dy200 O203 2.307 . S
Dy200 O205 2.395 . S
Dy200 O206 2.379 . S
Dy200 O208 2.339 . S
Dy200 O210 2.298 . S
Dy200 O214 2.275 . S
Dy200 C222 2.738 . S
Dy201 O204 2.298 . S
Dy201 O207 2.275 . S
Dy201 O209 2.307 . S
Dy201 O211 2.395 . S
Dy201 O212 2.379 . S
Dy201 O215 2.339 . S
Dy201 C231 2.738 . S
C202 O214 1.254 . S
C202 O215 1.257 . S
O203 Dy200 2.307 . S
O203 C213 1.266 . S
O204 Dy201 2.298 . S
O204 C213 1.236 . S
O205 Dy200 2.395 . S
O205 C222 1.255 . S
O206 Dy200 2.379 . S
O206 C222 1.249 . S
O207 Dy201 2.275 . S
O207 C223 1.254 . S
O208 Dy200 2.339 . S
O208 C223 1.257 . S
O209 Dy201 2.307 . S
O209 C224 1.266 . S
O210 Dy200 2.298 . S
O210 C224 1.236 . S
O211 Dy201 2.395 . S
O211 C231 1.255 . S
O212 Dy201 2.379 . S
O212 C231 1.249 . S
C213 O203 1.266 . S
C213 O204 1.236 . S
O214 Dy200 2.275 . S
O214 C202 1.254 . S
O215 Dy201 2.339 . S
O215 C202 1.257 . S
C216 C219 1.344 . S
C216 C220 1.328 . S
C216 C222 1.516 . S
C217 C218 1.304 . S
C217 C221 1.323 . S
C218 C217 1.304 . S
C218 C219 1.371 . S
C218 H232 0.930 . S
C219 C216 1.344 . S
C219 C218 1.371 . S
C219 H233 0.931 . S
C220 C216 1.328 . S
C220 C221 1.433 . S
C220 H234 0.931 . S
C221 C217 1.323 . S
C221 C220 1.433 . S
C221 H235 0.933 . S
C222 Dy200 2.738 . S
C222 O205 1.255 . S
C222 O206 1.249 . S
C222 C216 1.516 . S
C223 O207 1.254 . S
C223 O208 1.257 . S
C224 O209 1.266 . S
C224 O210 1.236 . S
C225 C228 1.344 . S
C225 C229 1.328 . S
C225 C231 1.516 . S
C226 C227 1.310 . S
C226 C230 1.322 . S
C227 C226 1.310 . S
C227 C228 1.371 . S
C227 H236 0.930 . S
C228 C225 1.344 . S
C228 C227 1.371 . S
C228 H237 0.931 . S
C229 C225 1.328 . S
C229 C230 1.433 . S
C229 H238 0.931 . S
C230 C226 1.322 . S
C230 C229 1.433 . S
C230 H239 0.933 1_565 S
C231 Dy201 2.738 . S
C231 O211 1.255 . S
C231 O212 1.249 . S
C231 C225 1.516 . S
H232 C218 0.930 . S
H233 C219 0.931 . S
H234 C220 0.931 . S
H235 C221 0.933 . S
H236 C227 0.930 . S
H237 C228 0.931 . S
H238 C229 0.931 . S
H239 C230 0.933 1_545 S
H240 C252 0.930 . S
H241 C254 0.930 . S
H242 C255 0.930 1_554 S
H243 C259 0.959 . S
H244 C259 0.959 . S
H245 C259 0.961 . S
H246 C260 0.960 . S
H247 C260 0.961 . S
H248 C260 0.959 . S
H249 C263 0.929 . S
H250 C264 0.931 . S
H251 C266 0.930 . S
C252 H240 0.930 . S
C252 C253 1.399 . S
C252 C257 1.399 . S
C253 C252 1.399 . S
C253 C254 1.376 . S
C254 H241 0.930 . S
C254 C253 1.376 . S
C254 C255 1.388 . S
C255 H242 0.930 1_556 S
C255 C254 1.388 . S
C255 C256 1.390 . S
C256 C255 1.390 . S
C256 C257 1.394 . S
C256 C262 1.461 1_566 S
C257 C252 1.399 . S
C257 C256 1.394 . S
C257 C258 1.516 1_565 S
C258 C257 1.516 1_545 S
C258 C259 1.502 . S
C258 C260 1.561 . S
C258 C261 1.526 1_556 S
C259 H243 0.959 . S
C259 H244 0.959 . S
C259 H245 0.961 . S
C259 C258 1.502 . S
C260 H246 0.960 . S
C260 H247 0.961 . S
C260 H248 0.959 . S
C260 C258 1.561 . S
C261 C258 1.526 1_554 S
C261 C262 1.401 . S
C261 C266 1.390 . S
C262 C256 1.461 1_544 S
C262 C261 1.401 . S
C262 C263 1.399 1_545 S
C263 H249 0.929 . S
C263 C262 1.399 1_565 S
C263 C264 1.385 1_565 S
C264 H250 0.931 . S
C264 C263 1.385 1_545 S
C264 C265 1.389 . S
C265 C264 1.389 . S
C265 C266 1.387 . S
C266 H251 0.930 . S
C266 C261 1.390 . S
C266 C265 1.387 . S
H267 C279 0.930 . S
H268 C281 0.930 . S
H269 C282 0.930 . S
H270 C286 0.959 . S
H271 C286 0.959 . S
H272 C286 0.961 . S
H273 C287 0.960 . S
H274 C287 0.961 . S
H275 C287 0.959 . S
H276 C290 0.929 . S
H277 C291 0.931 . S
H278 C293 0.930 . S
C279 H267 0.930 . S
C279 C280 1.399 . S
C279 C284 1.399 . S
C280 C279 1.399 . S
C280 C281 1.376 . S
C281 H268 0.930 . S
C281 C280 1.376 . S
C281 C282 1.388 . S
C282 H269 0.930 . S
C282 C281 1.388 . S
C282 C283 1.390 . S
C283 C282 1.390 . S
C283 C284 1.394 . S
C283 C289 1.465 . S
C284 C279 1.399 . S
C284 C283 1.394 . S
C284 C285 1.516 . S
C285 C284 1.516 . S
C285 C286 1.502 . S
C285 C287 1.561 . S
C285 C288 1.526 . S
C286 H270 0.959 . S
C286 H271 0.959 . S
C286 H272 0.961 . S
C286 C285 1.502 . S
C287 H273 0.960 . S
C287 H274 0.961 . S
C287 H275 0.959 . S
C287 C285 1.561 . S
C288 C285 1.526 . S
C288 C289 1.396 . S
C288 C293 1.390 . S
C289 C283 1.465 . S
C289 C288 1.396 . S
C289 C290 1.399 . S
C290 H276 0.929 . S
C290 C289 1.399 . S
C290 C291 1.385 . S
C291 H277 0.931 . S
C291 C290 1.385 . S
C291 C292 1.389 . S
C292 C291 1.389 . S
C292 C293 1.387 . S
C293 H278 0.930 . S
C293 C288 1.390 . S
C293 C292 1.387 . S
H294 C306 0.930 . S
H295 C308 0.930 . S
H296 C309 0.930 . S
H297 C313 0.968 1_655 S
H298 C313 0.974 . S
H299 C313 0.934 1_654 S
H300 C314 0.960 . S
H301 C314 0.961 . S
H302 C314 0.959 . S
H303 C317 0.929 . S
H304 C318 0.931 . S
H305 C320 0.930 . S
C306 H294 0.930 . S
C306 C307 1.399 . S
C306 C311 1.399 . S
C307 C306 1.399 . S
C307 C308 1.376 . S
C308 H295 0.930 . S
C308 C307 1.376 . S
C308 C309 1.388 . S
C309 H296 0.930 . S
C309 C308 1.388 . S
C309 C310 1.390 . S
C310 C309 1.390 . S
C310 C311 1.394 . S
C310 C316 1.465 1_654 S
C311 C306 1.399 . S
C311 C310 1.394 . S
C311 C312 1.516 1_655 S
C312 C311 1.516 1_455 S
C312 C313 1.507 1_554 S
C312 C314 1.561 . S
C312 C315 1.526 1_554 S
C313 H297 0.968 1_455 S
C313 H298 0.974 . S
C313 H299 0.934 1_456 S
C313 C312 1.507 1_556 S
C314 H300 0.960 . S
C314 H301 0.961 . S
C314 H302 0.959 . S
C314 C312 1.561 . S
C315 C312 1.526 1_556 S
C315 C316 1.396 . S
C315 C320 1.390 . S
C316 C310 1.465 1_456 S
C316 C315 1.396 . S
C316 C317 1.399 . S
C317 H303 0.929 . S
C317 C316 1.399 . S
C317 C318 1.385 . S
C318 H304 0.931 . S
C318 C317 1.385 . S
C318 C319 1.389 . S
C319 C318 1.389 . S
C319 C320 1.387 . S
C320 H305 0.930 . S
C320 C315 1.390 . S
C320 C319 1.387 . S
H321 C333 0.930 . S
H322 C335 0.930 . S
H323 C336 0.930 . S
H324 C340 0.959 . S
H325 C340 0.959 . S
H326 C340 0.961 . S
H327 C341 0.960 . S
H328 C341 0.961 . S
H329 C341 0.959 . S
H330 C344 0.929 1_545 S
H331 C345 0.931 . S
H332 C347 0.930 . S
C333 H321 0.930 . S
C333 C334 1.399 . S
C333 C338 1.399 . S
C334 C333 1.399 . S
C334 C335 1.376 . S
C335 H322 0.930 . S
C335 C334 1.376 . S
C335 C336 1.388 . S
C336 H323 0.930 . S
C336 C335 1.388 . S
C336 C337 1.390 . S
C337 C336 1.390 . S
C337 C338 1.394 . S
C337 C343 1.465 1_545 S
C338 C333 1.399 . S
C338 C337 1.394 . S
C338 C339 1.516 1_545 S
C339 C338 1.516 1_565 S
C339 C340 1.502 . S
C339 C341 1.561 . S
C339 C342 1.526 . S
C340 H324 0.959 . S
C340 H325 0.959 . S
C340 H326 0.961 . S
C340 C339 1.502 . S
C341 H327 0.960 . S
C341 H328 0.961 . S
C341 H329 0.959 . S
C341 C339 1.561 . S
C342 C339 1.526 . S
C342 C343 1.396 . S
C342 C347 1.390 . S
C343 C337 1.465 1_565 S
C343 C342 1.396 . S
C343 C344 1.399 . S
C344 H330 0.929 1_565 S
C344 C343 1.399 . S
C344 C345 1.385 . S
C345 H331 0.931 . S
C345 C344 1.385 . S
C345 C346 1.389 . S
C346 C345 1.389 . S
C346 C347 1.387 . S
C347 H332 0.930 . S
C347 C342 1.390 . S
C347 C346 1.387 . S
H348 C360 0.930 . S
H349 C362 0.930 . S
H350 C363 0.930 . S
H351 C367 0.959 . S
H352 C367 0.959 . S
H353 C367 0.961 . S
H354 C368 0.960 . S
H355 C368 0.961 . S
H356 C368 0.959 . S
H357 C371 0.929 1_556 S
H358 C372 0.931 . S
H359 C374 0.930 . S
C360 H348 0.930 . S
C360 C361 1.399 . S
C360 C365 1.399 . S
C361 C360 1.399 . S
C361 C362 1.376 . S
C362 H349 0.930 . S
C362 C361 1.376 . S
C362 C363 1.388 . S
C363 H350 0.930 . S
C363 C362 1.388 . S
C363 C364 1.390 . S
C364 C363 1.390 . S
C364 C365 1.394 . S
C364 C370 1.465 1_556 S
C365 C360 1.399 . S
C365 C364 1.394 . S
C365 C366 1.516 1_556 S
C366 C365 1.516 1_554 S
C366 C367 1.502 . S
C366 C368 1.561 . S
C366 C369 1.526 . S
C367 H351 0.959 . S
C367 H352 0.959 . S
C367 H353 0.961 . S
C367 C366 1.502 . S
C368 H354 0.960 . S
C368 H355 0.961 . S
C368 H356 0.959 . S
C368 C366 1.561 . S
C369 C366 1.526 . S
C369 C370 1.396 . S
C369 C374 1.390 . S
C370 C364 1.465 1_554 S
C370 C369 1.396 . S
C370 C371 1.399 . S
C371 H357 0.929 1_554 S
C371 C370 1.399 . S
C371 C372 1.385 . S
C372 H358 0.931 . S
C372 C371 1.385 . S
C372 C373 1.389 . S
C373 C372 1.389 . S
C373 C374 1.387 . S
C374 H359 0.930 . S
C374 C369 1.390 . S
C374 C373 1.387 . S
H375 C387 0.930 . S
H376 C389 0.930 . S
H377 C390 0.930 . S
H378 C394 0.959 . S
H379 C394 0.959 . S
H380 C394 0.961 . S
H381 C395 0.960 . S
H382 C395 0.961 . S
H383 C395 0.959 . S
H384 C398 0.929 . S
H385 C399 0.931 . S
H386 C401 0.930 . S
C387 H375 0.930 . S
C387 C388 1.399 . S
C387 C392 1.399 . S
C388 C387 1.399 . S
C388 C389 1.376 . S
C389 H376 0.930 . S
C389 C388 1.376 . S
C389 C390 1.388 . S
C390 H377 0.930 . S
C390 C389 1.388 . S
C390 C391 1.390 . S
C391 C390 1.390 . S
C391 C392 1.394 . S
C391 C397 1.465 . S
C392 C387 1.399 . S
C392 C391 1.394 . S
C392 C393 1.516 1_655 S
C393 C392 1.516 1_455 S
C393 C394 1.502 . S
C393 C395 1.561 . S
C393 C396 1.526 . S
C394 H378 0.959 . S
C394 H379 0.959 . S
C394 H380 0.961 . S
C394 C393 1.502 . S
C395 H381 0.960 . S
C395 H382 0.961 . S
C395 H383 0.959 . S
C395 C393 1.561 . S
C396 C393 1.526 . S
C396 C397 1.396 1_455 S
C396 C401 1.390 . S
C397 C391 1.465 . S
C397 C396 1.396 1_655 S
C397 C398 1.399 . S
C398 H384 0.929 . S
C398 C397 1.399 . S
C398 C399 1.385 1_655 S
C399 H385 0.931 . S
C399 C398 1.385 1_455 S
C399 C400 1.389 . S
C400 C399 1.389 . S
C400 C401 1.387 . S
C401 H386 0.930 . S
C401 C396 1.390 . S
C401 C400 1.387 . S
H402 C414 0.930 . S
H403 C416 0.930 . S
H404 C417 0.930 . S
H405 C421 0.959 . S
H406 C421 0.959 . S
H407 C421 0.961 . S
H408 C422 0.960 . S
H409 C422 0.961 . S
H410 C422 0.959 . S
H411 C425 0.929 . S
H412 C426 0.931 . S
H413 C428 0.930 . S
C414 H402 0.930 . S
C414 C415 1.399 . S
C414 C419 1.399 . S
C415 C414 1.399 . S
C415 C416 1.376 . S
C416 H403 0.930 . S
C416 C415 1.376 . S
C416 C417 1.388 . S
C417 H404 0.930 . S
C417 C416 1.388 . S
C417 C418 1.390 . S
C418 C417 1.390 . S
C418 C419 1.394 . S
C418 C424 1.465 . S
C419 C414 1.399 . S
C419 C418 1.394 . S
C419 C420 1.516 . S
C420 C419 1.516 . S
C420 C421 1.502 . S
C420 C422 1.561 . S
C420 C423 1.526 . S
C421 H405 0.959 . S
C421 H406 0.959 . S
C421 H407 0.961 . S
C421 C420 1.502 . S
C422 H408 0.960 . S
C422 H409 0.961 . S
C422 H410 0.959 . S
C422 C420 1.561 . S
C423 C420 1.526 . S
C423 C424 1.396 . S
C423 C428 1.390 . S
C424 C418 1.465 . S
C424 C423 1.396 . S
C424 C425 1.399 . S
C425 H411 0.929 . S
C425 C424 1.399 . S
C425 C426 1.385 . S
C426 H412 0.931 . S
C426 C425 1.385 . S
C426 C427 1.389 . S
C427 C426 1.389 . S
C427 C428 1.387 . S
C428 H413 0.930 . S
C428 C423 1.390 . S
C428 C427 1.387 . S
H429 C441 0.930 . S
H430 C443 0.930 . S
H431 C444 0.930 . S
H432 C448 0.959 . S
H433 C448 0.959 . S
H434 C448 0.961 . S
H435 C449 0.960 . S
H436 C449 0.961 . S
H437 C449 0.959 . S
H438 C452 0.929 . S
H439 C453 0.931 . S
H440 C455 0.930 . S
C441 H429 0.930 . S
C441 C442 1.399 . S
C441 C446 1.399 . S
C442 C441 1.399 . S
C442 C443 1.376 . S
C443 H430 0.930 . S
C443 C442 1.376 . S
C443 C444 1.388 . S
C444 H431 0.930 . S
C444 C443 1.388 . S
C444 C445 1.390 . S
C445 C444 1.390 . S
C445 C446 1.394 . S
C445 C451 1.465 . S
C446 C441 1.399 . S
C446 C445 1.394 . S
C446 C447 1.516 . S
C447 C446 1.516 . S
C447 C448 1.502 . S
C447 C449 1.561 . S
C447 C450 1.526 . S
C448 H432 0.959 . S
C448 H433 0.959 . S
C448 H434 0.961 . S
C448 C447 1.502 . S
C449 H435 0.960 . S
C449 H436 0.961 . S
C449 H437 0.959 . S
C449 C447 1.561 . S
C450 C447 1.526 . S
C450 C451 1.396 . S
C450 C455 1.390 . S
C451 C445 1.465 . S
C451 C450 1.396 . S
C451 C452 1.399 . S
C452 H438 0.929 . S
C452 C451 1.399 . S
C452 C453 1.385 . S
C453 H439 0.931 . S
C453 C452 1.385 . S
C453 C454 1.389 . S
C454 C453 1.389 . S
C454 C455 1.387 . S
C455 H440 0.930 . S
C455 C450 1.390 . S
C455 C454 1.387 . S
H456 C468 0.930 . S
H457 C470 0.930 . S
H458 C471 0.930 . S
H459 C475 0.959 . S
H460 C475 0.959 . S
H461 C475 0.961 . S
H462 C476 0.960 . S
H463 C476 0.961 . S
H464 C476 0.959 . S
H465 C479 0.929 . S
H466 C480 0.931 . S
H467 C482 0.930 . S
C468 H456 0.930 . S
C468 C469 1.399 . S
C468 C473 1.399 . S
C469 C468 1.399 . S
C469 C470 1.376 . S
C470 H457 0.930 . S
C470 C469 1.376 . S
C470 C471 1.388 . S
C471 H458 0.930 . S
C471 C470 1.388 . S
C471 C472 1.390 . S
C472 C471 1.390 . S
C472 C473 1.394 . S
C472 C478 1.465 . S
C473 C468 1.399 . S
C473 C472 1.394 . S
C473 C474 1.516 . S
C474 C473 1.516 . S
C474 C475 1.502 . S
C474 C476 1.561 . S
C474 C477 1.526 . S
C475 H459 0.959 . S
C475 H460 0.959 . S
C475 H461 0.961 . S
C475 C474 1.502 . S
C476 H462 0.960 . S
C476 H463 0.961 . S
C476 H464 0.959 . S
C476 C474 1.561 . S
C477 C474 1.526 . S
C477 C478 1.396 . S
C477 C482 1.390 . S
C478 C472 1.465 . S
C478 C477 1.396 . S
C478 C479 1.399 . S
C479 H465 0.929 . S
C479 C478 1.399 . S
C479 C480 1.385 . S
C480 H466 0.931 . S
C480 C479 1.385 . S
C480 C481 1.389 . S
C481 C480 1.389 . S
C481 C482 1.387 . S
C482 H467 0.930 . S
C482 C477 1.390 . S
C482 C481 1.387 . S
H483 C495 0.930 . S
H484 C497 0.930 . S
H485 C498 0.930 . S
H486 C502 0.959 . S
H487 C502 0.959 . S
H488 C502 0.961 . S
H489 C503 0.960 . S
H490 C503 0.961 . S
H491 C503 0.959 . S
H492 C506 0.929 . S
H493 C507 0.931 . S
H494 C509 0.930 . S
C495 H483 0.930 . S
C495 C496 1.399 . S
C495 C500 1.399 . S
C496 C495 1.399 . S
C496 C497 1.376 . S
C497 H484 0.930 . S
C497 C496 1.376 . S
C497 C498 1.388 . S
C498 H485 0.930 . S
C498 C497 1.388 . S
C498 C499 1.390 . S
C499 C498 1.390 . S
C499 C500 1.394 . S
C499 C505 1.465 . S
C500 C495 1.399 . S
C500 C499 1.394 . S
C500 C501 1.516 . S
C501 C500 1.516 . S
C501 C502 1.502 . S
C501 C503 1.561 . S
C501 C504 1.526 . S
C502 H486 0.959 . S
C502 H487 0.959 . S
C502 H488 0.961 . S
C502 C501 1.502 . S
C503 H489 0.960 . S
C503 H490 0.961 . S
C503 H491 0.959 . S
C503 C501 1.561 . S
C504 C501 1.526 . S
C504 C505 1.396 . S
C504 C509 1.390 . S
C505 C499 1.465 . S
C505 C504 1.396 . S
C505 C506 1.399 . S
C506 H492 0.929 . S
C506 C505 1.399 . S
C506 C507 1.385 . S
C507 H493 0.931 . S
C507 C506 1.385 . S
C507 C508 1.389 . S
C508 C507 1.389 . S
C508 C509 1.387 . S
C509 H494 0.930 . S
C509 C504 1.390 . S
C509 C508 1.387 . S
H510 C522 0.930 . S
H511 C524 0.930 . S
H512 C525 0.930 . S
H513 C529 0.959 . S
H514 C529 0.959 . S
H515 C529 0.961 . S
H516 C530 0.960 . S
H517 C530 0.961 . S
H518 C530 0.959 . S
H519 C533 0.929 . S
H520 C534 0.931 . S
H521 C536 0.930 . S
C522 H510 0.930 . S
C522 C523 1.399 . S
C522 C527 1.399 . S
C523 C522 1.399 . S
C523 C524 1.376 . S
C524 H511 0.930 . S
C524 C523 1.376 . S
C524 C525 1.388 . S
C525 H512 0.930 . S
C525 C524 1.388 . S
C525 C526 1.390 . S
C526 C525 1.390 . S
C526 C527 1.394 . S
C526 C532 1.465 . S
C527 C522 1.399 . S
C527 C526 1.394 . S
C527 C528 1.516 . S
C528 C527 1.516 . S
C528 C529 1.502 . S
C528 C530 1.561 . S
C528 C531 1.526 . S
C529 H513 0.959 . S
C529 H514 0.959 . S
C529 H515 0.961 . S
C529 C528 1.502 . S
C530 H516 0.960 . S
C530 H517 0.961 . S
C530 H518 0.959 . S
C530 C528 1.561 . S
C531 C528 1.526 . S
C531 C532 1.396 . S
C531 C536 1.390 . S
C532 C526 1.465 . S
C532 C531 1.396 . S
C532 C533 1.399 . S
C533 H519 0.929 . S
C533 C532 1.399 . S
C533 C534 1.385 . S
C534 H520 0.931 . S
C534 C533 1.385 . S
C534 C535 1.389 . S
C535 C534 1.389 . S
C535 C536 1.387 . S
C536 H521 0.930 . S
C536 C531 1.390 . S
C536 C535 1.387 . S
H537 C549 0.930 . S
H538 C551 0.930 . S
H539 C552 0.930 . S
H540 C556 0.959 . S
H541 C556 0.959 . S
H542 C556 0.961 . S
H543 C557 0.960 . S
H544 C557 0.961 . S
H545 C557 0.959 . S
H546 C560 0.929 . S
H547 C561 0.931 . S
H548 C563 0.930 . S
C549 H537 0.930 . S
C549 C550 1.399 . S
C549 C554 1.399 . S
C550 C549 1.399 . S
C550 C551 1.376 . S
C551 H538 0.930 . S
C551 C550 1.376 . S
C551 C552 1.388 . S
C552 H539 0.930 . S
C552 C551 1.388 . S
C552 C553 1.390 . S
C553 C552 1.390 . S
C553 C554 1.394 . S
C553 C559 1.465 . S
C554 C549 1.399 . S
C554 C553 1.394 . S
C554 C555 1.516 . S
C555 C554 1.516 . S
C555 C556 1.502 . S
C555 C557 1.561 . S
C555 C558 1.526 . S
C556 H540 0.959 . S
C556 H541 0.959 . S
C556 H542 0.961 . S
C556 C555 1.502 . S
C557 H543 0.960 . S
C557 H544 0.961 . S
C557 H545 0.959 . S
C557 C555 1.561 . S
C558 C555 1.526 . S
C558 C559 1.396 . S
C558 C563 1.390 . S
C559 C553 1.465 . S
C559 C558 1.396 . S
C559 C560 1.399 . S
C560 H546 0.929 . S
C560 C559 1.399 . S
C560 C561 1.385 . S
C561 H547 0.931 . S
C561 C560 1.385 . S
C561 C562 1.389 . S
C562 C561 1.389 . S
C562 C563 1.387 . S
C563 H548 0.930 . S
C563 C558 1.390 . S
C563 C562 1.387 . S
H564 C576 0.930 . S
H565 C578 0.930 . S
H566 C579 0.930 . S
H567 C583 0.959 . S
H568 C583 0.959 . S
H569 C583 0.961 . S
H570 C584 0.960 . S
H571 C584 0.961 . S
H572 C584 0.959 . S
H573 C587 0.929 . S
H574 C588 0.931 . S
H575 C590 0.930 . S
C576 H564 0.930 . S
C576 C577 1.399 . S
C576 C581 1.399 . S
C577 C576 1.399 . S
C577 C578 1.376 . S
C578 H565 0.930 . S
C578 C577 1.376 . S
C578 C579 1.388 . S
C579 H566 0.930 . S
C579 C578 1.388 . S
C579 C580 1.390 . S
C580 C579 1.390 . S
C580 C581 1.394 . S
C580 C586 1.465 . S
C581 C576 1.399 . S
C581 C580 1.394 . S
C581 C582 1.516 . S
C582 C581 1.516 . S
C582 C583 1.502 . S
C582 C584 1.561 . S
C582 C585 1.526 . S
C583 H567 0.959 . S
C583 H568 0.959 . S
C583 H569 0.961 . S
C583 C582 1.502 . S
C584 H570 0.960 . S
C584 H571 0.961 . S
C584 H572 0.959 . S
C584 C582 1.561 . S
C585 C582 1.526 . S
C585 C586 1.396 . S
C585 C590 1.390 . S
C586 C580 1.465 . S
C586 C585 1.396 . S
C586 C587 1.399 1_455 S
C587 H573 0.929 . S
C587 C586 1.399 1_655 S
C587 C588 1.385 . S
C588 H574 0.931 . S
C588 C587 1.385 . S
C588 C589 1.389 . S
C589 C588 1.389 . S
C589 C590 1.387 1_655 S
C590 H575 0.930 . S
C590 C585 1.390 . S
C590 C589 1.387 1_455 S
H591 C603 0.930 . S
H592 C605 0.930 . S
H593 C606 0.930 . S
H594 C610 0.959 . S
H595 C610 0.959 . S
H596 C610 0.961 . S
H597 C611 0.960 . S
H598 C611 0.961 . S
H599 C611 0.959 . S
H600 C614 0.929 . S
H601 C615 0.931 . S
H602 C617 0.930 . S
C603 H591 0.930 . S
C603 C604 1.399 . S
C603 C608 1.399 . S
C604 C603 1.399 . S
C604 C605 1.376 . S
C605 H592 0.930 . S
C605 C604 1.376 . S
C605 C606 1.388 . S
C606 H593 0.930 . S
C606 C605 1.388 . S
C606 C607 1.390 . S
C607 C606 1.390 . S
C607 C608 1.394 . S
C607 C613 1.465 . S
C608 C603 1.399 . S
C608 C607 1.394 . S
C608 C609 1.516 . S
C609 C608 1.516 . S
C609 C610 1.502 1_565 S
C609 C611 1.561 . S
C609 C612 1.526 . S
C610 H594 0.959 . S
C610 H595 0.959 . S
C610 H596 0.961 . S
C610 C609 1.502 1_545 S
C611 H597 0.960 . S
C611 H598 0.961 . S
C611 H599 0.959 . S
C611 C609 1.561 . S
C612 C609 1.526 . S
C612 C613 1.396 . S
C612 C617 1.390 1_565 S
C613 C607 1.465 . S
C613 C612 1.396 . S
C613 C614 1.399 . S
C614 H600 0.929 . S
C614 C613 1.399 . S
C614 C615 1.385 . S
C615 H601 0.931 . S
C615 C614 1.385 . S
C615 C616 1.389 1_565 S
C616 C615 1.389 1_545 S
C616 C617 1.387 . S
C617 H602 0.930 . S
C617 C612 1.390 1_545 S
C617 C616 1.387 . S
H618 C630 0.930 . S
H619 C632 0.930 . S
H620 C633 0.930 . S
H621 C637 0.959 . S
H622 C637 0.959 . S
H623 C637 0.961 . S
H624 C638 0.960 . S
H625 C638 0.961 . S
H626 C638 0.959 . S
H627 C641 0.929 . S
H628 C642 0.931 . S
H629 C644 0.930 . S
C630 H618 0.930 . S
C630 C631 1.399 . S
C630 C635 1.399 . S
C631 C630 1.399 . S
C631 C632 1.376 . S
C632 H619 0.930 . S
C632 C631 1.376 . S
C632 C633 1.388 . S
C633 H620 0.930 . S
C633 C632 1.388 . S
C633 C634 1.390 . S
C634 C633 1.390 . S
C634 C635 1.394 . S
C634 C640 1.465 . S
C635 C630 1.399 . S
C635 C634 1.394 . S
C635 C636 1.516 . S
C636 C635 1.516 . S
C636 C637 1.502 . S
C636 C638 1.561 . S
C636 C639 1.526 . S
C637 H621 0.959 . S
C637 H622 0.959 . S
C637 H623 0.961 . S
C637 C636 1.502 . S
C638 H624 0.960 . S
C638 H625 0.961 . S
C638 H626 0.959 . S
C638 C636 1.561 . S
C639 C636 1.526 . S
C639 C640 1.396 . S
C639 C644 1.390 . S
C640 C634 1.465 . S
C640 C639 1.396 . S
C640 C641 1.399 . S
C641 H627 0.929 . S
C641 C640 1.399 . S
C641 C642 1.385 . S
C642 H628 0.931 . S
C642 C641 1.385 . S
C642 C643 1.389 . S
C643 C642 1.389 . S
C643 C644 1.387 . S
C644 H629 0.930 . S
C644 C639 1.390 . S
C644 C643 1.387 . S
H645 C657 0.930 . S
H646 C659 0.930 . S
H647 C660 0.930 . S
H648 C664 0.959 1_565 S
H649 C664 0.959 . S
H650 C664 0.961 . S
H651 C665 0.960 . S
H652 C665 0.961 . S
H653 C665 0.959 . S
H654 C668 0.929 . S
H655 C669 0.931 . S
H656 C671 0.930 1_565 S
C657 H645 0.930 . S
C657 C658 1.399 . S
C657 C662 1.399 . S
C658 C657 1.399 . S
C658 C659 1.376 . S
C659 H646 0.930 . S
C659 C658 1.376 . S
C659 C660 1.388 . S
C660 H647 0.930 . S
C660 C659 1.388 . S
C660 C661 1.390 . S
C661 C660 1.390 . S
C661 C662 1.394 . S
C661 C667 1.465 . S
C662 C657 1.399 . S
C662 C661 1.394 . S
C662 C663 1.516 . S
C663 C662 1.516 . S
C663 C664 1.502 . S
C663 C665 1.561 . S
C663 C666 1.526 . S
C664 H648 0.959 1_545 S
C664 H649 0.959 . S
C664 H650 0.961 . S
C664 C663 1.502 . S
C665 H651 0.960 . S
C665 H652 0.961 . S
C665 H653 0.959 . S
C665 C663 1.561 . S
C666 C663 1.526 . S
C666 C667 1.396 . S
C666 C671 1.390 . S
C667 C661 1.465 . S
C667 C666 1.396 . S
C667 C668 1.399 . S
C668 H654 0.929 . S
C668 C667 1.399 . S
C668 C669 1.385 1_545 S
C669 H655 0.931 . S
C669 C668 1.385 1_565 S
C669 C670 1.389 . S
C670 C669 1.389 . S
C670 C671 1.387 1_565 S
C671 H656 0.930 1_545 S
C671 C666 1.390 . S
C671 C670 1.387 1_545 S
H672 C684 0.930 . S
H673 C686 0.930 . S
H674 C687 0.930 . S
H675 C691 0.959 . S
H676 C691 0.959 . S
H677 C691 0.961 . S
H678 C692 0.960 . S
H679 C692 0.961 . S
H680 C692 0.959 . S
H681 C695 0.929 . S
H682 C696 0.931 . S
H683 C698 0.930 . S
C684 H672 0.930 . S
C684 C685 1.399 . S
C684 C689 1.399 . S
C685 C684 1.399 . S
C685 C686 1.376 . S
C686 H673 0.930 . S
C686 C685 1.376 . S
C686 C687 1.388 . S
C687 H674 0.930 . S
C687 C686 1.388 . S
C687 C688 1.390 . S
C688 C687 1.390 . S
C688 C689 1.394 . S
C688 C694 1.465 . S
C689 C684 1.399 . S
C689 C688 1.394 . S
C689 C690 1.516 . S
C690 C689 1.516 . S
C690 C691 1.502 . S
C690 C692 1.561 . S
C690 C693 1.526 . S
C691 H675 0.959 . S
C691 H676 0.959 . S
C691 H677 0.961 . S
C691 C690 1.502 . S
C692 H678 0.960 . S
C692 H679 0.961 . S
C692 H680 0.959 . S
C692 C690 1.561 . S
C693 C690 1.526 . S
C693 C694 1.396 . S
C693 C698 1.390 . S
C694 C688 1.465 . S
C694 C693 1.396 . S
C694 C695 1.399 . S
C695 H681 0.929 . S
C695 C694 1.399 . S
C695 C696 1.385 . S
C696 H682 0.931 . S
C696 C695 1.385 . S
C696 C697 1.389 . S
C697 C696 1.389 . S
C697 C698 1.387 . S
C698 H683 0.930 . S
C698 C693 1.390 . S
C698 C697 1.387 . S
H699 C711 0.930 . S
H700 C713 0.930 . S
H701 C714 0.930 . S
H702 C718 0.959 . S
H703 C718 0.959 . S
H704 C718 0.961 . S
H705 C719 0.960 . S
H706 C719 0.961 . S
H707 C719 0.959 . S
H708 C722 0.929 . S
H709 C723 0.931 . S
H710 C725 0.930 . S
C711 H699 0.930 . S
C711 C712 1.399 . S
C711 C716 1.399 1_455 S
C712 C711 1.399 . S
C712 C713 1.376 1_455 S
C713 H700 0.930 . S
C713 C712 1.376 1_655 S
C713 C714 1.388 . S
C714 H701 0.930 . S
C714 C713 1.388 . S
C714 C715 1.390 . S
C715 C714 1.390 . S
C715 C716 1.394 . S
C715 C721 1.465 . S
C716 C711 1.399 1_655 S
C716 C715 1.394 . S
C716 C717 1.516 . S
C717 C716 1.516 . S
C717 C718 1.502 1_655 S
C717 C719 1.561 . S
C717 C720 1.526 . S
C718 H702 0.959 . S
C718 H703 0.959 . S
C718 H704 0.961 . S
C718 C717 1.502 1_455 S
C719 H705 0.960 . S
C719 H706 0.961 . S
C719 H707 0.959 . S
C719 C717 1.561 . S
C720 C717 1.526 . S
C720 C721 1.396 . S
C720 C725 1.390 . S
C721 C715 1.465 . S
C721 C720 1.396 . S
C721 C722 1.399 . S
C722 H708 0.929 . S
C722 C721 1.399 . S
C722 C723 1.385 . S
C723 H709 0.931 . S
C723 C722 1.385 . S
C723 C724 1.389 . S
C724 C723 1.389 . S
C724 C725 1.387 . S
C725 H710 0.930 . S
C725 C720 1.390 . S
C725 C724 1.387 . S
C253 C183 2.315 . S
C265 C23 2.261 . S
C280 C202 2.523 . S
C292 C42 2.472 . S
C307 C103 2.297 . S
C319 C143 2.295 . S
C334 C2 2.524 . S
C346 C162 2.486 . S
C361 C223 2.241 . S
C373 C63 2.288 . S
C388 C82 2.518 . S
C400 C122 2.465 . S
C415 C17 1.817 . S
C427 C104 1.792 . S
C442 C57 1.777 . S
C454 C24 1.827 . S
C469 C97 1.779 . S
C481 C64 1.826 . S
C496 C137 1.768 . S
C508 C184 1.836 . S
C523 C177 1.817 . S
C535 C224 1.792 . S
C550 C144 1.780 . S
C562 C217 1.828 . S
C577 C26 1.080 . S
C589 C93 0.984 . S
C604 C66 0.986 1_455 S
C616 C13 1.076 . S
C631 C106 0.998 1_565 S
C643 C53 1.061 . S
C658 C146 1.019 . S
C670 C173 1.049 . S
C685 C186 1.004 1_655 S
C697 C213 1.054 . S
C712 C133 1.060 . S
C724 C226 1.005 1_545 S
