# Generated by pormake.
# Topology vcf, (6)-cn, num edge types: 1
# Building blocks:
#     Node 0, Type 0, BuildingBlock: IZENUY_clean_sbu_0, # of connection points: 6
#     Node 1, Type 0, BuildingBlock: IZENUY_clean_sbu_0, # of connection points: 6
#     Node 2, Type 0, BuildingBlock: IZENUY_clean_sbu_0, # of connection points: 6
#     Node 3, Type 0, BuildingBlock: IZENUY_clean_sbu_0, # of connection points: 6
#     Node 4, Type 0, BuildingBlock: IZENUY_clean_sbu_0, # of connection points: 6
#     Node 5, Type 0, BuildingBlock: IZENUY_clean_sbu_0, # of connection points: 6
#     Node 6, Type 0, BuildingBlock: IZENUY_clean_sbu_0, # of connection points: 6
#     Node 7, Type 0, BuildingBlock: IZENUY_clean_sbu_0, # of connection points: 6
#     Node 8, Type 0, BuildingBlock: IZENUY_clean_sbu_0, # of connection points: 6
#     Node 9, Type 0, BuildingBlock: IZENUY_clean_sbu_0, # of connection points: 6
#     Node 10, Type 0, BuildingBlock: IZENUY_clean_sbu_0, # of connection points: 6
#     Node 11, Type 0, BuildingBlock: IZENUY_clean_sbu_0, # of connection points: 6
#     Node 12, Type 0, BuildingBlock: IZENUY_clean_sbu_0, # of connection points: 6
#     Node 13, Type 0, BuildingBlock: IZENUY_clean_sbu_0, # of connection points: 6
#     Node 14, Type 0, BuildingBlock: IZENUY_clean_sbu_0, # of connection points: 6
#     Node 15, Type 0, BuildingBlock: IZENUY_clean_sbu_0, # of connection points: 6
#     Node 16, Type 0, BuildingBlock: IZENUY_clean_sbu_0, # of connection points: 6
#     Node 17, Type 0, BuildingBlock: IZENUY_clean_sbu_0, # of connection points: 6
#     Node 18, Type 0, BuildingBlock: IZENUY_clean_sbu_0, # of connection points: 6
#     Node 19, Type 0, BuildingBlock: IZENUY_clean_sbu_0, # of connection points: 6
#     Node 20, Type 0, BuildingBlock: IZENUY_clean_sbu_0, # of connection points: 6
#     Node 21, Type 0, BuildingBlock: IZENUY_clean_sbu_0, # of connection points: 6
#     Node 22, Type 0, BuildingBlock: IZENUY_clean_sbu_0, # of connection points: 6
#     Node 23, Type 0, BuildingBlock: IZENUY_clean_sbu_0, # of connection points: 6
#     Node 24, Type 0, BuildingBlock: IZENUY_clean_sbu_0, # of connection points: 6
#     Node 25, Type 0, BuildingBlock: IZENUY_clean_sbu_0, # of connection points: 6
#     Node 26, Type 0, BuildingBlock: IZENUY_clean_sbu_0, # of connection points: 6
#     Node 27, Type 0, BuildingBlock: IZENUY_clean_sbu_0, # of connection points: 6
#     Node 28, Type 0, BuildingBlock: IZENUY_clean_sbu_0, # of connection points: 6
#     Node 29, Type 0, BuildingBlock: IZENUY_clean_sbu_0, # of connection points: 6
#     Node 30, Type 0, BuildingBlock: IZENUY_clean_sbu_0, # of connection points: 6
#     Node 31, Type 0, BuildingBlock: IZENUY_clean_sbu_0, # of connection points: 6
#     Edge 32, Type (0, 0), BuildingBlock: KIFKEQ_clean_linker_1, # of connection points: 2
#     Edge 33, Type (0, 0), BuildingBlock: KIFKEQ_clean_linker_1, # of connection points: 2
#     Edge 34, Type (0, 0), BuildingBlock: KIFKEQ_clean_linker_1, # of connection points: 2
#     Edge 35, Type (0, 0), BuildingBlock: KIFKEQ_clean_linker_1, # of connection points: 2
#     Edge 36, Type (0, 0), BuildingBlock: KIFKEQ_clean_linker_1, # of connection points: 2
#     Edge 37, Type (0, 0), BuildingBlock: KIFKEQ_clean_linker_1, # of connection points: 2
#     Edge 38, Type (0, 0), BuildingBlock: KIFKEQ_clean_linker_1, # of connection points: 2
#     Edge 39, Type (0, 0), BuildingBlock: KIFKEQ_clean_linker_1, # of connection points: 2
#     Edge 40, Type (0, 0), BuildingBlock: KIFKEQ_clean_linker_1, # of connection points: 2
#     Edge 41, Type (0, 0), BuildingBlock: KIFKEQ_clean_linker_1, # of connection points: 2
#     Edge 42, Type (0, 0), BuildingBlock: KIFKEQ_clean_linker_1, # of connection points: 2
#     Edge 43, Type (0, 0), BuildingBlock: KIFKEQ_clean_linker_1, # of connection points: 2
#     Edge 44, Type (0, 0), BuildingBlock: KIFKEQ_clean_linker_1, # of connection points: 2
#     Edge 45, Type (0, 0), BuildingBlock: KIFKEQ_clean_linker_1, # of connection points: 2
#     Edge 46, Type (0, 0), BuildingBlock: KIFKEQ_clean_linker_1, # of connection points: 2
#     Edge 47, Type (0, 0), BuildingBlock: KIFKEQ_clean_linker_1, # of connection points: 2
#     Edge 48, Type (0, 0), BuildingBlock: KIFKEQ_clean_linker_1, # of connection points: 2
#     Edge 49, Type (0, 0), BuildingBlock: KIFKEQ_clean_linker_1, # of connection points: 2
#     Edge 50, Type (0, 0), BuildingBlock: KIFKEQ_clean_linker_1, # of connection points: 2
#     Edge 51, Type (0, 0), BuildingBlock: KIFKEQ_clean_linker_1, # of connection points: 2
#     Edge 52, Type (0, 0), BuildingBlock: KIFKEQ_clean_linker_1, # of connection points: 2
#     Edge 53, Type (0, 0), BuildingBlock: KIFKEQ_clean_linker_1, # of connection points: 2
#     Edge 54, Type (0, 0), BuildingBlock: KIFKEQ_clean_linker_1, # of connection points: 2
#     Edge 55, Type (0, 0), BuildingBlock: KIFKEQ_clean_linker_1, # of connection points: 2
#     Edge 56, Type (0, 0), BuildingBlock: KIFKEQ_clean_linker_1, # of connection points: 2
#     Edge 57, Type (0, 0), BuildingBlock: KIFKEQ_clean_linker_1, # of connection points: 2
#     Edge 58, Type (0, 0), BuildingBlock: KIFKEQ_clean_linker_1, # of connection points: 2
#     Edge 59, Type (0, 0), BuildingBlock: KIFKEQ_clean_linker_1, # of connection points: 2
#     Edge 60, Type (0, 0), BuildingBlock: KIFKEQ_clean_linker_1, # of connection points: 2
#     Edge 61, Type (0, 0), BuildingBlock: KIFKEQ_clean_linker_1, # of connection points: 2
#     Edge 62, Type (0, 0), BuildingBlock: KIFKEQ_clean_linker_1, # of connection points: 2
#     Edge 63, Type (0, 0), BuildingBlock: KIFKEQ_clean_linker_1, # of connection points: 2
#     Edge 64, Type (0, 0), BuildingBlock: KIFKEQ_clean_linker_1, # of connection points: 2
#     Edge 65, Type (0, 0), BuildingBlock: KIFKEQ_clean_linker_1, # of connection points: 2
#     Edge 66, Type (0, 0), BuildingBlock: KIFKEQ_clean_linker_1, # of connection points: 2
#     Edge 67, Type (0, 0), BuildingBlock: KIFKEQ_clean_linker_1, # of connection points: 2
#     Edge 68, Type (0, 0), BuildingBlock: KIFKEQ_clean_linker_1, # of connection points: 2
#     Edge 69, Type (0, 0), BuildingBlock: KIFKEQ_clean_linker_1, # of connection points: 2
#     Edge 70, Type (0, 0), BuildingBlock: KIFKEQ_clean_linker_1, # of connection points: 2
#     Edge 71, Type (0, 0), BuildingBlock: KIFKEQ_clean_linker_1, # of connection points: 2
#     Edge 72, Type (0, 0), BuildingBlock: KIFKEQ_clean_linker_1, # of connection points: 2
#     Edge 73, Type (0, 0), BuildingBlock: KIFKEQ_clean_linker_1, # of connection points: 2
#     Edge 74, Type (0, 0), BuildingBlock: KIFKEQ_clean_linker_1, # of connection points: 2
#     Edge 75, Type (0, 0), BuildingBlock: KIFKEQ_clean_linker_1, # of connection points: 2
#     Edge 76, Type (0, 0), BuildingBlock: KIFKEQ_clean_linker_1, # of connection points: 2
#     Edge 77, Type (0, 0), BuildingBlock: KIFKEQ_clean_linker_1, # of connection points: 2
#     Edge 78, Type (0, 0), BuildingBlock: KIFKEQ_clean_linker_1, # of connection points: 2
#     Edge 79, Type (0, 0), BuildingBlock: KIFKEQ_clean_linker_1, # of connection points: 2
#     Edge 80, Type (0, 0), BuildingBlock: KIFKEQ_clean_linker_1, # of connection points: 2
#     Edge 81, Type (0, 0), BuildingBlock: KIFKEQ_clean_linker_1, # of connection points: 2
#     Edge 82, Type (0, 0), BuildingBlock: KIFKEQ_clean_linker_1, # of connection points: 2
#     Edge 83, Type (0, 0), BuildingBlock: KIFKEQ_clean_linker_1, # of connection points: 2
#     Edge 84, Type (0, 0), BuildingBlock: KIFKEQ_clean_linker_1, # of connection points: 2
#     Edge 85, Type (0, 0), BuildingBlock: KIFKEQ_clean_linker_1, # of connection points: 2
#     Edge 86, Type (0, 0), BuildingBlock: KIFKEQ_clean_linker_1, # of connection points: 2
#     Edge 87, Type (0, 0), BuildingBlock: KIFKEQ_clean_linker_1, # of connection points: 2
#     Edge 88, Type (0, 0), BuildingBlock: KIFKEQ_clean_linker_1, # of connection points: 2
#     Edge 89, Type (0, 0), BuildingBlock: KIFKEQ_clean_linker_1, # of connection points: 2
#     Edge 90, Type (0, 0), BuildingBlock: KIFKEQ_clean_linker_1, # of connection points: 2
#     Edge 91, Type (0, 0), BuildingBlock: KIFKEQ_clean_linker_1, # of connection points: 2
#     Edge 92, Type (0, 0), BuildingBlock: KIFKEQ_clean_linker_1, # of connection points: 2
#     Edge 93, Type (0, 0), BuildingBlock: KIFKEQ_clean_linker_1, # of connection points: 2
#     Edge 94, Type (0, 0), BuildingBlock: KIFKEQ_clean_linker_1, # of connection points: 2
#     Edge 95, Type (0, 0), BuildingBlock: KIFKEQ_clean_linker_1, # of connection points: 2
#     Edge 96, Type (0, 0), BuildingBlock: KIFKEQ_clean_linker_1, # of connection points: 2
#     Edge 97, Type (0, 0), BuildingBlock: KIFKEQ_clean_linker_1, # of connection points: 2
#     Edge 98, Type (0, 0), BuildingBlock: KIFKEQ_clean_linker_1, # of connection points: 2
#     Edge 99, Type (0, 0), BuildingBlock: KIFKEQ_clean_linker_1, # of connection points: 2
#     Edge 100, Type (0, 0), BuildingBlock: KIFKEQ_clean_linker_1, # of connection points: 2
#     Edge 101, Type (0, 0), BuildingBlock: KIFKEQ_clean_linker_1, # of connection points: 2
#     Edge 102, Type (0, 0), BuildingBlock: KIFKEQ_clean_linker_1, # of connection points: 2
#     Edge 103, Type (0, 0), BuildingBlock: KIFKEQ_clean_linker_1, # of connection points: 2
#     Edge 104, Type (0, 0), BuildingBlock: KIFKEQ_clean_linker_1, # of connection points: 2
#     Edge 105, Type (0, 0), BuildingBlock: KIFKEQ_clean_linker_1, # of connection points: 2
#     Edge 106, Type (0, 0), BuildingBlock: KIFKEQ_clean_linker_1, # of connection points: 2
#     Edge 107, Type (0, 0), BuildingBlock: KIFKEQ_clean_linker_1, # of connection points: 2
#     Edge 108, Type (0, 0), BuildingBlock: KIFKEQ_clean_linker_1, # of connection points: 2
#     Edge 109, Type (0, 0), BuildingBlock: KIFKEQ_clean_linker_1, # of connection points: 2
#     Edge 110, Type (0, 0), BuildingBlock: KIFKEQ_clean_linker_1, # of connection points: 2
#     Edge 111, Type (0, 0), BuildingBlock: KIFKEQ_clean_linker_1, # of connection points: 2
#     Edge 112, Type (0, 0), BuildingBlock: KIFKEQ_clean_linker_1, # of connection points: 2
#     Edge 113, Type (0, 0), BuildingBlock: KIFKEQ_clean_linker_1, # of connection points: 2
#     Edge 114, Type (0, 0), BuildingBlock: KIFKEQ_clean_linker_1, # of connection points: 2
#     Edge 115, Type (0, 0), BuildingBlock: KIFKEQ_clean_linker_1, # of connection points: 2
#     Edge 116, Type (0, 0), BuildingBlock: KIFKEQ_clean_linker_1, # of connection points: 2
#     Edge 117, Type (0, 0), BuildingBlock: KIFKEQ_clean_linker_1, # of connection points: 2
#     Edge 118, Type (0, 0), BuildingBlock: KIFKEQ_clean_linker_1, # of connection points: 2
#     Edge 119, Type (0, 0), BuildingBlock: KIFKEQ_clean_linker_1, # of connection points: 2
#     Edge 120, Type (0, 0), BuildingBlock: KIFKEQ_clean_linker_1, # of connection points: 2
#     Edge 121, Type (0, 0), BuildingBlock: KIFKEQ_clean_linker_1, # of connection points: 2
#     Edge 122, Type (0, 0), BuildingBlock: KIFKEQ_clean_linker_1, # of connection points: 2
#     Edge 123, Type (0, 0), BuildingBlock: KIFKEQ_clean_linker_1, # of connection points: 2
#     Edge 124, Type (0, 0), BuildingBlock: KIFKEQ_clean_linker_1, # of connection points: 2
#     Edge 125, Type (0, 0), BuildingBlock: KIFKEQ_clean_linker_1, # of connection points: 2
#     Edge 126, Type (0, 0), BuildingBlock: KIFKEQ_clean_linker_1, # of connection points: 2
#     Edge 127, Type (0, 0), BuildingBlock: KIFKEQ_clean_linker_1, # of connection points: 2
# Relax obj value: 0.263
# Max RMSD: 0.251
# Mean RMSD: 0.250
data_MOF--net-vcf--node1-IZENUY_clean_sbu_0--edge1-KIFKEQ_clean_linker_1
_symmetry_space_group_name_H-M    P1
_symmetry_Int_Tables_number       1
_symmetry_cell_setting            triclinic
loop_
_symmetry_equiv_pos_as_xyz
'x, y, z'
_cell_length_a     42.873804
_cell_length_b     36.323294
_cell_length_c     87.825284
_cell_angle_alpha  90.018039
_cell_angle_beta   90.001318
_cell_angle_gamma 89.778452
loop_
_atom_site_label
_atom_site_type_symbol
_atom_site_fract_x
_atom_site_fract_y
_atom_site_fract_z
_atom_type_partial_charge
Fe0 Fe 0.02981 0.27302 0.0739 0.0
Fe1 Fe 0.05626 0.35196 0.07133 0.0
O2 O 0.0477 0.30855 0.06296 0.0
Fe3 Fe 0.05667 0.30085 0.04345 0.0
O4 O 0.02481 0.26889 0.03987 0.0
O5 O 0.99684 0.26883 0.06076 0.0
O6 O 1.00544 0.30416 0.08536 0.0
C7 C 0.99771 0.33734 0.08304 0.0
C8 C 0.07478 0.23549 0.05583 0.0
O9 O 0.01575 0.35906 0.07622 0.0
C10 C 0.10738 0.34588 0.05297 0.0
O11 O 0.06117 0.27335 0.08798 0.0
O12 O 0.06571 0.33339 0.09015 0.0
O13 O 0.08287 0.2635 0.04832 0.0
O14 O 0.05086 0.23591 0.06428 0.0
C15 C 0.03283 0.37045 0.04234 0.0
O16 O 0.09775 0.34935 0.06653 0.0
O17 O 0.09029 0.3313 0.04297 0.0
C18 C 0.07168 0.30121 0.09486 0.0
O19 O 0.04813 0.37806 0.05418 0.0
O20 O 0.031 0.33795 0.03734 0.0
C21 C 0.99951 0.26243 0.04667 0.0
Fe22 Fe 0.20852 0.93222 0.04087 0.0
Fe23 Fe 0.23698 0.96049 0.07081 0.0
O24 O 0.21958 0.92432 0.06011 0.0
Fe25 Fe 0.21361 0.88033 0.06846 0.0
O26 O 0.22187 0.85529 0.05104 0.0
O27 O 0.23534 0.897 0.03399 0.0
O28 O 0.23844 0.96664 0.03693 0.0
C29 C 0.26425 0.97376 0.04314 0.0
C30 C 0.1609 0.8839 0.05109 0.0
O31 O 0.26882 0.96593 0.057 0.0
C32 C 0.19733 0.92999 0.09225 0.0
O33 O 0.18104 0.96765 0.0466 0.0
O34 O 0.214 -0.00338 0.06164 0.0
O35 O 0.17187 0.8804 0.06437 0.0
O36 O 0.1764 0.89957 0.04078 0.0
C37 C 0.27196 0.89805 0.07953 0.0
O38 O 0.20663 0.95849 0.08538 0.0
O39 O 0.2044 0.89815 0.08745 0.0
C40 C 0.189 -0.00406 0.05398 0.0
O41 O 0.26306 0.93074 0.08188 0.0
O42 O 0.25465 0.87545 0.07277 0.0
C43 C 0.23573 0.86432 0.03894 0.0
Fe44 Fe 0.03255 0.96242 0.21211 0.0
Fe45 Fe 0.05575 0.88175 0.21406 0.0
O46 O 0.04961 0.92555 0.22272 0.0
Fe47 Fe 0.06034 0.93243 0.24211 0.0
O48 O 0.0297 0.96611 0.2463 0.0
O49 O 1.00069 0.96839 0.22574 0.0
O50 O 1.00604 0.93324 0.201 0.0
C51 C 0.99736 0.90036 0.20306 0.0
C52 C 0.0798 -0.00272 0.22974 0.0
O53 O 0.01481 0.87729 0.20957 0.0
C54 C 0.10841 0.88434 0.23155 0.0
O55 O 0.063 0.96024 0.19754 0.0
O56 O 0.065 0.89999 0.19522 0.0
O57 O 0.08747 0.96858 0.23698 0.0
O58 O 0.0556 -0.00191 0.22148 0.0
C59 C 0.03385 0.86421 0.24347 0.0
O60 O 0.09744 0.88152 0.21825 0.0
O61 O 0.09295 0.8999 0.24195 0.0
C62 C 0.07226 0.93177 0.19058 0.0
O63 O 0.04745 0.85584 0.23122 0.0
O64 O 0.03395 0.89666 0.24863 0.0
C65 C 1.00433 0.97431 0.23981 0.0
Fe66 Fe 0.21725 0.30047 0.24437 0.0
Fe67 Fe 0.2389 0.26814 0.21361 0.0
O68 O 0.22339 0.30565 0.22442 0.0
Fe69 Fe 0.21437 0.34859 0.21565 0.0
O70 O 0.22695 0.37564 0.23186 0.0
O71 O 0.2458 0.33624 0.24866 0.0
O72 O 0.24764 0.26631 0.24748 0.0
C73 C 0.27191 0.25804 0.2402 0.0
C74 C 0.16728 0.34851 0.23639 0.0
O75 O 0.27314 0.26298 0.22598 0.0
C76 C 0.19481 0.29662 0.19341 0.0
O77 O 0.18859 0.26444 0.24108 0.0
O78 O 0.21726 0.23364 0.22436 0.0
O79 O 0.17382 0.34853 0.22236 0.0
O80 O 0.18571 0.33384 0.24576 0.0
C81 C 0.27101 0.3301 0.20213 0.0
O82 O 0.20642 0.26891 0.20006 0.0
O83 O 0.20077 0.32892 0.19781 0.0
C84 C 0.19458 0.2354 0.23361 0.0
O85 O 0.26333 0.29659 0.20126 0.0
O86 O 0.25379 0.35348 0.20862 0.0
C87 C 0.24494 0.36812 0.24282 0.0
Fe88 Fe 0.96164 0.67863 0.99548 0.0
Fe89 Fe 0.96445 0.62601 0.96818 0.0
O90 O 0.97065 0.67055 0.97596 0.0
Fe91 Fe 0.98613 0.70659 0.96459 0.0
O92 O 0.01851 0.71508 0.97782 0.0
O93 O 0.99011 0.71484 0.9985 0.0
O94 O 0.99084 0.64508 1.00157 0.0
C95 C 0.99144 0.61235 0.99666 0.0
C96 C 0.93741 0.73966 0.98177 0.0
O97 O 0.97437 0.60236 0.98571 0.0
C98 C 0.94655 0.67296 0.9439 0.0
O99 O 0.93081 0.64449 0.99654 0.0
O100 O 0.92289 0.62653 0.97305 0.0
O101 O 0.9616 0.74176 0.9735 0.0
O102 O 0.93235 0.71251 0.99041 0.0
C103 C 0.02206 0.64421 0.95608 0.0
O104 O 0.95396 0.64181 0.94916 0.0
O105 O 0.95539 0.70214 0.95036 0.0
C106 C 0.91331 0.63042 0.98658 0.0
O107 O 1.00519 0.62144 0.96307 0.0
O108 O 0.01297 0.67697 0.95382 0.0
C109 C 0.01483 0.72329 0.99167 0.0
Fe110 Fe 0.78766 0.01668 0.96326 0.0
Fe111 Fe 0.80972 0.05099 0.99335 0.0
O112 O 0.80005 0.05546 0.97384 0.0
Fe113 Fe 0.80244 0.09879 0.96481 0.0
O114 O 0.76962 0.09045 0.95165 0.0
O115 O 0.75024 0.03783 0.95942 0.0
O116 O 0.76882 -0.00679 0.97959 0.0
C117 C 0.75963 0.00532 0.99242 0.0
C118 C 0.82642 0.05524 0.94246 0.0
O119 O 0.77138 0.03402 0.99796 0.0
C120 C 0.85419 0.10032 0.98553 0.0
O121 O 0.82429 -0.00649 0.96666 0.0
O122 O 0.82553 0.00411 0.99136 0.0
O123 O 0.83122 0.08173 0.95143 0.0
O124 O 0.80433 0.0328 0.94497 0.0
C125 C 0.77724 0.11907 0.99185 0.0
O126 O 0.84892 0.06823 0.99035 0.0
O127 O 0.83491 0.1159 0.97664 0.0
C128 C 0.83477 0.98643 0.97975 0.0
O129 O 0.79537 0.09688 0.99863 0.0
O130 O 0.77401 0.118 0.97762 0.0
C131 C 0.74663 0.0689 0.95328 0.0
Fe132 Fe 0.96846 0.10011 0.81972 0.0
Fe133 Fe 0.98479 0.01863 0.8229 0.0
O134 O 0.97043 0.05547 0.81172 0.0
Fe135 Fe 0.95825 0.04773 0.79272 0.0
O136 O 0.97123 0.09275 0.78586 0.0
O137 O 0.9949 0.11787 0.80552 0.0
O138 O 1.00291 0.09393 0.83217 0.0
C139 C 0.02594 0.0722 0.83057 0.0
C140 C 0.91404 0.09807 0.80074 0.0
O141 O 0.02212 0.04065 0.82498 0.0
C142 C 0.93623 0.98527 0.80883 0.0
O143 O 0.94156 0.0847 0.83433 0.0
O144 O 0.97014 0.03726 0.84117 0.0
O145 O 0.91923 0.06544 0.79645 0.0
O146 O 0.93429 0.11514 0.80852 0.0
C147 C 1.00944 0.00257 0.79347 0.0
O148 O 0.94842 -0.00532 0.82127 0.0
O149 O 0.94317 0.00134 0.79648 0.0
C150 C 0.94768 0.05932 0.84367 0.0
O151 O 1.00193 -0.00724 0.80683 0.0
O152 O 0.99622 0.02979 0.78729 0.0
C153 C 0.98943 0.11665 0.79142 0.0
Fe154 Fe 0.79865 0.62666 0.82309 0.0
Fe155 Fe 0.78223 0.70808 0.82557 0.0
O156 O 0.79587 0.67059 0.81456 0.0
Fe157 Fe 0.80639 0.67681 0.79523 0.0
O158 O 0.79238 0.63116 0.78921 0.0
O159 O 0.77078 0.60836 0.80988 0.0
O160 O 0.76555 0.63375 0.83627 0.0
C161 C 0.74208 0.65477 0.83466 0.0
C162 C 0.85121 0.62699 0.80287 0.0
O163 O 0.7452 0.68596 0.82864 0.0
C164 C 0.82912 0.74095 0.81017 0.0
O165 O 0.82687 0.6431 0.8368 0.0
O166 O 0.79871 0.69085 0.84371 0.0
O167 O 0.84566 0.65933 0.79837 0.0
O168 O 0.83161 0.6105 0.81124 0.0
C169 C 0.75549 0.72233 0.79637 0.0
O170 O 0.81822 0.73195 0.82293 0.0
O171 O 0.82192 0.72358 0.79814 0.0
C172 C 0.82153 0.6691 0.84597 0.0
O173 O 0.76365 0.73281 0.80955 0.0
O174 O 0.76811 0.69452 0.79035 0.0
C175 C 0.77435 0.60829 0.79566 0.0
Fe176 Fe 0.05249 0.85276 0.57024 0.0
Fe177 Fe 0.0565 0.80577 0.54118 0.0
O178 O 0.04742 0.80981 0.56089 0.0
Fe179 Fe 0.03321 0.77097 0.57113 0.0
O180 O 1.00686 0.79745 0.58344 0.0
O181 O 0.01183 0.85459 0.5755 0.0
O182 O 0.04206 0.88005 0.55372 0.0
C183 C 0.02759 0.87259 0.54162 0.0
C184 C 0.07284 0.80147 0.59253 0.0
O185 O 0.02794 0.84061 0.53599 0.0
C186 C 0.08003 0.74124 0.55183 0.0
O187 O 0.09386 0.85506 0.56536 0.0
O188 O 0.08757 0.84005 0.54135 0.0
O189 O 0.06509 0.77326 0.585 0.0
O190 O 0.06355 0.83309 0.58857 0.0
C191 C 1.00262 0.7606 0.54392 0.0
O192 O 0.08582 0.77097 0.54502 0.0
O193 O 0.05658 0.7378 0.56044 0.0
C194 C 0.10372 0.85427 0.5518 0.0
O195 O 0.02697 0.77081 0.53701 0.0
O196 O 1.00021 0.76491 0.55816 0.0
C197 C 0.99646 0.82992 0.58216 0.0
Fe198 Fe 0.2116 0.43485 0.54101 0.0
Fe199 Fe 0.23314 0.46938 0.57114 0.0
O200 O 0.22085 0.43056 0.56058 0.0
Fe201 Fe 0.21825 0.38717 0.56964 0.0
O202 O 0.247 0.36773 0.55693 0.0
O203 O 0.2252 0.3884 0.53598 0.0
O204 O 0.25036 0.45148 0.53644 0.0
C205 C 0.26256 0.47981 0.54221 0.0
C206 C 0.16661 0.38617 0.54888 0.0
O207 O 0.25308 0.49203 0.55496 0.0
C208 C 0.19373 0.43076 0.59187 0.0
O209 O 0.1963 0.48201 0.54268 0.0
O210 O 0.19722 0.49326 0.56731 0.0
O211 O 0.18591 0.37026 0.55766 0.0
O212 O 0.1721 0.41823 0.54403 0.0
C213 C 0.27337 0.41716 0.58178 0.0
O214 O 0.21525 0.45396 0.58928 0.0
O215 O 0.18936 0.40415 0.5829 0.0
C216 C 0.18772 0.50081 0.55411 0.0
O217 O 0.27005 0.4479 0.5754 0.0
O218 O 0.25045 0.3955 0.58309 0.0
C219 C 0.24255 0.36537 0.5428 0.0
Fe220 Fe 0.03416 0.46243 0.71212 0.0
Fe221 Fe 0.0497 0.38029 0.71321 0.0
O222 O 0.0461 0.42316 0.72259 0.0
Fe223 Fe 0.05431 0.42687 0.7423 0.0
O224 O 0.01542 0.44397 0.74645 0.0
O225 O 0.01421 0.48538 0.72829 0.0
O226 O 0.99718 0.44145 0.70757 0.0
C227 C 0.99437 0.41051 0.70123 0.0
C228 C 0.08064 0.49087 0.72945 0.0
O229 O 0.01765 0.38918 0.69975 0.0
C230 C 0.10047 0.37867 0.73437 0.0
O231 O 0.05204 0.4474 0.69397 0.0
O232 O 0.07886 0.39816 0.70028 0.0
O233 O 0.07008 0.47368 0.74088 0.0
O234 O 0.07043 0.48498 0.71623 0.0
C235 C 0.02325 0.35809 0.73971 0.0
O236 O 0.08186 0.36302 0.72523 0.0
O237 O 0.09391 0.4099 0.73982 0.0
C238 C 0.0743 0.42504 0.69146 0.0
O239 O 0.02093 0.35987 0.72545 0.0
O240 O 0.04008 0.38064 0.747 0.0
C241 C 1.00397 0.47297 0.74085 0.0
Fe242 Fe 0.21001 0.7978 0.7429 0.0
Fe243 Fe 0.23347 0.76473 0.7128 0.0
O244 O 0.2199 0.80305 0.72343 0.0
Fe245 Fe 0.2162 0.84649 0.7145 0.0
O246 O 0.24332 0.86729 0.72768 0.0
O247 O 0.22219 0.84414 0.74835 0.0
O248 O 0.24905 0.78205 0.74768 0.0
C249 C 0.26195 0.75405 0.74192 0.0
C250 C 0.1635 0.84499 0.73456 0.0
O251 O 0.25292 0.74184 0.72911 0.0
C252 C 0.19406 0.802 0.69184 0.0
O253 O 0.19593 0.7505 0.74078 0.0
O254 O 0.19754 0.74055 0.71608 0.0
O255 O 0.18254 0.86172 0.72597 0.0
O256 O 0.17018 0.81348 0.73973 0.0
C257 C 0.27295 0.81829 0.70302 0.0
O258 O 0.21654 0.78009 0.69449 0.0
O259 O 0.18861 0.82851 0.70075 0.0
C260 C 0.18693 0.73317 0.72909 0.0
O261 O 0.27019 0.78698 0.709 0.0
O262 O 0.24965 0.83963 0.70165 0.0
C263 C 0.23905 0.86796 0.74186 0.0
Fe264 Fe 0.96269 0.1811 0.4954 0.0
Fe265 Fe 0.96313 0.12824 0.46812 0.0
O266 O 0.96995 0.17286 0.47571 0.0
Fe267 Fe 0.98454 0.20884 0.46402 0.0
O268 O 0.01781 0.21761 0.47661 0.0
O269 O 0.99121 0.21777 0.49781 0.0
O270 O 0.99262 0.14784 0.50089 0.0
C271 C 0.99297 0.1151 0.49598 0.0
C272 C 0.93693 0.24165 0.48203 0.0
O273 O 0.97486 0.10491 0.48546 0.0
C274 C 0.94364 0.17507 0.44395 0.0
O275 O 0.93215 0.14656 0.49724 0.0
O276 O 0.92202 0.12845 0.47398 0.0
O277 O 0.96041 0.24384 0.47329 0.0
O278 O 0.93278 0.21463 0.49088 0.0
C279 C 0.02012 0.14666 0.45514 0.0
O280 O 0.95076 0.14386 0.44929 0.0
O281 O 0.95302 0.2042 0.45025 0.0
C282 C 0.91391 0.1317 0.48779 0.0
O283 O 1.00343 0.12374 0.46216 0.0
O284 O 0.01081 0.17932 0.4529 0.0
C285 C 0.01525 0.22639 0.49045 0.0
Fe286 Fe 0.78606 0.51569 0.46234 0.0
Fe287 Fe 0.80629 0.55154 0.49237 0.0
O288 O 0.79786 0.55505 0.4727 0.0
Fe289 Fe 0.80079 0.59783 0.46324 0.0
O290 O 0.76837 0.58856 0.44988 0.0
O291 O 0.74872 0.53657 0.45813 0.0
O292 O 0.76684 0.49273 0.47858 0.0
C293 C 0.7565 0.50538 0.49106 0.0
C294 C 0.82543 0.55287 0.44152 0.0
O295 O 0.76763 0.5345 0.49658 0.0
C296 C 0.8516 0.60025 0.48458 0.0
O297 O 0.82268 0.49308 0.46628 0.0
O298 O 0.8224 0.50464 0.49094 0.0
O299 O 0.82999 0.57982 0.45029 0.0
O300 O 0.80318 0.53078 0.44407 0.0
C301 C 0.77437 0.62002 0.48979 0.0
O302 O 0.84562 0.56872 0.48982 0.0
O303 O 0.83301 0.61548 0.47522 0.0
C304 C 0.8326 0.48679 0.47955 0.0
O305 O 0.79162 0.59773 0.49706 0.0
O306 O 0.77196 0.6182 0.47554 0.0
C307 C 0.74517 0.56734 0.45172 0.0
Fe308 Fe 0.96175 0.60435 0.31861 0.0
Fe309 Fe 0.98274 0.52289 0.32006 0.0
O310 O 0.96801 0.56106 0.30956 0.0
Fe311 Fe 0.95975 0.55662 0.28977 0.0
O312 O 0.98871 0.59146 0.28493 0.0
O313 O 0.97136 0.63109 0.30187 0.0
O314 O 1.00254 0.60753 0.32379 0.0
C315 C 0.0192 0.58306 0.32999 0.0
C316 C 0.91067 0.60261 0.3001 0.0
O317 O 0.00966 0.55034 0.33157 0.0
C318 C 0.93486 0.49341 0.30152 0.0
O319 O 0.95149 0.58576 0.33718 0.0
O320 O 0.95172 0.52585 0.33429 0.0
O321 O 0.92841 0.59054 0.28974 0.0
O322 O 0.92021 0.60476 0.31371 0.0
C323 C 0.01296 0.51079 0.29273 0.0
O324 O 0.95829 0.48968 0.31015 0.0
O325 O 0.93058 0.52171 0.29342 0.0
C326 C 0.94354 0.55416 0.3416 0.0
O327 O 0.01529 0.51543 0.30693 0.0
O328 O 0.98898 0.52147 0.28573 0.0
C329 C 0.98869 0.62336 0.29071 0.0
Fe330 Fe 0.78667 0.21533 0.32293 0.0
Fe331 Fe 0.81011 0.18266 0.2928 0.0
O332 O 0.80006 0.17712 0.31221 0.0
Fe333 Fe 0.80295 0.13333 0.32092 0.0
O334 O 0.76946 0.14046 0.33383 0.0
O335 O 0.74967 0.19327 0.32642 0.0
O336 O 0.76757 0.23872 0.3067 0.0
C337 C 0.75852 0.22666 0.29388 0.0
C338 C 0.82532 0.17653 0.34385 0.0
O339 O 0.77129 0.19871 0.28805 0.0
C340 C 0.85571 0.13439 0.30076 0.0
O341 O 0.82279 0.23967 0.31982 0.0
O342 O 0.82442 0.22991 0.2951 0.0
O343 O 0.83063 0.15028 0.3348 0.0
O344 O 0.80333 0.19917 0.34119 0.0
C345 C 0.7802 0.11303 0.29342 0.0
O346 O 0.84968 0.16646 0.29602 0.0
O347 O 0.83652 0.11781 0.30935 0.0
C348 C 0.83295 0.24774 0.30677 0.0
O349 O 0.79762 0.13656 0.28712 0.0
O350 O 0.77558 0.1136 0.30758 0.0
C351 C 0.74625 0.16192 0.33229 0.0
Fe352 Fe 0.5328 0.27405 0.57299 0.0
Fe353 Fe 0.54855 0.35563 0.56989 0.0
O354 O 0.54738 0.31087 0.56199 0.0
Fe355 Fe 0.56075 0.30316 0.54317 0.0
O356 O 0.5232 0.28586 0.53715 0.0
O357 O 0.51585 0.2489 0.55662 0.0
O358 O 0.49537 0.29627 0.57504 0.0
C359 C 0.49134 0.32774 0.58068 0.0
C360 C 0.5817 0.24009 0.55928 0.0
O361 O 0.51407 0.34962 0.58215 0.0
C362 C 0.60415 0.35293 0.55195 0.0
O363 O 0.54756 0.29222 0.59135 0.0
O364 O 0.57485 0.3408 0.58474 0.0
O365 O 0.57545 0.25644 0.54691 0.0
O366 O 0.5691 0.24973 0.57157 0.0
C367 C 0.52907 0.37192 0.54139 0.0
O368 O 0.58302 0.37046 0.55902 0.0
O369 O 0.59944 0.32024 0.54769 0.0
C370 C 0.56927 0.31513 0.59399 0.0
O371 O 0.52245 0.37285 0.55537 0.0
O372 O 0.54827 0.34844 0.5362 0.0
C373 C 0.50939 0.25891 0.5431 0.0
Fe374 Fe 0.70605 0.92962 0.54318 0.0
Fe375 Fe 0.73222 0.95812 0.57342 0.0
O376 O 0.71856 0.92142 0.56208 0.0
Fe377 Fe 0.7176 0.87651 0.56977 0.0
O378 O 0.74419 0.85988 0.55536 0.0
O379 O 0.71922 0.8848 0.53604 0.0
O380 O 0.74391 0.94761 0.53774 0.0
C381 C 0.75654 0.975 0.54399 0.0
C382 C 0.66268 0.87895 0.55124 0.0
O383 O 0.74861 0.98472 0.55733 0.0
C384 C 0.69615 0.91599 0.594 0.0
O385 O 0.69066 0.97599 0.54718 0.0
O386 O 0.69534 0.98127 0.57203 0.0
O387 O 0.68352 0.86159 0.55859 0.0
O388 O 0.66733 0.91176 0.5471 0.0
C389 C 0.77453 0.9051 0.58063 0.0
O390 O 0.71811 0.93863 0.59164 0.0
O391 O 0.69062 0.89078 0.58452 0.0
C392 C 0.6835 -0.00842 0.55963 0.0
O393 O 0.76994 0.93676 0.57527 0.0
O394 O 0.75204 0.88279 0.58216 0.0
C395 C 0.7382 0.86124 0.54132 0.0
Fe396 Fe 0.55084 0.87456 0.71599 0.0
Fe397 Fe 0.55956 0.9285 0.74254 0.0
O398 O 0.54785 0.91957 0.72353 0.0
Fe399 Fe 0.53306 0.95548 0.71191 0.0
O400 O 0.49625 0.93231 0.70955 0.0
O401 O 0.51687 0.879 0.70328 0.0
O402 O 0.52429 0.857 0.73016 0.0
C403 C 0.52936 0.859 0.74427 0.0
C404 C 0.57178 0.91466 0.69186 0.0
O405 O 0.54717 0.88346 0.74973 0.0
C406 C 0.58055 -0.00903 0.72605 0.0
O407 O 0.58483 0.86099 0.72748 0.0
O408 O 0.59899 0.91154 0.73916 0.0
O409 O 0.54892 0.93641 0.69395 0.0
O410 O 0.57788 0.88982 0.70145 0.0
C411 C 0.50747 0.97228 0.74117 0.0
O412 O 0.57392 0.97508 0.73847 0.0
O413 O 0.56878 0.98069 0.71363 0.0
C414 C 0.60476 0.87887 0.7351 0.0
O415 O 0.52121 0.94579 0.74762 0.0
O416 O 0.51475 0.98148 0.72769 0.0
C417 C 0.49346 0.90025 0.70433 0.0
Fe418 Fe 0.70861 0.29867 0.74199 0.0
Fe419 Fe 0.73453 0.27122 0.7113 0.0
O420 O 0.7202 0.30734 0.72295 0.0
Fe421 Fe 0.71767 0.35247 0.71548 0.0
O422 O 0.74478 0.36926 0.72955 0.0
O423 O 0.72127 0.34367 0.74909 0.0
O424 O 0.7469 0.28118 0.747 0.0
C425 C 0.76059 0.25466 0.74054 0.0
C426 C 0.6638 0.34878 0.73467 0.0
O427 O 0.7533 0.24542 0.72705 0.0
C428 C 0.69562 0.31284 0.69144 0.0
O429 O 0.69401 0.25211 0.7381 0.0
O430 O 0.69884 0.24614 0.71328 0.0
O431 O 0.68399 0.3665 0.72714 0.0
O432 O 0.66924 0.31596 0.73864 0.0
C433 C 0.77439 0.32621 0.70344 0.0
O434 O 0.71789 0.29012 0.69346 0.0
O435 O 0.69037 0.33798 0.70102 0.0
C436 C 0.68728 0.23599 0.72574 0.0
O437 O 0.77146 0.29411 0.70859 0.0
O438 O 0.75114 0.34765 0.70257 0.0
C439 C 0.7395 0.36766 0.74363 0.0
Fe440 Fe 0.46227 0.68069 0.48958 0.0
Fe441 Fe 0.46934 0.6327 0.46107 0.0
O442 O 0.47218 0.67607 0.47012 0.0
Fe443 Fe 0.48542 0.71454 0.45957 0.0
O444 O 0.50459 0.73744 0.47584 0.0
O445 O 0.5008 0.69729 0.49442 0.0
O446 O 0.47602 0.63442 0.4949 0.0
C447 C 0.49379 0.61168 0.48815 0.0
C448 C 0.43913 0.74659 0.47599 0.0
O449 O 0.49735 0.61285 0.47394 0.0
C450 C 0.44576 0.67708 0.43885 0.0
O451 O 0.42286 0.66421 0.48639 0.0
O452 O 0.4364 0.61613 0.4728 0.0
O453 O 0.44955 0.73916 0.46292 0.0
O454 O 0.44698 0.72776 0.48754 0.0
C455 C 0.52575 0.66121 0.44978 0.0
O456 O 0.44097 0.65037 0.4477 0.0
O457 O 0.46828 0.69899 0.44128 0.0
C458 C 0.41698 0.6324 0.48141 0.0
O459 O 0.50232 0.64045 0.44791 0.0
O460 O 0.52241 0.6923 0.4559 0.0
C461 C 0.51326 0.7255 0.48875 0.0
Fe462 Fe 0.2837 0.02299 0.46618 0.0
Fe463 Fe 0.31213 0.05329 0.49574 0.0
O464 O 0.30068 0.05989 0.4765 0.0
Fe465 Fe 0.30579 0.10351 0.46775 0.0
O466 O 0.26434 0.10758 0.46404 0.0
O467 O 0.25707 0.052 0.45495 0.0
O468 O 0.25208 0.01772 0.48005 0.0
C469 C 0.25665 0.01106 0.49402 0.0
C470 C 0.32154 0.05342 0.44416 0.0
O471 O 0.28247 0.01881 0.50013 0.0
C472 C 0.3595 0.10062 0.48448 0.0
O473 O 0.30705 0.9876 0.47563 0.0
O474 O 0.33996 0.01792 0.49027 0.0
O475 O 0.31356 0.08516 0.44868 0.0
O476 O 0.31414 0.02501 0.45161 0.0
C477 C 0.28382 0.12064 0.49701 0.0
O478 O 0.34405 0.0863 0.49518 0.0
O479 O 0.34786 0.10369 0.47129 0.0
C480 C 0.33217 0.98919 0.48316 0.0
O481 O 0.28481 0.08835 0.50233 0.0
O482 O 0.29856 0.12922 0.4851 0.0
C483 C 0.24728 0.08435 0.45744 0.0
Fe484 Fe 0.48577 0.01737 0.3252 0.0
Fe485 Fe 0.4622 0.05063 0.29524 0.0
O486 O 0.47263 0.05592 0.31462 0.0
Fe487 Fe 0.47041 0.09979 0.32337 0.0
O488 O 0.50405 0.09215 0.3361 0.0
O489 O 0.52302 0.03891 0.32867 0.0
O490 O 0.5046 -0.00595 0.30882 0.0
C491 C 0.51353 0.0063 0.29599 0.0
C492 C 0.4478 0.05666 0.34632 0.0
O493 O 0.50082 0.03444 0.29032 0.0
C494 C 0.41734 0.09946 0.30332 0.0
O495 O 0.44941 -0.00643 0.32215 0.0
O496 O 0.44771 0.00347 0.29746 0.0
O497 O 0.44295 0.08341 0.33746 0.0
O498 O 0.46922 0.03337 0.34352 0.0
C499 C 0.49245 0.12005 0.29575 0.0
O500 O 0.42282 0.06711 0.29872 0.0
O501 O 0.43677 0.11569 0.31192 0.0
C502 C 0.43897 0.98586 0.30913 0.0
O503 O 0.47478 0.09661 0.28957 0.0
O504 O 0.49769 0.11917 0.30986 0.0
C505 C 0.52694 0.07028 0.33445 0.0
Fe506 Fe 0.2827 0.71066 0.31899 0.0
Fe507 Fe 0.31195 0.67946 0.28961 0.0
O508 O 0.29925 0.67306 0.30875 0.0
Fe509 Fe 0.30309 0.62907 0.31752 0.0
O510 O 0.26156 0.62641 0.32107 0.0
O511 O 0.25434 0.68291 0.32946 0.0
O512 O 0.25229 0.71807 0.30465 0.0
C513 C 0.25765 0.72447 0.29075 0.0
C514 C 0.31911 0.67815 0.34133 0.0
O515 O 0.28332 0.7151 0.28485 0.0
C516 C 0.35772 0.63056 0.30142 0.0
O517 O 0.30813 0.74489 0.31035 0.0
O518 O 0.3401 0.71374 0.29538 0.0
O519 O 0.31084 0.6468 0.33661 0.0
O520 O 0.31176 0.70692 0.3341 0.0
C521 C 0.2834 0.61259 0.28761 0.0
O522 O 0.34322 0.64549 0.29054 0.0
O523 O 0.34519 0.62732 0.31438 0.0
C524 C 0.33369 0.7417 0.3033 0.0
O525 O 0.28477 0.6451 0.28252 0.0
O526 O 0.29585 0.60367 0.3001 0.0
C527 C 0.24465 0.65051 0.3273 0.0
Fe528 Fe 0.53563 0.77291 0.0709 0.0
Fe529 Fe 0.55641 0.8539 0.06891 0.0
O530 O 0.55213 0.80979 0.06039 0.0
Fe531 Fe 0.56414 0.80276 0.04122 0.0
O532 O 0.53518 0.76757 0.03679 0.0
O533 O 0.50474 0.76563 0.05681 0.0
O534 O 0.50783 0.8017 0.0815 0.0
C535 C 0.49798 0.83399 0.07892 0.0
C536 C 0.58587 0.74058 0.05493 0.0
O537 O 0.51492 0.85732 0.07232 0.0
C538 C 0.61064 0.8509 0.05262 0.0
O539 O 0.56524 0.77654 0.08571 0.0
O540 O 0.56379 0.8367 0.08818 0.0
O541 O 0.59226 0.76823 0.04687 0.0
O542 O 0.56052 0.73806 0.06219 0.0
C543 C 0.53574 0.86975 0.03927 0.0
O544 O 0.59853 0.85452 0.06569 0.0
O545 O 0.59561 0.83627 0.04185 0.0
C546 C 0.57199 0.80535 0.09299 0.0
O547 O 0.54944 0.87889 0.05138 0.0
O548 O 0.53676 0.83718 0.03428 0.0
C549 C 0.50956 0.75898 0.04287 0.0
Fe550 Fe 0.71047 0.4294 0.04259 0.0
Fe551 Fe 0.73131 0.46227 0.07301 0.0
O552 O 0.72007 0.42368 0.06204 0.0
Fe553 Fe 0.71863 0.37955 0.07049 0.0
O554 O 0.74692 0.36139 0.05715 0.0
O555 O 0.72434 0.38408 0.0368 0.0
O556 O 0.74902 0.44672 0.03829 0.0
C557 C 0.75994 0.47548 0.04421 0.0
C558 C 0.6662 0.37952 0.05016 0.0
O559 O 0.74966 0.48703 0.05692 0.0
C560 C 0.69387 0.4212 0.09345 0.0
O561 O 0.69466 0.476 0.04494 0.0
O562 O 0.69413 0.48431 0.06972 0.0
O563 O 0.68578 0.36329 0.05871 0.0
O564 O 0.67136 0.41183 0.04549 0.0
C565 C 0.77369 0.41079 0.08247 0.0
O566 O 0.71493 0.44493 0.09105 0.0
O567 O 0.69012 0.39471 0.08437 0.0
C568 C 0.68434 0.49239 0.05662 0.0
O569 O 0.76914 0.44223 0.07681 0.0
O570 O 0.75163 0.38773 0.0835 0.0
C571 C 0.74227 0.36088 0.043 0.0
Fe572 Fe 0.53515 0.46243 0.21352 0.0
Fe573 Fe 0.54874 0.37986 0.21514 0.0
O574 O 0.54789 0.4236 0.22395 0.0
Fe575 Fe 0.55954 0.42842 0.24318 0.0
O576 O 0.52169 0.44597 0.24868 0.0
O577 O 0.51777 0.48631 0.23014 0.0
O578 O 0.49727 0.44218 0.21051 0.0
C579 C 0.49248 0.41123 0.20453 0.0
C580 C 0.58365 0.49233 0.22892 0.0
O581 O 0.5148 0.38866 0.20266 0.0
C582 C 0.60317 0.37889 0.23403 0.0
O583 O 0.55035 0.44578 0.195 0.0
O584 O 0.57612 0.3954 0.20094 0.0
O585 O 0.57514 0.47514 0.24076 0.0
O586 O 0.5722 0.48485 0.21609 0.0
C587 C 0.52676 0.36062 0.24289 0.0
O588 O 0.58246 0.36266 0.2262 0.0
O589 O 0.59828 0.41094 0.23905 0.0
C590 C 0.57137 0.42205 0.19205 0.0
O591 O 0.52151 0.36182 0.2288 0.0
O592 O 0.54589 0.38263 0.24901 0.0
C593 C 0.50934 0.47446 0.24311 0.0
Fe594 Fe 0.70822 0.80443 0.2426 0.0
Fe595 Fe 0.73097 0.76898 0.213 0.0
O596 O 0.71911 0.80846 0.22325 0.0
Fe597 Fe 0.71856 0.85186 0.21417 0.0
O598 O 0.7462 0.87011 0.22758 0.0
O599 O 0.72254 0.85016 0.24812 0.0
O600 O 0.74623 0.78644 0.24781 0.0
C601 C 0.75721 0.75703 0.2424 0.0
C602 C 0.66474 0.85425 0.23354 0.0
O603 O 0.74769 0.7449 0.22968 0.0
C604 C 0.69529 0.80913 0.19139 0.0
O605 O 0.69183 0.7579 0.24047 0.0
O606 O 0.69343 0.74787 0.21578 0.0
O607 O 0.68515 0.86989 0.22531 0.0
O608 O 0.66959 0.82237 0.23873 0.0
C609 C 0.77447 0.81918 0.20389 0.0
O610 O 0.71613 0.78533 0.19443 0.0
O611 O 0.69084 0.83625 0.20009 0.0
C612 C 0.6823 0.74095 0.22874 0.0
O613 O 0.76923 0.78829 0.20989 0.0
O614 O 0.75232 0.84188 0.20172 0.0
C615 C 0.74145 0.87188 0.24169 0.0
Fe616 Fe 0.46228 0.17975 0.99328 0.0
Fe617 Fe 0.4641 0.12806 0.9656 0.0
O618 O 0.47123 0.17204 0.97375 0.0
Fe619 Fe 0.48794 0.20783 0.96256 0.0
O620 O 0.52083 0.21375 0.97561 0.0
O621 O 0.49327 0.21293 0.99664 0.0
O622 O 0.48944 0.14382 0.99934 0.0
C623 C 0.48917 0.11141 0.99414 0.0
C624 C 0.44235 0.24453 0.98081 0.0
O625 O 0.47253 0.10292 0.98287 0.0
C626 C 0.44735 0.17693 0.94175 0.0
O627 O 0.42937 0.1479 0.99386 0.0
O628 O 0.4226 0.12941 0.97026 0.0
O629 O 0.46582 0.24437 0.97204 0.0
O630 O 0.43502 0.21636 0.98848 0.0
C631 C 0.52226 0.14459 0.95385 0.0
O632 O 0.45464 0.14537 0.94665 0.0
O633 O 0.45649 0.2056 0.94854 0.0
C634 C 0.4127 0.13289 0.98377 0.0
O635 O 0.5049 0.12239 0.96085 0.0
O636 O 0.51338 0.1773 0.95128 0.0
C637 C 0.51827 0.22004 0.9897 0.0
Fe638 Fe 0.28368 0.51867 0.96692 0.0
Fe639 Fe 0.31004 0.55186 0.99654 0.0
O640 O 0.29996 0.55649 0.97697 0.0
Fe641 Fe 0.30577 0.59932 0.96765 0.0
O642 O 0.26471 0.6032 0.96319 0.0
O643 O 0.25727 0.54665 0.95513 0.0
O644 O 0.25149 0.51383 0.98049 0.0
C645 C 0.255 0.50903 0.99466 0.0
C646 C 0.32208 0.54757 0.94476 0.0
O647 O 0.28024 0.51781 1.00107 0.0
C648 C 0.35779 0.59918 0.98543 0.0
O649 O 0.30688 0.48441 0.97707 0.0
O650 O 0.33829 0.51568 0.99221 0.0
O651 O 0.31459 0.57961 0.949 0.0
O652 O 0.31458 0.51971 0.95253 0.0
C653 C 0.28152 0.61931 0.99608 0.0
O654 O 0.34168 0.58535 0.996 0.0
O655 O 0.34759 0.59952 0.9719 0.0
C656 C 0.33104 0.48629 0.98532 0.0
O657 O 0.28212 0.58761 1.00203 0.0
O658 O 0.29737 0.62664 0.98439 0.0
C659 C 0.2478 0.57945 0.95683 0.0
Fe660 Fe 0.48198 0.51487 0.82459 0.0
Fe661 Fe 0.46136 0.55103 0.79465 0.0
O662 O 0.47033 0.55449 0.81429 0.0
Fe663 Fe 0.46797 0.59746 0.82375 0.0
O664 O 0.50056 0.58759 0.83692 0.0
O665 O 0.51945 0.53493 0.82872 0.0
O666 O 0.50084 0.49153 0.80829 0.0
C667 C 0.51091 0.5037 0.79569 0.0
C668 C 0.44345 0.5531 0.84569 0.0
O669 O 0.49977 0.53292 0.79013 0.0
C670 C 0.41644 0.60048 0.80288 0.0
O671 O 0.44526 0.49311 0.8208 0.0
O672 O 0.44472 0.50464 0.79618 0.0
O673 O 0.43908 0.58032 0.83702 0.0
O674 O 0.46509 0.53013 0.84291 0.0
C675 C 0.49374 0.61907 0.79698 0.0
O676 O 0.42224 0.56897 0.79752 0.0
O677 O 0.43552 0.61566 0.81197 0.0
C678 C 0.43459 0.48724 0.80766 0.0
O679 O 0.47629 0.59689 0.78984 0.0
O680 O 0.4966 0.61722 0.81122 0.0
C681 C 0.52335 0.56555 0.83517 0.0
Fe682 Fe 0.285 0.21238 0.82223 0.0
Fe683 Fe 0.30757 0.17867 0.79205 0.0
O684 O 0.2981 0.17393 0.81161 0.0
Fe685 Fe 0.30145 0.13068 0.8207 0.0
O686 O 0.26844 0.13838 0.8339 0.0
O687 O 0.24825 0.19059 0.8261 0.0
O688 O 0.26543 0.23533 0.80607 0.0
C689 C 0.25616 0.22334 0.79329 0.0
C690 C 0.32477 0.17499 0.84298 0.0
O691 O 0.26869 0.19524 0.78742 0.0
C692 C 0.35352 0.13061 0.80018 0.0
O693 O 0.32081 0.23621 0.81872 0.0
O694 O 0.32236 0.22596 0.79401 0.0
O695 O 0.32979 0.14833 0.83411 0.0
O696 O 0.30226 0.19697 0.84047 0.0
C697 C 0.27693 0.10943 0.79364 0.0
O698 O 0.3472 0.16224 0.79504 0.0
O699 O 0.33444 0.11441 0.80894 0.0
C700 C 0.33026 0.24448 0.8056 0.0
O701 O 0.29422 0.13233 0.78679 0.0
O702 O 0.27356 0.11066 0.80787 0.0
C703 C 0.24513 0.15969 0.83234 0.0
H704 H 0.05509 0.16761 0.0645 0.0
H705 H 0.13075 0.2235 0.04164 0.0
H706 H 0.08205 0.10921 0.06135 0.0
H707 H 0.15768 0.16452 0.03843 0.0
H708 H 0.21007 0.06463 0.06003 0.0
H709 H 0.18186 0.12232 0.05791 0.0
H710 H 0.101 0.06429 0.04123 0.0
H711 H 0.12938 0.00579 0.04341 0.0
C712 C 0.07743 0.16743 0.05874 0.0
C713 C 0.09103 0.20022 0.05347 0.0
C714 C 0.09262 0.13389 0.05677 0.0
C715 C 0.12179 0.13249 0.04962 0.0
C716 C 0.13517 0.16506 0.04404 0.0
C717 C 0.11983 0.1987 0.04589 0.0
C718 C 0.18629 0.06402 0.05586 0.0
C719 C 0.17173 0.03065 0.05206 0.0
C720 C 0.17032 0.09716 0.05447 0.0
C721 C 0.13939 0.09764 0.04935 0.0
C722 C 0.12489 0.06445 0.04524 0.0
C723 C 0.14105 0.03112 0.04649 0.0
H724 H 0.21736 0.16625 0.23122 0.0
H725 H 0.13377 0.22691 0.24281 0.0
H726 H 0.189 0.10879 0.23298 0.0
H727 H 0.10508 0.16864 0.24468 0.0
H728 H 0.0631 0.06572 0.21998 0.0
H729 H 0.08985 0.1235 0.22434 0.0
H730 H 0.16065 0.06648 0.25029 0.0
H731 H 0.13391 0.00808 0.24585 0.0
C732 C 0.1929 0.16723 0.23432 0.0
C733 C 0.17756 0.20105 0.23665 0.0
C734 C 0.17677 0.13423 0.2355 0.0
C735 C 0.14485 0.13426 0.2389 0.0
C736 C 0.1297 0.16797 0.24192 0.0
C737 C 0.14604 0.20119 0.24092 0.0
C738 C 0.08435 0.06533 0.22665 0.0
C739 C 0.09657 0.03215 0.23243 0.0
C740 C 0.09941 0.0986 0.22931 0.0
C741 C 0.12716 0.09951 0.23774 0.0
C742 C 0.13927 0.06649 0.24372 0.0
C743 C 0.12404 0.0331 0.24114 0.0
H744 H 0.9217 0.77832 1.00708 0.0
H745 H 0.91038 0.77484 0.95832 0.0
H746 H 0.89822 0.83977 1.00769 0.0
H747 H 0.88507 0.83492 0.95885 0.0
H748 H 0.87688 0.95664 0.96028 0.0
H749 H 0.90069 0.89585 0.96183 0.0
H750 H 0.85361 0.87689 1.0047 0.0
H751 H 0.83143 0.93869 1.0035 0.0
C752 C 0.91313 0.79036 0.99659 0.0
C753 C 0.91759 0.7723 0.98267 0.0
C754 C 0.89979 0.8255 0.99689 0.0
C755 C 0.89031 0.84266 0.98327 0.0
C756 C 0.89307 0.82316 0.96949 0.0
C757 C 0.90704 0.78855 0.96917 0.0
C758 C 0.87217 0.93962 0.97014 0.0
C759 C 0.85244 0.95215 0.98176 0.0
C760 C 0.88541 0.90462 0.97096 0.0
C761 C 0.87847 0.88107 0.98322 0.0
C762 C 0.85962 0.8943 0.99515 0.0
C763 C 0.84693 0.9297 0.99448 0.0
H764 H 0.90634 0.95403 0.78445 0.0
H765 H 0.92629 0.93837 0.83234 0.0
H766 H 0.87993 0.89443 0.78388 0.0
H767 H 0.90139 0.879 0.83156 0.0
H768 H 0.82647 0.79591 0.83082 0.0
H769 H 0.84985 0.85597 0.82935 0.0
H770 H 0.89136 0.82768 0.786 0.0
H771 H 0.86637 0.76704 0.78715 0.0
C772 C 0.905 0.93799 0.79482 0.0
C773 C 0.91821 0.95096 0.80845 0.0
C774 C 0.89022 0.90381 0.79445 0.0
C775 C 0.88858 0.88221 0.80768 0.0
C776 C 0.90176 0.89533 0.82125 0.0
C777 C 0.91613 0.92942 0.82167 0.0
C778 C 0.84075 0.80217 0.82099 0.0
C779 C 0.84506 0.77654 0.80919 0.0
C780 C 0.85415 0.8367 0.82016 0.0
C781 C 0.87277 0.84628 0.80768 0.0
C782 C 0.87692 0.82096 0.79572 0.0
C783 C 0.86295 0.78627 0.79644 0.0
H784 H 0.05604 0.67472 0.54552 0.0
H785 H 0.14309 0.73332 0.54963 0.0
H786 H 0.08442 0.61675 0.54278 0.0
H787 H 0.17168 0.67476 0.54722 0.0
H788 H 0.1896 0.56046 0.57264 0.0
H789 H 0.16663 0.62077 0.56818 0.0
H790 H 0.12806 0.58255 0.52564 0.0
H791 H 0.15173 0.52174 0.5299 0.0
C792 C 0.08132 0.67509 0.54559 0.0
C793 C 0.0976 0.70802 0.548 0.0
C794 C 0.09746 0.64211 0.54387 0.0
C795 C 0.13004 0.64161 0.54484 0.0
C796 C 0.14646 0.67481 0.54643 0.0
C797 C 0.13026 0.70806 0.54782 0.0
C798 C 0.17619 0.56477 0.56233 0.0
C799 C 0.17211 0.53635 0.55167 0.0
C800 C 0.16352 0.59943 0.55969 0.0
C801 C 0.14614 0.60615 0.54648 0.0
C802 C 0.14175 0.57783 0.53582 0.0
C803 C 0.15502 0.54319 0.53832 0.0
H804 H 0.18125 0.69082 0.75457 0.0
H805 H 0.152 0.69945 0.70758 0.0
H806 H 0.15777 0.6298 0.75614 0.0
H807 H 0.12781 0.6392 0.70929 0.0
H808 H 0.1227 0.51793 0.70957 0.0
H809 H 0.1488 0.57716 0.71098 0.0
H810 H 0.10806 0.59636 0.75534 0.0
H811 H 0.08273 0.53627 0.75412 0.0
C812 C 0.16923 0.67998 0.7447 0.0
C813 C 0.1687 0.69946 0.73088 0.0
C814 C 0.15588 0.64511 0.7456 0.0
C815 C 0.14168 0.62955 0.73274 0.0
C816 C 0.13952 0.65012 0.71924 0.0
C817 C 0.15308 0.68468 0.71829 0.0
C818 C 0.11982 0.53458 0.71973 0.0
C819 C 0.10051 0.52301 0.73165 0.0
C820 C 0.13449 0.56851 0.72049 0.0
C821 C 0.12968 0.59166 0.73308 0.0
C822 C 0.11205 0.57902 0.74549 0.0
C823 C 0.09764 0.54471 0.74481 0.0
H824 H 0.82879 0.43948 0.50347 0.0
H825 H 0.87635 0.45785 0.46082 0.0
H826 H 0.8516 0.37794 0.50501 0.0
H827 H 0.90059 0.39737 0.4627 0.0
H828 H 0.90927 0.27662 0.45876 0.0
H829 H 0.88372 0.33651 0.45942 0.0
H830 H 0.89701 0.34102 0.50825 0.0
H831 H 0.92096 0.27974 0.50752 0.0
C832 C 0.84488 0.43066 0.49466 0.0
C833 C 0.85075 0.45305 0.48196 0.0
C834 C 0.85789 0.39544 0.49552 0.0
C835 C 0.87735 0.38241 0.4838 0.0
C836 C 0.88481 0.40603 0.47165 0.0
C837 C 0.87131 0.44082 0.47064 0.0
C838 C 0.90595 0.29019 0.46964 0.0
C839 C 0.91678 0.27396 0.48308 0.0
C840 C 0.89181 0.32466 0.47003 0.0
C841 C 0.88912 0.34403 0.48384 0.0
C842 C 0.89866 0.32683 0.49743 0.0
C843 C 0.91224 0.2918 0.49706 0.0
H844 H 0.89756 0.46747 0.32349 0.0
H845 H 0.92728 0.44825 0.27727 0.0
H846 H 0.87145 0.40798 0.32384 0.0
H847 H 0.90268 0.38757 0.27773 0.0
H848 H 0.83553 0.28997 0.28117 0.0
H849 H 0.85642 0.35193 0.27886 0.0
H850 H 0.88882 0.34642 0.32546 0.0
H851 H 0.86662 0.28518 0.32794 0.0
C852 C 0.89785 0.45058 0.31331 0.0
C853 C 0.91388 0.46213 0.3003 0.0
C854 C 0.88343 0.41633 0.31356 0.0
C855 C 0.8856 0.39263 0.30094 0.0
C856 C 0.9004 0.4052 0.28761 0.0
C857 C 0.91437 0.43988 0.28729 0.0
C858 C 0.84745 0.30189 0.29086 0.0
C859 C 0.84937 0.28289 0.30477 0.0
C860 C 0.85939 0.33741 0.28954 0.0
C861 C 0.87384 0.35441 0.30204 0.0
C862 C 0.87697 0.33462 0.31573 0.0
C863 C 0.86461 0.29936 0.31713 0.0
H864 H 0.5887 0.19236 0.58276 0.0
H865 H 0.61313 0.20839 0.53541 0.0
H866 H 0.61169 0.13178 0.58216 0.0
H867 H 0.63786 0.14759 0.53506 0.0
H868 H 0.64805 0.02105 0.53669 0.0
H869 H 0.62436 0.08247 0.53613 0.0
H870 H 0.66119 0.10406 0.58109 0.0
H871 H 0.68315 0.04293 0.58197 0.0
C872 C 0.59951 0.18323 0.57226 0.0
C873 C 0.5991 0.20519 0.55911 0.0
C874 C 0.61282 0.14843 0.57195 0.0
C875 C 0.62666 0.13498 0.55858 0.0
C876 C 0.62694 0.15714 0.54546 0.0
C877 C 0.61314 0.19201 0.54571 0.0
C878 C 0.65062 0.0389 0.54649 0.0
C879 C 0.66707 0.02708 0.55942 0.0
C880 C 0.63743 0.0741 0.5461 0.0
C881 C 0.64089 0.09798 0.55859 0.0
C882 C 0.65752 0.08605 0.57143 0.0
C883 C 0.67013 0.05091 0.57192 0.0
H884 H 0.58488 0.04055 0.70307 0.0
H885 H 0.61424 0.02073 0.7495 0.0
H886 H 0.609 0.10045 0.7037 0.0
H887 H 0.63987 0.08077 0.74988 0.0
H888 H 0.65342 0.20664 0.74923 0.0
H889 H 0.62791 0.14651 0.74974 0.0
H890 H 0.65958 0.1258 0.70377 0.0
H891 H 0.68354 0.18576 0.70299 0.0
C892 C 0.59698 0.04872 0.71336 0.0
C893 C 0.59779 0.02585 0.72624 0.0
C894 C 0.61088 0.08311 0.71369 0.0
C895 C 0.62646 0.09522 0.72681 0.0
C896 C 0.62766 0.07227 0.73968 0.0
C897 C 0.6133 0.03783 0.73941 0.0
C898 C 0.65456 0.18928 0.73922 0.0
C899 C 0.6702 0.20102 0.72605 0.0
C900 C 0.64027 0.1548 0.73956 0.0
C901 C 0.64172 0.13155 0.72678 0.0
C902 C 0.65749 0.14338 0.71368 0.0
C903 C 0.6713 0.17781 0.71327 0.0
H904 H 0.40296 0.76715 0.50014 0.0
H905 H 0.43947 0.80599 0.45716 0.0
H906 H 0.37913 0.82768 0.50456 0.0
H907 H 0.41615 0.86621 0.46176 0.0
H908 H 0.39523 0.97915 0.48256 0.0
H909 H 0.42282 0.91963 0.48259 0.0
H910 H 0.33521 0.8634 0.48896 0.0
H911 H 0.30779 0.92237 0.48861 0.0
C912 C 0.40583 0.78853 0.49166 0.0
C913 C 0.42281 0.78183 0.47827 0.0
C914 C 0.39241 0.82305 0.49424 0.0
C915 C 0.39637 0.85144 0.48359 0.0
C916 C 0.41333 0.8448 0.47023 0.0
C917 C 0.42623 0.81021 0.46752 0.0
C918 C 0.38214 0.95402 0.48424 0.0
C919 C 0.34956 0.95494 0.4854 0.0
C920 C 0.39777 0.92019 0.48421 0.0
C921 C 0.38094 0.88725 0.48574 0.0
C922 C 0.34859 0.88851 0.48786 0.0
C923 C 0.33298 0.9221 0.48755 0.0
H924 H 0.34899 0.78349 0.27894 0.0
H925 H 0.36238 0.77202 0.32736 0.0
H926 H 0.37383 0.84389 0.27968 0.0
H927 H 0.38914 0.83105 0.32814 0.0
H928 H 0.39952 0.95345 0.32921 0.0
H929 H 0.37558 0.89302 0.32699 0.0
H930 H 0.41914 0.87842 0.28292 0.0
H931 H 0.44132 0.93977 0.28482 0.0
C932 C 0.35833 0.79354 0.28962 0.0
C933 C 0.35417 0.77355 0.30308 0.0
C934 C 0.37249 0.82807 0.2901 0.0
C935 C 0.38308 0.84267 0.30402 0.0
C936 C 0.38042 0.82125 0.31731 0.0
C937 C 0.36562 0.78724 0.31686 0.0
C938 C 0.40351 0.9374 0.31898 0.0
C939 C 0.42208 0.95115 0.30718 0.0
C940 C 0.39019 0.9026 0.31776 0.0
C941 C 0.39586 0.88049 0.30487 0.0
C942 C 0.41396 0.89476 0.29292 0.0
C943 C 0.42669 0.92991 0.29401 0.0
H944 H 0.60454 0.70376 0.02971 0.0
H945 H 0.60964 0.70383 0.07876 0.0
H946 H 0.62733 0.64203 0.0291 0.0
H947 H 0.63436 0.64339 0.07829 0.0
H948 H 0.64047 0.5214 0.07535 0.0
H949 H 0.61801 0.58301 0.07402 0.0
H950 H 0.67113 0.60442 0.03306 0.0
H951 H 0.69186 0.54204 0.03395 0.0
C952 C 0.61165 0.6909 0.0403 0.0
C953 C 0.60559 0.708 0.05427 0.0
C954 C 0.62459 0.65562 0.03999 0.0
C955 C 0.63209 0.63746 0.05368 0.0
C956 C 0.62787 0.65603 0.06758 0.0
C957 C 0.61426 0.69079 0.06788 0.0
C958 C 0.64674 0.53919 0.06593 0.0
C959 C 0.66764 0.52722 0.05473 0.0
C960 C 0.63431 0.57459 0.06526 0.0
C961 C 0.6433 0.59893 0.0536 0.0
C962 C 0.66349 0.58633 0.04211 0.0
C963 C 0.67533 0.55061 0.0426 0.0
H964 H 0.67951 0.69591 0.25351 0.0
H965 H 0.64477 0.70933 0.20765 0.0
H966 H 0.65725 0.63429 0.25449 0.0
H967 H 0.62144 0.64843 0.20882 0.0
H968 H 0.6182 0.52583 0.20711 0.0
H969 H 0.64112 0.58693 0.20823 0.0
H970 H 0.61056 0.59814 0.25493 0.0
H971 H 0.5887 0.53631 0.25396 0.0
C972 C 0.66636 0.68604 0.24381 0.0
C973 C 0.66399 0.70714 0.23046 0.0
C974 C 0.65368 0.65073 0.24435 0.0
C975 C 0.63815 0.6362 0.23162 0.0
C976 C 0.63412 0.65839 0.21865 0.0
C977 C 0.64713 0.6934 0.21803 0.0
C978 C 0.61685 0.54117 0.21768 0.0
C979 C 0.60158 0.52652 0.23041 0.0
C980 C 0.62963 0.5763 0.21828 0.0
C981 C 0.62698 0.59771 0.23156 0.0
C982 C 0.61302 0.58231 0.24455 0.0
C983 C 0.60057 0.5469 0.244 0.0
H984 H 0.3072 0.41766 0.98463 0.0
H985 H 0.39307 0.47668 0.99238 0.0
H986 H 0.33497 0.35955 0.98612 0.0
H987 H 0.4212 0.4177 0.99399 0.0
H988 H 0.45842 0.31172 0.96961 0.0
H989 H 0.43302 0.37053 0.974 0.0
H990 H 0.36502 0.31754 1.00281 0.0
H991 H 0.39041 0.25806 0.99834 0.0
C992 C 0.33207 0.41816 0.98682 0.0
C993 C 0.34814 0.45169 0.98814 0.0
C994 C 0.34789 0.38478 0.98785 0.0
C995 C 0.38023 0.38408 0.99012 0.0
C996 C 0.39623 0.41756 0.99212 0.0
C997 C 0.38022 0.4512 0.99126 0.0
C998 C 0.43807 0.31242 0.97691 0.0
C999 C 0.42624 0.28002 0.98351 0.0
C1000 C 0.4238 0.34631 0.97959 0.0
C1001 C 0.39723 0.34867 0.98883 0.0
C1002 C 0.3855 0.31645 0.9956 0.0
C1003 C 0.39994 0.28242 0.993 0.0
H1004 H 0.37771 0.26703 0.78698 0.0
H1005 H 0.30861 0.30549 0.8191 0.0
H1006 H 0.39911 0.32962 0.78542 0.0
H1007 H 0.32864 0.36761 0.81704 0.0
H1008 H 0.4041 0.44965 0.82966 0.0
H1009 H 0.37622 0.39236 0.82701 0.0
H1010 H 0.39009 0.39521 0.77826 0.0
H1011 H 0.41918 0.45271 0.78096 0.0
C1012 C 0.367 0.28899 0.79352 0.0
C1013 C 0.34241 0.28161 0.80354 0.0
C1014 C 0.3789 0.3247 0.79252 0.0
C1015 C 0.36579 0.35321 0.80133 0.0
C1016 C 0.33972 0.34596 0.81046 0.0
C1017 C 0.32838 0.31045 0.81169 0.0
C1018 C 0.40099 0.43836 0.81833 0.0
C1019 C 0.41404 0.45544 0.80553 0.0
C1020 C 0.38479 0.40563 0.8168 0.0
C1021 C 0.38099 0.3894 0.80241 0.0
C1022 C 0.39299 0.40708 0.78948 0.0
C1023 C 0.40934 0.44004 0.79103 0.0
H1024 H 0.95269 0.30073 0.09935 0.0
H1025 H 0.97062 0.40314 0.07594 0.0
H1026 H 0.89847 0.31939 0.10311 0.0
H1027 H 0.91661 0.42097 0.07908 0.0
H1028 H 0.82129 0.45635 0.09071 0.0
H1029 H 0.87572 0.43978 0.09486 0.0
H1030 H 0.85295 0.32504 0.08812 0.0
H1031 H 0.79833 0.34162 0.08473 0.0
C1032 C 0.94519 0.32738 0.09516 0.0
C1033 C 0.96604 0.35035 0.0873 0.0
C1034 C 0.91401 0.33796 0.0972 0.0
C1035 C 0.90291 0.37162 0.09131 0.0
C1036 C 0.92421 0.39515 0.08403 0.0
C1037 C 0.95533 0.38477 0.08213 0.0
C1038 C 0.82786 0.42752 0.09043 0.0
C1039 C 0.80558 0.40031 0.0873 0.0
C1040 C 0.85913 0.418 0.09269 0.0
C1041 C 0.869 0.38109 0.09157 0.0
C1042 C 0.84632 0.35371 0.08924 0.0
C1043 C 0.81493 0.36321 0.08723 0.0
H1044 H 0.45319 0.79025 0.0918 0.0
H1045 H 0.46922 0.90067 0.07525 0.0
H1046 H 0.39819 0.80509 0.09562 0.0
H1047 H 0.41434 0.91514 0.0788 0.0
H1048 H 0.31691 0.93973 0.0934 0.0
H1049 H 0.37182 0.92406 0.09682 0.0
H1050 H 0.35482 0.81588 0.0782 0.0
H1051 H 0.29997 0.83116 0.07504 0.0
C1052 C 0.44512 0.81782 0.08918 0.0
C1053 C 0.46562 0.84419 0.08313 0.0
C1054 C 0.41356 0.82624 0.09129 0.0
C1055 C 0.40183 0.86122 0.08743 0.0
C1056 C 0.42263 0.88808 0.08207 0.0
C1057 C 0.45413 0.87967 0.07994 0.0
C1058 C 0.32475 0.91235 0.09031 0.0
C1059 C 0.30404 0.88682 0.08383 0.0
C1060 C 0.35626 0.90346 0.09219 0.0
C1061 C 0.36776 0.86886 0.08765 0.0
C1062 C 0.34671 0.84265 0.08196 0.0
C1063 C 0.31523 0.85151 0.08008 0.0
H1064 H 0.82756 0.78205 0.21144 0.0
H1065 H 0.79542 0.87987 0.18818 0.0
H1066 H 0.88097 0.80177 0.20842 0.0
H1067 H 0.84944 0.89903 0.18446 0.0
H1068 H 0.94531 0.94362 0.20076 0.0
H1069 H 0.89146 0.9233 0.19831 0.0
H1070 H 0.9235 0.81106 0.19268 0.0
H1071 H 0.9771 0.83133 0.19601 0.0
C1072 C 0.83191 0.80742 0.20532 0.0
C1073 C 0.80708 0.82937 0.20008 0.0
C1074 C 0.86277 0.8187 0.20349 0.0
C1075 C 0.86985 0.8521 0.19615 0.0
C1076 C 0.845 0.87344 0.19037 0.0
C1077 C 0.81398 0.86231 0.19239 0.0
C1078 C 0.94082 0.91471 0.19872 0.0
C1079 C 0.96542 0.88904 0.19871 0.0
C1080 C 0.90986 0.90298 0.19726 0.0
C1081 C 0.90284 0.86534 0.19552 0.0
C1082 C 0.92777 0.8401 0.19446 0.0
C1083 C 0.95861 0.85174 0.19622 0.0
H1084 H 0.32292 0.28702 0.19914 0.0
H1085 H 0.29053 0.3991 0.19433 0.0
H1086 H 0.37653 0.30759 0.1966 0.0
H1087 H 0.34407 0.41963 0.1909 0.0
H1088 H 0.43896 0.44825 0.21132 0.0
H1089 H 0.3858 0.42885 0.2072 0.0
H1090 H 0.41896 0.3322 0.1833 0.0
H1091 H 0.4727 0.35102 0.18814 0.0
C1092 C 0.3272 0.31594 0.19699 0.0
C1093 C 0.30249 0.34149 0.19708 0.0
C1094 C 0.35806 0.3278 0.19549 0.0
C1095 C 0.36491 0.36547 0.19381 0.0
C1096 C 0.33988 0.39056 0.19264 0.0
C1097 C 0.3091 0.37878 0.19444 0.0
C1098 C 0.43503 0.42308 0.205 0.0
C1099 C 0.4602 0.40112 0.20013 0.0
C1100 C 0.40433 0.41201 0.2025 0.0
C1101 C 0.39778 0.37885 0.19487 0.0
C1102 C 0.423 0.3576 0.18943 0.0
C1103 C 0.45386 0.3685 0.19211 0.0
H1104 H 0.06715 0.68667 0.94265 0.0
H1105 H 0.04969 0.57657 0.95912 0.0
H1106 H 0.12188 0.67087 0.93881 0.0
H1107 H 0.10443 0.5613 0.95589 0.0
H1108 H 0.20301 0.53544 0.94396 0.0
H1109 H 0.14821 0.55056 0.93972 0.0
H1110 H 0.16487 0.66145 0.95553 0.0
H1111 H 0.21956 0.64679 0.95921 0.0
C1112 C 0.07485 0.65897 0.94528 0.0
C1113 C 0.05403 0.63308 0.95143 0.0
C1114 C 0.10633 0.64998 0.94319 0.0
C1115 C 0.11778 0.61496 0.94725 0.0
C1116 C 0.09653 0.58845 0.95252 0.0
C1117 C 0.06507 0.59735 0.95452 0.0
C1118 C 0.1951 0.56325 0.94624 0.0
C1119 C 0.2157 0.58977 0.95209 0.0
C1120 C 0.1636 0.57186 0.94391 0.0
C1121 C 0.15194 0.60713 0.94744 0.0
C1122 C 0.17295 0.63412 0.95252 0.0
C1123 C 0.2044 0.62559 0.95476 0.0
H1124 H 0.54876 0.07693 0.95806 0.0
H1125 H 0.56859 0.18486 0.93996 0.0
H1126 H 0.6028 0.05959 0.9551 0.0
H1127 H 0.62288 0.16668 0.93602 0.0
H1128 H 0.72289 0.13867 0.95283 0.0
H1129 H 0.66844 0.15674 0.94998 0.0
H1130 H 0.64437 0.04373 0.93995 0.0
H1131 H 0.69853 0.02564 0.9438 0.0
C1132 C 0.56455 0.09682 0.95315 0.0
C1133 C 0.55424 0.13251 0.94948 0.0
C1134 C 0.59574 0.08667 0.95126 0.0
C1135 C 0.61765 0.11168 0.94536 0.0
C1136 C 0.60698 0.14682 0.94089 0.0
C1137 C 0.5757 0.15717 0.943 0.0
C1138 C 0.70599 0.11787 0.94974 0.0
C1139 C 0.71491 0.08071 0.94866 0.0
C1140 C 0.67466 0.12821 0.94805 0.0
C1141 C 0.65158 0.10169 0.94495 0.0
C1142 C 0.66111 0.06487 0.9428 0.0
C1143 C 0.69227 0.05446 0.94485 0.0
H1144 H 0.22711 0.09308 0.84425 0.0
H1145 H 0.19129 0.19962 0.83081 0.0
H1146 H 0.1738 0.07139 0.84801 0.0
H1147 H 0.13848 0.17773 0.83399 0.0
H1148 H 0.04386 0.13624 0.8447 0.0
H1149 H 0.09701 0.15705 0.8496 0.0
H1150 H 0.13293 0.05511 0.83105 0.0
H1151 H 0.08018 0.03393 0.82672 0.0
C1152 C 0.20794 0.11203 0.84233 0.0
C1153 C 0.21351 0.14795 0.83708 0.0
C1154 C 0.17737 0.09954 0.84437 0.0
C1155 C 0.15174 0.12264 0.84113 0.0
C1156 C 0.15749 0.15921 0.83677 0.0
C1157 C 0.18794 0.17172 0.83482 0.0
C1158 C 0.06312 0.11806 0.84193 0.0
C1159 C 0.05773 0.08356 0.8352 0.0
C1160 C 0.09361 0.13004 0.84466 0.0
C1161 C 0.11937 0.10791 0.84061 0.0
C1162 C 0.1138 0.07274 0.83454 0.0
C1163 C 0.08341 0.06069 0.83192 0.0
H1164 H 0.57736 0.52651 0.83156 0.0
H1165 H 0.54167 0.62946 0.84922 0.0
H1166 H 0.63028 0.54811 0.83513 0.0
H1167 H 0.59494 0.65071 0.85329 0.0
H1168 H 0.68755 0.69337 0.83264 0.0
H1169 H 0.63506 0.6708 0.83651 0.0
H1170 H 0.67213 0.56602 0.85142 0.0
H1171 H 0.72502 0.58837 0.84704 0.0
C1172 C 0.58077 0.55345 0.83657 0.0
C1173 C 0.55519 0.57641 0.83994 0.0
C1174 C 0.61126 0.56578 0.83872 0.0
C1175 C 0.61699 0.60133 0.84437 0.0
C1176 C 0.59138 0.62342 0.84865 0.0
C1177 C 0.56082 0.61115 0.84641 0.0
C1178 C 0.68464 0.66567 0.83697 0.0
C1179 C 0.71057 0.64256 0.83938 0.0
C1180 C 0.6544 0.65278 0.83932 0.0
C1181 C 0.64924 0.61646 0.8442 0.0
C1182 C 0.67524 0.59396 0.84742 0.0
C1183 C 0.70558 0.60684 0.845 0.0
H1184 H 0.79425 0.84192 0.59511 0.0
H1185 H 0.82758 0.94399 0.57588 0.0
H1186 H 0.8481 0.82305 0.60014 0.0
H1187 H 0.8807 0.92476 0.58021 0.0
H1188 H 0.9751 0.89541 0.59309 0.0
H1189 H 0.92094 0.91313 0.5973 0.0
H1190 H 0.89188 0.80245 0.5861 0.0
H1191 H 0.94623 0.78442 0.58286 0.0
C1192 C 0.813 0.86041 0.59207 0.0
C1193 C 0.8066 0.89441 0.58506 0.0
C1194 C 0.84386 0.84954 0.59488 0.0
C1195 C 0.8689 0.87233 0.59061 0.0
C1196 C 0.86222 0.90673 0.58401 0.0
C1197 C 0.83157 0.91769 0.58137 0.0
C1198 C 0.95711 0.87472 0.59193 0.0
C1199 C 0.96473 0.8387 0.58751 0.0
C1200 C 0.92605 0.88488 0.59421 0.0
C1201 C 0.90186 0.8595 0.59165 0.0
C1202 C 0.90976 0.82274 0.58827 0.0
C1203 C 0.94095 0.81238 0.58635 0.0
H1204 H 0.32723 0.45656 0.58011 0.0
H1205 H 0.29083 0.35148 0.5947 0.0
H1206 H 0.37994 0.43409 0.5838 0.0
H1207 H 0.34393 0.32927 0.59889 0.0
H1208 H 0.43707 0.28989 0.57697 0.0
H1209 H 0.38441 0.31182 0.5815 0.0
H1210 H 0.4209 0.41308 0.6001 0.0
H1211 H 0.47388 0.39152 0.5951 0.0
C1212 C 0.33043 0.42892 0.58449 0.0
C1213 C 0.30479 0.40563 0.58689 0.0
C1214 C 0.36077 0.4161 0.58672 0.0
C1215 C 0.36622 0.37972 0.5915 0.0
C1216 C 0.34052 0.35724 0.59494 0.0
C1217 C 0.31008 0.37004 0.59263 0.0
C1218 C 0.43396 0.31662 0.58224 0.0
C1219 C 0.45969 0.33917 0.58548 0.0
C1220 C 0.40367 0.32909 0.58497 0.0
C1221 C 0.39837 0.36433 0.59108 0.0
C1222 C 0.42418 0.38603 0.59515 0.0
C1223 C 0.45453 0.37363 0.59233 0.0
H1224 H 0.94526 0.45204 0.69122 0.0
H1225 H 0.97296 0.34043 0.70143 0.0
H1226 H 0.89166 0.43184 0.68748 0.0
H1227 H 0.91937 0.32047 0.69895 0.0
H1228 H 0.822 0.28639 0.69089 0.0
H1229 H 0.875 0.30713 0.68584 0.0
H1230 H 0.85003 0.41585 0.70216 0.0
H1231 H 0.79681 0.39555 0.70597 0.0
C1232 C 0.93983 0.42311 0.69254 0.0
C1233 C 0.96316 0.3978 0.69663 0.0
C1234 C 0.90904 0.4115 0.69058 0.0
C1235 C 0.90072 0.37451 0.69317 0.0
C1236 C 0.92458 0.34902 0.69659 0.0
C1237 C 0.95546 0.36048 0.6981 0.0
C1238 C 0.82789 0.31489 0.69308 0.0
C1239 C 0.80544 0.33938 0.69882 0.0
C1240 C 0.85835 0.32679 0.69033 0.0
C1241 C 0.86728 0.36317 0.69376 0.0
C1242 C 0.84427 0.38787 0.69906 0.0
C1243 C 0.81365 0.3762 0.70137 0.0
H1244 H 0.47082 0.83083 0.70655 0.0
H1245 H 0.446 0.94056 0.69206 0.0
H1246 H 0.41727 0.81118 0.70298 0.0
H1247 H 0.3927 0.92055 0.68733 0.0
H1248 H 0.29511 0.88808 0.70392 0.0
H1249 H 0.34888 0.90743 0.70114 0.0
H1250 H 0.37497 0.7964 0.68829 0.0
H1251 H 0.32128 0.77679 0.69224 0.0
C1252 C 0.454 0.85043 0.70212 0.0
C1253 C 0.46239 0.88722 0.69969 0.0
C1254 C 0.42321 0.83917 0.69996 0.0
C1255 C 0.40024 0.86429 0.69497 0.0
C1256 C 0.40935 0.9006 0.69159 0.0
C1257 C 0.43997 0.91207 0.69416 0.0
C1258 C 0.31229 0.86802 0.70022 0.0
C1259 C 0.30415 0.83093 0.69839 0.0
C1260 C 0.34324 0.8791 0.69854 0.0
C1261 C 0.36668 0.85347 0.69463 0.0
C1262 C 0.3579 0.81679 0.69175 0.0
C1263 C 0.32707 0.80554 0.69384 0.0
H1264 H 0.21769 0.1503 0.46207 0.0
H1265 H 0.20313 0.04162 0.44339 0.0
H1266 H 0.16286 0.16467 0.45825 0.0
H1267 H 0.14824 0.0564 0.43921 0.0
H1268 H 0.06595 0.19075 0.44332 0.0
H1269 H 0.12116 0.17599 0.44053 0.0
H1270 H 0.10317 0.06453 0.45517 0.0
H1271 H 0.04798 0.0789 0.45749 0.0
C1272 C 0.20296 0.12968 0.45686 0.0
C1273 C 0.21489 0.09469 0.45314 0.0
C1274 C 0.17144 0.13803 0.45457 0.0
C1275 C 0.15099 0.11165 0.44847 0.0
C1276 C 0.1632 0.0772 0.44414 0.0
C1277 C 0.19476 0.06881 0.44645 0.0
C1278 C 0.07363 0.16285 0.44562 0.0
C1279 C 0.05247 0.13614 0.45081 0.0
C1280 C 0.10539 0.15448 0.44415 0.0
C1281 C 0.11678 0.11921 0.44783 0.0
C1282 C 0.09531 0.09193 0.45213 0.0
C1283 C 0.06357 0.10026 0.45357 0.0
H1284 H 0.72742 0.63228 0.43811 0.0
H1285 H 0.69056 0.52971 0.45517 0.0
H1286 H 0.67439 0.65474 0.43389 0.0
H1287 H 0.63785 0.55248 0.45144 0.0
H1288 H 0.54362 0.5941 0.43807 0.0
H1289 H 0.59673 0.57082 0.43483 0.0
H1290 H 0.63306 0.67561 0.44976 0.0
H1291 H 0.58035 0.69908 0.4525 0.0
C1292 C 0.70806 0.61432 0.44077 0.0
C1293 C 0.71335 0.57925 0.44706 0.0
C1294 C 0.6776 0.62731 0.43846 0.0
C1295 C 0.65167 0.60563 0.44245 0.0
C1296 C 0.65708 0.56988 0.44804 0.0
C1297 C 0.68746 0.55686 0.45028 0.0
C1298 C 0.56296 0.61239 0.44034 0.0
C1299 C 0.55762 0.64843 0.44562 0.0
C1300 C 0.59346 0.59895 0.43861 0.0
C1301 C 0.61934 0.62117 0.44216 0.0
C1302 C 0.61388 0.65775 0.44672 0.0
C1303 C 0.58349 0.67119 0.44839 0.0
H1304 H 0.04263 0.6487 0.33997 0.0
H1305 H 0.06926 0.53746 0.32848 0.0
H1306 H 0.09735 0.6649 0.34313 0.0
H1307 H 0.12377 0.55393 0.3303 0.0
H1308 H 0.22229 0.58517 0.33806 0.0
H1309 H 0.16804 0.56898 0.3428 0.0
H1310 H 0.13977 0.67856 0.3289 0.0
H1311 H 0.19402 0.69512 0.32551 0.0
C1312 C 0.06028 0.62769 0.33822 0.0
C1313 C 0.05175 0.59185 0.33403 0.0
C1314 C 0.09174 0.63701 0.33983 0.0
C1315 C 0.11546 0.61102 0.33674 0.0
C1316 C 0.10659 0.57476 0.33308 0.0
C1317 C 0.07516 0.56522 0.33195 0.0
C1318 C 0.20435 0.60583 0.33632 0.0
C1319 C 0.21226 0.64135 0.33145 0.0
C1320 C 0.17314 0.59654 0.33888 0.0
C1321 C 0.14902 0.6222 0.33609 0.0
C1322 C 0.15732 0.65807 0.33154 0.0
C1323 C 0.18855 0.66762 0.32946 0.0
H1324 H 0.69151 0.19995 0.32931 0.0
H1325 H 0.72891 0.09617 0.34518 0.0
H1326 H 0.63894 0.1773 0.33308 0.0
H1327 H 0.67601 0.07381 0.34943 0.0
H1328 H 0.58129 0.03174 0.33086 0.0
H1329 H 0.63417 0.05432 0.33352 0.0
H1330 H 0.59863 0.15845 0.35001 0.0
H1331 H 0.54539 0.13615 0.34687 0.0
C1332 C 0.68857 0.17253 0.33394 0.0
C1333 C 0.71454 0.1498 0.33682 0.0
C1334 C 0.65828 0.15959 0.3362 0.0
C1335 C 0.65308 0.12359 0.34149 0.0
C1336 C 0.6791 0.10147 0.34511 0.0
C1337 C 0.70947 0.11439 0.34277 0.0
C1338 C 0.58466 0.05927 0.3353 0.0
C1339 C 0.55898 0.08222 0.33852 0.0
C1340 C 0.61513 0.07219 0.33692 0.0
C1341 C 0.62081 0.10837 0.34188 0.0
C1342 C 0.59515 0.13066 0.3459 0.0
C1343 C 0.56459 0.11777 0.34421 0.0
H1344 H 0.10484 0.35411 0.10958 0.0
H1345 H 0.08099 0.23889 0.11249 0.0
H1346 H 0.13371 0.34942 0.13318 0.0
H1347 H 0.10959 0.23438 0.13665 0.0
H1348 H 0.19105 0.23841 0.17305 0.0
H1349 H 0.16127 0.23665 0.14913 0.0
H1350 H 0.12232 0.34361 0.15949 0.0
H1351 H 0.15235 0.34576 0.18282 0.0
C1352 C 0.10554 0.32771 0.11531 0.0
C1353 C 0.09016 0.297 0.10915 0.0
C1354 C 0.12206 0.32505 0.12897 0.0
C1355 C 0.12359 0.29168 0.13707 0.0
C1356 C 0.10896 0.26053 0.13074 0.0
C1357 C 0.09245 0.26316 0.11692 0.0
C1358 C 0.1759 0.26133 0.17023 0.0
C1359 C 0.17453 0.29249 0.17974 0.0
C1360 C 0.15878 0.26032 0.15653 0.0
C1361 C 0.13984 0.29036 0.15216 0.0
C1362 C 0.13736 0.32047 0.16216 0.0
C1363 C 0.15452 0.32161 0.17565 0.0
H1364 H 0.10881 0.87861 0.17807 0.0
H1365 H 0.07964 -0.00873 0.17119 0.0
H1366 H 0.13913 0.88071 0.15487 0.0
H1367 H 0.10934 -0.00697 0.1473 0.0
H1368 H 0.16202 0.87675 0.10541 0.0
H1369 H 0.13175 0.8798 0.12864 0.0
H1370 H 0.15966 -0.00705 0.13506 0.0
H1371 H 0.18926 0.99021 0.11118 0.0
C1372 C 0.1086 0.90385 0.1715 0.0
C1373 C 0.09138 0.93462 0.17645 0.0
C1374 C 0.12595 0.905 0.15806 0.0
C1375 C 0.12635 0.93679 0.14891 0.0
C1376 C 0.10974 0.96805 0.15402 0.0
C1377 C 0.09257 0.96703 0.16769 0.0
C1378 C 0.16183 0.90235 0.11174 0.0
C1379 C 0.17847 0.93309 0.10646 0.0
C1380 C 0.14452 0.90407 0.12519 0.0
C1381 C 0.14357 0.93643 0.13402 0.0
C1382 C 0.15966 0.96757 0.12859 0.0
C1383 C 0.1768 0.96596 0.11493 0.0
H1384 H 0.92462 0.61503 0.92739 0.0
H1385 H 0.92629 0.73402 0.9279 0.0
H1386 H 0.89473 0.6161 0.90399 0.0
H1387 H 0.89654 0.73498 0.90406 0.0
H1388 H 0.81443 0.71773 0.86977 0.0
H1389 H 0.84476 0.72052 0.89333 0.0
H1390 H 0.90222 0.6304 0.87749 0.0
H1391 H 0.87175 0.6271 0.85422 0.0
C1392 C 0.91879 0.64153 0.92248 0.0
C1393 C 0.92814 0.67447 0.92954 0.0
C1394 C 0.90172 0.6421 0.90895 0.0
C1395 C 0.89347 0.6756 0.90202 0.0
C1396 C 0.90239 0.70868 0.90914 0.0
C1397 C 0.91959 0.70812 0.92275 0.0
C1398 C 0.83355 0.69852 0.87132 0.0
C1399 C 0.84037 0.6719 0.86014 0.0
C1400 C 0.85107 0.7003 0.88479 0.0
C1401 C 0.87578 0.67548 0.88739 0.0
C1402 C 0.88298 0.64948 0.87603 0.0
C1403 C 0.86553 0.64768 0.86262 0.0
H1404 H 0.88851 0.08387 0.84933 0.0
H1405 H 0.96678 0.02971 0.87083 0.0
H1406 H 0.85918 0.08027 0.87321 0.0
H1407 H 0.93764 0.02705 0.89482 0.0
H1408 H 0.88531 0.0805 0.93733 0.0
H1409 H 0.91482 0.07943 0.91347 0.0
H1410 H 0.838 0.02538 0.89112 0.0
H1411 H 0.80866 0.02551 0.91511 0.0
C1412 C 0.89949 0.07134 0.85916 0.0
C1413 C 0.93001 0.05716 0.85819 0.0
C1414 C 0.88262 0.06909 0.87279 0.0
C1415 C 0.89615 0.05337 0.88584 0.0
C1416 C 0.9267 0.03939 0.88493 0.0
C1417 C 0.94332 0.04084 0.87119 0.0
C1418 C 0.87478 0.06816 0.92735 0.0
C1419 C 0.84463 0.05311 0.9281 0.0
C1420 C 0.89173 0.06743 0.91373 0.0
C1421 C 0.87865 0.0524 0.90046 0.0
C1422 C 0.84856 0.03726 0.90118 0.0
C1423 C 0.83186 0.03719 0.91491 0.0
H1424 H 0.14386 0.8434 0.68301 0.0
H1425 H 0.20204 0.75286 0.66819 0.0
H1426 H 0.11466 0.8401 0.65936 0.0
H1427 H 0.17292 0.75004 0.64422 0.0
H1428 H 0.09268 0.73892 0.60799 0.0
H1429 H 0.12156 0.7364 0.63216 0.0
H1430 H 0.1246 0.85518 0.63316 0.0
H1431 H 0.09582 0.85777 0.60953 0.0
C1432 C 0.15053 0.82279 0.6747 0.0
C1433 C 0.17563 0.7987 0.6775 0.0
C1434 C 0.13379 0.82098 0.66106 0.0
C1435 C 0.14164 0.79511 0.64974 0.0
C1436 C 0.16614 0.77021 0.65269 0.0
C1437 C 0.18296 0.772 0.6664 0.0
C1438 C 0.09958 0.76442 0.6134 0.0
C1439 C 0.09151 0.79851 0.60683 0.0
C1440 C 0.11622 0.763 0.62721 0.0
C1441 C 0.12504 0.79562 0.63476 0.0
C1442 C 0.11758 0.82949 0.62793 0.0
C1443 C 0.10111 0.83092 0.61425 0.0
H1444 H 0.15619 0.37737 0.60373 0.0
H1445 H 0.19069 0.48674 0.61301 0.0
H1446 H 0.1282 0.37775 0.62782 0.0
H1447 H 0.16229 0.48703 0.63726 0.0
H1448 H 0.07684 0.4827 0.67123 0.0
H1449 H 0.10604 0.48584 0.64728 0.0
H1450 H 0.14289 0.3769 0.65548 0.0
H1451 H 0.114 0.3737 0.67932 0.0
C1452 C 0.15776 0.40161 0.61087 0.0
C1453 C 0.17588 0.432 0.60641 0.0
C1454 C 0.14181 0.4017 0.62475 0.0
C1455 C 0.14318 0.4323 0.63451 0.0
C1456 C 0.1607 0.46308 0.62996 0.0
C1457 C 0.17707 0.46283 0.6161 0.0
C1458 C 0.09125 0.45947 0.66794 0.0
C1459 C 0.09286 0.42785 0.67718 0.0
C1460 C 0.10811 0.46138 0.65426 0.0
C1461 C 0.12661 0.43152 0.64943 0.0
C1462 C 0.12854 0.40019 0.65878 0.0
C1463 C 0.11205 0.39845 0.6725 0.0
H1464 H 0.87308 0.13187 0.35323 0.0
H1465 H 0.81803 0.22563 0.3675 0.0
H1466 H 0.90123 0.13332 0.37723 0.0
H1467 H 0.84602 0.22662 0.39177 0.0
H1468 H 0.92014 0.11772 0.42748 0.0
H1469 H 0.89155 0.11975 0.40364 0.0
H1470 H 0.89699 0.23845 0.40357 0.0
H1471 H 0.92532 0.23652 0.42775 0.0
C1472 C 0.86688 0.1528 0.36149 0.0
C1473 C 0.84305 0.17847 0.35842 0.0
C1474 C 0.88296 0.15349 0.37534 0.0
C1475 C 0.87573 0.17985 0.38655 0.0
C1476 C 0.85235 0.20607 0.38338 0.0
C1477 C 0.83618 0.20537 0.36948 0.0
C1478 C 0.91528 0.14435 0.42245 0.0
C1479 C 0.92532 0.17695 0.42956 0.0
C1480 C 0.89899 0.14548 0.40868 0.0
C1481 C 0.89221 0.17923 0.40154 0.0
C1482 C 0.90166 0.21197 0.40877 0.0
C1483 C 0.91805 0.21084 0.4226 0.0
H1484 H 0.87535 0.59446 0.43285 0.0
H1485 H 0.81787 0.50394 0.41787 0.0
H1486 H 0.90425 0.59178 0.40907 0.0
H1487 H 0.84659 0.50179 0.39382 0.0
H1488 H 0.92129 0.61041 0.35901 0.0
H1489 H 0.89359 0.60739 0.38296 0.0
H1490 H 0.89752 0.48862 0.38158 0.0
H1491 H 0.92515 0.49156 0.35713 0.0
C1492 C 0.86881 0.57396 0.42448 0.0
C1493 C 0.84398 0.54971 0.42725 0.0
C1494 C 0.88535 0.57253 0.41079 0.0
C1495 C 0.87751 0.54688 0.39941 0.0
C1496 C 0.85335 0.52178 0.40234 0.0
C1497 C 0.83676 0.52317 0.41611 0.0
C1498 C 0.91639 0.5835 0.36373 0.0
C1499 C 0.9258 0.5512 0.35612 0.0
C1500 C 0.90059 0.58182 0.37758 0.0
C1501 C 0.89369 0.5478 0.38436 0.0
C1502 C 0.90243 0.51531 0.37666 0.0
C1503 C 0.91837 0.51698 0.36269 0.0
H1504 H 0.57329 0.25823 0.61459 0.0
H1505 H 0.60606 0.36872 0.60617 0.0
H1506 H 0.60387 0.25629 0.6382 0.0
H1507 H 0.63629 0.36669 0.62959 0.0
H1508 H 0.65588 0.36574 0.68072 0.0
H1509 H 0.62491 0.36483 0.65751 0.0
H1510 H 0.66125 0.25703 0.64659 0.0
H1511 H 0.69254 0.25783 0.66996 0.0
C1512 C 0.58684 0.28211 0.61779 0.0
C1513 C 0.58706 0.31369 0.60851 0.0
C1514 C 0.60453 0.28089 0.63124 0.0
C1515 C 0.6224 0.31139 0.63577 0.0
C1516 C 0.6225 0.3429 0.6265 0.0
C1517 C 0.60522 0.34397 0.61303 0.0
C1518 C 0.65737 0.34177 0.67341 0.0
C1519 C 0.67692 0.31194 0.67719 0.0
C1520 C 0.63965 0.34134 0.66006 0.0
C1521 C 0.6407 0.31092 0.65018 0.0
C1522 C 0.65983 0.28077 0.65403 0.0
C1523 C 0.67791 0.28137 0.66735 0.0
H1524 H 0.63758 0.88977 0.59904 0.0
H1525 H 0.71371 0.94526 0.62149 0.0
H1526 H 0.60748 0.89144 0.6227 0.0
H1527 H 0.68373 0.94604 0.64529 0.0
H1528 H 0.63133 0.89045 0.6871 0.0
H1529 H 0.66169 0.89281 0.66351 0.0
H1530 H 0.58405 0.94441 0.64058 0.0
H1531 H 0.55382 0.94294 0.66426 0.0
C1532 C 0.64793 0.90221 0.60904 0.0
C1533 C 0.67808 0.9173 0.60841 0.0
C1534 C 0.63061 0.90333 0.62254 0.0
C1535 C 0.64329 0.91886 0.6358 0.0
C1536 C 0.67347 0.9338 0.63523 0.0
C1537 C 0.69055 0.93345 0.62161 0.0
C1538 C 0.62075 0.90239 0.67704 0.0
C1539 C 0.59012 0.9164 0.67754 0.0
C1540 C 0.63821 0.90392 0.66358 0.0
C1541 C 0.6252 0.91877 0.65024 0.0
C1542 C 0.59457 0.9327 0.6507 0.0
C1543 C 0.57734 0.93195 0.66426 0.0
H1544 H 0.39338 0.63841 0.43173 0.0
H1545 H 0.45379 0.7235 0.4143 0.0
H1546 H 0.36226 0.64148 0.4087 0.0
H1547 H 0.42276 0.72596 0.39089 0.0
H1548 H 0.33786 0.62129 0.35943 0.0
H1549 H 0.36808 0.62351 0.38269 0.0
H1550 H 0.37175 0.74211 0.37974 0.0
H1551 H 0.34175 0.73988 0.35599 0.0
C1552 C 0.40016 0.65773 0.42295 0.0
C1553 C 0.4264 0.6804 0.42484 0.0
C1554 C 0.3823 0.65939 0.40967 0.0
C1555 C 0.39017 0.68361 0.3978 0.0
C1556 C 0.41591 0.70709 0.39982 0.0
C1557 C 0.43382 0.70553 0.4132 0.0
C1558 C 0.3449 0.64798 0.36369 0.0
C1559 C 0.33705 0.68045 0.35582 0.0
C1560 C 0.36219 0.64924 0.37715 0.0
C1561 C 0.37214 0.68301 0.38324 0.0
C1562 C 0.3646 0.7156 0.37534 0.0
C1563 C 0.34721 0.71434 0.36178 0.0
H1564 H 0.36601 0.00263 0.43566 0.0
H1565 H 0.31513 0.09739 0.41938 0.0
H1566 H 0.39713 0.00232 0.41231 0.0
H1567 H 0.34435 0.09586 0.39576 0.0
H1568 H 0.42117 0.11315 0.36212 0.0
H1569 H 0.39141 0.11047 0.38555 0.0
H1570 H 0.40212 -0.00801 0.38633 0.0
H1571 H 0.43382 -0.00468 0.36324 0.0
C1572 C 0.3611 0.02294 0.42695 0.0
C1573 C 0.33834 0.05023 0.42942 0.0
C1574 C 0.37887 0.02276 0.41349 0.0
C1575 C 0.37385 0.04946 0.40205 0.0
C1576 C 0.34995 0.07561 0.40438 0.0
C1577 C 0.33282 0.07629 0.41791 0.0
C1578 C 0.41723 0.08652 0.36731 0.0
C1579 C 0.42982 0.05446 0.36077 0.0
C1580 C 0.3998 0.08484 0.38075 0.0
C1581 C 0.39364 0.05089 0.38792 0.0
C1582 C 0.40648 0.01874 0.38137 0.0
C1583 C 0.42458 0.02057 0.36805 0.0
H1584 H 0.61544 0.75429 0.10206 0.0
H1585 H 0.56587 0.85111 0.11727 0.0
H1586 H 0.64587 0.75425 0.1256 0.0
H1587 H 0.59443 0.84991 0.1411 0.0
H1588 H 0.67101 0.86603 0.17504 0.0
H1589 H 0.64187 0.86346 0.1514 0.0
H1590 H 0.64885 0.74457 0.15169 0.0
H1591 H 0.67995 0.74768 0.17496 0.0
C1592 C 0.61069 0.77515 0.11058 0.0
C1593 C 0.5885 0.80289 0.10778 0.0
C1594 C 0.62803 0.7751 0.12414 0.0
C1595 C 0.62311 0.80239 0.13533 0.0
C1596 C 0.59985 0.82913 0.13266 0.0
C1597 C 0.58314 0.82966 0.11901 0.0
C1598 C 0.66638 0.83934 0.17002 0.0
C1599 C 0.67774 0.80707 0.17687 0.0
C1600 C 0.64934 0.83776 0.15648 0.0
C1601 C 0.64238 0.80373 0.14957 0.0
C1602 C 0.65394 0.77136 0.15646 0.0
C1603 C 0.67166 0.77306 0.16987 0.0
H1604 H 0.68995 0.47747 0.11428 0.0
H1605 H 0.65488 0.36846 0.10479 0.0
H1606 H 0.65959 0.47904 0.13788 0.0
H1607 H 0.62469 0.37018 0.12826 0.0
H1608 H 0.60829 0.36833 0.17978 0.0
H1609 H 0.63708 0.36959 0.15595 0.0
H1610 H 0.60342 0.47972 0.1472 0.0
H1611 H 0.57435 0.4786 0.17124 0.0
C1612 C 0.67578 0.45388 0.1172 0.0
C1613 C 0.67507 0.42273 0.10767 0.0
C1614 C 0.65823 0.45491 0.13067 0.0
C1615 C 0.63986 0.42467 0.13497 0.0
C1616 C 0.6389 0.39374 0.12536 0.0
C1617 C 0.65615 0.39284 0.11186 0.0
C1618 C 0.60691 0.3929 0.17282 0.0
C1619 C 0.58883 0.42334 0.17744 0.0
C1620 C 0.62334 0.3935 0.15909 0.0
C1621 C 0.62241 0.42466 0.14964 0.0
C1622 C 0.60469 0.45536 0.15428 0.0
C1623 C 0.58791 0.45463 0.168 0.0
H1624 H 0.37477 0.13301 0.85157 0.0
H1625 H 0.31786 0.22458 0.86651 0.0
H1626 H 0.40468 0.13634 0.87501 0.0
H1627 H 0.34769 0.22743 0.89026 0.0
H1628 H 0.4286 0.23888 0.92573 0.0
H1629 H 0.39958 0.24083 0.90164 0.0
H1630 H 0.39542 0.12207 0.90142 0.0
H1631 H 0.42442 0.12001 0.92503 0.0
C1632 C 0.36854 0.15386 0.85986 0.0
C1633 C 0.34359 0.17825 0.85717 0.0
C1634 C 0.38568 0.15568 0.87337 0.0
C1635 C 0.3784 0.18188 0.88464 0.0
C1636 C 0.35403 0.20703 0.8818 0.0
C1637 C 0.33681 0.20522 0.86823 0.0
C1638 C 0.42149 0.21324 0.9205 0.0
C1639 C 0.42917 0.17931 0.92731 0.0
C1640 C 0.40474 0.21435 0.90674 0.0
C1641 C 0.39545 0.18157 0.89947 0.0
C1642 C 0.40275 0.14784 0.90646 0.0
C1643 C 0.41932 0.14671 0.92012 0.0
H1644 H 0.36845 0.49897 0.93631 0.0
H1645 H 0.31098 0.58761 0.91939 0.0
H1646 H 0.39792 0.49887 0.91238 0.0
H1647 H 0.33859 0.58619 0.89531 0.0
H1648 H 0.41355 0.6082 0.86102 0.0
H1649 H 0.38458 0.60436 0.88466 0.0
H1650 H 0.4016 0.48696 0.88629 0.0
H1651 H 0.43235 0.49152 0.86294 0.0
C1652 C 0.36174 0.51787 0.92734 0.0
C1653 C 0.33768 0.54356 0.92977 0.0
C1654 C 0.37854 0.51783 0.91357 0.0
C1655 C 0.37121 0.54304 0.90184 0.0
C1656 C 0.34592 0.56726 0.90414 0.0
C1657 C 0.32974 0.56784 0.91794 0.0
C1658 C 0.4111 0.58154 0.8664 0.0
C1659 C 0.42523 0.55018 0.86005 0.0
C1660 C 0.39417 0.57918 0.87997 0.0
C1661 C 0.39014 0.54519 0.88747 0.0
C1662 C 0.40435 0.51373 0.88106 0.0
C1663 C 0.42187 0.51626 0.86759 0.0
H1664 H 0.06799 0.39816 0.02001 0.0
H1665 H 0.98247 0.41455 0.04494 0.0
H1666 H 0.06503 0.46103 1.01044 0.0
H1667 H 0.97824 0.47703 0.03479 0.0
H1668 H 0.99061 0.59649 0.0271 0.0
H1669 H 1.00262 0.53582 0.03789 0.0
H1670 H 0.03763 0.50024 0.99405 0.0
H1671 H 0.02688 0.56069 0.98374 0.0
C1672 C 0.04772 0.41482 0.02276 0.0
C1673 C 0.02487 0.40156 0.03271 0.0
C1674 C 0.0462 0.45095 1.0175 0.0
C1675 C 0.02163 0.47427 0.02204 0.0
C1676 C 0.99789 0.4601 0.03139 0.0
C1677 C 0.99972 0.42411 0.03684 0.0
C1678 C 1.00225 0.5761 0.02009 0.0
C1679 C 1.00791 0.58291 1.00466 0.0
C1680 C 1.00848 0.54118 0.02611 0.0
C1681 C 0.02027 0.51289 1.0167 0.0
C1682 C 0.02863 0.52122 1.00165 0.0
C1683 C 0.02259 0.55593 0.99573 0.0
H1684 H 0.28293 0.63943 0.02615 0.0
H1685 H 0.24789 0.67092 0.98198 0.0
H1686 H 0.27102 0.70132 0.03578 0.0
H1687 H 0.23729 0.73252 0.99116 0.0
H1688 H 0.20283 0.83504 1.01606 0.0
H1689 H 0.20829 0.77211 1.00679 0.0
H1690 H 0.29433 0.76061 0.03216 0.0
H1691 H 0.28763 0.82313 0.04196 0.0
C1692 C 0.27172 0.65921 0.0187 0.0
C1693 C 0.26621 0.6507 1.00339 0.0
C1694 C 0.26554 0.6948 0.02405 0.0
C1695 C 0.25391 0.72211 1.01411 0.0
C1696 C 0.24612 0.71231 0.99915 0.0
C1697 C 0.25211 0.67695 0.99388 0.0
C1698 C 0.22355 0.81944 0.01906 0.0
C1699 C 0.2454 0.83393 0.02925 0.0
C1700 C 0.22649 0.78325 1.01397 0.0
C1701 C 0.2515 0.7611 0.01894 0.0
C1702 C 0.27438 0.77661 0.02843 0.0
C1703 C 0.27112 0.81265 0.03369 0.0
H1704 H 0.98714 0.81697 0.23793 0.0
H1705 H 0.0625 0.84035 0.26889 0.0
H1706 H 0.98145 0.75578 0.24905 0.0
H1707 H 0.0582 0.77858 0.2796 0.0
H1708 H 0.01565 0.67988 0.30506 0.0
H1709 H 0.02681 0.7399 0.29445 0.0
H1710 H 1.0082 0.69789 0.24926 0.0
H1711 H 0.99549 0.63769 0.26019 0.0
C1712 C 1.00181 0.80919 0.24747 0.0
C1713 C 0.02449 0.83339 0.25298 0.0
C1714 C 0.99919 0.77392 0.25355 0.0
C1715 C 0.01978 0.76199 0.26502 0.0
C1716 C 0.04178 0.78694 0.27089 0.0
C1717 C 0.04401 0.82245 0.26494 0.0
C1718 C 0.01467 0.68329 0.29281 0.0
C1719 C 1.00435 0.65451 0.28342 0.0
C1720 C 0.02114 0.7177 0.28671 0.0
C1721 C 0.01769 0.72398 0.27105 0.0
C1722 C 0.01018 0.69413 0.26146 0.0
C1723 C 1.00349 0.65952 0.26762 0.0
H1724 H 0.24856 0.38566 0.27309 0.0
H1725 H 0.27391 0.42264 0.22809 0.0
H1726 H 0.25897 0.44736 0.28309 0.0
H1727 H 0.2828 0.48423 0.23773 0.0
H1728 H 0.31391 0.5884 0.26274 0.0
H1729 H 0.31111 0.52596 0.25258 0.0
H1730 H 0.23143 0.5043 0.28142 0.0
H1731 H 0.2356 0.56617 0.29204 0.0
C1732 C 0.25738 0.40666 0.26548 0.0
C1733 C 0.2604 0.39969 0.24988 0.0
C1734 C 0.26265 0.44217 0.27108 0.0
C1735 C 0.27082 0.47103 0.26111 0.0
C1736 C 0.27653 0.46286 0.24575 0.0
C1737 C 0.27149 0.42752 0.24022 0.0
C1738 C 0.29508 0.57063 0.26638 0.0
C1739 C 0.27443 0.58205 0.27781 0.0
C1740 C 0.2937 0.53471 0.26076 0.0
C1741 C 0.27143 0.50981 0.26642 0.0
C1742 C 0.24946 0.52235 0.27715 0.0
C1743 C 0.2512 0.55803 0.28292 0.0
H1744 H 0.78869 0.3107 0.04837 0.0
H1745 H 0.70921 0.33346 0.01949 0.0
H1746 H 0.79459 0.25041 0.03625 0.0
H1747 H 0.71378 0.27319 1.0082 0.0
H1748 H 0.75201 0.18073 0.97932 0.0
H1749 H 0.74484 0.23963 0.99154 0.0
H1750 H 0.76989 0.19157 0.03494 0.0
H1751 H 0.77889 0.13253 0.02245 0.0
C1752 C 0.77274 0.30288 0.03937 0.0
C1753 C 0.7489 0.32684 0.03468 0.0
C1754 C 0.77574 0.26828 0.03261 0.0
C1755 C 0.75453 0.25701 0.02132 0.0
C1756 C 0.73089 0.28125 1.01662 0.0
C1757 C 0.72834 0.31593 0.02309 0.0
C1758 C 0.75558 0.18246 0.99151 0.0
C1759 C 0.7664 0.15211 0.99991 0.0
C1760 C 0.75139 0.21632 0.99854 0.0
C1761 C 0.75719 0.22038 1.01418 0.0
C1762 C 0.76605 0.18946 0.02279 0.0
C1763 C 0.77077 0.15559 1.01569 0.0
H1764 H 0.95935 0.14031 0.76605 0.0
H1765 H 0.03514 0.16723 0.79652 0.0
H1766 H 0.9643 0.19977 0.75387 0.0
H1767 H 0.0412 0.22641 0.78376 0.0
H1768 H 0.02208 0.34352 0.77021 0.0
H1769 H 0.01406 0.28378 0.78216 0.0
H1770 H 0.99562 0.23585 0.73799 0.0
H1771 H 1.00199 0.29553 0.72622 0.0
C1772 C 0.97774 0.15853 0.76984 0.0
C1773 C 0.99689 0.14921 0.78224 0.0
C1774 C 0.98051 0.19271 0.76287 0.0
C1775 C 1.00287 0.21802 0.76797 0.0
C1776 C 0.02317 0.20788 0.77985 0.0
C1777 C 0.02004 0.17384 0.78701 0.0
C1778 C 0.01567 0.32033 0.76313 0.0
C1779 C 0.01291 0.32417 0.74728 0.0
C1780 C 0.01151 0.28603 0.76993 0.0
C1781 C 1.00485 0.25494 0.76098 0.0
C1782 C 1.00056 0.25924 0.74523 0.0
C1783 C 1.00425 0.29356 0.73847 0.0
H1784 H 0.78854 0.41451 0.74061 0.0
H1785 H 0.70395 0.39595 0.76619 0.0
H1786 H 0.79437 0.47442 0.7529 0.0
H1787 H 0.70853 0.45623 0.77769 0.0
H1788 H 0.74409 0.54898 0.80727 0.0
H1789 H 0.73682 0.49005 0.7952 0.0
H1790 H 0.77191 0.53423 0.75281 0.0
H1791 H 0.78113 0.59319 0.76527 0.0
C1792 C 0.77146 0.42317 0.74899 0.0
C1793 C 0.74612 0.40057 0.75266 0.0
C1794 C 0.77443 0.45763 0.75582 0.0
C1795 C 0.75172 0.47029 0.76615 0.0
C1796 C 0.72673 0.44717 0.76999 0.0
C1797 C 0.72417 0.4125 0.76345 0.0
C1798 C 0.74995 0.54642 0.79532 0.0
C1799 C 0.76367 0.57563 0.78728 0.0
C1800 C 0.74563 0.51251 0.78836 0.0
C1801 C 0.75422 0.50722 0.77309 0.0
C1802 C 0.76591 0.53717 0.76473 0.0
C1803 C 0.77076 0.57107 0.77179 0.0
H1804 H 0.06006 0.89611 0.51756 0.0
H1805 H 0.98112 0.92156 0.5461 0.0
H1806 H 0.06036 0.959 0.50807 0.0
H1807 H 0.97954 0.984 0.53585 0.0
H1808 H 0.99575 0.10096 0.52655 0.0
H1809 H 1.0067 0.04018 0.53743 0.0
H1810 H 0.03504 0.00123 0.49291 0.0
H1811 H 0.02587 0.06187 0.48256 0.0
C1812 C 0.04168 0.91481 0.52111 0.0
C1813 C 0.01994 0.90409 0.53213 0.0
C1814 C 0.04208 0.951 0.51588 0.0
C1815 C 0.02027 0.97685 0.52137 0.0
C1816 C 0.99728 0.96518 0.53172 0.0
C1817 C 0.99745 0.92921 0.53724 0.0
C1818 C 1.00586 0.07976 0.51939 0.0
C1819 C 0.00989 0.08568 0.50377 0.0
C1820 C 0.01142 0.04476 0.52546 0.0
C1821 C 0.02071 0.01545 0.51592 0.0
C1822 C 0.0279 0.02289 0.50064 0.0
C1823 C 0.02274 0.05775 0.49468 0.0
H1824 H 0.25311 0.17688 0.48439 0.0
H1825 H 0.28218 0.13316 0.52786 0.0
H1826 H 0.24117 0.23537 0.49604 0.0
H1827 H 0.2687 0.19207 0.53997 0.0
H1828 H 0.28801 0.31515 0.54955 0.0
H1829 H 0.29206 0.25212 0.53996 0.0
H1830 H 0.21023 0.27048 0.51209 0.0
H1831 H 0.20763 0.33357 0.52082 0.0
C1832 C 0.25592 0.17959 0.49661 0.0
C1833 C 0.26885 0.1509 0.50524 0.0
C1834 C 0.24893 0.21312 0.50333 0.0
C1835 C 0.25437 0.21863 0.51892 0.0
C1836 C 0.2649 0.18883 0.52785 0.0
C1837 C 0.27211 0.15501 0.52103 0.0
C1838 C 0.27141 0.30573 0.54112 0.0
C1839 C 0.24801 0.3294 0.53565 0.0
C1840 C 0.27327 0.2695 0.53587 0.0
C1841 C 0.25136 0.25618 0.52531 0.0
C1842 C 0.22786 0.27997 0.51999 0.0
C1843 C 0.2265 0.31629 0.52492 0.0
H1844 H 0.25484 0.0465 0.80636 0.0
H1845 H 0.27727 0.09609 0.76296 0.0
H1846 H 0.24725 0.98786 0.79403 0.0
H1847 H 0.26785 0.03727 0.75038 0.0
H1848 H 0.28429 0.91852 0.73548 0.0
H1849 H 0.29162 0.97821 0.74781 0.0
H1850 H 0.21463 0.95467 0.77811 0.0
H1851 H 0.20865 0.89484 0.76647 0.0
C1852 C 0.25739 0.04513 0.7941 0.0
C1853 C 0.26686 0.07592 0.78564 0.0
C1854 C 0.25294 0.01138 0.787 0.0
C1855 C 0.25716 0.00774 0.77122 0.0
C1856 C 0.26513 0.03897 0.76261 0.0
C1857 C 0.27011 0.07275 0.76978 0.0
C1858 C 0.26942 0.92604 0.74497 0.0
C1859 C 0.24625 0.90195 0.75016 0.0
C1860 C 0.27327 0.96034 0.75189 0.0
C1861 C 0.2536 0.97129 0.76391 0.0
C1862 C 0.23061 0.94691 0.7691 0.0
C1863 C 0.22721 0.9125 0.76243 0.0
H1864 H 0.70676 0.83662 0.51656 0.0
H1865 H 0.78552 0.81202 0.54563 0.0
H1866 H 0.71214 0.77704 0.50443 0.0
H1867 H 0.79193 0.75274 0.53292 0.0
H1868 H 0.7743 0.63509 0.52026 0.0
H1869 H 0.7655 0.69485 0.53212 0.0
H1870 H 0.74339 0.74139 0.48808 0.0
H1871 H 0.75063 0.68166 0.47639 0.0
C1872 C 0.72587 0.8189 0.52003 0.0
C1873 C 0.74577 0.82886 0.53204 0.0
C1874 C 0.72887 0.78466 0.51311 0.0
C1875 C 0.75218 0.75998 0.51786 0.0
C1876 C 0.77319 0.7708 0.5293 0.0
C1877 C 0.76986 0.80488 0.53642 0.0
C1878 C 0.76693 0.65795 0.51319 0.0
C1879 C 0.76347 0.65376 0.49739 0.0
C1880 C 0.76231 0.69226 0.51994 0.0
C1881 C 0.75444 0.72298 0.51098 0.0
C1882 C 0.74933 0.71827 0.49531 0.0
C1883 C 0.75352 0.68394 0.48861 0.0
H1884 H 0.76685 0.93344 0.22931 0.0
H1885 H 0.73849 0.88591 0.27226 0.0
H1886 H 0.77483 -0.00794 0.24159 0.0
H1887 H 0.7483 0.94462 0.28486 0.0
H1888 H 0.73324 0.06414 0.29887 0.0
H1889 H 0.72581 0.0044 0.28659 0.0
H1890 H 0.80639 0.02472 0.25817 0.0
H1891 H 0.81249 0.08467 0.26972 0.0
C1892 C 0.76309 0.93523 0.24148 0.0
C1893 C 0.75182 0.90508 0.24981 0.0
C1894 C 0.76776 0.96897 0.24856 0.0
C1895 C 0.76196 0.97318 0.2642 0.0
C1896 C 0.75225 0.9425 0.27271 0.0
C1897 C 0.74704 0.90877 0.26555 0.0
C1898 C 0.74887 0.05591 0.28979 0.0
C1899 C 0.77307 0.07913 0.28507 0.0
C1900 C 0.74497 0.02157 0.28291 0.0
C1901 C 0.76561 0.00969 0.27144 0.0
C1902 C 0.78967 0.03322 0.26673 0.0
C1903 C 0.79313 0.06769 0.27334 0.0
H1904 H 0.48164 0.42124 0.54543 0.0
H1905 H 0.56153 0.39701 0.51705 0.0
H1906 H 0.47515 0.48022 0.53248 0.0
H1907 H 0.55612 0.45628 0.50473 0.0
H1908 H 0.51824 0.54939 0.47563 0.0
H1909 H 0.52522 0.49038 0.48788 0.0
H1910 H 0.50012 0.53878 0.53122 0.0
H1911 H 0.49149 0.59785 0.51872 0.0
C1912 C 0.49758 0.42842 0.53634 0.0
C1913 C 0.52192 0.40455 0.53217 0.0
C1914 C 0.49419 0.46234 0.52908 0.0
C1915 C 0.51539 0.47313 0.51772 0.0
C1916 C 0.53915 0.44867 0.51329 0.0
C1917 C 0.5422 0.41459 0.52034 0.0
C1918 C 0.51459 0.54769 0.48781 0.0
C1919 C 0.50398 0.57822 0.4962 0.0
C1920 C 0.51866 0.51375 0.49485 0.0
C1921 C 0.5128 0.50974 0.51049 0.0
C1922 C 0.50399 0.54079 0.51906 0.0
C1923 C 0.49946 0.57472 0.51196 0.0
H1924 H 0.5598 0.83555 0.76958 0.0
H1925 H 0.48317 0.80893 0.73959 0.0
H1926 H 0.55452 0.77637 0.78204 0.0
H1927 H 0.4768 0.75012 0.7526 0.0
H1928 H 0.49466 0.63312 0.76643 0.0
H1929 H 0.50335 0.69246 0.75426 0.0
H1930 H 0.52313 0.74086 0.7982 0.0
H1931 H 0.51602 0.68152 0.8102 0.0
C1932 C 0.54117 0.81747 0.76597 0.0
C1933 C 0.52185 0.82676 0.75363 0.0
C1934 C 0.53821 0.78345 0.77309 0.0
C1935 C 0.51551 0.75832 0.76818 0.0
C1936 C 0.49509 0.76849 0.75637 0.0
C1937 C 0.49839 0.80232 0.74907 0.0
C1938 C 0.50149 0.65631 0.77342 0.0
C1939 C 0.50442 0.6527 0.78927 0.0
C1940 C 0.50605 0.6904 0.76649 0.0
C1941 C 0.51327 0.72154 0.77531 0.0
C1942 C 0.51774 0.71743 0.79106 0.0
C1943 C 0.51363 0.68331 0.79794 0.0
H1944 H 0.53146 0.34763 0.27349 0.0
H1945 H 0.50072 0.29861 0.2312 0.0
H1946 H 0.5226 0.2893 0.28653 0.0
H1947 H 0.49358 0.24038 0.24392 0.0
H1948 H 0.45806 0.14853 0.27283 0.0
H1949 H 0.46296 0.20845 0.2612 0.0
H1950 H 0.54546 0.22948 0.28819 0.0
H1951 H 0.53929 0.16964 0.3006 0.0
C1952 C 0.52257 0.32454 0.26702 0.0
C1953 C 0.51688 0.32768 0.25133 0.0
C1954 C 0.51789 0.29103 0.27444 0.0
C1955 C 0.50776 0.26006 0.26623 0.0
C1956 C 0.50101 0.26373 0.25066 0.0
C1957 C 0.50519 0.29723 0.24333 0.0
C1958 C 0.47759 0.16564 0.27613 0.0
C1959 C 0.49863 0.15429 0.28746 0.0
C1960 C 0.48035 0.20011 0.26947 0.0
C1961 C 0.50466 0.22377 0.27371 0.0
C1962 C 0.52615 0.21213 0.28486 0.0
C1963 C 0.52295 0.17776 0.2918 0.0
H1964 H 0.48513 0.91264 0.04289 0.0
H1965 H 0.56755 0.89672 1.01554 0.0
H1966 H 0.47893 0.97473 0.03261 0.0
H1967 H 0.56269 0.9593 1.0058 0.0
H1968 H 0.5213 0.05839 0.98025 0.0
H1969 H 0.53279 -0.0021 0.99022 0.0
H1970 H 0.50349 0.03377 0.035 0.0
H1971 H 0.49076 0.09471 0.02459 0.0
C1972 C 0.50121 0.92219 0.03424 0.0
C1973 C 0.52612 0.89994 0.02952 0.0
C1974 C 0.49829 0.95797 0.0287 0.0
C1975 C 0.52072 0.97222 0.01865 0.0
C1976 C 0.54488 0.94911 1.01344 0.0
C1977 C 0.54745 0.91314 0.01879 0.0
C1978 C 0.51836 0.05369 0.99233 0.0
C1979 C 0.50515 0.08091 1.00168 0.0
C1980 C 0.52485 0.01895 0.99806 0.0
C1981 C 0.51844 0.01076 1.01333 0.0
C1982 C 0.50789 0.0391 0.02306 0.0
C1983 C 0.50122 0.07412 1.01724 0.0
H1984 H 0.13131 0.41119 0.06372 0.0
H1985 H 0.14322 0.3295 0.02848 0.0
H1986 H 0.16607 0.45278 0.04984 0.0
H1987 H 0.17796 0.37062 1.01475 0.0
H1988 H 0.20565 0.46684 0.98464 0.0
H1989 H 0.17204 0.42718 1.00002 0.0
H1990 H 0.21912 0.46337 0.0408 0.0
H1991 H 0.25216 0.50326 0.02557 0.0
C1992 C 0.14217 0.40162 0.0533 0.0
C1993 C 0.13455 0.36699 0.04723 0.0
C1994 C 0.16184 0.42559 0.04524 0.0
C1995 C 0.17426 0.4154 0.03096 0.0
C1996 C 0.16814 0.37984 0.02546 0.0
C1997 C 0.1486 0.35602 0.03347 0.0
C1998 C 0.20852 0.46671 0.9969 0.0
C1999 C 0.23179 0.48811 1.00381 0.0
C2000 C 0.18949 0.44367 1.00572 0.0
C2001 C 0.19315 0.44164 0.02167 0.0
C2002 C 0.21554 0.46422 0.0286 0.0
C2003 C 0.2346 0.48703 0.0198 0.0
H2004 H 0.11051 0.9064 0.035 0.0
H2005 H 0.1547 0.80976 0.05379 0.0
H2006 H 0.07525 0.86738 0.02023 0.0
H2007 H 0.11987 0.7705 0.03869 0.0
H2008 H 0.07922 0.72173 0.9926 0.0
H2009 H 0.11309 0.76024 1.00875 0.0
H2010 H 0.03219 0.81925 0.0251 0.0
H2011 H 0.99871 0.78084 1.00935 0.0
C2012 C 0.11191 0.87678 0.03634 0.0
C2013 C 0.13464 0.86107 0.04587 0.0
C2014 C 0.09205 0.85445 0.02776 0.0
C2015 C 0.09509 0.81591 0.02818 0.0
C2016 C 0.11723 0.80013 0.03805 0.0
C2017 C 0.13666 0.82253 0.04692 0.0
C2018 C 0.06889 0.74322 0.99953 0.0
C2019 C 0.03642 0.74835 0.99972 0.0
C2020 C 0.08812 0.76492 1.00888 0.0
C2021 C 0.07517 0.79254 0.01826 0.0
C2022 C 0.04282 0.79824 0.01802 0.0
C2023 C 0.0237 0.77623 1.00898 0.0
H2024 H 0.19415 0.73428 0.29428 0.0
H2025 H 0.27202 0.76651 0.26614 0.0
H2026 H 0.15918 0.77175 0.27829 0.0
H2027 H 0.23738 0.80418 0.25054 0.0
H2028 H 0.1664 0.90309 0.24157 0.0
H2029 H 0.20292 0.86333 0.25561 0.0
H2030 H 0.1412 0.77108 0.24915 0.0
H2031 H 0.10536 0.81059 0.23469 0.0
C2032 C 0.2038 0.74937 0.28476 0.0
C2033 C 0.23585 0.74724 0.28147 0.0
C2034 C 0.1838 0.77063 0.27557 0.0
C2035 C 0.19561 0.79083 0.26315 0.0
C2036 C 0.22765 0.78903 0.26003 0.0
C2037 C 0.24743 0.76727 0.26896 0.0
C2038 C 0.16134 0.87401 0.24267 0.0
C2039 C 0.13369 0.85956 0.23662 0.0
C2040 C 0.18198 0.85136 0.25083 0.0
C2041 C 0.17477 0.81416 0.25356 0.0
C2042 C 0.14729 0.79964 0.24728 0.0
C2043 C 0.12709 0.82206 0.2388 0.0
H2044 H 0.10621 0.36335 0.22761 0.0
H2045 H 0.17726 0.39389 0.26 0.0
H2046 H 0.06872 0.40333 0.24105 0.0
H2047 H 0.14085 0.43409 0.27295 0.0
H2048 H 0.06162 0.46908 0.30386 0.0
H2049 H 0.09769 0.43043 0.28944 0.0
H2050 H 0.05426 0.46548 0.24744 0.0
H2051 H 0.01771 0.50312 0.26187 0.0
C2052 C 0.11386 0.37891 0.23743 0.0
C2053 C 0.14445 0.37498 0.24289 0.0
C2054 C 0.0925 0.40185 0.24515 0.0
C2055 C 0.10154 0.4215 0.25834 0.0
C2056 C 0.13261 0.41861 0.26322 0.0
C2057 C 0.1536 0.39564 0.25568 0.0
C2058 C 0.0599 0.46872 0.29156 0.0
C2059 C 0.03672 0.48928 0.28409 0.0
C2060 C 0.08064 0.44659 0.28323 0.0
C2061 C 0.07899 0.4447 0.26719 0.0
C2062 C 0.05601 0.46565 0.25974 0.0
C2063 C 0.03518 0.48756 0.26806 0.0
H2064 H 0.8803 0.5725 0.97394 0.0
H2065 H 0.88208 0.64655 1.0124 0.0
H2066 H 0.83968 0.53626 0.98658 0.0
H2067 H 0.84361 0.60988 0.02527 0.0
H2068 H 0.76258 0.55031 0.04431 0.0
H2069 H 0.79351 0.58992 0.02796 0.0
H2070 H 0.83471 0.49389 1.0067 0.0
H2071 H 0.80201 0.45442 0.02249 0.0
C2072 C 0.87165 0.58141 0.98493 0.0
C2073 C 0.8846 0.61224 0.99219 0.0
C2074 C 0.84873 0.56035 0.99232 0.0
C2075 C 0.83845 0.56968 1.00711 0.0
C2076 C 0.85033 0.60177 1.01387 0.0
C2077 C 0.87277 0.62282 1.00648 0.0
C2078 C 0.77839 0.53771 0.03619 0.0
C2079 C 0.78027 0.49928 0.03485 0.0
C2080 C 0.7962 0.56042 0.02677 0.0
C2081 C 0.81704 0.54533 1.01601 0.0
C2082 C 0.81867 0.50673 1.01463 0.0
C2083 C 0.80025 0.484 0.02383 0.0
H2084 H 0.87086 0.17134 0.97911 0.0
H2085 H 0.89048 0.08217 1.01027 0.0
H2086 H 0.90337 0.21215 0.99428 0.0
H2087 H 0.92335 0.12305 0.02535 0.0
H2088 H 0.95322 0.2167 0.05756 0.0
H2089 H 0.91855 0.17733 0.04246 0.0
H2090 H 0.95738 0.22229 1.00111 0.0
H2091 H 0.99137 0.26157 1.01606 0.0
C2092 C 0.88252 0.1602 0.98904 0.0
C2093 C 0.87803 0.1233 0.99338 0.0
C2094 C 0.90114 0.1837 0.99779 0.0
C2095 C 0.91576 0.17105 1.01116 0.0
C2096 C 0.91199 0.13392 1.01529 0.0
C2097 C 0.89347 0.11031 1.00649 0.0
C2098 C 0.95387 0.2186 0.04526 0.0
C2099 C 0.9751 0.24227 0.03804 0.0
C2100 C 0.93431 0.19572 0.03659 0.0
C2101 C 0.93534 0.19637 0.02054 0.0
C2102 C 0.95574 0.22113 1.01341 0.0
C2103 C 0.97534 0.24364 0.02202 0.0
H2104 H 0.86898 0.07382 0.78076 0.0
H2105 H 0.90083 0.17144 0.80406 0.0
H2106 H 0.83139 0.11101 0.76655 0.0
H2107 H 0.86408 0.20856 0.78962 0.0
H2108 H 0.7945 0.19413 0.73121 0.0
H2109 H 0.82949 0.1557 0.7464 0.0
H2110 H 0.81101 0.22377 0.78575 0.0
H2111 H 0.77693 0.26263 0.77052 0.0
C2112 C 0.86778 0.10311 0.783 0.0
C2113 C 0.88802 0.11946 0.79364 0.0
C2114 C 0.84643 0.12457 0.77469 0.0
C2115 C 0.84473 0.163 0.77677 0.0
C2116 C 0.86431 0.17909 0.78777 0.0
C2117 C 0.88554 0.15768 0.79609 0.0
C2118 C 0.79803 0.20102 0.74308 0.0
C2119 C 0.78287 0.23169 0.74956 0.0
C2120 C 0.81791 0.17872 0.75186 0.0
C2121 C 0.82316 0.1864 0.76739 0.0
C2122 C 0.80801 0.21714 0.77382 0.0
C2123 C 0.78827 0.23946 0.76505 0.0
H2124 H 0.97275 0.53636 0.73274 0.0
H2125 H 0.98454 0.46039 0.77013 0.0
H2126 H 0.93767 0.57367 0.74833 0.0
H2127 H 0.95048 0.4982 0.78585 0.0
H2128 H 0.8621 0.55273 0.80466 0.0
H2129 H 0.89845 0.51598 0.78979 0.0
H2130 H 0.93491 0.61495 0.76925 0.0
H2131 H 0.89762 0.65173 0.7838 0.0
C2132 C 0.96793 0.5276 0.74429 0.0
C2133 C 0.98149 0.49517 0.7501 0.0
C2134 C 0.94799 0.54925 0.75332 0.0
C2135 C 0.94114 0.53925 0.76847 0.0
C2136 C 0.95467 0.50671 0.77422 0.0
C2137 C 0.97441 0.48497 0.76517 0.0
C2138 C 0.87814 0.56682 0.79714 0.0
C2139 C 0.87678 0.60535 0.79549 0.0
C2140 C 0.89915 0.54562 0.78857 0.0
C2141 C 0.9197 0.56225 0.77814 0.0
C2142 C 0.9191 0.60094 0.77689 0.0
C2143 C 0.89791 0.62216 0.7854 0.0
H2144 H 0.09591 0.92525 0.54395 0.0
H2145 H 0.16542 0.83955 0.54693 0.0
H2146 H 0.1325 0.96416 0.52992 0.0
H2147 H 0.20247 0.87867 0.53311 0.0
H2148 H 0.26758 0.9748 0.52061 0.0
H2149 H 0.23162 0.93863 0.53581 0.0
H2150 H 0.15796 0.96151 0.50365 0.0
H2151 H 0.19428 -0.00206 0.48818 0.0
C2152 C 0.11944 0.91529 0.542 0.0
C2153 C 0.12825 0.87989 0.54686 0.0
C2154 C 0.14019 0.93729 0.53377 0.0
C2155 C 0.17032 0.92445 0.53032 0.0
C2156 C 0.17949 0.88947 0.53569 0.0
C2157 C 0.15849 0.86719 0.54372 0.0
C2158 C 0.2437 0.97235 0.51672 0.0
C2159 C 0.23384 0.98945 0.50313 0.0
C2160 C 0.22315 0.95134 0.52544 0.0
C2161 C 0.19197 0.94716 0.52096 0.0
C2162 C 0.18185 0.96448 0.50746 0.0
C2163 C 0.20264 0.98518 0.49856 0.0
H2164 H 0.11433 0.4096 0.53349 0.0
H2165 H 0.16554 0.31137 0.54581 0.0
H2166 H 0.07832 0.37205 0.51837 0.0
H2167 H 0.13016 0.27431 0.53042 0.0
H2168 H 0.07914 0.2297 0.48683 0.0
H2169 H 0.11572 0.26916 0.50099 0.0
H2170 H 0.0384 0.31952 0.52467 0.0
H2171 H 1.00223 0.2799 0.51095 0.0
C2172 C 0.11776 0.38006 0.53309 0.0
C2173 C 0.14262 0.36354 0.54102 0.0
C2174 C 0.09727 0.3586 0.52437 0.0
C2175 C 0.10166 0.32029 0.5231 0.0
C2176 C 0.12641 0.30378 0.53105 0.0
C2177 C 0.14642 0.32505 0.54004 0.0
C2178 C 0.07008 0.24939 0.49499 0.0
C2179 C 0.03788 0.25153 0.49785 0.0
C2180 C 0.09093 0.2718 0.50313 0.0
C2181 C 0.07985 0.29739 0.51395 0.0
C2182 C 0.04761 0.30025 0.51638 0.0
C2183 C 0.02695 0.27737 0.50856 0.0
H2184 H 0.23863 0.21359 0.76349 0.0
H2185 H 0.22217 0.28338 0.80253 0.0
H2186 H 0.20378 0.25191 0.74831 0.0
H2187 H 0.18652 0.321 0.78751 0.0
H2188 H 0.14616 0.40244 0.75395 0.0
H2189 H 0.18445 0.36511 0.76755 0.0
H2190 H 0.15079 0.26788 0.74455 0.0
H2191 H 0.11333 0.3053 0.73063 0.0
C2192 C 0.22733 0.23688 0.7689 0.0
C2193 C 0.23331 0.24533 0.78426 0.0
C2194 C 0.2072 0.25888 0.76018 0.0
C2195 C 0.19231 0.28983 0.7666 0.0
C2196 C 0.19799 0.29793 0.78203 0.0
C2197 C 0.21826 0.27607 0.79072 0.0
C2198 C 0.14724 0.37318 0.75162 0.0
C2199 C 0.12655 0.35699 0.74117 0.0
C2200 C 0.16902 0.35163 0.75956 0.0
C2201 C 0.1706 0.31325 0.75735 0.0
C2202 C 0.15061 0.29731 0.7465 0.0
C2203 C 0.12899 0.31887 0.73849 0.0
H2204 H 0.11945 0.82122 0.75512 0.0
H2205 H 0.14812 0.91726 0.72979 0.0
H2206 H 0.08107 0.85852 0.76875 0.0
H2207 H 0.11066 0.95457 0.74369 0.0
H2208 H 0.02366 0.00844 0.76311 0.0
H2209 H 0.05757 0.96893 0.74797 0.0
H2210 H 0.0793 0.90481 0.78805 0.0
H2211 H 0.04457 0.94369 0.8031 0.0
C2212 C 0.11739 0.85017 0.75232 0.0
C2213 C 0.137 0.8661 0.74132 0.0
C2214 C 0.09558 0.87171 0.76028 0.0
C2215 C 0.09286 0.90979 0.75749 0.0
C2216 C 0.11171 0.92536 0.74609 0.0
C2217 C 0.13335 0.90384 0.7381 0.0
C2218 C 0.0357 0.98597 0.76873 0.0
C2219 C 0.03132 0.97937 0.78437 0.0
C2220 C 0.05529 0.96329 0.76002 0.0
C2221 C 0.07126 0.93345 0.76671 0.0
C2222 C 0.06701 0.92701 0.78239 0.0
C2223 C 0.04727 0.94959 0.79108 0.0
H2224 H 0.79228 0.95589 0.51927 0.0
H2225 H 0.76757 0.04835 0.54772 0.0
H2226 H 0.82702 -0.00476 0.50446 0.0
H2227 H 0.80054 0.08814 0.5325 0.0
H2228 H 0.89032 0.13876 0.51624 0.0
H2229 H 0.85188 0.10156 0.52878 0.0
H2230 H 0.83463 0.04322 0.4867 0.0
H2231 H 0.87527 0.07979 0.47418 0.0
C2232 C 0.79409 0.98472 0.52228 0.0
C2233 C 0.77756 -0.00117 0.53485 0.0
C2234 C 0.81379 0.00747 0.51367 0.0
C2235 C 0.81704 0.04509 0.51724 0.0
C2236 C 0.79957 0.05923 0.52956 0.0
C2237 C 0.78048 0.03638 0.53833 0.0
C2238 C 0.87828 0.11824 0.50951 0.0
C2239 C 0.88624 0.11224 0.49415 0.0
C2240 C 0.85577 0.09692 0.51675 0.0
C2241 C 0.83977 0.0691 0.50887 0.0
C2242 C 0.84672 0.06395 0.49328 0.0
C2243 C 0.86975 0.08525 0.486 0.0
H2244 H 0.87066 0.67027 0.47735 0.0
H2245 H 0.88786 0.582 0.50927 0.0
H2246 H 0.90576 0.70996 0.49176 0.0
H2247 H 0.92299 0.62171 0.5236 0.0
H2248 H 0.95564 0.71609 0.5549 0.0
H2249 H 0.92013 0.67721 0.54014 0.0
H2250 H 0.96099 0.71737 0.49844 0.0
H2251 H 0.99615 0.75614 0.51307 0.0
C2252 C 0.88225 0.65908 0.4873 0.0
C2253 C 0.87635 0.62276 0.49206 0.0
C2254 C 0.90238 0.68192 0.49559 0.0
C2255 C 0.91701 0.66922 0.50896 0.0
C2256 C 0.91173 0.63265 0.51352 0.0
C2257 C 0.89182 0.60971 0.50516 0.0
C2258 C 0.95681 0.71689 0.54258 0.0
C2259 C 0.97887 0.73926 0.53522 0.0
C2260 C 0.93666 0.69434 0.53411 0.0
C2261 C 0.93779 0.69392 0.51806 0.0
C2262 C 0.95926 0.71708 0.51074 0.0
C2263 C 0.97955 0.73927 0.51918 0.0
H2264 H 0.87839 0.66104 0.31297 0.0
H2265 H 0.87755 0.58523 0.27512 0.0
H2266 H 0.83712 0.69734 0.30063 0.0
H2267 H 0.83837 0.62182 0.26252 0.0
H2268 H 0.75804 0.68228 0.2435 0.0
H2269 H 0.78842 0.64283 0.26024 0.0
H2270 H 0.83159 0.7389 0.2802 0.0
H2271 H 0.79932 0.77836 0.26403 0.0
C2272 C 0.86894 0.65171 0.30221 0.0
C2273 C 0.88135 0.62043 0.29498 0.0
C2274 C 0.84566 0.6728 0.29499 0.0
C2275 C 0.83449 0.66298 0.28041 0.0
C2276 C 0.84577 0.63033 0.27376 0.0
C2277 C 0.86858 0.60931 0.28098 0.0
C2278 C 0.7741 0.69492 0.25144 0.0
C2279 C 0.77675 0.73335 0.25227 0.0
C2280 C 0.79162 0.6723 0.26108 0.0
C2281 C 0.81297 0.68743 0.27154 0.0
C2282 C 0.81519 0.72606 0.2725 0.0
C2283 C 0.79701 0.74875 0.26309 0.0
H2284 H 0.89063 0.15318 0.27571 0.0
H2285 H 0.87621 0.065 0.30793 0.0
H2286 H 0.92518 0.11338 0.26087 0.0
H2287 H 0.91057 0.0253 0.29304 0.0
H2288 H 0.99973 0.97918 0.27065 0.0
H2289 H 0.96539 0.01834 0.28566 0.0
H2290 H 0.92125 0.05725 0.24449 0.0
H2291 H 0.95603 0.01795 0.22932 0.0
C2292 C 0.89517 0.12554 0.27979 0.0
C2293 C 0.88064 0.11245 0.2931 0.0
C2294 C 0.91466 0.10255 0.27114 0.0
C2295 C 0.92041 0.06599 0.27565 0.0
C2296 C 0.90679 0.05333 0.28925 0.0
C2297 C 0.88711 0.07619 0.29782 0.0
C2298 C 0.98256 -0.00417 0.26475 0.0
C2299 C 0.98074 -0.00459 0.24874 0.0
C2300 C 0.96277 0.01825 0.2734 0.0
C2301 C 0.94066 0.04117 0.26631 0.0
C2302 C 0.93832 0.04028 0.2503 0.0
C2303 C 0.95801 0.01748 0.24161 0.0
H2304 H 0.72576 0.44221 0.48295 0.0
H2305 H 0.738 0.51786 0.52044 0.0
H2306 H 0.69142 0.4047 0.49869 0.0
H2307 H 0.70467 0.47982 0.53628 0.0
H2308 H 0.615 0.42682 0.55403 0.0
H2309 H 0.652 0.46303 0.53958 0.0
H2310 H 0.69024 0.36349 0.51997 0.0
H2311 H 0.65226 0.32711 0.53411 0.0
C2312 C 0.7212 0.45082 0.49455 0.0
C2313 C 0.73457 0.48319 0.50038 0.0
C2314 C 0.70174 0.42908 0.50365 0.0
C2315 C 0.6953 0.43904 0.51883 0.0
C2316 C 0.70869 0.47146 0.52461 0.0
C2317 C 0.72793 0.4933 0.5155 0.0
C2318 C 0.63158 0.41246 0.54684 0.0
C2319 C 0.63047 0.37394 0.54523 0.0
C2320 C 0.65294 0.43334 0.53853 0.0
C2321 C 0.67404 0.41633 0.52845 0.0
C2322 C 0.67393 0.37764 0.52737 0.0
C2323 C 0.65237 0.3567 0.53563 0.0
H2324 H 0.61594 0.90418 0.53241 0.0
H2325 H 0.6515 0.8051 0.55352 0.0
H2326 H 0.57894 0.86742 0.51782 0.0
H2327 H 0.61541 0.76847 0.53865 0.0
H2328 H 0.52996 0.71376 0.51846 0.0
H2329 H 0.56274 0.75188 0.53457 0.0
H2330 H 0.57919 0.82534 0.49675 0.0
H2331 H 0.54549 0.78773 0.48072 0.0
C2332 C 0.61565 0.87465 0.53409 0.0
C2333 C 0.63681 0.85771 0.54417 0.0
C2334 C 0.59467 0.85348 0.52557 0.0
C2335 C 0.59435 0.81483 0.52687 0.0
C2336 C 0.61467 0.79812 0.5374 0.0
C2337 C 0.63549 0.81924 0.54596 0.0
C2338 C 0.54063 0.73795 0.51352 0.0
C2339 C 0.53504 0.74757 0.49824 0.0
C2340 C 0.55956 0.75984 0.52279 0.0
C2341 C 0.57364 0.79188 0.51703 0.0
C2342 C 0.56831 0.80129 0.50169 0.0
C2343 C 0.54922 0.77948 0.49243 0.0
H2344 H 0.61985 0.80638 0.73121 0.0
H2345 H 0.64842 0.90372 0.75574 0.0
H2346 H 0.65628 0.76956 0.74584 0.0
H2347 H 0.68601 0.8668 0.77011 0.0
H2348 H 0.74149 0.71524 0.76609 0.0
H2349 H 0.70875 0.75478 0.75049 0.0
H2350 H 0.68735 0.82154 0.78989 0.0
H2351 H 0.72117 0.78255 0.80545 0.0
C2352 C 0.63441 0.82018 0.73951 0.0
C2353 C 0.631 0.85816 0.74227 0.0
C2354 C 0.6555 0.79893 0.74792 0.0
C2355 C 0.67412 0.81498 0.7593 0.0
C2356 C 0.67168 0.85327 0.76166 0.0
C2357 C 0.65037 0.87459 0.75326 0.0
C2358 C 0.72976 0.73826 0.77149 0.0
C2359 C 0.73396 0.74553 0.78709 0.0
C2360 C 0.71082 0.76099 0.7625 0.0
C2361 C 0.69524 0.79153 0.76886 0.0
C2362 C 0.69933 0.79871 0.78449 0.0
C2363 C 0.71851 0.77608 0.79348 0.0
H2364 H 0.54294 0.44146 0.80429 0.0
H2365 H 0.52824 0.51388 0.76594 0.0
H2366 H 0.57751 0.40324 0.78883 0.0
H2367 H 0.56179 0.47509 0.75036 0.0
H2368 H 0.65096 0.42221 0.732 0.0
H2369 H 0.61414 0.45875 0.74652 0.0
H2370 H 0.58013 0.3602 0.76838 0.0
H2371 H 0.61811 0.32351 0.75415 0.0
C2372 C 0.54699 0.44921 0.79255 0.0
C2373 C 0.53286 0.48095 0.78643 0.0
C2374 C 0.56662 0.42702 0.78361 0.0
C2375 C 0.57253 0.43582 0.76826 0.0
C2376 C 0.5583 0.46758 0.76216 0.0
C2377 C 0.5389 0.48988 0.77113 0.0
C2378 C 0.6354 0.40808 0.73973 0.0
C2379 C 0.63767 0.36974 0.74186 0.0
C2380 C 0.61408 0.42919 0.74809 0.0
C2381 C 0.59407 0.41266 0.75876 0.0
C2382 C 0.5955 0.37409 0.7605 0.0
C2383 C 0.61706 0.35292 0.75218 0.0
H2384 H 0.37058 0.65719 0.5005 0.0
H2385 H 0.4054 0.55846 0.47887 0.0
H2386 H 0.33289 0.62058 0.51468 0.0
H2387 H 0.36851 0.52179 0.49336 0.0
H2388 H 0.28134 0.46781 0.51274 0.0
H2389 H 0.31593 0.50521 0.49721 0.0
H2390 H 0.33056 0.57838 0.53533 0.0
H2391 H 0.29511 0.54154 0.55072 0.0
C2392 C 0.37005 0.62772 0.49865 0.0
C2393 C 0.39113 0.61092 0.48849 0.0
C2394 C 0.34862 0.60658 0.50694 0.0
C2395 C 0.34771 0.56799 0.50537 0.0
C2396 C 0.36813 0.55138 0.49482 0.0
C2397 C 0.38942 0.57252 0.48648 0.0
C2398 C 0.29199 0.4918 0.51786 0.0
C2399 C 0.28531 0.50155 0.53304 0.0
C2400 C 0.31201 0.51328 0.50893 0.0
C2401 C 0.32614 0.5451 0.51491 0.0
C2402 C 0.31974 0.55457 0.53016 0.0
C2403 C 0.29958 0.53317 0.53908 0.0
H2404 H 0.47301 0.20056 0.55178 0.0
H2405 H 0.49815 0.26535 0.51244 0.0
H2406 H 0.44028 0.16191 0.53578 0.0
H2407 H 0.46625 0.22594 0.49634 0.0
H2408 H 0.37674 0.17053 0.47639 0.0
H2409 H 0.41413 0.20935 0.48993 0.0
H2410 H 0.44273 0.11566 0.51694 0.0
H2411 H 0.40461 0.07763 0.50379 0.0
C2412 C 0.47167 0.20651 0.53971 0.0
C2413 C 0.48832 0.23613 0.53346 0.0
C2414 C 0.4531 0.18406 0.53046 0.0
C2415 C 0.45081 0.19034 0.51465 0.0
C2416 C 0.46717 0.22029 0.50844 0.0
C2417 C 0.48559 0.24289 0.51771 0.0
C2418 C 0.39181 0.15807 0.48486 0.0
C2419 C 0.38787 0.12103 0.48899 0.0
C2420 C 0.41313 0.18037 0.49274 0.0
C2421 C 0.43108 0.16596 0.50484 0.0
C2422 C 0.42872 0.12812 0.50806 0.0
C2423 C 0.40724 0.10609 0.50033 0.0
H2424 H 0.40354 0.17235 0.30759 0.0
H2425 H 0.3786 0.07869 0.27984 0.0
H2426 H 0.37166 0.21201 0.29158 0.0
H2427 H 0.34608 0.11851 0.26396 0.0
H2428 H 0.31507 0.2073 0.22954 0.0
H2429 H 0.3501 0.16873 0.245 0.0
H2430 H 0.31816 0.22441 0.28561 0.0
H2431 H 0.28412 0.26288 0.27032 0.0
C2432 C 0.39078 0.15999 0.29826 0.0
C2433 C 0.39361 0.12213 0.29513 0.0
C2434 C 0.37252 0.18286 0.28901 0.0
C2435 C 0.35643 0.16859 0.27636 0.0
C2436 C 0.35858 0.13058 0.27343 0.0
C2437 C 0.37687 0.10763 0.28271 0.0
C2438 C 0.31611 0.2117 0.24172 0.0
C2439 C 0.29679 0.23814 0.24868 0.0
C2440 C 0.33583 0.1893 0.25062 0.0
C2441 C 0.33681 0.19322 0.26661 0.0
C2442 C 0.31832 0.2207 0.27338 0.0
C2443 C 0.29865 0.24274 0.26457 0.0
H2444 H 0.47524 0.53532 0.23501 0.0
H2445 H 0.49546 0.46453 0.27331 0.0
H2446 H 0.44212 0.57332 0.25118 0.0
H2447 H 0.4632 0.50327 0.28963 0.0
H2448 H 0.37262 0.55936 0.30848 0.0
H2449 H 0.41072 0.52091 0.29508 0.0
H2450 H 0.44435 0.61689 0.27116 0.0
H2451 H 0.40545 0.65463 0.28409 0.0
C2452 C 0.47274 0.52793 0.24689 0.0
C2453 C 0.48808 0.49686 0.25281 0.0
C2454 C 0.45397 0.54997 0.25625 0.0
C2455 C 0.45023 0.54176 0.27183 0.0
C2456 C 0.4653 0.51039 0.2777 0.0
C2457 C 0.4839 0.48818 0.26831 0.0
C2458 C 0.38895 0.5723 0.30076 0.0
C2459 C 0.38625 0.60994 0.29736 0.0
C2460 C 0.41066 0.55027 0.29296 0.0
C2461 C 0.43021 0.56559 0.28173 0.0
C2462 C 0.42909 0.60387 0.27935 0.0
C2463 C 0.40719 0.62567 0.28696 0.0
H2464 H 0.62495 0.92248 0.05889 0.0
H2465 H 0.65817 0.82603 0.03523 0.0
H2466 H 0.66201 0.96039 0.0448 0.0
H2467 H 0.69618 0.86327 0.0216 0.0
H2468 H 0.72684 0.94316 0.98475 0.0
H2469 H 0.69424 0.9055 1.00126 0.0
H2470 H 0.71351 0.97838 0.03899 0.0
H2471 H 0.74495 0.0167 0.02237 0.0
C2472 C 0.64121 0.90918 0.05119 0.0
C2473 C 0.63893 0.87132 0.04823 0.0
C2474 C 0.66233 0.93091 0.04298 0.0
C2475 C 0.68176 0.9151 0.03175 0.0
C2476 C 0.68102 0.87667 0.02977 0.0
C2477 C 0.65967 0.85515 0.0378 0.0
C2478 C 0.72396 0.95125 0.99654 0.0
C2479 C 0.73852 0.98303 1.00217 0.0
C2480 C 0.70552 0.92942 1.0061 0.0
C2481 C 0.70141 0.93855 0.02159 0.0
C2482 C 0.71579 0.97056 0.02714 0.0
C2483 C 0.73396 -0.00746 1.01757 0.0
H2484 H 0.64927 0.30861 0.05644 0.0
H2485 H 0.62926 0.39881 0.02583 0.0
H2486 H 0.61593 0.26856 0.04137 0.0
H2487 H 0.59554 0.35865 1.01085 0.0
H2488 H 0.56457 0.26536 0.9786 0.0
H2489 H 0.5999 0.30424 0.99355 0.0
H2490 H 0.56118 0.26005 0.03507 0.0
H2491 H 0.52653 0.22127 0.02029 0.0
C2492 C 0.63736 0.32013 0.04665 0.0
C2493 C 0.64193 0.35707 0.04243 0.0
C2494 C 0.61827 0.29708 0.03797 0.0
C2495 C 0.60329 0.31028 0.0248 0.0
C2496 C 0.60718 0.34744 0.02077 0.0
C2497 C 0.62616 0.37061 0.02951 0.0
C2498 C 0.56404 0.26358 0.99091 0.0
C2499 C 0.54269 0.24028 0.99824 0.0
C2500 C 0.58398 0.28614 0.99948 0.0
C2501 C 0.58319 0.28547 1.01553 0.0
C2502 C 0.5626 0.26115 0.02277 0.0
C2503 C 0.54262 0.23897 1.01426 0.0
H2504 H 0.72655 0.28912 0.30213 0.0
H2505 H 0.73931 0.21354 0.26462 0.0
H2506 H 0.69111 0.3259 0.2866 0.0
H2507 H 0.7046 0.25083 0.24898 0.0
H2508 H 0.61341 0.30457 0.23188 0.0
H2509 H 0.65108 0.26781 0.24601 0.0
H2510 H 0.69031 0.36695 0.26516 0.0
H2511 H 0.65204 0.40374 0.25132 0.0
C2512 C 0.72185 0.28034 0.29057 0.0
C2513 C 0.73583 0.24829 0.28467 0.0
C2514 C 0.70173 0.30166 0.28159 0.0
C2515 C 0.69511 0.29157 0.26645 0.0
C2516 C 0.70887 0.25932 0.26061 0.0
C2517 C 0.7289 0.23794 0.2696 0.0
C2518 C 0.63038 0.31865 0.2389 0.0
C2519 C 0.62951 0.35719 0.24049 0.0
C2520 C 0.65206 0.29749 0.24703 0.0
C2521 C 0.67356 0.3143 0.25691 0.0
C2522 C 0.67365 0.35297 0.25794 0.0
C2523 C 0.65189 0.37413 0.24985 0.0
H2524 H 0.54423 0.94219 0.30333 0.0
H2525 H 0.53319 0.02142 0.26701 0.0
H2526 H 0.57885 0.90572 0.28718 0.0
H2527 H 0.56699 0.98454 0.25079 0.0
H2528 H 0.65647 0.92908 0.23249 0.0
H2529 H 0.62001 0.96596 0.24736 0.0
H2530 H 0.57837 0.86669 0.26508 0.0
H2531 H 0.61536 0.82979 0.25049 0.0
C2532 C 0.54915 0.95185 0.29191 0.0
C2533 C 0.53586 0.9848 0.28652 0.0
C2534 C 0.56879 0.93074 0.28258 0.0
C2535 C 0.5756 0.94197 0.26759 0.0
C2536 C 0.56258 0.97515 0.26228 0.0
C2537 C 0.54304 -0.00372 0.27161 0.0
C2538 C 0.63917 0.91505 0.23932 0.0
C2539 C 0.63899 0.8764 0.24031 0.0
C2540 C 0.61823 0.93626 0.2479 0.0
C2541 C 0.59644 0.91938 0.25762 0.0
C2542 C 0.59529 0.88069 0.25802 0.0
C2543 C 0.6163 0.85949 0.2495 0.0
H2544 H 0.32862 0.97052 0.04173 0.0
H2545 H 0.24883 0.03106 0.02505 0.0
H2546 H 0.36296 0.00861 0.02565 0.0
H2547 H 0.2829 0.06931 1.00947 0.0
H2548 H 0.36487 0.15562 1.00171 0.0
H2549 H 0.32884 0.11662 1.01611 0.0
H2550 H 0.36787 0.02013 0.9946 0.0
H2551 H 0.40325 0.0594 0.97978 0.0
C2552 C 0.31852 -0.00788 0.03478 0.0
C2553 C 0.28609 -0.00225 0.03461 0.0
C2554 C 0.33805 0.01365 0.0255 0.0
C2555 C 0.3255 0.04175 1.01624 0.0
C2556 C 0.2932 0.04787 1.01644 0.0
C2557 C 0.27374 0.02591 0.02536 0.0
C2558 C 0.36493 0.1262 0.99967 0.0
C2559 C 0.38623 0.11062 0.98933 0.0
C2560 C 0.34461 0.10386 1.00802 0.0
C2561 C 0.34585 0.06533 1.0066 0.0
C2562 C 0.36662 0.04973 0.99599 0.0
C2563 C 0.38641 0.07221 0.98732 0.0
H2564 H 0.51738 0.73299 1.01393 0.0
H2565 H 0.45047 0.7356 0.05073 0.0
H2566 H 0.48169 0.69649 0.99869 0.0
H2567 H 0.41467 0.69862 0.03536 0.0
H2568 H 0.34599 0.66401 0.99885 0.0
H2569 H 0.38247 0.70376 1.01228 0.0
H2570 H 0.45882 0.63403 0.99789 0.0
H2571 H 0.42182 0.59412 0.98432 0.0
C2572 C 0.49501 0.72586 0.01881 0.0
C2573 C 0.48687 0.7374 0.03363 0.0
C2574 C 0.47461 0.70464 1.01004 0.0
C2575 C 0.44532 0.69453 1.01576 0.0
C2576 C 0.43696 0.70626 0.03053 0.0
C2577 C 0.45752 0.72733 0.03938 0.0
C2578 C 0.37069 0.65774 0.99823 0.0
C2579 C 0.38122 0.62641 0.99032 0.0
C2580 C 0.39154 0.6802 1.00612 0.0
C2581 C 0.42355 0.6719 1.00636 0.0
C2582 C 0.43431 0.64134 0.99788 0.0
C2583 C 0.41326 0.61861 0.99001 0.0
H2584 H 0.36937 0.57664 0.78419 0.0
H2585 H 0.40593 0.67494 0.8052 0.0
H2586 H 0.33193 0.61382 0.77002 0.0
H2587 H 0.36907 0.71225 0.79072 0.0
H2588 H 0.2812 0.76698 0.77128 0.0
H2589 H 0.31617 0.72983 0.78689 0.0
H2590 H 0.33035 0.65542 0.74912 0.0
H2591 H 0.29467 0.69202 0.73365 0.0
C2592 C 0.36928 0.60618 0.7859 0.0
C2593 C 0.39078 0.62266 0.79589 0.0
C2594 C 0.34797 0.62762 0.77761 0.0
C2595 C 0.34757 0.66626 0.77899 0.0
C2596 C 0.36836 0.68263 0.78939 0.0
C2597 C 0.38959 0.66114 0.79775 0.0
C2598 C 0.29183 0.74276 0.76626 0.0
C2599 C 0.28493 0.73256 0.75116 0.0
C2600 C 0.31206 0.72144 0.77523 0.0
C2601 C 0.32611 0.68931 0.76938 0.0
C2602 C 0.31956 0.67947 0.75419 0.0
C2603 C 0.29925 0.70072 0.74523 0.0
H2604 H 0.49231 0.96609 0.7714 0.0
H2605 H 0.47245 0.03132 0.73142 0.0
H2606 H 0.45811 0.00544 0.78642 0.0
H2607 H 0.4374 0.07011 0.74637 0.0
H2608 H 0.39761 0.15384 0.77955 0.0
H2609 H 0.43552 0.11621 0.76578 0.0
H2610 H 0.40507 0.02022 0.79062 0.0
H2611 H 0.36799 0.05789 0.80466 0.0
C2612 C 0.48043 0.98863 0.76575 0.0
C2613 C 0.48522 -0.00462 0.75014 0.0
C2614 C 0.46065 0.01122 0.77439 0.0
C2615 C 0.44488 0.04118 0.76769 0.0
C2616 C 0.4495 0.04777 0.75204 0.0
C2617 C 0.46942 0.02525 0.7434 0.0
C2618 C 0.39935 0.12482 0.78226 0.0
C2619 C 0.37962 0.10904 0.79326 0.0
C2620 C 0.42089 0.10308 0.77421 0.0
C2621 C 0.42329 0.06493 0.77691 0.0
C2622 C 0.40427 0.04947 0.78829 0.0
C2623 C 0.38285 0.07119 0.79636 0.0
loop_
_geom_bond_atom_site_label_1
_geom_bond_atom_site_label_2
_geom_bond_distance
_geom_bond_site_symmetry_2
_ccdc_geom_bond_type
Fe0 O2 1.918 . S
Fe0 O5 1.997 . S
Fe0 O6 2.002 1_455 S
Fe0 O11 1.976 . S
Fe0 O14 1.996 . S
Fe1 O2 1.918 . S
Fe1 O9 1.997 . S
Fe1 O12 1.996 . S
Fe1 O16 1.976 . S
Fe1 O19 2.002 . S
O2 Fe0 1.918 . S
O2 Fe1 1.918 . S
O2 Fe3 1.918 . S
Fe3 O2 1.918 . S
Fe3 O4 2.002 . S
Fe3 O13 1.976 . S
Fe3 O17 1.996 . S
Fe3 O20 1.997 . S
O4 Fe3 2.002 . S
O4 C21 1.295 . S
O5 Fe0 1.997 . S
O5 C21 1.235 . S
O6 Fe0 2.002 1_655 S
O6 C7 1.295 . S
C7 O6 1.295 . S
C7 O9 1.235 1_655 S
C8 O13 1.287 . S
C8 O14 1.255 . S
O9 Fe1 1.997 . S
O9 C7 1.235 1_455 S
C10 O16 1.287 . S
C10 O17 1.255 . S
O11 Fe0 1.976 . S
O11 C18 1.287 . S
O12 Fe1 1.996 . S
O12 C18 1.255 . S
O13 Fe3 1.976 . S
O13 C8 1.287 . S
O14 Fe0 1.996 . S
O14 C8 1.255 . S
C15 O19 1.295 . S
C15 O20 1.235 . S
O16 Fe1 1.976 . S
O16 C10 1.287 . S
O17 Fe3 1.996 . S
O17 C10 1.255 . S
C18 O11 1.287 . S
C18 O12 1.255 . S
O19 Fe1 2.002 . S
O19 C15 1.295 . S
O20 Fe3 1.997 . S
O20 C15 1.235 . S
C21 O4 1.295 . S
C21 O5 1.235 . S
Fe22 O24 1.918 . S
Fe22 O27 1.997 . S
Fe22 O28 2.002 . S
Fe22 O33 1.976 . S
Fe22 O36 1.996 . S
Fe23 O24 1.918 . S
Fe23 O31 1.997 . S
Fe23 O34 1.988 1_565 S
Fe23 O38 1.976 . S
Fe23 O41 2.002 . S
O24 Fe22 1.918 . S
O24 Fe23 1.918 . S
O24 Fe25 1.918 . S
Fe25 O24 1.918 . S
Fe25 O26 2.002 . S
Fe25 O35 1.976 . S
Fe25 O39 1.996 . S
Fe25 O42 1.997 . S
O26 Fe25 2.002 . S
O26 C43 1.295 . S
O27 Fe22 1.997 . S
O27 C43 1.235 . S
O28 Fe22 2.002 . S
O28 C29 1.295 . S
C29 O28 1.295 . S
C29 O31 1.235 . S
C30 O35 1.287 . S
C30 O36 1.255 . S
O31 Fe23 1.997 . S
O31 C29 1.235 . S
C32 O38 1.287 . S
C32 O39 1.255 . S
O33 Fe22 1.976 . S
O33 C40 1.287 1_565 S
O34 Fe23 1.988 1_545 S
O34 C40 1.255 . S
O35 Fe25 1.976 . S
O35 C30 1.287 . S
O36 Fe22 1.996 . S
O36 C30 1.255 . S
C37 O41 1.295 . S
C37 O42 1.235 . S
O38 Fe23 1.976 . S
O38 C32 1.287 . S
O39 Fe25 1.996 . S
O39 C32 1.255 . S
C40 O33 1.287 1_545 S
C40 O34 1.255 . S
O41 Fe23 2.002 . S
O41 C37 1.295 . S
O42 Fe25 1.997 . S
O42 C37 1.235 . S
C43 O26 1.295 . S
C43 O27 1.235 . S
Fe44 O46 1.918 . S
Fe44 O49 1.997 . S
Fe44 O50 2.002 1_455 S
Fe44 O55 1.976 . S
Fe44 O58 1.988 1_565 S
Fe45 O46 1.918 . S
Fe45 O53 1.997 . S
Fe45 O56 1.996 . S
Fe45 O60 1.976 . S
Fe45 O63 2.002 . S
O46 Fe44 1.918 . S
O46 Fe45 1.918 . S
O46 Fe47 1.918 . S
Fe47 O46 1.918 . S
Fe47 O48 2.002 . S
Fe47 O57 1.976 . S
Fe47 O61 1.996 . S
Fe47 O64 1.997 . S
O48 Fe47 2.002 . S
O48 C65 1.295 . S
O49 Fe44 1.997 . S
O49 C65 1.235 . S
O50 Fe44 2.002 1_655 S
O50 C51 1.295 . S
C51 O50 1.295 . S
C51 O53 1.235 1_655 S
C52 O57 1.287 1_545 S
C52 O58 1.255 . S
O53 Fe45 1.997 . S
O53 C51 1.235 1_455 S
C54 O60 1.287 . S
C54 O61 1.255 . S
O55 Fe44 1.976 . S
O55 C62 1.287 . S
O56 Fe45 1.996 . S
O56 C62 1.255 . S
O57 Fe47 1.976 . S
O57 C52 1.287 1_565 S
O58 Fe44 1.988 1_545 S
O58 C52 1.255 . S
C59 O63 1.295 . S
C59 O64 1.235 . S
O60 Fe45 1.976 . S
O60 C54 1.287 . S
O61 Fe47 1.996 . S
O61 C54 1.255 . S
C62 O55 1.287 . S
C62 O56 1.255 . S
O63 Fe45 2.002 . S
O63 C59 1.295 . S
O64 Fe47 1.997 . S
O64 C59 1.235 . S
C65 O48 1.295 . S
C65 O49 1.235 . S
Fe66 O68 1.918 . S
Fe66 O71 1.997 . S
Fe66 O72 2.002 . S
Fe66 O77 1.976 . S
Fe66 O80 1.996 . S
Fe67 O68 1.918 . S
Fe67 O75 1.997 . S
Fe67 O78 1.996 . S
Fe67 O82 1.976 . S
Fe67 O85 2.002 . S
O68 Fe66 1.918 . S
O68 Fe67 1.918 . S
O68 Fe69 1.918 . S
Fe69 O68 1.918 . S
Fe69 O70 2.002 . S
Fe69 O79 1.976 . S
Fe69 O83 1.996 . S
Fe69 O86 1.997 . S
O70 Fe69 2.002 . S
O70 C87 1.295 . S
O71 Fe66 1.997 . S
O71 C87 1.235 . S
O72 Fe66 2.002 . S
O72 C73 1.295 . S
C73 O72 1.295 . S
C73 O75 1.235 . S
C74 O79 1.287 . S
C74 O80 1.255 . S
O75 Fe67 1.997 . S
O75 C73 1.235 . S
C76 O82 1.287 . S
C76 O83 1.255 . S
O77 Fe66 1.976 . S
O77 C84 1.287 . S
O78 Fe67 1.996 . S
O78 C84 1.255 . S
O79 Fe69 1.976 . S
O79 C74 1.287 . S
O80 Fe66 1.996 . S
O80 C74 1.255 . S
C81 O85 1.295 . S
C81 O86 1.235 . S
O82 Fe67 1.976 . S
O82 C76 1.287 . S
O83 Fe69 1.996 . S
O83 C76 1.255 . S
C84 O77 1.287 . S
C84 O78 1.255 . S
O85 Fe67 2.002 . S
O85 C81 1.295 . S
O86 Fe69 1.997 . S
O86 C81 1.235 . S
C87 O70 1.295 . S
C87 O71 1.235 . S
Fe88 O90 1.918 . S
Fe88 O93 1.997 . S
Fe88 O94 2.002 . S
Fe88 O99 1.976 . S
Fe88 O102 1.996 . S
Fe89 O90 1.918 . S
Fe89 O97 1.997 . S
Fe89 O100 1.996 . S
Fe89 O104 1.976 . S
Fe89 O107 2.002 . S
O90 Fe88 1.918 . S
O90 Fe89 1.918 . S
O90 Fe91 1.918 . S
Fe91 O90 1.918 . S
Fe91 O92 2.002 . S
Fe91 O101 1.976 . S
Fe91 O105 1.996 . S
Fe91 O108 1.997 1_655 S
O92 Fe91 2.002 . S
O92 C109 1.295 . S
O93 Fe88 1.997 . S
O93 C109 1.235 . S
O94 Fe88 2.002 . S
O94 C95 1.295 . S
C95 O94 1.295 . S
C95 O97 1.235 . S
C96 O101 1.287 . S
C96 O102 1.255 . S
O97 Fe89 1.997 . S
O97 C95 1.235 . S
C98 O104 1.287 . S
C98 O105 1.255 . S
O99 Fe88 1.976 . S
O99 C106 1.287 . S
O100 Fe89 1.996 . S
O100 C106 1.255 . S
O101 Fe91 1.976 . S
O101 C96 1.287 . S
O102 Fe88 1.996 . S
O102 C96 1.255 . S
C103 O107 1.295 1_455 S
C103 O108 1.235 . S
O104 Fe89 1.976 . S
O104 C98 1.287 . S
O105 Fe91 1.996 . S
O105 C98 1.255 . S
C106 O99 1.287 . S
C106 O100 1.255 . S
O107 Fe89 2.002 . S
O107 C103 1.295 1_655 S
O108 Fe91 1.997 1_455 S
O108 C103 1.235 . S
C109 O92 1.295 . S
C109 O93 1.235 . S
Fe110 O112 1.918 . S
Fe110 O115 1.997 . S
Fe110 O116 2.002 . S
Fe110 O121 1.976 . S
Fe110 O124 1.996 . S
Fe111 O112 1.918 . S
Fe111 O119 1.997 . S
Fe111 O122 1.996 . S
Fe111 O126 1.976 . S
Fe111 O129 2.002 . S
O112 Fe110 1.918 . S
O112 Fe111 1.918 . S
O112 Fe113 1.918 . S
Fe113 O112 1.918 . S
Fe113 O114 2.002 . S
Fe113 O123 1.976 . S
Fe113 O127 1.996 . S
Fe113 O130 1.997 . S
O114 Fe113 2.002 . S
O114 C131 1.295 . S
O115 Fe110 1.997 . S
O115 C131 1.235 . S
O116 Fe110 2.002 . S
O116 C117 1.295 . S
C117 O116 1.295 . S
C117 O119 1.235 . S
C118 O123 1.287 . S
C118 O124 1.255 . S
O119 Fe111 1.997 . S
O119 C117 1.235 . S
C120 O126 1.287 . S
C120 O127 1.255 . S
O121 Fe110 1.976 . S
O121 C128 1.287 1_545 S
O122 Fe111 1.996 . S
O122 C128 1.255 1_545 S
O123 Fe113 1.976 . S
O123 C118 1.287 . S
O124 Fe110 1.996 . S
O124 C118 1.255 . S
C125 O129 1.295 . S
C125 O130 1.235 . S
O126 Fe111 1.976 . S
O126 C120 1.287 . S
O127 Fe113 1.996 . S
O127 C120 1.255 . S
C128 O121 1.287 1_565 S
C128 O122 1.255 1_565 S
O129 Fe111 2.002 . S
O129 C125 1.295 . S
O130 Fe113 1.997 . S
O130 C125 1.235 . S
C131 O114 1.295 . S
C131 O115 1.235 . S
Fe132 O134 1.918 . S
Fe132 O137 1.997 . S
Fe132 O138 2.002 . S
Fe132 O143 1.976 . S
Fe132 O146 1.996 . S
Fe133 O134 1.918 . S
Fe133 O141 1.997 1_655 S
Fe133 O144 1.996 . S
Fe133 O148 1.976 . S
Fe133 O151 2.002 . S
O134 Fe132 1.918 . S
O134 Fe133 1.918 . S
O134 Fe135 1.918 . S
Fe135 O134 1.918 . S
Fe135 O136 2.002 . S
Fe135 O145 1.976 . S
Fe135 O149 1.996 . S
Fe135 O152 1.997 . S
O136 Fe135 2.002 . S
O136 C153 1.295 . S
O137 Fe132 1.997 . S
O137 C153 1.235 . S
O138 Fe132 2.002 . S
O138 C139 1.295 1_655 S
C139 O138 1.295 1_455 S
C139 O141 1.235 . S
C140 O145 1.287 . S
C140 O146 1.255 . S
O141 Fe133 1.997 1_455 S
O141 C139 1.235 . S
C142 O148 1.287 1_565 S
C142 O149 1.255 1_565 S
O143 Fe132 1.976 . S
O143 C150 1.287 . S
O144 Fe133 1.996 . S
O144 C150 1.255 . S
O145 Fe135 1.976 . S
O145 C140 1.287 . S
O146 Fe132 1.996 . S
O146 C140 1.255 . S
C147 O151 1.295 . S
C147 O152 1.235 . S
O148 Fe133 1.976 . S
O148 C142 1.287 1_545 S
O149 Fe135 1.996 . S
O149 C142 1.255 1_545 S
C150 O143 1.287 . S
C150 O144 1.255 . S
O151 Fe133 2.002 . S
O151 C147 1.295 . S
O152 Fe135 1.997 . S
O152 C147 1.235 . S
C153 O136 1.295 . S
C153 O137 1.235 . S
Fe154 O156 1.918 . S
Fe154 O159 1.997 . S
Fe154 O160 2.002 . S
Fe154 O165 1.976 . S
Fe154 O168 1.996 . S
Fe155 O156 1.918 . S
Fe155 O163 1.997 . S
Fe155 O166 1.996 . S
Fe155 O170 1.976 . S
Fe155 O173 2.002 . S
O156 Fe154 1.918 . S
O156 Fe155 1.918 . S
O156 Fe157 1.918 . S
Fe157 O156 1.918 . S
Fe157 O158 2.002 . S
Fe157 O167 1.976 . S
Fe157 O171 1.996 . S
Fe157 O174 1.997 . S
O158 Fe157 2.002 . S
O158 C175 1.295 . S
O159 Fe154 1.997 . S
O159 C175 1.235 . S
O160 Fe154 2.002 . S
O160 C161 1.295 . S
C161 O160 1.295 . S
C161 O163 1.235 . S
C162 O167 1.287 . S
C162 O168 1.255 . S
O163 Fe155 1.997 . S
O163 C161 1.235 . S
C164 O170 1.287 . S
C164 O171 1.255 . S
O165 Fe154 1.976 . S
O165 C172 1.287 . S
O166 Fe155 1.996 . S
O166 C172 1.255 . S
O167 Fe157 1.976 . S
O167 C162 1.287 . S
O168 Fe154 1.996 . S
O168 C162 1.255 . S
C169 O173 1.295 . S
C169 O174 1.235 . S
O170 Fe155 1.976 . S
O170 C164 1.287 . S
O171 Fe157 1.996 . S
O171 C164 1.255 . S
C172 O165 1.287 . S
C172 O166 1.255 . S
O173 Fe155 2.002 . S
O173 C169 1.295 . S
O174 Fe157 1.997 . S
O174 C169 1.235 . S
C175 O158 1.295 . S
C175 O159 1.235 . S
Fe176 O178 1.918 . S
Fe176 O181 1.997 . S
Fe176 O182 2.002 . S
Fe176 O187 1.976 . S
Fe176 O190 1.996 . S
Fe177 O178 1.918 . S
Fe177 O185 1.997 . S
Fe177 O188 1.996 . S
Fe177 O192 1.976 . S
Fe177 O195 2.002 . S
O178 Fe176 1.918 . S
O178 Fe177 1.918 . S
O178 Fe179 1.918 . S
Fe179 O178 1.918 . S
Fe179 O180 2.002 1_455 S
Fe179 O189 1.976 . S
Fe179 O193 1.996 . S
Fe179 O196 1.997 . S
O180 Fe179 2.002 1_655 S
O180 C197 1.295 . S
O181 Fe176 1.997 . S
O181 C197 1.235 1_455 S
O182 Fe176 2.002 . S
O182 C183 1.295 . S
C183 O182 1.295 . S
C183 O185 1.235 . S
C184 O189 1.287 . S
C184 O190 1.255 . S
O185 Fe177 1.997 . S
O185 C183 1.235 . S
C186 O192 1.287 . S
C186 O193 1.255 . S
O187 Fe176 1.976 . S
O187 C194 1.287 . S
O188 Fe177 1.996 . S
O188 C194 1.255 . S
O189 Fe179 1.976 . S
O189 C184 1.287 . S
O190 Fe176 1.996 . S
O190 C184 1.255 . S
C191 O195 1.295 . S
C191 O196 1.235 . S
O192 Fe177 1.976 . S
O192 C186 1.287 . S
O193 Fe179 1.996 . S
O193 C186 1.255 . S
C194 O187 1.287 . S
C194 O188 1.255 . S
O195 Fe177 2.002 . S
O195 C191 1.295 . S
O196 Fe179 1.997 . S
O196 C191 1.235 . S
C197 O180 1.295 . S
C197 O181 1.235 1_655 S
Fe198 O200 1.918 . S
Fe198 O203 1.997 . S
Fe198 O204 2.002 . S
Fe198 O209 1.976 . S
Fe198 O212 1.996 . S
Fe199 O200 1.918 . S
Fe199 O207 1.997 . S
Fe199 O210 1.996 . S
Fe199 O214 1.976 . S
Fe199 O217 2.002 . S
O200 Fe198 1.918 . S
O200 Fe199 1.918 . S
O200 Fe201 1.918 . S
Fe201 O200 1.918 . S
Fe201 O202 2.002 . S
Fe201 O211 1.976 . S
Fe201 O215 1.996 . S
Fe201 O218 1.997 . S
O202 Fe201 2.002 . S
O202 C219 1.295 . S
O203 Fe198 1.997 . S
O203 C219 1.235 . S
O204 Fe198 2.002 . S
O204 C205 1.295 . S
C205 O204 1.295 . S
C205 O207 1.235 . S
C206 O211 1.287 . S
C206 O212 1.255 . S
O207 Fe199 1.997 . S
O207 C205 1.235 . S
C208 O214 1.287 . S
C208 O215 1.255 . S
O209 Fe198 1.976 . S
O209 C216 1.287 . S
O210 Fe199 1.996 . S
O210 C216 1.255 . S
O211 Fe201 1.976 . S
O211 C206 1.287 . S
O212 Fe198 1.996 . S
O212 C206 1.255 . S
C213 O217 1.295 . S
C213 O218 1.235 . S
O214 Fe199 1.976 . S
O214 C208 1.287 . S
O215 Fe201 1.996 . S
O215 C208 1.255 . S
C216 O209 1.287 . S
C216 O210 1.255 . S
O217 Fe199 2.002 . S
O217 C213 1.295 . S
O218 Fe201 1.997 . S
O218 C213 1.235 . S
C219 O202 1.295 . S
C219 O203 1.235 . S
Fe220 O222 1.918 . S
Fe220 O225 1.997 . S
Fe220 O226 2.002 1_455 S
Fe220 O231 1.976 . S
Fe220 O234 1.996 . S
Fe221 O222 1.918 . S
Fe221 O229 1.997 . S
Fe221 O232 1.996 . S
Fe221 O236 1.976 . S
Fe221 O239 2.002 . S
O222 Fe220 1.918 . S
O222 Fe221 1.918 . S
O222 Fe223 1.918 . S
Fe223 O222 1.918 . S
Fe223 O224 2.002 . S
Fe223 O233 1.976 . S
Fe223 O237 1.996 . S
Fe223 O240 1.997 . S
O224 Fe223 2.002 . S
O224 C241 1.295 . S
O225 Fe220 1.997 . S
O225 C241 1.235 . S
O226 Fe220 2.002 1_655 S
O226 C227 1.295 . S
C227 O226 1.295 . S
C227 O229 1.235 1_655 S
C228 O233 1.287 . S
C228 O234 1.255 . S
O229 Fe221 1.997 . S
O229 C227 1.235 1_455 S
C230 O236 1.287 . S
C230 O237 1.255 . S
O231 Fe220 1.976 . S
O231 C238 1.287 . S
O232 Fe221 1.996 . S
O232 C238 1.255 . S
O233 Fe223 1.976 . S
O233 C228 1.287 . S
O234 Fe220 1.996 . S
O234 C228 1.255 . S
C235 O239 1.295 . S
C235 O240 1.235 . S
O236 Fe221 1.976 . S
O236 C230 1.287 . S
O237 Fe223 1.996 . S
O237 C230 1.255 . S
C238 O231 1.287 . S
C238 O232 1.255 . S
O239 Fe221 2.002 . S
O239 C235 1.295 . S
O240 Fe223 1.997 . S
O240 C235 1.235 . S
C241 O224 1.295 . S
C241 O225 1.235 . S
Fe242 O244 1.918 . S
Fe242 O247 1.997 . S
Fe242 O248 2.002 . S
Fe242 O253 1.976 . S
Fe242 O256 1.996 . S
Fe243 O244 1.918 . S
Fe243 O251 1.997 . S
Fe243 O254 1.996 . S
Fe243 O258 1.976 . S
Fe243 O261 2.002 . S
O244 Fe242 1.918 . S
O244 Fe243 1.918 . S
O244 Fe245 1.918 . S
Fe245 O244 1.918 . S
Fe245 O246 2.002 . S
Fe245 O255 1.976 . S
Fe245 O259 1.996 . S
Fe245 O262 1.997 . S
O246 Fe245 2.002 . S
O246 C263 1.295 . S
O247 Fe242 1.997 . S
O247 C263 1.235 . S
O248 Fe242 2.002 . S
O248 C249 1.295 . S
C249 O248 1.295 . S
C249 O251 1.235 . S
C250 O255 1.287 . S
C250 O256 1.255 . S
O251 Fe243 1.997 . S
O251 C249 1.235 . S
C252 O258 1.287 . S
C252 O259 1.255 . S
O253 Fe242 1.976 . S
O253 C260 1.287 . S
O254 Fe243 1.996 . S
O254 C260 1.255 . S
O255 Fe245 1.976 . S
O255 C250 1.287 . S
O256 Fe242 1.996 . S
O256 C250 1.255 . S
C257 O261 1.295 . S
C257 O262 1.235 . S
O258 Fe243 1.976 . S
O258 C252 1.287 . S
O259 Fe245 1.996 . S
O259 C252 1.255 . S
C260 O253 1.287 . S
C260 O254 1.255 . S
O261 Fe243 2.002 . S
O261 C257 1.295 . S
O262 Fe245 1.997 . S
O262 C257 1.235 . S
C263 O246 1.295 . S
C263 O247 1.235 . S
Fe264 O266 1.918 . S
Fe264 O269 1.997 . S
Fe264 O270 2.002 . S
Fe264 O275 1.976 . S
Fe264 O278 1.996 . S
Fe265 O266 1.918 . S
Fe265 O273 1.997 . S
Fe265 O276 1.996 . S
Fe265 O280 1.976 . S
Fe265 O283 2.002 . S
O266 Fe264 1.918 . S
O266 Fe265 1.918 . S
O266 Fe267 1.918 . S
Fe267 O266 1.918 . S
Fe267 O268 2.002 . S
Fe267 O277 1.976 . S
Fe267 O281 1.996 . S
Fe267 O284 1.997 1_655 S
O268 Fe267 2.002 . S
O268 C285 1.295 . S
O269 Fe264 1.997 . S
O269 C285 1.235 . S
O270 Fe264 2.002 . S
O270 C271 1.295 . S
C271 O270 1.295 . S
C271 O273 1.235 . S
C272 O277 1.287 . S
C272 O278 1.255 . S
O273 Fe265 1.997 . S
O273 C271 1.235 . S
C274 O280 1.287 . S
C274 O281 1.255 . S
O275 Fe264 1.976 . S
O275 C282 1.287 . S
O276 Fe265 1.996 . S
O276 C282 1.255 . S
O277 Fe267 1.976 . S
O277 C272 1.287 . S
O278 Fe264 1.996 . S
O278 C272 1.255 . S
C279 O283 1.295 1_455 S
C279 O284 1.235 . S
O280 Fe265 1.976 . S
O280 C274 1.287 . S
O281 Fe267 1.996 . S
O281 C274 1.255 . S
C282 O275 1.287 . S
C282 O276 1.255 . S
O283 Fe265 2.002 . S
O283 C279 1.295 1_655 S
O284 Fe267 1.997 1_455 S
O284 C279 1.235 . S
C285 O268 1.295 . S
C285 O269 1.235 . S
Fe286 O288 1.918 . S
Fe286 O291 1.997 . S
Fe286 O292 2.002 . S
Fe286 O297 1.976 . S
Fe286 O300 1.996 . S
Fe287 O288 1.918 . S
Fe287 O295 1.997 . S
Fe287 O298 1.996 . S
Fe287 O302 1.976 . S
Fe287 O305 2.002 . S
O288 Fe286 1.918 . S
O288 Fe287 1.918 . S
O288 Fe289 1.918 . S
Fe289 O288 1.918 . S
Fe289 O290 2.002 . S
Fe289 O299 1.976 . S
Fe289 O303 1.996 . S
Fe289 O306 1.997 . S
O290 Fe289 2.002 . S
O290 C307 1.295 . S
O291 Fe286 1.997 . S
O291 C307 1.235 . S
O292 Fe286 2.002 . S
O292 C293 1.295 . S
C293 O292 1.295 . S
C293 O295 1.235 . S
C294 O299 1.287 . S
C294 O300 1.255 . S
O295 Fe287 1.997 . S
O295 C293 1.235 . S
C296 O302 1.287 . S
C296 O303 1.255 . S
O297 Fe286 1.976 . S
O297 C304 1.287 . S
O298 Fe287 1.996 . S
O298 C304 1.255 . S
O299 Fe289 1.976 . S
O299 C294 1.287 . S
O300 Fe286 1.996 . S
O300 C294 1.255 . S
C301 O305 1.295 . S
C301 O306 1.235 . S
O302 Fe287 1.976 . S
O302 C296 1.287 . S
O303 Fe289 1.996 . S
O303 C296 1.255 . S
C304 O297 1.287 . S
C304 O298 1.255 . S
O305 Fe287 2.002 . S
O305 C301 1.295 . S
O306 Fe289 1.997 . S
O306 C301 1.235 . S
C307 O290 1.295 . S
C307 O291 1.235 . S
Fe308 O310 1.918 . S
Fe308 O313 1.997 . S
Fe308 O314 2.002 . S
Fe308 O319 1.976 . S
Fe308 O322 1.996 . S
Fe309 O310 1.918 . S
Fe309 O317 1.997 1_655 S
Fe309 O320 1.996 . S
Fe309 O324 1.976 . S
Fe309 O327 2.002 . S
O310 Fe308 1.918 . S
O310 Fe309 1.918 . S
O310 Fe311 1.918 . S
Fe311 O310 1.918 . S
Fe311 O312 2.002 . S
Fe311 O321 1.976 . S
Fe311 O325 1.996 . S
Fe311 O328 1.997 . S
O312 Fe311 2.002 . S
O312 C329 1.295 . S
O313 Fe308 1.997 . S
O313 C329 1.235 . S
O314 Fe308 2.002 . S
O314 C315 1.295 1_655 S
C315 O314 1.295 1_455 S
C315 O317 1.235 . S
C316 O321 1.287 . S
C316 O322 1.255 . S
O317 Fe309 1.997 1_455 S
O317 C315 1.235 . S
C318 O324 1.287 . S
C318 O325 1.255 . S
O319 Fe308 1.976 . S
O319 C326 1.287 . S
O320 Fe309 1.996 . S
O320 C326 1.255 . S
O321 Fe311 1.976 . S
O321 C316 1.287 . S
O322 Fe308 1.996 . S
O322 C316 1.255 . S
C323 O327 1.295 . S
C323 O328 1.235 . S
O324 Fe309 1.976 . S
O324 C318 1.287 . S
O325 Fe311 1.996 . S
O325 C318 1.255 . S
C326 O319 1.287 . S
C326 O320 1.255 . S
O327 Fe309 2.002 . S
O327 C323 1.295 . S
O328 Fe311 1.997 . S
O328 C323 1.235 . S
C329 O312 1.295 . S
C329 O313 1.235 . S
Fe330 O332 1.918 . S
Fe330 O335 1.997 . S
Fe330 O336 2.002 . S
Fe330 O341 1.976 . S
Fe330 O344 1.996 . S
Fe331 O332 1.918 . S
Fe331 O339 1.997 . S
Fe331 O342 1.996 . S
Fe331 O346 1.976 . S
Fe331 O349 2.002 . S
O332 Fe330 1.918 . S
O332 Fe331 1.918 . S
O332 Fe333 1.918 . S
Fe333 O332 1.918 . S
Fe333 O334 2.002 . S
Fe333 O343 1.976 . S
Fe333 O347 1.996 . S
Fe333 O350 1.997 . S
O334 Fe333 2.002 . S
O334 C351 1.295 . S
O335 Fe330 1.997 . S
O335 C351 1.235 . S
O336 Fe330 2.002 . S
O336 C337 1.295 . S
C337 O336 1.295 . S
C337 O339 1.235 . S
C338 O343 1.287 . S
C338 O344 1.255 . S
O339 Fe331 1.997 . S
O339 C337 1.235 . S
C340 O346 1.287 . S
C340 O347 1.255 . S
O341 Fe330 1.976 . S
O341 C348 1.287 . S
O342 Fe331 1.996 . S
O342 C348 1.255 . S
O343 Fe333 1.976 . S
O343 C338 1.287 . S
O344 Fe330 1.996 . S
O344 C338 1.255 . S
C345 O349 1.295 . S
C345 O350 1.235 . S
O346 Fe331 1.976 . S
O346 C340 1.287 . S
O347 Fe333 1.996 . S
O347 C340 1.255 . S
C348 O341 1.287 . S
C348 O342 1.255 . S
O349 Fe331 2.002 . S
O349 C345 1.295 . S
O350 Fe333 1.997 . S
O350 C345 1.235 . S
C351 O334 1.295 . S
C351 O335 1.235 . S
Fe352 O354 1.918 . S
Fe352 O357 1.997 . S
Fe352 O358 2.002 . S
Fe352 O363 1.976 . S
Fe352 O366 1.996 . S
Fe353 O354 1.918 . S
Fe353 O361 1.997 . S
Fe353 O364 1.996 . S
Fe353 O368 1.976 . S
Fe353 O371 2.002 . S
O354 Fe352 1.918 . S
O354 Fe353 1.918 . S
O354 Fe355 1.918 . S
Fe355 O354 1.918 . S
Fe355 O356 2.002 . S
Fe355 O365 1.976 . S
Fe355 O369 1.996 . S
Fe355 O372 1.997 . S
O356 Fe355 2.002 . S
O356 C373 1.295 . S
O357 Fe352 1.997 . S
O357 C373 1.235 . S
O358 Fe352 2.002 . S
O358 C359 1.295 . S
C359 O358 1.295 . S
C359 O361 1.235 . S
C360 O365 1.287 . S
C360 O366 1.255 . S
O361 Fe353 1.997 . S
O361 C359 1.235 . S
C362 O368 1.287 . S
C362 O369 1.255 . S
O363 Fe352 1.976 . S
O363 C370 1.287 . S
O364 Fe353 1.996 . S
O364 C370 1.255 . S
O365 Fe355 1.976 . S
O365 C360 1.287 . S
O366 Fe352 1.996 . S
O366 C360 1.255 . S
C367 O371 1.295 . S
C367 O372 1.235 . S
O368 Fe353 1.976 . S
O368 C362 1.287 . S
O369 Fe355 1.996 . S
O369 C362 1.255 . S
C370 O363 1.287 . S
C370 O364 1.255 . S
O371 Fe353 2.002 . S
O371 C367 1.295 . S
O372 Fe355 1.997 . S
O372 C367 1.235 . S
C373 O356 1.295 . S
C373 O357 1.235 . S
Fe374 O376 1.918 . S
Fe374 O379 1.997 . S
Fe374 O380 2.002 . S
Fe374 O385 1.976 . S
Fe374 O388 1.996 . S
Fe375 O376 1.918 . S
Fe375 O383 1.997 . S
Fe375 O386 1.988 1_565 S
Fe375 O390 1.976 . S
Fe375 O393 2.002 . S
O376 Fe374 1.918 . S
O376 Fe375 1.918 . S
O376 Fe377 1.918 . S
Fe377 O376 1.918 . S
Fe377 O378 2.002 . S
Fe377 O387 1.976 . S
Fe377 O391 1.996 . S
Fe377 O394 1.997 . S
O378 Fe377 2.002 . S
O378 C395 1.295 . S
O379 Fe374 1.997 . S
O379 C395 1.235 . S
O380 Fe374 2.002 . S
O380 C381 1.295 . S
C381 O380 1.295 . S
C381 O383 1.235 . S
C382 O387 1.287 . S
C382 O388 1.255 . S
O383 Fe375 1.997 . S
O383 C381 1.235 . S
C384 O390 1.287 . S
C384 O391 1.255 . S
O385 Fe374 1.976 . S
O385 C392 1.287 1_565 S
O386 Fe375 1.988 1_545 S
O386 C392 1.255 . S
O387 Fe377 1.976 . S
O387 C382 1.287 . S
O388 Fe374 1.996 . S
O388 C382 1.255 . S
C389 O393 1.295 . S
C389 O394 1.235 . S
O390 Fe375 1.976 . S
O390 C384 1.287 . S
O391 Fe377 1.996 . S
O391 C384 1.255 . S
C392 O385 1.287 1_545 S
C392 O386 1.255 . S
O393 Fe375 2.002 . S
O393 C389 1.295 . S
O394 Fe377 1.997 . S
O394 C389 1.235 . S
C395 O378 1.295 . S
C395 O379 1.235 . S
Fe396 O398 1.918 . S
Fe396 O401 1.997 . S
Fe396 O402 2.002 . S
Fe396 O407 1.976 . S
Fe396 O410 1.996 . S
Fe397 O398 1.918 . S
Fe397 O405 1.997 . S
Fe397 O408 1.996 . S
Fe397 O412 1.976 . S
Fe397 O415 2.002 . S
O398 Fe396 1.918 . S
O398 Fe397 1.918 . S
O398 Fe399 1.918 . S
Fe399 O398 1.918 . S
Fe399 O400 2.002 . S
Fe399 O409 1.976 . S
Fe399 O413 1.988 1_565 S
Fe399 O416 1.997 . S
O400 Fe399 2.002 . S
O400 C417 1.295 . S
O401 Fe396 1.997 . S
O401 C417 1.235 . S
O402 Fe396 2.002 . S
O402 C403 1.295 . S
C403 O402 1.295 . S
C403 O405 1.235 . S
C404 O409 1.287 . S
C404 O410 1.255 . S
O405 Fe397 1.997 . S
O405 C403 1.235 . S
C406 O412 1.287 1_545 S
C406 O413 1.255 . S
O407 Fe396 1.976 . S
O407 C414 1.287 . S
O408 Fe397 1.996 . S
O408 C414 1.255 . S
O409 Fe399 1.976 . S
O409 C404 1.287 . S
O410 Fe396 1.996 . S
O410 C404 1.255 . S
C411 O415 1.295 . S
C411 O416 1.235 . S
O412 Fe397 1.976 . S
O412 C406 1.287 1_565 S
O413 Fe399 1.988 1_545 S
O413 C406 1.255 . S
C414 O407 1.287 . S
C414 O408 1.255 . S
O415 Fe397 2.002 . S
O415 C411 1.295 . S
O416 Fe399 1.997 . S
O416 C411 1.235 . S
C417 O400 1.295 . S
C417 O401 1.235 . S
Fe418 O420 1.918 . S
Fe418 O423 1.997 . S
Fe418 O424 2.002 . S
Fe418 O429 1.976 . S
Fe418 O432 1.996 . S
Fe419 O420 1.918 . S
Fe419 O427 1.997 . S
Fe419 O430 1.996 . S
Fe419 O434 1.976 . S
Fe419 O437 2.002 . S
O420 Fe418 1.918 . S
O420 Fe419 1.918 . S
O420 Fe421 1.918 . S
Fe421 O420 1.918 . S
Fe421 O422 2.002 . S
Fe421 O431 1.976 . S
Fe421 O435 1.996 . S
Fe421 O438 1.997 . S
O422 Fe421 2.002 . S
O422 C439 1.295 . S
O423 Fe418 1.997 . S
O423 C439 1.235 . S
O424 Fe418 2.002 . S
O424 C425 1.295 . S
C425 O424 1.295 . S
C425 O427 1.235 . S
C426 O431 1.287 . S
C426 O432 1.255 . S
O427 Fe419 1.997 . S
O427 C425 1.235 . S
C428 O434 1.287 . S
C428 O435 1.255 . S
O429 Fe418 1.976 . S
O429 C436 1.287 . S
O430 Fe419 1.996 . S
O430 C436 1.255 . S
O431 Fe421 1.976 . S
O431 C426 1.287 . S
O432 Fe418 1.996 . S
O432 C426 1.255 . S
C433 O437 1.295 . S
C433 O438 1.235 . S
O434 Fe419 1.976 . S
O434 C428 1.287 . S
O435 Fe421 1.996 . S
O435 C428 1.255 . S
C436 O429 1.287 . S
C436 O430 1.255 . S
O437 Fe419 2.002 . S
O437 C433 1.295 . S
O438 Fe421 1.997 . S
O438 C433 1.235 . S
C439 O422 1.295 . S
C439 O423 1.235 . S
Fe440 O442 1.918 . S
Fe440 O445 1.997 . S
Fe440 O446 2.002 . S
Fe440 O451 1.976 . S
Fe440 O454 1.996 . S
Fe441 O442 1.918 . S
Fe441 O449 1.997 . S
Fe441 O452 1.996 . S
Fe441 O456 1.976 . S
Fe441 O459 2.002 . S
O442 Fe440 1.918 . S
O442 Fe441 1.918 . S
O442 Fe443 1.918 . S
Fe443 O442 1.918 . S
Fe443 O444 2.002 . S
Fe443 O453 1.976 . S
Fe443 O457 1.996 . S
Fe443 O460 1.997 . S
O444 Fe443 2.002 . S
O444 C461 1.295 . S
O445 Fe440 1.997 . S
O445 C461 1.235 . S
O446 Fe440 2.002 . S
O446 C447 1.295 . S
C447 O446 1.295 . S
C447 O449 1.235 . S
C448 O453 1.287 . S
C448 O454 1.255 . S
O449 Fe441 1.997 . S
O449 C447 1.235 . S
C450 O456 1.287 . S
C450 O457 1.255 . S
O451 Fe440 1.976 . S
O451 C458 1.287 . S
O452 Fe441 1.996 . S
O452 C458 1.255 . S
O453 Fe443 1.976 . S
O453 C448 1.287 . S
O454 Fe440 1.996 . S
O454 C448 1.255 . S
C455 O459 1.295 . S
C455 O460 1.235 . S
O456 Fe441 1.976 . S
O456 C450 1.287 . S
O457 Fe443 1.996 . S
O457 C450 1.255 . S
C458 O451 1.287 . S
C458 O452 1.255 . S
O459 Fe441 2.002 . S
O459 C455 1.295 . S
O460 Fe443 1.997 . S
O460 C455 1.235 . S
C461 O444 1.295 . S
C461 O445 1.235 . S
Fe462 O464 1.918 . S
Fe462 O467 1.997 . S
Fe462 O468 2.002 . S
Fe462 O473 1.976 . S
Fe462 O476 1.996 . S
Fe463 O464 1.918 . S
Fe463 O471 1.997 . S
Fe463 O474 1.996 . S
Fe463 O478 1.976 . S
Fe463 O481 2.002 . S
O464 Fe462 1.918 . S
O464 Fe463 1.918 . S
O464 Fe465 1.918 . S
Fe465 O464 1.918 . S
Fe465 O466 2.002 . S
Fe465 O475 1.976 . S
Fe465 O479 1.996 . S
Fe465 O482 1.997 . S
O466 Fe465 2.002 . S
O466 C483 1.295 . S
O467 Fe462 1.997 . S
O467 C483 1.235 . S
O468 Fe462 2.002 . S
O468 C469 1.295 . S
C469 O468 1.295 . S
C469 O471 1.235 . S
C470 O475 1.287 . S
C470 O476 1.255 . S
O471 Fe463 1.997 . S
O471 C469 1.235 . S
C472 O478 1.287 . S
C472 O479 1.255 . S
O473 Fe462 1.976 . S
O473 C480 1.287 1_545 S
O474 Fe463 1.996 . S
O474 C480 1.255 1_545 S
O475 Fe465 1.976 . S
O475 C470 1.287 . S
O476 Fe462 1.996 . S
O476 C470 1.255 . S
C477 O481 1.295 . S
C477 O482 1.235 . S
O478 Fe463 1.976 . S
O478 C472 1.287 . S
O479 Fe465 1.996 . S
O479 C472 1.255 . S
C480 O473 1.287 1_565 S
C480 O474 1.255 1_565 S
O481 Fe463 2.002 . S
O481 C477 1.295 . S
O482 Fe465 1.997 . S
O482 C477 1.235 . S
C483 O466 1.295 . S
C483 O467 1.235 . S
Fe484 O486 1.918 . S
Fe484 O489 1.997 . S
Fe484 O490 2.002 . S
Fe484 O495 1.976 . S
Fe484 O498 1.996 . S
Fe485 O486 1.918 . S
Fe485 O493 1.997 . S
Fe485 O496 1.996 . S
Fe485 O500 1.976 . S
Fe485 O503 2.002 . S
O486 Fe484 1.918 . S
O486 Fe485 1.918 . S
O486 Fe487 1.918 . S
Fe487 O486 1.918 . S
Fe487 O488 2.002 . S
Fe487 O497 1.976 . S
Fe487 O501 1.996 . S
Fe487 O504 1.997 . S
O488 Fe487 2.002 . S
O488 C505 1.295 . S
O489 Fe484 1.997 . S
O489 C505 1.235 . S
O490 Fe484 2.002 . S
O490 C491 1.295 . S
C491 O490 1.295 . S
C491 O493 1.235 . S
C492 O497 1.287 . S
C492 O498 1.255 . S
O493 Fe485 1.997 . S
O493 C491 1.235 . S
C494 O500 1.287 . S
C494 O501 1.255 . S
O495 Fe484 1.976 . S
O495 C502 1.287 1_545 S
O496 Fe485 1.996 . S
O496 C502 1.255 1_545 S
O497 Fe487 1.976 . S
O497 C492 1.287 . S
O498 Fe484 1.996 . S
O498 C492 1.255 . S
C499 O503 1.295 . S
C499 O504 1.235 . S
O500 Fe485 1.976 . S
O500 C494 1.287 . S
O501 Fe487 1.996 . S
O501 C494 1.255 . S
C502 O495 1.287 1_565 S
C502 O496 1.255 1_565 S
O503 Fe485 2.002 . S
O503 C499 1.295 . S
O504 Fe487 1.997 . S
O504 C499 1.235 . S
C505 O488 1.295 . S
C505 O489 1.235 . S
Fe506 O508 1.918 . S
Fe506 O511 1.997 . S
Fe506 O512 2.002 . S
Fe506 O517 1.976 . S
Fe506 O520 1.996 . S
Fe507 O508 1.918 . S
Fe507 O515 1.997 . S
Fe507 O518 1.996 . S
Fe507 O522 1.976 . S
Fe507 O525 2.002 . S
O508 Fe506 1.918 . S
O508 Fe507 1.918 . S
O508 Fe509 1.918 . S
Fe509 O508 1.918 . S
Fe509 O510 2.002 . S
Fe509 O519 1.976 . S
Fe509 O523 1.996 . S
Fe509 O526 1.997 . S
O510 Fe509 2.002 . S
O510 C527 1.295 . S
O511 Fe506 1.997 . S
O511 C527 1.235 . S
O512 Fe506 2.002 . S
O512 C513 1.295 . S
C513 O512 1.295 . S
C513 O515 1.235 . S
C514 O519 1.287 . S
C514 O520 1.255 . S
O515 Fe507 1.997 . S
O515 C513 1.235 . S
C516 O522 1.287 . S
C516 O523 1.255 . S
O517 Fe506 1.976 . S
O517 C524 1.287 . S
O518 Fe507 1.996 . S
O518 C524 1.255 . S
O519 Fe509 1.976 . S
O519 C514 1.287 . S
O520 Fe506 1.996 . S
O520 C514 1.255 . S
C521 O525 1.295 . S
C521 O526 1.235 . S
O522 Fe507 1.976 . S
O522 C516 1.287 . S
O523 Fe509 1.996 . S
O523 C516 1.255 . S
C524 O517 1.287 . S
C524 O518 1.255 . S
O525 Fe507 2.002 . S
O525 C521 1.295 . S
O526 Fe509 1.997 . S
O526 C521 1.235 . S
C527 O510 1.295 . S
C527 O511 1.235 . S
Fe528 O530 1.918 . S
Fe528 O533 1.997 . S
Fe528 O534 2.002 . S
Fe528 O539 1.976 . S
Fe528 O542 1.996 . S
Fe529 O530 1.918 . S
Fe529 O537 1.997 . S
Fe529 O540 1.996 . S
Fe529 O544 1.976 . S
Fe529 O547 2.002 . S
O530 Fe528 1.918 . S
O530 Fe529 1.918 . S
O530 Fe531 1.918 . S
Fe531 O530 1.918 . S
Fe531 O532 2.002 . S
Fe531 O541 1.976 . S
Fe531 O545 1.996 . S
Fe531 O548 1.997 . S
O532 Fe531 2.002 . S
O532 C549 1.295 . S
O533 Fe528 1.997 . S
O533 C549 1.235 . S
O534 Fe528 2.002 . S
O534 C535 1.295 . S
C535 O534 1.295 . S
C535 O537 1.235 . S
C536 O541 1.287 . S
C536 O542 1.255 . S
O537 Fe529 1.997 . S
O537 C535 1.235 . S
C538 O544 1.287 . S
C538 O545 1.255 . S
O539 Fe528 1.976 . S
O539 C546 1.287 . S
O540 Fe529 1.996 . S
O540 C546 1.255 . S
O541 Fe531 1.976 . S
O541 C536 1.287 . S
O542 Fe528 1.996 . S
O542 C536 1.255 . S
C543 O547 1.295 . S
C543 O548 1.235 . S
O544 Fe529 1.976 . S
O544 C538 1.287 . S
O545 Fe531 1.996 . S
O545 C538 1.255 . S
C546 O539 1.287 . S
C546 O540 1.255 . S
O547 Fe529 2.002 . S
O547 C543 1.295 . S
O548 Fe531 1.997 . S
O548 C543 1.235 . S
C549 O532 1.295 . S
C549 O533 1.235 . S
Fe550 O552 1.918 . S
Fe550 O555 1.997 . S
Fe550 O556 2.002 . S
Fe550 O561 1.976 . S
Fe550 O564 1.996 . S
Fe551 O552 1.918 . S
Fe551 O559 1.997 . S
Fe551 O562 1.996 . S
Fe551 O566 1.976 . S
Fe551 O569 2.002 . S
O552 Fe550 1.918 . S
O552 Fe551 1.918 . S
O552 Fe553 1.918 . S
Fe553 O552 1.918 . S
Fe553 O554 2.002 . S
Fe553 O563 1.976 . S
Fe553 O567 1.996 . S
Fe553 O570 1.997 . S
O554 Fe553 2.002 . S
O554 C571 1.295 . S
O555 Fe550 1.997 . S
O555 C571 1.235 . S
O556 Fe550 2.002 . S
O556 C557 1.295 . S
C557 O556 1.295 . S
C557 O559 1.235 . S
C558 O563 1.287 . S
C558 O564 1.255 . S
O559 Fe551 1.997 . S
O559 C557 1.235 . S
C560 O566 1.287 . S
C560 O567 1.255 . S
O561 Fe550 1.976 . S
O561 C568 1.287 . S
O562 Fe551 1.996 . S
O562 C568 1.255 . S
O563 Fe553 1.976 . S
O563 C558 1.287 . S
O564 Fe550 1.996 . S
O564 C558 1.255 . S
C565 O569 1.295 . S
C565 O570 1.235 . S
O566 Fe551 1.976 . S
O566 C560 1.287 . S
O567 Fe553 1.996 . S
O567 C560 1.255 . S
C568 O561 1.287 . S
C568 O562 1.255 . S
O569 Fe551 2.002 . S
O569 C565 1.295 . S
O570 Fe553 1.997 . S
O570 C565 1.235 . S
C571 O554 1.295 . S
C571 O555 1.235 . S
Fe572 O574 1.918 . S
Fe572 O577 1.997 . S
Fe572 O578 2.002 . S
Fe572 O583 1.976 . S
Fe572 O586 1.996 . S
Fe573 O574 1.918 . S
Fe573 O581 1.997 . S
Fe573 O584 1.996 . S
Fe573 O588 1.976 . S
Fe573 O591 2.002 . S
O574 Fe572 1.918 . S
O574 Fe573 1.918 . S
O574 Fe575 1.918 . S
Fe575 O574 1.918 . S
Fe575 O576 2.002 . S
Fe575 O585 1.976 . S
Fe575 O589 1.996 . S
Fe575 O592 1.997 . S
O576 Fe575 2.002 . S
O576 C593 1.295 . S
O577 Fe572 1.997 . S
O577 C593 1.235 . S
O578 Fe572 2.002 . S
O578 C579 1.295 . S
C579 O578 1.295 . S
C579 O581 1.235 . S
C580 O585 1.287 . S
C580 O586 1.255 . S
O581 Fe573 1.997 . S
O581 C579 1.235 . S
C582 O588 1.287 . S
C582 O589 1.255 . S
O583 Fe572 1.976 . S
O583 C590 1.287 . S
O584 Fe573 1.996 . S
O584 C590 1.255 . S
O585 Fe575 1.976 . S
O585 C580 1.287 . S
O586 Fe572 1.996 . S
O586 C580 1.255 . S
C587 O591 1.295 . S
C587 O592 1.235 . S
O588 Fe573 1.976 . S
O588 C582 1.287 . S
O589 Fe575 1.996 . S
O589 C582 1.255 . S
C590 O583 1.287 . S
C590 O584 1.255 . S
O591 Fe573 2.002 . S
O591 C587 1.295 . S
O592 Fe575 1.997 . S
O592 C587 1.235 . S
C593 O576 1.295 . S
C593 O577 1.235 . S
Fe594 O596 1.918 . S
Fe594 O599 1.997 . S
Fe594 O600 2.002 . S
Fe594 O605 1.976 . S
Fe594 O608 1.996 . S
Fe595 O596 1.918 . S
Fe595 O603 1.997 . S
Fe595 O606 1.996 . S
Fe595 O610 1.976 . S
Fe595 O613 2.002 . S
O596 Fe594 1.918 . S
O596 Fe595 1.918 . S
O596 Fe597 1.918 . S
Fe597 O596 1.918 . S
Fe597 O598 2.002 . S
Fe597 O607 1.976 . S
Fe597 O611 1.996 . S
Fe597 O614 1.997 . S
O598 Fe597 2.002 . S
O598 C615 1.295 . S
O599 Fe594 1.997 . S
O599 C615 1.235 . S
O600 Fe594 2.002 . S
O600 C601 1.295 . S
C601 O600 1.295 . S
C601 O603 1.235 . S
C602 O607 1.287 . S
C602 O608 1.255 . S
O603 Fe595 1.997 . S
O603 C601 1.235 . S
C604 O610 1.287 . S
C604 O611 1.255 . S
O605 Fe594 1.976 . S
O605 C612 1.287 . S
O606 Fe595 1.996 . S
O606 C612 1.255 . S
O607 Fe597 1.976 . S
O607 C602 1.287 . S
O608 Fe594 1.996 . S
O608 C602 1.255 . S
C609 O613 1.295 . S
C609 O614 1.235 . S
O610 Fe595 1.976 . S
O610 C604 1.287 . S
O611 Fe597 1.996 . S
O611 C604 1.255 . S
C612 O605 1.287 . S
C612 O606 1.255 . S
O613 Fe595 2.002 . S
O613 C609 1.295 . S
O614 Fe597 1.997 . S
O614 C609 1.235 . S
C615 O598 1.295 . S
C615 O599 1.235 . S
Fe616 O618 1.918 . S
Fe616 O621 1.997 . S
Fe616 O622 2.002 . S
Fe616 O627 1.976 . S
Fe616 O630 1.996 . S
Fe617 O618 1.918 . S
Fe617 O625 1.997 . S
Fe617 O628 1.996 . S
Fe617 O632 1.976 . S
Fe617 O635 2.002 . S
O618 Fe616 1.918 . S
O618 Fe617 1.918 . S
O618 Fe619 1.918 . S
Fe619 O618 1.918 . S
Fe619 O620 2.002 . S
Fe619 O629 1.976 . S
Fe619 O633 1.996 . S
Fe619 O636 1.997 . S
O620 Fe619 2.002 . S
O620 C637 1.295 . S
O621 Fe616 1.997 . S
O621 C637 1.235 . S
O622 Fe616 2.002 . S
O622 C623 1.295 . S
C623 O622 1.295 . S
C623 O625 1.235 . S
C624 O629 1.287 . S
C624 O630 1.255 . S
O625 Fe617 1.997 . S
O625 C623 1.235 . S
C626 O632 1.287 . S
C626 O633 1.255 . S
O627 Fe616 1.976 . S
O627 C634 1.287 . S
O628 Fe617 1.996 . S
O628 C634 1.255 . S
O629 Fe619 1.976 . S
O629 C624 1.287 . S
O630 Fe616 1.996 . S
O630 C624 1.255 . S
C631 O635 1.295 . S
C631 O636 1.235 . S
O632 Fe617 1.976 . S
O632 C626 1.287 . S
O633 Fe619 1.996 . S
O633 C626 1.255 . S
C634 O627 1.287 . S
C634 O628 1.255 . S
O635 Fe617 2.002 . S
O635 C631 1.295 . S
O636 Fe619 1.997 . S
O636 C631 1.235 . S
C637 O620 1.295 . S
C637 O621 1.235 . S
Fe638 O640 1.918 . S
Fe638 O643 1.997 . S
Fe638 O644 2.002 . S
Fe638 O649 1.976 . S
Fe638 O652 1.996 . S
Fe639 O640 1.918 . S
Fe639 O647 1.997 . S
Fe639 O650 1.996 . S
Fe639 O654 1.976 . S
Fe639 O657 2.002 . S
O640 Fe638 1.918 . S
O640 Fe639 1.918 . S
O640 Fe641 1.918 . S
Fe641 O640 1.918 . S
Fe641 O642 2.002 . S
Fe641 O651 1.976 . S
Fe641 O655 1.996 . S
Fe641 O658 1.997 . S
O642 Fe641 2.002 . S
O642 C659 1.295 . S
O643 Fe638 1.997 . S
O643 C659 1.235 . S
O644 Fe638 2.002 . S
O644 C645 1.295 . S
C645 O644 1.295 . S
C645 O647 1.235 . S
C646 O651 1.287 . S
C646 O652 1.255 . S
O647 Fe639 1.997 . S
O647 C645 1.235 . S
C648 O654 1.287 . S
C648 O655 1.255 . S
O649 Fe638 1.976 . S
O649 C656 1.287 . S
O650 Fe639 1.996 . S
O650 C656 1.255 . S
O651 Fe641 1.976 . S
O651 C646 1.287 . S
O652 Fe638 1.996 . S
O652 C646 1.255 . S
C653 O657 1.295 . S
C653 O658 1.235 . S
O654 Fe639 1.976 . S
O654 C648 1.287 . S
O655 Fe641 1.996 . S
O655 C648 1.255 . S
C656 O649 1.287 . S
C656 O650 1.255 . S
O657 Fe639 2.002 . S
O657 C653 1.295 . S
O658 Fe641 1.997 . S
O658 C653 1.235 . S
C659 O642 1.295 . S
C659 O643 1.235 . S
Fe660 O662 1.918 . S
Fe660 O665 1.997 . S
Fe660 O666 2.002 . S
Fe660 O671 1.976 . S
Fe660 O674 1.996 . S
Fe661 O662 1.918 . S
Fe661 O669 1.997 . S
Fe661 O672 1.996 . S
Fe661 O676 1.976 . S
Fe661 O679 2.002 . S
O662 Fe660 1.918 . S
O662 Fe661 1.918 . S
O662 Fe663 1.918 . S
Fe663 O662 1.918 . S
Fe663 O664 2.002 . S
Fe663 O673 1.976 . S
Fe663 O677 1.996 . S
Fe663 O680 1.997 . S
O664 Fe663 2.002 . S
O664 C681 1.295 . S
O665 Fe660 1.997 . S
O665 C681 1.235 . S
O666 Fe660 2.002 . S
O666 C667 1.295 . S
C667 O666 1.295 . S
C667 O669 1.235 . S
C668 O673 1.287 . S
C668 O674 1.255 . S
O669 Fe661 1.997 . S
O669 C667 1.235 . S
C670 O676 1.287 . S
C670 O677 1.255 . S
O671 Fe660 1.976 . S
O671 C678 1.287 . S
O672 Fe661 1.996 . S
O672 C678 1.255 . S
O673 Fe663 1.976 . S
O673 C668 1.287 . S
O674 Fe660 1.996 . S
O674 C668 1.255 . S
C675 O679 1.295 . S
C675 O680 1.235 . S
O676 Fe661 1.976 . S
O676 C670 1.287 . S
O677 Fe663 1.996 . S
O677 C670 1.255 . S
C678 O671 1.287 . S
C678 O672 1.255 . S
O679 Fe661 2.002 . S
O679 C675 1.295 . S
O680 Fe663 1.997 . S
O680 C675 1.235 . S
C681 O664 1.295 . S
C681 O665 1.235 . S
Fe682 O684 1.918 . S
Fe682 O687 1.997 . S
Fe682 O688 2.002 . S
Fe682 O693 1.976 . S
Fe682 O696 1.996 . S
Fe683 O684 1.918 . S
Fe683 O691 1.997 . S
Fe683 O694 1.996 . S
Fe683 O698 1.976 . S
Fe683 O701 2.002 . S
O684 Fe682 1.918 . S
O684 Fe683 1.918 . S
O684 Fe685 1.918 . S
Fe685 O684 1.918 . S
Fe685 O686 2.002 . S
Fe685 O695 1.976 . S
Fe685 O699 1.996 . S
Fe685 O702 1.997 . S
O686 Fe685 2.002 . S
O686 C703 1.295 . S
O687 Fe682 1.997 . S
O687 C703 1.235 . S
O688 Fe682 2.002 . S
O688 C689 1.295 . S
C689 O688 1.295 . S
C689 O691 1.235 . S
C690 O695 1.287 . S
C690 O696 1.255 . S
O691 Fe683 1.997 . S
O691 C689 1.235 . S
C692 O698 1.287 . S
C692 O699 1.255 . S
O693 Fe682 1.976 . S
O693 C700 1.287 . S
O694 Fe683 1.996 . S
O694 C700 1.255 . S
O695 Fe685 1.976 . S
O695 C690 1.287 . S
O696 Fe682 1.996 . S
O696 C690 1.255 . S
C697 O701 1.295 . S
C697 O702 1.235 . S
O698 Fe683 1.976 . S
O698 C692 1.287 . S
O699 Fe685 1.996 . S
O699 C692 1.255 . S
C700 O693 1.287 . S
C700 O694 1.255 . S
O701 Fe683 2.002 . S
O701 C697 1.295 . S
O702 Fe685 1.997 . S
O702 C697 1.235 . S
C703 O686 1.295 . S
C703 O687 1.235 . S
H704 C712 0.950 . S
H705 C717 0.950 . S
H706 C714 0.950 . S
H707 C716 0.950 . S
H708 C718 0.950 . S
H709 C720 0.950 . S
H710 C722 0.950 . S
H711 C723 0.950 . S
C712 H704 0.950 . S
C712 C713 1.386 . S
C712 C714 1.391 . S
C713 C712 1.386 . S
C713 C717 1.393 . S
C714 H706 0.950 . S
C714 C712 1.391 . S
C714 C715 1.400 . S
C715 C714 1.400 . S
C715 C716 1.398 . S
C715 C721 1.491 . S
C716 H707 0.950 . S
C716 C715 1.398 . S
C716 C717 1.391 . S
C717 H705 0.950 . S
C717 C713 1.393 . S
C717 C716 1.391 . S
C718 H708 0.950 . S
C718 C719 1.386 . S
C718 C720 1.391 . S
C719 C718 1.386 . S
C719 C723 1.393 . S
C720 H709 0.950 . S
C720 C718 1.391 . S
C720 C721 1.400 . S
C721 C715 1.491 . S
C721 C720 1.400 . S
C721 C722 1.398 . S
C722 H710 0.950 . S
C722 C721 1.398 . S
C722 C723 1.391 . S
C723 H711 0.950 . S
C723 C719 1.393 . S
C723 C722 1.391 . S
H724 C732 0.950 . S
H725 C737 0.950 . S
H726 C734 0.950 . S
H727 C736 0.950 . S
H728 C738 0.950 . S
H729 C740 0.950 . S
H730 C742 0.950 . S
H731 C743 0.950 . S
C732 H724 0.950 . S
C732 C733 1.386 . S
C732 C734 1.391 . S
C733 C732 1.386 . S
C733 C737 1.393 . S
C734 H726 0.950 . S
C734 C732 1.391 . S
C734 C735 1.400 . S
C735 C734 1.400 . S
C735 C736 1.398 . S
C735 C741 1.491 . S
C736 H727 0.950 . S
C736 C735 1.398 . S
C736 C737 1.391 . S
C737 H725 0.950 . S
C737 C733 1.393 . S
C737 C736 1.391 . S
C738 H728 0.950 . S
C738 C739 1.386 . S
C738 C740 1.391 . S
C739 C738 1.386 . S
C739 C743 1.393 . S
C740 H729 0.950 . S
C740 C738 1.391 . S
C740 C741 1.400 . S
C741 C735 1.491 . S
C741 C740 1.400 . S
C741 C742 1.398 . S
C742 H730 0.950 . S
C742 C741 1.398 . S
C742 C743 1.391 . S
C743 H731 0.950 . S
C743 C739 1.393 . S
C743 C742 1.391 . S
H744 C752 0.950 . S
H745 C757 0.950 . S
H746 C754 0.950 . S
H747 C756 0.950 . S
H748 C758 0.950 . S
H749 C760 0.950 . S
H750 C762 0.950 . S
H751 C763 0.950 . S
C752 H744 0.950 . S
C752 C753 1.386 . S
C752 C754 1.391 . S
C753 C752 1.386 . S
C753 C757 1.393 . S
C754 H746 0.950 . S
C754 C752 1.391 . S
C754 C755 1.400 . S
C755 C754 1.400 . S
C755 C756 1.398 . S
C755 C761 1.491 . S
C756 H747 0.950 . S
C756 C755 1.398 . S
C756 C757 1.391 . S
C757 H745 0.950 . S
C757 C753 1.393 . S
C757 C756 1.391 . S
C758 H748 0.950 . S
C758 C759 1.386 . S
C758 C760 1.391 . S
C759 C758 1.386 . S
C759 C763 1.393 . S
C760 H749 0.950 . S
C760 C758 1.391 . S
C760 C761 1.400 . S
C761 C755 1.491 . S
C761 C760 1.400 . S
C761 C762 1.398 . S
C762 H750 0.950 . S
C762 C761 1.398 . S
C762 C763 1.391 . S
C763 H751 0.950 . S
C763 C759 1.393 . S
C763 C762 1.391 . S
H764 C772 0.950 . S
H765 C777 0.950 . S
H766 C774 0.950 . S
H767 C776 0.950 . S
H768 C778 0.950 . S
H769 C780 0.950 . S
H770 C782 0.950 . S
H771 C783 0.950 . S
C772 H764 0.950 . S
C772 C773 1.386 . S
C772 C774 1.391 . S
C773 C772 1.386 . S
C773 C777 1.393 . S
C774 H766 0.950 . S
C774 C772 1.391 . S
C774 C775 1.400 . S
C775 C774 1.400 . S
C775 C776 1.398 . S
C775 C781 1.491 . S
C776 H767 0.950 . S
C776 C775 1.398 . S
C776 C777 1.391 . S
C777 H765 0.950 . S
C777 C773 1.393 . S
C777 C776 1.391 . S
C778 H768 0.950 . S
C778 C779 1.386 . S
C778 C780 1.391 . S
C779 C778 1.386 . S
C779 C783 1.393 . S
C780 H769 0.950 . S
C780 C778 1.391 . S
C780 C781 1.400 . S
C781 C775 1.491 . S
C781 C780 1.400 . S
C781 C782 1.398 . S
C782 H770 0.950 . S
C782 C781 1.398 . S
C782 C783 1.391 . S
C783 H771 0.950 . S
C783 C779 1.393 . S
C783 C782 1.391 . S
H784 C792 0.950 . S
H785 C797 0.950 . S
H786 C794 0.950 . S
H787 C796 0.950 . S
H788 C798 0.950 . S
H789 C800 0.950 . S
H790 C802 0.950 . S
H791 C803 0.950 . S
C792 H784 0.950 . S
C792 C793 1.386 . S
C792 C794 1.391 . S
C793 C792 1.386 . S
C793 C797 1.393 . S
C794 H786 0.950 . S
C794 C792 1.391 . S
C794 C795 1.400 . S
C795 C794 1.400 . S
C795 C796 1.398 . S
C795 C801 1.491 . S
C796 H787 0.950 . S
C796 C795 1.398 . S
C796 C797 1.391 . S
C797 H785 0.950 . S
C797 C793 1.393 . S
C797 C796 1.391 . S
C798 H788 0.950 . S
C798 C799 1.386 . S
C798 C800 1.391 . S
C799 C798 1.386 . S
C799 C803 1.393 . S
C800 H789 0.950 . S
C800 C798 1.391 . S
C800 C801 1.400 . S
C801 C795 1.491 . S
C801 C800 1.400 . S
C801 C802 1.398 . S
C802 H790 0.950 . S
C802 C801 1.398 . S
C802 C803 1.391 . S
C803 H791 0.950 . S
C803 C799 1.393 . S
C803 C802 1.391 . S
H804 C812 0.950 . S
H805 C817 0.950 . S
H806 C814 0.950 . S
H807 C816 0.950 . S
H808 C818 0.950 . S
H809 C820 0.950 . S
H810 C822 0.950 . S
H811 C823 0.950 . S
C812 H804 0.950 . S
C812 C813 1.386 . S
C812 C814 1.391 . S
C813 C812 1.386 . S
C813 C817 1.393 . S
C814 H806 0.950 . S
C814 C812 1.391 . S
C814 C815 1.400 . S
C815 C814 1.400 . S
C815 C816 1.398 . S
C815 C821 1.491 . S
C816 H807 0.950 . S
C816 C815 1.398 . S
C816 C817 1.391 . S
C817 H805 0.950 . S
C817 C813 1.393 . S
C817 C816 1.391 . S
C818 H808 0.950 . S
C818 C819 1.386 . S
C818 C820 1.391 . S
C819 C818 1.386 . S
C819 C823 1.393 . S
C820 H809 0.950 . S
C820 C818 1.391 . S
C820 C821 1.400 . S
C821 C815 1.491 . S
C821 C820 1.400 . S
C821 C822 1.398 . S
C822 H810 0.950 . S
C822 C821 1.398 . S
C822 C823 1.391 . S
C823 H811 0.950 . S
C823 C819 1.393 . S
C823 C822 1.391 . S
H824 C832 0.950 . S
H825 C837 0.950 . S
H826 C834 0.950 . S
H827 C836 0.950 . S
H828 C838 0.950 . S
H829 C840 0.950 . S
H830 C842 0.950 . S
H831 C843 0.950 . S
C832 H824 0.950 . S
C832 C833 1.386 . S
C832 C834 1.391 . S
C833 C832 1.386 . S
C833 C837 1.393 . S
C834 H826 0.950 . S
C834 C832 1.391 . S
C834 C835 1.400 . S
C835 C834 1.400 . S
C835 C836 1.398 . S
C835 C841 1.491 . S
C836 H827 0.950 . S
C836 C835 1.398 . S
C836 C837 1.391 . S
C837 H825 0.950 . S
C837 C833 1.393 . S
C837 C836 1.391 . S
C838 H828 0.950 . S
C838 C839 1.386 . S
C838 C840 1.391 . S
C839 C838 1.386 . S
C839 C843 1.393 . S
C840 H829 0.950 . S
C840 C838 1.391 . S
C840 C841 1.400 . S
C841 C835 1.491 . S
C841 C840 1.400 . S
C841 C842 1.398 . S
C842 H830 0.950 . S
C842 C841 1.398 . S
C842 C843 1.391 . S
C843 H831 0.950 . S
C843 C839 1.393 . S
C843 C842 1.391 . S
H844 C852 0.950 . S
H845 C857 0.950 . S
H846 C854 0.950 . S
H847 C856 0.950 . S
H848 C858 0.950 . S
H849 C860 0.950 . S
H850 C862 0.950 . S
H851 C863 0.950 . S
C852 H844 0.950 . S
C852 C853 1.386 . S
C852 C854 1.391 . S
C853 C852 1.386 . S
C853 C857 1.393 . S
C854 H846 0.950 . S
C854 C852 1.391 . S
C854 C855 1.400 . S
C855 C854 1.400 . S
C855 C856 1.398 . S
C855 C861 1.491 . S
C856 H847 0.950 . S
C856 C855 1.398 . S
C856 C857 1.391 . S
C857 H845 0.950 . S
C857 C853 1.393 . S
C857 C856 1.391 . S
C858 H848 0.950 . S
C858 C859 1.386 . S
C858 C860 1.391 . S
C859 C858 1.386 . S
C859 C863 1.393 . S
C860 H849 0.950 . S
C860 C858 1.391 . S
C860 C861 1.400 . S
C861 C855 1.491 . S
C861 C860 1.400 . S
C861 C862 1.398 . S
C862 H850 0.950 . S
C862 C861 1.398 . S
C862 C863 1.391 . S
C863 H851 0.950 . S
C863 C859 1.393 . S
C863 C862 1.391 . S
H864 C872 0.950 . S
H865 C877 0.950 . S
H866 C874 0.950 . S
H867 C876 0.950 . S
H868 C878 0.950 . S
H869 C880 0.950 . S
H870 C882 0.950 . S
H871 C883 0.950 . S
C872 H864 0.950 . S
C872 C873 1.386 . S
C872 C874 1.391 . S
C873 C872 1.386 . S
C873 C877 1.393 . S
C874 H866 0.950 . S
C874 C872 1.391 . S
C874 C875 1.400 . S
C875 C874 1.400 . S
C875 C876 1.398 . S
C875 C881 1.491 . S
C876 H867 0.950 . S
C876 C875 1.398 . S
C876 C877 1.391 . S
C877 H865 0.950 . S
C877 C873 1.393 . S
C877 C876 1.391 . S
C878 H868 0.950 . S
C878 C879 1.386 . S
C878 C880 1.391 . S
C879 C878 1.386 . S
C879 C883 1.393 . S
C880 H869 0.950 . S
C880 C878 1.391 . S
C880 C881 1.400 . S
C881 C875 1.491 . S
C881 C880 1.400 . S
C881 C882 1.398 . S
C882 H870 0.950 . S
C882 C881 1.398 . S
C882 C883 1.391 . S
C883 H871 0.950 . S
C883 C879 1.393 . S
C883 C882 1.391 . S
H884 C892 0.950 . S
H885 C897 0.950 . S
H886 C894 0.950 . S
H887 C896 0.950 . S
H888 C898 0.950 . S
H889 C900 0.950 . S
H890 C902 0.950 . S
H891 C903 0.950 . S
C892 H884 0.950 . S
C892 C893 1.386 . S
C892 C894 1.391 . S
C893 C892 1.386 . S
C893 C897 1.393 . S
C894 H886 0.950 . S
C894 C892 1.391 . S
C894 C895 1.400 . S
C895 C894 1.400 . S
C895 C896 1.398 . S
C895 C901 1.491 . S
C896 H887 0.950 . S
C896 C895 1.398 . S
C896 C897 1.391 . S
C897 H885 0.950 . S
C897 C893 1.393 . S
C897 C896 1.391 . S
C898 H888 0.950 . S
C898 C899 1.386 . S
C898 C900 1.391 . S
C899 C898 1.386 . S
C899 C903 1.393 . S
C900 H889 0.950 . S
C900 C898 1.391 . S
C900 C901 1.400 . S
C901 C895 1.491 . S
C901 C900 1.400 . S
C901 C902 1.398 . S
C902 H890 0.950 . S
C902 C901 1.398 . S
C902 C903 1.391 . S
C903 H891 0.950 . S
C903 C899 1.393 . S
C903 C902 1.391 . S
H904 C912 0.950 . S
H905 C917 0.950 . S
H906 C914 0.950 . S
H907 C916 0.950 . S
H908 C918 0.950 . S
H909 C920 0.950 . S
H910 C922 0.950 . S
H911 C923 0.950 . S
C912 H904 0.950 . S
C912 C913 1.386 . S
C912 C914 1.391 . S
C913 C912 1.386 . S
C913 C917 1.393 . S
C914 H906 0.950 . S
C914 C912 1.391 . S
C914 C915 1.400 . S
C915 C914 1.400 . S
C915 C916 1.398 . S
C915 C921 1.491 . S
C916 H907 0.950 . S
C916 C915 1.398 . S
C916 C917 1.391 . S
C917 H905 0.950 . S
C917 C913 1.393 . S
C917 C916 1.391 . S
C918 H908 0.950 . S
C918 C919 1.386 . S
C918 C920 1.391 . S
C919 C918 1.386 . S
C919 C923 1.393 . S
C920 H909 0.950 . S
C920 C918 1.391 . S
C920 C921 1.400 . S
C921 C915 1.491 . S
C921 C920 1.400 . S
C921 C922 1.398 . S
C922 H910 0.950 . S
C922 C921 1.398 . S
C922 C923 1.391 . S
C923 H911 0.950 . S
C923 C919 1.393 . S
C923 C922 1.391 . S
H924 C932 0.950 . S
H925 C937 0.950 . S
H926 C934 0.950 . S
H927 C936 0.950 . S
H928 C938 0.950 . S
H929 C940 0.950 . S
H930 C942 0.950 . S
H931 C943 0.950 . S
C932 H924 0.950 . S
C932 C933 1.386 . S
C932 C934 1.391 . S
C933 C932 1.386 . S
C933 C937 1.393 . S
C934 H926 0.950 . S
C934 C932 1.391 . S
C934 C935 1.400 . S
C935 C934 1.400 . S
C935 C936 1.398 . S
C935 C941 1.491 . S
C936 H927 0.950 . S
C936 C935 1.398 . S
C936 C937 1.391 . S
C937 H925 0.950 . S
C937 C933 1.393 . S
C937 C936 1.391 . S
C938 H928 0.950 . S
C938 C939 1.386 . S
C938 C940 1.391 . S
C939 C938 1.386 . S
C939 C943 1.393 . S
C940 H929 0.950 . S
C940 C938 1.391 . S
C940 C941 1.400 . S
C941 C935 1.491 . S
C941 C940 1.400 . S
C941 C942 1.398 . S
C942 H930 0.950 . S
C942 C941 1.398 . S
C942 C943 1.391 . S
C943 H931 0.950 . S
C943 C939 1.393 . S
C943 C942 1.391 . S
H944 C952 0.950 . S
H945 C957 0.950 . S
H946 C954 0.950 . S
H947 C956 0.950 . S
H948 C958 0.950 . S
H949 C960 0.950 . S
H950 C962 0.950 . S
H951 C963 0.950 . S
C952 H944 0.950 . S
C952 C953 1.386 . S
C952 C954 1.391 . S
C953 C952 1.386 . S
C953 C957 1.393 . S
C954 H946 0.950 . S
C954 C952 1.391 . S
C954 C955 1.400 . S
C955 C954 1.400 . S
C955 C956 1.398 . S
C955 C961 1.491 . S
C956 H947 0.950 . S
C956 C955 1.398 . S
C956 C957 1.391 . S
C957 H945 0.950 . S
C957 C953 1.393 . S
C957 C956 1.391 . S
C958 H948 0.950 . S
C958 C959 1.386 . S
C958 C960 1.391 . S
C959 C958 1.386 . S
C959 C963 1.393 . S
C960 H949 0.950 . S
C960 C958 1.391 . S
C960 C961 1.400 . S
C961 C955 1.491 . S
C961 C960 1.400 . S
C961 C962 1.398 . S
C962 H950 0.950 . S
C962 C961 1.398 . S
C962 C963 1.391 . S
C963 H951 0.950 . S
C963 C959 1.393 . S
C963 C962 1.391 . S
H964 C972 0.950 . S
H965 C977 0.950 . S
H966 C974 0.950 . S
H967 C976 0.950 . S
H968 C978 0.950 . S
H969 C980 0.950 . S
H970 C982 0.950 . S
H971 C983 0.950 . S
C972 H964 0.950 . S
C972 C973 1.386 . S
C972 C974 1.391 . S
C973 C972 1.386 . S
C973 C977 1.393 . S
C974 H966 0.950 . S
C974 C972 1.391 . S
C974 C975 1.400 . S
C975 C974 1.400 . S
C975 C976 1.398 . S
C975 C981 1.491 . S
C976 H967 0.950 . S
C976 C975 1.398 . S
C976 C977 1.391 . S
C977 H965 0.950 . S
C977 C973 1.393 . S
C977 C976 1.391 . S
C978 H968 0.950 . S
C978 C979 1.386 . S
C978 C980 1.391 . S
C979 C978 1.386 . S
C979 C983 1.393 . S
C980 H969 0.950 . S
C980 C978 1.391 . S
C980 C981 1.400 . S
C981 C975 1.491 . S
C981 C980 1.400 . S
C981 C982 1.398 . S
C982 H970 0.950 . S
C982 C981 1.398 . S
C982 C983 1.391 . S
C983 H971 0.950 . S
C983 C979 1.393 . S
C983 C982 1.391 . S
H984 C992 0.950 . S
H985 C997 0.950 . S
H986 C994 0.950 . S
H987 C996 0.950 . S
H988 C998 0.950 . S
H989 C1000 0.950 . S
H990 C1002 0.950 . S
H991 C1003 0.950 . S
C992 H984 0.950 . S
C992 C993 1.386 . S
C992 C994 1.391 . S
C993 C992 1.386 . S
C993 C997 1.393 . S
C994 H986 0.950 . S
C994 C992 1.391 . S
C994 C995 1.400 . S
C995 C994 1.400 . S
C995 C996 1.398 . S
C995 C1001 1.491 . S
C996 H987 0.950 . S
C996 C995 1.398 . S
C996 C997 1.391 . S
C997 H985 0.950 . S
C997 C993 1.393 . S
C997 C996 1.391 . S
C998 H988 0.950 . S
C998 C999 1.386 . S
C998 C1000 1.391 . S
C999 C998 1.386 . S
C999 C1003 1.393 . S
C1000 H989 0.950 . S
C1000 C998 1.391 . S
C1000 C1001 1.400 . S
C1001 C995 1.491 . S
C1001 C1000 1.400 . S
C1001 C1002 1.398 . S
C1002 H990 0.950 . S
C1002 C1001 1.398 . S
C1002 C1003 1.391 . S
C1003 H991 0.950 . S
C1003 C999 1.393 . S
C1003 C1002 1.391 . S
H1004 C1012 0.950 . S
H1005 C1017 0.950 . S
H1006 C1014 0.950 . S
H1007 C1016 0.950 . S
H1008 C1018 0.950 . S
H1009 C1020 0.950 . S
H1010 C1022 0.950 . S
H1011 C1023 0.950 . S
C1012 H1004 0.950 . S
C1012 C1013 1.386 . S
C1012 C1014 1.391 . S
C1013 C1012 1.386 . S
C1013 C1017 1.393 . S
C1014 H1006 0.950 . S
C1014 C1012 1.391 . S
C1014 C1015 1.400 . S
C1015 C1014 1.400 . S
C1015 C1016 1.398 . S
C1015 C1021 1.491 . S
C1016 H1007 0.950 . S
C1016 C1015 1.398 . S
C1016 C1017 1.391 . S
C1017 H1005 0.950 . S
C1017 C1013 1.393 . S
C1017 C1016 1.391 . S
C1018 H1008 0.950 . S
C1018 C1019 1.386 . S
C1018 C1020 1.391 . S
C1019 C1018 1.386 . S
C1019 C1023 1.393 . S
C1020 H1009 0.950 . S
C1020 C1018 1.391 . S
C1020 C1021 1.400 . S
C1021 C1015 1.491 . S
C1021 C1020 1.400 . S
C1021 C1022 1.398 . S
C1022 H1010 0.950 . S
C1022 C1021 1.398 . S
C1022 C1023 1.391 . S
C1023 H1011 0.950 . S
C1023 C1019 1.393 . S
C1023 C1022 1.391 . S
H1024 C1032 0.950 . S
H1025 C1037 0.950 . S
H1026 C1034 0.950 . S
H1027 C1036 0.950 . S
H1028 C1038 0.950 . S
H1029 C1040 0.950 . S
H1030 C1042 0.950 . S
H1031 C1043 0.950 . S
C1032 H1024 0.950 . S
C1032 C1033 1.386 . S
C1032 C1034 1.391 . S
C1033 C1032 1.386 . S
C1033 C1037 1.393 . S
C1034 H1026 0.950 . S
C1034 C1032 1.391 . S
C1034 C1035 1.400 . S
C1035 C1034 1.400 . S
C1035 C1036 1.398 . S
C1035 C1041 1.491 . S
C1036 H1027 0.950 . S
C1036 C1035 1.398 . S
C1036 C1037 1.391 . S
C1037 H1025 0.950 . S
C1037 C1033 1.393 . S
C1037 C1036 1.391 . S
C1038 H1028 0.950 . S
C1038 C1039 1.386 . S
C1038 C1040 1.391 . S
C1039 C1038 1.386 . S
C1039 C1043 1.393 . S
C1040 H1029 0.950 . S
C1040 C1038 1.391 . S
C1040 C1041 1.400 . S
C1041 C1035 1.491 . S
C1041 C1040 1.400 . S
C1041 C1042 1.398 . S
C1042 H1030 0.950 . S
C1042 C1041 1.398 . S
C1042 C1043 1.391 . S
C1043 H1031 0.950 . S
C1043 C1039 1.393 . S
C1043 C1042 1.391 . S
H1044 C1052 0.950 . S
H1045 C1057 0.950 . S
H1046 C1054 0.950 . S
H1047 C1056 0.950 . S
H1048 C1058 0.950 . S
H1049 C1060 0.950 . S
H1050 C1062 0.950 . S
H1051 C1063 0.950 . S
C1052 H1044 0.950 . S
C1052 C1053 1.386 . S
C1052 C1054 1.391 . S
C1053 C1052 1.386 . S
C1053 C1057 1.393 . S
C1054 H1046 0.950 . S
C1054 C1052 1.391 . S
C1054 C1055 1.400 . S
C1055 C1054 1.400 . S
C1055 C1056 1.398 . S
C1055 C1061 1.491 . S
C1056 H1047 0.950 . S
C1056 C1055 1.398 . S
C1056 C1057 1.391 . S
C1057 H1045 0.950 . S
C1057 C1053 1.393 . S
C1057 C1056 1.391 . S
C1058 H1048 0.950 . S
C1058 C1059 1.386 . S
C1058 C1060 1.391 . S
C1059 C1058 1.386 . S
C1059 C1063 1.393 . S
C1060 H1049 0.950 . S
C1060 C1058 1.391 . S
C1060 C1061 1.400 . S
C1061 C1055 1.491 . S
C1061 C1060 1.400 . S
C1061 C1062 1.398 . S
C1062 H1050 0.950 . S
C1062 C1061 1.398 . S
C1062 C1063 1.391 . S
C1063 H1051 0.950 . S
C1063 C1059 1.393 . S
C1063 C1062 1.391 . S
H1064 C1072 0.950 . S
H1065 C1077 0.950 . S
H1066 C1074 0.950 . S
H1067 C1076 0.950 . S
H1068 C1078 0.950 . S
H1069 C1080 0.950 . S
H1070 C1082 0.950 . S
H1071 C1083 0.950 . S
C1072 H1064 0.950 . S
C1072 C1073 1.386 . S
C1072 C1074 1.391 . S
C1073 C1072 1.386 . S
C1073 C1077 1.393 . S
C1074 H1066 0.950 . S
C1074 C1072 1.391 . S
C1074 C1075 1.400 . S
C1075 C1074 1.400 . S
C1075 C1076 1.398 . S
C1075 C1081 1.491 . S
C1076 H1067 0.950 . S
C1076 C1075 1.398 . S
C1076 C1077 1.391 . S
C1077 H1065 0.950 . S
C1077 C1073 1.393 . S
C1077 C1076 1.391 . S
C1078 H1068 0.950 . S
C1078 C1079 1.386 . S
C1078 C1080 1.391 . S
C1079 C1078 1.386 . S
C1079 C1083 1.393 . S
C1080 H1069 0.950 . S
C1080 C1078 1.391 . S
C1080 C1081 1.400 . S
C1081 C1075 1.491 . S
C1081 C1080 1.400 . S
C1081 C1082 1.398 . S
C1082 H1070 0.950 . S
C1082 C1081 1.398 . S
C1082 C1083 1.391 . S
C1083 H1071 0.950 . S
C1083 C1079 1.393 . S
C1083 C1082 1.391 . S
H1084 C1092 0.950 . S
H1085 C1097 0.950 . S
H1086 C1094 0.950 . S
H1087 C1096 0.950 . S
H1088 C1098 0.950 . S
H1089 C1100 0.950 . S
H1090 C1102 0.950 . S
H1091 C1103 0.950 . S
C1092 H1084 0.950 . S
C1092 C1093 1.386 . S
C1092 C1094 1.391 . S
C1093 C1092 1.386 . S
C1093 C1097 1.393 . S
C1094 H1086 0.950 . S
C1094 C1092 1.391 . S
C1094 C1095 1.400 . S
C1095 C1094 1.400 . S
C1095 C1096 1.398 . S
C1095 C1101 1.491 . S
C1096 H1087 0.950 . S
C1096 C1095 1.398 . S
C1096 C1097 1.391 . S
C1097 H1085 0.950 . S
C1097 C1093 1.393 . S
C1097 C1096 1.391 . S
C1098 H1088 0.950 . S
C1098 C1099 1.386 . S
C1098 C1100 1.391 . S
C1099 C1098 1.386 . S
C1099 C1103 1.393 . S
C1100 H1089 0.950 . S
C1100 C1098 1.391 . S
C1100 C1101 1.400 . S
C1101 C1095 1.491 . S
C1101 C1100 1.400 . S
C1101 C1102 1.398 . S
C1102 H1090 0.950 . S
C1102 C1101 1.398 . S
C1102 C1103 1.391 . S
C1103 H1091 0.950 . S
C1103 C1099 1.393 . S
C1103 C1102 1.391 . S
H1104 C1112 0.950 . S
H1105 C1117 0.950 . S
H1106 C1114 0.950 . S
H1107 C1116 0.950 . S
H1108 C1118 0.950 . S
H1109 C1120 0.950 . S
H1110 C1122 0.950 . S
H1111 C1123 0.950 . S
C1112 H1104 0.950 . S
C1112 C1113 1.386 . S
C1112 C1114 1.391 . S
C1113 C1112 1.386 . S
C1113 C1117 1.393 . S
C1114 H1106 0.950 . S
C1114 C1112 1.391 . S
C1114 C1115 1.400 . S
C1115 C1114 1.400 . S
C1115 C1116 1.398 . S
C1115 C1121 1.491 . S
C1116 H1107 0.950 . S
C1116 C1115 1.398 . S
C1116 C1117 1.391 . S
C1117 H1105 0.950 . S
C1117 C1113 1.393 . S
C1117 C1116 1.391 . S
C1118 H1108 0.950 . S
C1118 C1119 1.386 . S
C1118 C1120 1.391 . S
C1119 C1118 1.386 . S
C1119 C1123 1.393 . S
C1120 H1109 0.950 . S
C1120 C1118 1.391 . S
C1120 C1121 1.400 . S
C1121 C1115 1.491 . S
C1121 C1120 1.400 . S
C1121 C1122 1.398 . S
C1122 H1110 0.950 . S
C1122 C1121 1.398 . S
C1122 C1123 1.391 . S
C1123 H1111 0.950 . S
C1123 C1119 1.393 . S
C1123 C1122 1.391 . S
H1124 C1132 0.950 . S
H1125 C1137 0.950 . S
H1126 C1134 0.950 . S
H1127 C1136 0.950 . S
H1128 C1138 0.950 . S
H1129 C1140 0.950 . S
H1130 C1142 0.950 . S
H1131 C1143 0.950 . S
C1132 H1124 0.950 . S
C1132 C1133 1.386 . S
C1132 C1134 1.391 . S
C1133 C1132 1.386 . S
C1133 C1137 1.393 . S
C1134 H1126 0.950 . S
C1134 C1132 1.391 . S
C1134 C1135 1.400 . S
C1135 C1134 1.400 . S
C1135 C1136 1.398 . S
C1135 C1141 1.491 . S
C1136 H1127 0.950 . S
C1136 C1135 1.398 . S
C1136 C1137 1.391 . S
C1137 H1125 0.950 . S
C1137 C1133 1.393 . S
C1137 C1136 1.391 . S
C1138 H1128 0.950 . S
C1138 C1139 1.386 . S
C1138 C1140 1.391 . S
C1139 C1138 1.386 . S
C1139 C1143 1.393 . S
C1140 H1129 0.950 . S
C1140 C1138 1.391 . S
C1140 C1141 1.400 . S
C1141 C1135 1.491 . S
C1141 C1140 1.400 . S
C1141 C1142 1.398 . S
C1142 H1130 0.950 . S
C1142 C1141 1.398 . S
C1142 C1143 1.391 . S
C1143 H1131 0.950 . S
C1143 C1139 1.393 . S
C1143 C1142 1.391 . S
H1144 C1152 0.950 . S
H1145 C1157 0.950 . S
H1146 C1154 0.950 . S
H1147 C1156 0.950 . S
H1148 C1158 0.950 . S
H1149 C1160 0.950 . S
H1150 C1162 0.950 . S
H1151 C1163 0.950 . S
C1152 H1144 0.950 . S
C1152 C1153 1.386 . S
C1152 C1154 1.391 . S
C1153 C1152 1.386 . S
C1153 C1157 1.393 . S
C1154 H1146 0.950 . S
C1154 C1152 1.391 . S
C1154 C1155 1.400 . S
C1155 C1154 1.400 . S
C1155 C1156 1.398 . S
C1155 C1161 1.491 . S
C1156 H1147 0.950 . S
C1156 C1155 1.398 . S
C1156 C1157 1.391 . S
C1157 H1145 0.950 . S
C1157 C1153 1.393 . S
C1157 C1156 1.391 . S
C1158 H1148 0.950 . S
C1158 C1159 1.386 . S
C1158 C1160 1.391 . S
C1159 C1158 1.386 . S
C1159 C1163 1.393 . S
C1160 H1149 0.950 . S
C1160 C1158 1.391 . S
C1160 C1161 1.400 . S
C1161 C1155 1.491 . S
C1161 C1160 1.400 . S
C1161 C1162 1.398 . S
C1162 H1150 0.950 . S
C1162 C1161 1.398 . S
C1162 C1163 1.391 . S
C1163 H1151 0.950 . S
C1163 C1159 1.393 . S
C1163 C1162 1.391 . S
H1164 C1172 0.950 . S
H1165 C1177 0.950 . S
H1166 C1174 0.950 . S
H1167 C1176 0.950 . S
H1168 C1178 0.950 . S
H1169 C1180 0.950 . S
H1170 C1182 0.950 . S
H1171 C1183 0.950 . S
C1172 H1164 0.950 . S
C1172 C1173 1.386 . S
C1172 C1174 1.391 . S
C1173 C1172 1.386 . S
C1173 C1177 1.393 . S
C1174 H1166 0.950 . S
C1174 C1172 1.391 . S
C1174 C1175 1.400 . S
C1175 C1174 1.400 . S
C1175 C1176 1.398 . S
C1175 C1181 1.491 . S
C1176 H1167 0.950 . S
C1176 C1175 1.398 . S
C1176 C1177 1.391 . S
C1177 H1165 0.950 . S
C1177 C1173 1.393 . S
C1177 C1176 1.391 . S
C1178 H1168 0.950 . S
C1178 C1179 1.386 . S
C1178 C1180 1.391 . S
C1179 C1178 1.386 . S
C1179 C1183 1.393 . S
C1180 H1169 0.950 . S
C1180 C1178 1.391 . S
C1180 C1181 1.400 . S
C1181 C1175 1.491 . S
C1181 C1180 1.400 . S
C1181 C1182 1.398 . S
C1182 H1170 0.950 . S
C1182 C1181 1.398 . S
C1182 C1183 1.391 . S
C1183 H1171 0.950 . S
C1183 C1179 1.393 . S
C1183 C1182 1.391 . S
H1184 C1192 0.950 . S
H1185 C1197 0.950 . S
H1186 C1194 0.950 . S
H1187 C1196 0.950 . S
H1188 C1198 0.950 . S
H1189 C1200 0.950 . S
H1190 C1202 0.950 . S
H1191 C1203 0.950 . S
C1192 H1184 0.950 . S
C1192 C1193 1.386 . S
C1192 C1194 1.391 . S
C1193 C1192 1.386 . S
C1193 C1197 1.393 . S
C1194 H1186 0.950 . S
C1194 C1192 1.391 . S
C1194 C1195 1.400 . S
C1195 C1194 1.400 . S
C1195 C1196 1.398 . S
C1195 C1201 1.491 . S
C1196 H1187 0.950 . S
C1196 C1195 1.398 . S
C1196 C1197 1.391 . S
C1197 H1185 0.950 . S
C1197 C1193 1.393 . S
C1197 C1196 1.391 . S
C1198 H1188 0.950 . S
C1198 C1199 1.386 . S
C1198 C1200 1.391 . S
C1199 C1198 1.386 . S
C1199 C1203 1.393 . S
C1200 H1189 0.950 . S
C1200 C1198 1.391 . S
C1200 C1201 1.400 . S
C1201 C1195 1.491 . S
C1201 C1200 1.400 . S
C1201 C1202 1.398 . S
C1202 H1190 0.950 . S
C1202 C1201 1.398 . S
C1202 C1203 1.391 . S
C1203 H1191 0.950 . S
C1203 C1199 1.393 . S
C1203 C1202 1.391 . S
H1204 C1212 0.950 . S
H1205 C1217 0.950 . S
H1206 C1214 0.950 . S
H1207 C1216 0.950 . S
H1208 C1218 0.950 . S
H1209 C1220 0.950 . S
H1210 C1222 0.950 . S
H1211 C1223 0.950 . S
C1212 H1204 0.950 . S
C1212 C1213 1.386 . S
C1212 C1214 1.391 . S
C1213 C1212 1.386 . S
C1213 C1217 1.393 . S
C1214 H1206 0.950 . S
C1214 C1212 1.391 . S
C1214 C1215 1.400 . S
C1215 C1214 1.400 . S
C1215 C1216 1.398 . S
C1215 C1221 1.491 . S
C1216 H1207 0.950 . S
C1216 C1215 1.398 . S
C1216 C1217 1.391 . S
C1217 H1205 0.950 . S
C1217 C1213 1.393 . S
C1217 C1216 1.391 . S
C1218 H1208 0.950 . S
C1218 C1219 1.386 . S
C1218 C1220 1.391 . S
C1219 C1218 1.386 . S
C1219 C1223 1.393 . S
C1220 H1209 0.950 . S
C1220 C1218 1.391 . S
C1220 C1221 1.400 . S
C1221 C1215 1.491 . S
C1221 C1220 1.400 . S
C1221 C1222 1.398 . S
C1222 H1210 0.950 . S
C1222 C1221 1.398 . S
C1222 C1223 1.391 . S
C1223 H1211 0.950 . S
C1223 C1219 1.393 . S
C1223 C1222 1.391 . S
H1224 C1232 0.950 . S
H1225 C1237 0.950 . S
H1226 C1234 0.950 . S
H1227 C1236 0.950 . S
H1228 C1238 0.950 . S
H1229 C1240 0.950 . S
H1230 C1242 0.950 . S
H1231 C1243 0.950 . S
C1232 H1224 0.950 . S
C1232 C1233 1.386 . S
C1232 C1234 1.391 . S
C1233 C1232 1.386 . S
C1233 C1237 1.393 . S
C1234 H1226 0.950 . S
C1234 C1232 1.391 . S
C1234 C1235 1.400 . S
C1235 C1234 1.400 . S
C1235 C1236 1.398 . S
C1235 C1241 1.491 . S
C1236 H1227 0.950 . S
C1236 C1235 1.398 . S
C1236 C1237 1.391 . S
C1237 H1225 0.950 . S
C1237 C1233 1.393 . S
C1237 C1236 1.391 . S
C1238 H1228 0.950 . S
C1238 C1239 1.386 . S
C1238 C1240 1.391 . S
C1239 C1238 1.386 . S
C1239 C1243 1.393 . S
C1240 H1229 0.950 . S
C1240 C1238 1.391 . S
C1240 C1241 1.400 . S
C1241 C1235 1.491 . S
C1241 C1240 1.400 . S
C1241 C1242 1.398 . S
C1242 H1230 0.950 . S
C1242 C1241 1.398 . S
C1242 C1243 1.391 . S
C1243 H1231 0.950 . S
C1243 C1239 1.393 . S
C1243 C1242 1.391 . S
H1244 C1252 0.950 . S
H1245 C1257 0.950 . S
H1246 C1254 0.950 . S
H1247 C1256 0.950 . S
H1248 C1258 0.950 . S
H1249 C1260 0.950 . S
H1250 C1262 0.950 . S
H1251 C1263 0.950 . S
C1252 H1244 0.950 . S
C1252 C1253 1.386 . S
C1252 C1254 1.391 . S
C1253 C1252 1.386 . S
C1253 C1257 1.393 . S
C1254 H1246 0.950 . S
C1254 C1252 1.391 . S
C1254 C1255 1.400 . S
C1255 C1254 1.400 . S
C1255 C1256 1.398 . S
C1255 C1261 1.491 . S
C1256 H1247 0.950 . S
C1256 C1255 1.398 . S
C1256 C1257 1.391 . S
C1257 H1245 0.950 . S
C1257 C1253 1.393 . S
C1257 C1256 1.391 . S
C1258 H1248 0.950 . S
C1258 C1259 1.386 . S
C1258 C1260 1.391 . S
C1259 C1258 1.386 . S
C1259 C1263 1.393 . S
C1260 H1249 0.950 . S
C1260 C1258 1.391 . S
C1260 C1261 1.400 . S
C1261 C1255 1.491 . S
C1261 C1260 1.400 . S
C1261 C1262 1.398 . S
C1262 H1250 0.950 . S
C1262 C1261 1.398 . S
C1262 C1263 1.391 . S
C1263 H1251 0.950 . S
C1263 C1259 1.393 . S
C1263 C1262 1.391 . S
H1264 C1272 0.950 . S
H1265 C1277 0.950 . S
H1266 C1274 0.950 . S
H1267 C1276 0.950 . S
H1268 C1278 0.950 . S
H1269 C1280 0.950 . S
H1270 C1282 0.950 . S
H1271 C1283 0.950 . S
C1272 H1264 0.950 . S
C1272 C1273 1.386 . S
C1272 C1274 1.391 . S
C1273 C1272 1.386 . S
C1273 C1277 1.393 . S
C1274 H1266 0.950 . S
C1274 C1272 1.391 . S
C1274 C1275 1.400 . S
C1275 C1274 1.400 . S
C1275 C1276 1.398 . S
C1275 C1281 1.491 . S
C1276 H1267 0.950 . S
C1276 C1275 1.398 . S
C1276 C1277 1.391 . S
C1277 H1265 0.950 . S
C1277 C1273 1.393 . S
C1277 C1276 1.391 . S
C1278 H1268 0.950 . S
C1278 C1279 1.386 . S
C1278 C1280 1.391 . S
C1279 C1278 1.386 . S
C1279 C1283 1.393 . S
C1280 H1269 0.950 . S
C1280 C1278 1.391 . S
C1280 C1281 1.400 . S
C1281 C1275 1.491 . S
C1281 C1280 1.400 . S
C1281 C1282 1.398 . S
C1282 H1270 0.950 . S
C1282 C1281 1.398 . S
C1282 C1283 1.391 . S
C1283 H1271 0.950 . S
C1283 C1279 1.393 . S
C1283 C1282 1.391 . S
H1284 C1292 0.950 . S
H1285 C1297 0.950 . S
H1286 C1294 0.950 . S
H1287 C1296 0.950 . S
H1288 C1298 0.950 . S
H1289 C1300 0.950 . S
H1290 C1302 0.950 . S
H1291 C1303 0.950 . S
C1292 H1284 0.950 . S
C1292 C1293 1.386 . S
C1292 C1294 1.391 . S
C1293 C1292 1.386 . S
C1293 C1297 1.393 . S
C1294 H1286 0.950 . S
C1294 C1292 1.391 . S
C1294 C1295 1.400 . S
C1295 C1294 1.400 . S
C1295 C1296 1.398 . S
C1295 C1301 1.491 . S
C1296 H1287 0.950 . S
C1296 C1295 1.398 . S
C1296 C1297 1.391 . S
C1297 H1285 0.950 . S
C1297 C1293 1.393 . S
C1297 C1296 1.391 . S
C1298 H1288 0.950 . S
C1298 C1299 1.386 . S
C1298 C1300 1.391 . S
C1299 C1298 1.386 . S
C1299 C1303 1.393 . S
C1300 H1289 0.950 . S
C1300 C1298 1.391 . S
C1300 C1301 1.400 . S
C1301 C1295 1.491 . S
C1301 C1300 1.400 . S
C1301 C1302 1.398 . S
C1302 H1290 0.950 . S
C1302 C1301 1.398 . S
C1302 C1303 1.391 . S
C1303 H1291 0.950 . S
C1303 C1299 1.393 . S
C1303 C1302 1.391 . S
H1304 C1312 0.950 . S
H1305 C1317 0.950 . S
H1306 C1314 0.950 . S
H1307 C1316 0.950 . S
H1308 C1318 0.950 . S
H1309 C1320 0.950 . S
H1310 C1322 0.950 . S
H1311 C1323 0.950 . S
C1312 H1304 0.950 . S
C1312 C1313 1.386 . S
C1312 C1314 1.391 . S
C1313 C1312 1.386 . S
C1313 C1317 1.393 . S
C1314 H1306 0.950 . S
C1314 C1312 1.391 . S
C1314 C1315 1.400 . S
C1315 C1314 1.400 . S
C1315 C1316 1.398 . S
C1315 C1321 1.491 . S
C1316 H1307 0.950 . S
C1316 C1315 1.398 . S
C1316 C1317 1.391 . S
C1317 H1305 0.950 . S
C1317 C1313 1.393 . S
C1317 C1316 1.391 . S
C1318 H1308 0.950 . S
C1318 C1319 1.386 . S
C1318 C1320 1.391 . S
C1319 C1318 1.386 . S
C1319 C1323 1.393 . S
C1320 H1309 0.950 . S
C1320 C1318 1.391 . S
C1320 C1321 1.400 . S
C1321 C1315 1.491 . S
C1321 C1320 1.400 . S
C1321 C1322 1.398 . S
C1322 H1310 0.950 . S
C1322 C1321 1.398 . S
C1322 C1323 1.391 . S
C1323 H1311 0.950 . S
C1323 C1319 1.393 . S
C1323 C1322 1.391 . S
H1324 C1332 0.950 . S
H1325 C1337 0.950 . S
H1326 C1334 0.950 . S
H1327 C1336 0.950 . S
H1328 C1338 0.950 . S
H1329 C1340 0.950 . S
H1330 C1342 0.950 . S
H1331 C1343 0.950 . S
C1332 H1324 0.950 . S
C1332 C1333 1.386 . S
C1332 C1334 1.391 . S
C1333 C1332 1.386 . S
C1333 C1337 1.393 . S
C1334 H1326 0.950 . S
C1334 C1332 1.391 . S
C1334 C1335 1.400 . S
C1335 C1334 1.400 . S
C1335 C1336 1.398 . S
C1335 C1341 1.491 . S
C1336 H1327 0.950 . S
C1336 C1335 1.398 . S
C1336 C1337 1.391 . S
C1337 H1325 0.950 . S
C1337 C1333 1.393 . S
C1337 C1336 1.391 . S
C1338 H1328 0.950 . S
C1338 C1339 1.386 . S
C1338 C1340 1.391 . S
C1339 C1338 1.386 . S
C1339 C1343 1.393 . S
C1340 H1329 0.950 . S
C1340 C1338 1.391 . S
C1340 C1341 1.400 . S
C1341 C1335 1.491 . S
C1341 C1340 1.400 . S
C1341 C1342 1.398 . S
C1342 H1330 0.950 . S
C1342 C1341 1.398 . S
C1342 C1343 1.391 . S
C1343 H1331 0.950 . S
C1343 C1339 1.393 . S
C1343 C1342 1.391 . S
H1344 C1352 0.950 . S
H1345 C1357 0.950 . S
H1346 C1354 0.950 . S
H1347 C1356 0.950 . S
H1348 C1358 0.950 . S
H1349 C1360 0.950 . S
H1350 C1362 0.950 . S
H1351 C1363 0.950 . S
C1352 H1344 0.950 . S
C1352 C1353 1.386 . S
C1352 C1354 1.391 . S
C1353 C1352 1.386 . S
C1353 C1357 1.393 . S
C1354 H1346 0.950 . S
C1354 C1352 1.391 . S
C1354 C1355 1.400 . S
C1355 C1354 1.400 . S
C1355 C1356 1.398 . S
C1355 C1361 1.491 . S
C1356 H1347 0.950 . S
C1356 C1355 1.398 . S
C1356 C1357 1.391 . S
C1357 H1345 0.950 . S
C1357 C1353 1.393 . S
C1357 C1356 1.391 . S
C1358 H1348 0.950 . S
C1358 C1359 1.386 . S
C1358 C1360 1.391 . S
C1359 C1358 1.386 . S
C1359 C1363 1.393 . S
C1360 H1349 0.950 . S
C1360 C1358 1.391 . S
C1360 C1361 1.400 . S
C1361 C1355 1.491 . S
C1361 C1360 1.400 . S
C1361 C1362 1.398 . S
C1362 H1350 0.950 . S
C1362 C1361 1.398 . S
C1362 C1363 1.391 . S
C1363 H1351 0.950 . S
C1363 C1359 1.393 . S
C1363 C1362 1.391 . S
H1364 C1372 0.950 . S
H1365 C1377 0.950 . S
H1366 C1374 0.950 . S
H1367 C1376 0.950 . S
H1368 C1378 0.950 . S
H1369 C1380 0.950 . S
H1370 C1382 0.950 . S
H1371 C1383 0.950 . S
C1372 H1364 0.950 . S
C1372 C1373 1.386 . S
C1372 C1374 1.391 . S
C1373 C1372 1.386 . S
C1373 C1377 1.393 . S
C1374 H1366 0.950 . S
C1374 C1372 1.391 . S
C1374 C1375 1.400 . S
C1375 C1374 1.400 . S
C1375 C1376 1.398 . S
C1375 C1381 1.491 . S
C1376 H1367 0.950 . S
C1376 C1375 1.398 . S
C1376 C1377 1.391 . S
C1377 H1365 0.950 . S
C1377 C1373 1.393 . S
C1377 C1376 1.391 . S
C1378 H1368 0.950 . S
C1378 C1379 1.386 . S
C1378 C1380 1.391 . S
C1379 C1378 1.386 . S
C1379 C1383 1.393 . S
C1380 H1369 0.950 . S
C1380 C1378 1.391 . S
C1380 C1381 1.400 . S
C1381 C1375 1.491 . S
C1381 C1380 1.400 . S
C1381 C1382 1.398 . S
C1382 H1370 0.950 . S
C1382 C1381 1.398 . S
C1382 C1383 1.391 . S
C1383 H1371 0.950 . S
C1383 C1379 1.393 . S
C1383 C1382 1.391 . S
H1384 C1392 0.950 . S
H1385 C1397 0.950 . S
H1386 C1394 0.950 . S
H1387 C1396 0.950 . S
H1388 C1398 0.950 . S
H1389 C1400 0.950 . S
H1390 C1402 0.950 . S
H1391 C1403 0.950 . S
C1392 H1384 0.950 . S
C1392 C1393 1.386 . S
C1392 C1394 1.391 . S
C1393 C1392 1.386 . S
C1393 C1397 1.393 . S
C1394 H1386 0.950 . S
C1394 C1392 1.391 . S
C1394 C1395 1.400 . S
C1395 C1394 1.400 . S
C1395 C1396 1.398 . S
C1395 C1401 1.491 . S
C1396 H1387 0.950 . S
C1396 C1395 1.398 . S
C1396 C1397 1.391 . S
C1397 H1385 0.950 . S
C1397 C1393 1.393 . S
C1397 C1396 1.391 . S
C1398 H1388 0.950 . S
C1398 C1399 1.386 . S
C1398 C1400 1.391 . S
C1399 C1398 1.386 . S
C1399 C1403 1.393 . S
C1400 H1389 0.950 . S
C1400 C1398 1.391 . S
C1400 C1401 1.400 . S
C1401 C1395 1.491 . S
C1401 C1400 1.400 . S
C1401 C1402 1.398 . S
C1402 H1390 0.950 . S
C1402 C1401 1.398 . S
C1402 C1403 1.391 . S
C1403 H1391 0.950 . S
C1403 C1399 1.393 . S
C1403 C1402 1.391 . S
H1404 C1412 0.950 . S
H1405 C1417 0.950 . S
H1406 C1414 0.950 . S
H1407 C1416 0.950 . S
H1408 C1418 0.950 . S
H1409 C1420 0.950 . S
H1410 C1422 0.950 . S
H1411 C1423 0.950 . S
C1412 H1404 0.950 . S
C1412 C1413 1.386 . S
C1412 C1414 1.391 . S
C1413 C1412 1.386 . S
C1413 C1417 1.393 . S
C1414 H1406 0.950 . S
C1414 C1412 1.391 . S
C1414 C1415 1.400 . S
C1415 C1414 1.400 . S
C1415 C1416 1.398 . S
C1415 C1421 1.491 . S
C1416 H1407 0.950 . S
C1416 C1415 1.398 . S
C1416 C1417 1.391 . S
C1417 H1405 0.950 . S
C1417 C1413 1.393 . S
C1417 C1416 1.391 . S
C1418 H1408 0.950 . S
C1418 C1419 1.386 . S
C1418 C1420 1.391 . S
C1419 C1418 1.386 . S
C1419 C1423 1.393 . S
C1420 H1409 0.950 . S
C1420 C1418 1.391 . S
C1420 C1421 1.400 . S
C1421 C1415 1.491 . S
C1421 C1420 1.400 . S
C1421 C1422 1.398 . S
C1422 H1410 0.950 . S
C1422 C1421 1.398 . S
C1422 C1423 1.391 . S
C1423 H1411 0.950 . S
C1423 C1419 1.393 . S
C1423 C1422 1.391 . S
H1424 C1432 0.950 . S
H1425 C1437 0.950 . S
H1426 C1434 0.950 . S
H1427 C1436 0.950 . S
H1428 C1438 0.950 . S
H1429 C1440 0.950 . S
H1430 C1442 0.950 . S
H1431 C1443 0.950 . S
C1432 H1424 0.950 . S
C1432 C1433 1.386 . S
C1432 C1434 1.391 . S
C1433 C1432 1.386 . S
C1433 C1437 1.393 . S
C1434 H1426 0.950 . S
C1434 C1432 1.391 . S
C1434 C1435 1.400 . S
C1435 C1434 1.400 . S
C1435 C1436 1.398 . S
C1435 C1441 1.491 . S
C1436 H1427 0.950 . S
C1436 C1435 1.398 . S
C1436 C1437 1.391 . S
C1437 H1425 0.950 . S
C1437 C1433 1.393 . S
C1437 C1436 1.391 . S
C1438 H1428 0.950 . S
C1438 C1439 1.386 . S
C1438 C1440 1.391 . S
C1439 C1438 1.386 . S
C1439 C1443 1.393 . S
C1440 H1429 0.950 . S
C1440 C1438 1.391 . S
C1440 C1441 1.400 . S
C1441 C1435 1.491 . S
C1441 C1440 1.400 . S
C1441 C1442 1.398 . S
C1442 H1430 0.950 . S
C1442 C1441 1.398 . S
C1442 C1443 1.391 . S
C1443 H1431 0.950 . S
C1443 C1439 1.393 . S
C1443 C1442 1.391 . S
H1444 C1452 0.950 . S
H1445 C1457 0.950 . S
H1446 C1454 0.950 . S
H1447 C1456 0.950 . S
H1448 C1458 0.950 . S
H1449 C1460 0.950 . S
H1450 C1462 0.950 . S
H1451 C1463 0.950 . S
C1452 H1444 0.950 . S
C1452 C1453 1.386 . S
C1452 C1454 1.391 . S
C1453 C1452 1.386 . S
C1453 C1457 1.393 . S
C1454 H1446 0.950 . S
C1454 C1452 1.391 . S
C1454 C1455 1.400 . S
C1455 C1454 1.400 . S
C1455 C1456 1.398 . S
C1455 C1461 1.491 . S
C1456 H1447 0.950 . S
C1456 C1455 1.398 . S
C1456 C1457 1.391 . S
C1457 H1445 0.950 . S
C1457 C1453 1.393 . S
C1457 C1456 1.391 . S
C1458 H1448 0.950 . S
C1458 C1459 1.386 . S
C1458 C1460 1.391 . S
C1459 C1458 1.386 . S
C1459 C1463 1.393 . S
C1460 H1449 0.950 . S
C1460 C1458 1.391 . S
C1460 C1461 1.400 . S
C1461 C1455 1.491 . S
C1461 C1460 1.400 . S
C1461 C1462 1.398 . S
C1462 H1450 0.950 . S
C1462 C1461 1.398 . S
C1462 C1463 1.391 . S
C1463 H1451 0.950 . S
C1463 C1459 1.393 . S
C1463 C1462 1.391 . S
H1464 C1472 0.950 . S
H1465 C1477 0.950 . S
H1466 C1474 0.950 . S
H1467 C1476 0.950 . S
H1468 C1478 0.950 . S
H1469 C1480 0.950 . S
H1470 C1482 0.950 . S
H1471 C1483 0.950 . S
C1472 H1464 0.950 . S
C1472 C1473 1.386 . S
C1472 C1474 1.391 . S
C1473 C1472 1.386 . S
C1473 C1477 1.393 . S
C1474 H1466 0.950 . S
C1474 C1472 1.391 . S
C1474 C1475 1.400 . S
C1475 C1474 1.400 . S
C1475 C1476 1.398 . S
C1475 C1481 1.491 . S
C1476 H1467 0.950 . S
C1476 C1475 1.398 . S
C1476 C1477 1.391 . S
C1477 H1465 0.950 . S
C1477 C1473 1.393 . S
C1477 C1476 1.391 . S
C1478 H1468 0.950 . S
C1478 C1479 1.386 . S
C1478 C1480 1.391 . S
C1479 C1478 1.386 . S
C1479 C1483 1.393 . S
C1480 H1469 0.950 . S
C1480 C1478 1.391 . S
C1480 C1481 1.400 . S
C1481 C1475 1.491 . S
C1481 C1480 1.400 . S
C1481 C1482 1.398 . S
C1482 H1470 0.950 . S
C1482 C1481 1.398 . S
C1482 C1483 1.391 . S
C1483 H1471 0.950 . S
C1483 C1479 1.393 . S
C1483 C1482 1.391 . S
H1484 C1492 0.950 . S
H1485 C1497 0.950 . S
H1486 C1494 0.950 . S
H1487 C1496 0.950 . S
H1488 C1498 0.950 . S
H1489 C1500 0.950 . S
H1490 C1502 0.950 . S
H1491 C1503 0.950 . S
C1492 H1484 0.950 . S
C1492 C1493 1.386 . S
C1492 C1494 1.391 . S
C1493 C1492 1.386 . S
C1493 C1497 1.393 . S
C1494 H1486 0.950 . S
C1494 C1492 1.391 . S
C1494 C1495 1.400 . S
C1495 C1494 1.400 . S
C1495 C1496 1.398 . S
C1495 C1501 1.491 . S
C1496 H1487 0.950 . S
C1496 C1495 1.398 . S
C1496 C1497 1.391 . S
C1497 H1485 0.950 . S
C1497 C1493 1.393 . S
C1497 C1496 1.391 . S
C1498 H1488 0.950 . S
C1498 C1499 1.386 . S
C1498 C1500 1.391 . S
C1499 C1498 1.386 . S
C1499 C1503 1.393 . S
C1500 H1489 0.950 . S
C1500 C1498 1.391 . S
C1500 C1501 1.400 . S
C1501 C1495 1.491 . S
C1501 C1500 1.400 . S
C1501 C1502 1.398 . S
C1502 H1490 0.950 . S
C1502 C1501 1.398 . S
C1502 C1503 1.391 . S
C1503 H1491 0.950 . S
C1503 C1499 1.393 . S
C1503 C1502 1.391 . S
H1504 C1512 0.950 . S
H1505 C1517 0.950 . S
H1506 C1514 0.950 . S
H1507 C1516 0.950 . S
H1508 C1518 0.950 . S
H1509 C1520 0.950 . S
H1510 C1522 0.950 . S
H1511 C1523 0.950 . S
C1512 H1504 0.950 . S
C1512 C1513 1.386 . S
C1512 C1514 1.391 . S
C1513 C1512 1.386 . S
C1513 C1517 1.393 . S
C1514 H1506 0.950 . S
C1514 C1512 1.391 . S
C1514 C1515 1.400 . S
C1515 C1514 1.400 . S
C1515 C1516 1.398 . S
C1515 C1521 1.491 . S
C1516 H1507 0.950 . S
C1516 C1515 1.398 . S
C1516 C1517 1.391 . S
C1517 H1505 0.950 . S
C1517 C1513 1.393 . S
C1517 C1516 1.391 . S
C1518 H1508 0.950 . S
C1518 C1519 1.386 . S
C1518 C1520 1.391 . S
C1519 C1518 1.386 . S
C1519 C1523 1.393 . S
C1520 H1509 0.950 . S
C1520 C1518 1.391 . S
C1520 C1521 1.400 . S
C1521 C1515 1.491 . S
C1521 C1520 1.400 . S
C1521 C1522 1.398 . S
C1522 H1510 0.950 . S
C1522 C1521 1.398 . S
C1522 C1523 1.391 . S
C1523 H1511 0.950 . S
C1523 C1519 1.393 . S
C1523 C1522 1.391 . S
H1524 C1532 0.950 . S
H1525 C1537 0.950 . S
H1526 C1534 0.950 . S
H1527 C1536 0.950 . S
H1528 C1538 0.950 . S
H1529 C1540 0.950 . S
H1530 C1542 0.950 . S
H1531 C1543 0.950 . S
C1532 H1524 0.950 . S
C1532 C1533 1.386 . S
C1532 C1534 1.391 . S
C1533 C1532 1.386 . S
C1533 C1537 1.393 . S
C1534 H1526 0.950 . S
C1534 C1532 1.391 . S
C1534 C1535 1.400 . S
C1535 C1534 1.400 . S
C1535 C1536 1.398 . S
C1535 C1541 1.491 . S
C1536 H1527 0.950 . S
C1536 C1535 1.398 . S
C1536 C1537 1.391 . S
C1537 H1525 0.950 . S
C1537 C1533 1.393 . S
C1537 C1536 1.391 . S
C1538 H1528 0.950 . S
C1538 C1539 1.386 . S
C1538 C1540 1.391 . S
C1539 C1538 1.386 . S
C1539 C1543 1.393 . S
C1540 H1529 0.950 . S
C1540 C1538 1.391 . S
C1540 C1541 1.400 . S
C1541 C1535 1.491 . S
C1541 C1540 1.400 . S
C1541 C1542 1.398 . S
C1542 H1530 0.950 . S
C1542 C1541 1.398 . S
C1542 C1543 1.391 . S
C1543 H1531 0.950 . S
C1543 C1539 1.393 . S
C1543 C1542 1.391 . S
H1544 C1552 0.950 . S
H1545 C1557 0.950 . S
H1546 C1554 0.950 . S
H1547 C1556 0.950 . S
H1548 C1558 0.950 . S
H1549 C1560 0.950 . S
H1550 C1562 0.950 . S
H1551 C1563 0.950 . S
C1552 H1544 0.950 . S
C1552 C1553 1.386 . S
C1552 C1554 1.391 . S
C1553 C1552 1.386 . S
C1553 C1557 1.393 . S
C1554 H1546 0.950 . S
C1554 C1552 1.391 . S
C1554 C1555 1.400 . S
C1555 C1554 1.400 . S
C1555 C1556 1.398 . S
C1555 C1561 1.491 . S
C1556 H1547 0.950 . S
C1556 C1555 1.398 . S
C1556 C1557 1.391 . S
C1557 H1545 0.950 . S
C1557 C1553 1.393 . S
C1557 C1556 1.391 . S
C1558 H1548 0.950 . S
C1558 C1559 1.386 . S
C1558 C1560 1.391 . S
C1559 C1558 1.386 . S
C1559 C1563 1.393 . S
C1560 H1549 0.950 . S
C1560 C1558 1.391 . S
C1560 C1561 1.400 . S
C1561 C1555 1.491 . S
C1561 C1560 1.400 . S
C1561 C1562 1.398 . S
C1562 H1550 0.950 . S
C1562 C1561 1.398 . S
C1562 C1563 1.391 . S
C1563 H1551 0.950 . S
C1563 C1559 1.393 . S
C1563 C1562 1.391 . S
H1564 C1572 0.950 . S
H1565 C1577 0.950 . S
H1566 C1574 0.950 . S
H1567 C1576 0.950 . S
H1568 C1578 0.950 . S
H1569 C1580 0.950 . S
H1570 C1582 0.950 . S
H1571 C1583 0.950 . S
C1572 H1564 0.950 . S
C1572 C1573 1.386 . S
C1572 C1574 1.391 . S
C1573 C1572 1.386 . S
C1573 C1577 1.393 . S
C1574 H1566 0.950 . S
C1574 C1572 1.391 . S
C1574 C1575 1.400 . S
C1575 C1574 1.400 . S
C1575 C1576 1.398 . S
C1575 C1581 1.491 . S
C1576 H1567 0.950 . S
C1576 C1575 1.398 . S
C1576 C1577 1.391 . S
C1577 H1565 0.950 . S
C1577 C1573 1.393 . S
C1577 C1576 1.391 . S
C1578 H1568 0.950 . S
C1578 C1579 1.386 . S
C1578 C1580 1.391 . S
C1579 C1578 1.386 . S
C1579 C1583 1.393 . S
C1580 H1569 0.950 . S
C1580 C1578 1.391 . S
C1580 C1581 1.400 . S
C1581 C1575 1.491 . S
C1581 C1580 1.400 . S
C1581 C1582 1.398 . S
C1582 H1570 0.950 . S
C1582 C1581 1.398 . S
C1582 C1583 1.391 . S
C1583 H1571 0.950 . S
C1583 C1579 1.393 . S
C1583 C1582 1.391 . S
H1584 C1592 0.950 . S
H1585 C1597 0.950 . S
H1586 C1594 0.950 . S
H1587 C1596 0.950 . S
H1588 C1598 0.950 . S
H1589 C1600 0.950 . S
H1590 C1602 0.950 . S
H1591 C1603 0.950 . S
C1592 H1584 0.950 . S
C1592 C1593 1.386 . S
C1592 C1594 1.391 . S
C1593 C1592 1.386 . S
C1593 C1597 1.393 . S
C1594 H1586 0.950 . S
C1594 C1592 1.391 . S
C1594 C1595 1.400 . S
C1595 C1594 1.400 . S
C1595 C1596 1.398 . S
C1595 C1601 1.491 . S
C1596 H1587 0.950 . S
C1596 C1595 1.398 . S
C1596 C1597 1.391 . S
C1597 H1585 0.950 . S
C1597 C1593 1.393 . S
C1597 C1596 1.391 . S
C1598 H1588 0.950 . S
C1598 C1599 1.386 . S
C1598 C1600 1.391 . S
C1599 C1598 1.386 . S
C1599 C1603 1.393 . S
C1600 H1589 0.950 . S
C1600 C1598 1.391 . S
C1600 C1601 1.400 . S
C1601 C1595 1.491 . S
C1601 C1600 1.400 . S
C1601 C1602 1.398 . S
C1602 H1590 0.950 . S
C1602 C1601 1.398 . S
C1602 C1603 1.391 . S
C1603 H1591 0.950 . S
C1603 C1599 1.393 . S
C1603 C1602 1.391 . S
H1604 C1612 0.950 . S
H1605 C1617 0.950 . S
H1606 C1614 0.950 . S
H1607 C1616 0.950 . S
H1608 C1618 0.950 . S
H1609 C1620 0.950 . S
H1610 C1622 0.950 . S
H1611 C1623 0.950 . S
C1612 H1604 0.950 . S
C1612 C1613 1.386 . S
C1612 C1614 1.391 . S
C1613 C1612 1.386 . S
C1613 C1617 1.393 . S
C1614 H1606 0.950 . S
C1614 C1612 1.391 . S
C1614 C1615 1.400 . S
C1615 C1614 1.400 . S
C1615 C1616 1.398 . S
C1615 C1621 1.491 . S
C1616 H1607 0.950 . S
C1616 C1615 1.398 . S
C1616 C1617 1.391 . S
C1617 H1605 0.950 . S
C1617 C1613 1.393 . S
C1617 C1616 1.391 . S
C1618 H1608 0.950 . S
C1618 C1619 1.386 . S
C1618 C1620 1.391 . S
C1619 C1618 1.386 . S
C1619 C1623 1.393 . S
C1620 H1609 0.950 . S
C1620 C1618 1.391 . S
C1620 C1621 1.400 . S
C1621 C1615 1.491 . S
C1621 C1620 1.400 . S
C1621 C1622 1.398 . S
C1622 H1610 0.950 . S
C1622 C1621 1.398 . S
C1622 C1623 1.391 . S
C1623 H1611 0.950 . S
C1623 C1619 1.393 . S
C1623 C1622 1.391 . S
H1624 C1632 0.950 . S
H1625 C1637 0.950 . S
H1626 C1634 0.950 . S
H1627 C1636 0.950 . S
H1628 C1638 0.950 . S
H1629 C1640 0.950 . S
H1630 C1642 0.950 . S
H1631 C1643 0.950 . S
C1632 H1624 0.950 . S
C1632 C1633 1.386 . S
C1632 C1634 1.391 . S
C1633 C1632 1.386 . S
C1633 C1637 1.393 . S
C1634 H1626 0.950 . S
C1634 C1632 1.391 . S
C1634 C1635 1.400 . S
C1635 C1634 1.400 . S
C1635 C1636 1.398 . S
C1635 C1641 1.491 . S
C1636 H1627 0.950 . S
C1636 C1635 1.398 . S
C1636 C1637 1.391 . S
C1637 H1625 0.950 . S
C1637 C1633 1.393 . S
C1637 C1636 1.391 . S
C1638 H1628 0.950 . S
C1638 C1639 1.386 . S
C1638 C1640 1.391 . S
C1639 C1638 1.386 . S
C1639 C1643 1.393 . S
C1640 H1629 0.950 . S
C1640 C1638 1.391 . S
C1640 C1641 1.400 . S
C1641 C1635 1.491 . S
C1641 C1640 1.400 . S
C1641 C1642 1.398 . S
C1642 H1630 0.950 . S
C1642 C1641 1.398 . S
C1642 C1643 1.391 . S
C1643 H1631 0.950 . S
C1643 C1639 1.393 . S
C1643 C1642 1.391 . S
H1644 C1652 0.950 . S
H1645 C1657 0.950 . S
H1646 C1654 0.950 . S
H1647 C1656 0.950 . S
H1648 C1658 0.950 . S
H1649 C1660 0.950 . S
H1650 C1662 0.950 . S
H1651 C1663 0.950 . S
C1652 H1644 0.950 . S
C1652 C1653 1.386 . S
C1652 C1654 1.391 . S
C1653 C1652 1.386 . S
C1653 C1657 1.393 . S
C1654 H1646 0.950 . S
C1654 C1652 1.391 . S
C1654 C1655 1.400 . S
C1655 C1654 1.400 . S
C1655 C1656 1.398 . S
C1655 C1661 1.491 . S
C1656 H1647 0.950 . S
C1656 C1655 1.398 . S
C1656 C1657 1.391 . S
C1657 H1645 0.950 . S
C1657 C1653 1.393 . S
C1657 C1656 1.391 . S
C1658 H1648 0.950 . S
C1658 C1659 1.386 . S
C1658 C1660 1.391 . S
C1659 C1658 1.386 . S
C1659 C1663 1.393 . S
C1660 H1649 0.950 . S
C1660 C1658 1.391 . S
C1660 C1661 1.400 . S
C1661 C1655 1.491 . S
C1661 C1660 1.400 . S
C1661 C1662 1.398 . S
C1662 H1650 0.950 . S
C1662 C1661 1.398 . S
C1662 C1663 1.391 . S
C1663 H1651 0.950 . S
C1663 C1659 1.393 . S
C1663 C1662 1.391 . S
H1664 C1672 0.950 . S
H1665 C1677 0.950 . S
H1666 C1674 0.950 . S
H1667 C1676 0.950 1_655 S
H1668 C1678 0.950 . S
H1669 C1680 0.950 . S
H1670 C1682 0.950 1_455 S
H1671 C1683 0.950 . S
C1672 H1664 0.950 . S
C1672 C1673 1.386 1_556 S
C1672 C1674 1.391 . S
C1673 C1672 1.386 1_554 S
C1673 C1677 1.393 . S
C1674 H1666 0.950 . S
C1674 C1672 1.391 . S
C1674 C1675 1.400 1_556 S
C1675 C1674 1.400 1_554 S
C1675 C1676 1.398 . S
C1675 C1681 1.491 1_454 S
C1676 H1667 0.950 1_455 S
C1676 C1675 1.398 . S
C1676 C1677 1.391 . S
C1677 H1665 0.950 . S
C1677 C1673 1.393 . S
C1677 C1676 1.391 . S
C1678 H1668 0.950 . S
C1678 C1679 1.386 1_554 S
C1678 C1680 1.391 . S
C1679 C1678 1.386 1_556 S
C1679 C1683 1.393 . S
C1680 H1669 0.950 . S
C1680 C1678 1.391 . S
C1680 C1681 1.400 1_554 S
C1681 C1675 1.491 1_656 S
C1681 C1680 1.400 1_556 S
C1681 C1682 1.398 . S
C1682 H1670 0.950 1_655 S
C1682 C1681 1.398 . S
C1682 C1683 1.391 . S
C1683 H1671 0.950 . S
C1683 C1679 1.393 . S
C1683 C1682 1.391 . S
H1684 C1692 0.950 . S
H1685 C1697 0.950 . S
H1686 C1694 0.950 . S
H1687 C1696 0.950 . S
H1688 C1698 0.950 . S
H1689 C1700 0.950 . S
H1690 C1702 0.950 . S
H1691 C1703 0.950 . S
C1692 H1684 0.950 . S
C1692 C1693 1.386 1_554 S
C1692 C1694 1.391 . S
C1693 C1692 1.386 1_556 S
C1693 C1697 1.393 . S
C1694 H1686 0.950 . S
C1694 C1692 1.391 . S
C1694 C1695 1.400 1_554 S
C1695 C1694 1.400 1_556 S
C1695 C1696 1.398 . S
C1695 C1701 1.491 1_556 S
C1696 H1687 0.950 . S
C1696 C1695 1.398 . S
C1696 C1697 1.391 . S
C1697 H1685 0.950 . S
C1697 C1693 1.393 . S
C1697 C1696 1.391 . S
C1698 H1688 0.950 . S
C1698 C1699 1.386 1_556 S
C1698 C1700 1.391 . S
C1699 C1698 1.386 1_554 S
C1699 C1703 1.393 . S
C1700 H1689 0.950 . S
C1700 C1698 1.391 . S
C1700 C1701 1.400 1_556 S
C1701 C1695 1.491 1_554 S
C1701 C1700 1.400 1_554 S
C1701 C1702 1.398 . S
C1702 H1690 0.950 . S
C1702 C1701 1.398 . S
C1702 C1703 1.391 . S
C1703 H1691 0.950 . S
C1703 C1699 1.393 . S
C1703 C1702 1.391 . S
H1704 C1712 0.939 1_655 S
H1705 C1717 0.950 . S
H1706 C1714 0.950 . S
H1707 C1716 0.950 . S
H1708 C1718 0.937 1_455 S
H1709 C1720 0.950 . S
H1710 C1722 0.950 . S
H1711 C1723 0.950 . S
C1712 H1704 0.939 1_455 S
C1712 C1713 1.403 . S
C1712 C1714 1.385 1_455 S
C1713 C1712 1.403 . S
C1713 C1717 1.393 . S
C1714 H1706 0.950 . S
C1714 C1712 1.385 1_655 S
C1714 C1715 1.400 1_655 S
C1715 C1714 1.400 1_455 S
C1715 C1716 1.398 . S
C1715 C1721 1.491 1_455 S
C1716 H1707 0.950 . S
C1716 C1715 1.398 . S
C1716 C1717 1.391 . S
C1717 H1705 0.950 . S
C1717 C1713 1.393 . S
C1717 C1716 1.391 . S
C1718 H1708 0.937 1_655 S
C1718 C1719 1.406 . S
C1718 C1720 1.383 1_655 S
C1719 C1718 1.406 . S
C1719 C1723 1.393 . S
C1720 H1709 0.950 . S
C1720 C1718 1.383 1_455 S
C1720 C1721 1.400 1_455 S
C1721 C1715 1.491 1_655 S
C1721 C1720 1.400 1_655 S
C1721 C1722 1.398 . S
C1722 H1710 0.950 . S
C1722 C1721 1.398 . S
C1722 C1723 1.391 . S
C1723 H1711 0.950 . S
C1723 C1719 1.393 . S
C1723 C1722 1.391 . S
H1724 C1732 0.950 . S
H1725 C1737 0.950 . S
H1726 C1734 0.950 . S
H1727 C1736 0.950 . S
H1728 C1738 0.950 . S
H1729 C1740 0.950 . S
H1730 C1742 0.950 . S
H1731 C1743 0.950 . S
C1732 H1724 0.950 . S
C1732 C1733 1.386 . S
C1732 C1734 1.391 . S
C1733 C1732 1.386 . S
C1733 C1737 1.393 . S
C1734 H1726 0.950 . S
C1734 C1732 1.391 . S
C1734 C1735 1.400 . S
C1735 C1734 1.400 . S
C1735 C1736 1.398 . S
C1735 C1741 1.491 . S
C1736 H1727 0.950 . S
C1736 C1735 1.398 . S
C1736 C1737 1.391 . S
C1737 H1725 0.950 . S
C1737 C1733 1.393 . S
C1737 C1736 1.391 . S
C1738 H1728 0.950 . S
C1738 C1739 1.386 . S
C1738 C1740 1.391 . S
C1739 C1738 1.386 . S
C1739 C1743 1.393 . S
C1740 H1729 0.950 . S
C1740 C1738 1.391 . S
C1740 C1741 1.400 . S
C1741 C1735 1.491 . S
C1741 C1740 1.400 . S
C1741 C1742 1.398 . S
C1742 H1730 0.950 . S
C1742 C1741 1.398 . S
C1742 C1743 1.391 . S
C1743 H1731 0.950 . S
C1743 C1739 1.393 . S
C1743 C1742 1.391 . S
H1744 C1752 0.950 . S
H1745 C1757 0.950 . S
H1746 C1754 0.950 1_556 S
H1747 C1756 0.950 . S
H1748 C1758 0.950 . S
H1749 C1760 0.950 1_554 S
H1750 C1762 0.950 . S
H1751 C1763 0.950 . S
C1752 H1744 0.950 . S
C1752 C1753 1.386 . S
C1752 C1754 1.391 . S
C1753 C1752 1.386 . S
C1753 C1757 1.393 . S
C1754 H1746 0.950 1_554 S
C1754 C1752 1.391 . S
C1754 C1755 1.400 . S
C1755 C1754 1.400 . S
C1755 C1756 1.398 . S
C1755 C1761 1.491 1_554 S
C1756 H1747 0.950 . S
C1756 C1755 1.398 . S
C1756 C1757 1.391 . S
C1757 H1745 0.950 . S
C1757 C1753 1.393 . S
C1757 C1756 1.391 . S
C1758 H1748 0.950 . S
C1758 C1759 1.386 . S
C1758 C1760 1.391 . S
C1759 C1758 1.386 . S
C1759 C1763 1.393 . S
C1760 H1749 0.950 1_556 S
C1760 C1758 1.391 . S
C1760 C1761 1.400 . S
C1761 C1755 1.491 1_556 S
C1761 C1760 1.400 . S
C1761 C1762 1.398 . S
C1762 H1750 0.950 . S
C1762 C1761 1.398 . S
C1762 C1763 1.391 . S
C1763 H1751 0.950 . S
C1763 C1759 1.393 . S
C1763 C1762 1.391 . S
H1764 C1772 0.950 . S
H1765 C1777 0.950 . S
H1766 C1774 0.950 . S
H1767 C1776 0.950 . S
H1768 C1778 0.950 . S
H1769 C1780 0.950 . S
H1770 C1782 0.950 . S
H1771 C1783 0.950 . S
C1772 H1764 0.950 . S
C1772 C1773 1.386 . S
C1772 C1774 1.391 1_655 S
C1773 C1772 1.386 . S
C1773 C1777 1.393 . S
C1774 H1766 0.950 . S
C1774 C1772 1.391 1_455 S
C1774 C1775 1.400 1_455 S
C1775 C1774 1.400 1_655 S
C1775 C1776 1.398 . S
C1775 C1781 1.491 1_655 S
C1776 H1767 0.950 . S
C1776 C1775 1.398 . S
C1776 C1777 1.391 . S
C1777 H1765 0.950 . S
C1777 C1773 1.393 . S
C1777 C1776 1.391 . S
C1778 H1768 0.950 . S
C1778 C1779 1.386 . S
C1778 C1780 1.391 1_455 S
C1779 C1778 1.386 . S
C1779 C1783 1.393 . S
C1780 H1769 0.950 . S
C1780 C1778 1.391 1_655 S
C1780 C1781 1.400 1_655 S
C1781 C1775 1.491 1_455 S
C1781 C1780 1.400 1_455 S
C1781 C1782 1.398 . S
C1782 H1770 0.950 . S
C1782 C1781 1.398 . S
C1782 C1783 1.391 . S
C1783 H1771 0.950 . S
C1783 C1779 1.393 . S
C1783 C1782 1.391 . S
H1784 C1792 0.950 . S
H1785 C1797 0.950 . S
H1786 C1794 0.950 . S
H1787 C1796 0.950 . S
H1788 C1798 0.950 . S
H1789 C1800 0.950 . S
H1790 C1802 0.950 . S
H1791 C1803 0.950 . S
C1792 H1784 0.950 . S
C1792 C1793 1.386 . S
C1792 C1794 1.391 . S
C1793 C1792 1.386 . S
C1793 C1797 1.393 . S
C1794 H1786 0.950 . S
C1794 C1792 1.391 . S
C1794 C1795 1.400 . S
C1795 C1794 1.400 . S
C1795 C1796 1.398 . S
C1795 C1801 1.491 . S
C1796 H1787 0.950 . S
C1796 C1795 1.398 . S
C1796 C1797 1.391 . S
C1797 H1785 0.950 . S
C1797 C1793 1.393 . S
C1797 C1796 1.391 . S
C1798 H1788 0.950 . S
C1798 C1799 1.386 . S
C1798 C1800 1.391 . S
C1799 C1798 1.386 . S
C1799 C1803 1.393 . S
C1800 H1789 0.950 . S
C1800 C1798 1.391 . S
C1800 C1801 1.400 . S
C1801 C1795 1.491 . S
C1801 C1800 1.400 . S
C1801 C1802 1.398 . S
C1802 H1790 0.950 . S
C1802 C1801 1.398 . S
C1802 C1803 1.391 . S
C1803 H1791 0.950 . S
C1803 C1799 1.393 . S
C1803 C1802 1.391 . S
H1804 C1812 0.950 . S
H1805 C1817 0.950 . S
H1806 C1814 0.950 . S
H1807 C1816 0.950 1_655 S
H1808 C1818 0.950 . S
H1809 C1820 0.950 . S
H1810 C1822 0.950 1_455 S
H1811 C1823 0.950 . S
C1812 H1804 0.950 . S
C1812 C1813 1.386 . S
C1812 C1814 1.391 . S
C1813 C1812 1.386 . S
C1813 C1817 1.393 . S
C1814 H1806 0.950 . S
C1814 C1812 1.391 . S
C1814 C1815 1.400 . S
C1815 C1814 1.400 . S
C1815 C1816 1.398 . S
C1815 C1821 1.491 1_465 S
C1816 H1807 0.950 1_455 S
C1816 C1815 1.398 . S
C1816 C1817 1.391 . S
C1817 H1805 0.950 . S
C1817 C1813 1.393 . S
C1817 C1816 1.391 . S
C1818 H1808 0.950 . S
C1818 C1819 1.386 . S
C1818 C1820 1.391 . S
C1819 C1818 1.386 . S
C1819 C1823 1.393 . S
C1820 H1809 0.950 . S
C1820 C1818 1.391 . S
C1820 C1821 1.400 . S
C1821 C1815 1.491 1_645 S
C1821 C1820 1.400 . S
C1821 C1822 1.398 . S
C1822 H1810 0.950 1_655 S
C1822 C1821 1.398 . S
C1822 C1823 1.391 . S
C1823 H1811 0.950 . S
C1823 C1819 1.393 . S
C1823 C1822 1.391 . S
H1824 C1832 0.950 . S
H1825 C1837 0.950 . S
H1826 C1834 0.950 . S
H1827 C1836 0.950 . S
H1828 C1838 0.950 . S
H1829 C1840 0.950 . S
H1830 C1842 0.950 . S
H1831 C1843 0.950 . S
C1832 H1824 0.950 . S
C1832 C1833 1.386 . S
C1832 C1834 1.391 . S
C1833 C1832 1.386 . S
C1833 C1837 1.393 . S
C1834 H1826 0.950 . S
C1834 C1832 1.391 . S
C1834 C1835 1.400 . S
C1835 C1834 1.400 . S
C1835 C1836 1.398 . S
C1835 C1841 1.491 . S
C1836 H1827 0.950 . S
C1836 C1835 1.398 . S
C1836 C1837 1.391 . S
C1837 H1825 0.950 . S
C1837 C1833 1.393 . S
C1837 C1836 1.391 . S
C1838 H1828 0.950 . S
C1838 C1839 1.386 . S
C1838 C1840 1.391 . S
C1839 C1838 1.386 . S
C1839 C1843 1.393 . S
C1840 H1829 0.950 . S
C1840 C1838 1.391 . S
C1840 C1841 1.400 . S
C1841 C1835 1.491 . S
C1841 C1840 1.400 . S
C1841 C1842 1.398 . S
C1842 H1830 0.950 . S
C1842 C1841 1.398 . S
C1842 C1843 1.391 . S
C1843 H1831 0.950 . S
C1843 C1839 1.393 . S
C1843 C1842 1.391 . S
H1844 C1852 0.950 . S
H1845 C1857 0.950 . S
H1846 C1854 0.950 . S
H1847 C1856 0.950 . S
H1848 C1858 0.950 . S
H1849 C1860 0.950 . S
H1850 C1862 0.950 . S
H1851 C1863 0.950 . S
C1852 H1844 0.950 . S
C1852 C1853 1.386 . S
C1852 C1854 1.391 . S
C1853 C1852 1.386 . S
C1853 C1857 1.393 . S
C1854 H1846 0.950 . S
C1854 C1852 1.391 . S
C1854 C1855 1.400 . S
C1855 C1854 1.400 . S
C1855 C1856 1.398 . S
C1855 C1861 1.491 1_545 S
C1856 H1847 0.950 . S
C1856 C1855 1.398 . S
C1856 C1857 1.391 . S
C1857 H1845 0.950 . S
C1857 C1853 1.393 . S
C1857 C1856 1.391 . S
C1858 H1848 0.950 . S
C1858 C1859 1.386 . S
C1858 C1860 1.391 . S
C1859 C1858 1.386 . S
C1859 C1863 1.393 . S
C1860 H1849 0.950 . S
C1860 C1858 1.391 . S
C1860 C1861 1.400 . S
C1861 C1855 1.491 1_565 S
C1861 C1860 1.400 . S
C1861 C1862 1.398 . S
C1862 H1850 0.950 . S
C1862 C1861 1.398 . S
C1862 C1863 1.391 . S
C1863 H1851 0.950 . S
C1863 C1859 1.393 . S
C1863 C1862 1.391 . S
H1864 C1872 0.950 . S
H1865 C1877 0.950 . S
H1866 C1874 0.950 . S
H1867 C1876 0.950 . S
H1868 C1878 0.950 . S
H1869 C1880 0.950 . S
H1870 C1882 0.950 . S
H1871 C1883 0.950 . S
C1872 H1864 0.950 . S
C1872 C1873 1.386 . S
C1872 C1874 1.391 . S
C1873 C1872 1.386 . S
C1873 C1877 1.393 . S
C1874 H1866 0.950 . S
C1874 C1872 1.391 . S
C1874 C1875 1.400 . S
C1875 C1874 1.400 . S
C1875 C1876 1.398 . S
C1875 C1881 1.491 . S
C1876 H1867 0.950 . S
C1876 C1875 1.398 . S
C1876 C1877 1.391 . S
C1877 H1865 0.950 . S
C1877 C1873 1.393 . S
C1877 C1876 1.391 . S
C1878 H1868 0.950 . S
C1878 C1879 1.386 . S
C1878 C1880 1.391 . S
C1879 C1878 1.386 . S
C1879 C1883 1.393 . S
C1880 H1869 0.950 . S
C1880 C1878 1.391 . S
C1880 C1881 1.400 . S
C1881 C1875 1.491 . S
C1881 C1880 1.400 . S
C1881 C1882 1.398 . S
C1882 H1870 0.950 . S
C1882 C1881 1.398 . S
C1882 C1883 1.391 . S
C1883 H1871 0.950 . S
C1883 C1879 1.393 . S
C1883 C1882 1.391 . S
H1884 C1892 0.950 . S
H1885 C1897 0.950 . S
H1886 C1894 0.950 . S
H1887 C1896 0.950 . S
H1888 C1898 0.950 . S
H1889 C1900 0.950 . S
H1890 C1902 0.950 . S
H1891 C1903 0.950 . S
C1892 H1884 0.950 . S
C1892 C1893 1.386 . S
C1892 C1894 1.391 . S
C1893 C1892 1.386 . S
C1893 C1897 1.393 . S
C1894 H1886 0.950 . S
C1894 C1892 1.391 . S
C1894 C1895 1.400 . S
C1895 C1894 1.400 . S
C1895 C1896 1.398 . S
C1895 C1901 1.491 1_565 S
C1896 H1887 0.950 . S
C1896 C1895 1.398 . S
C1896 C1897 1.391 . S
C1897 H1885 0.950 . S
C1897 C1893 1.393 . S
C1897 C1896 1.391 . S
C1898 H1888 0.950 . S
C1898 C1899 1.386 . S
C1898 C1900 1.391 . S
C1899 C1898 1.386 . S
C1899 C1903 1.393 . S
C1900 H1889 0.950 . S
C1900 C1898 1.391 . S
C1900 C1901 1.400 . S
C1901 C1895 1.491 1_545 S
C1901 C1900 1.400 . S
C1901 C1902 1.398 . S
C1902 H1890 0.950 . S
C1902 C1901 1.398 . S
C1902 C1903 1.391 . S
C1903 H1891 0.950 . S
C1903 C1899 1.393 . S
C1903 C1902 1.391 . S
H1904 C1912 0.950 . S
H1905 C1917 0.950 . S
H1906 C1914 0.950 . S
H1907 C1916 0.950 . S
H1908 C1918 0.950 . S
H1909 C1920 0.950 . S
H1910 C1922 0.950 . S
H1911 C1923 0.950 . S
C1912 H1904 0.950 . S
C1912 C1913 1.386 . S
C1912 C1914 1.391 . S
C1913 C1912 1.386 . S
C1913 C1917 1.393 . S
C1914 H1906 0.950 . S
C1914 C1912 1.391 . S
C1914 C1915 1.400 . S
C1915 C1914 1.400 . S
C1915 C1916 1.398 . S
C1915 C1921 1.491 . S
C1916 H1907 0.950 . S
C1916 C1915 1.398 . S
C1916 C1917 1.391 . S
C1917 H1905 0.950 . S
C1917 C1913 1.393 . S
C1917 C1916 1.391 . S
C1918 H1908 0.950 . S
C1918 C1919 1.386 . S
C1918 C1920 1.391 . S
C1919 C1918 1.386 . S
C1919 C1923 1.393 . S
C1920 H1909 0.950 . S
C1920 C1918 1.391 . S
C1920 C1921 1.400 . S
C1921 C1915 1.491 . S
C1921 C1920 1.400 . S
C1921 C1922 1.398 . S
C1922 H1910 0.950 . S
C1922 C1921 1.398 . S
C1922 C1923 1.391 . S
C1923 H1911 0.950 . S
C1923 C1919 1.393 . S
C1923 C1922 1.391 . S
H1924 C1932 0.950 . S
H1925 C1937 0.950 . S
H1926 C1934 0.950 . S
H1927 C1936 0.950 . S
H1928 C1938 0.950 . S
H1929 C1940 0.950 . S
H1930 C1942 0.950 . S
H1931 C1943 0.950 . S
C1932 H1924 0.950 . S
C1932 C1933 1.386 . S
C1932 C1934 1.391 . S
C1933 C1932 1.386 . S
C1933 C1937 1.393 . S
C1934 H1926 0.950 . S
C1934 C1932 1.391 . S
C1934 C1935 1.400 . S
C1935 C1934 1.400 . S
C1935 C1936 1.398 . S
C1935 C1941 1.491 . S
C1936 H1927 0.950 . S
C1936 C1935 1.398 . S
C1936 C1937 1.391 . S
C1937 H1925 0.950 . S
C1937 C1933 1.393 . S
C1937 C1936 1.391 . S
C1938 H1928 0.950 . S
C1938 C1939 1.386 . S
C1938 C1940 1.391 . S
C1939 C1938 1.386 . S
C1939 C1943 1.393 . S
C1940 H1929 0.950 . S
C1940 C1938 1.391 . S
C1940 C1941 1.400 . S
C1941 C1935 1.491 . S
C1941 C1940 1.400 . S
C1941 C1942 1.398 . S
C1942 H1930 0.950 . S
C1942 C1941 1.398 . S
C1942 C1943 1.391 . S
C1943 H1931 0.950 . S
C1943 C1939 1.393 . S
C1943 C1942 1.391 . S
H1944 C1952 0.950 . S
H1945 C1957 0.950 . S
H1946 C1954 0.950 . S
H1947 C1956 0.950 . S
H1948 C1958 0.950 . S
H1949 C1960 0.950 . S
H1950 C1962 0.950 . S
H1951 C1963 0.950 . S
C1952 H1944 0.950 . S
C1952 C1953 1.386 . S
C1952 C1954 1.391 . S
C1953 C1952 1.386 . S
C1953 C1957 1.393 . S
C1954 H1946 0.950 . S
C1954 C1952 1.391 . S
C1954 C1955 1.400 . S
C1955 C1954 1.400 . S
C1955 C1956 1.398 . S
C1955 C1961 1.491 . S
C1956 H1947 0.950 . S
C1956 C1955 1.398 . S
C1956 C1957 1.391 . S
C1957 H1945 0.950 . S
C1957 C1953 1.393 . S
C1957 C1956 1.391 . S
C1958 H1948 0.950 . S
C1958 C1959 1.386 . S
C1958 C1960 1.391 . S
C1959 C1958 1.386 . S
C1959 C1963 1.393 . S
C1960 H1949 0.950 . S
C1960 C1958 1.391 . S
C1960 C1961 1.400 . S
C1961 C1955 1.491 . S
C1961 C1960 1.400 . S
C1961 C1962 1.398 . S
C1962 H1950 0.950 . S
C1962 C1961 1.398 . S
C1962 C1963 1.391 . S
C1963 H1951 0.950 . S
C1963 C1959 1.393 . S
C1963 C1962 1.391 . S
H1964 C1972 0.950 . S
H1965 C1977 0.952 1_556 S
H1966 C1974 0.950 . S
H1967 C1976 0.950 . S
H1968 C1978 0.950 . S
H1969 C1980 0.950 . S
H1970 C1982 0.950 . S
H1971 C1983 0.954 . S
C1972 H1964 0.950 . S
C1972 C1973 1.386 . S
C1972 C1974 1.391 . S
C1973 C1972 1.386 . S
C1973 C1977 1.390 . S
C1974 H1966 0.950 . S
C1974 C1972 1.391 . S
C1974 C1975 1.400 . S
C1975 C1974 1.400 . S
C1975 C1976 1.398 1_554 S
C1975 C1981 1.491 1_564 S
C1976 H1967 0.950 . S
C1976 C1975 1.398 1_556 S
C1976 C1977 1.392 1_556 S
C1977 H1965 0.952 1_554 S
C1977 C1973 1.390 . S
C1977 C1976 1.392 1_554 S
C1978 H1968 0.950 . S
C1978 C1979 1.386 . S
C1978 C1980 1.391 . S
C1979 C1978 1.386 . S
C1979 C1983 1.386 1_556 S
C1980 H1969 0.950 . S
C1980 C1978 1.391 . S
C1980 C1981 1.400 . S
C1981 C1975 1.491 1_546 S
C1981 C1980 1.400 . S
C1981 C1982 1.398 1_556 S
C1982 H1970 0.950 . S
C1982 C1981 1.398 1_554 S
C1982 C1983 1.393 . S
C1983 H1971 0.954 . S
C1983 C1979 1.386 1_554 S
C1983 C1982 1.393 . S
H1984 C1992 0.950 . S
H1985 C1997 0.950 . S
H1986 C1994 0.950 . S
H1987 C1996 0.900 1_556 S
H1988 C1998 0.950 . S
H1989 C2000 0.950 . S
H1990 C2002 0.950 . S
H1991 C2003 0.973 . S
C1992 H1984 0.950 . S
C1992 C1993 1.386 . S
C1992 C1994 1.391 . S
C1993 C1992 1.386 . S
C1993 C1997 1.393 . S
C1994 H1986 0.950 . S
C1994 C1992 1.391 . S
C1994 C1995 1.400 . S
C1995 C1994 1.400 . S
C1995 C1996 1.398 . S
C1995 C2001 1.491 . S
C1996 H1987 0.900 1_554 S
C1996 C1995 1.398 . S
C1996 C1997 1.391 . S
C1997 H1985 0.950 . S
C1997 C1993 1.393 . S
C1997 C1996 1.391 . S
C1998 H1988 0.950 . S
C1998 C1999 1.386 . S
C1998 C2000 1.391 . S
C1999 C1998 1.386 . S
C1999 C2003 1.393 . S
C2000 H1989 0.950 . S
C2000 C1998 1.391 . S
C2000 C2001 1.400 1_556 S
C2001 C1995 1.491 . S
C2001 C2000 1.400 1_554 S
C2001 C2002 1.398 . S
C2002 H1990 0.950 . S
C2002 C2001 1.398 . S
C2002 C2003 1.391 1_554 S
C2003 H1991 0.973 . S
C2003 C1999 1.393 . S
C2003 C2002 1.391 1_556 S
H2004 C2012 0.950 . S
H2005 C2017 0.950 . S
H2006 C2014 0.950 . S
H2007 C2016 0.950 . S
H2008 C2018 0.950 . S
H2009 C2020 0.950 . S
H2010 C2022 0.954 . S
H2011 C2023 0.950 1_655 S
C2012 H2004 0.950 . S
C2012 C2013 1.386 . S
C2012 C2014 1.391 . S
C2013 C2012 1.386 . S
C2013 C2017 1.393 . S
C2014 H2006 0.950 . S
C2014 C2012 1.391 . S
C2014 C2015 1.400 . S
C2015 C2014 1.400 . S
C2015 C2016 1.398 . S
C2015 C2021 1.491 . S
C2016 H2007 0.950 . S
C2016 C2015 1.398 . S
C2016 C2017 1.391 . S
C2017 H2005 0.950 . S
C2017 C2013 1.393 . S
C2017 C2016 1.391 . S
C2018 H2008 0.950 . S
C2018 C2019 1.386 . S
C2018 C2020 1.391 . S
C2019 C2018 1.386 . S
C2019 C2023 1.393 . S
C2020 H2009 0.950 . S
C2020 C2018 1.391 . S
C2020 C2021 1.400 1_556 S
C2021 C2015 1.491 . S
C2021 C2020 1.400 1_554 S
C2021 C2022 1.399 . S
C2022 H2010 0.954 . S
C2022 C2021 1.399 . S
C2022 C2023 1.386 1_554 S
C2023 H2011 0.950 1_455 S
C2023 C2019 1.393 . S
C2023 C2022 1.386 1_556 S
H2024 C2032 0.950 . S
H2025 C2037 0.950 . S
H2026 C2034 0.950 . S
H2027 C2036 0.950 . S
H2028 C2038 0.950 . S
H2029 C2040 0.950 . S
H2030 C2042 0.950 . S
H2031 C2043 0.950 . S
C2032 H2024 0.950 . S
C2032 C2033 1.386 . S
C2032 C2034 1.391 . S
C2033 C2032 1.386 . S
C2033 C2037 1.393 . S
C2034 H2026 0.950 . S
C2034 C2032 1.391 . S
C2034 C2035 1.400 . S
C2035 C2034 1.400 . S
C2035 C2036 1.398 . S
C2035 C2041 1.491 . S
C2036 H2027 0.950 . S
C2036 C2035 1.398 . S
C2036 C2037 1.391 . S
C2037 H2025 0.950 . S
C2037 C2033 1.393 . S
C2037 C2036 1.391 . S
C2038 H2028 0.950 . S
C2038 C2039 1.386 . S
C2038 C2040 1.391 . S
C2039 C2038 1.386 . S
C2039 C2043 1.393 . S
C2040 H2029 0.950 . S
C2040 C2038 1.391 . S
C2040 C2041 1.400 . S
C2041 C2035 1.491 . S
C2041 C2040 1.400 . S
C2041 C2042 1.398 . S
C2042 H2030 0.950 . S
C2042 C2041 1.398 . S
C2042 C2043 1.391 . S
C2043 H2031 0.950 . S
C2043 C2039 1.393 . S
C2043 C2042 1.391 . S
H2044 C2052 0.950 . S
H2045 C2057 0.950 . S
H2046 C2054 0.950 . S
H2047 C2056 0.950 . S
H2048 C2058 0.950 . S
H2049 C2060 0.950 . S
H2050 C2062 0.950 . S
H2051 C2063 0.950 1_655 S
C2052 H2044 0.950 . S
C2052 C2053 1.386 . S
C2052 C2054 1.391 . S
C2053 C2052 1.386 . S
C2053 C2057 1.393 . S
C2054 H2046 0.950 . S
C2054 C2052 1.391 . S
C2054 C2055 1.400 . S
C2055 C2054 1.400 . S
C2055 C2056 1.398 . S
C2055 C2061 1.491 . S
C2056 H2047 0.950 . S
C2056 C2055 1.398 . S
C2056 C2057 1.391 . S
C2057 H2045 0.950 . S
C2057 C2053 1.393 . S
C2057 C2056 1.391 . S
C2058 H2048 0.950 . S
C2058 C2059 1.386 . S
C2058 C2060 1.391 . S
C2059 C2058 1.386 . S
C2059 C2063 1.393 . S
C2060 H2049 0.950 . S
C2060 C2058 1.391 . S
C2060 C2061 1.400 . S
C2061 C2055 1.491 . S
C2061 C2060 1.400 . S
C2061 C2062 1.398 . S
C2062 H2050 0.950 . S
C2062 C2061 1.398 . S
C2062 C2063 1.391 . S
C2063 H2051 0.950 1_455 S
C2063 C2059 1.393 . S
C2063 C2062 1.391 . S
H2064 C2072 0.950 . S
H2065 C2077 0.950 . S
H2066 C2074 0.950 . S
H2067 C2076 0.950 . S
H2068 C2078 0.950 . S
H2069 C2080 0.950 . S
H2070 C2082 0.950 . S
H2071 C2083 0.950 . S
C2072 H2064 0.950 . S
C2072 C2073 1.386 . S
C2072 C2074 1.391 . S
C2073 C2072 1.386 . S
C2073 C2077 1.393 . S
C2074 H2066 0.950 . S
C2074 C2072 1.391 . S
C2074 C2075 1.400 . S
C2075 C2074 1.400 . S
C2075 C2076 1.398 . S
C2075 C2081 1.491 . S
C2076 H2067 0.950 . S
C2076 C2075 1.398 . S
C2076 C2077 1.391 . S
C2077 H2065 0.950 . S
C2077 C2073 1.393 . S
C2077 C2076 1.391 . S
C2078 H2068 0.950 . S
C2078 C2079 1.386 . S
C2078 C2080 1.391 . S
C2079 C2078 1.386 . S
C2079 C2083 1.393 . S
C2080 H2069 0.950 . S
C2080 C2078 1.391 . S
C2080 C2081 1.400 1_554 S
C2081 C2075 1.491 . S
C2081 C2080 1.400 1_556 S
C2081 C2082 1.398 . S
C2082 H2070 0.950 . S
C2082 C2081 1.398 . S
C2082 C2083 1.391 1_556 S
C2083 H2071 0.950 . S
C2083 C2079 1.393 . S
C2083 C2082 1.391 1_554 S
H2084 C2092 0.950 . S
H2085 C2097 0.950 . S
H2086 C2094 0.950 . S
H2087 C2096 0.950 1_554 S
H2088 C2098 0.950 . S
H2089 C2100 0.950 . S
H2090 C2102 0.950 . S
H2091 C2103 0.945 1_556 S
C2092 H2084 0.950 . S
C2092 C2093 1.386 . S
C2092 C2094 1.391 . S
C2093 C2092 1.386 . S
C2093 C2097 1.393 . S
C2094 H2086 0.950 . S
C2094 C2092 1.391 . S
C2094 C2095 1.400 . S
C2095 C2094 1.400 . S
C2095 C2096 1.398 . S
C2095 C2101 1.491 . S
C2096 H2087 0.950 1_556 S
C2096 C2095 1.398 . S
C2096 C2097 1.391 . S
C2097 H2085 0.950 . S
C2097 C2093 1.393 . S
C2097 C2096 1.391 . S
C2098 H2088 0.950 . S
C2098 C2099 1.386 . S
C2098 C2100 1.391 . S
C2099 C2098 1.386 . S
C2099 C2103 1.402 . S
C2100 H2089 0.950 . S
C2100 C2098 1.391 . S
C2100 C2101 1.400 1_554 S
C2101 C2095 1.491 . S
C2101 C2100 1.400 1_556 S
C2101 C2102 1.398 . S
C2102 H2090 0.950 . S
C2102 C2101 1.398 . S
C2102 C2103 1.385 1_556 S
C2103 H2091 0.945 1_554 S
C2103 C2099 1.402 . S
C2103 C2102 1.385 1_554 S
H2104 C2112 0.950 . S
H2105 C2117 0.950 . S
H2106 C2114 0.950 . S
H2107 C2116 0.950 . S
H2108 C2118 0.950 . S
H2109 C2120 0.950 . S
H2110 C2122 0.950 . S
H2111 C2123 0.950 . S
C2112 H2104 0.950 . S
C2112 C2113 1.386 . S
C2112 C2114 1.391 . S
C2113 C2112 1.386 . S
C2113 C2117 1.393 . S
C2114 H2106 0.950 . S
C2114 C2112 1.391 . S
C2114 C2115 1.400 . S
C2115 C2114 1.400 . S
C2115 C2116 1.398 . S
C2115 C2121 1.491 . S
C2116 H2107 0.950 . S
C2116 C2115 1.398 . S
C2116 C2117 1.391 . S
C2117 H2105 0.950 . S
C2117 C2113 1.393 . S
C2117 C2116 1.391 . S
C2118 H2108 0.950 . S
C2118 C2119 1.386 . S
C2118 C2120 1.391 . S
C2119 C2118 1.386 . S
C2119 C2123 1.393 . S
C2120 H2109 0.950 . S
C2120 C2118 1.391 . S
C2120 C2121 1.400 . S
C2121 C2115 1.491 . S
C2121 C2120 1.400 . S
C2121 C2122 1.398 . S
C2122 H2110 0.950 . S
C2122 C2121 1.398 . S
C2122 C2123 1.391 . S
C2123 H2111 0.950 . S
C2123 C2119 1.393 . S
C2123 C2122 1.391 . S
H2124 C2132 0.950 . S
H2125 C2137 0.950 . S
H2126 C2134 0.950 . S
H2127 C2136 0.950 . S
H2128 C2138 0.950 . S
H2129 C2140 0.950 . S
H2130 C2142 0.950 . S
H2131 C2143 0.950 . S
C2132 H2124 0.950 . S
C2132 C2133 1.386 . S
C2132 C2134 1.391 . S
C2133 C2132 1.386 . S
C2133 C2137 1.393 . S
C2134 H2126 0.950 . S
C2134 C2132 1.391 . S
C2134 C2135 1.400 . S
C2135 C2134 1.400 . S
C2135 C2136 1.398 . S
C2135 C2141 1.491 . S
C2136 H2127 0.950 . S
C2136 C2135 1.398 . S
C2136 C2137 1.391 . S
C2137 H2125 0.950 . S
C2137 C2133 1.393 . S
C2137 C2136 1.391 . S
C2138 H2128 0.950 . S
C2138 C2139 1.386 . S
C2138 C2140 1.391 . S
C2139 C2138 1.386 . S
C2139 C2143 1.393 . S
C2140 H2129 0.950 . S
C2140 C2138 1.391 . S
C2140 C2141 1.400 . S
C2141 C2135 1.491 . S
C2141 C2140 1.400 . S
C2141 C2142 1.398 . S
C2142 H2130 0.950 . S
C2142 C2141 1.398 . S
C2142 C2143 1.391 . S
C2143 H2131 0.950 . S
C2143 C2139 1.393 . S
C2143 C2142 1.391 . S
H2144 C2152 0.950 . S
H2145 C2157 0.950 . S
H2146 C2154 0.950 . S
H2147 C2156 0.950 . S
H2148 C2158 0.950 . S
H2149 C2160 0.950 . S
H2150 C2162 0.950 . S
H2151 C2163 0.950 . S
C2152 H2144 0.950 . S
C2152 C2153 1.386 . S
C2152 C2154 1.391 . S
C2153 C2152 1.386 . S
C2153 C2157 1.393 . S
C2154 H2146 0.950 . S
C2154 C2152 1.391 . S
C2154 C2155 1.400 . S
C2155 C2154 1.400 . S
C2155 C2156 1.398 . S
C2155 C2161 1.491 . S
C2156 H2147 0.950 . S
C2156 C2155 1.398 . S
C2156 C2157 1.391 . S
C2157 H2145 0.950 . S
C2157 C2153 1.393 . S
C2157 C2156 1.391 . S
C2158 H2148 0.950 . S
C2158 C2159 1.392 . S
C2158 C2160 1.391 . S
C2159 C2158 1.392 . S
C2159 C2163 1.391 1_565 S
C2160 H2149 0.950 . S
C2160 C2158 1.391 . S
C2160 C2161 1.400 . S
C2161 C2155 1.491 . S
C2161 C2160 1.400 . S
C2161 C2162 1.398 . S
C2162 H2150 0.950 . S
C2162 C2161 1.398 . S
C2162 C2163 1.391 1_565 S
C2163 H2151 0.950 . S
C2163 C2159 1.391 1_545 S
C2163 C2162 1.391 1_545 S
H2164 C2172 0.950 . S
H2165 C2177 0.950 . S
H2166 C2174 0.950 . S
H2167 C2176 0.950 . S
H2168 C2178 0.950 . S
H2169 C2180 0.950 . S
H2170 C2182 0.950 . S
H2171 C2183 0.950 1_655 S
C2172 H2164 0.950 . S
C2172 C2173 1.386 . S
C2172 C2174 1.391 . S
C2173 C2172 1.386 . S
C2173 C2177 1.393 . S
C2174 H2166 0.950 . S
C2174 C2172 1.391 . S
C2174 C2175 1.400 . S
C2175 C2174 1.400 . S
C2175 C2176 1.398 . S
C2175 C2181 1.491 . S
C2176 H2167 0.950 . S
C2176 C2175 1.398 . S
C2176 C2177 1.391 . S
C2177 H2165 0.950 . S
C2177 C2173 1.393 . S
C2177 C2176 1.391 . S
C2178 H2168 0.950 . S
C2178 C2179 1.386 . S
C2178 C2180 1.391 . S
C2179 C2178 1.386 . S
C2179 C2183 1.393 . S
C2180 H2169 0.950 . S
C2180 C2178 1.391 . S
C2180 C2181 1.400 . S
C2181 C2175 1.491 . S
C2181 C2180 1.400 . S
C2181 C2182 1.398 . S
C2182 H2170 0.950 . S
C2182 C2181 1.398 . S
C2182 C2183 1.391 . S
C2183 H2171 0.950 1_455 S
C2183 C2179 1.393 . S
C2183 C2182 1.391 . S
H2184 C2192 0.950 . S
H2185 C2197 0.950 . S
H2186 C2194 0.950 . S
H2187 C2196 0.950 . S
H2188 C2198 0.950 . S
H2189 C2200 0.950 . S
H2190 C2202 0.950 . S
H2191 C2203 0.950 . S
C2192 H2184 0.950 . S
C2192 C2193 1.386 . S
C2192 C2194 1.391 . S
C2193 C2192 1.386 . S
C2193 C2197 1.393 . S
C2194 H2186 0.950 . S
C2194 C2192 1.391 . S
C2194 C2195 1.400 . S
C2195 C2194 1.400 . S
C2195 C2196 1.398 . S
C2195 C2201 1.491 . S
C2196 H2187 0.950 . S
C2196 C2195 1.398 . S
C2196 C2197 1.391 . S
C2197 H2185 0.950 . S
C2197 C2193 1.393 . S
C2197 C2196 1.391 . S
C2198 H2188 0.950 . S
C2198 C2199 1.386 . S
C2198 C2200 1.391 . S
C2199 C2198 1.386 . S
C2199 C2203 1.393 . S
C2200 H2189 0.950 . S
C2200 C2198 1.391 . S
C2200 C2201 1.400 . S
C2201 C2195 1.491 . S
C2201 C2200 1.400 . S
C2201 C2202 1.398 . S
C2202 H2190 0.950 . S
C2202 C2201 1.398 . S
C2202 C2203 1.391 . S
C2203 H2191 0.950 . S
C2203 C2199 1.393 . S
C2203 C2202 1.391 . S
H2204 C2212 0.950 . S
H2205 C2217 0.950 . S
H2206 C2214 0.950 . S
H2207 C2216 0.950 . S
H2208 C2218 0.950 . S
H2209 C2220 0.950 1_545 S
H2210 C2222 0.950 . S
H2211 C2223 0.950 1_655 S
C2212 H2204 0.950 . S
C2212 C2213 1.386 . S
C2212 C2214 1.391 . S
C2213 C2212 1.386 . S
C2213 C2217 1.393 . S
C2214 H2206 0.950 . S
C2214 C2212 1.391 . S
C2214 C2215 1.400 . S
C2215 C2214 1.400 . S
C2215 C2216 1.398 . S
C2215 C2221 1.491 . S
C2216 H2207 0.950 . S
C2216 C2215 1.398 . S
C2216 C2217 1.391 . S
C2217 H2205 0.950 . S
C2217 C2213 1.393 . S
C2217 C2216 1.391 . S
C2218 H2208 0.950 . S
C2218 C2219 1.388 . S
C2218 C2220 1.391 1_545 S
C2219 C2218 1.388 . S
C2219 C2223 1.387 1_545 S
C2220 H2209 0.950 1_565 S
C2220 C2218 1.391 1_565 S
C2220 C2221 1.400 . S
C2221 C2215 1.491 . S
C2221 C2220 1.400 . S
C2221 C2222 1.398 . S
C2222 H2210 0.950 . S
C2222 C2221 1.398 . S
C2222 C2223 1.391 . S
C2223 H2211 0.950 1_455 S
C2223 C2219 1.387 1_565 S
C2223 C2222 1.391 . S
H2224 C2232 0.950 . S
H2225 C2237 0.950 . S
H2226 C2234 0.950 . S
H2227 C2236 0.950 . S
H2228 C2238 0.950 . S
H2229 C2240 0.950 . S
H2230 C2242 0.950 . S
H2231 C2243 0.950 . S
C2232 H2224 0.950 . S
C2232 C2233 1.386 . S
C2232 C2234 1.391 1_565 S
C2233 C2232 1.386 . S
C2233 C2237 1.393 1_565 S
C2234 H2226 0.950 . S
C2234 C2232 1.391 1_545 S
C2234 C2235 1.400 . S
C2235 C2234 1.400 . S
C2235 C2236 1.398 . S
C2235 C2241 1.491 . S
C2236 H2227 0.950 . S
C2236 C2235 1.398 . S
C2236 C2237 1.391 . S
C2237 H2225 0.950 . S
C2237 C2233 1.393 1_545 S
C2237 C2236 1.391 . S
C2238 H2228 0.950 . S
C2238 C2239 1.386 . S
C2238 C2240 1.391 . S
C2239 C2238 1.386 . S
C2239 C2243 1.393 . S
C2240 H2229 0.950 . S
C2240 C2238 1.391 . S
C2240 C2241 1.400 . S
C2241 C2235 1.491 . S
C2241 C2240 1.400 . S
C2241 C2242 1.398 . S
C2242 H2230 0.950 . S
C2242 C2241 1.398 . S
C2242 C2243 1.391 . S
C2243 H2231 0.950 . S
C2243 C2239 1.393 . S
C2243 C2242 1.391 . S
H2244 C2252 0.950 . S
H2245 C2257 0.950 . S
H2246 C2254 0.950 . S
H2247 C2256 0.950 . S
H2248 C2258 0.950 . S
H2249 C2260 0.950 . S
H2250 C2262 0.950 . S
H2251 C2263 0.950 1_455 S
C2252 H2244 0.950 . S
C2252 C2253 1.386 . S
C2252 C2254 1.391 . S
C2253 C2252 1.386 . S
C2253 C2257 1.393 . S
C2254 H2246 0.950 . S
C2254 C2252 1.391 . S
C2254 C2255 1.400 . S
C2255 C2254 1.400 . S
C2255 C2256 1.398 . S
C2255 C2261 1.491 . S
C2256 H2247 0.950 . S
C2256 C2255 1.398 . S
C2256 C2257 1.391 . S
C2257 H2245 0.950 . S
C2257 C2253 1.393 . S
C2257 C2256 1.391 . S
C2258 H2248 0.950 . S
C2258 C2259 1.386 . S
C2258 C2260 1.391 . S
C2259 C2258 1.386 . S
C2259 C2263 1.393 . S
C2260 H2249 0.950 . S
C2260 C2258 1.391 . S
C2260 C2261 1.400 . S
C2261 C2255 1.491 . S
C2261 C2260 1.400 . S
C2261 C2262 1.398 . S
C2262 H2250 0.950 . S
C2262 C2261 1.398 . S
C2262 C2263 1.391 . S
C2263 H2251 0.950 1_655 S
C2263 C2259 1.393 . S
C2263 C2262 1.391 . S
H2264 C2272 0.950 . S
H2265 C2277 0.950 . S
H2266 C2274 0.950 . S
H2267 C2276 0.950 . S
H2268 C2278 0.950 . S
H2269 C2280 0.950 . S
H2270 C2282 0.950 . S
H2271 C2283 0.950 . S
C2272 H2264 0.950 . S
C2272 C2273 1.386 . S
C2272 C2274 1.391 . S
C2273 C2272 1.386 . S
C2273 C2277 1.393 . S
C2274 H2266 0.950 . S
C2274 C2272 1.391 . S
C2274 C2275 1.400 . S
C2275 C2274 1.400 . S
C2275 C2276 1.398 . S
C2275 C2281 1.491 . S
C2276 H2267 0.950 . S
C2276 C2275 1.398 . S
C2276 C2277 1.391 . S
C2277 H2265 0.950 . S
C2277 C2273 1.393 . S
C2277 C2276 1.391 . S
C2278 H2268 0.950 . S
C2278 C2279 1.386 . S
C2278 C2280 1.391 . S
C2279 C2278 1.386 . S
C2279 C2283 1.393 . S
C2280 H2269 0.950 . S
C2280 C2278 1.391 . S
C2280 C2281 1.400 . S
C2281 C2275 1.491 . S
C2281 C2280 1.400 . S
C2281 C2282 1.398 . S
C2282 H2270 0.950 . S
C2282 C2281 1.398 . S
C2282 C2283 1.391 . S
C2283 H2271 0.950 . S
C2283 C2279 1.393 . S
C2283 C2282 1.391 . S
H2284 C2292 0.950 . S
H2285 C2297 0.950 . S
H2286 C2294 0.950 . S
H2287 C2296 0.950 . S
H2288 C2298 0.950 1_455 S
H2289 C2300 0.950 . S
H2290 C2302 0.950 . S
H2291 C2303 0.950 1_565 S
C2292 H2284 0.950 . S
C2292 C2293 1.386 . S
C2292 C2294 1.391 . S
C2293 C2292 1.386 . S
C2293 C2297 1.393 . S
C2294 H2286 0.950 . S
C2294 C2292 1.391 . S
C2294 C2295 1.400 . S
C2295 C2294 1.400 . S
C2295 C2296 1.398 . S
C2295 C2301 1.491 . S
C2296 H2287 0.950 . S
C2296 C2295 1.398 . S
C2296 C2297 1.391 . S
C2297 H2285 0.950 . S
C2297 C2293 1.393 . S
C2297 C2296 1.391 . S
C2298 H2288 0.950 1_655 S
C2298 C2299 1.386 1_545 S
C2298 C2300 1.391 . S
C2299 C2298 1.386 1_565 S
C2299 C2303 1.393 1_565 S
C2300 H2289 0.950 . S
C2300 C2298 1.391 . S
C2300 C2301 1.400 . S
C2301 C2295 1.491 . S
C2301 C2300 1.400 . S
C2301 C2302 1.398 . S
C2302 H2290 0.950 . S
C2302 C2301 1.398 . S
C2302 C2303 1.391 . S
C2303 H2291 0.950 1_545 S
C2303 C2299 1.393 1_545 S
C2303 C2302 1.391 . S
H2304 C2312 0.950 . S
H2305 C2317 0.950 . S
H2306 C2314 0.950 . S
H2307 C2316 0.950 . S
H2308 C2318 0.950 . S
H2309 C2320 0.950 . S
H2310 C2322 0.950 . S
H2311 C2323 0.950 . S
C2312 H2304 0.950 . S
C2312 C2313 1.386 . S
C2312 C2314 1.391 . S
C2313 C2312 1.386 . S
C2313 C2317 1.393 . S
C2314 H2306 0.950 . S
C2314 C2312 1.391 . S
C2314 C2315 1.400 . S
C2315 C2314 1.400 . S
C2315 C2316 1.398 . S
C2315 C2321 1.491 . S
C2316 H2307 0.950 . S
C2316 C2315 1.398 . S
C2316 C2317 1.391 . S
C2317 H2305 0.950 . S
C2317 C2313 1.393 . S
C2317 C2316 1.391 . S
C2318 H2308 0.950 . S
C2318 C2319 1.386 . S
C2318 C2320 1.391 . S
C2319 C2318 1.386 . S
C2319 C2323 1.393 . S
C2320 H2309 0.950 . S
C2320 C2318 1.391 . S
C2320 C2321 1.400 . S
C2321 C2315 1.491 . S
C2321 C2320 1.400 . S
C2321 C2322 1.398 . S
C2322 H2310 0.950 . S
C2322 C2321 1.398 . S
C2322 C2323 1.391 . S
C2323 H2311 0.950 . S
C2323 C2319 1.393 . S
C2323 C2322 1.391 . S
H2324 C2332 0.950 . S
H2325 C2337 0.950 . S
H2326 C2334 0.950 . S
H2327 C2336 0.950 . S
H2328 C2338 0.950 . S
H2329 C2340 0.950 . S
H2330 C2342 0.950 . S
H2331 C2343 0.950 . S
C2332 H2324 0.950 . S
C2332 C2333 1.386 . S
C2332 C2334 1.391 . S
C2333 C2332 1.386 . S
C2333 C2337 1.393 . S
C2334 H2326 0.950 . S
C2334 C2332 1.391 . S
C2334 C2335 1.400 . S
C2335 C2334 1.400 . S
C2335 C2336 1.398 . S
C2335 C2341 1.491 . S
C2336 H2327 0.950 . S
C2336 C2335 1.398 . S
C2336 C2337 1.391 . S
C2337 H2325 0.950 . S
C2337 C2333 1.393 . S
C2337 C2336 1.391 . S
C2338 H2328 0.950 . S
C2338 C2339 1.386 . S
C2338 C2340 1.391 . S
C2339 C2338 1.386 . S
C2339 C2343 1.393 . S
C2340 H2329 0.950 . S
C2340 C2338 1.391 . S
C2340 C2341 1.400 . S
C2341 C2335 1.491 . S
C2341 C2340 1.400 . S
C2341 C2342 1.398 . S
C2342 H2330 0.950 . S
C2342 C2341 1.398 . S
C2342 C2343 1.391 . S
C2343 H2331 0.950 . S
C2343 C2339 1.393 . S
C2343 C2342 1.391 . S
H2344 C2352 0.950 . S
H2345 C2357 0.950 . S
H2346 C2354 0.950 . S
H2347 C2356 0.950 . S
H2348 C2358 0.950 . S
H2349 C2360 0.950 . S
H2350 C2362 0.950 . S
H2351 C2363 0.950 . S
C2352 H2344 0.950 . S
C2352 C2353 1.386 . S
C2352 C2354 1.391 . S
C2353 C2352 1.386 . S
C2353 C2357 1.393 . S
C2354 H2346 0.950 . S
C2354 C2352 1.391 . S
C2354 C2355 1.400 . S
C2355 C2354 1.400 . S
C2355 C2356 1.398 . S
C2355 C2361 1.491 . S
C2356 H2347 0.950 . S
C2356 C2355 1.398 . S
C2356 C2357 1.391 . S
C2357 H2345 0.950 . S
C2357 C2353 1.393 . S
C2357 C2356 1.391 . S
C2358 H2348 0.950 . S
C2358 C2359 1.386 . S
C2358 C2360 1.391 . S
C2359 C2358 1.386 . S
C2359 C2363 1.393 . S
C2360 H2349 0.950 . S
C2360 C2358 1.391 . S
C2360 C2361 1.400 . S
C2361 C2355 1.491 . S
C2361 C2360 1.400 . S
C2361 C2362 1.398 . S
C2362 H2350 0.950 . S
C2362 C2361 1.398 . S
C2362 C2363 1.391 . S
C2363 H2351 0.950 . S
C2363 C2359 1.393 . S
C2363 C2362 1.391 . S
H2364 C2372 0.950 . S
H2365 C2377 0.950 . S
H2366 C2374 0.950 . S
H2367 C2376 0.950 . S
H2368 C2378 0.950 . S
H2369 C2380 0.950 . S
H2370 C2382 0.950 . S
H2371 C2383 0.950 . S
C2372 H2364 0.950 . S
C2372 C2373 1.386 . S
C2372 C2374 1.391 . S
C2373 C2372 1.386 . S
C2373 C2377 1.393 . S
C2374 H2366 0.950 . S
C2374 C2372 1.391 . S
C2374 C2375 1.400 . S
C2375 C2374 1.400 . S
C2375 C2376 1.398 . S
C2375 C2381 1.491 . S
C2376 H2367 0.950 . S
C2376 C2375 1.398 . S
C2376 C2377 1.391 . S
C2377 H2365 0.950 . S
C2377 C2373 1.393 . S
C2377 C2376 1.391 . S
C2378 H2368 0.950 . S
C2378 C2379 1.386 . S
C2378 C2380 1.391 . S
C2379 C2378 1.386 . S
C2379 C2383 1.393 . S
C2380 H2369 0.950 . S
C2380 C2378 1.391 . S
C2380 C2381 1.400 . S
C2381 C2375 1.491 . S
C2381 C2380 1.400 . S
C2381 C2382 1.398 . S
C2382 H2370 0.950 . S
C2382 C2381 1.398 . S
C2382 C2383 1.391 . S
C2383 H2371 0.950 . S
C2383 C2379 1.393 . S
C2383 C2382 1.391 . S
H2384 C2392 0.950 . S
H2385 C2397 0.950 . S
H2386 C2394 0.950 . S
H2387 C2396 0.950 . S
H2388 C2398 0.950 . S
H2389 C2400 0.950 . S
H2390 C2402 0.950 . S
H2391 C2403 0.950 . S
C2392 H2384 0.950 . S
C2392 C2393 1.386 . S
C2392 C2394 1.391 . S
C2393 C2392 1.386 . S
C2393 C2397 1.393 . S
C2394 H2386 0.950 . S
C2394 C2392 1.391 . S
C2394 C2395 1.400 . S
C2395 C2394 1.400 . S
C2395 C2396 1.398 . S
C2395 C2401 1.491 . S
C2396 H2387 0.950 . S
C2396 C2395 1.398 . S
C2396 C2397 1.391 . S
C2397 H2385 0.950 . S
C2397 C2393 1.393 . S
C2397 C2396 1.391 . S
C2398 H2388 0.950 . S
C2398 C2399 1.386 . S
C2398 C2400 1.391 . S
C2399 C2398 1.386 . S
C2399 C2403 1.393 . S
C2400 H2389 0.950 . S
C2400 C2398 1.391 . S
C2400 C2401 1.400 . S
C2401 C2395 1.491 . S
C2401 C2400 1.400 . S
C2401 C2402 1.398 . S
C2402 H2390 0.950 . S
C2402 C2401 1.398 . S
C2402 C2403 1.391 . S
C2403 H2391 0.950 . S
C2403 C2399 1.393 . S
C2403 C2402 1.391 . S
H2404 C2412 0.950 . S
H2405 C2417 0.950 . S
H2406 C2414 0.950 . S
H2407 C2416 0.950 . S
H2408 C2418 0.950 . S
H2409 C2420 0.950 . S
H2410 C2422 0.950 . S
H2411 C2423 0.950 . S
C2412 H2404 0.950 . S
C2412 C2413 1.386 . S
C2412 C2414 1.391 . S
C2413 C2412 1.386 . S
C2413 C2417 1.393 . S
C2414 H2406 0.950 . S
C2414 C2412 1.391 . S
C2414 C2415 1.400 . S
C2415 C2414 1.400 . S
C2415 C2416 1.398 . S
C2415 C2421 1.491 . S
C2416 H2407 0.950 . S
C2416 C2415 1.398 . S
C2416 C2417 1.391 . S
C2417 H2405 0.950 . S
C2417 C2413 1.393 . S
C2417 C2416 1.391 . S
C2418 H2408 0.950 . S
C2418 C2419 1.386 . S
C2418 C2420 1.391 . S
C2419 C2418 1.386 . S
C2419 C2423 1.393 . S
C2420 H2409 0.950 . S
C2420 C2418 1.391 . S
C2420 C2421 1.400 . S
C2421 C2415 1.491 . S
C2421 C2420 1.400 . S
C2421 C2422 1.398 . S
C2422 H2410 0.950 . S
C2422 C2421 1.398 . S
C2422 C2423 1.391 . S
C2423 H2411 0.950 . S
C2423 C2419 1.393 . S
C2423 C2422 1.391 . S
H2424 C2432 0.950 . S
H2425 C2437 0.950 . S
H2426 C2434 0.950 . S
H2427 C2436 0.950 . S
H2428 C2438 0.950 . S
H2429 C2440 0.950 . S
H2430 C2442 0.950 . S
H2431 C2443 0.950 . S
C2432 H2424 0.950 . S
C2432 C2433 1.386 . S
C2432 C2434 1.391 . S
C2433 C2432 1.386 . S
C2433 C2437 1.393 . S
C2434 H2426 0.950 . S
C2434 C2432 1.391 . S
C2434 C2435 1.400 . S
C2435 C2434 1.400 . S
C2435 C2436 1.398 . S
C2435 C2441 1.491 . S
C2436 H2427 0.950 . S
C2436 C2435 1.398 . S
C2436 C2437 1.391 . S
C2437 H2425 0.950 . S
C2437 C2433 1.393 . S
C2437 C2436 1.391 . S
C2438 H2428 0.950 . S
C2438 C2439 1.386 . S
C2438 C2440 1.391 . S
C2439 C2438 1.386 . S
C2439 C2443 1.393 . S
C2440 H2429 0.950 . S
C2440 C2438 1.391 . S
C2440 C2441 1.400 . S
C2441 C2435 1.491 . S
C2441 C2440 1.400 . S
C2441 C2442 1.398 . S
C2442 H2430 0.950 . S
C2442 C2441 1.398 . S
C2442 C2443 1.391 . S
C2443 H2431 0.950 . S
C2443 C2439 1.393 . S
C2443 C2442 1.391 . S
H2444 C2452 0.950 . S
H2445 C2457 0.950 . S
H2446 C2454 0.950 . S
H2447 C2456 0.950 . S
H2448 C2458 0.950 . S
H2449 C2460 0.950 . S
H2450 C2462 0.950 . S
H2451 C2463 0.950 . S
C2452 H2444 0.950 . S
C2452 C2453 1.386 . S
C2452 C2454 1.391 . S
C2453 C2452 1.386 . S
C2453 C2457 1.393 . S
C2454 H2446 0.950 . S
C2454 C2452 1.391 . S
C2454 C2455 1.400 . S
C2455 C2454 1.400 . S
C2455 C2456 1.398 . S
C2455 C2461 1.491 . S
C2456 H2447 0.950 . S
C2456 C2455 1.398 . S
C2456 C2457 1.391 . S
C2457 H2445 0.950 . S
C2457 C2453 1.393 . S
C2457 C2456 1.391 . S
C2458 H2448 0.950 . S
C2458 C2459 1.386 . S
C2458 C2460 1.391 . S
C2459 C2458 1.386 . S
C2459 C2463 1.393 . S
C2460 H2449 0.950 . S
C2460 C2458 1.391 . S
C2460 C2461 1.400 . S
C2461 C2455 1.491 . S
C2461 C2460 1.400 . S
C2461 C2462 1.398 . S
C2462 H2450 0.950 . S
C2462 C2461 1.398 . S
C2462 C2463 1.391 . S
C2463 H2451 0.950 . S
C2463 C2459 1.393 . S
C2463 C2462 1.391 . S
H2464 C2472 0.950 . S
H2465 C2477 0.950 . S
H2466 C2474 0.950 . S
H2467 C2476 0.950 . S
H2468 C2478 0.950 . S
H2469 C2480 0.950 . S
H2470 C2482 0.950 1_545 S
H2471 C2483 0.950 . S
C2472 H2464 0.950 . S
C2472 C2473 1.386 . S
C2472 C2474 1.391 . S
C2473 C2472 1.386 . S
C2473 C2477 1.393 . S
C2474 H2466 0.950 . S
C2474 C2472 1.391 . S
C2474 C2475 1.400 . S
C2475 C2474 1.400 . S
C2475 C2476 1.398 . S
C2475 C2481 1.491 . S
C2476 H2467 0.950 . S
C2476 C2475 1.398 . S
C2476 C2477 1.391 . S
C2477 H2465 0.950 . S
C2477 C2473 1.393 . S
C2477 C2476 1.391 . S
C2478 H2468 0.950 . S
C2478 C2479 1.370 1_565 S
C2478 C2480 1.391 . S
C2479 C2478 1.370 1_545 S
C2479 C2483 1.400 . S
C2480 H2469 0.950 . S
C2480 C2478 1.391 . S
C2480 C2481 1.400 1_556 S
C2481 C2475 1.491 . S
C2481 C2480 1.400 1_554 S
C2481 C2482 1.398 . S
C2482 H2470 0.950 1_565 S
C2482 C2481 1.398 . S
C2482 C2483 1.391 1_564 S
C2483 H2471 0.950 . S
C2483 C2479 1.400 . S
C2483 C2482 1.391 1_546 S
H2484 C2492 0.950 . S
H2485 C2497 0.950 . S
H2486 C2494 0.950 . S
H2487 C2496 0.950 . S
H2488 C2498 0.950 . S
H2489 C2500 0.950 . S
H2490 C2502 0.950 . S
H2491 C2503 0.950 . S
C2492 H2484 0.950 . S
C2492 C2493 1.386 . S
C2492 C2494 1.391 . S
C2493 C2492 1.386 . S
C2493 C2497 1.393 . S
C2494 H2486 0.950 . S
C2494 C2492 1.391 . S
C2494 C2495 1.400 . S
C2495 C2494 1.400 . S
C2495 C2496 1.398 . S
C2495 C2501 1.491 . S
C2496 H2487 0.950 . S
C2496 C2495 1.398 . S
C2496 C2497 1.391 . S
C2497 H2485 0.950 . S
C2497 C2493 1.393 . S
C2497 C2496 1.391 . S
C2498 H2488 0.950 . S
C2498 C2499 1.386 . S
C2498 C2500 1.391 . S
C2499 C2498 1.386 . S
C2499 C2503 1.393 . S
C2500 H2489 0.950 . S
C2500 C2498 1.391 . S
C2500 C2501 1.400 1_556 S
C2501 C2495 1.491 . S
C2501 C2500 1.400 1_554 S
C2501 C2502 1.398 . S
C2502 H2490 0.950 . S
C2502 C2501 1.398 . S
C2502 C2503 1.391 1_554 S
C2503 H2491 0.950 . S
C2503 C2499 1.393 . S
C2503 C2502 1.391 1_556 S
H2504 C2512 0.950 . S
H2505 C2517 0.950 . S
H2506 C2514 0.950 . S
H2507 C2516 0.950 . S
H2508 C2518 0.950 . S
H2509 C2520 0.950 . S
H2510 C2522 0.950 . S
H2511 C2523 0.950 . S
C2512 H2504 0.950 . S
C2512 C2513 1.386 . S
C2512 C2514 1.391 . S
C2513 C2512 1.386 . S
C2513 C2517 1.393 . S
C2514 H2506 0.950 . S
C2514 C2512 1.391 . S
C2514 C2515 1.400 . S
C2515 C2514 1.400 . S
C2515 C2516 1.398 . S
C2515 C2521 1.491 . S
C2516 H2507 0.950 . S
C2516 C2515 1.398 . S
C2516 C2517 1.391 . S
C2517 H2505 0.950 . S
C2517 C2513 1.393 . S
C2517 C2516 1.391 . S
C2518 H2508 0.950 . S
C2518 C2519 1.386 . S
C2518 C2520 1.391 . S
C2519 C2518 1.386 . S
C2519 C2523 1.393 . S
C2520 H2509 0.950 . S
C2520 C2518 1.391 . S
C2520 C2521 1.400 . S
C2521 C2515 1.491 . S
C2521 C2520 1.400 . S
C2521 C2522 1.398 . S
C2522 H2510 0.950 . S
C2522 C2521 1.398 . S
C2522 C2523 1.391 . S
C2523 H2511 0.950 . S
C2523 C2519 1.393 . S
C2523 C2522 1.391 . S
H2524 C2532 0.950 . S
H2525 C2537 0.950 . S
H2526 C2534 0.950 . S
H2527 C2536 0.950 1_545 S
H2528 C2538 0.950 . S
H2529 C2540 0.950 . S
H2530 C2542 0.950 . S
H2531 C2543 0.950 . S
C2532 H2524 0.950 . S
C2532 C2533 1.372 1_565 S
C2532 C2534 1.391 . S
C2533 C2532 1.372 1_545 S
C2533 C2537 1.399 . S
C2534 H2526 0.950 . S
C2534 C2532 1.391 . S
C2534 C2535 1.400 . S
C2535 C2534 1.400 . S
C2535 C2536 1.398 . S
C2535 C2541 1.491 . S
C2536 H2527 0.950 1_565 S
C2536 C2535 1.398 . S
C2536 C2537 1.391 1_565 S
C2537 H2525 0.950 . S
C2537 C2533 1.399 . S
C2537 C2536 1.391 1_545 S
C2538 H2528 0.950 . S
C2538 C2539 1.386 . S
C2538 C2540 1.391 . S
C2539 C2538 1.386 . S
C2539 C2543 1.393 . S
C2540 H2529 0.950 . S
C2540 C2538 1.391 . S
C2540 C2541 1.400 . S
C2541 C2535 1.491 . S
C2541 C2540 1.400 . S
C2541 C2542 1.398 . S
C2542 H2530 0.950 . S
C2542 C2541 1.398 . S
C2542 C2543 1.391 . S
C2543 H2531 0.950 . S
C2543 C2539 1.393 . S
C2543 C2542 1.391 . S
H2544 C2552 0.950 . S
H2545 C2557 0.950 . S
H2546 C2554 0.950 1_565 S
H2547 C2556 0.950 . S
H2548 C2558 0.950 . S
H2549 C2560 0.950 . S
H2550 C2562 0.950 . S
H2551 C2563 0.950 . S
C2552 H2544 0.950 . S
C2552 C2553 1.400 . S
C2552 C2554 1.391 1_564 S
C2553 C2552 1.400 . S
C2553 C2557 1.362 1_565 S
C2554 H2546 0.950 1_545 S
C2554 C2552 1.391 1_546 S
C2554 C2555 1.400 . S
C2555 C2554 1.400 . S
C2555 C2556 1.398 1_556 S
C2555 C2561 1.491 . S
C2556 H2547 0.950 . S
C2556 C2555 1.398 1_554 S
C2556 C2557 1.391 . S
C2557 H2545 0.950 . S
C2557 C2553 1.362 1_545 S
C2557 C2556 1.391 . S
C2558 H2548 0.950 . S
C2558 C2559 1.386 . S
C2558 C2560 1.391 . S
C2559 C2558 1.386 . S
C2559 C2563 1.393 . S
C2560 H2549 0.950 . S
C2560 C2558 1.391 . S
C2560 C2561 1.400 . S
C2561 C2555 1.491 . S
C2561 C2560 1.400 . S
C2561 C2562 1.398 . S
C2562 H2550 0.950 . S
C2562 C2561 1.398 . S
C2562 C2563 1.391 . S
C2563 H2551 0.950 . S
C2563 C2559 1.393 . S
C2563 C2562 1.391 . S
H2564 C2572 0.950 . S
H2565 C2577 0.950 . S
H2566 C2574 0.950 . S
H2567 C2576 0.950 . S
H2568 C2578 0.950 . S
H2569 C2580 0.950 . S
H2570 C2582 0.950 . S
H2571 C2583 0.950 . S
C2572 H2564 0.950 . S
C2572 C2573 1.386 . S
C2572 C2574 1.391 1_554 S
C2573 C2572 1.386 . S
C2573 C2577 1.393 . S
C2574 H2566 0.950 . S
C2574 C2572 1.391 1_556 S
C2574 C2575 1.400 . S
C2575 C2574 1.400 . S
C2575 C2576 1.398 1_556 S
C2575 C2581 1.491 . S
C2576 H2567 0.950 . S
C2576 C2575 1.398 1_554 S
C2576 C2577 1.391 . S
C2577 H2565 0.950 . S
C2577 C2573 1.393 . S
C2577 C2576 1.391 . S
C2578 H2568 0.950 . S
C2578 C2579 1.386 . S
C2578 C2580 1.391 . S
C2579 C2578 1.386 . S
C2579 C2583 1.393 . S
C2580 H2569 0.950 . S
C2580 C2578 1.391 . S
C2580 C2581 1.400 . S
C2581 C2575 1.491 . S
C2581 C2580 1.400 . S
C2581 C2582 1.398 . S
C2582 H2570 0.950 . S
C2582 C2581 1.398 . S
C2582 C2583 1.391 . S
C2583 H2571 0.950 . S
C2583 C2579 1.393 . S
C2583 C2582 1.391 . S
H2584 C2592 0.950 . S
H2585 C2597 0.950 . S
H2586 C2594 0.950 . S
H2587 C2596 0.950 . S
H2588 C2598 0.950 . S
H2589 C2600 0.950 . S
H2590 C2602 0.950 . S
H2591 C2603 0.950 . S
C2592 H2584 0.950 . S
C2592 C2593 1.386 . S
C2592 C2594 1.391 . S
C2593 C2592 1.386 . S
C2593 C2597 1.393 . S
C2594 H2586 0.950 . S
C2594 C2592 1.391 . S
C2594 C2595 1.400 . S
C2595 C2594 1.400 . S
C2595 C2596 1.398 . S
C2595 C2601 1.491 . S
C2596 H2587 0.950 . S
C2596 C2595 1.398 . S
C2596 C2597 1.391 . S
C2597 H2585 0.950 . S
C2597 C2593 1.393 . S
C2597 C2596 1.391 . S
C2598 H2588 0.950 . S
C2598 C2599 1.386 . S
C2598 C2600 1.391 . S
C2599 C2598 1.386 . S
C2599 C2603 1.393 . S
C2600 H2589 0.950 . S
C2600 C2598 1.391 . S
C2600 C2601 1.400 . S
C2601 C2595 1.491 . S
C2601 C2600 1.400 . S
C2601 C2602 1.398 . S
C2602 H2590 0.950 . S
C2602 C2601 1.398 . S
C2602 C2603 1.391 . S
C2603 H2591 0.950 . S
C2603 C2599 1.393 . S
C2603 C2602 1.391 . S
H2604 C2612 0.950 . S
H2605 C2617 0.950 . S
H2606 C2614 0.950 1_565 S
H2607 C2616 0.950 . S
H2608 C2618 0.950 . S
H2609 C2620 0.950 . S
H2610 C2622 0.950 . S
H2611 C2623 0.950 . S
C2612 H2604 0.950 . S
C2612 C2613 1.393 . S
C2612 C2614 1.391 1_565 S
C2613 C2612 1.393 . S
C2613 C2617 1.376 1_565 S
C2614 H2606 0.950 1_545 S
C2614 C2612 1.391 1_545 S
C2614 C2615 1.400 . S
C2615 C2614 1.400 . S
C2615 C2616 1.398 . S
C2615 C2621 1.491 . S
C2616 H2607 0.950 . S
C2616 C2615 1.398 . S
C2616 C2617 1.391 . S
C2617 H2605 0.950 . S
C2617 C2613 1.376 1_545 S
C2617 C2616 1.391 . S
C2618 H2608 0.950 . S
C2618 C2619 1.386 . S
C2618 C2620 1.391 . S
C2619 C2618 1.386 . S
C2619 C2623 1.393 . S
C2620 H2609 0.950 . S
C2620 C2618 1.391 . S
C2620 C2621 1.400 . S
C2621 C2615 1.491 . S
C2621 C2620 1.400 . S
C2621 C2622 1.398 . S
C2622 H2610 0.950 . S
C2622 C2621 1.398 . S
C2622 C2623 1.391 . S
C2623 H2611 0.950 . S
C2623 C2619 1.393 . S
C2623 C2622 1.391 . S
C713 C8 1.193 . S
C719 C40 1.192 . S
C733 C84 1.194 . S
C739 C52 1.194 . S
C753 C96 1.172 . S
C759 C128 1.171 . S
C773 C142 1.174 . S
C779 C164 1.172 . S
C793 C186 1.191 . S
C799 C216 1.189 . S
C813 C260 1.186 . S
C819 C228 1.188 . S
C833 C304 1.171 . S
C839 C272 1.170 . S
C853 C318 1.187 . S
C859 C348 1.187 . S
C873 C360 1.180 . S
C879 C392 1.181 . S
C893 C406 1.177 . S
C899 C436 1.178 . S
C913 C448 1.172 . S
C919 C480 1.174 . S
C933 C524 1.170 . S
C939 C502 1.171 . S
C953 C536 1.188 . S
C959 C568 1.189 . S
C973 C612 1.194 . S
C979 C580 1.194 . S
C993 C656 1.181 . S
C999 C624 1.180 . S
C1013 C700 1.172 . S
C1019 C678 1.173 . S
C1033 C7 1.522 . S
C1039 C565 1.511 . S
C1053 C535 1.525 . S
C1059 C37 1.512 . S
C1073 C609 1.526 . S
C1079 C51 1.517 . S
C1093 C81 1.525 . S
C1099 C579 1.519 . S
C1113 C103 1.522 . S
C1119 C659 1.532 . S
C1133 C631 1.532 . S
C1139 C131 1.519 . S
C1153 C703 1.528 . S
C1159 C139 1.519 . S
C1173 C681 1.522 . S
C1179 C161 1.532 . S
C1193 C389 1.513 . S
C1199 C197 1.517 . S
C1213 C213 1.518 . S
C1219 C359 1.512 . S
C1233 C227 1.526 . S
C1239 C433 1.514 . S
C1253 C417 1.513 . S
C1259 C257 1.517 . S
C1273 C483 1.529 . S
C1279 C279 1.527 . S
C1293 C307 1.527 . S
C1299 C455 1.520 . S
C1313 C315 1.528 . S
C1319 C527 1.519 . S
C1333 C351 1.519 . S
C1339 C505 1.531 . S
C1353 C18 1.550 . S
C1359 C76 1.550 . S
C1373 C62 1.546 . S
C1379 C32 1.547 . S
C1393 C98 1.544 . S
C1399 C172 1.544 . S
C1413 C150 1.545 . S
C1419 C118 1.548 . S
C1433 C252 1.550 . S
C1439 C184 1.550 . S
C1453 C208 1.550 . S
C1459 C238 1.550 . S
C1473 C338 1.549 . S
C1479 C274 1.551 . S
C1493 C294 1.549 . S
C1499 C326 1.551 . S
C1513 C370 1.543 . S
C1519 C428 1.543 . S
C1533 C384 1.548 . S
C1539 C404 1.549 . S
C1553 C450 1.548 . S
C1559 C514 1.551 . S
C1573 C470 1.548 . S
C1579 C492 1.550 . S
C1593 C546 1.545 . S
C1599 C604 1.546 . S
C1613 C560 1.542 . S
C1619 C590 1.542 . S
C1633 C690 1.544 . S
C1639 C626 1.544 . S
C1653 C646 1.548 . S
C1659 C668 1.550 . S
C1673 C15 0.962 . S
C1679 C95 0.966 . S
C1693 C653 0.941 . S
C1699 C43 0.936 . S
C1713 C59 0.932 . S
C1719 C329 0.938 . S
C1733 C87 0.964 . S
C1739 C521 0.968 . S
C1753 C571 0.936 . S
C1759 C125 0.942 . S
C1773 C153 0.951 . S
C1779 C235 0.948 . S
C1793 C439 0.933 . S
C1799 C175 0.940 . S
C1813 C183 0.959 . S
C1819 C271 0.964 . S
C1833 C477 0.972 . S
C1839 C219 0.970 . S
C1853 C697 0.972 . S
C1859 C263 0.970 . S
C1873 C395 0.968 . S
C1879 C301 0.970 . S
C1893 C615 0.933 . S
C1899 C345 0.939 . S
C1913 C367 0.956 . S
C1919 C447 0.959 . S
C1933 C403 0.969 . S
C1939 C675 0.972 . S
C1953 C587 0.970 . S
C1959 C499 0.972 . S
C1973 C543 0.933 . S
C1979 C623 0.938 . S
C1993 C10 1.327 . S
C1999 C645 1.361 . S
C2013 C30 1.303 . S
C2019 C109 1.358 1_455 S
C2033 C513 1.355 . S
C2039 C54 1.318 . S
C2053 C74 1.309 . S
C2059 C323 1.360 1_455 S
C2073 C106 1.331 . S
C2079 C557 1.364 . S
C2093 C120 1.316 . S
C2099 C21 1.360 1_655 S
C2113 C140 1.331 . S
C2119 C425 1.364 . S
C2133 C241 1.370 1_655 S
C2139 C162 1.337 . S
C2153 C194 1.324 . S
C2159 C469 1.353 1_565 S
C2173 C206 1.301 . S
C2179 C285 1.356 1_455 S
C2193 C689 1.359 . S
C2199 C230 1.328 . S
C2213 C250 1.300 . S
C2219 C147 1.358 1_455 S
C2233 C381 1.364 . S
C2239 C282 1.317 . S
C2253 C296 1.327 . S
C2259 C191 1.363 1_655 S
C2273 C316 1.325 . S
C2279 C601 1.362 . S
C2293 C340 1.329 . S
C2299 C65 1.368 1_655 S
C2313 C293 1.353 . S
C2319 C362 1.304 . S
C2333 C382 1.301 . S
C2339 C461 1.356 . S
C2353 C414 1.319 . S
C2359 C169 1.355 . S
C2373 C667 1.355 . S
C2379 C426 1.300 . S
C2393 C458 1.340 . S
C2399 C205 1.369 . S
C2413 C373 1.370 . S
C2419 C472 1.340 . S
C2433 C494 1.313 . S
C2439 C73 1.361 . S
C2453 C593 1.370 . S
C2459 C516 1.338 . S
C2473 C538 1.329 . S
C2479 C117 1.368 . S
C2493 C558 1.328 . S
C2499 C637 1.361 . S
C2513 C337 1.355 . S
C2519 C582 1.300 . S
C2533 C491 1.362 . S
C2539 C602 1.300 . S
C2553 C29 1.377 . S
C2559 C634 1.313 . S
C2573 C549 1.364 . S
C2579 C648 1.332 . S
C2593 C670 1.339 . S
C2599 C249 1.368 . S
C2613 C411 1.369 . S
C2619 C692 1.313 . S
