# Generated by pormake.
# Topology lcy-a-x, (5)-cn, num edge types: 1
# Building blocks:
#     Node 0, Type 0, BuildingBlock: XOMCOT_clean_sbu_1, # of connection points: 5
#     Node 1, Type 0, BuildingBlock: XOMCOT_clean_sbu_1, # of connection points: 5
#     Node 2, Type 0, BuildingBlock: XOMCOT_clean_sbu_1, # of connection points: 5
#     Node 3, Type 0, BuildingBlock: XOMCOT_clean_sbu_1, # of connection points: 5
#     Node 4, Type 0, BuildingBlock: XOMCOT_clean_sbu_1, # of connection points: 5
#     Node 5, Type 0, BuildingBlock: XOMCOT_clean_sbu_1, # of connection points: 5
#     Node 6, Type 0, BuildingBlock: XOMCOT_clean_sbu_1, # of connection points: 5
#     Node 7, Type 0, BuildingBlock: XOMCOT_clean_sbu_1, # of connection points: 5
#     Node 8, Type 0, BuildingBlock: XOMCOT_clean_sbu_1, # of connection points: 5
#     Node 9, Type 0, BuildingBlock: XOMCOT_clean_sbu_1, # of connection points: 5
#     Node 10, Type 0, BuildingBlock: XOMCOT_clean_sbu_1, # of connection points: 5
#     Node 11, Type 0, BuildingBlock: XOMCOT_clean_sbu_1, # of connection points: 5
#     Node 12, Type 0, BuildingBlock: XOMCOT_clean_sbu_1, # of connection points: 5
#     Node 13, Type 0, BuildingBlock: XOMCOT_clean_sbu_1, # of connection points: 5
#     Node 14, Type 0, BuildingBlock: XOMCOT_clean_sbu_1, # of connection points: 5
#     Node 15, Type 0, BuildingBlock: XOMCOT_clean_sbu_1, # of connection points: 5
#     Node 16, Type 0, BuildingBlock: XOMCOT_clean_sbu_1, # of connection points: 5
#     Node 17, Type 0, BuildingBlock: XOMCOT_clean_sbu_1, # of connection points: 5
#     Node 18, Type 0, BuildingBlock: XOMCOT_clean_sbu_1, # of connection points: 5
#     Node 19, Type 0, BuildingBlock: XOMCOT_clean_sbu_1, # of connection points: 5
#     Node 20, Type 0, BuildingBlock: XOMCOT_clean_sbu_1, # of connection points: 5
#     Node 21, Type 0, BuildingBlock: XOMCOT_clean_sbu_1, # of connection points: 5
#     Node 22, Type 0, BuildingBlock: XOMCOT_clean_sbu_1, # of connection points: 5
#     Node 23, Type 0, BuildingBlock: XOMCOT_clean_sbu_1, # of connection points: 5
#     Edge 24, Type (0, 0), None
#     Edge 25, Type (0, 0), None
#     Edge 26, Type (0, 0), None
#     Edge 27, Type (0, 0), None
#     Edge 28, Type (0, 0), None
#     Edge 29, Type (0, 0), None
#     Edge 30, Type (0, 0), None
#     Edge 31, Type (0, 0), None
#     Edge 32, Type (0, 0), None
#     Edge 33, Type (0, 0), None
#     Edge 34, Type (0, 0), None
#     Edge 35, Type (0, 0), None
#     Edge 36, Type (0, 0), None
#     Edge 37, Type (0, 0), None
#     Edge 38, Type (0, 0), None
#     Edge 39, Type (0, 0), None
#     Edge 40, Type (0, 0), None
#     Edge 41, Type (0, 0), None
#     Edge 42, Type (0, 0), None
#     Edge 43, Type (0, 0), None
#     Edge 44, Type (0, 0), None
#     Edge 45, Type (0, 0), None
#     Edge 46, Type (0, 0), None
#     Edge 47, Type (0, 0), None
#     Edge 48, Type (0, 0), None
#     Edge 49, Type (0, 0), None
#     Edge 50, Type (0, 0), None
#     Edge 51, Type (0, 0), None
#     Edge 52, Type (0, 0), None
#     Edge 53, Type (0, 0), None
#     Edge 54, Type (0, 0), None
#     Edge 55, Type (0, 0), None
#     Edge 56, Type (0, 0), None
#     Edge 57, Type (0, 0), None
#     Edge 58, Type (0, 0), None
#     Edge 59, Type (0, 0), None
#     Edge 60, Type (0, 0), None
#     Edge 61, Type (0, 0), None
#     Edge 62, Type (0, 0), None
#     Edge 63, Type (0, 0), None
#     Edge 64, Type (0, 0), None
#     Edge 65, Type (0, 0), None
#     Edge 66, Type (0, 0), None
#     Edge 67, Type (0, 0), None
#     Edge 68, Type (0, 0), None
#     Edge 69, Type (0, 0), None
#     Edge 70, Type (0, 0), None
#     Edge 71, Type (0, 0), None
#     Edge 72, Type (0, 0), None
#     Edge 73, Type (0, 0), None
#     Edge 74, Type (0, 0), None
#     Edge 75, Type (0, 0), None
#     Edge 76, Type (0, 0), None
#     Edge 77, Type (0, 0), None
#     Edge 78, Type (0, 0), None
#     Edge 79, Type (0, 0), None
#     Edge 80, Type (0, 0), None
#     Edge 81, Type (0, 0), None
#     Edge 82, Type (0, 0), None
#     Edge 83, Type (0, 0), None
# Relax obj value: 0.934
# Max RMSD: 0.241
# Mean RMSD: 0.241
data_MOF--net-lcy-a-x--node1-XOMCOT_clean_sbu_1--edge1-none
_symmetry_space_group_name_H-M    P1
_symmetry_Int_Tables_number       1
_symmetry_cell_setting            triclinic
loop_
_symmetry_equiv_pos_as_xyz
'x, y, z'
_cell_length_a     32.094175
_cell_length_b     32.094853
_cell_length_c     32.094819
_cell_angle_alpha  89.998528
_cell_angle_beta   90.009427
_cell_angle_gamma 90.005185
loop_
_atom_site_label
_atom_site_type_symbol
_atom_site_fract_x
_atom_site_fract_y
_atom_site_fract_z
_atom_type_partial_charge
C0 C 0.96941 0.0134 0.77588 0.0
C1 C 0.93358 0.00117 0.79631 0.0
N2 N 0.90442 -0.00752 0.76746 0.0
N3 N 0.96194 0.01379 0.73457 0.0
C4 C 0.92239 0.00061 0.7306 0.0
H5 H -0.00227 0.02465 0.79025 0.0
Co6 Co -0.00488 0.03514 0.69269 0.0
C7 C 0.96022 -0.00157 0.6157 0.0
O8 O -0.00232 -0.01505 0.60621 0.0
N9 N 0.02743 0.05806 0.64942 0.0
C10 C 0.0619 0.06459 0.58959 0.0
C11 C 0.06054 0.04411 0.62724 0.0
C12 C 0.01104 0.08868 0.62542 0.0
N13 N 0.03055 0.09234 0.58882 0.0
O14 O 0.96972 0.08954 0.70184 0.0
H15 H 0.07985 0.01778 0.63493 0.0
H16 H -0.0182 0.10417 0.63167 0.0
O17 O 0.95421 0.02025 0.64886 0.0
C18 C -0.0096 0.11172 0.72752 0.0
O19 O 0.02403 0.09566 0.74443 0.0
N20 N 0.02035 -0.01772 0.68876 0.0
C21 C 0.05537 0.90348 0.69695 0.0
C22 C 0.01375 0.9079 0.68554 0.0
C23 C -0.00351 0.94728 0.68343 0.0
C24 C 0.06078 -0.02147 0.70119 0.0
C25 C 0.07926 0.93927 0.70479 0.0
H26 H 0.96329 0.9492 0.67881 0.0
H27 H 0.07834 0.00608 0.70951 0.0
H28 H 0.90493 0.00175 0.70182 0.0
H29 H 0.92799 0.00285 0.82952 0.0
H30 H 0.08309 0.05827 0.5641 0.0
H31 H -0.0064 0.88102 0.68203 0.0
H32 H 0.11106 0.93676 0.71584 0.0
C33 C 0.25239 0.71951 0.02604 0.0
C34 C 0.26465 0.68372 0.04654 0.0
N35 N 0.27337 0.65454 0.01774 0.0
N36 N 0.25203 0.71198 -0.01526 0.0
C37 C 0.26524 0.67245 -0.01916 0.0
H38 H 0.24112 0.74785 0.04036 0.0
Co39 Co 0.23069 0.74509 0.94279 0.0
C40 C 0.26751 0.71015 0.86589 0.0
O41 O 0.28096 0.74761 0.85637 0.0
N42 N 0.20778 0.77732 0.89945 0.0
C43 C 0.20127 0.8117 0.83956 0.0
C44 C 0.22171 0.81042 0.87725 0.0
C45 C 0.17722 0.76085 0.87543 0.0
N46 N 0.17358 0.7803 0.8388 0.0
O47 O 0.1763 0.71963 0.95192 0.0
H48 H 0.24799 0.8298 0.88494 0.0
H49 H 0.16176 0.7316 0.8817 0.0
O50 O 0.24566 0.70415 0.89904 0.0
C51 C 0.15408 0.74029 -0.02243 0.0
O52 O 0.17009 0.77393 -0.0055 0.0
N53 N 0.28353 0.77038 0.93889 0.0
C54 C 0.36229 0.8055 0.94703 0.0
C55 C 0.35791 0.76385 0.93572 0.0
C56 C 0.31855 0.74654 0.93363 0.0
C57 C 0.28724 0.81083 0.95124 0.0
C58 C 0.32648 0.82937 0.95481 0.0
H59 H 0.31666 0.71334 0.92908 0.0
H60 H 0.25967 0.82838 0.95951 0.0
H61 H 0.26412 0.65495 0.95209 0.0
H62 H 0.26296 0.67818 0.07976 0.0
H63 H 0.2076 0.83288 0.81406 0.0
H64 H 0.38481 0.74372 0.93226 0.0
H65 H 0.32896 0.86119 0.96579 0.0
C66 C 0.54689 0.00281 0.27585 0.0
C67 C 0.58272 0.01503 0.29629 0.0
N68 N 0.61188 0.02374 0.26745 0.0
N69 N 0.55435 0.00245 0.23454 0.0
C70 C 0.5939 0.01564 0.23058 0.0
H71 H 0.51857 -0.00846 0.29021 0.0
Co72 Co 0.52117 -0.01889 0.19264 0.0
C73 C 0.55607 0.01784 0.11567 0.0
O74 O 0.51861 0.03134 0.10618 0.0
N75 N 0.48886 0.9582 0.14936 0.0
C76 C 0.4544 0.95169 0.08951 0.0
C77 C 0.45576 -0.02783 0.12716 0.0
C78 C 0.50524 0.92758 0.12536 0.0
N79 N 0.48574 0.92393 0.08876 0.0
O80 O 0.54658 0.92671 0.2018 0.0
H81 H 0.43645 -0.0015 0.13484 0.0
H82 H 0.53448 0.91208 0.13162 0.0
O83 O 0.56208 -0.00399 0.14883 0.0
C84 C 0.52588 0.90452 0.22745 0.0
O85 O 0.49225 0.92057 0.24435 0.0
N86 N 0.49593 0.03397 0.18872 0.0
C87 C 0.4609 0.11275 0.19693 0.0
C88 C 0.50251 0.10835 0.18554 0.0
C89 C 0.51979 0.06897 0.18342 0.0
C90 C 0.4555 0.0377 0.20113 0.0
C91 C 0.43701 0.07696 0.20474 0.0
H92 H 0.55298 0.06706 0.17881 0.0
H93 H 0.43794 0.01015 0.20944 0.0
H94 H 0.61135 0.01451 0.2018 0.0
H95 H 0.58832 0.01332 0.3295 0.0
H96 H 0.43321 0.95802 0.06401 0.0
H97 H 0.52267 0.13523 0.18205 0.0
H98 H 0.40521 0.07945 0.21578 0.0
C99 C 0.26387 0.29681 0.52609 0.0
C100 C 0.25164 0.3326 0.54657 0.0
N101 N 0.2429 0.36178 0.51777 0.0
N102 N 0.26421 0.30432 0.48479 0.0
C103 C 0.25101 0.34386 0.48088 0.0
H104 H 0.27515 0.26847 0.54041 0.0
Co105 Co 0.28554 0.27121 0.44284 0.0
C106 C 0.24871 0.30615 0.36593 0.0
O107 O 0.23524 0.26868 0.35642 0.0
N108 N 0.30844 0.23897 0.39951 0.0
C109 C 0.31493 0.20458 0.33962 0.0
C110 C 0.29449 0.20587 0.3773 0.0
C111 C 0.33902 0.25541 0.3755 0.0
N112 N 0.34265 0.23596 0.33888 0.0
O113 O 0.33993 0.29666 0.45197 0.0
H114 H 0.26818 0.18652 0.38498 0.0
H115 H 0.3545 0.28466 0.38177 0.0
O116 O 0.27057 0.31214 0.39908 0.0
C117 C 0.36216 0.27597 0.4776 0.0
O118 O 0.34616 0.24231 0.4945 0.0
N119 N 0.23269 0.24593 0.43894 0.0
C120 C 0.15394 0.21081 0.44709 0.0
C121 C 0.15831 0.25245 0.43577 0.0
C122 C 0.19768 0.26976 0.43368 0.0
C123 C 0.22899 0.20547 0.4513 0.0
C124 C 0.18975 0.18694 0.45488 0.0
H125 H 0.19957 0.30296 0.42912 0.0
H126 H 0.25656 0.18792 0.45957 0.0
H127 H 0.25211 0.36135 0.45212 0.0
H128 H 0.25335 0.33815 0.57979 0.0
H129 H 0.30859 0.18341 0.31411 0.0
H130 H 0.13141 0.27258 0.43231 0.0
H131 H 0.18727 0.15512 0.46586 0.0
C132 C 0.46943 0.50283 0.24043 0.0
C133 C 0.43361 0.51507 0.21999 0.0
N134 N 0.40445 0.52376 0.24883 0.0
N135 N 0.46196 0.50245 0.28174 0.0
C136 C 0.42241 0.51563 0.2857 0.0
H137 H 0.49775 0.49158 0.22607 0.0
Co138 Co 0.49514 0.48111 0.32364 0.0
C139 C 0.46024 0.51783 0.40061 0.0
O140 O 0.49771 0.53132 0.4101 0.0
N141 N 0.52744 0.4582 0.36692 0.0
C142 C 0.56192 0.45168 0.42676 0.0
C143 C 0.56056 0.47216 0.3891 0.0
C144 C 0.51105 0.42759 0.39093 0.0
N145 N 0.53056 0.42394 0.42753 0.0
O146 O 0.46972 0.4267 0.31449 0.0
H147 H 0.57988 0.49847 0.38141 0.0
H148 H 0.4818 0.4121 0.38468 0.0
O149 O 0.45423 0.496 0.36745 0.0
C150 C 0.49038 0.40452 0.2888 0.0
O151 O 0.524 0.42059 0.27187 0.0
N152 N 0.52038 0.53397 0.32756 0.0
C153 C 0.5554 0.61276 0.31931 0.0
C154 C 0.51379 0.60835 0.33073 0.0
C155 C 0.49652 0.56897 0.33287 0.0
C156 C 0.5608 0.53771 0.31512 0.0
C157 C 0.57929 0.57697 0.31149 0.0
H158 H 0.46333 0.56704 0.33749 0.0
H159 H 0.57836 0.51016 0.30681 0.0
H160 H 0.40496 0.51449 0.31447 0.0
H161 H 0.42802 0.51338 0.18678 0.0
H162 H 0.58312 0.45801 0.45225 0.0
H163 H 0.49364 0.63522 0.33423 0.0
H164 H 0.61108 0.57948 0.30043 0.0
C165 C 0.76386 0.21943 0.49017 0.0
C166 C 0.75162 0.18364 0.46969 0.0
N167 N 0.74288 0.15445 0.49849 0.0
N168 N 0.76421 0.21191 0.53148 0.0
C169 C 0.751 0.17237 0.53538 0.0
H170 H 0.77515 0.24776 0.47585 0.0
Co171 Co 0.78554 0.24502 0.57343 0.0
C172 C 0.7487 0.21008 0.65032 0.0
O173 O 0.73524 0.24754 0.65984 0.0
N174 N 0.80844 0.27726 0.61677 0.0
C175 C 0.81493 0.31165 0.67666 0.0
C176 C 0.7945 0.31036 0.63897 0.0
C177 C 0.83901 0.26081 0.6408 0.0
N178 N 0.84264 0.28027 0.67743 0.0
O179 O 0.83993 0.21957 0.56432 0.0
H180 H 0.76821 0.32972 0.63127 0.0
H181 H 0.85447 0.23156 0.63454 0.0
O182 O 0.77056 0.20408 0.61718 0.0
C183 C 0.86216 0.24024 0.53867 0.0
O184 O 0.84614 0.27388 0.52175 0.0
N185 N 0.7327 0.2703 0.57731 0.0
C186 C 0.65395 0.30543 0.56915 0.0
C187 C 0.65832 0.26379 0.58047 0.0
C188 C 0.69768 0.24647 0.58256 0.0
C189 C 0.72901 0.31075 0.56494 0.0
C190 C 0.68977 0.32929 0.56136 0.0
H191 H 0.69956 0.21327 0.58713 0.0
H192 H 0.75658 0.3283 0.55668 0.0
H193 H 0.7521 0.15487 0.56414 0.0
H194 H 0.75332 0.17809 0.43647 0.0
H195 H 0.8086 0.33283 0.70216 0.0
H196 H 0.63141 0.24366 0.58393 0.0
H197 H 0.6873 0.36111 0.55037 0.0
C198 C 0.04683 0.5134 0.74039 0.0
C199 C 0.08266 0.50117 0.71996 0.0
N200 N 0.11182 0.49249 0.7488 0.0
N201 N 0.05431 0.51378 0.7817 0.0
C202 C 0.09385 0.50061 0.78567 0.0
H203 H 0.01851 0.52465 0.72603 0.0
Co204 Co 0.02113 0.53512 0.82359 0.0
C205 C 0.05604 0.49842 0.90057 0.0
O206 O 0.01858 0.48493 0.91006 0.0
N207 N -0.01118 0.55804 0.86686 0.0
C208 C 0.95437 0.56455 0.9267 0.0
C209 C 0.95573 0.54407 0.88905 0.0
C210 C 0.00521 0.58866 0.89086 0.0
N211 N -0.01429 0.59231 0.92746 0.0
O212 O 0.04653 0.58953 0.81442 0.0
H213 H 0.93641 0.51774 0.88137 0.0
H214 H 0.03444 0.60417 0.8846 0.0
O215 O 0.06204 0.52025 0.86741 0.0
C216 C 0.02583 0.6117 0.78875 0.0
O217 O -0.0078 0.59564 0.77185 0.0
N218 N -0.0041 0.48226 0.82752 0.0
C219 C 0.96087 0.40347 0.81931 0.0
C220 C 0.00248 0.40789 0.83072 0.0
C221 C 0.01976 0.44727 0.83284 0.0
C222 C 0.95547 0.47852 0.81509 0.0
C223 C 0.93698 0.43926 0.81148 0.0
H224 H 0.05295 0.44919 0.83746 0.0
H225 H 0.93791 0.50607 0.80677 0.0
H226 H 0.11131 0.50175 0.81445 0.0
H227 H 0.08824 0.50286 0.68675 0.0
H228 H 0.93318 0.55822 0.95219 0.0
H229 H 0.02264 0.38101 0.83423 0.0
H230 H 0.90518 0.43675 0.80042 0.0
C231 C 0.75239 0.79679 -0.00982 0.0
C232 C 0.76463 0.83258 0.96969 0.0
N233 N 0.77337 0.86177 -0.0015 0.0
N234 N 0.75204 0.80431 0.03148 0.0
C235 C 0.76526 0.84385 0.03539 0.0
H236 H 0.7411 0.76846 -0.02415 0.0
Co237 Co 0.73071 0.77119 0.07343 0.0
C238 C 0.76756 0.80613 0.15033 0.0
O239 O 0.78102 0.76867 0.15985 0.0
N240 N 0.70782 0.73895 0.11676 0.0
C241 C 0.70132 0.70455 0.17664 0.0
C242 C 0.72175 0.70585 0.13896 0.0
C243 C 0.67725 0.7554 0.14078 0.0
N244 N 0.67361 0.73594 0.1774 0.0
O245 O 0.67632 0.79665 0.0643 0.0
H246 H 0.74804 0.68649 0.13127 0.0
H247 H 0.66178 0.78465 0.13452 0.0
O248 O 0.7457 0.81213 0.11719 0.0
C249 C 0.65409 0.77599 0.03864 0.0
O250 O 0.6701 0.74235 0.02172 0.0
N251 N 0.78355 0.74591 0.07733 0.0
C252 C 0.86231 0.71079 0.06917 0.0
C253 C 0.85794 0.75243 0.08048 0.0
C254 C 0.81858 0.76974 0.08258 0.0
C255 C 0.78725 0.70546 0.06496 0.0
C256 C 0.82649 0.68692 0.06138 0.0
H257 H 0.81669 0.80295 0.08714 0.0
H258 H 0.75967 0.68791 0.05669 0.0
H259 H 0.76415 0.86134 0.06415 0.0
H260 H 0.76293 0.83814 0.93647 0.0
H261 H 0.70764 0.68337 0.20215 0.0
H262 H 0.88484 0.77257 0.08394 0.0
H263 H 0.82896 0.6551 0.0504 0.0
C264 C 0.77579 0.96965 0.01311 0.0
C265 C 0.79625 0.93383 0.0009 0.0
N266 N 0.7674 0.90454 -0.00729 0.0
N267 N 0.7345 0.96203 0.01393 0.0
C268 C 0.73054 0.92239 0.00106 0.0
H269 H 0.79015 -0.00187 0.02399 0.0
Co270 Co 0.69263 -0.00477 0.03525 0.0
C271 C 0.61565 0.96032 -0.00145 0.0
O272 O 0.60617 -0.00223 -0.01497 0.0
N273 N 0.64936 0.02755 0.05815 0.0
C274 C 0.5895 0.06199 0.06465 0.0
C275 C 0.62717 0.06064 0.04418 0.0
C276 C 0.62536 0.01116 0.08877 0.0
N277 N 0.58874 0.03063 0.09239 0.0
O278 O 0.7018 0.96986 0.08966 0.0
H279 H 0.63485 0.07997 0.01786 0.0
H280 H 0.63163 -0.01807 0.10428 0.0
O281 O 0.6488 0.95432 0.02039 0.0
C282 C 0.72757 -0.00951 0.11178 0.0
O283 O 0.74457 0.02404 0.09566 0.0
N284 N 0.68869 0.02042 -0.01762 0.0
C285 C 0.69688 0.05535 0.90354 0.0
C286 C 0.68552 0.01373 0.90801 0.0
C287 C 0.68341 -0.00349 0.94741 0.0
C288 C 0.70108 0.06086 -0.02141 0.0
C289 C 0.70468 0.0793 0.9393 0.0
H290 H 0.67885 0.96331 0.94938 0.0
H291 H 0.70938 0.07846 0.00611 0.0
H292 H 0.70182 0.90485 0.00253 0.0
H293 H 0.8295 0.92838 0.00221 0.0
H294 H 0.56401 0.08318 0.05832 0.0
H295 H 0.68204 -0.00647 0.88115 0.0
H296 H 0.7157 0.1111 0.93675 0.0
C297 C 0.29657 0.52604 0.26355 0.0
C298 C 0.33237 0.54656 0.25133 0.0
N299 N 0.36167 0.51775 0.24308 0.0
N300 N 0.30423 0.48476 0.26432 0.0
C301 C 0.34387 0.48086 0.25141 0.0
H302 H 0.2681 0.54035 0.27448 0.0
Co303 Co 0.2711 0.44283 0.28563 0.0
C304 C 0.30605 0.36593 0.24881 0.0
O305 O 0.26859 0.35642 0.23532 0.0
N306 N 0.23885 0.39949 0.30851 0.0
C307 C 0.20448 0.33959 0.31498 0.0
C308 C 0.20576 0.37728 0.29455 0.0
C309 C 0.2553 0.37547 0.33909 0.0
N310 N 0.23587 0.33883 0.34269 0.0
O311 O 0.29652 0.45196 0.34003 0.0
H312 H 0.1864 0.38497 0.26825 0.0
H313 H 0.28453 0.38176 0.35458 0.0
O314 O 0.31204 0.39906 0.27068 0.0
C315 C 0.27589 0.47768 0.36219 0.0
O316 O 0.2423 0.49465 0.34612 0.0
N317 N 0.24586 0.43892 0.23277 0.0
C318 C 0.21084 0.44708 0.15397 0.0
C319 C 0.25249 0.4358 0.15839 0.0
C320 C 0.26975 0.43371 0.19778 0.0
C321 C 0.2054 0.45126 0.22901 0.0
C322 C 0.18691 0.45483 0.18975 0.0
H323 H 0.30296 0.4292 0.19972 0.0
H324 H 0.18781 0.45951 0.25656 0.0
H325 H 0.36144 0.45216 0.25283 0.0
H326 H 0.33779 0.57981 0.25267 0.0
H327 H 0.18331 0.31408 0.30865 0.0
H328 H 0.27265 0.43237 0.13152 0.0
H329 H 0.15509 0.4658 0.18723 0.0
C330 C 0.74048 0.04657 0.51312 0.0
C331 C 0.72 0.08239 0.5009 0.0
N332 N 0.74885 0.11167 0.4927 0.0
N333 N 0.78176 0.05419 0.51393 0.0
C334 C 0.78572 0.09383 0.50105 0.0
H335 H 0.72612 0.01809 0.52401 0.0
Co336 Co 0.82364 0.021 0.53526 0.0
C337 C 0.90061 0.05593 0.49857 0.0
O338 O 0.9101 0.01848 0.48505 0.0
N339 N 0.86692 -0.01131 0.55817 0.0
C340 C 0.92679 0.95428 0.56467 0.0
C341 C 0.88912 0.95561 0.5442 0.0
C342 C 0.89092 0.00509 0.58879 0.0
N343 N 0.92755 -0.01436 0.59241 0.0
O344 O 0.81447 0.04637 0.58967 0.0
H345 H 0.88144 0.93628 0.51788 0.0
H346 H 0.88465 0.03432 0.6043 0.0
O347 O 0.86746 0.06192 0.5204 0.0
C348 C 0.78871 0.02573 0.61178 0.0
O349 O 0.77173 -0.00782 0.59566 0.0
N350 N 0.82758 -0.00419 0.48239 0.0
C351 C 0.8194 0.96087 0.40356 0.0
C352 C 0.83075 0.00249 0.40802 0.0
C353 C 0.83285 0.01972 0.44742 0.0
C354 C 0.8152 0.95537 0.4786 0.0
C355 C 0.81161 0.93692 0.43932 0.0
H356 H 0.83741 0.05292 0.44939 0.0
H357 H 0.8069 0.93777 0.50613 0.0
H358 H 0.81443 0.11138 0.50251 0.0
H359 H 0.68675 0.08784 0.50222 0.0
H360 H 0.95229 0.9331 0.55835 0.0
H361 H 0.83422 0.02268 0.38116 0.0
H362 H 0.80059 0.90512 0.43677 0.0
C363 C 0.21971 0.49023 0.76352 0.0
C364 C 0.18391 0.46971 0.7513 0.0
N365 N 0.1546 0.49851 0.74306 0.0
N366 N 0.21204 0.53151 0.7643 0.0
C367 C 0.1724 0.5354 0.7514 0.0
H368 H 0.24819 0.47592 0.77443 0.0
Co369 Co 0.24517 0.57345 0.78561 0.0
C370 C 0.21021 0.65033 0.74875 0.0
O371 O 0.24767 0.65984 0.73527 0.0
N372 N 0.27741 0.61679 0.8085 0.0
C373 C 0.31176 0.67671 0.81496 0.0
C374 C 0.31049 0.63902 0.79454 0.0
C375 C 0.26095 0.64081 0.83906 0.0
N376 N 0.28037 0.67746 0.84266 0.0
O377 O 0.21974 0.56432 0.84 0.0
H378 H 0.32985 0.63134 0.76825 0.0
H379 H 0.23172 0.63452 0.85455 0.0
O380 O 0.20423 0.6172 0.77063 0.0
C381 C 0.24037 0.5386 0.86217 0.0
O382 O 0.27395 0.52162 0.84611 0.0
N383 N 0.27042 0.57734 0.73276 0.0
C384 C 0.30546 0.56923 0.65397 0.0
C385 C 0.2638 0.58047 0.65838 0.0
C386 C 0.24653 0.58254 0.69776 0.0
C387 C 0.31088 0.56504 0.72902 0.0
C388 C 0.32938 0.56148 0.68976 0.0
H389 H 0.21332 0.58703 0.69969 0.0
H390 H 0.32847 0.55679 0.75658 0.0
H391 H 0.15481 0.56409 0.75283 0.0
H392 H 0.1785 0.43645 0.75263 0.0
H393 H 0.33291 0.70223 0.80863 0.0
H394 H 0.24363 0.58389 0.6315 0.0
H395 H 0.36121 0.55053 0.68726 0.0
C396 C 0.27579 0.54665 0.00313 0.0
C397 C 0.29626 0.58248 0.01533 0.0
N398 N 0.26741 0.61176 0.02354 0.0
N399 N 0.2345 0.55426 0.00232 0.0
C400 C 0.23054 0.5939 0.0152 0.0
H401 H 0.29015 0.51818 -0.00776 0.0
Co402 Co 0.19262 0.52106 -0.019 0.0
C403 C 0.11566 0.55596 0.01771 0.0
O404 O 0.10618 0.51851 0.03123 0.0
N405 N 0.14935 0.48873 0.9581 0.0
C406 C 0.08948 0.45429 0.95161 0.0
C407 C 0.12715 0.45564 -0.02793 0.0
C408 C 0.12534 0.50512 0.92748 0.0
N409 N 0.08872 0.48565 0.92387 0.0
O410 O 0.20178 0.54644 0.92659 0.0
H411 H 0.13484 0.43633 -0.0016 0.0
H412 H 0.13161 0.53434 0.91196 0.0
O413 O 0.1488 0.56196 -0.00414 0.0
C414 C 0.22754 0.5258 0.90447 0.0
O415 O 0.24454 0.49225 0.9206 0.0
N416 N 0.18871 0.49586 0.03387 0.0
C417 C 0.19692 0.46093 0.1127 0.0
C418 C 0.18556 0.50255 0.10824 0.0
C419 C 0.18344 0.51977 0.06884 0.0
C420 C 0.2011 0.45543 0.03766 0.0
C421 C 0.20471 0.43698 0.07694 0.0
H422 H 0.17888 0.55297 0.06687 0.0
H423 H 0.20939 0.43783 0.01013 0.0
H424 H 0.20183 0.61144 0.01373 0.0
H425 H 0.32951 0.58794 0.01402 0.0
H426 H 0.06399 0.4331 0.95794 0.0
H427 H 0.18209 0.52273 0.1351 0.0
H428 H 0.21573 0.40518 0.07948 0.0
C429 C 0.71976 0.02601 0.25277 0.0
C430 C 0.68397 0.04652 0.26499 0.0
N431 N 0.65465 0.01771 0.2732 0.0
N432 N 0.71209 -0.01527 0.25195 0.0
C433 C 0.67244 -0.01918 0.26483 0.0
H434 H 0.74826 0.04033 0.24189 0.0
Co435 Co 0.74522 0.94281 0.23063 0.0
C436 C 0.71028 0.8659 0.26745 0.0
O437 O 0.74774 0.8564 0.28093 0.0
N438 N 0.77747 0.89948 0.20774 0.0
C439 C 0.81182 0.83957 0.20126 0.0
C440 C 0.81055 0.87726 0.22169 0.0
C441 C 0.761 0.87546 0.17717 0.0
N442 N 0.78042 0.83882 0.17357 0.0
O443 O 0.71979 0.95194 0.17624 0.0
H444 H 0.82992 0.88495 0.24798 0.0
H445 H 0.73177 0.88175 0.16168 0.0
O446 O 0.70428 0.89904 0.24558 0.0
C447 C 0.74041 -0.02231 0.15408 0.0
O448 O 0.77399 -0.00532 0.17016 0.0
N449 N 0.77047 0.9389 0.28349 0.0
C450 C 0.80549 0.94702 0.36229 0.0
C451 C 0.76383 0.93576 0.35786 0.0
C452 C 0.74657 0.93369 0.31847 0.0
C453 C 0.81093 0.95122 0.28724 0.0
C454 C 0.82942 0.95478 0.32651 0.0
H455 H 0.71336 0.92918 0.31653 0.0
H456 H 0.82853 0.95948 0.2597 0.0
H457 H 0.65486 0.95213 0.26336 0.0
H458 H 0.67857 0.07978 0.2637 0.0
H459 H 0.83299 0.81406 0.2076 0.0
H460 H 0.74366 0.93232 0.38473 0.0
H461 H 0.86124 0.96574 0.32904 0.0
C462 C 0.24051 0.46968 0.50318 0.0
C463 C 0.22004 0.43385 0.51538 0.0
N464 N 0.24889 0.40456 0.52356 0.0
N465 N 0.2818 0.46205 0.50234 0.0
C466 C 0.28575 0.4224 0.5152 0.0
H467 H 0.22615 0.49816 0.49231 0.0
Co468 Co 0.32367 0.49525 0.48102 0.0
C469 C 0.40064 0.46035 0.51775 0.0
O470 O 0.41012 0.49781 0.53127 0.0
N471 N 0.36694 0.52757 0.45812 0.0
C472 C 0.42682 0.56199 0.45163 0.0
C473 C 0.38915 0.56065 0.47209 0.0
C474 C 0.39095 0.51117 0.42751 0.0
N475 N 0.42757 0.53063 0.42389 0.0
O476 O 0.3145 0.46986 0.42661 0.0
H477 H 0.38147 0.57998 0.49841 0.0
H478 H 0.38467 0.48194 0.41199 0.0
O479 O 0.36749 0.45435 0.4959 0.0
C480 C 0.28873 0.49048 0.40449 0.0
O481 O 0.27172 0.52403 0.42061 0.0
N482 N 0.3276 0.52045 0.53389 0.0
C483 C 0.31939 0.55539 0.61271 0.0
C484 C 0.33075 0.51376 0.60826 0.0
C485 C 0.33286 0.49654 0.56886 0.0
C486 C 0.31521 0.56089 0.53767 0.0
C487 C 0.3116 0.57934 0.57695 0.0
H488 H 0.33742 0.46334 0.56689 0.0
H489 H 0.30693 0.57849 0.51014 0.0
H490 H 0.31446 0.40486 0.51371 0.0
H491 H 0.18678 0.4284 0.51409 0.0
H492 H 0.45232 0.58317 0.45796 0.0
H493 H 0.33421 0.49358 0.63512 0.0
H494 H 0.30058 0.61113 0.57949 0.0
C495 C 0.79653 -0.00981 0.75276 0.0
C496 C 0.83233 0.96968 0.76498 0.0
N497 N 0.86164 -0.0015 0.7732 0.0
N498 N 0.8042 0.03147 0.75195 0.0
C499 C 0.84384 0.03538 0.76485 0.0
H500 H 0.76804 -0.02413 0.74186 0.0
Co501 Co 0.77106 0.0734 0.73063 0.0
C502 C 0.806 0.1503 0.76747 0.0
O503 O 0.76854 0.1598 0.78094 0.0
N504 N 0.73881 0.11672 0.70773 0.0
C505 C 0.70445 0.17663 0.70125 0.0
C506 C 0.70572 0.13894 0.72168 0.0
C507 C 0.75527 0.14074 0.67717 0.0
N508 N 0.73585 0.17739 0.67356 0.0
O509 O 0.79649 0.06427 0.67625 0.0
H510 H 0.68636 0.13125 0.74796 0.0
H511 H 0.78451 0.13446 0.66169 0.0
O512 O 0.812 0.11717 0.7456 0.0
C513 C 0.77587 0.03853 0.65408 0.0
O514 O 0.7423 0.02153 0.67014 0.0
N515 N 0.74582 0.0773 0.78348 0.0
C516 C 0.7108 0.06918 0.86227 0.0
C517 C 0.75245 0.08044 0.85786 0.0
C518 C 0.76971 0.08251 0.81848 0.0
C519 C 0.70535 0.06497 0.78723 0.0
C520 C 0.68687 0.06142 0.82649 0.0
H521 H 0.80292 0.08701 0.81654 0.0
H522 H 0.68776 0.05672 0.75968 0.0
H523 H 0.86142 0.06407 0.76339 0.0
H524 H 0.83774 0.93642 0.76367 0.0
H525 H 0.68328 0.20214 0.70758 0.0
H526 H 0.77262 0.08388 0.88474 0.0
H527 H 0.65504 0.05046 0.82901 0.0
C528 C 0.01352 0.77575 0.96941 0.0
C529 C 0.00128 0.7962 0.93359 0.0
N530 N -0.00745 0.76736 0.90443 0.0
N531 N 0.01387 0.73444 0.96193 0.0
C532 C 0.00066 0.73049 0.9224 0.0
H533 H 0.0248 0.79011 -0.00227 0.0
Co534 Co 0.03522 0.69254 -0.0049 0.0
C535 C -0.00147 0.61557 0.96015 0.0
O536 O -0.01495 0.60605 -0.00239 0.0
N537 N 0.05813 0.64925 0.02739 0.0
C538 C 0.06465 0.58941 0.06185 0.0
C539 C 0.04418 0.62707 0.0605 0.0
C540 C 0.08873 0.62524 0.01099 0.0
N541 N 0.09236 0.58864 0.03048 0.0
O542 O 0.08963 0.70172 0.96972 0.0
H543 H 0.01788 0.63477 0.07984 0.0
H544 H 0.10422 0.63151 -0.01824 0.0
O545 O 0.02034 0.64874 0.95416 0.0
C546 C 0.1118 0.7274 -0.0096 0.0
O547 O 0.09574 0.7443 0.02403 0.0
N548 N -0.01765 0.68859 0.02031 0.0
C549 C 0.90356 0.69683 0.05531 0.0
C550 C 0.90797 0.6854 0.0137 0.0
C551 C 0.94735 0.68326 -0.00355 0.0
C552 C -0.02139 0.70102 0.06074 0.0
C553 C 0.93934 0.70464 0.07922 0.0
H554 H 0.94928 0.67864 0.96325 0.0
H555 H 0.00616 0.70933 0.0783 0.0
H556 H 0.00177 0.70171 0.90493 0.0
H557 H 0.00299 0.82941 0.928 0.0
H558 H 0.05834 0.56393 0.08306 0.0
H559 H 0.88109 0.6819 -0.00646 0.0
H560 H 0.93683 0.7157 0.111 0.0
C561 C 0.51353 0.7405 0.04679 0.0
C562 C 0.50129 0.72005 0.0826 0.0
N563 N 0.49256 0.74887 0.11176 0.0
N564 N 0.51389 0.78181 0.05427 0.0
C565 C 0.50068 0.78575 0.09381 0.0
H566 H 0.5248 0.72615 0.01847 0.0
Co567 Co 0.53523 0.82372 0.02111 0.0
C568 C 0.49855 0.90068 0.05606 0.0
O569 O 0.48507 0.9102 0.01861 0.0
N570 N 0.55813 0.86701 -0.01117 0.0
C571 C 0.56464 0.92687 0.95438 0.0
C572 C 0.54418 0.8892 0.95572 0.0
C573 C 0.58873 0.89103 0.00524 0.0
N574 N 0.59236 0.92764 -0.01424 0.0
O575 O 0.58965 0.81455 0.0465 0.0
H576 H 0.51788 0.88149 0.93637 0.0
H577 H 0.60423 0.88476 0.03448 0.0
O578 O 0.52036 0.86751 0.06206 0.0
C579 C 0.61181 0.78887 0.02581 0.0
O580 O 0.59574 0.77197 -0.00782 0.0
N581 N 0.48235 0.82767 -0.0041 0.0
C582 C 0.40355 0.81945 0.96089 0.0
C583 C 0.40798 0.83086 0.0025 0.0
C584 C 0.44737 0.83299 0.01976 0.0
C585 C 0.4786 0.81525 0.95547 0.0
C586 C 0.43933 0.81164 0.93698 0.0
H587 H 0.4493 0.8376 0.05295 0.0
H588 H 0.50614 0.80693 0.9379 0.0
H589 H 0.5018 0.81452 0.11127 0.0
H590 H 0.50299 0.68683 0.08818 0.0
H591 H 0.55833 0.95235 0.93317 0.0
H592 H 0.38111 0.83436 0.02266 0.0
H593 H 0.43681 0.80059 0.90519 0.0
C594 C 0.52602 0.26398 0.29677 0.0
C595 C 0.54652 0.25173 0.33255 0.0
N596 N 0.51772 0.24295 0.36174 0.0
N597 N 0.48471 0.2643 0.30429 0.0
C598 C 0.48082 0.25106 0.34382 0.0
H599 H 0.54033 0.27529 0.26844 0.0
Co600 Co 0.44275 0.28563 0.27119 0.0
C601 C 0.36585 0.24883 0.30617 0.0
O602 O 0.35631 0.23537 0.26871 0.0
N603 N 0.3994 0.30852 0.23896 0.0
C604 C 0.33951 0.31501 0.20457 0.0
C605 C 0.3772 0.29458 0.20586 0.0
C606 C 0.37538 0.33907 0.25542 0.0
N607 N 0.33874 0.34269 0.23598 0.0
O608 O 0.4519 0.34003 0.29662 0.0
H609 H 0.3849 0.26831 0.18648 0.0
H610 H 0.38166 0.35455 0.28467 0.0
O611 O 0.39901 0.27067 0.31216 0.0
C612 C 0.47753 0.36225 0.27593 0.0
O613 O 0.49442 0.34623 0.24228 0.0
N614 N 0.43882 0.23277 0.24593 0.0
C615 C 0.447 0.15401 0.21086 0.0
C616 C 0.43567 0.15839 0.25249 0.0
C617 C 0.43356 0.19776 0.26978 0.0
C618 C 0.45119 0.22906 0.20548 0.0
C619 C 0.45478 0.18981 0.18697 0.0
H620 H 0.429 0.19966 0.30298 0.0
H621 H 0.45947 0.25662 0.18792 0.0
H622 H 0.45207 0.25213 0.36132 0.0
H623 H 0.57974 0.25345 0.3381 0.0
H624 H 0.31401 0.30869 0.18338 0.0
H625 H 0.4322 0.1315 0.27264 0.0
H626 H 0.46578 0.18732 0.15516 0.0
C627 C 0.0027 0.27576 0.54685 0.0
C628 C 0.01494 0.29621 0.58266 0.0
N629 N 0.02368 0.26738 0.61183 0.0
N630 N 0.00236 0.23445 0.55433 0.0
C631 C 0.01558 0.23051 0.59387 0.0
H632 H -0.00858 0.29011 0.51853 0.0
Co633 Co -0.01897 0.19254 0.52117 0.0
C634 C 0.01773 0.11558 0.55612 0.0
O635 O 0.03122 0.10607 0.51867 0.0
N636 N 0.95813 0.14924 0.48887 0.0
C637 C 0.95162 0.08939 0.45442 0.0
C638 C -0.02792 0.12706 0.45577 0.0
C639 C 0.92753 0.12522 0.50528 0.0
N640 N 0.9239 0.08861 0.4858 0.0
O641 O 0.92661 0.20169 0.54655 0.0
H642 H -0.00162 0.13476 0.43643 0.0
H643 H 0.91203 0.13148 0.53451 0.0
O644 O -0.00409 0.14875 0.56211 0.0
C645 C 0.90444 0.22736 0.52585 0.0
O646 O 0.9205 0.24426 0.49222 0.0
N647 N 0.0339 0.1886 0.49596 0.0
C648 C 0.11268 0.19685 0.46096 0.0
C649 C 0.10827 0.18543 0.50257 0.0
C650 C 0.06889 0.1833 0.51982 0.0
C651 C 0.03764 0.20103 0.45553 0.0
C652 C 0.0769 0.20465 0.43705 0.0
H653 H 0.06697 0.17868 0.55302 0.0
H654 H 0.01009 0.20934 0.43796 0.0
H655 H 0.01447 0.20173 0.61133 0.0
H656 H 0.01323 0.32942 0.58825 0.0
H657 H 0.95794 0.06391 0.43322 0.0
H658 H 0.13515 0.18195 0.52273 0.0
H659 H 0.07941 0.21571 0.40526 0.0
C660 C -0.00973 0.75262 0.79656 0.0
C661 C 0.96975 0.76485 0.83234 0.0
N662 N -0.00144 0.77311 0.86166 0.0
N663 N 0.03156 0.75186 0.80423 0.0
C664 C 0.03545 0.76477 0.84387 0.0
H665 H -0.02404 0.7417 0.76807 0.0
Co666 Co 0.0735 0.73057 0.77111 0.0
C667 C 0.15038 0.76742 0.80609 0.0
O668 O 0.1599 0.7809 0.76864 0.0
N669 N 0.11684 0.7077 0.73887 0.0
C670 C 0.17675 0.70125 0.70451 0.0
C671 C 0.13905 0.72166 0.70578 0.0
C672 C 0.14088 0.67715 0.75533 0.0
N673 N 0.17752 0.67356 0.7359 0.0
O674 O 0.06439 0.67616 0.79652 0.0
H675 H 0.13134 0.74794 0.68641 0.0
H676 H 0.1346 0.66166 0.78457 0.0
O677 O 0.11725 0.74554 0.81207 0.0
C678 C 0.03864 0.654 0.77591 0.0
O679 O 0.02163 0.67007 0.74234 0.0
N680 N 0.07739 0.78343 0.74588 0.0
C681 C 0.06924 0.86222 0.71086 0.0
C682 C 0.0805 0.8578 0.75252 0.0
C683 C 0.08259 0.81842 0.76977 0.0
C684 C 0.06507 0.78718 0.70542 0.0
C685 C 0.06149 0.82644 0.68693 0.0
H686 H 0.0871 0.81648 0.80298 0.0
H687 H 0.05682 0.75963 0.68782 0.0
H688 H 0.06414 0.76336 0.86145 0.0
H689 H 0.9365 0.76351 0.83775 0.0
H690 H 0.20225 0.70759 0.68333 0.0
H691 H 0.08393 0.88468 0.77269 0.0
H692 H 0.05054 0.82896 0.6551 0.0
C693 C 0.50308 0.24057 0.46961 0.0
C694 C 0.51529 0.22009 0.4338 0.0
N695 N 0.52352 0.24893 0.40451 0.0
N696 N 0.5023 0.28185 0.46199 0.0
C697 C 0.51519 0.2858 0.42235 0.0
H698 H 0.49218 0.22622 0.49808 0.0
Co699 Co 0.481 0.32375 0.49517 0.0
C700 C 0.51775 0.40069 0.46023 0.0
O701 O 0.53127 0.41019 0.49768 0.0
N702 N 0.45813 0.36704 0.52747 0.0
C703 C 0.45167 0.42691 0.5619 0.0
C704 C 0.47211 0.38923 0.56056 0.0
C705 C 0.42753 0.39105 0.51107 0.0
N706 N 0.42393 0.42768 0.53054 0.0
O707 O 0.42657 0.3146 0.46979 0.0
H708 H 0.49843 0.38154 0.57989 0.0
H709 H 0.41201 0.38479 0.48185 0.0
O710 O 0.49589 0.36755 0.45424 0.0
C711 C 0.40446 0.28883 0.49042 0.0
O712 O 0.42059 0.27182 0.52396 0.0
N713 N 0.53388 0.32766 0.52037 0.0
C714 C 0.6127 0.3194 0.55531 0.0
C715 C 0.60825 0.33076 0.51368 0.0
C716 C 0.56885 0.33291 0.49646 0.0
C717 C 0.53765 0.31527 0.5608 0.0
C718 C 0.57693 0.31164 0.57925 0.0
H719 H 0.56689 0.33748 0.46326 0.0
H720 H 0.51012 0.30699 0.5784 0.0
H721 H 0.51375 0.31451 0.4048 0.0
H722 H 0.51395 0.18684 0.42835 0.0
H723 H 0.458 0.4524 0.58309 0.0
H724 H 0.63511 0.33421 0.4935 0.0
H725 H 0.57947 0.30061 0.61105 0.0
C726 C 0.02594 0.25264 0.7197 0.0
C727 C 0.04647 0.26487 0.68392 0.0
N728 N 0.01766 0.27313 0.6546 0.0
N729 N -0.01534 0.25187 0.71202 0.0
C730 C -0.01923 0.2648 0.67239 0.0
H731 H 0.04025 0.24171 0.74818 0.0
Co732 Co 0.94272 0.23057 0.74514 0.0
C733 C 0.86584 0.2674 0.71014 0.0
O734 O 0.85631 0.28088 0.74759 0.0
N735 N 0.89937 0.20769 0.77737 0.0
C736 C 0.83946 0.20123 0.81172 0.0
C737 C 0.87715 0.22165 0.81045 0.0
C738 C 0.87534 0.17713 0.76091 0.0
N739 N 0.83869 0.17354 0.78032 0.0
O740 O 0.95184 0.17616 0.71973 0.0
H741 H 0.88485 0.24793 0.82982 0.0
H742 H 0.88162 0.16164 0.73167 0.0
O743 O 0.89897 0.24552 0.70417 0.0
C744 C -0.02242 0.15401 0.74036 0.0
O745 O -0.00542 0.17009 0.77393 0.0
N746 N 0.93882 0.28342 0.77037 0.0
C747 C 0.94699 0.36221 0.80539 0.0
C748 C 0.93571 0.3578 0.76374 0.0
C749 C 0.93362 0.31842 0.74648 0.0
C750 C 0.95114 0.28717 0.81083 0.0
C751 C 0.95473 0.32643 0.82932 0.0
H752 H 0.92911 0.31648 0.71327 0.0
H753 H 0.95939 0.25962 0.82843 0.0
H754 H 0.95208 0.26338 0.6548 0.0
H755 H 0.07973 0.26353 0.67851 0.0
H756 H 0.81395 0.20756 0.83288 0.0
H757 H 0.93229 0.38468 0.74357 0.0
H758 H 0.96568 0.32894 0.86115 0.0
C759 C 0.49031 0.76362 0.21963 0.0
C760 C 0.46978 0.7514 0.18384 0.0
N761 N 0.49858 0.74312 0.15454 0.0
N762 N 0.53159 0.76436 0.21197 0.0
C763 C 0.53548 0.75143 0.17234 0.0
H764 H 0.47601 0.77456 0.24811 0.0
Co765 Co 0.57355 0.78566 0.24509 0.0
C766 C 0.65041 0.7488 0.21011 0.0
O767 O 0.65994 0.73532 0.24756 0.0
N768 N 0.6169 0.80852 0.27733 0.0
C769 C 0.67682 0.81497 0.31169 0.0
C770 C 0.63912 0.79456 0.31041 0.0
C771 C 0.64094 0.83908 0.26087 0.0
N772 N 0.67759 0.84266 0.28029 0.0
O773 O 0.56443 0.84006 0.21967 0.0
H774 H 0.63142 0.76827 0.32978 0.0
H775 H 0.63465 0.85457 0.23164 0.0
O776 O 0.61728 0.77069 0.20413 0.0
C777 C 0.5387 0.86223 0.2403 0.0
O778 O 0.52171 0.84615 0.27387 0.0
N779 N 0.57743 0.7328 0.27033 0.0
C780 C 0.56927 0.65402 0.30537 0.0
C781 C 0.58053 0.65842 0.26372 0.0
C782 C 0.58262 0.6978 0.24645 0.0
C783 C 0.56512 0.72906 0.31079 0.0
C784 C 0.56154 0.6898 0.32929 0.0
H785 H 0.58713 0.69973 0.21324 0.0
H786 H 0.55688 0.75662 0.32838 0.0
H787 H 0.56417 0.75284 0.15476 0.0
H788 H 0.43652 0.75276 0.17842 0.0
H789 H 0.70233 0.80863 0.33286 0.0
H790 H 0.58394 0.63154 0.24355 0.0
H791 H 0.55059 0.6873 0.36112 0.0
loop_
_geom_bond_atom_site_label_1
_geom_bond_atom_site_label_2
_geom_bond_distance
_geom_bond_site_symmetry_2
_ccdc_geom_bond_type
C0 C1 1.351 . S
C0 N3 1.368 . S
C0 H5 0.931 1_655 S
C1 C0 1.351 . S
C1 N2 1.373 . S
C1 H29 0.930 . S
N2 C1 1.373 . S
N2 C4 1.340 . S
N3 C0 1.368 . S
N3 C4 1.321 . S
N3 Co6 2.135 1_655 S
C4 N2 1.340 . S
C4 N3 1.321 . S
C4 H28 0.930 . S
H5 C0 0.931 1_455 S
Co6 N3 2.135 1_455 S
Co6 N9 2.121 . S
Co6 O14 2.055 . S
Co6 O17 2.039 1_455 S
Co6 N20 2.140 . S
C7 O8 1.227 1_545 S
C7 O17 1.265 . S
O8 C7 1.227 1_565 S
N9 Co6 2.121 . S
N9 C11 1.375 . S
N9 C12 1.313 . S
C10 C11 1.338 . S
C10 N13 1.377 . S
C10 H30 0.930 . S
C11 N9 1.375 . S
C11 C10 1.338 . S
C11 H15 0.931 . S
C12 N9 1.313 . S
C12 N13 1.344 . S
C12 H16 0.930 . S
N13 C10 1.377 . S
N13 C12 1.344 . S
O14 Co6 2.055 . S
O14 C18 1.253 . S
H15 C11 0.931 . S
H16 C12 0.930 . S
O17 Co6 2.039 1_655 S
O17 C7 1.265 . S
C18 O14 1.253 . S
C18 O19 1.227 . S
O19 C18 1.227 . S
N20 Co6 2.140 . S
N20 C23 1.346 1_545 S
N20 C24 1.345 . S
C21 C22 1.387 . S
C21 C25 1.391 . S
C22 C21 1.387 . S
C22 C23 1.369 . S
C22 H31 0.929 . S
C23 N20 1.346 1_565 S
C23 C22 1.369 . S
C23 H26 0.928 . S
C24 N20 1.345 . S
C24 C25 1.371 1_545 S
C24 H27 0.931 . S
C25 C21 1.391 . S
C25 C24 1.371 1_565 S
C25 H32 0.930 . S
H26 C23 0.928 . S
H27 C24 0.931 . S
H28 C4 0.930 . S
H29 C1 0.930 . S
H30 C10 0.930 . S
H31 C22 0.929 . S
H32 C25 0.930 . S
C33 C34 1.351 . S
C33 N36 1.368 . S
C33 H38 0.931 . S
C34 C33 1.351 . S
C34 N35 1.373 . S
C34 H62 0.930 . S
N35 C34 1.373 . S
N35 C37 1.340 . S
N36 C33 1.368 . S
N36 C37 1.321 . S
N36 Co39 2.135 1_554 S
C37 N35 1.340 . S
C37 N36 1.321 . S
C37 H61 0.930 1_554 S
H38 C33 0.931 . S
Co39 N36 2.135 1_556 S
Co39 N42 2.121 . S
Co39 O47 2.055 . S
Co39 O50 2.039 . S
Co39 N53 2.140 . S
C40 O41 1.227 . S
C40 O50 1.265 . S
O41 C40 1.227 . S
N42 Co39 2.121 . S
N42 C44 1.375 . S
N42 C45 1.313 . S
C43 C44 1.338 . S
C43 N46 1.377 . S
C43 H63 0.930 . S
C44 N42 1.375 . S
C44 C43 1.338 . S
C44 H48 0.931 . S
C45 N42 1.313 . S
C45 N46 1.344 . S
C45 H49 0.930 . S
N46 C43 1.377 . S
N46 C45 1.344 . S
O47 Co39 2.055 . S
O47 C51 1.253 1_556 S
H48 C44 0.931 . S
H49 C45 0.930 . S
O50 Co39 2.039 . S
O50 C40 1.265 . S
C51 O47 1.253 1_554 S
C51 O52 1.227 . S
O52 C51 1.227 . S
N53 Co39 2.140 . S
N53 C56 1.346 . S
N53 C57 1.345 . S
C54 C55 1.387 . S
C54 C58 1.391 . S
C55 C54 1.387 . S
C55 C56 1.369 1_554 S
C55 H64 0.929 . S
C56 N53 1.346 . S
C56 C55 1.369 1_556 S
C56 H59 0.928 . S
C57 N53 1.345 . S
C57 C58 1.371 1_556 S
C57 H60 0.931 . S
C58 C54 1.391 . S
C58 C57 1.371 1_554 S
C58 H65 0.930 . S
H59 C56 0.928 . S
H60 C57 0.931 . S
H61 C37 0.930 1_556 S
H62 C34 0.930 . S
H63 C43 0.930 . S
H64 C55 0.929 . S
H65 C58 0.930 . S
C66 C67 1.351 . S
C66 N69 1.368 . S
C66 H71 0.931 1_545 S
C67 C66 1.351 . S
C67 N68 1.373 . S
C67 H95 0.930 . S
N68 C67 1.373 . S
N68 C70 1.340 . S
N69 C66 1.368 . S
N69 C70 1.321 . S
N69 Co72 2.135 . S
C70 N68 1.340 . S
C70 N69 1.321 . S
C70 H94 0.930 . S
H71 C66 0.931 1_565 S
Co72 N69 2.135 . S
Co72 N75 2.121 1_545 S
Co72 O80 2.055 1_545 S
Co72 O83 2.039 . S
Co72 N86 2.140 . S
C73 O74 1.227 . S
C73 O83 1.265 . S
O74 C73 1.227 . S
N75 Co72 2.121 1_565 S
N75 C77 1.375 1_565 S
N75 C78 1.313 . S
C76 C77 1.338 . S
C76 N79 1.377 1_545 S
C76 H96 0.930 . S
C77 N75 1.375 1_545 S
C77 C76 1.338 . S
C77 H81 0.931 . S
C78 N75 1.313 . S
C78 N79 1.344 . S
C78 H82 0.930 . S
N79 C76 1.377 1_565 S
N79 C78 1.344 . S
O80 Co72 2.055 1_565 S
O80 C84 1.253 . S
H81 C77 0.931 . S
H82 C78 0.930 . S
O83 Co72 2.039 . S
O83 C73 1.265 . S
C84 O80 1.253 . S
C84 O85 1.227 . S
O85 C84 1.227 . S
N86 Co72 2.140 . S
N86 C89 1.346 . S
N86 C90 1.345 . S
C87 C88 1.387 . S
C87 C91 1.391 . S
C88 C87 1.387 . S
C88 C89 1.369 . S
C88 H97 0.929 . S
C89 N86 1.346 . S
C89 C88 1.369 . S
C89 H92 0.928 . S
C90 N86 1.345 . S
C90 C91 1.371 . S
C90 H93 0.931 . S
C91 C87 1.391 . S
C91 C90 1.371 . S
C91 H98 0.930 . S
H92 C89 0.928 . S
H93 C90 0.931 . S
H94 C70 0.930 . S
H95 C67 0.930 . S
H96 C76 0.930 . S
H97 C88 0.929 . S
H98 C91 0.930 . S
C99 C100 1.351 . S
C99 N102 1.368 . S
C99 H104 0.931 . S
C100 C99 1.351 . S
C100 N101 1.373 . S
C100 H128 0.930 . S
N101 C100 1.373 . S
N101 C103 1.340 . S
N102 C99 1.368 . S
N102 C103 1.321 . S
N102 Co105 2.135 . S
C103 N101 1.340 . S
C103 N102 1.321 . S
C103 H127 0.930 . S
H104 C99 0.931 . S
Co105 N102 2.135 . S
Co105 N108 2.121 . S
Co105 O113 2.055 . S
Co105 O116 2.039 . S
Co105 N119 2.140 . S
C106 O107 1.227 . S
C106 O116 1.265 . S
O107 C106 1.227 . S
N108 Co105 2.121 . S
N108 C110 1.375 . S
N108 C111 1.313 . S
C109 C110 1.338 . S
C109 N112 1.377 . S
C109 H129 0.930 . S
C110 N108 1.375 . S
C110 C109 1.338 . S
C110 H114 0.931 . S
C111 N108 1.313 . S
C111 N112 1.344 . S
C111 H115 0.930 . S
N112 C109 1.377 . S
N112 C111 1.344 . S
O113 Co105 2.055 . S
O113 C117 1.253 . S
H114 C110 0.931 . S
H115 C111 0.930 . S
O116 Co105 2.039 . S
O116 C106 1.265 . S
C117 O113 1.253 . S
C117 O118 1.227 . S
O118 C117 1.227 . S
N119 Co105 2.140 . S
N119 C122 1.346 . S
N119 C123 1.345 . S
C120 C121 1.387 . S
C120 C124 1.391 . S
C121 C120 1.387 . S
C121 C122 1.369 . S
C121 H130 0.929 . S
C122 N119 1.346 . S
C122 C121 1.369 . S
C122 H125 0.928 . S
C123 N119 1.345 . S
C123 C124 1.371 . S
C123 H126 0.931 . S
C124 C120 1.391 . S
C124 C123 1.371 . S
C124 H131 0.930 . S
H125 C122 0.928 . S
H126 C123 0.931 . S
H127 C103 0.930 . S
H128 C100 0.930 . S
H129 C109 0.930 . S
H130 C121 0.929 . S
H131 C124 0.930 . S
C132 C133 1.351 . S
C132 N135 1.368 . S
C132 H137 0.931 . S
C133 C132 1.351 . S
C133 N134 1.373 . S
C133 H161 0.930 . S
N134 C133 1.373 . S
N134 C136 1.340 . S
N135 C132 1.368 . S
N135 C136 1.321 . S
N135 Co138 2.135 . S
C136 N134 1.340 . S
C136 N135 1.321 . S
C136 H160 0.930 . S
H137 C132 0.931 . S
Co138 N135 2.135 . S
Co138 N141 2.121 . S
Co138 O146 2.055 . S
Co138 O149 2.039 . S
Co138 N152 2.140 . S
C139 O140 1.227 . S
C139 O149 1.265 . S
O140 C139 1.227 . S
N141 Co138 2.121 . S
N141 C143 1.375 . S
N141 C144 1.313 . S
C142 C143 1.338 . S
C142 N145 1.377 . S
C142 H162 0.930 . S
C143 N141 1.375 . S
C143 C142 1.338 . S
C143 H147 0.931 . S
C144 N141 1.313 . S
C144 N145 1.344 . S
C144 H148 0.930 . S
N145 C142 1.377 . S
N145 C144 1.344 . S
O146 Co138 2.055 . S
O146 C150 1.253 . S
H147 C143 0.931 . S
H148 C144 0.930 . S
O149 Co138 2.039 . S
O149 C139 1.265 . S
C150 O146 1.253 . S
C150 O151 1.227 . S
O151 C150 1.227 . S
N152 Co138 2.140 . S
N152 C155 1.346 . S
N152 C156 1.345 . S
C153 C154 1.387 . S
C153 C157 1.391 . S
C154 C153 1.387 . S
C154 C155 1.369 . S
C154 H163 0.929 . S
C155 N152 1.346 . S
C155 C154 1.369 . S
C155 H158 0.928 . S
C156 N152 1.345 . S
C156 C157 1.371 . S
C156 H159 0.931 . S
C157 C153 1.391 . S
C157 C156 1.371 . S
C157 H164 0.930 . S
H158 C155 0.928 . S
H159 C156 0.931 . S
H160 C136 0.930 . S
H161 C133 0.930 . S
H162 C142 0.930 . S
H163 C154 0.929 . S
H164 C157 0.930 . S
C165 C166 1.351 . S
C165 N168 1.368 . S
C165 H170 0.931 . S
C166 C165 1.351 . S
C166 N167 1.373 . S
C166 H194 0.930 . S
N167 C166 1.373 . S
N167 C169 1.340 . S
N168 C165 1.368 . S
N168 C169 1.321 . S
N168 Co171 2.135 . S
C169 N167 1.340 . S
C169 N168 1.321 . S
C169 H193 0.930 . S
H170 C165 0.931 . S
Co171 N168 2.135 . S
Co171 N174 2.121 . S
Co171 O179 2.055 . S
Co171 O182 2.039 . S
Co171 N185 2.140 . S
C172 O173 1.227 . S
C172 O182 1.265 . S
O173 C172 1.227 . S
N174 Co171 2.121 . S
N174 C176 1.375 . S
N174 C177 1.313 . S
C175 C176 1.338 . S
C175 N178 1.377 . S
C175 H195 0.930 . S
C176 N174 1.375 . S
C176 C175 1.338 . S
C176 H180 0.931 . S
C177 N174 1.313 . S
C177 N178 1.344 . S
C177 H181 0.930 . S
N178 C175 1.377 . S
N178 C177 1.344 . S
O179 Co171 2.055 . S
O179 C183 1.253 . S
H180 C176 0.931 . S
H181 C177 0.930 . S
O182 Co171 2.039 . S
O182 C172 1.265 . S
C183 O179 1.253 . S
C183 O184 1.227 . S
O184 C183 1.227 . S
N185 Co171 2.140 . S
N185 C188 1.346 . S
N185 C189 1.345 . S
C186 C187 1.387 . S
C186 C190 1.391 . S
C187 C186 1.387 . S
C187 C188 1.369 . S
C187 H196 0.929 . S
C188 N185 1.346 . S
C188 C187 1.369 . S
C188 H191 0.928 . S
C189 N185 1.345 . S
C189 C190 1.371 . S
C189 H192 0.931 . S
C190 C186 1.391 . S
C190 C189 1.371 . S
C190 H197 0.930 . S
H191 C188 0.928 . S
H192 C189 0.931 . S
H193 C169 0.930 . S
H194 C166 0.930 . S
H195 C175 0.930 . S
H196 C187 0.929 . S
H197 C190 0.930 . S
C198 C199 1.351 . S
C198 N201 1.368 . S
C198 H203 0.931 . S
C199 C198 1.351 . S
C199 N200 1.373 . S
C199 H227 0.930 . S
N200 C199 1.373 . S
N200 C202 1.340 . S
N201 C198 1.368 . S
N201 C202 1.321 . S
N201 Co204 2.135 . S
C202 N200 1.340 . S
C202 N201 1.321 . S
C202 H226 0.930 . S
H203 C198 0.931 . S
Co204 N201 2.135 . S
Co204 N207 2.121 . S
Co204 O212 2.055 . S
Co204 O215 2.039 . S
Co204 N218 2.140 . S
C205 O206 1.227 . S
C205 O215 1.265 . S
O206 C205 1.227 . S
N207 Co204 2.121 . S
N207 C209 1.375 1_455 S
N207 C210 1.313 1_455 S
C208 C209 1.338 . S
C208 N211 1.377 . S
C208 H228 0.930 . S
C209 N207 1.375 1_655 S
C209 C208 1.338 . S
C209 H213 0.931 1_655 S
C210 N207 1.313 1_655 S
C210 N211 1.344 . S
C210 H214 0.930 . S
N211 C208 1.377 . S
N211 C210 1.344 . S
O212 Co204 2.055 . S
O212 C216 1.253 . S
H213 C209 0.931 1_455 S
H214 C210 0.930 . S
O215 Co204 2.039 . S
O215 C205 1.265 . S
C216 O212 1.253 . S
C216 O217 1.211 1_455 S
O217 C216 1.211 1_655 S
N218 Co204 2.140 . S
N218 C221 1.346 . S
N218 C222 1.345 1_455 S
C219 C220 1.387 1_655 S
C219 C223 1.391 . S
C220 C219 1.387 1_455 S
C220 C221 1.369 . S
C220 H229 0.929 . S
C221 N218 1.346 . S
C221 C220 1.369 . S
C221 H224 0.928 . S
C222 N218 1.345 1_655 S
C222 C223 1.371 . S
C222 H225 0.931 . S
C223 C219 1.391 . S
C223 C222 1.371 . S
C223 H230 0.930 . S
H224 C221 0.928 . S
H225 C222 0.931 . S
H226 C202 0.930 . S
H227 C199 0.930 . S
H228 C208 0.930 . S
H229 C220 0.929 . S
H230 C223 0.930 . S
C231 C232 1.351 1_554 S
C231 N234 1.368 . S
C231 H236 0.931 1_554 S
C232 C231 1.351 1_556 S
C232 N233 1.373 1_556 S
C232 H260 0.930 . S
N233 C232 1.373 1_554 S
N233 C235 1.340 . S
N234 C231 1.368 . S
N234 C235 1.321 . S
N234 Co237 2.135 . S
C235 N233 1.340 . S
C235 N234 1.321 . S
C235 H259 0.930 . S
H236 C231 0.931 1_556 S
Co237 N234 2.135 . S
Co237 N240 2.121 . S
Co237 O245 2.055 . S
Co237 O248 2.039 . S
Co237 N251 2.140 . S
C238 O239 1.227 . S
C238 O248 1.265 . S
O239 C238 1.227 . S
N240 Co237 2.121 . S
N240 C242 1.375 . S
N240 C243 1.313 . S
C241 C242 1.338 . S
C241 N244 1.377 . S
C241 H261 0.930 . S
C242 N240 1.375 . S
C242 C241 1.338 . S
C242 H246 0.931 . S
C243 N240 1.313 . S
C243 N244 1.344 . S
C243 H247 0.930 . S
N244 C241 1.377 . S
N244 C243 1.344 . S
O245 Co237 2.055 . S
O245 C249 1.253 . S
H246 C242 0.931 . S
H247 C243 0.930 . S
O248 Co237 2.039 . S
O248 C238 1.265 . S
C249 O245 1.253 . S
C249 O250 1.227 . S
O250 C249 1.227 . S
N251 Co237 2.140 . S
N251 C254 1.346 . S
N251 C255 1.345 . S
C252 C253 1.387 . S
C252 C256 1.391 . S
C253 C252 1.387 . S
C253 C254 1.369 . S
C253 H262 0.929 . S
C254 N251 1.346 . S
C254 C253 1.369 . S
C254 H257 0.928 . S
C255 N251 1.345 . S
C255 C256 1.371 . S
C255 H258 0.931 . S
C256 C252 1.391 . S
C256 C255 1.371 . S
C256 H263 0.930 . S
H257 C254 0.928 . S
H258 C255 0.931 . S
H259 C235 0.930 . S
H260 C232 0.930 . S
H261 C241 0.930 . S
H262 C253 0.929 . S
H263 C256 0.930 . S
C264 C265 1.351 . S
C264 N267 1.368 . S
C264 H269 0.931 1_565 S
C265 C264 1.351 . S
C265 N266 1.373 . S
C265 H293 0.930 . S
N266 C265 1.373 . S
N266 C268 1.340 . S
N267 C264 1.368 . S
N267 C268 1.321 . S
N267 Co270 2.135 1_565 S
C268 N266 1.340 . S
C268 N267 1.321 . S
C268 H292 0.930 . S
H269 C264 0.931 1_545 S
Co270 N267 2.135 1_545 S
Co270 N273 2.121 . S
Co270 O278 2.055 . S
Co270 O281 2.039 1_545 S
Co270 N284 2.140 . S
C271 O272 1.227 1_554 S
C271 O281 1.265 . S
O272 C271 1.227 1_556 S
N273 Co270 2.121 . S
N273 C275 1.375 . S
N273 C276 1.313 . S
C274 C275 1.338 . S
C274 N277 1.377 . S
C274 H294 0.930 . S
C275 N273 1.375 . S
C275 C274 1.338 . S
C275 H279 0.931 . S
C276 N273 1.313 . S
C276 N277 1.344 . S
C276 H280 0.930 . S
N277 C274 1.377 . S
N277 C276 1.344 . S
O278 Co270 2.055 . S
O278 C282 1.253 . S
H279 C275 0.931 . S
H280 C276 0.930 . S
O281 Co270 2.039 1_565 S
O281 C271 1.265 . S
C282 O278 1.253 . S
C282 O283 1.227 . S
O283 C282 1.227 . S
N284 Co270 2.140 . S
N284 C287 1.346 1_554 S
N284 C288 1.345 . S
C285 C286 1.387 . S
C285 C289 1.391 . S
C286 C285 1.387 . S
C286 C287 1.369 . S
C286 H295 0.929 . S
C287 N284 1.346 1_556 S
C287 C286 1.369 . S
C287 H290 0.928 . S
C288 N284 1.345 . S
C288 C289 1.371 1_554 S
C288 H291 0.931 . S
C289 C285 1.391 . S
C289 C288 1.371 1_556 S
C289 H296 0.930 . S
H290 C287 0.928 . S
H291 C288 0.931 . S
H292 C268 0.930 . S
H293 C265 0.930 . S
H294 C274 0.930 . S
H295 C286 0.929 . S
H296 C289 0.930 . S
C297 C298 1.351 . S
C297 N300 1.368 . S
C297 H302 0.931 . S
C298 C297 1.351 . S
C298 N299 1.373 . S
C298 H326 0.930 . S
N299 C298 1.373 . S
N299 C301 1.340 . S
N300 C297 1.368 . S
N300 C301 1.321 . S
N300 Co303 2.135 . S
C301 N299 1.340 . S
C301 N300 1.321 . S
C301 H325 0.930 . S
H302 C297 0.931 . S
Co303 N300 2.135 . S
Co303 N306 2.121 . S
Co303 O311 2.055 . S
Co303 O314 2.039 . S
Co303 N317 2.140 . S
C304 O305 1.227 . S
C304 O314 1.265 . S
O305 C304 1.227 . S
N306 Co303 2.121 . S
N306 C308 1.375 . S
N306 C309 1.313 . S
C307 C308 1.338 . S
C307 N310 1.377 . S
C307 H327 0.930 . S
C308 N306 1.375 . S
C308 C307 1.338 . S
C308 H312 0.931 . S
C309 N306 1.313 . S
C309 N310 1.344 . S
C309 H313 0.930 . S
N310 C307 1.377 . S
N310 C309 1.344 . S
O311 Co303 2.055 . S
O311 C315 1.253 . S
H312 C308 0.931 . S
H313 C309 0.930 . S
O314 Co303 2.039 . S
O314 C304 1.265 . S
C315 O311 1.253 . S
C315 O316 1.227 . S
O316 C315 1.227 . S
N317 Co303 2.140 . S
N317 C320 1.346 . S
N317 C321 1.345 . S
C318 C319 1.387 . S
C318 C322 1.391 . S
C319 C318 1.387 . S
C319 C320 1.369 . S
C319 H328 0.929 . S
C320 N317 1.346 . S
C320 C319 1.369 . S
C320 H323 0.928 . S
C321 N317 1.345 . S
C321 C322 1.371 . S
C321 H324 0.931 . S
C322 C318 1.391 . S
C322 C321 1.371 . S
C322 H329 0.930 . S
H323 C320 0.928 . S
H324 C321 0.931 . S
H325 C301 0.930 . S
H326 C298 0.930 . S
H327 C307 0.930 . S
H328 C319 0.929 . S
H329 C322 0.930 . S
C330 C331 1.351 . S
C330 N333 1.368 . S
C330 H335 0.931 . S
C331 C330 1.351 . S
C331 N332 1.373 . S
C331 H359 0.930 . S
N332 C331 1.373 . S
N332 C334 1.340 . S
N333 C330 1.368 . S
N333 C334 1.321 . S
N333 Co336 2.135 . S
C334 N332 1.340 . S
C334 N333 1.321 . S
C334 H358 0.930 . S
H335 C330 0.931 . S
Co336 N333 2.135 . S
Co336 N339 2.121 . S
Co336 O344 2.055 . S
Co336 O347 2.039 . S
Co336 N350 2.140 . S
C337 O338 1.227 . S
C337 O347 1.265 . S
O338 C337 1.227 . S
N339 Co336 2.121 . S
N339 C341 1.375 1_545 S
N339 C342 1.313 1_545 S
C340 C341 1.338 . S
C340 N343 1.377 . S
C340 H360 0.930 . S
C341 N339 1.375 1_565 S
C341 C340 1.338 . S
C341 H345 0.931 1_565 S
C342 N339 1.313 1_565 S
C342 N343 1.344 . S
C342 H346 0.930 . S
N343 C340 1.377 . S
N343 C342 1.344 . S
O344 Co336 2.055 . S
O344 C348 1.253 . S
H345 C341 0.931 1_545 S
H346 C342 0.930 . S
O347 Co336 2.039 . S
O347 C337 1.265 . S
C348 O344 1.253 . S
C348 O349 1.211 1_545 S
O349 C348 1.211 1_565 S
N350 Co336 2.140 . S
N350 C353 1.346 . S
N350 C354 1.345 1_545 S
C351 C352 1.387 1_565 S
C351 C355 1.391 . S
C352 C351 1.387 1_545 S
C352 C353 1.369 . S
C352 H361 0.929 . S
C353 N350 1.346 . S
C353 C352 1.369 . S
C353 H356 0.928 . S
C354 N350 1.345 1_565 S
C354 C355 1.371 . S
C354 H357 0.931 . S
C355 C351 1.391 . S
C355 C354 1.371 . S
C355 H362 0.930 . S
H356 C353 0.928 . S
H357 C354 0.931 . S
H358 C334 0.930 . S
H359 C331 0.930 . S
H360 C340 0.930 . S
H361 C352 0.929 . S
H362 C355 0.930 . S
C363 C364 1.351 . S
C363 N366 1.368 . S
C363 H368 0.931 . S
C364 C363 1.351 . S
C364 N365 1.373 . S
C364 H392 0.930 . S
N365 C364 1.373 . S
N365 C367 1.340 . S
N366 C363 1.368 . S
N366 C367 1.321 . S
N366 Co369 2.135 . S
C367 N365 1.340 . S
C367 N366 1.321 . S
C367 H391 0.930 . S
H368 C363 0.931 . S
Co369 N366 2.135 . S
Co369 N372 2.121 . S
Co369 O377 2.055 . S
Co369 O380 2.039 . S
Co369 N383 2.140 . S
C370 O371 1.227 . S
C370 O380 1.265 . S
O371 C370 1.227 . S
N372 Co369 2.121 . S
N372 C374 1.375 . S
N372 C375 1.313 . S
C373 C374 1.338 . S
C373 N376 1.377 . S
C373 H393 0.930 . S
C374 N372 1.375 . S
C374 C373 1.338 . S
C374 H378 0.931 . S
C375 N372 1.313 . S
C375 N376 1.344 . S
C375 H379 0.930 . S
N376 C373 1.377 . S
N376 C375 1.344 . S
O377 Co369 2.055 . S
O377 C381 1.253 . S
H378 C374 0.931 . S
H379 C375 0.930 . S
O380 Co369 2.039 . S
O380 C370 1.265 . S
C381 O377 1.253 . S
C381 O382 1.227 . S
O382 C381 1.227 . S
N383 Co369 2.140 . S
N383 C386 1.346 . S
N383 C387 1.345 . S
C384 C385 1.387 . S
C384 C388 1.391 . S
C385 C384 1.387 . S
C385 C386 1.369 . S
C385 H394 0.929 . S
C386 N383 1.346 . S
C386 C385 1.369 . S
C386 H389 0.928 . S
C387 N383 1.345 . S
C387 C388 1.371 . S
C387 H390 0.931 . S
C388 C384 1.391 . S
C388 C387 1.371 . S
C388 H395 0.930 . S
H389 C386 0.928 . S
H390 C387 0.931 . S
H391 C367 0.930 . S
H392 C364 0.930 . S
H393 C373 0.930 . S
H394 C385 0.929 . S
H395 C388 0.930 . S
C396 C397 1.351 . S
C396 N399 1.368 . S
C396 H401 0.931 1_554 S
C397 C396 1.351 . S
C397 N398 1.373 . S
C397 H425 0.930 . S
N398 C397 1.373 . S
N398 C400 1.340 . S
N399 C396 1.368 . S
N399 C400 1.321 . S
N399 Co402 2.135 . S
C400 N398 1.340 . S
C400 N399 1.321 . S
C400 H424 0.930 . S
H401 C396 0.931 1_556 S
Co402 N399 2.135 . S
Co402 N405 2.121 1_554 S
Co402 O410 2.055 1_554 S
Co402 O413 2.039 . S
Co402 N416 2.140 . S
C403 O404 1.227 . S
C403 O413 1.265 . S
O404 C403 1.227 . S
N405 Co402 2.121 1_556 S
N405 C407 1.375 1_556 S
N405 C408 1.313 . S
C406 C407 1.338 . S
C406 N409 1.377 1_554 S
C406 H426 0.930 . S
C407 N405 1.375 1_554 S
C407 C406 1.338 . S
C407 H411 0.931 . S
C408 N405 1.313 . S
C408 N409 1.344 . S
C408 H412 0.930 . S
N409 C406 1.377 1_556 S
N409 C408 1.344 . S
O410 Co402 2.055 1_556 S
O410 C414 1.253 . S
H411 C407 0.931 . S
H412 C408 0.930 . S
O413 Co402 2.039 . S
O413 C403 1.265 . S
C414 O410 1.253 . S
C414 O415 1.227 . S
O415 C414 1.227 . S
N416 Co402 2.140 . S
N416 C419 1.346 . S
N416 C420 1.345 . S
C417 C418 1.387 . S
C417 C421 1.391 . S
C418 C417 1.387 . S
C418 C419 1.369 . S
C418 H427 0.929 . S
C419 N416 1.346 . S
C419 C418 1.369 . S
C419 H422 0.928 . S
C420 N416 1.345 . S
C420 C421 1.371 . S
C420 H423 0.931 . S
C421 C417 1.391 . S
C421 C420 1.371 . S
C421 H428 0.930 . S
H422 C419 0.928 . S
H423 C420 0.931 . S
H424 C400 0.930 . S
H425 C397 0.930 . S
H426 C406 0.930 . S
H427 C418 0.929 . S
H428 C421 0.930 . S
C429 C430 1.351 . S
C429 N432 1.368 . S
C429 H434 0.931 . S
C430 C429 1.351 . S
C430 N431 1.373 . S
C430 H458 0.930 . S
N431 C430 1.373 . S
N431 C433 1.340 . S
N432 C429 1.368 . S
N432 C433 1.321 . S
N432 Co435 2.135 1_545 S
C433 N431 1.340 . S
C433 N432 1.321 . S
C433 H457 0.930 1_545 S
H434 C429 0.931 . S
Co435 N432 2.135 1_565 S
Co435 N438 2.121 . S
Co435 O443 2.055 . S
Co435 O446 2.039 . S
Co435 N449 2.140 . S
C436 O437 1.227 . S
C436 O446 1.265 . S
O437 C436 1.227 . S
N438 Co435 2.121 . S
N438 C440 1.375 . S
N438 C441 1.313 . S
C439 C440 1.338 . S
C439 N442 1.377 . S
C439 H459 0.930 . S
C440 N438 1.375 . S
C440 C439 1.338 . S
C440 H444 0.931 . S
C441 N438 1.313 . S
C441 N442 1.344 . S
C441 H445 0.930 . S
N442 C439 1.377 . S
N442 C441 1.344 . S
O443 Co435 2.055 . S
O443 C447 1.253 1_565 S
H444 C440 0.931 . S
H445 C441 0.930 . S
O446 Co435 2.039 . S
O446 C436 1.265 . S
C447 O443 1.253 1_545 S
C447 O448 1.227 . S
O448 C447 1.227 . S
N449 Co435 2.140 . S
N449 C452 1.346 . S
N449 C453 1.345 . S
C450 C451 1.387 . S
C450 C454 1.391 . S
C451 C450 1.387 . S
C451 C452 1.369 1_545 S
C451 H460 0.929 . S
C452 N449 1.346 . S
C452 C451 1.369 1_565 S
C452 H455 0.928 . S
C453 N449 1.345 . S
C453 C454 1.371 1_565 S
C453 H456 0.931 . S
C454 C450 1.391 . S
C454 C453 1.371 1_545 S
C454 H461 0.930 . S
H455 C452 0.928 . S
H456 C453 0.931 . S
H457 C433 0.930 1_565 S
H458 C430 0.930 . S
H459 C439 0.930 . S
H460 C451 0.929 . S
H461 C454 0.930 . S
C462 C463 1.351 . S
C462 N465 1.368 . S
C462 H467 0.931 . S
C463 C462 1.351 . S
C463 N464 1.373 . S
C463 H491 0.930 . S
N464 C463 1.373 . S
N464 C466 1.340 . S
N465 C462 1.368 . S
N465 C466 1.321 . S
N465 Co468 2.135 . S
C466 N464 1.340 . S
C466 N465 1.321 . S
C466 H490 0.930 . S
H467 C462 0.931 . S
Co468 N465 2.135 . S
Co468 N471 2.121 . S
Co468 O476 2.055 . S
Co468 O479 2.039 . S
Co468 N482 2.140 . S
C469 O470 1.227 . S
C469 O479 1.265 . S
O470 C469 1.227 . S
N471 Co468 2.121 . S
N471 C473 1.375 . S
N471 C474 1.313 . S
C472 C473 1.338 . S
C472 N475 1.377 . S
C472 H492 0.930 . S
C473 N471 1.375 . S
C473 C472 1.338 . S
C473 H477 0.931 . S
C474 N471 1.313 . S
C474 N475 1.344 . S
C474 H478 0.930 . S
N475 C472 1.377 . S
N475 C474 1.344 . S
O476 Co468 2.055 . S
O476 C480 1.253 . S
H477 C473 0.931 . S
H478 C474 0.930 . S
O479 Co468 2.039 . S
O479 C469 1.265 . S
C480 O476 1.253 . S
C480 O481 1.227 . S
O481 C480 1.227 . S
N482 Co468 2.140 . S
N482 C485 1.346 . S
N482 C486 1.345 . S
C483 C484 1.387 . S
C483 C487 1.391 . S
C484 C483 1.387 . S
C484 C485 1.369 . S
C484 H493 0.929 . S
C485 N482 1.346 . S
C485 C484 1.369 . S
C485 H488 0.928 . S
C486 N482 1.345 . S
C486 C487 1.371 . S
C486 H489 0.931 . S
C487 C483 1.391 . S
C487 C486 1.371 . S
C487 H494 0.930 . S
H488 C485 0.928 . S
H489 C486 0.931 . S
H490 C466 0.930 . S
H491 C463 0.930 . S
H492 C472 0.930 . S
H493 C484 0.929 . S
H494 C487 0.930 . S
C495 C496 1.351 1_545 S
C495 N498 1.368 . S
C495 H500 0.931 1_545 S
C496 C495 1.351 1_565 S
C496 N497 1.373 1_565 S
C496 H524 0.930 . S
N497 C496 1.373 1_545 S
N497 C499 1.340 . S
N498 C495 1.368 . S
N498 C499 1.321 . S
N498 Co501 2.135 . S
C499 N497 1.340 . S
C499 N498 1.321 . S
C499 H523 0.930 . S
H500 C495 0.931 1_565 S
Co501 N498 2.135 . S
Co501 N504 2.121 . S
Co501 O509 2.055 . S
Co501 O512 2.039 . S
Co501 N515 2.140 . S
C502 O503 1.227 . S
C502 O512 1.265 . S
O503 C502 1.227 . S
N504 Co501 2.121 . S
N504 C506 1.375 . S
N504 C507 1.313 . S
C505 C506 1.338 . S
C505 N508 1.377 . S
C505 H525 0.930 . S
C506 N504 1.375 . S
C506 C505 1.338 . S
C506 H510 0.931 . S
C507 N504 1.313 . S
C507 N508 1.344 . S
C507 H511 0.930 . S
N508 C505 1.377 . S
N508 C507 1.344 . S
O509 Co501 2.055 . S
O509 C513 1.253 . S
H510 C506 0.931 . S
H511 C507 0.930 . S
O512 Co501 2.039 . S
O512 C502 1.265 . S
C513 O509 1.253 . S
C513 O514 1.227 . S
O514 C513 1.227 . S
N515 Co501 2.140 . S
N515 C518 1.346 . S
N515 C519 1.345 . S
C516 C517 1.387 . S
C516 C520 1.391 . S
C517 C516 1.387 . S
C517 C518 1.369 . S
C517 H526 0.929 . S
C518 N515 1.346 . S
C518 C517 1.369 . S
C518 H521 0.928 . S
C519 N515 1.345 . S
C519 C520 1.371 . S
C519 H522 0.931 . S
C520 C516 1.391 . S
C520 C519 1.371 . S
C520 H527 0.930 . S
H521 C518 0.928 . S
H522 C519 0.931 . S
H523 C499 0.930 . S
H524 C496 0.930 . S
H525 C505 0.930 . S
H526 C517 0.929 . S
H527 C520 0.930 . S
C528 C529 1.351 . S
C528 N531 1.368 . S
C528 H533 0.931 1_556 S
C529 C528 1.351 . S
C529 N530 1.373 . S
C529 H557 0.930 . S
N530 C529 1.373 . S
N530 C532 1.340 . S
N531 C528 1.368 . S
N531 C532 1.321 . S
N531 Co534 2.135 1_556 S
C532 N530 1.340 . S
C532 N531 1.321 . S
C532 H556 0.930 . S
H533 C528 0.931 1_554 S
Co534 N531 2.135 1_554 S
Co534 N537 2.121 . S
Co534 O542 2.055 . S
Co534 O545 2.039 1_554 S
Co534 N548 2.140 . S
C535 O536 1.227 1_455 S
C535 O545 1.265 . S
O536 C535 1.227 1_655 S
N537 Co534 2.121 . S
N537 C539 1.375 . S
N537 C540 1.313 . S
C538 C539 1.338 . S
C538 N541 1.377 . S
C538 H558 0.930 . S
C539 N537 1.375 . S
C539 C538 1.338 . S
C539 H543 0.931 . S
C540 N537 1.313 . S
C540 N541 1.344 . S
C540 H544 0.930 . S
N541 C538 1.377 . S
N541 C540 1.344 . S
O542 Co534 2.055 . S
O542 C546 1.253 . S
H543 C539 0.931 . S
H544 C540 0.930 . S
O545 Co534 2.039 1_556 S
O545 C535 1.265 . S
C546 O542 1.253 . S
C546 O547 1.227 . S
O547 C546 1.227 . S
N548 Co534 2.140 . S
N548 C551 1.346 1_455 S
N548 C552 1.345 . S
C549 C550 1.387 . S
C549 C553 1.391 . S
C550 C549 1.387 . S
C550 C551 1.369 . S
C550 H559 0.929 . S
C551 N548 1.346 1_655 S
C551 C550 1.369 . S
C551 H554 0.928 . S
C552 N548 1.345 . S
C552 C553 1.371 1_455 S
C552 H555 0.931 . S
C553 C549 1.391 . S
C553 C552 1.371 1_655 S
C553 H560 0.930 . S
H554 C551 0.928 . S
H555 C552 0.931 . S
H556 C532 0.930 . S
H557 C529 0.930 . S
H558 C538 0.930 . S
H559 C550 0.929 . S
H560 C553 0.930 . S
C561 C562 1.351 . S
C561 N564 1.368 . S
C561 H566 0.931 . S
C562 C561 1.351 . S
C562 N563 1.373 . S
C562 H590 0.930 . S
N563 C562 1.373 . S
N563 C565 1.340 . S
N564 C561 1.368 . S
N564 C565 1.321 . S
N564 Co567 2.135 . S
C565 N563 1.340 . S
C565 N564 1.321 . S
C565 H589 0.930 . S
H566 C561 0.931 . S
Co567 N564 2.135 . S
Co567 N570 2.121 . S
Co567 O575 2.055 . S
Co567 O578 2.039 . S
Co567 N581 2.140 . S
C568 O569 1.227 . S
C568 O578 1.265 . S
O569 C568 1.227 . S
N570 Co567 2.121 . S
N570 C572 1.375 1_554 S
N570 C573 1.313 1_554 S
C571 C572 1.338 . S
C571 N574 1.377 . S
C571 H591 0.930 . S
C572 N570 1.375 1_556 S
C572 C571 1.338 . S
C572 H576 0.931 1_556 S
C573 N570 1.313 1_556 S
C573 N574 1.344 . S
C573 H577 0.930 . S
N574 C571 1.377 . S
N574 C573 1.344 . S
O575 Co567 2.055 . S
O575 C579 1.253 . S
H576 C572 0.931 1_554 S
H577 C573 0.930 . S
O578 Co567 2.039 . S
O578 C568 1.265 . S
C579 O575 1.253 . S
C579 O580 1.211 1_554 S
O580 C579 1.211 1_556 S
N581 Co567 2.140 . S
N581 C584 1.346 . S
N581 C585 1.345 1_554 S
C582 C583 1.387 1_556 S
C582 C586 1.391 . S
C583 C582 1.387 1_554 S
C583 C584 1.369 . S
C583 H592 0.929 . S
C584 N581 1.346 . S
C584 C583 1.369 . S
C584 H587 0.928 . S
C585 N581 1.345 1_556 S
C585 C586 1.371 . S
C585 H588 0.931 . S
C586 C582 1.391 . S
C586 C585 1.371 . S
C586 H593 0.930 . S
H587 C584 0.928 . S
H588 C585 0.931 . S
H589 C565 0.930 . S
H590 C562 0.930 . S
H591 C571 0.930 . S
H592 C583 0.929 . S
H593 C586 0.930 . S
C594 C595 1.351 . S
C594 N597 1.368 . S
C594 H599 0.931 . S
C595 C594 1.351 . S
C595 N596 1.373 . S
C595 H623 0.930 . S
N596 C595 1.373 . S
N596 C598 1.340 . S
N597 C594 1.368 . S
N597 C598 1.321 . S
N597 Co600 2.135 . S
C598 N596 1.340 . S
C598 N597 1.321 . S
C598 H622 0.930 . S
H599 C594 0.931 . S
Co600 N597 2.135 . S
Co600 N603 2.121 . S
Co600 O608 2.055 . S
Co600 O611 2.039 . S
Co600 N614 2.140 . S
C601 O602 1.227 . S
C601 O611 1.265 . S
O602 C601 1.227 . S
N603 Co600 2.121 . S
N603 C605 1.375 . S
N603 C606 1.313 . S
C604 C605 1.338 . S
C604 N607 1.377 . S
C604 H624 0.930 . S
C605 N603 1.375 . S
C605 C604 1.338 . S
C605 H609 0.931 . S
C606 N603 1.313 . S
C606 N607 1.344 . S
C606 H610 0.930 . S
N607 C604 1.377 . S
N607 C606 1.344 . S
O608 Co600 2.055 . S
O608 C612 1.253 . S
H609 C605 0.931 . S
H610 C606 0.930 . S
O611 Co600 2.039 . S
O611 C601 1.265 . S
C612 O608 1.253 . S
C612 O613 1.227 . S
O613 C612 1.227 . S
N614 Co600 2.140 . S
N614 C617 1.346 . S
N614 C618 1.345 . S
C615 C616 1.387 . S
C615 C619 1.391 . S
C616 C615 1.387 . S
C616 C617 1.369 . S
C616 H625 0.929 . S
C617 N614 1.346 . S
C617 C616 1.369 . S
C617 H620 0.928 . S
C618 N614 1.345 . S
C618 C619 1.371 . S
C618 H621 0.931 . S
C619 C615 1.391 . S
C619 C618 1.371 . S
C619 H626 0.930 . S
H620 C617 0.928 . S
H621 C618 0.931 . S
H622 C598 0.930 . S
H623 C595 0.930 . S
H624 C604 0.930 . S
H625 C616 0.929 . S
H626 C619 0.930 . S
C627 C628 1.351 . S
C627 N630 1.368 . S
C627 H632 0.931 1_455 S
C628 C627 1.351 . S
C628 N629 1.373 . S
C628 H656 0.930 . S
N629 C628 1.373 . S
N629 C631 1.340 . S
N630 C627 1.368 . S
N630 C631 1.321 . S
N630 Co633 2.135 . S
C631 N629 1.340 . S
C631 N630 1.321 . S
C631 H655 0.930 . S
H632 C627 0.931 1_655 S
Co633 N630 2.135 . S
Co633 N636 2.121 1_455 S
Co633 O641 2.055 1_455 S
Co633 O644 2.039 . S
Co633 N647 2.140 . S
C634 O635 1.227 . S
C634 O644 1.265 . S
O635 C634 1.227 . S
N636 Co633 2.121 1_655 S
N636 C638 1.375 1_655 S
N636 C639 1.313 . S
C637 C638 1.338 . S
C637 N640 1.377 1_455 S
C637 H657 0.930 . S
C638 N636 1.375 1_455 S
C638 C637 1.338 . S
C638 H642 0.931 . S
C639 N636 1.313 . S
C639 N640 1.344 . S
C639 H643 0.930 . S
N640 C637 1.377 1_655 S
N640 C639 1.344 . S
O641 Co633 2.055 1_655 S
O641 C645 1.253 . S
H642 C638 0.931 . S
H643 C639 0.930 . S
O644 Co633 2.039 . S
O644 C634 1.265 . S
C645 O641 1.253 . S
C645 O646 1.227 . S
O646 C645 1.227 . S
N647 Co633 2.140 . S
N647 C650 1.346 . S
N647 C651 1.345 . S
C648 C649 1.387 . S
C648 C652 1.391 . S
C649 C648 1.387 . S
C649 C650 1.369 . S
C649 H658 0.929 . S
C650 N647 1.346 . S
C650 C649 1.369 . S
C650 H653 0.928 . S
C651 N647 1.345 . S
C651 C652 1.371 . S
C651 H654 0.931 . S
C652 C648 1.391 . S
C652 C651 1.371 . S
C652 H659 0.930 . S
H653 C650 0.928 . S
H654 C651 0.931 . S
H655 C631 0.930 . S
H656 C628 0.930 . S
H657 C637 0.930 . S
H658 C649 0.929 . S
H659 C652 0.930 . S
C660 C661 1.351 1_455 S
C660 N663 1.368 . S
C660 H665 0.931 1_455 S
C661 C660 1.351 1_655 S
C661 N662 1.373 1_655 S
C661 H689 0.930 . S
N662 C661 1.373 1_455 S
N662 C664 1.340 . S
N663 C660 1.368 . S
N663 C664 1.321 . S
N663 Co666 2.135 . S
C664 N662 1.340 . S
C664 N663 1.321 . S
C664 H688 0.930 . S
H665 C660 0.931 1_655 S
Co666 N663 2.135 . S
Co666 N669 2.121 . S
Co666 O674 2.055 . S
Co666 O677 2.039 . S
Co666 N680 2.140 . S
C667 O668 1.227 . S
C667 O677 1.265 . S
O668 C667 1.227 . S
N669 Co666 2.121 . S
N669 C671 1.375 . S
N669 C672 1.313 . S
C670 C671 1.338 . S
C670 N673 1.377 . S
C670 H690 0.930 . S
C671 N669 1.375 . S
C671 C670 1.338 . S
C671 H675 0.931 . S
C672 N669 1.313 . S
C672 N673 1.344 . S
C672 H676 0.930 . S
N673 C670 1.377 . S
N673 C672 1.344 . S
O674 Co666 2.055 . S
O674 C678 1.253 . S
H675 C671 0.931 . S
H676 C672 0.930 . S
O677 Co666 2.039 . S
O677 C667 1.265 . S
C678 O674 1.253 . S
C678 O679 1.227 . S
O679 C678 1.227 . S
N680 Co666 2.140 . S
N680 C683 1.346 . S
N680 C684 1.345 . S
C681 C682 1.387 . S
C681 C685 1.391 . S
C682 C681 1.387 . S
C682 C683 1.369 . S
C682 H691 0.929 . S
C683 N680 1.346 . S
C683 C682 1.369 . S
C683 H686 0.928 . S
C684 N680 1.345 . S
C684 C685 1.371 . S
C684 H687 0.931 . S
C685 C681 1.391 . S
C685 C684 1.371 . S
C685 H692 0.930 . S
H686 C683 0.928 . S
H687 C684 0.931 . S
H688 C664 0.930 . S
H689 C661 0.930 . S
H690 C670 0.930 . S
H691 C682 0.929 . S
H692 C685 0.930 . S
C693 C694 1.351 . S
C693 N696 1.368 . S
C693 H698 0.931 . S
C694 C693 1.351 . S
C694 N695 1.373 . S
C694 H722 0.930 . S
N695 C694 1.373 . S
N695 C697 1.340 . S
N696 C693 1.368 . S
N696 C697 1.321 . S
N696 Co699 2.135 . S
C697 N695 1.340 . S
C697 N696 1.321 . S
C697 H721 0.930 . S
H698 C693 0.931 . S
Co699 N696 2.135 . S
Co699 N702 2.121 . S
Co699 O707 2.055 . S
Co699 O710 2.039 . S
Co699 N713 2.140 . S
C700 O701 1.227 . S
C700 O710 1.265 . S
O701 C700 1.227 . S
N702 Co699 2.121 . S
N702 C704 1.375 . S
N702 C705 1.313 . S
C703 C704 1.338 . S
C703 N706 1.377 . S
C703 H723 0.930 . S
C704 N702 1.375 . S
C704 C703 1.338 . S
C704 H708 0.931 . S
C705 N702 1.313 . S
C705 N706 1.344 . S
C705 H709 0.930 . S
N706 C703 1.377 . S
N706 C705 1.344 . S
O707 Co699 2.055 . S
O707 C711 1.253 . S
H708 C704 0.931 . S
H709 C705 0.930 . S
O710 Co699 2.039 . S
O710 C700 1.265 . S
C711 O707 1.253 . S
C711 O712 1.227 . S
O712 C711 1.227 . S
N713 Co699 2.140 . S
N713 C716 1.346 . S
N713 C717 1.345 . S
C714 C715 1.387 . S
C714 C718 1.391 . S
C715 C714 1.387 . S
C715 C716 1.369 . S
C715 H724 0.929 . S
C716 N713 1.346 . S
C716 C715 1.369 . S
C716 H719 0.928 . S
C717 N713 1.345 . S
C717 C718 1.371 . S
C717 H720 0.931 . S
C718 C714 1.391 . S
C718 C717 1.371 . S
C718 H725 0.930 . S
H719 C716 0.928 . S
H720 C717 0.931 . S
H721 C697 0.930 . S
H722 C694 0.930 . S
H723 C703 0.930 . S
H724 C715 0.929 . S
H725 C718 0.930 . S
C726 C727 1.351 . S
C726 N729 1.368 . S
C726 H731 0.931 . S
C727 C726 1.351 . S
C727 N728 1.373 . S
C727 H755 0.930 . S
N728 C727 1.373 . S
N728 C730 1.340 . S
N729 C726 1.368 . S
N729 C730 1.321 . S
N729 Co732 2.135 1_455 S
C730 N728 1.340 . S
C730 N729 1.321 . S
C730 H754 0.930 1_455 S
H731 C726 0.931 . S
Co732 N729 2.135 1_655 S
Co732 N735 2.121 . S
Co732 O740 2.055 . S
Co732 O743 2.039 . S
Co732 N746 2.140 . S
C733 O734 1.227 . S
C733 O743 1.265 . S
O734 C733 1.227 . S
N735 Co732 2.121 . S
N735 C737 1.375 . S
N735 C738 1.313 . S
C736 C737 1.338 . S
C736 N739 1.377 . S
C736 H756 0.930 . S
C737 N735 1.375 . S
C737 C736 1.338 . S
C737 H741 0.931 . S
C738 N735 1.313 . S
C738 N739 1.344 . S
C738 H742 0.930 . S
N739 C736 1.377 . S
N739 C738 1.344 . S
O740 Co732 2.055 . S
O740 C744 1.253 1_655 S
H741 C737 0.931 . S
H742 C738 0.930 . S
O743 Co732 2.039 . S
O743 C733 1.265 . S
C744 O740 1.253 1_455 S
C744 O745 1.227 . S
O745 C744 1.227 . S
N746 Co732 2.140 . S
N746 C749 1.346 . S
N746 C750 1.345 . S
C747 C748 1.387 . S
C747 C751 1.391 . S
C748 C747 1.387 . S
C748 C749 1.369 1_455 S
C748 H757 0.929 . S
C749 N746 1.346 . S
C749 C748 1.369 1_655 S
C749 H752 0.928 . S
C750 N746 1.345 . S
C750 C751 1.371 1_655 S
C750 H753 0.931 . S
C751 C747 1.391 . S
C751 C750 1.371 1_455 S
C751 H758 0.930 . S
H752 C749 0.928 . S
H753 C750 0.931 . S
H754 C730 0.930 1_655 S
H755 C727 0.930 . S
H756 C736 0.930 . S
H757 C748 0.929 . S
H758 C751 0.930 . S
C759 C760 1.351 . S
C759 N762 1.368 . S
C759 H764 0.931 . S
C760 C759 1.351 . S
C760 N761 1.373 . S
C760 H788 0.930 . S
N761 C760 1.373 . S
N761 C763 1.340 . S
N762 C759 1.368 . S
N762 C763 1.321 . S
N762 Co765 2.135 . S
C763 N761 1.340 . S
C763 N762 1.321 . S
C763 H787 0.930 . S
H764 C759 0.931 . S
Co765 N762 2.135 . S
Co765 N768 2.121 . S
Co765 O773 2.055 . S
Co765 O776 2.039 . S
Co765 N779 2.140 . S
C766 O767 1.227 . S
C766 O776 1.265 . S
O767 C766 1.227 . S
N768 Co765 2.121 . S
N768 C770 1.375 . S
N768 C771 1.313 . S
C769 C770 1.338 . S
C769 N772 1.377 . S
C769 H789 0.930 . S
C770 N768 1.375 . S
C770 C769 1.338 . S
C770 H774 0.931 . S
C771 N768 1.313 . S
C771 N772 1.344 . S
C771 H775 0.930 . S
N772 C769 1.377 . S
N772 C771 1.344 . S
O773 Co765 2.055 . S
O773 C777 1.253 . S
H774 C770 0.931 . S
H775 C771 0.930 . S
O776 Co765 2.039 . S
O776 C766 1.265 . S
C777 O773 1.253 . S
C777 O778 1.227 . S
O778 C777 1.227 . S
N779 Co765 2.140 . S
N779 C782 1.346 . S
N779 C783 1.345 . S
C780 C781 1.387 . S
C780 C784 1.391 . S
C781 C780 1.387 . S
C781 C782 1.369 . S
C781 H790 0.929 . S
C782 N779 1.346 . S
C782 C781 1.369 . S
C782 H785 0.928 . S
C783 N779 1.345 . S
C783 C784 1.371 . S
C783 H786 0.931 . S
C784 C780 1.391 . S
C784 C783 1.371 . S
C784 H791 0.930 . S
H785 C782 0.928 . S
H786 C783 0.931 . S
H787 C763 0.930 . S
H788 C760 0.930 . S
H789 C769 0.930 . S
H790 C781 0.929 . S
H791 C784 0.930 . S
C21 C681 2.655 . S
C582 C54 2.654 1_556 S
C615 C87 2.653 . S
C648 C120 2.653 . S
C153 C780 2.653 . S
C714 C186 2.653 . S
C747 C219 2.654 1_455 S
C549 C252 2.655 . S
C285 C516 2.655 . S
C417 C318 2.653 . S
C351 C450 2.654 1_565 S
C483 C384 2.653 . S
C634 N13 2.989 . S
N46 C667 2.989 . S
C568 N79 2.988 . S
N112 C601 2.988 . S
C700 N145 2.988 . S
C733 N178 2.988 . S
C535 N211 2.988 1_455 S
N244 C766 2.988 . S
N277 C73 2.989 . S
N310 C106 2.988 . S
N343 C7 2.988 1_565 S
C40 N376 2.988 . S
N409 C205 2.988 . S
C238 N442 2.989 . S
C139 N475 2.988 . S
C172 N508 2.988 . S
C403 N541 2.989 . S
C271 N574 2.988 1_554 S
N607 C304 2.988 . S
N640 C337 2.988 . S
C370 N673 2.988 . S
N706 C469 2.988 . S
C502 N739 2.989 . S
N772 C436 2.988 . S
C18 C744 2.006 . S
C546 C51 2.006 . S
C84 C777 2.006 . S
C711 C117 2.006 . S
C150 C612 2.006 . S
C645 C183 2.006 . S
C216 C678 2.006 . S
C579 C249 2.006 . S
C447 C282 2.006 . S
C480 C315 2.006 . S
C348 C513 2.006 . S
C381 C414 2.006 . S
N497 N2 0.758 . S
N35 N398 0.757 . S
N431 N68 0.757 . S
N464 N101 0.757 . S
N134 N299 0.757 . S
N332 N167 0.757 . S
N200 N365 0.757 . S
N266 N233 0.758 . S
N662 N530 0.758 . S
N761 N563 0.757 . S
N695 N596 0.757 . S
N728 N629 0.757 . S
