# Generated by pormake.
# Topology wlf, (5)-cn, num edge types: 1
# Building blocks:
#     Node 0, Type 0, BuildingBlock: XOMCOT_clean_sbu_1, # of connection points: 5
#     Node 1, Type 0, BuildingBlock: XOMCOT_clean_sbu_1, # of connection points: 5
#     Node 2, Type 0, BuildingBlock: XOMCOT_clean_sbu_1, # of connection points: 5
#     Node 3, Type 0, BuildingBlock: XOMCOT_clean_sbu_1, # of connection points: 5
#     Node 4, Type 0, BuildingBlock: XOMCOT_clean_sbu_1, # of connection points: 5
#     Node 5, Type 0, BuildingBlock: XOMCOT_clean_sbu_1, # of connection points: 5
#     Node 6, Type 0, BuildingBlock: XOMCOT_clean_sbu_1, # of connection points: 5
#     Node 7, Type 0, BuildingBlock: XOMCOT_clean_sbu_1, # of connection points: 5
#     Node 8, Type 0, BuildingBlock: XOMCOT_clean_sbu_1, # of connection points: 5
#     Node 9, Type 0, BuildingBlock: XOMCOT_clean_sbu_1, # of connection points: 5
#     Node 10, Type 0, BuildingBlock: XOMCOT_clean_sbu_1, # of connection points: 5
#     Node 11, Type 0, BuildingBlock: XOMCOT_clean_sbu_1, # of connection points: 5
#     Node 12, Type 0, BuildingBlock: XOMCOT_clean_sbu_1, # of connection points: 5
#     Node 13, Type 0, BuildingBlock: XOMCOT_clean_sbu_1, # of connection points: 5
#     Node 14, Type 0, BuildingBlock: XOMCOT_clean_sbu_1, # of connection points: 5
#     Node 15, Type 0, BuildingBlock: XOMCOT_clean_sbu_1, # of connection points: 5
#     Node 16, Type 0, BuildingBlock: XOMCOT_clean_sbu_1, # of connection points: 5
#     Node 17, Type 0, BuildingBlock: XOMCOT_clean_sbu_1, # of connection points: 5
#     Node 18, Type 0, BuildingBlock: XOMCOT_clean_sbu_1, # of connection points: 5
#     Node 19, Type 0, BuildingBlock: XOMCOT_clean_sbu_1, # of connection points: 5
#     Node 20, Type 0, BuildingBlock: XOMCOT_clean_sbu_1, # of connection points: 5
#     Node 21, Type 0, BuildingBlock: XOMCOT_clean_sbu_1, # of connection points: 5
#     Node 22, Type 0, BuildingBlock: XOMCOT_clean_sbu_1, # of connection points: 5
#     Node 23, Type 0, BuildingBlock: XOMCOT_clean_sbu_1, # of connection points: 5
#     Node 24, Type 0, BuildingBlock: XOMCOT_clean_sbu_1, # of connection points: 5
#     Node 25, Type 0, BuildingBlock: XOMCOT_clean_sbu_1, # of connection points: 5
#     Node 26, Type 0, BuildingBlock: XOMCOT_clean_sbu_1, # of connection points: 5
#     Node 27, Type 0, BuildingBlock: XOMCOT_clean_sbu_1, # of connection points: 5
#     Node 28, Type 0, BuildingBlock: XOMCOT_clean_sbu_1, # of connection points: 5
#     Node 29, Type 0, BuildingBlock: XOMCOT_clean_sbu_1, # of connection points: 5
#     Node 30, Type 0, BuildingBlock: XOMCOT_clean_sbu_1, # of connection points: 5
#     Node 31, Type 0, BuildingBlock: XOMCOT_clean_sbu_1, # of connection points: 5
#     Node 32, Type 0, BuildingBlock: XOMCOT_clean_sbu_1, # of connection points: 5
#     Node 33, Type 0, BuildingBlock: XOMCOT_clean_sbu_1, # of connection points: 5
#     Node 34, Type 0, BuildingBlock: XOMCOT_clean_sbu_1, # of connection points: 5
#     Node 35, Type 0, BuildingBlock: XOMCOT_clean_sbu_1, # of connection points: 5
#     Edge 36, Type (0, 0), BuildingBlock: AJUNOK_clean_linker_0, # of connection points: 2
#     Edge 37, Type (0, 0), BuildingBlock: AJUNOK_clean_linker_0, # of connection points: 2
#     Edge 38, Type (0, 0), BuildingBlock: AJUNOK_clean_linker_0, # of connection points: 2
#     Edge 39, Type (0, 0), BuildingBlock: AJUNOK_clean_linker_0, # of connection points: 2
#     Edge 40, Type (0, 0), BuildingBlock: AJUNOK_clean_linker_0, # of connection points: 2
#     Edge 41, Type (0, 0), BuildingBlock: AJUNOK_clean_linker_0, # of connection points: 2
#     Edge 42, Type (0, 0), BuildingBlock: AJUNOK_clean_linker_0, # of connection points: 2
#     Edge 43, Type (0, 0), BuildingBlock: AJUNOK_clean_linker_0, # of connection points: 2
#     Edge 44, Type (0, 0), BuildingBlock: AJUNOK_clean_linker_0, # of connection points: 2
#     Edge 45, Type (0, 0), BuildingBlock: AJUNOK_clean_linker_0, # of connection points: 2
#     Edge 46, Type (0, 0), BuildingBlock: AJUNOK_clean_linker_0, # of connection points: 2
#     Edge 47, Type (0, 0), BuildingBlock: AJUNOK_clean_linker_0, # of connection points: 2
#     Edge 48, Type (0, 0), BuildingBlock: AJUNOK_clean_linker_0, # of connection points: 2
#     Edge 49, Type (0, 0), BuildingBlock: AJUNOK_clean_linker_0, # of connection points: 2
#     Edge 50, Type (0, 0), BuildingBlock: AJUNOK_clean_linker_0, # of connection points: 2
#     Edge 51, Type (0, 0), BuildingBlock: AJUNOK_clean_linker_0, # of connection points: 2
#     Edge 52, Type (0, 0), BuildingBlock: AJUNOK_clean_linker_0, # of connection points: 2
#     Edge 53, Type (0, 0), BuildingBlock: AJUNOK_clean_linker_0, # of connection points: 2
#     Edge 54, Type (0, 0), BuildingBlock: AJUNOK_clean_linker_0, # of connection points: 2
#     Edge 55, Type (0, 0), BuildingBlock: AJUNOK_clean_linker_0, # of connection points: 2
#     Edge 56, Type (0, 0), BuildingBlock: AJUNOK_clean_linker_0, # of connection points: 2
#     Edge 57, Type (0, 0), BuildingBlock: AJUNOK_clean_linker_0, # of connection points: 2
#     Edge 58, Type (0, 0), BuildingBlock: AJUNOK_clean_linker_0, # of connection points: 2
#     Edge 59, Type (0, 0), BuildingBlock: AJUNOK_clean_linker_0, # of connection points: 2
#     Edge 60, Type (0, 0), BuildingBlock: AJUNOK_clean_linker_0, # of connection points: 2
#     Edge 61, Type (0, 0), BuildingBlock: AJUNOK_clean_linker_0, # of connection points: 2
#     Edge 62, Type (0, 0), BuildingBlock: AJUNOK_clean_linker_0, # of connection points: 2
#     Edge 63, Type (0, 0), BuildingBlock: AJUNOK_clean_linker_0, # of connection points: 2
#     Edge 64, Type (0, 0), BuildingBlock: AJUNOK_clean_linker_0, # of connection points: 2
#     Edge 65, Type (0, 0), BuildingBlock: AJUNOK_clean_linker_0, # of connection points: 2
#     Edge 66, Type (0, 0), BuildingBlock: AJUNOK_clean_linker_0, # of connection points: 2
#     Edge 67, Type (0, 0), BuildingBlock: AJUNOK_clean_linker_0, # of connection points: 2
#     Edge 68, Type (0, 0), BuildingBlock: AJUNOK_clean_linker_0, # of connection points: 2
#     Edge 69, Type (0, 0), BuildingBlock: AJUNOK_clean_linker_0, # of connection points: 2
#     Edge 70, Type (0, 0), BuildingBlock: AJUNOK_clean_linker_0, # of connection points: 2
#     Edge 71, Type (0, 0), BuildingBlock: AJUNOK_clean_linker_0, # of connection points: 2
#     Edge 72, Type (0, 0), BuildingBlock: AJUNOK_clean_linker_0, # of connection points: 2
#     Edge 73, Type (0, 0), BuildingBlock: AJUNOK_clean_linker_0, # of connection points: 2
#     Edge 74, Type (0, 0), BuildingBlock: AJUNOK_clean_linker_0, # of connection points: 2
#     Edge 75, Type (0, 0), BuildingBlock: AJUNOK_clean_linker_0, # of connection points: 2
#     Edge 76, Type (0, 0), BuildingBlock: AJUNOK_clean_linker_0, # of connection points: 2
#     Edge 77, Type (0, 0), BuildingBlock: AJUNOK_clean_linker_0, # of connection points: 2
#     Edge 78, Type (0, 0), BuildingBlock: AJUNOK_clean_linker_0, # of connection points: 2
#     Edge 79, Type (0, 0), BuildingBlock: AJUNOK_clean_linker_0, # of connection points: 2
#     Edge 80, Type (0, 0), BuildingBlock: AJUNOK_clean_linker_0, # of connection points: 2
#     Edge 81, Type (0, 0), BuildingBlock: AJUNOK_clean_linker_0, # of connection points: 2
#     Edge 82, Type (0, 0), BuildingBlock: AJUNOK_clean_linker_0, # of connection points: 2
#     Edge 83, Type (0, 0), BuildingBlock: AJUNOK_clean_linker_0, # of connection points: 2
#     Edge 84, Type (0, 0), BuildingBlock: AJUNOK_clean_linker_0, # of connection points: 2
#     Edge 85, Type (0, 0), BuildingBlock: AJUNOK_clean_linker_0, # of connection points: 2
#     Edge 86, Type (0, 0), BuildingBlock: AJUNOK_clean_linker_0, # of connection points: 2
#     Edge 87, Type (0, 0), BuildingBlock: AJUNOK_clean_linker_0, # of connection points: 2
#     Edge 88, Type (0, 0), BuildingBlock: AJUNOK_clean_linker_0, # of connection points: 2
#     Edge 89, Type (0, 0), BuildingBlock: AJUNOK_clean_linker_0, # of connection points: 2
#     Edge 90, Type (0, 0), BuildingBlock: AJUNOK_clean_linker_0, # of connection points: 2
#     Edge 91, Type (0, 0), BuildingBlock: AJUNOK_clean_linker_0, # of connection points: 2
#     Edge 92, Type (0, 0), BuildingBlock: AJUNOK_clean_linker_0, # of connection points: 2
#     Edge 93, Type (0, 0), BuildingBlock: AJUNOK_clean_linker_0, # of connection points: 2
#     Edge 94, Type (0, 0), BuildingBlock: AJUNOK_clean_linker_0, # of connection points: 2
#     Edge 95, Type (0, 0), BuildingBlock: AJUNOK_clean_linker_0, # of connection points: 2
#     Edge 96, Type (0, 0), BuildingBlock: AJUNOK_clean_linker_0, # of connection points: 2
#     Edge 97, Type (0, 0), BuildingBlock: AJUNOK_clean_linker_0, # of connection points: 2
#     Edge 98, Type (0, 0), BuildingBlock: AJUNOK_clean_linker_0, # of connection points: 2
#     Edge 99, Type (0, 0), BuildingBlock: AJUNOK_clean_linker_0, # of connection points: 2
#     Edge 100, Type (0, 0), BuildingBlock: AJUNOK_clean_linker_0, # of connection points: 2
#     Edge 101, Type (0, 0), BuildingBlock: AJUNOK_clean_linker_0, # of connection points: 2
#     Edge 102, Type (0, 0), BuildingBlock: AJUNOK_clean_linker_0, # of connection points: 2
#     Edge 103, Type (0, 0), BuildingBlock: AJUNOK_clean_linker_0, # of connection points: 2
#     Edge 104, Type (0, 0), BuildingBlock: AJUNOK_clean_linker_0, # of connection points: 2
#     Edge 105, Type (0, 0), BuildingBlock: AJUNOK_clean_linker_0, # of connection points: 2
#     Edge 106, Type (0, 0), BuildingBlock: AJUNOK_clean_linker_0, # of connection points: 2
#     Edge 107, Type (0, 0), BuildingBlock: AJUNOK_clean_linker_0, # of connection points: 2
#     Edge 108, Type (0, 0), BuildingBlock: AJUNOK_clean_linker_0, # of connection points: 2
#     Edge 109, Type (0, 0), BuildingBlock: AJUNOK_clean_linker_0, # of connection points: 2
#     Edge 110, Type (0, 0), BuildingBlock: AJUNOK_clean_linker_0, # of connection points: 2
#     Edge 111, Type (0, 0), BuildingBlock: AJUNOK_clean_linker_0, # of connection points: 2
#     Edge 112, Type (0, 0), BuildingBlock: AJUNOK_clean_linker_0, # of connection points: 2
#     Edge 113, Type (0, 0), BuildingBlock: AJUNOK_clean_linker_0, # of connection points: 2
#     Edge 114, Type (0, 0), BuildingBlock: AJUNOK_clean_linker_0, # of connection points: 2
#     Edge 115, Type (0, 0), BuildingBlock: AJUNOK_clean_linker_0, # of connection points: 2
#     Edge 116, Type (0, 0), BuildingBlock: AJUNOK_clean_linker_0, # of connection points: 2
#     Edge 117, Type (0, 0), BuildingBlock: AJUNOK_clean_linker_0, # of connection points: 2
#     Edge 118, Type (0, 0), BuildingBlock: AJUNOK_clean_linker_0, # of connection points: 2
#     Edge 119, Type (0, 0), BuildingBlock: AJUNOK_clean_linker_0, # of connection points: 2
#     Edge 120, Type (0, 0), BuildingBlock: AJUNOK_clean_linker_0, # of connection points: 2
#     Edge 121, Type (0, 0), BuildingBlock: AJUNOK_clean_linker_0, # of connection points: 2
#     Edge 122, Type (0, 0), BuildingBlock: AJUNOK_clean_linker_0, # of connection points: 2
#     Edge 123, Type (0, 0), BuildingBlock: AJUNOK_clean_linker_0, # of connection points: 2
#     Edge 124, Type (0, 0), BuildingBlock: AJUNOK_clean_linker_0, # of connection points: 2
#     Edge 125, Type (0, 0), BuildingBlock: AJUNOK_clean_linker_0, # of connection points: 2
# Relax obj value: 0.453
# Max RMSD: 0.277
# Mean RMSD: 0.277
data_MOF--net-wlf--node1-XOMCOT_clean_sbu_1--edge1-AJUNOK_clean_linker_0
_symmetry_space_group_name_H-M    P1
_symmetry_Int_Tables_number       1
_symmetry_cell_setting            triclinic
loop_
_symmetry_equiv_pos_as_xyz
'x, y, z'
_cell_length_a     78.652301
_cell_length_b     78.500513
_cell_length_c     22.631732
_cell_angle_alpha  89.843638
_cell_angle_beta   90.0026
_cell_angle_gamma 119.98845
loop_
_atom_site_label
_atom_site_type_symbol
_atom_site_fract_x
_atom_site_fract_y
_atom_site_fract_z
_atom_type_partial_charge
C0 C 0.26585 0.18942 0.28445 0.0
C1 C 0.2795 0.20283 0.32303 0.0
N2 N 0.28896 0.19443 0.34843 0.0
N3 N 0.26649 0.17256 0.2869 0.0
C4 C 0.28081 0.17615 0.3261 0.0
H5 H 0.25654 0.19202 0.255 0.0
Co6 Co 0.25359 0.15061 0.23857 0.0
C7 C 0.2334 0.12053 0.33695 0.0
O8 O 0.21611 0.11295 0.31152 0.0
N9 N 0.24184 0.12947 0.18536 0.0
C10 C 0.22911 0.10208 0.13182 0.0
C11 C 0.23263 0.10967 0.18852 0.0
C12 C 0.24427 0.13343 0.12665 0.0
N13 N 0.23657 0.11713 0.0928 0.0
O14 O 0.27755 0.15097 0.22719 0.0
H15 H 0.22933 0.10119 0.22876 0.0
H16 H 0.2514 0.14825 0.10925 0.0
O17 O 0.24851 0.13394 0.30987 0.0
C18 C 0.28995 0.16344 0.19119 0.0
O19 O 0.28539 0.17507 0.16187 0.0
N20 N 0.22992 0.15098 0.24846 0.0
C21 C 0.20056 0.1608 0.2573 0.0
C22 C 0.20895 0.15805 0.30828 0.0
C23 C 0.22377 0.15331 0.3029 0.0
C24 C 0.22122 0.15286 0.19866 0.0
C25 C 0.20631 0.15744 0.20213 0.0
H26 H 0.23142 0.15325 0.34244 0.0
H27 H 0.22673 0.1524 0.1556 0.0
H28 H 0.28578 0.16587 0.33617 0.0
H29 H 0.28294 0.21788 0.32961 0.0
H30 H 0.22212 0.08666 0.12029 0.0
H31 H 0.20537 0.16122 0.3516 0.0
H32 H 0.20036 0.15979 0.16175 0.0
C33 C 0.81205 0.0776 0.33655 0.0
C34 C 0.79984 0.07839 0.37886 0.0
N35 N 0.80598 0.09744 0.39016 0.0
N36 N 0.8255 0.09609 0.3203 0.0
C37 C 0.82186 0.10776 0.35563 0.0
H38 H 0.81074 0.06438 0.31751 0.0
Co39 Co 0.84473 0.10494 0.26057 0.0
C40 C 0.86764 0.11407 0.34904 0.0
O41 O 0.86477 0.09715 0.32882 0.0
N42 N 0.86384 0.11409 0.20005 0.0
C43 C 0.88976 0.12048 0.14474 0.0
C44 C 0.88253 0.1178 0.2017 0.0
C45 C 0.86022 0.115 0.14181 0.0
N46 N 0.87559 0.11849 0.1071 0.0
O47 O 0.83694 0.1234 0.23097 0.0
H48 H 0.89012 0.11758 0.24124 0.0
H49 H 0.84605 0.11175 0.1248 0.0
O50 O 0.86259 0.12401 0.31589 0.0
C51 C 0.82242 0.12643 0.22939 0.0
O52 O 0.80555 0.11374 0.25346 0.0
N53 N 0.8279 0.08423 0.21191 0.0
C54 C 0.8032 0.0448 0.18783 0.0
C55 C 0.82317 0.052 0.19744 0.0
C56 C 0.8352 0.07174 0.21013 0.0
C57 C 0.8091 0.07809 0.19454 0.0
C58 C 0.7963 0.05814 0.18285 0.0
H59 H 0.84999 0.07666 0.22509 0.0
H60 H 0.80331 0.08787 0.19479 0.0
H61 H 0.82987 0.12366 0.35297 0.0
H62 H 0.78713 0.06596 0.39848 0.0
H63 H 0.90412 0.12308 0.13192 0.0
H64 H 0.82901 0.04215 0.20192 0.0
H65 H 0.78091 0.05298 0.17469 0.0
C66 C 0.90952 0.72533 0.28125 0.0
C67 C 0.90734 0.71001 0.31629 0.0
N68 N 0.89207 0.70493 0.35319 0.0
N69 N 0.89581 0.73003 0.29637 0.0
C70 C 0.88559 0.71757 0.34074 0.0
H71 H 0.91959 0.73178 0.24456 0.0
Co72 Co 0.88875 0.74553 0.2519 0.0
C73 C 0.8852 0.76779 0.35749 0.0
O74 O 0.89828 0.78489 0.33558 0.0
N75 N 0.88117 0.76003 0.20189 0.0
C76 C 0.87652 0.78173 0.15142 0.0
C77 C 0.88029 0.77669 0.20636 0.0
C78 C 0.87747 0.75518 0.14389 0.0
N79 N 0.8746 0.76807 0.11166 0.0
O80 O 0.86376 0.72316 0.24103 0.0
H81 H 0.88297 0.78528 0.24572 0.0
H82 H 0.87762 0.74265 0.1251 0.0
O83 O 0.87957 0.75212 0.32686 0.0
C84 C 0.86428 0.71137 0.20356 0.0
O85 O 0.88104 0.71619 0.17753 0.0
N86 N 0.91427 0.76707 0.25967 0.0
C87 C 0.95432 0.79365 0.26238 0.0
C88 C 0.94429 0.78451 0.31435 0.0
C89 C 0.9243 0.77094 0.31183 0.0
C90 C 0.92388 0.77626 0.20891 0.0
C91 C 0.9439 0.78983 0.20943 0.0
H92 H 0.91708 0.76273 0.35128 0.0
H93 H 0.91641 0.77226 0.16694 0.0
H94 H 0.87313 0.71736 0.36159 0.0
H95 H 0.91561 0.70244 0.31236 0.0
H96 H 0.87633 0.79512 0.14187 0.0
H97 H 0.95209 0.78672 0.35565 0.0
H98 H 0.9514 0.79637 0.16827 0.0
C99 C 0.18925 0.27337 0.25965 0.0
C100 C 0.20312 0.28757 0.22327 0.0
N101 N 0.19466 0.29642 0.19456 0.0
N102 N 0.17205 0.2731 0.25318 0.0
C103 C 0.17587 0.28744 0.21341 0.0
H104 H 0.19176 0.26436 0.2907 0.0
Co105 Co 0.14958 0.25846 0.29915 0.0
C106 C 0.12073 0.23796 0.19672 0.0
O107 O 0.11235 0.22072 0.22263 0.0
N108 N 0.12774 0.24432 0.3509 0.0
C109 C 0.10571 0.22083 0.40987 0.0
C110 C 0.11407 0.22504 0.35445 0.0
C111 C 0.12741 0.25129 0.40566 0.0
N112 N 0.11412 0.23736 0.44256 0.0
O113 O 0.14772 0.28152 0.31173 0.0
H114 H 0.11221 0.21395 0.32319 0.0
H115 H 0.13789 0.26602 0.4198 0.0
O116 O 0.13373 0.25308 0.22473 0.0
C117 C 0.16151 0.2956 0.34024 0.0
O118 O 0.17624 0.29376 0.35979 0.0
N119 N 0.15217 0.23617 0.28859 0.0
C120 C 0.16189 0.20678 0.27802 0.0
C121 C 0.15867 0.21517 0.2277 0.0
C122 C 0.15429 0.23015 0.23389 0.0
C123 C 0.1551 0.22806 0.33816 0.0
C124 C 0.15983 0.21317 0.33391 0.0
H125 H 0.15388 0.23774 0.19458 0.0
H126 H 0.15458 0.23373 0.38121 0.0
H127 H 0.16532 0.29179 0.20043 0.0
H128 H 0.21849 0.29183 0.22061 0.0
H129 H 0.09579 0.2062 0.42645 0.0
H130 H 0.16057 0.21092 0.18375 0.0
H131 H 0.16296 0.20759 0.37378 0.0
C132 C 0.69521 0.90689 0.26774 0.0
C133 C 0.67948 0.90302 0.23265 0.0
N134 N 0.67807 0.89052 0.18959 0.0
N135 N 0.70363 0.89675 0.24761 0.0
C136 C 0.69286 0.88682 0.20023 0.0
H137 H 0.69968 0.91573 0.30741 0.0
Co138 Co 0.72296 0.89529 0.29006 0.0
C139 C 0.74714 0.89307 0.18928 0.0
O140 O 0.76334 0.90675 0.21412 0.0
N141 N 0.7412 0.89341 0.34026 0.0
C142 C 0.76017 0.88495 0.39112 0.0
C143 C 0.75386 0.88659 0.33532 0.0
C144 C 0.7397 0.89517 0.39952 0.0
N145 N 0.75113 0.89027 0.4316 0.0
O146 O 0.70467 0.86893 0.3081 0.0
H147 H 0.75722 0.88165 0.29483 0.0
H148 H 0.72982 0.89942 0.41902 0.0
O149 O 0.73083 0.88647 0.21724 0.0
C150 C 0.69214 0.86596 0.34806 0.0
O151 O 0.69353 0.8811 0.3769 0.0
N152 N 0.74059 0.92196 0.27143 0.0
C153 C 0.76082 0.96191 0.24323 0.0
C154 C 0.75147 0.94786 0.19926 0.0
C155 C 0.74126 0.92807 0.21428 0.0
C156 C 0.74983 0.93549 0.31497 0.0
C157 C 0.76024 0.95561 0.30169 0.0
H158 H 0.73313 0.9177 0.17976 0.0
H159 H 0.74856 0.93091 0.36048 0.0
H160 H 0.69541 0.8766 0.17538 0.0
H161 H 0.66924 0.90812 0.241 0.0
H162 H 0.76969 0.87907 0.40125 0.0
H163 H 0.75131 0.95216 0.1538 0.0
H164 H 0.76743 0.96612 0.3369 0.0
C165 C 0.07639 0.8026 0.26217 0.0
C166 C 0.07648 0.78903 0.22409 0.0
N167 N 0.09371 0.79761 0.19471 0.0
N168 N 0.09342 0.81973 0.25647 0.0
C169 C 0.10371 0.81621 0.21531 0.0
H170 H 0.06489 0.8 0.29325 0.0
Co171 Co 0.10175 0.84205 0.30291 0.0
C172 C 0.11271 0.87181 0.20116 0.0
O173 O 0.1052 0.8815 0.22674 0.0
N174 N 0.11003 0.86398 0.35491 0.0
C175 C 0.10902 0.88642 0.413 0.0
C176 C 0.10477 0.87794 0.35781 0.0
C177 C 0.11724 0.86431 0.40986 0.0
N178 N 0.11684 0.87779 0.44619 0.0
O179 O 0.1256 0.84217 0.31716 0.0
H180 H 0.09573 0.87995 0.32605 0.0
H181 H 0.12127 0.85374 0.42476 0.0
O182 O 0.11336 0.85798 0.22945 0.0
C183 C 0.1242 0.8287 0.35173 0.0
O184 O 0.10712 0.81681 0.37624 0.0
N185 N 0.07763 0.84074 0.29032 0.0
C186 C 0.0387 0.83101 0.27715 0.0
C187 C 0.05079 0.83508 0.22763 0.0
C188 C 0.07006 0.83938 0.23508 0.0
C189 C 0.06622 0.83743 0.33915 0.0
C190 C 0.0467 0.83273 0.33359 0.0
H191 H 0.07831 0.84008 0.19621 0.0
H192 H 0.07202 0.83746 0.38251 0.0
H193 H 0.11869 0.82677 0.20344 0.0
H194 H 0.06493 0.77388 0.2194 0.0
H195 H 0.10461 0.8966 0.4291 0.0
H196 H 0.04504 0.83375 0.18332 0.0
H197 H 0.03764 0.82927 0.37278 0.0
C198 C 0.72163 0.81281 0.74389 0.0
C199 C 0.70832 0.79893 0.70571 0.0
N200 N 0.699 0.80693 0.6771 0.0
N201 N 0.72092 0.82957 0.73813 0.0
C202 C 0.70696 0.8255 0.69713 0.0
H203 H 0.7306 0.81057 0.77571 0.0
Co204 Co 0.73284 0.85156 0.78653 0.0
C205 C 0.75343 0.88157 0.688 0.0
O206 O 0.77033 0.88908 0.71571 0.0
N207 N 0.74365 0.87279 0.84033 0.0
C208 C 0.75623 0.90019 0.89406 0.0
C209 C 0.75337 0.89262 0.83736 0.0
C210 C 0.74032 0.86883 0.89897 0.0
N211 N 0.74786 0.88512 0.93286 0.0
O212 O 0.70809 0.84985 0.79706 0.0
H213 H 0.7576 0.90117 0.79715 0.0
H214 H 0.7328 0.85404 0.91659 0.0
O215 O 0.73794 0.86825 0.71407 0.0
C216 C 0.69688 0.83656 0.8335 0.0
O217 O 0.70329 0.82581 0.85921 0.0
N218 N 0.757 0.85201 0.77891 0.0
C219 C 0.78534 0.84067 0.77547 0.0
C220 C 0.77791 0.84381 0.72298 0.0
C221 C 0.76357 0.8493 0.72564 0.0
C222 C 0.76508 0.85013 0.83012 0.0
C223 C 0.77944 0.84474 0.82934 0.0
H224 H 0.75639 0.84938 0.68505 0.0
H225 H 0.75924 0.85094 0.87229 0.0
H226 H 0.70207 0.83565 0.68431 0.0
H227 H 0.70492 0.78381 0.70179 0.0
H228 H 0.76348 0.91561 0.9057 0.0
H229 H 0.78169 0.8402 0.68061 0.0
H230 H 0.78468 0.84215 0.8708 0.0
C231 C 0.1937 0.90653 0.76051 0.0
C232 C 0.20559 0.90391 0.72133 0.0
N233 N 0.19433 0.88735 0.69064 0.0
N234 N 0.17503 0.89183 0.75363 0.0
C235 C 0.17592 0.88028 0.7111 0.0
H236 H 0.19844 0.918 0.79336 0.0
Co237 Co 0.15355 0.88643 0.80067 0.0
C238 C 0.12671 0.88489 0.70217 0.0
O239 O 0.12232 0.89676 0.73061 0.0
N240 N 0.13247 0.88027 0.85262 0.0
C241 C 0.1043 0.86829 0.90202 0.0
C242 C 0.11287 0.87199 0.84658 0.0
C243 C 0.13525 0.88078 0.9119 0.0
N244 N 0.11848 0.874 0.94345 0.0
O245 O 0.14828 0.86035 0.80906 0.0
H246 H 0.10507 0.86782 0.80511 0.0
H247 H 0.14954 0.886 0.93158 0.0
O248 O 0.13724 0.8788 0.72765 0.0
C249 C 0.15894 0.8576 0.84553 0.0
O250 O 0.17214 0.87265 0.87603 0.0
N251 N 0.1596 0.91292 0.79367 0.0
C252 C 0.17168 0.95283 0.78683 0.0
C253 C 0.16988 0.94216 0.73558 0.0
C254 C 0.16413 0.9223 0.74004 0.0
C255 C 0.16191 0.92339 0.84403 0.0
C256 C 0.16767 0.94327 0.84156 0.0
H257 H 0.16388 0.91459 0.7003 0.0
H258 H 0.16012 0.91671 0.88679 0.0
H259 H 0.16344 0.86654 0.69692 0.0
H260 H 0.22139 0.91289 0.71774 0.0
H261 H 0.08869 0.86101 0.91054 0.0
H262 H 0.17373 0.94929 0.69271 0.0
H263 H 0.16953 0.95126 0.88225 0.0
C264 C 0.0801 0.2809 0.7629 0.0
C265 C 0.08272 0.29685 0.73019 0.0
N266 N 0.10002 0.30434 0.70159 0.0
N267 N 0.09557 0.2782 0.75433 0.0
C268 C 0.10747 0.29275 0.71689 0.0
H269 H 0.06828 0.27254 0.79376 0.0
Co270 Co 0.10167 0.26194 0.79876 0.0
C271 C 0.10668 0.23943 0.69873 0.0
O272 O 0.09576 0.22272 0.72665 0.0
N273 N 0.10843 0.24697 0.84886 0.0
C274 C 0.12357 0.23366 0.89764 0.0
C275 C 0.11926 0.23813 0.84239 0.0
C276 C 0.10694 0.24815 0.9083 0.0
N277 N 0.11575 0.23999 0.93935 0.0
O278 O 0.1267 0.28337 0.81222 0.0
H279 H 0.12507 0.23643 0.801 0.0
H280 H 0.1 0.25559 0.92857 0.0
O281 O 0.11126 0.25565 0.7248 0.0
C282 C 0.12736 0.29461 0.85341 0.0
O283 O 0.11102 0.29059 0.8807 0.0
N284 N 0.07607 0.24065 0.78709 0.0
C285 C 0.03689 0.21206 0.77282 0.0
C286 C 0.04836 0.2222 0.72386 0.0
C287 C 0.06779 0.23674 0.73209 0.0
C288 C 0.06498 0.23086 0.8352 0.0
C289 C 0.04541 0.21628 0.82894 0.0
H290 H 0.07599 0.24533 0.69424 0.0
H291 H 0.0708 0.23484 0.87912 0.0
H292 H 0.12188 0.2955 0.70393 0.0
H293 H 0.07334 0.30327 0.73085 0.0
H294 H 0.1329 0.22745 0.90605 0.0
H295 H 0.04216 0.21943 0.67981 0.0
H296 H 0.03674 0.20912 0.86795 0.0
C297 C 0.79702 0.72227 0.79898 0.0
C298 C 0.78498 0.70752 0.83758 0.0
N299 N 0.79592 0.70135 0.86614 0.0
N300 N 0.81556 0.72567 0.80433 0.0
C301 C 0.81435 0.71256 0.84542 0.0
H302 H 0.79244 0.72955 0.76743 0.0
Co303 Co 0.83718 0.74174 0.75611 0.0
C304 C 0.86372 0.76702 0.85604 0.0
O305 O 0.86695 0.78337 0.83009 0.0
N306 N 0.85836 0.75665 0.70333 0.0
C307 C 0.88566 0.77712 0.65473 0.0
C308 C 0.87681 0.77179 0.70939 0.0
C309 C 0.85674 0.75272 0.64445 0.0
N310 N 0.87315 0.76493 0.61327 0.0
O311 O 0.84197 0.72067 0.74778 0.0
H312 H 0.8838 0.77862 0.75029 0.0
H313 H 0.84354 0.74103 0.62486 0.0
O314 O 0.85381 0.75053 0.82913 0.0
C315 C 0.83022 0.70745 0.71249 0.0
O316 O 0.81709 0.71013 0.68449 0.0
N317 N 0.83144 0.76234 0.76221 0.0
C318 C 0.8202 0.79084 0.76735 0.0
C319 C 0.82134 0.78155 0.81886 0.0
C320 C 0.82651 0.76704 0.81518 0.0
C321 C 0.82996 0.77092 0.71142 0.0
C322 C 0.8245 0.78533 0.71302 0.0
H323 H 0.82636 0.75941 0.85514 0.0
H324 H 0.8323 0.76618 0.66905 0.0
H325 H 0.82659 0.71067 0.85809 0.0
H326 H 0.76924 0.70109 0.84203 0.0
H327 H 0.90014 0.7895 0.64711 0.0
H328 H 0.81782 0.78512 0.86167 0.0
H329 H 0.82287 0.79144 0.6719 0.0
C330 C 0.27695 0.08293 0.78206 0.0
C331 C 0.29157 0.08522 0.8201 0.0
N332 N 0.29746 0.10187 0.8511 0.0
N333 N 0.27351 0.09798 0.78934 0.0
C334 C 0.28626 0.10933 0.8316 0.0
H335 H 0.26986 0.07149 0.7493 0.0
Co336 Co 0.25786 0.10345 0.74021 0.0
C337 C 0.23399 0.10862 0.83694 0.0
O338 O 0.2172 0.09627 0.81197 0.0
N339 N 0.2433 0.10928 0.68584 0.0
C340 C 0.22571 0.11857 0.63135 0.0
C341 C 0.23045 0.11593 0.68825 0.0
C342 C 0.24655 0.10868 0.62721 0.0
N343 N 0.236 0.11412 0.59298 0.0
O344 O 0.27924 0.12896 0.72813 0.0
H345 H 0.22533 0.11942 0.72808 0.0
H346 H 0.25644 0.10407 0.60996 0.0
O347 O 0.2501 0.11316 0.8103 0.0
C348 C 0.29303 0.13103 0.69428 0.0
O349 O 0.29148 0.11546 0.66767 0.0
N350 N 0.23689 0.07758 0.7514 0.0
C351 C 0.21041 0.03755 0.76552 0.0
C352 C 0.21846 0.04971 0.81478 0.0
C353 C 0.23202 0.06953 0.80678 0.0
C354 C 0.22896 0.06598 0.70291 0.0
C355 C 0.21561 0.04592 0.70897 0.0
H356 H 0.23935 0.07816 0.84535 0.0
H357 H 0.23381 0.07189 0.65918 0.0
H358 H 0.28829 0.12349 0.84452 0.0
H359 H 0.29789 0.07577 0.82316 0.0
H360 H 0.21592 0.12395 0.61917 0.0
H361 H 0.21508 0.04377 0.85923 0.0
H362 H 0.2104 0.03689 0.66972 0.0
C363 C 0.91539 0.18908 0.79632 0.0
C364 C 0.91483 0.20239 0.83466 0.0
N365 N 0.89742 0.19331 0.86278 0.0
N366 N 0.89855 0.17171 0.80154 0.0
C367 C 0.88797 0.17476 0.84254 0.0
H368 H 0.92682 0.19216 0.7644 0.0
Co369 Co 0.88928 0.15009 0.75248 0.0
C370 C 0.88125 0.12047 0.85073 0.0
O371 O 0.89167 0.11372 0.82512 0.0
N372 N 0.87975 0.1293 0.69876 0.0
C373 C 0.8701 0.10342 0.64024 0.0
C374 C 0.87391 0.10998 0.69796 0.0
C375 C 0.87875 0.13386 0.64168 0.0
N376 N 0.8734 0.11861 0.60461 0.0
O377 O 0.8655 0.15029 0.74386 0.0
H378 H 0.87257 0.10109 0.73591 0.0
H379 H 0.88224 0.14842 0.62792 0.0
O380 O 0.87847 0.13319 0.8235 0.0
C381 C 0.86572 0.1639 0.71267 0.0
O382 O 0.88233 0.17713 0.68839 0.0
N383 N 0.9134 0.1507 0.75868 0.0
C384 C 0.9529 0.16207 0.75997 0.0
C385 C 0.94274 0.15911 0.81307 0.0
C386 C 0.92295 0.15362 0.81148 0.0
C387 C 0.92299 0.15238 0.70687 0.0
C388 C 0.94269 0.15772 0.70659 0.0
H389 H 0.91586 0.15353 0.85246 0.0
H390 H 0.91602 0.15133 0.66504 0.0
H391 H 0.87306 0.16395 0.85444 0.0
H392 H 0.92568 0.21783 0.83857 0.0
H393 H 0.86566 0.08865 0.62569 0.0
H394 H 0.95042 0.1629 0.85496 0.0
H395 H 0.95033 0.16027 0.6648 0.0
C396 C 0.94794 0.53164 0.61272 0.0
C397 C 0.96444 0.54367 0.64532 0.0
N398 N 0.9704 0.5323 0.67245 0.0
N399 N 0.94339 0.51276 0.62025 0.0
C400 C 0.95719 0.51365 0.65757 0.0
H401 H 0.94072 0.53647 0.58178 0.0
Co402 Co 0.92691 0.4915 0.57258 0.0
C403 C 0.90085 0.46454 0.67074 0.0
O404 O 0.8847 0.46091 0.6431 0.0
N405 N 0.91174 0.47089 0.51983 0.0
C406 C 0.89261 0.44423 0.46687 0.0
C407 C 0.89725 0.45198 0.52318 0.0
C408 C 0.91601 0.47394 0.46134 0.0
N409 N 0.90459 0.45809 0.42775 0.0
O410 O 0.94671 0.48506 0.5651 0.0
H411 H 0.89066 0.44396 0.56328 0.0
H412 H 0.92749 0.48776 0.44372 0.0
O413 O 0.91744 0.475 0.64497 0.0
C414 C 0.96062 0.49566 0.53001 0.0
O415 O 0.96038 0.5103 0.5025 0.0
N416 N 0.90735 0.49837 0.57801 0.0
C417 C 0.87955 0.51023 0.5802 0.0
C418 C 0.88753 0.50806 0.63294 0.0
C419 C 0.90175 0.50247 0.63082 0.0
C420 C 0.90021 0.50123 0.52631 0.0
C421 C 0.88605 0.50686 0.52641 0.0
H422 H 0.90855 0.50182 0.6716 0.0
H423 H 0.90587 0.4998 0.48446 0.0
H424 H 0.95848 0.50099 0.66962 0.0
H425 H 0.97242 0.5596 0.64487 0.0
H426 H 0.88107 0.42954 0.45608 0.0
H427 H 0.88348 0.5115 0.67513 0.0
H428 H 0.88066 0.50913 0.48478 0.0
C429 C 0.4806 0.41829 0.69689 0.0
C430 C 0.46516 0.41785 0.72719 0.0
N431 N 0.46747 0.43608 0.72703 0.0
N432 N 0.4926 0.43671 0.67703 0.0
C433 C 0.48478 0.44732 0.699 0.0
H434 H 0.48202 0.40566 0.686 0.0
Co435 Co 0.51338 0.44562 0.62163 0.0
C436 C 0.53514 0.45758 0.71454 0.0
O437 O 0.53314 0.44056 0.69922 0.0
N438 N 0.53365 0.4548 0.56416 0.0
C439 C 0.56013 0.4622 0.51006 0.0
C440 C 0.55237 0.45868 0.56673 0.0
C441 C 0.5305 0.45616 0.50571 0.0
N442 N 0.5463 0.46065 0.47163 0.0
O443 O 0.50488 0.4624 0.58242 0.0
H444 H 0.55968 0.45822 0.60665 0.0
H445 H 0.51636 0.4527 0.488 0.0
O446 O 0.52938 0.4661 0.67769 0.0
C447 C 0.4892 0.4625 0.56843 0.0
O448 O 0.47202 0.44758 0.58306 0.0
N449 N 0.4987 0.42348 0.57435 0.0
C450 C 0.47858 0.3841 0.54289 0.0
C451 C 0.49674 0.39207 0.57089 0.0
C452 C 0.50646 0.41174 0.58647 0.0
C453 C 0.48222 0.41661 0.54037 0.0
C454 C 0.47158 0.39663 0.52527 0.0
H455 H 0.51975 0.41741 0.61216 0.0
H456 H 0.47679 0.42599 0.52596 0.0
H457 H 0.4907 0.46279 0.68946 0.0
H458 H 0.45213 0.40467 0.74205 0.0
H459 H 0.57472 0.46528 0.49802 0.0
H460 H 0.50261 0.38283 0.58501 0.0
H461 H 0.45772 0.39089 0.50224 0.0
C462 C 0.57481 0.04637 0.60372 0.0
C463 C 0.57381 0.03175 0.63958 0.0
N464 N 0.56 0.02753 0.68145 0.0
N465 N 0.56162 0.05133 0.62221 0.0
C466 C 0.55284 0.03967 0.66951 0.0
H467 H 0.58355 0.05202 0.564 0.0
Co468 Co 0.55414 0.06639 0.57757 0.0
C469 C 0.54951 0.08893 0.68094 0.0
O470 O 0.56145 0.10608 0.65675 0.0
N471 N 0.54626 0.08042 0.52674 0.0
C472 C 0.53678 0.09885 0.47716 0.0
C473 C 0.54033 0.09377 0.53262 0.0
C474 C 0.54549 0.07723 0.46755 0.0
N475 N 0.54012 0.08842 0.43621 0.0
O476 O 0.52901 0.04395 0.56822 0.0
H477 H 0.53836 0.09936 0.57395 0.0
H478 H 0.54955 0.0673 0.4474 0.0
O479 O 0.54506 0.07318 0.6521 0.0
C480 C 0.52814 0.03182 0.5295 0.0
O481 O 0.54421 0.03571 0.50081 0.0
N482 N 0.57972 0.08821 0.5845 0.0
C483 C 0.61962 0.11608 0.58728 0.0
C484 C 0.60941 0.1075 0.63967 0.0
C485 C 0.58951 0.09335 0.63724 0.0
C486 C 0.58957 0.0965 0.53323 0.0
C487 C 0.60943 0.11063 0.5337 0.0
H488 H 0.58222 0.08584 0.67755 0.0
H489 H 0.58245 0.09146 0.49113 0.0
H490 H 0.54065 0.03934 0.69245 0.0
H491 H 0.5816 0.02389 0.63182 0.0
H492 H 0.53184 0.10921 0.46782 0.0
H493 H 0.61698 0.11081 0.6817 0.0
H494 H 0.61697 0.11662 0.49219 0.0
C495 C 0.86007 0.62188 0.595 0.0
C496 C 0.87208 0.63676 0.55704 0.0
N497 N 0.86087 0.63988 0.518 0.0
N498 N 0.8413 0.61548 0.58032 0.0
C499 C 0.84218 0.62645 0.53318 0.0
H500 H 0.86465 0.6169 0.63324 0.0
Co501 Co 0.81986 0.59956 0.62774 0.0
C502 C 0.79128 0.5764 0.53091 0.0
O503 O 0.78549 0.55976 0.55929 0.0
N504 N 0.79907 0.58484 0.68072 0.0
C505 C 0.77162 0.57044 0.73439 0.0
C506 C 0.77928 0.575 0.67769 0.0
C507 C 0.80291 0.58654 0.73947 0.0
N508 N 0.78659 0.57792 0.77333 0.0
O509 O 0.81652 0.62126 0.64177 0.0
H510 H 0.77085 0.57236 0.63769 0.0
H511 H 0.81765 0.59429 0.75701 0.0
O512 O 0.80281 0.59264 0.55683 0.0
C513 C 0.8279 0.63317 0.68057 0.0
O514 O 0.84023 0.62917 0.70792 0.0
N515 N 0.82418 0.57837 0.61477 0.0
C516 C 0.83534 0.55028 0.59737 0.0
C517 C 0.83269 0.55987 0.54915 0.0
C518 C 0.82769 0.57426 0.5589 0.0
C519 C 0.82665 0.56907 0.66218 0.0
C520 C 0.8321 0.55486 0.65446 0.0
H521 H 0.82735 0.58258 0.52132 0.0
H522 H 0.82559 0.57333 0.70651 0.0
H523 H 0.82914 0.62482 0.51252 0.0
H524 H 0.88788 0.64535 0.56075 0.0
H525 H 0.75621 0.56305 0.74607 0.0
H526 H 0.83548 0.55702 0.5044 0.0
H527 H 0.83497 0.54849 0.69302 0.0
C528 C 0.37587 0.25156 0.56949 0.0
C529 C 0.36083 0.24865 0.53241 0.0
N530 N 0.35578 0.23242 0.50014 0.0
N531 N 0.38038 0.23732 0.56032 0.0
C532 C 0.36783 0.22579 0.51799 0.0
H533 H 0.38262 0.26292 0.60266 0.0
Co534 Co 0.39747 0.23336 0.60734 0.0
C535 C 0.42101 0.22859 0.50855 0.0
O536 O 0.43769 0.24169 0.53257 0.0
N537 N 0.41355 0.22901 0.66067 0.0
C538 C 0.43116 0.2191 0.71269 0.0
C539 C 0.42607 0.222 0.6565 0.0
C540 C 0.41095 0.22969 0.71985 0.0
N541 N 0.42143 0.22375 0.75263 0.0
O542 O 0.37695 0.20762 0.6237 0.0
H543 H 0.43039 0.21801 0.61596 0.0
H544 H 0.40118 0.23421 0.73857 0.0
O545 O 0.4049 0.2234 0.53625 0.0
C546 C 0.36413 0.20635 0.66041 0.0
O547 O 0.3665 0.22255 0.68493 0.0
N548 N 0.41731 0.25952 0.59186 0.0
C549 C 0.43858 0.29993 0.57174 0.0
C550 C 0.43132 0.2869 0.52436 0.0
C551 C 0.4204 0.2668 0.53535 0.0
C552 C 0.42494 0.27207 0.63851 0.0
C553 C 0.43573 0.2924 0.62938 0.0
H554 H 0.41316 0.25724 0.49834 0.0
H555 H 0.4216 0.26653 0.68317 0.0
H556 H 0.36669 0.21213 0.50354 0.0
H557 H 0.35374 0.25743 0.5306 0.0
H558 H 0.44052 0.21307 0.72328 0.0
H559 H 0.43294 0.29226 0.47937 0.0
H560 H 0.44114 0.30216 0.66707 0.0
C561 C 0.74808 0.13642 0.57624 0.0
C562 C 0.75034 0.12299 0.54334 0.0
N563 N 0.76763 0.13257 0.51447 0.0
N564 N 0.76379 0.15447 0.56798 0.0
C565 C 0.77545 0.15165 0.5301 0.0
H566 H 0.73638 0.13304 0.60744 0.0
Co567 Co 0.77013 0.17653 0.61453 0.0
C568 C 0.77685 0.20529 0.51238 0.0
O569 O 0.76619 0.21175 0.53762 0.0
N570 N 0.77658 0.19806 0.66747 0.0
C571 C 0.77385 0.21945 0.72604 0.0
C572 C 0.76998 0.21096 0.6708 0.0
C573 C 0.78424 0.19904 0.72231 0.0
N574 N 0.78286 0.21194 0.75892 0.0
O575 O 0.79524 0.17949 0.62796 0.0
H576 H 0.76049 0.21228 0.63916 0.0
H577 H 0.7895 0.18943 0.73693 0.0
O578 O 0.78025 0.19304 0.54034 0.0
C579 C 0.79475 0.16663 0.66342 0.0
O580 O 0.77779 0.15377 0.68671 0.0
N581 N 0.74465 0.17233 0.60376 0.0
C582 C 0.70468 0.15947 0.59568 0.0
C583 C 0.71615 0.16347 0.54457 0.0
C584 C 0.73603 0.16951 0.54955 0.0
C585 C 0.73371 0.16849 0.65392 0.0
C586 C 0.71372 0.16222 0.65093 0.0
H587 H 0.74416 0.17076 0.5098 0.0
H588 H 0.74034 0.16946 0.69656 0.0
H589 H 0.78996 0.16317 0.51724 0.0
H590 H 0.74072 0.1072 0.54436 0.0
H591 H 0.76854 0.22889 0.74223 0.0
H592 H 0.70962 0.16109 0.50105 0.0
H593 H 0.70525 0.15849 0.69141 0.0
C594 C 0.38807 0.14343 0.06432 0.0
C595 C 0.37398 0.13011 0.02657 0.0
N596 N 0.36518 0.13903 1.00015 0.0
N597 N 0.3884 0.16077 0.06037 0.0
C598 C 0.3742 0.15755 0.02108 0.0
H599 H 0.39693 0.14043 0.09449 0.0
Co600 Co 0.40198 0.18283 0.10822 0.0
C601 C 0.42346 0.21205 1.00747 0.0
O602 O 0.44074 0.21859 0.03221 0.0
N603 N 0.41439 0.2042 0.16121 0.0
C604 C 0.42826 0.23205 0.21281 0.0
C605 C 0.4248 0.22397 0.1567 0.0
C606 C 0.41133 0.2008 0.22019 0.0
N607 N 0.41965 0.21739 0.25296 0.0
O608 O 0.37853 0.18369 0.1185 0.0
H609 H 0.42905 0.23215 0.11578 0.0
H610 H 0.40331 0.18615 0.23865 0.0
O611 O 0.40806 0.19943 0.0354 0.0
C612 C 0.36668 0.17143 0.1561 0.0
O613 O 0.37152 0.15961 0.183 0.0
N614 N 0.42497 0.18095 0.10078 0.0
C615 C 0.45112 0.16674 0.09875 0.0
C616 C 0.44445 0.17064 0.04587 0.0
C617 C 0.43122 0.17763 0.04782 0.0
C618 C 0.43234 0.17826 0.1523 0.0
C619 C 0.44571 0.17156 0.15222 0.0
H620 H 0.42459 0.17849 1.00695 0.0
H621 H 0.42671 0.17957 0.19425 0.0
H622 H 0.36989 0.16828 1.01013 0.0
H623 H 0.36974 0.11478 0.02142 0.0
H624 H 0.43605 0.24759 0.22304 0.0
H625 H 0.44808 0.16675 1.00372 0.0
H626 H 0.45057 0.16869 0.19396 0.0
C627 C 0.86393 0.2496 0.07453 0.0
C628 C 0.87646 0.24712 0.03811 0.0
N629 N 0.86594 0.23012 1.00859 0.0
N630 N 0.84557 0.23431 0.06756 0.0
C631 C 0.84725 0.22262 0.02733 0.0
H632 H 0.868 0.26146 0.10561 0.0
Co633 Co 0.82428 0.22992 0.11355 0.0
C634 C 0.79441 0.22162 1.01476 0.0
O635 O 0.78772 0.23198 0.04079 0.0
N636 N 0.80361 0.22572 0.16675 0.0
C637 C 0.78361 0.23036 0.22611 0.0
C638 C 0.7922 0.23403 0.17089 0.0
C639 C 0.80186 0.21745 0.22113 0.0
N640 N 0.78969 0.21989 0.2581 0.0
O641 O 0.81976 0.20415 0.13234 0.0
H642 H 0.79188 0.24418 0.13934 0.0
H643 H 0.81038 0.21081 0.23491 0.0
O644 O 0.80711 0.21869 0.04161 0.0
C645 C 0.83291 0.20229 0.1596 0.0
O646 O 0.849 0.21811 0.1768 0.0
N647 N 0.82964 0.25566 0.09443 0.0
C648 C 0.8459 0.29541 0.0654 0.0
C649 C 0.84037 0.28123 0.02123 0.0
C650 C 0.8325 0.26157 0.03656 0.0
C651 C 0.83488 0.26925 0.13833 0.0
C652 C 0.84293 0.28926 0.12474 0.0
H653 H 0.83034 0.2514 1.00155 0.0
H654 H 0.83367 0.2647 0.18402 0.0
H655 H 0.83523 0.20831 1.01513 0.0
H656 H 0.89217 0.25681 0.03474 0.0
H657 H 0.775 0.23656 0.24292 0.0
H658 H 0.84326 0.2854 0.97507 0.0
H659 H 0.84734 0.29986 0.16021 0.0
C660 C 0.74858 0.61313 0.09128 0.0
C661 C 0.74906 0.62708 0.05321 0.0
N662 N 0.76533 0.63404 0.01951 0.0
N663 N 0.76443 0.61119 0.08144 0.0
C664 C 0.77434 0.62411 0.03748 0.0
H665 H 0.73796 0.60566 0.12609 0.0
Co666 Co 0.77353 0.59803 0.12954 0.0
C667 C 0.7786 0.575 0.0297 0.0
O668 O 0.76776 0.5579 0.05573 0.0
N669 N 0.78326 0.58603 0.18176 0.0
C670 C 0.79553 0.57022 0.23209 0.0
C671 C 0.79133 0.57448 0.17637 0.0
C672 C 0.78348 0.58913 0.24075 0.0
N673 N 0.79025 0.57925 0.27292 0.0
O674 O 0.79771 0.62133 0.13496 0.0
H675 H 0.79433 0.56963 0.13512 0.0
H676 H 0.77785 0.59791 0.25999 0.0
O677 O 0.78251 0.59083 0.0569 0.0
C678 C 0.79754 0.63353 0.17136 0.0
O679 O 0.78143 0.62852 0.20156 0.0
N680 N 0.74872 0.57514 0.12708 0.0
C681 C 0.70975 0.54531 0.13328 0.0
C682 C 0.71851 0.55298 0.07839 0.0
C683 C 0.73805 0.56808 0.07627 0.0
C684 C 0.74016 0.56769 0.1805 0.0
C685 C 0.72097 0.5524 0.18448 0.0
H686 H 0.74423 0.57487 0.03414 0.0
H687 H 0.74752 0.57435 0.22101 0.0
H688 H 0.78872 0.62733 0.02248 0.0
H689 H 0.73866 0.6323 0.05215 0.0
H690 H 0.80233 0.56146 0.24118 0.0
H691 H 0.71 0.54839 0.03803 0.0
H692 H 0.71449 0.54719 0.22774 0.0
C693 C 0.46309 0.05229 0.12699 0.0
C694 C 0.4502 0.03787 0.16506 0.0
N695 N 0.45972 0.02966 0.19129 0.0
N696 N 0.48077 0.05341 0.13035 0.0
C697 C 0.47819 0.03938 0.16987 0.0
H698 H 0.45958 0.06083 0.09698 0.0
Co699 Co 0.50258 0.06786 0.08157 0.0
C700 C 0.53161 0.09087 0.18024 0.0
O701 O 0.5376 0.10777 0.15328 0.0
N702 N 0.52376 0.08111 0.02782 0.0
C703 C 0.55165 0.09639 0.97625 0.0
C704 C 0.54345 0.09239 0.03227 0.0
C705 C 0.52056 0.07801 0.96879 0.0
N706 N 0.5372 0.08717 0.93623 0.0
O707 O 0.50494 0.04525 0.07242 0.0
H708 H 0.55159 0.09681 0.07306 0.0
H709 H 0.50609 0.06918 0.95 0.0
O710 O 0.51935 0.07495 0.15388 0.0
C711 C 0.49333 0.03235 0.03617 0.0
O712 O 0.48088 0.03562 1.00642 0.0
N713 N 0.49944 0.09016 0.08877 0.0
C714 C 0.48803 0.11854 0.09462 0.0
C715 C 0.49125 0.11073 0.14632 0.0
C716 C 0.49655 0.09628 0.14246 0.0
C717 C 0.49677 0.09798 0.03806 0.0
C718 C 0.4913 0.11238 0.03999 0.0
H719 H 0.49721 0.08924 0.18275 0.0
H720 H 0.49767 0.09232 0.99561 0.0
H721 H 0.48941 0.03575 0.18083 0.0
H722 H 0.43476 0.03301 0.17053 0.0
H723 H 0.56715 0.10488 0.9659 0.0
H724 H 0.48877 0.11507 0.18942 0.0
H725 H 0.4885 0.11774 0.99909 0.0
C726 C 0.91357 0.40902 0.15068 0.0
C727 C 0.9253 0.40733 0.19277 0.0
N728 N 0.94008 0.42552 0.20533 0.0
N729 N 0.92124 0.42816 0.13589 0.0
C730 C 0.93696 0.4378 0.17142 0.0
H731 H 0.90063 0.39698 0.13105 0.0
Co732 Co 0.9132 0.43981 0.07844 0.0
C733 C 0.90224 0.45153 0.17134 0.0
O734 O 0.88632 0.43601 0.15166 0.0
N735 N 0.90541 0.45156 0.01969 0.0
C736 C 0.88878 0.46184 0.96491 0.0
C737 C 0.89211 0.4576 0.02165 0.0
C738 C 0.91013 0.45254 0.96162 0.0
N739 N 0.90003 0.45846 0.92719 0.0
O740 O 0.94023 0.45621 0.04855 0.0
H741 H 0.8846 0.45801 0.06115 0.0
H742 H 0.9199 0.44777 0.94437 0.0
O743 O 0.91713 0.45951 0.13676 0.0
C744 C 0.95709 0.45749 0.0463 0.0
O745 O 0.95968 0.44366 0.06991 0.0
N746 N 0.9067 0.41871 0.0276 0.0
C747 C 0.88803 0.37857 1.00631 0.0
C748 C 0.87708 0.38792 1.01495 0.0
C749 C 0.88672 0.40799 0.02583 0.0
C750 C 0.9177 0.41046 1.01149 0.0
C751 C 0.90855 0.39016 1.00129 0.0
H752 H 0.87818 0.41452 0.04041 0.0
H753 H 0.93343 0.41881 1.0127 0.0
H754 H 0.94652 0.45361 0.17051 0.0
H755 H 0.92364 0.39375 0.21033 0.0
H756 H 0.87849 0.46655 0.95231 0.0
H757 H 0.86128 0.37954 0.02025 0.0
H758 H 0.91747 0.38338 0.99443 0.0
C759 C 0.58482 0.53599 0.15706 0.0
C760 C 0.58096 0.54937 0.18452 0.0
N761 N 0.56266 0.53949 0.20686 0.0
N762 N 0.56907 0.5178 0.16296 0.0
C763 C 0.55605 0.52041 0.19468 0.0
H764 H 0.59737 0.53956 0.12932 0.0
Co765 Co 0.56257 0.49617 0.11511 0.0
C766 C 0.55432 0.46641 0.21441 0.0
O767 O 0.5647 0.4595 0.18936 0.0
N768 N 0.5556 0.47551 0.06144 0.0
C769 C 0.54161 0.4488 1.00494 0.0
C770 C 0.54619 0.4557 0.0624 0.0
C771 C 0.5562 0.48012 1.0034 0.0
N772 N 0.54792 0.46429 0.96767 0.0
O773 O 0.53803 0.4934 0.10104 0.0
H774 H 0.54161 0.44671 0.10178 0.0
H775 H 0.56159 0.49501 0.98824 0.0
O776 O 0.55179 0.47922 0.18664 0.0
C777 C 0.53661 0.50453 0.06314 0.0
O778 O 0.55263 0.51889 0.03928 0.0
N779 N 0.5874 0.49916 0.12668 0.0
C780 C 0.62557 0.50633 0.13715 0.0
C781 C 0.61434 0.50406 0.18767 0.0
C782 C 0.5954 0.50094 0.18146 0.0
C783 C 0.59832 0.50172 0.07724 0.0
C784 C 0.61737 0.50511 0.08143 0.0
H785 H 0.58743 0.50063 0.22069 0.0
H786 H 0.5927 0.50207 0.03416 0.0
H787 H 0.54113 0.50884 0.20282 0.0
H788 H 0.59 0.56523 0.18271 0.0
H789 H 0.53354 0.4335 0.99202 0.0
H790 H 0.62045 0.50558 0.23152 0.0
H791 H 0.62596 0.50794 0.04146 0.0
C792 C 0.59771 0.84709 0.93856 0.0
C793 C 0.61133 0.86147 0.97453 0.0
N794 N 0.61667 0.85287 1.01668 0.0
N795 N 0.59456 0.82946 0.95726 0.0
C796 C 0.60627 0.83339 1.0048 0.0
H797 H 0.59143 0.8494 0.89892 0.0
Co798 Co 0.58074 0.80666 0.91345 0.0
C799 C 0.56113 0.77774 0.0181 0.0
O800 O 0.54355 0.76989 0.99489 0.0
N801 N 0.56733 0.78438 0.86287 0.0
C802 C 0.54398 0.7618 0.80514 0.0
C803 C 0.54819 0.77036 0.86028 0.0
C804 C 0.57423 0.78395 0.80803 0.0
N805 N 0.56039 0.77039 0.77179 0.0
O806 O 0.60455 0.80634 0.90234 0.0
H807 H 0.5372 0.76827 0.8923 0.0
H808 H 0.58881 0.79447 0.79311 0.0
O809 O 0.57585 0.79093 0.98872 0.0
C810 C 0.61663 0.81942 0.86681 0.0
O811 O 0.61102 0.83028 0.83769 0.0
N812 N 0.55808 0.80857 0.92256 0.0
C813 C 0.53289 0.82377 0.92911 0.0
C814 C 0.53909 0.81853 0.98059 0.0
C815 C 0.55206 0.81137 0.97644 0.0
C816 C 0.55116 0.81238 0.87191 0.0
C817 C 0.53835 0.81984 0.87417 0.0
H818 H 0.55863 0.80995 1.01661 0.0
H819 H 0.55683 0.81116 0.82957 0.0
H820 H 0.60782 0.82227 0.02839 0.0
H821 H 0.61774 0.8771 0.96706 0.0
H822 H 0.5294 0.75155 0.7893 0.0
H823 H 0.53517 0.82141 0.02383 0.0
H824 H 0.53408 0.82398 0.8335 0.0
C825 C 0.11961 0.73647 0.97654 0.0
C826 C 0.10841 0.74058 1.01422 0.0
N827 N 0.12025 0.758 0.04002 0.0
N828 N 0.13849 0.75104 0.97986 0.0
C829 C 0.13839 0.76402 0.01866 0.0
H830 H 0.11428 0.72397 0.94726 0.0
Co831 Co 0.15903 0.75416 0.93179 0.0
C832 C 0.18766 0.75862 0.02921 0.0
O833 O 0.19097 0.74552 1.0038 0.0
N834 N 0.17907 0.7579 0.87755 0.0
C835 C 0.20658 0.76832 0.82517 0.0
C836 C 0.19866 0.76538 0.88142 0.0
C837 C 0.17567 0.75704 0.81834 0.0
N838 N 0.1921 0.76329 0.78535 0.0
O839 O 0.16472 0.78001 0.91465 0.0
H840 H 0.20706 0.76984 0.92174 0.0
H841 H 0.16133 0.75233 0.79978 0.0
O842 O 0.17673 0.76404 1.00251 0.0
C843 C 0.15354 0.78169 0.87744 0.0
O844 O 0.13948 0.76573 0.85264 0.0
N845 N 0.15232 0.72779 0.94808 0.0
C846 C 0.13484 0.68742 0.96998 0.0
C847 C 0.13986 0.70069 1.01668 0.0
C848 C 0.14834 0.72072 1.00483 0.0
C849 C 0.14768 0.71505 0.90202 0.0
C850 C 0.13901 0.69479 0.91202 0.0
H851 H 0.15055 0.73041 0.04143 0.0
H852 H 0.1497 0.72036 0.85711 0.0
H853 H 0.15126 0.7779 0.02963 0.0
H854 H 0.09267 0.73189 0.02032 0.0
H855 H 0.22199 0.77474 0.81442 0.0
H856 H 0.13627 0.69555 0.06189 0.0
H857 H 0.13509 0.68493 0.87469 0.0
C858 C 0.25051 0.38792 0.98304 0.0
C859 C 0.24993 0.3737 0.02021 0.0
N860 N 0.23302 0.36582 0.0512 0.0
N861 N 0.23423 0.38923 0.99157 0.0
C862 C 0.22398 0.37568 0.03346 0.0
H863 H 0.26158 0.39608 0.94991 0.0
Co864 Co 0.22457 0.40197 0.94448 0.0
C865 C 0.21848 0.42385 0.04411 0.0
O866 O 0.22892 0.44099 0.01796 0.0
N867 N 0.21424 0.41312 0.89303 0.0
C868 C 0.20196 0.42784 0.8378 0.0
C869 C 0.20646 0.425 0.89487 0.0
C870 C 0.21362 0.40846 0.83529 0.0
N871 N 0.20653 0.41735 0.80037 0.0
O872 O 0.20081 0.37829 0.9381 0.0
H873 H 0.20426 0.43133 0.93439 0.0
H874 H 0.21979 0.39979 0.81888 0.0
O875 O 0.21488 0.40818 1.01667 0.0
C876 C 0.20043 0.36539 0.9036 0.0
O877 O 0.21646 0.36911 0.87494 0.0
N878 N 0.24889 0.42569 0.94879 0.0
C879 C 0.28857 0.45301 0.94374 0.0
C880 C 0.27981 0.44463 0.99795 0.0
C881 C 0.25976 0.43107 0.99965 0.0
C882 C 0.25707 0.43549 0.89728 0.0
C883 C 0.27672 0.44975 0.89442 0.0
H884 H 0.25346 0.42343 0.04072 0.0
H885 H 0.24919 0.43134 0.85634 0.0
H886 H 0.2093 0.37188 0.04683 0.0
H887 H 0.26081 0.36913 0.02261 0.0
H888 H 0.19598 0.43707 0.82486 0.0
H889 H 0.28861 0.44695 0.03713 0.0
H890 H 0.28307 0.45633 0.85205 0.0
C891 C 0.52388 0.94348 0.9242 0.0
C892 C 0.5375 0.95825 0.88877 0.0
N893 N 0.52795 0.96278 0.84752 0.0
N894 N 0.50576 0.93872 0.906 0.0
C895 C 0.50867 0.95063 0.85936 0.0
H896 H 0.52694 0.93767 0.96362 0.0
Co897 Co 0.48327 0.92405 0.95084 0.0
C898 C 0.45523 0.90216 0.84903 0.0
O899 O 0.44901 0.88496 0.87439 0.0
N900 N 0.46142 0.91051 1.00186 0.0
C901 C 0.43315 0.8958 0.05152 0.0
C902 C 0.44173 0.90002 0.99596 0.0
C903 C 0.46425 0.91289 0.06116 0.0
N904 N 0.44739 0.90406 0.09273 0.0
O905 O 0.48121 0.94682 0.96085 0.0
H906 H 0.43394 0.89631 0.95449 0.0
H907 H 0.47867 0.92088 0.08076 0.0
O908 O 0.46735 0.91779 0.87685 0.0
C909 C 0.49224 0.95866 1.00042 0.0
O910 O 0.50395 0.95434 0.0301 0.0
N911 N 0.48629 0.90174 0.9428 0.0
C912 C 0.49745 0.87319 0.93768 0.0
C913 C 0.49556 0.88182 0.88579 0.0
C914 C 0.49027 0.89634 0.88938 0.0
C915 C 0.48792 0.89322 0.99348 0.0
C916 C 0.49315 0.87871 0.99184 0.0
H917 H 0.49038 0.90394 0.84939 0.0
H918 H 0.48635 0.89835 0.036 0.0
H919 H 0.49685 0.95121 0.83706 0.0
H920 H 0.55314 0.96602 0.89657 0.0
H921 H 0.41755 0.88781 0.06071 0.0
H922 H 0.49928 0.87825 0.84328 0.0
H923 H 0.49476 0.87253 0.0329 0.0
C924 C 0.06914 0.57416 0.84721 0.0
C925 C 0.05745 0.57612 0.80554 0.0
N926 N 0.04383 0.55801 0.78803 0.0
N927 N 0.06235 0.55484 0.85745 0.0
C928 C 0.04743 0.54546 0.81885 0.0
H929 H 0.08111 0.58611 0.87064 0.0
Co930 Co 0.06952 0.5427 0.91631 0.0
C931 C 0.08133 0.53103 0.82359 0.0
O932 O 0.0966 0.5474 0.84202 0.0
N933 N 0.07643 0.53055 0.97656 0.0
C934 C 0.09208 0.51965 0.03336 0.0
C935 C 0.08968 0.52446 0.97629 0.0
C936 C 0.07088 0.52913 0.03407 0.0
N937 N 0.08026 0.52266 0.06988 0.0
O938 O 0.04208 0.52632 0.94284 0.0
H939 H 0.09778 0.5244 0.93777 0.0
H940 H 0.06112 0.5341 0.04986 0.0
O941 O 0.06624 0.5231 0.85756 0.0
C942 C 0.0255 0.52571 0.9417 0.0
O943 O 0.02406 0.5401 0.91705 0.0
N944 N 0.07539 0.56349 0.96798 0.0
C945 C 0.09299 0.60272 1.00134 0.0
C946 C 0.10445 0.59423 0.98744 0.0
C947 C 0.09532 0.57461 0.97062 0.0
C948 C 0.06389 0.57073 0.98808 0.0
C949 C 0.0725 0.59056 1.00436 0.0
H950 H 0.10422 0.56879 0.95352 0.0
H951 H 0.04818 0.56198 0.98701 0.0
H952 H 0.03814 0.52963 0.81746 0.0
H953 H 0.05831 0.5897 0.79122 0.0
H954 H 0.10219 0.51485 0.04709 0.0
H955 H 0.12026 0.60311 0.98356 0.0
H956 H 0.0632 0.59665 1.01524 0.0
C957 C 0.42595 0.45235 0.87741 0.0
C958 C 0.42052 0.44045 0.82659 0.0
N959 N 0.41979 0.45208 0.78343 0.0
N960 N 0.42833 0.47034 0.86421 0.0
C961 C 0.42492 0.46975 0.80556 0.0
H962 H 0.42757 0.44788 0.92124 0.0
Co963 Co 0.4347 0.49105 0.91738 0.0
C964 C 0.44152 0.52321 0.82679 0.0
O965 O 0.43252 0.53047 0.85793 0.0
N966 N 0.44138 0.51127 0.97457 0.0
C967 C 0.45546 0.53902 0.02706 0.0
C968 C 0.45291 0.53102 0.97122 0.0
C969 C 0.43792 0.50774 0.03351 0.0
N970 N 0.44614 0.52428 0.0663 0.0
O971 O 0.45993 0.49484 0.92527 0.0
H972 H 0.46011 0.53916 0.93169 0.0
H973 H 0.43004 0.49321 0.05274 0.0
O974 O 0.44365 0.50935 0.84884 0.0
C975 C 0.46082 0.48558 0.97013 0.0
O976 O 0.44455 0.47404 0.99906 0.0
N977 N 0.40904 0.48642 0.91282 0.0
C978 C 0.37082 0.479 0.92104 0.0
C979 C 0.3812 0.48589 0.8681 0.0
C980 C 0.40023 0.48914 0.86451 0.0
C981 C 0.39849 0.47834 0.96309 0.0
C982 C 0.37946 0.47498 0.96881 0.0
H983 H 0.40745 0.49337 0.82237 0.0
H984 H 0.40466 0.47399 0.99851 0.0
H985 H 0.42607 0.48176 0.77925 0.0
H986 H 0.41091 0.4067 0.79173 0.0
H987 H 0.46425 0.55444 0.03827 0.0
H988 H 0.37449 0.48827 0.82952 0.0
H989 H 0.37133 0.46857 1.00922 0.0
C990 C 0.03331 0.44641 0.38913 0.0
C991 C 0.01628 0.43462 0.35859 0.0
N992 N 0.01076 0.44635 0.33147 0.0
N993 N 0.03848 0.46542 0.3806 0.0
C994 C 0.0245 0.46491 0.34507 0.0
H995 H 0.04082 0.44145 0.41847 0.0
Co996 Co 0.0568 0.48628 0.425 0.0
C997 C 0.07948 0.515 0.32684 0.0
O998 O 0.09617 0.51923 0.35226 0.0
N999 N 0.07388 0.50636 0.4765 0.0
C1000 C 0.08855 0.53366 0.53056 0.0
C1001 C 0.08387 0.52619 0.47382 0.0
C1002 C 0.07229 0.50229 0.5353 0.0
N1003 N 0.08096 0.51856 0.56938 0.0
O1004 O 0.03747 0.49229 0.44578 0.0
H1005 H 0.086 0.53481 0.43439 0.0
H1006 H 0.06394 0.48751 0.55275 0.0
O1007 O 0.06336 0.50365 0.35396 0.0
C1008 C 0.02508 0.48181 0.48496 0.0
O1009 O 0.0265 0.46741 0.50973 0.0
N1010 N 0.07585 0.4796 0.40418 0.0
C1011 C 0.09882 0.46322 0.37441 0.0
C1012 C 0.08942 0.46785 0.33041 0.0
C1013 C 0.07771 0.4757 0.3463 0.0
C1014 C 0.08514 0.47529 0.44757 0.0
C1015 C 0.09681 0.46713 0.43355 0.0
H1016 H 0.06924 0.47758 0.31199 0.0
H1017 H 0.08279 0.47719 0.49341 0.0
H1018 H 0.02345 0.47775 0.3337 0.0
H1019 H 0.0082 0.4187 0.35816 0.0
H1020 H 0.09571 0.54906 0.54245 0.0
H1021 H 0.09024 0.46444 0.2845 0.0
H1022 H 0.10373 0.46337 0.46865 0.0
C1023 C 0.5014 0.58215 0.34885 0.0
C1024 C 0.51615 0.58493 0.31032 0.0
N1025 N 0.51312 0.56712 0.29472 0.0
N1026 N 0.48975 0.56267 0.35923 0.0
C1027 C 0.49688 0.55397 0.32375 0.0
H1028 H 0.5001 0.59366 0.37075 0.0
Co1029 Co 0.47024 0.54978 0.41658 0.0
C1030 C 0.44802 0.53719 0.32005 0.0
O1031 O 0.44762 0.55313 0.33542 0.0
N1032 N 0.45118 0.53694 0.47597 0.0
C1033 C 0.42549 0.52627 0.53629 0.0
C1034 C 0.43197 0.53131 0.47849 0.0
C1035 C 0.45592 0.53502 0.53229 0.0
N1036 N 0.44066 0.52862 0.57006 0.0
O1037 O 0.48169 0.53412 0.4427 0.0
H1038 H 0.42353 0.53193 0.44168 0.0
H1039 H 0.47078 0.53972 0.54621 0.0
O1040 O 0.45502 0.53009 0.35753 0.0
C1041 C 0.49631 0.53133 0.44566 0.0
O1042 O 0.51328 0.54417 0.42235 0.0
N1043 N 0.48446 0.57021 0.4692 0.0
C1044 C 0.50588 0.60925 0.5027 0.0
C1045 C 0.4857 0.60049 0.4924 0.0
C1046 C 0.47528 0.58092 0.47529 0.0
C1047 C 0.50349 0.57766 0.48643 0.0
C1048 C 0.5146 0.5974 0.50302 0.0
H1049 H 0.46034 0.57493 0.46007 0.0
H1050 H 0.51078 0.56928 0.48109 0.0
H1051 H 0.49129 0.53826 0.32307 0.0
H1052 H 0.52861 0.59885 0.2971 0.0
H1053 H 0.41092 0.5219 0.55254 0.0
H1054 H 0.4785 0.60918 0.49062 0.0
H1055 H 0.53021 0.60377 0.51071 0.0
C1056 C 0.40612 0.93991 0.40874 0.0
C1057 C 0.40764 0.95438 0.37093 0.0
N1058 N 0.42418 0.96091 0.33878 0.0
N1059 N 0.42158 0.93723 0.40024 0.0
C1060 C 0.43232 0.95022 0.35739 0.0
H1061 H 0.39504 0.93256 0.44248 0.0
Co1062 Co 0.42917 0.92297 0.44878 0.0
C1063 C 0.43439 0.89996 0.34795 0.0
O1064 O 0.42249 0.88274 0.37178 0.0
N1065 N 0.4374 0.90986 0.50216 0.0
C1066 C 0.44825 0.89295 0.5536 0.0
C1067 C 0.44388 0.89691 0.49773 0.0
C1068 C 0.4385 0.91383 0.56088 0.0
N1069 N 0.44494 0.90371 0.59344 0.0
O1070 O 0.4541 0.94563 0.45666 0.0
H1071 H 0.44571 0.89091 0.457 0.0
H1072 H 0.43397 0.92359 0.57961 0.0
O1073 O 0.43853 0.91567 0.37643 0.0
C1074 C 0.45535 0.95865 0.49246 0.0
O1075 O 0.43965 0.95547 0.52203 0.0
N1076 N 0.40373 0.90068 0.44322 0.0
C1077 C 0.36442 0.87092 0.44269 0.0
C1078 C 0.37422 0.87936 0.38959 0.0
C1079 C 0.39382 0.89443 0.39086 0.0
C1080 C 0.3942 0.89275 0.49517 0.0
C1081 C 0.37469 0.87769 0.49585 0.0
H1082 H 0.4008 0.90159 0.34984 0.0
H1083 H 0.40133 0.89861 0.53681 0.0
H1084 H 0.44665 0.95292 0.34371 0.0
H1085 H 0.39778 0.96025 0.36903 0.0
H1086 H 0.45375 0.88311 0.56397 0.0
H1087 H 0.36656 0.87507 0.34773 0.0
H1088 H 0.36749 0.87184 0.53788 0.0
C1089 C 0.14815 0.40289 0.51752 0.0
C1090 C 0.13488 0.39022 0.55867 0.0
N1091 N 0.14068 0.37746 0.57568 0.0
N1092 N 0.16202 0.39785 0.50795 0.0
C1093 C 0.15738 0.38277 0.54567 0.0
H1094 H 0.14716 0.41442 0.49431 0.0
Co1095 Co 0.18224 0.40719 0.45145 0.0
C1096 C 0.20464 0.42011 0.54411 0.0
O1097 O 0.20342 0.43512 0.52334 0.0
N1098 N 0.20217 0.41609 0.39379 0.0
C1099 C 0.22863 0.43383 0.33826 0.0
C1100 C 0.22111 0.43049 0.39508 0.0
C1101 C 0.19867 0.41079 0.33618 0.0
N1102 N 0.21439 0.42144 0.30108 0.0
O1103 O 0.17357 0.38061 0.42421 0.0
H1104 H 0.22869 0.43876 0.43399 0.0
H1105 H 0.18429 0.40029 0.31977 0.0
O1106 O 0.19856 0.40503 0.51085 0.0
C1107 C 0.15813 0.36368 0.4219 0.0
O1108 O 0.14137 0.36105 0.44261 0.0
N1109 N 0.16699 0.41165 0.39807 0.0
C1110 C 0.14508 0.42639 0.34705 0.0
C1111 C 0.16326 0.43911 0.37259 0.0
C1112 C 0.17391 0.43137 0.39823 0.0
C1113 C 0.15042 0.39922 0.36749 0.0
C1114 C 0.139 0.40635 0.34212 0.0
H1115 H 0.18714 0.44097 0.42246 0.0
H1116 H 0.14534 0.38378 0.3646 0.0
H1117 H 0.16515 0.37465 0.54719 0.0
H1118 H 0.12168 0.38999 0.57339 0.0
H1119 H 0.24325 0.44503 0.32517 0.0
H1120 H 0.16827 0.45462 0.3782 0.0
H1121 H 0.12498 0.39618 0.32242 0.0
C1122 C 0.6126 0.74355 0.45943 0.0
C1123 C 0.62798 0.7478 0.49679 0.0
N1124 N 0.63237 0.76434 0.52663 0.0
N1125 N 0.60714 0.75719 0.46628 0.0
C1126 C 0.61951 0.76973 0.50714 0.0
H1127 H 0.60617 0.73164 0.42788 0.0
Co1128 Co 0.58926 0.75984 0.41929 0.0
C1129 C 0.56402 0.7621 0.51605 0.0
O1130 O 0.54808 0.74919 0.48826 0.0
N1131 N 0.5726 0.76313 0.36578 0.0
C1132 C 0.55526 0.77324 0.31329 0.0
C1133 C 0.56038 0.77052 0.36959 0.0
C1134 C 0.57509 0.76216 0.30665 0.0
N1135 N 0.56474 0.7682 0.27357 0.0
O1136 O 0.60862 0.78603 0.40412 0.0
H1137 H 0.55649 0.77506 0.4099 0.0
H1138 H 0.58482 0.75753 0.28824 0.0
O1139 O 0.58073 0.76873 0.49058 0.0
C1140 C 0.62235 0.78923 0.3684 0.0
O1141 O 0.62159 0.77439 0.33937 0.0
N1142 N 0.57032 0.73323 0.43506 0.0
C1143 C 0.54745 0.69314 0.45958 0.0
C1144 C 0.55673 0.70657 0.50512 0.0
C1145 C 0.56821 0.72642 0.49196 0.0
C1146 C 0.56134 0.7203 0.38994 0.0
C1147 C 0.54973 0.70013 0.4013 0.0
H1148 H 0.57621 0.73624 0.5278 0.0
H1149 H 0.56378 0.72538 0.34474 0.0
H1150 H 0.61985 0.78322 0.51922 0.0
H1151 H 0.63567 0.73964 0.50048 0.0
H1152 H 0.54613 0.77951 0.30241 0.0
H1153 H 0.55594 0.70171 0.5504 0.0
H1154 H 0.54298 0.69005 0.36482 0.0
C1155 C 0.24057 0.84397 0.47118 0.0
C1156 C 0.24042 0.85785 0.50767 0.0
N1157 N 0.22288 0.84971 0.5352 0.0
N1158 N 0.22342 0.82694 0.47684 0.0
C1159 C 0.21297 0.8309 0.51628 0.0
H1160 H 0.25221 0.84634 0.44095 0.0
Co1161 Co 0.21471 0.80476 0.42915 0.0
C1162 C 0.20656 0.77541 0.5308 0.0
O1163 O 0.21753 0.76896 0.50705 0.0
N1164 N 0.20576 0.78337 0.37585 0.0
C1165 C 0.19467 0.75569 0.32405 0.0
C1166 C 0.19858 0.76379 0.38012 0.0
C1167 C 0.20543 0.78657 0.31686 0.0
N1168 N 0.19905 0.77011 0.28422 0.0
O1169 O 0.19059 0.80422 0.41914 0.0
H1170 H 0.19592 0.75566 0.42075 0.0
H1171 H 0.21034 0.80096 0.29792 0.0
O1172 O 0.20392 0.78808 0.50232 0.0
C1173 C 0.19092 0.81708 0.38413 0.0
O1174 O 0.20734 0.82893 0.35624 0.0
N1175 N 0.2394 0.80639 0.43671 0.0
C1176 C 0.27968 0.82011 0.4413 0.0
C1177 C 0.26856 0.81562 0.49331 0.0
C1178 C 0.24853 0.80911 0.49012 0.0
C1179 C 0.24987 0.80978 0.38566 0.0
C1180 C 0.26999 0.81654 0.38693 0.0
H1181 H 0.24085 0.80807 0.5307 0.0
H1182 H 0.2431 0.809 0.34358 0.0
H1183 H 0.1979 0.82055 0.52793 0.0
H1184 H 0.25225 0.87284 0.51265 0.0
H1185 H 0.18875 0.74031 0.31349 0.0
H1186 H 0.27555 0.81847 0.53623 0.0
H1187 H 0.2781 0.82049 0.34574 0.0
C1188 C 0.33971 0.17767 0.12636 0.0
C1189 C 0.34737 0.1697 0.16705 0.0
C1190 C 0.32111 0.17554 0.13455 0.0
C1191 C 0.30948 0.16536 0.18373 0.0
H1192 H 0.34798 0.18533 0.08726 0.0
H1193 H 0.31573 0.18172 0.10162 0.0
S1194 S 0.32349 0.14317 0.30591 0.0
N1195 N 0.34237 0.1522 0.26018 0.0
N1196 N 0.30739 0.14814 0.27544 0.0
C1197 C 0.3171 0.1576 0.22535 0.0
C1198 C 0.33606 0.15981 0.21707 0.0
C1199 C 0.80917 0.14872 0.20456 0.0
C1200 C 0.82517 0.14534 0.20597 0.0
C1201 C 0.81164 0.16702 0.18759 0.0
C1202 C 0.83023 0.18267 0.17226 0.0
H1203 H 0.79465 0.13729 0.21775 0.0
H1204 H 0.79903 0.16912 0.18848 0.0
S1205 S 0.87647 0.1811 0.16172 0.0
N1206 N 0.86002 0.15895 0.18511 0.0
N1207 N 0.86457 0.19334 0.15437 0.0
C1208 C 0.8462 0.17937 0.1712 0.0
C1209 C 0.84369 0.16069 0.18767 0.0
C1210 C 0.81596 0.66467 0.22759 0.0
C1211 C 0.81465 0.65334 0.17796 0.0
C1212 C 0.83187 0.68366 0.2349 0.0
C1213 C 0.84703 0.69193 0.19288 0.0
H1214 H 0.80472 0.65879 0.2615 0.0
H1215 H 0.83246 0.69172 0.27436 0.0
S1216 S 0.84979 0.66889 0.05275 0.0
N1217 N 0.82932 0.65208 0.08457 0.0
N1218 N 0.8593 0.68781 0.09828 0.0
C1219 C 0.84574 0.68089 0.14245 0.0
C1220 C 0.82953 0.66156 0.13501 0.0
C1221 C 0.14206 0.32817 0.3936 0.0
C1222 C 0.15912 0.34685 0.39613 0.0
C1223 C 0.14275 0.31172 0.3729 0.0
C1224 C 0.16057 0.31334 0.35481 0.0
H1225 H 0.12808 0.32608 0.40875 0.0
H1226 H 0.12941 0.29752 0.37329 0.0
S1227 S 0.20892 0.359 0.34545 0.0
N1228 N 0.19406 0.36612 0.37304 0.0
N1229 N 0.19526 0.33504 0.33555 0.0
C1230 C 0.17755 0.33193 0.35479 0.0
C1231 C 0.17686 0.34874 0.37505 0.0
C1232 C 0.65278 0.81357 0.31609 0.0
C1233 C 0.63992 0.80892 0.36428 0.0
C1234 C 0.66988 0.83191 0.3119 0.0
C1235 C 0.67479 0.84626 0.35588 0.0
H1236 H 0.64953 0.80303 0.28097 0.0
H1237 H 0.67912 0.83495 0.27329 0.0
S1238 S 0.64679 0.84083 0.49343 0.0
N1239 N 0.6337 0.8198 0.4584 0.0
N1240 N 0.66595 0.85424 0.45067 0.0
C1241 C 0.66225 0.84168 0.4049 0.0
C1242 C 0.64478 0.82303 0.40904 0.0
C1243 C 0.1573 0.83445 0.3234 0.0
C1244 C 0.14116 0.82586 0.36209 0.0
C1245 C 0.17323 0.83138 0.33076 0.0
C1246 C 0.17364 0.8196 0.3771 0.0
H1247 H 0.15756 0.84343 0.28657 0.0
H1248 H 0.18526 0.83823 0.29952 0.0
S1249 S 0.13556 0.79478 0.49294 0.0
N1250 N 0.12689 0.80572 0.45004 0.0
N1251 N 0.15685 0.79996 0.46384 0.0
C1252 C 0.1577 0.8111 0.41662 0.0
C1253 C 0.14146 0.81424 0.40914 0.0
C1254 C 0.66775 0.83926 0.80408 0.0
C1255 C 0.67656 0.83227 0.84394 0.0
C1256 C 0.64829 0.83476 0.8116 0.0
C1257 C 0.63687 0.82314 0.85934 0.0
H1258 H 0.67583 0.84803 0.76616 0.0
H1259 H 0.64214 0.8404 0.77937 0.0
S1260 S 0.65352 0.80249 0.97893 0.0
N1261 N 0.67271 0.81391 0.9347 0.0
N1262 N 0.63611 0.80554 0.94883 0.0
C1263 C 0.64557 0.81628 0.9001 0.0
C1264 C 0.66542 0.82084 0.89243 0.0
C1265 C 0.1662 0.81665 0.90549 0.0
C1266 C 0.15512 0.80099 0.8667 0.0
C1267 C 0.16724 0.83484 0.89829 0.0
C1268 C 0.15728 0.8381 0.85198 0.0
H1269 H 0.1739 0.81481 0.94243 0.0
H1270 H 0.17583 0.84636 0.92972 0.0
S1271 S 0.12717 0.80221 0.73609 0.0
N1272 N 0.13458 0.79011 0.77881 0.0
N1273 N 0.13655 0.82435 0.76521 0.0
C1274 C 0.14635 0.82265 0.81228 0.0
C1275 C 0.14528 0.80409 0.81964 0.0
C1276 C 0.16198 0.31915 0.82939 0.0
C1277 C 0.14601 0.31224 0.86862 0.0
C1278 C 0.17968 0.33621 0.84165 0.0
C1279 C 0.182 0.34695 0.89349 0.0
H1280 H 0.16073 0.31155 0.78832 0.0
H1281 H 0.19147 0.34122 0.80959 0.0
S1282 S 0.14525 0.33418 1.01302 0.0
N1283 N 0.134 0.31678 0.9631 0.0
N1284 N 0.16737 0.34896 0.98607 0.0
C1285 C 0.16633 0.33998 0.93381 0.0
C1286 C 0.1483 0.32258 0.92137 0.0
C1287 C 0.81912 0.65832 0.65081 0.0
C1288 C 0.82846 0.65197 0.69087 0.0
C1289 C 0.81998 0.67639 0.65803 0.0
C1290 C 0.83025 0.68882 0.70549 0.0
H1291 H 0.81123 0.64939 0.61307 0.0
H1292 H 0.8126 0.68066 0.62583 0.0
S1293 S 0.85624 0.67849 0.82484 0.0
N1294 N 0.84767 0.65914 0.78116 0.0
N1295 N 0.84936 0.69324 0.79456 0.0
C1296 C 0.83955 0.68262 0.74623 0.0
C1297 C 0.83862 0.66414 0.73899 0.0
C1298 C 0.32561 0.15249 0.64716 0.0
C1299 C 0.31096 0.15041 0.68699 0.0
C1300 C 0.34285 0.17056 0.63955 0.0
C1301 C 0.34614 0.18728 0.67148 0.0
H1302 H 0.32378 0.1401 0.62128 0.0
H1303 H 0.35358 0.1714 0.6079 0.0
S1304 S 0.31262 0.18955 0.78286 0.0
N1305 N 0.30104 0.16656 0.75982 0.0
N1306 N 0.33345 0.20051 0.7456 0.0
C1307 C 0.3317 0.18539 0.71198 0.0
C1308 C 0.31411 0.16697 0.71968 0.0
C1309 C 0.83033 0.17837 0.64807 0.0
C1310 C 0.81275 0.16609 0.67835 0.0
C1311 C 0.84743 0.17769 0.66003 0.0
C1312 C 0.84759 0.16468 0.7026 0.0
H1313 H 0.83089 0.18845 0.61431 0.0
H1314 H 0.86054 0.18729 0.635 0.0
S1315 S 0.80572 0.13032 0.79705 0.0
N1316 N 0.79676 0.14112 0.75487 0.0
N1317 N 0.8289 0.13986 0.77713 0.0
C1318 C 0.83021 0.15257 0.73405 0.0
C1319 C 0.8128 0.15328 0.72198 0.0
C1320 C 0.00679 0.4995 0.46721 0.0
C1321 C 0.0087 0.48513 0.49898 0.0
C1322 C 0.99119 0.50276 0.47775 0.0
C1323 C 0.97687 0.49177 0.52043 0.0
H1324 H 0.01733 0.50829 0.43342 0.0
H1325 H 0.99036 0.51395 0.45185 0.0
S1326 S 0.97567 0.45306 0.61803 0.0
N1327 N -0.00465 0.46025 0.57648 0.0
N1328 N 0.96586 0.46633 0.59632 0.0
C1329 C 0.97865 0.47745 0.55309 0.0
C1330 C -0.00538 0.47416 0.54239 0.0
C1331 C 0.50885 0.49502 0.51707 0.0
C1332 C 0.4905 0.47972 0.53664 0.0
C1333 C 0.51058 0.51153 0.48737 0.0
C1334 C 0.49404 0.51349 0.47611 0.0
H1335 H 0.52208 0.4943 0.52466 0.0
H1336 H 0.52505 0.52289 0.47356 0.0
S1337 S 0.44243 0.47726 0.51627 0.0
N1338 N 0.45533 0.46747 0.54135 0.0
N1339 N 0.45852 0.49826 0.48533 0.0
C1340 C 0.47554 0.49817 0.4948 0.0
C1341 C 0.47379 0.48137 0.52505 0.0
C1342 C 0.49423 0.00651 0.55959 0.0
C1343 C 0.50963 0.01334 0.51831 0.0
C1344 C 0.47674 0.98878 0.55079 0.0
C1345 C 0.47401 0.97723 0.50041 0.0
H1346 H 0.49576 0.01477 0.59945 0.0
H1347 H 0.46536 0.98401 0.58412 0.0
S1348 S 0.50928 0.98923 0.37688 0.0
N1349 N 0.52068 0.00762 0.42371 0.0
N1350 N 0.48778 0.97427 0.40733 0.0
C1351 C 0.48918 0.98399 0.45836 0.0
C1352 C 0.50699 0.00207 0.46726 0.0
C1353 C 0.4839 0.98418 0.97002 0.0
C1354 C 0.49246 0.97731 1.0113 0.0
C1355 C 0.48431 0.00202 0.97848 0.0
C1356 C 0.49333 0.01369 0.02845 0.0
H1357 H 0.477 0.97583 0.93045 0.0
H1358 H 0.47765 0.00677 0.9452 0.0
S1359 S 0.51672 0.00171 0.15181 0.0
N1360 N 0.50944 0.98314 0.1055 0.0
N1361 N 0.51032 0.01676 0.12112 0.0
C1362 C 0.50178 0.00693 0.07045 0.0
C1363 C 0.5013 0.98871 0.06196 0.0
C1364 C 0.99323 0.47782 0.02496 0.0
C1365 C 0.97416 0.47504 0.01892 0.0
C1366 C 0.00965 0.49419 1.00015 0.0
C1367 C 0.00778 0.50857 0.96803 0.0
H1368 H -0.0044 0.46731 0.04942 0.0
H1369 H 0.02393 0.49557 1.00646 0.0
S1370 S 0.9611 0.50823 0.93847 0.0
N1371 N 0.95445 0.48818 0.97802 0.0
N1372 N 0.98514 0.51877 0.9311 0.0
C1373 C 0.9888 0.506 0.96157 0.0
C1374 C 0.97207 0.48932 0.98702 0.0
C1375 C 0.51561 0.50881 0.98951 0.0
C1376 C 0.51716 0.49983 0.0414 0.0
C1377 C 0.49729 0.50379 0.96606 0.0
C1378 C 0.47989 0.48969 0.99387 0.0
H1379 H 0.52861 0.51964 0.9663 0.0
H1380 H 0.49682 0.51115 0.92605 0.0
S1381 S 0.47604 0.4624 0.13228 0.0
N1382 N 0.49981 0.47651 0.12089 0.0
N1383 N 0.46534 0.46703 0.0768 0.0
C1384 C 0.48123 0.48066 0.04607 0.0
C1385 C 0.49989 0.48575 0.06987 0.0
C1386 C 0.19551 0.18833 0.22782 0.0
C1387 C 0.1891 0.17098 0.26074 0.0
C1388 C 0.18633 0.1995 0.23317 0.0
C1389 C 0.1703 0.19374 0.27153 0.0
H1390 H 0.2082 0.19372 0.19906 0.0
H1391 H 0.19225 0.2131 0.20828 0.0
S1392 S 0.14716 0.1489 0.36513 0.0
N1393 N 0.16542 0.1481 0.33157 0.0
N1394 N 0.14784 0.16914 0.34129 0.0
C1395 C 0.16348 0.17623 0.30409 0.0
C1396 C 0.17295 0.16484 0.29877 0.0
C1397 C 0.78362 0.99015 0.17936 0.0
C1398 C 0.77051 0.983 0.22744 0.0
C1399 C 0.79316 0.01008 0.16377 0.0
C1400 C 0.78975 0.02348 0.19529 0.0
H1401 H 0.78696 0.98038 0.1547 0.0
H1402 H 0.80383 0.01519 0.12824 0.0
S1403 S 0.75593 0.01197 0.32248 0.0
N1404 N 0.75377 0.99061 0.3043 0.0
N1405 N 0.77199 0.0282 0.27564 0.0
C1406 C 0.77615 0.0164 0.24207 0.0
C1407 C 0.76651 -0.00387 0.25814 0.0
C1408 C 0.98659 0.82071 0.29836 0.0
C1409 C 0.97588 0.80429 0.26188 0.0
C1410 C 0.00708 0.82971 0.30208 0.0
C1411 C 0.01734 0.82243 0.26972 0.0
H1412 H 0.97905 0.82643 0.32462 0.0
H1413 H 0.01492 0.84228 0.33088 0.0
S1414 S -0.0044 0.77861 0.17234 0.0
N1415 N 0.97671 0.78052 0.19526 0.0
N1416 N 0.01511 0.79713 0.20295 0.0
C1417 C 0.00668 0.80591 0.23345 0.0
C1418 C 0.98595 0.7969 0.22937 0.0
C1419 C 0.79579 0.79953 0.80483 0.0
C1420 C 0.81251 0.80461 0.7702 0.0
C1421 C 0.78757 0.81166 0.80728 0.0
C1422 C 0.79565 0.82931 0.77495 0.0
H1423 H 0.78864 0.78578 0.82916 0.0
H1424 H 0.77439 0.80685 0.83339 0.0
S1425 S 0.83989 0.84991 0.67983 0.0
N1426 N 0.83742 0.82899 0.70482 0.0
N1427 N 0.82152 0.85168 0.70856 0.0
C1428 C 0.81244 0.83474 0.74048 0.0
C1429 C 0.82097 0.82242 0.73832 0.0
C1430 C 0.19663 0.98649 0.81791 0.0
C1431 C 0.18003 0.97431 0.78382 0.0
C1432 C 0.20598 0.00691 0.81261 0.0
C1433 C 0.199 0.01594 0.77333 0.0
H1434 H 0.20287 0.98016 0.84739 0.0
H1435 H 0.21921 0.01564 0.83805 0.0
S1436 S 0.15484 0.99048 0.67836 0.0
N1437 N 0.15621 0.97251 0.7121 0.0
N1438 N 0.17363 0.01115 0.70281 0.0
C1439 C 0.18199 0.00393 0.74038 0.0
C1440 C 0.17254 0.98305 0.74548 0.0
C1441 C 0.98598 0.16768 0.78879 0.0
C1442 C 0.97438 0.17402 0.75955 0.0
C1443 C 0.00639 0.17992 0.79195 0.0
C1444 C 0.01562 0.1988 0.7663 0.0
H1445 H 0.97921 0.15332 0.80963 0.0
H1446 H 0.01499 0.17469 0.81493 0.0
S1447 S 0.99122 0.22276 0.69047 0.0
N1448 N 0.97321 0.20058 0.70783 0.0
N1449 N 0.01147 0.22366 0.71441 0.0
C1450 C 0.00405 0.20531 0.73768 0.0
C1451 C 0.98342 0.19287 0.73421 0.0
C1452 C 0.87225 0.53602 0.54878 0.0
C1453 C 0.86662 0.51868 0.5808 0.0
C1454 C 0.86151 0.54567 0.55281 0.0
C1455 C 0.84469 0.53824 0.5887 0.0
H1456 H 0.88553 0.54263 0.52234 0.0
H1457 H 0.86696 0.55953 0.5296 0.0
S1458 S 0.82276 0.4921 0.67635 0.0
N1459 N 0.84261 0.49361 0.64626 0.0
N1460 N 0.822 0.51169 0.65317 0.0
C1461 C 0.83843 0.52044 0.61908 0.0
C1462 C 0.84951 0.51067 0.61528 0.0
C1463 C 0.47337 0.3512 0.5141 0.0
C1464 C 0.46624 0.36251 0.54114 0.0
C1465 C 0.4641 0.33083 0.52323 0.0
C1466 C 0.44772 0.32127 0.5608 0.0
H1467 H 0.4866 0.35828 0.4875 0.0
H1468 H 0.47017 0.32261 0.50249 0.0
S1469 S 0.42293 0.34416 0.63965 0.0
N1470 N 0.44146 0.36264 0.60488 0.0
N1471 N 0.42406 0.32433 0.6223 0.0
C1472 C 0.4401 0.33232 0.58652 0.0
C1473 C 0.44935 0.35297 0.57654 0.0
C1474 C 0.67291 0.13382 0.55307 0.0
C1475 C 0.68303 0.14994 0.59121 0.0
C1476 C 0.65242 0.12336 0.55114 0.0
C1477 C 0.64123 0.12853 0.58745 0.0
H1478 H 0.68086 0.12879 0.52587 0.0
H1479 H 0.64528 0.11068 0.52236 0.0
S1480 S 0.66049 0.17051 0.69129 0.0
N1481 N 0.68032 0.1714 0.6633 0.0
N1482 N 0.6416 0.15142 0.66015 0.0
C1483 C 0.65108 0.14488 0.62477 0.0
C1484 C 0.67202 0.15565 0.62652 0.0
C1485 C 0.47804 0.16052 0.06568 0.0
C1486 C 0.46092 0.15483 0.09898 0.0
C1487 C 0.48699 0.14888 0.06499 0.0
C1488 C 0.47906 0.13121 0.09748 0.0
H1489 H 0.48453 0.17404 0.04024 0.0
H1490 H 0.50019 0.15371 0.03897 0.0
S1491 S 0.43319 0.10882 0.18602 0.0
N1492 N 0.43561 0.12974 0.16153 0.0
N1493 N 0.45233 0.10792 0.16005 0.0
C1494 C 0.46174 0.12524 0.12992 0.0
C1495 C 0.45269 0.13703 0.13067 0.0
C1496 C 0.87441 0.32953 0.07613 0.0
C1497 C 0.85642 0.31656 0.04899 0.0
C1498 C 0.88514 0.34936 0.05934 0.0
C1499 C 0.87826 0.35698 1.01489 0.0
H1500 H 0.88028 0.32429 0.11043 0.0
H1501 H 0.89857 0.35897 0.0829 0.0
S1502 S 0.83221 0.32909 0.92947 0.0
N1503 N 0.83228 0.31269 0.97516 0.0
N1504 N 0.85262 0.34994 0.94311 0.0
C1505 C 0.86048 0.3441 0.98674 0.0
C1506 C 0.84953 0.32391 1.00386 0.0
C1507 C 0.65806 0.52985 0.17842 0.0
C1508 C 0.64675 0.51355 0.14216 0.0
C1509 C 0.67845 0.53946 0.17666 0.0
C1510 C 0.6883 0.53312 0.13864 0.0
H1511 H 0.65117 0.53598 0.20589 0.0
H1512 H 0.68655 0.55257 0.20321 0.0
S1513 S 0.66547 0.48974 0.04027 0.0
N1514 N 0.64672 0.49029 0.07123 0.0
N1515 N 0.68543 0.50866 0.06769 0.0
C1516 C 0.67725 0.51629 0.10422 0.0
C1517 C 0.65637 0.5064 0.10614 0.0
C1518 C 0.50639 0.83115 0.9002 0.0
C1519 C 0.52343 0.83597 0.93285 0.0
C1520 C 0.4979 0.8432 0.90187 0.0
C1521 C 0.50621 0.86037 0.9363 0.0
H1522 H 0.49959 0.81799 0.87335 0.0
H1523 H 0.48474 0.83904 0.8764 0.0
S1524 S 0.55203 0.88066 0.02402 0.0
N1525 N 0.54915 0.85993 0.99654 0.0
N1526 N 0.53311 0.88236 1.00008 0.0
C1527 C 0.52343 0.86552 0.96809 0.0
C1528 C 0.53207 0.85337 0.96628 0.0
C1529 C 0.09569 0.63352 0.96093 0.0
C1530 C 0.10234 0.62445 1.00119 0.0
C1531 C 0.1063 0.65388 0.95116 0.0
C1532 C 0.12389 0.66594 0.98158 0.0
H1533 H 0.08264 0.62472 0.93479 0.0
H1534 H 0.10076 0.66021 0.91925 0.0
S1535 S 0.14711 0.64955 0.09366 0.0
N1536 N 0.12718 0.62914 0.07334 0.0
N1537 N 0.14719 0.66745 0.05492 0.0
C1538 C 0.13039 0.65715 0.02331 0.0
C1539 C 0.11962 0.63641 0.03306 0.0
C1540 C 0.34354 0.48185 0.96679 0.0
C1541 C 0.35012 0.47352 0.92401 0.0
C1542 C 0.32353 0.47562 0.97226 0.0
C1543 C 0.30972 0.46089 0.93514 0.0
H1544 H 0.3539 0.49307 0.99638 0.0
H1545 H 0.3188 0.48214 1.00595 0.0
S1546 S 0.31972 0.43328 0.82031 0.0
N1547 N 0.34153 0.44932 0.84638 0.0
N1548 N 0.30392 0.43723 0.85715 0.0
C1549 C 0.31624 0.45235 0.8927 0.0
C1550 C 0.33649 0.45879 0.88697 0.0
C1551 C 0.10347 0.43442 0.38528 0.0
C1552 C 0.10932 0.45277 0.35918 0.0
C1553 C 0.11413 0.42484 0.37565 0.0
C1554 C 0.13106 0.43345 0.3401 0.0
H1555 H 0.09095 0.42775 0.41484 0.0
H1556 H 0.10992 0.41135 0.39973 0.0
S1557 S 0.15119 0.48034 0.25714 0.0
N1558 N 0.13192 0.47843 0.29242 0.0
N1559 N 0.15223 0.46044 0.27478 0.0
C1560 C 0.13632 0.4512 0.31081 0.0
C1561 C 0.12536 0.46089 0.32027 0.0
C1562 C 0.53251 0.63926 0.45484 0.0
C1563 C 0.518 0.6309 0.49901 0.0
C1564 C 0.54178 0.65937 0.44196 0.0
C1565 C 0.53693 0.67185 0.47291 0.0
H1566 H 0.53615 0.63005 0.42829 0.0
H1567 H 0.55283 0.6652 0.40747 0.0
S1568 S 0.5004 0.65735 0.59388 0.0
N1569 N 0.49962 0.63667 0.57489 0.0
N1570 N 0.51701 0.67457 0.55043 0.0
C1571 C 0.52278 0.66378 0.51811 0.0
C1572 C 0.51331 0.64328 0.53117 0.0
C1573 C 0.31055 0.84812 0.48095 0.0
C1574 C 0.30144 0.83157 0.44392 0.0
C1575 C 0.33091 0.86046 0.48084 0.0
C1576 C 0.34302 0.85682 0.44356 0.0
H1577 H 0.30183 0.85202 0.50888 0.0
H1578 H 0.33716 0.87333 0.50898 0.0
S1579 S 0.32674 0.81466 0.3414 0.0
N1580 N 0.30621 0.81155 0.37129 0.0
N1581 N 0.34465 0.83496 0.37085 0.0
C1582 C 0.33423 0.84012 0.40714 0.0
C1583 C 0.31341 0.82745 0.40739 0.0
C1584 C 0.21898 0.09873 0.93812 0.0
C1585 C 0.23438 0.11239 0.90179 0.0
C1586 C 0.21985 0.10041 1.00003 0.0
C1587 C 0.23603 0.11597 0.02867 0.0
H1588 H 0.20633 0.0862 0.91877 0.0
H1589 H 0.20769 0.08941 0.02576 0.0
S1590 S 0.27978 0.15639 0.95372 0.0
N1591 N 0.26601 0.14244 0.89903 0.0
N1592 N 0.26769 0.14575 1.01507 0.0
C1593 C 0.25135 0.13006 0.99279 0.0
C1594 C 0.25052 0.12821 0.92961 0.0
C1595 C 0.86937 0.12757 0.94654 0.0
C1596 C 0.87756 0.11767 0.91609 0.0
C1597 C 0.86842 0.1275 1.00876 0.0
C1598 C 0.87583 0.11773 0.04321 0.0
H1599 H 0.86406 0.13589 0.92231 0.0
H1600 H 0.86239 0.13563 0.03021 0.0
S1601 S 0.89634 0.08744 0.98661 0.0
N1602 N 0.89146 0.09618 0.92653 0.0
N1603 N 0.88978 0.0963 0.04268 0.0
C1604 C 0.88323 0.10708 1.01366 0.0
C1605 C 0.88402 0.10695 0.95043 0.0
C1606 C 0.8741 0.75629 0.9482 0.0
C1607 C 0.8666 0.7673 0.92128 0.0
C1608 C 0.8768 0.75673 1.00998 0.0
C1609 C 0.87158 0.76775 0.04785 0.0
H1610 H 0.87827 0.74758 0.92125 0.0
H1611 H 0.88326 0.74847 0.02774 0.0
S1612 S 0.84865 0.79694 0.99872 0.0
N1613 N 0.85287 0.78858 0.93693 0.0
N1614 N 0.85656 0.78836 0.05222 0.0
C1615 C 0.86331 0.77819 0.02103 0.0
C1616 C 0.86114 0.77819 0.95816 0.0
C1617 C 0.12615 0.25235 0.6037 0.0
C1618 C 0.10862 0.23917 0.63303 0.0
C1619 C 0.12784 0.25197 0.54156 0.0
C1620 C 0.1119 0.2387 0.50605 0.0
H1621 H 0.13878 0.26272 0.62906 0.0
H1622 H 0.14188 0.26188 0.52149 0.0
S1623 S 0.06175 0.20357 0.56077 0.0
N1624 N 0.07451 0.21373 0.62125 0.0
N1625 N 0.0773 0.21382 0.50542 0.0
C1626 C 0.09402 0.22621 0.53495 0.0
C1627 C 0.09247 0.22626 0.59801 0.0
C1628 C 0.73523 0.8787 0.59218 0.0
C1629 C 0.75312 0.8853 0.62264 0.0
C1630 C 0.73468 0.88075 0.53017 0.0
C1631 C 0.75193 0.88908 0.49561 0.0
H1632 H 0.72149 0.87169 0.6163 0.0
H1633 H 0.72057 0.87527 0.50887 0.0
S1634 S 0.80259 0.90921 0.5523 0.0
N1635 N 0.78868 0.90117 0.612 0.0
N1636 N 0.78737 0.90449 0.4965 0.0
C1637 C 0.76985 0.89588 0.52527 0.0
C1638 C 0.77052 0.89415 0.58832 0.0
C1639 C 0.117 0.86373 0.54538 0.0
C1640 C 0.12026 0.87991 0.50971 0.0
C1641 C 0.11913 0.86534 0.60744 0.0
C1642 C 0.12418 0.88307 0.63659 0.0
H1643 H 0.11238 0.84956 0.52549 0.0
H1644 H 0.11645 0.85253 0.63288 0.0
S1645 S 0.13713 0.93052 0.56382 0.0
N1646 N 0.13111 0.91484 0.50864 0.0
N1647 N 0.1342 0.91761 0.62446 0.0
C1648 C 0.12799 0.89946 0.60144 0.0
C1649 C 0.12625 0.89794 0.53839 0.0
C1650 C 0.76378 0.90224 0.08968 0.0
C1651 C 0.74732 0.88932 0.12418 0.0
C1652 C 0.7638 0.90078 0.02769 0.0
C1653 C 0.74747 0.88619 0.99696 0.0
H1654 H 0.7767 0.91403 0.11047 0.0
H1655 H 0.77679 0.91117 1.00354 0.0
S1656 S 0.7007 0.84829 0.06533 0.0
N1657 N 0.71434 0.86097 0.12205 0.0
N1658 N 0.71429 0.85842 1.00591 0.0
C1659 C 0.73102 0.8729 0.03069 0.0
C1660 C 0.73096 0.87442 0.09399 0.0
C1661 C 0.13029 0.87111 0.04353 0.0
C1662 C 0.11656 0.87298 1.00766 0.0
C1663 C 0.12905 0.87066 0.10585 0.0
C1664 C 0.11428 0.87251 0.13516 0.0
H1665 H 0.14201 0.86972 0.02336 0.0
H1666 H 0.13984 0.86907 0.13125 0.0
S1667 S 0.07386 0.87637 0.06311 0.0
N1668 N 0.08717 0.87587 1.00752 0.0
N1669 N 0.08485 0.87496 0.12349 0.0
C1670 C 0.10028 0.87403 0.10002 0.0
C1671 C 0.10139 0.87426 0.03676 0.0
C1672 C 0.1179 0.25457 0.03909 0.0
C1673 C 0.11742 0.23955 1.00342 0.0
C1674 C 0.11916 0.25421 0.10135 0.0
C1675 C 0.11954 0.23859 0.13075 0.0
H1676 H 0.11756 0.26689 0.01875 0.0
H1677 H 0.11957 0.2661 0.12666 0.0
S1678 S 0.11967 0.19613 0.05873 0.0
N1679 N 0.11809 0.20894 1.0032 0.0
N1680 N 0.12041 0.20824 0.11906 0.0
C1681 C 0.11933 0.22364 0.09566 0.0
C1682 C 0.11831 0.22413 0.03247 0.0
C1683 C 0.86304 0.75615 0.4479 0.0
C1684 C 0.88191 0.76639 0.42279 0.0
C1685 C 0.86028 0.75572 0.5098 0.0
C1686 C 0.87631 0.76506 0.54945 0.0
H1687 H 0.8503 0.74888 0.41949 0.0
H1688 H 0.84538 0.74822 0.52633 0.0
S1689 S 0.929 0.79128 0.50489 0.0
N1690 N 0.9169 0.78496 0.44191 0.0
N1691 N 0.91203 0.78286 0.5569 0.0
C1692 C 0.89532 0.77448 0.52425 0.0
C1693 C 0.89802 0.77544 0.46146 0.0
C1694 C 0.21726 0.10917 0.43666 0.0
C1695 C 0.2345 0.11735 0.40197 0.0
C1696 C 0.21788 0.10817 0.49868 0.0
C1697 C 0.23573 0.11498 0.52898 0.0
H1698 H 0.2031 0.10401 0.41601 0.0
H1699 H 0.20426 0.10199 0.52326 0.0
S1700 S 0.28514 0.13742 0.4601 0.0
N1701 N 0.27005 0.13212 0.40357 0.0
N1702 N 0.27113 0.13013 0.51973 0.0
C1703 C 0.25306 0.12279 0.4951 0.0
C1704 C 0.25247 0.12401 0.43187 0.0
C1705 C 0.85891 0.10089 0.51149 0.0
C1706 C 0.87178 0.11849 0.54065 0.0
C1707 C 0.85757 0.09995 0.4498 0.0
C1708 C 0.86885 0.1166 0.41409 0.0
H1709 H 0.84974 0.08762 0.53649 0.0
H1710 H 0.84752 0.08592 0.42981 0.0
S1711 S 0.90478 0.16641 0.46673 0.0
N1712 N 0.89638 0.15318 0.52775 0.0
N1713 N 0.89299 0.15131 0.41165 0.0
C1714 C 0.88136 0.13446 0.44203 0.0
C1715 C 0.88306 0.13543 0.50527 0.0
C1716 C 0.91127 0.47339 0.32712 0.0
C1717 C 0.90514 0.45665 0.36374 0.0
C1718 C 0.91111 0.47205 0.26478 0.0
C1719 C 0.90452 0.45387 0.23675 0.0
H1720 H 0.91577 0.48759 0.34664 0.0
H1721 H 0.9155 0.48516 0.23852 0.0
S1722 S 0.88943 0.40614 0.31126 0.0
N1723 N 0.89461 0.4218 0.36599 0.0
N1724 N 0.89307 0.41906 0.25027 0.0
C1725 C 0.89894 0.43721 0.27277 0.0
C1726 C 0.89953 0.43863 0.33577 0.0
C1727 C 0.55802 0.45437 0.3765 0.0
C1728 C 0.54743 0.46162 0.40741 0.0
C1729 C 0.55935 0.45518 0.31434 0.0
C1730 C 0.55034 0.46348 0.27983 0.0
H1731 H 0.56532 0.44792 0.4006 0.0
H1732 H 0.56801 0.44966 0.29339 0.0
S1733 S 0.52069 0.48452 0.33913 0.0
N1734 N 0.52765 0.47735 0.39854 0.0
N1735 N 0.52997 0.47874 0.2823 0.0
C1736 C 0.53942 0.47052 0.31026 0.0
C1737 C 0.53801 0.46962 0.37367 0.0
C1738 C 0.52986 0.07195 0.33832 0.0
C1739 C 0.53882 0.08927 0.37234 0.0
C1740 C 0.52805 0.07255 0.27633 0.0
C1741 C 0.53546 0.09055 0.24538 0.0
H1742 H 0.52377 0.05778 0.36005 0.0
H1743 H 0.5205 0.05875 0.25268 0.0
S1744 S 0.56204 0.14021 0.314 0.0
N1745 N 0.55626 0.12489 0.37036 0.0
N1746 N 0.55331 0.12626 0.25473 0.0
C1747 C 0.54513 0.108 0.2791 0.0
C1748 C 0.54666 0.10731 0.34217 0.0
C1749 C 0.77051 0.56071 0.86662 0.0
C1750 C 0.78538 0.57739 0.83747 0.0
C1751 C 0.76896 0.55981 0.92867 0.0
C1752 C 0.78203 0.57568 0.9645 0.0
H1753 H 0.76002 0.54818 0.8412 0.0
H1754 H 0.75703 0.54671 0.94855 0.0
S1755 S 0.82377 0.62276 0.91081 0.0
N1756 N 0.81363 0.61021 0.84992 0.0
N1757 N 0.81057 0.60848 0.96602 0.0
C1758 C 0.79703 0.59242 0.93604 0.0
C1759 C 0.79877 0.59328 0.87282 0.0
C1760 C 0.43969 0.22487 0.9082 0.0
C1761 C 0.42242 0.21628 0.94291 0.0
C1762 C 0.43923 0.22734 0.8466 0.0
C1763 C 0.42154 0.22169 0.81655 0.0
H1764 H 0.45377 0.22932 0.92843 0.0
H1765 H 0.45289 0.23374 0.82211 0.0
S1766 S 0.37205 0.19856 0.88534 0.0
N1767 N 0.38696 0.20221 0.94136 0.0
N1768 N 0.38619 0.207 0.82616 0.0
C1769 C 0.40417 0.21342 0.85047 0.0
C1770 C 0.40459 0.21067 0.91329 0.0
C1771 C 0.78867 0.20177 0.9205 0.0
C1772 C 0.79211 0.21914 0.94898 0.0
C1773 C 0.78597 0.19954 0.8585 0.0
C1774 C 0.78702 0.21477 0.82219 0.0
H1775 H 0.78754 0.18963 0.94643 0.0
H1776 H 0.78259 0.1856 0.83923 0.0
S1777 S 0.79945 0.26455 0.87416 0.0
N1778 N 0.79845 0.25253 0.93517 0.0
N1779 N 0.79445 0.24876 0.81982 0.0
C1780 C 0.7916 0.23258 0.85016 0.0
C1781 C 0.79389 0.23466 0.91303 0.0
C1782 C 0.43594 0.23481 0.34563 0.0
C1783 C 0.41976 0.21919 0.31709 0.0
C1784 C 0.43645 0.23717 0.40736 0.0
C1785 C 0.42068 0.22418 0.44389 0.0
H1786 H 0.44845 0.24533 0.32 0.0
H1787 H 0.4492 0.24969 0.42631 0.0
S1788 S 0.37503 0.18027 0.39257 0.0
N1789 N 0.38761 0.19008 0.33127 0.0
N1790 N 0.38865 0.19461 0.44686 0.0
C1791 C 0.4045 0.2083 0.41626 0.0
C1792 C 0.40402 0.20577 0.3532 0.0
C1793 C 0.80055 0.2149 0.35783 0.0
C1794 C 0.78606 0.21494 0.3208 0.0
C1795 C 0.79753 0.2114 0.41948 0.0
C1796 C 0.78002 0.20807 0.44678 0.0
H1797 H 0.81453 0.21809 0.33939 0.0
H1798 H 0.80918 0.21183 0.44611 0.0
S1799 S 0.73629 0.20347 0.36898 0.0
N1800 N 0.75264 0.20885 0.316 0.0
N1801 N 0.74724 0.20297 0.43062 0.0
C1802 C 0.7652 0.20732 0.40987 0.0
C1803 C 0.76814 0.21058 0.34742 0.0
C1804 C 0.79171 0.59287 0.43443 0.0
C1805 C 0.78973 0.57631 0.46487 0.0
C1806 C 0.79199 0.59373 0.37219 0.0
C1807 C 0.79056 0.57818 0.33722 0.0
H1808 H 0.79318 0.60538 0.45892 0.0
H1809 H 0.79366 0.60691 0.3514 0.0
S1810 S 0.78606 0.53173 0.39522 0.0
N1811 N 0.78704 0.54419 0.45495 0.0
N1812 N 0.78726 0.54567 0.33884 0.0
C1813 C 0.78874 0.56157 0.36723 0.0
C1814 C 0.78835 0.56066 0.43062 0.0
C1815 C 0.55538 0.10501 0.78101 0.0
C1816 C 0.54474 0.08809 0.74572 0.0
C1817 C 0.5528 0.10456 0.84269 0.0
C1818 C 0.53925 0.08725 0.87233 0.0
H1819 H 0.56624 0.11876 0.76113 0.0
H1820 H 0.56149 0.11795 0.86751 0.0
S1821 S 0.50742 0.03881 0.80178 0.0
N1822 N 0.51976 0.05344 0.74605 0.0
N1823 N 0.51502 0.05263 0.86163 0.0
C1824 C 0.52823 0.07026 0.83783 0.0
C1825 C 0.53096 0.07067 0.77484 0.0
C1826 C 0.91775 0.46801 0.76879 0.0
C1827 C 0.90021 0.46088 0.73605 0.0
C1828 C 0.91759 0.46692 0.83099 0.0
C1829 C 0.89992 0.45894 0.86321 0.0
H1830 H 0.93182 0.47492 0.74641 0.0
H1831 H 0.93142 0.47282 0.85421 0.0
S1832 S 0.84984 0.43611 0.7998 0.0
N1833 N 0.8645 0.44391 0.74168 0.0
N1834 N 0.8644 0.44219 0.85787 0.0
C1835 C 0.88229 0.45113 0.83128 0.0
C1836 C 0.88239 0.45199 0.76802 0.0
C1837 C 0.52775 0.44803 0.87898 0.0
C1838 C 0.5444 0.46402 0.90438 0.0
C1839 C 0.52432 0.44699 0.81784 0.0
C1840 C 0.53724 0.46193 0.77893 0.0
H1841 H 0.51731 0.43604 0.90645 0.0
H1842 H 0.51166 0.43397 0.80051 0.0
S1843 S 0.58287 0.50715 0.82144 0.0
N1844 N 0.57399 0.49541 0.88462 0.0
N1845 N 0.56716 0.49336 0.76987 0.0
C1846 C 0.55359 0.47832 0.80337 0.0
C1847 C 0.55724 0.47939 0.86594 0.0
C1848 C 0.57599 0.78201 0.61054 0.0
C1849 C 0.56309 0.76433 0.58155 0.0
C1850 C 0.57523 0.7839 0.67249 0.0
C1851 C 0.56181 0.76804 0.70834 0.0
H1852 H 0.58655 0.79459 0.58508 0.0
H1853 H 0.58504 0.79803 0.69211 0.0
S1854 S 0.5272 0.71756 0.65499 0.0
N1855 N 0.53775 0.73012 0.59433 0.0
N1856 N 0.53697 0.73338 0.70976 0.0
C1857 C 0.54951 0.75004 0.67987 0.0
C1858 C 0.55 0.74825 0.61695 0.0
C1859 C 0.20984 0.76269 0.63032 0.0
C1860 C 0.20106 0.77112 0.59522 0.0
C1861 C 0.20668 0.76006 0.69177 0.0
C1862 C 0.19428 0.76535 0.72141 0.0
H1863 H 0.21974 0.75851 0.61054 0.0
H1864 H 0.21407 0.75384 0.71651 0.0
S1865 S 0.16739 0.7878 0.65146 0.0
N1866 N 0.17916 0.78464 0.5959 0.0
N1867 N 0.17306 0.77942 0.71091 0.0
C1868 C 0.18503 0.77342 0.6871 0.0
C1869 C 0.18847 0.77638 0.62436 0.0
C1870 C 0.21076 0.43489 0.70587 0.0
C1871 C 0.20651 0.4176 0.73633 0.0
C1872 C 0.21124 0.43571 0.64397 0.0
C1873 C 0.20731 0.41922 0.60924 0.0
H1874 H 0.21388 0.44801 0.73012 0.0
H1875 H 0.21428 0.44941 0.62326 0.0
S1876 S 0.19617 0.37043 0.66741 0.0
N1877 N 0.19874 0.38356 0.7271 0.0
N1878 N 0.19988 0.3852 0.61071 0.0
C1879 C 0.20358 0.40193 0.63912 0.0
C1880 C 0.20308 0.40109 0.70251 0.0
C1881 C 0.42677 0.88542 0.24566 0.0
C1882 C 0.43911 0.90109 0.28329 0.0
C1883 C 0.42957 0.88657 0.184 0.0
C1884 C 0.44502 0.90332 0.15674 0.0
H1885 H 0.41444 0.87224 0.26375 0.0
H1886 H 0.41956 0.87412 0.1574 0.0
S1887 S 0.48219 0.94817 0.23537 0.0
N1888 N 0.4678 0.93374 0.2886 0.0
N1889 N 0.47318 0.93594 0.17321 0.0
C1890 C 0.45776 0.919 0.19394 0.0
C1891 C 0.45475 0.91788 0.25686 0.0
C1892 C 0.09671 0.52496 0.22829 0.0
C1893 C 0.07941 0.51876 0.26163 0.0
C1894 C 0.09683 0.52623 0.16624 0.0
C1895 C 0.07972 0.52157 0.13413 0.0
H1896 H 0.11031 0.52837 0.25004 0.0
H1897 H 0.11055 0.53096 0.14321 0.0
S1898 S 0.03063 0.50553 0.19929 0.0
N1899 N 0.04474 0.50869 0.25705 0.0
N1900 N 0.04497 0.51096 0.14075 0.0
C1901 C 0.0624 0.51588 0.16673 0.0
C1902 C 0.06224 0.5145 0.23016 0.0
C1903 C 0.44203 0.54056 0.15391 0.0
C1904 C 0.44538 0.52603 0.1299 0.0
C1905 C 0.44188 0.54316 0.21523 0.0
C1906 C 0.44549 0.53163 0.25586 0.0
H1907 H 0.43953 0.55007 0.12483 0.0
H1908 H 0.43945 0.55483 0.23063 0.0
S1909 S 0.45497 0.4913 0.21548 0.0
N1910 N 0.45196 0.49952 0.15129 0.0
N1911 N 0.45225 0.50474 0.26661 0.0
C1912 C 0.44858 0.51677 0.23238 0.0
C1913 C 0.44839 0.5139 0.16955 0.0
C1914 C 0.09757 0.53717 0.72419 0.0
C1915 C 0.08095 0.52543 0.75985 0.0
C1916 C 0.09745 0.53459 0.66276 0.0
C1917 C 0.08084 0.51993 0.63348 0.0
H1918 H 0.11082 0.54898 0.74348 0.0
H1919 H 0.11051 0.54431 0.63774 0.0
S1920 S 0.03367 0.48434 0.70541 0.0
N1921 N 0.04748 0.49797 0.76062 0.0
N1922 N 0.04731 0.49293 0.64526 0.0
C1923 C 0.06426 0.50755 0.66844 0.0
C1924 C 0.06431 0.51034 0.7314 0.0
C1925 C 0.43203 0.5333 0.73212 0.0
C1926 C 0.44322 0.52626 0.76111 0.0
C1927 C 0.43108 0.5338 0.67006 0.0
C1928 C 0.44144 0.5275 0.63397 0.0
H1929 H 0.4234 0.53796 0.75748 0.0
H1930 H 0.42224 0.5393 0.65015 0.0
S1931 S 0.47327 0.50816 0.68677 0.0
N1932 N 0.46525 0.5132 0.74801 0.0
N1933 N 0.4634 0.51412 0.63185 0.0
C1934 C 0.45297 0.52077 0.66214 0.0
C1935 C 0.45387 0.52016 0.72539 0.0
C1936 C 0.44439 0.88583 0.74942 0.0
C1937 C 0.45143 0.90297 0.78415 0.0
C1938 C 0.44237 0.88622 0.68764 0.0
C1939 C 0.44705 0.90373 0.65736 0.0
H1940 H 0.44079 0.87193 0.76984 0.0
H1941 H 0.43699 0.87263 0.66333 0.0
S1942 S 0.46582 0.95277 0.72653 0.0
N1943 N 0.46268 0.93801 0.78273 0.0
N1944 N 0.45914 0.93877 0.66704 0.0
C1945 C 0.45382 0.92095 0.69136 0.0
C1946 C 0.45596 0.92057 0.75442 0.0
C1947 C 0.22688 0.44003 0.14385 0.0
C1948 C 0.21559 0.42305 0.1096 0.0
C1949 C 0.22652 0.43933 0.20594 0.0
C1950 C 0.21479 0.42164 0.23689 0.0
H1951 H 0.23654 0.45399 0.12267 0.0
H1952 H 0.23545 0.45285 0.22984 0.0
S1953 S 0.18161 0.37308 0.16855 0.0
N1954 N 0.19151 0.38812 0.11176 0.0
N1955 N 0.19127 0.38667 0.22802 0.0
C1956 C 0.20311 0.40458 0.20326 0.0
C1957 C 0.20341 0.40532 0.13991 0.0
C1958 C 0.54577 0.76631 0.11879 0.0
C1959 C 0.5628 0.77441 0.083 0.0
C1960 C 0.54658 0.76429 0.18041 0.0
C1961 C 0.56439 0.76989 0.20958 0.0
H1962 H 0.53158 0.76188 0.09938 0.0
H1963 H 0.53308 0.75823 0.20561 0.0
S1964 S 0.61337 0.79176 0.1378 0.0
N1965 N 0.59817 0.78793 0.08246 0.0
N1966 N 0.59963 0.78401 0.19798 0.0
C1967 C 0.58155 0.77772 0.17465 0.0
C1968 C 0.58077 0.78002 0.11167 0.0
C1969 C 0.18619 0.77457 0.12542 0.0
C1970 C 0.19266 0.76337 0.09365 0.0
C1971 C 0.18873 0.77715 0.18727 0.0
C1972 C 0.19754 0.76837 0.22028 0.0
H1973 H 0.17868 0.78105 0.10264 0.0
H1974 H 0.1832 0.78555 0.20977 0.0
S1975 S 0.21895 0.73946 0.15924 0.0
N1976 N 0.20989 0.74485 0.10096 0.0
N1977 N 0.21412 0.74942 0.21628 0.0
C1978 C 0.20463 0.75774 0.18916 0.0
C1979 C 0.20236 0.75534 0.12628 0.0
C1980 C 0.32164 0.22272 0.47456 0.0
C1981 C 0.33918 0.22282 0.46116 0.0
C1982 C 0.30526 0.21345 0.4374 0.0
C1983 C 0.30582 0.20381 0.38603 0.0
H1984 H 0.32049 0.22966 0.51444 0.0
H1985 H 0.29197 0.21357 0.44914 0.0
S1986 S 0.34864 0.20168 0.32733 0.0
N1987 N 0.35649 0.21375 0.39029 0.0
N1988 N 0.32548 0.19602 0.32102 0.0
C1989 C 0.32326 0.204 0.37155 0.0
C1990 C 0.34 0.21356 0.40905 0.0
C1991 C 0.79746 0.13116 0.48776 0.0
C1992 C 0.77709 0.12371 0.48238 0.0
C1993 C 0.80674 0.12227 0.45843 0.0
C1994 C 0.796 0.1055 0.42317 0.0
H1995 H 0.80624 0.14378 0.5155 0.0
H1996 H 0.82244 0.12848 0.46346 0.0
S1997 S 0.74279 0.08133 0.3902 0.0
N1998 N 0.74678 0.09932 0.43588 0.0
N1999 N 0.76421 0.08254 0.38152 0.0
C2000 C 0.77572 0.09803 0.41692 0.0
C2001 C 0.76628 0.10714 0.44634 0.0
C2002 C 0.88797 0.66593 0.45863 0.0
C2003 C 0.86789 0.65561 0.47425 0.0
C2004 C 0.89565 0.68196 0.4197 0.0
C2005 C 0.88363 0.68833 0.39331 0.0
H2006 H 0.89809 0.66173 0.47651 0.0
H2007 H 0.91125 0.68957 0.41066 0.0
S2008 S 0.82969 0.66551 0.41236 0.0
N2009 N 0.83594 0.6529 0.45683 0.0
N2010 N 0.85028 0.68197 0.38055 0.0
C2011 C 0.86341 0.67779 0.40608 0.0
C2012 C 0.85557 0.66167 0.44699 0.0
C2013 C 0.20215 0.33 0.16954 0.0
C2014 C 0.2045 0.31372 0.15832 0.0
C2015 C 0.21209 0.34719 0.13558 0.0
C2016 C 0.22448 0.34861 0.08862 0.0
H2017 H 0.19277 0.32951 0.20533 0.0
H2018 H 0.21011 0.35951 0.14606 0.0
S2019 S 0.23441 0.3093 0.03957 0.0
N2020 N 0.21963 0.2997 0.09701 0.0
N2021 N 0.23779 0.3317 0.03143 0.0
C2022 C 0.22683 0.33229 0.07688 0.0
C2023 C 0.21692 0.31491 0.11212 0.0
C2024 C 0.65745 0.86273 0.12308 0.0
C2025 C 0.66288 0.88151 0.14531 0.0
C2026 C 0.64239 0.85349 0.08142 0.0
C2027 C 0.63189 0.8625 0.06062 0.0
H2028 H 0.6647 0.85491 0.1384 0.0
H2029 H 0.63915 0.83924 0.06506 0.0
S2030 S 0.64035 0.91173 0.1045 0.0
N2031 N 0.65708 0.90918 0.14106 0.0
N2032 N 0.62771 0.89115 0.06705 0.0
C2033 C 0.63705 0.88122 0.08288 0.0
C2034 C 0.65275 0.89085 0.12414 0.0
C2035 C 0.09492 0.76812 0.16374 0.0
C2036 C 0.10073 0.78808 0.15524 0.0
C2037 C 0.10148 0.75846 0.12612 0.0
C2038 C 0.11427 0.76844 0.07905 0.0
H2039 H 0.08538 0.75991 0.20014 0.0
H2040 H 0.09667 0.7431 0.13409 0.0
S2041 S 0.13271 0.82024 0.03448 0.0
N2042 N 0.11918 0.81715 0.09371 0.0
N2043 N 0.13181 0.799 0.02379 0.0
C2044 C 0.12018 0.78834 0.06968 0.0
C2045 C 0.11335 0.79816 0.10763 0.0
C2046 C 0.68272 0.78516 0.59282 0.0
C2047 C 0.6823 0.79679 0.63907 0.0
C2048 C 0.66639 0.77468 0.55621 0.0
C2049 C 0.64894 0.77523 0.56514 0.0
H2050 H 0.69586 0.78436 0.58467 0.0
H2051 H 0.66756 0.76627 0.52025 0.0
S2052 S 0.63992 0.80212 0.68446 0.0
N2053 N 0.66291 0.80758 0.69418 0.0
N2054 N 0.63195 0.78748 0.62642 0.0
C2055 C 0.64827 0.78659 0.6121 0.0
C2056 C 0.66501 0.79746 0.64888 0.0
C2057 C 0.19504 0.8579 0.65662 0.0
C2058 C 0.201 0.87792 0.64999 0.0
C2059 C 0.20225 0.84878 0.61895 0.0
C2060 C 0.2155 0.85934 0.57305 0.0
H2061 H 0.18514 0.84939 0.69206 0.0
H2062 H 0.1977 0.83347 0.62643 0.0
S2063 S 0.23329 0.91152 0.53302 0.0
N2064 N 0.21955 0.90764 0.59222 0.0
N2065 N 0.23262 0.89051 0.5199 0.0
C2066 C 0.22094 0.87923 0.56486 0.0
C2067 C 0.2138 0.88852 0.60372 0.0
C2068 C 0.13988 0.35389 0.64922 0.0
C2069 C 0.12991 0.35966 0.60966 0.0
C2070 C 0.13009 0.33577 0.6789 0.0
C2071 C 0.10993 0.32275 0.67 0.0
H2072 H 0.15538 0.36352 0.65714 0.0
H2073 H 0.1383 0.33201 0.70951 0.0
S2074 S 0.07743 0.33027 0.56779 0.0
N2075 N 0.09898 0.35051 0.56102 0.0
N2076 N 0.08052 0.31651 0.61713 0.0
C2077 C 0.09979 0.32832 0.63048 0.0
C2078 C 0.10978 0.34676 0.60023 0.0
C2079 C 0.77786 0.68334 0.95529 0.0
C2080 C 0.78875 0.68458 0.90472 0.0
C2081 C 0.77027 0.6668 0.99254 0.0
C2082 C 0.77307 0.65079 0.98007 0.0
H2083 H 0.77539 0.69535 0.96624 0.0
H2084 H 0.76233 0.66667 0.03176 0.0
S2085 S 0.79844 0.64603 0.84834 0.0
N2086 N 0.80083 0.66807 0.84149 0.0
N2087 N 0.78624 0.63674 0.91058 0.0
C2088 C 0.7836 0.65174 0.9287 0.0
C2089 C 0.79149 0.66868 0.89121 0.0
C2090 C 0.33116 0.10996 0.87719 0.0
C2091 C 0.31425 0.1112 0.88959 0.0
C2092 C 0.34776 0.11907 0.91356 0.0
C2093 C 0.34811 0.12991 0.96315 0.0
H2094 H 0.33166 0.1021 0.83862 0.0
H2095 H 0.36052 0.11788 0.90257 0.0
S2096 S 0.30714 0.13584 0.01903 0.0
N2097 N 0.29847 0.12286 0.95788 0.0
N2098 N 0.3299 0.14027 0.02561 0.0
C2099 C 0.3313 0.13107 0.97669 0.0
C2100 C 0.31432 0.12166 0.94 0.0
C2101 C 0.89225 0.22314 0.98241 0.0
C2102 C 0.87362 0.22085 0.97094 0.0
C2103 C 0.9 0.21416 0.94667 0.0
C2104 C 0.88927 0.2024 0.89885 0.0
H2105 H 0.9008 0.23172 0.01979 0.0
H2106 H 0.91433 0.21614 0.95685 0.0
S2107 S 0.84064 0.19301 0.84681 0.0
N2108 N 0.84523 0.20696 0.90587 0.0
N2109 N 0.8597 0.18974 0.83938 0.0
C2110 C 0.87075 0.20012 0.88636 0.0
C2111 C 0.86293 0.20941 0.92234 0.0
C2112 C 0.01445 0.56086 0.76947 0.0
C2113 C 0.02626 0.55265 0.75525 0.0
C2114 C -0.00381 0.55417 0.74212 0.0
C2115 C 0.98916 0.53903 0.70003 0.0
H2116 H 0.01913 0.57207 0.8032 0.0
H2117 H 0.9873 0.56056 0.75469 0.0
S2118 S 0.01594 0.5149 0.64194 0.0
N2119 N 0.03058 0.53002 0.69326 0.0
N2120 N -0.0036 0.51757 0.64112 0.0
C2121 C 0.00121 0.53127 0.68404 0.0
C2122 C 0.01973 0.53805 0.7119 0.0
C2123 C 0.43272 0.45489 0.68662 0.0
C2124 C 0.41661 0.44466 0.7248 0.0
C2125 C 0.44979 0.45315 0.69109 0.0
C2126 C 0.45151 0.44022 0.73129 0.0
H2127 H 0.43327 0.46645 0.6591 0.0
H2128 H 0.46202 0.46266 0.66313 0.0
S2129 S 0.40414 0.40922 0.87375 0.0
N2130 N 0.39305 0.41514 0.7918 0.0
N2131 N 0.43349 0.42088 0.83492 0.0
C2132 C 0.43468 0.42814 0.76349 0.0
C2133 C 0.41071 0.42535 0.73772 0.0
C2134 C 0.53304 0.00315 0.74508 0.0
C2135 C 0.55248 0.01159 0.72422 0.0
C2136 C 0.52522 0.98734 0.78499 0.0
C2137 C 0.53632 0.97893 0.80542 0.0
H2138 H 0.52355 0.00856 0.73007 0.0
H2139 H 0.51035 0.98188 0.80018 0.0
S2140 S 0.5881 0.99547 0.76468 0.0
N2141 N 0.58298 0.01078 0.7295 0.0
N2142 N 0.56778 0.98003 0.79995 0.0
C2143 C 0.55575 0.98708 0.78451 0.0
C2144 C 0.56391 0.00358 0.74507 0.0
C2145 C 0.43998 0.01137 0.27783 0.0
C2146 C 0.45112 0.0124 0.22812 0.0
C2147 C 0.43116 0.99449 0.31362 0.0
C2148 C 0.433 0.97794 0.30053 0.0
H2149 H 0.43829 0.02383 0.28935 0.0
H2150 H 0.42308 0.99451 0.35231 0.0
S2151 S 0.4585 0.97249 0.17031 0.0
N2152 N 0.4623 0.99511 0.16472 0.0
N2153 N 0.44549 0.96319 0.23127 0.0
C2154 C 0.44373 0.97866 0.24993 0.0
C2155 C 0.45283 0.99593 0.21386 0.0
C2156 C 0.99322 0.45038 0.24803 0.0
C2157 C 0.99282 0.44059 0.30031 0.0
C2158 C 0.97592 0.44552 0.21765 0.0
C2159 C 0.95756 0.43066 0.2386 0.0
H2160 H 0.00708 0.46173 0.23026 0.0
H2161 H 0.977 0.45325 0.17695 0.0
S2162 S 0.94851 0.40205 0.37699 0.0
N2163 N 0.97262 0.41633 0.37419 0.0
N2164 N 0.93993 0.40711 0.31687 0.0
C2165 C 0.95693 0.42098 0.29148 0.0
C2166 C 0.97461 0.42595 0.32242 0.0
C2167 C 0.54561 0.56976 0.28888 0.0
C2168 C 0.52657 0.56254 0.26623 0.0
C2169 C 0.55763 0.56252 0.26825 0.0
C2170 C 0.55084 0.54782 0.22481 0.0
H2171 H 0.5508 0.58032 0.32458 0.0
H2172 H 0.57197 0.56786 0.28778 0.0
S2173 S 0.50328 0.52665 0.14555 0.0
N2174 N 0.50226 0.54161 0.19473 0.0
N2175 N 0.52484 0.52823 0.15485 0.0
C2176 C 0.53224 0.54139 0.19973 0.0
C2177 C 0.52009 0.54869 0.22082 0.0
loop_
_geom_bond_atom_site_label_1
_geom_bond_atom_site_label_2
_geom_bond_distance
_geom_bond_site_symmetry_2
_ccdc_geom_bond_type
C0 C1 1.351 . S
C0 N3 1.368 . S
C0 H5 0.931 . S
C1 C0 1.351 . S
C1 N2 1.373 . S
C1 H29 0.930 . S
N2 C1 1.373 . S
N2 C4 1.340 . S
N3 C0 1.368 . S
N3 C4 1.321 . S
N3 Co6 2.135 . S
C4 N2 1.340 . S
C4 N3 1.321 . S
C4 H28 0.930 . S
H5 C0 0.931 . S
Co6 N3 2.135 . S
Co6 N9 2.121 . S
Co6 O14 2.055 . S
Co6 O17 2.039 . S
Co6 N20 2.140 . S
C7 O8 1.227 . S
C7 O17 1.265 . S
O8 C7 1.227 . S
N9 Co6 2.121 . S
N9 C11 1.375 . S
N9 C12 1.313 . S
C10 C11 1.338 . S
C10 N13 1.377 . S
C10 H30 0.930 . S
C11 N9 1.375 . S
C11 C10 1.338 . S
C11 H15 0.931 . S
C12 N9 1.313 . S
C12 N13 1.344 . S
C12 H16 0.930 . S
N13 C10 1.377 . S
N13 C12 1.344 . S
O14 Co6 2.055 . S
O14 C18 1.253 . S
H15 C11 0.931 . S
H16 C12 0.930 . S
O17 Co6 2.039 . S
O17 C7 1.265 . S
C18 O14 1.253 . S
C18 O19 1.227 . S
O19 C18 1.227 . S
N20 Co6 2.140 . S
N20 C23 1.346 . S
N20 C24 1.345 . S
C21 C22 1.387 . S
C21 C25 1.391 . S
C22 C21 1.387 . S
C22 C23 1.369 . S
C22 H31 0.929 . S
C23 N20 1.346 . S
C23 C22 1.369 . S
C23 H26 0.928 . S
C24 N20 1.345 . S
C24 C25 1.371 . S
C24 H27 0.931 . S
C25 C21 1.391 . S
C25 C24 1.371 . S
C25 H32 0.930 . S
H26 C23 0.928 . S
H27 C24 0.931 . S
H28 C4 0.930 . S
H29 C1 0.930 . S
H30 C10 0.930 . S
H31 C22 0.929 . S
H32 C25 0.930 . S
C33 C34 1.351 . S
C33 N36 1.368 . S
C33 H38 0.931 . S
C34 C33 1.351 . S
C34 N35 1.373 . S
C34 H62 0.930 . S
N35 C34 1.373 . S
N35 C37 1.340 . S
N36 C33 1.368 . S
N36 C37 1.321 . S
N36 Co39 2.135 . S
C37 N35 1.340 . S
C37 N36 1.321 . S
C37 H61 0.930 . S
H38 C33 0.931 . S
Co39 N36 2.135 . S
Co39 N42 2.121 . S
Co39 O47 2.055 . S
Co39 O50 2.039 . S
Co39 N53 2.140 . S
C40 O41 1.227 . S
C40 O50 1.265 . S
O41 C40 1.227 . S
N42 Co39 2.121 . S
N42 C44 1.375 . S
N42 C45 1.313 . S
C43 C44 1.338 . S
C43 N46 1.377 . S
C43 H63 0.930 . S
C44 N42 1.375 . S
C44 C43 1.338 . S
C44 H48 0.931 . S
C45 N42 1.313 . S
C45 N46 1.344 . S
C45 H49 0.930 . S
N46 C43 1.377 . S
N46 C45 1.344 . S
O47 Co39 2.055 . S
O47 C51 1.253 . S
H48 C44 0.931 . S
H49 C45 0.930 . S
O50 Co39 2.039 . S
O50 C40 1.265 . S
C51 O47 1.253 . S
C51 O52 1.227 . S
O52 C51 1.227 . S
N53 Co39 2.140 . S
N53 C56 1.346 . S
N53 C57 1.345 . S
C54 C55 1.387 . S
C54 C58 1.391 . S
C55 C54 1.387 . S
C55 C56 1.369 . S
C55 H64 0.929 . S
C56 N53 1.346 . S
C56 C55 1.369 . S
C56 H59 0.928 . S
C57 N53 1.345 . S
C57 C58 1.371 . S
C57 H60 0.931 . S
C58 C54 1.391 . S
C58 C57 1.371 . S
C58 H65 0.930 . S
H59 C56 0.928 . S
H60 C57 0.931 . S
H61 C37 0.930 . S
H62 C34 0.930 . S
H63 C43 0.930 . S
H64 C55 0.929 . S
H65 C58 0.930 . S
C66 C67 1.351 . S
C66 N69 1.368 . S
C66 H71 0.931 . S
C67 C66 1.351 . S
C67 N68 1.373 . S
C67 H95 0.930 . S
N68 C67 1.373 . S
N68 C70 1.340 . S
N69 C66 1.368 . S
N69 C70 1.321 . S
N69 Co72 2.135 . S
C70 N68 1.340 . S
C70 N69 1.321 . S
C70 H94 0.930 . S
H71 C66 0.931 . S
Co72 N69 2.135 . S
Co72 N75 2.121 . S
Co72 O80 2.055 . S
Co72 O83 2.039 . S
Co72 N86 2.140 . S
C73 O74 1.227 . S
C73 O83 1.265 . S
O74 C73 1.227 . S
N75 Co72 2.121 . S
N75 C77 1.375 . S
N75 C78 1.313 . S
C76 C77 1.338 . S
C76 N79 1.377 . S
C76 H96 0.930 . S
C77 N75 1.375 . S
C77 C76 1.338 . S
C77 H81 0.931 . S
C78 N75 1.313 . S
C78 N79 1.344 . S
C78 H82 0.930 . S
N79 C76 1.377 . S
N79 C78 1.344 . S
O80 Co72 2.055 . S
O80 C84 1.253 . S
H81 C77 0.931 . S
H82 C78 0.930 . S
O83 Co72 2.039 . S
O83 C73 1.265 . S
C84 O80 1.253 . S
C84 O85 1.227 . S
O85 C84 1.227 . S
N86 Co72 2.140 . S
N86 C89 1.346 . S
N86 C90 1.345 . S
C87 C88 1.387 . S
C87 C91 1.391 . S
C88 C87 1.387 . S
C88 C89 1.369 . S
C88 H97 0.929 . S
C89 N86 1.346 . S
C89 C88 1.369 . S
C89 H92 0.928 . S
C90 N86 1.345 . S
C90 C91 1.371 . S
C90 H93 0.931 . S
C91 C87 1.391 . S
C91 C90 1.371 . S
C91 H98 0.930 . S
H92 C89 0.928 . S
H93 C90 0.931 . S
H94 C70 0.930 . S
H95 C67 0.930 . S
H96 C76 0.930 . S
H97 C88 0.929 . S
H98 C91 0.930 . S
C99 C100 1.351 . S
C99 N102 1.368 . S
C99 H104 0.931 . S
C100 C99 1.351 . S
C100 N101 1.373 . S
C100 H128 0.930 . S
N101 C100 1.373 . S
N101 C103 1.340 . S
N102 C99 1.368 . S
N102 C103 1.321 . S
N102 Co105 2.135 . S
C103 N101 1.340 . S
C103 N102 1.321 . S
C103 H127 0.930 . S
H104 C99 0.931 . S
Co105 N102 2.135 . S
Co105 N108 2.121 . S
Co105 O113 2.055 . S
Co105 O116 2.039 . S
Co105 N119 2.140 . S
C106 O107 1.227 . S
C106 O116 1.265 . S
O107 C106 1.227 . S
N108 Co105 2.121 . S
N108 C110 1.375 . S
N108 C111 1.313 . S
C109 C110 1.338 . S
C109 N112 1.377 . S
C109 H129 0.930 . S
C110 N108 1.375 . S
C110 C109 1.338 . S
C110 H114 0.931 . S
C111 N108 1.313 . S
C111 N112 1.344 . S
C111 H115 0.930 . S
N112 C109 1.377 . S
N112 C111 1.344 . S
O113 Co105 2.055 . S
O113 C117 1.253 . S
H114 C110 0.931 . S
H115 C111 0.930 . S
O116 Co105 2.039 . S
O116 C106 1.265 . S
C117 O113 1.253 . S
C117 O118 1.227 . S
O118 C117 1.227 . S
N119 Co105 2.140 . S
N119 C122 1.346 . S
N119 C123 1.345 . S
C120 C121 1.387 . S
C120 C124 1.391 . S
C121 C120 1.387 . S
C121 C122 1.369 . S
C121 H130 0.929 . S
C122 N119 1.346 . S
C122 C121 1.369 . S
C122 H125 0.928 . S
C123 N119 1.345 . S
C123 C124 1.371 . S
C123 H126 0.931 . S
C124 C120 1.391 . S
C124 C123 1.371 . S
C124 H131 0.930 . S
H125 C122 0.928 . S
H126 C123 0.931 . S
H127 C103 0.930 . S
H128 C100 0.930 . S
H129 C109 0.930 . S
H130 C121 0.929 . S
H131 C124 0.930 . S
C132 C133 1.351 . S
C132 N135 1.368 . S
C132 H137 0.931 . S
C133 C132 1.351 . S
C133 N134 1.373 . S
C133 H161 0.930 . S
N134 C133 1.373 . S
N134 C136 1.340 . S
N135 C132 1.368 . S
N135 C136 1.321 . S
N135 Co138 2.135 . S
C136 N134 1.340 . S
C136 N135 1.321 . S
C136 H160 0.930 . S
H137 C132 0.931 . S
Co138 N135 2.135 . S
Co138 N141 2.121 . S
Co138 O146 2.055 . S
Co138 O149 2.039 . S
Co138 N152 2.140 . S
C139 O140 1.227 . S
C139 O149 1.265 . S
O140 C139 1.227 . S
N141 Co138 2.121 . S
N141 C143 1.375 . S
N141 C144 1.313 . S
C142 C143 1.338 . S
C142 N145 1.377 . S
C142 H162 0.930 . S
C143 N141 1.375 . S
C143 C142 1.338 . S
C143 H147 0.931 . S
C144 N141 1.313 . S
C144 N145 1.344 . S
C144 H148 0.930 . S
N145 C142 1.377 . S
N145 C144 1.344 . S
O146 Co138 2.055 . S
O146 C150 1.253 . S
H147 C143 0.931 . S
H148 C144 0.930 . S
O149 Co138 2.039 . S
O149 C139 1.265 . S
C150 O146 1.253 . S
C150 O151 1.227 . S
O151 C150 1.227 . S
N152 Co138 2.140 . S
N152 C155 1.346 . S
N152 C156 1.345 . S
C153 C154 1.387 . S
C153 C157 1.391 . S
C154 C153 1.387 . S
C154 C155 1.369 . S
C154 H163 0.929 . S
C155 N152 1.346 . S
C155 C154 1.369 . S
C155 H158 0.928 . S
C156 N152 1.345 . S
C156 C157 1.371 . S
C156 H159 0.931 . S
C157 C153 1.391 . S
C157 C156 1.371 . S
C157 H164 0.930 . S
H158 C155 0.928 . S
H159 C156 0.931 . S
H160 C136 0.930 . S
H161 C133 0.930 . S
H162 C142 0.930 . S
H163 C154 0.929 . S
H164 C157 0.930 . S
C165 C166 1.351 . S
C165 N168 1.368 . S
C165 H170 0.931 . S
C166 C165 1.351 . S
C166 N167 1.373 . S
C166 H194 0.930 . S
N167 C166 1.373 . S
N167 C169 1.340 . S
N168 C165 1.368 . S
N168 C169 1.321 . S
N168 Co171 2.135 . S
C169 N167 1.340 . S
C169 N168 1.321 . S
C169 H193 0.930 . S
H170 C165 0.931 . S
Co171 N168 2.135 . S
Co171 N174 2.121 . S
Co171 O179 2.055 . S
Co171 O182 2.039 . S
Co171 N185 2.140 . S
C172 O173 1.227 . S
C172 O182 1.265 . S
O173 C172 1.227 . S
N174 Co171 2.121 . S
N174 C176 1.375 . S
N174 C177 1.313 . S
C175 C176 1.338 . S
C175 N178 1.377 . S
C175 H195 0.930 . S
C176 N174 1.375 . S
C176 C175 1.338 . S
C176 H180 0.931 . S
C177 N174 1.313 . S
C177 N178 1.344 . S
C177 H181 0.930 . S
N178 C175 1.377 . S
N178 C177 1.344 . S
O179 Co171 2.055 . S
O179 C183 1.253 . S
H180 C176 0.931 . S
H181 C177 0.930 . S
O182 Co171 2.039 . S
O182 C172 1.265 . S
C183 O179 1.253 . S
C183 O184 1.227 . S
O184 C183 1.227 . S
N185 Co171 2.140 . S
N185 C188 1.346 . S
N185 C189 1.345 . S
C186 C187 1.387 . S
C186 C190 1.391 . S
C187 C186 1.387 . S
C187 C188 1.369 . S
C187 H196 0.929 . S
C188 N185 1.346 . S
C188 C187 1.369 . S
C188 H191 0.928 . S
C189 N185 1.345 . S
C189 C190 1.371 . S
C189 H192 0.931 . S
C190 C186 1.391 . S
C190 C189 1.371 . S
C190 H197 0.930 . S
H191 C188 0.928 . S
H192 C189 0.931 . S
H193 C169 0.930 . S
H194 C166 0.930 . S
H195 C175 0.930 . S
H196 C187 0.929 . S
H197 C190 0.930 . S
C198 C199 1.351 . S
C198 N201 1.368 . S
C198 H203 0.931 . S
C199 C198 1.351 . S
C199 N200 1.373 . S
C199 H227 0.930 . S
N200 C199 1.373 . S
N200 C202 1.340 . S
N201 C198 1.368 . S
N201 C202 1.321 . S
N201 Co204 2.135 . S
C202 N200 1.340 . S
C202 N201 1.321 . S
C202 H226 0.930 . S
H203 C198 0.931 . S
Co204 N201 2.135 . S
Co204 N207 2.121 . S
Co204 O212 2.055 . S
Co204 O215 2.039 . S
Co204 N218 2.140 . S
C205 O206 1.227 . S
C205 O215 1.265 . S
O206 C205 1.227 . S
N207 Co204 2.121 . S
N207 C209 1.375 . S
N207 C210 1.313 . S
C208 C209 1.338 . S
C208 N211 1.377 . S
C208 H228 0.930 . S
C209 N207 1.375 . S
C209 C208 1.338 . S
C209 H213 0.931 . S
C210 N207 1.313 . S
C210 N211 1.344 . S
C210 H214 0.930 . S
N211 C208 1.377 . S
N211 C210 1.344 . S
O212 Co204 2.055 . S
O212 C216 1.253 . S
H213 C209 0.931 . S
H214 C210 0.930 . S
O215 Co204 2.039 . S
O215 C205 1.265 . S
C216 O212 1.253 . S
C216 O217 1.227 . S
O217 C216 1.227 . S
N218 Co204 2.140 . S
N218 C221 1.346 . S
N218 C222 1.345 . S
C219 C220 1.387 . S
C219 C223 1.391 . S
C220 C219 1.387 . S
C220 C221 1.369 . S
C220 H229 0.929 . S
C221 N218 1.346 . S
C221 C220 1.369 . S
C221 H224 0.928 . S
C222 N218 1.345 . S
C222 C223 1.371 . S
C222 H225 0.931 . S
C223 C219 1.391 . S
C223 C222 1.371 . S
C223 H230 0.930 . S
H224 C221 0.928 . S
H225 C222 0.931 . S
H226 C202 0.930 . S
H227 C199 0.930 . S
H228 C208 0.930 . S
H229 C220 0.929 . S
H230 C223 0.930 . S
C231 C232 1.351 . S
C231 N234 1.368 . S
C231 H236 0.931 . S
C232 C231 1.351 . S
C232 N233 1.373 . S
C232 H260 0.930 . S
N233 C232 1.373 . S
N233 C235 1.340 . S
N234 C231 1.368 . S
N234 C235 1.321 . S
N234 Co237 2.135 . S
C235 N233 1.340 . S
C235 N234 1.321 . S
C235 H259 0.930 . S
H236 C231 0.931 . S
Co237 N234 2.135 . S
Co237 N240 2.121 . S
Co237 O245 2.055 . S
Co237 O248 2.039 . S
Co237 N251 2.140 . S
C238 O239 1.227 . S
C238 O248 1.265 . S
O239 C238 1.227 . S
N240 Co237 2.121 . S
N240 C242 1.375 . S
N240 C243 1.313 . S
C241 C242 1.338 . S
C241 N244 1.377 . S
C241 H261 0.930 . S
C242 N240 1.375 . S
C242 C241 1.338 . S
C242 H246 0.931 . S
C243 N240 1.313 . S
C243 N244 1.344 . S
C243 H247 0.930 . S
N244 C241 1.377 . S
N244 C243 1.344 . S
O245 Co237 2.055 . S
O245 C249 1.253 . S
H246 C242 0.931 . S
H247 C243 0.930 . S
O248 Co237 2.039 . S
O248 C238 1.265 . S
C249 O245 1.253 . S
C249 O250 1.227 . S
O250 C249 1.227 . S
N251 Co237 2.140 . S
N251 C254 1.346 . S
N251 C255 1.345 . S
C252 C253 1.387 . S
C252 C256 1.391 . S
C253 C252 1.387 . S
C253 C254 1.369 . S
C253 H262 0.929 . S
C254 N251 1.346 . S
C254 C253 1.369 . S
C254 H257 0.928 . S
C255 N251 1.345 . S
C255 C256 1.371 . S
C255 H258 0.931 . S
C256 C252 1.391 . S
C256 C255 1.371 . S
C256 H263 0.930 . S
H257 C254 0.928 . S
H258 C255 0.931 . S
H259 C235 0.930 . S
H260 C232 0.930 . S
H261 C241 0.930 . S
H262 C253 0.929 . S
H263 C256 0.930 . S
C264 C265 1.351 . S
C264 N267 1.368 . S
C264 H269 0.931 . S
C265 C264 1.351 . S
C265 N266 1.373 . S
C265 H293 0.930 . S
N266 C265 1.373 . S
N266 C268 1.340 . S
N267 C264 1.368 . S
N267 C268 1.321 . S
N267 Co270 2.135 . S
C268 N266 1.340 . S
C268 N267 1.321 . S
C268 H292 0.930 . S
H269 C264 0.931 . S
Co270 N267 2.135 . S
Co270 N273 2.121 . S
Co270 O278 2.055 . S
Co270 O281 2.039 . S
Co270 N284 2.140 . S
C271 O272 1.227 . S
C271 O281 1.265 . S
O272 C271 1.227 . S
N273 Co270 2.121 . S
N273 C275 1.375 . S
N273 C276 1.313 . S
C274 C275 1.338 . S
C274 N277 1.377 . S
C274 H294 0.930 . S
C275 N273 1.375 . S
C275 C274 1.338 . S
C275 H279 0.931 . S
C276 N273 1.313 . S
C276 N277 1.344 . S
C276 H280 0.930 . S
N277 C274 1.377 . S
N277 C276 1.344 . S
O278 Co270 2.055 . S
O278 C282 1.253 . S
H279 C275 0.931 . S
H280 C276 0.930 . S
O281 Co270 2.039 . S
O281 C271 1.265 . S
C282 O278 1.253 . S
C282 O283 1.227 . S
O283 C282 1.227 . S
N284 Co270 2.140 . S
N284 C287 1.346 . S
N284 C288 1.345 . S
C285 C286 1.387 . S
C285 C289 1.391 . S
C286 C285 1.387 . S
C286 C287 1.369 . S
C286 H295 0.929 . S
C287 N284 1.346 . S
C287 C286 1.369 . S
C287 H290 0.928 . S
C288 N284 1.345 . S
C288 C289 1.371 . S
C288 H291 0.931 . S
C289 C285 1.391 . S
C289 C288 1.371 . S
C289 H296 0.930 . S
H290 C287 0.928 . S
H291 C288 0.931 . S
H292 C268 0.930 . S
H293 C265 0.930 . S
H294 C274 0.930 . S
H295 C286 0.929 . S
H296 C289 0.930 . S
C297 C298 1.351 . S
C297 N300 1.368 . S
C297 H302 0.931 . S
C298 C297 1.351 . S
C298 N299 1.373 . S
C298 H326 0.930 . S
N299 C298 1.373 . S
N299 C301 1.340 . S
N300 C297 1.368 . S
N300 C301 1.321 . S
N300 Co303 2.135 . S
C301 N299 1.340 . S
C301 N300 1.321 . S
C301 H325 0.930 . S
H302 C297 0.931 . S
Co303 N300 2.135 . S
Co303 N306 2.121 . S
Co303 O311 2.055 . S
Co303 O314 2.039 . S
Co303 N317 2.140 . S
C304 O305 1.227 . S
C304 O314 1.265 . S
O305 C304 1.227 . S
N306 Co303 2.121 . S
N306 C308 1.375 . S
N306 C309 1.313 . S
C307 C308 1.338 . S
C307 N310 1.377 . S
C307 H327 0.930 . S
C308 N306 1.375 . S
C308 C307 1.338 . S
C308 H312 0.931 . S
C309 N306 1.313 . S
C309 N310 1.344 . S
C309 H313 0.930 . S
N310 C307 1.377 . S
N310 C309 1.344 . S
O311 Co303 2.055 . S
O311 C315 1.253 . S
H312 C308 0.931 . S
H313 C309 0.930 . S
O314 Co303 2.039 . S
O314 C304 1.265 . S
C315 O311 1.253 . S
C315 O316 1.227 . S
O316 C315 1.227 . S
N317 Co303 2.140 . S
N317 C320 1.346 . S
N317 C321 1.345 . S
C318 C319 1.387 . S
C318 C322 1.391 . S
C319 C318 1.387 . S
C319 C320 1.369 . S
C319 H328 0.929 . S
C320 N317 1.346 . S
C320 C319 1.369 . S
C320 H323 0.928 . S
C321 N317 1.345 . S
C321 C322 1.371 . S
C321 H324 0.931 . S
C322 C318 1.391 . S
C322 C321 1.371 . S
C322 H329 0.930 . S
H323 C320 0.928 . S
H324 C321 0.931 . S
H325 C301 0.930 . S
H326 C298 0.930 . S
H327 C307 0.930 . S
H328 C319 0.929 . S
H329 C322 0.930 . S
C330 C331 1.351 . S
C330 N333 1.368 . S
C330 H335 0.931 . S
C331 C330 1.351 . S
C331 N332 1.373 . S
C331 H359 0.930 . S
N332 C331 1.373 . S
N332 C334 1.340 . S
N333 C330 1.368 . S
N333 C334 1.321 . S
N333 Co336 2.135 . S
C334 N332 1.340 . S
C334 N333 1.321 . S
C334 H358 0.930 . S
H335 C330 0.931 . S
Co336 N333 2.135 . S
Co336 N339 2.121 . S
Co336 O344 2.055 . S
Co336 O347 2.039 . S
Co336 N350 2.140 . S
C337 O338 1.227 . S
C337 O347 1.265 . S
O338 C337 1.227 . S
N339 Co336 2.121 . S
N339 C341 1.375 . S
N339 C342 1.313 . S
C340 C341 1.338 . S
C340 N343 1.377 . S
C340 H360 0.930 . S
C341 N339 1.375 . S
C341 C340 1.338 . S
C341 H345 0.931 . S
C342 N339 1.313 . S
C342 N343 1.344 . S
C342 H346 0.930 . S
N343 C340 1.377 . S
N343 C342 1.344 . S
O344 Co336 2.055 . S
O344 C348 1.253 . S
H345 C341 0.931 . S
H346 C342 0.930 . S
O347 Co336 2.039 . S
O347 C337 1.265 . S
C348 O344 1.253 . S
C348 O349 1.227 . S
O349 C348 1.227 . S
N350 Co336 2.140 . S
N350 C353 1.346 . S
N350 C354 1.345 . S
C351 C352 1.387 . S
C351 C355 1.391 . S
C352 C351 1.387 . S
C352 C353 1.369 . S
C352 H361 0.929 . S
C353 N350 1.346 . S
C353 C352 1.369 . S
C353 H356 0.928 . S
C354 N350 1.345 . S
C354 C355 1.371 . S
C354 H357 0.931 . S
C355 C351 1.391 . S
C355 C354 1.371 . S
C355 H362 0.930 . S
H356 C353 0.928 . S
H357 C354 0.931 . S
H358 C334 0.930 . S
H359 C331 0.930 . S
H360 C340 0.930 . S
H361 C352 0.929 . S
H362 C355 0.930 . S
C363 C364 1.351 . S
C363 N366 1.368 . S
C363 H368 0.931 . S
C364 C363 1.351 . S
C364 N365 1.373 . S
C364 H392 0.930 . S
N365 C364 1.373 . S
N365 C367 1.340 . S
N366 C363 1.368 . S
N366 C367 1.321 . S
N366 Co369 2.135 . S
C367 N365 1.340 . S
C367 N366 1.321 . S
C367 H391 0.930 . S
H368 C363 0.931 . S
Co369 N366 2.135 . S
Co369 N372 2.121 . S
Co369 O377 2.055 . S
Co369 O380 2.039 . S
Co369 N383 2.140 . S
C370 O371 1.227 . S
C370 O380 1.265 . S
O371 C370 1.227 . S
N372 Co369 2.121 . S
N372 C374 1.375 . S
N372 C375 1.313 . S
C373 C374 1.338 . S
C373 N376 1.377 . S
C373 H393 0.930 . S
C374 N372 1.375 . S
C374 C373 1.338 . S
C374 H378 0.931 . S
C375 N372 1.313 . S
C375 N376 1.344 . S
C375 H379 0.930 . S
N376 C373 1.377 . S
N376 C375 1.344 . S
O377 Co369 2.055 . S
O377 C381 1.253 . S
H378 C374 0.931 . S
H379 C375 0.930 . S
O380 Co369 2.039 . S
O380 C370 1.265 . S
C381 O377 1.253 . S
C381 O382 1.227 . S
O382 C381 1.227 . S
N383 Co369 2.140 . S
N383 C386 1.346 . S
N383 C387 1.345 . S
C384 C385 1.387 . S
C384 C388 1.391 . S
C385 C384 1.387 . S
C385 C386 1.369 . S
C385 H394 0.929 . S
C386 N383 1.346 . S
C386 C385 1.369 . S
C386 H389 0.928 . S
C387 N383 1.345 . S
C387 C388 1.371 . S
C387 H390 0.931 . S
C388 C384 1.391 . S
C388 C387 1.371 . S
C388 H395 0.930 . S
H389 C386 0.928 . S
H390 C387 0.931 . S
H391 C367 0.930 . S
H392 C364 0.930 . S
H393 C373 0.930 . S
H394 C385 0.929 . S
H395 C388 0.930 . S
C396 C397 1.351 . S
C396 N399 1.368 . S
C396 H401 0.931 . S
C397 C396 1.351 . S
C397 N398 1.373 . S
C397 H425 0.930 . S
N398 C397 1.373 . S
N398 C400 1.340 . S
N399 C396 1.368 . S
N399 C400 1.321 . S
N399 Co402 2.135 . S
C400 N398 1.340 . S
C400 N399 1.321 . S
C400 H424 0.930 . S
H401 C396 0.931 . S
Co402 N399 2.135 . S
Co402 N405 2.121 . S
Co402 O410 2.055 . S
Co402 O413 2.039 . S
Co402 N416 2.140 . S
C403 O404 1.227 . S
C403 O413 1.265 . S
O404 C403 1.227 . S
N405 Co402 2.121 . S
N405 C407 1.375 . S
N405 C408 1.313 . S
C406 C407 1.338 . S
C406 N409 1.377 . S
C406 H426 0.930 . S
C407 N405 1.375 . S
C407 C406 1.338 . S
C407 H411 0.931 . S
C408 N405 1.313 . S
C408 N409 1.344 . S
C408 H412 0.930 . S
N409 C406 1.377 . S
N409 C408 1.344 . S
O410 Co402 2.055 . S
O410 C414 1.253 . S
H411 C407 0.931 . S
H412 C408 0.930 . S
O413 Co402 2.039 . S
O413 C403 1.265 . S
C414 O410 1.253 . S
C414 O415 1.227 . S
O415 C414 1.227 . S
N416 Co402 2.140 . S
N416 C419 1.346 . S
N416 C420 1.345 . S
C417 C418 1.387 . S
C417 C421 1.391 . S
C418 C417 1.387 . S
C418 C419 1.369 . S
C418 H427 0.929 . S
C419 N416 1.346 . S
C419 C418 1.369 . S
C419 H422 0.928 . S
C420 N416 1.345 . S
C420 C421 1.371 . S
C420 H423 0.931 . S
C421 C417 1.391 . S
C421 C420 1.371 . S
C421 H428 0.930 . S
H422 C419 0.928 . S
H423 C420 0.931 . S
H424 C400 0.930 . S
H425 C397 0.930 . S
H426 C406 0.930 . S
H427 C418 0.929 . S
H428 C421 0.930 . S
C429 C430 1.351 . S
C429 N432 1.368 . S
C429 H434 0.931 . S
C430 C429 1.351 . S
C430 N431 1.373 . S
C430 H458 0.930 . S
N431 C430 1.373 . S
N431 C433 1.340 . S
N432 C429 1.368 . S
N432 C433 1.321 . S
N432 Co435 2.135 . S
C433 N431 1.340 . S
C433 N432 1.321 . S
C433 H457 0.930 . S
H434 C429 0.931 . S
Co435 N432 2.135 . S
Co435 N438 2.121 . S
Co435 O443 2.055 . S
Co435 O446 2.039 . S
Co435 N449 2.140 . S
C436 O437 1.227 . S
C436 O446 1.265 . S
O437 C436 1.227 . S
N438 Co435 2.121 . S
N438 C440 1.375 . S
N438 C441 1.313 . S
C439 C440 1.338 . S
C439 N442 1.377 . S
C439 H459 0.930 . S
C440 N438 1.375 . S
C440 C439 1.338 . S
C440 H444 0.931 . S
C441 N438 1.313 . S
C441 N442 1.344 . S
C441 H445 0.930 . S
N442 C439 1.377 . S
N442 C441 1.344 . S
O443 Co435 2.055 . S
O443 C447 1.253 . S
H444 C440 0.931 . S
H445 C441 0.930 . S
O446 Co435 2.039 . S
O446 C436 1.265 . S
C447 O443 1.253 . S
C447 O448 1.227 . S
O448 C447 1.227 . S
N449 Co435 2.140 . S
N449 C452 1.346 . S
N449 C453 1.345 . S
C450 C451 1.387 . S
C450 C454 1.391 . S
C451 C450 1.387 . S
C451 C452 1.369 . S
C451 H460 0.929 . S
C452 N449 1.346 . S
C452 C451 1.369 . S
C452 H455 0.928 . S
C453 N449 1.345 . S
C453 C454 1.371 . S
C453 H456 0.931 . S
C454 C450 1.391 . S
C454 C453 1.371 . S
C454 H461 0.930 . S
H455 C452 0.928 . S
H456 C453 0.931 . S
H457 C433 0.930 . S
H458 C430 0.930 . S
H459 C439 0.930 . S
H460 C451 0.929 . S
H461 C454 0.930 . S
C462 C463 1.351 . S
C462 N465 1.368 . S
C462 H467 0.931 . S
C463 C462 1.351 . S
C463 N464 1.373 . S
C463 H491 0.930 . S
N464 C463 1.373 . S
N464 C466 1.340 . S
N465 C462 1.368 . S
N465 C466 1.321 . S
N465 Co468 2.135 . S
C466 N464 1.340 . S
C466 N465 1.321 . S
C466 H490 0.930 . S
H467 C462 0.931 . S
Co468 N465 2.135 . S
Co468 N471 2.121 . S
Co468 O476 2.055 . S
Co468 O479 2.039 . S
Co468 N482 2.140 . S
C469 O470 1.227 . S
C469 O479 1.265 . S
O470 C469 1.227 . S
N471 Co468 2.121 . S
N471 C473 1.375 . S
N471 C474 1.313 . S
C472 C473 1.338 . S
C472 N475 1.377 . S
C472 H492 0.930 . S
C473 N471 1.375 . S
C473 C472 1.338 . S
C473 H477 0.931 . S
C474 N471 1.313 . S
C474 N475 1.344 . S
C474 H478 0.930 . S
N475 C472 1.377 . S
N475 C474 1.344 . S
O476 Co468 2.055 . S
O476 C480 1.253 . S
H477 C473 0.931 . S
H478 C474 0.930 . S
O479 Co468 2.039 . S
O479 C469 1.265 . S
C480 O476 1.253 . S
C480 O481 1.227 . S
O481 C480 1.227 . S
N482 Co468 2.140 . S
N482 C485 1.346 . S
N482 C486 1.345 . S
C483 C484 1.387 . S
C483 C487 1.391 . S
C484 C483 1.387 . S
C484 C485 1.369 . S
C484 H493 0.929 . S
C485 N482 1.346 . S
C485 C484 1.369 . S
C485 H488 0.928 . S
C486 N482 1.345 . S
C486 C487 1.371 . S
C486 H489 0.931 . S
C487 C483 1.391 . S
C487 C486 1.371 . S
C487 H494 0.930 . S
H488 C485 0.928 . S
H489 C486 0.931 . S
H490 C466 0.930 . S
H491 C463 0.930 . S
H492 C472 0.930 . S
H493 C484 0.929 . S
H494 C487 0.930 . S
C495 C496 1.351 . S
C495 N498 1.368 . S
C495 H500 0.931 . S
C496 C495 1.351 . S
C496 N497 1.373 . S
C496 H524 0.930 . S
N497 C496 1.373 . S
N497 C499 1.340 . S
N498 C495 1.368 . S
N498 C499 1.321 . S
N498 Co501 2.135 . S
C499 N497 1.340 . S
C499 N498 1.321 . S
C499 H523 0.930 . S
H500 C495 0.931 . S
Co501 N498 2.135 . S
Co501 N504 2.121 . S
Co501 O509 2.055 . S
Co501 O512 2.039 . S
Co501 N515 2.140 . S
C502 O503 1.227 . S
C502 O512 1.265 . S
O503 C502 1.227 . S
N504 Co501 2.121 . S
N504 C506 1.375 . S
N504 C507 1.313 . S
C505 C506 1.338 . S
C505 N508 1.377 . S
C505 H525 0.930 . S
C506 N504 1.375 . S
C506 C505 1.338 . S
C506 H510 0.931 . S
C507 N504 1.313 . S
C507 N508 1.344 . S
C507 H511 0.930 . S
N508 C505 1.377 . S
N508 C507 1.344 . S
O509 Co501 2.055 . S
O509 C513 1.253 . S
H510 C506 0.931 . S
H511 C507 0.930 . S
O512 Co501 2.039 . S
O512 C502 1.265 . S
C513 O509 1.253 . S
C513 O514 1.227 . S
O514 C513 1.227 . S
N515 Co501 2.140 . S
N515 C518 1.346 . S
N515 C519 1.345 . S
C516 C517 1.387 . S
C516 C520 1.391 . S
C517 C516 1.387 . S
C517 C518 1.369 . S
C517 H526 0.929 . S
C518 N515 1.346 . S
C518 C517 1.369 . S
C518 H521 0.928 . S
C519 N515 1.345 . S
C519 C520 1.371 . S
C519 H522 0.931 . S
C520 C516 1.391 . S
C520 C519 1.371 . S
C520 H527 0.930 . S
H521 C518 0.928 . S
H522 C519 0.931 . S
H523 C499 0.930 . S
H524 C496 0.930 . S
H525 C505 0.930 . S
H526 C517 0.929 . S
H527 C520 0.930 . S
C528 C529 1.351 . S
C528 N531 1.368 . S
C528 H533 0.931 . S
C529 C528 1.351 . S
C529 N530 1.373 . S
C529 H557 0.930 . S
N530 C529 1.373 . S
N530 C532 1.340 . S
N531 C528 1.368 . S
N531 C532 1.321 . S
N531 Co534 2.135 . S
C532 N530 1.340 . S
C532 N531 1.321 . S
C532 H556 0.930 . S
H533 C528 0.931 . S
Co534 N531 2.135 . S
Co534 N537 2.121 . S
Co534 O542 2.055 . S
Co534 O545 2.039 . S
Co534 N548 2.140 . S
C535 O536 1.227 . S
C535 O545 1.265 . S
O536 C535 1.227 . S
N537 Co534 2.121 . S
N537 C539 1.375 . S
N537 C540 1.313 . S
C538 C539 1.338 . S
C538 N541 1.377 . S
C538 H558 0.930 . S
C539 N537 1.375 . S
C539 C538 1.338 . S
C539 H543 0.931 . S
C540 N537 1.313 . S
C540 N541 1.344 . S
C540 H544 0.930 . S
N541 C538 1.377 . S
N541 C540 1.344 . S
O542 Co534 2.055 . S
O542 C546 1.253 . S
H543 C539 0.931 . S
H544 C540 0.930 . S
O545 Co534 2.039 . S
O545 C535 1.265 . S
C546 O542 1.253 . S
C546 O547 1.227 . S
O547 C546 1.227 . S
N548 Co534 2.140 . S
N548 C551 1.346 . S
N548 C552 1.345 . S
C549 C550 1.387 . S
C549 C553 1.391 . S
C550 C549 1.387 . S
C550 C551 1.369 . S
C550 H559 0.929 . S
C551 N548 1.346 . S
C551 C550 1.369 . S
C551 H554 0.928 . S
C552 N548 1.345 . S
C552 C553 1.371 . S
C552 H555 0.931 . S
C553 C549 1.391 . S
C553 C552 1.371 . S
C553 H560 0.930 . S
H554 C551 0.928 . S
H555 C552 0.931 . S
H556 C532 0.930 . S
H557 C529 0.930 . S
H558 C538 0.930 . S
H559 C550 0.929 . S
H560 C553 0.930 . S
C561 C562 1.351 . S
C561 N564 1.368 . S
C561 H566 0.931 . S
C562 C561 1.351 . S
C562 N563 1.373 . S
C562 H590 0.930 . S
N563 C562 1.373 . S
N563 C565 1.340 . S
N564 C561 1.368 . S
N564 C565 1.321 . S
N564 Co567 2.135 . S
C565 N563 1.340 . S
C565 N564 1.321 . S
C565 H589 0.930 . S
H566 C561 0.931 . S
Co567 N564 2.135 . S
Co567 N570 2.121 . S
Co567 O575 2.055 . S
Co567 O578 2.039 . S
Co567 N581 2.140 . S
C568 O569 1.227 . S
C568 O578 1.265 . S
O569 C568 1.227 . S
N570 Co567 2.121 . S
N570 C572 1.375 . S
N570 C573 1.313 . S
C571 C572 1.338 . S
C571 N574 1.377 . S
C571 H591 0.930 . S
C572 N570 1.375 . S
C572 C571 1.338 . S
C572 H576 0.931 . S
C573 N570 1.313 . S
C573 N574 1.344 . S
C573 H577 0.930 . S
N574 C571 1.377 . S
N574 C573 1.344 . S
O575 Co567 2.055 . S
O575 C579 1.253 . S
H576 C572 0.931 . S
H577 C573 0.930 . S
O578 Co567 2.039 . S
O578 C568 1.265 . S
C579 O575 1.253 . S
C579 O580 1.227 . S
O580 C579 1.227 . S
N581 Co567 2.140 . S
N581 C584 1.346 . S
N581 C585 1.345 . S
C582 C583 1.387 . S
C582 C586 1.391 . S
C583 C582 1.387 . S
C583 C584 1.369 . S
C583 H592 0.929 . S
C584 N581 1.346 . S
C584 C583 1.369 . S
C584 H587 0.928 . S
C585 N581 1.345 . S
C585 C586 1.371 . S
C585 H588 0.931 . S
C586 C582 1.391 . S
C586 C585 1.371 . S
C586 H593 0.930 . S
H587 C584 0.928 . S
H588 C585 0.931 . S
H589 C565 0.930 . S
H590 C562 0.930 . S
H591 C571 0.930 . S
H592 C583 0.929 . S
H593 C586 0.930 . S
C594 C595 1.351 . S
C594 N597 1.368 . S
C594 H599 0.931 . S
C595 C594 1.351 . S
C595 N596 1.373 1_554 S
C595 H623 0.930 . S
N596 C595 1.373 1_556 S
N596 C598 1.340 . S
N597 C594 1.368 . S
N597 C598 1.321 1_554 S
N597 Co600 2.135 . S
C598 N596 1.340 . S
C598 N597 1.321 1_556 S
C598 H622 0.930 . S
H599 C594 0.931 . S
Co600 N597 2.135 . S
Co600 N603 2.121 . S
Co600 O608 2.055 . S
Co600 O611 2.039 . S
Co600 N614 2.140 . S
C601 O602 1.227 . S
C601 O611 1.265 1_556 S
O602 C601 1.227 . S
N603 Co600 2.121 . S
N603 C605 1.375 . S
N603 C606 1.313 . S
C604 C605 1.338 . S
C604 N607 1.377 . S
C604 H624 0.930 . S
C605 N603 1.375 . S
C605 C604 1.338 . S
C605 H609 0.931 . S
C606 N603 1.313 . S
C606 N607 1.344 . S
C606 H610 0.930 . S
N607 C604 1.377 . S
N607 C606 1.344 . S
O608 Co600 2.055 . S
O608 C612 1.253 . S
H609 C605 0.931 . S
H610 C606 0.930 . S
O611 Co600 2.039 . S
O611 C601 1.265 1_554 S
C612 O608 1.253 . S
C612 O613 1.227 . S
O613 C612 1.227 . S
N614 Co600 2.140 . S
N614 C617 1.346 . S
N614 C618 1.345 . S
C615 C616 1.387 . S
C615 C619 1.391 . S
C616 C615 1.387 . S
C616 C617 1.369 . S
C616 H625 0.929 . S
C617 N614 1.346 . S
C617 C616 1.369 . S
C617 H620 0.928 . S
C618 N614 1.345 . S
C618 C619 1.371 . S
C618 H621 0.931 . S
C619 C615 1.391 . S
C619 C618 1.371 . S
C619 H626 0.930 . S
H620 C617 0.928 . S
H621 C618 0.931 . S
H622 C598 0.930 . S
H623 C595 0.930 . S
H624 C604 0.930 . S
H625 C616 0.929 . S
H626 C619 0.930 . S
C627 C628 1.351 . S
C627 N630 1.368 . S
C627 H632 0.931 . S
C628 C627 1.351 . S
C628 N629 1.373 1_554 S
C628 H656 0.930 . S
N629 C628 1.373 1_556 S
N629 C631 1.340 . S
N630 C627 1.368 . S
N630 C631 1.321 1_554 S
N630 Co633 2.135 . S
C631 N629 1.340 . S
C631 N630 1.321 1_556 S
C631 H655 0.930 . S
H632 C627 0.931 . S
Co633 N630 2.135 . S
Co633 N636 2.121 . S
Co633 O641 2.055 . S
Co633 O644 2.039 . S
Co633 N647 2.140 . S
C634 O635 1.227 . S
C634 O644 1.265 1_556 S
O635 C634 1.227 . S
N636 Co633 2.121 . S
N636 C638 1.375 . S
N636 C639 1.313 . S
C637 C638 1.338 . S
C637 N640 1.377 . S
C637 H657 0.930 . S
C638 N636 1.375 . S
C638 C637 1.338 . S
C638 H642 0.931 . S
C639 N636 1.313 . S
C639 N640 1.344 . S
C639 H643 0.930 . S
N640 C637 1.377 . S
N640 C639 1.344 . S
O641 Co633 2.055 . S
O641 C645 1.253 . S
H642 C638 0.931 . S
H643 C639 0.930 . S
O644 Co633 2.039 . S
O644 C634 1.265 1_554 S
C645 O641 1.253 . S
C645 O646 1.227 . S
O646 C645 1.227 . S
N647 Co633 2.140 . S
N647 C650 1.346 . S
N647 C651 1.345 . S
C648 C649 1.387 . S
C648 C652 1.391 . S
C649 C648 1.387 . S
C649 C650 1.369 . S
C649 H658 0.929 . S
C650 N647 1.346 . S
C650 C649 1.369 . S
C650 H653 0.928 . S
C651 N647 1.345 . S
C651 C652 1.371 . S
C651 H654 0.931 . S
C652 C648 1.391 . S
C652 C651 1.371 . S
C652 H659 0.930 . S
H653 C650 0.928 . S
H654 C651 0.931 . S
H655 C631 0.930 . S
H656 C628 0.930 . S
H657 C637 0.930 . S
H658 C649 0.929 . S
H659 C652 0.930 . S
C660 C661 1.351 . S
C660 N663 1.368 . S
C660 H665 0.931 . S
C661 C660 1.351 . S
C661 N662 1.373 1_554 S
C661 H689 0.930 . S
N662 C661 1.373 1_556 S
N662 C664 1.340 . S
N663 C660 1.368 . S
N663 C664 1.321 1_554 S
N663 Co666 2.135 . S
C664 N662 1.340 . S
C664 N663 1.321 1_556 S
C664 H688 0.930 . S
H665 C660 0.931 . S
Co666 N663 2.135 . S
Co666 N669 2.121 . S
Co666 O674 2.055 . S
Co666 O677 2.039 . S
Co666 N680 2.140 . S
C667 O668 1.227 . S
C667 O677 1.265 1_556 S
O668 C667 1.227 . S
N669 Co666 2.121 . S
N669 C671 1.375 . S
N669 C672 1.313 . S
C670 C671 1.338 . S
C670 N673 1.377 . S
C670 H690 0.930 . S
C671 N669 1.375 . S
C671 C670 1.338 . S
C671 H675 0.931 . S
C672 N669 1.313 . S
C672 N673 1.344 . S
C672 H676 0.930 . S
N673 C670 1.377 . S
N673 C672 1.344 . S
O674 Co666 2.055 . S
O674 C678 1.253 . S
H675 C671 0.931 . S
H676 C672 0.930 . S
O677 Co666 2.039 . S
O677 C667 1.265 1_554 S
C678 O674 1.253 . S
C678 O679 1.227 . S
O679 C678 1.227 . S
N680 Co666 2.140 . S
N680 C683 1.346 . S
N680 C684 1.345 . S
C681 C682 1.387 . S
C681 C685 1.391 . S
C682 C681 1.387 . S
C682 C683 1.369 . S
C682 H691 0.929 . S
C683 N680 1.346 . S
C683 C682 1.369 . S
C683 H686 0.928 . S
C684 N680 1.345 . S
C684 C685 1.371 . S
C684 H687 0.931 . S
C685 C681 1.391 . S
C685 C684 1.371 . S
C685 H692 0.930 . S
H686 C683 0.928 . S
H687 C684 0.931 . S
H688 C664 0.930 . S
H689 C661 0.930 . S
H690 C670 0.930 . S
H691 C682 0.929 . S
H692 C685 0.930 . S
C693 C694 1.351 . S
C693 N696 1.368 . S
C693 H698 0.931 . S
C694 C693 1.351 . S
C694 N695 1.373 . S
C694 H722 0.930 . S
N695 C694 1.373 . S
N695 C697 1.340 . S
N696 C693 1.368 . S
N696 C697 1.321 . S
N696 Co699 2.135 . S
C697 N695 1.340 . S
C697 N696 1.321 . S
C697 H721 0.930 . S
H698 C693 0.931 . S
Co699 N696 2.135 . S
Co699 N702 2.121 . S
Co699 O707 2.055 . S
Co699 O710 2.039 . S
Co699 N713 2.140 . S
C700 O701 1.227 . S
C700 O710 1.265 . S
O701 C700 1.227 . S
N702 Co699 2.121 . S
N702 C704 1.375 . S
N702 C705 1.313 1_554 S
C703 C704 1.338 1_556 S
C703 N706 1.377 . S
C703 H723 0.930 . S
C704 N702 1.375 . S
C704 C703 1.338 1_554 S
C704 H708 0.931 . S
C705 N702 1.313 1_556 S
C705 N706 1.344 . S
C705 H709 0.930 . S
N706 C703 1.377 . S
N706 C705 1.344 . S
O707 Co699 2.055 . S
O707 C711 1.254 . S
H708 C704 0.931 . S
H709 C705 0.930 . S
O710 Co699 2.039 . S
O710 C700 1.265 . S
C711 O707 1.254 . S
C711 O712 1.227 1_554 S
O712 C711 1.227 1_556 S
N713 Co699 2.140 . S
N713 C716 1.346 . S
N713 C717 1.345 . S
C714 C715 1.387 . S
C714 C718 1.391 . S
C715 C714 1.387 . S
C715 C716 1.369 . S
C715 H724 0.929 . S
C716 N713 1.346 . S
C716 C715 1.369 . S
C716 H719 0.928 . S
C717 N713 1.345 . S
C717 C718 1.371 . S
C717 H720 0.931 1_554 S
C718 C714 1.391 . S
C718 C717 1.371 . S
C718 H725 0.930 1_554 S
H719 C716 0.928 . S
H720 C717 0.931 1_556 S
H721 C697 0.930 . S
H722 C694 0.930 . S
H723 C703 0.930 . S
H724 C715 0.929 . S
H725 C718 0.930 1_556 S
C726 C727 1.351 . S
C726 N729 1.368 . S
C726 H731 0.931 . S
C727 C726 1.351 . S
C727 N728 1.373 . S
C727 H755 0.930 . S
N728 C727 1.373 . S
N728 C730 1.340 . S
N729 C726 1.368 . S
N729 C730 1.321 . S
N729 Co732 2.135 . S
C730 N728 1.340 . S
C730 N729 1.321 . S
C730 H754 0.930 . S
H731 C726 0.931 . S
Co732 N729 2.135 . S
Co732 N735 2.121 . S
Co732 O740 2.055 . S
Co732 O743 2.039 . S
Co732 N746 2.140 . S
C733 O734 1.227 . S
C733 O743 1.265 . S
O734 C733 1.227 . S
N735 Co732 2.121 . S
N735 C737 1.375 . S
N735 C738 1.313 1_554 S
C736 C737 1.338 1_556 S
C736 N739 1.377 . S
C736 H756 0.930 . S
C737 N735 1.375 . S
C737 C736 1.338 1_554 S
C737 H741 0.931 . S
C738 N735 1.313 1_556 S
C738 N739 1.344 . S
C738 H742 0.930 . S
N739 C736 1.377 . S
N739 C738 1.344 . S
O740 Co732 2.055 . S
O740 C744 1.253 . S
H741 C737 0.931 . S
H742 C738 0.930 . S
O743 Co732 2.039 . S
O743 C733 1.265 . S
C744 O740 1.253 . S
C744 O745 1.227 1_554 S
O745 C744 1.227 1_556 S
N746 Co732 2.140 . S
N746 C749 1.346 . S
N746 C750 1.345 . S
C747 C748 1.387 . S
C747 C751 1.391 . S
C748 C747 1.387 . S
C748 C749 1.369 . S
C748 H757 0.929 . S
C749 N746 1.346 . S
C749 C748 1.369 . S
C749 H752 0.928 . S
C750 N746 1.345 . S
C750 C751 1.371 . S
C750 H753 0.931 1_554 S
C751 C747 1.391 . S
C751 C750 1.371 . S
C751 H758 0.930 1_554 S
H752 C749 0.928 . S
H753 C750 0.931 1_556 S
H754 C730 0.930 . S
H755 C727 0.930 . S
H756 C736 0.930 . S
H757 C748 0.929 . S
H758 C751 0.930 1_556 S
C759 C760 1.351 . S
C759 N762 1.368 . S
C759 H764 0.931 . S
C760 C759 1.351 . S
C760 N761 1.373 . S
C760 H788 0.930 . S
N761 C760 1.373 . S
N761 C763 1.340 . S
N762 C759 1.368 . S
N762 C763 1.321 . S
N762 Co765 2.135 . S
C763 N761 1.340 . S
C763 N762 1.321 . S
C763 H787 0.930 . S
H764 C759 0.931 . S
Co765 N762 2.135 . S
Co765 N768 2.121 . S
Co765 O773 2.055 . S
Co765 O776 2.039 . S
Co765 N779 2.140 . S
C766 O767 1.227 . S
C766 O776 1.265 . S
O767 C766 1.227 . S
N768 Co765 2.121 . S
N768 C770 1.375 . S
N768 C771 1.313 1_554 S
C769 C770 1.338 1_556 S
C769 N772 1.377 . S
C769 H789 0.930 . S
C770 N768 1.375 . S
C770 C769 1.338 1_554 S
C770 H774 0.931 . S
C771 N768 1.313 1_556 S
C771 N772 1.344 . S
C771 H775 0.930 . S
N772 C769 1.377 . S
N772 C771 1.344 . S
O773 Co765 2.055 . S
O773 C777 1.253 . S
H774 C770 0.931 . S
H775 C771 0.930 . S
O776 Co765 2.039 . S
O776 C766 1.265 . S
C777 O773 1.253 . S
C777 O778 1.227 1_554 S
O778 C777 1.227 1_556 S
N779 Co765 2.140 . S
N779 C782 1.346 . S
N779 C783 1.345 . S
C780 C781 1.387 . S
C780 C784 1.391 . S
C781 C780 1.387 . S
C781 C782 1.369 . S
C781 H790 0.929 . S
C782 N779 1.346 . S
C782 C781 1.369 . S
C782 H785 0.928 . S
C783 N779 1.345 . S
C783 C784 1.371 . S
C783 H786 0.931 1_554 S
C784 C780 1.391 . S
C784 C783 1.371 . S
C784 H791 0.930 1_554 S
H785 C782 0.928 . S
H786 C783 0.931 1_556 S
H787 C763 0.930 . S
H788 C760 0.930 . S
H789 C769 0.930 . S
H790 C781 0.929 . S
H791 C784 0.930 1_556 S
C792 C793 1.351 . S
C792 N795 1.368 . S
C792 H797 0.931 . S
C793 C792 1.351 . S
C793 N794 1.373 1_556 S
C793 H821 0.930 . S
N794 C793 1.373 1_554 S
N794 C796 1.340 . S
N795 C792 1.368 . S
N795 C796 1.321 1_556 S
N795 Co798 2.135 . S
C796 N794 1.340 . S
C796 N795 1.321 1_554 S
C796 H820 0.930 . S
H797 C792 0.931 . S
Co798 N795 2.135 . S
Co798 N801 2.121 . S
Co798 O806 2.055 . S
Co798 O809 2.039 . S
Co798 N812 2.140 . S
C799 O800 1.227 . S
C799 O809 1.265 1_554 S
O800 C799 1.227 . S
N801 Co798 2.121 . S
N801 C803 1.375 . S
N801 C804 1.313 . S
C802 C803 1.338 . S
C802 N805 1.377 . S
C802 H822 0.930 . S
C803 N801 1.375 . S
C803 C802 1.338 . S
C803 H807 0.931 . S
C804 N801 1.313 . S
C804 N805 1.344 . S
C804 H808 0.930 . S
N805 C802 1.377 . S
N805 C804 1.344 . S
O806 Co798 2.055 . S
O806 C810 1.253 . S
H807 C803 0.931 . S
H808 C804 0.930 . S
O809 Co798 2.039 . S
O809 C799 1.265 1_556 S
C810 O806 1.253 . S
C810 O811 1.227 . S
O811 C810 1.227 . S
N812 Co798 2.140 . S
N812 C815 1.346 . S
N812 C816 1.345 . S
C813 C814 1.387 . S
C813 C817 1.391 . S
C814 C813 1.387 . S
C814 C815 1.369 . S
C814 H823 0.929 . S
C815 N812 1.346 . S
C815 C814 1.369 . S
C815 H818 0.928 . S
C816 N812 1.345 . S
C816 C817 1.371 . S
C816 H819 0.931 . S
C817 C813 1.391 . S
C817 C816 1.371 . S
C817 H824 0.930 . S
H818 C815 0.928 . S
H819 C816 0.931 . S
H820 C796 0.930 . S
H821 C793 0.930 . S
H822 C802 0.930 . S
H823 C814 0.929 . S
H824 C817 0.930 . S
C825 C826 1.351 . S
C825 N828 1.368 . S
C825 H830 0.931 . S
C826 C825 1.351 . S
C826 N827 1.373 1_556 S
C826 H854 0.930 . S
N827 C826 1.373 1_554 S
N827 C829 1.340 . S
N828 C825 1.368 . S
N828 C829 1.321 1_556 S
N828 Co831 2.135 . S
C829 N827 1.340 . S
C829 N828 1.321 1_554 S
C829 H853 0.930 . S
H830 C825 0.931 . S
Co831 N828 2.135 . S
Co831 N834 2.121 . S
Co831 O839 2.055 . S
Co831 O842 2.039 . S
Co831 N845 2.140 . S
C832 O833 1.227 . S
C832 O842 1.265 1_554 S
O833 C832 1.227 . S
N834 Co831 2.121 . S
N834 C836 1.375 . S
N834 C837 1.313 . S
C835 C836 1.338 . S
C835 N838 1.377 . S
C835 H855 0.930 . S
C836 N834 1.375 . S
C836 C835 1.338 . S
C836 H840 0.931 . S
C837 N834 1.313 . S
C837 N838 1.344 . S
C837 H841 0.930 . S
N838 C835 1.377 . S
N838 C837 1.344 . S
O839 Co831 2.055 . S
O839 C843 1.253 . S
H840 C836 0.931 . S
H841 C837 0.930 . S
O842 Co831 2.039 . S
O842 C832 1.265 1_556 S
C843 O839 1.253 . S
C843 O844 1.227 . S
O844 C843 1.227 . S
N845 Co831 2.140 . S
N845 C848 1.346 . S
N845 C849 1.345 . S
C846 C847 1.387 . S
C846 C850 1.391 . S
C847 C846 1.387 . S
C847 C848 1.369 . S
C847 H856 0.929 . S
C848 N845 1.346 . S
C848 C847 1.369 . S
C848 H851 0.928 . S
C849 N845 1.345 . S
C849 C850 1.371 . S
C849 H852 0.931 . S
C850 C846 1.391 . S
C850 C849 1.371 . S
C850 H857 0.930 . S
H851 C848 0.928 . S
H852 C849 0.931 . S
H853 C829 0.930 . S
H854 C826 0.930 . S
H855 C835 0.930 . S
H856 C847 0.929 . S
H857 C850 0.930 . S
C858 C859 1.351 . S
C858 N861 1.368 . S
C858 H863 0.931 . S
C859 C858 1.351 . S
C859 N860 1.373 1_556 S
C859 H887 0.930 . S
N860 C859 1.373 1_554 S
N860 C862 1.340 . S
N861 C858 1.368 . S
N861 C862 1.321 1_556 S
N861 Co864 2.135 . S
C862 N860 1.340 . S
C862 N861 1.321 1_554 S
C862 H886 0.930 . S
H863 C858 0.931 . S
Co864 N861 2.135 . S
Co864 N867 2.121 . S
Co864 O872 2.055 . S
Co864 O875 2.039 . S
Co864 N878 2.140 . S
C865 O866 1.227 . S
C865 O875 1.265 1_554 S
O866 C865 1.227 . S
N867 Co864 2.121 . S
N867 C869 1.375 . S
N867 C870 1.313 . S
C868 C869 1.338 . S
C868 N871 1.377 . S
C868 H888 0.930 . S
C869 N867 1.375 . S
C869 C868 1.338 . S
C869 H873 0.931 . S
C870 N867 1.313 . S
C870 N871 1.344 . S
C870 H874 0.930 . S
N871 C868 1.377 . S
N871 C870 1.344 . S
O872 Co864 2.055 . S
O872 C876 1.253 . S
H873 C869 0.931 . S
H874 C870 0.930 . S
O875 Co864 2.039 . S
O875 C865 1.265 1_556 S
C876 O872 1.253 . S
C876 O877 1.227 . S
O877 C876 1.227 . S
N878 Co864 2.140 . S
N878 C881 1.346 . S
N878 C882 1.345 . S
C879 C880 1.387 . S
C879 C883 1.391 . S
C880 C879 1.387 . S
C880 C881 1.369 . S
C880 H889 0.929 . S
C881 N878 1.346 . S
C881 C880 1.369 . S
C881 H884 0.928 . S
C882 N878 1.345 . S
C882 C883 1.371 . S
C882 H885 0.931 . S
C883 C879 1.391 . S
C883 C882 1.371 . S
C883 H890 0.930 . S
H884 C881 0.928 . S
H885 C882 0.931 . S
H886 C862 0.930 . S
H887 C859 0.930 . S
H888 C868 0.930 . S
H889 C880 0.929 . S
H890 C883 0.930 . S
C891 C892 1.351 . S
C891 N894 1.368 . S
C891 H896 0.931 . S
C892 C891 1.351 . S
C892 N893 1.373 . S
C892 H920 0.930 . S
N893 C892 1.373 . S
N893 C895 1.340 . S
N894 C891 1.368 . S
N894 C895 1.321 . S
N894 Co897 2.135 . S
C895 N893 1.340 . S
C895 N894 1.321 . S
C895 H919 0.930 . S
H896 C891 0.931 . S
Co897 N894 2.135 . S
Co897 N900 2.121 . S
Co897 O905 2.055 . S
Co897 O908 2.039 . S
Co897 N911 2.140 . S
C898 O899 1.227 . S
C898 O908 1.265 . S
O899 C898 1.227 . S
N900 Co897 2.121 . S
N900 C902 1.375 . S
N900 C903 1.313 1_556 S
C901 C902 1.338 1_554 S
C901 N904 1.377 . S
C901 H921 0.930 . S
C902 N900 1.375 . S
C902 C901 1.338 1_556 S
C902 H906 0.931 . S
C903 N900 1.313 1_554 S
C903 N904 1.344 . S
C903 H907 0.930 . S
N904 C901 1.377 . S
N904 C903 1.344 . S
O905 Co897 2.055 . S
O905 C909 1.254 . S
H906 C902 0.931 . S
H907 C903 0.930 . S
O908 Co897 2.039 . S
O908 C898 1.265 . S
C909 O905 1.254 . S
C909 O910 1.227 1_556 S
O910 C909 1.227 1_554 S
N911 Co897 2.140 . S
N911 C914 1.346 . S
N911 C915 1.345 . S
C912 C913 1.387 . S
C912 C916 1.391 . S
C913 C912 1.387 . S
C913 C914 1.369 . S
C913 H922 0.929 . S
C914 N911 1.346 . S
C914 C913 1.369 . S
C914 H917 0.928 . S
C915 N911 1.345 . S
C915 C916 1.371 . S
C915 H918 0.931 1_556 S
C916 C912 1.391 . S
C916 C915 1.371 . S
C916 H923 0.930 1_556 S
H917 C914 0.928 . S
H918 C915 0.931 1_554 S
H919 C895 0.930 . S
H920 C892 0.930 . S
H921 C901 0.930 . S
H922 C913 0.929 . S
H923 C916 0.930 1_554 S
C924 C925 1.351 . S
C924 N927 1.368 . S
C924 H929 0.931 . S
C925 C924 1.351 . S
C925 N926 1.373 . S
C925 H953 0.930 . S
N926 C925 1.373 . S
N926 C928 1.340 . S
N927 C924 1.368 . S
N927 C928 1.321 . S
N927 Co930 2.135 . S
C928 N926 1.340 . S
C928 N927 1.321 . S
C928 H952 0.930 . S
H929 C924 0.931 . S
Co930 N927 2.135 . S
Co930 N933 2.121 . S
Co930 O938 2.055 . S
Co930 O941 2.039 . S
Co930 N944 2.140 . S
C931 O932 1.227 . S
C931 O941 1.265 . S
O932 C931 1.227 . S
N933 Co930 2.121 . S
N933 C935 1.375 . S
N933 C936 1.313 1_556 S
C934 C935 1.338 1_554 S
C934 N937 1.377 . S
C934 H954 0.930 . S
C935 N933 1.375 . S
C935 C934 1.338 1_556 S
C935 H939 0.931 . S
C936 N933 1.313 1_554 S
C936 N937 1.344 . S
C936 H940 0.930 . S
N937 C934 1.377 . S
N937 C936 1.344 . S
O938 Co930 2.055 . S
O938 C942 1.253 . S
H939 C935 0.931 . S
H940 C936 0.930 . S
O941 Co930 2.039 . S
O941 C931 1.265 . S
C942 O938 1.253 . S
C942 O943 1.227 1_556 S
O943 C942 1.227 1_554 S
N944 Co930 2.140 . S
N944 C947 1.346 . S
N944 C948 1.345 . S
C945 C946 1.387 . S
C945 C949 1.391 . S
C946 C945 1.387 . S
C946 C947 1.369 . S
C946 H955 0.929 . S
C947 N944 1.346 . S
C947 C946 1.369 . S
C947 H950 0.928 . S
C948 N944 1.345 . S
C948 C949 1.371 . S
C948 H951 0.931 1_556 S
C949 C945 1.391 . S
C949 C948 1.371 . S
C949 H956 0.930 1_556 S
H950 C947 0.928 . S
H951 C948 0.931 1_554 S
H952 C928 0.930 . S
H953 C925 0.930 . S
H954 C934 0.930 . S
H955 C946 0.929 . S
H956 C949 0.930 1_554 S
C957 C958 1.351 . S
C957 N960 1.368 . S
C957 H962 0.931 . S
C958 C957 1.351 . S
C958 N959 1.373 . S
C958 H986 0.930 . S
N959 C958 1.373 . S
N959 C961 1.340 . S
N960 C957 1.368 . S
N960 C961 1.321 . S
N960 Co963 2.135 . S
C961 N959 1.340 . S
C961 N960 1.321 . S
C961 H985 0.930 . S
H962 C957 0.931 . S
Co963 N960 2.135 . S
Co963 N966 2.121 . S
Co963 O971 2.055 . S
Co963 O974 2.039 . S
Co963 N977 2.140 . S
C964 O965 1.227 . S
C964 O974 1.265 . S
O965 C964 1.227 . S
N966 Co963 2.121 . S
N966 C968 1.375 . S
N966 C969 1.313 1_556 S
C967 C968 1.338 1_554 S
C967 N970 1.377 . S
C967 H987 0.930 . S
C968 N966 1.375 . S
C968 C967 1.338 1_556 S
C968 H972 0.931 . S
C969 N966 1.313 1_554 S
C969 N970 1.344 . S
C969 H973 0.930 . S
N970 C967 1.377 . S
N970 C969 1.344 . S
O971 Co963 2.055 . S
O971 C975 1.253 . S
H972 C968 0.931 . S
H973 C969 0.930 . S
O974 Co963 2.039 . S
O974 C964 1.265 . S
C975 O971 1.253 . S
C975 O976 1.227 1_556 S
O976 C975 1.227 1_554 S
N977 Co963 2.140 . S
N977 C980 1.346 . S
N977 C981 1.345 . S
C978 C979 1.387 . S
C978 C982 1.391 . S
C979 C978 1.387 . S
C979 C980 1.369 . S
C979 H988 0.929 . S
C980 N977 1.346 . S
C980 C979 1.369 . S
C980 H983 0.928 . S
C981 N977 1.345 . S
C981 C982 1.371 . S
C981 H984 0.931 1_556 S
C982 C978 1.391 . S
C982 C981 1.371 . S
C982 H989 0.930 1_556 S
H983 C980 0.928 . S
H984 C981 0.931 1_554 S
H985 C961 0.930 . S
H986 C958 0.930 . S
H987 C967 0.930 . S
H988 C979 0.929 . S
H989 C982 0.930 1_554 S
C990 C991 1.351 . S
C990 N993 1.368 . S
C990 H995 0.931 . S
C991 C990 1.351 . S
C991 N992 1.373 . S
C991 H1019 0.930 . S
N992 C991 1.373 . S
N992 C994 1.340 . S
N993 C990 1.368 . S
N993 C994 1.321 . S
N993 Co996 2.135 . S
C994 N992 1.340 . S
C994 N993 1.321 . S
C994 H1018 0.930 . S
H995 C990 0.931 . S
Co996 N993 2.135 . S
Co996 N999 2.121 . S
Co996 O1004 2.055 . S
Co996 O1007 2.039 . S
Co996 N1010 2.140 . S
C997 O998 1.227 . S
C997 O1007 1.265 . S
O998 C997 1.227 . S
N999 Co996 2.121 . S
N999 C1001 1.375 . S
N999 C1002 1.313 . S
C1000 C1001 1.338 . S
C1000 N1003 1.377 . S
C1000 H1020 0.930 . S
C1001 N999 1.375 . S
C1001 C1000 1.338 . S
C1001 H1005 0.931 . S
C1002 N999 1.313 . S
C1002 N1003 1.344 . S
C1002 H1006 0.930 . S
N1003 C1000 1.377 . S
N1003 C1002 1.344 . S
O1004 Co996 2.055 . S
O1004 C1008 1.253 . S
H1005 C1001 0.931 . S
H1006 C1002 0.930 . S
O1007 Co996 2.039 . S
O1007 C997 1.265 . S
C1008 O1004 1.253 . S
C1008 O1009 1.227 . S
O1009 C1008 1.227 . S
N1010 Co996 2.140 . S
N1010 C1013 1.346 . S
N1010 C1014 1.345 . S
C1011 C1012 1.387 . S
C1011 C1015 1.391 . S
C1012 C1011 1.387 . S
C1012 C1013 1.369 . S
C1012 H1021 0.929 . S
C1013 N1010 1.346 . S
C1013 C1012 1.369 . S
C1013 H1016 0.928 . S
C1014 N1010 1.345 . S
C1014 C1015 1.371 . S
C1014 H1017 0.931 . S
C1015 C1011 1.391 . S
C1015 C1014 1.371 . S
C1015 H1022 0.930 . S
H1016 C1013 0.928 . S
H1017 C1014 0.931 . S
H1018 C994 0.930 . S
H1019 C991 0.930 . S
H1020 C1000 0.930 . S
H1021 C1012 0.929 . S
H1022 C1015 0.930 . S
C1023 C1024 1.351 . S
C1023 N1026 1.368 . S
C1023 H1028 0.931 . S
C1024 C1023 1.351 . S
C1024 N1025 1.373 . S
C1024 H1052 0.930 . S
N1025 C1024 1.373 . S
N1025 C1027 1.340 . S
N1026 C1023 1.368 . S
N1026 C1027 1.321 . S
N1026 Co1029 2.135 . S
C1027 N1025 1.340 . S
C1027 N1026 1.321 . S
C1027 H1051 0.930 . S
H1028 C1023 0.931 . S
Co1029 N1026 2.135 . S
Co1029 N1032 2.121 . S
Co1029 O1037 2.055 . S
Co1029 O1040 2.039 . S
Co1029 N1043 2.140 . S
C1030 O1031 1.227 . S
C1030 O1040 1.265 . S
O1031 C1030 1.227 . S
N1032 Co1029 2.121 . S
N1032 C1034 1.375 . S
N1032 C1035 1.313 . S
C1033 C1034 1.338 . S
C1033 N1036 1.377 . S
C1033 H1053 0.930 . S
C1034 N1032 1.375 . S
C1034 C1033 1.338 . S
C1034 H1038 0.931 . S
C1035 N1032 1.313 . S
C1035 N1036 1.344 . S
C1035 H1039 0.930 . S
N1036 C1033 1.377 . S
N1036 C1035 1.344 . S
O1037 Co1029 2.055 . S
O1037 C1041 1.253 . S
H1038 C1034 0.931 . S
H1039 C1035 0.930 . S
O1040 Co1029 2.039 . S
O1040 C1030 1.265 . S
C1041 O1037 1.253 . S
C1041 O1042 1.227 . S
O1042 C1041 1.227 . S
N1043 Co1029 2.140 . S
N1043 C1046 1.346 . S
N1043 C1047 1.345 . S
C1044 C1045 1.387 . S
C1044 C1048 1.391 . S
C1045 C1044 1.387 . S
C1045 C1046 1.369 . S
C1045 H1054 0.929 . S
C1046 N1043 1.346 . S
C1046 C1045 1.369 . S
C1046 H1049 0.928 . S
C1047 N1043 1.345 . S
C1047 C1048 1.371 . S
C1047 H1050 0.931 . S
C1048 C1044 1.391 . S
C1048 C1047 1.371 . S
C1048 H1055 0.930 . S
H1049 C1046 0.928 . S
H1050 C1047 0.931 . S
H1051 C1027 0.930 . S
H1052 C1024 0.930 . S
H1053 C1033 0.930 . S
H1054 C1045 0.929 . S
H1055 C1048 0.930 . S
C1056 C1057 1.351 . S
C1056 N1059 1.368 . S
C1056 H1061 0.931 . S
C1057 C1056 1.351 . S
C1057 N1058 1.373 . S
C1057 H1085 0.930 . S
N1058 C1057 1.373 . S
N1058 C1060 1.340 . S
N1059 C1056 1.368 . S
N1059 C1060 1.321 . S
N1059 Co1062 2.135 . S
C1060 N1058 1.340 . S
C1060 N1059 1.321 . S
C1060 H1084 0.930 . S
H1061 C1056 0.931 . S
Co1062 N1059 2.135 . S
Co1062 N1065 2.121 . S
Co1062 O1070 2.055 . S
Co1062 O1073 2.039 . S
Co1062 N1076 2.140 . S
C1063 O1064 1.227 . S
C1063 O1073 1.265 . S
O1064 C1063 1.227 . S
N1065 Co1062 2.121 . S
N1065 C1067 1.375 . S
N1065 C1068 1.313 . S
C1066 C1067 1.338 . S
C1066 N1069 1.377 . S
C1066 H1086 0.930 . S
C1067 N1065 1.375 . S
C1067 C1066 1.338 . S
C1067 H1071 0.931 . S
C1068 N1065 1.313 . S
C1068 N1069 1.344 . S
C1068 H1072 0.930 . S
N1069 C1066 1.377 . S
N1069 C1068 1.344 . S
O1070 Co1062 2.055 . S
O1070 C1074 1.253 . S
H1071 C1067 0.931 . S
H1072 C1068 0.930 . S
O1073 Co1062 2.039 . S
O1073 C1063 1.265 . S
C1074 O1070 1.253 . S
C1074 O1075 1.227 . S
O1075 C1074 1.227 . S
N1076 Co1062 2.140 . S
N1076 C1079 1.346 . S
N1076 C1080 1.345 . S
C1077 C1078 1.387 . S
C1077 C1081 1.391 . S
C1078 C1077 1.387 . S
C1078 C1079 1.369 . S
C1078 H1087 0.929 . S
C1079 N1076 1.346 . S
C1079 C1078 1.369 . S
C1079 H1082 0.928 . S
C1080 N1076 1.345 . S
C1080 C1081 1.371 . S
C1080 H1083 0.931 . S
C1081 C1077 1.391 . S
C1081 C1080 1.371 . S
C1081 H1088 0.930 . S
H1082 C1079 0.928 . S
H1083 C1080 0.931 . S
H1084 C1060 0.930 . S
H1085 C1057 0.930 . S
H1086 C1066 0.930 . S
H1087 C1078 0.929 . S
H1088 C1081 0.930 . S
C1089 C1090 1.351 . S
C1089 N1092 1.368 . S
C1089 H1094 0.931 . S
C1090 C1089 1.351 . S
C1090 N1091 1.373 . S
C1090 H1118 0.930 . S
N1091 C1090 1.373 . S
N1091 C1093 1.340 . S
N1092 C1089 1.368 . S
N1092 C1093 1.321 . S
N1092 Co1095 2.135 . S
C1093 N1091 1.340 . S
C1093 N1092 1.321 . S
C1093 H1117 0.930 . S
H1094 C1089 0.931 . S
Co1095 N1092 2.135 . S
Co1095 N1098 2.121 . S
Co1095 O1103 2.055 . S
Co1095 O1106 2.039 . S
Co1095 N1109 2.140 . S
C1096 O1097 1.227 . S
C1096 O1106 1.265 . S
O1097 C1096 1.227 . S
N1098 Co1095 2.121 . S
N1098 C1100 1.375 . S
N1098 C1101 1.313 . S
C1099 C1100 1.338 . S
C1099 N1102 1.377 . S
C1099 H1119 0.930 . S
C1100 N1098 1.375 . S
C1100 C1099 1.338 . S
C1100 H1104 0.931 . S
C1101 N1098 1.313 . S
C1101 N1102 1.344 . S
C1101 H1105 0.930 . S
N1102 C1099 1.377 . S
N1102 C1101 1.344 . S
O1103 Co1095 2.055 . S
O1103 C1107 1.253 . S
H1104 C1100 0.931 . S
H1105 C1101 0.930 . S
O1106 Co1095 2.039 . S
O1106 C1096 1.265 . S
C1107 O1103 1.253 . S
C1107 O1108 1.227 . S
O1108 C1107 1.227 . S
N1109 Co1095 2.140 . S
N1109 C1112 1.346 . S
N1109 C1113 1.345 . S
C1110 C1111 1.387 . S
C1110 C1114 1.391 . S
C1111 C1110 1.387 . S
C1111 C1112 1.369 . S
C1111 H1120 0.929 . S
C1112 N1109 1.346 . S
C1112 C1111 1.369 . S
C1112 H1115 0.928 . S
C1113 N1109 1.345 . S
C1113 C1114 1.371 . S
C1113 H1116 0.931 . S
C1114 C1110 1.391 . S
C1114 C1113 1.371 . S
C1114 H1121 0.930 . S
H1115 C1112 0.928 . S
H1116 C1113 0.931 . S
H1117 C1093 0.930 . S
H1118 C1090 0.930 . S
H1119 C1099 0.930 . S
H1120 C1111 0.929 . S
H1121 C1114 0.930 . S
C1122 C1123 1.351 . S
C1122 N1125 1.368 . S
C1122 H1127 0.931 . S
C1123 C1122 1.351 . S
C1123 N1124 1.373 . S
C1123 H1151 0.930 . S
N1124 C1123 1.373 . S
N1124 C1126 1.340 . S
N1125 C1122 1.368 . S
N1125 C1126 1.321 . S
N1125 Co1128 2.135 . S
C1126 N1124 1.340 . S
C1126 N1125 1.321 . S
C1126 H1150 0.930 . S
H1127 C1122 0.931 . S
Co1128 N1125 2.135 . S
Co1128 N1131 2.121 . S
Co1128 O1136 2.055 . S
Co1128 O1139 2.039 . S
Co1128 N1142 2.140 . S
C1129 O1130 1.227 . S
C1129 O1139 1.265 . S
O1130 C1129 1.227 . S
N1131 Co1128 2.121 . S
N1131 C1133 1.375 . S
N1131 C1134 1.313 . S
C1132 C1133 1.338 . S
C1132 N1135 1.377 . S
C1132 H1152 0.930 . S
C1133 N1131 1.375 . S
C1133 C1132 1.338 . S
C1133 H1137 0.931 . S
C1134 N1131 1.313 . S
C1134 N1135 1.344 . S
C1134 H1138 0.930 . S
N1135 C1132 1.377 . S
N1135 C1134 1.344 . S
O1136 Co1128 2.055 . S
O1136 C1140 1.253 . S
H1137 C1133 0.931 . S
H1138 C1134 0.930 . S
O1139 Co1128 2.039 . S
O1139 C1129 1.265 . S
C1140 O1136 1.253 . S
C1140 O1141 1.227 . S
O1141 C1140 1.227 . S
N1142 Co1128 2.140 . S
N1142 C1145 1.346 . S
N1142 C1146 1.345 . S
C1143 C1144 1.387 . S
C1143 C1147 1.391 . S
C1144 C1143 1.387 . S
C1144 C1145 1.369 . S
C1144 H1153 0.929 . S
C1145 N1142 1.346 . S
C1145 C1144 1.369 . S
C1145 H1148 0.928 . S
C1146 N1142 1.345 . S
C1146 C1147 1.371 . S
C1146 H1149 0.931 . S
C1147 C1143 1.391 . S
C1147 C1146 1.371 . S
C1147 H1154 0.930 . S
H1148 C1145 0.928 . S
H1149 C1146 0.931 . S
H1150 C1126 0.930 . S
H1151 C1123 0.930 . S
H1152 C1132 0.930 . S
H1153 C1144 0.929 . S
H1154 C1147 0.930 . S
C1155 C1156 1.351 . S
C1155 N1158 1.368 . S
C1155 H1160 0.931 . S
C1156 C1155 1.351 . S
C1156 N1157 1.373 . S
C1156 H1184 0.930 . S
N1157 C1156 1.373 . S
N1157 C1159 1.340 . S
N1158 C1155 1.368 . S
N1158 C1159 1.321 . S
N1158 Co1161 2.135 . S
C1159 N1157 1.340 . S
C1159 N1158 1.321 . S
C1159 H1183 0.930 . S
H1160 C1155 0.931 . S
Co1161 N1158 2.135 . S
Co1161 N1164 2.121 . S
Co1161 O1169 2.055 . S
Co1161 O1172 2.039 . S
Co1161 N1175 2.140 . S
C1162 O1163 1.227 . S
C1162 O1172 1.265 . S
O1163 C1162 1.227 . S
N1164 Co1161 2.121 . S
N1164 C1166 1.375 . S
N1164 C1167 1.313 . S
C1165 C1166 1.338 . S
C1165 N1168 1.377 . S
C1165 H1185 0.930 . S
C1166 N1164 1.375 . S
C1166 C1165 1.338 . S
C1166 H1170 0.931 . S
C1167 N1164 1.313 . S
C1167 N1168 1.344 . S
C1167 H1171 0.930 . S
N1168 C1165 1.377 . S
N1168 C1167 1.344 . S
O1169 Co1161 2.055 . S
O1169 C1173 1.253 . S
H1170 C1166 0.931 . S
H1171 C1167 0.930 . S
O1172 Co1161 2.039 . S
O1172 C1162 1.265 . S
C1173 O1169 1.253 . S
C1173 O1174 1.227 . S
O1174 C1173 1.227 . S
N1175 Co1161 2.140 . S
N1175 C1178 1.346 . S
N1175 C1179 1.345 . S
C1176 C1177 1.387 . S
C1176 C1180 1.391 . S
C1177 C1176 1.387 . S
C1177 C1178 1.369 . S
C1177 H1186 0.929 . S
C1178 N1175 1.346 . S
C1178 C1177 1.369 . S
C1178 H1181 0.928 . S
C1179 N1175 1.345 . S
C1179 C1180 1.371 . S
C1179 H1182 0.931 . S
C1180 C1176 1.391 . S
C1180 C1179 1.371 . S
C1180 H1187 0.930 . S
H1181 C1178 0.928 . S
H1182 C1179 0.931 . S
H1183 C1159 0.930 . S
H1184 C1156 0.930 . S
H1185 C1165 0.930 . S
H1186 C1177 0.929 . S
H1187 C1180 0.930 . S
C1188 C1189 1.369 . S
C1188 C1190 1.419 . S
C1188 H1192 0.930 . S
C1189 C1188 1.369 . S
C1189 C1198 1.429 . S
C1190 C1188 1.419 . S
C1190 C1191 1.363 . S
C1190 H1193 0.929 . S
C1191 C1190 1.363 . S
C1191 C1197 1.428 . S
H1192 C1188 0.930 . S
H1193 C1190 0.929 . S
S1194 N1195 1.613 . S
S1194 N1196 1.610 . S
N1195 S1194 1.613 . S
N1195 C1198 1.350 . S
N1196 S1194 1.610 . S
N1196 C1197 1.351 . S
C1197 C1191 1.428 . S
C1197 N1196 1.351 . S
C1197 C1198 1.434 . S
C1198 C1189 1.429 . S
C1198 N1195 1.350 . S
C1198 C1197 1.434 . S
C1199 C1200 1.369 . S
C1199 C1201 1.419 . S
C1199 H1203 0.930 . S
C1200 C1199 1.369 . S
C1200 C1209 1.429 . S
C1201 C1199 1.419 . S
C1201 C1202 1.363 . S
C1201 H1204 0.929 . S
C1202 C1201 1.363 . S
C1202 C1208 1.428 . S
H1203 C1199 0.930 . S
H1204 C1201 0.929 . S
S1205 N1206 1.613 . S
S1205 N1207 1.610 . S
N1206 S1205 1.613 . S
N1206 C1209 1.350 . S
N1207 S1205 1.610 . S
N1207 C1208 1.351 . S
C1208 C1202 1.428 . S
C1208 N1207 1.351 . S
C1208 C1209 1.434 . S
C1209 C1200 1.429 . S
C1209 N1206 1.350 . S
C1209 C1208 1.434 . S
C1210 C1211 1.369 . S
C1210 C1212 1.419 . S
C1210 H1214 0.930 . S
C1211 C1210 1.369 . S
C1211 C1220 1.429 . S
C1212 C1210 1.419 . S
C1212 C1213 1.363 . S
C1212 H1215 0.929 . S
C1213 C1212 1.363 . S
C1213 C1219 1.428 . S
H1214 C1210 0.930 . S
H1215 C1212 0.929 . S
S1216 N1217 1.613 . S
S1216 N1218 1.610 . S
N1217 S1216 1.613 . S
N1217 C1220 1.350 . S
N1218 S1216 1.610 . S
N1218 C1219 1.351 . S
C1219 C1213 1.428 . S
C1219 N1218 1.351 . S
C1219 C1220 1.434 . S
C1220 C1211 1.429 . S
C1220 N1217 1.350 . S
C1220 C1219 1.434 . S
C1221 C1222 1.369 . S
C1221 C1223 1.419 . S
C1221 H1225 0.930 . S
C1222 C1221 1.369 . S
C1222 C1231 1.429 . S
C1223 C1221 1.419 . S
C1223 C1224 1.363 . S
C1223 H1226 0.929 . S
C1224 C1223 1.363 . S
C1224 C1230 1.428 . S
H1225 C1221 0.930 . S
H1226 C1223 0.929 . S
S1227 N1228 1.613 . S
S1227 N1229 1.610 . S
N1228 S1227 1.613 . S
N1228 C1231 1.350 . S
N1229 S1227 1.610 . S
N1229 C1230 1.351 . S
C1230 C1224 1.428 . S
C1230 N1229 1.351 . S
C1230 C1231 1.434 . S
C1231 C1222 1.429 . S
C1231 N1228 1.350 . S
C1231 C1230 1.434 . S
C1232 C1233 1.369 . S
C1232 C1234 1.419 . S
C1232 H1236 0.930 . S
C1233 C1232 1.369 . S
C1233 C1242 1.429 . S
C1234 C1232 1.419 . S
C1234 C1235 1.363 . S
C1234 H1237 0.929 . S
C1235 C1234 1.363 . S
C1235 C1241 1.428 . S
H1236 C1232 0.930 . S
H1237 C1234 0.929 . S
S1238 N1239 1.613 . S
S1238 N1240 1.610 . S
N1239 S1238 1.613 . S
N1239 C1242 1.350 . S
N1240 S1238 1.610 . S
N1240 C1241 1.351 . S
C1241 C1235 1.428 . S
C1241 N1240 1.351 . S
C1241 C1242 1.434 . S
C1242 C1233 1.429 . S
C1242 N1239 1.350 . S
C1242 C1241 1.434 . S
C1243 C1244 1.369 . S
C1243 C1245 1.419 . S
C1243 H1247 0.930 . S
C1244 C1243 1.369 . S
C1244 C1253 1.429 . S
C1245 C1243 1.419 . S
C1245 C1246 1.363 . S
C1245 H1248 0.929 . S
C1246 C1245 1.363 . S
C1246 C1252 1.428 . S
H1247 C1243 0.930 . S
H1248 C1245 0.929 . S
S1249 N1250 1.613 . S
S1249 N1251 1.610 . S
N1250 S1249 1.613 . S
N1250 C1253 1.350 . S
N1251 S1249 1.610 . S
N1251 C1252 1.351 . S
C1252 C1246 1.428 . S
C1252 N1251 1.351 . S
C1252 C1253 1.434 . S
C1253 C1244 1.429 . S
C1253 N1250 1.350 . S
C1253 C1252 1.434 . S
C1254 C1255 1.369 . S
C1254 C1256 1.419 . S
C1254 H1258 0.930 . S
C1255 C1254 1.369 . S
C1255 C1264 1.429 . S
C1256 C1254 1.419 . S
C1256 C1257 1.363 . S
C1256 H1259 0.929 . S
C1257 C1256 1.363 . S
C1257 C1263 1.428 . S
H1258 C1254 0.930 . S
H1259 C1256 0.929 . S
S1260 N1261 1.613 . S
S1260 N1262 1.610 . S
N1261 S1260 1.613 . S
N1261 C1264 1.350 . S
N1262 S1260 1.610 . S
N1262 C1263 1.351 . S
C1263 C1257 1.428 . S
C1263 N1262 1.351 . S
C1263 C1264 1.434 . S
C1264 C1255 1.429 . S
C1264 N1261 1.350 . S
C1264 C1263 1.434 . S
C1265 C1266 1.369 . S
C1265 C1267 1.419 . S
C1265 H1269 0.930 . S
C1266 C1265 1.369 . S
C1266 C1275 1.429 . S
C1267 C1265 1.419 . S
C1267 C1268 1.363 . S
C1267 H1270 0.929 . S
C1268 C1267 1.363 . S
C1268 C1274 1.428 . S
H1269 C1265 0.930 . S
H1270 C1267 0.929 . S
S1271 N1272 1.613 . S
S1271 N1273 1.610 . S
N1272 S1271 1.613 . S
N1272 C1275 1.350 . S
N1273 S1271 1.610 . S
N1273 C1274 1.351 . S
C1274 C1268 1.428 . S
C1274 N1273 1.351 . S
C1274 C1275 1.434 . S
C1275 C1266 1.429 . S
C1275 N1272 1.350 . S
C1275 C1274 1.434 . S
C1276 C1277 1.369 . S
C1276 C1278 1.419 . S
C1276 H1280 0.930 . S
C1277 C1276 1.369 . S
C1277 C1286 1.429 . S
C1278 C1276 1.419 . S
C1278 C1279 1.363 . S
C1278 H1281 0.929 . S
C1279 C1278 1.363 . S
C1279 C1285 1.428 . S
H1280 C1276 0.930 . S
H1281 C1278 0.929 . S
S1282 N1283 1.613 . S
S1282 N1284 1.610 . S
N1283 S1282 1.613 . S
N1283 C1286 1.350 . S
N1284 S1282 1.610 . S
N1284 C1285 1.351 . S
C1285 C1279 1.428 . S
C1285 N1284 1.351 . S
C1285 C1286 1.434 . S
C1286 C1277 1.429 . S
C1286 N1283 1.350 . S
C1286 C1285 1.434 . S
C1287 C1288 1.369 . S
C1287 C1289 1.419 . S
C1287 H1291 0.930 . S
C1288 C1287 1.369 . S
C1288 C1297 1.429 . S
C1289 C1287 1.419 . S
C1289 C1290 1.363 . S
C1289 H1292 0.929 . S
C1290 C1289 1.363 . S
C1290 C1296 1.428 . S
H1291 C1287 0.930 . S
H1292 C1289 0.929 . S
S1293 N1294 1.613 . S
S1293 N1295 1.610 . S
N1294 S1293 1.613 . S
N1294 C1297 1.350 . S
N1295 S1293 1.610 . S
N1295 C1296 1.351 . S
C1296 C1290 1.428 . S
C1296 N1295 1.351 . S
C1296 C1297 1.434 . S
C1297 C1288 1.429 . S
C1297 N1294 1.350 . S
C1297 C1296 1.434 . S
C1298 C1299 1.369 . S
C1298 C1300 1.419 . S
C1298 H1302 0.930 . S
C1299 C1298 1.369 . S
C1299 C1308 1.429 . S
C1300 C1298 1.419 . S
C1300 C1301 1.363 . S
C1300 H1303 0.929 . S
C1301 C1300 1.363 . S
C1301 C1307 1.428 . S
H1302 C1298 0.930 . S
H1303 C1300 0.929 . S
S1304 N1305 1.613 . S
S1304 N1306 1.610 . S
N1305 S1304 1.613 . S
N1305 C1308 1.350 . S
N1306 S1304 1.610 . S
N1306 C1307 1.351 . S
C1307 C1301 1.428 . S
C1307 N1306 1.351 . S
C1307 C1308 1.434 . S
C1308 C1299 1.429 . S
C1308 N1305 1.350 . S
C1308 C1307 1.434 . S
C1309 C1310 1.369 . S
C1309 C1311 1.419 . S
C1309 H1313 0.930 . S
C1310 C1309 1.369 . S
C1310 C1319 1.429 . S
C1311 C1309 1.419 . S
C1311 C1312 1.363 . S
C1311 H1314 0.929 . S
C1312 C1311 1.363 . S
C1312 C1318 1.428 . S
H1313 C1309 0.930 . S
H1314 C1311 0.929 . S
S1315 N1316 1.613 . S
S1315 N1317 1.610 . S
N1316 S1315 1.613 . S
N1316 C1319 1.350 . S
N1317 S1315 1.610 . S
N1317 C1318 1.351 . S
C1318 C1312 1.428 . S
C1318 N1317 1.351 . S
C1318 C1319 1.434 . S
C1319 C1310 1.429 . S
C1319 N1316 1.350 . S
C1319 C1318 1.434 . S
C1320 C1321 1.369 . S
C1320 C1322 1.419 1_455 S
C1320 H1324 0.930 . S
C1321 C1320 1.369 . S
C1321 C1330 1.429 . S
C1322 C1320 1.419 1_655 S
C1322 C1323 1.363 . S
C1322 H1325 0.929 . S
C1323 C1322 1.363 . S
C1323 C1329 1.428 . S
H1324 C1320 0.930 . S
H1325 C1322 0.929 . S
S1326 N1327 1.613 1_655 S
S1326 N1328 1.610 . S
N1327 S1326 1.613 1_455 S
N1327 C1330 1.350 . S
N1328 S1326 1.610 . S
N1328 C1329 1.351 . S
C1329 C1323 1.428 . S
C1329 N1328 1.351 . S
C1329 C1330 1.434 1_655 S
C1330 C1321 1.429 . S
C1330 N1327 1.350 . S
C1330 C1329 1.434 1_455 S
C1331 C1332 1.369 . S
C1331 C1333 1.419 . S
C1331 H1335 0.930 . S
C1332 C1331 1.369 . S
C1332 C1341 1.429 . S
C1333 C1331 1.419 . S
C1333 C1334 1.363 . S
C1333 H1336 0.929 . S
C1334 C1333 1.363 . S
C1334 C1340 1.428 . S
H1335 C1331 0.930 . S
H1336 C1333 0.929 . S
S1337 N1338 1.613 . S
S1337 N1339 1.610 . S
N1338 S1337 1.613 . S
N1338 C1341 1.350 . S
N1339 S1337 1.610 . S
N1339 C1340 1.351 . S
C1340 C1334 1.428 . S
C1340 N1339 1.351 . S
C1340 C1341 1.434 . S
C1341 C1332 1.429 . S
C1341 N1338 1.350 . S
C1341 C1340 1.434 . S
C1342 C1343 1.369 . S
C1342 C1344 1.419 1_545 S
C1342 H1346 0.930 . S
C1343 C1342 1.369 . S
C1343 C1352 1.429 . S
C1344 C1342 1.419 1_565 S
C1344 C1345 1.363 . S
C1344 H1347 0.929 . S
C1345 C1344 1.363 . S
C1345 C1351 1.428 . S
H1346 C1342 0.930 . S
H1347 C1344 0.929 . S
S1348 N1349 1.613 1_565 S
S1348 N1350 1.610 . S
N1349 S1348 1.613 1_545 S
N1349 C1352 1.350 . S
N1350 S1348 1.610 . S
N1350 C1351 1.351 . S
C1351 C1345 1.428 . S
C1351 N1350 1.351 . S
C1351 C1352 1.434 1_565 S
C1352 C1343 1.429 . S
C1352 N1349 1.350 . S
C1352 C1351 1.434 1_545 S
C1353 C1354 1.369 1_556 S
C1353 C1355 1.419 1_565 S
C1353 H1357 0.930 . S
C1354 C1353 1.369 1_554 S
C1354 C1363 1.429 . S
C1355 C1353 1.419 1_545 S
C1355 C1356 1.363 . S
C1355 H1358 0.929 . S
C1356 C1355 1.363 . S
C1356 C1362 1.428 1_556 S
H1357 C1353 0.930 . S
H1358 C1355 0.929 . S
S1359 N1360 1.613 . S
S1359 N1361 1.610 1_565 S
N1360 S1359 1.613 . S
N1360 C1363 1.350 . S
N1361 S1359 1.610 1_545 S
N1361 C1362 1.351 . S
C1362 C1356 1.428 1_554 S
C1362 N1361 1.351 . S
C1362 C1363 1.434 1_545 S
C1363 C1354 1.429 . S
C1363 N1360 1.350 . S
C1363 C1362 1.434 1_565 S
C1364 C1365 1.369 1_455 S
C1364 C1366 1.419 . S
C1364 H1368 0.930 . S
C1365 C1364 1.369 1_655 S
C1365 C1374 1.429 1_556 S
C1366 C1364 1.419 . S
C1366 C1367 1.363 1_556 S
C1366 H1369 0.929 . S
C1367 C1366 1.363 1_554 S
C1367 C1373 1.428 1_455 S
H1368 C1364 0.930 . S
H1369 C1366 0.929 . S
S1370 N1371 1.613 . S
S1370 N1372 1.610 . S
N1371 S1370 1.613 . S
N1371 C1374 1.350 . S
N1372 S1370 1.610 . S
N1372 C1373 1.351 . S
C1373 C1367 1.428 1_655 S
C1373 N1372 1.351 . S
C1373 C1374 1.434 . S
C1374 C1365 1.429 1_554 S
C1374 N1371 1.350 . S
C1374 C1373 1.434 . S
C1375 C1376 1.369 . S
C1375 C1377 1.419 . S
C1375 H1379 0.930 . S
C1376 C1375 1.369 . S
C1376 C1385 1.429 1_556 S
C1377 C1375 1.419 . S
C1377 C1378 1.363 1_556 S
C1377 H1380 0.929 . S
C1378 C1377 1.363 1_554 S
C1378 C1384 1.428 . S
H1379 C1375 0.930 . S
H1380 C1377 0.929 . S
S1381 N1382 1.613 . S
S1381 N1383 1.610 . S
N1382 S1381 1.613 . S
N1382 C1385 1.350 . S
N1383 S1381 1.610 . S
N1383 C1384 1.351 . S
C1384 C1378 1.428 . S
C1384 N1383 1.351 . S
C1384 C1385 1.434 . S
C1385 C1376 1.429 1_554 S
C1385 N1382 1.350 . S
C1385 C1384 1.434 . S
C1386 C1387 1.369 . S
C1386 C1388 1.419 . S
C1386 H1390 0.930 . S
C1387 C1386 1.369 . S
C1387 C1396 1.429 . S
C1388 C1386 1.419 . S
C1388 C1389 1.363 . S
C1388 H1391 0.929 . S
C1389 C1388 1.363 . S
C1389 C1395 1.428 . S
H1390 C1386 0.930 . S
H1391 C1388 0.929 . S
S1392 N1393 1.613 . S
S1392 N1394 1.610 . S
N1393 S1392 1.613 . S
N1393 C1396 1.350 . S
N1394 S1392 1.610 . S
N1394 C1395 1.351 . S
C1395 C1389 1.428 . S
C1395 N1394 1.351 . S
C1395 C1396 1.434 . S
C1396 C1387 1.429 . S
C1396 N1393 1.350 . S
C1396 C1395 1.434 . S
C1397 C1398 1.369 . S
C1397 C1399 1.419 1_565 S
C1397 H1401 0.930 . S
C1398 C1397 1.369 . S
C1398 C1407 1.429 . S
C1399 C1397 1.419 1_545 S
C1399 C1400 1.363 . S
C1399 H1402 0.929 . S
C1400 C1399 1.363 . S
C1400 C1406 1.428 . S
H1401 C1397 0.930 . S
H1402 C1399 0.929 . S
S1403 N1404 1.613 . S
S1403 N1405 1.610 1_565 S
N1404 S1403 1.613 . S
N1404 C1407 1.350 . S
N1405 S1403 1.610 1_545 S
N1405 C1406 1.351 . S
C1406 C1400 1.428 . S
C1406 N1405 1.351 . S
C1406 C1407 1.434 1_545 S
C1407 C1398 1.429 . S
C1407 N1404 1.350 . S
C1407 C1406 1.434 1_565 S
C1408 C1409 1.369 . S
C1408 C1410 1.419 1_655 S
C1408 H1412 0.930 . S
C1409 C1408 1.369 . S
C1409 C1418 1.429 . S
C1410 C1408 1.419 1_455 S
C1410 C1411 1.363 . S
C1410 H1413 0.929 . S
C1411 C1410 1.363 . S
C1411 C1417 1.428 . S
H1412 C1408 0.930 . S
H1413 C1410 0.929 . S
S1414 N1415 1.588 1_455 S
S1414 N1416 1.619 . S
N1415 S1414 1.588 1_655 S
N1415 C1418 1.350 . S
N1416 S1414 1.619 . S
N1416 C1417 1.351 . S
C1417 C1411 1.428 . S
C1417 N1416 1.351 . S
C1417 C1418 1.434 1_455 S
C1418 C1409 1.429 . S
C1418 N1415 1.350 . S
C1418 C1417 1.434 1_655 S
C1419 C1420 1.369 . S
C1419 C1421 1.419 . S
C1419 H1423 0.930 . S
C1420 C1419 1.369 . S
C1420 C1429 1.429 . S
C1421 C1419 1.419 . S
C1421 C1422 1.363 . S
C1421 H1424 0.929 . S
C1422 C1421 1.363 . S
C1422 C1428 1.428 . S
H1423 C1419 0.930 . S
H1424 C1421 0.929 . S
S1425 N1426 1.613 . S
S1425 N1427 1.610 . S
N1426 S1425 1.613 . S
N1426 C1429 1.350 . S
N1427 S1425 1.610 . S
N1427 C1428 1.351 . S
C1428 C1422 1.428 . S
C1428 N1427 1.351 . S
C1428 C1429 1.434 . S
C1429 C1420 1.429 . S
C1429 N1426 1.350 . S
C1429 C1428 1.434 . S
C1430 C1431 1.369 . S
C1430 C1432 1.419 1_565 S
C1430 H1434 0.930 . S
C1431 C1430 1.369 . S
C1431 C1440 1.429 . S
C1432 C1430 1.419 1_545 S
C1432 C1433 1.363 . S
C1432 H1435 0.929 . S
C1433 C1432 1.363 . S
C1433 C1439 1.428 . S
H1434 C1430 0.930 . S
H1435 C1432 0.929 . S
S1436 N1437 1.613 . S
S1436 N1438 1.610 1_565 S
N1437 S1436 1.613 . S
N1437 C1440 1.350 . S
N1438 S1436 1.610 1_545 S
N1438 C1439 1.351 . S
C1439 C1433 1.428 . S
C1439 N1438 1.351 . S
C1439 C1440 1.434 1_545 S
C1440 C1431 1.429 . S
C1440 N1437 1.350 . S
C1440 C1439 1.434 1_565 S
C1441 C1442 1.369 . S
C1441 C1443 1.419 1_655 S
C1441 H1445 0.930 . S
C1442 C1441 1.369 . S
C1442 C1451 1.429 . S
C1443 C1441 1.419 1_455 S
C1443 C1444 1.363 . S
C1443 H1446 0.929 . S
C1444 C1443 1.363 . S
C1444 C1450 1.428 . S
H1445 C1441 0.930 . S
H1446 C1443 0.929 . S
S1447 N1448 1.613 1_455 S
S1447 N1449 1.610 . S
N1448 S1447 1.613 1_655 S
N1448 C1451 1.350 . S
N1449 S1447 1.610 . S
N1449 C1450 1.351 . S
C1450 C1444 1.428 . S
C1450 N1449 1.351 . S
C1450 C1451 1.434 1_455 S
C1451 C1442 1.429 . S
C1451 N1448 1.350 . S
C1451 C1450 1.434 1_655 S
C1452 C1453 1.369 . S
C1452 C1454 1.419 . S
C1452 H1456 0.930 . S
C1453 C1452 1.369 . S
C1453 C1462 1.429 . S
C1454 C1452 1.419 . S
C1454 C1455 1.363 . S
C1454 H1457 0.929 . S
C1455 C1454 1.363 . S
C1455 C1461 1.428 . S
H1456 C1452 0.930 . S
H1457 C1454 0.929 . S
S1458 N1459 1.613 . S
S1458 N1460 1.610 . S
N1459 S1458 1.613 . S
N1459 C1462 1.350 . S
N1460 S1458 1.610 . S
N1460 C1461 1.351 . S
C1461 C1455 1.428 . S
C1461 N1460 1.351 . S
C1461 C1462 1.434 . S
C1462 C1453 1.429 . S
C1462 N1459 1.350 . S
C1462 C1461 1.434 . S
C1463 C1464 1.369 . S
C1463 C1465 1.419 . S
C1463 H1467 0.930 . S
C1464 C1463 1.369 . S
C1464 C1473 1.429 . S
C1465 C1463 1.419 . S
C1465 C1466 1.363 . S
C1465 H1468 0.929 . S
C1466 C1465 1.363 . S
C1466 C1472 1.428 . S
H1467 C1463 0.930 . S
H1468 C1465 0.929 . S
S1469 N1470 1.613 . S
S1469 N1471 1.610 . S
N1470 S1469 1.613 . S
N1470 C1473 1.350 . S
N1471 S1469 1.610 . S
N1471 C1472 1.351 . S
C1472 C1466 1.428 . S
C1472 N1471 1.351 . S
C1472 C1473 1.434 . S
C1473 C1464 1.429 . S
C1473 N1470 1.350 . S
C1473 C1472 1.434 . S
C1474 C1475 1.369 . S
C1474 C1476 1.419 . S
C1474 H1478 0.930 . S
C1475 C1474 1.369 . S
C1475 C1484 1.429 . S
C1476 C1474 1.419 . S
C1476 C1477 1.363 . S
C1476 H1479 0.929 . S
C1477 C1476 1.363 . S
C1477 C1483 1.428 . S
H1478 C1474 0.930 . S
H1479 C1476 0.929 . S
S1480 N1481 1.613 . S
S1480 N1482 1.610 . S
N1481 S1480 1.613 . S
N1481 C1484 1.350 . S
N1482 S1480 1.610 . S
N1482 C1483 1.351 . S
C1483 C1477 1.428 . S
C1483 N1482 1.351 . S
C1483 C1484 1.434 . S
C1484 C1475 1.429 . S
C1484 N1481 1.350 . S
C1484 C1483 1.434 . S
C1485 C1486 1.369 . S
C1485 C1487 1.419 . S
C1485 H1489 0.930 . S
C1486 C1485 1.369 . S
C1486 C1495 1.429 . S
C1487 C1485 1.419 . S
C1487 C1488 1.363 . S
C1487 H1490 0.929 . S
C1488 C1487 1.363 . S
C1488 C1494 1.428 . S
H1489 C1485 0.930 . S
H1490 C1487 0.929 . S
S1491 N1492 1.613 . S
S1491 N1493 1.610 . S
N1492 S1491 1.613 . S
N1492 C1495 1.350 . S
N1493 S1491 1.610 . S
N1493 C1494 1.351 . S
C1494 C1488 1.428 . S
C1494 N1493 1.351 . S
C1494 C1495 1.434 . S
C1495 C1486 1.429 . S
C1495 N1492 1.350 . S
C1495 C1494 1.434 . S
C1496 C1497 1.369 . S
C1496 C1498 1.419 . S
C1496 H1500 0.930 . S
C1497 C1496 1.369 . S
C1497 C1506 1.429 . S
C1498 C1496 1.419 . S
C1498 C1499 1.363 . S
C1498 H1501 0.929 . S
C1499 C1498 1.363 . S
C1499 C1505 1.428 . S
H1500 C1496 0.930 . S
H1501 C1498 0.929 . S
S1502 N1503 1.613 1_556 S
S1502 N1504 1.610 . S
N1503 S1502 1.613 1_554 S
N1503 C1506 1.350 . S
N1504 S1502 1.610 . S
N1504 C1505 1.351 1_556 S
C1505 C1499 1.428 . S
C1505 N1504 1.351 1_554 S
C1505 C1506 1.434 . S
C1506 C1497 1.429 . S
C1506 N1503 1.350 . S
C1506 C1505 1.434 . S
C1507 C1508 1.369 . S
C1507 C1509 1.419 . S
C1507 H1511 0.930 . S
C1508 C1507 1.369 . S
C1508 C1517 1.429 . S
C1509 C1507 1.419 . S
C1509 C1510 1.363 . S
C1509 H1512 0.929 . S
C1510 C1509 1.363 . S
C1510 C1516 1.428 . S
H1511 C1507 0.930 . S
H1512 C1509 0.929 . S
S1513 N1514 1.613 . S
S1513 N1515 1.610 1_556 S
N1514 S1513 1.613 . S
N1514 C1517 1.350 1_556 S
N1515 S1513 1.610 1_554 S
N1515 C1516 1.351 . S
C1516 C1510 1.428 . S
C1516 N1515 1.351 . S
C1516 C1517 1.434 . S
C1517 C1508 1.429 . S
C1517 N1514 1.350 1_554 S
C1517 C1516 1.434 . S
C1518 C1519 1.369 . S
C1518 C1520 1.419 . S
C1518 H1522 0.930 . S
C1519 C1518 1.369 . S
C1519 C1528 1.429 . S
C1520 C1518 1.419 . S
C1520 C1521 1.363 . S
C1520 H1523 0.929 . S
C1521 C1520 1.363 . S
C1521 C1527 1.428 . S
H1522 C1518 0.930 . S
H1523 C1520 0.929 . S
S1524 N1525 1.613 . S
S1524 N1526 1.610 . S
N1525 S1524 1.613 . S
N1525 C1528 1.350 . S
N1526 S1524 1.610 . S
N1526 C1527 1.351 . S
C1527 C1521 1.428 . S
C1527 N1526 1.351 . S
C1527 C1528 1.434 . S
C1528 C1519 1.429 . S
C1528 N1525 1.350 . S
C1528 C1527 1.434 . S
C1529 C1530 1.369 . S
C1529 C1531 1.419 . S
C1529 H1533 0.930 . S
C1530 C1529 1.369 . S
C1530 C1539 1.429 . S
C1531 C1529 1.419 . S
C1531 C1532 1.363 . S
C1531 H1534 0.929 . S
C1532 C1531 1.363 . S
C1532 C1538 1.428 . S
H1533 C1529 0.930 . S
H1534 C1531 0.929 . S
S1535 N1536 1.613 . S
S1535 N1537 1.610 . S
N1536 S1535 1.613 . S
N1536 C1539 1.350 . S
N1537 S1535 1.610 . S
N1537 C1538 1.351 . S
C1538 C1532 1.428 . S
C1538 N1537 1.351 . S
C1538 C1539 1.434 . S
C1539 C1530 1.429 . S
C1539 N1536 1.350 . S
C1539 C1538 1.434 . S
C1540 C1541 1.369 . S
C1540 C1542 1.419 . S
C1540 H1544 0.930 1_556 S
C1541 C1540 1.369 . S
C1541 C1550 1.429 . S
C1542 C1540 1.419 . S
C1542 C1543 1.363 . S
C1542 H1545 0.929 . S
C1543 C1542 1.363 . S
C1543 C1549 1.428 . S
H1544 C1540 0.930 1_554 S
H1545 C1542 0.929 . S
S1546 N1547 1.613 . S
S1546 N1548 1.610 . S
N1547 S1546 1.613 . S
N1547 C1550 1.350 . S
N1548 S1546 1.610 . S
N1548 C1549 1.351 . S
C1549 C1543 1.428 . S
C1549 N1548 1.351 . S
C1549 C1550 1.434 . S
C1550 C1541 1.429 . S
C1550 N1547 1.350 . S
C1550 C1549 1.434 . S
C1551 C1552 1.369 . S
C1551 C1553 1.419 . S
C1551 H1555 0.930 . S
C1552 C1551 1.369 . S
C1552 C1561 1.429 . S
C1553 C1551 1.419 . S
C1553 C1554 1.363 . S
C1553 H1556 0.929 . S
C1554 C1553 1.363 . S
C1554 C1560 1.428 . S
H1555 C1551 0.930 . S
H1556 C1553 0.929 . S
S1557 N1558 1.613 . S
S1557 N1559 1.610 . S
N1558 S1557 1.613 . S
N1558 C1561 1.350 . S
N1559 S1557 1.610 . S
N1559 C1560 1.351 . S
C1560 C1554 1.428 . S
C1560 N1559 1.351 . S
C1560 C1561 1.434 . S
C1561 C1552 1.429 . S
C1561 N1558 1.350 . S
C1561 C1560 1.434 . S
C1562 C1563 1.369 . S
C1562 C1564 1.419 . S
C1562 H1566 0.930 . S
C1563 C1562 1.369 . S
C1563 C1572 1.429 . S
C1564 C1562 1.419 . S
C1564 C1565 1.363 . S
C1564 H1567 0.929 . S
C1565 C1564 1.363 . S
C1565 C1571 1.428 . S
H1566 C1562 0.930 . S
H1567 C1564 0.929 . S
S1568 N1569 1.613 . S
S1568 N1570 1.610 . S
N1569 S1568 1.613 . S
N1569 C1572 1.350 . S
N1570 S1568 1.610 . S
N1570 C1571 1.351 . S
C1571 C1565 1.428 . S
C1571 N1570 1.351 . S
C1571 C1572 1.434 . S
C1572 C1563 1.429 . S
C1572 N1569 1.350 . S
C1572 C1571 1.434 . S
C1573 C1574 1.369 . S
C1573 C1575 1.419 . S
C1573 H1577 0.930 . S
C1574 C1573 1.369 . S
C1574 C1583 1.429 . S
C1575 C1573 1.419 . S
C1575 C1576 1.363 . S
C1575 H1578 0.929 . S
C1576 C1575 1.363 . S
C1576 C1582 1.428 . S
H1577 C1573 0.930 . S
H1578 C1575 0.929 . S
S1579 N1580 1.613 . S
S1579 N1581 1.610 . S
N1580 S1579 1.613 . S
N1580 C1583 1.350 . S
N1581 S1579 1.610 . S
N1581 C1582 1.351 . S
C1582 C1576 1.428 . S
C1582 N1581 1.351 . S
C1582 C1583 1.434 . S
C1583 C1574 1.429 . S
C1583 N1580 1.350 . S
C1583 C1582 1.434 . S
C1584 C1585 1.369 . S
C1584 C1586 1.419 1_556 S
C1584 H1588 0.930 . S
C1585 C1584 1.369 . S
C1585 C1594 1.429 . S
C1586 C1584 1.419 1_554 S
C1586 C1587 1.363 . S
C1586 H1589 0.929 . S
C1587 C1586 1.363 . S
C1587 C1593 1.428 1_554 S
H1588 C1584 0.930 . S
H1589 C1586 0.929 . S
S1590 N1591 1.613 . S
S1590 N1592 1.610 1_556 S
N1591 S1590 1.613 . S
N1591 C1594 1.350 . S
N1592 S1590 1.610 1_554 S
N1592 C1593 1.351 1_554 S
C1593 C1587 1.428 1_556 S
C1593 N1592 1.351 1_556 S
C1593 C1594 1.434 . S
C1594 C1585 1.429 . S
C1594 N1591 1.350 . S
C1594 C1593 1.434 . S
C1595 C1596 1.369 . S
C1595 C1597 1.419 1_556 S
C1595 H1599 0.930 . S
C1596 C1595 1.369 . S
C1596 C1605 1.429 . S
C1597 C1595 1.419 1_554 S
C1597 C1598 1.363 . S
C1597 H1600 0.929 . S
C1598 C1597 1.363 . S
C1598 C1604 1.428 1_554 S
H1599 C1595 0.930 . S
H1600 C1597 0.929 . S
S1601 N1602 1.613 . S
S1601 N1603 1.610 1_556 S
N1602 S1601 1.613 . S
N1602 C1605 1.350 . S
N1603 S1601 1.610 1_554 S
N1603 C1604 1.351 1_554 S
C1604 C1598 1.428 1_556 S
C1604 N1603 1.351 1_556 S
C1604 C1605 1.434 . S
C1605 C1596 1.429 . S
C1605 N1602 1.350 . S
C1605 C1604 1.434 . S
C1606 C1607 1.369 . S
C1606 C1608 1.419 1_556 S
C1606 H1610 0.930 . S
C1607 C1606 1.369 . S
C1607 C1616 1.429 . S
C1608 C1606 1.419 1_554 S
C1608 C1609 1.363 . S
C1608 H1611 0.929 . S
C1609 C1608 1.363 . S
C1609 C1615 1.428 1_554 S
H1610 C1606 0.930 . S
H1611 C1608 0.929 . S
S1612 N1613 1.613 . S
S1612 N1614 1.610 1_556 S
N1613 S1612 1.613 . S
N1613 C1616 1.350 . S
N1614 S1612 1.610 1_554 S
N1614 C1615 1.351 1_554 S
C1615 C1609 1.428 1_556 S
C1615 N1614 1.351 1_556 S
C1615 C1616 1.434 . S
C1616 C1607 1.429 . S
C1616 N1613 1.350 . S
C1616 C1615 1.434 . S
C1617 C1618 1.369 . S
C1617 C1619 1.419 . S
C1617 H1621 0.930 . S
C1618 C1617 1.369 . S
C1618 C1627 1.429 . S
C1619 C1617 1.419 . S
C1619 C1620 1.363 . S
C1619 H1622 0.929 . S
C1620 C1619 1.363 . S
C1620 C1626 1.428 . S
H1621 C1617 0.930 . S
H1622 C1619 0.929 . S
S1623 N1624 1.613 . S
S1623 N1625 1.610 . S
N1624 S1623 1.613 . S
N1624 C1627 1.350 . S
N1625 S1623 1.610 . S
N1625 C1626 1.351 . S
C1626 C1620 1.428 . S
C1626 N1625 1.351 . S
C1626 C1627 1.434 . S
C1627 C1618 1.429 . S
C1627 N1624 1.350 . S
C1627 C1626 1.434 . S
C1628 C1629 1.369 . S
C1628 C1630 1.419 . S
C1628 H1632 0.930 . S
C1629 C1628 1.369 . S
C1629 C1638 1.429 . S
C1630 C1628 1.419 . S
C1630 C1631 1.363 . S
C1630 H1633 0.929 . S
C1631 C1630 1.363 . S
C1631 C1637 1.428 . S
H1632 C1628 0.930 . S
H1633 C1630 0.929 . S
S1634 N1635 1.613 . S
S1634 N1636 1.610 . S
N1635 S1634 1.613 . S
N1635 C1638 1.350 . S
N1636 S1634 1.610 . S
N1636 C1637 1.351 . S
C1637 C1631 1.428 . S
C1637 N1636 1.351 . S
C1637 C1638 1.434 . S
C1638 C1629 1.429 . S
C1638 N1635 1.350 . S
C1638 C1637 1.434 . S
C1639 C1640 1.369 . S
C1639 C1641 1.419 . S
C1639 H1643 0.930 . S
C1640 C1639 1.369 . S
C1640 C1649 1.429 . S
C1641 C1639 1.419 . S
C1641 C1642 1.363 . S
C1641 H1644 0.929 . S
C1642 C1641 1.363 . S
C1642 C1648 1.428 . S
H1643 C1639 0.930 . S
H1644 C1641 0.929 . S
S1645 N1646 1.613 . S
S1645 N1647 1.610 . S
N1646 S1645 1.613 . S
N1646 C1649 1.350 . S
N1647 S1645 1.610 . S
N1647 C1648 1.351 . S
C1648 C1642 1.428 . S
C1648 N1647 1.351 . S
C1648 C1649 1.434 . S
C1649 C1640 1.429 . S
C1649 N1646 1.350 . S
C1649 C1648 1.434 . S
C1650 C1651 1.369 . S
C1650 C1652 1.419 . S
C1650 H1654 0.930 . S
C1651 C1650 1.369 . S
C1651 C1660 1.429 . S
C1652 C1650 1.419 . S
C1652 C1653 1.363 1_554 S
C1652 H1655 0.929 1_554 S
C1653 C1652 1.363 1_556 S
C1653 C1659 1.428 . S
H1654 C1650 0.930 . S
H1655 C1652 0.929 1_556 S
S1656 N1657 1.613 . S
S1656 N1658 1.610 1_554 S
N1657 S1656 1.613 . S
N1657 C1660 1.350 . S
N1658 S1656 1.610 1_556 S
N1658 C1659 1.351 . S
C1659 C1653 1.428 . S
C1659 N1658 1.351 . S
C1659 C1660 1.434 1_556 S
C1660 C1651 1.429 . S
C1660 N1657 1.350 . S
C1660 C1659 1.434 1_554 S
C1661 C1662 1.375 . S
C1661 C1663 1.408 1_556 S
C1661 H1665 0.935 . S
C1662 C1661 1.375 . S
C1662 C1671 1.429 . S
C1663 C1661 1.408 1_554 S
C1663 C1664 1.363 . S
C1663 H1666 0.929 . S
C1664 C1663 1.363 . S
C1664 C1670 1.428 . S
H1665 C1661 0.935 . S
H1666 C1663 0.929 . S
S1667 N1668 1.613 1_554 S
S1667 N1669 1.610 . S
N1668 S1667 1.613 1_556 S
N1668 C1671 1.350 . S
N1669 S1667 1.610 . S
N1669 C1670 1.351 . S
C1670 C1664 1.428 . S
C1670 N1669 1.351 . S
C1670 C1671 1.434 1_554 S
C1671 C1662 1.429 . S
C1671 N1668 1.350 . S
C1671 C1670 1.434 1_556 S
C1672 C1673 1.369 . S
C1672 C1674 1.419 1_556 S
C1672 H1676 0.930 . S
C1673 C1672 1.369 . S
C1673 C1682 1.429 1_556 S
C1674 C1672 1.419 1_554 S
C1674 C1675 1.363 . S
C1674 H1677 0.929 . S
C1675 C1674 1.363 . S
C1675 C1681 1.428 . S
H1676 C1672 0.930 . S
H1677 C1674 0.929 . S
S1678 N1679 1.613 1_554 S
S1678 N1680 1.610 . S
N1679 S1678 1.613 1_556 S
N1679 C1682 1.350 1_556 S
N1680 S1678 1.610 . S
N1680 C1681 1.351 . S
C1681 C1675 1.428 . S
C1681 N1680 1.351 . S
C1681 C1682 1.434 . S
C1682 C1673 1.429 1_554 S
C1682 N1679 1.350 1_554 S
C1682 C1681 1.434 . S
C1683 C1684 1.369 . S
C1683 C1685 1.419 . S
C1683 H1687 0.930 . S
C1684 C1683 1.369 . S
C1684 C1693 1.429 . S
C1685 C1683 1.419 . S
C1685 C1686 1.363 . S
C1685 H1688 0.929 . S
C1686 C1685 1.363 . S
C1686 C1692 1.428 . S
H1687 C1683 0.930 . S
H1688 C1685 0.929 . S
S1689 N1690 1.613 . S
S1689 N1691 1.610 . S
N1690 S1689 1.613 . S
N1690 C1693 1.350 . S
N1691 S1689 1.610 . S
N1691 C1692 1.351 . S
C1692 C1686 1.428 . S
C1692 N1691 1.351 . S
C1692 C1693 1.434 . S
C1693 C1684 1.429 . S
C1693 N1690 1.350 . S
C1693 C1692 1.434 . S
C1694 C1695 1.369 . S
C1694 C1696 1.419 . S
C1694 H1698 0.930 . S
C1695 C1694 1.369 . S
C1695 C1704 1.429 . S
C1696 C1694 1.419 . S
C1696 C1697 1.363 . S
C1696 H1699 0.929 . S
C1697 C1696 1.363 . S
C1697 C1703 1.428 . S
H1698 C1694 0.930 . S
H1699 C1696 0.929 . S
S1700 N1701 1.613 . S
S1700 N1702 1.610 . S
N1701 S1700 1.613 . S
N1701 C1704 1.350 . S
N1702 S1700 1.610 . S
N1702 C1703 1.351 . S
C1703 C1697 1.428 . S
C1703 N1702 1.351 . S
C1703 C1704 1.434 . S
C1704 C1695 1.429 . S
C1704 N1701 1.350 . S
C1704 C1703 1.434 . S
C1705 C1706 1.369 . S
C1705 C1707 1.419 . S
C1705 H1709 0.930 . S
C1706 C1705 1.369 . S
C1706 C1715 1.429 . S
C1707 C1705 1.419 . S
C1707 C1708 1.363 . S
C1707 H1710 0.929 . S
C1708 C1707 1.363 . S
C1708 C1714 1.428 . S
H1709 C1705 0.930 . S
H1710 C1707 0.929 . S
S1711 N1712 1.613 . S
S1711 N1713 1.610 . S
N1712 S1711 1.613 . S
N1712 C1715 1.350 . S
N1713 S1711 1.610 . S
N1713 C1714 1.351 . S
C1714 C1708 1.428 . S
C1714 N1713 1.351 . S
C1714 C1715 1.434 . S
C1715 C1706 1.429 . S
C1715 N1712 1.350 . S
C1715 C1714 1.434 . S
C1716 C1717 1.369 . S
C1716 C1718 1.419 . S
C1716 H1720 0.930 . S
C1717 C1716 1.369 . S
C1717 C1726 1.429 . S
C1718 C1716 1.419 . S
C1718 C1719 1.363 . S
C1718 H1721 0.929 . S
C1719 C1718 1.363 . S
C1719 C1725 1.428 . S
H1720 C1716 0.930 . S
H1721 C1718 0.929 . S
S1722 N1723 1.613 . S
S1722 N1724 1.610 . S
N1723 S1722 1.613 . S
N1723 C1726 1.350 . S
N1724 S1722 1.610 . S
N1724 C1725 1.351 . S
C1725 C1719 1.428 . S
C1725 N1724 1.351 . S
C1725 C1726 1.434 . S
C1726 C1717 1.429 . S
C1726 N1723 1.350 . S
C1726 C1725 1.434 . S
C1727 C1728 1.369 . S
C1727 C1729 1.419 . S
C1727 H1731 0.930 . S
C1728 C1727 1.369 . S
C1728 C1737 1.429 . S
C1729 C1727 1.419 . S
C1729 C1730 1.363 . S
C1729 H1732 0.929 . S
C1730 C1729 1.363 . S
C1730 C1736 1.428 . S
H1731 C1727 0.930 . S
H1732 C1729 0.929 . S
S1733 N1734 1.613 . S
S1733 N1735 1.610 . S
N1734 S1733 1.613 . S
N1734 C1737 1.350 . S
N1735 S1733 1.610 . S
N1735 C1736 1.351 . S
C1736 C1730 1.428 . S
C1736 N1735 1.351 . S
C1736 C1737 1.434 . S
C1737 C1728 1.429 . S
C1737 N1734 1.350 . S
C1737 C1736 1.434 . S
C1738 C1739 1.369 . S
C1738 C1740 1.419 . S
C1738 H1742 0.930 . S
C1739 C1738 1.369 . S
C1739 C1748 1.429 . S
C1740 C1738 1.419 . S
C1740 C1741 1.363 . S
C1740 H1743 0.929 . S
C1741 C1740 1.363 . S
C1741 C1747 1.428 . S
H1742 C1738 0.930 . S
H1743 C1740 0.929 . S
S1744 N1745 1.613 . S
S1744 N1746 1.610 . S
N1745 S1744 1.613 . S
N1745 C1748 1.350 . S
N1746 S1744 1.610 . S
N1746 C1747 1.351 . S
C1747 C1741 1.428 . S
C1747 N1746 1.351 . S
C1747 C1748 1.434 . S
C1748 C1739 1.429 . S
C1748 N1745 1.350 . S
C1748 C1747 1.434 . S
C1749 C1750 1.369 . S
C1749 C1751 1.419 . S
C1749 H1753 0.930 . S
C1750 C1749 1.369 . S
C1750 C1759 1.429 . S
C1751 C1749 1.419 . S
C1751 C1752 1.363 . S
C1751 H1754 0.929 . S
C1752 C1751 1.363 . S
C1752 C1758 1.428 . S
H1753 C1749 0.930 . S
H1754 C1751 0.929 . S
S1755 N1756 1.613 . S
S1755 N1757 1.610 . S
N1756 S1755 1.613 . S
N1756 C1759 1.350 . S
N1757 S1755 1.610 . S
N1757 C1758 1.351 . S
C1758 C1752 1.428 . S
C1758 N1757 1.351 . S
C1758 C1759 1.434 . S
C1759 C1750 1.429 . S
C1759 N1756 1.350 . S
C1759 C1758 1.434 . S
C1760 C1761 1.369 . S
C1760 C1762 1.419 . S
C1760 H1764 0.930 . S
C1761 C1760 1.369 . S
C1761 C1770 1.429 . S
C1762 C1760 1.419 . S
C1762 C1763 1.363 . S
C1762 H1765 0.929 . S
C1763 C1762 1.363 . S
C1763 C1769 1.428 . S
H1764 C1760 0.930 . S
H1765 C1762 0.929 . S
S1766 N1767 1.613 . S
S1766 N1768 1.610 . S
N1767 S1766 1.613 . S
N1767 C1770 1.350 . S
N1768 S1766 1.610 . S
N1768 C1769 1.351 . S
C1769 C1763 1.428 . S
C1769 N1768 1.351 . S
C1769 C1770 1.434 . S
C1770 C1761 1.429 . S
C1770 N1767 1.350 . S
C1770 C1769 1.434 . S
C1771 C1772 1.369 . S
C1771 C1773 1.419 . S
C1771 H1775 0.930 . S
C1772 C1771 1.369 . S
C1772 C1781 1.429 . S
C1773 C1771 1.419 . S
C1773 C1774 1.363 . S
C1773 H1776 0.929 . S
C1774 C1773 1.363 . S
C1774 C1780 1.428 . S
H1775 C1771 0.930 . S
H1776 C1773 0.929 . S
S1777 N1778 1.613 . S
S1777 N1779 1.610 . S
N1778 S1777 1.613 . S
N1778 C1781 1.350 . S
N1779 S1777 1.610 . S
N1779 C1780 1.351 . S
C1780 C1774 1.428 . S
C1780 N1779 1.351 . S
C1780 C1781 1.434 . S
C1781 C1772 1.429 . S
C1781 N1778 1.350 . S
C1781 C1780 1.434 . S
C1782 C1783 1.369 . S
C1782 C1784 1.419 . S
C1782 H1786 0.930 . S
C1783 C1782 1.369 . S
C1783 C1792 1.429 . S
C1784 C1782 1.419 . S
C1784 C1785 1.363 . S
C1784 H1787 0.929 . S
C1785 C1784 1.363 . S
C1785 C1791 1.428 . S
H1786 C1782 0.930 . S
H1787 C1784 0.929 . S
S1788 N1789 1.613 . S
S1788 N1790 1.610 . S
N1789 S1788 1.613 . S
N1789 C1792 1.350 . S
N1790 S1788 1.610 . S
N1790 C1791 1.351 . S
C1791 C1785 1.428 . S
C1791 N1790 1.351 . S
C1791 C1792 1.434 . S
C1792 C1783 1.429 . S
C1792 N1789 1.350 . S
C1792 C1791 1.434 . S
C1793 C1794 1.369 . S
C1793 C1795 1.419 . S
C1793 H1797 0.930 . S
C1794 C1793 1.369 . S
C1794 C1803 1.429 . S
C1795 C1793 1.419 . S
C1795 C1796 1.363 . S
C1795 H1798 0.929 . S
C1796 C1795 1.363 . S
C1796 C1802 1.428 . S
H1797 C1793 0.930 . S
H1798 C1795 0.929 . S
S1799 N1800 1.613 . S
S1799 N1801 1.610 . S
N1800 S1799 1.613 . S
N1800 C1803 1.350 . S
N1801 S1799 1.610 . S
N1801 C1802 1.351 . S
C1802 C1796 1.428 . S
C1802 N1801 1.351 . S
C1802 C1803 1.434 . S
C1803 C1794 1.429 . S
C1803 N1800 1.350 . S
C1803 C1802 1.434 . S
C1804 C1805 1.369 . S
C1804 C1806 1.419 . S
C1804 H1808 0.930 . S
C1805 C1804 1.369 . S
C1805 C1814 1.429 . S
C1806 C1804 1.419 . S
C1806 C1807 1.363 . S
C1806 H1809 0.929 . S
C1807 C1806 1.363 . S
C1807 C1813 1.428 . S
H1808 C1804 0.930 . S
H1809 C1806 0.929 . S
S1810 N1811 1.613 . S
S1810 N1812 1.610 . S
N1811 S1810 1.613 . S
N1811 C1814 1.350 . S
N1812 S1810 1.610 . S
N1812 C1813 1.351 . S
C1813 C1807 1.428 . S
C1813 N1812 1.351 . S
C1813 C1814 1.434 . S
C1814 C1805 1.429 . S
C1814 N1811 1.350 . S
C1814 C1813 1.434 . S
C1815 C1816 1.369 . S
C1815 C1817 1.419 . S
C1815 H1819 0.930 . S
C1816 C1815 1.369 . S
C1816 C1825 1.429 . S
C1817 C1815 1.419 . S
C1817 C1818 1.363 . S
C1817 H1820 0.929 . S
C1818 C1817 1.363 . S
C1818 C1824 1.428 . S
H1819 C1815 0.930 . S
H1820 C1817 0.929 . S
S1821 N1822 1.613 . S
S1821 N1823 1.610 . S
N1822 S1821 1.613 . S
N1822 C1825 1.350 . S
N1823 S1821 1.610 . S
N1823 C1824 1.351 . S
C1824 C1818 1.428 . S
C1824 N1823 1.351 . S
C1824 C1825 1.434 . S
C1825 C1816 1.429 . S
C1825 N1822 1.350 . S
C1825 C1824 1.434 . S
C1826 C1827 1.369 . S
C1826 C1828 1.419 . S
C1826 H1830 0.930 . S
C1827 C1826 1.369 . S
C1827 C1836 1.429 . S
C1828 C1826 1.419 . S
C1828 C1829 1.363 . S
C1828 H1831 0.929 . S
C1829 C1828 1.363 . S
C1829 C1835 1.428 . S
H1830 C1826 0.930 . S
H1831 C1828 0.929 . S
S1832 N1833 1.613 . S
S1832 N1834 1.610 . S
N1833 S1832 1.613 . S
N1833 C1836 1.350 . S
N1834 S1832 1.610 . S
N1834 C1835 1.351 . S
C1835 C1829 1.428 . S
C1835 N1834 1.351 . S
C1835 C1836 1.434 . S
C1836 C1827 1.429 . S
C1836 N1833 1.350 . S
C1836 C1835 1.434 . S
C1837 C1838 1.369 . S
C1837 C1839 1.419 . S
C1837 H1841 0.930 . S
C1838 C1837 1.369 . S
C1838 C1847 1.429 . S
C1839 C1837 1.419 . S
C1839 C1840 1.363 . S
C1839 H1842 0.929 . S
C1840 C1839 1.363 . S
C1840 C1846 1.428 . S
H1841 C1837 0.930 . S
H1842 C1839 0.929 . S
S1843 N1844 1.613 . S
S1843 N1845 1.610 . S
N1844 S1843 1.613 . S
N1844 C1847 1.350 . S
N1845 S1843 1.610 . S
N1845 C1846 1.351 . S
C1846 C1840 1.428 . S
C1846 N1845 1.351 . S
C1846 C1847 1.434 . S
C1847 C1838 1.429 . S
C1847 N1844 1.350 . S
C1847 C1846 1.434 . S
C1848 C1849 1.369 . S
C1848 C1850 1.419 . S
C1848 H1852 0.930 . S
C1849 C1848 1.369 . S
C1849 C1858 1.429 . S
C1850 C1848 1.419 . S
C1850 C1851 1.363 . S
C1850 H1853 0.929 . S
C1851 C1850 1.363 . S
C1851 C1857 1.428 . S
H1852 C1848 0.930 . S
H1853 C1850 0.929 . S
S1854 N1855 1.613 . S
S1854 N1856 1.610 . S
N1855 S1854 1.613 . S
N1855 C1858 1.350 . S
N1856 S1854 1.610 . S
N1856 C1857 1.351 . S
C1857 C1851 1.428 . S
C1857 N1856 1.351 . S
C1857 C1858 1.434 . S
C1858 C1849 1.429 . S
C1858 N1855 1.350 . S
C1858 C1857 1.434 . S
C1859 C1860 1.369 . S
C1859 C1861 1.419 . S
C1859 H1863 0.930 . S
C1860 C1859 1.369 . S
C1860 C1869 1.429 . S
C1861 C1859 1.419 . S
C1861 C1862 1.363 . S
C1861 H1864 0.929 . S
C1862 C1861 1.363 . S
C1862 C1868 1.428 . S
H1863 C1859 0.930 . S
H1864 C1861 0.929 . S
S1865 N1866 1.613 . S
S1865 N1867 1.610 . S
N1866 S1865 1.613 . S
N1866 C1869 1.350 . S
N1867 S1865 1.610 . S
N1867 C1868 1.351 . S
C1868 C1862 1.428 . S
C1868 N1867 1.351 . S
C1868 C1869 1.434 . S
C1869 C1860 1.429 . S
C1869 N1866 1.350 . S
C1869 C1868 1.434 . S
C1870 C1871 1.369 . S
C1870 C1872 1.419 . S
C1870 H1874 0.930 . S
C1871 C1870 1.369 . S
C1871 C1880 1.429 . S
C1872 C1870 1.419 . S
C1872 C1873 1.363 . S
C1872 H1875 0.929 . S
C1873 C1872 1.363 . S
C1873 C1879 1.428 . S
H1874 C1870 0.930 . S
H1875 C1872 0.929 . S
S1876 N1877 1.613 . S
S1876 N1878 1.610 . S
N1877 S1876 1.613 . S
N1877 C1880 1.350 . S
N1878 S1876 1.610 . S
N1878 C1879 1.351 . S
C1879 C1873 1.428 . S
C1879 N1878 1.351 . S
C1879 C1880 1.434 . S
C1880 C1871 1.429 . S
C1880 N1877 1.350 . S
C1880 C1879 1.434 . S
C1881 C1882 1.369 . S
C1881 C1883 1.419 . S
C1881 H1885 0.930 . S
C1882 C1881 1.369 . S
C1882 C1891 1.429 . S
C1883 C1881 1.419 . S
C1883 C1884 1.363 . S
C1883 H1886 0.929 . S
C1884 C1883 1.363 . S
C1884 C1890 1.428 . S
H1885 C1881 0.930 . S
H1886 C1883 0.929 . S
S1887 N1888 1.613 . S
S1887 N1889 1.610 . S
N1888 S1887 1.613 . S
N1888 C1891 1.350 . S
N1889 S1887 1.610 . S
N1889 C1890 1.351 . S
C1890 C1884 1.428 . S
C1890 N1889 1.351 . S
C1890 C1891 1.434 . S
C1891 C1882 1.429 . S
C1891 N1888 1.350 . S
C1891 C1890 1.434 . S
C1892 C1893 1.369 . S
C1892 C1894 1.419 . S
C1892 H1896 0.930 . S
C1893 C1892 1.369 . S
C1893 C1902 1.429 . S
C1894 C1892 1.419 . S
C1894 C1895 1.363 . S
C1894 H1897 0.929 . S
C1895 C1894 1.363 . S
C1895 C1901 1.428 . S
H1896 C1892 0.930 . S
H1897 C1894 0.929 . S
S1898 N1899 1.613 . S
S1898 N1900 1.610 . S
N1899 S1898 1.613 . S
N1899 C1902 1.350 . S
N1900 S1898 1.610 . S
N1900 C1901 1.351 . S
C1901 C1895 1.428 . S
C1901 N1900 1.351 . S
C1901 C1902 1.434 . S
C1902 C1893 1.429 . S
C1902 N1899 1.350 . S
C1902 C1901 1.434 . S
C1903 C1904 1.369 . S
C1903 C1905 1.419 . S
C1903 H1907 0.930 . S
C1904 C1903 1.369 . S
C1904 C1913 1.429 . S
C1905 C1903 1.419 . S
C1905 C1906 1.363 . S
C1905 H1908 0.929 . S
C1906 C1905 1.363 . S
C1906 C1912 1.428 . S
H1907 C1903 0.930 . S
H1908 C1905 0.929 . S
S1909 N1910 1.613 . S
S1909 N1911 1.610 . S
N1910 S1909 1.613 . S
N1910 C1913 1.350 . S
N1911 S1909 1.610 . S
N1911 C1912 1.351 . S
C1912 C1906 1.428 . S
C1912 N1911 1.351 . S
C1912 C1913 1.434 . S
C1913 C1904 1.429 . S
C1913 N1910 1.350 . S
C1913 C1912 1.434 . S
C1914 C1915 1.369 . S
C1914 C1916 1.419 . S
C1914 H1918 0.930 . S
C1915 C1914 1.369 . S
C1915 C1924 1.429 . S
C1916 C1914 1.419 . S
C1916 C1917 1.363 . S
C1916 H1919 0.929 . S
C1917 C1916 1.363 . S
C1917 C1923 1.428 . S
H1918 C1914 0.930 . S
H1919 C1916 0.929 . S
S1920 N1921 1.613 . S
S1920 N1922 1.610 . S
N1921 S1920 1.613 . S
N1921 C1924 1.350 . S
N1922 S1920 1.610 . S
N1922 C1923 1.351 . S
C1923 C1917 1.428 . S
C1923 N1922 1.351 . S
C1923 C1924 1.434 . S
C1924 C1915 1.429 . S
C1924 N1921 1.350 . S
C1924 C1923 1.434 . S
C1925 C1926 1.369 . S
C1925 C1927 1.419 . S
C1925 H1929 0.930 . S
C1926 C1925 1.369 . S
C1926 C1935 1.429 . S
C1927 C1925 1.419 . S
C1927 C1928 1.363 . S
C1927 H1930 0.929 . S
C1928 C1927 1.363 . S
C1928 C1934 1.428 . S
H1929 C1925 0.930 . S
H1930 C1927 0.929 . S
S1931 N1932 1.613 . S
S1931 N1933 1.610 . S
N1932 S1931 1.613 . S
N1932 C1935 1.350 . S
N1933 S1931 1.610 . S
N1933 C1934 1.351 . S
C1934 C1928 1.428 . S
C1934 N1933 1.351 . S
C1934 C1935 1.434 . S
C1935 C1926 1.429 . S
C1935 N1932 1.350 . S
C1935 C1934 1.434 . S
C1936 C1937 1.369 . S
C1936 C1938 1.419 . S
C1936 H1940 0.930 . S
C1937 C1936 1.369 . S
C1937 C1946 1.429 . S
C1938 C1936 1.419 . S
C1938 C1939 1.363 . S
C1938 H1941 0.929 . S
C1939 C1938 1.363 . S
C1939 C1945 1.428 . S
H1940 C1936 0.930 . S
H1941 C1938 0.929 . S
S1942 N1943 1.613 . S
S1942 N1944 1.610 . S
N1943 S1942 1.613 . S
N1943 C1946 1.350 . S
N1944 S1942 1.610 . S
N1944 C1945 1.351 . S
C1945 C1939 1.428 . S
C1945 N1944 1.351 . S
C1945 C1946 1.434 . S
C1946 C1937 1.429 . S
C1946 N1943 1.350 . S
C1946 C1945 1.434 . S
C1947 C1948 1.369 . S
C1947 C1949 1.419 . S
C1947 H1951 0.930 . S
C1948 C1947 1.369 . S
C1948 C1957 1.429 . S
C1949 C1947 1.419 . S
C1949 C1950 1.363 . S
C1949 H1952 0.929 . S
C1950 C1949 1.363 . S
C1950 C1956 1.428 . S
H1951 C1947 0.930 . S
H1952 C1949 0.929 . S
S1953 N1954 1.613 . S
S1953 N1955 1.610 . S
N1954 S1953 1.613 . S
N1954 C1957 1.350 . S
N1955 S1953 1.610 . S
N1955 C1956 1.351 . S
C1956 C1950 1.428 . S
C1956 N1955 1.351 . S
C1956 C1957 1.434 . S
C1957 C1948 1.429 . S
C1957 N1954 1.350 . S
C1957 C1956 1.434 . S
C1958 C1959 1.369 . S
C1958 C1960 1.419 . S
C1958 H1962 0.930 . S
C1959 C1958 1.369 . S
C1959 C1968 1.429 . S
C1960 C1958 1.419 . S
C1960 C1961 1.363 . S
C1960 H1963 0.929 . S
C1961 C1960 1.363 . S
C1961 C1967 1.428 . S
H1962 C1958 0.930 . S
H1963 C1960 0.929 . S
S1964 N1965 1.613 . S
S1964 N1966 1.610 . S
N1965 S1964 1.613 . S
N1965 C1968 1.350 . S
N1966 S1964 1.610 . S
N1966 C1967 1.351 . S
C1967 C1961 1.428 . S
C1967 N1966 1.351 . S
C1967 C1968 1.434 . S
C1968 C1959 1.429 . S
C1968 N1965 1.350 . S
C1968 C1967 1.434 . S
C1969 C1970 1.369 . S
C1969 C1971 1.419 . S
C1969 H1973 0.930 . S
C1970 C1969 1.369 . S
C1970 C1979 1.429 . S
C1971 C1969 1.419 . S
C1971 C1972 1.363 . S
C1971 H1974 0.929 . S
C1972 C1971 1.363 . S
C1972 C1978 1.428 . S
H1973 C1969 0.930 . S
H1974 C1971 0.929 . S
S1975 N1976 1.613 . S
S1975 N1977 1.610 . S
N1976 S1975 1.613 . S
N1976 C1979 1.350 . S
N1977 S1975 1.610 . S
N1977 C1978 1.351 . S
C1978 C1972 1.428 . S
C1978 N1977 1.351 . S
C1978 C1979 1.434 . S
C1979 C1970 1.429 . S
C1979 N1976 1.350 . S
C1979 C1978 1.434 . S
C1980 C1981 1.369 . S
C1980 C1982 1.419 . S
C1980 H1984 0.930 . S
C1981 C1980 1.369 . S
C1981 C1990 1.429 . S
C1982 C1980 1.419 . S
C1982 C1983 1.363 . S
C1982 H1985 0.929 . S
C1983 C1982 1.363 . S
C1983 C1989 1.428 . S
H1984 C1980 0.930 . S
H1985 C1982 0.929 . S
S1986 N1987 1.613 . S
S1986 N1988 1.610 . S
N1987 S1986 1.613 . S
N1987 C1990 1.350 . S
N1988 S1986 1.610 . S
N1988 C1989 1.351 . S
C1989 C1983 1.428 . S
C1989 N1988 1.351 . S
C1989 C1990 1.434 . S
C1990 C1981 1.429 . S
C1990 N1987 1.350 . S
C1990 C1989 1.434 . S
C1991 C1992 1.369 . S
C1991 C1993 1.419 . S
C1991 H1995 0.930 . S
C1992 C1991 1.369 . S
C1992 C2001 1.429 . S
C1993 C1991 1.419 . S
C1993 C1994 1.363 . S
C1993 H1996 0.929 . S
C1994 C1993 1.363 . S
C1994 C2000 1.428 . S
H1995 C1991 0.930 . S
H1996 C1993 0.929 . S
S1997 N1998 1.613 . S
S1997 N1999 1.610 . S
N1998 S1997 1.613 . S
N1998 C2001 1.350 . S
N1999 S1997 1.610 . S
N1999 C2000 1.351 . S
C2000 C1994 1.428 . S
C2000 N1999 1.351 . S
C2000 C2001 1.434 . S
C2001 C1992 1.429 . S
C2001 N1998 1.350 . S
C2001 C2000 1.434 . S
C2002 C2003 1.369 . S
C2002 C2004 1.419 . S
C2002 H2006 0.930 . S
C2003 C2002 1.369 . S
C2003 C2012 1.429 . S
C2004 C2002 1.419 . S
C2004 C2005 1.363 . S
C2004 H2007 0.929 . S
C2005 C2004 1.363 . S
C2005 C2011 1.428 . S
H2006 C2002 0.930 . S
H2007 C2004 0.929 . S
S2008 N2009 1.613 . S
S2008 N2010 1.610 . S
N2009 S2008 1.613 . S
N2009 C2012 1.350 . S
N2010 S2008 1.610 . S
N2010 C2011 1.351 . S
C2011 C2005 1.428 . S
C2011 N2010 1.351 . S
C2011 C2012 1.434 . S
C2012 C2003 1.429 . S
C2012 N2009 1.350 . S
C2012 C2011 1.434 . S
C2013 C2014 1.369 . S
C2013 C2015 1.419 . S
C2013 H2017 0.930 . S
C2014 C2013 1.369 . S
C2014 C2023 1.429 . S
C2015 C2013 1.419 . S
C2015 C2016 1.363 . S
C2015 H2018 0.929 . S
C2016 C2015 1.363 . S
C2016 C2022 1.428 . S
H2017 C2013 0.930 . S
H2018 C2015 0.929 . S
S2019 N2020 1.613 . S
S2019 N2021 1.610 . S
N2020 S2019 1.613 . S
N2020 C2023 1.350 1_556 S
N2021 S2019 1.610 . S
N2021 C2022 1.351 1_556 S
C2022 C2016 1.428 . S
C2022 N2021 1.351 1_554 S
C2022 C2023 1.434 . S
C2023 C2014 1.429 . S
C2023 N2020 1.350 1_554 S
C2023 C2022 1.434 . S
C2024 C2025 1.369 . S
C2024 C2026 1.419 . S
C2024 H2028 0.930 . S
C2025 C2024 1.369 . S
C2025 C2034 1.429 . S
C2026 C2024 1.419 . S
C2026 C2027 1.363 . S
C2026 H2029 0.929 . S
C2027 C2026 1.363 . S
C2027 C2033 1.428 . S
H2028 C2024 0.930 . S
H2029 C2026 0.929 . S
S2030 N2031 1.613 . S
S2030 N2032 1.610 . S
N2031 S2030 1.613 . S
N2031 C2034 1.350 . S
N2032 S2030 1.610 . S
N2032 C2033 1.351 . S
C2033 C2027 1.428 . S
C2033 N2032 1.351 . S
C2033 C2034 1.434 . S
C2034 C2025 1.429 . S
C2034 N2031 1.350 . S
C2034 C2033 1.434 . S
C2035 C2036 1.369 . S
C2035 C2037 1.419 . S
C2035 H2039 0.930 . S
C2036 C2035 1.369 . S
C2036 C2045 1.429 . S
C2037 C2035 1.419 . S
C2037 C2038 1.363 . S
C2037 H2040 0.929 . S
C2038 C2037 1.363 . S
C2038 C2044 1.428 . S
H2039 C2035 0.930 . S
H2040 C2037 0.929 . S
S2041 N2042 1.613 . S
S2041 N2043 1.610 . S
N2042 S2041 1.613 . S
N2042 C2045 1.350 1_556 S
N2043 S2041 1.610 . S
N2043 C2044 1.351 1_556 S
C2044 C2038 1.428 . S
C2044 N2043 1.351 1_554 S
C2044 C2045 1.434 . S
C2045 C2036 1.429 . S
C2045 N2042 1.350 1_554 S
C2045 C2044 1.434 . S
C2046 C2047 1.369 . S
C2046 C2048 1.419 . S
C2046 H2050 0.930 . S
C2047 C2046 1.369 . S
C2047 C2056 1.429 . S
C2048 C2046 1.419 . S
C2048 C2049 1.363 . S
C2048 H2051 0.929 . S
C2049 C2048 1.363 . S
C2049 C2055 1.428 . S
H2050 C2046 0.930 . S
H2051 C2048 0.929 . S
S2052 N2053 1.613 . S
S2052 N2054 1.610 . S
N2053 S2052 1.613 . S
N2053 C2056 1.350 . S
N2054 S2052 1.610 . S
N2054 C2055 1.351 . S
C2055 C2049 1.428 . S
C2055 N2054 1.351 . S
C2055 C2056 1.434 . S
C2056 C2047 1.429 . S
C2056 N2053 1.350 . S
C2056 C2055 1.434 . S
C2057 C2058 1.369 . S
C2057 C2059 1.419 . S
C2057 H2061 0.930 . S
C2058 C2057 1.369 . S
C2058 C2067 1.429 . S
C2059 C2057 1.419 . S
C2059 C2060 1.363 . S
C2059 H2062 0.929 . S
C2060 C2059 1.363 . S
C2060 C2066 1.428 . S
H2061 C2057 0.930 . S
H2062 C2059 0.929 . S
S2063 N2064 1.613 . S
S2063 N2065 1.610 . S
N2064 S2063 1.613 . S
N2064 C2067 1.350 . S
N2065 S2063 1.610 . S
N2065 C2066 1.351 . S
C2066 C2060 1.428 . S
C2066 N2065 1.351 . S
C2066 C2067 1.434 . S
C2067 C2058 1.429 . S
C2067 N2064 1.350 . S
C2067 C2066 1.434 . S
C2068 C2069 1.369 . S
C2068 C2070 1.419 . S
C2068 H2072 0.930 . S
C2069 C2068 1.369 . S
C2069 C2078 1.429 . S
C2070 C2068 1.419 . S
C2070 C2071 1.363 . S
C2070 H2073 0.929 . S
C2071 C2070 1.363 . S
C2071 C2077 1.428 . S
H2072 C2068 0.930 . S
H2073 C2070 0.929 . S
S2074 N2075 1.613 . S
S2074 N2076 1.610 . S
N2075 S2074 1.613 . S
N2075 C2078 1.350 . S
N2076 S2074 1.610 . S
N2076 C2077 1.351 . S
C2077 C2071 1.428 . S
C2077 N2076 1.351 . S
C2077 C2078 1.434 . S
C2078 C2069 1.429 . S
C2078 N2075 1.350 . S
C2078 C2077 1.434 . S
C2079 C2080 1.369 . S
C2079 C2081 1.419 . S
C2079 H2083 0.930 . S
C2080 C2079 1.369 . S
C2080 C2089 1.429 . S
C2081 C2079 1.419 . S
C2081 C2082 1.363 . S
C2081 H2084 0.929 . S
C2082 C2081 1.363 . S
C2082 C2088 1.428 . S
H2083 C2079 0.930 . S
H2084 C2081 0.929 . S
S2085 N2086 1.613 . S
S2085 N2087 1.610 . S
N2086 S2085 1.613 . S
N2086 C2089 1.350 . S
N2087 S2085 1.610 . S
N2087 C2088 1.351 . S
C2088 C2082 1.428 . S
C2088 N2087 1.351 . S
C2088 C2089 1.434 . S
C2089 C2080 1.429 . S
C2089 N2086 1.350 . S
C2089 C2088 1.434 . S
C2090 C2091 1.369 . S
C2090 C2092 1.419 . S
C2090 H2094 0.930 . S
C2091 C2090 1.369 . S
C2091 C2100 1.429 . S
C2092 C2090 1.419 . S
C2092 C2093 1.363 . S
C2092 H2095 0.929 . S
C2093 C2092 1.363 . S
C2093 C2099 1.428 . S
H2094 C2090 0.930 . S
H2095 C2092 0.929 . S
S2096 N2097 1.613 . S
S2096 N2098 1.610 . S
N2097 S2096 1.613 . S
N2097 C2100 1.350 1_554 S
N2098 S2096 1.610 . S
N2098 C2099 1.351 1_554 S
C2099 C2093 1.428 . S
C2099 N2098 1.351 1_556 S
C2099 C2100 1.434 . S
C2100 C2091 1.429 . S
C2100 N2097 1.350 1_556 S
C2100 C2099 1.434 . S
C2101 C2102 1.369 . S
C2101 C2103 1.419 . S
C2101 H2105 0.930 . S
C2102 C2101 1.369 . S
C2102 C2111 1.429 . S
C2103 C2101 1.419 . S
C2103 C2104 1.363 . S
C2103 H2106 0.929 . S
C2104 C2103 1.363 . S
C2104 C2110 1.428 . S
H2105 C2101 0.930 . S
H2106 C2103 0.929 . S
S2107 N2108 1.613 . S
S2107 N2109 1.610 . S
N2108 S2107 1.613 . S
N2108 C2111 1.350 . S
N2109 S2107 1.610 . S
N2109 C2110 1.351 . S
C2110 C2104 1.428 . S
C2110 N2109 1.351 . S
C2110 C2111 1.434 . S
C2111 C2102 1.429 . S
C2111 N2108 1.350 . S
C2111 C2110 1.434 . S
C2112 C2113 1.369 . S
C2112 C2114 1.419 1_455 S
C2112 H2116 0.930 . S
C2113 C2112 1.369 . S
C2113 C2122 1.429 . S
C2114 C2112 1.419 1_655 S
C2114 C2115 1.363 . S
C2114 H2117 0.929 . S
C2115 C2114 1.363 . S
C2115 C2121 1.428 . S
H2116 C2112 0.930 . S
H2117 C2114 0.929 . S
S2118 N2119 1.613 . S
S2118 N2120 1.610 1_455 S
N2119 S2118 1.613 . S
N2119 C2122 1.350 . S
N2120 S2118 1.610 1_655 S
N2120 C2121 1.351 . S
C2121 C2115 1.428 . S
C2121 N2120 1.351 . S
C2121 C2122 1.434 1_655 S
C2122 C2113 1.429 . S
C2122 N2119 1.350 . S
C2122 C2121 1.434 1_455 S
C2123 C2124 1.369 . S
C2123 C2125 1.419 . S
C2123 H2127 0.930 . S
C2124 C2123 1.369 . S
C2124 C2133 1.429 . S
C2125 C2123 1.419 . S
C2125 C2126 1.363 . S
C2125 H2128 0.929 . S
C2126 C2125 1.363 . S
C2126 C2132 1.428 . S
H2127 C2123 0.930 . S
H2128 C2125 0.929 . S
S2129 N2130 1.613 . S
S2129 N2131 1.610 . S
N2130 S2129 1.613 . S
N2130 C2133 1.350 . S
N2131 S2129 1.610 . S
N2131 C2132 1.351 . S
C2132 C2126 1.428 . S
C2132 N2131 1.351 . S
C2132 C2133 1.434 . S
C2133 C2124 1.429 . S
C2133 N2130 1.350 . S
C2133 C2132 1.434 . S
C2134 C2135 1.369 . S
C2134 C2136 1.419 1_545 S
C2134 H2138 0.930 . S
C2135 C2134 1.369 . S
C2135 C2144 1.429 . S
C2136 C2134 1.419 1_565 S
C2136 C2137 1.363 . S
C2136 H2139 0.929 . S
C2137 C2136 1.363 . S
C2137 C2143 1.428 . S
H2138 C2134 0.930 . S
H2139 C2136 0.929 . S
S2140 N2141 1.613 1_565 S
S2140 N2142 1.610 . S
N2141 S2140 1.613 1_545 S
N2141 C2144 1.350 . S
N2142 S2140 1.610 . S
N2142 C2143 1.351 . S
C2143 C2137 1.428 . S
C2143 N2142 1.351 . S
C2143 C2144 1.434 1_565 S
C2144 C2135 1.429 . S
C2144 N2141 1.350 . S
C2144 C2143 1.434 1_545 S
C2145 C2146 1.369 . S
C2145 C2147 1.419 1_545 S
C2145 H2149 0.930 . S
C2146 C2145 1.369 . S
C2146 C2155 1.429 . S
C2147 C2145 1.419 1_565 S
C2147 C2148 1.363 . S
C2147 H2150 0.929 . S
C2148 C2147 1.363 . S
C2148 C2154 1.428 . S
H2149 C2145 0.930 . S
H2150 C2147 0.929 . S
S2151 N2152 1.613 1_565 S
S2151 N2153 1.610 . S
N2152 S2151 1.613 1_545 S
N2152 C2155 1.350 . S
N2153 S2151 1.610 . S
N2153 C2154 1.351 . S
C2154 C2148 1.428 . S
C2154 N2153 1.351 . S
C2154 C2155 1.434 1_565 S
C2155 C2146 1.429 . S
C2155 N2152 1.350 . S
C2155 C2154 1.434 1_545 S
C2156 C2157 1.369 . S
C2156 C2158 1.419 1_455 S
C2156 H2160 0.930 . S
C2157 C2156 1.369 . S
C2157 C2166 1.429 . S
C2158 C2156 1.419 1_655 S
C2158 C2159 1.363 . S
C2158 H2161 0.929 . S
C2159 C2158 1.363 . S
C2159 C2165 1.428 . S
H2160 C2156 0.930 . S
H2161 C2158 0.929 . S
S2162 N2163 1.590 1_655 S
S2162 N2164 1.677 . S
N2163 S2162 1.590 1_455 S
N2163 C2166 1.350 . S
N2164 S2162 1.677 . S
N2164 C2165 1.351 . S
C2165 C2159 1.428 . S
C2165 N2164 1.351 . S
C2165 C2166 1.434 1_655 S
C2166 C2157 1.429 . S
C2166 N2163 1.350 . S
C2166 C2165 1.434 1_455 S
C2167 C2168 1.369 . S
C2167 C2169 1.419 . S
C2167 H2171 0.930 . S
C2168 C2167 1.369 . S
C2168 C2177 1.429 . S
C2169 C2167 1.419 . S
C2169 C2170 1.363 . S
C2169 H2172 0.929 . S
C2170 C2169 1.363 . S
C2170 C2176 1.428 . S
H2171 C2167 0.930 . S
H2172 C2169 0.929 . S
S2173 N2174 1.613 . S
S2173 N2175 1.610 . S
N2174 S2173 1.613 . S
N2174 C2177 1.350 . S
N2175 S2173 1.610 . S
N2175 C2176 1.351 . S
C2176 C2170 1.428 . S
C2176 N2175 1.351 . S
C2176 C2177 1.434 . S
C2177 C2168 1.429 . S
C2177 N2174 1.350 . S
C2177 C2176 1.434 . S
C1189 C612 1.318 . S
C1191 C18 1.305 . S
C1200 C51 1.303 . S
C1202 C645 1.316 . S
C1211 C678 1.303 . S
C1213 C84 1.316 . S
C1222 C1107 1.306 . S
C1224 C117 1.313 . S
C1233 C1140 1.303 . S
C1235 C150 1.316 . S
C1244 C183 1.317 . S
C1246 C1173 1.305 . S
C1255 C216 1.311 . S
C1257 C810 1.309 . S
C1266 C843 1.310 . S
C1268 C249 1.311 . S
C1277 C282 1.317 . S
C1279 C876 1.305 . S
C1288 C513 1.316 . S
C1290 C315 1.305 . S
C1299 C348 1.316 . S
C1301 C546 1.306 . S
C1310 C579 1.316 . S
C1312 C381 1.306 . S
C1321 C1008 1.318 . S
C1323 C414 1.304 . S
C1332 C447 1.318 . S
C1334 C1041 1.304 . S
C1343 C480 1.315 . S
C1345 C1074 1.306 . S
C1354 C909 1.311 1_554 S
C1356 C711 1.309 1_556 S
C1365 C744 1.305 1_556 S
C1367 C942 1.314 1_554 S
C1376 C777 1.303 1_556 S
C1378 C975 1.316 1_554 S
C1387 C21 1.298 . S
C1389 C120 1.304 . S
C1398 C153 1.299 . S
C1400 C54 1.305 . S
C1409 C87 1.301 . S
C1411 C186 1.303 . S
C1420 C318 1.300 . S
C1422 C219 1.302 . S
C1431 C252 1.298 . S
C1433 C351 1.303 . S
C1442 C384 1.304 . S
C1444 C285 1.301 . S
C1453 C417 1.298 . S
C1455 C516 1.304 . S
C1464 C450 1.298 . S
C1466 C549 1.305 . S
C1475 C582 1.306 . S
C1477 C483 1.298 . S
C1486 C615 1.306 . S
C1488 C714 1.299 . S
C1497 C648 1.297 . S
C1499 C747 1.304 . S
C1508 C780 1.305 . S
C1510 C681 1.299 . S
C1519 C813 1.301 . S
C1521 C912 1.304 . S
C1530 C945 1.301 . S
C1532 C846 1.302 . S
C1541 C978 1.298 . S
C1543 C879 1.305 . S
C1552 C1011 1.304 . S
C1554 C1110 1.299 . S
C1563 C1044 1.298 . S
C1565 C1143 1.304 . S
C1574 C1176 1.300 . S
C1576 C1077 1.301 . S
C1585 C337 1.845 . S
C1587 N13 1.946 . S
C1596 C370 1.846 . S
C1598 N46 1.948 . S
C1607 C304 1.844 . S
C1609 N79 1.949 . S
C1618 C271 1.843 . S
C1620 N112 1.950 . S
C1629 C205 1.847 . S
C1631 N145 1.948 . S
C1640 N178 1.950 . S
C1642 C238 1.839 . S
C1651 C139 1.844 . S
C1653 N211 1.946 . S
C1662 N244 1.950 . S
C1664 C172 1.840 . S
C1673 N277 1.950 . S
C1675 C106 1.842 . S
C1684 C73 1.840 . S
C1686 N310 1.950 . S
C1695 C7 1.842 . S
C1697 N343 1.946 . S
C1706 N376 1.946 . S
C1708 C40 1.845 . S
C1717 N409 1.950 . S
C1719 C733 1.840 . S
C1728 N442 1.945 . S
C1730 C766 1.843 . S
C1739 N475 1.950 . S
C1741 C700 1.843 . S
C1750 N508 1.946 . S
C1752 C667 1.844 . S
C1761 C601 1.845 . S
C1763 N541 1.946 . S
C1772 C634 1.840 . S
C1774 N574 1.950 . S
C1783 N607 1.945 . S
C1785 C535 1.841 . S
C1794 N640 1.950 . S
C1796 C568 1.841 . S
C1805 C502 1.837 . S
C1807 N673 1.949 . S
C1816 C469 1.845 . S
C1818 N706 1.946 . S
C1827 C403 1.846 . S
C1829 N739 1.948 . S
C1838 N772 1.945 . S
C1840 C436 1.844 . S
C1849 C1129 1.839 . S
C1851 N805 1.949 . S
C1860 C1162 1.837 . S
C1862 N838 1.949 . S
C1871 N871 1.945 . S
C1873 C1096 1.840 . S
C1882 C1063 1.839 . S
C1884 N904 1.946 . S
C1893 C997 1.837 . S
C1895 N937 1.948 . S
C1904 N970 1.945 . S
C1906 C1030 1.843 . S
C1915 C931 1.846 . S
C1917 N1003 1.947 . S
C1926 C964 1.846 . S
C1928 N1036 1.947 . S
C1937 C898 1.839 . S
C1939 N1069 1.947 . S
C1948 C865 1.838 . S
C1950 N1102 1.947 . S
C1959 C799 1.839 . S
C1961 N1135 1.947 . S
C1970 C832 1.845 . S
C1972 N1168 1.949 . S
C1981 N530 0.778 . S
C1983 N2 0.754 . S
C1992 N563 0.771 . S
C1994 N35 0.770 . S
C2003 N497 0.771 . S
C2005 N68 0.757 . S
C2014 N101 0.782 . S
C2016 N860 0.759 . S
C2025 N134 0.761 . S
C2027 N794 0.776 . S
C2036 N167 0.782 . S
C2038 N827 0.754 . S
C2047 N200 0.753 . S
C2049 N1124 0.769 . S
C2058 N233 0.775 . S
C2060 N1157 0.768 . S
C2069 N1091 0.760 . S
C2071 N266 0.778 . S
C2080 N299 0.750 . S
C2082 N662 0.775 . S
C2091 N332 0.778 . S
C2093 N596 0.754 . S
C2102 N629 0.771 . S
C2104 N365 0.756 . S
C2113 N926 0.775 . S
C2115 N398 0.755 . S
C2124 N959 0.750 . S
C2126 N431 0.778 . S
C2135 N464 0.762 . S
C2137 N893 0.776 . S
C2146 N695 0.753 . S
C2148 N1058 0.779 . S
C2157 N992 0.775 . S
C2159 N728 0.769 . S
C2168 N1025 0.776 . S
C2170 N761 0.754 . S
