# Generated by pormake.
# Topology wna, (6)-cn, num edge types: 1
# Building blocks:
#     Node 0, Type 0, BuildingBlock: BETFEN_clean_sbu_0, # of connection points: 6
#     Node 1, Type 0, BuildingBlock: BETFEN_clean_sbu_0, # of connection points: 6
#     Node 2, Type 0, BuildingBlock: BETFEN_clean_sbu_0, # of connection points: 6
#     Node 3, Type 0, BuildingBlock: BETFEN_clean_sbu_0, # of connection points: 6
#     Node 4, Type 0, BuildingBlock: BETFEN_clean_sbu_0, # of connection points: 6
#     Node 5, Type 0, BuildingBlock: BETFEN_clean_sbu_0, # of connection points: 6
#     Node 6, Type 0, BuildingBlock: BETFEN_clean_sbu_0, # of connection points: 6
#     Node 7, Type 0, BuildingBlock: BETFEN_clean_sbu_0, # of connection points: 6
#     Node 8, Type 0, BuildingBlock: BETFEN_clean_sbu_0, # of connection points: 6
#     Node 9, Type 0, BuildingBlock: BETFEN_clean_sbu_0, # of connection points: 6
#     Node 10, Type 0, BuildingBlock: BETFEN_clean_sbu_0, # of connection points: 6
#     Node 11, Type 0, BuildingBlock: BETFEN_clean_sbu_0, # of connection points: 6
#     Node 12, Type 0, BuildingBlock: BETFEN_clean_sbu_0, # of connection points: 6
#     Node 13, Type 0, BuildingBlock: BETFEN_clean_sbu_0, # of connection points: 6
#     Node 14, Type 0, BuildingBlock: BETFEN_clean_sbu_0, # of connection points: 6
#     Node 15, Type 0, BuildingBlock: BETFEN_clean_sbu_0, # of connection points: 6
#     Node 16, Type 0, BuildingBlock: BETFEN_clean_sbu_0, # of connection points: 6
#     Node 17, Type 0, BuildingBlock: BETFEN_clean_sbu_0, # of connection points: 6
#     Node 18, Type 0, BuildingBlock: BETFEN_clean_sbu_0, # of connection points: 6
#     Node 19, Type 0, BuildingBlock: BETFEN_clean_sbu_0, # of connection points: 6
#     Node 20, Type 0, BuildingBlock: BETFEN_clean_sbu_0, # of connection points: 6
#     Node 21, Type 0, BuildingBlock: BETFEN_clean_sbu_0, # of connection points: 6
#     Node 22, Type 0, BuildingBlock: BETFEN_clean_sbu_0, # of connection points: 6
#     Node 23, Type 0, BuildingBlock: BETFEN_clean_sbu_0, # of connection points: 6
#     Node 24, Type 0, BuildingBlock: BETFEN_clean_sbu_0, # of connection points: 6
#     Node 25, Type 0, BuildingBlock: BETFEN_clean_sbu_0, # of connection points: 6
#     Node 26, Type 0, BuildingBlock: BETFEN_clean_sbu_0, # of connection points: 6
#     Node 27, Type 0, BuildingBlock: BETFEN_clean_sbu_0, # of connection points: 6
#     Node 28, Type 0, BuildingBlock: BETFEN_clean_sbu_0, # of connection points: 6
#     Node 29, Type 0, BuildingBlock: BETFEN_clean_sbu_0, # of connection points: 6
#     Node 30, Type 0, BuildingBlock: BETFEN_clean_sbu_0, # of connection points: 6
#     Node 31, Type 0, BuildingBlock: BETFEN_clean_sbu_0, # of connection points: 6
#     Node 32, Type 0, BuildingBlock: BETFEN_clean_sbu_0, # of connection points: 6
#     Node 33, Type 0, BuildingBlock: BETFEN_clean_sbu_0, # of connection points: 6
#     Node 34, Type 0, BuildingBlock: BETFEN_clean_sbu_0, # of connection points: 6
#     Node 35, Type 0, BuildingBlock: BETFEN_clean_sbu_0, # of connection points: 6
#     Edge 36, Type (0, 0), BuildingBlock: OJICUG_clean_linker_0, # of connection points: 2
#     Edge 37, Type (0, 0), BuildingBlock: OJICUG_clean_linker_0, # of connection points: 2
#     Edge 38, Type (0, 0), BuildingBlock: OJICUG_clean_linker_0, # of connection points: 2
#     Edge 39, Type (0, 0), BuildingBlock: OJICUG_clean_linker_0, # of connection points: 2
#     Edge 40, Type (0, 0), BuildingBlock: OJICUG_clean_linker_0, # of connection points: 2
#     Edge 41, Type (0, 0), BuildingBlock: OJICUG_clean_linker_0, # of connection points: 2
#     Edge 42, Type (0, 0), BuildingBlock: OJICUG_clean_linker_0, # of connection points: 2
#     Edge 43, Type (0, 0), BuildingBlock: OJICUG_clean_linker_0, # of connection points: 2
#     Edge 44, Type (0, 0), BuildingBlock: OJICUG_clean_linker_0, # of connection points: 2
#     Edge 45, Type (0, 0), BuildingBlock: OJICUG_clean_linker_0, # of connection points: 2
#     Edge 46, Type (0, 0), BuildingBlock: OJICUG_clean_linker_0, # of connection points: 2
#     Edge 47, Type (0, 0), BuildingBlock: OJICUG_clean_linker_0, # of connection points: 2
#     Edge 48, Type (0, 0), BuildingBlock: OJICUG_clean_linker_0, # of connection points: 2
#     Edge 49, Type (0, 0), BuildingBlock: OJICUG_clean_linker_0, # of connection points: 2
#     Edge 50, Type (0, 0), BuildingBlock: OJICUG_clean_linker_0, # of connection points: 2
#     Edge 51, Type (0, 0), BuildingBlock: OJICUG_clean_linker_0, # of connection points: 2
#     Edge 52, Type (0, 0), BuildingBlock: OJICUG_clean_linker_0, # of connection points: 2
#     Edge 53, Type (0, 0), BuildingBlock: OJICUG_clean_linker_0, # of connection points: 2
#     Edge 54, Type (0, 0), BuildingBlock: OJICUG_clean_linker_0, # of connection points: 2
#     Edge 55, Type (0, 0), BuildingBlock: OJICUG_clean_linker_0, # of connection points: 2
#     Edge 56, Type (0, 0), BuildingBlock: OJICUG_clean_linker_0, # of connection points: 2
#     Edge 57, Type (0, 0), BuildingBlock: OJICUG_clean_linker_0, # of connection points: 2
#     Edge 58, Type (0, 0), BuildingBlock: OJICUG_clean_linker_0, # of connection points: 2
#     Edge 59, Type (0, 0), BuildingBlock: OJICUG_clean_linker_0, # of connection points: 2
#     Edge 60, Type (0, 0), BuildingBlock: OJICUG_clean_linker_0, # of connection points: 2
#     Edge 61, Type (0, 0), BuildingBlock: OJICUG_clean_linker_0, # of connection points: 2
#     Edge 62, Type (0, 0), BuildingBlock: OJICUG_clean_linker_0, # of connection points: 2
#     Edge 63, Type (0, 0), BuildingBlock: OJICUG_clean_linker_0, # of connection points: 2
#     Edge 64, Type (0, 0), BuildingBlock: OJICUG_clean_linker_0, # of connection points: 2
#     Edge 65, Type (0, 0), BuildingBlock: OJICUG_clean_linker_0, # of connection points: 2
#     Edge 66, Type (0, 0), BuildingBlock: OJICUG_clean_linker_0, # of connection points: 2
#     Edge 67, Type (0, 0), BuildingBlock: OJICUG_clean_linker_0, # of connection points: 2
#     Edge 68, Type (0, 0), BuildingBlock: OJICUG_clean_linker_0, # of connection points: 2
#     Edge 69, Type (0, 0), BuildingBlock: OJICUG_clean_linker_0, # of connection points: 2
#     Edge 70, Type (0, 0), BuildingBlock: OJICUG_clean_linker_0, # of connection points: 2
#     Edge 71, Type (0, 0), BuildingBlock: OJICUG_clean_linker_0, # of connection points: 2
#     Edge 72, Type (0, 0), BuildingBlock: OJICUG_clean_linker_0, # of connection points: 2
#     Edge 73, Type (0, 0), BuildingBlock: OJICUG_clean_linker_0, # of connection points: 2
#     Edge 74, Type (0, 0), BuildingBlock: OJICUG_clean_linker_0, # of connection points: 2
#     Edge 75, Type (0, 0), BuildingBlock: OJICUG_clean_linker_0, # of connection points: 2
#     Edge 76, Type (0, 0), BuildingBlock: OJICUG_clean_linker_0, # of connection points: 2
#     Edge 77, Type (0, 0), BuildingBlock: OJICUG_clean_linker_0, # of connection points: 2
#     Edge 78, Type (0, 0), BuildingBlock: OJICUG_clean_linker_0, # of connection points: 2
#     Edge 79, Type (0, 0), BuildingBlock: OJICUG_clean_linker_0, # of connection points: 2
#     Edge 80, Type (0, 0), BuildingBlock: OJICUG_clean_linker_0, # of connection points: 2
#     Edge 81, Type (0, 0), BuildingBlock: OJICUG_clean_linker_0, # of connection points: 2
#     Edge 82, Type (0, 0), BuildingBlock: OJICUG_clean_linker_0, # of connection points: 2
#     Edge 83, Type (0, 0), BuildingBlock: OJICUG_clean_linker_0, # of connection points: 2
#     Edge 84, Type (0, 0), BuildingBlock: OJICUG_clean_linker_0, # of connection points: 2
#     Edge 85, Type (0, 0), BuildingBlock: OJICUG_clean_linker_0, # of connection points: 2
#     Edge 86, Type (0, 0), BuildingBlock: OJICUG_clean_linker_0, # of connection points: 2
#     Edge 87, Type (0, 0), BuildingBlock: OJICUG_clean_linker_0, # of connection points: 2
#     Edge 88, Type (0, 0), BuildingBlock: OJICUG_clean_linker_0, # of connection points: 2
#     Edge 89, Type (0, 0), BuildingBlock: OJICUG_clean_linker_0, # of connection points: 2
#     Edge 90, Type (0, 0), BuildingBlock: OJICUG_clean_linker_0, # of connection points: 2
#     Edge 91, Type (0, 0), BuildingBlock: OJICUG_clean_linker_0, # of connection points: 2
#     Edge 92, Type (0, 0), BuildingBlock: OJICUG_clean_linker_0, # of connection points: 2
#     Edge 93, Type (0, 0), BuildingBlock: OJICUG_clean_linker_0, # of connection points: 2
#     Edge 94, Type (0, 0), BuildingBlock: OJICUG_clean_linker_0, # of connection points: 2
#     Edge 95, Type (0, 0), BuildingBlock: OJICUG_clean_linker_0, # of connection points: 2
#     Edge 96, Type (0, 0), BuildingBlock: OJICUG_clean_linker_0, # of connection points: 2
#     Edge 97, Type (0, 0), BuildingBlock: OJICUG_clean_linker_0, # of connection points: 2
#     Edge 98, Type (0, 0), BuildingBlock: OJICUG_clean_linker_0, # of connection points: 2
#     Edge 99, Type (0, 0), BuildingBlock: OJICUG_clean_linker_0, # of connection points: 2
#     Edge 100, Type (0, 0), BuildingBlock: OJICUG_clean_linker_0, # of connection points: 2
#     Edge 101, Type (0, 0), BuildingBlock: OJICUG_clean_linker_0, # of connection points: 2
#     Edge 102, Type (0, 0), BuildingBlock: OJICUG_clean_linker_0, # of connection points: 2
#     Edge 103, Type (0, 0), BuildingBlock: OJICUG_clean_linker_0, # of connection points: 2
#     Edge 104, Type (0, 0), BuildingBlock: OJICUG_clean_linker_0, # of connection points: 2
#     Edge 105, Type (0, 0), BuildingBlock: OJICUG_clean_linker_0, # of connection points: 2
#     Edge 106, Type (0, 0), BuildingBlock: OJICUG_clean_linker_0, # of connection points: 2
#     Edge 107, Type (0, 0), BuildingBlock: OJICUG_clean_linker_0, # of connection points: 2
#     Edge 108, Type (0, 0), BuildingBlock: OJICUG_clean_linker_0, # of connection points: 2
#     Edge 109, Type (0, 0), BuildingBlock: OJICUG_clean_linker_0, # of connection points: 2
#     Edge 110, Type (0, 0), BuildingBlock: OJICUG_clean_linker_0, # of connection points: 2
#     Edge 111, Type (0, 0), BuildingBlock: OJICUG_clean_linker_0, # of connection points: 2
#     Edge 112, Type (0, 0), BuildingBlock: OJICUG_clean_linker_0, # of connection points: 2
#     Edge 113, Type (0, 0), BuildingBlock: OJICUG_clean_linker_0, # of connection points: 2
#     Edge 114, Type (0, 0), BuildingBlock: OJICUG_clean_linker_0, # of connection points: 2
#     Edge 115, Type (0, 0), BuildingBlock: OJICUG_clean_linker_0, # of connection points: 2
#     Edge 116, Type (0, 0), BuildingBlock: OJICUG_clean_linker_0, # of connection points: 2
#     Edge 117, Type (0, 0), BuildingBlock: OJICUG_clean_linker_0, # of connection points: 2
#     Edge 118, Type (0, 0), BuildingBlock: OJICUG_clean_linker_0, # of connection points: 2
#     Edge 119, Type (0, 0), BuildingBlock: OJICUG_clean_linker_0, # of connection points: 2
#     Edge 120, Type (0, 0), BuildingBlock: OJICUG_clean_linker_0, # of connection points: 2
#     Edge 121, Type (0, 0), BuildingBlock: OJICUG_clean_linker_0, # of connection points: 2
#     Edge 122, Type (0, 0), BuildingBlock: OJICUG_clean_linker_0, # of connection points: 2
#     Edge 123, Type (0, 0), BuildingBlock: OJICUG_clean_linker_0, # of connection points: 2
#     Edge 124, Type (0, 0), BuildingBlock: OJICUG_clean_linker_0, # of connection points: 2
#     Edge 125, Type (0, 0), BuildingBlock: OJICUG_clean_linker_0, # of connection points: 2
#     Edge 126, Type (0, 0), BuildingBlock: OJICUG_clean_linker_0, # of connection points: 2
#     Edge 127, Type (0, 0), BuildingBlock: OJICUG_clean_linker_0, # of connection points: 2
#     Edge 128, Type (0, 0), BuildingBlock: OJICUG_clean_linker_0, # of connection points: 2
#     Edge 129, Type (0, 0), BuildingBlock: OJICUG_clean_linker_0, # of connection points: 2
#     Edge 130, Type (0, 0), BuildingBlock: OJICUG_clean_linker_0, # of connection points: 2
#     Edge 131, Type (0, 0), BuildingBlock: OJICUG_clean_linker_0, # of connection points: 2
#     Edge 132, Type (0, 0), BuildingBlock: OJICUG_clean_linker_0, # of connection points: 2
#     Edge 133, Type (0, 0), BuildingBlock: OJICUG_clean_linker_0, # of connection points: 2
#     Edge 134, Type (0, 0), BuildingBlock: OJICUG_clean_linker_0, # of connection points: 2
#     Edge 135, Type (0, 0), BuildingBlock: OJICUG_clean_linker_0, # of connection points: 2
#     Edge 136, Type (0, 0), BuildingBlock: OJICUG_clean_linker_0, # of connection points: 2
#     Edge 137, Type (0, 0), BuildingBlock: OJICUG_clean_linker_0, # of connection points: 2
#     Edge 138, Type (0, 0), BuildingBlock: OJICUG_clean_linker_0, # of connection points: 2
#     Edge 139, Type (0, 0), BuildingBlock: OJICUG_clean_linker_0, # of connection points: 2
#     Edge 140, Type (0, 0), BuildingBlock: OJICUG_clean_linker_0, # of connection points: 2
#     Edge 141, Type (0, 0), BuildingBlock: OJICUG_clean_linker_0, # of connection points: 2
#     Edge 142, Type (0, 0), BuildingBlock: OJICUG_clean_linker_0, # of connection points: 2
#     Edge 143, Type (0, 0), BuildingBlock: OJICUG_clean_linker_0, # of connection points: 2
# Relax obj value: 0.150
# Max RMSD: 0.228
# Mean RMSD: 0.211
data_MOF--net-wna--node1-BETFEN_clean_sbu_0--edge1-OJICUG_clean_linker_0
_symmetry_space_group_name_H-M    P1
_symmetry_Int_Tables_number       1
_symmetry_cell_setting            triclinic
loop_
_symmetry_equiv_pos_as_xyz
'x, y, z'
_cell_length_a     29.966425
_cell_length_b     29.940263
_cell_length_c     130.69396
_cell_angle_alpha  90.027824
_cell_angle_beta   89.959548
_cell_angle_gamma 119.99975
loop_
_atom_site_label
_atom_site_type_symbol
_atom_site_fract_x
_atom_site_fract_y
_atom_site_fract_z
_atom_type_partial_charge
Pr0 Pr 0.13187 0.26913 0.16956 0.0
Pr1 Pr 0.1391 0.25264 0.19512 0.0
C2 C 0.11895 0.30488 0.15159 0.0
C3 C 0.13793 0.31782 0.14098 0.0
C4 C 0.15383 0.28796 0.13545 0.0
C5 C 0.16653 0.29795 0.12507 0.0
C6 C 0.1637 0.33806 0.12004 0.0
C7 C 0.14941 0.36886 0.12573 0.0
C8 C 0.13664 0.35877 0.13609 0.0
C9 C 0.1633 0.19707 0.174 0.0
C10 C 0.24693 0.32765 0.18112 0.0
C11 C 0.14368 0.21939 0.21408 0.0
C12 C 0.11919 0.21001 0.22432 0.0
C13 C 0.10513 0.24405 0.22873 0.0
C14 C 0.08215 0.234 0.23846 0.0
C15 C 0.07242 0.18953 0.24397 0.0
C16 C 0.08651 0.15558 0.23948 0.0
C17 C 0.10959 0.16575 0.22979 0.0
C18 C 0.10178 0.32091 0.19029 0.0
C19 C 0.03137 0.17532 0.18184 0.0
O20 O 0.14821 0.33553 0.15892 0.0
O21 O 0.0943 0.25587 0.15409 0.0
O22 O 0.153 0.22299 0.18015 0.0
O23 O 0.15856 0.20951 0.16465 0.0
O24 O 0.22683 0.30038 0.18967 0.0
O25 O 0.21824 0.32739 0.17335 0.0
O26 O 0.11571 0.18835 0.2067 0.0
O27 O 0.17295 0.2674 0.2111 0.0
O28 O 0.11513 0.29669 0.1844 0.0
O29 O 0.10865 0.31046 0.19961 0.0
O30 O 0.04731 0.20894 0.1742 0.0
O31 O 0.06015 0.181 0.19001 0.0
H32 H 0.15534 0.25625 0.1391 0.0
H33 H 0.178 0.27392 0.12094 0.0
H34 H 0.14612 0.39958 0.12209 0.0
H35 H 0.12421 0.38208 0.14021 0.0
H36 H 0.11174 0.27831 0.22465 0.0
H37 H 0.07133 0.26071 0.24161 0.0
H38 H 0.08039 0.12138 0.24351 0.0
H39 H 0.12016 0.13896 0.22657 0.0
Pr40 Pr 0.78014 0.87257 0.1696 0.0
Pr41 Pr 0.79574 0.89561 0.19514 0.0
C42 C 0.74682 0.8258 0.15138 0.0
C43 C 0.73727 0.83407 0.14061 0.0
C44 C 0.77443 0.84326 0.13308 0.0
C45 C 0.76422 0.84628 0.12276 0.0
C46 C 0.71642 0.83988 0.11968 0.0
C47 C 0.67956 0.83171 0.12722 0.0
C48 C 0.68982 0.82873 0.13757 0.0
C49 C 0.85217 0.97603 0.17413 0.0
C50 C 0.72083 0.92836 0.18111 0.0
C51 C 0.82845 0.93351 0.21412 0.0
C52 C 0.838 0.91886 0.22439 0.0
C53 C 0.80433 0.87077 0.22884 0.0
C54 C 0.81459 0.85831 0.23859 0.0
C55 C 0.85888 0.89351 0.24408 0.0
C56 C 0.89242 0.94154 0.23955 0.0
C57 C 0.88206 0.95399 0.22984 0.0
C58 C 0.72766 0.78996 0.19022 0.0
C59 C 0.87323 0.86522 0.18195 0.0
O60 O 0.71546 0.82513 0.1585 0.0
O61 O 0.79499 0.84725 0.15437 0.0
O62 O 0.82613 0.93976 0.18025 0.0
O63 O 0.8399 0.95892 0.16478 0.0
O64 O 0.7481 0.93567 0.18966 0.0
O65 O 0.72113 0.89977 0.17337 0.0
O66 O 0.85967 0.93675 0.20676 0.0
O67 O 0.78046 0.91435 0.21112 0.0
O68 O 0.75185 0.82761 0.18435 0.0
O69 O 0.73802 0.80719 0.19955 0.0
O70 O 0.83955 0.8474 0.17433 0.0
O71 O 0.86758 0.88846 0.1901 0.0
H72 H 0.81106 0.84673 0.13513 0.0
H73 H 0.79316 0.85168 0.11716 0.0
H74 H 0.64252 0.82704 0.12512 0.0
H75 H 0.66016 0.82119 0.14316 0.0
H76 H 0.77022 0.84278 0.22477 0.0
H77 H 0.78818 0.82076 0.24177 0.0
H78 H 0.92646 0.96996 0.24357 0.0
H79 H 0.90855 0.99136 0.22659 0.0
Pr80 Pr 0.17576 0.91716 0.16936 0.0
Pr81 Pr 0.15296 0.90982 0.1949 0.0
C82 C 0.22212 0.93023 0.1511 0.0
C83 C 0.21365 0.91228 0.14032 0.0
C84 C 0.20188 0.93865 0.13287 0.0
C85 C 0.19882 0.92545 0.12254 0.0
C86 C 0.20775 0.8857 0.11937 0.0
C87 C 0.21845 0.85854 0.12684 0.0
C88 C 0.2215 0.87176 0.1372 0.0
C89 C 0.07243 0.88581 0.17396 0.0
C90 C 0.12023 0.80207 0.1809 0.0
C91 C 0.11576 0.90546 0.21392 0.0
C92 C 0.13095 0.92992 0.22421 0.0
C93 C 0.16189 0.92005 0.23087 0.0
C94 C 0.1737 0.94175 0.24071 0.0
C95 C 0.15474 0.97373 0.24417 0.0
C96 C 0.12408 0.98375 0.23745 0.0
C97 C 0.11224 0.96203 0.22764 0.0
C98 C 0.25844 0.94706 0.18999 0.0
C99 C 0.18334 1.01779 0.18172 0.0
O100 O 0.2228 0.89954 0.1582 0.0
O101 O 0.2009 0.95717 0.15411 0.0
O102 O 0.10879 0.89608 0.18004 0.0
O103 O 0.08936 0.89058 0.16459 0.0
O104 O 0.11292 0.82206 0.18944 0.0
O105 O 0.14867 0.83093 0.17314 0.0
O106 O 0.11256 0.93333 0.20652 0.0
O107 O 0.13364 0.87554 0.21087 0.0
O108 O 0.22092 0.93381 0.1841 0.0
O109 O 0.24114 0.94014 0.19931 0.0
O110 O 0.20102 1.00186 0.17408 0.0
O111 O 0.16017 0.98888 0.18987 0.0
H112 H 0.19641 0.97059 0.13497 0.0
H113 H 0.19141 0.94783 0.11699 0.0
H114 H 0.22507 0.82741 0.12468 0.0
H115 H 0.23109 0.85094 0.14273 0.0
H116 H 0.1766 0.89512 0.22854 0.0
H117 H 0.19684 0.93253 0.24569 0.0
H118 H 0.10934 1.00871 0.23974 0.0
H119 H 0.08803 0.97016 0.22274 0.0
Pr120 Pr 0.27709 0.12172 0.36001 0.0
Pr121 Pr 0.26197 0.12897 0.33447 0.0
C122 C 0.31025 0.10853 0.37827 0.0
C123 C 0.3199 0.12651 0.38903 0.0
C124 C 0.2826 0.09894 0.39656 0.0
C125 C 0.29292 0.11225 0.40688 0.0
C126 C 0.34097 0.15332 0.40996 0.0
C127 C 0.37797 0.18164 0.40241 0.0
C128 C 0.36761 0.16832 0.39206 0.0
C129 C 0.2052 0.15312 0.35538 0.0
C130 C 0.3367 0.23683 0.34847 0.0
C131 C 0.22965 0.13284 0.31539 0.0
C132 C 0.2202 0.1073 0.30518 0.0
C133 C 0.25794 0.12761 0.29745 0.0
C134 C 0.24786 0.10523 0.28768 0.0
C135 C 0.19961 0.06211 0.28533 0.0
C136 C 0.16201 0.04167 0.29309 0.0
C137 C 0.17209 0.064 0.30286 0.0
C138 C 0.33007 0.09163 0.33943 0.0
C139 C 0.18414 0.02105 0.34765 0.0
O140 O 0.34168 0.13903 0.37114 0.0
O141 O 0.26206 0.08188 0.37529 0.0
O142 O 0.23134 0.14282 0.34931 0.0
O143 O 0.21728 0.14838 0.36476 0.0
O144 O 0.30962 0.2168 0.3399 0.0
O145 O 0.33612 0.20799 0.35624 0.0
O146 O 0.19837 0.10624 0.32286 0.0
O147 O 0.27755 0.16232 0.31839 0.0
O148 O 0.3057 0.1049 0.3453 0.0
O149 O 0.31983 0.09854 0.3301 0.0
O150 O 0.21755 0.03703 0.35532 0.0
O151 O 0.1901 0.04986 0.33948 0.0
H152 H 0.24577 0.06601 0.39452 0.0
H153 H 0.26384 0.08899 0.41248 0.0
H154 H 0.41522 0.21377 0.40451 0.0
H155 H 0.39738 0.19012 0.38648 0.0
H156 H 0.29514 0.16135 0.29891 0.0
H157 H 0.27756 0.12259 0.28188 0.0
H158 H 0.12464 1.00816 0.29165 0.0
H159 H 0.14183 0.04749 0.30856 0.0
Pr160 Pr 0.9264 0.1673 0.3597 0.0
Pr161 Pr 0.91897 0.1436 0.33414 0.0
C162 C 0.9405 0.217 0.37757 0.0
C163 C 0.92274 0.21285 0.3882 0.0
C164 C 0.90206 0.16633 0.39368 0.0
C165 C 0.89133 0.16524 0.40415 0.0
C166 C 0.90147 0.21071 0.40928 0.0
C167 C 0.92002 0.25658 0.40362 0.0
C168 C 0.93054 0.25758 0.39319 0.0
C169 C 0.89511 0.06382 0.35524 0.0
C170 C 0.81122 0.1106 0.34824 0.0
C171 C 0.91377 0.10557 0.31517 0.0
C172 C 0.93733 0.12006 0.30484 0.0
C173 C 0.94702 0.16594 0.29997 0.0
C174 C 0.96853 0.17789 0.29011 0.0
C175 C 0.98091 0.14426 0.28488 0.0
C176 C 0.97153 0.09865 0.28986 0.0
C177 C 0.94999 0.08674 0.29969 0.0
C178 C 0.95667 0.24933 0.33902 0.0
C179 C 1.02662 0.17371 0.34739 0.0
O180 O 0.91106 0.21828 0.37027 0.0
O181 O 0.96408 0.19149 0.37515 0.0
O182 O 0.90526 0.09999 0.3491 0.0
O183 O 0.89986 0.08103 0.3646 0.0
O184 O 0.83128 0.10355 0.33967 0.0
O185 O 0.83997 0.13905 0.356 0.0
O186 O 0.94232 0.10298 0.32249 0.0
O187 O 0.88438 0.12403 0.31823 0.0
O188 O 0.94317 0.21165 0.34488 0.0
O189 O 0.94973 0.23205 0.32969 0.0
O190 O 1.01084 0.19172 0.355 0.0
O191 O 0.99775 0.15045 0.33924 0.0
H192 H 0.89572 0.13132 0.38995 0.0
H193 H 0.87722 0.12939 0.40832 0.0
H194 H 0.9274 0.29203 0.40732 0.0
H195 H 0.94634 0.29378 0.38908 0.0
H196 H 0.93777 0.19248 0.30377 0.0
H197 H 0.97467 0.2131 0.28652 0.0
H198 H 0.98133 0.07219 0.28621 0.0
H199 H 0.94313 0.05124 0.30328 0.0
Pr200 Pr 0.88115 0.77009 0.35976 0.0
Pr201 Pr 0.90522 0.78668 0.3342 0.0
C202 C 0.83067 0.73423 0.37755 0.0
C203 C 0.8335 0.71994 0.3882 0.0
C204 C 0.87942 0.74495 0.39387 0.0
C205 C 0.87924 0.73478 0.40435 0.0
C206 C 0.83308 0.69975 0.4093 0.0
C207 C 0.78778 0.67328 0.40346 0.0
C208 C 0.78804 0.68332 0.39302 0.0
C209 C 0.98465 0.84201 0.35535 0.0
C210 C 0.938 0.71164 0.34827 0.0
C211 C 0.94357 0.81973 0.31527 0.0
C212 C 0.92914 0.82882 0.30493 0.0
C213 C 0.88327 0.79265 0.30008 0.0
C214 C 0.87131 0.80222 0.29022 0.0
C215 C 0.90487 0.84822 0.28499 0.0
C216 C 0.9505 0.88444 0.28996 0.0
C217 C 0.96244 0.87479 0.29978 0.0
C218 C 0.79955 0.71864 0.33903 0.0
C219 C 0.87532 0.86448 0.34749 0.0
O220 O 0.82944 0.70358 0.37023 0.0
O221 O 0.85686 0.78343 0.37522 0.0
O222 O 0.94852 0.81621 0.34919 0.0
O223 O 0.96738 0.82947 0.3647 0.0
O224 O 0.94507 0.73882 0.33971 0.0
O225 O 0.90958 0.71195 0.35604 0.0
O226 O 0.94597 0.85081 0.32259 0.0
O227 O 0.92515 0.77184 0.3183 0.0
O228 O 0.83713 0.74282 0.34491 0.0
O229 O 0.81689 0.729 0.32971 0.0
O230 O 0.85746 0.8308 0.35512 0.0
O231 O 0.89834 0.85867 0.33932 0.0
H232 H 0.91498 0.7734 0.39027 0.0
H233 H 0.9147 0.75591 0.40864 0.0
H234 H 0.7518 0.64544 0.40701 0.0
H235 H 0.75225 0.66358 0.38877 0.0
H236 H 0.85676 0.75688 0.30387 0.0
H237 H 0.8361 0.77312 0.28664 0.0
H238 H 0.97693 0.92069 0.28632 0.0
H239 H 0.99794 0.90341 0.30337 0.0
Pr240 Pr 0.91889 0.78561 0.83428 0.0
Pr241 Pr 0.92595 0.76989 0.85985 0.0
C242 C 0.91461 0.81882 0.81531 0.0
C243 C 0.9394 0.82858 0.80509 0.0
C244 C 0.95199 0.79384 0.80049 0.0
C245 C 0.9751 0.80421 0.79077 0.0
C246 C 0.98641 0.84967 0.78546 0.0
C247 C 0.97386 0.88434 0.79014 0.0
C248 C 0.95063 0.87386 0.79982 0.0
C249 C 0.95644 0.71761 0.83923 0.0
C250 C 1.02661 0.8629 0.84754 0.0
C251 C 0.93848 0.73491 0.87795 0.0
C252 C 0.91899 0.72275 0.88853 0.0
C253 C 0.90368 0.75354 0.89389 0.0
C254 C 0.8902 0.74404 0.90425 0.0
C255 C 0.89161 0.70349 0.90941 0.0
C256 C 0.90537 0.67182 0.90389 0.0
C257 C 0.91896 0.68143 0.89356 0.0
C258 C 0.89463 0.84198 0.85528 0.0
C259 C 0.81109 0.71052 0.84825 0.0
O260 O 0.94218 0.84989 0.82272 0.0
O261 O 0.88555 0.77073 0.81826 0.0
O262 O 0.94299 0.74188 0.84509 0.0
O263 O 0.94953 0.72784 0.8299 0.0
O264 O 1.01061 0.82937 0.85519 0.0
O265 O 0.99786 0.85723 0.83937 0.0
O266 O 0.90925 0.70396 0.87065 0.0
O267 O 0.96354 0.78376 0.87533 0.0
O268 O 0.90495 0.81589 0.84918 0.0
O269 O 0.8993 0.82971 0.86464 0.0
O270 O 0.83113 0.73773 0.8397 0.0
O271 O 0.83983 0.71108 0.85603 0.0
H272 H 0.9441 0.75876 0.80441 0.0
H273 H 0.98473 0.7769 0.78747 0.0
H274 H 0.98123 0.91934 0.78626 0.0
H275 H 0.9412 0.90121 0.80318 0.0
H276 H 0.90318 0.78554 0.89014 0.0
H277 H 0.8792 0.76876 0.90825 0.0
H278 H 0.90756 0.64072 0.90764 0.0
H279 H 0.93089 0.6574 0.88957 0.0
Pr280 Pr 0.26121 0.14174 0.83415 0.0
Pr281 Pr 0.27729 0.16581 0.85971 0.0
C282 C 0.22815 0.10327 0.81522 0.0
C283 C 0.21912 0.11755 0.80486 0.0
C284 C 0.25596 0.16257 0.79984 0.0
C285 C 0.24639 0.17437 0.78997 0.0
C286 C 0.19974 0.14149 0.78488 0.0
C287 C 0.16291 0.09668 0.79 0.0
C288 C 0.17255 0.0849 0.79984 0.0
C289 C 0.32996 0.24722 0.83899 0.0
C290 C 0.18449 0.17329 0.84733 0.0
C291 C 0.31137 0.21331 0.87784 0.0
C292 C 0.32159 0.20529 0.88858 0.0
C293 C 0.28335 0.19194 0.89609 0.0
C294 C 0.29412 0.18925 0.90639 0.0
C295 C 0.34349 0.20011 0.90947 0.0
C296 C 0.38147 0.21234 0.90194 0.0
C297 C 0.37068 0.21505 0.89161 0.0
C298 C 0.2051 0.06236 0.85528 0.0
C299 C 0.33565 0.10892 0.84833 0.0
O300 O 0.19717 0.10115 0.82253 0.0
O301 O 0.27595 0.1215 0.81826 0.0
O302 O 0.30539 0.20973 0.84487 0.0
O303 O 0.31962 0.22995 0.82966 0.0
O304 O 0.21835 0.19139 0.85491 0.0
O305 O 0.18978 0.14953 0.83922 0.0
O306 O 0.34247 0.21398 0.87066 0.0
O307 O 0.26302 0.19158 0.87495 0.0
O308 O 0.23106 0.09851 0.84913 0.0
O309 O 0.21739 0.07962 0.86462 0.0
O310 O 0.3083 0.10139 0.83979 0.0
O311 O 0.33582 0.13801 0.85601 0.0
H312 H 0.29224 0.18856 0.80353 0.0
H313 H 0.27597 0.20891 0.78627 0.0
H314 H 0.12619 0.0708 0.78647 0.0
H315 H 0.14343 0.05005 0.80354 0.0
H316 H 0.24535 0.18494 0.89405 0.0
H317 H 0.26419 0.18061 0.91198 0.0
H318 H 0.41977 0.22047 0.90403 0.0
H319 H 0.40117 0.22589 0.88604 0.0
Pr320 Pr 0.9063 0.12981 0.83418 0.0
Pr321 Pr 0.88228 0.12234 0.85968 0.0
C322 C 0.94402 0.13406 0.81524 0.0
C323 C 0.92855 0.10952 0.80496 0.0
C324 C 0.90066 0.12232 0.79805 0.0
C325 C 0.88852 0.10044 0.78823 0.0
C326 C 0.90413 0.06537 0.78504 0.0
C327 C 0.93174 0.05244 0.79199 0.0
C328 C 0.94391 0.07434 0.80178 0.0
C329 C 0.80078 0.0933 0.83889 0.0
C330 C 0.8752 0.02166 0.84742 0.0
C331 C 0.83485 0.10984 0.87778 0.0
C332 C 0.84327 0.12776 0.88852 0.0
C333 C 0.87901 0.1235 0.89481 0.0
C334 C 0.88219 0.1353 0.90524 0.0
C335 C 0.84991 0.1518 0.90958 0.0
C336 C 0.81556 0.15784 0.90318 0.0
C337 C 0.81218 0.14576 0.89277 0.0
C338 C 0.98563 0.1533 0.85527 0.0
C339 C 0.93912 0.2376 0.84816 0.0
O340 O 0.94672 0.10598 0.82265 0.0
O341 O 0.92664 0.16444 0.81826 0.0
O342 O 0.838 0.10632 0.84485 0.0
O343 O 0.81842 0.09997 0.82959 0.0
O344 O 0.85729 0.03759 0.85502 0.0
O345 O 0.89863 0.05057 0.83928 0.0
O346 O 0.83569 0.14143 0.87072 0.0
O347 O 0.85511 0.08194 0.87483 0.0
O348 O 0.94953 0.14317 0.84914 0.0
O349 O 0.96841 0.14849 0.86462 0.0
O350 O 0.94664 0.21756 0.83965 0.0
O351 O 0.91023 0.20876 0.85588 0.0
H352 H 0.88864 0.14968 0.80018 0.0
H353 H 0.86784 0.11193 0.78307 0.0
H354 H 0.94382 0.02509 0.7899 0.0
H355 H 0.96577 0.0639 0.80687 0.0
H356 H 0.90368 0.10991 0.89175 0.0
H357 H 0.90946 0.13084 0.90995 0.0
H358 H 0.78975 0.1699 0.9063 0.0
H359 H 0.78411 0.14903 0.88809 0.0
Pr360 Pr 0.79614 0.9107 0.6948 0.0
Pr361 Pr 0.78078 0.91782 0.66927 0.0
C362 C 0.8288 0.90678 0.71383 0.0
C363 C 0.83831 0.93217 0.72405 0.0
C364 C 0.79951 0.914 0.73157 0.0
C365 C 0.80966 0.93632 0.74135 0.0
C366 C 0.85898 0.97718 0.7439 0.0
C367 C 0.89763 0.99549 0.73634 0.0
C368 C 0.8875 0.97321 0.72658 0.0
C369 C 0.72795 0.94797 0.68987 0.0
C370 C 0.87386 1.0186 0.68158 0.0
C371 C 0.74631 0.93022 0.65112 0.0
C372 C 0.73559 0.91131 0.64047 0.0
C373 C 0.77358 0.91024 0.63432 0.0
C374 C 0.76427 0.89761 0.62393 0.0
C375 C 0.71678 0.88558 0.61951 0.0
C376 C 0.67825 0.88486 0.62578 0.0
C377 C 0.68766 0.89775 0.63614 0.0
C378 C 0.85269 0.88644 0.67387 0.0
C379 C 0.72146 0.80271 0.68086 0.0
O380 O 0.85994 0.93363 0.70636 0.0
O381 O 0.78089 0.87718 0.71084 0.0
O382 O 0.7523 0.93473 0.68399 0.0
O383 O 0.73825 0.94106 0.69919 0.0
O384 O 0.84056 1.00256 0.67389 0.0
O385 O 0.86786 0.98985 0.68977 0.0
O386 O 0.71524 0.89999 0.65831 0.0
O387 O 0.79476 0.9568 0.65394 0.0
O388 O 0.82661 0.8968 0.67995 0.0
O389 O 0.8406 0.89117 0.6645 0.0
O390 O 0.74849 0.82285 0.68942 0.0
O391 O 0.72209 0.83145 0.67306 0.0
H392 H 0.76138 0.88201 0.72995 0.0
H393 H 0.77909 0.92064 0.74699 0.0
H394 H 0.93589 0.02727 0.73794 0.0
H395 H 0.91853 0.98795 0.72103 0.0
H396 H 0.81089 0.92031 0.63747 0.0
H397 H 0.7945 0.89791 0.61933 0.0
H398 H 0.64147 0.87638 0.62259 0.0
H399 H 0.65792 0.89861 0.64071 0.0
Pr400 Pr 0.13872 0.89584 0.69523 0.0
Pr401 Pr 0.13162 0.87272 0.66969 0.0
C402 C 0.14415 0.93403 0.7142 0.0
C403 C 0.12099 0.91973 0.72456 0.0
C404 C 0.10956 0.87296 0.72925 0.0
C405 C 0.08827 0.86106 0.73914 0.0
C406 C 0.07785 0.89562 0.74455 0.0
C407 C 0.08906 0.94221 0.73974 0.0
C408 C 0.11037 0.95405 0.72989 0.0
C409 C 0.10128 0.79018 0.69032 0.0
C410 C 0.03115 0.86572 0.68197 0.0
C411 C 0.11861 0.82585 0.6515 0.0
C412 C 0.13702 0.83417 0.64076 0.0
C413 C 0.11157 0.84674 0.63325 0.0
C414 C 0.12522 0.84973 0.62294 0.0
C415 C 0.1645 0.83993 0.61987 0.0
C416 C 0.19076 0.82846 0.62741 0.0
C417 C 0.17709 0.82547 0.63774 0.0
C418 C 0.1629 0.97616 0.67421 0.0
C419 C 0.24654 0.92874 0.68121 0.0
O420 O 0.11522 0.93622 0.70692 0.0
O421 O 0.17357 0.91564 0.71112 0.0
O422 O 0.11484 0.82786 0.68445 0.0
O423 O 0.108 0.80739 0.69965 0.0
O424 O 0.04703 0.84766 0.67439 0.0
O425 O 0.05996 0.88904 0.69012 0.0
O426 O 0.14887 0.82491 0.65867 0.0
O427 O 0.09196 0.84753 0.65442 0.0
O428 O 0.15254 0.93986 0.68033 0.0
O429 O 0.15823 0.95909 0.66486 0.0
O430 O 0.22644 0.93601 0.68974 0.0
O431 O 0.2178 0.9001 0.67346 0.0
H432 H 0.11723 0.84567 0.72531 0.0
H433 H 0.08073 0.82508 0.74259 0.0
H434 H 0.08081 0.96945 0.74353 0.0
H435 H 0.11861 0.99027 0.72643 0.0
H436 H 0.08 0.8529 0.63527 0.0
H437 H 0.10353 0.85775 0.61735 0.0
H438 H 0.22151 0.82115 0.62532 0.0
H439 H 0.19719 0.81525 0.64332 0.0
Pr440 Pr 0.15247 0.25283 0.69525 0.0
Pr441 Pr 0.17697 0.26976 0.6697 0.0
C442 C 0.11396 0.21911 0.71416 0.0
C443 C 0.12861 0.20918 0.72439 0.0
C444 C 0.17731 0.24184 0.72869 0.0
C445 C 0.18986 0.23129 0.73841 0.0
C446 C 0.15412 0.18768 0.74401 0.0
C447 C 0.1055 0.15508 0.73962 0.0
C448 C 0.09296 0.16575 0.72994 0.0
C449 C 0.2582 0.32086 0.69048 0.0
C450 C 0.18295 0.17546 0.68198 0.0
C451 C 0.22751 0.30589 0.65192 0.0
C452 C 0.22466 0.32028 0.64127 0.0
C453 C 0.17949 0.29349 0.63543 0.0
C454 C 0.18001 0.30393 0.62496 0.0
C455 C 0.22578 0.34107 0.62018 0.0
C456 C 0.27018 0.36928 0.6262 0.0
C457 C 0.26958 0.35893 0.63663 0.0
C458 C 0.07339 0.19784 0.67404 0.0
C459 C 0.12006 0.32814 0.68121 0.0
O460 O 0.11091 0.18823 0.70674 0.0
O461 O 0.13317 0.26728 0.71124 0.0
O462 O 0.2207 0.29669 0.68459 0.0
O463 O 0.24075 0.31047 0.69979 0.0
O464 O 0.20076 0.20912 0.67434 0.0
O465 O 0.15981 0.18115 0.69014 0.0
O466 O 0.2287 0.33644 0.65926 0.0
O467 O 0.2015 0.25667 0.65424 0.0
O468 O 0.10943 0.22349 0.68022 0.0
O469 O 0.09083 0.21049 0.6647 0.0
O470 O 0.11277 0.30082 0.68976 0.0
O471 O 0.14864 0.32794 0.67346 0.0
H472 H 0.2057 0.2754 0.72454 0.0
H473 H 0.22786 0.25693 0.74147 0.0
H474 H 0.07668 0.12159 0.74372 0.0
H475 H 0.05514 0.14001 0.7268 0.0
H476 H 0.14434 0.26346 0.63888 0.0
H477 H 0.14526 0.28142 0.62053 0.0
H478 H 0.30578 0.39873 0.62279 0.0
H479 H 0.30478 0.38008 0.64102 0.0
Pr480 Pr 0.79877 0.6024 0.50301 0.0
Pr481 Pr 0.80588 0.58643 0.52861 0.0
C482 C 0.7846 0.63788 0.48514 0.0
C483 C 0.80201 0.65234 0.47449 0.0
C484 C 0.81895 0.62457 0.46854 0.0
C485 C 0.82883 0.63516 0.45807 0.0
C486 C 0.82163 0.67345 0.45341 0.0
C487 C 0.80698 0.70263 0.45953 0.0
C488 C 0.79726 0.69213 0.46996 0.0
C489 C 0.83083 0.53096 0.50756 0.0
C490 C 0.91379 0.66152 0.51457 0.0
C491 C 0.81024 0.55338 0.5476 0.0
C492 C 0.78527 0.54345 0.55781 0.0
C493 C 0.77297 0.57832 0.56246 0.0
C494 C 0.74982 0.56788 0.57218 0.0
C495 C 0.73817 0.52222 0.57745 0.0
C496 C 0.75041 0.48741 0.57272 0.0
C497 C 0.77368 0.49796 0.56304 0.0
C498 C 0.76828 0.65434 0.52363 0.0
C499 C 0.69806 0.50885 0.51537 0.0
O500 O 0.81344 0.66871 0.49249 0.0
O501 O 0.76178 0.5887 0.48749 0.0
O502 O 0.82004 0.55666 0.51367 0.0
O503 O 0.82624 0.54326 0.49819 0.0
O504 O 0.89369 0.63441 0.52314 0.0
O505 O 0.88507 0.66098 0.50678 0.0
O506 O 0.78297 0.52219 0.54018 0.0
O507 O 0.83906 0.60151 0.54465 0.0
O508 O 0.78167 0.62992 0.51781 0.0
O509 O 0.77527 0.64433 0.53297 0.0
O510 O 0.71426 0.54205 0.50765 0.0
O511 O 0.72669 0.51479 0.52357 0.0
H512 H 0.82291 0.59366 0.4719 0.0
H513 H 0.83986 0.61188 0.45356 0.0
H514 H 0.80195 0.73296 0.4562 0.0
H515 H 0.78433 0.71405 0.47442 0.0
H516 H 0.78114 0.61357 0.55858 0.0
H517 H 0.74045 0.59531 0.5755 0.0
H518 H 0.74278 0.45226 0.57657 0.0
H519 H 0.78289 0.47052 0.55965 0.0
Pr520 Pr 0.44567 0.20701 0.50328 0.0
Pr521 Pr 0.46076 0.23003 0.52885 0.0
C522 C 0.41157 0.15948 0.48517 0.0
C523 C 0.40077 0.16741 0.4745 0.0
C524 C 0.43873 0.2063 0.46832 0.0
C525 C 0.42926 0.20951 0.45794 0.0
C526 C 0.38162 0.17409 0.45355 0.0
C527 C 0.34315 0.1364 0.45985 0.0
C528 C 0.35272 0.13303 0.4702 0.0
C529 C 0.51717 0.31053 0.50782 0.0
C530 C 0.38594 0.26244 0.51473 0.0
C531 C 0.49263 0.26825 0.54783 0.0
C532 C 0.50171 0.25408 0.55818 0.0
C533 C 0.46573 0.20815 0.56305 0.0
C534 C 0.47538 0.1964 0.57292 0.0
C535 C 0.52126 0.23026 0.57814 0.0
C536 C 0.55724 0.27601 0.57316 0.0
C537 C 0.54751 0.28772 0.56333 0.0
C538 C 0.39348 0.12431 0.52387 0.0
C539 C 0.53988 0.20198 0.51565 0.0
O540 O 0.38033 0.15844 0.49234 0.0
O541 O 0.46002 0.1818 0.48801 0.0
O542 O 0.49106 0.27428 0.51394 0.0
O543 O 0.50502 0.29341 0.49846 0.0
O544 O 0.413 0.26974 0.5233 0.0
O545 O 0.38657 0.23406 0.50698 0.0
O546 O 0.52417 0.27121 0.54056 0.0
O547 O 0.4448 0.24917 0.54472 0.0
O548 O 0.41763 0.1621 0.51803 0.0
O549 O 0.40346 0.14142 0.53321 0.0
O550 O 0.50664 0.18396 0.50796 0.0
O551 O 0.53323 0.22398 0.52388 0.0
H552 H 0.47613 0.23354 0.47144 0.0
H553 H 0.45946 0.23935 0.45332 0.0
H554 H 0.30626 0.10814 0.45669 0.0
H555 H 0.32299 0.10255 0.4748 0.0
H556 H 0.43008 0.1814 0.55926 0.0
H557 H 0.44647 0.1611 0.57651 0.0
H558 H 0.59339 0.30267 0.5768 0.0
H559 H 0.57597 0.32329 0.55973 0.0
Pr560 Pr 0.84222 0.25396 0.5032 0.0
Pr561 Pr 0.81946 0.24313 0.5278 0.0
C562 C 0.88451 0.2617 0.48464 0.0
C563 C 0.88109 0.24082 0.47428 0.0
C564 C 0.83676 0.22352 0.46821 0.0
C565 C 0.83789 0.2124 0.45782 0.0
C566 C 0.88345 0.21877 0.45335 0.0
C567 C 0.92668 0.2332 0.45962 0.0
C568 C 0.92548 0.24413 0.46997 0.0
C569 C 0.74449 0.23522 0.50868 0.0
C570 C 0.7866 0.13563 0.51386 0.0
C571 C 0.78335 0.23854 0.54695 0.0
C572 C 0.79927 0.26416 0.55715 0.0
C573 C 0.82089 0.24671 0.56461 0.0
C574 C 0.83309 0.26907 0.57439 0.0
C575 C 0.82372 0.30929 0.57702 0.0
C576 C 0.80238 0.32688 0.56953 0.0
C577 C 0.7902 0.30456 0.55976 0.0
C578 C 0.92612 0.28391 0.52349 0.0
C579 C 0.85315 0.35333 0.51553 0.0
O580 O 0.89317 0.23934 0.4924 0.0
O581 O 0.85477 0.28085 0.48683 0.0
O582 O 0.76873 0.21657 0.51326 0.0
O583 O 0.76804 0.25887 0.50031 0.0
O584 O 0.78354 0.15508 0.52285 0.0
O585 O 0.80915 0.16523 0.50577 0.0
O586 O 0.77769 0.26463 0.53949 0.0
O587 O 0.80273 0.20997 0.54388 0.0
O588 O 0.8894 0.27112 0.51745 0.0
O589 O 0.90741 0.27424 0.53269 0.0
O590 O 0.87517 0.33917 0.50846 0.0
O591 O 0.82471 0.32154 0.52293 0.0
H592 H 0.802 0.22068 0.47137 0.0
H593 H 0.80403 0.20152 0.45318 0.0
H594 H 0.96206 0.23763 0.45644 0.0
H595 H 0.9601 0.25743 0.47451 0.0
H596 H 0.82775 0.21521 0.56295 0.0
H597 H 0.84874 0.25389 0.57997 0.0
H598 H 0.79516 0.35816 0.57119 0.0
H599 H 0.77317 0.31876 0.55427 0.0
Pr600 Pr 0.94435 0.45497 0.6931 0.0
Pr601 Pr 0.92876 0.46218 0.66757 0.0
C602 C 0.97901 0.44266 0.71124 0.0
C603 C 0.98958 0.46155 0.7219 0.0
C604 C 0.95102 0.46095 0.72813 0.0
C605 C 0.96038 0.47368 0.73851 0.0
C606 C 1.00852 0.48746 0.74286 0.0
C607 C 0.04756 0.48982 0.73651 0.0
C608 C 0.0381 0.47683 0.72615 0.0
C609 C 0.87231 0.48627 0.68858 0.0
C610 C 1.00342 0.5701 0.68155 0.0
C611 C 0.896 0.46587 0.64851 0.0
C612 C 0.88688 0.44107 0.63823 0.0
C613 C 0.92744 0.45426 0.63126 0.0
C614 C 0.91766 0.43248 0.62143 0.0
C615 C 0.86704 0.3971 0.61826 0.0
C616 C 0.82663 0.38374 0.62529 0.0
C617 C 0.8364 0.40552 0.6351 0.0
C618 C 0.99705 0.42498 0.67251 0.0
C619 C 0.85123 0.35434 0.68083 0.0
O620 O 1.00998 0.47306 0.70406 0.0
O621 O 0.93059 0.4158 0.7084 0.0
O622 O 0.89833 0.47603 0.68245 0.0
O623 O 0.88455 0.48145 0.69794 0.0
O624 O 0.97624 0.55006 0.67299 0.0
O625 O 1.00304 0.54125 0.6893 0.0
O626 O 0.86493 0.43832 0.65594 0.0
O627 O 0.94373 0.49597 0.65155 0.0
O628 O 0.97265 0.43825 0.67837 0.0
O629 O 0.9868 0.43188 0.66318 0.0
O630 O 0.88485 0.37025 0.68845 0.0
O631 O 0.85695 0.3832 0.67267 0.0
H632 H 0.91324 0.44953 0.72506 0.0
H633 H 0.92972 0.47208 0.74318 0.0
H634 H 0.08486 0.49968 0.73963 0.0
H635 H 0.06831 0.47727 0.72151 0.0
H636 H 0.96675 0.48194 0.63334 0.0
H637 H 0.94975 0.44433 0.61622 0.0
H638 H 0.78725 0.35616 0.62323 0.0
H639 H 0.80416 0.39477 0.64022 0.0
Pr640 Pr 0.59341 0.50069 0.69322 0.0
Pr641 Pr 0.58566 0.47655 0.66766 0.0
C642 C 0.60664 0.54947 0.7112 0.0
C643 C 0.58765 0.54322 0.72181 0.0
C644 C 0.57131 0.49718 0.72726 0.0
C645 C 0.55846 0.49416 0.73764 0.0
C646 C 0.56157 0.53707 0.74275 0.0
C647 C 0.57634 0.58247 0.73713 0.0
C648 C 0.58927 0.58547 0.72678 0.0
C649 C 0.56199 0.39712 0.6888 0.0
C650 C 0.47809 0.44377 0.68178 0.0
C651 C 0.58014 0.43797 0.64873 0.0
C652 C 0.60332 0.45219 0.63836 0.0
C653 C 0.61519 0.49914 0.63369 0.0
C654 C 0.63652 0.511 0.6238 0.0
C655 C 0.64656 0.47623 0.61837 0.0
C656 C 0.63489 0.42945 0.62315 0.0
C657 C 0.61353 0.41765 0.633 0.0
C658 C 0.62324 0.58233 0.67244 0.0
C659 C 0.69351 0.50691 0.68088 0.0
O660 O 0.5773 0.55083 0.70389 0.0
O661 O 0.63129 0.52517 0.70866 0.0
O662 O 0.57207 0.43325 0.68265 0.0
O663 O 0.56694 0.41443 0.69814 0.0
O664 O 0.49806 0.4366 0.67321 0.0
O665 O 0.50691 0.47231 0.68953 0.0
O666 O 0.60907 0.4359 0.65602 0.0
O667 O 0.55071 0.45638 0.65178 0.0
O668 O 0.60989 0.54486 0.67836 0.0
O669 O 0.61619 0.5648 0.66313 0.0
O670 O 0.67785 0.52497 0.6885 0.0
O671 O 0.66452 0.48359 0.67275 0.0
H672 H 0.56954 0.46395 0.72355 0.0
H673 H 0.54662 0.45843 0.7417 0.0
H674 H 0.57985 0.61647 0.74083 0.0
H675 H 0.60202 0.62141 0.72272 0.0
H676 H 0.60784 0.5266 0.63765 0.0
H677 H 0.6444 0.54713 0.62037 0.0
H678 H 0.64282 0.40203 0.61935 0.0
H679 H 0.60496 0.38129 0.63645 0.0
Pr680 Pr 0.5485 0.1035 0.69314 0.0
Pr681 Pr 0.57191 0.1203 0.66759 0.0
C682 C 0.49904 0.06763 0.71102 0.0
C683 C 0.50329 0.05399 0.72165 0.0
C684 C 0.54963 0.0803 0.72715 0.0
C685 C 0.5507 0.07068 0.73762 0.0
C686 C 0.50539 0.03489 0.74272 0.0
C687 C 0.45974 1.0071 0.73704 0.0
C688 C 0.45875 1.01661 0.72661 0.0
C689 C 0.65192 0.17538 0.68866 0.0
C690 C 0.6048 0.04494 0.68146 0.0
C691 C 0.6098 0.15389 0.64865 0.0
C692 C 0.59463 0.16355 0.63845 0.0
C693 C 0.5464 0.12978 0.63409 0.0
C694 C 0.53336 0.14011 0.6244 0.0
C695 C 0.56812 0.1846 0.6189 0.0
C696 C 0.61626 0.2183 0.62336 0.0
C697 C 0.62931 0.20785 0.633 0.0
C698 C 0.46634 0.05217 0.67247 0.0
C699 C 0.54205 0.1978 0.68098 0.0
O700 O 0.49782 0.03699 0.7037 0.0
O701 O 0.52435 0.11676 0.70862 0.0
O702 O 0.61563 0.14966 0.68253 0.0
O703 O 0.63486 0.1628 0.69802 0.0
O704 O 0.61182 0.07231 0.67294 0.0
O705 O 0.57653 0.04518 0.68927 0.0
O706 O 0.61293 0.18481 0.65607 0.0
O707 O 0.59096 0.10579 0.65158 0.0
O708 O 0.50398 0.0763 0.67833 0.0
O709 O 0.48356 0.06266 0.66314 0.0
O710 O 0.52453 0.16415 0.68862 0.0
O711 O 0.56483 0.19205 0.67277 0.0
H712 H 0.58449 0.10934 0.72345 0.0
H713 H 0.58638 0.09279 0.74181 0.0
H714 H 0.42442 0.97868 0.74071 0.0
H715 H 0.42268 0.99584 0.72248 0.0
H716 H 0.51874 0.09552 0.63817 0.0
H717 H 0.49574 0.1136 0.62129 0.0
H718 H 0.64433 0.25251 0.61932 0.0
H719 H 0.66675 0.23444 0.63619 0.0
Pr720 Pr 0.58632 0.11934 0.16748 0.0
Pr721 Pr 0.59354 0.1029 0.19305 0.0
C722 C 0.5813 0.15256 0.14855 0.0
C723 C 0.60569 0.16216 0.13831 0.0
C724 C 0.61962 0.12816 0.13384 0.0
C725 C 0.64257 0.13846 0.1241 0.0
C726 C 0.65242 0.18314 0.11867 0.0
C727 C 0.63847 0.21706 0.12322 0.0
C728 C 0.61539 0.20663 0.13291 0.0
C729 C 0.62392 0.0513 0.17234 0.0
C730 C 0.69396 0.19695 0.18074 0.0
C731 C 0.60794 0.06719 0.21087 0.0
C732 C 0.59073 0.05296 0.22152 0.0
C733 C 0.57148 0.07925 0.22729 0.0
C734 C 0.56159 0.06906 0.23777 0.0
C735 C 0.57112 0.03269 0.24262 0.0
C736 C 0.58818 1.00495 0.23668 0.0
C737 C 0.59789 1.01503 0.22624 0.0
C738 C 0.56201 0.17484 0.18858 0.0
C739 C 0.47847 0.04425 0.1815 0.0
O740 O 0.60928 0.18362 0.15593 0.0
O741 O 0.5523 0.10448 0.15152 0.0
O742 O 0.61052 0.07557 0.17821 0.0
O743 O 0.61699 0.0616 0.16301 0.0
O744 O 0.67799 0.16342 0.1884 0.0
O745 O 0.66526 0.19112 0.17255 0.0
O746 O 0.57866 0.03647 0.20355 0.0
O747 O 0.63098 0.11637 0.20852 0.0
O748 O 0.57245 0.14898 0.18245 0.0
O749 O 0.56661 0.16237 0.19794 0.0
O750 O 0.49863 0.07141 0.17295 0.0
O751 O 0.50709 0.04465 0.1893 0.0
H752 H 0.61293 0.09374 0.13787 0.0
H753 H 0.65329 0.11177 0.1209 0.0
H754 H 0.64471 0.25142 0.11923 0.0
H755 H 0.60492 0.23338 0.13618 0.0
H756 H 0.56567 0.10872 0.22378 0.0
H757 H 0.54865 0.09119 0.24215 0.0
H758 H 0.59505 0.97609 0.24015 0.0
H759 H 0.61262 0.99428 0.22191 0.0
Pr760 Pr 0.93009 0.47624 0.16745 0.0
Pr761 Pr 0.94529 0.49968 0.19296 0.0
C762 C 0.89893 0.43751 0.14847 0.0
C763 C 0.89268 0.45227 0.13798 0.0
C764 C 0.92678 0.50108 0.13388 0.0
C765 C 0.9199 0.51369 0.12388 0.0
C766 C 0.87872 0.4778 0.11777 0.0
C767 C 0.84456 0.4291 0.12198 0.0
C768 C 0.85152 0.41656 0.13195 0.0
C769 C 0.99839 0.58189 0.17228 0.0
C770 C 0.85212 0.50635 0.1805 0.0
C771 C 0.97833 0.54675 0.21116 0.0
C772 C 0.98808 0.53862 0.22194 0.0
C773 C 0.95049 0.52806 0.22945 0.0
C774 C 0.96084 0.52514 0.23977 0.0
C775 C 1.0092 0.53304 0.24286 0.0
C776 C 0.0465 0.54259 0.23533 0.0
C777 C 0.03611 0.54547 0.22498 0.0
C778 C 0.87317 0.3962 0.18847 0.0
C779 C 1.00462 0.44359 0.18163 0.0
O780 O 0.8675 0.43723 0.15549 0.0
O781 O 0.946 0.45441 0.15183 0.0
O782 O 0.97411 0.54439 0.17819 0.0
O783 O 0.988 0.5645 0.16297 0.0
O784 O 0.886 0.5248 0.18808 0.0
O785 O 0.85772 0.48264 0.17242 0.0
O786 O 1.00982 0.54769 0.20405 0.0
O787 O 0.93012 0.52491 0.20818 0.0
O788 O 0.89931 0.43238 0.18234 0.0
O789 O 0.88535 0.41341 0.19782 0.0
O790 O 0.97744 0.4362 0.17308 0.0
O791 O 1.00422 0.47221 0.18936 0.0
H792 H 0.95879 0.5294 0.13839 0.0
H793 H 0.9473 0.55136 0.12089 0.0
H794 H 0.81189 0.40072 0.11763 0.0
H795 H 0.82454 0.37878 0.13497 0.0
H796 H 0.91337 0.52339 0.2274 0.0
H797 H 0.93151 0.51864 0.24536 0.0
H798 H 0.08399 0.54842 0.23744 0.0
H799 H 0.06611 0.55411 0.2194 0.0
Pr800 Pr 0.57221 0.46194 0.16751 0.0
Pr801 Pr 0.54964 0.45477 0.19305 0.0
C802 C 0.60948 0.46673 0.14849 0.0
C803 C 0.59416 0.44231 0.13825 0.0
C804 C 0.54689 0.4302 0.13371 0.0
C805 C 0.53383 0.4073 0.12397 0.0
C806 C 0.56759 0.3957 0.11859 0.0
C807 C 0.61478 0.40784 0.12321 0.0
C808 C 0.62784 0.43086 0.1329 0.0
C809 C 0.4668 0.42472 0.17247 0.0
C810 C 0.54191 0.35403 0.18072 0.0
C811 C 0.50309 0.44178 0.21129 0.0
C812 C 0.51121 0.46006 0.22204 0.0
C813 C 0.52448 0.43505 0.22953 0.0
C814 C 0.52701 0.44835 0.23984 0.0
C815 C 0.51607 0.48683 0.24295 0.0
C816 C 0.50397 0.51272 0.23543 0.0
C817 C 0.50141 0.49938 0.2251 0.0
C818 C 0.65291 0.48597 0.18843 0.0
C819 C 0.6053 0.56984 0.18152 0.0
O820 O 0.61276 0.43869 0.15583 0.0
O821 O 0.59088 0.496 0.15154 0.0
O822 O 0.50442 0.43804 0.17833 0.0
O823 O 0.48394 0.43153 0.16313 0.0
O824 O 0.52431 0.37004 0.18836 0.0
O825 O 0.56498 0.38283 0.17255 0.0
O826 O 0.50205 0.47205 0.20413 0.0
O827 O 0.52486 0.41524 0.20835 0.0
O828 O 0.61651 0.47565 0.18235 0.0
O829 O 0.63605 0.48134 0.1978 0.0
O830 O 0.61243 0.54977 0.17297 0.0
O831 O 0.57692 0.54103 0.18929 0.0
H832 H 0.51999 0.43828 0.13769 0.0
H833 H 0.49696 0.39801 0.12072 0.0
H834 H 0.64212 0.40026 0.11928 0.0
H835 H 0.66456 0.43993 0.13622 0.0
H836 H 0.53149 0.40404 0.22747 0.0
H837 H 0.53558 0.42695 0.24542 0.0
H838 H 0.4958 0.54289 0.23755 0.0
H839 H 0.49062 0.51912 0.21954 0.0
Pr840 Pr 0.46211 0.24441 0.02835 0.0
Pr841 Pr 0.4464 0.25211 1.00284 0.0
C842 C 0.49494 0.23898 0.04728 0.0
C843 C 0.50355 0.26212 0.05764 0.0
C844 C 0.46806 0.2734 0.06232 0.0
C845 C 0.47721 0.2946 0.0722 0.0
C846 C 0.52207 0.30504 0.07764 0.0
C847 C 0.55763 0.29408 0.07284 0.0
C848 C 0.54842 0.27287 0.06299 0.0
C849 C 0.39296 0.28065 0.02354 0.0
C850 C 0.53824 0.35326 0.01523 0.0
C851 C 0.41174 0.26443 0.98471 0.0
C852 C 0.40181 0.24581 0.97403 0.0
C853 C 0.44116 0.24806 0.9678 0.0
C854 C 0.43224 0.23548 0.95741 0.0
C855 C 0.38378 0.22018 0.95305 0.0
C856 C 0.344 0.21617 0.9594 0.0
C857 C 0.35301 0.22903 0.96977 0.0
C858 C 0.51917 0.22161 1.0073 0.0
C859 C 0.38816 0.1367 1.01423 0.0
O860 O 0.52599 0.2681 0.04001 0.0
O861 O 0.44721 0.20931 0.04421 0.0
O862 O 0.41745 0.26774 0.01763 0.0
O863 O 0.40353 0.27382 0.03286 0.0
O864 O 0.50466 0.33698 1.0076 0.0
O865 O 0.5331 0.32433 0.02334 0.0
O866 O 0.38083 0.2335 0.99183 0.0
O867 O 0.46 0.29187 0.98761 0.0
O868 O 0.49296 0.23156 1.01343 0.0
O869 O 0.5069 0.22652 0.99796 0.0
O870 O 0.41528 0.1567 0.02279 0.0
O871 O 0.38819 0.1656 1.00652 0.0
H872 H 0.43318 0.26566 0.05835 0.0
H873 H 0.44869 0.30203 0.07565 0.0
H874 H 0.59305 0.3024 0.07665 0.0
H875 H 0.57651 0.26478 0.05954 0.0
H876 H 0.47918 0.26066 0.97088 0.0
H877 H 0.46348 0.23837 0.95274 0.0
H878 H 0.30641 0.2051 0.95626 0.0
H879 H 0.32218 0.2273 0.9744 0.0
Pr880 Pr 0.80408 0.22852 0.02853 0.0
Pr881 Pr 0.79669 0.20447 1.00303 0.0
C882 C 0.80988 0.26735 0.04743 0.0
C883 C 0.78687 0.25315 0.05781 0.0
C884 C 0.77643 0.20685 0.06258 0.0
C885 C 0.7552 0.19499 0.07247 0.0
C886 C 0.74384 0.2291 0.07779 0.0
C887 C 0.75407 0.2752 0.0729 0.0
C888 C 0.77535 0.28703 0.06306 0.0
C889 C 0.76649 0.12268 0.02376 0.0
C890 C 0.69666 0.1989 0.01526 0.0
C891 C 0.78359 0.15688 0.98491 0.0
C892 C 0.80187 0.16494 0.97416 0.0
C893 C 0.77839 0.18031 0.96672 0.0
C894 C 0.79177 0.18298 0.9564 0.0
C895 C 0.8288 0.1701 0.95324 0.0
C896 C 0.85318 0.15589 0.96071 0.0
C897 C 0.83974 0.15317 0.97105 0.0
C898 C 0.82819 0.30807 1.00737 0.0
C899 C 0.91178 0.261 1.01453 0.0
O900 O 0.78071 0.26918 0.04016 0.0
O901 O 0.83941 0.24909 0.04436 0.0
O902 O 0.78003 0.16019 0.01785 0.0
O903 O 0.77325 0.14015 0.03307 0.0
O904 O 0.71225 0.18048 1.00769 0.0
O905 O 0.72555 0.22211 0.0234 0.0
O906 O 0.81413 0.15648 0.99208 0.0
O907 O 0.75669 0.17831 0.98781 0.0
O908 O 0.81788 0.27208 1.01356 0.0
O909 O 0.82336 0.29055 0.99804 0.0
O910 O 0.89171 0.26845 0.02304 0.0
O911 O 0.88301 0.23223 1.00679 0.0
H912 H 0.78481 0.1799 0.0587 0.0
H913 H 0.74843 0.1594 0.07599 0.0
H914 H 0.74509 0.30207 0.07663 0.0
H915 H 0.78283 0.32287 0.05952 0.0
H916 H 0.74853 0.18895 0.96881 0.0
H917 H 0.77154 0.19322 0.95086 0.0
H918 H 0.88224 0.14621 0.95856 0.0
H919 H 0.85824 0.14074 0.97657 0.0
Pr920 Pr 0.82396 0.59064 0.02746 0.0
Pr921 Pr 0.84038 0.60247 1.003 0.0
C922 C 0.79859 0.56135 0.0472 0.0
C923 C 0.8155 0.54928 0.05699 0.0
C924 C 0.85992 0.58596 0.0622 0.0
C925 C 0.87251 0.57458 0.07183 0.0
C926 C 0.84104 0.52628 0.07648 0.0
C927 C 0.79711 0.48946 0.07115 0.0
C928 C 0.78452 0.50088 0.06156 0.0
C929 C 0.92398 0.66314 0.02064 0.0
C930 C 0.84805 0.50771 1.01443 0.0
C931 C 0.88484 0.63605 0.9846 0.0
C932 C 0.8786 0.65097 0.97418 0.0
C933 C 0.83248 0.62258 0.96869 0.0
C934 C 0.8299 0.63346 0.95835 0.0
C935 C 0.87333 0.67296 0.95334 0.0
C936 C 0.91871 0.70259 0.95901 0.0
C937 C 0.92127 0.69161 0.96932 0.0
C938 C 0.73579 0.53464 1.0075 0.0
C939 C 0.78793 0.66328 1.01463 0.0
O940 O 0.78662 0.52861 0.03965 0.0
O941 O 0.82082 0.60944 0.04417 0.0
O942 O 0.89471 0.61959 0.01674 0.0
O943 O 0.90276 0.66929 0.02878 0.0
O944 O 0.85881 0.53699 1.0062 0.0
O945 O 0.83268 0.51851 0.02314 0.0
O946 O 0.89135 0.66762 0.99216 0.0
O947 O 0.85726 0.58712 0.98703 0.0
O948 O 0.77224 0.55875 1.01367 0.0
O949 O 0.75315 0.5467 0.99818 0.0
O950 O 0.77738 0.63215 0.02262 0.0
O951 O 0.82034 0.66643 1.00739 0.0
H952 H 0.88464 0.62367 0.0589 0.0
H953 H 0.90698 0.60368 0.07562 0.0
H954 H 0.77148 0.45217 0.07452 0.0
H955 H 0.74976 0.47207 0.05778 0.0
H956 H 0.79892 0.59111 0.97229 0.0
H957 H 0.79418 0.61037 0.95424 0.0
H958 H 0.95308 0.73283 0.95538 0.0
H959 H 0.9573 0.71376 0.9734 0.0
Pr960 Pr 0.4627 0.93265 0.8366 0.0
Pr961 Pr 0.47351 0.92009 0.86121 0.0
C962 C 0.45472 0.96767 0.81812 0.0
C963 C 0.47537 0.98506 0.80774 0.0
C964 C 0.49324 0.95836 0.8017 0.0
C965 C 0.50423 0.97048 0.7913 0.0
C966 C 0.49716 1.00919 0.7868 0.0
C967 C 0.48212 0.03765 0.79304 0.0
C968 C 0.47132 0.02566 0.8034 0.0
C969 C 0.48155 0.85356 0.84194 0.0
C970 C 0.58083 0.9952 0.8473 0.0
C971 C 0.47954 0.88821 0.88022 0.0
C972 C 0.45549 0.87852 0.89052 0.0
C973 C 0.44751 0.91535 0.89561 0.0
C974 C 0.426 0.90548 0.90547 0.0
C975 C 0.41187 0.85853 0.91048 0.0
C976 C 0.41951 0.82164 0.90528 0.0
C977 C 0.4411 0.83159 0.89546 0.0
C978 C 0.43255 0.98594 0.85696 0.0
C979 C 0.3635 0.84383 0.84894 0.0
O980 O 0.47751 0.99855 0.82588 0.0
O981 O 0.43529 0.91868 0.82027 0.0
O982 O 0.50002 0.89631 0.84658 0.0
O983 O 0.45811 0.85375 0.83356 0.0
O984 O 0.56133 0.97246 0.85625 0.0
O985 O 0.55136 0.98831 0.83919 0.0
O986 O 0.45206 0.85647 0.87288 0.0
O987 O 0.50762 0.93622 0.87716 0.0
O988 O 0.44551 0.96212 0.85092 0.0
O989 O 0.44208 0.97677 0.86617 0.0
O990 O 0.37762 0.88015 0.8419 0.0
O991 O 0.39526 0.84699 0.85632 0.0
H992 H 0.49664 0.92681 0.80489 0.0
H993 H 0.5156 0.94777 0.78669 0.0
H994 H 0.47714 0.06824 0.78984 0.0
H995 H 0.45757 0.0467 0.80792 0.0
H996 H 0.45817 0.95192 0.892 0.0
H997 H 0.4213 0.93509 0.90923 0.0
H998 H 0.40838 0.78471 0.90876 0.0
H999 H 0.44671 0.80249 0.8917 0.0
Pr1000 Pr 0.11441 0.54057 0.83632 0.0
Pr1001 Pr 0.12973 0.56312 0.86187 0.0
C1002 C 0.08125 0.49406 0.81807 0.0
C1003 C 0.07122 0.50227 0.80733 0.0
C1004 C 0.10892 0.51367 0.79979 0.0
C1005 C 0.09829 0.51648 0.78948 0.0
C1006 C 0.04955 0.50764 0.78643 0.0
C1007 C 1.01214 0.49732 0.79399 0.0
C1008 C 1.02281 0.49453 0.80432 0.0
C1009 C 0.18591 0.64408 0.84094 0.0
C1010 C 0.05457 0.59567 0.84787 0.0
C1011 C 0.16184 0.60077 0.88088 0.0
C1012 C 0.17062 0.58603 0.89121 0.0
C1013 C 0.13432 0.54 0.89601 0.0
C1014 C 0.14357 0.52784 0.90588 0.0
C1015 C 0.18932 0.56138 0.91117 0.0
C1016 C 0.22568 0.60713 0.90624 0.0
C1017 C 0.21637 0.61926 0.89641 0.0
C1018 C 0.06167 0.4576 0.8569 0.0
C1019 C 0.20731 0.53272 0.84869 0.0
O1020 O 0.0498 0.49277 0.82523 0.0
O1021 O 0.12953 0.51605 0.82102 0.0
O1022 O 0.16009 0.60755 0.84701 0.0
O1023 O 0.17379 0.62724 0.83157 0.0
O1024 O 0.08191 0.60303 0.85641 0.0
O1025 O 0.05505 0.56728 0.84011 0.0
O1026 O 0.19327 0.60367 0.87359 0.0
O1027 O 0.11409 0.58223 0.87778 0.0
O1028 O 0.08594 0.49529 0.85104 0.0
O1029 O 0.07194 0.47472 0.86624 0.0
O1030 O 0.17388 0.51539 0.84103 0.0
O1031 O 0.20157 0.5558 0.85686 0.0
H1032 H 0.14635 0.51904 0.80181 0.0
H1033 H 0.12773 0.52361 0.78387 0.0
H1034 H 0.97435 0.49076 0.79191 0.0
H1035 H 0.99272 0.48522 0.80992 0.0
H1036 H 0.09872 0.51354 0.89217 0.0
H1037 H 0.11442 0.49252 0.90942 0.0
H1038 H 0.26176 0.63352 0.90994 0.0
H1039 H 0.24508 0.65486 0.89286 0.0
Pr1040 Pr 0.50881 0.58191 0.83635 0.0
Pr1041 Pr 0.4858 0.5743 0.86197 0.0
C1042 C 0.55722 0.59553 0.81832 0.0
C1043 C 0.55111 0.57672 0.8077 0.0
C1044 C 0.50548 0.56127 0.80217 0.0
C1045 C 0.50276 0.54876 0.79177 0.0
C1046 C 0.54553 0.55134 0.78672 0.0
C1047 C 0.59047 0.56518 0.79241 0.0
C1048 C 0.59318 0.57777 0.80278 0.0
C1049 C 0.40541 0.55002 0.84095 0.0
C1050 C 0.45313 0.46677 0.84786 0.0
C1051 C 0.44841 0.56937 0.88098 0.0
C1052 C 0.46341 0.59421 0.8912 0.0
C1053 C 0.51068 0.60682 0.8958 0.0
C1054 C 0.52341 0.63005 0.90551 0.0
C1055 C 0.48931 0.64149 0.91081 0.0
C1056 C 0.44214 0.62888 0.90612 0.0
C1057 C 0.42941 0.60553 0.89646 0.0
C1058 C 0.59132 0.6125 0.85697 0.0
C1059 C 0.51409 0.68151 0.84872 0.0
O1060 O 0.55901 0.56629 0.8256 0.0
O1061 O 0.53263 0.61983 0.8209 0.0
O1062 O 0.44174 0.56025 0.84705 0.0
O1063 O 0.42236 0.55479 0.83158 0.0
O1064 O 0.44606 0.48665 0.85645 0.0
O1065 O 0.48133 0.49564 0.84008 0.0
O1066 O 0.44437 0.59674 0.8736 0.0
O1067 O 0.46784 0.54073 0.87798 0.0
O1068 O 0.5536 0.59902 0.85113 0.0
O1069 O 0.57423 0.60533 0.86631 0.0
O1070 O 0.53171 0.66604 0.84099 0.0
O1071 O 0.49232 0.65302 0.85698 0.0
H1072 H 0.47239 0.55995 0.80582 0.0
H1073 H 0.46736 0.53764 0.78765 0.0
H1074 H 0.62436 0.56827 0.78876 0.0
H1075 H 0.62881 0.58985 0.8069 0.0
H1076 H 0.53785 0.59887 0.8919 0.0
H1077 H 0.5603 0.6397 0.90881 0.0
H1078 H 0.41455 0.63632 0.90999 0.0
H1079 H 0.39268 0.59609 0.89309 0.0
Pr1080 Pr 0.61062 0.78721 0.02645 0.0
Pr1081 Pr 0.59471 0.79506 1.00092 0.0
C1082 C 0.64565 0.77455 0.04451 0.0
C1083 C 0.65659 0.79351 0.05516 0.0
C1084 C 0.61888 0.79507 0.06131 0.0
C1085 C 0.62841 0.80796 0.07168 0.0
C1086 C 0.67589 0.81977 0.07609 0.0
C1087 C 0.71414 0.81994 0.06982 0.0
C1088 C 0.70449 0.8068 0.05947 0.0
C1089 C 0.53862 0.81871 0.02206 0.0
C1090 C 0.66924 0.90265 0.01502 0.0
C1091 C 0.56183 0.80034 0.98197 0.0
C1092 C 0.55315 0.77708 0.97162 0.0
C1093 C 0.58858 0.76565 0.96697 0.0
C1094 C 0.57933 0.74419 0.9571 0.0
C1095 C 0.53442 0.73359 0.95166 0.0
C1096 C 0.49896 0.74479 0.95643 0.0
C1097 C 0.50828 0.76627 0.96626 0.0
C1098 C 0.66328 0.75805 1.00575 0.0
C1099 C 0.51707 0.68701 1.01413 0.0
O1100 O 0.6765 0.80485 0.03731 0.0
O1101 O 0.59713 0.74793 0.04173 0.0
O1102 O 0.56463 0.80866 0.01589 0.0
O1103 O 0.55083 0.81353 0.0314 0.0
O1104 O 0.64206 0.88272 1.00646 0.0
O1105 O 0.669 0.87372 0.02274 0.0
O1106 O 0.5308 0.77129 0.98926 0.0
O1107 O 0.60956 0.83004 0.98505 0.0
O1108 O 0.63872 0.77099 1.01163 0.0
O1109 O 0.65301 0.76512 0.99643 0.0
O1110 O 0.55079 0.70267 0.02174 0.0
O1111 O 0.52282 0.71605 1.006 0.0
H1112 H 0.58161 0.78524 0.05818 0.0
H1113 H 0.5984 0.80807 0.07628 0.0
H1114 H 0.75088 0.82824 0.07299 0.0
H1115 H 0.73402 0.80557 0.05489 0.0
H1116 H 0.62347 0.77344 0.97093 0.0
H1117 H 0.60783 0.73665 0.95368 0.0
H1118 H 0.46352 0.7364 0.95262 0.0
H1119 H 0.48024 0.77448 0.9697 0.0
Pr1120 Pr 0.25833 0.83353 0.02585 0.0
Pr1121 Pr 0.25476 0.81129 1.00034 0.0
C1122 C 0.2698 0.88045 0.04399 0.0
C1123 C 0.25119 0.87205 0.05468 0.0
C1124 C 0.25209 0.83408 0.06086 0.0
C1125 C 0.23983 0.83076 0.07127 0.0
C1126 C 0.22621 0.86514 0.07569 0.0
C1127 C 0.22351 0.9018 0.06939 0.0
C1128 C 0.23603 0.90528 0.059 0.0
C1129 C 0.22627 0.72989 0.02139 0.0
C1130 C 0.14551 0.78033 1.01358 0.0
C1131 C 0.25077 0.77339 0.9814 0.0
C1132 C 0.27528 0.78802 0.97117 0.0
C1133 C 0.2916 0.83686 0.96689 0.0
C1134 C 0.31434 0.84926 0.95714 0.0
C1135 C 0.32153 0.81323 0.95148 0.0
C1136 C 0.30525 0.76447 0.95585 0.0
C1137 C 0.28242 0.75209 0.96556 0.0
C1138 C 0.29234 0.91693 1.00528 0.0
C1139 C 0.36013 0.83961 1.01411 0.0
O1140 O 0.23895 0.8802 0.03683 0.0
O1141 O 0.29737 0.85968 0.04114 0.0
O1142 O 0.23791 0.76637 0.01523 0.0
O1143 O 0.22978 0.74686 0.03073 0.0
O1144 O 0.16668 0.77212 1.00533 0.0
O1145 O 0.17311 0.8085 0.02148 0.0
O1146 O 0.27854 0.7704 0.98883 0.0
O1147 O 0.2217 0.79248 0.98431 0.0
O1148 O 0.27776 0.87904 1.01114 0.0
O1149 O 0.28676 0.89998 0.99594 0.0
O1150 O 0.34333 0.85683 0.02169 0.0
O1151 O 0.33249 0.8174 1.00578 0.0
H1152 H 0.26343 0.80774 0.05773 0.0
H1153 H 0.24167 0.80171 0.07589 0.0
H1154 H 0.21375 0.92925 0.07257 0.0
H1155 H 0.23538 0.93505 0.0544 0.0
H1156 H 0.28688 0.86544 0.97108 0.0
H1157 H 0.32691 0.88736 0.95408 0.0
H1158 H 0.3094 0.73544 0.9517 0.0
H1159 H 0.27006 0.71415 0.96869 0.0
Pr1160 Pr 0.21386 0.43701 0.02654 0.0
Pr1161 Pr 0.23713 0.45251 1.00097 0.0
C1162 C 0.16561 0.40186 0.04458 0.0
C1163 C 0.17199 0.38907 0.05517 0.0
C1164 C 0.21792 0.41896 0.06063 0.0
C1165 C 0.221 0.40903 0.071 0.0
C1166 C 0.17829 0.36895 0.07609 0.0
C1167 C 0.13302 0.33813 0.07046 0.0
C1168 C 0.12995 0.34816 0.06012 0.0
C1169 C 0.31729 0.50871 0.02199 0.0
C1170 C 0.27019 0.37795 0.01504 0.0
C1171 C 0.27493 0.48517 0.98199 0.0
C1172 C 0.26002 0.49466 0.97175 0.0
C1173 C 0.21211 0.4606 0.96729 0.0
C1174 C 0.19941 0.47079 0.95756 0.0
C1175 C 0.2342 0.51541 0.95209 0.0
C1176 C 0.28203 0.54936 0.95663 0.0
C1177 C 0.29472 0.53906 0.96632 0.0
C1178 C 0.13163 0.38438 1.00589 0.0
C1179 C 0.20689 0.53044 1.01411 0.0
O1180 O 0.1638 0.37096 0.03725 0.0
O1181 O 0.19008 0.45082 0.04203 0.0
O1182 O 0.28099 0.4827 0.01588 0.0
O1183 O 0.30024 0.49659 0.03136 0.0
O1184 O 0.27709 0.40484 1.00646 0.0
O1185 O 0.24206 0.37863 0.02284 0.0
O1186 O 0.27836 0.51648 0.98935 0.0
O1187 O 0.25579 0.43715 0.985 0.0
O1188 O 0.1692 0.40883 1.01176 0.0
O1189 O 0.14889 0.39453 0.99655 0.0
O1190 O 0.18966 0.49733 0.02185 0.0
O1191 O 0.22964 0.52426 1.00594 0.0
H1192 H 0.25099 0.45064 0.05694 0.0
H1193 H 0.25663 0.43308 0.07507 0.0
H1194 H 0.09917 0.30742 0.07414 0.0
H1195 H 0.0941 0.32482 0.05606 0.0
H1196 H 0.18444 0.42622 0.97134 0.0
H1197 H 0.16203 0.44406 0.95437 0.0
H1198 H 0.31013 0.58368 0.95263 0.0
H1199 H 0.33193 0.56587 0.96958 0.0
Pr1200 Pr 0.25358 0.45465 0.50091 0.0
Pr1201 Pr 0.26122 0.43823 0.52652 0.0
C1202 C 0.24888 0.48804 0.48197 0.0
C1203 C 0.27339 0.49756 0.47174 0.0
C1204 C 0.28726 0.46347 0.46729 0.0
C1205 C 0.3103 0.47367 0.45756 0.0
C1206 C 0.32027 0.51834 0.4521 0.0
C1207 C 0.30641 0.55236 0.45664 0.0
C1208 C 0.28326 0.54204 0.46632 0.0
C1209 C 0.29028 0.38602 0.50579 0.0
C1210 C 0.36164 0.53155 0.51412 0.0
C1211 C 0.27572 0.40236 0.54431 0.0
C1212 C 0.25864 0.388 0.55497 0.0
C1213 C 0.23908 0.41395 0.56076 0.0
C1214 C 0.22926 0.40364 0.57124 0.0
C1215 C 0.23918 0.36748 0.57607 0.0
C1216 C 0.25658 0.34009 0.57011 0.0
C1217 C 0.26621 0.35029 0.55967 0.0
C1218 C 0.23 0.51037 0.52204 0.0
C1219 C 0.14605 0.38034 0.51507 0.0
O1220 O 0.27686 0.51903 0.48936 0.0
O1221 O 0.21964 0.44 0.48494 0.0
O1222 O 0.27746 0.41078 0.51164 0.0
O1223 O 0.28329 0.39613 0.49645 0.0
O1224 O 0.34566 0.49809 0.52178 0.0
O1225 O 0.33286 0.52593 0.50596 0.0
O1226 O 0.24638 0.3717 0.53699 0.0
O1227 O 0.29871 0.45156 0.54199 0.0
O1228 O 0.24033 0.4844 0.51592 0.0
O1229 O 0.23467 0.49801 0.53141 0.0
O1230 O 0.16611 0.40745 0.50651 0.0
O1231 O 0.17469 0.38036 0.52283 0.0
H1232 H 0.28046 0.42904 0.47133 0.0
H1233 H 0.32095 0.4469 0.45438 0.0
H1234 H 0.31273 0.58672 0.45264 0.0
H1235 H 0.27286 0.56888 0.46958 0.0
H1236 H 0.23296 0.44325 0.55726 0.0
H1237 H 0.21606 0.4255 0.57563 0.0
H1238 H 0.26375 0.31139 0.57357 0.0
H1239 H 0.28119 0.3298 0.55533 0.0
Pr1240 Pr 0.59658 0.80973 0.50056 0.0
Pr1241 Pr 0.61307 0.83416 0.52606 0.0
C1242 C 0.56338 0.77068 0.48168 0.0
C1243 C 0.55427 0.78479 0.47132 0.0
C1244 C 0.59083 0.83005 0.46633 0.0
C1245 C 0.58112 0.8418 0.45647 0.0
C1246 C 0.5346 0.80863 0.45137 0.0
C1247 C 0.49805 0.76357 0.45646 0.0
C1248 C 0.50784 0.75184 0.46629 0.0
C1249 C 0.66518 0.91551 0.50526 0.0
C1250 C 0.51924 0.84048 0.51376 0.0
C1251 C 0.64702 0.8817 0.5442 0.0
C1252 C 0.65651 0.87341 0.55497 0.0
C1253 C 0.61915 0.86374 0.56248 0.0
C1254 C 0.62925 0.86047 0.5728 0.0
C1255 C 0.67712 0.8671 0.5759 0.0
C1256 C 0.71421 0.87581 0.56837 0.0
C1257 C 0.70406 0.87904 0.55802 0.0
C1258 C 0.54096 0.73058 0.52172 0.0
C1259 C 0.67168 0.7774 0.51466 0.0
O1260 O 0.53245 0.76874 0.48898 0.0
O1261 O 0.61122 0.78904 0.48471 0.0
O1262 O 0.6411 0.87818 0.5112 0.0
O1263 O 0.65432 0.89787 0.49596 0.0
O1264 O 0.5532 0.85878 0.52133 0.0
O1265 O 0.52475 0.81693 0.50564 0.0
O1266 O 0.67811 0.88181 0.53708 0.0
O1267 O 0.59884 0.86058 0.54123 0.0
O1268 O 0.5668 0.76662 0.51556 0.0
O1269 O 0.55342 0.74799 0.53105 0.0
O1270 O 0.64414 0.7697 0.50614 0.0
O1271 O 0.67174 0.80647 0.52234 0.0
H1272 H 0.62697 0.85628 0.47003 0.0
H1273 H 0.61047 0.87654 0.45279 0.0
H1274 H 0.46143 0.73747 0.45292 0.0
H1275 H 0.47894 0.71681 0.46998 0.0
H1276 H 0.58243 0.86002 0.56043 0.0
H1277 H 0.60013 0.85466 0.57839 0.0
H1278 H 0.75132 0.88068 0.57048 0.0
H1279 H 0.73388 0.88697 0.55244 0.0
Pr1280 Pr 0.23925 0.79671 0.50088 0.0
Pr1281 Pr 0.21678 0.78923 0.52642 0.0
C1282 C 0.27662 0.80172 0.48185 0.0
C1283 C 0.26186 0.77809 0.47153 0.0
C1284 C 0.21701 0.77041 0.46653 0.0
C1285 C 0.20493 0.74893 0.45666 0.0
C1286 C 0.23739 0.73461 0.45157 0.0
C1287 C 0.28193 0.74194 0.45668 0.0
C1288 C 0.29398 0.76345 0.46651 0.0
C1289 C 0.13379 0.75931 0.50587 0.0
C1290 C 0.20884 0.6887 0.51406 0.0
C1291 C 0.17019 0.77658 0.54462 0.0
C1292 C 0.17865 0.79524 0.5553 0.0
C1293 C 0.21609 0.79364 0.56152 0.0
C1294 C 0.21951 0.80615 0.57192 0.0
C1295 C 0.18575 0.8207 0.57628 0.0
C1296 C 0.14962 0.82407 0.56994 0.0
C1297 C 0.14603 0.81129 0.55957 0.0
C1298 C 0.32006 0.82032 0.52178 0.0
C1299 C 0.27218 0.90438 0.51494 0.0
O1300 O 0.27938 0.77317 0.48915 0.0
O1301 O 0.25838 0.83125 0.48495 0.0
O1302 O 0.17147 0.77266 0.51172 0.0
O1303 O 0.1509 0.76624 0.49653 0.0
O1304 O 0.19095 0.70454 0.52167 0.0
O1305 O 0.23218 0.71767 0.50592 0.0
O1306 O 0.16947 0.80713 0.53749 0.0
O1307 O 0.19169 0.74975 0.5417 0.0
O1308 O 0.28368 0.81023 0.51571 0.0
O1309 O 0.30316 0.81548 0.53115 0.0
O1310 O 0.27941 0.8845 0.50637 0.0
O1311 O 0.24381 0.87541 0.52269 0.0
H1312 H 0.19141 0.78122 0.47022 0.0
H1313 H 0.17058 0.74438 0.45297 0.0
H1314 H 0.30743 0.7306 0.45313 0.0
H1315 H 0.32868 0.76876 0.4702 0.0
H1316 H 0.24196 0.78159 0.55843 0.0
H1317 H 0.24813 0.80377 0.57657 0.0
H1318 H 0.12265 0.83454 0.57308 0.0
H1319 H 0.11666 0.8125 0.55494 0.0
Pr1320 Pr 0.12924 0.57732 0.36177 0.0
Pr1321 Pr 0.11369 0.58461 0.33623 0.0
C1322 C 0.16196 0.5724 0.38075 0.0
C1323 C 0.17127 0.59672 0.391 0.0
C1324 C 0.13829 0.61252 0.39526 0.0
C1325 C 0.14838 0.63547 0.40499 0.0
C1326 C 0.19182 0.64341 0.41065 0.0
C1327 C 0.22466 0.62754 0.4063 0.0
C1328 C 0.21446 0.60451 0.39661 0.0
C1329 C 0.06105 0.61466 0.35686 0.0
C1330 C 0.20684 0.68525 0.34853 0.0
C1331 C 0.07923 0.59713 0.31809 0.0
C1332 C 0.06856 0.57828 0.30743 0.0
C1333 C 0.10687 0.57819 0.30122 0.0
C1334 C 0.0975 0.56556 0.29083 0.0
C1335 C 0.04962 0.55255 0.28646 0.0
C1336 C 1.01081 0.55086 0.29279 0.0
C1337 C 1.02028 0.56375 0.30315 0.0
C1338 C 0.18564 0.55318 0.34078 0.0
C1339 C 0.05448 0.46945 0.34776 0.0
O1340 O 0.19316 0.60047 0.37339 0.0
O1341 O 0.11402 0.54336 0.37774 0.0
O1342 O 0.08534 0.60134 0.35098 0.0
O1343 O 0.07141 0.60779 0.36619 0.0
O1344 O 0.1733 0.6693 0.34089 0.0
O1345 O 0.20103 0.65643 0.3567 0.0
O1346 O 0.04816 0.56683 0.32527 0.0
O1347 O 0.12766 0.62376 0.32092 0.0
O1348 O 0.15962 0.56352 0.34688 0.0
O1349 O 0.17346 0.55799 0.33142 0.0
O1350 O 0.08163 0.48949 0.35631 0.0
O1351 O 0.05494 0.4983 0.34 0.0
H1352 H 0.10488 0.60732 0.39105 0.0
H1353 H 0.12254 0.64768 0.40803 0.0
H1354 H 0.25801 0.63225 0.41045 0.0
H1355 H 0.24041 0.59258 0.3935 0.0
H1356 H 0.14446 0.58902 0.30432 0.0
H1357 H 0.12797 0.56662 0.28619 0.0
H1358 H 0.97372 0.5416 0.28965 0.0
H1359 H 0.99027 0.56385 0.30777 0.0
Pr1360 Pr 0.47209 0.56282 0.36187 0.0
Pr1361 Pr 0.46448 0.53908 0.33635 0.0
C1362 C 0.47763 0.60139 0.3808 0.0
C1363 C 0.4545 0.58727 0.39118 0.0
C1364 C 0.44448 0.54127 0.39603 0.0
C1365 C 0.42325 0.52958 0.40592 0.0
C1366 C 0.41148 0.56357 0.41118 0.0
C1367 C 0.42128 0.60936 0.40621 0.0
C1368 C 0.44255 0.62102 0.39636 0.0
C1369 C 0.43476 0.45709 0.35706 0.0
C1370 C 0.3642 0.53233 0.34867 0.0
C1371 C 0.45176 0.49163 0.31825 0.0
C1372 C 0.47026 0.5 0.30755 0.0
C1373 C 0.46799 0.53701 0.30129 0.0
C1374 C 0.48044 0.54039 0.29089 0.0
C1375 C 0.49563 0.50704 0.28656 0.0
C1376 C 0.49964 0.47135 0.29293 0.0
C1377 C 0.48691 0.46779 0.30331 0.0
C1378 C 0.49571 0.64257 0.34078 0.0
C1379 C 0.5797 0.59567 0.34781 0.0
O1380 O 0.44867 0.60344 0.37352 0.0
O1381 O 0.50709 0.58301 0.37775 0.0
O1382 O 0.44812 0.4946 0.35116 0.0
O1383 O 0.44164 0.47453 0.36638 0.0
O1384 O 0.37994 0.51425 0.34107 0.0
O1385 O 0.39316 0.55571 0.3568 0.0
O1386 O 0.48262 0.49156 0.32537 0.0
O1387 O 0.42459 0.51278 0.32114 0.0
O1388 O 0.48557 0.60643 0.34693 0.0
O1389 O 0.49077 0.62527 0.33144 0.0
O1390 O 0.55972 0.603 0.35635 0.0
O1391 O 0.55084 0.56695 0.34008 0.0
H1392 H 0.45321 0.51443 0.3922 0.0
H1393 H 0.41681 0.49423 0.40949 0.0
H1394 H 0.41198 0.63612 0.40988 0.0
H1395 H 0.4497 0.65663 0.39277 0.0
H1396 H 0.45548 0.56257 0.30435 0.0
H1397 H 0.47756 0.56868 0.28621 0.0
H1398 H 0.51063 0.4447 0.28982 0.0
H1399 H 0.48864 0.43875 0.30796 0.0
Pr1400 Pr 0.48582 0.9194 0.36187 0.0
Pr1401 Pr 0.50966 0.93622 0.3363 0.0
C1402 C 0.44752 0.88582 0.38079 0.0
C1403 C 0.46233 0.87603 0.391 0.0
C1404 C 0.51102 0.90889 0.39529 0.0
C1405 C 0.52375 0.89842 0.405 0.0
C1406 C 0.48821 0.85469 0.41059 0.0
C1407 C 0.43959 0.82191 0.40622 0.0
C1408 C 0.42687 0.83251 0.39656 0.0
C1409 C 0.59143 0.98741 0.35701 0.0
C1410 C 0.5159 0.84194 0.34853 0.0
C1411 C 0.55985 0.97219 0.31849 0.0
C1412 C 0.55691 0.98652 0.30784 0.0
C1413 C 0.51165 0.9598 0.30202 0.0
C1414 C 0.51211 0.97012 0.29155 0.0
C1415 C 0.55789 1.00705 0.28675 0.0
C1416 C 0.60238 0.03523 0.29274 0.0
C1417 C 0.60185 0.02501 0.30317 0.0
C1418 C 0.40619 0.86432 0.34074 0.0
C1419 C 0.45318 0.99475 0.34792 0.0
O1420 O 0.44448 0.8549 0.37337 0.0
O1421 O 0.46663 0.93396 0.37786 0.0
O1422 O 0.55382 0.96324 0.35114 0.0
O1423 O 0.57416 0.97702 0.36634 0.0
O1424 O 0.53351 0.87556 0.34089 0.0
O1425 O 0.49299 0.84769 0.35673 0.0
O1426 O 0.56118 1.00281 0.32583 0.0
O1427 O 0.53382 0.92298 0.32082 0.0
O1428 O 0.44243 0.89003 0.34689 0.0
O1429 O 0.42334 0.87692 0.33139 0.0
O1430 O 0.44606 0.96741 0.35645 0.0
O1431 O 0.48152 0.99449 0.34012 0.0
H1432 H 0.53926 0.94253 0.39114 0.0
H1433 H 0.56173 0.9242 0.40805 0.0
H1434 H 0.41095 0.78833 0.41033 0.0
H1435 H 0.38908 0.80663 0.39342 0.0
H1436 H 0.47649 0.92991 0.30549 0.0
H1437 H 0.47729 0.94765 0.28713 0.0
H1438 H 0.638 0.06452 0.28931 0.0
H1439 H 0.63712 0.0461 0.30754 0.0
C1440 C 0.16184 0.1315 0.18629 0.0
C1441 C 0.17455 0.15563 0.17666 0.0
H1442 H 0.15452 0.06879 0.1955 0.0
C1443 C 0.19474 0.13718 0.16915 0.0
H1444 H 0.14606 0.14489 0.1922 0.0
C1445 C 0.20028 0.09428 0.17105 0.0
C1446 C 0.18498 0.06808 0.18047 0.0
H1447 H 0.20513 0.15518 0.16168 0.0
H1448 H 0.21458 0.08047 0.16492 0.0
C1449 C 0.16668 0.08788 0.18816 0.0
C1450 C 0.95485 0.11581 0.17119 0.0
C1451 C 0.98111 0.12669 0.1806 0.0
H1452 H 0.89391 0.05981 0.16183 0.0
C1453 C 0.96134 0.08855 0.18828 0.0
H1454 H 0.96861 0.14395 0.16506 0.0
C1455 C 0.91772 0.04011 0.18641 0.0
C1456 C 0.89354 0.02872 0.1768 0.0
H1457 H 0.98046 0.09546 0.19562 0.0
H1458 H 0.90438 1.01092 0.19232 0.0
C1459 C 0.91194 0.0674 0.1693 0.0
C1460 C 0.98092 0.85382 0.16926 0.0
C1461 C 1.01982 0.87441 0.1767 0.0
H1462 H 0.9042 0.83351 0.16514 0.0
C1463 C 1.00868 0.88737 0.18633 0.0
H1464 H 0.98831 0.84323 0.16178 0.0
C1465 C 0.96025 0.8824 0.18827 0.0
C1466 C 0.92188 0.86369 0.18065 0.0
H1467 H 0.03806 0.90348 0.1922 0.0
H1468 H 0.95354 0.89478 0.19561 0.0
C1469 C 0.93252 0.84813 0.17122 0.0
C1470 C 0.13981 0.15129 0.34302 0.0
C1471 C 0.16397 0.16447 0.35264 0.0
H1472 H 0.07721 0.14371 0.33375 0.0
C1473 C 0.14571 0.18522 0.36007 0.0
H1474 H 0.15304 0.13504 0.33717 0.0
C1475 C 0.10298 0.19087 0.3581 0.0
C1476 C 0.07673 0.17513 0.3487 0.0
H1477 H 0.16372 0.19597 0.36753 0.0
H1478 H 0.08933 0.20565 0.36418 0.0
C1479 C 0.09635 0.15624 0.34108 0.0
C1480 C 0.89208 0.95134 0.34108 0.0
C1481 C 0.87383 0.91321 0.34876 0.0
H1482 H 0.91251 0.02892 0.33704 0.0
C1483 C 0.85856 0.92412 0.35819 0.0
H1484 H 0.90422 0.94441 0.33373 0.0
C1485 C 0.86398 0.97252 0.36009 0.0
C1486 C 0.88405 1.01116 0.35258 0.0
H1487 H 0.84429 0.89601 0.36432 0.0
H1488 H 0.85358 0.98011 0.36757 0.0
C1489 C 0.8968 0.99976 0.34296 0.0
C1490 C 0.04897 0.90746 0.34307 0.0
C1491 C 0.03739 0.88339 0.35271 0.0
H1492 H 0.10451 0.97006 0.33385 0.0
C1493 C 0.07592 0.90184 0.36023 0.0
H1494 H 1.0199 0.89408 0.33715 0.0
C1495 C 0.12438 0.94467 0.35833 0.0
C1496 C 0.13546 0.97081 0.3489 0.0
H1497 H 0.06819 0.88389 0.36771 0.0
H1498 H 0.15241 0.95847 0.36447 0.0
C1499 C 0.09746 0.95101 0.3412 0.0
C1500 C 0.89659 0.90772 0.84295 0.0
C1501 C 0.88356 0.88353 0.85257 0.0
H1502 H 0.90432 0.97054 0.83371 0.0
C1503 C 0.86326 0.90208 0.86004 0.0
H1504 H 0.91248 0.8943 0.83707 0.0
C1505 C 0.85791 0.94508 0.85812 0.0
C1506 C 0.87348 0.97131 0.8487 0.0
H1507 H 0.85265 0.88408 0.86751 0.0
H1508 H 0.8435 0.95893 0.86422 0.0
C1509 C 0.89193 0.95143 0.84105 0.0
C1510 C 0.14557 0.97102 0.86013 0.0
C1511 C 0.16396 1.00961 0.85262 0.0
H1512 H 0.08903 0.89443 0.86436 0.0
C1513 C 0.14005 0.99807 0.84297 0.0
H1514 H 0.16344 0.97874 0.86762 0.0
C1515 C 0.09661 0.94955 0.8411 0.0
C1516 C 0.0768 0.91151 0.84879 0.0
H1517 H 0.15343 0.02721 0.83706 0.0
H1518 H 0.07764 0.94252 0.83374 0.0
C1519 C 0.10285 0.92251 0.85823 0.0
C1520 C 0.04941 0.15183 0.84292 0.0
C1521 C 0.03821 0.16452 0.85258 0.0
H1522 H 0.10454 0.14452 0.83363 0.0
C1523 C 0.07695 0.18473 0.86005 0.0
H1524 H 1.02014 0.13604 0.83704 0.0
C1525 C 0.12531 0.19032 0.85808 0.0
C1526 C 0.13599 0.17502 0.84864 0.0
H1527 H 0.06948 0.1951 0.86754 0.0
H1528 H 0.15353 0.20463 0.86419 0.0
C1529 C 0.09776 0.15668 0.84099 0.0
C1530 C 0.91785 0.88804 0.68627 0.0
C1531 C 0.89394 0.8751 0.67662 0.0
H1532 H 0.98019 0.89538 0.69559 0.0
C1533 C 0.91241 0.85455 0.6692 0.0
H1534 H 0.90446 0.90413 0.69212 0.0
C1535 C 0.95509 0.84884 0.67119 0.0
C1536 C 0.98107 0.86432 0.68063 0.0
H1537 H 0.89459 0.84399 0.66171 0.0
H1538 H 0.96891 0.83422 0.66512 0.0
C1539 C 0.96126 0.88304 0.68824 0.0
C1540 C 0.20001 0.11597 0.6713 0.0
C1541 C 0.18455 0.1268 0.68071 0.0
H1542 H 0.20502 0.06 0.66193 0.0
C1543 C 0.16612 0.08862 0.68839 0.0
H1544 H 0.21443 0.14414 0.66519 0.0
C1545 C 0.16131 0.04018 0.68651 0.0
C1546 C 0.17418 0.02884 0.67689 0.0
H1547 H 0.15385 0.09551 0.69573 0.0
H1548 H 0.14542 1.01095 0.69241 0.0
C1549 C 0.19451 0.06755 0.6694 0.0
C1550 C 0.96031 0.08873 0.68809 0.0
C1551 C 0.92251 0.06888 0.68035 0.0
H1552 H 0.03771 0.14572 0.69222 0.0
C1553 C 0.93378 0.09505 0.67092 0.0
H1554 H 0.9531 0.06968 0.69545 0.0
C1555 C 0.98226 0.13795 0.66907 0.0
C1556 C 1.0206 0.15642 0.67663 0.0
H1557 H 0.90592 0.08121 0.66476 0.0
H1558 H 0.99016 0.15591 0.66159 0.0
C1559 C 1.0088 0.13232 0.68626 0.0
C1560 C 0.87101 0.43028 0.50492 0.0
C1561 C 0.85447 0.40339 0.51424 0.0
H1562 H 0.87608 0.49127 0.49553 0.0
C1563 C 0.83423 0.42203 0.52178 0.0
H1564 H 0.88664 0.41716 0.49891 0.0
C1565 C 0.82883 0.46524 0.51985 0.0
C1566 C 0.84275 0.49006 0.5103 0.0
H1567 H 0.82105 0.4023 0.52904 0.0
H1568 H 0.81157 0.47769 0.52563 0.0
C1569 C 0.86479 0.47274 0.50294 0.0
C1570 C 0.58347 0.37424 0.52006 0.0
C1571 C 0.55893 0.36307 0.51048 0.0
H1572 H 0.64693 0.42914 0.52918 0.0
C1573 C 0.57749 0.40172 0.50297 0.0
H1574 H 0.57004 0.34505 0.52596 0.0
C1575 C 0.62087 0.44985 0.50481 0.0
C1576 C 0.64747 0.46049 0.51418 0.0
H1577 H 0.55922 0.3943 0.49553 0.0
H1578 H 0.63469 0.47795 0.49868 0.0
C1579 C 0.62756 0.42242 0.52188 0.0
C1580 C 0.62189 0.20852 0.5225 0.0
C1581 C 0.58988 0.20375 0.5142 0.0
H1582 H 0.69585 0.22047 0.52727 0.0
C1583 C 0.60822 0.20582 0.50421 0.0
H1584 H 0.60888 0.20722 0.53029 0.0
C1585 C 0.65807 0.21502 0.50253 0.0
C1586 C 0.69049 0.22093 0.51078 0.0
H1587 H 0.58496 0.20281 0.49762 0.0
H1588 H 0.67151 0.2182 0.49472 0.0
C1589 C 0.67158 0.21615 0.52079 0.0
C1590 C 0.81275 0.51809 0.69341 0.0
C1591 C 0.831 0.49765 0.68591 0.0
H1592 H 0.75631 0.53825 0.69765 0.0
C1593 C 0.80678 0.48481 0.6763 0.0
H1594 H 0.83082 0.52857 0.70088 0.0
C1595 C 0.76326 0.48977 0.67444 0.0
C1596 C 0.74365 0.50834 0.68212 0.0
H1597 H 0.82002 0.46884 0.67039 0.0
H1598 H 0.74409 0.47753 0.6671 0.0
C1599 C 0.76996 0.52375 0.69152 0.0
C1600 C 0.52574 0.25752 0.69176 0.0
C1601 C 0.54053 0.24649 0.68229 0.0
H1602 H 0.5212 0.31362 0.70118 0.0
C1603 C 0.55832 0.28448 0.67459 0.0
H1604 H 0.51184 0.2295 0.69791 0.0
C1605 C 0.5631 0.33291 0.67648 0.0
C1606 C 0.55086 0.34444 0.68614 0.0
H1607 H 0.57007 0.27746 0.6672 0.0
H1608 H 0.57845 0.36197 0.67054 0.0
C1609 C 0.53122 0.30593 0.69368 0.0
C1610 C 0.79173 0.27796 0.69153 0.0
C1611 C 0.80257 0.30413 0.68211 0.0
H1612 H 0.73576 0.21717 0.70094 0.0
C1613 C 0.76437 0.28438 0.67445 0.0
H1614 H 0.81992 0.29172 0.69764 0.0
C1615 C 0.71593 0.24085 0.67635 0.0
C1616 C 0.70459 0.21675 0.68598 0.0
H1617 H 0.77124 0.30345 0.6671 0.0
H1618 H 0.68671 0.22751 0.67046 0.0
C1619 C 0.7433 0.23514 0.69346 0.0
C1620 C 0.53048 0.23477 0.19337 0.0
C1621 C 0.55075 0.21626 0.18589 0.0
H1622 H 0.51055 0.29149 0.19755 0.0
C1623 C 0.56354 0.24031 0.17626 0.0
H1624 H 0.52004 0.21685 0.20085 0.0
C1625 C 0.5587 0.2839 0.17435 0.0
C1626 C 0.5403 0.30376 0.18201 0.0
H1627 H 0.5794 0.22689 0.17037 0.0
H1628 H 0.57092 0.30292 0.167 0.0
C1629 C 0.52493 0.27764 0.19144 0.0
C1630 C 0.80775 0.33211 0.17617 0.0
C1631 C 0.83178 0.34352 0.1858 0.0
H1632 H 0.74508 0.27673 0.16695 0.0
C1633 C 0.81324 0.30491 0.19331 0.0
H1634 H 0.82123 0.36127 0.17025 0.0
C1635 C 0.77033 0.25651 0.19142 0.0
C1636 C 0.7442 0.2456 0.18199 0.0
H1637 H 0.83117 0.31252 0.20079 0.0
H1638 H 0.75647 0.22843 0.19755 0.0
C1639 C 0.7641 0.28368 0.1743 0.0
C1640 C 0.79288 0.5238 0.19116 0.0
C1641 C 0.80341 0.5078 0.18178 0.0
H1642 H 0.73721 0.52916 0.20055 0.0
C1643 C 0.76492 0.48869 0.17417 0.0
H1644 H 0.82128 0.53875 0.19722 0.0
C1645 C 0.71651 0.48382 0.17609 0.0
C1646 C 0.7055 0.49726 0.18569 0.0
H1647 H 0.77156 0.47596 0.16686 0.0
H1648 H 0.68705 0.46741 0.17025 0.0
C1649 C 0.74449 0.51821 0.1931 0.0
C1650 C 0.62123 0.18361 1.00443 0.0
C1651 C 0.64687 0.19811 1.01392 0.0
H1652 H 0.56125 0.18 0.99497 0.0
C1653 C 0.62703 0.21646 0.02159 0.0
H1654 H 0.63511 0.16935 0.99831 0.0
C1655 C 0.58389 0.22198 0.01966 0.0
C1656 C 0.5603 0.20997 1.00999 0.0
H1657 H 0.64571 0.22804 0.02898 0.0
H1658 H 0.57042 0.23767 0.02558 0.0
C1659 C 0.57883 0.18985 1.00248 0.0
C1660 C 0.85895 0.39875 1.00225 0.0
C1661 C 0.83954 0.3609 1.00991 0.0
H1662 H 0.87808 0.47464 0.99773 0.0
C1663 C 0.82763 0.37324 0.01953 0.0
H1664 H 0.86881 0.39048 0.99478 0.0
C1665 C 0.83244 0.42185 0.02125 0.0
C1666 C 0.8497 0.459 1.01339 0.0
H1667 H 0.81249 0.34467 0.02557 0.0
H1668 H 0.82085 0.42954 0.02859 0.0
C1669 C 0.86427 0.44717 1.00398 0.0
C1670 C 0.62437 0.42441 0.02165 0.0
C1671 C 0.58622 0.40413 1.01399 0.0
H1672 H 0.70159 0.48232 0.02567 0.0
C1673 C 0.59653 0.43055 1.00459 0.0
H1674 H 0.61788 0.40521 0.02897 0.0
C1675 C 0.6445 0.47408 1.00269 0.0
C1676 C 0.68325 0.49292 1.01016 0.0
H1677 H 0.56835 0.41642 0.99848 0.0
H1678 H 0.65175 0.49217 0.99523 0.0
C1679 C 0.67232 0.46862 0.01977 0.0
C1680 C 0.50149 0.78718 0.83571 0.0
C1681 C 0.49573 0.8137 0.84399 0.0
H1682 H 0.51337 0.72609 0.83073 0.0
C1683 C 0.50053 0.79942 0.85399 0.0
H1684 H 0.49828 0.79755 0.82791 0.0
C1685 C 0.508 0.7572 0.85565 0.0
C1686 C 0.51257 0.72992 0.84731 0.0
H1687 H 0.49634 0.81939 0.86049 0.0
H1688 H 0.50932 0.7454 0.86342 0.0
C1689 C 0.51051 0.74636 0.83734 0.0
C1690 C 0.25153 0.70768 0.85324 0.0
C1691 C 0.22676 0.69688 0.84369 0.0
H1692 H 0.31446 0.76276 0.86244 0.0
C1693 C 0.24411 0.73626 0.83635 0.0
H1694 H 0.23903 0.67794 0.85902 0.0
C1695 C 0.28658 0.78491 0.83833 0.0
C1696 C 0.31344 0.79516 0.84765 0.0
H1697 H 0.2256 0.72907 0.82893 0.0
H1698 H 0.29973 0.81368 0.83233 0.0
C1699 C 0.29476 0.75626 0.85517 0.0
C1700 C 0.342 0.55292 0.85324 0.0
C1701 C 0.35295 0.53933 0.84366 0.0
H1702 H 0.28734 0.56168 0.86242 0.0
C1703 C 0.31414 0.51906 0.83619 0.0
H1704 H 0.37132 0.56885 0.85912 0.0
C1705 C 0.26606 0.51431 0.83809 0.0
C1706 C 0.25564 0.53047 0.84746 0.0
H1707 H 0.32137 0.50803 0.82875 0.0
H1708 H 0.23783 0.49987 0.83199 0.0
C1709 C 0.29389 0.54886 0.85511 0.0
C1710 C 0.47455 0.8193 1.00968 0.0
C1711 C 0.49724 0.83004 0.01944 0.0
H1712 H 0.41328 0.81383 1.00028 0.0
C1713 C 0.4775 0.84843 0.02705 0.0
H1714 H 0.48898 0.80501 1.00367 0.0
C1715 C 0.43476 0.85414 0.02512 0.0
C1716 C 0.41009 0.84088 0.01553 0.0
H1717 H 0.49437 0.85727 0.03464 0.0
H1718 H 0.41988 0.86699 0.03131 0.0
C1719 C 0.43116 0.82435 1.00776 0.0
C1720 C 0.22846 0.6655 1.00927 0.0
C1721 C 0.21508 0.6771 0.01881 0.0
H1722 H 0.23645 0.60996 1.00023 0.0
C1723 C 0.19439 0.63858 0.02634 0.0
H1724 H 0.24461 0.69456 1.00334 0.0
C1725 C 0.18911 0.59014 0.02456 0.0
C1726 C 0.20508 0.57907 0.01524 0.0
H1727 H 0.18348 0.64631 0.03375 0.0
H1728 H 0.17442 0.56214 0.03071 0.0
C1729 C 0.22379 0.61702 1.00751 0.0
C1730 C 0.40881 0.56805 0.02676 0.0
C1731 C 0.37005 0.54985 0.01929 0.0
H1732 H 0.48555 0.62431 0.03093 0.0
C1733 C 0.38144 0.57397 1.00966 0.0
H1734 H 0.40122 0.55006 0.03423 0.0
C1735 C 0.43001 0.61734 1.00775 0.0
C1736 C 0.46826 0.63691 0.01541 0.0
H1737 H 0.35218 0.56078 1.00378 0.0
H1738 H 0.43693 0.63646 1.00041 0.0
C1739 C 0.45734 0.61069 0.02483 0.0
C1740 C 0.23123 0.57548 0.50968 0.0
C1741 C 0.21848 0.55153 0.51933 0.0
H1742 H 0.23833 0.63784 0.50038 0.0
C1743 C 0.1979 0.56986 0.52677 0.0
H1744 H 0.24731 0.56217 0.50382 0.0
C1745 C 0.19204 0.61249 0.5248 0.0
C1746 C 0.20741 0.63856 0.51537 0.0
H1747 H 0.18746 0.55198 0.53426 0.0
H1748 H 0.17744 0.62624 0.53089 0.0
C1749 C 0.22609 0.61885 0.50774 0.0
C1750 C 0.47554 0.66634 0.50947 0.0
C1751 C 0.49959 0.67787 0.5191 0.0
H1752 H 0.41284 0.61093 0.50028 0.0
C1753 C 0.4811 0.63938 0.52663 0.0
H1754 H 0.48899 0.69541 0.50354 0.0
C1755 C 0.43817 0.59099 0.52476 0.0
C1756 C 0.412 0.58001 0.51534 0.0
H1757 H 0.49907 0.64711 0.53411 0.0
H1758 H 0.42428 0.56299 0.53091 0.0
C1759 C 0.4319 0.61794 0.50762 0.0
C1760 C 0.45993 0.85753 0.5245 0.0
C1761 C 0.47052 0.84193 0.51507 0.0
H1762 H 0.40426 0.86263 0.53394 0.0
C1763 C 0.43208 0.82323 0.50746 0.0
H1764 H 0.48827 0.87212 0.53058 0.0
C1765 C 0.38369 0.8184 0.5094 0.0
C1766 C 0.37263 0.83148 0.51903 0.0
H1767 H 0.43874 0.81081 0.50012 0.0
H1768 H 0.3543 0.80235 0.50354 0.0
C1769 C 0.41157 0.85198 0.52647 0.0
C1770 C 0.25094 0.55459 0.35312 0.0
C1771 C 0.22688 0.54176 0.34349 0.0
H1772 H 0.31344 0.56184 0.36238 0.0
C1773 C 0.24522 0.52124 0.33602 0.0
H1774 H 0.23765 0.57063 0.359 0.0
C1775 C 0.28793 0.51551 0.33796 0.0
C1776 C 0.31407 0.53092 0.34739 0.0
H1777 H 0.22728 0.51075 0.32855 0.0
H1778 H 0.30165 0.50095 0.33186 0.0
C1779 C 0.29438 0.54957 0.35503 0.0
C1780 C 0.52682 0.73379 0.3359 0.0
C1781 C 0.50697 0.69527 0.34343 0.0
H1782 H 0.54642 0.81025 0.33165 0.0
C1783 C 0.49462 0.70682 0.35308 0.0
H1784 H 0.53693 0.72607 0.3284 0.0
C1785 C 0.49947 0.75528 0.35496 0.0
C1786 C 0.51744 0.79326 0.34725 0.0
H1787 H 0.47911 0.67774 0.35901 0.0
H1788 H 0.48761 0.76232 0.36233 0.0
C1789 C 0.53237 0.78223 0.3378 0.0
C1790 C 0.26641 0.76165 0.33783 0.0
C1791 C 0.2555 0.73549 0.34726 0.0
H1792 H 0.32244 0.82245 0.32844 0.0
C1793 C 0.29363 0.75528 0.35493 0.0
H1794 H 0.23828 0.74786 0.33171 0.0
C1795 C 0.34208 0.79883 0.35304 0.0
C1796 C 0.35349 0.82293 0.34341 0.0
H1797 H 0.28671 0.73622 0.36228 0.0
H1798 H 0.37124 0.8122 0.35894 0.0
C1799 C 0.31484 0.80449 0.33592 0.0
C1800 C 0.32439 0.3785 0.16992 0.0
C1801 C 0.30422 0.35666 0.17957 0.0
H1802 H 0.39057 0.41636 0.16022 0.0
C1803 C 0.33913 0.36016 0.1872 0.0
H1804 H 0.29931 0.37684 0.16379 0.0
C1805 C 0.39244 0.38383 0.18512 0.0
C1806 C 0.41172 0.40377 0.17532 0.0
H1807 H 0.32524 0.3438 0.19471 0.0
H1808 H 0.41825 0.38507 0.19105 0.0
C1809 C 0.37705 0.40126 0.16782 0.0
C1810 C 0.64731 0.98478 0.16774 0.0
C1811 C 0.64486 1.01716 0.17521 0.0
H1812 H 0.6716 0.9312 0.16376 0.0
C1813 C 0.66484 1.01801 0.185 0.0
H1814 H 0.63219 0.98305 0.16013 0.0
C1815 C 0.68842 0.98831 0.18712 0.0
C1816 C 0.69183 0.95665 0.17952 0.0
H1817 H 0.66371 0.04279 0.19091 0.0
H1818 H 0.7048 0.99095 0.19463 0.0
C1819 C 0.66999 0.95481 0.16987 0.0
C1820 C 0.06094 0.70973 0.18697 0.0
C1821 C 0.09217 0.74474 0.17933 0.0
H1822 H 1.00712 0.63047 0.19085 0.0
C1823 C 0.09386 0.72464 0.16967 0.0
H1824 H 0.05845 0.72357 0.19449 0.0
C1825 C 0.06417 0.6719 0.16759 0.0
C1826 C 0.03222 0.63711 0.1751 0.0
H1827 H 0.11714 0.74982 0.16353 0.0
H1828 H 0.06577 0.65841 0.15997 0.0
C1829 C 0.03153 0.65636 0.1849 0.0
C1830 C 0.38739 0.31428 0.3597 0.0
C1831 C 0.3659 0.29417 0.35003 0.0
H1832 H 0.42524 0.38051 0.36941 0.0
C1833 C 0.36993 0.32921 0.34237 0.0
H1834 H 0.3853 0.2891 0.36586 0.0
C1835 C 0.39382 0.38259 0.34444 0.0
C1836 C 0.41346 0.40185 0.35425 0.0
H1837 H 0.35385 0.31538 0.33484 0.0
H1838 H 0.3955 0.40849 0.33848 0.0
C1839 C 0.41038 0.36703 0.36178 0.0
C1840 C 0.66568 0.02088 0.34434 0.0
C1841 C 0.64651 0.02156 0.35415 0.0
H1842 H 0.73273 0.04814 0.3347 0.0
C1843 C 0.68127 0.05379 0.36163 0.0
H1844 H 0.63982 0.99621 0.33842 0.0
C1845 C 0.7339 0.08381 0.35951 0.0
C1846 C 0.75394 0.08216 0.34984 0.0
H1847 H 0.66784 0.05539 0.36925 0.0
H1848 H 0.75905 0.1073 0.36562 0.0
C1849 C 0.71894 0.05063 0.34222 0.0
C1850 C 0.99766 0.67904 0.34216 0.0
C1851 C 0.96639 0.68271 0.34982 0.0
H1852 H 0.05179 0.65402 0.33828 0.0
C1853 C 0.96495 0.66109 0.35948 0.0
H1854 H 0.99995 0.69523 0.33464 0.0
C1855 C 0.99492 0.63836 0.36156 0.0
C1856 C 1.02691 0.63565 0.35404 0.0
H1857 H 0.94167 0.66289 0.36563 0.0
H1858 H 0.99348 0.62341 0.36917 0.0
C1859 C 1.02735 0.6554 0.34423 0.0
C1860 C 0.66554 0.65394 0.84431 0.0
C1861 C 0.64636 0.63364 0.85409 0.0
H1862 H 0.73265 0.6945 0.83471 0.0
C1863 C 0.68111 0.63598 0.86154 0.0
H1864 H 0.63965 0.65285 0.8384 0.0
C1865 C 0.73376 0.65895 0.85943 0.0
C1866 C 0.75382 0.6812 0.8498 0.0
H1867 H 0.66767 0.62057 0.86914 0.0
H1868 H 0.7589 0.66047 0.86553 0.0
C1869 C 0.71883 0.67783 0.8422 0.0
C1870 C 0.36805 0.04912 0.84234 0.0
C1871 C 0.36418 0.08027 0.84998 0.0
H1872 H 0.39321 0.99516 0.83848 0.0
C1873 C 0.38517 0.08135 0.8597 0.0
H1874 H 0.3523 0.04708 0.83479 0.0
C1875 C 0.40777 0.05127 0.86181 0.0
C1876 C 0.41088 1.0196 0.85427 0.0
H1877 H 0.38306 0.1045 0.86584 0.0
H1878 H 0.42243 0.05249 0.86945 0.0
C1879 C 0.39149 1.01936 0.84445 0.0
C1880 C 0.96561 0.31496 0.85941 0.0
C1881 C 0.96741 0.29491 0.84975 0.0
H1882 H 0.99375 0.38108 0.86914 0.0
C1883 C 0.99891 0.32996 0.84214 0.0
H1884 H 0.94213 0.28977 0.86553 0.0
C1885 C 1.02847 0.38329 0.84424 0.0
C1886 C 1.02767 0.40247 0.85404 0.0
H1887 H 1.00148 0.31616 0.83462 0.0
H1888 H 0.05309 0.40921 0.83832 0.0
C1889 C 0.99546 0.36766 0.86152 0.0
C1890 C 0.66447 0.65707 0.685 0.0
C1891 C 0.64453 0.63759 0.67522 0.0
H1892 H 0.70473 0.72449 0.69453 0.0
C1893 C 0.64735 0.67223 0.66767 0.0
H1894 H 0.66302 0.63131 0.69097 0.0
C1895 C 0.6704 0.72503 0.66971 0.0
C1896 C 0.6922 0.74535 0.67935 0.0
H1897 H 0.63226 0.65858 0.66007 0.0
H1898 H 0.67229 0.75007 0.66354 0.0
C1899 C 0.6884 0.71049 0.68703 0.0
C1900 C 0.39205 1.01852 0.68513 0.0
C1901 C 0.41128 1.01792 0.67533 0.0
H1902 H 0.32495 0.99117 0.69476 0.0
C1903 C 0.37656 0.98565 0.66784 0.0
H1904 H 0.41788 0.0432 0.69106 0.0
C1905 C 0.32393 0.95556 0.66996 0.0
C1906 C 0.30383 0.95717 0.67962 0.0
H1907 H 0.39002 0.98409 0.66022 0.0
H1908 H 0.29881 0.93206 0.66384 0.0
C1909 C 0.33878 0.98872 0.68724 0.0
C1910 C 0.06348 0.4016 0.66788 0.0
C1911 C 0.03123 0.4041 0.67537 0.0
H1912 H 0.11694 0.37726 0.66386 0.0
C1913 C 0.03053 0.3842 0.68517 0.0
H1914 H 0.06511 0.41668 0.66027 0.0
C1915 C 0.06022 0.3606 0.68726 0.0
C1916 C 0.09173 0.35712 0.67964 0.0
H1917 H 1.00589 0.38543 0.6911 0.0
H1918 H 0.05771 0.34427 0.69478 0.0
C1919 C 0.09345 0.37891 0.66999 0.0
C1920 C 1.00612 0.6943 0.52063 0.0
C1921 C 0.97111 0.69068 0.51301 0.0
H1922 H 0.08533 0.71947 0.52446 0.0
C1923 C 0.99121 0.71257 0.50336 0.0
H1924 H 0.9923 0.67791 0.52814 0.0
C1925 C 0.04388 0.73549 0.50126 0.0
C1926 C 0.07867 0.73814 0.50874 0.0
H1927 H 0.96607 0.71085 0.49724 0.0
H1928 H 0.05732 0.75064 0.49365 0.0
C1929 C 0.05945 0.71814 0.51854 0.0
C1930 C 0.33492 0.28847 0.50346 0.0
C1931 C 0.35699 0.29067 0.5131 0.0
H1932 H 0.29727 0.3167 0.49368 0.0
C1933 C 0.35406 0.3228 0.52066 0.0
H1934 H 0.33615 0.26445 0.4974 0.0
C1935 C 0.33082 0.35272 0.51849 0.0
C1936 C 0.31071 0.35158 0.5087 0.0
H1937 H 0.37065 0.32571 0.52815 0.0
H1938 H 0.33014 0.37795 0.52435 0.0
C1939 C 0.31256 0.31865 0.50128 0.0
C1940 C 0.72929 1.00586 0.50036 0.0
C1941 C 0.69916 0.97078 0.50801 0.0
H1942 H 0.78077 0.08408 0.49621 0.0
C1943 C 0.70045 0.98974 0.51794 0.0
H1944 H 0.72942 0.99259 0.49265 0.0
C1945 C 0.72995 0.04305 0.52002 0.0
C1946 C 0.75912 0.07838 0.51224 0.0
H1947 H 0.67751 0.96362 0.52399 0.0
H1948 H 0.72892 0.05663 0.52765 0.0
C1949 C 0.75896 0.05862 0.50244 0.0
C1950 C 0.06028 0.71593 0.67764 0.0
C1951 C 0.08 0.73501 0.68746 0.0
H1952 H 1.02026 0.64888 0.66799 0.0
C1953 C 0.07703 0.70007 0.69495 0.0
H1954 H 0.06187 0.74194 0.67171 0.0
C1955 C 0.05409 0.64738 0.69282 0.0
C1956 C 0.03252 0.62743 0.68314 0.0
H1957 H 0.09194 0.71341 0.70257 0.0
H1958 H 0.05211 0.62211 0.69895 0.0
C1959 C 0.03642 0.66259 0.67552 0.0
C1960 C 0.34808 0.387 0.69515 0.0
C1961 C 0.31334 0.35494 0.68765 0.0
H1962 H 0.4259 0.44031 0.69917 0.0
C1963 C 0.33256 0.35435 0.67784 0.0
H1964 H 0.33461 0.38852 0.70277 0.0
C1965 C 0.38584 0.38403 0.67574 0.0
C1966 C 0.42082 0.4154 0.68337 0.0
H1967 H 0.30672 0.3298 0.67191 0.0
H1968 H 0.39965 0.38162 0.66822 0.0
C1969 C 0.40075 0.41695 0.69304 0.0
C1970 C 0.66137 0.97098 0.69458 0.0
C1971 C 0.69366 0.9688 0.68706 0.0
H1972 H 0.60788 0.99511 0.6987 0.0
C1973 C 0.69432 0.98902 0.6773 0.0
H1974 H 0.65975 0.95564 0.70217 0.0
C1975 C 0.66459 1.01267 0.67528 0.0
C1976 C 0.63309 1.01587 0.68294 0.0
H1977 H 0.71898 0.98804 0.67134 0.0
H1978 H 0.66709 0.02928 0.66779 0.0
C1979 C 0.63138 0.99371 0.69255 0.0
C1980 C 0.3481 0.97054 0.19471 0.0
C1981 C 0.31356 0.96802 0.18718 0.0
H1982 H 0.42579 0.995 0.19881 0.0
C1983 C 0.33303 0.98798 0.1774 0.0
H1984 H 0.33445 0.9554 0.20231 0.0
C1985 C 0.38638 1.01168 0.17536 0.0
C1986 C 0.42115 1.0152 0.18302 0.0
H1987 H 0.30733 0.98674 0.17144 0.0
H1988 H 0.4004 0.02806 0.16785 0.0
C1989 C 0.40081 0.99333 0.19266 0.0
C1990 C 0.05516 0.41689 0.19289 0.0
C1991 C 0.03364 0.41536 0.18323 0.0
H1992 H 0.09285 0.38844 0.20261 0.0
C1993 C 0.03744 0.38413 0.17558 0.0
H1994 H 0.05323 0.44017 0.19903 0.0
C1995 C 0.06111 0.35451 0.17766 0.0
C1996 C 0.08078 0.35502 0.18747 0.0
H1997 H 1.02131 0.38179 0.16805 0.0
H1998 H 0.06256 0.33006 0.17172 0.0
C1999 C 0.07796 0.38699 0.19499 0.0
C2000 C 0.66482 0.66225 0.17547 0.0
C2001 C 0.63352 0.62718 0.1831 0.0
H2002 H 0.71882 0.74153 0.17163 0.0
C2003 C 0.63187 0.64725 0.19277 0.0
H2004 H 0.66729 0.64845 0.16795 0.0
C2005 C 0.66167 0.69996 0.19487 0.0
C2006 C 0.6937 0.73479 0.18738 0.0
H2007 H 0.60853 0.62205 0.1989 0.0
H2008 H 0.66008 0.71339 0.20249 0.0
C2009 C 0.69435 0.7156 0.17757 0.0
C2010 C 0.3169 1.00708 1.00063 0.0
C2011 C 0.31316 0.97201 1.00817 0.0
H2012 H 0.34194 0.08509 0.99664 0.0
C2013 C 0.33166 0.99086 0.01806 0.0
H2014 H 0.30294 0.99391 0.99295 0.0
C2015 C 0.35506 0.04413 0.02022 0.0
C2016 C 0.35966 0.07943 1.01256 0.0
H2017 H 0.32945 0.96473 0.02402 0.0
H2018 H 0.37026 0.05769 0.02781 0.0
C2019 C 0.33933 0.05969 1.0028 0.0
C2020 C 0.05719 0.35086 0.01851 0.0
C2021 C 0.07655 0.35011 1.00872 0.0
H2022 H 0.98996 0.32362 0.02809 0.0
C2023 C 0.04196 0.31768 1.00124 0.0
H2024 H 0.08292 0.37564 0.02443 0.0
C2025 C 0.98929 0.2876 1.00333 0.0
C2026 C 0.96906 0.28938 1.01296 0.0
H2027 H 0.05553 0.31601 0.99364 0.0
H2028 H 0.96425 0.26399 0.99721 0.0
C2029 C 1.0039 0.32105 0.02059 0.0
C2030 C 0.7614 0.71395 1.00336 0.0
C2031 C 0.75907 0.69158 1.01297 0.0
H2032 H 0.73302 0.75168 0.99362 0.0
C2033 C 0.72643 0.69376 0.0205 0.0
H2034 H 0.78569 0.71305 0.99732 0.0
C2035 C 0.6964 0.71691 0.01836 0.0
C2036 C 0.69773 0.73749 1.00861 0.0
H2037 H 0.72345 0.6769 0.02797 0.0
H2038 H 0.671 0.71726 0.02422 0.0
C2039 C 0.73095 0.7361 1.0012 0.0
C2040 C 0.7108 0.06772 0.83393 0.0
C2041 C 0.74559 0.07237 0.84161 0.0
H2042 H 0.63278 0.04125 0.82971 0.0
C2043 C 0.7264 0.05461 0.85151 0.0
H2044 H 0.72427 0.0812 0.82624 0.0
C2045 C 0.67309 0.03091 0.85354 0.0
C2046 C 0.63804 0.02498 0.84573 0.0
H2047 H 0.7523 0.05758 0.85759 0.0
H2048 H 0.6593 1.01619 0.86116 0.0
C2049 C 0.65804 0.04473 0.83596 0.0
C2050 C 0.98021 0.65142 0.8346 0.0
C2051 C 0.97761 0.68364 0.84208 0.0
H2052 H 1.00494 0.59825 0.83056 0.0
C2053 C 0.99773 0.68456 0.85187 0.0
H2054 H 0.96497 0.64962 0.827 0.0
C2055 C 1.02165 0.65513 0.85395 0.0
C2056 C 1.02525 0.62368 0.84632 0.0
H2057 H 0.99645 0.70919 0.85779 0.0
H2058 H 0.03815 0.65783 0.86145 0.0
C2059 C 1.00322 0.62172 0.83669 0.0
C2060 C 0.36348 0.32123 0.85169 0.0
C2061 C 0.3642 0.30221 0.84187 0.0
H2062 H 0.39073 0.38817 0.86136 0.0
C2063 C 0.39657 0.33701 0.83441 0.0
H2064 H 0.33873 0.29528 0.85759 0.0
C2065 C 0.42665 0.38962 0.83656 0.0
C2066 C 0.42488 0.40953 0.84624 0.0
H2067 H 0.3982 0.32365 0.82678 0.0
H2068 H 0.45024 0.41486 0.83046 0.0
C2069 C 0.39328 0.37446 0.85384 0.0
C2070 C 0.70227 0.99507 1.00899 0.0
C2071 C 0.69811 0.95994 0.01664 0.0
H2072 H 0.72778 0.07438 1.00514 0.0
C2073 C 0.7192 0.97987 0.02635 0.0
H2074 H 0.68648 0.98136 1.00144 0.0
C2075 C 0.74197 0.03257 0.02846 0.0
C2076 C 0.74525 0.06748 0.02094 0.0
H2077 H 0.71696 0.95459 0.03249 0.0
H2078 H 0.75655 0.04594 0.03611 0.0
C2079 C 0.72596 0.04838 1.0111 0.0
C2080 C 1.01187 0.73843 0.02428 0.0
C2081 C 0.97973 0.696 0.01809 0.0
H2082 H 0.08861 0.79827 0.0277 0.0
C2083 C 1.00204 0.68394 1.00982 0.0
H2084 H 0.99603 0.74899 0.03068 0.0
C2085 C 0.05553 0.71254 1.00805 0.0
C2086 C 0.08803 0.75373 1.01453 0.0
H2087 H 0.97833 0.65158 1.00487 0.0
H2088 H 0.07154 0.70119 1.00181 0.0
C2089 C 0.06517 0.76674 0.02256 0.0
C2090 C 0.29712 0.32735 0.02625 0.0
C2091 C 0.29844 0.34888 0.01659 0.0
H2092 H 0.3257 0.28963 0.03592 0.0
C2093 C 0.32948 0.34503 1.00891 0.0
H2094 H 0.27399 0.3293 0.03241 0.0
C2095 C 0.35911 0.32132 1.01095 0.0
C2096 C 0.35881 0.30166 0.02076 0.0
H2097 H 0.33167 0.36115 1.00138 0.0
H2098 H 0.38339 0.31982 1.00498 0.0
C2099 C 0.32701 0.30452 0.0283 0.0
C2100 C 0.06856 0.3306 0.52634 0.0
C2101 C 0.08885 0.35184 0.51666 0.0
H2102 H 1.00215 0.29327 0.53601 0.0
C2103 C 0.05416 0.34826 0.50898 0.0
H2104 H 0.09354 0.33246 0.53251 0.0
C2105 C 1.00092 0.32493 0.51102 0.0
C2106 C 0.98143 0.30535 0.52083 0.0
H2107 H 0.06817 0.3642 0.50144 0.0
H2108 H 0.97527 0.32346 0.50503 0.0
C2109 C 1.01587 0.3081 0.5284 0.0
C2110 C 0.70376 0.71703 0.50875 0.0
C2111 C 0.70056 0.74902 0.5163 0.0
H2112 H 0.72825 0.66228 0.50504 0.0
C2113 C 0.72252 0.75116 0.52595 0.0
H2114 H 0.68727 0.71416 0.50124 0.0
C2115 C 0.74514 0.72117 0.52813 0.0
C2116 C 0.7474 0.68848 0.52071 0.0
H2117 H 0.72107 0.77502 0.53203 0.0
H2118 H 0.76037 0.72315 0.53574 0.0
C2119 C 0.72728 0.68732 0.51091 0.0
C2120 C 0.33159 0.99699 0.50899 0.0
C2121 C 0.30018 0.96168 0.51657 0.0
H2122 H 0.38542 0.07644 0.50524 0.0
C2123 C 0.29817 0.98144 0.52625 0.0
H2124 H 0.33432 0.98343 0.50146 0.0
C2125 C 0.32773 0.0341 0.52842 0.0
C2126 C 0.35985 0.06918 0.52096 0.0
H2127 H 0.27473 0.95605 0.53235 0.0
H2128 H 0.32585 0.04729 0.53604 0.0
C2129 C 0.36087 0.0503 0.51114 0.0
C2130 C 1.00355 0.39209 0.33651 0.0
C2131 C 1.02536 0.41211 0.34617 0.0
H2132 H 0.96552 0.32597 0.32678 0.0
C2133 C 1.0217 0.37701 0.35378 0.0
H2134 H 1.00533 0.41731 0.3304 0.0
C2135 C 0.99789 0.32367 0.35167 0.0
C2136 C 0.97791 0.3045 0.34187 0.0
H2137 H 0.03805 0.39077 0.3613 0.0
H2138 H 0.99655 0.29773 0.35759 0.0
C2139 C 0.98063 0.33937 0.33439 0.0
C2140 C 0.72526 0.68528 0.35169 0.0
C2141 C 0.74444 0.68456 0.34188 0.0
H2142 H 0.65823 0.65811 0.36133 0.0
C2143 C 0.70965 0.65234 0.3344 0.0
H2144 H 0.75113 0.70995 0.35761 0.0
C2145 C 0.657 0.62238 0.33653 0.0
C2146 C 0.63698 0.62406 0.3462 0.0
H2147 H 0.72307 0.65071 0.32679 0.0
H2148 H 0.63182 0.59888 0.33041 0.0
C2149 C 0.672 0.65559 0.35381 0.0
C2150 C 0.36361 0.05063 0.35203 0.0
C2151 C 0.36433 0.07081 0.34226 0.0
H2152 H 0.3908 1.01042 0.36155 0.0
C2153 C 0.39667 0.06863 0.33475 0.0
H2154 H 0.33891 0.05162 0.35797 0.0
C2155 C 0.42666 0.04592 0.3368 0.0
C2156 C 0.4249 0.0238 0.34642 0.0
H2157 H 0.39833 0.08395 0.32716 0.0
H2158 H 0.45021 0.04451 0.33066 0.0
C2159 C 0.39334 0.02701 0.35407 0.0
C2160 C 0.15551 0.311 0.09149 0.0
C2161 C 0.17951 0.361 0.08732 0.0
H2162 H 0.13162 0.26454 0.10502 0.0
C2163 C 0.20175 0.40342 0.09402 0.0
H2164 H 0.13854 0.27746 0.08654 0.0
C2165 C 0.19822 0.39602 0.10463 0.0
C2166 C 0.17245 0.34602 0.1088 0.0
H2167 H 0.22019 0.44247 0.09109 0.0
H2168 H 0.21493 0.42955 0.10957 0.0
C2169 C 0.15206 0.30359 0.10209 0.0
C2170 C 0.64604 0.79661 0.09427 0.0
C2171 C 0.68456 0.82868 0.08729 0.0
H2172 H 0.62601 0.77458 0.10991 0.0
C2173 C 0.73239 0.86705 0.09111 0.0
H2174 H 0.60901 0.76623 0.09159 0.0
C2175 C 0.7421 0.87199 0.10163 0.0
C2176 C 0.70429 0.83855 0.10859 0.0
H2177 H 0.76257 0.8929 0.08594 0.0
H2178 H 0.77954 0.90161 0.10431 0.0
C2179 C 0.6558 0.80145 0.10479 0.0
C2180 C 0.17403 0.87737 0.1014 0.0
C2181 C 0.20902 0.8751 0.10826 0.0
H2182 H 0.15144 0.87519 0.08578 0.0
C2183 C 0.24741 0.8659 0.10434 0.0
H2184 H 0.14344 0.88349 0.10418 0.0
C2185 C 0.25182 0.86092 0.0938 0.0
C2186 C 0.21806 0.86515 0.08692 0.0
H2187 H 0.27549 0.86467 0.10936 0.0
H2188 H 0.2831 0.85592 0.09102 0.0
C2189 C 0.17856 0.87256 0.09086 0.0
C2190 C 0.41127 0.18008 0.43537 0.0
C2191 C 0.37295 0.17419 0.44234 0.0
H2192 H 0.43111 0.17756 0.41974 0.0
C2193 C 0.32531 0.16518 0.43853 0.0
H2194 H 0.44816 0.18637 0.43806 0.0
C2195 C 0.31557 0.16033 0.428 0.0
C2196 C 0.35317 0.16416 0.42104 0.0
H2197 H 0.29528 0.16129 0.44369 0.0
H2198 H 0.27827 0.15288 0.42532 0.0
C2199 C 0.40149 0.17507 0.42485 0.0
C2200 C 0.85273 0.17286 0.42572 0.0
C2201 C 0.89617 0.21156 0.42058 0.0
H2202 H 0.81439 0.14474 0.44015 0.0
C2203 C 0.93538 0.25162 0.42632 0.0
H2204 H 0.82185 0.14158 0.42148 0.0
C2205 C 0.93122 0.25332 0.43692 0.0
C2206 C 0.88768 0.21507 0.44209 0.0
H2207 H 0.96964 0.28164 0.42262 0.0
H2208 H 0.96188 0.28525 0.44107 0.0
C2209 C 0.84833 0.17482 0.43637 0.0
C2210 C 0.79056 0.69222 0.4262 0.0
C2211 C 0.83102 0.69305 0.4206 0.0
H2212 H 0.75584 0.6851 0.44083 0.0
C2213 C 0.8691 0.68793 0.42589 0.0
H2214 H 0.76099 0.69676 0.42238 0.0
C2215 C 0.86627 0.68146 0.43654 0.0
C2216 C 0.82571 0.68073 0.44212 0.0
H2217 H 0.90065 0.68826 0.42178 0.0
H2218 H 0.89603 0.67753 0.44043 0.0
C2219 C 0.78796 0.68618 0.4368 0.0
C2220 C 0.90272 0.73835 0.92731 0.0
C2221 C 0.88183 0.69584 0.92063 0.0
H2222 H 0.9158 0.76459 0.94286 0.0
C2223 C 0.85455 0.64593 0.9248 0.0
H2224 H 0.92429 0.77732 0.92437 0.0
C2225 C 0.85007 0.63862 0.9354 0.0
C2226 C 0.87286 0.68106 0.9421 0.0
H2227 H 0.83743 0.61236 0.91987 0.0
H2228 H 0.83053 0.59958 0.93834 0.0
C2229 C 0.89834 0.73104 0.93792 0.0
C2230 C 0.4029 0.24159 0.92441 0.0
C2231 C 0.3559 0.20187 0.92055 0.0
H2232 H 0.44832 0.27864 0.93767 0.0
C2233 C 0.31963 0.16598 0.92744 0.0
H2234 H 0.4314 0.27036 0.91935 0.0
C2235 C 0.32927 0.17091 0.93797 0.0
C2236 C 0.3755 0.21169 0.94184 0.0
H2237 H 0.28343 0.13439 0.92471 0.0
H2238 H 0.30026 0.1431 0.94309 0.0
C2239 C 0.4126 0.24639 0.93493 0.0
C2240 C 0.85013 0.12353 0.92764 0.0
C2241 C 0.84954 0.1595 0.92082 0.0
H2242 H 0.84339 0.09823 0.94315 0.0
C2243 C 0.84552 0.20097 0.9248 0.0
H2244 H 0.85244 0.09072 0.92482 0.0
C2245 C 0.84061 0.20548 0.93534 0.0
C2246 C 0.83933 0.16845 0.94215 0.0
H2247 H 0.84571 0.22974 0.91974 0.0
H2248 H 0.83726 0.23771 0.93814 0.0
C2249 C 0.84501 0.12789 0.93817 0.0
C2250 C 0.65124 0.83412 0.59389 0.0
C2251 C 0.68907 0.86805 0.58698 0.0
H2252 H 0.63055 0.81242 0.60954 0.0
C2253 C 0.73737 0.90524 0.59084 0.0
H2254 H 0.61394 0.80443 0.59116 0.0
C2255 C 0.74692 0.90966 0.60137 0.0
C2256 C 0.70838 0.87708 0.60829 0.0
H2257 H 0.76715 0.93247 0.58577 0.0
H2258 H 0.7838 0.94011 0.6041 0.0
C2259 C 0.66075 0.83864 0.60442 0.0
C2260 C 0.17928 0.86928 0.59138 0.0
C2261 C 0.18573 0.82908 0.5875 0.0
H2262 H 0.16888 0.90511 0.60464 0.0
C2263 C 0.1889 0.7948 0.59441 0.0
H2264 H 0.17748 0.89678 0.58626 0.0
C2265 C 0.18375 0.7994 0.60493 0.0
C2266 C 0.17544 0.83849 0.6088 0.0
H2267 H 0.19315 0.76299 0.59166 0.0
H2268 H 0.18409 0.77092 0.60998 0.0
C2269 C 0.1743 0.874 0.60191 0.0
C2270 C 0.27389 0.35813 0.59285 0.0
C2271 C 0.23482 0.36056 0.58737 0.0
H2272 H 0.3014 0.34978 0.60739 0.0
C2273 C 0.19252 0.35694 0.59278 0.0
H2274 H 0.30732 0.36149 0.58894 0.0
C2275 C 0.18923 0.35044 0.60344 0.0
C2276 C 0.22853 0.34818 0.60889 0.0
H2277 H 0.16174 0.35851 0.58877 0.0
H2278 H 0.15626 0.34774 0.60742 0.0
C2279 C 0.2708 0.35206 0.60345 0.0
C2280 C 0.06422 0.53584 0.75789 0.0
C2281 C 1.01715 0.49614 0.75406 0.0
H2282 H 0.11089 0.57151 0.77109 0.0
C2283 C 0.97947 0.46262 0.76103 0.0
H2284 H 0.09372 0.56278 0.75273 0.0
C2285 C 0.98935 0.46746 0.77154 0.0
C2286 C 0.03712 0.50602 0.77535 0.0
H2287 H 0.94307 0.4312 0.75833 0.0
H2288 H 0.96029 0.43955 0.77664 0.0
C2289 C 0.07405 0.5408 0.76841 0.0
C2290 C 0.57239 0.51325 0.76066 0.0
C2291 C 0.55252 0.53587 0.75398 0.0
H2292 H 0.58513 0.49967 0.77619 0.0
C2293 C 0.52693 0.56021 0.75819 0.0
H2294 H 0.59267 0.49453 0.7577 0.0
C2295 C 0.52304 0.56358 0.7688 0.0
C2296 C 0.54473 0.54277 0.77547 0.0
H2297 H 0.51062 0.57748 0.75327 0.0
H2298 H 0.50474 0.58426 0.77175 0.0
C2299 C 0.56858 0.5167 0.77127 0.0
C2300 C 0.46401 0.02727 0.75974 0.0
C2301 C 0.50445 0.02876 0.75402 0.0
H2302 H 0.43006 1.01976 0.77447 0.0
C2303 C 0.54345 0.02472 0.75919 0.0
H2304 H 0.43373 0.03097 0.75602 0.0
C2305 C 0.54145 1.01845 0.76985 0.0
C2306 C 0.50084 1.01694 0.77553 0.0
H2307 H 0.57503 0.02562 0.75497 0.0
H2308 H 0.57179 1.01515 0.77364 0.0
C2309 C 0.46226 0.02151 0.77034 0.0
C2310 C 0.52466 0.02273 0.25933 0.0
C2311 C 0.56678 0.02594 0.25392 0.0
H2312 H 0.48858 1.01404 0.27398 0.0
C2313 C 0.60571 0.02327 0.2594 0.0
H2314 H 0.49399 0.02449 0.25531 0.0
C2315 C 0.60267 1.0174 0.27001 0.0
C2316 C 0.56058 1.01395 0.27545 0.0
H2317 H 0.63901 0.02632 0.2555 0.0
H2318 H 0.63316 1.01494 0.27396 0.0
C2319 C 0.52141 1.01642 0.26999 0.0
C2320 C 0.07912 0.57707 0.2683 0.0
C2321 C 0.04105 0.54398 0.27525 0.0
H2322 H 0.09879 0.59999 0.25269 0.0
C2323 C 0.99371 0.50485 0.2714 0.0
H2324 H 0.11575 0.60806 0.27101 0.0
C2325 C 0.98402 0.50007 0.26088 0.0
C2326 C 1.02137 0.53444 0.25395 0.0
H2327 H 0.96389 0.47824 0.27655 0.0
H2328 H 0.94697 0.46981 0.25817 0.0
C2329 C 0.06939 0.5724 0.25778 0.0
C2330 C 0.54982 0.49672 0.26095 0.0
C2331 C 0.51413 0.49731 0.25404 0.0
H2332 H 0.5725 0.50011 0.27661 0.0
C2333 C 0.47446 0.5047 0.2579 0.0
H2334 H 0.58138 0.49202 0.25823 0.0
C2335 C 0.46956 0.50958 0.26842 0.0
C2336 C 0.50411 0.50705 0.27535 0.0
H2337 H 0.44581 0.50457 0.25283 0.0
H2338 H 0.43737 0.51319 0.27115 0.0
C2339 C 0.5448 0.50141 0.27148 0.0
C2340 C 0.03946 0.20722 0.2714 0.0
C2341 C 1.00337 0.15636 0.27429 0.0
H2342 H 0.0898 0.25751 0.25971 0.0
C2343 C 0.98936 0.11687 0.26701 0.0
H2344 H 0.05182 0.23863 0.2768 0.0
C2345 C 1.0113 0.1277 0.25721 0.0
C2346 C 0.04788 0.17842 0.25435 0.0
H2347 H 0.96094 0.07739 0.26883 0.0
H2348 H 0.99915 0.09622 0.25182 0.0
C2349 C 0.06134 0.21809 0.26157 0.0
C2350 C 0.93205 0.8842 0.26712 0.0
C2351 C 0.89266 0.85856 0.27442 0.0
H2352 H 0.95241 0.91449 0.25192 0.0
C2353 C 0.84176 0.84351 0.27154 0.0
H2354 H 0.97157 0.89551 0.26893 0.0
C2355 C 0.83071 0.85426 0.26171 0.0
C2356 C 0.87024 0.88053 0.25448 0.0
H2357 H 0.81042 0.82437 0.27695 0.0
H2358 H 0.79124 0.84302 0.25986 0.0
C2359 C 0.92103 0.89507 0.25732 0.0
C2360 C 0.13934 0.02121 0.27034 0.0
C2361 C 0.18815 0.03913 0.27481 0.0
H2362 H 0.09036 0.98621 0.25739 0.0
C2363 C 0.22584 0.03509 0.26909 0.0
H2364 H 0.10943 0.02413 0.27442 0.0
C2365 C 0.21507 1.01384 0.25922 0.0
C2366 C 0.1663 0.99609 0.25475 0.0
H2367 H 0.26368 0.04792 0.27228 0.0
H2368 H 0.24529 1.01197 0.25503 0.0
C2369 C 0.12858 1.00001 0.26048 0.0
C2370 C 0.04874 0.91147 0.77236 0.0
C2371 C 1.0109 0.86098 0.77507 0.0
H2372 H 0.10009 0.96173 0.76084 0.0
C2373 C 0.99608 0.82172 0.76771 0.0
H2374 H 0.06189 0.9426 0.77786 0.0
C2375 C 1.01793 0.83275 0.75788 0.0
C2376 C 0.05536 0.88338 0.75513 0.0
H2377 H 0.96661 0.78252 0.76945 0.0
H2378 H 1.00452 0.80169 0.75237 0.0
C2379 C 0.07067 0.92247 0.76256 0.0
C2380 C 0.15122 0.1251 0.75733 0.0
C2381 C 0.16716 0.17615 0.75439 0.0
H2382 H 0.14975 0.07429 0.76901 0.0
C2383 C 0.19488 0.21587 0.76151 0.0
H2384 H 0.13063 0.09354 0.75202 0.0
C2385 C 0.20572 0.20478 0.77133 0.0
C2386 C 0.18931 0.15365 0.77431 0.0
H2387 H 0.20722 0.25556 0.75959 0.0
H2388 H 0.22602 0.23632 0.77666 0.0
C2389 C 0.16219 0.11404 0.76712 0.0
C2390 C 0.9288 0.03561 0.76902 0.0
C2391 C 0.89242 0.04292 0.77448 0.0
H2392 H 0.94679 1.00888 0.75529 0.0
C2393 C 0.8449 0.02854 0.76975 0.0
H2394 H 0.96607 0.04674 0.77232 0.0
C2395 C 0.83405 1.00732 0.75987 0.0
C2396 C 0.87044 0.99998 0.75443 0.0
H2397 H 0.8157 0.03308 0.77373 0.0
H2398 H 0.79723 0.99716 0.75647 0.0
C2399 C 0.91797 1.01446 0.75916 0.0
C2400 C 0.70681 0.53903 0.60505 0.0
C2401 C 0.66914 0.48847 0.60779 0.0
H2402 H 0.75834 0.58923 0.5935 0.0
C2403 C 0.65366 0.44943 0.60034 0.0
H2404 H 0.72038 0.57006 0.61058 0.0
C2405 C 0.67564 0.46045 0.59054 0.0
C2406 C 0.71369 0.51088 0.58784 0.0
H2407 H 0.62407 0.41022 0.60204 0.0
H2408 H 0.66233 0.42936 0.58502 0.0
C2409 C 0.7287 0.55008 0.59523 0.0
C2410 C 0.52844 0.15631 0.60134 0.0
C2411 C 0.55459 0.19589 0.60856 0.0
H2412 H 0.49831 0.13593 0.58612 0.0
C2413 C 0.56856 0.24663 0.60576 0.0
H2414 H 0.51764 0.11689 0.60316 0.0
C2415 C 0.55729 0.25757 0.59599 0.0
C2416 C 0.53183 0.21814 0.58869 0.0
H2417 H 0.58788 0.27802 0.61116 0.0
H2418 H 0.56821 0.29706 0.5942 0.0
C2419 C 0.5173 0.16728 0.59154 0.0
C2420 C 0.81217 0.36693 0.60229 0.0
C2421 C 0.85623 0.3748 0.60767 0.0
H2422 H 0.76712 0.33992 0.58861 0.0
C2423 C 0.88971 0.36113 0.60283 0.0
H2424 H 0.78574 0.37751 0.60567 0.0
C2425 C 0.8793 0.34005 0.59294 0.0
C2426 C 0.83517 0.33211 0.58757 0.0
H2427 H 0.92376 0.36609 0.60673 0.0
H2428 H 0.90623 0.33043 0.58946 0.0
C2429 C 0.8018 0.34593 0.59241 0.0
C2430 C 0.73598 0.25615 0.09573 0.0
C2431 C 0.72138 0.21687 0.08837 0.0
H2432 H 0.72656 0.27639 0.11098 0.0
C2433 C 0.68468 0.16608 0.09118 0.0
H2434 H 0.76485 0.29555 0.09397 0.0
C2435 C 0.66283 0.15504 0.101 0.0
C2436 C 0.6769 0.19447 0.10829 0.0
H2437 H 0.67184 0.13487 0.08571 0.0
H2438 H 0.63394 0.11569 0.1028 0.0
C2439 C 0.71401 0.24513 0.10553 0.0
C2440 C 0.88004 0.54058 0.10464 0.0
C2441 C 0.87102 0.49093 0.10709 0.0
H2442 H 0.87725 0.59046 0.09322 0.0
C2443 C 0.85361 0.45357 0.09927 0.0
H2444 H 0.89273 0.5702 0.11046 0.0
C2445 C 0.84468 0.46521 0.08936 0.0
C2446 C 0.85293 0.51461 0.08695 0.0
H2447 H 0.84715 0.41521 0.10077 0.0
H2448 H 0.83153 0.43543 0.08356 0.0
C2449 C 0.87115 0.55224 0.09472 0.0
C2450 C 0.56621 0.33308 0.10547 0.0
C2451 C 0.55407 0.37126 0.10821 0.0
H2452 H 0.56481 0.28173 0.09392 0.0
C2453 C 0.52993 0.38648 0.10087 0.0
H2454 H 0.58388 0.31958 0.11096 0.0
C2455 C 0.5191 0.3648 0.09102 0.0
C2456 C 0.53199 0.32717 0.08824 0.0
H2457 H 0.52054 0.41616 0.10264 0.0
H2458 H 0.50173 0.37851 0.08551 0.0
C2459 C 0.55528 0.31135 0.09566 0.0
C2460 C 0.35514 0.86469 0.92414 0.0
C2461 C 0.38948 0.84797 0.92107 0.0
H2462 H 0.30656 0.86657 0.93599 0.0
C2463 C 0.40195 0.82062 0.92819 0.0
H2464 H 0.34394 0.88518 0.91886 0.0
C2465 C 0.38031 0.80977 0.93802 0.0
C2466 C 0.34562 0.82607 0.94106 0.0
H2467 H 0.42899 0.80796 0.92623 0.0
H2468 H 0.39127 0.78902 0.94329 0.0
C2469 C 0.3336 0.85396 0.93399 0.0
C2470 C 0.23503 0.5774 0.93889 0.0
C2471 C 0.22104 0.52667 0.94171 0.0
H2472 H 0.23522 0.6279 0.92729 0.0
C2473 C 0.19531 0.48715 0.93445 0.0
H2474 H 0.25399 0.60875 0.94432 0.0
C2475 C 0.18464 0.49819 0.92461 0.0
C2476 C 0.19929 0.54908 0.92175 0.0
H2477 H 0.18447 0.44772 0.93628 0.0
H2478 H 0.16595 0.46691 0.91917 0.0
C2479 C 0.22428 0.58841 0.92909 0.0
C2480 C 0.52685 0.65148 0.92857 0.0
C2481 C 0.50248 0.66618 0.92118 0.0
H2482 H 0.55515 0.66016 0.94392 0.0
C2483 C 0.48987 0.70411 0.92385 0.0
H2484 H 0.53657 0.62197 0.92686 0.0
C2485 C 0.50069 0.72619 0.93364 0.0
C2486 C 0.52435 0.71097 0.9411 0.0
H2487 H 0.47196 0.71719 0.91833 0.0
H2488 H 0.49084 0.75564 0.93532 0.0
C2489 C 0.53756 0.67349 0.93838 0.0
C2490 C 0.38153 0.58019 0.43888 0.0
C2491 C 0.34472 0.52951 0.44171 0.0
H2492 H 0.432 0.63047 0.42726 0.0
C2493 C 0.33091 0.4899 0.43447 0.0
H2494 H 0.39391 0.61162 0.44428 0.0
C2495 C 0.3527 0.50076 0.42464 0.0
C2496 C 0.38908 0.55156 0.42176 0.0
H2497 H 0.30225 0.45053 0.43631 0.0
H2498 H 0.34007 0.46939 0.41922 0.0
C2499 C 0.4034 0.59103 0.42907 0.0
C2500 C 0.48607 0.79224 0.42384 0.0
C2501 C 0.50145 0.84322 0.42094 0.0
H2502 H 0.48524 0.74152 0.43547 0.0
C2503 C 0.52882 0.8829 0.42809 0.0
H2504 H 0.46576 0.76073 0.4185 0.0
C2505 C 0.53985 0.87184 0.43789 0.0
C2506 C 0.52399 0.82077 0.44082 0.0
H2507 H 0.54072 0.92253 0.4262 0.0
H2508 H 0.55984 0.90333 0.44324 0.0
C2509 C 0.49723 0.7812 0.43361 0.0
C2510 C 0.17418 0.67771 0.43797 0.0
C2511 C 0.22524 0.7123 0.44098 0.0
H2512 H 0.12361 0.62859 0.42618 0.0
C2513 C 0.26489 0.72496 0.4338 0.0
H2514 H 0.14262 0.66645 0.44329 0.0
C2515 C 0.25398 0.70312 0.42399 0.0
C2516 C 0.20304 0.66798 0.42103 0.0
H2517 H 0.30457 0.75224 0.43571 0.0
H2518 H 0.28559 0.7142 0.41869 0.0
C2519 C 0.16323 0.65592 0.42813 0.0
loop_
_geom_bond_atom_site_label_1
_geom_bond_atom_site_label_2
_geom_bond_distance
_geom_bond_site_symmetry_2
_ccdc_geom_bond_type
Pr0 C2 2.880 . S
Pr0 O20 2.562 . S
Pr0 O21 2.490 . S
Pr0 O22 2.695 . S
Pr0 O23 2.512 . S
Pr0 O25 2.437 . S
Pr0 O28 2.436 . S
Pr0 O30 2.438 . S
Pr1 C11 2.880 . S
Pr1 O22 2.436 . S
Pr1 O24 2.438 . S
Pr1 O26 2.562 . S
Pr1 O27 2.490 . S
Pr1 O28 2.695 . S
Pr1 O29 2.512 . S
Pr1 O31 2.437 . S
C2 Pr0 2.880 . S
C2 C3 1.491 . S
C2 O20 1.254 . S
C2 O21 1.225 . S
C3 C2 1.491 . S
C3 C4 1.392 . S
C3 C8 1.356 . S
C4 C3 1.392 . S
C4 C5 1.368 . S
C4 H32 0.929 . S
C5 C4 1.368 . S
C5 C6 1.386 . S
C5 H33 0.929 . S
C6 C5 1.386 . S
C6 C7 1.373 . S
C7 C6 1.373 . S
C7 C8 1.409 . S
C7 H34 0.931 . S
C8 C3 1.356 . S
C8 C7 1.409 . S
C8 H35 0.930 . S
C9 O22 1.270 . S
C9 O23 1.248 . S
C10 O24 1.267 . S
C10 O25 1.278 . S
C11 Pr1 2.880 . S
C11 C12 1.491 . S
C11 O26 1.254 . S
C11 O27 1.225 . S
C12 C11 1.491 . S
C12 C13 1.392 . S
C12 C17 1.356 . S
C13 C12 1.392 . S
C13 C14 1.368 . S
C13 H36 0.929 . S
C14 C13 1.368 . S
C14 C15 1.386 . S
C14 H37 0.929 . S
C15 C14 1.386 . S
C15 C16 1.373 . S
C16 C15 1.373 . S
C16 C17 1.409 . S
C16 H38 0.931 . S
C17 C12 1.356 . S
C17 C16 1.409 . S
C17 H39 0.930 . S
C18 O28 1.270 . S
C18 O29 1.248 . S
C19 O30 1.267 . S
C19 O31 1.278 . S
O20 Pr0 2.562 . S
O20 C2 1.254 . S
O21 Pr0 2.490 . S
O21 C2 1.225 . S
O22 Pr0 2.695 . S
O22 Pr1 2.436 . S
O22 C9 1.270 . S
O23 Pr0 2.512 . S
O23 C9 1.248 . S
O24 Pr1 2.438 . S
O24 C10 1.267 . S
O25 Pr0 2.437 . S
O25 C10 1.278 . S
O26 Pr1 2.562 . S
O26 C11 1.254 . S
O27 Pr1 2.490 . S
O27 C11 1.225 . S
O28 Pr0 2.436 . S
O28 Pr1 2.695 . S
O28 C18 1.270 . S
O29 Pr1 2.512 . S
O29 C18 1.248 . S
O30 Pr0 2.438 . S
O30 C19 1.267 . S
O31 Pr1 2.437 . S
O31 C19 1.278 . S
H32 C4 0.929 . S
H33 C5 0.929 . S
H34 C7 0.931 . S
H35 C8 0.930 . S
H36 C13 0.929 . S
H37 C14 0.929 . S
H38 C16 0.931 . S
H39 C17 0.930 . S
Pr40 C42 2.880 . S
Pr40 O60 2.562 . S
Pr40 O61 2.490 . S
Pr40 O62 2.695 . S
Pr40 O63 2.526 . S
Pr40 O65 2.437 . S
Pr40 O68 2.436 . S
Pr40 O70 2.438 . S
Pr41 C51 2.880 . S
Pr41 O62 2.436 . S
Pr41 O64 2.438 . S
Pr41 O66 2.562 . S
Pr41 O67 2.490 . S
Pr41 O68 2.695 . S
Pr41 O69 2.512 . S
Pr41 O71 2.437 . S
C42 Pr40 2.880 . S
C42 C43 1.491 . S
C42 O60 1.254 . S
C42 O61 1.225 . S
C43 C42 1.491 . S
C43 C44 1.392 . S
C43 C48 1.356 . S
C44 C43 1.392 . S
C44 C45 1.368 . S
C44 H72 0.929 . S
C45 C44 1.368 . S
C45 C46 1.386 . S
C45 H73 0.929 . S
C46 C45 1.386 . S
C46 C47 1.373 . S
C47 C46 1.373 . S
C47 C48 1.409 . S
C47 H74 0.931 . S
C48 C43 1.356 . S
C48 C47 1.409 . S
C48 H75 0.930 . S
C49 O62 1.270 . S
C49 O63 1.249 . S
C50 O64 1.267 . S
C50 O65 1.278 . S
C51 Pr41 2.880 . S
C51 C52 1.491 . S
C51 O66 1.254 . S
C51 O67 1.225 . S
C52 C51 1.491 . S
C52 C53 1.392 . S
C52 C57 1.356 . S
C53 C52 1.392 . S
C53 C54 1.368 . S
C53 H76 0.929 . S
C54 C53 1.368 . S
C54 C55 1.386 . S
C54 H77 0.929 . S
C55 C54 1.386 . S
C55 C56 1.373 . S
C56 C55 1.373 . S
C56 C57 1.409 . S
C56 H78 0.931 . S
C57 C52 1.356 . S
C57 C56 1.409 . S
C57 H79 0.930 . S
C58 O68 1.270 . S
C58 O69 1.248 . S
C59 O70 1.267 . S
C59 O71 1.278 . S
O60 Pr40 2.562 . S
O60 C42 1.254 . S
O61 Pr40 2.490 . S
O61 C42 1.225 . S
O62 Pr40 2.695 . S
O62 Pr41 2.436 . S
O62 C49 1.270 . S
O63 Pr40 2.526 . S
O63 C49 1.249 . S
O64 Pr41 2.438 . S
O64 C50 1.267 . S
O65 Pr40 2.437 . S
O65 C50 1.278 . S
O66 Pr41 2.562 . S
O66 C51 1.254 . S
O67 Pr41 2.490 . S
O67 C51 1.225 . S
O68 Pr40 2.436 . S
O68 Pr41 2.695 . S
O68 C58 1.270 . S
O69 Pr41 2.512 . S
O69 C58 1.248 . S
O70 Pr40 2.438 . S
O70 C59 1.267 . S
O71 Pr41 2.437 . S
O71 C59 1.278 . S
H72 C44 0.929 . S
H73 C45 0.929 . S
H74 C47 0.931 . S
H75 C48 0.930 . S
H76 C53 0.929 . S
H77 C54 0.929 . S
H78 C56 0.931 . S
H79 C57 0.930 . S
Pr80 C82 2.880 . S
Pr80 O100 2.562 . S
Pr80 O101 2.490 . S
Pr80 O102 2.695 . S
Pr80 O103 2.530 . S
Pr80 O105 2.437 . S
Pr80 O108 2.436 . S
Pr80 O110 2.438 . S
Pr81 C91 2.880 . S
Pr81 O102 2.436 . S
Pr81 O104 2.438 . S
Pr81 O106 2.562 . S
Pr81 O107 2.490 . S
Pr81 O108 2.695 . S
Pr81 O109 2.512 . S
Pr81 O111 2.437 . S
C82 Pr80 2.880 . S
C82 C83 1.491 . S
C82 O100 1.254 . S
C82 O101 1.225 . S
C83 C82 1.491 . S
C83 C84 1.392 . S
C83 C88 1.356 . S
C84 C83 1.392 . S
C84 C85 1.368 . S
C84 H112 0.929 . S
C85 C84 1.368 . S
C85 C86 1.386 . S
C85 H113 0.929 . S
C86 C85 1.386 . S
C86 C87 1.373 . S
C87 C86 1.373 . S
C87 C88 1.409 . S
C87 H114 0.931 . S
C88 C83 1.356 . S
C88 C87 1.409 . S
C88 H115 0.930 . S
C89 O102 1.270 . S
C89 O103 1.250 . S
C90 O104 1.267 . S
C90 O105 1.278 . S
C91 Pr81 2.880 . S
C91 C92 1.491 . S
C91 O106 1.254 . S
C91 O107 1.225 . S
C92 C91 1.491 . S
C92 C93 1.392 . S
C92 C97 1.356 . S
C93 C92 1.392 . S
C93 C94 1.368 . S
C93 H116 0.929 . S
C94 C93 1.368 . S
C94 C95 1.386 . S
C94 H117 0.929 . S
C95 C94 1.386 . S
C95 C96 1.373 . S
C96 C95 1.373 . S
C96 C97 1.409 . S
C96 H118 0.931 . S
C97 C92 1.356 . S
C97 C96 1.409 . S
C97 H119 0.930 . S
C98 O108 1.270 . S
C98 O109 1.248 . S
C99 O110 1.267 . S
C99 O111 1.278 . S
O100 Pr80 2.562 . S
O100 C82 1.254 . S
O101 Pr80 2.490 . S
O101 C82 1.225 . S
O102 Pr80 2.695 . S
O102 Pr81 2.436 . S
O102 C89 1.270 . S
O103 Pr80 2.530 . S
O103 C89 1.250 . S
O104 Pr81 2.438 . S
O104 C90 1.267 . S
O105 Pr80 2.437 . S
O105 C90 1.278 . S
O106 Pr81 2.562 . S
O106 C91 1.254 . S
O107 Pr81 2.490 . S
O107 C91 1.225 . S
O108 Pr80 2.436 . S
O108 Pr81 2.695 . S
O108 C98 1.270 . S
O109 Pr81 2.512 . S
O109 C98 1.248 . S
O110 Pr80 2.438 . S
O110 C99 1.267 . S
O111 Pr81 2.437 . S
O111 C99 1.278 . S
H112 C84 0.929 . S
H113 C85 0.929 . S
H114 C87 0.931 . S
H115 C88 0.930 . S
H116 C93 0.929 . S
H117 C94 0.929 . S
H118 C96 0.931 . S
H119 C97 0.930 . S
Pr120 C122 2.880 . S
Pr120 O140 2.562 . S
Pr120 O141 2.490 . S
Pr120 O142 2.695 . S
Pr120 O143 2.512 . S
Pr120 O145 2.437 . S
Pr120 O148 2.436 . S
Pr120 O150 2.438 . S
Pr121 C131 2.880 . S
Pr121 O142 2.436 . S
Pr121 O144 2.438 . S
Pr121 O146 2.562 . S
Pr121 O147 2.490 . S
Pr121 O148 2.695 . S
Pr121 O149 2.512 . S
Pr121 O151 2.437 . S
C122 Pr120 2.880 . S
C122 C123 1.491 . S
C122 O140 1.254 . S
C122 O141 1.225 . S
C123 C122 1.491 . S
C123 C124 1.392 . S
C123 C128 1.356 . S
C124 C123 1.392 . S
C124 C125 1.368 . S
C124 H152 0.929 . S
C125 C124 1.368 . S
C125 C126 1.386 . S
C125 H153 0.929 . S
C126 C125 1.386 . S
C126 C127 1.373 . S
C127 C126 1.373 . S
C127 C128 1.409 . S
C127 H154 0.931 . S
C128 C123 1.356 . S
C128 C127 1.409 . S
C128 H155 0.930 . S
C129 O142 1.270 . S
C129 O143 1.248 . S
C130 O144 1.267 . S
C130 O145 1.278 . S
C131 Pr121 2.880 . S
C131 C132 1.491 . S
C131 O146 1.254 . S
C131 O147 1.225 . S
C132 C131 1.491 . S
C132 C133 1.392 . S
C132 C137 1.356 . S
C133 C132 1.392 . S
C133 C134 1.368 . S
C133 H156 0.929 . S
C134 C133 1.368 . S
C134 C135 1.386 . S
C134 H157 0.929 . S
C135 C134 1.386 . S
C135 C136 1.373 . S
C136 C135 1.373 . S
C136 C137 1.409 . S
C136 H158 0.931 . S
C137 C132 1.356 . S
C137 C136 1.409 . S
C137 H159 0.930 . S
C138 O148 1.270 . S
C138 O149 1.248 . S
C139 O150 1.267 . S
C139 O151 1.278 . S
O140 Pr120 2.562 . S
O140 C122 1.254 . S
O141 Pr120 2.490 . S
O141 C122 1.225 . S
O142 Pr120 2.695 . S
O142 Pr121 2.436 . S
O142 C129 1.270 . S
O143 Pr120 2.512 . S
O143 C129 1.248 . S
O144 Pr121 2.438 . S
O144 C130 1.267 . S
O145 Pr120 2.437 . S
O145 C130 1.278 . S
O146 Pr121 2.562 . S
O146 C131 1.254 . S
O147 Pr121 2.490 . S
O147 C131 1.225 . S
O148 Pr120 2.436 . S
O148 Pr121 2.695 . S
O148 C138 1.270 . S
O149 Pr121 2.512 . S
O149 C138 1.248 . S
O150 Pr120 2.438 . S
O150 C139 1.267 . S
O151 Pr121 2.437 . S
O151 C139 1.278 . S
H152 C124 0.929 . S
H153 C125 0.929 . S
H154 C127 0.931 . S
H155 C128 0.930 . S
H156 C133 0.929 . S
H157 C134 0.929 . S
H158 C136 0.931 . S
H159 C137 0.930 . S
Pr160 C162 2.880 . S
Pr160 O180 2.562 . S
Pr160 O181 2.490 . S
Pr160 O182 2.695 . S
Pr160 O183 2.512 . S
Pr160 O185 2.437 . S
Pr160 O188 2.436 . S
Pr160 O190 2.438 . S
Pr161 C171 2.880 . S
Pr161 O182 2.436 . S
Pr161 O184 2.438 . S
Pr161 O186 2.562 . S
Pr161 O187 2.490 . S
Pr161 O188 2.695 . S
Pr161 O189 2.512 . S
Pr161 O191 2.437 . S
C162 Pr160 2.880 . S
C162 C163 1.491 . S
C162 O180 1.254 . S
C162 O181 1.225 . S
C163 C162 1.491 . S
C163 C164 1.392 . S
C163 C168 1.356 . S
C164 C163 1.392 . S
C164 C165 1.368 . S
C164 H192 0.929 . S
C165 C164 1.368 . S
C165 C166 1.386 . S
C165 H193 0.929 . S
C166 C165 1.386 . S
C166 C167 1.373 . S
C167 C166 1.373 . S
C167 C168 1.409 . S
C167 H194 0.931 . S
C168 C163 1.356 . S
C168 C167 1.409 . S
C168 H195 0.930 . S
C169 O182 1.270 . S
C169 O183 1.248 . S
C170 O184 1.267 . S
C170 O185 1.278 . S
C171 Pr161 2.880 . S
C171 C172 1.491 . S
C171 O186 1.254 . S
C171 O187 1.225 . S
C172 C171 1.491 . S
C172 C173 1.392 . S
C172 C177 1.356 . S
C173 C172 1.392 . S
C173 C174 1.368 . S
C173 H196 0.929 . S
C174 C173 1.368 . S
C174 C175 1.386 . S
C174 H197 0.929 . S
C175 C174 1.386 . S
C175 C176 1.373 . S
C176 C175 1.373 . S
C176 C177 1.409 . S
C176 H198 0.931 . S
C177 C172 1.356 . S
C177 C176 1.409 . S
C177 H199 0.930 . S
C178 O188 1.270 . S
C178 O189 1.248 . S
C179 O190 1.267 . S
C179 O191 1.278 . S
O180 Pr160 2.562 . S
O180 C162 1.254 . S
O181 Pr160 2.490 . S
O181 C162 1.225 . S
O182 Pr160 2.695 . S
O182 Pr161 2.436 . S
O182 C169 1.270 . S
O183 Pr160 2.512 . S
O183 C169 1.248 . S
O184 Pr161 2.438 . S
O184 C170 1.267 . S
O185 Pr160 2.437 . S
O185 C170 1.278 . S
O186 Pr161 2.562 . S
O186 C171 1.254 . S
O187 Pr161 2.490 . S
O187 C171 1.225 . S
O188 Pr160 2.436 . S
O188 Pr161 2.695 . S
O188 C178 1.270 . S
O189 Pr161 2.512 . S
O189 C178 1.248 . S
O190 Pr160 2.438 . S
O190 C179 1.267 . S
O191 Pr161 2.437 . S
O191 C179 1.278 . S
H192 C164 0.929 . S
H193 C165 0.929 . S
H194 C167 0.931 . S
H195 C168 0.930 . S
H196 C173 0.929 . S
H197 C174 0.929 . S
H198 C176 0.931 . S
H199 C177 0.930 . S
Pr200 C202 2.880 . S
Pr200 O220 2.562 . S
Pr200 O221 2.490 . S
Pr200 O222 2.695 . S
Pr200 O223 2.512 . S
Pr200 O225 2.437 . S
Pr200 O228 2.436 . S
Pr200 O230 2.438 . S
Pr201 C211 2.880 . S
Pr201 O222 2.436 . S
Pr201 O224 2.438 . S
Pr201 O226 2.562 . S
Pr201 O227 2.490 . S
Pr201 O228 2.695 . S
Pr201 O229 2.512 . S
Pr201 O231 2.437 . S
C202 Pr200 2.880 . S
C202 C203 1.491 . S
C202 O220 1.254 . S
C202 O221 1.225 . S
C203 C202 1.491 . S
C203 C204 1.392 . S
C203 C208 1.356 . S
C204 C203 1.392 . S
C204 C205 1.368 . S
C204 H232 0.929 . S
C205 C204 1.368 . S
C205 C206 1.386 . S
C205 H233 0.929 . S
C206 C205 1.386 . S
C206 C207 1.373 . S
C207 C206 1.373 . S
C207 C208 1.409 . S
C207 H234 0.931 . S
C208 C203 1.356 . S
C208 C207 1.409 . S
C208 H235 0.930 . S
C209 O222 1.270 . S
C209 O223 1.248 . S
C210 O224 1.267 . S
C210 O225 1.278 . S
C211 Pr201 2.880 . S
C211 C212 1.491 . S
C211 O226 1.254 . S
C211 O227 1.225 . S
C212 C211 1.491 . S
C212 C213 1.392 . S
C212 C217 1.356 . S
C213 C212 1.392 . S
C213 C214 1.368 . S
C213 H236 0.929 . S
C214 C213 1.368 . S
C214 C215 1.386 . S
C214 H237 0.929 . S
C215 C214 1.386 . S
C215 C216 1.373 . S
C216 C215 1.373 . S
C216 C217 1.409 . S
C216 H238 0.931 . S
C217 C212 1.356 . S
C217 C216 1.409 . S
C217 H239 0.930 . S
C218 O228 1.270 . S
C218 O229 1.248 . S
C219 O230 1.267 . S
C219 O231 1.278 . S
O220 Pr200 2.562 . S
O220 C202 1.254 . S
O221 Pr200 2.490 . S
O221 C202 1.225 . S
O222 Pr200 2.695 . S
O222 Pr201 2.436 . S
O222 C209 1.270 . S
O223 Pr200 2.512 . S
O223 C209 1.248 . S
O224 Pr201 2.438 . S
O224 C210 1.267 . S
O225 Pr200 2.437 . S
O225 C210 1.278 . S
O226 Pr201 2.562 . S
O226 C211 1.254 . S
O227 Pr201 2.490 . S
O227 C211 1.225 . S
O228 Pr200 2.436 . S
O228 Pr201 2.695 . S
O228 C218 1.270 . S
O229 Pr201 2.512 . S
O229 C218 1.248 . S
O230 Pr200 2.438 . S
O230 C219 1.267 . S
O231 Pr201 2.437 . S
O231 C219 1.278 . S
H232 C204 0.929 . S
H233 C205 0.929 . S
H234 C207 0.931 . S
H235 C208 0.930 . S
H236 C213 0.929 . S
H237 C214 0.929 . S
H238 C216 0.931 . S
H239 C217 0.930 . S
Pr240 C242 2.880 . S
Pr240 O260 2.562 . S
Pr240 O261 2.490 . S
Pr240 O262 2.695 . S
Pr240 O263 2.512 . S
Pr240 O265 2.437 . S
Pr240 O268 2.436 . S
Pr240 O270 2.438 . S
Pr241 C251 2.880 . S
Pr241 O262 2.436 . S
Pr241 O264 2.438 . S
Pr241 O266 2.562 . S
Pr241 O267 2.490 . S
Pr241 O268 2.695 . S
Pr241 O269 2.512 . S
Pr241 O271 2.437 . S
C242 Pr240 2.880 . S
C242 C243 1.491 . S
C242 O260 1.254 . S
C242 O261 1.225 . S
C243 C242 1.491 . S
C243 C244 1.392 . S
C243 C248 1.356 . S
C244 C243 1.392 . S
C244 C245 1.368 . S
C244 H272 0.929 . S
C245 C244 1.368 . S
C245 C246 1.386 . S
C245 H273 0.929 . S
C246 C245 1.386 . S
C246 C247 1.373 . S
C247 C246 1.373 . S
C247 C248 1.409 . S
C247 H274 0.931 . S
C248 C243 1.356 . S
C248 C247 1.409 . S
C248 H275 0.930 . S
C249 O262 1.270 . S
C249 O263 1.248 . S
C250 O264 1.267 . S
C250 O265 1.278 . S
C251 Pr241 2.880 . S
C251 C252 1.491 . S
C251 O266 1.254 . S
C251 O267 1.225 . S
C252 C251 1.491 . S
C252 C253 1.392 . S
C252 C257 1.356 . S
C253 C252 1.392 . S
C253 C254 1.368 . S
C253 H276 0.929 . S
C254 C253 1.368 . S
C254 C255 1.386 . S
C254 H277 0.929 . S
C255 C254 1.386 . S
C255 C256 1.373 . S
C256 C255 1.373 . S
C256 C257 1.409 . S
C256 H278 0.931 . S
C257 C252 1.356 . S
C257 C256 1.409 . S
C257 H279 0.930 . S
C258 O268 1.270 . S
C258 O269 1.248 . S
C259 O270 1.267 . S
C259 O271 1.278 . S
O260 Pr240 2.562 . S
O260 C242 1.254 . S
O261 Pr240 2.490 . S
O261 C242 1.225 . S
O262 Pr240 2.695 . S
O262 Pr241 2.436 . S
O262 C249 1.270 . S
O263 Pr240 2.512 . S
O263 C249 1.248 . S
O264 Pr241 2.438 . S
O264 C250 1.267 . S
O265 Pr240 2.437 . S
O265 C250 1.278 . S
O266 Pr241 2.562 . S
O266 C251 1.254 . S
O267 Pr241 2.490 . S
O267 C251 1.225 . S
O268 Pr240 2.436 . S
O268 Pr241 2.695 . S
O268 C258 1.270 . S
O269 Pr241 2.512 . S
O269 C258 1.248 . S
O270 Pr240 2.438 . S
O270 C259 1.267 . S
O271 Pr241 2.437 . S
O271 C259 1.278 . S
H272 C244 0.929 . S
H273 C245 0.929 . S
H274 C247 0.931 . S
H275 C248 0.930 . S
H276 C253 0.929 . S
H277 C254 0.929 . S
H278 C256 0.931 . S
H279 C257 0.930 . S
Pr280 C282 2.880 . S
Pr280 O300 2.562 . S
Pr280 O301 2.490 . S
Pr280 O302 2.695 . S
Pr280 O303 2.512 . S
Pr280 O305 2.437 . S
Pr280 O308 2.436 . S
Pr280 O310 2.438 . S
Pr281 C291 2.880 . S
Pr281 O302 2.436 . S
Pr281 O304 2.438 . S
Pr281 O306 2.562 . S
Pr281 O307 2.490 . S
Pr281 O308 2.695 . S
Pr281 O309 2.526 . S
Pr281 O311 2.437 . S
C282 Pr280 2.880 . S
C282 C283 1.491 . S
C282 O300 1.254 . S
C282 O301 1.225 . S
C283 C282 1.491 . S
C283 C284 1.392 . S
C283 C288 1.356 . S
C284 C283 1.392 . S
C284 C285 1.368 . S
C284 H312 0.929 . S
C285 C284 1.368 . S
C285 C286 1.386 . S
C285 H313 0.929 . S
C286 C285 1.386 . S
C286 C287 1.373 . S
C287 C286 1.373 . S
C287 C288 1.409 . S
C287 H314 0.931 . S
C288 C283 1.356 . S
C288 C287 1.409 . S
C288 H315 0.930 . S
C289 O302 1.270 . S
C289 O303 1.248 . S
C290 O304 1.267 . S
C290 O305 1.278 . S
C291 Pr281 2.880 . S
C291 C292 1.491 . S
C291 O306 1.254 . S
C291 O307 1.225 . S
C292 C291 1.491 . S
C292 C293 1.392 . S
C292 C297 1.356 . S
C293 C292 1.392 . S
C293 C294 1.368 . S
C293 H316 0.929 . S
C294 C293 1.368 . S
C294 C295 1.386 . S
C294 H317 0.929 . S
C295 C294 1.386 . S
C295 C296 1.373 . S
C296 C295 1.373 . S
C296 C297 1.409 . S
C296 H318 0.931 . S
C297 C292 1.356 . S
C297 C296 1.409 . S
C297 H319 0.930 . S
C298 O308 1.270 . S
C298 O309 1.249 . S
C299 O310 1.267 . S
C299 O311 1.278 . S
O300 Pr280 2.562 . S
O300 C282 1.254 . S
O301 Pr280 2.490 . S
O301 C282 1.225 . S
O302 Pr280 2.695 . S
O302 Pr281 2.436 . S
O302 C289 1.270 . S
O303 Pr280 2.512 . S
O303 C289 1.248 . S
O304 Pr281 2.438 . S
O304 C290 1.267 . S
O305 Pr280 2.437 . S
O305 C290 1.278 . S
O306 Pr281 2.562 . S
O306 C291 1.254 . S
O307 Pr281 2.490 . S
O307 C291 1.225 . S
O308 Pr280 2.436 . S
O308 Pr281 2.695 . S
O308 C298 1.270 . S
O309 Pr281 2.526 . S
O309 C298 1.249 . S
O310 Pr280 2.438 . S
O310 C299 1.267 . S
O311 Pr281 2.437 . S
O311 C299 1.278 . S
H312 C284 0.929 . S
H313 C285 0.929 . S
H314 C287 0.931 . S
H315 C288 0.930 . S
H316 C293 0.929 . S
H317 C294 0.929 . S
H318 C296 0.931 . S
H319 C297 0.930 . S
Pr320 C322 2.880 . S
Pr320 O340 2.562 . S
Pr320 O341 2.490 . S
Pr320 O342 2.695 . S
Pr320 O343 2.512 . S
Pr320 O345 2.437 . S
Pr320 O348 2.436 . S
Pr320 O350 2.438 . S
Pr321 C331 2.880 . S
Pr321 O342 2.436 . S
Pr321 O344 2.438 . S
Pr321 O346 2.562 . S
Pr321 O347 2.490 . S
Pr321 O348 2.695 . S
Pr321 O349 2.530 . S
Pr321 O351 2.437 . S
C322 Pr320 2.880 . S
C322 C323 1.491 . S
C322 O340 1.254 . S
C322 O341 1.225 . S
C323 C322 1.491 . S
C323 C324 1.392 . S
C323 C328 1.356 . S
C324 C323 1.392 . S
C324 C325 1.368 . S
C324 H352 0.929 . S
C325 C324 1.368 . S
C325 C326 1.386 . S
C325 H353 0.929 . S
C326 C325 1.386 . S
C326 C327 1.373 . S
C327 C326 1.373 . S
C327 C328 1.409 . S
C327 H354 0.931 . S
C328 C323 1.356 . S
C328 C327 1.409 . S
C328 H355 0.930 . S
C329 O342 1.270 . S
C329 O343 1.248 . S
C330 O344 1.267 . S
C330 O345 1.278 . S
C331 Pr321 2.880 . S
C331 C332 1.491 . S
C331 O346 1.254 . S
C331 O347 1.225 . S
C332 C331 1.491 . S
C332 C333 1.392 . S
C332 C337 1.356 . S
C333 C332 1.392 . S
C333 C334 1.368 . S
C333 H356 0.929 . S
C334 C333 1.368 . S
C334 C335 1.386 . S
C334 H357 0.929 . S
C335 C334 1.386 . S
C335 C336 1.373 . S
C336 C335 1.373 . S
C336 C337 1.409 . S
C336 H358 0.931 . S
C337 C332 1.356 . S
C337 C336 1.409 . S
C337 H359 0.930 . S
C338 O348 1.270 . S
C338 O349 1.250 . S
C339 O350 1.267 . S
C339 O351 1.278 . S
O340 Pr320 2.562 . S
O340 C322 1.254 . S
O341 Pr320 2.490 . S
O341 C322 1.225 . S
O342 Pr320 2.695 . S
O342 Pr321 2.436 . S
O342 C329 1.270 . S
O343 Pr320 2.512 . S
O343 C329 1.248 . S
O344 Pr321 2.438 . S
O344 C330 1.267 . S
O345 Pr320 2.437 . S
O345 C330 1.278 . S
O346 Pr321 2.562 . S
O346 C331 1.254 . S
O347 Pr321 2.490 . S
O347 C331 1.225 . S
O348 Pr320 2.436 . S
O348 Pr321 2.695 . S
O348 C338 1.270 . S
O349 Pr321 2.530 . S
O349 C338 1.250 . S
O350 Pr320 2.438 . S
O350 C339 1.267 . S
O351 Pr321 2.437 . S
O351 C339 1.278 . S
H352 C324 0.929 . S
H353 C325 0.929 . S
H354 C327 0.931 . S
H355 C328 0.930 . S
H356 C333 0.929 . S
H357 C334 0.929 . S
H358 C336 0.931 . S
H359 C337 0.930 . S
Pr360 C362 2.880 . S
Pr360 O380 2.562 . S
Pr360 O381 2.490 . S
Pr360 O382 2.695 . S
Pr360 O383 2.512 . S
Pr360 O385 2.437 . S
Pr360 O388 2.436 . S
Pr360 O390 2.438 . S
Pr361 C371 2.880 . S
Pr361 O382 2.436 . S
Pr361 O384 2.438 . S
Pr361 O386 2.562 . S
Pr361 O387 2.490 . S
Pr361 O388 2.695 . S
Pr361 O389 2.512 . S
Pr361 O391 2.437 . S
C362 Pr360 2.880 . S
C362 C363 1.491 . S
C362 O380 1.254 . S
C362 O381 1.225 . S
C363 C362 1.491 . S
C363 C364 1.392 . S
C363 C368 1.356 . S
C364 C363 1.392 . S
C364 C365 1.368 . S
C364 H392 0.929 . S
C365 C364 1.368 . S
C365 C366 1.386 . S
C365 H393 0.929 . S
C366 C365 1.386 . S
C366 C367 1.373 . S
C367 C366 1.373 . S
C367 C368 1.409 . S
C367 H394 0.931 . S
C368 C363 1.356 . S
C368 C367 1.409 . S
C368 H395 0.930 . S
C369 O382 1.270 . S
C369 O383 1.248 . S
C370 O384 1.267 . S
C370 O385 1.278 . S
C371 Pr361 2.880 . S
C371 C372 1.491 . S
C371 O386 1.254 . S
C371 O387 1.225 . S
C372 C371 1.491 . S
C372 C373 1.392 . S
C372 C377 1.356 . S
C373 C372 1.392 . S
C373 C374 1.368 . S
C373 H396 0.929 . S
C374 C373 1.368 . S
C374 C375 1.386 . S
C374 H397 0.929 . S
C375 C374 1.386 . S
C375 C376 1.373 . S
C376 C375 1.373 . S
C376 C377 1.409 . S
C376 H398 0.931 . S
C377 C372 1.356 . S
C377 C376 1.409 . S
C377 H399 0.930 . S
C378 O388 1.270 . S
C378 O389 1.248 . S
C379 O390 1.267 . S
C379 O391 1.278 . S
O380 Pr360 2.562 . S
O380 C362 1.254 . S
O381 Pr360 2.490 . S
O381 C362 1.225 . S
O382 Pr360 2.695 . S
O382 Pr361 2.436 . S
O382 C369 1.270 . S
O383 Pr360 2.512 . S
O383 C369 1.248 . S
O384 Pr361 2.438 . S
O384 C370 1.267 . S
O385 Pr360 2.437 . S
O385 C370 1.278 . S
O386 Pr361 2.562 . S
O386 C371 1.254 . S
O387 Pr361 2.490 . S
O387 C371 1.225 . S
O388 Pr360 2.436 . S
O388 Pr361 2.695 . S
O388 C378 1.270 . S
O389 Pr361 2.512 . S
O389 C378 1.248 . S
O390 Pr360 2.438 . S
O390 C379 1.267 . S
O391 Pr361 2.437 . S
O391 C379 1.278 . S
H392 C364 0.929 . S
H393 C365 0.929 . S
H394 C367 0.931 . S
H395 C368 0.930 . S
H396 C373 0.929 . S
H397 C374 0.929 . S
H398 C376 0.931 . S
H399 C377 0.930 . S
Pr400 C402 2.880 . S
Pr400 O420 2.562 . S
Pr400 O421 2.490 . S
Pr400 O422 2.695 . S
Pr400 O423 2.512 . S
Pr400 O425 2.437 . S
Pr400 O428 2.436 . S
Pr400 O430 2.438 . S
Pr401 C411 2.880 . S
Pr401 O422 2.436 . S
Pr401 O424 2.438 . S
Pr401 O426 2.562 . S
Pr401 O427 2.490 . S
Pr401 O428 2.695 . S
Pr401 O429 2.512 . S
Pr401 O431 2.437 . S
C402 Pr400 2.880 . S
C402 C403 1.491 . S
C402 O420 1.254 . S
C402 O421 1.225 . S
C403 C402 1.491 . S
C403 C404 1.392 . S
C403 C408 1.356 . S
C404 C403 1.392 . S
C404 C405 1.368 . S
C404 H432 0.929 . S
C405 C404 1.368 . S
C405 C406 1.386 . S
C405 H433 0.929 . S
C406 C405 1.386 . S
C406 C407 1.373 . S
C407 C406 1.373 . S
C407 C408 1.409 . S
C407 H434 0.931 . S
C408 C403 1.356 . S
C408 C407 1.409 . S
C408 H435 0.930 . S
C409 O422 1.270 . S
C409 O423 1.248 . S
C410 O424 1.267 . S
C410 O425 1.278 . S
C411 Pr401 2.880 . S
C411 C412 1.491 . S
C411 O426 1.254 . S
C411 O427 1.225 . S
C412 C411 1.491 . S
C412 C413 1.392 . S
C412 C417 1.356 . S
C413 C412 1.392 . S
C413 C414 1.368 . S
C413 H436 0.929 . S
C414 C413 1.368 . S
C414 C415 1.386 . S
C414 H437 0.929 . S
C415 C414 1.386 . S
C415 C416 1.373 . S
C416 C415 1.373 . S
C416 C417 1.409 . S
C416 H438 0.931 . S
C417 C412 1.356 . S
C417 C416 1.409 . S
C417 H439 0.930 . S
C418 O428 1.270 . S
C418 O429 1.248 . S
C419 O430 1.267 . S
C419 O431 1.278 . S
O420 Pr400 2.562 . S
O420 C402 1.254 . S
O421 Pr400 2.490 . S
O421 C402 1.225 . S
O422 Pr400 2.695 . S
O422 Pr401 2.436 . S
O422 C409 1.270 . S
O423 Pr400 2.512 . S
O423 C409 1.248 . S
O424 Pr401 2.438 . S
O424 C410 1.267 . S
O425 Pr400 2.437 . S
O425 C410 1.278 . S
O426 Pr401 2.562 . S
O426 C411 1.254 . S
O427 Pr401 2.490 . S
O427 C411 1.225 . S
O428 Pr400 2.436 . S
O428 Pr401 2.695 . S
O428 C418 1.270 . S
O429 Pr401 2.512 . S
O429 C418 1.248 . S
O430 Pr400 2.438 . S
O430 C419 1.267 . S
O431 Pr401 2.437 . S
O431 C419 1.278 . S
H432 C404 0.929 . S
H433 C405 0.929 . S
H434 C407 0.931 . S
H435 C408 0.930 . S
H436 C413 0.929 . S
H437 C414 0.929 . S
H438 C416 0.931 . S
H439 C417 0.930 . S
Pr440 C442 2.880 . S
Pr440 O460 2.562 . S
Pr440 O461 2.490 . S
Pr440 O462 2.695 . S
Pr440 O463 2.512 . S
Pr440 O465 2.437 . S
Pr440 O468 2.436 . S
Pr440 O470 2.438 . S
Pr441 C451 2.880 . S
Pr441 O462 2.436 . S
Pr441 O464 2.438 . S
Pr441 O466 2.562 . S
Pr441 O467 2.490 . S
Pr441 O468 2.695 . S
Pr441 O469 2.512 . S
Pr441 O471 2.437 . S
C442 Pr440 2.880 . S
C442 C443 1.491 . S
C442 O460 1.254 . S
C442 O461 1.225 . S
C443 C442 1.491 . S
C443 C444 1.392 . S
C443 C448 1.356 . S
C444 C443 1.392 . S
C444 C445 1.368 . S
C444 H472 0.929 . S
C445 C444 1.368 . S
C445 C446 1.386 . S
C445 H473 0.929 . S
C446 C445 1.386 . S
C446 C447 1.373 . S
C447 C446 1.373 . S
C447 C448 1.409 . S
C447 H474 0.931 . S
C448 C443 1.356 . S
C448 C447 1.409 . S
C448 H475 0.930 . S
C449 O462 1.270 . S
C449 O463 1.248 . S
C450 O464 1.267 . S
C450 O465 1.278 . S
C451 Pr441 2.880 . S
C451 C452 1.491 . S
C451 O466 1.254 . S
C451 O467 1.225 . S
C452 C451 1.491 . S
C452 C453 1.392 . S
C452 C457 1.356 . S
C453 C452 1.392 . S
C453 C454 1.368 . S
C453 H476 0.929 . S
C454 C453 1.368 . S
C454 C455 1.386 . S
C454 H477 0.929 . S
C455 C454 1.386 . S
C455 C456 1.373 . S
C456 C455 1.373 . S
C456 C457 1.409 . S
C456 H478 0.931 . S
C457 C452 1.356 . S
C457 C456 1.409 . S
C457 H479 0.930 . S
C458 O468 1.270 . S
C458 O469 1.248 . S
C459 O470 1.267 . S
C459 O471 1.278 . S
O460 Pr440 2.562 . S
O460 C442 1.254 . S
O461 Pr440 2.490 . S
O461 C442 1.225 . S
O462 Pr440 2.695 . S
O462 Pr441 2.436 . S
O462 C449 1.270 . S
O463 Pr440 2.512 . S
O463 C449 1.248 . S
O464 Pr441 2.438 . S
O464 C450 1.267 . S
O465 Pr440 2.437 . S
O465 C450 1.278 . S
O466 Pr441 2.562 . S
O466 C451 1.254 . S
O467 Pr441 2.490 . S
O467 C451 1.225 . S
O468 Pr440 2.436 . S
O468 Pr441 2.695 . S
O468 C458 1.270 . S
O469 Pr441 2.512 . S
O469 C458 1.248 . S
O470 Pr440 2.438 . S
O470 C459 1.267 . S
O471 Pr441 2.437 . S
O471 C459 1.278 . S
H472 C444 0.929 . S
H473 C445 0.929 . S
H474 C447 0.931 . S
H475 C448 0.930 . S
H476 C453 0.929 . S
H477 C454 0.929 . S
H478 C456 0.931 . S
H479 C457 0.930 . S
Pr480 C482 2.880 . S
Pr480 O500 2.562 . S
Pr480 O501 2.490 . S
Pr480 O502 2.695 . S
Pr480 O503 2.512 . S
Pr480 O505 2.437 . S
Pr480 O508 2.436 . S
Pr480 O510 2.438 . S
Pr481 C491 2.880 . S
Pr481 O502 2.436 . S
Pr481 O504 2.438 . S
Pr481 O506 2.562 . S
Pr481 O507 2.490 . S
Pr481 O508 2.695 . S
Pr481 O509 2.512 . S
Pr481 O511 2.437 . S
C482 Pr480 2.880 . S
C482 C483 1.491 . S
C482 O500 1.254 . S
C482 O501 1.225 . S
C483 C482 1.491 . S
C483 C484 1.392 . S
C483 C488 1.356 . S
C484 C483 1.392 . S
C484 C485 1.368 . S
C484 H512 0.929 . S
C485 C484 1.368 . S
C485 C486 1.386 . S
C485 H513 0.929 . S
C486 C485 1.386 . S
C486 C487 1.373 . S
C487 C486 1.373 . S
C487 C488 1.409 . S
C487 H514 0.931 . S
C488 C483 1.356 . S
C488 C487 1.409 . S
C488 H515 0.930 . S
C489 O502 1.270 . S
C489 O503 1.248 . S
C490 O504 1.267 . S
C490 O505 1.278 . S
C491 Pr481 2.880 . S
C491 C492 1.491 . S
C491 O506 1.254 . S
C491 O507 1.225 . S
C492 C491 1.491 . S
C492 C493 1.392 . S
C492 C497 1.356 . S
C493 C492 1.392 . S
C493 C494 1.368 . S
C493 H516 0.929 . S
C494 C493 1.368 . S
C494 C495 1.386 . S
C494 H517 0.929 . S
C495 C494 1.386 . S
C495 C496 1.373 . S
C496 C495 1.373 . S
C496 C497 1.409 . S
C496 H518 0.931 . S
C497 C492 1.356 . S
C497 C496 1.409 . S
C497 H519 0.930 . S
C498 O508 1.270 . S
C498 O509 1.248 . S
C499 O510 1.267 . S
C499 O511 1.278 . S
O500 Pr480 2.562 . S
O500 C482 1.254 . S
O501 Pr480 2.490 . S
O501 C482 1.225 . S
O502 Pr480 2.695 . S
O502 Pr481 2.436 . S
O502 C489 1.270 . S
O503 Pr480 2.512 . S
O503 C489 1.248 . S
O504 Pr481 2.438 . S
O504 C490 1.267 . S
O505 Pr480 2.437 . S
O505 C490 1.278 . S
O506 Pr481 2.562 . S
O506 C491 1.254 . S
O507 Pr481 2.490 . S
O507 C491 1.225 . S
O508 Pr480 2.436 . S
O508 Pr481 2.695 . S
O508 C498 1.270 . S
O509 Pr481 2.512 . S
O509 C498 1.248 . S
O510 Pr480 2.438 . S
O510 C499 1.267 . S
O511 Pr481 2.437 . S
O511 C499 1.278 . S
H512 C484 0.929 . S
H513 C485 0.929 . S
H514 C487 0.931 . S
H515 C488 0.930 . S
H516 C493 0.929 . S
H517 C494 0.929 . S
H518 C496 0.931 . S
H519 C497 0.930 . S
Pr520 C522 2.880 . S
Pr520 O540 2.562 . S
Pr520 O541 2.490 . S
Pr520 O542 2.695 . S
Pr520 O543 2.512 . S
Pr520 O545 2.437 . S
Pr520 O548 2.436 . S
Pr520 O550 2.438 . S
Pr521 C531 2.880 . S
Pr521 O542 2.436 . S
Pr521 O544 2.438 . S
Pr521 O546 2.562 . S
Pr521 O547 2.490 . S
Pr521 O548 2.695 . S
Pr521 O549 2.512 . S
Pr521 O551 2.437 . S
C522 Pr520 2.880 . S
C522 C523 1.491 . S
C522 O540 1.254 . S
C522 O541 1.225 . S
C523 C522 1.491 . S
C523 C524 1.392 . S
C523 C528 1.356 . S
C524 C523 1.392 . S
C524 C525 1.368 . S
C524 H552 0.929 . S
C525 C524 1.368 . S
C525 C526 1.386 . S
C525 H553 0.929 . S
C526 C525 1.386 . S
C526 C527 1.373 . S
C527 C526 1.373 . S
C527 C528 1.409 . S
C527 H554 0.931 . S
C528 C523 1.356 . S
C528 C527 1.409 . S
C528 H555 0.930 . S
C529 O542 1.270 . S
C529 O543 1.248 . S
C530 O544 1.267 . S
C530 O545 1.278 . S
C531 Pr521 2.880 . S
C531 C532 1.491 . S
C531 O546 1.254 . S
C531 O547 1.225 . S
C532 C531 1.491 . S
C532 C533 1.392 . S
C532 C537 1.356 . S
C533 C532 1.392 . S
C533 C534 1.368 . S
C533 H556 0.929 . S
C534 C533 1.368 . S
C534 C535 1.386 . S
C534 H557 0.929 . S
C535 C534 1.386 . S
C535 C536 1.373 . S
C536 C535 1.373 . S
C536 C537 1.409 . S
C536 H558 0.931 . S
C537 C532 1.356 . S
C537 C536 1.409 . S
C537 H559 0.930 . S
C538 O548 1.270 . S
C538 O549 1.248 . S
C539 O550 1.267 . S
C539 O551 1.278 . S
O540 Pr520 2.562 . S
O540 C522 1.254 . S
O541 Pr520 2.490 . S
O541 C522 1.225 . S
O542 Pr520 2.695 . S
O542 Pr521 2.436 . S
O542 C529 1.270 . S
O543 Pr520 2.512 . S
O543 C529 1.248 . S
O544 Pr521 2.438 . S
O544 C530 1.267 . S
O545 Pr520 2.437 . S
O545 C530 1.278 . S
O546 Pr521 2.562 . S
O546 C531 1.254 . S
O547 Pr521 2.490 . S
O547 C531 1.225 . S
O548 Pr520 2.436 . S
O548 Pr521 2.695 . S
O548 C538 1.270 . S
O549 Pr521 2.512 . S
O549 C538 1.248 . S
O550 Pr520 2.438 . S
O550 C539 1.267 . S
O551 Pr521 2.437 . S
O551 C539 1.278 . S
H552 C524 0.929 . S
H553 C525 0.929 . S
H554 C527 0.931 . S
H555 C528 0.930 . S
H556 C533 0.929 . S
H557 C534 0.929 . S
H558 C536 0.931 . S
H559 C537 0.930 . S
Pr560 C562 2.880 . S
Pr560 O580 2.562 . S
Pr560 O581 2.490 . S
Pr560 O582 2.695 . S
Pr560 O583 2.512 . S
Pr560 O585 2.437 . S
Pr560 O588 2.436 . S
Pr560 O590 2.438 . S
Pr561 C571 2.880 . S
Pr561 O582 2.436 . S
Pr561 O584 2.438 . S
Pr561 O586 2.562 . S
Pr561 O587 2.490 . S
Pr561 O588 2.695 . S
Pr561 O589 2.512 . S
Pr561 O591 2.437 . S
C562 Pr560 2.880 . S
C562 C563 1.491 . S
C562 O580 1.254 . S
C562 O581 1.225 . S
C563 C562 1.491 . S
C563 C564 1.392 . S
C563 C568 1.356 . S
C564 C563 1.392 . S
C564 C565 1.368 . S
C564 H592 0.929 . S
C565 C564 1.368 . S
C565 C566 1.386 . S
C565 H593 0.929 . S
C566 C565 1.386 . S
C566 C567 1.373 . S
C567 C566 1.373 . S
C567 C568 1.409 . S
C567 H594 0.931 . S
C568 C563 1.356 . S
C568 C567 1.409 . S
C568 H595 0.930 . S
C569 O582 1.270 . S
C569 O583 1.248 . S
C570 O584 1.267 . S
C570 O585 1.278 . S
C571 Pr561 2.880 . S
C571 C572 1.491 . S
C571 O586 1.254 . S
C571 O587 1.225 . S
C572 C571 1.491 . S
C572 C573 1.392 . S
C572 C577 1.356 . S
C573 C572 1.392 . S
C573 C574 1.368 . S
C573 H596 0.929 . S
C574 C573 1.368 . S
C574 C575 1.386 . S
C574 H597 0.929 . S
C575 C574 1.386 . S
C575 C576 1.373 . S
C576 C575 1.373 . S
C576 C577 1.409 . S
C576 H598 0.931 . S
C577 C572 1.356 . S
C577 C576 1.409 . S
C577 H599 0.930 . S
C578 O588 1.270 . S
C578 O589 1.248 . S
C579 O590 1.267 . S
C579 O591 1.278 . S
O580 Pr560 2.562 . S
O580 C562 1.254 . S
O581 Pr560 2.490 . S
O581 C562 1.225 . S
O582 Pr560 2.695 . S
O582 Pr561 2.436 . S
O582 C569 1.270 . S
O583 Pr560 2.512 . S
O583 C569 1.248 . S
O584 Pr561 2.438 . S
O584 C570 1.267 . S
O585 Pr560 2.437 . S
O585 C570 1.278 . S
O586 Pr561 2.562 . S
O586 C571 1.254 . S
O587 Pr561 2.490 . S
O587 C571 1.225 . S
O588 Pr560 2.436 . S
O588 Pr561 2.695 . S
O588 C578 1.270 . S
O589 Pr561 2.512 . S
O589 C578 1.248 . S
O590 Pr560 2.438 . S
O590 C579 1.267 . S
O591 Pr561 2.437 . S
O591 C579 1.278 . S
H592 C564 0.929 . S
H593 C565 0.929 . S
H594 C567 0.931 . S
H595 C568 0.930 . S
H596 C573 0.929 . S
H597 C574 0.929 . S
H598 C576 0.931 . S
H599 C577 0.930 . S
Pr600 C602 2.880 . S
Pr600 O620 2.562 . S
Pr600 O621 2.490 . S
Pr600 O622 2.695 . S
Pr600 O623 2.512 . S
Pr600 O625 2.437 . S
Pr600 O628 2.436 . S
Pr600 O630 2.438 . S
Pr601 C611 2.880 . S
Pr601 O622 2.436 . S
Pr601 O624 2.438 . S
Pr601 O626 2.562 . S
Pr601 O627 2.490 . S
Pr601 O628 2.695 . S
Pr601 O629 2.512 . S
Pr601 O631 2.437 . S
C602 Pr600 2.880 . S
C602 C603 1.491 . S
C602 O620 1.254 . S
C602 O621 1.225 . S
C603 C602 1.491 . S
C603 C604 1.392 . S
C603 C608 1.356 1_655 S
C604 C603 1.392 . S
C604 C605 1.368 . S
C604 H632 0.929 . S
C605 C604 1.368 . S
C605 C606 1.386 1_655 S
C605 H633 0.929 . S
C606 C605 1.386 1_455 S
C606 C607 1.373 . S
C607 C606 1.373 . S
C607 C608 1.409 . S
C607 H634 0.931 . S
C608 C603 1.356 1_455 S
C608 C607 1.409 . S
C608 H635 0.930 . S
C609 O622 1.270 . S
C609 O623 1.248 . S
C610 O624 1.267 . S
C610 O625 1.278 . S
C611 Pr601 2.880 . S
C611 C612 1.491 . S
C611 O626 1.254 . S
C611 O627 1.225 . S
C612 C611 1.491 . S
C612 C613 1.392 . S
C612 C617 1.356 . S
C613 C612 1.392 . S
C613 C614 1.368 . S
C613 H636 0.929 . S
C614 C613 1.368 . S
C614 C615 1.386 . S
C614 H637 0.929 . S
C615 C614 1.386 . S
C615 C616 1.373 . S
C616 C615 1.373 . S
C616 C617 1.409 . S
C616 H638 0.931 . S
C617 C612 1.356 . S
C617 C616 1.409 . S
C617 H639 0.930 . S
C618 O628 1.270 . S
C618 O629 1.248 . S
C619 O630 1.267 . S
C619 O631 1.278 . S
O620 Pr600 2.562 . S
O620 C602 1.254 . S
O621 Pr600 2.490 . S
O621 C602 1.225 . S
O622 Pr600 2.695 . S
O622 Pr601 2.436 . S
O622 C609 1.270 . S
O623 Pr600 2.512 . S
O623 C609 1.248 . S
O624 Pr601 2.438 . S
O624 C610 1.267 . S
O625 Pr600 2.437 . S
O625 C610 1.278 . S
O626 Pr601 2.562 . S
O626 C611 1.254 . S
O627 Pr601 2.490 . S
O627 C611 1.225 . S
O628 Pr600 2.436 . S
O628 Pr601 2.695 . S
O628 C618 1.270 . S
O629 Pr601 2.512 . S
O629 C618 1.248 . S
O630 Pr600 2.438 . S
O630 C619 1.267 . S
O631 Pr601 2.437 . S
O631 C619 1.278 . S
H632 C604 0.929 . S
H633 C605 0.929 . S
H634 C607 0.931 . S
H635 C608 0.930 . S
H636 C613 0.929 . S
H637 C614 0.929 . S
H638 C616 0.931 . S
H639 C617 0.930 . S
Pr640 C642 2.880 . S
Pr640 O660 2.562 . S
Pr640 O661 2.490 . S
Pr640 O662 2.695 . S
Pr640 O663 2.512 . S
Pr640 O665 2.437 . S
Pr640 O668 2.436 . S
Pr640 O670 2.438 . S
Pr641 C651 2.880 . S
Pr641 O662 2.436 . S
Pr641 O664 2.438 . S
Pr641 O666 2.562 . S
Pr641 O667 2.490 . S
Pr641 O668 2.695 . S
Pr641 O669 2.512 . S
Pr641 O671 2.437 . S
C642 Pr640 2.880 . S
C642 C643 1.491 . S
C642 O660 1.254 . S
C642 O661 1.225 . S
C643 C642 1.491 . S
C643 C644 1.392 . S
C643 C648 1.356 . S
C644 C643 1.392 . S
C644 C645 1.368 . S
C644 H672 0.929 . S
C645 C644 1.368 . S
C645 C646 1.386 . S
C645 H673 0.929 . S
C646 C645 1.386 . S
C646 C647 1.373 . S
C647 C646 1.373 . S
C647 C648 1.409 . S
C647 H674 0.931 . S
C648 C643 1.356 . S
C648 C647 1.409 . S
C648 H675 0.930 . S
C649 O662 1.270 . S
C649 O663 1.248 . S
C650 O664 1.267 . S
C650 O665 1.278 . S
C651 Pr641 2.880 . S
C651 C652 1.491 . S
C651 O666 1.254 . S
C651 O667 1.225 . S
C652 C651 1.491 . S
C652 C653 1.392 . S
C652 C657 1.356 . S
C653 C652 1.392 . S
C653 C654 1.368 . S
C653 H676 0.929 . S
C654 C653 1.368 . S
C654 C655 1.386 . S
C654 H677 0.929 . S
C655 C654 1.386 . S
C655 C656 1.373 . S
C656 C655 1.373 . S
C656 C657 1.409 . S
C656 H678 0.931 . S
C657 C652 1.356 . S
C657 C656 1.409 . S
C657 H679 0.930 . S
C658 O668 1.270 . S
C658 O669 1.248 . S
C659 O670 1.267 . S
C659 O671 1.278 . S
O660 Pr640 2.562 . S
O660 C642 1.254 . S
O661 Pr640 2.490 . S
O661 C642 1.225 . S
O662 Pr640 2.695 . S
O662 Pr641 2.436 . S
O662 C649 1.270 . S
O663 Pr640 2.512 . S
O663 C649 1.248 . S
O664 Pr641 2.438 . S
O664 C650 1.267 . S
O665 Pr640 2.437 . S
O665 C650 1.278 . S
O666 Pr641 2.562 . S
O666 C651 1.254 . S
O667 Pr641 2.490 . S
O667 C651 1.225 . S
O668 Pr640 2.436 . S
O668 Pr641 2.695 . S
O668 C658 1.270 . S
O669 Pr641 2.512 . S
O669 C658 1.248 . S
O670 Pr640 2.438 . S
O670 C659 1.267 . S
O671 Pr641 2.437 . S
O671 C659 1.278 . S
H672 C644 0.929 . S
H673 C645 0.929 . S
H674 C647 0.931 . S
H675 C648 0.930 . S
H676 C653 0.929 . S
H677 C654 0.929 . S
H678 C656 0.931 . S
H679 C657 0.930 . S
Pr680 C682 2.880 . S
Pr680 O700 2.562 . S
Pr680 O701 2.490 . S
Pr680 O702 2.695 . S
Pr680 O703 2.512 . S
Pr680 O705 2.437 . S
Pr680 O708 2.436 . S
Pr680 O710 2.438 . S
Pr681 C691 2.880 . S
Pr681 O702 2.436 . S
Pr681 O704 2.438 . S
Pr681 O706 2.562 . S
Pr681 O707 2.490 . S
Pr681 O708 2.695 . S
Pr681 O709 2.512 . S
Pr681 O711 2.437 . S
C682 Pr680 2.880 . S
C682 C683 1.491 . S
C682 O700 1.254 . S
C682 O701 1.225 . S
C683 C682 1.491 . S
C683 C684 1.392 . S
C683 C688 1.356 1_545 S
C684 C683 1.392 . S
C684 C685 1.368 . S
C684 H712 0.929 . S
C685 C684 1.368 . S
C685 C686 1.386 1_545 S
C685 H713 0.929 . S
C686 C685 1.386 1_565 S
C686 C687 1.373 . S
C687 C686 1.373 . S
C687 C688 1.409 . S
C687 H714 0.931 . S
C688 C683 1.356 1_565 S
C688 C687 1.409 . S
C688 H715 0.930 . S
C689 O702 1.270 . S
C689 O703 1.248 . S
C690 O704 1.267 . S
C690 O705 1.278 . S
C691 Pr681 2.880 . S
C691 C692 1.491 . S
C691 O706 1.254 . S
C691 O707 1.225 . S
C692 C691 1.491 . S
C692 C693 1.392 . S
C692 C697 1.356 . S
C693 C692 1.392 . S
C693 C694 1.368 . S
C693 H716 0.929 . S
C694 C693 1.368 . S
C694 C695 1.386 . S
C694 H717 0.929 . S
C695 C694 1.386 . S
C695 C696 1.373 . S
C696 C695 1.373 . S
C696 C697 1.409 . S
C696 H718 0.931 . S
C697 C692 1.356 . S
C697 C696 1.409 . S
C697 H719 0.930 . S
C698 O708 1.270 . S
C698 O709 1.248 . S
C699 O710 1.267 . S
C699 O711 1.278 . S
O700 Pr680 2.562 . S
O700 C682 1.254 . S
O701 Pr680 2.490 . S
O701 C682 1.225 . S
O702 Pr680 2.695 . S
O702 Pr681 2.436 . S
O702 C689 1.270 . S
O703 Pr680 2.512 . S
O703 C689 1.248 . S
O704 Pr681 2.438 . S
O704 C690 1.267 . S
O705 Pr680 2.437 . S
O705 C690 1.278 . S
O706 Pr681 2.562 . S
O706 C691 1.254 . S
O707 Pr681 2.490 . S
O707 C691 1.225 . S
O708 Pr680 2.436 . S
O708 Pr681 2.695 . S
O708 C698 1.270 . S
O709 Pr681 2.512 . S
O709 C698 1.248 . S
O710 Pr680 2.438 . S
O710 C699 1.267 . S
O711 Pr681 2.437 . S
O711 C699 1.278 . S
H712 C684 0.929 . S
H713 C685 0.929 . S
H714 C687 0.931 . S
H715 C688 0.930 . S
H716 C693 0.929 . S
H717 C694 0.929 . S
H718 C696 0.931 . S
H719 C697 0.930 . S
Pr720 C722 2.880 . S
Pr720 O740 2.562 . S
Pr720 O741 2.490 . S
Pr720 O742 2.695 . S
Pr720 O743 2.512 . S
Pr720 O745 2.437 . S
Pr720 O748 2.436 . S
Pr720 O750 2.438 . S
Pr721 C731 2.880 . S
Pr721 O742 2.436 . S
Pr721 O744 2.438 . S
Pr721 O746 2.562 . S
Pr721 O747 2.490 . S
Pr721 O748 2.695 . S
Pr721 O749 2.512 . S
Pr721 O751 2.437 . S
C722 Pr720 2.880 . S
C722 C723 1.491 . S
C722 O740 1.254 . S
C722 O741 1.225 . S
C723 C722 1.491 . S
C723 C724 1.392 . S
C723 C728 1.356 . S
C724 C723 1.392 . S
C724 C725 1.368 . S
C724 H752 0.929 . S
C725 C724 1.368 . S
C725 C726 1.386 . S
C725 H753 0.929 . S
C726 C725 1.386 . S
C726 C727 1.373 . S
C727 C726 1.373 . S
C727 C728 1.409 . S
C727 H754 0.931 . S
C728 C723 1.356 . S
C728 C727 1.409 . S
C728 H755 0.930 . S
C729 O742 1.270 . S
C729 O743 1.248 . S
C730 O744 1.267 . S
C730 O745 1.278 . S
C731 Pr721 2.880 . S
C731 C732 1.491 . S
C731 O746 1.254 . S
C731 O747 1.225 . S
C732 C731 1.491 . S
C732 C733 1.392 . S
C732 C737 1.356 1_545 S
C733 C732 1.392 . S
C733 C734 1.368 . S
C733 H756 0.929 . S
C734 C733 1.368 . S
C734 C735 1.386 1_545 S
C734 H757 0.929 . S
C735 C734 1.386 1_565 S
C735 C736 1.373 . S
C736 C735 1.373 . S
C736 C737 1.409 . S
C736 H758 0.931 . S
C737 C732 1.356 1_565 S
C737 C736 1.409 . S
C737 H759 0.930 . S
C738 O748 1.270 . S
C738 O749 1.248 . S
C739 O750 1.267 . S
C739 O751 1.278 . S
O740 Pr720 2.562 . S
O740 C722 1.254 . S
O741 Pr720 2.490 . S
O741 C722 1.225 . S
O742 Pr720 2.695 . S
O742 Pr721 2.436 . S
O742 C729 1.270 . S
O743 Pr720 2.512 . S
O743 C729 1.248 . S
O744 Pr721 2.438 . S
O744 C730 1.267 . S
O745 Pr720 2.437 . S
O745 C730 1.278 . S
O746 Pr721 2.562 . S
O746 C731 1.254 . S
O747 Pr721 2.490 . S
O747 C731 1.225 . S
O748 Pr720 2.436 . S
O748 Pr721 2.695 . S
O748 C738 1.270 . S
O749 Pr721 2.512 . S
O749 C738 1.248 . S
O750 Pr720 2.438 . S
O750 C739 1.267 . S
O751 Pr721 2.437 . S
O751 C739 1.278 . S
H752 C724 0.929 . S
H753 C725 0.929 . S
H754 C727 0.931 . S
H755 C728 0.930 . S
H756 C733 0.929 . S
H757 C734 0.929 . S
H758 C736 0.931 . S
H759 C737 0.930 . S
Pr760 C762 2.880 . S
Pr760 O780 2.562 . S
Pr760 O781 2.490 . S
Pr760 O782 2.695 . S
Pr760 O783 2.512 . S
Pr760 O785 2.437 . S
Pr760 O788 2.436 . S
Pr760 O790 2.438 . S
Pr761 C771 2.880 . S
Pr761 O782 2.436 . S
Pr761 O784 2.438 . S
Pr761 O786 2.562 . S
Pr761 O787 2.490 . S
Pr761 O788 2.695 . S
Pr761 O789 2.512 . S
Pr761 O791 2.437 . S
C762 Pr760 2.880 . S
C762 C763 1.491 . S
C762 O780 1.254 . S
C762 O781 1.225 . S
C763 C762 1.491 . S
C763 C764 1.392 . S
C763 C768 1.356 . S
C764 C763 1.392 . S
C764 C765 1.368 . S
C764 H792 0.929 . S
C765 C764 1.368 . S
C765 C766 1.386 . S
C765 H793 0.929 . S
C766 C765 1.386 . S
C766 C767 1.373 . S
C767 C766 1.373 . S
C767 C768 1.409 . S
C767 H794 0.931 . S
C768 C763 1.356 . S
C768 C767 1.409 . S
C768 H795 0.930 . S
C769 O782 1.270 . S
C769 O783 1.248 . S
C770 O784 1.267 . S
C770 O785 1.278 . S
C771 Pr761 2.880 . S
C771 C772 1.491 . S
C771 O786 1.254 . S
C771 O787 1.225 . S
C772 C771 1.491 . S
C772 C773 1.392 . S
C772 C777 1.356 1_655 S
C773 C772 1.392 . S
C773 C774 1.368 . S
C773 H796 0.929 . S
C774 C773 1.368 . S
C774 C775 1.386 1_655 S
C774 H797 0.929 . S
C775 C774 1.386 1_455 S
C775 C776 1.373 . S
C776 C775 1.373 . S
C776 C777 1.409 . S
C776 H798 0.931 . S
C777 C772 1.356 1_455 S
C777 C776 1.409 . S
C777 H799 0.930 . S
C778 O788 1.270 . S
C778 O789 1.248 . S
C779 O790 1.267 . S
C779 O791 1.278 . S
O780 Pr760 2.562 . S
O780 C762 1.254 . S
O781 Pr760 2.490 . S
O781 C762 1.225 . S
O782 Pr760 2.695 . S
O782 Pr761 2.436 . S
O782 C769 1.270 . S
O783 Pr760 2.512 . S
O783 C769 1.248 . S
O784 Pr761 2.438 . S
O784 C770 1.267 . S
O785 Pr760 2.437 . S
O785 C770 1.278 . S
O786 Pr761 2.562 . S
O786 C771 1.254 . S
O787 Pr761 2.490 . S
O787 C771 1.225 . S
O788 Pr760 2.436 . S
O788 Pr761 2.695 . S
O788 C778 1.270 . S
O789 Pr761 2.512 . S
O789 C778 1.248 . S
O790 Pr760 2.438 . S
O790 C779 1.267 . S
O791 Pr761 2.437 . S
O791 C779 1.278 . S
H792 C764 0.929 . S
H793 C765 0.929 . S
H794 C767 0.931 . S
H795 C768 0.930 . S
H796 C773 0.929 . S
H797 C774 0.929 . S
H798 C776 0.931 . S
H799 C777 0.930 . S
Pr800 C802 2.880 . S
Pr800 O820 2.562 . S
Pr800 O821 2.490 . S
Pr800 O822 2.695 . S
Pr800 O823 2.512 . S
Pr800 O825 2.437 . S
Pr800 O828 2.436 . S
Pr800 O830 2.438 . S
Pr801 C811 2.880 . S
Pr801 O822 2.436 . S
Pr801 O824 2.438 . S
Pr801 O826 2.562 . S
Pr801 O827 2.490 . S
Pr801 O828 2.695 . S
Pr801 O829 2.512 . S
Pr801 O831 2.437 . S
C802 Pr800 2.880 . S
C802 C803 1.491 . S
C802 O820 1.254 . S
C802 O821 1.225 . S
C803 C802 1.491 . S
C803 C804 1.392 . S
C803 C808 1.356 . S
C804 C803 1.392 . S
C804 C805 1.368 . S
C804 H832 0.929 . S
C805 C804 1.368 . S
C805 C806 1.386 . S
C805 H833 0.929 . S
C806 C805 1.386 . S
C806 C807 1.373 . S
C807 C806 1.373 . S
C807 C808 1.409 . S
C807 H834 0.931 . S
C808 C803 1.356 . S
C808 C807 1.409 . S
C808 H835 0.930 . S
C809 O822 1.270 . S
C809 O823 1.248 . S
C810 O824 1.267 . S
C810 O825 1.278 . S
C811 Pr801 2.880 . S
C811 C812 1.491 . S
C811 O826 1.254 . S
C811 O827 1.225 . S
C812 C811 1.491 . S
C812 C813 1.392 . S
C812 C817 1.356 . S
C813 C812 1.392 . S
C813 C814 1.368 . S
C813 H836 0.929 . S
C814 C813 1.368 . S
C814 C815 1.386 . S
C814 H837 0.929 . S
C815 C814 1.386 . S
C815 C816 1.373 . S
C816 C815 1.373 . S
C816 C817 1.409 . S
C816 H838 0.931 . S
C817 C812 1.356 . S
C817 C816 1.409 . S
C817 H839 0.930 . S
C818 O828 1.270 . S
C818 O829 1.248 . S
C819 O830 1.267 . S
C819 O831 1.278 . S
O820 Pr800 2.562 . S
O820 C802 1.254 . S
O821 Pr800 2.490 . S
O821 C802 1.225 . S
O822 Pr800 2.695 . S
O822 Pr801 2.436 . S
O822 C809 1.270 . S
O823 Pr800 2.512 . S
O823 C809 1.248 . S
O824 Pr801 2.438 . S
O824 C810 1.267 . S
O825 Pr800 2.437 . S
O825 C810 1.278 . S
O826 Pr801 2.562 . S
O826 C811 1.254 . S
O827 Pr801 2.490 . S
O827 C811 1.225 . S
O828 Pr800 2.436 . S
O828 Pr801 2.695 . S
O828 C818 1.270 . S
O829 Pr801 2.512 . S
O829 C818 1.248 . S
O830 Pr800 2.438 . S
O830 C819 1.267 . S
O831 Pr801 2.437 . S
O831 C819 1.278 . S
H832 C804 0.929 . S
H833 C805 0.929 . S
H834 C807 0.931 . S
H835 C808 0.930 . S
H836 C813 0.929 . S
H837 C814 0.929 . S
H838 C816 0.931 . S
H839 C817 0.930 . S
Pr840 C842 2.880 . S
Pr840 O860 2.562 . S
Pr840 O861 2.490 . S
Pr840 O862 2.695 1_554 S
Pr840 O863 2.512 . S
Pr840 O865 2.437 . S
Pr840 O868 2.436 . S
Pr840 O870 2.438 . S
Pr841 C851 2.880 . S
Pr841 O862 2.436 . S
Pr841 O864 2.438 . S
Pr841 O866 2.562 . S
Pr841 O867 2.490 . S
Pr841 O868 2.695 1_556 S
Pr841 O869 2.512 . S
Pr841 O871 2.437 . S
C842 Pr840 2.880 . S
C842 C843 1.491 . S
C842 O860 1.254 . S
C842 O861 1.225 . S
C843 C842 1.491 . S
C843 C844 1.392 . S
C843 C848 1.356 . S
C844 C843 1.392 . S
C844 C845 1.368 . S
C844 H872 0.929 . S
C845 C844 1.368 . S
C845 C846 1.386 . S
C845 H873 0.929 . S
C846 C845 1.386 . S
C846 C847 1.373 . S
C847 C846 1.373 . S
C847 C848 1.409 . S
C847 H874 0.931 . S
C848 C843 1.356 . S
C848 C847 1.409 . S
C848 H875 0.930 . S
C849 O862 1.270 1_554 S
C849 O863 1.248 . S
C850 O864 1.267 1_554 S
C850 O865 1.278 . S
C851 Pr841 2.880 . S
C851 C852 1.491 . S
C851 O866 1.254 . S
C851 O867 1.225 . S
C852 C851 1.491 . S
C852 C853 1.392 . S
C852 C857 1.356 . S
C853 C852 1.392 . S
C853 C854 1.368 . S
C853 H876 0.929 . S
C854 C853 1.368 . S
C854 C855 1.386 . S
C854 H877 0.929 . S
C855 C854 1.386 . S
C855 C856 1.373 . S
C856 C855 1.373 . S
C856 C857 1.409 . S
C856 H878 0.931 . S
C857 C852 1.356 . S
C857 C856 1.409 . S
C857 H879 0.930 . S
C858 O868 1.270 1_556 S
C858 O869 1.248 . S
C859 O870 1.267 1_556 S
C859 O871 1.278 . S
O860 Pr840 2.562 . S
O860 C842 1.254 . S
O861 Pr840 2.490 . S
O861 C842 1.225 . S
O862 Pr840 2.695 1_556 S
O862 Pr841 2.436 . S
O862 C849 1.270 1_556 S
O863 Pr840 2.512 . S
O863 C849 1.248 . S
O864 Pr841 2.438 . S
O864 C850 1.267 1_556 S
O865 Pr840 2.437 . S
O865 C850 1.278 . S
O866 Pr841 2.562 . S
O866 C851 1.254 . S
O867 Pr841 2.490 . S
O867 C851 1.225 . S
O868 Pr840 2.436 . S
O868 Pr841 2.695 1_554 S
O868 C858 1.270 1_554 S
O869 Pr841 2.512 . S
O869 C858 1.248 . S
O870 Pr840 2.438 . S
O870 C859 1.267 1_554 S
O871 Pr841 2.437 . S
O871 C859 1.278 . S
H872 C844 0.929 . S
H873 C845 0.929 . S
H874 C847 0.931 . S
H875 C848 0.930 . S
H876 C853 0.929 . S
H877 C854 0.929 . S
H878 C856 0.931 . S
H879 C857 0.930 . S
Pr880 C882 2.880 . S
Pr880 O900 2.562 . S
Pr880 O901 2.490 . S
Pr880 O902 2.695 1_554 S
Pr880 O903 2.512 . S
Pr880 O905 2.437 . S
Pr880 O908 2.436 . S
Pr880 O910 2.438 . S
Pr881 C891 2.880 . S
Pr881 O902 2.436 . S
Pr881 O904 2.438 . S
Pr881 O906 2.562 . S
Pr881 O907 2.490 . S
Pr881 O908 2.695 1_556 S
Pr881 O909 2.512 . S
Pr881 O911 2.437 . S
C882 Pr880 2.880 . S
C882 C883 1.491 . S
C882 O900 1.254 . S
C882 O901 1.225 . S
C883 C882 1.491 . S
C883 C884 1.392 . S
C883 C888 1.356 . S
C884 C883 1.392 . S
C884 C885 1.368 . S
C884 H912 0.929 . S
C885 C884 1.368 . S
C885 C886 1.386 . S
C885 H913 0.929 . S
C886 C885 1.386 . S
C886 C887 1.373 . S
C887 C886 1.373 . S
C887 C888 1.409 . S
C887 H914 0.931 . S
C888 C883 1.356 . S
C888 C887 1.409 . S
C888 H915 0.930 . S
C889 O902 1.270 1_554 S
C889 O903 1.248 . S
C890 O904 1.267 1_554 S
C890 O905 1.278 . S
C891 Pr881 2.880 . S
C891 C892 1.491 . S
C891 O906 1.254 . S
C891 O907 1.225 . S
C892 C891 1.491 . S
C892 C893 1.392 . S
C892 C897 1.356 . S
C893 C892 1.392 . S
C893 C894 1.368 . S
C893 H916 0.929 . S
C894 C893 1.368 . S
C894 C895 1.386 . S
C894 H917 0.929 . S
C895 C894 1.386 . S
C895 C896 1.373 . S
C896 C895 1.373 . S
C896 C897 1.409 . S
C896 H918 0.931 . S
C897 C892 1.356 . S
C897 C896 1.409 . S
C897 H919 0.930 . S
C898 O908 1.270 1_556 S
C898 O909 1.248 . S
C899 O910 1.267 1_556 S
C899 O911 1.278 . S
O900 Pr880 2.562 . S
O900 C882 1.254 . S
O901 Pr880 2.490 . S
O901 C882 1.225 . S
O902 Pr880 2.695 1_556 S
O902 Pr881 2.436 . S
O902 C889 1.270 1_556 S
O903 Pr880 2.512 . S
O903 C889 1.248 . S
O904 Pr881 2.438 . S
O904 C890 1.267 1_556 S
O905 Pr880 2.437 . S
O905 C890 1.278 . S
O906 Pr881 2.562 . S
O906 C891 1.254 . S
O907 Pr881 2.490 . S
O907 C891 1.225 . S
O908 Pr880 2.436 . S
O908 Pr881 2.695 1_554 S
O908 C898 1.270 1_554 S
O909 Pr881 2.512 . S
O909 C898 1.248 . S
O910 Pr880 2.438 . S
O910 C899 1.267 1_554 S
O911 Pr881 2.437 . S
O911 C899 1.278 . S
H912 C884 0.929 . S
H913 C885 0.929 . S
H914 C887 0.931 . S
H915 C888 0.930 . S
H916 C893 0.929 . S
H917 C894 0.929 . S
H918 C896 0.931 . S
H919 C897 0.930 . S
Pr920 C922 2.880 . S
Pr920 O940 2.562 . S
Pr920 O941 2.490 . S
Pr920 O942 2.695 1_554 S
Pr920 O943 2.512 . S
Pr920 O945 2.437 . S
Pr920 O948 2.436 . S
Pr920 O950 2.438 . S
Pr921 C931 2.880 . S
Pr921 O942 2.436 . S
Pr921 O944 2.438 . S
Pr921 O946 2.562 . S
Pr921 O947 2.490 . S
Pr921 O948 2.695 1_556 S
Pr921 O949 2.512 . S
Pr921 O951 2.437 . S
C922 Pr920 2.880 . S
C922 C923 1.491 . S
C922 O940 1.254 . S
C922 O941 1.225 . S
C923 C922 1.491 . S
C923 C924 1.392 . S
C923 C928 1.356 . S
C924 C923 1.392 . S
C924 C925 1.368 . S
C924 H952 0.929 . S
C925 C924 1.368 . S
C925 C926 1.386 . S
C925 H953 0.929 . S
C926 C925 1.386 . S
C926 C927 1.373 . S
C927 C926 1.373 . S
C927 C928 1.409 . S
C927 H954 0.931 . S
C928 C923 1.356 . S
C928 C927 1.409 . S
C928 H955 0.930 . S
C929 O942 1.270 1_554 S
C929 O943 1.248 . S
C930 O944 1.267 1_554 S
C930 O945 1.278 . S
C931 Pr921 2.880 . S
C931 C932 1.491 . S
C931 O946 1.254 . S
C931 O947 1.225 . S
C932 C931 1.491 . S
C932 C933 1.392 . S
C932 C937 1.356 . S
C933 C932 1.392 . S
C933 C934 1.368 . S
C933 H956 0.929 . S
C934 C933 1.368 . S
C934 C935 1.386 . S
C934 H957 0.929 . S
C935 C934 1.386 . S
C935 C936 1.373 . S
C936 C935 1.373 . S
C936 C937 1.409 . S
C936 H958 0.931 . S
C937 C932 1.356 . S
C937 C936 1.409 . S
C937 H959 0.930 . S
C938 O948 1.270 1_556 S
C938 O949 1.248 . S
C939 O950 1.267 1_556 S
C939 O951 1.278 . S
O940 Pr920 2.562 . S
O940 C922 1.254 . S
O941 Pr920 2.490 . S
O941 C922 1.225 . S
O942 Pr920 2.695 1_556 S
O942 Pr921 2.436 . S
O942 C929 1.270 1_556 S
O943 Pr920 2.512 . S
O943 C929 1.248 . S
O944 Pr921 2.438 . S
O944 C930 1.267 1_556 S
O945 Pr920 2.437 . S
O945 C930 1.278 . S
O946 Pr921 2.562 . S
O946 C931 1.254 . S
O947 Pr921 2.490 . S
O947 C931 1.225 . S
O948 Pr920 2.436 . S
O948 Pr921 2.695 1_554 S
O948 C938 1.270 1_554 S
O949 Pr921 2.512 . S
O949 C938 1.248 . S
O950 Pr920 2.438 . S
O950 C939 1.267 1_554 S
O951 Pr921 2.437 . S
O951 C939 1.278 . S
H952 C924 0.929 . S
H953 C925 0.929 . S
H954 C927 0.931 . S
H955 C928 0.930 . S
H956 C933 0.929 . S
H957 C934 0.929 . S
H958 C936 0.931 . S
H959 C937 0.930 . S
Pr960 C962 2.880 . S
Pr960 O980 2.562 . S
Pr960 O981 2.490 . S
Pr960 O982 2.695 . S
Pr960 O983 2.512 . S
Pr960 O985 2.437 . S
Pr960 O988 2.436 . S
Pr960 O990 2.438 . S
Pr961 C971 2.880 . S
Pr961 O982 2.436 . S
Pr961 O984 2.438 . S
Pr961 O986 2.562 . S
Pr961 O987 2.490 . S
Pr961 O988 2.695 . S
Pr961 O989 2.512 . S
Pr961 O991 2.437 . S
C962 Pr960 2.880 . S
C962 C963 1.491 . S
C962 O980 1.254 . S
C962 O981 1.225 . S
C963 C962 1.491 . S
C963 C964 1.392 . S
C963 C968 1.356 1_565 S
C964 C963 1.392 . S
C964 C965 1.368 . S
C964 H992 0.929 . S
C965 C964 1.368 . S
C965 C966 1.386 1_565 S
C965 H993 0.929 . S
C966 C965 1.386 1_545 S
C966 C967 1.373 . S
C967 C966 1.373 . S
C967 C968 1.409 . S
C967 H994 0.931 . S
C968 C963 1.356 1_545 S
C968 C967 1.409 . S
C968 H995 0.930 . S
C969 O982 1.270 . S
C969 O983 1.248 . S
C970 O984 1.267 . S
C970 O985 1.278 . S
C971 Pr961 2.880 . S
C971 C972 1.491 . S
C971 O986 1.254 . S
C971 O987 1.225 . S
C972 C971 1.491 . S
C972 C973 1.392 . S
C972 C977 1.356 . S
C973 C972 1.392 . S
C973 C974 1.368 . S
C973 H996 0.929 . S
C974 C973 1.368 . S
C974 C975 1.386 . S
C974 H997 0.929 . S
C975 C974 1.386 . S
C975 C976 1.373 . S
C976 C975 1.373 . S
C976 C977 1.409 . S
C976 H998 0.931 . S
C977 C972 1.356 . S
C977 C976 1.409 . S
C977 H999 0.930 . S
C978 O988 1.270 . S
C978 O989 1.248 . S
C979 O990 1.267 . S
C979 O991 1.278 . S
O980 Pr960 2.562 . S
O980 C962 1.254 . S
O981 Pr960 2.490 . S
O981 C962 1.225 . S
O982 Pr960 2.695 . S
O982 Pr961 2.436 . S
O982 C969 1.270 . S
O983 Pr960 2.512 . S
O983 C969 1.248 . S
O984 Pr961 2.438 . S
O984 C970 1.267 . S
O985 Pr960 2.437 . S
O985 C970 1.278 . S
O986 Pr961 2.562 . S
O986 C971 1.254 . S
O987 Pr961 2.490 . S
O987 C971 1.225 . S
O988 Pr960 2.436 . S
O988 Pr961 2.695 . S
O988 C978 1.270 . S
O989 Pr961 2.512 . S
O989 C978 1.248 . S
O990 Pr960 2.438 . S
O990 C979 1.267 . S
O991 Pr961 2.437 . S
O991 C979 1.278 . S
H992 C964 0.929 . S
H993 C965 0.929 . S
H994 C967 0.931 . S
H995 C968 0.930 . S
H996 C973 0.929 . S
H997 C974 0.929 . S
H998 C976 0.931 . S
H999 C977 0.930 . S
Pr1000 C1002 2.880 . S
Pr1000 O1020 2.562 . S
Pr1000 O1021 2.490 . S
Pr1000 O1022 2.695 . S
Pr1000 O1023 2.512 . S
Pr1000 O1025 2.437 . S
Pr1000 O1028 2.436 . S
Pr1000 O1030 2.438 . S
Pr1001 C1011 2.880 . S
Pr1001 O1022 2.436 . S
Pr1001 O1024 2.438 . S
Pr1001 O1026 2.562 . S
Pr1001 O1027 2.490 . S
Pr1001 O1028 2.695 . S
Pr1001 O1029 2.512 . S
Pr1001 O1031 2.437 . S
C1002 Pr1000 2.880 . S
C1002 C1003 1.491 . S
C1002 O1020 1.254 . S
C1002 O1021 1.225 . S
C1003 C1002 1.491 . S
C1003 C1004 1.392 . S
C1003 C1008 1.356 1_455 S
C1004 C1003 1.392 . S
C1004 C1005 1.368 . S
C1004 H1032 0.929 . S
C1005 C1004 1.368 . S
C1005 C1006 1.386 1_455 S
C1005 H1033 0.929 . S
C1006 C1005 1.386 1_655 S
C1006 C1007 1.373 . S
C1007 C1006 1.373 . S
C1007 C1008 1.409 . S
C1007 H1034 0.931 . S
C1008 C1003 1.356 1_655 S
C1008 C1007 1.409 . S
C1008 H1035 0.930 . S
C1009 O1022 1.270 . S
C1009 O1023 1.248 . S
C1010 O1024 1.267 . S
C1010 O1025 1.278 . S
C1011 Pr1001 2.880 . S
C1011 C1012 1.491 . S
C1011 O1026 1.254 . S
C1011 O1027 1.225 . S
C1012 C1011 1.491 . S
C1012 C1013 1.392 . S
C1012 C1017 1.356 . S
C1013 C1012 1.392 . S
C1013 C1014 1.368 . S
C1013 H1036 0.929 . S
C1014 C1013 1.368 . S
C1014 C1015 1.386 . S
C1014 H1037 0.929 . S
C1015 C1014 1.386 . S
C1015 C1016 1.373 . S
C1016 C1015 1.373 . S
C1016 C1017 1.409 . S
C1016 H1038 0.931 . S
C1017 C1012 1.356 . S
C1017 C1016 1.409 . S
C1017 H1039 0.930 . S
C1018 O1028 1.270 . S
C1018 O1029 1.248 . S
C1019 O1030 1.267 . S
C1019 O1031 1.278 . S
O1020 Pr1000 2.562 . S
O1020 C1002 1.254 . S
O1021 Pr1000 2.490 . S
O1021 C1002 1.225 . S
O1022 Pr1000 2.695 . S
O1022 Pr1001 2.436 . S
O1022 C1009 1.270 . S
O1023 Pr1000 2.512 . S
O1023 C1009 1.248 . S
O1024 Pr1001 2.438 . S
O1024 C1010 1.267 . S
O1025 Pr1000 2.437 . S
O1025 C1010 1.278 . S
O1026 Pr1001 2.562 . S
O1026 C1011 1.254 . S
O1027 Pr1001 2.490 . S
O1027 C1011 1.225 . S
O1028 Pr1000 2.436 . S
O1028 Pr1001 2.695 . S
O1028 C1018 1.270 . S
O1029 Pr1001 2.512 . S
O1029 C1018 1.248 . S
O1030 Pr1000 2.438 . S
O1030 C1019 1.267 . S
O1031 Pr1001 2.437 . S
O1031 C1019 1.278 . S
H1032 C1004 0.929 . S
H1033 C1005 0.929 . S
H1034 C1007 0.931 . S
H1035 C1008 0.930 . S
H1036 C1013 0.929 . S
H1037 C1014 0.929 . S
H1038 C1016 0.931 . S
H1039 C1017 0.930 . S
Pr1040 C1042 2.880 . S
Pr1040 O1060 2.562 . S
Pr1040 O1061 2.490 . S
Pr1040 O1062 2.695 . S
Pr1040 O1063 2.512 . S
Pr1040 O1065 2.437 . S
Pr1040 O1068 2.436 . S
Pr1040 O1070 2.438 . S
Pr1041 C1051 2.880 . S
Pr1041 O1062 2.436 . S
Pr1041 O1064 2.438 . S
Pr1041 O1066 2.562 . S
Pr1041 O1067 2.490 . S
Pr1041 O1068 2.695 . S
Pr1041 O1069 2.512 . S
Pr1041 O1071 2.437 . S
C1042 Pr1040 2.880 . S
C1042 C1043 1.491 . S
C1042 O1060 1.254 . S
C1042 O1061 1.225 . S
C1043 C1042 1.491 . S
C1043 C1044 1.392 . S
C1043 C1048 1.356 . S
C1044 C1043 1.392 . S
C1044 C1045 1.368 . S
C1044 H1072 0.929 . S
C1045 C1044 1.368 . S
C1045 C1046 1.386 . S
C1045 H1073 0.929 . S
C1046 C1045 1.386 . S
C1046 C1047 1.373 . S
C1047 C1046 1.373 . S
C1047 C1048 1.409 . S
C1047 H1074 0.931 . S
C1048 C1043 1.356 . S
C1048 C1047 1.409 . S
C1048 H1075 0.930 . S
C1049 O1062 1.270 . S
C1049 O1063 1.248 . S
C1050 O1064 1.267 . S
C1050 O1065 1.278 . S
C1051 Pr1041 2.880 . S
C1051 C1052 1.491 . S
C1051 O1066 1.254 . S
C1051 O1067 1.225 . S
C1052 C1051 1.491 . S
C1052 C1053 1.392 . S
C1052 C1057 1.356 . S
C1053 C1052 1.392 . S
C1053 C1054 1.368 . S
C1053 H1076 0.929 . S
C1054 C1053 1.368 . S
C1054 C1055 1.386 . S
C1054 H1077 0.929 . S
C1055 C1054 1.386 . S
C1055 C1056 1.373 . S
C1056 C1055 1.373 . S
C1056 C1057 1.409 . S
C1056 H1078 0.931 . S
C1057 C1052 1.356 . S
C1057 C1056 1.409 . S
C1057 H1079 0.930 . S
C1058 O1068 1.270 . S
C1058 O1069 1.248 . S
C1059 O1070 1.267 . S
C1059 O1071 1.278 . S
O1060 Pr1040 2.562 . S
O1060 C1042 1.254 . S
O1061 Pr1040 2.490 . S
O1061 C1042 1.225 . S
O1062 Pr1040 2.695 . S
O1062 Pr1041 2.436 . S
O1062 C1049 1.270 . S
O1063 Pr1040 2.512 . S
O1063 C1049 1.248 . S
O1064 Pr1041 2.438 . S
O1064 C1050 1.267 . S
O1065 Pr1040 2.437 . S
O1065 C1050 1.278 . S
O1066 Pr1041 2.562 . S
O1066 C1051 1.254 . S
O1067 Pr1041 2.490 . S
O1067 C1051 1.225 . S
O1068 Pr1040 2.436 . S
O1068 Pr1041 2.695 . S
O1068 C1058 1.270 . S
O1069 Pr1041 2.512 . S
O1069 C1058 1.248 . S
O1070 Pr1040 2.438 . S
O1070 C1059 1.267 . S
O1071 Pr1041 2.437 . S
O1071 C1059 1.278 . S
H1072 C1044 0.929 . S
H1073 C1045 0.929 . S
H1074 C1047 0.931 . S
H1075 C1048 0.930 . S
H1076 C1053 0.929 . S
H1077 C1054 0.929 . S
H1078 C1056 0.931 . S
H1079 C1057 0.930 . S
Pr1080 C1082 2.880 . S
Pr1080 O1100 2.562 . S
Pr1080 O1101 2.490 . S
Pr1080 O1102 2.695 1_554 S
Pr1080 O1103 2.512 . S
Pr1080 O1105 2.437 . S
Pr1080 O1108 2.436 . S
Pr1080 O1110 2.438 . S
Pr1081 C1091 2.880 . S
Pr1081 O1102 2.436 . S
Pr1081 O1104 2.438 . S
Pr1081 O1106 2.562 . S
Pr1081 O1107 2.490 . S
Pr1081 O1108 2.695 1_556 S
Pr1081 O1109 2.512 . S
Pr1081 O1111 2.437 . S
C1082 Pr1080 2.880 . S
C1082 C1083 1.491 . S
C1082 O1100 1.254 . S
C1082 O1101 1.225 . S
C1083 C1082 1.491 . S
C1083 C1084 1.392 . S
C1083 C1088 1.356 . S
C1084 C1083 1.392 . S
C1084 C1085 1.368 . S
C1084 H1112 0.929 . S
C1085 C1084 1.368 . S
C1085 C1086 1.386 . S
C1085 H1113 0.929 . S
C1086 C1085 1.386 . S
C1086 C1087 1.373 . S
C1087 C1086 1.373 . S
C1087 C1088 1.409 . S
C1087 H1114 0.931 . S
C1088 C1083 1.356 . S
C1088 C1087 1.409 . S
C1088 H1115 0.930 . S
C1089 O1102 1.270 1_554 S
C1089 O1103 1.248 . S
C1090 O1104 1.267 1_554 S
C1090 O1105 1.278 . S
C1091 Pr1081 2.880 . S
C1091 C1092 1.491 . S
C1091 O1106 1.254 . S
C1091 O1107 1.225 . S
C1092 C1091 1.491 . S
C1092 C1093 1.392 . S
C1092 C1097 1.356 . S
C1093 C1092 1.392 . S
C1093 C1094 1.368 . S
C1093 H1116 0.929 . S
C1094 C1093 1.368 . S
C1094 C1095 1.386 . S
C1094 H1117 0.929 . S
C1095 C1094 1.386 . S
C1095 C1096 1.373 . S
C1096 C1095 1.373 . S
C1096 C1097 1.409 . S
C1096 H1118 0.931 . S
C1097 C1092 1.356 . S
C1097 C1096 1.409 . S
C1097 H1119 0.930 . S
C1098 O1108 1.270 1_556 S
C1098 O1109 1.248 . S
C1099 O1110 1.267 1_556 S
C1099 O1111 1.278 . S
O1100 Pr1080 2.562 . S
O1100 C1082 1.254 . S
O1101 Pr1080 2.490 . S
O1101 C1082 1.225 . S
O1102 Pr1080 2.695 1_556 S
O1102 Pr1081 2.436 . S
O1102 C1089 1.270 1_556 S
O1103 Pr1080 2.512 . S
O1103 C1089 1.248 . S
O1104 Pr1081 2.438 . S
O1104 C1090 1.267 1_556 S
O1105 Pr1080 2.437 . S
O1105 C1090 1.278 . S
O1106 Pr1081 2.562 . S
O1106 C1091 1.254 . S
O1107 Pr1081 2.490 . S
O1107 C1091 1.225 . S
O1108 Pr1080 2.436 . S
O1108 Pr1081 2.695 1_554 S
O1108 C1098 1.270 1_554 S
O1109 Pr1081 2.512 . S
O1109 C1098 1.248 . S
O1110 Pr1080 2.438 . S
O1110 C1099 1.267 1_554 S
O1111 Pr1081 2.437 . S
O1111 C1099 1.278 . S
H1112 C1084 0.929 . S
H1113 C1085 0.929 . S
H1114 C1087 0.931 . S
H1115 C1088 0.930 . S
H1116 C1093 0.929 . S
H1117 C1094 0.929 . S
H1118 C1096 0.931 . S
H1119 C1097 0.930 . S
Pr1120 C1122 2.880 . S
Pr1120 O1140 2.562 . S
Pr1120 O1141 2.490 . S
Pr1120 O1142 2.695 1_554 S
Pr1120 O1143 2.512 . S
Pr1120 O1145 2.437 . S
Pr1120 O1148 2.436 . S
Pr1120 O1150 2.438 . S
Pr1121 C1131 2.880 . S
Pr1121 O1142 2.436 . S
Pr1121 O1144 2.438 . S
Pr1121 O1146 2.562 . S
Pr1121 O1147 2.490 . S
Pr1121 O1148 2.695 1_556 S
Pr1121 O1149 2.512 . S
Pr1121 O1151 2.437 . S
C1122 Pr1120 2.880 . S
C1122 C1123 1.491 . S
C1122 O1140 1.254 . S
C1122 O1141 1.225 . S
C1123 C1122 1.491 . S
C1123 C1124 1.392 . S
C1123 C1128 1.356 . S
C1124 C1123 1.392 . S
C1124 C1125 1.368 . S
C1124 H1152 0.929 . S
C1125 C1124 1.368 . S
C1125 C1126 1.386 . S
C1125 H1153 0.929 . S
C1126 C1125 1.386 . S
C1126 C1127 1.373 . S
C1127 C1126 1.373 . S
C1127 C1128 1.409 . S
C1127 H1154 0.931 . S
C1128 C1123 1.356 . S
C1128 C1127 1.409 . S
C1128 H1155 0.930 . S
C1129 O1142 1.270 1_554 S
C1129 O1143 1.248 . S
C1130 O1144 1.267 1_554 S
C1130 O1145 1.278 . S
C1131 Pr1121 2.880 . S
C1131 C1132 1.491 . S
C1131 O1146 1.254 . S
C1131 O1147 1.225 . S
C1132 C1131 1.491 . S
C1132 C1133 1.392 . S
C1132 C1137 1.356 . S
C1133 C1132 1.392 . S
C1133 C1134 1.368 . S
C1133 H1156 0.929 . S
C1134 C1133 1.368 . S
C1134 C1135 1.386 . S
C1134 H1157 0.929 . S
C1135 C1134 1.386 . S
C1135 C1136 1.373 . S
C1136 C1135 1.373 . S
C1136 C1137 1.409 . S
C1136 H1158 0.931 . S
C1137 C1132 1.356 . S
C1137 C1136 1.409 . S
C1137 H1159 0.930 . S
C1138 O1148 1.270 1_556 S
C1138 O1149 1.248 . S
C1139 O1150 1.267 1_556 S
C1139 O1151 1.278 . S
O1140 Pr1120 2.562 . S
O1140 C1122 1.254 . S
O1141 Pr1120 2.490 . S
O1141 C1122 1.225 . S
O1142 Pr1120 2.695 1_556 S
O1142 Pr1121 2.436 . S
O1142 C1129 1.270 1_556 S
O1143 Pr1120 2.512 . S
O1143 C1129 1.248 . S
O1144 Pr1121 2.438 . S
O1144 C1130 1.267 1_556 S
O1145 Pr1120 2.437 . S
O1145 C1130 1.278 . S
O1146 Pr1121 2.562 . S
O1146 C1131 1.254 . S
O1147 Pr1121 2.490 . S
O1147 C1131 1.225 . S
O1148 Pr1120 2.436 . S
O1148 Pr1121 2.695 1_554 S
O1148 C1138 1.270 1_554 S
O1149 Pr1121 2.512 . S
O1149 C1138 1.248 . S
O1150 Pr1120 2.438 . S
O1150 C1139 1.267 1_554 S
O1151 Pr1121 2.437 . S
O1151 C1139 1.278 . S
H1152 C1124 0.929 . S
H1153 C1125 0.929 . S
H1154 C1127 0.931 . S
H1155 C1128 0.930 . S
H1156 C1133 0.929 . S
H1157 C1134 0.929 . S
H1158 C1136 0.931 . S
H1159 C1137 0.930 . S
Pr1160 C1162 2.880 . S
Pr1160 O1180 2.562 . S
Pr1160 O1181 2.490 . S
Pr1160 O1182 2.695 1_554 S
Pr1160 O1183 2.512 . S
Pr1160 O1185 2.437 . S
Pr1160 O1188 2.436 . S
Pr1160 O1190 2.438 . S
Pr1161 C1171 2.880 . S
Pr1161 O1182 2.436 . S
Pr1161 O1184 2.438 . S
Pr1161 O1186 2.562 . S
Pr1161 O1187 2.490 . S
Pr1161 O1188 2.695 1_556 S
Pr1161 O1189 2.512 . S
Pr1161 O1191 2.437 . S
C1162 Pr1160 2.880 . S
C1162 C1163 1.491 . S
C1162 O1180 1.254 . S
C1162 O1181 1.225 . S
C1163 C1162 1.491 . S
C1163 C1164 1.392 . S
C1163 C1168 1.356 . S
C1164 C1163 1.392 . S
C1164 C1165 1.368 . S
C1164 H1192 0.929 . S
C1165 C1164 1.368 . S
C1165 C1166 1.386 . S
C1165 H1193 0.929 . S
C1166 C1165 1.386 . S
C1166 C1167 1.373 . S
C1167 C1166 1.373 . S
C1167 C1168 1.409 . S
C1167 H1194 0.931 . S
C1168 C1163 1.356 . S
C1168 C1167 1.409 . S
C1168 H1195 0.930 . S
C1169 O1182 1.270 1_554 S
C1169 O1183 1.248 . S
C1170 O1184 1.267 1_554 S
C1170 O1185 1.278 . S
C1171 Pr1161 2.880 . S
C1171 C1172 1.491 . S
C1171 O1186 1.254 . S
C1171 O1187 1.225 . S
C1172 C1171 1.491 . S
C1172 C1173 1.392 . S
C1172 C1177 1.356 . S
C1173 C1172 1.392 . S
C1173 C1174 1.368 . S
C1173 H1196 0.929 . S
C1174 C1173 1.368 . S
C1174 C1175 1.386 . S
C1174 H1197 0.929 . S
C1175 C1174 1.386 . S
C1175 C1176 1.373 . S
C1176 C1175 1.373 . S
C1176 C1177 1.409 . S
C1176 H1198 0.931 . S
C1177 C1172 1.356 . S
C1177 C1176 1.409 . S
C1177 H1199 0.930 . S
C1178 O1188 1.270 1_556 S
C1178 O1189 1.248 . S
C1179 O1190 1.267 1_556 S
C1179 O1191 1.278 . S
O1180 Pr1160 2.562 . S
O1180 C1162 1.254 . S
O1181 Pr1160 2.490 . S
O1181 C1162 1.225 . S
O1182 Pr1160 2.695 1_556 S
O1182 Pr1161 2.436 . S
O1182 C1169 1.270 1_556 S
O1183 Pr1160 2.512 . S
O1183 C1169 1.248 . S
O1184 Pr1161 2.438 . S
O1184 C1170 1.267 1_556 S
O1185 Pr1160 2.437 . S
O1185 C1170 1.278 . S
O1186 Pr1161 2.562 . S
O1186 C1171 1.254 . S
O1187 Pr1161 2.490 . S
O1187 C1171 1.225 . S
O1188 Pr1160 2.436 . S
O1188 Pr1161 2.695 1_554 S
O1188 C1178 1.270 1_554 S
O1189 Pr1161 2.512 . S
O1189 C1178 1.248 . S
O1190 Pr1160 2.438 . S
O1190 C1179 1.267 1_554 S
O1191 Pr1161 2.437 . S
O1191 C1179 1.278 . S
H1192 C1164 0.929 . S
H1193 C1165 0.929 . S
H1194 C1167 0.931 . S
H1195 C1168 0.930 . S
H1196 C1173 0.929 . S
H1197 C1174 0.929 . S
H1198 C1176 0.931 . S
H1199 C1177 0.930 . S
Pr1200 C1202 2.880 . S
Pr1200 O1220 2.562 . S
Pr1200 O1221 2.490 . S
Pr1200 O1222 2.695 . S
Pr1200 O1223 2.512 . S
Pr1200 O1225 2.437 . S
Pr1200 O1228 2.436 . S
Pr1200 O1230 2.438 . S
Pr1201 C1211 2.880 . S
Pr1201 O1222 2.436 . S
Pr1201 O1224 2.438 . S
Pr1201 O1226 2.562 . S
Pr1201 O1227 2.490 . S
Pr1201 O1228 2.695 . S
Pr1201 O1229 2.512 . S
Pr1201 O1231 2.437 . S
C1202 Pr1200 2.880 . S
C1202 C1203 1.491 . S
C1202 O1220 1.254 . S
C1202 O1221 1.225 . S
C1203 C1202 1.491 . S
C1203 C1204 1.392 . S
C1203 C1208 1.356 . S
C1204 C1203 1.392 . S
C1204 C1205 1.368 . S
C1204 H1232 0.929 . S
C1205 C1204 1.368 . S
C1205 C1206 1.386 . S
C1205 H1233 0.929 . S
C1206 C1205 1.386 . S
C1206 C1207 1.373 . S
C1207 C1206 1.373 . S
C1207 C1208 1.409 . S
C1207 H1234 0.931 . S
C1208 C1203 1.356 . S
C1208 C1207 1.409 . S
C1208 H1235 0.930 . S
C1209 O1222 1.270 . S
C1209 O1223 1.248 . S
C1210 O1224 1.267 . S
C1210 O1225 1.278 . S
C1211 Pr1201 2.880 . S
C1211 C1212 1.491 . S
C1211 O1226 1.254 . S
C1211 O1227 1.225 . S
C1212 C1211 1.491 . S
C1212 C1213 1.392 . S
C1212 C1217 1.356 . S
C1213 C1212 1.392 . S
C1213 C1214 1.368 . S
C1213 H1236 0.929 . S
C1214 C1213 1.368 . S
C1214 C1215 1.386 . S
C1214 H1237 0.929 . S
C1215 C1214 1.386 . S
C1215 C1216 1.373 . S
C1216 C1215 1.373 . S
C1216 C1217 1.409 . S
C1216 H1238 0.931 . S
C1217 C1212 1.356 . S
C1217 C1216 1.409 . S
C1217 H1239 0.930 . S
C1218 O1228 1.270 . S
C1218 O1229 1.248 . S
C1219 O1230 1.267 . S
C1219 O1231 1.278 . S
O1220 Pr1200 2.562 . S
O1220 C1202 1.254 . S
O1221 Pr1200 2.490 . S
O1221 C1202 1.225 . S
O1222 Pr1200 2.695 . S
O1222 Pr1201 2.436 . S
O1222 C1209 1.270 . S
O1223 Pr1200 2.512 . S
O1223 C1209 1.248 . S
O1224 Pr1201 2.438 . S
O1224 C1210 1.267 . S
O1225 Pr1200 2.437 . S
O1225 C1210 1.278 . S
O1226 Pr1201 2.562 . S
O1226 C1211 1.254 . S
O1227 Pr1201 2.490 . S
O1227 C1211 1.225 . S
O1228 Pr1200 2.436 . S
O1228 Pr1201 2.695 . S
O1228 C1218 1.270 . S
O1229 Pr1201 2.512 . S
O1229 C1218 1.248 . S
O1230 Pr1200 2.438 . S
O1230 C1219 1.267 . S
O1231 Pr1201 2.437 . S
O1231 C1219 1.278 . S
H1232 C1204 0.929 . S
H1233 C1205 0.929 . S
H1234 C1207 0.931 . S
H1235 C1208 0.930 . S
H1236 C1213 0.929 . S
H1237 C1214 0.929 . S
H1238 C1216 0.931 . S
H1239 C1217 0.930 . S
Pr1240 C1242 2.880 . S
Pr1240 O1260 2.562 . S
Pr1240 O1261 2.490 . S
Pr1240 O1262 2.695 . S
Pr1240 O1263 2.512 . S
Pr1240 O1265 2.437 . S
Pr1240 O1268 2.436 . S
Pr1240 O1270 2.438 . S
Pr1241 C1251 2.880 . S
Pr1241 O1262 2.436 . S
Pr1241 O1264 2.438 . S
Pr1241 O1266 2.562 . S
Pr1241 O1267 2.490 . S
Pr1241 O1268 2.695 . S
Pr1241 O1269 2.512 . S
Pr1241 O1271 2.437 . S
C1242 Pr1240 2.880 . S
C1242 C1243 1.491 . S
C1242 O1260 1.254 . S
C1242 O1261 1.225 . S
C1243 C1242 1.491 . S
C1243 C1244 1.392 . S
C1243 C1248 1.356 . S
C1244 C1243 1.392 . S
C1244 C1245 1.368 . S
C1244 H1272 0.929 . S
C1245 C1244 1.368 . S
C1245 C1246 1.386 . S
C1245 H1273 0.929 . S
C1246 C1245 1.386 . S
C1246 C1247 1.373 . S
C1247 C1246 1.373 . S
C1247 C1248 1.409 . S
C1247 H1274 0.931 . S
C1248 C1243 1.356 . S
C1248 C1247 1.409 . S
C1248 H1275 0.930 . S
C1249 O1262 1.270 . S
C1249 O1263 1.248 . S
C1250 O1264 1.267 . S
C1250 O1265 1.278 . S
C1251 Pr1241 2.880 . S
C1251 C1252 1.491 . S
C1251 O1266 1.254 . S
C1251 O1267 1.225 . S
C1252 C1251 1.491 . S
C1252 C1253 1.392 . S
C1252 C1257 1.356 . S
C1253 C1252 1.392 . S
C1253 C1254 1.368 . S
C1253 H1276 0.929 . S
C1254 C1253 1.368 . S
C1254 C1255 1.386 . S
C1254 H1277 0.929 . S
C1255 C1254 1.386 . S
C1255 C1256 1.373 . S
C1256 C1255 1.373 . S
C1256 C1257 1.409 . S
C1256 H1278 0.931 . S
C1257 C1252 1.356 . S
C1257 C1256 1.409 . S
C1257 H1279 0.930 . S
C1258 O1268 1.270 . S
C1258 O1269 1.248 . S
C1259 O1270 1.267 . S
C1259 O1271 1.278 . S
O1260 Pr1240 2.562 . S
O1260 C1242 1.254 . S
O1261 Pr1240 2.490 . S
O1261 C1242 1.225 . S
O1262 Pr1240 2.695 . S
O1262 Pr1241 2.436 . S
O1262 C1249 1.270 . S
O1263 Pr1240 2.512 . S
O1263 C1249 1.248 . S
O1264 Pr1241 2.438 . S
O1264 C1250 1.267 . S
O1265 Pr1240 2.437 . S
O1265 C1250 1.278 . S
O1266 Pr1241 2.562 . S
O1266 C1251 1.254 . S
O1267 Pr1241 2.490 . S
O1267 C1251 1.225 . S
O1268 Pr1240 2.436 . S
O1268 Pr1241 2.695 . S
O1268 C1258 1.270 . S
O1269 Pr1241 2.512 . S
O1269 C1258 1.248 . S
O1270 Pr1240 2.438 . S
O1270 C1259 1.267 . S
O1271 Pr1241 2.437 . S
O1271 C1259 1.278 . S
H1272 C1244 0.929 . S
H1273 C1245 0.929 . S
H1274 C1247 0.931 . S
H1275 C1248 0.930 . S
H1276 C1253 0.929 . S
H1277 C1254 0.929 . S
H1278 C1256 0.931 . S
H1279 C1257 0.930 . S
Pr1280 C1282 2.880 . S
Pr1280 O1300 2.562 . S
Pr1280 O1301 2.490 . S
Pr1280 O1302 2.695 . S
Pr1280 O1303 2.512 . S
Pr1280 O1305 2.437 . S
Pr1280 O1308 2.436 . S
Pr1280 O1310 2.438 . S
Pr1281 C1291 2.880 . S
Pr1281 O1302 2.436 . S
Pr1281 O1304 2.438 . S
Pr1281 O1306 2.562 . S
Pr1281 O1307 2.490 . S
Pr1281 O1308 2.695 . S
Pr1281 O1309 2.512 . S
Pr1281 O1311 2.437 . S
C1282 Pr1280 2.880 . S
C1282 C1283 1.491 . S
C1282 O1300 1.254 . S
C1282 O1301 1.225 . S
C1283 C1282 1.491 . S
C1283 C1284 1.392 . S
C1283 C1288 1.356 . S
C1284 C1283 1.392 . S
C1284 C1285 1.368 . S
C1284 H1312 0.929 . S
C1285 C1284 1.368 . S
C1285 C1286 1.386 . S
C1285 H1313 0.929 . S
C1286 C1285 1.386 . S
C1286 C1287 1.373 . S
C1287 C1286 1.373 . S
C1287 C1288 1.409 . S
C1287 H1314 0.931 . S
C1288 C1283 1.356 . S
C1288 C1287 1.409 . S
C1288 H1315 0.930 . S
C1289 O1302 1.270 . S
C1289 O1303 1.248 . S
C1290 O1304 1.267 . S
C1290 O1305 1.278 . S
C1291 Pr1281 2.880 . S
C1291 C1292 1.491 . S
C1291 O1306 1.254 . S
C1291 O1307 1.225 . S
C1292 C1291 1.491 . S
C1292 C1293 1.392 . S
C1292 C1297 1.356 . S
C1293 C1292 1.392 . S
C1293 C1294 1.368 . S
C1293 H1316 0.929 . S
C1294 C1293 1.368 . S
C1294 C1295 1.386 . S
C1294 H1317 0.929 . S
C1295 C1294 1.386 . S
C1295 C1296 1.373 . S
C1296 C1295 1.373 . S
C1296 C1297 1.409 . S
C1296 H1318 0.931 . S
C1297 C1292 1.356 . S
C1297 C1296 1.409 . S
C1297 H1319 0.930 . S
C1298 O1308 1.270 . S
C1298 O1309 1.248 . S
C1299 O1310 1.267 . S
C1299 O1311 1.278 . S
O1300 Pr1280 2.562 . S
O1300 C1282 1.254 . S
O1301 Pr1280 2.490 . S
O1301 C1282 1.225 . S
O1302 Pr1280 2.695 . S
O1302 Pr1281 2.436 . S
O1302 C1289 1.270 . S
O1303 Pr1280 2.512 . S
O1303 C1289 1.248 . S
O1304 Pr1281 2.438 . S
O1304 C1290 1.267 . S
O1305 Pr1280 2.437 . S
O1305 C1290 1.278 . S
O1306 Pr1281 2.562 . S
O1306 C1291 1.254 . S
O1307 Pr1281 2.490 . S
O1307 C1291 1.225 . S
O1308 Pr1280 2.436 . S
O1308 Pr1281 2.695 . S
O1308 C1298 1.270 . S
O1309 Pr1281 2.512 . S
O1309 C1298 1.248 . S
O1310 Pr1280 2.438 . S
O1310 C1299 1.267 . S
O1311 Pr1281 2.437 . S
O1311 C1299 1.278 . S
H1312 C1284 0.929 . S
H1313 C1285 0.929 . S
H1314 C1287 0.931 . S
H1315 C1288 0.930 . S
H1316 C1293 0.929 . S
H1317 C1294 0.929 . S
H1318 C1296 0.931 . S
H1319 C1297 0.930 . S
Pr1320 C1322 2.880 . S
Pr1320 O1340 2.562 . S
Pr1320 O1341 2.490 . S
Pr1320 O1342 2.695 . S
Pr1320 O1343 2.512 . S
Pr1320 O1345 2.437 . S
Pr1320 O1348 2.436 . S
Pr1320 O1350 2.438 . S
Pr1321 C1331 2.880 . S
Pr1321 O1342 2.436 . S
Pr1321 O1344 2.438 . S
Pr1321 O1346 2.562 . S
Pr1321 O1347 2.490 . S
Pr1321 O1348 2.695 . S
Pr1321 O1349 2.512 . S
Pr1321 O1351 2.437 . S
C1322 Pr1320 2.880 . S
C1322 C1323 1.491 . S
C1322 O1340 1.254 . S
C1322 O1341 1.225 . S
C1323 C1322 1.491 . S
C1323 C1324 1.392 . S
C1323 C1328 1.356 . S
C1324 C1323 1.392 . S
C1324 C1325 1.368 . S
C1324 H1352 0.929 . S
C1325 C1324 1.368 . S
C1325 C1326 1.386 . S
C1325 H1353 0.929 . S
C1326 C1325 1.386 . S
C1326 C1327 1.373 . S
C1327 C1326 1.373 . S
C1327 C1328 1.409 . S
C1327 H1354 0.931 . S
C1328 C1323 1.356 . S
C1328 C1327 1.409 . S
C1328 H1355 0.930 . S
C1329 O1342 1.270 . S
C1329 O1343 1.248 . S
C1330 O1344 1.267 . S
C1330 O1345 1.278 . S
C1331 Pr1321 2.880 . S
C1331 C1332 1.491 . S
C1331 O1346 1.254 . S
C1331 O1347 1.225 . S
C1332 C1331 1.491 . S
C1332 C1333 1.392 . S
C1332 C1337 1.356 1_455 S
C1333 C1332 1.392 . S
C1333 C1334 1.368 . S
C1333 H1356 0.929 . S
C1334 C1333 1.368 . S
C1334 C1335 1.386 1_455 S
C1334 H1357 0.929 . S
C1335 C1334 1.386 1_655 S
C1335 C1336 1.373 . S
C1336 C1335 1.373 . S
C1336 C1337 1.409 . S
C1336 H1358 0.931 . S
C1337 C1332 1.356 1_655 S
C1337 C1336 1.409 . S
C1337 H1359 0.930 . S
C1338 O1348 1.270 . S
C1338 O1349 1.248 . S
C1339 O1350 1.267 . S
C1339 O1351 1.278 . S
O1340 Pr1320 2.562 . S
O1340 C1322 1.254 . S
O1341 Pr1320 2.490 . S
O1341 C1322 1.225 . S
O1342 Pr1320 2.695 . S
O1342 Pr1321 2.436 . S
O1342 C1329 1.270 . S
O1343 Pr1320 2.512 . S
O1343 C1329 1.248 . S
O1344 Pr1321 2.438 . S
O1344 C1330 1.267 . S
O1345 Pr1320 2.437 . S
O1345 C1330 1.278 . S
O1346 Pr1321 2.562 . S
O1346 C1331 1.254 . S
O1347 Pr1321 2.490 . S
O1347 C1331 1.225 . S
O1348 Pr1320 2.436 . S
O1348 Pr1321 2.695 . S
O1348 C1338 1.270 . S
O1349 Pr1321 2.512 . S
O1349 C1338 1.248 . S
O1350 Pr1320 2.438 . S
O1350 C1339 1.267 . S
O1351 Pr1321 2.437 . S
O1351 C1339 1.278 . S
H1352 C1324 0.929 . S
H1353 C1325 0.929 . S
H1354 C1327 0.931 . S
H1355 C1328 0.930 . S
H1356 C1333 0.929 . S
H1357 C1334 0.929 . S
H1358 C1336 0.931 . S
H1359 C1337 0.930 . S
Pr1360 C1362 2.880 . S
Pr1360 O1380 2.562 . S
Pr1360 O1381 2.490 . S
Pr1360 O1382 2.695 . S
Pr1360 O1383 2.512 . S
Pr1360 O1385 2.437 . S
Pr1360 O1388 2.436 . S
Pr1360 O1390 2.438 . S
Pr1361 C1371 2.880 . S
Pr1361 O1382 2.436 . S
Pr1361 O1384 2.438 . S
Pr1361 O1386 2.562 . S
Pr1361 O1387 2.490 . S
Pr1361 O1388 2.695 . S
Pr1361 O1389 2.512 . S
Pr1361 O1391 2.437 . S
C1362 Pr1360 2.880 . S
C1362 C1363 1.491 . S
C1362 O1380 1.254 . S
C1362 O1381 1.225 . S
C1363 C1362 1.491 . S
C1363 C1364 1.392 . S
C1363 C1368 1.356 . S
C1364 C1363 1.392 . S
C1364 C1365 1.368 . S
C1364 H1392 0.929 . S
C1365 C1364 1.368 . S
C1365 C1366 1.386 . S
C1365 H1393 0.929 . S
C1366 C1365 1.386 . S
C1366 C1367 1.373 . S
C1367 C1366 1.373 . S
C1367 C1368 1.409 . S
C1367 H1394 0.931 . S
C1368 C1363 1.356 . S
C1368 C1367 1.409 . S
C1368 H1395 0.930 . S
C1369 O1382 1.270 . S
C1369 O1383 1.248 . S
C1370 O1384 1.267 . S
C1370 O1385 1.278 . S
C1371 Pr1361 2.880 . S
C1371 C1372 1.491 . S
C1371 O1386 1.254 . S
C1371 O1387 1.225 . S
C1372 C1371 1.491 . S
C1372 C1373 1.392 . S
C1372 C1377 1.356 . S
C1373 C1372 1.392 . S
C1373 C1374 1.368 . S
C1373 H1396 0.929 . S
C1374 C1373 1.368 . S
C1374 C1375 1.386 . S
C1374 H1397 0.929 . S
C1375 C1374 1.386 . S
C1375 C1376 1.373 . S
C1376 C1375 1.373 . S
C1376 C1377 1.409 . S
C1376 H1398 0.931 . S
C1377 C1372 1.356 . S
C1377 C1376 1.409 . S
C1377 H1399 0.930 . S
C1378 O1388 1.270 . S
C1378 O1389 1.248 . S
C1379 O1390 1.267 . S
C1379 O1391 1.278 . S
O1380 Pr1360 2.562 . S
O1380 C1362 1.254 . S
O1381 Pr1360 2.490 . S
O1381 C1362 1.225 . S
O1382 Pr1360 2.695 . S
O1382 Pr1361 2.436 . S
O1382 C1369 1.270 . S
O1383 Pr1360 2.512 . S
O1383 C1369 1.248 . S
O1384 Pr1361 2.438 . S
O1384 C1370 1.267 . S
O1385 Pr1360 2.437 . S
O1385 C1370 1.278 . S
O1386 Pr1361 2.562 . S
O1386 C1371 1.254 . S
O1387 Pr1361 2.490 . S
O1387 C1371 1.225 . S
O1388 Pr1360 2.436 . S
O1388 Pr1361 2.695 . S
O1388 C1378 1.270 . S
O1389 Pr1361 2.512 . S
O1389 C1378 1.248 . S
O1390 Pr1360 2.438 . S
O1390 C1379 1.267 . S
O1391 Pr1361 2.437 . S
O1391 C1379 1.278 . S
H1392 C1364 0.929 . S
H1393 C1365 0.929 . S
H1394 C1367 0.931 . S
H1395 C1368 0.930 . S
H1396 C1373 0.929 . S
H1397 C1374 0.929 . S
H1398 C1376 0.931 . S
H1399 C1377 0.930 . S
Pr1400 C1402 2.880 . S
Pr1400 O1420 2.562 . S
Pr1400 O1421 2.490 . S
Pr1400 O1422 2.695 . S
Pr1400 O1423 2.512 . S
Pr1400 O1425 2.437 . S
Pr1400 O1428 2.436 . S
Pr1400 O1430 2.438 . S
Pr1401 C1411 2.880 . S
Pr1401 O1422 2.436 . S
Pr1401 O1424 2.438 . S
Pr1401 O1426 2.562 . S
Pr1401 O1427 2.490 . S
Pr1401 O1428 2.695 . S
Pr1401 O1429 2.512 . S
Pr1401 O1431 2.437 . S
C1402 Pr1400 2.880 . S
C1402 C1403 1.491 . S
C1402 O1420 1.254 . S
C1402 O1421 1.225 . S
C1403 C1402 1.491 . S
C1403 C1404 1.392 . S
C1403 C1408 1.356 . S
C1404 C1403 1.392 . S
C1404 C1405 1.368 . S
C1404 H1432 0.929 . S
C1405 C1404 1.368 . S
C1405 C1406 1.386 . S
C1405 H1433 0.929 . S
C1406 C1405 1.386 . S
C1406 C1407 1.373 . S
C1407 C1406 1.373 . S
C1407 C1408 1.409 . S
C1407 H1434 0.931 . S
C1408 C1403 1.356 . S
C1408 C1407 1.409 . S
C1408 H1435 0.930 . S
C1409 O1422 1.270 . S
C1409 O1423 1.248 . S
C1410 O1424 1.267 . S
C1410 O1425 1.278 . S
C1411 Pr1401 2.880 . S
C1411 C1412 1.491 . S
C1411 O1426 1.254 . S
C1411 O1427 1.225 . S
C1412 C1411 1.491 . S
C1412 C1413 1.392 . S
C1412 C1417 1.356 1_565 S
C1413 C1412 1.392 . S
C1413 C1414 1.368 . S
C1413 H1436 0.929 . S
C1414 C1413 1.368 . S
C1414 C1415 1.386 1_565 S
C1414 H1437 0.929 . S
C1415 C1414 1.386 1_545 S
C1415 C1416 1.373 . S
C1416 C1415 1.373 . S
C1416 C1417 1.409 . S
C1416 H1438 0.931 . S
C1417 C1412 1.356 1_545 S
C1417 C1416 1.409 . S
C1417 H1439 0.930 . S
C1418 O1428 1.270 . S
C1418 O1429 1.248 . S
C1419 O1430 1.267 . S
C1419 O1431 1.278 . S
O1420 Pr1400 2.562 . S
O1420 C1402 1.254 . S
O1421 Pr1400 2.490 . S
O1421 C1402 1.225 . S
O1422 Pr1400 2.695 . S
O1422 Pr1401 2.436 . S
O1422 C1409 1.270 . S
O1423 Pr1400 2.512 . S
O1423 C1409 1.248 . S
O1424 Pr1401 2.438 . S
O1424 C1410 1.267 . S
O1425 Pr1400 2.437 . S
O1425 C1410 1.278 . S
O1426 Pr1401 2.562 . S
O1426 C1411 1.254 . S
O1427 Pr1401 2.490 . S
O1427 C1411 1.225 . S
O1428 Pr1400 2.436 . S
O1428 Pr1401 2.695 . S
O1428 C1418 1.270 . S
O1429 Pr1401 2.512 . S
O1429 C1418 1.248 . S
O1430 Pr1400 2.438 . S
O1430 C1419 1.267 . S
O1431 Pr1401 2.437 . S
O1431 C1419 1.278 . S
H1432 C1404 0.929 . S
H1433 C1405 0.929 . S
H1434 C1407 0.931 . S
H1435 C1408 0.930 . S
H1436 C1413 0.929 . S
H1437 C1414 0.929 . S
H1438 C1416 0.931 . S
H1439 C1417 0.930 . S
C1440 C1441 1.387 . S
C1440 H1444 0.950 . S
C1440 C1449 1.390 . S
C1441 C1440 1.387 . S
C1441 C1443 1.387 . S
H1442 C1449 0.950 . S
C1443 C1441 1.387 . S
C1443 C1445 1.390 . S
C1443 H1447 0.950 . S
H1444 C1440 0.950 . S
C1445 C1443 1.390 . S
C1445 C1446 1.387 . S
C1445 H1448 0.950 . S
C1446 C1445 1.387 . S
C1446 C1449 1.387 . S
H1447 C1443 0.950 . S
H1448 C1445 0.950 . S
C1449 C1440 1.390 . S
C1449 H1442 0.950 . S
C1449 C1446 1.387 . S
C1450 C1451 1.387 . S
C1450 H1454 0.950 . S
C1450 C1459 1.390 . S
C1451 C1450 1.387 . S
C1451 C1453 1.387 . S
H1452 C1459 0.950 . S
C1453 C1451 1.387 . S
C1453 C1455 1.390 . S
C1453 H1457 0.950 . S
H1454 C1450 0.950 . S
C1455 C1453 1.390 . S
C1455 C1456 1.387 . S
C1455 H1458 0.950 . S
C1456 C1455 1.387 . S
C1456 C1459 1.387 . S
H1457 C1453 0.950 . S
H1458 C1455 0.950 . S
C1459 C1450 1.390 . S
C1459 H1452 0.950 . S
C1459 C1456 1.387 . S
C1460 C1461 1.387 . S
C1460 H1464 0.950 . S
C1460 C1469 1.390 . S
C1461 C1460 1.387 . S
C1461 C1463 1.387 . S
H1462 C1469 0.950 . S
C1463 C1461 1.387 . S
C1463 C1465 1.390 . S
C1463 H1467 0.950 . S
H1464 C1460 0.950 . S
C1465 C1463 1.390 . S
C1465 C1466 1.387 . S
C1465 H1468 0.950 . S
C1466 C1465 1.387 . S
C1466 C1469 1.387 . S
H1467 C1463 0.950 . S
H1468 C1465 0.950 . S
C1469 C1460 1.390 . S
C1469 H1462 0.950 . S
C1469 C1466 1.387 . S
C1470 C1471 1.387 . S
C1470 H1474 0.950 . S
C1470 C1479 1.390 . S
C1471 C1470 1.387 . S
C1471 C1473 1.387 . S
H1472 C1479 0.950 . S
C1473 C1471 1.387 . S
C1473 C1475 1.390 . S
C1473 H1477 0.950 . S
H1474 C1470 0.950 . S
C1475 C1473 1.390 . S
C1475 C1476 1.387 . S
C1475 H1478 0.950 . S
C1476 C1475 1.387 . S
C1476 C1479 1.387 . S
H1477 C1473 0.950 . S
H1478 C1475 0.950 . S
C1479 C1470 1.390 . S
C1479 H1472 0.950 . S
C1479 C1476 1.387 . S
C1480 C1481 1.387 . S
C1480 H1484 0.950 . S
C1480 C1489 1.390 . S
C1481 C1480 1.387 . S
C1481 C1483 1.387 . S
H1482 C1489 0.950 . S
C1483 C1481 1.387 . S
C1483 C1485 1.390 . S
C1483 H1487 0.950 . S
H1484 C1480 0.950 . S
C1485 C1483 1.390 . S
C1485 C1486 1.387 . S
C1485 H1488 0.950 . S
C1486 C1485 1.387 . S
C1486 C1489 1.387 . S
H1487 C1483 0.950 . S
H1488 C1485 0.950 . S
C1489 C1480 1.390 . S
C1489 H1482 0.950 . S
C1489 C1486 1.387 . S
C1490 C1491 1.387 . S
C1490 H1494 0.950 . S
C1490 C1499 1.390 . S
C1491 C1490 1.387 . S
C1491 C1493 1.387 . S
H1492 C1499 0.950 . S
C1493 C1491 1.387 . S
C1493 C1495 1.390 . S
C1493 H1497 0.950 . S
H1494 C1490 0.950 . S
C1495 C1493 1.390 . S
C1495 C1496 1.387 . S
C1495 H1498 0.950 . S
C1496 C1495 1.387 . S
C1496 C1499 1.387 . S
H1497 C1493 0.950 . S
H1498 C1495 0.950 . S
C1499 C1490 1.390 . S
C1499 H1492 0.950 . S
C1499 C1496 1.387 . S
C1500 C1501 1.387 . S
C1500 H1504 0.950 . S
C1500 C1509 1.390 . S
C1501 C1500 1.387 . S
C1501 C1503 1.387 . S
H1502 C1509 0.950 . S
C1503 C1501 1.387 . S
C1503 C1505 1.390 . S
C1503 H1507 0.950 . S
H1504 C1500 0.950 . S
C1505 C1503 1.390 . S
C1505 C1506 1.387 . S
C1505 H1508 0.950 . S
C1506 C1505 1.387 . S
C1506 C1509 1.387 . S
H1507 C1503 0.950 . S
H1508 C1505 0.950 . S
C1509 C1500 1.390 . S
C1509 H1502 0.950 . S
C1509 C1506 1.387 . S
C1510 C1511 1.387 . S
C1510 H1514 0.950 . S
C1510 C1519 1.390 . S
C1511 C1510 1.387 . S
C1511 C1513 1.387 . S
H1512 C1519 0.950 . S
C1513 C1511 1.387 . S
C1513 C1515 1.390 . S
C1513 H1517 0.950 . S
H1514 C1510 0.950 . S
C1515 C1513 1.390 . S
C1515 C1516 1.387 . S
C1515 H1518 0.950 . S
C1516 C1515 1.387 . S
C1516 C1519 1.387 . S
H1517 C1513 0.950 . S
H1518 C1515 0.950 . S
C1519 C1510 1.390 . S
C1519 H1512 0.950 . S
C1519 C1516 1.387 . S
C1520 C1521 1.387 . S
C1520 H1524 0.950 . S
C1520 C1529 1.390 . S
C1521 C1520 1.387 . S
C1521 C1523 1.387 . S
H1522 C1529 0.950 . S
C1523 C1521 1.387 . S
C1523 C1525 1.390 . S
C1523 H1527 0.950 . S
H1524 C1520 0.950 . S
C1525 C1523 1.390 . S
C1525 C1526 1.387 . S
C1525 H1528 0.950 . S
C1526 C1525 1.387 . S
C1526 C1529 1.387 . S
H1527 C1523 0.950 . S
H1528 C1525 0.950 . S
C1529 C1520 1.390 . S
C1529 H1522 0.950 . S
C1529 C1526 1.387 . S
C1530 C1531 1.387 . S
C1530 H1534 0.950 . S
C1530 C1539 1.390 . S
C1531 C1530 1.387 . S
C1531 C1533 1.387 . S
H1532 C1539 0.950 . S
C1533 C1531 1.387 . S
C1533 C1535 1.390 . S
C1533 H1537 0.950 . S
H1534 C1530 0.950 . S
C1535 C1533 1.390 . S
C1535 C1536 1.387 . S
C1535 H1538 0.950 . S
C1536 C1535 1.387 . S
C1536 C1539 1.387 . S
H1537 C1533 0.950 . S
H1538 C1535 0.950 . S
C1539 C1530 1.390 . S
C1539 H1532 0.950 . S
C1539 C1536 1.387 . S
C1540 C1541 1.387 . S
C1540 H1544 0.950 . S
C1540 C1549 1.390 . S
C1541 C1540 1.387 . S
C1541 C1543 1.387 . S
H1542 C1549 0.950 . S
C1543 C1541 1.387 . S
C1543 C1545 1.390 . S
C1543 H1547 0.950 . S
H1544 C1540 0.950 . S
C1545 C1543 1.390 . S
C1545 C1546 1.387 . S
C1545 H1548 0.950 . S
C1546 C1545 1.387 . S
C1546 C1549 1.387 . S
H1547 C1543 0.950 . S
H1548 C1545 0.950 . S
C1549 C1540 1.390 . S
C1549 H1542 0.950 . S
C1549 C1546 1.387 . S
C1550 C1551 1.387 . S
C1550 H1554 0.950 . S
C1550 C1559 1.390 . S
C1551 C1550 1.387 . S
C1551 C1553 1.387 . S
H1552 C1559 0.950 . S
C1553 C1551 1.387 . S
C1553 C1555 1.390 . S
C1553 H1557 0.950 . S
H1554 C1550 0.950 . S
C1555 C1553 1.390 . S
C1555 C1556 1.387 . S
C1555 H1558 0.950 . S
C1556 C1555 1.387 . S
C1556 C1559 1.387 . S
H1557 C1553 0.950 . S
H1558 C1555 0.950 . S
C1559 C1550 1.390 . S
C1559 H1552 0.950 . S
C1559 C1556 1.387 . S
C1560 C1561 1.387 . S
C1560 H1564 0.950 . S
C1560 C1569 1.390 . S
C1561 C1560 1.387 . S
C1561 C1563 1.387 . S
H1562 C1569 0.950 . S
C1563 C1561 1.387 . S
C1563 C1565 1.390 . S
C1563 H1567 0.950 . S
H1564 C1560 0.950 . S
C1565 C1563 1.390 . S
C1565 C1566 1.387 . S
C1565 H1568 0.950 . S
C1566 C1565 1.387 . S
C1566 C1569 1.387 . S
H1567 C1563 0.950 . S
H1568 C1565 0.950 . S
C1569 C1560 1.390 . S
C1569 H1562 0.950 . S
C1569 C1566 1.387 . S
C1570 C1571 1.387 . S
C1570 H1574 0.950 . S
C1570 C1579 1.390 . S
C1571 C1570 1.387 . S
C1571 C1573 1.387 . S
H1572 C1579 0.950 . S
C1573 C1571 1.387 . S
C1573 C1575 1.390 . S
C1573 H1577 0.950 . S
H1574 C1570 0.950 . S
C1575 C1573 1.390 . S
C1575 C1576 1.387 . S
C1575 H1578 0.950 . S
C1576 C1575 1.387 . S
C1576 C1579 1.387 . S
H1577 C1573 0.950 . S
H1578 C1575 0.950 . S
C1579 C1570 1.390 . S
C1579 H1572 0.950 . S
C1579 C1576 1.387 . S
C1580 C1581 1.387 . S
C1580 H1584 0.950 . S
C1580 C1589 1.390 . S
C1581 C1580 1.387 . S
C1581 C1583 1.387 . S
H1582 C1589 0.950 . S
C1583 C1581 1.387 . S
C1583 C1585 1.390 . S
C1583 H1587 0.950 . S
H1584 C1580 0.950 . S
C1585 C1583 1.390 . S
C1585 C1586 1.387 . S
C1585 H1588 0.950 . S
C1586 C1585 1.387 . S
C1586 C1589 1.387 . S
H1587 C1583 0.950 . S
H1588 C1585 0.950 . S
C1589 C1580 1.390 . S
C1589 H1582 0.950 . S
C1589 C1586 1.387 . S
C1590 C1591 1.387 . S
C1590 H1594 0.950 . S
C1590 C1599 1.390 . S
C1591 C1590 1.387 . S
C1591 C1593 1.387 . S
H1592 C1599 0.950 . S
C1593 C1591 1.387 . S
C1593 C1595 1.390 . S
C1593 H1597 0.950 . S
H1594 C1590 0.950 . S
C1595 C1593 1.390 . S
C1595 C1596 1.387 . S
C1595 H1598 0.950 . S
C1596 C1595 1.387 . S
C1596 C1599 1.387 . S
H1597 C1593 0.950 . S
H1598 C1595 0.950 . S
C1599 C1590 1.390 . S
C1599 H1592 0.950 . S
C1599 C1596 1.387 . S
C1600 C1601 1.387 . S
C1600 H1604 0.950 . S
C1600 C1609 1.390 . S
C1601 C1600 1.387 . S
C1601 C1603 1.387 . S
H1602 C1609 0.950 . S
C1603 C1601 1.387 . S
C1603 C1605 1.390 . S
C1603 H1607 0.950 . S
H1604 C1600 0.950 . S
C1605 C1603 1.390 . S
C1605 C1606 1.387 . S
C1605 H1608 0.950 . S
C1606 C1605 1.387 . S
C1606 C1609 1.387 . S
H1607 C1603 0.950 . S
H1608 C1605 0.950 . S
C1609 C1600 1.390 . S
C1609 H1602 0.950 . S
C1609 C1606 1.387 . S
C1610 C1611 1.387 . S
C1610 H1614 0.950 . S
C1610 C1619 1.390 . S
C1611 C1610 1.387 . S
C1611 C1613 1.387 . S
H1612 C1619 0.950 . S
C1613 C1611 1.387 . S
C1613 C1615 1.390 . S
C1613 H1617 0.950 . S
H1614 C1610 0.950 . S
C1615 C1613 1.390 . S
C1615 C1616 1.387 . S
C1615 H1618 0.950 . S
C1616 C1615 1.387 . S
C1616 C1619 1.387 . S
H1617 C1613 0.950 . S
H1618 C1615 0.950 . S
C1619 C1610 1.390 . S
C1619 H1612 0.950 . S
C1619 C1616 1.387 . S
C1620 C1621 1.387 . S
C1620 H1624 0.950 . S
C1620 C1629 1.390 . S
C1621 C1620 1.387 . S
C1621 C1623 1.387 . S
H1622 C1629 0.950 . S
C1623 C1621 1.387 . S
C1623 C1625 1.390 . S
C1623 H1627 0.950 . S
H1624 C1620 0.950 . S
C1625 C1623 1.390 . S
C1625 C1626 1.387 . S
C1625 H1628 0.950 . S
C1626 C1625 1.387 . S
C1626 C1629 1.387 . S
H1627 C1623 0.950 . S
H1628 C1625 0.950 . S
C1629 C1620 1.390 . S
C1629 H1622 0.950 . S
C1629 C1626 1.387 . S
C1630 C1631 1.387 . S
C1630 H1634 0.950 . S
C1630 C1639 1.390 . S
C1631 C1630 1.387 . S
C1631 C1633 1.387 . S
H1632 C1639 0.950 . S
C1633 C1631 1.387 . S
C1633 C1635 1.390 . S
C1633 H1637 0.950 . S
H1634 C1630 0.950 . S
C1635 C1633 1.390 . S
C1635 C1636 1.387 . S
C1635 H1638 0.950 . S
C1636 C1635 1.387 . S
C1636 C1639 1.387 . S
H1637 C1633 0.950 . S
H1638 C1635 0.950 . S
C1639 C1630 1.390 . S
C1639 H1632 0.950 . S
C1639 C1636 1.387 . S
C1640 C1641 1.387 . S
C1640 H1644 0.950 . S
C1640 C1649 1.390 . S
C1641 C1640 1.387 . S
C1641 C1643 1.387 . S
H1642 C1649 0.950 . S
C1643 C1641 1.387 . S
C1643 C1645 1.390 . S
C1643 H1647 0.950 . S
H1644 C1640 0.950 . S
C1645 C1643 1.390 . S
C1645 C1646 1.387 . S
C1645 H1648 0.950 . S
C1646 C1645 1.387 . S
C1646 C1649 1.387 . S
H1647 C1643 0.950 . S
H1648 C1645 0.950 . S
C1649 C1640 1.390 . S
C1649 H1642 0.950 . S
C1649 C1646 1.387 . S
C1650 C1651 1.387 1_556 S
C1650 H1654 0.950 . S
C1650 C1659 1.390 . S
C1651 C1650 1.387 1_554 S
C1651 C1653 1.387 . S
H1652 C1659 0.950 . S
C1653 C1651 1.387 . S
C1653 C1655 1.390 . S
C1653 H1657 0.950 . S
H1654 C1650 0.950 . S
C1655 C1653 1.390 . S
C1655 C1656 1.387 . S
C1655 H1658 0.950 . S
C1656 C1655 1.387 . S
C1656 C1659 1.387 1_554 S
H1657 C1653 0.950 . S
H1658 C1655 0.950 . S
C1659 C1650 1.390 . S
C1659 H1652 0.950 . S
C1659 C1656 1.387 1_556 S
C1660 C1661 1.387 1_556 S
C1660 H1664 0.950 . S
C1660 C1669 1.390 . S
C1661 C1660 1.387 1_554 S
C1661 C1663 1.387 . S
H1662 C1669 0.950 . S
C1663 C1661 1.387 . S
C1663 C1665 1.390 . S
C1663 H1667 0.950 . S
H1664 C1660 0.950 . S
C1665 C1663 1.390 . S
C1665 C1666 1.387 . S
C1665 H1668 0.950 . S
C1666 C1665 1.387 . S
C1666 C1669 1.387 1_554 S
H1667 C1663 0.950 . S
H1668 C1665 0.950 . S
C1669 C1660 1.390 . S
C1669 H1662 0.950 . S
C1669 C1666 1.387 1_556 S
C1670 C1671 1.387 . S
C1670 H1674 0.950 . S
C1670 C1679 1.390 . S
C1671 C1670 1.387 . S
C1671 C1673 1.387 1_554 S
H1672 C1679 0.950 . S
C1673 C1671 1.387 1_556 S
C1673 C1675 1.390 . S
C1673 H1677 0.950 . S
H1674 C1670 0.950 . S
C1675 C1673 1.390 . S
C1675 C1676 1.387 1_556 S
C1675 H1678 0.950 . S
C1676 C1675 1.387 1_554 S
C1676 C1679 1.387 . S
H1677 C1673 0.950 . S
H1678 C1675 0.950 . S
C1679 C1670 1.390 . S
C1679 H1672 0.950 . S
C1679 C1676 1.387 . S
C1680 C1681 1.387 . S
C1680 H1684 0.950 . S
C1680 C1689 1.390 . S
C1681 C1680 1.387 . S
C1681 C1683 1.387 . S
H1682 C1689 0.950 . S
C1683 C1681 1.387 . S
C1683 C1685 1.390 . S
C1683 H1687 0.950 . S
H1684 C1680 0.950 . S
C1685 C1683 1.390 . S
C1685 C1686 1.387 . S
C1685 H1688 0.950 . S
C1686 C1685 1.387 . S
C1686 C1689 1.387 . S
H1687 C1683 0.950 . S
H1688 C1685 0.950 . S
C1689 C1680 1.390 . S
C1689 H1682 0.950 . S
C1689 C1686 1.387 . S
C1690 C1691 1.387 . S
C1690 H1694 0.950 . S
C1690 C1699 1.390 . S
C1691 C1690 1.387 . S
C1691 C1693 1.387 . S
H1692 C1699 0.950 . S
C1693 C1691 1.387 . S
C1693 C1695 1.390 . S
C1693 H1697 0.950 . S
H1694 C1690 0.950 . S
C1695 C1693 1.390 . S
C1695 C1696 1.387 . S
C1695 H1698 0.950 . S
C1696 C1695 1.387 . S
C1696 C1699 1.387 . S
H1697 C1693 0.950 . S
H1698 C1695 0.950 . S
C1699 C1690 1.390 . S
C1699 H1692 0.950 . S
C1699 C1696 1.387 . S
C1700 C1701 1.387 . S
C1700 H1704 0.950 . S
C1700 C1709 1.390 . S
C1701 C1700 1.387 . S
C1701 C1703 1.387 . S
H1702 C1709 0.950 . S
C1703 C1701 1.387 . S
C1703 C1705 1.390 . S
C1703 H1707 0.950 . S
H1704 C1700 0.950 . S
C1705 C1703 1.390 . S
C1705 C1706 1.387 . S
C1705 H1708 0.950 . S
C1706 C1705 1.387 . S
C1706 C1709 1.387 . S
H1707 C1703 0.950 . S
H1708 C1705 0.950 . S
C1709 C1700 1.390 . S
C1709 H1702 0.950 . S
C1709 C1706 1.387 . S
C1710 C1711 1.387 . S
C1710 H1714 0.950 . S
C1710 C1719 1.390 . S
C1711 C1710 1.387 . S
C1711 C1713 1.387 1_556 S
H1712 C1719 0.950 . S
C1713 C1711 1.387 1_554 S
C1713 C1715 1.390 . S
C1713 H1717 0.950 . S
H1714 C1710 0.950 . S
C1715 C1713 1.390 . S
C1715 C1716 1.387 1_554 S
C1715 H1718 0.950 . S
C1716 C1715 1.387 1_556 S
C1716 C1719 1.387 . S
H1717 C1713 0.950 . S
H1718 C1715 0.950 . S
C1719 C1710 1.390 . S
C1719 H1712 0.950 . S
C1719 C1716 1.387 . S
C1720 C1721 1.387 . S
C1720 H1724 0.950 . S
C1720 C1729 1.390 . S
C1721 C1720 1.387 . S
C1721 C1723 1.387 1_556 S
H1722 C1729 0.950 . S
C1723 C1721 1.387 1_554 S
C1723 C1725 1.390 . S
C1723 H1727 0.950 . S
H1724 C1720 0.950 . S
C1725 C1723 1.390 . S
C1725 C1726 1.387 1_554 S
C1725 H1728 0.950 . S
C1726 C1725 1.387 1_556 S
C1726 C1729 1.387 . S
H1727 C1723 0.950 . S
H1728 C1725 0.950 . S
C1729 C1720 1.390 . S
C1729 H1722 0.950 . S
C1729 C1726 1.387 . S
C1730 C1731 1.387 1_554 S
C1730 H1734 0.950 . S
C1730 C1739 1.390 . S
C1731 C1730 1.387 1_556 S
C1731 C1733 1.387 . S
H1732 C1739 0.950 . S
C1733 C1731 1.387 . S
C1733 C1735 1.390 . S
C1733 H1737 0.950 . S
H1734 C1730 0.950 . S
C1735 C1733 1.390 . S
C1735 C1736 1.387 . S
C1735 H1738 0.950 . S
C1736 C1735 1.387 . S
C1736 C1739 1.387 1_556 S
H1737 C1733 0.950 . S
H1738 C1735 0.950 . S
C1739 C1730 1.390 . S
C1739 H1732 0.950 . S
C1739 C1736 1.387 1_554 S
C1740 C1741 1.387 . S
C1740 H1744 0.950 . S
C1740 C1749 1.390 . S
C1741 C1740 1.387 . S
C1741 C1743 1.387 . S
H1742 C1749 0.950 . S
C1743 C1741 1.387 . S
C1743 C1745 1.390 . S
C1743 H1747 0.950 . S
H1744 C1740 0.950 . S
C1745 C1743 1.390 . S
C1745 C1746 1.387 . S
C1745 H1748 0.950 . S
C1746 C1745 1.387 . S
C1746 C1749 1.387 . S
H1747 C1743 0.950 . S
H1748 C1745 0.950 . S
C1749 C1740 1.390 . S
C1749 H1742 0.950 . S
C1749 C1746 1.387 . S
C1750 C1751 1.387 . S
C1750 H1754 0.950 . S
C1750 C1759 1.390 . S
C1751 C1750 1.387 . S
C1751 C1753 1.387 . S
H1752 C1759 0.950 . S
C1753 C1751 1.387 . S
C1753 C1755 1.390 . S
C1753 H1757 0.950 . S
H1754 C1750 0.950 . S
C1755 C1753 1.390 . S
C1755 C1756 1.387 . S
C1755 H1758 0.950 . S
C1756 C1755 1.387 . S
C1756 C1759 1.387 . S
H1757 C1753 0.950 . S
H1758 C1755 0.950 . S
C1759 C1750 1.390 . S
C1759 H1752 0.950 . S
C1759 C1756 1.387 . S
C1760 C1761 1.387 . S
C1760 H1764 0.950 . S
C1760 C1769 1.390 . S
C1761 C1760 1.387 . S
C1761 C1763 1.387 . S
H1762 C1769 0.950 . S
C1763 C1761 1.387 . S
C1763 C1765 1.390 . S
C1763 H1767 0.950 . S
H1764 C1760 0.950 . S
C1765 C1763 1.390 . S
C1765 C1766 1.387 . S
C1765 H1768 0.950 . S
C1766 C1765 1.387 . S
C1766 C1769 1.387 . S
H1767 C1763 0.950 . S
H1768 C1765 0.950 . S
C1769 C1760 1.390 . S
C1769 H1762 0.950 . S
C1769 C1766 1.387 . S
C1770 C1771 1.387 . S
C1770 H1774 0.950 . S
C1770 C1779 1.390 . S
C1771 C1770 1.387 . S
C1771 C1773 1.387 . S
H1772 C1779 0.950 . S
C1773 C1771 1.387 . S
C1773 C1775 1.390 . S
C1773 H1777 0.950 . S
H1774 C1770 0.950 . S
C1775 C1773 1.390 . S
C1775 C1776 1.387 . S
C1775 H1778 0.950 . S
C1776 C1775 1.387 . S
C1776 C1779 1.387 . S
H1777 C1773 0.950 . S
H1778 C1775 0.950 . S
C1779 C1770 1.390 . S
C1779 H1772 0.950 . S
C1779 C1776 1.387 . S
C1780 C1781 1.387 . S
C1780 H1784 0.950 . S
C1780 C1789 1.390 . S
C1781 C1780 1.387 . S
C1781 C1783 1.387 . S
H1782 C1789 0.950 . S
C1783 C1781 1.387 . S
C1783 C1785 1.390 . S
C1783 H1787 0.950 . S
H1784 C1780 0.950 . S
C1785 C1783 1.390 . S
C1785 C1786 1.387 . S
C1785 H1788 0.950 . S
C1786 C1785 1.387 . S
C1786 C1789 1.387 . S
H1787 C1783 0.950 . S
H1788 C1785 0.950 . S
C1789 C1780 1.390 . S
C1789 H1782 0.950 . S
C1789 C1786 1.387 . S
C1790 C1791 1.387 . S
C1790 H1794 0.950 . S
C1790 C1799 1.390 . S
C1791 C1790 1.387 . S
C1791 C1793 1.387 . S
H1792 C1799 0.950 . S
C1793 C1791 1.387 . S
C1793 C1795 1.390 . S
C1793 H1797 0.950 . S
H1794 C1790 0.950 . S
C1795 C1793 1.390 . S
C1795 C1796 1.387 . S
C1795 H1798 0.950 . S
C1796 C1795 1.387 . S
C1796 C1799 1.387 . S
H1797 C1793 0.950 . S
H1798 C1795 0.950 . S
C1799 C1790 1.390 . S
C1799 H1792 0.950 . S
C1799 C1796 1.387 . S
C1800 C1801 1.387 . S
C1800 H1804 0.950 . S
C1800 C1809 1.390 . S
C1801 C1800 1.387 . S
C1801 C1803 1.387 . S
H1802 C1809 0.950 . S
C1803 C1801 1.387 . S
C1803 C1805 1.390 . S
C1803 H1807 0.950 . S
H1804 C1800 0.950 . S
C1805 C1803 1.390 . S
C1805 C1806 1.387 . S
C1805 H1808 0.950 . S
C1806 C1805 1.387 . S
C1806 C1809 1.387 . S
H1807 C1803 0.950 . S
H1808 C1805 0.950 . S
C1809 C1800 1.390 . S
C1809 H1802 0.950 . S
C1809 C1806 1.387 . S
C1810 C1811 1.387 . S
C1810 H1814 0.950 . S
C1810 C1819 1.390 . S
C1811 C1810 1.387 . S
C1811 C1813 1.387 . S
H1812 C1819 0.950 . S
C1813 C1811 1.387 . S
C1813 C1815 1.390 . S
C1813 H1817 0.950 1_565 S
H1814 C1810 0.950 . S
C1815 C1813 1.390 . S
C1815 C1816 1.387 . S
C1815 H1818 0.950 . S
C1816 C1815 1.387 . S
C1816 C1819 1.387 . S
H1817 C1813 0.950 1_545 S
H1818 C1815 0.950 . S
C1819 C1810 1.390 . S
C1819 H1812 0.950 . S
C1819 C1816 1.387 . S
C1820 C1821 1.387 . S
C1820 H1824 0.950 1_455 S
C1820 C1829 1.390 1_455 S
C1821 C1820 1.387 . S
C1821 C1823 1.387 . S
H1822 C1829 0.950 . S
C1823 C1821 1.387 . S
C1823 C1825 1.390 . S
C1823 H1827 0.950 . S
H1824 C1820 0.950 1_655 S
C1825 C1823 1.390 . S
C1825 C1826 1.387 . S
C1825 H1828 0.950 . S
C1826 C1825 1.387 . S
C1826 C1829 1.387 1_455 S
H1827 C1823 0.950 . S
H1828 C1825 0.950 . S
C1829 C1820 1.390 1_655 S
C1829 H1822 0.950 . S
C1829 C1826 1.387 1_655 S
C1830 C1831 1.387 . S
C1830 H1834 0.950 . S
C1830 C1839 1.390 . S
C1831 C1830 1.387 . S
C1831 C1833 1.387 . S
H1832 C1839 0.950 . S
C1833 C1831 1.387 . S
C1833 C1835 1.390 . S
C1833 H1837 0.950 . S
H1834 C1830 0.950 . S
C1835 C1833 1.390 . S
C1835 C1836 1.387 . S
C1835 H1838 0.950 . S
C1836 C1835 1.387 . S
C1836 C1839 1.387 . S
H1837 C1833 0.950 . S
H1838 C1835 0.950 . S
C1839 C1830 1.390 . S
C1839 H1832 0.950 . S
C1839 C1836 1.387 . S
C1840 C1841 1.387 . S
C1840 H1844 0.950 . S
C1840 C1849 1.390 . S
C1841 C1840 1.387 . S
C1841 C1843 1.387 . S
H1842 C1849 0.950 . S
C1843 C1841 1.387 . S
C1843 C1845 1.390 . S
C1843 H1847 0.950 . S
H1844 C1840 0.950 . S
C1845 C1843 1.390 . S
C1845 C1846 1.387 . S
C1845 H1848 0.950 . S
C1846 C1845 1.387 . S
C1846 C1849 1.387 . S
H1847 C1843 0.950 . S
H1848 C1845 0.950 . S
C1849 C1840 1.390 . S
C1849 H1842 0.950 . S
C1849 C1846 1.387 . S
C1850 C1851 1.387 . S
C1850 H1854 0.950 1_655 S
C1850 C1859 1.390 1_655 S
C1851 C1850 1.387 . S
C1851 C1853 1.387 . S
H1852 C1859 0.950 . S
C1853 C1851 1.387 . S
C1853 C1855 1.390 . S
C1853 H1857 0.950 . S
H1854 C1850 0.950 1_455 S
C1855 C1853 1.390 . S
C1855 C1856 1.387 . S
C1855 H1858 0.950 . S
C1856 C1855 1.387 . S
C1856 C1859 1.387 1_655 S
H1857 C1853 0.950 . S
H1858 C1855 0.950 . S
C1859 C1850 1.390 1_455 S
C1859 H1852 0.950 . S
C1859 C1856 1.387 1_455 S
C1860 C1861 1.387 . S
C1860 H1864 0.950 . S
C1860 C1869 1.390 . S
C1861 C1860 1.387 . S
C1861 C1863 1.387 . S
H1862 C1869 0.950 . S
C1863 C1861 1.387 . S
C1863 C1865 1.390 . S
C1863 H1867 0.950 . S
H1864 C1860 0.950 . S
C1865 C1863 1.390 . S
C1865 C1866 1.387 . S
C1865 H1868 0.950 . S
C1866 C1865 1.387 . S
C1866 C1869 1.387 . S
H1867 C1863 0.950 . S
H1868 C1865 0.950 . S
C1869 C1860 1.390 . S
C1869 H1862 0.950 . S
C1869 C1866 1.387 . S
C1870 C1871 1.387 . S
C1870 H1874 0.950 . S
C1870 C1879 1.390 . S
C1871 C1870 1.387 . S
C1871 C1873 1.387 . S
H1872 C1879 0.955 . S
C1873 C1871 1.387 . S
C1873 C1875 1.390 . S
C1873 H1877 0.950 . S
H1874 C1870 0.950 . S
C1875 C1873 1.390 . S
C1875 C1876 1.387 . S
C1875 H1878 0.950 . S
C1876 C1875 1.387 . S
C1876 C1879 1.387 . S
H1877 C1873 0.950 . S
H1878 C1875 0.950 . S
C1879 C1870 1.390 . S
C1879 H1872 0.955 . S
C1879 C1876 1.387 . S
C1880 C1881 1.387 . S
C1880 H1884 0.950 . S
C1880 C1889 1.390 . S
C1881 C1880 1.387 . S
C1881 C1883 1.387 . S
H1882 C1889 0.950 . S
C1883 C1881 1.387 . S
C1883 C1885 1.390 . S
C1883 H1887 0.950 . S
H1884 C1880 0.950 . S
C1885 C1883 1.390 . S
C1885 C1886 1.387 . S
C1885 H1888 0.950 . S
C1886 C1885 1.387 . S
C1886 C1889 1.387 . S
H1887 C1883 0.950 . S
H1888 C1885 0.950 . S
C1889 C1880 1.390 . S
C1889 H1882 0.950 . S
C1889 C1886 1.387 . S
C1890 C1891 1.387 . S
C1890 H1894 0.950 . S
C1890 C1899 1.390 . S
C1891 C1890 1.387 . S
C1891 C1893 1.387 . S
H1892 C1899 0.950 . S
C1893 C1891 1.387 . S
C1893 C1895 1.390 . S
C1893 H1897 0.950 . S
H1894 C1890 0.950 . S
C1895 C1893 1.390 . S
C1895 C1896 1.387 . S
C1895 H1898 0.950 . S
C1896 C1895 1.387 . S
C1896 C1899 1.387 . S
H1897 C1893 0.950 . S
H1898 C1895 0.950 . S
C1899 C1890 1.390 . S
C1899 H1892 0.950 . S
C1899 C1896 1.387 . S
C1900 C1901 1.387 . S
C1900 H1904 0.950 . S
C1900 C1909 1.390 . S
C1901 C1900 1.387 . S
C1901 C1903 1.387 . S
H1902 C1909 0.950 . S
C1903 C1901 1.387 . S
C1903 C1905 1.390 . S
C1903 H1907 0.950 . S
H1904 C1900 0.950 . S
C1905 C1903 1.390 . S
C1905 C1906 1.387 . S
C1905 H1908 0.950 . S
C1906 C1905 1.387 . S
C1906 C1909 1.387 . S
H1907 C1903 0.950 . S
H1908 C1905 0.950 . S
C1909 C1900 1.390 . S
C1909 H1902 0.950 . S
C1909 C1906 1.387 . S
C1910 C1911 1.387 . S
C1910 H1914 0.950 . S
C1910 C1919 1.390 . S
C1911 C1910 1.387 . S
C1911 C1913 1.387 . S
H1912 C1919 0.950 . S
C1913 C1911 1.387 . S
C1913 C1915 1.390 . S
C1913 H1917 0.950 . S
H1914 C1910 0.950 . S
C1915 C1913 1.390 . S
C1915 C1916 1.387 . S
C1915 H1918 0.950 . S
C1916 C1915 1.387 . S
C1916 C1919 1.387 . S
H1917 C1913 0.950 . S
H1918 C1915 0.950 . S
C1919 C1910 1.390 . S
C1919 H1912 0.950 . S
C1919 C1916 1.387 . S
C1920 C1921 1.387 1_455 S
C1920 H1924 0.950 1_455 S
C1920 C1929 1.390 . S
C1921 C1920 1.387 1_655 S
C1921 C1923 1.387 1_655 S
H1922 C1929 0.950 . S
C1923 C1921 1.387 1_455 S
C1923 C1925 1.390 . S
C1923 H1927 0.950 1_455 S
H1924 C1920 0.950 1_655 S
C1925 C1923 1.390 . S
C1925 C1926 1.387 . S
C1925 H1928 0.950 . S
C1926 C1925 1.387 . S
C1926 C1929 1.387 . S
H1927 C1923 0.950 1_655 S
H1928 C1925 0.950 . S
C1929 C1920 1.390 . S
C1929 H1922 0.950 . S
C1929 C1926 1.387 . S
C1930 C1931 1.387 . S
C1930 H1934 0.950 . S
C1930 C1939 1.390 . S
C1931 C1930 1.387 . S
C1931 C1933 1.387 . S
H1932 C1939 0.950 . S
C1933 C1931 1.387 . S
C1933 C1935 1.390 . S
C1933 H1937 0.950 . S
H1934 C1930 0.950 . S
C1935 C1933 1.390 . S
C1935 C1936 1.387 . S
C1935 H1938 0.950 . S
C1936 C1935 1.387 . S
C1936 C1939 1.387 . S
H1937 C1933 0.950 . S
H1938 C1935 0.950 . S
C1939 C1930 1.390 . S
C1939 H1932 0.950 . S
C1939 C1936 1.387 . S
C1940 C1941 1.387 . S
C1940 H1944 0.950 . S
C1940 C1949 1.390 . S
C1941 C1940 1.387 . S
C1941 C1943 1.387 . S
H1942 C1949 0.950 1_545 S
C1943 C1941 1.387 . S
C1943 C1945 1.390 1_565 S
C1943 H1947 0.950 . S
H1944 C1940 0.950 . S
C1945 C1943 1.390 1_545 S
C1945 C1946 1.387 . S
C1945 H1948 0.950 . S
C1946 C1945 1.387 . S
C1946 C1949 1.387 1_545 S
H1947 C1943 0.950 . S
H1948 C1945 0.950 . S
C1949 C1940 1.390 . S
C1949 H1942 0.950 1_565 S
C1949 C1946 1.387 1_565 S
C1950 C1951 1.387 . S
C1950 H1954 0.950 . S
C1950 C1959 1.390 . S
C1951 C1950 1.387 . S
C1951 C1953 1.387 . S
H1952 C1959 0.950 . S
C1953 C1951 1.387 . S
C1953 C1955 1.390 . S
C1953 H1957 0.950 . S
H1954 C1950 0.950 . S
C1955 C1953 1.390 . S
C1955 C1956 1.387 . S
C1955 H1958 0.950 . S
C1956 C1955 1.387 . S
C1956 C1959 1.387 . S
H1957 C1953 0.950 . S
H1958 C1955 0.950 . S
C1959 C1950 1.390 . S
C1959 H1952 0.950 . S
C1959 C1956 1.387 . S
C1960 C1961 1.387 . S
C1960 H1964 0.950 . S
C1960 C1969 1.390 . S
C1961 C1960 1.387 . S
C1961 C1963 1.387 . S
H1962 C1969 0.950 . S
C1963 C1961 1.387 . S
C1963 C1965 1.390 . S
C1963 H1967 0.950 . S
H1964 C1960 0.950 . S
C1965 C1963 1.390 . S
C1965 C1966 1.387 . S
C1965 H1968 0.950 . S
C1966 C1965 1.387 . S
C1966 C1969 1.387 . S
H1967 C1963 0.950 . S
H1968 C1965 0.950 . S
C1969 C1960 1.390 . S
C1969 H1962 0.950 . S
C1969 C1966 1.387 . S
C1970 C1971 1.387 . S
C1970 H1974 0.950 . S
C1970 C1979 1.390 . S
C1971 C1970 1.387 . S
C1971 C1973 1.387 . S
H1972 C1979 0.950 . S
C1973 C1971 1.387 . S
C1973 C1975 1.390 . S
C1973 H1977 0.950 . S
H1974 C1970 0.950 . S
C1975 C1973 1.390 . S
C1975 C1976 1.387 . S
C1975 H1978 0.950 . S
C1976 C1975 1.387 . S
C1976 C1979 1.387 . S
H1977 C1973 0.950 . S
H1978 C1975 0.950 . S
C1979 C1970 1.390 . S
C1979 H1972 0.950 . S
C1979 C1976 1.387 . S
C1980 C1981 1.387 . S
C1980 H1984 0.950 . S
C1980 C1989 1.390 . S
C1981 C1980 1.387 . S
C1981 C1983 1.387 . S
H1982 C1989 0.950 . S
C1983 C1981 1.387 . S
C1983 C1985 1.390 . S
C1983 H1987 0.950 . S
H1984 C1980 0.950 . S
C1985 C1983 1.390 . S
C1985 C1986 1.387 . S
C1985 H1988 0.950 . S
C1986 C1985 1.387 . S
C1986 C1989 1.387 . S
H1987 C1983 0.950 . S
H1988 C1985 0.950 . S
C1989 C1980 1.390 . S
C1989 H1982 0.950 . S
C1989 C1986 1.387 . S
C1990 C1991 1.387 . S
C1990 H1994 0.950 . S
C1990 C1999 1.390 . S
C1991 C1990 1.387 . S
C1991 C1993 1.387 . S
H1992 C1999 0.950 . S
C1993 C1991 1.387 . S
C1993 C1995 1.390 . S
C1993 H1997 0.950 . S
H1994 C1990 0.950 . S
C1995 C1993 1.390 . S
C1995 C1996 1.387 . S
C1995 H1998 0.950 . S
C1996 C1995 1.387 . S
C1996 C1999 1.387 . S
H1997 C1993 0.950 . S
H1998 C1995 0.950 . S
C1999 C1990 1.390 . S
C1999 H1992 0.950 . S
C1999 C1996 1.387 . S
C2000 C2001 1.387 . S
C2000 H2004 0.950 . S
C2000 C2009 1.390 . S
C2001 C2000 1.387 . S
C2001 C2003 1.387 . S
H2002 C2009 0.950 . S
C2003 C2001 1.387 . S
C2003 C2005 1.390 . S
C2003 H2007 0.950 . S
H2004 C2000 0.950 . S
C2005 C2003 1.390 . S
C2005 C2006 1.387 . S
C2005 H2008 0.950 . S
C2006 C2005 1.387 . S
C2006 C2009 1.387 . S
H2007 C2003 0.950 . S
H2008 C2005 0.950 . S
C2009 C2000 1.390 . S
C2009 H2002 0.950 . S
C2009 C2006 1.387 . S
C2010 C2011 1.435 . S
C2010 H2014 0.950 . S
C2010 C2019 1.390 . S
C2011 C2010 1.435 . S
C2011 C2013 1.351 1_556 S
H2012 C2019 0.950 1_545 S
C2013 C2011 1.351 1_554 S
C2013 C2015 1.390 1_565 S
C2013 H2017 0.950 . S
H2014 C2010 0.950 . S
C2015 C2013 1.390 1_545 S
C2015 C2016 1.387 1_554 S
C2015 H2018 0.950 . S
C2016 C2015 1.387 1_556 S
C2016 C2019 1.387 1_545 S
H2017 C2013 0.950 . S
H2018 C2015 0.950 . S
C2019 C2010 1.390 . S
C2019 H2012 0.950 1_565 S
C2019 C2016 1.387 1_565 S
C2020 C2021 1.339 1_554 S
C2020 H2024 0.950 . S
C2020 C2029 1.390 1_455 S
C2021 C2020 1.339 1_556 S
C2021 C2023 1.446 . S
H2022 C2029 0.950 . S
C2023 C2021 1.446 . S
C2023 C2025 1.390 . S
C2023 H2027 0.950 . S
H2024 C2020 0.950 . S
C2025 C2023 1.390 . S
C2025 C2026 1.387 1_455 S
C2025 H2028 0.950 1_455 S
C2026 C2025 1.387 1_655 S
C2026 C2029 1.387 1_556 S
H2027 C2023 0.950 . S
H2028 C2025 0.950 1_655 S
C2029 C2020 1.390 1_655 S
C2029 H2022 0.950 . S
C2029 C2026 1.387 1_554 S
C2030 C2031 1.387 . S
C2030 H2034 0.950 . S
C2030 C2039 1.390 . S
C2031 C2030 1.387 . S
C2031 C2033 1.387 1_556 S
H2032 C2039 0.950 . S
C2033 C2031 1.387 1_554 S
C2033 C2035 1.390 . S
C2033 H2037 0.950 . S
H2034 C2030 0.950 . S
C2035 C2033 1.390 . S
C2035 C2036 1.319 1_554 S
C2035 H2038 0.950 . S
C2036 C2035 1.319 1_556 S
C2036 C2039 1.471 . S
H2037 C2033 0.950 . S
H2038 C2035 0.950 . S
C2039 C2030 1.390 . S
C2039 H2032 0.950 . S
C2039 C2036 1.471 . S
C2040 C2041 1.387 . S
C2040 H2044 0.950 . S
C2040 C2049 1.390 . S
C2041 C2040 1.387 . S
C2041 C2043 1.387 . S
H2042 C2049 0.950 . S
C2043 C2041 1.387 . S
C2043 C2045 1.390 . S
C2043 H2047 0.950 . S
H2044 C2040 0.950 . S
C2045 C2043 1.390 . S
C2045 C2046 1.387 . S
C2045 H2048 0.950 . S
C2046 C2045 1.387 . S
C2046 C2049 1.387 . S
H2047 C2043 0.950 . S
H2048 C2045 0.950 . S
C2049 C2040 1.390 . S
C2049 H2042 0.950 . S
C2049 C2046 1.387 . S
C2050 C2051 1.387 . S
C2050 H2054 0.950 . S
C2050 C2059 1.390 . S
C2051 C2050 1.387 . S
C2051 C2053 1.387 . S
H2052 C2059 0.950 . S
C2053 C2051 1.387 . S
C2053 C2055 1.390 . S
C2053 H2057 0.950 . S
H2054 C2050 0.950 . S
C2055 C2053 1.390 . S
C2055 C2056 1.387 . S
C2055 H2058 0.950 . S
C2056 C2055 1.387 . S
C2056 C2059 1.387 . S
H2057 C2053 0.950 . S
H2058 C2055 0.950 . S
C2059 C2050 1.390 . S
C2059 H2052 0.950 . S
C2059 C2056 1.387 . S
C2060 C2061 1.387 . S
C2060 H2064 0.950 . S
C2060 C2069 1.390 . S
C2061 C2060 1.387 . S
C2061 C2063 1.387 . S
H2062 C2069 0.950 . S
C2063 C2061 1.387 . S
C2063 C2065 1.390 . S
C2063 H2067 0.950 . S
H2064 C2060 0.950 . S
C2065 C2063 1.390 . S
C2065 C2066 1.387 . S
C2065 H2068 0.950 . S
C2066 C2065 1.387 . S
C2066 C2069 1.387 . S
H2067 C2063 0.950 . S
H2068 C2065 0.950 . S
C2069 C2060 1.390 . S
C2069 H2062 0.950 . S
C2069 C2066 1.387 . S
C2070 C2071 1.387 1_556 S
C2070 H2074 0.950 . S
C2070 C2079 1.390 1_565 S
C2071 C2070 1.387 1_554 S
C2071 C2073 1.387 1_565 S
H2072 C2079 0.950 . S
C2073 C2071 1.387 1_545 S
C2073 C2075 1.390 . S
C2073 H2077 0.950 1_545 S
H2074 C2070 0.950 . S
C2075 C2073 1.390 . S
C2075 C2076 1.456 . S
C2075 H2078 0.950 . S
C2076 C2075 1.456 . S
C2076 C2079 1.336 1_554 S
H2077 C2073 0.950 1_565 S
H2078 C2075 0.950 . S
C2079 C2070 1.390 1_545 S
C2079 H2072 0.950 . S
C2079 C2076 1.336 1_556 S
C2080 C2081 1.446 . S
C2080 H2084 0.950 . S
C2080 C2089 1.390 . S
C2081 C2080 1.446 . S
C2081 C2083 1.340 1_554 S
H2082 C2089 0.950 1_455 S
C2083 C2081 1.340 1_556 S
C2083 C2085 1.390 1_655 S
C2083 H2087 0.950 . S
H2084 C2080 0.950 . S
C2085 C2083 1.390 1_455 S
C2085 C2086 1.387 1_556 S
C2085 H2088 0.950 . S
C2086 C2085 1.387 1_554 S
C2086 C2089 1.387 1_455 S
H2087 C2083 0.950 . S
H2088 C2085 0.950 . S
C2089 C2080 1.390 . S
C2089 H2082 0.950 1_655 S
C2089 C2086 1.387 1_655 S
C2090 C2091 1.387 . S
C2090 H2094 0.950 . S
C2090 C2099 1.390 . S
C2091 C2090 1.387 . S
C2091 C2093 1.387 1_554 S
H2092 C2099 0.950 . S
C2093 C2091 1.387 1_556 S
C2093 C2095 1.390 . S
C2093 H2097 0.950 . S
H2094 C2090 0.950 . S
C2095 C2093 1.390 . S
C2095 C2096 1.319 1_556 S
C2095 H2098 0.950 . S
C2096 C2095 1.319 1_554 S
C2096 C2099 1.471 . S
H2097 C2093 0.950 . S
H2098 C2095 0.950 . S
C2099 C2090 1.390 . S
C2099 H2092 0.950 . S
C2099 C2096 1.471 . S
C2100 C2101 1.387 1_655 S
C2100 H2104 0.950 1_655 S
C2100 C2109 1.390 . S
C2101 C2100 1.387 1_455 S
C2101 C2103 1.387 1_455 S
H2102 C2109 0.950 . S
C2103 C2101 1.387 1_655 S
C2103 C2105 1.390 . S
C2103 H2107 0.950 1_655 S
H2104 C2100 0.950 1_455 S
C2105 C2103 1.390 . S
C2105 C2106 1.387 . S
C2105 H2108 0.950 . S
C2106 C2105 1.387 . S
C2106 C2109 1.387 . S
H2107 C2103 0.950 1_455 S
H2108 C2105 0.950 . S
C2109 C2100 1.390 . S
C2109 H2102 0.950 . S
C2109 C2106 1.387 . S
C2110 C2111 1.387 . S
C2110 H2114 0.950 . S
C2110 C2119 1.390 . S
C2111 C2110 1.387 . S
C2111 C2113 1.387 . S
H2112 C2119 0.950 . S
C2113 C2111 1.387 . S
C2113 C2115 1.390 . S
C2113 H2117 0.950 . S
H2114 C2110 0.950 . S
C2115 C2113 1.390 . S
C2115 C2116 1.387 . S
C2115 H2118 0.950 . S
C2116 C2115 1.387 . S
C2116 C2119 1.387 . S
H2117 C2113 0.950 . S
H2118 C2115 0.950 . S
C2119 C2110 1.390 . S
C2119 H2112 0.950 . S
C2119 C2116 1.387 . S
C2120 C2121 1.387 1_545 S
C2120 H2124 0.950 1_545 S
C2120 C2129 1.390 . S
C2121 C2120 1.387 1_565 S
C2121 C2123 1.387 1_565 S
H2122 C2129 0.950 . S
C2123 C2121 1.387 1_545 S
C2123 C2125 1.390 . S
C2123 H2127 0.950 1_545 S
H2124 C2120 0.950 1_565 S
C2125 C2123 1.390 . S
C2125 C2126 1.387 . S
C2125 H2128 0.950 . S
C2126 C2125 1.387 . S
C2126 C2129 1.387 . S
H2127 C2123 0.950 1_565 S
H2128 C2125 0.950 . S
C2129 C2120 1.390 . S
C2129 H2122 0.950 . S
C2129 C2126 1.387 . S
C2130 C2131 1.387 . S
C2130 H2134 0.950 . S
C2130 C2139 1.390 . S
C2131 C2130 1.387 . S
C2131 C2133 1.387 . S
H2132 C2139 0.950 . S
C2133 C2131 1.387 . S
C2133 C2135 1.390 . S
C2133 H2137 0.950 . S
H2134 C2130 0.950 . S
C2135 C2133 1.390 . S
C2135 C2136 1.387 . S
C2135 H2138 0.950 . S
C2136 C2135 1.387 . S
C2136 C2139 1.387 . S
H2137 C2133 0.950 . S
H2138 C2135 0.950 . S
C2139 C2130 1.390 . S
C2139 H2132 0.950 . S
C2139 C2136 1.387 . S
C2140 C2141 1.387 . S
C2140 H2144 0.950 . S
C2140 C2149 1.390 . S
C2141 C2140 1.387 . S
C2141 C2143 1.387 . S
H2142 C2149 0.950 . S
C2143 C2141 1.387 . S
C2143 C2145 1.390 . S
C2143 H2147 0.950 . S
H2144 C2140 0.950 . S
C2145 C2143 1.390 . S
C2145 C2146 1.387 . S
C2145 H2148 0.950 . S
C2146 C2145 1.387 . S
C2146 C2149 1.387 . S
H2147 C2143 0.950 . S
H2148 C2145 0.950 . S
C2149 C2140 1.390 . S
C2149 H2142 0.950 . S
C2149 C2146 1.387 . S
C2150 C2151 1.387 . S
C2150 H2154 0.950 . S
C2150 C2159 1.390 . S
C2151 C2150 1.387 . S
C2151 C2153 1.387 . S
H2152 C2159 0.950 . S
C2153 C2151 1.387 . S
C2153 C2155 1.390 . S
C2153 H2157 0.950 . S
H2154 C2150 0.950 . S
C2155 C2153 1.390 . S
C2155 C2156 1.387 . S
C2155 H2158 0.950 . S
C2156 C2155 1.387 . S
C2156 C2159 1.387 . S
H2157 C2153 0.950 . S
H2158 C2155 0.950 . S
C2159 C2150 1.390 . S
C2159 H2152 0.950 . S
C2159 C2156 1.387 . S
C2160 C2161 1.387 . S
C2160 H2164 0.950 . S
C2160 C2169 1.390 . S
C2161 C2160 1.387 . S
C2161 C2163 1.387 . S
H2162 C2169 0.950 . S
C2163 C2161 1.387 . S
C2163 C2165 1.390 . S
C2163 H2167 0.950 . S
H2164 C2160 0.950 . S
C2165 C2163 1.390 . S
C2165 C2166 1.387 . S
C2165 H2168 0.950 . S
C2166 C2165 1.387 . S
C2166 C2169 1.387 . S
H2167 C2163 0.950 . S
H2168 C2165 0.950 . S
C2169 C2160 1.390 . S
C2169 H2162 0.950 . S
C2169 C2166 1.387 . S
C2170 C2171 1.387 . S
C2170 H2174 0.950 . S
C2170 C2179 1.390 . S
C2171 C2170 1.387 . S
C2171 C2173 1.387 . S
H2172 C2179 0.950 . S
C2173 C2171 1.387 . S
C2173 C2175 1.390 . S
C2173 H2177 0.950 1_565 S
H2174 C2170 0.950 . S
C2175 C2173 1.390 . S
C2175 C2176 1.387 . S
C2175 H2178 0.950 1_565 S
C2176 C2175 1.387 . S
C2176 C2179 1.387 . S
H2177 C2173 0.950 1_545 S
H2178 C2175 0.950 1_545 S
C2179 C2170 1.390 . S
C2179 H2172 0.950 . S
C2179 C2176 1.387 . S
C2180 C2181 1.387 . S
C2180 H2184 0.950 1_455 S
C2180 C2189 1.390 . S
C2181 C2180 1.387 . S
C2181 C2183 1.387 . S
H2182 C2189 0.950 1_655 S
C2183 C2181 1.387 . S
C2183 C2185 1.390 . S
C2183 H2187 0.950 . S
H2184 C2180 0.950 1_655 S
C2185 C2183 1.390 . S
C2185 C2186 1.387 . S
C2185 H2188 0.950 . S
C2186 C2185 1.387 . S
C2186 C2189 1.387 . S
H2187 C2183 0.950 . S
H2188 C2185 0.950 . S
C2189 C2180 1.390 . S
C2189 H2182 0.950 1_455 S
C2189 C2186 1.387 . S
C2190 C2191 1.387 . S
C2190 H2194 0.950 . S
C2190 C2199 1.390 . S
C2191 C2190 1.387 . S
C2191 C2193 1.387 . S
H2192 C2199 0.950 . S
C2193 C2191 1.387 . S
C2193 C2195 1.390 . S
C2193 H2197 0.950 . S
H2194 C2190 0.950 . S
C2195 C2193 1.390 . S
C2195 C2196 1.387 . S
C2195 H2198 0.950 . S
C2196 C2195 1.387 . S
C2196 C2199 1.387 . S
H2197 C2193 0.950 . S
H2198 C2195 0.950 . S
C2199 C2190 1.390 . S
C2199 H2192 0.950 . S
C2199 C2196 1.387 . S
C2200 C2201 1.387 . S
C2200 H2204 0.950 1_545 S
C2200 C2209 1.390 . S
C2201 C2200 1.387 . S
C2201 C2203 1.387 . S
H2202 C2209 0.950 1_565 S
C2203 C2201 1.387 . S
C2203 C2205 1.390 . S
C2203 H2207 0.950 . S
H2204 C2200 0.950 1_565 S
C2205 C2203 1.390 . S
C2205 C2206 1.387 . S
C2205 H2208 0.950 . S
C2206 C2205 1.387 . S
C2206 C2209 1.387 . S
H2207 C2203 0.950 . S
H2208 C2205 0.950 . S
C2209 C2200 1.390 . S
C2209 H2202 0.950 1_545 S
C2209 C2206 1.387 . S
C2210 C2211 1.387 . S
C2210 H2214 0.950 . S
C2210 C2219 1.390 . S
C2211 C2210 1.387 . S
C2211 C2213 1.387 . S
H2212 C2219 0.950 . S
C2213 C2211 1.387 . S
C2213 C2215 1.390 . S
C2213 H2217 0.950 . S
H2214 C2210 0.950 . S
C2215 C2213 1.390 . S
C2215 C2216 1.387 . S
C2215 H2218 0.950 1_655 S
C2216 C2215 1.387 . S
C2216 C2219 1.387 . S
H2217 C2213 0.950 . S
H2218 C2215 0.950 1_455 S
C2219 C2210 1.390 . S
C2219 H2212 0.950 . S
C2219 C2216 1.387 . S
C2220 C2221 1.387 . S
C2220 H2224 0.950 . S
C2220 C2229 1.390 . S
C2221 C2220 1.387 . S
C2221 C2223 1.387 . S
H2222 C2229 0.950 . S
C2223 C2221 1.387 . S
C2223 C2225 1.390 . S
C2223 H2227 0.950 . S
H2224 C2220 0.950 . S
C2225 C2223 1.390 . S
C2225 C2226 1.387 . S
C2225 H2228 0.950 . S
C2226 C2225 1.387 . S
C2226 C2229 1.387 . S
H2227 C2223 0.950 . S
H2228 C2225 0.950 . S
C2229 C2220 1.390 . S
C2229 H2222 0.950 . S
C2229 C2226 1.387 . S
C2230 C2231 1.387 . S
C2230 H2234 0.950 . S
C2230 C2239 1.390 . S
C2231 C2230 1.387 . S
C2231 C2233 1.387 . S
H2232 C2239 0.950 . S
C2233 C2231 1.387 . S
C2233 C2235 1.390 . S
C2233 H2237 0.950 1_545 S
H2234 C2230 0.950 . S
C2235 C2233 1.390 . S
C2235 C2236 1.387 . S
C2235 H2238 0.950 1_545 S
C2236 C2235 1.387 . S
C2236 C2239 1.387 . S
H2237 C2233 0.950 1_565 S
H2238 C2235 0.950 1_565 S
C2239 C2230 1.390 . S
C2239 H2232 0.950 . S
C2239 C2236 1.387 . S
C2240 C2241 1.387 . S
C2240 H2244 0.950 . S
C2240 C2249 1.390 . S
C2241 C2240 1.387 . S
C2241 C2243 1.387 . S
H2242 C2249 0.950 . S
C2243 C2241 1.387 . S
C2243 C2245 1.390 . S
C2243 H2247 0.950 . S
H2244 C2240 0.950 . S
C2245 C2243 1.390 . S
C2245 C2246 1.387 . S
C2245 H2248 0.949 1_655 S
C2246 C2245 1.387 . S
C2246 C2249 1.387 . S
H2247 C2243 0.950 . S
H2248 C2245 0.949 1_455 S
C2249 C2240 1.390 . S
C2249 H2242 0.950 . S
C2249 C2246 1.387 . S
C2250 C2251 1.387 . S
C2250 H2254 0.950 . S
C2250 C2259 1.390 . S
C2251 C2250 1.387 . S
C2251 C2253 1.387 . S
H2252 C2259 0.950 . S
C2253 C2251 1.387 . S
C2253 C2255 1.390 . S
C2253 H2257 0.950 . S
H2254 C2250 0.950 . S
C2255 C2253 1.390 . S
C2255 C2256 1.387 . S
C2255 H2258 0.950 . S
C2256 C2255 1.387 . S
C2256 C2259 1.387 . S
H2257 C2253 0.950 . S
H2258 C2255 0.950 . S
C2259 C2250 1.390 . S
C2259 H2252 0.950 . S
C2259 C2256 1.387 . S
C2260 C2261 1.387 . S
C2260 H2264 0.950 1_565 S
C2260 C2269 1.390 . S
C2261 C2260 1.387 . S
C2261 C2263 1.387 . S
H2262 C2269 0.950 1_545 S
C2263 C2261 1.387 . S
C2263 C2265 1.390 . S
C2263 H2267 0.950 . S
H2264 C2260 0.950 1_545 S
C2265 C2263 1.390 . S
C2265 C2266 1.387 . S
C2265 H2268 0.950 . S
C2266 C2265 1.387 . S
C2266 C2269 1.387 . S
H2267 C2263 0.950 . S
H2268 C2265 0.950 . S
C2269 C2260 1.390 . S
C2269 H2262 0.950 1_565 S
C2269 C2266 1.387 . S
C2270 C2271 1.387 . S
C2270 H2274 0.950 . S
C2270 C2279 1.390 . S
C2271 C2270 1.387 . S
C2271 C2273 1.387 . S
H2272 C2279 0.950 . S
C2273 C2271 1.387 . S
C2273 C2275 1.390 . S
C2273 H2277 0.950 1_455 S
H2274 C2270 0.950 . S
C2275 C2273 1.390 . S
C2275 C2276 1.387 . S
C2275 H2278 0.951 1_455 S
C2276 C2275 1.387 . S
C2276 C2279 1.387 . S
H2277 C2273 0.950 1_655 S
H2278 C2275 0.951 1_655 S
C2279 C2270 1.390 . S
C2279 H2272 0.950 . S
C2279 C2276 1.387 . S
C2280 C2281 1.387 . S
C2280 H2284 0.950 . S
C2280 C2289 1.390 . S
C2281 C2280 1.387 . S
C2281 C2283 1.387 1_455 S
H2282 C2289 0.950 . S
C2283 C2281 1.387 1_655 S
C2283 C2285 1.390 . S
C2283 H2287 0.950 . S
H2284 C2280 0.950 . S
C2285 C2283 1.390 . S
C2285 C2286 1.387 . S
C2285 H2288 0.950 . S
C2286 C2285 1.387 . S
C2286 C2289 1.387 1_655 S
H2287 C2283 0.950 . S
H2288 C2285 0.950 . S
C2289 C2280 1.390 . S
C2289 H2282 0.950 . S
C2289 C2286 1.387 1_455 S
C2290 C2291 1.387 . S
C2290 H2294 0.950 . S
C2290 C2299 1.390 . S
C2291 C2290 1.387 . S
C2291 C2293 1.387 . S
H2292 C2299 0.950 . S
C2293 C2291 1.387 . S
C2293 C2295 1.390 . S
C2293 H2297 0.950 . S
H2294 C2290 0.950 . S
C2295 C2293 1.390 . S
C2295 C2296 1.387 . S
C2295 H2298 0.950 . S
C2296 C2295 1.387 . S
C2296 C2299 1.387 . S
H2297 C2293 0.950 . S
H2298 C2295 0.950 . S
C2299 C2290 1.390 . S
C2299 H2292 0.950 . S
C2299 C2296 1.387 . S
C2300 C2301 1.387 . S
C2300 H2304 0.950 . S
C2300 C2309 1.392 . S
C2301 C2300 1.387 . S
C2301 C2303 1.387 . S
H2302 C2309 0.940 1_545 S
C2303 C2301 1.387 . S
C2303 C2305 1.390 . S
C2303 H2307 0.950 . S
H2304 C2300 0.950 . S
C2305 C2303 1.390 . S
C2305 C2306 1.387 1_565 S
C2305 H2308 0.953 1_565 S
C2306 C2305 1.387 1_545 S
C2306 C2309 1.395 1_545 S
H2307 C2303 0.950 . S
H2308 C2305 0.953 1_545 S
C2309 C2300 1.392 . S
C2309 H2302 0.940 1_565 S
C2309 C2306 1.395 1_565 S
C2310 C2311 1.387 1_545 S
C2310 H2314 0.956 1_545 S
C2310 C2319 1.390 . S
C2311 C2310 1.387 1_565 S
C2311 C2313 1.397 1_565 S
H2312 C2319 0.950 . S
C2313 C2311 1.397 1_545 S
C2313 C2315 1.393 . S
C2313 H2317 0.938 1_545 S
H2314 C2310 0.956 1_565 S
C2315 C2313 1.393 . S
C2315 C2316 1.387 . S
C2315 H2318 0.950 . S
C2316 C2315 1.387 . S
C2316 C2319 1.387 . S
H2317 C2313 0.938 1_565 S
H2318 C2315 0.950 . S
C2319 C2310 1.390 . S
C2319 H2312 0.950 . S
C2319 C2316 1.387 . S
C2320 C2321 1.387 1_455 S
C2320 H2324 0.950 . S
C2320 C2329 1.390 . S
C2321 C2320 1.387 1_655 S
C2321 C2323 1.387 . S
H2322 C2329 0.950 . S
C2323 C2321 1.387 . S
C2323 C2325 1.390 . S
C2323 H2327 0.950 . S
H2324 C2320 0.950 . S
C2325 C2323 1.390 . S
C2325 C2326 1.387 1_655 S
C2325 H2328 0.950 . S
C2326 C2325 1.387 1_455 S
C2326 C2329 1.387 . S
H2327 C2323 0.950 . S
H2328 C2325 0.950 . S
C2329 C2320 1.390 . S
C2329 H2322 0.950 . S
C2329 C2326 1.387 . S
C2330 C2331 1.387 . S
C2330 H2334 0.950 . S
C2330 C2339 1.390 . S
C2331 C2330 1.387 . S
C2331 C2333 1.387 . S
H2332 C2339 0.950 . S
C2333 C2331 1.387 . S
C2333 C2335 1.390 . S
C2333 H2337 0.950 . S
H2334 C2330 0.950 . S
C2335 C2333 1.390 . S
C2335 C2336 1.387 . S
C2335 H2338 0.950 . S
C2336 C2335 1.387 . S
C2336 C2339 1.387 . S
H2337 C2333 0.950 . S
H2338 C2335 0.950 . S
C2339 C2330 1.390 . S
C2339 H2332 0.950 . S
C2339 C2336 1.387 . S
C2340 C2341 1.387 1_455 S
C2340 H2344 0.950 . S
C2340 C2349 1.390 . S
C2341 C2340 1.387 1_655 S
C2341 C2343 1.387 . S
H2342 C2349 0.950 . S
C2343 C2341 1.387 . S
C2343 C2345 1.390 . S
C2343 H2347 0.950 . S
H2344 C2340 0.950 . S
C2345 C2343 1.390 . S
C2345 C2346 1.387 1_655 S
C2345 H2348 0.950 . S
C2346 C2345 1.387 1_455 S
C2346 C2349 1.387 . S
H2347 C2343 0.950 . S
H2348 C2345 0.950 . S
C2349 C2340 1.390 . S
C2349 H2342 0.950 . S
C2349 C2346 1.387 . S
C2350 C2351 1.387 . S
C2350 H2354 0.950 . S
C2350 C2359 1.390 . S
C2351 C2350 1.387 . S
C2351 C2353 1.387 . S
H2352 C2359 0.950 . S
C2353 C2351 1.387 . S
C2353 C2355 1.390 . S
C2353 H2357 0.950 . S
H2354 C2350 0.950 . S
C2355 C2353 1.390 . S
C2355 C2356 1.387 . S
C2355 H2358 0.950 . S
C2356 C2355 1.387 . S
C2356 C2359 1.387 . S
H2357 C2353 0.950 . S
H2358 C2355 0.950 . S
C2359 C2350 1.390 . S
C2359 H2352 0.950 . S
C2359 C2356 1.387 . S
C2360 C2361 1.387 . S
C2360 H2364 0.950 . S
C2360 C2369 1.390 1_545 S
C2361 C2360 1.387 . S
C2361 C2363 1.387 . S
H2362 C2369 0.950 . S
C2363 C2361 1.387 . S
C2363 C2365 1.390 1_545 S
C2363 H2367 0.950 . S
H2364 C2360 0.950 . S
C2365 C2363 1.390 1_565 S
C2365 C2366 1.387 . S
C2365 H2368 0.950 . S
C2366 C2365 1.387 . S
C2366 C2369 1.387 . S
H2367 C2363 0.950 . S
H2368 C2365 0.950 . S
C2369 C2360 1.390 1_565 S
C2369 H2362 0.950 . S
C2369 C2366 1.387 . S
C2370 C2371 1.387 1_455 S
C2370 H2374 0.950 . S
C2370 C2379 1.390 . S
C2371 C2370 1.387 1_655 S
C2371 C2373 1.387 . S
H2372 C2379 0.950 . S
C2373 C2371 1.387 . S
C2373 C2375 1.390 . S
C2373 H2377 0.950 . S
H2374 C2370 0.950 . S
C2375 C2373 1.390 . S
C2375 C2376 1.387 1_655 S
C2375 H2378 0.950 . S
C2376 C2375 1.387 1_455 S
C2376 C2379 1.387 . S
H2377 C2373 0.950 . S
H2378 C2375 0.950 . S
C2379 C2370 1.390 . S
C2379 H2372 0.950 . S
C2379 C2376 1.387 . S
C2380 C2381 1.387 . S
C2380 H2384 0.950 . S
C2380 C2389 1.390 . S
C2381 C2380 1.387 . S
C2381 C2383 1.387 . S
H2382 C2389 0.950 . S
C2383 C2381 1.387 . S
C2383 C2385 1.390 . S
C2383 H2387 0.950 . S
H2384 C2380 0.950 . S
C2385 C2383 1.390 . S
C2385 C2386 1.387 . S
C2385 H2388 0.950 . S
C2386 C2385 1.387 . S
C2386 C2389 1.387 . S
H2387 C2383 0.950 . S
H2388 C2385 0.950 . S
C2389 C2380 1.390 . S
C2389 H2382 0.950 . S
C2389 C2386 1.387 . S
C2390 C2391 1.387 . S
C2390 H2394 0.950 . S
C2390 C2399 1.390 1_545 S
C2391 C2390 1.387 . S
C2391 C2393 1.387 . S
H2392 C2399 0.950 . S
C2393 C2391 1.387 . S
C2393 C2395 1.390 1_545 S
C2393 H2397 0.950 . S
H2394 C2390 0.950 . S
C2395 C2393 1.390 1_565 S
C2395 C2396 1.387 . S
C2395 H2398 0.950 . S
C2396 C2395 1.387 . S
C2396 C2399 1.387 . S
H2397 C2393 0.950 . S
H2398 C2395 0.950 . S
C2399 C2390 1.390 1_565 S
C2399 H2392 0.950 . S
C2399 C2396 1.387 . S
C2400 C2401 1.387 . S
C2400 H2404 0.950 . S
C2400 C2409 1.390 . S
C2401 C2400 1.387 . S
C2401 C2403 1.387 . S
H2402 C2409 0.950 . S
C2403 C2401 1.387 . S
C2403 C2405 1.390 . S
C2403 H2407 0.950 . S
H2404 C2400 0.950 . S
C2405 C2403 1.390 . S
C2405 C2406 1.387 . S
C2405 H2408 0.950 . S
C2406 C2405 1.387 . S
C2406 C2409 1.387 . S
H2407 C2403 0.950 . S
H2408 C2405 0.950 . S
C2409 C2400 1.390 . S
C2409 H2402 0.950 . S
C2409 C2406 1.387 . S
C2410 C2411 1.387 . S
C2410 H2414 0.950 . S
C2410 C2419 1.390 . S
C2411 C2410 1.387 . S
C2411 C2413 1.387 . S
H2412 C2419 0.950 . S
C2413 C2411 1.387 . S
C2413 C2415 1.390 . S
C2413 H2417 0.950 . S
H2414 C2410 0.950 . S
C2415 C2413 1.390 . S
C2415 C2416 1.387 . S
C2415 H2418 0.950 . S
C2416 C2415 1.387 . S
C2416 C2419 1.387 . S
H2417 C2413 0.950 . S
H2418 C2415 0.950 . S
C2419 C2410 1.390 . S
C2419 H2412 0.950 . S
C2419 C2416 1.387 . S
C2420 C2421 1.387 . S
C2420 H2424 0.950 . S
C2420 C2429 1.390 . S
C2421 C2420 1.387 . S
C2421 C2423 1.387 . S
H2422 C2429 0.950 . S
C2423 C2421 1.387 . S
C2423 C2425 1.390 . S
C2423 H2427 0.950 . S
H2424 C2420 0.950 . S
C2425 C2423 1.390 . S
C2425 C2426 1.387 . S
C2425 H2428 0.950 . S
C2426 C2425 1.387 . S
C2426 C2429 1.387 . S
H2427 C2423 0.950 . S
H2428 C2425 0.950 . S
C2429 C2420 1.390 . S
C2429 H2422 0.950 . S
C2429 C2426 1.387 . S
C2430 C2431 1.387 . S
C2430 H2434 0.950 . S
C2430 C2439 1.390 . S
C2431 C2430 1.387 . S
C2431 C2433 1.387 . S
H2432 C2439 0.950 . S
C2433 C2431 1.387 . S
C2433 C2435 1.390 . S
C2433 H2437 0.950 . S
H2434 C2430 0.950 . S
C2435 C2433 1.390 . S
C2435 C2436 1.387 . S
C2435 H2438 0.950 . S
C2436 C2435 1.387 . S
C2436 C2439 1.387 . S
H2437 C2433 0.950 . S
H2438 C2435 0.950 . S
C2439 C2430 1.390 . S
C2439 H2432 0.950 . S
C2439 C2436 1.387 . S
C2440 C2441 1.387 . S
C2440 H2444 0.950 . S
C2440 C2449 1.390 . S
C2441 C2440 1.387 . S
C2441 C2443 1.387 . S
H2442 C2449 0.950 . S
C2443 C2441 1.387 . S
C2443 C2445 1.390 . S
C2443 H2447 0.950 . S
H2444 C2440 0.950 . S
C2445 C2443 1.390 . S
C2445 C2446 1.387 . S
C2445 H2448 0.950 . S
C2446 C2445 1.387 . S
C2446 C2449 1.387 . S
H2447 C2443 0.950 . S
H2448 C2445 0.950 . S
C2449 C2440 1.390 . S
C2449 H2442 0.950 . S
C2449 C2446 1.387 . S
C2450 C2451 1.387 . S
C2450 H2454 0.950 . S
C2450 C2459 1.390 . S
C2451 C2450 1.387 . S
C2451 C2453 1.387 . S
H2452 C2459 0.950 . S
C2453 C2451 1.387 . S
C2453 C2455 1.390 . S
C2453 H2457 0.950 . S
H2454 C2450 0.950 . S
C2455 C2453 1.390 . S
C2455 C2456 1.387 . S
C2455 H2458 0.950 . S
C2456 C2455 1.387 . S
C2456 C2459 1.387 . S
H2457 C2453 0.950 . S
H2458 C2455 0.950 . S
C2459 C2450 1.390 . S
C2459 H2452 0.950 . S
C2459 C2456 1.387 . S
C2460 C2461 1.387 . S
C2460 H2464 0.950 . S
C2460 C2469 1.390 . S
C2461 C2460 1.387 . S
C2461 C2463 1.387 . S
H2462 C2469 0.950 . S
C2463 C2461 1.387 . S
C2463 C2465 1.390 . S
C2463 H2467 0.950 . S
H2464 C2460 0.950 . S
C2465 C2463 1.390 . S
C2465 C2466 1.387 . S
C2465 H2468 0.950 . S
C2466 C2465 1.387 . S
C2466 C2469 1.387 . S
H2467 C2463 0.950 . S
H2468 C2465 0.950 . S
C2469 C2460 1.390 . S
C2469 H2462 0.950 . S
C2469 C2466 1.387 . S
C2470 C2471 1.387 . S
C2470 H2474 0.950 . S
C2470 C2479 1.390 . S
C2471 C2470 1.387 . S
C2471 C2473 1.387 . S
H2472 C2479 0.950 . S
C2473 C2471 1.387 . S
C2473 C2475 1.390 . S
C2473 H2477 0.950 . S
H2474 C2470 0.950 . S
C2475 C2473 1.390 . S
C2475 C2476 1.387 . S
C2475 H2478 0.950 . S
C2476 C2475 1.387 . S
C2476 C2479 1.387 . S
H2477 C2473 0.950 . S
H2478 C2475 0.950 . S
C2479 C2470 1.390 . S
C2479 H2472 0.950 . S
C2479 C2476 1.387 . S
C2480 C2481 1.387 . S
C2480 H2484 0.950 . S
C2480 C2489 1.390 . S
C2481 C2480 1.387 . S
C2481 C2483 1.387 . S
H2482 C2489 0.950 . S
C2483 C2481 1.387 . S
C2483 C2485 1.390 . S
C2483 H2487 0.950 . S
H2484 C2480 0.950 . S
C2485 C2483 1.390 . S
C2485 C2486 1.387 . S
C2485 H2488 0.950 . S
C2486 C2485 1.387 . S
C2486 C2489 1.387 . S
H2487 C2483 0.950 . S
H2488 C2485 0.950 . S
C2489 C2480 1.390 . S
C2489 H2482 0.950 . S
C2489 C2486 1.387 . S
C2490 C2491 1.387 . S
C2490 H2494 0.950 . S
C2490 C2499 1.390 . S
C2491 C2490 1.387 . S
C2491 C2493 1.387 . S
H2492 C2499 0.950 . S
C2493 C2491 1.387 . S
C2493 C2495 1.390 . S
C2493 H2497 0.950 . S
H2494 C2490 0.950 . S
C2495 C2493 1.390 . S
C2495 C2496 1.387 . S
C2495 H2498 0.950 . S
C2496 C2495 1.387 . S
C2496 C2499 1.387 . S
H2497 C2493 0.950 . S
H2498 C2495 0.950 . S
C2499 C2490 1.390 . S
C2499 H2492 0.950 . S
C2499 C2496 1.387 . S
C2500 C2501 1.387 . S
C2500 H2504 0.950 . S
C2500 C2509 1.390 . S
C2501 C2500 1.387 . S
C2501 C2503 1.387 . S
H2502 C2509 0.950 . S
C2503 C2501 1.387 . S
C2503 C2505 1.390 . S
C2503 H2507 0.950 . S
H2504 C2500 0.950 . S
C2505 C2503 1.390 . S
C2505 C2506 1.387 . S
C2505 H2508 0.950 . S
C2506 C2505 1.387 . S
C2506 C2509 1.387 . S
H2507 C2503 0.950 . S
H2508 C2505 0.950 . S
C2509 C2500 1.390 . S
C2509 H2502 0.950 . S
C2509 C2506 1.387 . S
C2510 C2511 1.387 . S
C2510 H2514 0.950 . S
C2510 C2519 1.390 . S
C2511 C2510 1.387 . S
C2511 C2513 1.387 . S
H2512 C2519 0.950 . S
C2513 C2511 1.387 . S
C2513 C2515 1.390 . S
C2513 H2517 0.950 . S
H2514 C2510 0.950 . S
C2515 C2513 1.390 . S
C2515 C2516 1.387 . S
C2515 H2518 0.950 . S
C2516 C2515 1.387 . S
C2516 C2519 1.387 . S
H2517 C2513 0.950 . S
H2518 C2515 0.950 . S
C2519 C2510 1.390 . S
C2519 H2512 0.950 . S
C2519 C2516 1.387 . S
C1441 C9 1.780 . S
C1446 C99 1.844 1_545 S
C1451 C19 1.842 1_655 S
C1456 C49 1.776 1_545 S
C1461 C89 1.776 1_655 S
C1466 C59 1.842 . S
C1471 C129 1.844 . S
C1476 C179 1.908 1_455 S
C1481 C219 1.906 . S
C1486 C169 1.844 1_565 S
C1491 C209 1.843 1_455 S
C1496 C139 1.906 1_565 S
C1501 C258 1.777 . S
C1506 C330 1.843 1_565 S
C1511 C298 1.779 1_565 S
C1516 C250 1.843 1_455 S
C1521 C338 1.777 1_455 S
C1526 C290 1.842 . S
C1531 C378 1.842 . S
C1536 C410 1.906 1_655 S
C1541 C450 1.908 . S
C1546 C418 1.843 1_545 S
C1551 C370 1.906 1_545 S
C1556 C458 1.841 1_655 S
C1561 C579 1.897 . S
C1566 C489 1.831 . S
C1571 C529 1.833 . S
C1576 C499 1.897 . S
C1581 C539 1.899 . S
C1586 C569 1.832 . S
C1591 C609 1.857 . S
C1596 C659 1.921 . S
C1601 C699 1.921 . S
C1606 C649 1.857 . S
C1611 C619 1.920 . S
C1616 C689 1.856 . S
C1621 C738 1.805 . S
C1626 C810 1.868 . S
C1631 C778 1.802 . S
C1636 C730 1.867 . S
C1641 C770 1.869 . S
C1646 C818 1.805 . S
C1651 C890 1.772 . S
C1656 C858 1.721 1_554 S
C1661 C898 1.722 1_554 S
C1666 C930 1.772 . S
C1671 C850 1.771 . S
C1676 C938 1.719 1_554 S
C1681 C969 1.804 . S
C1686 C1059 1.866 . S
C1691 C1009 1.805 . S
C1696 C979 1.868 . S
C1701 C1049 1.804 . S
C1706 C1019 1.869 . S
C1711 C1089 1.721 1_556 S
C1716 C1139 1.772 . S
C1721 C1129 1.722 1_556 S
C1726 C1179 1.772 . S
C1731 C1169 1.719 1_556 S
C1736 C1099 1.770 . S
C1741 C1218 1.832 . S
C1746 C1290 1.896 . S
C1751 C1258 1.831 . S
C1756 C1210 1.896 . S
C1761 C1250 1.898 . S
C1766 C1298 1.833 . S
C1771 C1338 1.857 . S
C1776 C1370 1.921 . S
C1781 C1378 1.859 . S
C1786 C1410 1.922 . S
C1791 C1330 1.922 . S
C1796 C1418 1.858 . S
C1801 C10 1.865 . S
C1806 C809 1.834 . S
C1811 C729 1.836 1_565 S
C1816 C50 1.867 . S
C1821 C90 1.866 . S
C1826 C769 1.833 1_455 S
C1831 C130 1.784 . S
C1836 C1369 1.745 . S
C1841 C1409 1.743 1_545 S
C1846 C170 1.785 . S
C1851 C210 1.786 . S
C1856 C1329 1.743 1_655 S
C1861 C1058 1.834 . S
C1866 C259 1.865 . S
C1871 C299 1.867 . S
C1876 C978 1.836 1_545 S
C1881 C339 1.867 . S
C1886 C1018 1.833 1_655 S
C1891 C658 1.744 . S
C1896 C379 1.784 . S
C1901 C698 1.744 1_565 S
C1906 C419 1.784 . S
C1911 C618 1.744 1_455 S
C1916 C459 1.787 . S
C1921 C490 1.828 . S
C1926 C1289 1.790 . S
C1931 C530 1.826 . S
C1936 C1209 1.791 . S
C1941 C1249 1.789 . S
C1946 C570 1.826 . S
C1951 C409 1.780 . S
C1956 C610 1.820 1_455 S
C1961 C449 1.781 . S
C1966 C650 1.818 . S
C1971 C369 1.783 . S
C1976 C690 1.820 1_565 S
C1981 C98 1.831 . S
C1986 C739 1.862 1_565 S
C1991 C779 1.862 1_455 S
C1996 C18 1.831 . S
C2001 C819 1.861 . S
C2006 C58 1.833 . S
C2011 C1138 1.802 . S
C2016 C859 1.845 . S
C2021 C1178 1.804 . S
C2026 C899 1.844 . S
C2031 C939 1.847 . S
C2036 C1098 1.804 . S
C2041 C329 1.832 . S
C2046 C970 1.860 1_545 S
C2051 C249 1.833 . S
C2056 C1010 1.861 1_655 S
C2061 C289 1.831 . S
C2066 C1050 1.862 . S
C2071 C1090 1.845 . S
C2076 C889 1.802 . S
C2081 C929 1.803 . S
C2086 C1130 1.844 . S
C2091 C1170 1.846 . S
C2096 C849 1.805 . S
C2101 C1219 1.828 . S
C2106 C578 1.790 . S
C2111 C1259 1.826 . S
C2116 C498 1.791 . S
C2121 C1299 1.826 . S
C2126 C538 1.791 . S
C2131 C1339 1.820 1_655 S
C2136 C178 1.780 . S
C2141 C218 1.782 . S
C2146 C1379 1.818 . S
C2151 C138 1.783 . S
C2156 C1419 1.820 1_545 S
C2161 C1166 2.264 . S
C2166 C6 2.257 . S
C2171 C1086 2.264 . S
C2176 C46 2.255 . S
C2181 C86 2.271 . S
C2186 C1126 2.252 . S
C2191 C526 2.431 . S
C2196 C126 2.428 . S
C2201 C166 2.430 . S
C2206 C566 2.432 . S
C2211 C206 2.428 . S
C2216 C486 2.430 . S
C2221 C255 2.269 . S
C2226 C935 2.252 . S
C2231 C295 2.271 . S
C2236 C855 2.252 . S
C2241 C335 2.271 . S
C2246 C895 2.252 . S
C2251 C1255 2.430 . S
C2256 C375 2.429 . S
C2261 C1295 2.430 . S
C2266 C415 2.428 . S
C2271 C1215 2.432 . S
C2276 C455 2.429 . S
C2281 C606 2.462 . S
C2286 C1006 2.467 . S
C2291 C646 2.463 . S
C2296 C1046 2.466 . S
C2301 C686 2.461 . S
C2306 C966 2.465 . S
C2311 C735 2.465 . S
C2316 C1415 2.461 . S
C2321 C1335 2.462 . S
C2326 C775 2.467 . S
C2331 C815 2.465 . S
C2336 C1375 2.461 . S
C2341 C175 1.244 . S
C2346 C15 1.246 . S
C2351 C215 1.246 . S
C2356 C55 1.246 . S
C2361 C135 1.245 . S
C2366 C95 1.247 . S
C2371 C246 1.246 . S
C2376 C406 1.244 . S
C2381 C446 1.244 . S
C2386 C286 1.246 . S
C2391 C326 1.246 . S
C2396 C366 1.244 . S
C2401 C655 1.309 . S
C2406 C495 1.311 . S
C2411 C695 1.309 . S
C2416 C535 1.310 . S
C2421 C615 1.310 . S
C2426 C575 1.311 . S
C2431 C886 1.529 . S
C2436 C726 1.561 . S
C2441 C766 1.549 . S
C2446 C926 1.543 . S
C2451 C806 1.548 . S
C2456 C846 1.542 . S
C2461 C975 1.548 . S
C2466 C1135 1.542 . S
C2471 C1175 1.530 . S
C2476 C1015 1.562 . S
C2481 C1055 1.548 . S
C2486 C1095 1.542 . S
C2491 C1206 1.310 . S
C2496 C1366 1.309 . S
C2501 C1406 1.309 . S
C2506 C1246 1.310 . S
C2511 C1286 1.311 . S
C2516 C1326 1.310 . S
