# Generated by pormake.
# Topology lcs, (4)-cn, num edge types: 1
# Building blocks:
#     Node 0, Type 0, BuildingBlock: UXUYUI_clean_sbu_0, # of connection points: 4
#     Node 1, Type 0, BuildingBlock: UXUYUI_clean_sbu_0, # of connection points: 4
#     Node 2, Type 0, BuildingBlock: UXUYUI_clean_sbu_0, # of connection points: 4
#     Node 3, Type 0, BuildingBlock: UXUYUI_clean_sbu_0, # of connection points: 4
#     Node 4, Type 0, BuildingBlock: UXUYUI_clean_sbu_0, # of connection points: 4
#     Node 5, Type 0, BuildingBlock: UXUYUI_clean_sbu_0, # of connection points: 4
#     Node 6, Type 0, BuildingBlock: UXUYUI_clean_sbu_0, # of connection points: 4
#     Node 7, Type 0, BuildingBlock: UXUYUI_clean_sbu_0, # of connection points: 4
#     Node 8, Type 0, BuildingBlock: UXUYUI_clean_sbu_0, # of connection points: 4
#     Node 9, Type 0, BuildingBlock: UXUYUI_clean_sbu_0, # of connection points: 4
#     Node 10, Type 0, BuildingBlock: UXUYUI_clean_sbu_0, # of connection points: 4
#     Node 11, Type 0, BuildingBlock: UXUYUI_clean_sbu_0, # of connection points: 4
#     Node 12, Type 0, BuildingBlock: UXUYUI_clean_sbu_0, # of connection points: 4
#     Node 13, Type 0, BuildingBlock: UXUYUI_clean_sbu_0, # of connection points: 4
#     Node 14, Type 0, BuildingBlock: UXUYUI_clean_sbu_0, # of connection points: 4
#     Node 15, Type 0, BuildingBlock: UXUYUI_clean_sbu_0, # of connection points: 4
#     Node 16, Type 0, BuildingBlock: UXUYUI_clean_sbu_0, # of connection points: 4
#     Node 17, Type 0, BuildingBlock: UXUYUI_clean_sbu_0, # of connection points: 4
#     Node 18, Type 0, BuildingBlock: UXUYUI_clean_sbu_0, # of connection points: 4
#     Node 19, Type 0, BuildingBlock: UXUYUI_clean_sbu_0, # of connection points: 4
#     Node 20, Type 0, BuildingBlock: UXUYUI_clean_sbu_0, # of connection points: 4
#     Node 21, Type 0, BuildingBlock: UXUYUI_clean_sbu_0, # of connection points: 4
#     Node 22, Type 0, BuildingBlock: UXUYUI_clean_sbu_0, # of connection points: 4
#     Node 23, Type 0, BuildingBlock: UXUYUI_clean_sbu_0, # of connection points: 4
#     Edge 24, Type (0, 0), BuildingBlock: XUDNAN_clean_linker_2, # of connection points: 2
#     Edge 25, Type (0, 0), BuildingBlock: XUDNAN_clean_linker_2, # of connection points: 2
#     Edge 26, Type (0, 0), BuildingBlock: XUDNAN_clean_linker_2, # of connection points: 2
#     Edge 27, Type (0, 0), BuildingBlock: XUDNAN_clean_linker_2, # of connection points: 2
#     Edge 28, Type (0, 0), BuildingBlock: XUDNAN_clean_linker_2, # of connection points: 2
#     Edge 29, Type (0, 0), BuildingBlock: XUDNAN_clean_linker_2, # of connection points: 2
#     Edge 30, Type (0, 0), BuildingBlock: XUDNAN_clean_linker_2, # of connection points: 2
#     Edge 31, Type (0, 0), BuildingBlock: XUDNAN_clean_linker_2, # of connection points: 2
#     Edge 32, Type (0, 0), BuildingBlock: XUDNAN_clean_linker_2, # of connection points: 2
#     Edge 33, Type (0, 0), BuildingBlock: XUDNAN_clean_linker_2, # of connection points: 2
#     Edge 34, Type (0, 0), BuildingBlock: XUDNAN_clean_linker_2, # of connection points: 2
#     Edge 35, Type (0, 0), BuildingBlock: XUDNAN_clean_linker_2, # of connection points: 2
#     Edge 36, Type (0, 0), BuildingBlock: XUDNAN_clean_linker_2, # of connection points: 2
#     Edge 37, Type (0, 0), BuildingBlock: XUDNAN_clean_linker_2, # of connection points: 2
#     Edge 38, Type (0, 0), BuildingBlock: XUDNAN_clean_linker_2, # of connection points: 2
#     Edge 39, Type (0, 0), BuildingBlock: XUDNAN_clean_linker_2, # of connection points: 2
#     Edge 40, Type (0, 0), BuildingBlock: XUDNAN_clean_linker_2, # of connection points: 2
#     Edge 41, Type (0, 0), BuildingBlock: XUDNAN_clean_linker_2, # of connection points: 2
#     Edge 42, Type (0, 0), BuildingBlock: XUDNAN_clean_linker_2, # of connection points: 2
#     Edge 43, Type (0, 0), BuildingBlock: XUDNAN_clean_linker_2, # of connection points: 2
#     Edge 44, Type (0, 0), BuildingBlock: XUDNAN_clean_linker_2, # of connection points: 2
#     Edge 45, Type (0, 0), BuildingBlock: XUDNAN_clean_linker_2, # of connection points: 2
#     Edge 46, Type (0, 0), BuildingBlock: XUDNAN_clean_linker_2, # of connection points: 2
#     Edge 47, Type (0, 0), BuildingBlock: XUDNAN_clean_linker_2, # of connection points: 2
#     Edge 48, Type (0, 0), BuildingBlock: XUDNAN_clean_linker_2, # of connection points: 2
#     Edge 49, Type (0, 0), BuildingBlock: XUDNAN_clean_linker_2, # of connection points: 2
#     Edge 50, Type (0, 0), BuildingBlock: XUDNAN_clean_linker_2, # of connection points: 2
#     Edge 51, Type (0, 0), BuildingBlock: XUDNAN_clean_linker_2, # of connection points: 2
#     Edge 52, Type (0, 0), BuildingBlock: XUDNAN_clean_linker_2, # of connection points: 2
#     Edge 53, Type (0, 0), BuildingBlock: XUDNAN_clean_linker_2, # of connection points: 2
#     Edge 54, Type (0, 0), BuildingBlock: XUDNAN_clean_linker_2, # of connection points: 2
#     Edge 55, Type (0, 0), BuildingBlock: XUDNAN_clean_linker_2, # of connection points: 2
#     Edge 56, Type (0, 0), BuildingBlock: XUDNAN_clean_linker_2, # of connection points: 2
#     Edge 57, Type (0, 0), BuildingBlock: XUDNAN_clean_linker_2, # of connection points: 2
#     Edge 58, Type (0, 0), BuildingBlock: XUDNAN_clean_linker_2, # of connection points: 2
#     Edge 59, Type (0, 0), BuildingBlock: XUDNAN_clean_linker_2, # of connection points: 2
#     Edge 60, Type (0, 0), BuildingBlock: XUDNAN_clean_linker_2, # of connection points: 2
#     Edge 61, Type (0, 0), BuildingBlock: XUDNAN_clean_linker_2, # of connection points: 2
#     Edge 62, Type (0, 0), BuildingBlock: XUDNAN_clean_linker_2, # of connection points: 2
#     Edge 63, Type (0, 0), BuildingBlock: XUDNAN_clean_linker_2, # of connection points: 2
#     Edge 64, Type (0, 0), BuildingBlock: XUDNAN_clean_linker_2, # of connection points: 2
#     Edge 65, Type (0, 0), BuildingBlock: XUDNAN_clean_linker_2, # of connection points: 2
#     Edge 66, Type (0, 0), BuildingBlock: XUDNAN_clean_linker_2, # of connection points: 2
#     Edge 67, Type (0, 0), BuildingBlock: XUDNAN_clean_linker_2, # of connection points: 2
#     Edge 68, Type (0, 0), BuildingBlock: XUDNAN_clean_linker_2, # of connection points: 2
#     Edge 69, Type (0, 0), BuildingBlock: XUDNAN_clean_linker_2, # of connection points: 2
#     Edge 70, Type (0, 0), BuildingBlock: XUDNAN_clean_linker_2, # of connection points: 2
#     Edge 71, Type (0, 0), BuildingBlock: XUDNAN_clean_linker_2, # of connection points: 2
# Relax obj value: 0.148
# Max RMSD: 0.190
# Mean RMSD: 0.190
data_MOF--net-lcs--node1-UXUYUI_clean_sbu_0--edge1-XUDNAN_clean_linker_2
_symmetry_space_group_name_H-M    P1
_symmetry_Int_Tables_number       1
_symmetry_cell_setting            triclinic
loop_
_symmetry_equiv_pos_as_xyz
'x, y, z'
_cell_length_a     71.736043
_cell_length_b     71.757576
_cell_length_c     71.765224
_cell_angle_alpha  90.003652
_cell_angle_beta   90.000681
_cell_angle_gamma 90.003538
loop_
_atom_site_label
_atom_site_type_symbol
_atom_site_fract_x
_atom_site_fract_y
_atom_site_fract_z
_atom_type_partial_charge
Li0 Li 0.00273 0.26988 0.37 0.0
Li1 Li 0.01193 0.24328 0.38968 0.0
Li2 Li 0.98909 0.23893 0.36465 0.0
Li3 Li 0.98107 0.25666 0.39134 0.0
C4 C 0.03391 0.24887 0.35802 0.0
N5 N 0.07123 0.2536 0.34981 0.0
C6 C 0.04435 0.26241 0.36735 0.0
C7 C 0.04243 0.23774 0.34452 0.0
C8 C 0.0632 0.26458 0.363 0.0
C9 C 0.06132 0.24034 0.34056 0.0
C10 C 0.00086 0.27425 0.41533 0.0
C11 C 0.99927 0.26791 0.4483 0.0
N12 N 0.99031 0.2844 0.45096 0.0
C13 C 0.9916 0.29113 0.41839 0.0
C14 C 0.00467 0.26251 0.43039 0.0
C15 C 0.98639 0.29601 0.4365 0.0
C16 C 0.0155 0.29426 0.34057 0.0
N17 N 0.01173 0.29258 0.35907 0.0
C18 C 0.02001 0.32444 0.36417 0.0
C19 C 0.01427 0.30714 0.3709 0.0
C20 C 0.02312 0.32693 0.34499 0.0
C21 C 0.02105 0.31143 0.33316 0.0
H22 H 0.01415 0.28235 0.33149 0.0
H23 H 0.01189 0.30532 0.38562 0.0
C24 C 0.03362 0.21252 0.39944 0.0
N25 N 0.03259 0.23133 0.40119 0.0
C26 C 0.04954 0.20299 0.40529 0.0
C27 C 0.0629 0.23234 0.41505 0.0
C28 C 0.04665 0.24131 0.40908 0.0
C29 C 0.06466 0.21295 0.41283 0.0
H30 H 0.02228 0.20499 0.39295 0.0
H31 H 0.04551 0.2563 0.4101 0.0
C32 C 0.97166 0.26912 0.34739 0.0
N33 N 0.96228 0.28004 0.31164 0.0
C34 C 0.95653 0.28104 0.34441 0.0
C35 C 0.98197 0.26272 0.33214 0.0
C36 C 0.95203 0.28642 0.32625 0.0
C37 C 0.97702 0.2684 0.31419 0.0
C38 C 0.9728 0.21848 0.39294 0.0
C39 C 0.95541 0.22372 0.38586 0.0
C40 C 0.97471 0.20143 0.40213 0.0
C41 C 0.9402 0.21178 0.38812 0.0
C42 C 0.95916 0.18987 0.4041 0.0
N43 N 0.94238 0.19524 0.39711 0.0
C44 C 0.9915 0.20562 0.34402 0.0
C45 C 0.96303 0.22188 0.3399 0.0
C46 C 0.98522 0.19111 0.33263 0.0
N47 N 0.98039 0.22058 0.34742 0.0
C48 C 0.95627 0.2078 0.32833 0.0
C49 C 0.96737 0.1921 0.32464 0.0
H50 H 0.00514 0.20484 0.35041 0.0
H51 H 0.95426 0.23369 0.34318 0.0
C52 C 0.94979 0.27743 0.40147 0.0
N53 N 0.96045 0.26283 0.40709 0.0
C54 C 0.93361 0.2821 0.41116 0.0
C55 C 0.93984 0.25687 0.43259 0.0
C56 C 0.95599 0.25272 0.42249 0.0
C57 C 0.92827 0.27161 0.4268 0.0
H58 H 0.95377 0.2853 0.38927 0.0
H59 H 0.96479 0.24123 0.42671 0.0
O60 O 0.01546 0.24634 0.36211 0.0
O61 O 0.00558 0.26891 0.39763 0.0
O62 O 0.97604 0.26363 0.36514 0.0
O63 O 0.98796 0.22986 0.39084 0.0
H64 H 0.03802 0.27109 0.37792 0.0
H65 H 0.03452 0.22718 0.33719 0.0
H66 H 0.07146 0.27498 0.37014 0.0
H67 H 0.06811 0.23182 0.33014 0.0
H68 H 0.00209 0.25893 0.46007 0.0
H69 H 0.98806 0.3002 0.40688 0.0
H70 H 0.01149 0.24924 0.42828 0.0
H71 H 0.97912 0.30897 0.43905 0.0
H72 H 0.02205 0.33573 0.37398 0.0
H73 H 0.02332 0.31258 0.3183 0.0
H74 H 0.05013 0.18801 0.40359 0.0
H75 H 0.07424 0.24062 0.42059 0.0
H76 H 0.9483 0.28606 0.35599 0.0
H77 H 0.99373 0.25352 0.33406 0.0
H78 H 0.94037 0.29564 0.32377 0.0
H79 H 0.98491 0.26356 0.30229 0.0
H80 H 0.95364 0.23686 0.37871 0.0
H81 H 0.98809 0.19717 0.40767 0.0
H82 H 0.92667 0.21566 0.38271 0.0
H83 H 0.96044 0.17662 0.41118 0.0
H84 H 0.99423 0.17927 0.33007 0.0
H85 H 0.9423 0.20896 0.32273 0.0
H86 H 0.92505 0.29344 0.40606 0.0
H87 H 0.93638 0.24857 0.4447 0.0
Li88 Li 0.00957 0.76636 0.64004 0.0
Li89 Li 0.98482 0.75977 0.61755 0.0
Li90 Li 0.9925 0.73646 0.64266 0.0
Li91 Li 0.01357 0.74097 0.61579 0.0
C92 C 0.97792 0.77146 0.66114 0.0
N93 N 0.96873 0.79005 0.69358 0.0
C94 C 0.9669 0.78751 0.66044 0.0
C95 C 0.98404 0.76473 0.67834 0.0
C96 C 0.96248 0.79676 0.67699 0.0
C97 C 0.9793 0.77435 0.69458 0.0
C98 C 0.01083 0.7794 0.59698 0.0
C99 C 0.01204 0.78304 0.5636 0.0
N100 N 0.01105 0.80185 0.56571 0.0
C101 C 0.01011 0.79877 0.59884 0.0
C102 C 0.01204 0.77145 0.57925 0.0
C103 C 0.01012 0.80988 0.58286 0.0
C104 C 0.04008 0.78351 0.65807 0.0
N105 N 0.02218 0.78613 0.65246 0.0
C106 C 0.02348 0.81825 0.66128 0.0
C107 C 0.01377 0.80305 0.65393 0.0
C108 C 0.04213 0.81606 0.66684 0.0
C109 C 0.05035 0.79835 0.66538 0.0
H110 H 0.04657 0.77002 0.65636 0.0
H111 H 0.99976 0.80494 0.64875 0.0
C112 C 0.95113 0.76164 0.59615 0.0
N113 N 0.96476 0.7716 0.6048 0.0
C114 C 0.93529 0.77065 0.5892 0.0
C115 C 0.94796 0.79993 0.59999 0.0
C116 C 0.96352 0.79039 0.60667 0.0
C117 C 0.93339 0.79001 0.59147 0.0
H118 H 0.95213 0.74664 0.59537 0.0
H119 H 0.97426 0.7979 0.61409 0.0
C120 C 0.0292 0.73021 0.65554 0.0
N121 N 0.04819 0.70872 0.68125 0.0
C122 C 0.03779 0.71361 0.65001 0.0
C123 C 0.03058 0.73604 0.67407 0.0
C124 C 0.04723 0.70289 0.66324 0.0
C125 C 0.04016 0.72494 0.68687 0.0
C126 C 0.98331 0.7195 0.60223 0.0
C127 C 0.97967 0.70095 0.60696 0.0
C128 C 0.98295 0.72494 0.58354 0.0
C129 C 0.97598 0.68808 0.59283 0.0
C130 C 0.97919 0.71165 0.56982 0.0
N131 N 0.97583 0.69364 0.57471 0.0
C132 C 0.96551 0.72155 0.66717 0.0
C133 C 0.99057 0.7011 0.6606 0.0
C134 C 0.95696 0.70803 0.67826 0.0
N135 N 0.98209 0.71794 0.65874 0.0
C136 C 0.98256 0.6872 0.67163 0.0
C137 C 0.96548 0.69054 0.68063 0.0
H138 H 0.95875 0.73484 0.66502 0.0
H139 H 0.00334 0.69827 0.6532 0.0
C140 C 0.0478 0.73842 0.59701 0.0
N141 N 0.03194 0.7288 0.6009 0.0
C142 C 0.063 0.72942 0.58877 0.0
C143 C 0.04496 0.701 0.58802 0.0
C144 C 0.0302 0.71049 0.59639 0.0
C145 C 0.06185 0.71032 0.58457 0.0
H146 H 0.04893 0.75289 0.60107 0.0
H147 H 0.01776 0.70295 0.6001 0.0
O148 O 0.98254 0.76231 0.64505 0.0
O149 O 0.01087 0.76831 0.61247 0.0
O150 O 0.01999 0.74093 0.64274 0.0
O151 O 0.98709 0.73223 0.61589 0.0
H152 H 0.96191 0.79284 0.64726 0.0
H153 H 0.99222 0.75212 0.67915 0.0
H154 H 0.95406 0.80926 0.67665 0.0
H155 H 0.98399 0.7693 0.70799 0.0
H156 H 0.0129 0.77707 0.54979 0.0
H157 H 0.00945 0.80515 0.61249 0.0
H158 H 0.01314 0.75652 0.57758 0.0
H159 H 0.00941 0.82489 0.58408 0.0
H160 H 0.01673 0.83174 0.66183 0.0
H161 H 0.06467 0.79605 0.66957 0.0
H162 H 0.92426 0.76244 0.58298 0.0
H163 H 0.94712 0.81488 0.60193 0.0
H164 H 0.03701 0.70896 0.63571 0.0
H165 H 0.0245 0.74909 0.6785 0.0
H166 H 0.0538 0.68994 0.65918 0.0
H167 H 0.04127 0.72926 0.70127 0.0
H168 H 0.97981 0.69653 0.62137 0.0
H169 H 0.98538 0.73929 0.57969 0.0
H170 H 0.97323 0.67366 0.59627 0.0
H171 H 0.9789 0.71566 0.5553 0.0
H172 H 0.94358 0.71113 0.68453 0.0
H173 H 0.9897 0.67399 0.67307 0.0
H174 H 0.0758 0.73713 0.58662 0.0
H175 H 0.04332 0.68635 0.58481 0.0
Li176 Li 0.50805 0.76429 0.86019 0.0
Li177 Li 0.51747 0.74329 0.88531 0.0
Li178 Li 0.49812 0.73224 0.85937 0.0
Li179 Li 0.48522 0.75296 0.88307 0.0
C180 C 0.53216 0.72857 0.84787 0.0
N181 N 0.54709 0.70012 0.82664 0.0
C182 C 0.54275 0.71457 0.85632 0.0
C183 C 0.52922 0.72813 0.82862 0.0
C184 C 0.55019 0.70031 0.84534 0.0
C185 C 0.53686 0.71361 0.81813 0.0
C186 C 0.51741 0.77708 0.90099 0.0
C187 C 0.52617 0.77986 0.93331 0.0
N188 N 0.53947 0.7925 0.92852 0.0
C189 C 0.53108 0.79018 0.89639 0.0
C190 C 0.51484 0.77195 0.91959 0.0
C191 C 0.54211 0.79779 0.91051 0.0
C192 C 0.50867 0.80246 0.85036 0.0
N193 N 0.5155 0.78536 0.84588 0.0
C194 C 0.53254 0.79815 0.82032 0.0
C195 C 0.52735 0.78298 0.83131 0.0
C196 C 0.52559 0.81598 0.82447 0.0
C197 C 0.51358 0.81806 0.83979 0.0
H198 H 0.49931 0.80394 0.86208 0.0
H199 H 0.53276 0.76929 0.82821 0.0
C200 C 0.53748 0.72229 0.9127 0.0
N201 N 0.538 0.73725 0.90108 0.0
C202 C 0.55323 0.71747 0.92317 0.0
C203 C 0.56951 0.74373 0.90972 0.0
C204 C 0.55366 0.74776 0.89922 0.0
C205 C 0.56944 0.72835 0.92177 0.0
H206 H 0.52498 0.71392 0.91359 0.0
H207 H 0.55391 0.75914 0.88936 0.0
C208 C 0.47599 0.76788 0.84388 0.0
N209 N 0.46413 0.7962 0.82062 0.0
C210 C 0.46458 0.78209 0.85077 0.0
C211 C 0.48137 0.76809 0.82515 0.0
C212 C 0.45871 0.79627 0.83878 0.0
C213 C 0.47524 0.78253 0.81362 0.0
C214 C 0.48199 0.71932 0.8974 0.0
C215 C 0.46768 0.70882 0.88937 0.0
C216 C 0.48228 0.7221 0.91667 0.0
C217 C 0.45375 0.70141 0.90078 0.0
C218 C 0.46809 0.71446 0.9276 0.0
N219 N 0.45423 0.70438 0.91949 0.0
C220 C 0.49819 0.69405 0.84941 0.0
C221 C 0.48201 0.71379 0.82844 0.0
C222 C 0.49364 0.67842 0.83872 0.0
N223 N 0.49235 0.71128 0.8441 0.0
C224 C 0.47727 0.6986 0.81728 0.0
C225 C 0.48303 0.68061 0.82241 0.0
H226 H 0.50627 0.69246 0.86204 0.0
H227 H 0.47723 0.72756 0.82474 0.0
C228 C 0.46151 0.77204 0.90915 0.0
N229 N 0.46248 0.75909 0.89535 0.0
C230 C 0.44415 0.77815 0.91566 0.0
C231 C 0.42928 0.75703 0.89403 0.0
C232 C 0.44684 0.75139 0.88795 0.0
C233 C 0.42773 0.77094 0.90771 0.0
H234 H 0.47414 0.77825 0.91451 0.0
H235 H 0.44803 0.74143 0.87671 0.0
O236 O 0.52438 0.74241 0.85844 0.0
O237 O 0.50663 0.76929 0.88734 0.0
O238 O 0.48228 0.75411 0.8555 0.0
O239 O 0.49557 0.72696 0.88644 0.0
H240 H 0.5451 0.7146 0.8712 0.0
H241 H 0.52082 0.73868 0.82188 0.0
H242 H 0.55836 0.68935 0.8517 0.0
H243 H 0.53456 0.71302 0.80325 0.0
H244 H 0.52441 0.77593 0.94775 0.0
H245 H 0.53329 0.79426 0.88205 0.0
H246 H 0.5043 0.76186 0.92338 0.0
H247 H 0.55282 0.80786 0.90715 0.0
H248 H 0.54209 0.79598 0.80883 0.0
H249 H 0.50783 0.83154 0.8434 0.0
H250 H 0.55274 0.70546 0.9323 0.0
H251 H 0.58188 0.75224 0.90807 0.0
H252 H 0.46047 0.78235 0.86525 0.0
H253 H 0.4905 0.75743 0.81964 0.0
H254 H 0.44992 0.80738 0.84394 0.0
H255 H 0.47942 0.78293 0.79915 0.0
H256 H 0.46719 0.70661 0.87447 0.0
H257 H 0.49331 0.7301 0.9231 0.0
H258 H 0.44252 0.69336 0.89475 0.0
H259 H 0.46809 0.71656 0.94253 0.0
H260 H 0.49842 0.6648 0.84312 0.0
H261 H 0.46878 0.70086 0.805 0.0
H262 H 0.4436 0.78905 0.92607 0.0
H263 H 0.41701 0.75095 0.88767 0.0
Li264 Li 0.5049 0.26349 0.13741 0.0
Li265 Li 0.48369 0.25482 0.11289 0.0
Li266 Li 0.49361 0.23236 0.137 0.0
Li267 Li 0.51637 0.24187 0.11365 0.0
C268 C 0.4706 0.26806 0.15151 0.0
N269 N 0.45447 0.29405 0.17491 0.0
C270 C 0.45781 0.28097 0.14448 0.0
C271 C 0.47512 0.26831 0.17046 0.0
C272 C 0.44982 0.29401 0.15654 0.0
C273 C 0.46684 0.28158 0.18206 0.0
C274 C 0.51193 0.28668 0.10966 0.0
C275 C 0.53459 0.31151 0.10897 0.0
N276 N 0.52058 0.32421 0.11031 0.0
C277 C 0.49776 0.29999 0.11099 0.0
C278 C 0.5305 0.29247 0.10857 0.0
C279 C 0.50241 0.31889 0.11129 0.0
C280 C 0.53165 0.28082 0.15965 0.0
N281 N 0.51417 0.28348 0.15282 0.0
C282 C 0.51282 0.31372 0.16689 0.0
C283 C 0.50478 0.29964 0.15608 0.0
C284 C 0.53078 0.31123 0.1743 0.0
C285 C 0.54023 0.29452 0.17045 0.0
H286 H 0.53908 0.26811 0.15649 0.0
H287 H 0.49111 0.30177 0.15018 0.0
C288 C 0.44708 0.25174 0.10104 0.0
N289 N 0.46308 0.26123 0.09753 0.0
C290 C 0.43092 0.25564 0.09094 0.0
C291 C 0.44803 0.27899 0.07369 0.0
C292 C 0.46396 0.27446 0.08398 0.0
C293 C 0.43123 0.26953 0.07718 0.0
H294 H 0.44686 0.24124 0.11186 0.0
H295 H 0.47697 0.28154 0.08122 0.0
C296 C 0.52547 0.22757 0.15304 0.0
N297 N 0.53615 0.20021 0.1779 0.0
C298 C 0.53352 0.21107 0.14654 0.0
C299 C 0.52295 0.23023 0.17216 0.0
C300 C 0.53881 0.19739 0.15935 0.0
C301 C 0.52841 0.21621 0.18451 0.0
C302 C 0.49027 0.22293 0.09142 0.0
C303 C 0.48313 0.20535 0.08708 0.0
C304 C 0.49492 0.23527 0.07707 0.0
C305 C 0.48085 0.20033 0.06841 0.0
C306 C 0.49242 0.22974 0.05857 0.0
N307 N 0.4855 0.21252 0.05466 0.0
C308 C 0.47743 0.21373 0.16802 0.0
C309 C 0.48886 0.19395 0.14417 0.0
C310 C 0.47199 0.19836 0.17861 0.0
N311 N 0.48578 0.21128 0.1512 0.0
C312 C 0.48353 0.17816 0.15425 0.0
C313 C 0.47503 0.18026 0.17177 0.0
H314 H 0.47502 0.22762 0.17324 0.0
H315 H 0.49561 0.19242 0.13078 0.0
C316 C 0.55418 0.24249 0.10793 0.0
N317 N 0.53857 0.23414 0.10121 0.0
C318 C 0.57177 0.23671 0.10205 0.0
C319 C 0.55702 0.21388 0.08217 0.0
C320 C 0.53963 0.2201 0.0885 0.0
C321 C 0.57339 0.22199 0.08925 0.0
H322 H 0.55296 0.2532 0.11846 0.0
H323 H 0.52713 0.21317 0.08381 0.0
O324 O 0.47838 0.25506 0.13995 0.0
O325 O 0.50765 0.2681 0.10966 0.0
O326 O 0.51966 0.24087 0.14072 0.0
O327 O 0.49231 0.22808 0.10966 0.0
H328 H 0.45411 0.28098 0.12987 0.0
H329 H 0.48516 0.2586 0.1761 0.0
H330 H 0.43994 0.30411 0.15128 0.0
H331 H 0.47031 0.28202 0.19672 0.0
H332 H 0.54891 0.31618 0.10821 0.0
H333 H 0.48334 0.29577 0.11219 0.0
H334 H 0.54164 0.28241 0.10746 0.0
H335 H 0.49159 0.32932 0.11246 0.0
H336 H 0.50496 0.32633 0.16953 0.0
H337 H 0.55426 0.29213 0.17545 0.0
H338 H 0.41822 0.24814 0.09416 0.0
H339 H 0.44886 0.28964 0.06303 0.0
H340 H 0.53544 0.20875 0.13177 0.0
H341 H 0.5167 0.24292 0.17738 0.0
H342 H 0.54495 0.18449 0.15453 0.0
H343 H 0.52646 0.21802 0.19935 0.0
H344 H 0.47936 0.19568 0.09803 0.0
H345 H 0.50044 0.24895 0.08011 0.0
H346 H 0.47536 0.18675 0.06484 0.0
H347 H 0.49597 0.23913 0.04733 0.0
H348 H 0.46524 0.20062 0.19192 0.0
H349 H 0.4863 0.16447 0.14854 0.0
H350 H 0.58401 0.24344 0.10778 0.0
H351 H 0.55765 0.20229 0.07252 0.0
Li352 Li 0.01415 0.73703 0.13822 0.0
Li353 Li 0.01804 0.75881 0.11312 0.0
Li354 Li 0.99983 0.7685 0.13852 0.0
Li355 Li 0.98751 0.7447 0.11551 0.0
C356 C 0.03415 0.76341 0.15672 0.0
N357 N 0.04899 0.76641 0.19216 0.0
C358 C 0.0533 0.76611 0.15916 0.0
C359 C 0.0226 0.76211 0.17234 0.0
C360 C 0.06053 0.76762 0.17718 0.0
C361 C 0.03033 0.76372 0.19013 0.0
C362 C 0.02182 0.72534 0.09663 0.0
C363 C 0.02418 0.7149 0.06477 0.0
N364 N 0.04283 0.71237 0.06708 0.0
C365 C 0.04098 0.72252 0.09873 0.0
C366 C 0.01331 0.72144 0.07954 0.0
C367 C 0.05137 0.71602 0.08361 0.0
C368 C 0.01451 0.70314 0.15886 0.0
N369 N 0.02518 0.71696 0.15149 0.0
C370 C 0.05302 0.70005 0.15834 0.0
C371 C 0.0441 0.71588 0.15147 0.0
C372 C 0.04237 0.68528 0.16546 0.0
C373 C 0.02289 0.68712 0.16617 0.0
H374 H 0.99948 0.7042 0.15834 0.0
H375 H 0.05223 0.727 0.14537 0.0
C376 C 0.05136 0.77661 0.10357 0.0
N377 N 0.03662 0.76759 0.09581 0.0
C378 C 0.0664 0.78221 0.09262 0.0
C379 C 0.05058 0.76985 0.0656 0.0
C380 C 0.03577 0.76456 0.07711 0.0
C381 C 0.0663 0.77857 0.0734 0.0
H382 H 0.05158 0.77921 0.11838 0.0
H383 H 0.02375 0.75776 0.07113 0.0
C384 C 0.9735 0.743 0.15618 0.0
N385 N 0.94442 0.74111 0.18138 0.0
C386 C 0.95552 0.7482 0.15082 0.0
C387 C 0.97664 0.73659 0.17432 0.0
C388 C 0.94102 0.74723 0.16377 0.0
C389 C 0.96177 0.73581 0.18687 0.0
C390 C 0.99618 0.78309 0.09732 0.0
C391 C 0.00587 0.79975 0.10013 0.0
C392 C 0.9899 0.77841 0.0795 0.0
C393 C 0.00933 0.8114 0.08492 0.0
C394 C 0.99361 0.79046 0.06466 0.0
N395 N 0.00318 0.80655 0.06766 0.0
C396 C 0.00677 0.80245 0.15707 0.0
C397 C 0.97481 0.79428 0.15619 0.0
C398 C 0.00256 0.81937 0.16566 0.0
N399 N 0.99298 0.79022 0.15262 0.0
C400 C 0.96994 0.81115 0.16465 0.0
C401 C 0.9839 0.82409 0.16933 0.0
H402 H 0.02105 0.79933 0.15348 0.0
H403 H 0.964 0.7848 0.15181 0.0
C404 C 0.96695 0.71489 0.10208 0.0
N405 N 0.96629 0.73368 0.10409 0.0
C406 C 0.95155 0.7052 0.09527 0.0
C407 C 0.93499 0.7344 0.09261 0.0
C408 C 0.9509 0.7436 0.0992 0.0
C409 C 0.93506 0.71485 0.09086 0.0
H410 H 0.9794 0.70738 0.10607 0.0
H411 H 0.95076 0.75856 0.10102 0.0
O412 O 0.02697 0.76149 0.13912 0.0
O413 O 0.01142 0.73181 0.11122 0.0
O414 O 0.98783 0.74353 0.14358 0.0
O415 O 0.99296 0.77135 0.11195 0.0
H416 H 0.06255 0.76684 0.14728 0.0
H417 H 0.0078 0.7601 0.17078 0.0
H418 H 0.07532 0.76969 0.17925 0.0
H419 H 0.0215 0.76283 0.20231 0.0
H420 H 0.0178 0.71192 0.05144 0.0
H421 H 0.0478 0.7256 0.1118 0.0
H422 H 0.99851 0.72364 0.07764 0.0
H423 H 0.06624 0.71392 0.08499 0.0
H424 H 0.06808 0.69912 0.15763 0.0
H425 H 0.01424 0.6759 0.17137 0.0
H426 H 0.07825 0.78879 0.09927 0.0
H427 H 0.04978 0.76707 0.05079 0.0
H428 H 0.95283 0.75321 0.13688 0.0
H429 H 0.9904 0.73223 0.17868 0.0
H430 H 0.92706 0.75136 0.15982 0.0
H431 H 0.96402 0.73095 0.20096 0.0
H432 H 0.01084 0.80351 0.11387 0.0
H433 H 0.98242 0.76552 0.07714 0.0
H434 H 0.01693 0.82428 0.08684 0.0
H435 H 0.98893 0.78699 0.05076 0.0
H436 H 0.01384 0.82879 0.16913 0.0
H437 H 0.95534 0.81432 0.1668 0.0
H438 H 0.95254 0.69022 0.09371 0.0
H439 H 0.9226 0.74247 0.08956 0.0
Li440 Li 0.49376 0.76359 0.36056 0.0
Li441 Li 0.51718 0.757 0.38743 0.0
Li442 Li 0.50549 0.7323 0.3667 0.0
Li443 Li 0.48534 0.74527 0.38829 0.0
C444 C 0.53291 0.74843 0.34742 0.0
N445 N 0.55872 0.73424 0.32265 0.0
C446 C 0.5484 0.73862 0.35399 0.0
C447 C 0.5306 0.75116 0.32828 0.0
C448 C 0.56127 0.7315 0.34123 0.0
C449 C 0.5438 0.74385 0.31597 0.0
C450 C 0.48289 0.78019 0.40031 0.0
C451 C 0.4781 0.79167 0.4315 0.0
N452 N 0.46029 0.79632 0.42694 0.0
C453 C 0.4646 0.78518 0.39587 0.0
C454 C 0.48976 0.78351 0.41822 0.0
C455 C 0.45337 0.79328 0.40955 0.0
C456 C 0.46792 0.78543 0.34034 0.0
N457 N 0.48632 0.78262 0.34387 0.0
C458 C 0.49453 0.8096 0.3262 0.0
C459 C 0.4996 0.79424 0.33701 0.0
C460 C 0.4756 0.81312 0.32258 0.0
C461 C 0.46221 0.80068 0.32966 0.0
H462 H 0.45767 0.77602 0.34616 0.0
H463 H 0.5141 0.79183 0.34036 0.0
C464 C 0.55248 0.75739 0.40589 0.0
N465 N 0.53824 0.76788 0.39908 0.0
C466 C 0.56888 0.76596 0.41206 0.0
C467 C 0.55542 0.79588 0.40432 0.0
C468 C 0.5393 0.78676 0.39842 0.0
C469 C 0.57063 0.78544 0.4109 0.0
H470 H 0.55135 0.74235 0.40593 0.0
H471 H 0.52782 0.79469 0.39272 0.0
C472 C 0.47383 0.72783 0.34885 0.0
N473 N 0.46304 0.70214 0.32229 0.0
C474 C 0.46903 0.70971 0.35415 0.0
C475 C 0.47297 0.73296 0.33008 0.0
C476 C 0.46369 0.6969 0.3405 0.0
C477 C 0.4675 0.71975 0.31686 0.0
C478 C 0.50483 0.7236 0.41069 0.0
C479 C 0.49332 0.70789 0.41132 0.0
C480 C 0.51208 0.73091 0.42722 0.0
C481 C 0.48911 0.69984 0.42854 0.0
C482 C 0.50758 0.72243 0.44416 0.0
N483 N 0.49627 0.70722 0.44446 0.0
C484 C 0.5181 0.69525 0.36673 0.0
C485 C 0.51343 0.70684 0.33619 0.0
C486 C 0.52279 0.67774 0.35974 0.0
N487 N 0.51322 0.70931 0.35501 0.0
C488 C 0.51824 0.68955 0.32856 0.0
C489 C 0.5227 0.67465 0.34044 0.0
H490 H 0.5182 0.69756 0.38159 0.0
H491 H 0.50956 0.71816 0.32708 0.0
C492 C 0.44832 0.73498 0.39527 0.0
N493 N 0.4641 0.74061 0.40411 0.0
C494 C 0.43226 0.73083 0.40539 0.0
C495 C 0.44869 0.73878 0.43366 0.0
C496 C 0.46446 0.74284 0.42295 0.0
C497 C 0.43233 0.73251 0.42488 0.0
H498 H 0.44814 0.73371 0.38028 0.0
H499 H 0.477 0.74764 0.42972 0.0
O500 O 0.52003 0.75524 0.35966 0.0
O501 O 0.49399 0.77194 0.38723 0.0
O502 O 0.4792 0.74053 0.36198 0.0
O503 O 0.50917 0.73163 0.39397 0.0
H504 H 0.55033 0.73635 0.36878 0.0
H505 H 0.51862 0.75865 0.32299 0.0
H506 H 0.57327 0.72378 0.3461 0.0
H507 H 0.54214 0.74576 0.30111 0.0
H508 H 0.48318 0.79424 0.44546 0.0
H509 H 0.45908 0.78263 0.38207 0.0
H510 H 0.50388 0.77964 0.42188 0.0
H511 H 0.43913 0.7971 0.40637 0.0
H512 H 0.50529 0.81896 0.32126 0.0
H513 H 0.44749 0.80278 0.32706 0.0
H514 H 0.58036 0.75742 0.41687 0.0
H515 H 0.55614 0.81092 0.40337 0.0
H516 H 0.4696 0.70555 0.36863 0.0
H517 H 0.47666 0.74693 0.32576 0.0
H518 H 0.46008 0.68279 0.34437 0.0
H519 H 0.46687 0.72348 0.30227 0.0
H520 H 0.48756 0.70207 0.39865 0.0
H521 H 0.52093 0.74311 0.42701 0.0
H522 H 0.48014 0.68775 0.42924 0.0
H523 H 0.51302 0.72799 0.45708 0.0
H524 H 0.52648 0.66672 0.36937 0.0
H525 H 0.51795 0.68771 0.31359 0.0
H526 H 0.41985 0.7265 0.39795 0.0
H527 H 0.44944 0.74021 0.44866 0.0
Li528 Li 0.50658 0.23476 0.63741 0.0
Li529 Li 0.51465 0.2573 0.61494 0.0
Li530 Li 0.49242 0.26568 0.63923 0.0
Li531 Li 0.48414 0.24279 0.61271 0.0
C532 C 0.53684 0.25697 0.64762 0.0
N533 N 0.57353 0.25285 0.65853 0.0
C534 C 0.5487 0.24509 0.63777 0.0
C535 C 0.54362 0.2668 0.663 0.0
C536 C 0.5672 0.24318 0.6435 0.0
C537 C 0.56222 0.26451 0.66831 0.0
C538 C 0.51617 0.22268 0.59487 0.0
C539 C 0.51565 0.21689 0.56176 0.0
N540 N 0.53137 0.20643 0.56343 0.0
C541 C 0.53217 0.21164 0.59629 0.0
C542 C 0.50771 0.22515 0.5775 0.0
C543 C 0.5397 0.20364 0.58022 0.0
C544 C 0.51515 0.19715 0.64518 0.0
N545 N 0.51517 0.21464 0.65244 0.0
C546 C 0.52646 0.20323 0.6816 0.0
C547 C 0.52071 0.21794 0.67025 0.0
C548 C 0.52655 0.18497 0.67453 0.0
C549 C 0.52085 0.18203 0.65602 0.0
H550 H 0.51047 0.19494 0.63102 0.0
H551 H 0.52045 0.23199 0.6757 0.0
C552 C 0.54061 0.28517 0.60938 0.0
N553 N 0.53481 0.26892 0.60154 0.0
C554 C 0.55466 0.29569 0.60108 0.0
C555 C 0.55712 0.27234 0.57695 0.0
C556 C 0.54279 0.26235 0.58563 0.0
C557 C 0.56306 0.28935 0.58461 0.0
H558 H 0.5341 0.29009 0.62206 0.0
H559 H 0.53802 0.24953 0.57948 0.0
C560 C 0.47489 0.22907 0.65426 0.0
N561 N 0.46728 0.20414 0.68257 0.0
C562 C 0.4687 0.2111 0.65005 0.0
C563 C 0.47714 0.23441 0.67285 0.0
C564 C 0.46495 0.19868 0.66457 0.0
C565 C 0.47322 0.22159 0.68697 0.0
C566 C 0.49424 0.28365 0.59926 0.0
C567 C 0.49776 0.30182 0.60534 0.0
C568 C 0.49544 0.27946 0.58028 0.0
C569 C 0.50281 0.31542 0.59235 0.0
C570 C 0.50054 0.29344 0.56773 0.0
N571 N 0.50412 0.31097 0.57398 0.0
C572 C 0.49427 0.29949 0.65907 0.0
C573 C 0.46558 0.28329 0.66188 0.0
C574 C 0.48763 0.31389 0.67035 0.0
N575 N 0.48317 0.28469 0.65498 0.0
C576 C 0.45848 0.29722 0.67347 0.0
C577 C 0.46953 0.31281 0.67771 0.0
H578 H 0.50825 0.30013 0.65343 0.0
H579 H 0.45707 0.27136 0.65834 0.0
C580 C 0.46076 0.21623 0.59481 0.0
N581 N 0.46412 0.23469 0.59739 0.0
C582 C 0.4456 0.21044 0.58399 0.0
C583 C 0.43794 0.24278 0.57847 0.0
C584 C 0.45312 0.24793 0.58949 0.0
C585 C 0.43396 0.22381 0.57566 0.0
H586 H 0.46984 0.20601 0.60117 0.0
H587 H 0.45607 0.26251 0.59188 0.0
O588 O 0.51865 0.25906 0.6423 0.0
O589 O 0.50848 0.23042 0.61051 0.0
O590 O 0.47926 0.24122 0.64024 0.0
O591 O 0.48982 0.27002 0.61184 0.0
H592 H 0.54368 0.23751 0.6258 0.0
H593 H 0.53459 0.27606 0.67076 0.0
H594 H 0.57654 0.23403 0.63599 0.0
H595 H 0.56767 0.27201 0.6802 0.0
H596 H 0.5093 0.21878 0.54822 0.0
H597 H 0.53868 0.20918 0.60967 0.0
H598 H 0.49515 0.23331 0.57613 0.0
H599 H 0.55213 0.19515 0.58111 0.0
H600 H 0.53092 0.20616 0.69572 0.0
H601 H 0.52047 0.16816 0.65009 0.0
H602 H 0.55898 0.30864 0.60753 0.0
H603 H 0.56319 0.26706 0.56418 0.0
H604 H 0.46701 0.20672 0.63573 0.0
H605 H 0.48215 0.2482 0.67634 0.0
H606 H 0.46025 0.18468 0.66152 0.0
H607 H 0.47501 0.22549 0.70142 0.0
H608 H 0.49681 0.30534 0.61995 0.0
H609 H 0.49259 0.26555 0.5753 0.0
H610 H 0.50573 0.32949 0.59689 0.0
H611 H 0.50167 0.29034 0.55302 0.0
H612 H 0.49658 0.32565 0.67343 0.0
H613 H 0.4444 0.29599 0.67877 0.0
H614 H 0.44314 0.19568 0.58201 0.0
H615 H 0.4292 0.25354 0.5725 0.0
Li616 Li 0.99245 0.26878 0.8596 0.0
Li617 Li 0.0167 0.25782 0.88382 0.0
Li618 Li 0.00487 0.2371 0.85958 0.0
Li619 Li 0.98469 0.24581 0.88411 0.0
C620 C 0.02997 0.25583 0.84152 0.0
N621 N 0.05151 0.2439 0.81194 0.0
C622 C 0.04763 0.24828 0.84471 0.0
C623 C 0.02331 0.25747 0.82329 0.0
C624 C 0.0583 0.24229 0.82956 0.0
C625 C 0.0344 0.25132 0.80852 0.0
C626 C 0.98237 0.27695 0.90231 0.0
C627 C 0.97647 0.27622 0.93537 0.0
N628 N 0.95983 0.28484 0.93249 0.0
C629 C 0.96525 0.28586 0.89966 0.0
C630 C 0.98808 0.27212 0.92029 0.0
C631 C 0.95404 0.28971 0.91511 0.0
C632 C 0.96605 0.29406 0.84437 0.0
N633 N 0.98447 0.28984 0.84573 0.0
C634 C 0.99262 0.31651 0.82756 0.0
C635 C 0.99772 0.30068 0.83763 0.0
C636 C 0.9737 0.32132 0.82593 0.0
C637 C 0.96032 0.30987 0.83452 0.0
H638 H 0.95582 0.28514 0.85094 0.0
H639 H 0.01228 0.29706 0.8391 0.0
C640 C 0.05283 0.25528 0.90012 0.0
N641 N 0.03732 0.266 0.89821 0.0
C642 C 0.06799 0.26174 0.91056 0.0
C643 C 0.0507 0.28992 0.9171 0.0
C644 C 0.03604 0.28306 0.90634 0.0
C645 C 0.06694 0.27923 0.9193 0.0
H646 H 0.05342 0.24173 0.89353 0.0
H647 H 0.02359 0.29134 0.90445 0.0
C648 C 0.9676 0.23859 0.84361 0.0
N649 N 0.9451 0.22499 0.81546 0.0
C650 C 0.95624 0.22308 0.84676 0.0
C651 C 0.96723 0.24741 0.82623 0.0
C652 C 0.94505 0.21635 0.83232 0.0
C653 C 0.95584 0.24026 0.81216 0.0
C654 C 0.00596 0.21396 0.8923 0.0
C655 C 0.99316 0.20247 0.88319 0.0
C656 C 0.01611 0.20704 0.9074 0.0
C657 C 0.99065 0.1842 0.88941 0.0
C658 C 0.01319 0.18869 0.91322 0.0
N659 N 0.00063 0.17775 0.90418 0.0
C660 C 0.02726 0.2061 0.85052 0.0
C661 C 0.00499 0.21301 0.82719 0.0
C662 C 0.03382 0.19093 0.84024 0.0
N663 N 0.01294 0.21669 0.84399 0.0
C664 C 0.01105 0.19794 0.81649 0.0
C665 C 0.02563 0.18659 0.82299 0.0
H666 H 0.03369 0.20952 0.86371 0.0
H667 H 0.99402 0.22177 0.82194 0.0
C668 C 0.94694 0.24146 0.89387 0.0
N669 N 0.96461 0.23796 0.89976 0.0
C670 C 0.9317 0.23572 0.90454 0.0
C671 C 0.95311 0.22294 0.92716 0.0
C672 C 0.96793 0.2291 0.91616 0.0
C673 C 0.93464 0.22616 0.92139 0.0
H674 H 0.94471 0.24875 0.88088 0.0
H675 H 0.9821 0.22675 0.9207 0.0
O676 O 0.01904 0.26116 0.85619 0.0
O677 O 0.99325 0.27247 0.88732 0.0
O678 O 0.97845 0.24555 0.85766 0.0
O679 O 0.00857 0.23196 0.88659 0.0
H680 H 0.05294 0.24685 0.85874 0.0
H681 H 0.00965 0.26324 0.8206 0.0
H682 H 0.07195 0.23629 0.83183 0.0
H683 H 0.02938 0.25239 0.79435 0.0
H684 H 0.98065 0.27246 0.94936 0.0
H685 H 0.9606 0.28958 0.88582 0.0
H686 H 0.0012 0.26503 0.92253 0.0
H687 H 0.94071 0.29651 0.91327 0.0
H688 H 0.0034 0.32508 0.82137 0.0
H689 H 0.94558 0.31297 0.83345 0.0
H690 H 0.08025 0.25306 0.91204 0.0
H691 H 0.04945 0.30356 0.92344 0.0
H692 H 0.95594 0.21636 0.86025 0.0
H693 H 0.97579 0.25951 0.82356 0.0
H694 H 0.93626 0.2043 0.83455 0.0
H695 H 0.95554 0.24685 0.7986 0.0
H696 H 0.98535 0.20759 0.87141 0.0
H697 H 0.02608 0.2158 0.91459 0.0
H698 H 0.98079 0.17514 0.88248 0.0
H699 H 0.02091 0.18316 0.92493 0.0
H700 H 0.04537 0.18286 0.84565 0.0
H701 H 0.00421 0.19512 0.80334 0.0
H702 H 0.91777 0.23888 0.89966 0.0
H703 H 0.95616 0.21546 0.9399 0.0
Li704 Li 0.38737 0.0131 0.24314 0.0
Li705 Li 0.36392 0.00419 0.26554 0.0
Li706 Li 0.38707 0.98156 0.25497 0.0
Li707 Li 0.36294 0.99145 0.23409 0.0
C708 C 0.39567 0.01946 0.28079 0.0
N709 N 0.40433 0.04902 0.3039 0.0
C710 C 0.38798 0.03705 0.27749 0.0
C711 C 0.40775 0.0169 0.29584 0.0
C712 C 0.39253 0.05182 0.28933 0.0
C713 C 0.41197 0.03202 0.30736 0.0
C714 C 0.34202 0.02338 0.239 0.0
C715 C 0.3091 0.01896 0.24425 0.0
N716 N 0.30545 0.03427 0.2337 0.0
C717 C 0.33794 0.03909 0.22824 0.0
C718 C 0.32749 0.01324 0.24709 0.0
C719 C 0.31937 0.04437 0.22571 0.0
C720 C 0.39561 0.04468 0.22133 0.0
N721 N 0.4025 0.03345 0.23492 0.0
C722 C 0.42943 0.0528 0.2381 0.0
C723 C 0.4192 0.03704 0.24313 0.0
C724 C 0.42242 0.06502 0.22448 0.0
C725 C 0.40538 0.06063 0.21586 0.0
H726 H 0.38232 0.04146 0.215 0.0
H727 H 0.42443 0.02789 0.25389 0.0
C728 C 0.34784 0.0011 0.30154 0.0
N729 N 0.34987 0.01261 0.28662 0.0
C730 C 0.33744 0.00681 0.31703 0.0
C731 C 0.3315 0.03609 0.30147 0.0
C732 C 0.34224 0.02996 0.28648 0.0
C733 C 0.32891 0.02442 0.31693 0.0
H734 H 0.35423 0.98744 0.30135 0.0
H735 H 0.34437 0.03905 0.27467 0.0
C736 C 0.40836 0.98821 0.22321 0.0
N737 N 0.44523 0.9853 0.21238 0.0
C738 C 0.41286 0.98443 0.20464 0.0
C739 C 0.42265 0.99046 0.23627 0.0
C740 C 0.43157 0.98302 0.19944 0.0
C741 C 0.44119 0.98895 0.23052 0.0
C742 C 0.35517 0.95965 0.25584 0.0
C743 C 0.36146 0.94973 0.2403 0.0
C744 C 0.34412 0.95071 0.26915 0.0
C745 C 0.35659 0.93099 0.23835 0.0
C746 C 0.33956 0.93194 0.2667 0.0
N747 N 0.34584 0.92255 0.25148 0.0
C748 C 0.40533 0.95711 0.28036 0.0
C749 C 0.40717 0.94825 0.2486 0.0
C750 C 0.41547 0.9413 0.28565 0.0
N751 N 0.40145 0.96027 0.26209 0.0
C752 C 0.41736 0.93238 0.25323 0.0
C753 C 0.42168 0.92873 0.27195 0.0
H754 H 0.40051 0.96685 0.29081 0.0
H755 H 0.4037 0.9509 0.23419 0.0
C756 C 0.35458 0.98176 0.19692 0.0
N757 N 0.34721 0.98298 0.2143 0.0
C758 C 0.34436 0.97371 0.18243 0.0
C759 C 0.31876 0.96917 0.20381 0.0
C760 C 0.32964 0.9769 0.21795 0.0
C761 C 0.32619 0.96709 0.18577 0.0
H762 H 0.36865 0.98653 0.19444 0.0
H763 H 0.32419 0.97757 0.23197 0.0
O764 O 0.39142 0.00472 0.26946 0.0
O765 O 0.36018 0.01811 0.24159 0.0
O766 O 0.39004 0.98965 0.22843 0.0
O767 O 0.35973 0.97802 0.25812 0.0
H768 H 0.37864 0.03933 0.26589 0.0
H769 H 0.41381 0.00335 0.29857 0.0
H770 H 0.38669 0.06551 0.28693 0.0
H771 H 0.4213 0.03023 0.31906 0.0
H772 H 0.29773 0.01122 0.25043 0.0
H773 H 0.34901 0.04716 0.22193 0.0
H774 H 0.33035 0.0011 0.25554 0.0
H775 H 0.31601 0.0565 0.21741 0.0
H776 H 0.44264 0.05546 0.24491 0.0
H777 H 0.39934 0.06971 0.20543 0.0
H778 H 0.33573 0.99744 0.32873 0.0
H779 H 0.32535 0.04987 0.30103 0.0
H780 H 0.40202 0.98259 0.19432 0.0
H781 H 0.41954 0.99328 0.25072 0.0
H782 H 0.43524 0.98011 0.18511 0.0
H783 H 0.45236 0.99067 0.2405 0.0
H784 H 0.37 0.95642 0.22985 0.0
H785 H 0.33914 0.95822 0.28125 0.0
H786 H 0.36137 0.92315 0.2264 0.0
H787 H 0.33102 0.92484 0.2769 0.0
H788 H 0.41859 0.93906 0.30024 0.0
H789 H 0.42157 0.92292 0.24225 0.0
H790 H 0.35094 0.97218 0.16894 0.0
H791 H 0.30475 0.96466 0.20712 0.0
Li792 Li 0.23536 0.13608 0.48947 0.0
Li793 Li 0.24356 0.11415 0.51414 0.0
Li794 Li 0.26779 0.13629 0.50194 0.0
Li795 Li 0.25737 0.10922 0.48371 0.0
C796 C 0.23846 0.1594 0.5208 0.0
N797 N 0.22765 0.19456 0.53231 0.0
C798 C 0.22371 0.16152 0.53336 0.0
C799 C 0.24792 0.17517 0.51439 0.0
C800 C 0.21838 0.1794 0.53892 0.0
C801 C 0.2422 0.19282 0.52029 0.0
C802 C 0.21691 0.09651 0.49531 0.0
C803 C 0.20731 0.06558 0.50431 0.0
N804 N 0.18949 0.07176 0.5062 0.0
C805 C 0.19847 0.10251 0.49716 0.0
C806 C 0.22136 0.07787 0.49875 0.0
C807 C 0.18481 0.0898 0.50274 0.0
C808 C 0.21536 0.15095 0.45948 0.0
N809 N 0.21526 0.14956 0.47836 0.0
C810 C 0.18455 0.16255 0.47967 0.0
C811 C 0.20037 0.15538 0.48855 0.0
C812 C 0.18405 0.16365 0.46011 0.0
C813 C 0.19996 0.15818 0.45006 0.0
H814 H 0.22716 0.14581 0.45166 0.0
H815 H 0.20032 0.15352 0.50348 0.0
C816 C 0.24368 0.09164 0.54726 0.0
N817 N 0.23356 0.10324 0.53619 0.0
C818 C 0.23638 0.08548 0.56428 0.0
C819 C 0.20833 0.10301 0.55789 0.0
C820 C 0.21611 0.10874 0.54106 0.0
C821 C 0.21863 0.09153 0.56994 0.0
H822 H 0.25763 0.08765 0.54316 0.0
H823 H 0.2084 0.11799 0.53203 0.0
C824 C 0.2662 0.14908 0.46392 0.0
N825 N 0.27978 0.17622 0.44017 0.0
C826 C 0.27952 0.14455 0.45044 0.0
C827 C 0.25952 0.16734 0.46504 0.0
C828 C 0.2863 0.15849 0.43865 0.0
C829 C 0.26662 0.18088 0.45299 0.0
C830 C 0.28368 0.09595 0.5065 0.0
C831 C 0.30217 0.10106 0.50308 0.0
C832 C 0.27901 0.0771 0.50798 0.0
C833 C 0.31564 0.08718 0.50086 0.0
C834 C 0.29288 0.06364 0.50566 0.0
N835 N 0.31075 0.06891 0.50215 0.0
C836 C 0.29095 0.15648 0.52654 0.0
C837 C 0.30248 0.15475 0.49566 0.0
C838 C 0.30669 0.1665 0.53219 0.0
N839 N 0.28911 0.15091 0.50852 0.0
C840 C 0.31836 0.16481 0.50066 0.0
C841 C 0.32065 0.1708 0.51915 0.0
H842 H 0.28021 0.15304 0.53655 0.0
H843 H 0.30109 0.14962 0.48161 0.0
C844 C 0.25151 0.0819 0.45611 0.0
N845 N 0.2649 0.09213 0.46476 0.0
C846 C 0.25577 0.07165 0.44013 0.0
C847 C 0.28769 0.08212 0.44257 0.0
C848 C 0.2828 0.09217 0.45851 0.0
C849 C 0.27396 0.07207 0.43286 0.0
H850 H 0.23731 0.08236 0.46111 0.0
H851 H 0.29308 0.10083 0.46529 0.0
O852 O 0.24391 0.14194 0.51529 0.0
O853 O 0.23053 0.10882 0.49013 0.0
O854 O 0.25937 0.13555 0.47553 0.0
O855 O 0.27027 0.10934 0.50858 0.0
H856 H 0.21638 0.14952 0.53873 0.0
H857 H 0.25967 0.17386 0.5051 0.0
H858 H 0.2069 0.18123 0.54853 0.0
H859 H 0.24938 0.20513 0.51537 0.0
H860 H 0.21058 0.05113 0.5071 0.0
H861 H 0.19474 0.11685 0.49445 0.0
H862 H 0.23549 0.07294 0.49711 0.0
H863 H 0.17051 0.09428 0.50435 0.0
H864 H 0.17253 0.16629 0.48799 0.0
H865 H 0.20037 0.159 0.435 0.0
H866 H 0.24482 0.07675 0.57324 0.0
H867 H 0.19449 0.10778 0.56159 0.0
H868 H 0.2847 0.13048 0.44917 0.0
H869 H 0.24874 0.171 0.47489 0.0
H870 H 0.29673 0.1552 0.42827 0.0
H871 H 0.26159 0.19507 0.45376 0.0
H872 H 0.30607 0.11556 0.50202 0.0
H873 H 0.26485 0.07291 0.51092 0.0
H874 H 0.32998 0.09093 0.49809 0.0
H875 H 0.28944 0.04899 0.50668 0.0
H876 H 0.30785 0.17093 0.54657 0.0
H877 H 0.32895 0.16748 0.49024 0.0
H878 H 0.24479 0.06396 0.43319 0.0
H879 H 0.30181 0.0831 0.43732 0.0
Li880 Li 0.14023 0.01074 0.73707 0.0
Li881 Li 0.11298 0.01817 0.75584 0.0
Li882 Li 0.13617 0.99678 0.76856 0.0
Li883 Li 0.11679 0.98771 0.74315 0.0
C884 C 0.15631 0.02962 0.76801 0.0
N885 N 0.19062 0.04165 0.78072 0.0
C886 C 0.15777 0.04633 0.77791 0.0
C887 C 0.17231 0.01903 0.76457 0.0
C888 C 0.17525 0.05218 0.78421 0.0
C889 C 0.18952 0.02535 0.77112 0.0
C890 C 0.11095 0.02637 0.71801 0.0
C891 C 0.09865 0.0403 0.69 0.0
N892 N 0.10568 0.05707 0.69536 0.0
C893 C 0.11805 0.04375 0.72324 0.0
C894 C 0.10118 0.02461 0.70126 0.0
C895 C 0.11524 0.0591 0.7116 0.0
C896 C 0.1558 0.0131 0.70115 0.0
N897 N 0.15619 0.02113 0.71831 0.0
C898 C 0.17356 0.04695 0.70641 0.0
C899 C 0.16502 0.03766 0.72119 0.0
C900 C 0.17274 0.03938 0.68838 0.0
C901 C 0.16413 0.02197 0.68591 0.0
H902 H 0.14807 1.00033 0.69907 0.0
H903 H 0.16457 0.04426 0.73467 0.0
C904 C 0.10138 0.04772 0.77826 0.0
N905 N 0.09666 0.03799 0.76272 0.0
C906 C 0.09157 0.06379 0.78316 0.0
C907 C 0.07169 0.05911 0.75637 0.0
C908 C 0.08187 0.04308 0.75202 0.0
C909 C 0.07673 0.0699 0.77193 0.0
H910 H 0.11316 0.04328 0.78655 0.0
H911 H 0.0783 0.03503 0.73979 0.0
C912 C 0.1465 0.96627 0.74123 0.0
N913 N 0.14888 0.9288 0.73269 0.0
C914 C 0.14172 0.95287 0.75454 0.0
C915 C 0.15265 0.96062 0.72364 0.0
C916 C 0.14299 0.934 0.74994 0.0
C917 C 0.1537 0.9416 0.71958 0.0
C918 C 0.08991 0.99164 0.77111 0.0
C919 C 0.08282 0.98624 0.78842 0.0
C920 C 0.07771 0.99467 0.75622 0.0
C921 C 0.0636 0.98393 0.79055 0.0
C922 C 0.05859 0.99222 0.75891 0.0
N923 N 0.05198 0.98694 0.77588 0.0
C924 C 0.14063 0.99674 0.80704 0.0
C925 C 0.16358 0.9789 0.7913 0.0
C926 C 0.1487 0.99258 0.82424 0.0
N927 N 0.14813 0.98987 0.79108 0.0
C928 C 0.17204 0.97428 0.80823 0.0
C929 C 0.16461 0.98119 0.82499 0.0
H930 H 0.12836 0.00549 0.80637 0.0
H931 H 0.16937 0.97384 0.77835 0.0
C932 C 0.10699 0.96473 0.71317 0.0
N933 N 0.10508 0.96658 0.73192 0.0
C934 C 0.10134 0.94837 0.70431 0.0
C935 C 0.09095 0.93647 0.73407 0.0
C936 C 0.09703 0.953 0.74241 0.0
C937 C 0.09348 0.93386 0.71485 0.0
H938 H 0.11365 0.97569 0.70523 0.0
H939 H 0.09606 0.95463 0.75735 0.0
O940 O 0.13924 0.02362 0.76199 0.0
O941 O 0.11376 0.011 0.72894 0.0
O942 O 0.14474 0.98481 0.74529 0.0
O943 O 0.10872 0.994 0.76895 0.0
H944 H 0.14554 0.05471 0.78068 0.0
H945 H 0.1715 0.00609 0.75691 0.0
H946 H 0.17658 0.06509 0.79189 0.0
H947 H 0.20201 0.01729 0.76857 0.0
H948 H 0.09113 0.03913 0.67699 0.0
H949 H 0.12569 0.04542 0.73612 0.0
H950 H 0.09567 0.01123 0.69698 0.0
H951 H 0.12068 0.07261 0.71547 0.0
H952 H 0.18014 0.06028 0.70898 0.0
H953 H 0.16288 0.01578 0.67221 0.0
H954 H 0.09604 0.07173 0.79519 0.0
H955 H 0.06018 0.06317 0.74749 0.0
H956 H 0.13672 0.95702 0.76815 0.0
H957 H 0.15642 0.97079 0.71319 0.0
H958 H 0.13918 0.92348 0.76005 0.0
H959 H 0.15831 0.93702 0.70597 0.0
H960 H 0.09209 0.98386 0.80008 0.0
H961 H 0.08289 0.99881 0.74271 0.0
H962 H 0.05792 0.97974 0.80387 0.0
H963 H 0.04899 0.99451 0.74751 0.0
H964 H 0.14241 0.99803 0.83683 0.0
H965 H 0.18442 0.96563 0.80818 0.0
H966 H 0.1034 0.94692 0.68943 0.0
H967 H 0.08515 0.92553 0.74269 0.0
Li968 Li 0.26846 0.86355 0.9904 0.0
Li969 Li 0.25861 0.88431 0.0142 0.0
Li970 Li 0.23627 0.86042 0.00401 0.0
Li971 Li 0.24506 0.88769 0.98415 0.0
C972 C 0.27164 0.85468 0.03163 0.0
N973 N 0.29283 0.85272 0.06374 0.0
C974 C 0.29108 0.85558 0.03062 0.0
C975 C 0.26299 0.85271 0.04897 0.0
C976 C 0.30155 0.85454 0.04701 0.0
C977 C 0.27394 0.8518 0.06504 0.0
C978 C 0.28512 0.9031 0.99542 0.0
C979 C 0.29454 0.9336 0.00596 0.0
N980 N 0.31267 0.92807 0.00549 0.0
C981 C 0.30385 0.89773 0.995 0.0
C982 C 0.28041 0.9212 0.00088 0.0
C983 C 0.31757 0.91056 1.00015 0.0
C984 C 0.2954 0.85782 0.963 0.0
N985 N 0.28824 0.85017 0.97877 0.0
C986 C 0.30868 0.82397 0.97605 0.0
C987 C 0.29451 0.83356 0.98541 0.0
C988 C 0.31611 0.83145 0.95955 0.0
C989 C 0.30933 0.84861 0.95307 0.0
H990 H 0.29008 0.87102 0.95803 0.0
H991 H 0.28839 0.82769 0.99788 0.0
C992 C 0.25163 0.90143 0.0486 0.0
N993 N 0.26576 0.89697 0.03677 0.0
C994 C 0.25547 0.90896 0.06613 0.0
C995 C 0.28833 0.9077 0.05887 0.0
C996 C 0.28387 0.89991 0.04161 0.0
C997 C 0.27403 0.91208 0.07145 0.0
H998 H 0.23737 0.89864 0.04462 0.0
H999 H 0.29496 0.89566 0.0324 0.0
C1000 C 0.24791 0.84922 0.96326 0.0
N1001 N 0.25855 0.82535 0.93501 0.0
C1002 C 0.25191 0.85623 0.94554 0.0
C1003 C 0.24924 0.83008 0.96662 0.0
C1004 C 0.25727 0.84392 0.93143 0.0
C1005 C 0.25468 0.81824 0.95215 0.0
C1006 C 0.21781 0.89932 0.00508 0.0
C1007 C 0.20076 0.89263 0.99844 0.0
C1008 C 0.22047 0.91847 0.00734 0.0
C1009 C 0.18666 0.9053 0.99399 0.0
C1010 C 0.20603 0.93069 0.00273 0.0
N1011 N 0.18957 0.92391 0.99619 0.0
C1012 C 0.20973 0.84532 0.02857 0.0
C1013 C 0.2066 0.83522 0.9973 0.0
C1014 C 0.1937 0.83553 0.03369 0.0
N1015 N 0.21584 0.84495 0.01066 0.0
C1016 C 0.19044 0.8253 0.00177 0.0
C1017 C 0.18368 0.82547 0.02018 0.0
H1018 H 0.21705 0.85361 0.03879 0.0
H1019 H 0.21145 0.83561 0.98304 0.0
C1020 C 0.24247 0.92081 0.96226 0.0
N1021 N 0.23509 0.90366 0.96545 0.0
C1022 C 0.23507 0.93222 0.94833 0.0
C1023 C 0.21275 0.90802 0.94114 0.0
C1024 C 0.22052 0.89713 0.95526 0.0
C1025 C 0.22004 0.92582 0.93751 0.0
H1026 H 0.25417 0.92559 0.97041 0.0
H1027 H 0.21496 0.88341 0.95811 0.0
O1028 O 0.26116 0.85607 0.01577 0.0
O1029 O 0.27153 0.89079 0.99024 0.0
O1030 O 0.24325 0.86109 0.9774 0.0
O1031 O 0.23199 0.88721 0.00895 0.0
H1032 H 0.29802 0.85743 0.01737 0.0
H1033 H 0.24798 0.85209 0.05004 0.0
H1034 H 0.3166 0.85533 0.04643 0.0
H1035 H 0.26741 0.85041 0.07856 0.0
H1036 H 0.29108 0.94761 0.01033 0.0
H1037 H 0.30776 0.88377 0.99088 0.0
H1038 H 0.26599 0.92554 0.00147 0.0
H1039 H 0.33211 0.90657 0.99994 0.0
H1040 H 0.31346 0.81068 0.98137 0.0
H1041 H 0.31481 0.8549 0.94049 0.0
H1042 H 0.24407 0.91215 0.07549 0.0
H1043 H 0.30283 0.90958 0.06263 0.0
H1044 H 0.2511 0.87103 0.94277 0.0
H1045 H 0.24638 0.82449 0.98033 0.0
H1046 H 0.26051 0.84914 0.91767 0.0
H1047 H 0.25589 0.80341 0.95458 0.0
H1048 H 0.19853 0.87785 0.99652 0.0
H1049 H 0.23358 0.92384 0.01251 0.0
H1050 H 0.17343 0.90035 0.98872 0.0
H1051 H 0.20791 0.94556 0.00431 0.0
H1052 H 0.18917 0.83595 0.04808 0.0
H1053 H 0.18301 0.81807 0.9908 0.0
H1054 H 0.24126 0.94575 0.94584 0.0
H1055 H 0.20105 0.90263 0.93327 0.0
Li1056 Li 0.24556 0.38453 0.01582 0.0
Li1057 Li 0.26771 0.36152 0.00385 0.0
Li1058 Li 0.25795 0.38785 0.98362 0.0
Li1059 Li 0.23685 0.36172 0.99041 0.0
C1060 C 0.27818 0.40546 0.01461 0.0
N1061 N 0.29083 0.43927 0.02806 0.0
C1062 C 0.2931 0.40607 0.02713 0.0
C1063 C 0.26984 0.42206 0.0088 0.0
C1064 C 0.29925 0.4233 0.03382 0.0
C1065 C 0.27639 0.43901 0.01578 0.0
C1066 C 0.24874 0.34356 0.02932 0.0
C1067 C 0.25503 0.31144 0.03692 0.0
N1068 N 0.2601 0.31667 0.05442 0.0
C1069 C 0.25388 0.34861 0.04741 0.0
C1070 C 0.24919 0.32482 0.02405 0.0
C1071 C 0.25962 0.33481 0.05989 0.0
C1072 C 0.21666 0.39612 0.03849 0.0
N1073 N 0.23556 0.39622 0.03745 0.0
C1074 C 0.23776 0.4087 0.06829 0.0
C1075 C 0.2462 0.40252 0.05183 0.0
C1076 C 0.21823 0.4082 0.06996 0.0
C1077 C 0.20767 0.40218 0.05461 0.0
H1078 H 0.20858 0.39082 0.02692 0.0
H1079 H 0.26121 0.402 0.05088 0.0
C1080 C 0.29443 0.3324 1.0 0.0
N1081 N 0.2883 0.34639 0.0112 0.0
C1082 C 0.30946 0.3213 0.00549 0.0
C1083 C 0.31176 0.33939 0.0338 0.0
C1084 C 0.29664 0.35007 0.02781 0.0
C1085 C 0.31835 0.32476 0.02259 0.0
H1086 H 0.28771 0.32989 0.98677 0.0
H1087 H 0.29141 0.36122 0.03648 0.0
C1088 C 0.22078 0.403 0.98566 0.0
N1089 N 0.19819 0.43138 0.97263 0.0
C1090 C 0.21017 0.40049 0.96952 0.0
C1091 C 0.21959 0.41985 0.99538 0.0
C1092 C 0.19894 0.41503 0.96309 0.0
C1093 C 0.20817 0.43406 0.98852 0.0
C1094 C 0.25734 0.34978 0.9621 0.0
C1095 C 0.25662 0.35716 0.94409 0.0
C1096 C 0.254 0.33079 0.96486 0.0
C1097 C 0.25233 0.34544 0.92915 0.0
C1098 C 0.24974 0.31953 0.94956 0.0
N1099 N 0.24899 0.32703 0.93217 0.0
C1100 C 0.28444 0.41087 0.96624 0.0
C1101 C 0.25561 0.4098 0.95019 0.0
C1102 C 0.29191 0.42271 0.95274 0.0
N1103 N 0.26653 0.40483 0.96487 0.0
C1104 C 0.2626 0.42145 0.93622 0.0
C1105 C 0.28097 0.42809 0.93744 0.0
H1106 H 0.29305 0.40628 0.97771 0.0
H1107 H 0.24165 0.40435 0.94902 0.0
C1108 C 0.20643 0.33796 0.99521 0.0
N1109 N 0.21599 0.34742 0.98189 0.0
C1110 C 0.18979 0.32889 0.99084 0.0
C1111 C 0.19329 0.33902 0.95893 0.0
C1112 C 0.2099 0.34792 0.96393 0.0
C1113 C 0.18279 0.32968 0.97258 0.0
H1114 H 0.21142 0.33793 0.00942 0.0
H1115 H 0.21757 0.35573 0.95361 0.0
O1116 O 0.27188 0.38868 0.00808 0.0
O1117 O 0.24352 0.35692 0.01677 0.0
O1118 O 0.23165 0.38879 0.99231 0.0
O1119 O 0.26142 0.36107 0.97692 0.0
H1120 H 0.29984 0.39339 0.03169 0.0
H1121 H 0.25859 0.42188 0.99883 0.0
H1122 H 0.31072 0.42396 0.04357 0.0
H1123 H 0.27004 0.45195 0.01138 0.0
H1124 H 0.25555 0.29689 0.03299 0.0
H1125 H 0.25366 0.36305 0.05171 0.0
H1126 H 0.24513 0.32066 0.01015 0.0
H1127 H 0.26376 0.33853 0.0739 0.0
H1128 H 0.24644 0.41302 0.07986 0.0
H1129 H 0.19259 0.4018 0.05517 0.0
H1130 H 0.31423 0.3103 0.99632 0.0
H1131 H 0.31804 0.34238 0.0472 0.0
H1132 H 0.21078 0.38753 0.96189 0.0
H1133 H 0.22726 0.42195 0.00817 0.0
H1134 H 0.1908 0.4133 0.95051 0.0
H1135 H 0.20719 0.44718 0.99587 0.0
H1136 H 0.25935 0.37176 0.94166 0.0
H1137 H 0.25452 0.32484 0.97868 0.0
H1138 H 0.25167 0.35098 0.91514 0.0
H1139 H 0.247 0.30483 0.95152 0.0
H1140 H 0.30627 0.42721 0.95401 0.0
H1141 H 0.25373 0.42523 0.9246 0.0
H1142 H 0.18229 0.32166 0.00176 0.0
H1143 H 0.18832 0.34015 0.94472 0.0
Li1144 Li 0.73687 0.13717 0.00607 0.0
Li1145 Li 0.75964 0.11164 0.01231 0.0
Li1146 Li 0.76721 0.13627 0.99017 0.0
Li1147 Li 0.74483 0.11254 0.9821 0.0
C1148 C 0.77537 0.15077 0.02306 0.0
N1149 N 0.80367 0.17504 0.03277 0.0
C1150 C 0.79147 0.14408 0.03177 0.0
C1151 C 0.77364 0.16982 0.01937 0.0
C1152 C 0.80561 0.15657 0.03657 0.0
C1153 C 0.78811 0.18185 0.02435 0.0
C1154 C 0.72757 0.09761 0.02064 0.0
C1155 C 0.72574 0.06649 0.03319 0.0
N1156 N 0.71931 0.07358 0.04956 0.0
C1157 C 0.72092 0.10459 0.03756 0.0
C1158 C 0.72998 0.07841 0.0184 0.0
C1159 C 0.71682 0.09221 0.05201 0.0
C1160 C 0.6994 0.1474 0.01214 0.0
N1161 N 0.7173 0.15126 0.017 0.0
C1162 C 0.70703 0.17305 0.03996 0.0
C1163 C 0.72135 0.16387 0.03052 0.0
C1164 C 0.68833 0.16898 0.03569 0.0
C1165 C 0.68461 0.15614 0.02135 0.0
H1166 H 0.69662 0.13709 0.0015 0.0
H1167 H 0.73569 0.16648 0.03429 0.0
C1168 C 0.77778 0.07996 0.02765 0.0
N1169 N 0.76927 0.09633 0.03187 0.0
C1170 C 0.78587 0.0692 0.04168 0.0
C1171 C 0.7762 0.09225 0.06423 0.0
C1172 C 0.76807 0.10246 0.04976 0.0
C1173 C 0.78554 0.07548 0.06025 0.0
H1174 H 0.77857 0.07538 0.01336 0.0
H1175 H 0.76125 0.11558 0.05271 0.0
C1176 C 0.7407 0.15587 0.96859 0.0
N1177 N 0.73762 0.18797 0.94753 0.0
C1178 C 0.74327 0.1552 0.94929 0.0
C1179 C 0.73639 0.17283 0.97715 0.0
C1180 C 0.74171 0.17159 0.9389 0.0
C1181 C 0.73494 0.18891 0.96627 0.0
C1182 C 0.77737 0.09783 0.97366 0.0
C1183 C 0.78813 0.10489 0.95904 0.0
C1184 C 0.77207 0.07907 0.97352 0.0
C1185 C 0.79341 0.09306 0.94451 0.0
C1186 C 0.7776 0.06771 0.95871 0.0
N1187 N 0.78807 0.07488 0.94464 0.0
C1188 C 0.80497 0.14353 0.9877 0.0
C1189 C 0.78765 0.16669 0.97178 0.0
C1190 C 0.82162 0.15275 0.98377 0.0
N1191 N 0.78838 0.15065 0.98189 0.0
C1192 C 0.80405 0.17617 0.96716 0.0
C1193 C 0.82126 0.16928 0.97338 0.0
H1194 H 0.80521 0.13072 0.99564 0.0
H1195 H 0.77447 0.17237 0.96745 0.0
C1196 C 0.72011 0.08639 0.96581 0.0
N1197 N 0.73442 0.09824 0.96213 0.0
C1198 C 0.71243 0.07554 0.95158 0.0
C1199 C 0.7342 0.08944 0.92998 0.0
C1200 C 0.74136 0.1001 0.9446 0.0
C1201 C 0.71956 0.07687 0.93336 0.0
H1202 H 0.71461 0.08539 0.97979 0.0
H1203 H 0.75267 0.10968 0.94199 0.0
O1204 O 0.76158 0.13868 0.01778 0.0
O1205 O 0.73223 0.10954 0.00654 0.0
O1206 O 0.74195 0.13992 0.97895 0.0
O1207 O 0.77196 0.10922 0.98798 0.0
H1208 H 0.79318 0.12936 0.03452 0.0
H1209 H 0.76138 0.17523 0.01248 0.0
H1210 H 0.81819 0.15157 0.04321 0.0
H1211 H 0.78701 0.19661 0.02145 0.0
H1212 H 0.72764 0.05161 0.0317 0.0
H1213 H 0.71915 0.11942 0.0396 0.0
H1214 H 0.73528 0.07279 0.00545 0.0
H1215 H 0.71174 0.09742 0.06521 0.0
H1216 H 0.71062 0.18304 0.05068 0.0
H1217 H 0.67046 0.15235 0.01773 0.0
H1218 H 0.79254 0.05619 0.03793 0.0
H1219 H 0.77573 0.09781 0.07824 0.0
H1220 H 0.74652 0.14221 0.94241 0.0
H1221 H 0.73425 0.17362 0.99203 0.0
H1222 H 0.74374 0.1713 0.92397 0.0
H1223 H 0.73169 0.20214 0.97273 0.0
H1224 H 0.79221 0.11939 0.95877 0.0
H1225 H 0.76344 0.07343 0.9845 0.0
H1226 H 0.8017 0.09836 0.93308 0.0
H1227 H 0.77347 0.05321 0.95836 0.0
H1228 H 0.83467 0.14696 0.98869 0.0
H1229 H 0.80328 0.18898 0.9592 0.0
H1230 H 0.7009 0.06635 0.95481 0.0
H1231 H 0.74032 0.09082 0.91626 0.0
Li1232 Li 0.13965 0.5064 0.26804 0.0
Li1233 Li 0.11406 0.48516 0.25865 0.0
Li1234 Li 0.13899 0.49059 0.2364 0.0
Li1235 Li 0.1166 0.51498 0.24514 0.0
C1236 C 0.15886 0.47269 0.26423 0.0
N1237 N 0.19489 0.46015 0.26981 0.0
C1238 C 0.16206 0.45567 0.27316 0.0
C1239 C 0.17403 0.48334 0.25817 0.0
C1240 C 0.18036 0.44958 0.27585 0.0
C1241 C 0.19212 0.47676 0.26111 0.0
C1242 C 0.10086 0.52284 0.27804 0.0
C1243 C 0.07101 0.53833 0.27746 0.0
N1244 N 0.07731 0.55078 0.29028 0.0
C1245 C 0.10697 0.53569 0.29134 0.0
C1246 C 0.08267 0.52406 0.27117 0.0
C1247 C 0.09488 0.54974 0.29731 0.0
C1248 C 0.15899 0.53165 0.2924 0.0
N1249 N 0.15417 0.51359 0.28925 0.0
C1250 C 0.16618 0.50463 0.319 0.0
C1251 C 0.15764 0.50016 0.30214 0.0
C1252 C 0.17073 0.52326 0.32301 0.0
C1253 C 0.16732 0.53682 0.30926 0.0
H1254 H 0.1554 0.54221 0.28233 0.0
H1255 H 0.15316 0.48601 0.29965 0.0
C1256 C 0.10548 0.44875 0.27054 0.0
N1257 N 0.09815 0.46605 0.26826 0.0
C1258 C 0.09502 0.43465 0.27895 0.0
C1259 C 0.06926 0.45616 0.28156 0.0
C1260 C 0.08034 0.46992 0.27339 0.0
C1261 C 0.07668 0.4383 0.28486 0.0
H1262 H 0.11961 0.44599 0.26613 0.0
H1263 H 0.07475 0.48372 0.27132 0.0
C1264 C 0.14646 0.53239 0.23162 0.0
N1265 N 0.14872 0.56341 0.20884 0.0
C1266 C 0.13931 0.53183 0.2135 0.0
C1267 C 0.15497 0.54869 0.23805 0.0
C1268 C 0.14051 0.54766 0.20223 0.0
C1269 C 0.15594 0.56423 0.22635 0.0
C1270 C 0.09754 0.47946 0.22754 0.0
C1271 C 0.10144 0.4609 0.22309 0.0
C1272 C 0.07901 0.48545 0.22828 0.0
C1273 C 0.08675 0.4486 0.21965 0.0
C1274 C 0.0647 0.47274 0.22472 0.0
N1275 N 0.06883 0.45472 0.22054 0.0
C1276 C 0.15417 0.45955 0.2183 0.0
C1277 C 0.1608 0.48781 0.20263 0.0
C1278 C 0.16189 0.44926 0.20372 0.0
N1279 N 0.15323 0.47844 0.21727 0.0
C1280 C 0.16855 0.47806 0.18764 0.0
C1281 C 0.16867 0.45847 0.18781 0.0
H1282 H 0.14833 0.4524 0.2302 0.0
H1283 H 0.16037 0.50281 0.20222 0.0
C1284 C 0.10566 0.55337 0.24333 0.0
N1285 N 0.10369 0.53632 0.23522 0.0
C1286 C 0.09845 0.56926 0.23468 0.0
C1287 C 0.08748 0.54982 0.20945 0.0
C1288 C 0.09458 0.53428 0.21873 0.0
C1289 C 0.08963 0.56758 0.21732 0.0
H1290 H 0.11352 0.55473 0.25611 0.0
H1291 H 0.09375 0.52073 0.21224 0.0
O1292 O 0.14096 0.47878 0.26149 0.0
O1293 O 0.11256 0.509 0.27202 0.0
O1294 O 0.14488 0.51717 0.24304 0.0
O1295 O 0.11176 0.49157 0.23151 0.0
H1296 H 0.15055 0.44727 0.27808 0.0
H1297 H 0.17196 0.49653 0.25123 0.0
H1298 H 0.18302 0.43644 0.28275 0.0
H1299 H 0.20396 0.48485 0.25647 0.0
H1300 H 0.05696 0.53953 0.2721 0.0
H1301 H 0.12086 0.53481 0.29707 0.0
H1302 H 0.0777 0.51435 0.26082 0.0
H1303 H 0.09947 0.55981 0.30755 0.0
H1304 H 0.16875 0.49362 0.32899 0.0
H1305 H 0.17021 0.55141 0.31182 0.0
H1306 H 0.10151 0.42123 0.2813 0.0
H1307 H 0.05507 0.45959 0.28539 0.0
H1308 H 0.13244 0.51943 0.20835 0.0
H1309 H 0.16083 0.54937 0.25188 0.0
H1310 H 0.1348 0.54746 0.18828 0.0
H1311 H 0.16243 0.57695 0.23119 0.0
H1312 H 0.11564 0.45597 0.22254 0.0
H1313 H 0.07565 0.49973 0.23168 0.0
H1314 H 0.08959 0.43418 0.21632 0.0
H1315 H 0.0503 0.47718 0.22534 0.0
H1316 H 0.16212 0.43421 0.20473 0.0
H1317 H 0.1736 0.48579 0.17571 0.0
H1318 H 0.10062 0.5828 0.24099 0.0
H1319 H 0.08085 0.54806 0.196 0.0
Li1320 Li 0.74286 0.89193 0.51335 0.0
Li1321 Li 0.76656 0.8681 0.50838 0.0
Li1322 Li 0.75928 0.89231 0.48383 0.0
Li1323 Li 0.73743 0.86665 0.48977 0.0
C1324 C 0.77416 0.90882 0.52235 0.0
N1325 N 0.78152 0.93518 0.54944 0.0
C1326 C 0.78145 0.90339 0.53957 0.0
C1327 C 0.77085 0.92768 0.51882 0.0
C1328 C 0.78503 0.91692 0.55311 0.0
C1329 C 0.77459 0.94079 0.53272 0.0
C1330 C 0.73734 0.84803 0.52638 0.0
C1331 C 0.73446 0.81454 0.52595 0.0
N1332 N 0.73073 0.8147 0.54453 0.0
C1333 C 0.7332 0.84788 0.54542 0.0
C1334 C 0.73775 0.83125 0.51652 0.0
C1335 C 0.73002 0.83088 0.55436 0.0
C1336 C 0.71829 0.91944 0.52777 0.0
N1337 N 0.73119 0.90637 0.53239 0.0
C1338 C 0.72601 0.91187 0.56485 0.0
C1339 C 0.7353 0.90257 0.55049 0.0
C1340 C 0.71228 0.92516 0.56054 0.0
C1341 C 0.7087 0.92911 0.54168 0.0
H1342 H 0.71512 0.92209 0.51331 0.0
H1343 H 0.74552 0.89201 0.55377 0.0
C1344 C 0.80247 0.85188 0.511 0.0
N1345 N 0.78622 0.85477 0.52032 0.0
C1346 C 0.81792 0.84437 0.52023 0.0
C1347 C 0.79949 0.84269 0.54836 0.0
C1348 C 0.78442 0.85014 0.53859 0.0
C1349 C 0.81664 0.84008 0.53929 0.0
H1350 H 0.80364 0.85603 0.49655 0.0
H1351 H 0.77159 0.85307 0.54586 0.0
C1352 C 0.7255 0.90617 0.47514 0.0
N1353 N 0.71323 0.93116 0.44852 0.0
C1354 C 0.71452 0.90004 0.46026 0.0
C1355 C 0.73001 0.92506 0.47661 0.0
C1356 C 0.7085 0.91287 0.44692 0.0
C1357 C 0.72375 0.93746 0.46297 0.0
C1358 C 0.76868 0.85026 0.47006 0.0
C1359 C 0.77086 0.8525 0.45083 0.0
C1360 C 0.77228 0.83291 0.47816 0.0
C1361 C 0.77608 0.83722 0.43996 0.0
C1362 C 0.77751 0.81798 0.46682 0.0
N1363 N 0.77925 0.82041 0.44811 0.0
C1364 C 0.78361 0.91909 0.46753 0.0
C1365 C 0.76195 0.90529 0.44679 0.0
C1366 C 0.79093 0.92997 0.45312 0.0
N1367 N 0.76932 0.90713 0.46414 0.0
C1368 C 0.76873 0.91597 0.43202 0.0
C1369 C 0.78345 0.92854 0.43505 0.0
H1370 H 0.78941 0.92009 0.4814 0.0
H1371 H 0.75072 0.89553 0.44441 0.0
C1372 C 0.70295 0.84764 0.48777 0.0
N1373 N 0.71872 0.85179 0.47809 0.0
C1374 C 0.68774 0.83945 0.47874 0.0
C1375 C 0.70547 0.83954 0.45011 0.0
C1376 C 0.72032 0.84766 0.45968 0.0
C1377 C 0.68873 0.83576 0.45954 0.0
H1378 H 0.70189 0.85146 0.50231 0.0
H1379 H 0.73271 0.85162 0.45216 0.0
O1380 O 0.77023 0.89572 0.50905 0.0
O1381 O 0.74044 0.8646 0.51742 0.0
O1382 O 0.73174 0.89374 0.48821 0.0
O1383 O 0.76375 0.86517 0.48092 0.0
H1384 H 0.78417 0.88889 0.54254 0.0
H1385 H 0.76545 0.93217 0.50551 0.0
H1386 H 0.79055 0.91289 0.56655 0.0
H1387 H 0.772 0.95542 0.5302 0.0
H1388 H 0.73478 0.80145 0.51847 0.0
H1389 H 0.73256 0.86074 0.55324 0.0
H1390 H 0.7403 0.83111 0.5017 0.0
H1391 H 0.72696 0.83056 0.56912 0.0
H1392 H 0.72908 0.90817 0.57915 0.0
H1393 H 0.69843 0.93941 0.53768 0.0
H1394 H 0.83094 0.84279 0.51276 0.0
H1395 H 0.79786 0.83946 0.56302 0.0
H1396 H 0.71069 0.88554 0.45899 0.0
H1397 H 0.73836 0.93008 0.48808 0.0
H1398 H 0.70008 0.90829 0.43529 0.0
H1399 H 0.72727 0.95209 0.46387 0.0
H1400 H 0.76842 0.86586 0.44433 0.0
H1401 H 0.77131 0.83101 0.49306 0.0
H1402 H 0.77766 0.83874 0.42505 0.0
H1403 H 0.78028 0.80447 0.47292 0.0
H1404 H 0.8025 0.93919 0.45608 0.0
H1405 H 0.76233 0.91452 0.41843 0.0
H1406 H 0.67502 0.83698 0.48648 0.0
H1407 H 0.70687 0.83683 0.43533 0.0
Li1408 Li 0.8914 0.01958 0.25373 0.0
Li1409 Li 0.86543 0.99659 0.26401 0.0
Li1410 Li 0.89143 0.98692 0.24417 0.0
Li1411 Li 0.8686 0.0064 0.23163 0.0
C1412 C 0.90755 0.98788 0.27764 0.0
N1413 N 0.93738 0.96855 0.29242 0.0
C1414 C 0.90529 0.96948 0.28359 0.0
C1415 C 0.92494 0.99651 0.27931 0.0
C1416 C 0.92056 0.95992 0.29098 0.0
C1417 C 0.93985 0.98649 0.28682 0.0
C1418 C 0.85022 0.03385 0.24674 0.0
C1419 C 0.81802 0.04088 0.24018 0.0
N1420 N 0.82344 0.05644 0.23081 0.0
C1421 C 0.85548 0.04995 0.23712 0.0
C1422 C 0.83135 0.02927 0.24834 0.0
C1423 C 0.84173 0.06117 0.22913 0.0
C1424 C 0.91073 0.05278 0.24663 0.0
N1425 N 0.90435 0.04157 0.26047 0.0
C1426 C 0.91341 0.06382 0.28354 0.0
C1427 C 0.90566 0.04662 0.27868 0.0
C1428 C 0.91974 0.07595 0.2695 0.0
C1429 C 0.9186 0.07006 0.25084 0.0
H1430 H 0.90925 0.0485 0.23225 0.0
H1431 H 0.9002 0.0375 0.28937 0.0
C1432 C 0.8507 0.97244 0.29122 0.0
N1433 N 0.85052 0.9903 0.28495 0.0
C1434 C 0.84206 0.96786 0.30806 0.0
C1435 C 0.83243 0.99999 0.31117 0.0
C1436 C 0.84146 0.00398 0.29439 0.0
C1437 C 0.83302 0.98179 0.31849 0.0
H1438 H 0.85809 0.96186 0.28344 0.0
H1439 H 0.8417 0.01811 0.28915 0.0
C1440 C 0.90984 0.00412 0.21738 0.0
N1441 N 0.93862 0.99264 0.19453 0.0
C1442 C 0.90627 0.99221 0.20239 0.0
C1443 C 0.928 0.01036 0.22065 0.0
C1444 C 0.92102 0.9865 0.19104 0.0
C1445 C 0.94237 0.00437 0.20895 0.0
C1446 C 0.84963 0.97428 0.23206 0.0
C1447 C 0.85175 0.96752 0.21391 0.0
C1448 C 0.83202 0.97419 0.24039 0.0
C1449 C 0.83614 0.96094 0.20432 0.0
C1450 C 0.81676 0.96746 0.23034 0.0
N1451 N 0.81911 0.96105 0.21266 0.0
C1452 C 0.89902 0.95031 0.23203 0.0
C1453 C 0.92625 0.96741 0.23948 0.0
C1454 C 0.90974 0.93546 0.22545 0.0
N1455 N 0.90736 0.96606 0.23848 0.0
C1456 C 0.93751 0.9529 0.23306 0.0
C1457 C 0.92927 0.93679 0.22554 0.0
H1458 H 0.884 0.94947 0.23147 0.0
H1459 H 0.93263 0.97999 0.2447 0.0
C1460 C 0.86724 0.02269 0.19658 0.0
N1461 N 0.85599 0.01377 0.20894 0.0
C1462 C 0.86055 0.02803 0.17918 0.0
C1463 C 0.83029 0.016 0.18768 0.0
C1464 C 0.83764 0.01082 0.20502 0.0
C1465 C 0.84196 0.02436 0.17435 0.0
H1466 H 0.88154 0.02566 0.20016 0.0
H1467 H 0.8287 0.00433 0.21522 0.0
O1468 O 0.89284 0.99743 0.27021 0.0
O1469 O 0.86349 0.02243 0.2542 0.0
O1470 O 0.8956 0.00965 0.22878 0.0
O1471 O 0.86478 0.98059 0.24175 0.0
H1472 H 0.89195 0.96258 0.28229 0.0
H1473 H 0.92694 0.01072 0.2747 0.0
H1474 H 0.91905 0.94563 0.29552 0.0
H1475 H 0.95342 0.99295 0.28812 0.0
H1476 H 0.80337 0.03746 0.24122 0.0
H1477 H 0.87005 0.0536 0.23568 0.0
H1478 H 0.82708 0.01677 0.25561 0.0
H1479 H 0.84559 0.07361 0.22155 0.0
H1480 H 0.91377 0.06787 0.29808 0.0
H1481 H 0.9235 0.07883 0.23958 0.0
H1482 H 0.84314 0.95371 0.31316 0.0
H1483 H 0.82535 0.01113 0.31847 0.0
H1484 H 0.89227 0.98731 0.19965 0.0
H1485 H 0.93102 0.01951 0.23225 0.0
H1486 H 0.91849 0.97717 0.17948 0.0
H1487 H 0.95652 0.00898 0.21138 0.0
H1488 H 0.86529 0.96743 0.20728 0.0
H1489 H 0.83012 0.97933 0.25443 0.0
H1490 H 0.83755 0.95575 0.19023 0.0
H1491 H 0.80303 0.96737 0.23659 0.0
H1492 H 0.90276 0.9234 0.21966 0.0
H1493 H 0.95252 0.95442 0.23369 0.0
H1494 H 0.86989 0.03496 0.16956 0.0
H1495 H 0.81581 0.01308 0.18457 0.0
Li1496 Li 0.23586 0.63962 0.50954 0.0
Li1497 Li 0.25925 0.61598 0.5175 0.0
Li1498 Li 0.26693 0.64232 0.49539 0.0
Li1499 Li 0.24684 0.61655 0.48533 0.0
C1500 C 0.25823 0.65812 0.53402 0.0
N1501 N 0.25395 0.68823 0.55762 0.0
C1502 C 0.25723 0.65539 0.55328 0.0
C1503 C 0.2573 0.67617 0.52679 0.0
C1504 C 0.25498 0.67079 0.56498 0.0
C1505 C 0.25508 0.69121 0.53894 0.0
C1506 C 0.22669 0.59558 0.51585 0.0
C1507 C 0.22649 0.56197 0.51574 0.0
N1508 N 0.2137 0.56209 0.52973 0.0
C1509 C 0.21338 0.59537 0.53007 0.0
C1510 C 0.23317 0.57875 0.50849 0.0
C1511 C 0.20706 0.5783 0.53697 0.0
C1512 C 0.20175 0.66055 0.50938 0.0
N1513 N 0.21451 0.65133 0.51993 0.0
C1514 C 0.19503 0.65369 0.54679 0.0
C1515 C 0.21156 0.64804 0.53833 0.0
C1516 C 0.18121 0.66259 0.53616 0.0
C1517 C 0.1849 0.66644 0.5173 0.0
H1518 H 0.20428 0.66261 0.49467 0.0
H1519 H 0.22173 0.64027 0.54626 0.0
C1520 C 0.2838 0.59199 0.53819 0.0
N1521 N 0.26724 0.6012 0.53799 0.0
C1522 C 0.28894 0.58142 0.55375 0.0
C1523 C 0.26 0.59025 0.56857 0.0
C1524 C 0.25553 0.60073 0.55286 0.0
C1525 C 0.27686 0.58035 0.56914 0.0
H1526 H 0.29304 0.5929 0.52632 0.0
H1527 H 0.24273 0.60867 0.55255 0.0
C1528 C 0.24192 0.657 0.46925 0.0
N1529 N 0.24154 0.68373 0.44154 0.0
C1530 C 0.24453 0.65185 0.45065 0.0
C1531 C 0.23878 0.67569 0.47373 0.0
C1532 C 0.24439 0.66559 0.43685 0.0
C1533 C 0.23874 0.68901 0.45953 0.0
C1534 C 0.28354 0.60311 0.48307 0.0
C1535 C 0.29448 0.60969 0.46836 0.0
C1536 C 0.28332 0.58405 0.48711 0.0
C1537 C 0.30471 0.59703 0.45767 0.0
C1538 C 0.29373 0.57184 0.47609 0.0
N1539 N 0.3041 0.57852 0.4617 0.0
C1540 C 0.29794 0.66548 0.50173 0.0
C1541 C 0.28984 0.66273 0.46985 0.0
C1542 C 0.31333 0.67652 0.49721 0.0
N1543 N 0.28656 0.65883 0.4881 0.0
C1544 C 0.30508 0.67368 0.4647 0.0
C1545 C 0.31718 0.6806 0.47846 0.0
H1546 H 0.29532 0.66183 0.5161 0.0
H1547 H 0.281 0.65688 0.4592 0.0
C1548 C 0.21995 0.59631 0.46617 0.0
N1549 N 0.23806 0.60175 0.46495 0.0
C1550 C 0.21194 0.58547 0.45218 0.0
C1551 C 0.24116 0.58643 0.43547 0.0
C1552 C 0.24864 0.59725 0.44986 0.0
C1553 C 0.2226 0.58026 0.4366 0.0
H1554 H 0.21167 0.60047 0.47805 0.0
H1555 H 0.2628 0.60217 0.44885 0.0
O1556 O 0.26025 0.6432 0.52233 0.0
O1557 O 0.23322 0.61218 0.50906 0.0
O1558 O 0.2419 0.64372 0.48291 0.0
O1559 O 0.27352 0.61533 0.49374 0.0
H1560 H 0.25806 0.64151 0.55912 0.0
H1561 H 0.2584 0.67853 0.51196 0.0
H1562 H 0.25407 0.66888 0.5799 0.0
H1563 H 0.2543 0.70525 0.53352 0.0
H1564 H 0.23143 0.54885 0.5102 0.0
H1565 H 0.20807 0.60825 0.53582 0.0
H1566 H 0.24312 0.57866 0.49721 0.0
H1567 H 0.19687 0.57794 0.54807 0.0
H1568 H 0.19289 0.65064 0.56141 0.0
H1569 H 0.17455 0.6731 0.50857 0.0
H1570 H 0.30209 0.574 0.55368 0.0
H1571 H 0.25048 0.59014 0.58029 0.0
H1572 H 0.24683 0.63744 0.44692 0.0
H1573 H 0.23627 0.67986 0.48798 0.0
H1574 H 0.24654 0.66182 0.42241 0.0
H1575 H 0.2364 0.70354 0.46281 0.0
H1576 H 0.29496 0.62437 0.46512 0.0
H1577 H 0.27533 0.57874 0.49872 0.0
H1578 H 0.31313 0.60192 0.44615 0.0
H1579 H 0.29362 0.55705 0.47902 0.0
H1580 H 0.32245 0.68128 0.50826 0.0
H1581 H 0.30746 0.67655 0.45008 0.0
H1582 H 0.19746 0.58141 0.45344 0.0
H1583 H 0.24987 0.58276 0.4237 0.0
Li1584 Li 0.38996 0.51586 0.75507 0.0
Li1585 Li 0.36484 0.49731 0.76827 0.0
Li1586 Li 0.38827 0.48368 0.74563 0.0
Li1587 Li 0.36408 0.50536 0.73453 0.0
C1588 C 0.40569 0.49918 0.78324 0.0
N1589 N 0.43304 0.51207 0.80706 0.0
C1590 C 0.40081 0.50698 0.80041 0.0
C1591 C 0.42446 0.49775 0.77826 0.0
C1592 C 0.41485 0.51346 0.81224 0.0
C1593 C 0.43809 0.50441 0.79048 0.0
C1594 C 0.34628 0.53101 0.75964 0.0
C1595 C 0.31277 0.53149 0.75701 0.0
N1596 N 0.31241 0.54834 0.76568 0.0
C1597 C 0.3456 0.54841 0.76838 0.0
C1598 C 0.32975 0.52254 0.7538 0.0
C1599 C 0.32834 0.55691 0.77138 0.0
C1600 C 0.42091 0.54045 0.75018 0.0
N1601 N 0.40581 0.53634 0.76084 0.0
C1602 C 0.41176 0.56254 0.78052 0.0
C1603 C 0.40112 0.54696 0.7758 0.0
C1604 C 0.42737 0.56729 0.76967 0.0
C1605 C 0.43197 0.55592 0.75439 0.0
H1606 H 0.42427 0.53185 0.7383 0.0
H1607 H 0.38898 0.54338 0.78399 0.0
C1608 C 0.3486 0.4741 0.7953 0.0
N1609 N 0.35104 0.49223 0.79036 0.0
C1610 C 0.34003 0.46958 0.81218 0.0
C1611 C 0.33661 0.50247 0.81859 0.0
C1612 C 0.34522 0.50635 0.80157 0.0
C1613 C 0.33411 0.48386 0.82421 0.0
H1614 H 0.35371 0.46316 0.78628 0.0
H1615 H 0.34775 0.52064 0.79759 0.0
C1616 C 0.40251 0.5005 0.71504 0.0
N1617 N 0.42511 0.48884 0.68612 0.0
C1618 C 0.39518 0.49846 0.6971 0.0
C1619 C 0.42136 0.49676 0.71824 0.0
C1620 C 0.40683 0.49252 0.68268 0.0
C1621 C 0.43255 0.49082 0.70345 0.0
C1622 C 0.34662 0.46869 0.74202 0.0
C1623 C 0.34947 0.45477 0.72869 0.0
C1624 C 0.32935 0.47001 0.75095 0.0
C1625 C 0.33492 0.4426 0.72431 0.0
C1626 C 0.31515 0.45757 0.7462 0.0
N1627 N 0.31819 0.44424 0.73308 0.0
C1628 C 0.41025 0.45206 0.75363 0.0
C1629 C 0.40127 0.45456 0.72196 0.0
C1630 C 0.41899 0.435 0.75013 0.0
N1631 N 0.40153 0.46139 0.73963 0.0
C1632 C 0.40996 0.43768 0.71779 0.0
C1633 C 0.41879 0.42756 0.73202 0.0
H1634 H 0.41009 0.45768 0.76761 0.0
H1635 H 0.39388 0.46196 0.71114 0.0
C1636 C 0.35021 0.53035 0.70807 0.0
N1637 N 0.34899 0.51231 0.71373 0.0
C1638 C 0.34019 0.53649 0.69254 0.0
C1639 C 0.32776 0.50539 0.68901 0.0
C1640 C 0.33808 0.49984 0.70454 0.0
C1641 C 0.32877 0.52392 0.68278 0.0
H1642 H 0.35907 0.53995 0.7156 0.0
H1643 H 0.33748 0.48555 0.70906 0.0
O1644 O 0.39213 0.49322 0.77126 0.0
O1645 O 0.36309 0.52252 0.75666 0.0
O1646 O 0.39129 0.50625 0.72934 0.0
O1647 O 0.36081 0.48063 0.7466 0.0
H1648 H 0.38634 0.5082 0.80446 0.0
H1649 H 0.42845 0.49166 0.76507 0.0
H1650 H 0.41128 0.51964 0.82552 0.0
H1651 H 0.45267 0.50349 0.78676 0.0
H1652 H 0.29987 0.52507 0.75256 0.0
H1653 H 0.35827 0.55525 0.77287 0.0
H1654 H 0.33004 0.50931 0.74668 0.0
H1655 H 0.3276 0.57033 0.7782 0.0
H1656 H 0.40751 0.57102 0.79224 0.0
H1657 H 0.44398 0.55895 0.74575 0.0
H1658 H 0.33869 0.45506 0.81607 0.0
H1659 H 0.33217 0.51392 0.82735 0.0
H1660 H 0.38064 0.50134 0.69435 0.0
H1661 H 0.42725 0.49822 0.73202 0.0
H1662 H 0.40134 0.49082 0.66874 0.0
H1663 H 0.44713 0.48776 0.70575 0.0
H1664 H 0.36269 0.45349 0.72163 0.0
H1665 H 0.32689 0.48045 0.76153 0.0
H1666 H 0.33692 0.43185 0.71393 0.0
H1667 H 0.30171 0.45847 0.75299 0.0
H1668 H 0.42572 0.42767 0.76147 0.0
H1669 H 0.4092 0.43229 0.70372 0.0
H1670 H 0.34123 0.55094 0.68833 0.0
H1671 H 0.31935 0.49517 0.68175 0.0
Li1672 Li 0.63573 0.00477 0.76471 0.0
Li1673 Li 0.61051 0.98456 0.75608 0.0
Li1674 Li 0.63247 0.99484 0.73269 0.0
Li1675 Li 0.61052 0.01655 0.74565 0.0
C1676 C 0.65561 0.97299 0.75398 0.0
N1677 N 0.69211 0.96083 0.75234 0.0
C1678 C 0.65983 0.95426 0.75722 0.0
C1679 C 0.66994 0.98554 0.74987 0.0
C1680 C 0.67838 0.94839 0.75634 0.0
C1681 C 0.68831 0.97911 0.74912 0.0
C1682 C 0.60681 0.00291 0.79005 0.0
C1683 C 0.59456 0.00989 0.82055 0.0
N1684 N 0.60288 0.99428 0.82736 0.0
C1685 C 0.61524 0.98693 0.79735 0.0
C1686 C 0.5964 0.0145 0.80172 0.0
C1687 C 0.61309 0.98281 0.81625 0.0
C1688 C 0.65053 0.02923 0.7912 0.0
N1689 N 0.65145 0.0113 0.78519 0.0
C1690 C 0.67006 0.00284 0.81149 0.0
C1691 C 0.66108 0.99816 0.79488 0.0
C1692 C 0.66882 0.02111 0.81846 0.0
C1693 C 0.65914 0.03448 0.80787 0.0
H1694 H 0.64239 0.03927 0.78345 0.0
H1695 H 0.66117 0.98386 0.7902 0.0
C1696 C 0.60132 0.9473 0.75467 0.0
N1697 N 0.59594 0.9635 0.76284 0.0
C1698 C 0.59182 0.93078 0.75843 0.0
C1699 C 0.57134 0.94788 0.77901 0.0
C1700 C 0.58118 0.96416 0.77472 0.0
C1701 C 0.57663 0.93092 0.77077 0.0
H1702 H 0.61308 0.94726 0.74522 0.0
H1703 H 0.57703 0.97728 0.78086 0.0
C1704 C 0.64058 0.03255 0.72751 0.0
N1705 N 0.64598 0.05717 0.69841 0.0
C1706 C 0.63119 0.02998 0.71063 0.0
C1707 C 0.65271 0.04764 0.72959 0.0
C1708 C 0.63411 0.04258 0.69609 0.0
C1709 C 0.65526 0.05994 0.71471 0.0
C1710 C 0.58623 0.99239 0.72747 0.0
C1711 C 0.5799 0.98513 0.71055 0.0
C1712 C 0.57333 0.99795 0.74098 0.0
C1713 C 0.56075 0.98354 0.70741 0.0
C1714 C 0.55429 0.99613 0.73732 0.0
N1715 N 0.54845 0.98902 0.72075 0.0
C1716 C 0.63451 0.97281 0.70148 0.0
C1717 C 0.65984 0.99399 0.70285 0.0
C1718 C 0.64033 0.9664 0.68411 0.0
N1719 N 0.64405 0.98657 0.71029 0.0
C1720 C 0.66625 0.98791 0.68544 0.0
C1721 C 0.65619 0.97419 0.6757 0.0
H1722 H 0.62213 0.96704 0.70785 0.0
H1723 H 0.66719 0.00492 0.71018 0.0
C1724 C 0.59557 0.05212 0.75296 0.0
N1725 N 0.59609 0.03817 0.74016 0.0
C1726 C 0.58631 0.06878 0.74894 0.0
C1727 C 0.57812 0.05628 0.71876 0.0
C1728 C 0.58755 0.03991 0.72333 0.0
C1729 C 0.57755 0.07109 0.73156 0.0
H1730 H 0.6027 0.05042 0.76614 0.0
H1731 H 0.58833 0.02873 0.71329 0.0
O1732 O 0.63747 0.97883 0.75468 0.0
O1733 O 0.60894 0.00749 0.77166 0.0
O1734 O 0.63789 0.02054 0.74207 0.0
O1735 O 0.60497 0.99392 0.73069 0.0
H1736 H 0.64887 0.94438 0.76038 0.0
H1737 H 0.66699 1.00009 0.74736 0.0
H1738 H 0.68185 0.93393 0.75884 0.0
H1739 H 0.69954 0.98867 0.74597 0.0
H1740 H 0.58655 0.01875 0.82975 0.0
H1741 H 0.62339 0.9778 0.78856 0.0
H1742 H 0.58985 0.02696 0.79629 0.0
H1743 H 0.61955 0.97051 0.82208 0.0
H1744 H 0.67755 0.9921 0.81899 0.0
H1745 H 0.6575 0.04865 0.81278 0.0
H1746 H 0.59651 0.91798 0.75195 0.0
H1747 H 0.55959 0.94859 0.78847 0.0
H1748 H 0.62175 0.0184 0.70874 0.0
H1749 H 0.66005 0.04983 0.74259 0.0
H1750 H 0.62693 0.04075 0.68296 0.0
H1751 H 0.6646 0.07169 0.71612 0.0
H1752 H 0.5897 0.9808 0.69992 0.0
H1753 H 0.57789 0.00366 0.75414 0.0
H1754 H 0.55566 0.97795 0.69436 0.0
H1755 H 0.54416 1.00037 0.74765 0.0
H1756 H 0.63238 0.95556 0.67724 0.0
H1757 H 0.67852 0.99429 0.67941 0.0
H1758 H 0.58645 0.0799 0.75914 0.0
H1759 H 0.57137 0.05732 0.7053 0.0
Li1760 Li 0.75502 0.61428 0.98837 0.0
Li1761 Li 0.76538 0.63802 0.01075 0.0
Li1762 Li 0.74098 0.61527 0.01971 0.0
Li1763 Li 0.73388 0.64034 0.99765 0.0
C1764 C 0.77742 0.59515 0.01599 0.0
N1765 N 0.79831 0.5634 0.02204 0.0
C1766 C 0.79653 0.59654 0.01951 0.0
C1767 C 0.7689 0.57764 0.01565 0.0
C1768 C 0.80686 0.58031 0.0225 0.0
C1769 C 0.77971 0.56175 0.01873 0.0
C1770 C 0.77351 0.64466 0.97277 0.0
C1771 C 0.78818 0.6597 0.94655 0.0
N1772 N 0.80402 0.64981 0.94986 0.0
C1773 C 0.78991 0.63463 0.9759 0.0
C1774 C 0.77259 0.65727 0.95798 0.0
C1775 C 0.80519 0.63743 0.96417 0.0
C1776 C 0.75097 0.59706 0.9531 0.0
N1777 N 0.76238 0.59836 0.96819 0.0
C1778 C 0.78401 0.57713 0.95433 0.0
C1779 C 0.77879 0.58887 0.96889 0.0
C1780 C 0.77245 0.57538 0.93868 0.0
C1781 C 0.75582 0.58567 0.93802 0.0
H1782 H 0.73808 0.60488 0.95281 0.0
H1783 H 0.788 0.5905 0.98064 0.0
C1784 C 0.78913 0.64549 0.03953 0.0
N1785 N 0.78638 0.65034 0.02146 0.0
C1786 C 0.80481 0.65174 0.04913 0.0
C1787 C 0.81447 0.66834 0.02147 0.0
C1788 C 0.79833 0.662 0.01248 0.0
C1789 C 0.81811 0.66286 0.03996 0.0
H1790 H 0.77925 0.63638 0.04638 0.0
H1791 H 0.79568 0.66603 0.99822 0.0
C1792 C 0.71421 0.60104 0.99413 0.0
N1793 N 0.68527 0.57575 0.99198 0.0
C1794 C 0.69579 0.60707 0.99607 0.0
C1795 C 0.71791 0.58223 0.99076 0.0
C1796 C 0.68135 0.59405 0.99503 0.0
C1797 C 0.70308 0.56964 0.98981 0.0
C1798 C 0.74125 0.66082 0.03007 0.0
C1799 C 0.73565 0.6653 0.04817 0.0
C1800 C 0.74683 0.67497 0.0179 0.0
C1801 C 0.73562 0.68395 0.05378 0.0
C1802 C 0.74661 0.69344 0.02404 0.0
N1803 N 0.74105 0.69751 0.0417 0.0
C1804 C 0.74478 0.59409 0.05238 0.0
C1805 C 0.71339 0.59786 0.04287 0.0
C1806 C 0.73925 0.5833 0.06758 0.0
N1807 N 0.73193 0.60079 0.04018 0.0
C1808 C 0.7072 0.58724 0.058 0.0
C1809 C 0.72024 0.57965 0.07049 0.0
H1810 H 0.75938 0.59722 0.05041 0.0
H1811 H 0.70337 0.60386 0.0334 0.0
C1812 C 0.71034 0.65681 0.9707 0.0
N1813 N 0.71391 0.65576 0.98929 0.0
C1814 C 0.69506 0.66703 0.96419 0.0
C1815 C 0.68761 0.67509 0.99604 0.0
C1816 C 0.70279 0.66445 0.00195 0.0
C1817 C 0.68355 0.67639 0.97696 0.0
H1818 H 0.71924 0.6495 0.96098 0.0
H1819 H 0.70548 0.6629 0.01667 0.0
O1820 O 0.76717 0.61091 0.0129 0.0
O1821 O 0.75823 0.64193 0.98384 0.0
O1822 O 0.72849 0.61361 0.99498 0.0
O1823 O 0.74147 0.6426 0.02446 0.0
H1824 H 0.80332 0.61001 0.01981 0.0
H1825 H 0.7541 0.57637 0.01316 0.0
H1826 H 0.82168 0.58116 0.02518 0.0
H1827 H 0.77331 0.5481 0.0185 0.0
H1828 H 0.78768 0.66942 0.93505 0.0
H1829 H 0.79091 0.6249 0.98735 0.0
H1830 H 0.75995 0.66507 0.95533 0.0
H1831 H 0.81798 0.62979 0.96646 0.0
H1832 H 0.79712 0.56968 0.95518 0.0
H1833 H 0.74657 0.58467 0.92613 0.0
H1834 H 0.80659 0.64762 0.06352 0.0
H1835 H 0.82425 0.67687 0.01379 0.0
H1836 H 0.6927 0.62164 0.9985 0.0
H1837 H 0.73205 0.57741 0.98875 0.0
H1838 H 0.66703 0.59849 0.99665 0.0
H1839 H 0.70574 0.55501 0.98729 0.0
H1840 H 0.73137 0.65448 0.05776 0.0
H1841 H 0.75127 0.67177 0.00386 0.0
H1842 H 0.73129 0.68764 0.06774 0.0
H1843 H 0.75086 0.70454 0.01477 0.0
H1844 H 0.74973 0.57811 0.07712 0.0
H1845 H 0.69241 0.58482 0.05978 0.0
H1846 H 0.69234 0.66774 0.94936 0.0
H1847 H 0.67887 0.68188 0.00631 0.0
Li1848 Li 0.87947 0.52152 0.75024 0.0
Li1849 Li 0.85586 0.50647 0.7704 0.0
Li1850 Li 0.88169 0.48774 0.75963 0.0
Li1851 Li 0.8567 0.49873 0.73835 0.0
C1852 C 0.90076 0.5136 0.78177 0.0
N1853 N 0.93667 0.52049 0.79384 0.0
C1854 C 0.90392 0.52011 0.79984 0.0
C1855 C 0.91586 0.51057 0.76984 0.0
C1856 C 0.92219 0.52352 0.80569 0.0
C1857 C 0.93391 0.51414 0.7762 0.0
C1858 C 0.83869 0.5304 0.73728 0.0
C1859 C 0.80784 0.52897 0.72398 0.0
N1860 N 0.81248 0.54286 0.71195 0.0
C1861 C 0.84309 0.54479 0.72491 0.0
C1862 C 0.82087 0.52254 0.73694 0.0
C1863 C 0.82967 0.55085 0.71217 0.0
C1864 C 0.89555 0.54821 0.7262 0.0
N1865 N 0.89272 0.54379 0.7444 0.0
C1866 C 0.9065 0.57252 0.75411 0.0
C1867 C 0.89803 0.5555 0.7583 0.0
C1868 C 0.90921 0.57775 0.73541 0.0
C1869 C 0.90376 0.5652 0.72136 0.0
H1870 H 0.89085 0.53878 0.71542 0.0
H1871 H 0.89538 0.55181 0.77266 0.0
C1872 C 0.8491 0.50546 0.80856 0.0
N1873 N 0.84125 0.51078 0.79217 0.0
C1874 C 0.83996 0.50881 0.82537 0.0
C1875 C 0.81477 0.52316 0.80821 0.0
C1876 C 0.82441 0.51947 0.79166 0.0
C1877 C 0.82259 0.51787 0.82539 0.0
H1878 H 0.86261 0.49877 0.80855 0.0
H1879 H 0.81857 0.52373 0.77846 0.0
C1880 C 0.89399 0.4927 0.72002 0.0
N1881 N 0.91366 0.47898 0.68986 0.0
C1882 C 0.88732 0.47728 0.71014 0.0
C1883 C 0.91068 0.50112 0.71454 0.0
C1884 C 0.89745 0.47056 0.69494 0.0
C1885 C 0.92043 0.49397 0.69927 0.0
C1886 C 0.8434 0.4727 0.77198 0.0
C1887 C 0.85092 0.46356 0.78744 0.0
C1888 C 0.82406 0.47382 0.76992 0.0
C1889 C 0.83895 0.45588 0.80074 0.0
C1890 C 0.81255 0.46598 0.78353 0.0
N1891 N 0.82017 0.45727 0.79853 0.0
C1892 C 0.90501 0.46583 0.78322 0.0
C1893 C 0.90128 0.45413 0.75259 0.0
C1894 C 0.91585 0.4504 0.78813 0.0
N1895 N 0.89802 0.46744 0.76566 0.0
C1896 C 0.91217 0.43858 0.75684 0.0
C1897 C 0.91953 0.43651 0.77484 0.0
H1898 H 0.90182 0.47629 0.79357 0.0
H1899 H 0.89503 0.45527 0.739 0.0
C1900 C 0.84886 0.50234 0.70041 0.0
N1901 N 0.84427 0.49227 0.71577 0.0
C1902 C 0.84298 0.49659 0.68282 0.0
C1903 C 0.82717 0.47054 0.69718 0.0
C1904 C 0.83336 0.47682 0.71457 0.0
C1905 C 0.83243 0.4802 0.68096 0.0
H1906 H 0.85787 0.51435 0.70176 0.0
H1907 H 0.83027 0.46885 0.72697 0.0
O1908 O 0.88292 0.5103 0.77588 0.0
O1909 O 0.85176 0.52403 0.74963 0.0
O1910 O 0.88406 0.49983 0.73469 0.0
O1911 O 0.85491 0.48076 0.75909 0.0
H1912 H 0.89237 0.52254 0.80924 0.0
H1913 H 0.9137 0.50544 0.75586 0.0
H1914 H 0.92484 0.52858 0.81963 0.0
H1915 H 0.94572 0.51184 0.76711 0.0
H1916 H 0.79405 0.52289 0.72346 0.0
H1917 H 0.85672 0.55119 0.72511 0.0
H1918 H 0.81721 0.51144 0.74642 0.0
H1919 H 0.83293 0.5619 0.70245 0.0
H1920 H 0.91071 0.58154 0.76545 0.0
H1921 H 0.90521 0.56868 0.70676 0.0
H1922 H 0.8467 0.50478 0.83826 0.0
H1923 H 0.80137 0.53008 0.80757 0.0
H1924 H 0.87456 0.47042 0.71428 0.0
H1925 H 0.91609 0.51306 0.72199 0.0
H1926 H 0.89244 0.45864 0.6872 0.0
H1927 H 0.93336 0.50037 0.69489 0.0
H1928 H 0.86584 0.46259 0.78929 0.0
H1929 H 0.81799 0.48073 0.75799 0.0
H1930 H 0.84459 0.44889 0.81284 0.0
H1931 H 0.79755 0.46683 0.78216 0.0
H1932 H 0.92126 0.44933 0.80218 0.0
H1933 H 0.91432 0.42801 0.74628 0.0
H1934 H 0.84717 0.50459 0.67072 0.0
H1935 H 0.81922 0.45773 0.69636 0.0
Li1936 Li 0.76338 0.36338 0.49528 0.0
Li1937 Li 0.75787 0.38917 0.51598 0.0
Li1938 Li 0.73257 0.3685 0.50863 0.0
Li1939 Li 0.74469 0.3908 0.48483 0.0
C1940 C 0.77072 0.3563 0.53251 0.0
N1941 N 0.80083 0.34465 0.55351 0.0
C1942 C 0.78843 0.36374 0.52924 0.0
C1943 C 0.76833 0.34295 0.54648 0.0
C1944 C 0.80347 0.35767 0.54 0.0
C1945 C 0.78372 0.33723 0.55694 0.0
C1946 C 0.78412 0.4026 0.48728 0.0
C1947 C 0.79214 0.43371 0.47735 0.0
N1948 N 0.81049 0.42893 0.4775 0.0
C1949 C 0.80305 0.39797 0.48722 0.0
C1950 C 0.7786 0.42059 0.48219 0.0
C1951 C 0.81616 0.41149 0.48229 0.0
C1952 C 0.79143 0.35091 0.47137 0.0
N1953 N 0.78146 0.34592 0.48667 0.0
C1954 C 0.79978 0.31832 0.49031 0.0
C1955 C 0.78508 0.32979 0.49595 0.0
C1956 C 0.81076 0.32342 0.47489 0.0
C1957 C 0.80618 0.33983 0.4652 0.0
H1958 H 0.78815 0.36375 0.46419 0.0
H1959 H 0.77687 0.32604 0.508 0.0
C1960 C 0.76561 0.39747 0.55385 0.0
N1961 N 0.7685 0.40357 0.53612 0.0
C1962 C 0.77385 0.40665 0.56893 0.0
C1963 C 0.78724 0.42873 0.54736 0.0
C1964 C 0.77876 0.41913 0.53274 0.0
C1965 C 0.78513 0.42232 0.56573 0.0
H1966 H 0.7571 0.38527 0.55628 0.0
H1967 H 0.78046 0.42418 0.51875 0.0
C1968 C 0.73429 0.34584 0.47675 0.0
N1969 N 0.72491 0.30999 0.4663 0.0
C1970 C 0.72774 0.3423 0.45876 0.0
C1971 C 0.73608 0.33116 0.48943 0.0
C1972 C 0.72307 0.32407 0.45374 0.0
C1973 C 0.73127 0.31314 0.48388 0.0
C1974 C 0.72829 0.40874 0.52241 0.0
C1975 C 0.72006 0.40294 0.53908 0.0
C1976 C 0.73338 0.4274 0.52012 0.0
C1977 C 0.71714 0.41594 0.55327 0.0
C1978 C 0.73025 0.43996 0.53466 0.0
N1979 N 0.72227 0.43402 0.55079 0.0
C1980 C 0.70909 0.34482 0.53068 0.0
C1981 C 0.69418 0.36447 0.5087 0.0
C1982 C 0.69182 0.33841 0.53712 0.0
N1983 N 0.70988 0.35774 0.51686 0.0
C1984 C 0.67668 0.35854 0.51472 0.0
C1985 C 0.67532 0.34555 0.52931 0.0
H1986 H 0.72184 0.33979 0.53696 0.0
H1987 H 0.69531 0.37476 0.49774 0.0
C1988 C 0.74567 0.40252 0.44717 0.0
N1989 N 0.73793 0.4058 0.46414 0.0
C1990 C 0.74071 0.4135 0.43185 0.0
C1991 C 0.72002 0.43103 0.45187 0.0
C1992 C 0.72526 0.41964 0.46673 0.0
C1993 C 0.72777 0.42803 0.43414 0.0
H1994 H 0.7557 0.39137 0.44556 0.0
H1995 H 0.71919 0.42179 0.48034 0.0
O1996 O 0.75572 0.36197 0.52215 0.0
O1997 O 0.77107 0.38939 0.49165 0.0
O1998 O 0.73898 0.3636 0.48181 0.0
O1999 O 0.73179 0.3961 0.5086 0.0
H2000 H 0.79055 0.37412 0.51859 0.0
H2001 H 0.75471 0.33704 0.54919 0.0
H2002 H 0.81724 0.36333 0.53761 0.0
H2003 H 0.78207 0.32689 0.56779 0.0
H2004 H 0.78806 0.4477 0.47351 0.0
H2005 H 0.80759 0.38407 0.49089 0.0
H2006 H 0.76406 0.4245 0.48229 0.0
H2007 H 0.83086 0.40811 0.48222 0.0
H2008 H 0.80283 0.30589 0.4983 0.0
H2009 H 0.81397 0.34414 0.45302 0.0
H2010 H 0.77185 0.4012 0.58286 0.0
H2011 H 0.79542 0.44103 0.54428 0.0
H2012 H 0.7263 0.35353 0.44878 0.0
H2013 H 0.74115 0.33362 0.5034 0.0
H2014 H 0.71798 0.32112 0.43986 0.0
H2015 H 0.7326 0.30164 0.49354 0.0
H2016 H 0.71616 0.38851 0.54111 0.0
H2017 H 0.73993 0.43207 0.50737 0.0
H2018 H 0.71086 0.41164 0.56628 0.0
H2019 H 0.73424 0.45442 0.53314 0.0
H2020 H 0.69139 0.3285 0.54849 0.0
H2021 H 0.66433 0.3642 0.50814 0.0
H2022 H 0.74707 0.4108 0.41843 0.0
H2023 H 0.70978 0.44188 0.45417 0.0
Li2024 Li 0.63355 0.50475 0.23667 0.0
Li2025 Li 0.61043 0.51248 0.25936 0.0
Li2026 Li 0.63683 0.49384 0.26869 0.0
Li2027 Li 0.61188 0.48056 0.24899 0.0
C2028 C 0.65558 0.52573 0.25978 0.0
N2029 N 0.69247 0.53702 0.26075 0.0
C2030 C 0.66035 0.54322 0.26696 0.0
C2031 C 0.66968 0.51399 0.25314 0.0
C2032 C 0.67904 0.54867 0.26732 0.0
C2033 C 0.6882 0.51995 0.25372 0.0
C2034 C 0.59256 0.51424 0.22732 0.0
C2035 C 0.56053 0.51971 0.21874 0.0
N2036 N 0.56467 0.5379 0.21534 0.0
C2037 C 0.59655 0.53293 0.22357 0.0
C2038 C 0.57446 0.50751 0.22476 0.0
C2039 C 0.58223 0.54469 0.21759 0.0
C2040 C 0.65121 0.49922 0.20223 0.0
N2041 N 0.64631 0.51251 0.21479 0.0
C2042 C 0.65984 0.53633 0.19582 0.0
C2043 C 0.65032 0.5308 0.21189 0.0
C2044 C 0.66527 0.52287 0.18265 0.0
C2045 C 0.66076 0.50411 0.186 0.0
H2046 H 0.64763 0.48482 0.20483 0.0
H2047 H 0.64623 0.54108 0.22212 0.0
C2048 C 0.57535 0.53039 0.2687 0.0
N2049 N 0.59423 0.53216 0.26793 0.0
C2050 C 0.5644 0.54468 0.27614 0.0
C2051 C 0.59234 0.5628 0.281 0.0
C2052 C 0.60275 0.54808 0.27366 0.0
C2053 C 0.57293 0.56108 0.28261 0.0
H2054 H 0.56871 0.5179 0.26365 0.0
H2055 H 0.6177 0.54924 0.27283 0.0
C2056 C 0.64514 0.46096 0.24888 0.0
N2057 N 0.65596 0.42463 0.2557 0.0
C2058 C 0.63939 0.45191 0.26514 0.0
C2059 C 0.65643 0.45154 0.2361 0.0
C2060 C 0.645 0.43355 0.26833 0.0
C2061 C 0.66174 0.43318 0.2398 0.0
C2062 C 0.59457 0.48577 0.28477 0.0
C2063 C 0.59547 0.48311 0.30404 0.0
C2064 C 0.57759 0.48341 0.27553 0.0
C2065 C 0.57929 0.47838 0.31378 0.0
C2066 C 0.56171 0.47871 0.28576 0.0
N2067 N 0.56288 0.47631 0.30452 0.0
C2068 C 0.64801 0.49713 0.30539 0.0
C2069 C 0.66904 0.47875 0.28776 0.0
C2070 C 0.65832 0.49405 0.32157 0.0
N2071 N 0.6533 0.48926 0.28902 0.0
C2072 C 0.67973 0.47517 0.30367 0.0
C2073 C 0.6743 0.48276 0.32089 0.0
H2074 H 0.63557 0.50563 0.30589 0.0
H2075 H 0.67321 0.47298 0.27449 0.0
C2076 C 0.59627 0.4545 0.22418 0.0
N2077 N 0.5992 0.45807 0.24255 0.0
C2078 C 0.58871 0.43745 0.21855 0.0
C2079 C 0.58694 0.42825 0.25089 0.0
C2080 C 0.59461 0.4454 0.25587 0.0
C2081 C 0.58416 0.42392 0.23198 0.0
H2082 H 0.60029 0.46474 0.21387 0.0
H2083 H 0.5973 0.44842 0.27038 0.0
O2084 O 0.63727 0.52019 0.25954 0.0
O2085 O 0.60629 0.50261 0.23354 0.0
O2086 O 0.63967 0.47888 0.2453 0.0
O2087 O 0.61046 0.48959 0.27495 0.0
H2088 H 0.64977 0.55253 0.27227 0.0
H2089 H 0.66648 0.50042 0.24753 0.0
H2090 H 0.68288 0.56216 0.27285 0.0
H2091 H 0.69919 0.51099 0.2486 0.0
H2092 H 0.54643 0.51474 0.21679 0.0
H2093 H 0.61049 0.53833 0.22553 0.0
H2094 H 0.5712 0.49303 0.22746 0.0
H2095 H 0.58507 0.55923 0.21479 0.0
H2096 H 0.66318 0.55091 0.19389 0.0
H2097 H 0.66442 0.49332 0.1761 0.0
H2098 H 0.54943 0.54291 0.27688 0.0
H2099 H 0.5995 0.57514 0.28593 0.0
H2100 H 0.63073 0.45897 0.27525 0.0
H2101 H 0.66103 0.45834 0.22346 0.0
H2102 H 0.64063 0.42638 0.28086 0.0
H2103 H 0.67046 0.42572 0.23002 0.0
H2104 H 0.60856 0.48449 0.31138 0.0
H2105 H 0.57673 0.48504 0.26058 0.0
H2106 H 0.5798 0.47627 0.3287 0.0
H2107 H 0.54848 0.47688 0.27876 0.0
H2108 H 0.65354 0.50005 0.33457 0.0
H2109 H 0.6921 0.46661 0.30251 0.0
H2110 H 0.58708 0.43467 0.20381 0.0
H2111 H 0.5834 0.4184 0.26176 0.0
H2112 H 0.07697 0.4 0.28005 0.0
H2113 H 0.05182 0.44384 0.31347 0.0
H2114 H 0.03432 0.42026 0.33111 0.0
H2115 H 0.03726 0.36889 0.27885 0.0
H2116 H 0.05121 0.34813 0.28115 0.0
H2117 H 0.06079 0.36851 0.27005 0.0
H2118 H 0.08845 0.36831 0.29328 0.0
H2119 H 0.07899 0.34791 0.30441 0.0
H2120 H 0.08381 0.3685 0.31797 0.0
H2121 H 0.01997 0.39207 0.34563 0.0
H2122 H 0.01065 0.36107 0.3569 0.0
H2123 H 0.04712 0.33531 0.31597 0.0
C2124 C 0.06784 0.40472 0.29109 0.0
C2125 C 0.0657 0.42393 0.29512 0.0
C2126 C 0.05342 0.42933 0.30966 0.0
C2127 C 0.04348 0.41601 0.31991 0.0
C2128 C 0.04604 0.39727 0.31562 0.0
C2129 C 0.05798 0.39159 0.30164 0.0
C2130 C 0.05883 0.37051 0.30045 0.0
C2131 C 0.05159 0.36361 0.2815 0.0
C2132 C 0.0787 0.36339 0.30426 0.0
C2133 C 0.04562 0.36525 0.31607 0.0
C2134 C 0.03827 0.38092 0.32449 0.0
C2135 C 0.02573 0.37969 0.33923 0.0
C2136 C 0.02065 0.36197 0.34564 0.0
C2137 C 0.02828 0.34562 0.33752 0.0
C2138 C 0.04086 0.34742 0.32242 0.0
H2139 H 0.91217 0.78566 0.55966 0.0
H2140 H 0.91461 0.81589 0.61202 0.0
H2141 H 0.88516 0.83175 0.60426 0.0
H2142 H 0.89333 0.82336 0.53219 0.0
H2143 H 0.87847 0.80853 0.5184 0.0
H2144 H 0.89985 0.79947 0.52795 0.0
H2145 H 0.88145 0.77293 0.54411 0.0
H2146 H 0.86001 0.78191 0.53461 0.0
H2147 H 0.86236 0.77867 0.55941 0.0
H2148 H 0.85546 0.84401 0.59133 0.0
H2149 H 0.8275 0.85277 0.57342 0.0
H2150 H 0.8438 0.81471 0.5293 0.0
C2151 C 0.90646 0.79558 0.56949 0.0
C2152 C 0.91578 0.79964 0.58639 0.0
C2153 C 0.90792 0.8128 0.59885 0.0
C2154 C 0.89112 0.82179 0.59464 0.0
C2155 C 0.88232 0.81751 0.57789 0.0
C2156 C 0.8897 0.80479 0.56546 0.0
C2157 C 0.8774 0.80289 0.54837 0.0
C2158 C 0.88789 0.80893 0.53068 0.0
C2159 C 0.86986 0.78291 0.54652 0.0
C2160 C 0.86197 0.81652 0.55319 0.0
C2161 C 0.86509 0.82471 0.57033 0.0
C2162 C 0.85281 0.83767 0.57791 0.0
C2163 C 0.8369 0.84245 0.56768 0.0
C2164 C 0.83338 0.83433 0.55003 0.0
C2165 C 0.84616 0.82121 0.54271 0.0
H2166 H 0.43736 0.58094 0.80409 0.0
H2167 H 0.44175 0.59257 0.74488 0.0
H2168 H 0.45836 0.62185 0.75191 0.0
H2169 H 0.42768 0.6272 0.81799 0.0
H2170 H 0.44085 0.62591 0.83934 0.0
H2171 H 0.4307 0.60514 0.82962 0.0
H2172 H 0.46317 0.58929 0.8294 0.0
H2173 H 0.47343 0.61005 0.83912 0.0
H2174 H 0.48234 0.60052 0.81766 0.0
H2175 H 0.47253 0.65088 0.76538 0.0
H2176 H 0.48362 0.67737 0.7844 0.0
H2177 H 0.46952 0.64705 0.83477 0.0
C2178 C 0.44186 0.5896 0.79258 0.0
C2179 C 0.4383 0.58438 0.77391 0.0
C2180 C 0.44458 0.59608 0.75928 0.0
C2181 C 0.45395 0.61279 0.76313 0.0
C2182 C 0.45701 0.61761 0.78168 0.0
C2183 C 0.45122 0.60632 0.79617 0.0
C2184 C 0.45558 0.61505 0.81489 0.0
C2185 C 0.43763 0.61853 0.82611 0.0
C2186 C 0.46946 0.60301 0.82591 0.0
C2187 C 0.46442 0.63317 0.80866 0.0
C2188 C 0.4652 0.63433 0.78946 0.0
C2189 C 0.47212 0.65007 0.78043 0.0
C2190 C 0.47829 0.66508 0.79134 0.0
C2191 C 0.47749 0.66424 0.81105 0.0
C2192 C 0.47061 0.64797 0.81975 0.0
H2193 H 0.58646 0.21111 0.05473 0.0
H2194 H 0.60242 0.21544 0.11293 0.0
H2195 H 0.63348 0.20288 0.10539 0.0
H2196 H 0.61032 0.16784 0.04555 0.0
H2197 H 0.61743 0.17436 0.02236 0.0
H2198 H 0.59641 0.18395 0.0322 0.0
H2199 H 0.60877 0.21735 0.02624 0.0
H2200 H 0.62983 0.20786 0.01639 0.0
H2201 H 0.63114 0.22408 0.03553 0.0
H2202 H 0.66241 0.18931 0.09193 0.0
H2203 H 0.68779 0.17578 0.07326 0.0
H2204 H 0.65369 0.18074 0.02345 0.0
C2205 C 0.59648 0.20934 0.06588 0.0
C2206 C 0.59205 0.21441 0.08441 0.0
C2207 C 0.60559 0.21199 0.09859 0.0
C2208 C 0.62324 0.20475 0.09447 0.0
C2209 C 0.62718 0.19999 0.07609 0.0
C2210 C 0.61425 0.20218 0.062 0.0
C2211 C 0.62216 0.19594 0.04342 0.0
C2212 C 0.61091 0.17955 0.03542 0.0
C2213 C 0.62303 0.21228 0.02958 0.0
C2214 C 0.64152 0.18984 0.04933 0.0
C2215 C 0.64407 0.19229 0.06824 0.0
C2216 C 0.66066 0.18747 0.07706 0.0
C2217 C 0.67507 0.17992 0.06627 0.0
C2218 C 0.6729 0.17735 0.0468 0.0
C2219 C 0.65582 0.18241 0.03829 0.0
H2220 H 0.06701 0.59641 0.22854 0.0
H2221 H 0.10023 0.57648 0.18215 0.0
H2222 H 0.09205 0.60466 0.16412 0.0
H2223 H 0.02985 0.61563 0.20035 0.0
H2224 H 0.02594 0.63533 0.21544 0.0
H2225 H 0.03475 0.61382 0.22492 0.0
H2226 H 0.0631 0.63143 0.23871 0.0
H2227 H 0.0544 0.65299 0.22924 0.0
H2228 H 0.07761 0.64525 0.22356 0.0
H2229 H 0.0812 0.63514 0.15155 0.0
H2230 H 0.06638 0.6653 0.14414 0.0
H2231 H 0.03869 0.66505 0.19787 0.0
C2232 C 0.07253 0.59807 0.21459 0.0
C2233 C 0.08422 0.58435 0.20665 0.0
C2234 C 0.09113 0.58681 0.18835 0.0
C2235 C 0.08664 0.60278 0.17807 0.0
C2236 C 0.07506 0.61605 0.18624 0.0
C2237 C 0.06793 0.61382 0.20399 0.0
C2238 C 0.05535 0.62999 0.20921 0.0
C2239 C 0.03528 0.62328 0.21268 0.0
C2240 C 0.06308 0.64054 0.22619 0.0
C2241 C 0.05663 0.64168 0.19166 0.0
C2242 C 0.06824 0.63343 0.17868 0.0
C2243 C 0.07202 0.64171 0.16155 0.0
C2244 C 0.06363 0.65886 0.15751 0.0
C2245 C 0.05146 0.66744 0.17044 0.0
C2246 C 0.04788 0.65869 0.18771 0.0
H2247 H 0.59374 0.77974 0.44109 0.0
H2248 H 0.58811 0.81214 0.39033 0.0
H2249 H 0.61791 0.82789 0.39704 0.0
H2250 H 0.61335 0.81647 0.46895 0.0
H2251 H 0.62911 0.80142 0.48145 0.0
H2252 H 0.60748 0.7923 0.47255 0.0
H2253 H 0.62558 0.76679 0.45451 0.0
H2254 H 0.64727 0.77583 0.46336 0.0
H2255 H 0.64382 0.7735 0.43859 0.0
H2256 H 0.64805 0.84012 0.40898 0.0
H2257 H 0.6764 0.84908 0.42616 0.0
H2258 H 0.66288 0.809 0.46943 0.0
C2259 C 0.59886 0.79008 0.43137 0.0
C2260 C 0.58857 0.79479 0.41523 0.0
C2261 C 0.59563 0.80851 0.4029 0.0
C2262 C 0.6126 0.81744 0.40652 0.0
C2263 C 0.62235 0.81255 0.42255 0.0
C2264 C 0.61576 0.79926 0.43484 0.0
C2265 C 0.62888 0.79696 0.45126 0.0
C2266 C 0.61912 0.8021 0.46964 0.0
C2267 C 0.63686 0.77709 0.45196 0.0
C2268 C 0.64382 0.81106 0.44627 0.0
C2269 C 0.6398 0.81978 0.42958 0.0
C2270 C 0.65141 0.83335 0.42203 0.0
C2271 C 0.66756 0.83824 0.43183 0.0
C2272 C 0.67196 0.82964 0.44905 0.0
C2273 C 0.65987 0.81585 0.45632 0.0
H2274 H 0.47007 0.35026 0.67063 0.0
H2275 H 0.45188 0.30943 0.71129 0.0
H2276 H 0.43852 0.33466 0.73064 0.0
H2277 H 0.48183 0.38736 0.70341 0.0
H2278 H 0.4731 0.40552 0.68842 0.0
H2279 H 0.48233 0.38439 0.67847 0.0
H2280 H 0.45138 0.37925 0.66056 0.0
H2281 H 0.44206 0.40033 0.67046 0.0
H2282 H 0.42972 0.37863 0.67328 0.0
H2283 H 0.42646 0.36422 0.74507 0.0
H2284 H 0.41496 0.39577 0.7527 0.0
H2285 H 0.44046 0.41722 0.70224 0.0
C2286 C 0.46351 0.3467 0.68375 0.0
C2287 C 0.46208 0.32796 0.68958 0.0
C2288 C 0.45305 0.32373 0.7066 0.0
C2289 C 0.44553 0.33795 0.7177 0.0
C2290 C 0.44707 0.35629 0.7115 0.0
C2291 C 0.45575 0.3607 0.69488 0.0
C2292 C 0.45459 0.38138 0.69087 0.0
C2293 C 0.47413 0.39018 0.69027 0.0
C2294 C 0.44379 0.38511 0.67272 0.0
C2295 C 0.44376 0.38791 0.70775 0.0
C2296 C 0.43974 0.37326 0.71959 0.0
C2297 C 0.42961 0.37582 0.73596 0.0
C2298 C 0.42323 0.3938 0.74023 0.0
C2299 C 0.42686 0.40894 0.72809 0.0
C2300 C 0.4374 0.4059 0.71174 0.0
H2301 H 0.90104 0.21215 0.90898 0.0
H2302 H 0.93179 0.22474 0.95961 0.0
H2303 H 0.90593 0.21207 0.97834 0.0
H2304 H 0.85537 0.22489 0.92737 0.0
H2305 H 0.84353 0.20662 0.91484 0.0
H2306 H 0.86445 0.21681 0.90538 0.0
H2307 H 0.87953 0.18406 0.90334 0.0
H2308 H 0.85871 0.17378 0.91284 0.0
H2309 H 0.88087 0.16979 0.92397 0.0
H2310 H 0.87747 0.19651 0.99154 0.0
H2311 H 0.84759 0.1806 0.99826 0.0
H2312 H 0.83452 0.18012 0.93929 0.0
C2313 C 0.90228 0.21258 0.92401 0.0
C2314 C 0.91861 0.21937 0.93275 0.0
C2315 C 0.91965 0.2193 0.95249 0.0
C2316 C 0.90495 0.21226 0.96329 0.0
C2317 C 0.88918 0.20554 0.95419 0.0
C2318 C 0.88766 0.20581 0.93501 0.0
C2319 C 0.86922 0.19767 0.92868 0.0
C2320 C 0.85745 0.21238 0.91847 0.0
C2321 C 0.87227 0.1803 0.91649 0.0
C2322 C 0.86069 0.19259 0.9473 0.0
C2323 C 0.87248 0.19718 0.96184 0.0
C2324 C 0.86804 0.19305 0.98029 0.0
C2325 C 0.85112 0.18398 0.98397 0.0
C2326 C 0.83879 0.17932 0.96929 0.0
C2327 C 0.8436 0.18382 0.95076 0.0
H2328 H 0.30535 0.05255 0.42212 0.0
H2329 H 0.25231 0.07322 0.40156 0.0
H2330 H 0.25991 0.06154 0.37021 0.0
H2331 H 0.33191 0.06498 0.38255 0.0
H2332 H 0.34664 0.04463 0.38303 0.0
H2333 H 0.3365 0.05326 0.40429 0.0
H2334 H 0.32164 0.02094 0.41048 0.0
H2335 H 0.33178 0.01218 0.38923 0.0
H2336 H 0.30698 0.0105 0.39294 0.0
H2337 H 0.27415 0.05019 0.34064 0.0
H2338 H 0.29376 0.03848 0.31486 0.0
H2339 H 0.33744 0.0246 0.35426 0.0
C2340 C 0.29527 0.05446 0.41105 0.0
C2341 C 0.27814 0.06366 0.41438 0.0
C2342 C 0.26534 0.06589 0.3995 0.0
C2343 C 0.26958 0.05941 0.38158 0.0
C2344 C 0.28663 0.05061 0.37874 0.0
C2345 C 0.29924 0.04798 0.39306 0.0
C2346 C 0.31685 0.0386 0.38606 0.0
C2347 C 0.33398 0.05112 0.38917 0.0
C2348 C 0.31946 0.01942 0.39523 0.0
C2349 C 0.3123 0.03673 0.36551 0.0
C2350 C 0.29478 0.04374 0.36162 0.0
C2351 C 0.2878 0.04446 0.34353 0.0
C2352 C 0.29904 0.03787 0.32899 0.0
C2353 C 0.31701 0.03058 0.33263 0.0
C2354 C 0.32362 0.02985 0.35116 0.0
H2355 H 0.19209 0.02711 0.65739 0.0
H2356 H 0.16768 0.07657 0.68231 0.0
H2357 H 0.17755 0.09513 0.65522 0.0
H2358 H 0.23207 0.05015 0.63654 0.0
H2359 H 0.23161 0.03616 0.61568 0.0
H2360 H 0.22318 0.02667 0.63735 0.0
H2361 H 0.19147 0.01913 0.6218 0.0
H2362 H 0.1998 0.02859 0.6001 0.0
H2363 H 0.17866 0.03748 0.61037 0.0
H2364 H 0.18896 0.10823 0.62533 0.0
H2365 H 0.20184 0.11532 0.5943 0.0
H2366 H 0.21882 0.05758 0.58808 0.0
C2367 C 0.18886 0.04185 0.65713 0.0
C2368 C 0.1793 0.05042 0.67211 0.0
C2369 C 0.17535 0.06976 0.67124 0.0
C2370 C 0.18078 0.08041 0.65584 0.0
C2371 C 0.19016 0.07157 0.64136 0.0
C2372 C 0.19424 0.05276 0.64183 0.0
C2373 C 0.20429 0.04674 0.62422 0.0
C2374 C 0.22396 0.03951 0.62872 0.0
C2375 C 0.19287 0.03212 0.61349 0.0
C2376 C 0.20507 0.0651 0.61376 0.0
C2377 C 0.19681 0.0792 0.62395 0.0
C2378 C 0.19548 0.09733 0.6172 0.0
C2379 C 0.20273 0.10118 0.59951 0.0
C2380 C 0.21123 0.08699 0.58873 0.0
C2381 C 0.21252 0.06873 0.59606 0.0
H2382 H 0.1775 0.94716 0.83683 0.0
H2383 H 0.17131 0.00475 0.85425 0.0
H2384 H 0.18506 0.99695 0.88484 0.0
H2385 H 0.16589 0.92661 0.8806 0.0
H2386 H 0.18261 0.90796 0.87865 0.0
H2387 H 0.17272 0.91815 0.85795 0.0
H2388 H 0.20586 0.92544 0.84555 0.0
H2389 H 0.21585 0.9152 0.86617 0.0
H2390 H 0.22172 0.93877 0.85977 0.0
H2391 H 0.1993 0.98283 0.91359 0.0
H2392 H 0.21256 0.96326 0.93863 0.0
H2393 H 0.20957 0.91496 0.90235 0.0
C2394 C 0.17924 0.95817 0.84701 0.0
C2395 C 0.17334 0.97657 0.84317 0.0
C2396 C 0.17556 0.99052 0.85697 0.0
C2397 C 0.18344 0.98625 0.87434 0.0
C2398 C 0.18899 0.96796 0.8777 0.0
C2399 C 0.18699 0.95414 0.86444 0.0
C2400 C 0.19376 0.93552 0.87171 0.0
C2401 C 0.17779 0.92122 0.87226 0.0
C2402 C 0.21028 0.92831 0.86011 0.0
C2403 C 0.19983 0.94102 0.89115 0.0
C2404 C 0.19705 0.9598 0.89431 0.0
C2405 C 0.2016 0.96811 0.91126 0.0
C2406 C 0.2092 0.95691 0.92536 0.0
C2407 C 0.2121 0.93759 0.92245 0.0
C2408 C 0.20733 0.92963 0.90508 0.0
H2409 H 0.29762 0.94056 0.08114 0.0
H2410 H 0.26078 0.89869 0.10443 0.0
H2411 H 0.26938 0.9088 0.13623 0.0
H2412 H 0.33384 0.93652 0.11466 0.0
H2413 H 0.33891 0.9611 0.11553 0.0
H2414 H 0.32944 0.95099 0.0946 0.0
H2415 H 0.30208 0.97456 0.09541 0.0
H2416 H 0.31152 0.98481 0.11629 0.0
H2417 H 0.28787 0.97631 0.11606 0.0
H2418 H 0.28374 0.92185 0.16525 0.0
H2419 H 0.30123 0.93817 0.18974 0.0
H2420 H 0.32695 0.97342 0.14768 0.0
C2421 C 0.29133 0.93361 0.09297 0.0
C2422 C 0.27853 0.91887 0.09041 0.0
C2423 C 0.27047 0.91014 0.10615 0.0
C2424 C 0.27533 0.91573 0.12423 0.0
C2425 C 0.28808 0.93022 0.12629 0.0
C2426 C 0.29582 0.9392 0.11111 0.0
C2427 C 0.30916 0.9544 0.1172 0.0
C2428 C 0.32901 0.95051 0.11008 0.0
C2429 C 0.30224 0.97366 0.11087 0.0
C2430 C 0.30797 0.95232 0.13818 0.0
C2431 C 0.2958 0.93826 0.1431 0.0
C2432 C 0.29304 0.93314 0.1616 0.0
C2433 C 0.30297 0.94267 0.17546 0.0
C2434 C 0.31538 0.95739 0.17085 0.0
C2435 C 0.31774 0.96223 0.15185 0.0
H2436 H 0.35097 0.33641 0.0389 0.0
H2437 H 0.32174 0.2868 0.02036 0.0
H2438 H 0.34803 0.26735 0.03116 0.0
H2439 H 0.39738 0.32102 0.0263 0.0
H2440 H 0.40822 0.3315 0.04639 0.0
H2441 H 0.38735 0.34157 0.03671 0.0
H2442 H 0.37107 0.33905 0.06885 0.0
H2443 H 0.39189 0.32903 0.07864 0.0
H2444 H 0.37003 0.31678 0.08043 0.0
H2445 H 0.37681 0.25321 0.04529 0.0
H2446 H 0.40641 0.24546 0.06115 0.0
H2447 H 0.41698 0.30429 0.0702 0.0
C2448 C 0.35008 0.32145 0.03715 0.0
C2449 C 0.33431 0.31312 0.02877 0.0
C2450 C 0.33378 0.2935 0.02654 0.0
C2451 C 0.3486 0.28234 0.03269 0.0
C2452 C 0.3639 0.291 0.04095 0.0
C2453 C 0.36478 0.31012 0.04311 0.0
C2454 C 0.38272 0.31593 0.05263 0.0
C2455 C 0.39462 0.32823 0.03973 0.0
C2456 C 0.37868 0.32578 0.07124 0.0
C2457 C 0.39169 0.29708 0.05567 0.0
C2458 C 0.38061 0.28288 0.04884 0.0
C2459 C 0.38566 0.26421 0.05059 0.0
C2460 C 0.40244 0.25994 0.05967 0.0
C2461 C 0.41399 0.27427 0.06681 0.0
C2462 C 0.40856 0.29307 0.06461 0.0
H2463 H 0.95624 0.83307 0.19458 0.0
H2464 H 1.00024 0.85762 0.16099 0.0
H2465 H 0.99207 0.88868 0.17303 0.0
H2466 H 0.9231 0.8695 0.18709 0.0
H2467 H 0.9136 0.8685 0.21032 0.0
H2468 H 0.92359 0.84794 0.19997 0.0
H2469 H 0.94601 0.84458 0.22808 0.0
H2470 H 0.9361 0.86515 0.23851 0.0
H2471 H 0.96085 0.86384 0.23442 0.0
H2472 H 0.97854 0.91722 0.18767 0.0
H2473 H 0.96005 0.94146 0.20351 0.0
H2474 H 0.92453 0.89867 0.22741 0.0
C2475 C 0.96416 0.84496 0.18973 0.0
C2476 C 0.97905 0.84278 0.17696 0.0
C2477 C 0.98907 0.85877 0.17108 0.0
C2478 C 0.98446 0.87654 0.17774 0.0
C2479 C 0.96974 0.87816 0.19026 0.0
C2480 C 0.9597 0.86284 0.19619 0.0
C2481 C 0.94412 0.86855 0.20928 0.0
C2482 C 0.92497 0.86331 0.20117 0.0
C2483 C 0.94695 0.86002 0.22873 0.0
C2484 C 0.94688 0.88949 0.20961 0.0
C2485 C 0.96181 0.89471 0.19863 0.0
C2486 C 0.96691 0.91331 0.19644 0.0
C2487 C 0.95639 0.92697 0.20561 0.0
C2488 C 0.94091 0.92201 0.21684 0.0
C2489 C 0.93622 0.90296 0.21888 0.0
H2490 H 0.15927 0.694 0.53204 0.0
H2491 H 0.16104 0.63981 0.55893 0.0
H2492 H 0.13058 0.64599 0.57346 0.0
H2493 H 0.13819 0.71861 0.56989 0.0
H2494 H 0.1237 0.7331 0.55535 0.0
H2495 H 0.14555 0.72439 0.54658 0.0
H2496 H 0.12846 0.70959 0.51842 0.0
H2497 H 0.10655 0.71829 0.5271 0.0
H2498 H 0.10937 0.69376 0.52248 0.0
H2499 H 0.10063 0.65804 0.58576 0.0
H2500 H 0.07266 0.67538 0.59529 0.0
H2501 H 0.08924 0.72158 0.55982 0.0
C2502 C 0.15316 0.68339 0.54086 0.0
C2503 C 0.16265 0.66649 0.54449 0.0
C2504 C 0.15423 0.65301 0.55623 0.0
C2505 C 0.13686 0.65632 0.56444 0.0
C2506 C 0.12798 0.67315 0.56074 0.0
C2507 C 0.13576 0.68647 0.54923 0.0
C2508 C 0.12329 0.7035 0.54788 0.0
C2509 C 0.13328 0.72093 0.55538 0.0
C2510 C 0.11651 0.70646 0.52777 0.0
C2511 C 0.10741 0.69767 0.56056 0.0
C2512 C 0.11042 0.68008 0.56774 0.0
C2513 C 0.09799 0.67176 0.58008 0.0
C2514 C 0.08203 0.68169 0.58529 0.0
C2515 C 0.07854 0.69979 0.57814 0.0
C2516 C 0.09147 0.70781 0.56557 0.0
H2517 H 0.96421 0.65273 0.67385 0.0
H2518 H 0.9461 0.69486 0.71337 0.0
H2519 H 0.93012 0.67062 0.73177 0.0
H2520 H 0.92317 0.6251 0.67484 0.0
H2521 H 0.93528 0.60314 0.67347 0.0
H2522 H 0.94553 0.62374 0.66346 0.0
H2523 H 0.97529 0.61881 0.68333 0.0
H2524 H 0.96517 0.59812 0.69334 0.0
H2525 H 0.97326 0.61663 0.70827 0.0
H2526 H 0.91525 0.642 0.74531 0.0
H2527 H 0.90305 0.61098 0.75344 0.0
H2528 H 0.93249 0.58714 0.70618 0.0
C2529 C 0.95714 0.65687 0.68652 0.0
C2530 C 0.9564 0.67579 0.69209 0.0
C2531 C 0.94665 0.68055 0.70861 0.0
C2532 C 0.93763 0.66686 0.71924 0.0
C2533 C 0.93856 0.64841 0.71327 0.0
C2534 C 0.94815 0.64338 0.69736 0.0
C2535 C 0.9469 0.62257 0.69395 0.0
C2536 C 0.93714 0.6184 0.67533 0.0
C2537 C 0.96631 0.6135 0.69478 0.0
C2538 C 0.93498 0.61671 0.71036 0.0
C2539 C 0.93032 0.63184 0.72132 0.0
C2540 C 0.919 0.63001 0.73697 0.0
C2541 C 0.91225 0.61225 0.74155 0.0
C2542 C 0.91691 0.59645 0.7306 0.0
C2543 C 0.92851 0.59885 0.71482 0.0
H2544 H 0.15846 0.19093 0.46964 0.0
H2545 H 0.16991 0.1483 0.42819 0.0
H2546 H 0.14106 0.15663 0.41166 0.0
H2547 H 0.10883 0.18323 0.47144 0.0
H2548 H 0.10316 0.20754 0.47428 0.0
H2549 H 0.12511 0.19871 0.4827 0.0
H2550 H 0.14267 0.22338 0.46303 0.0
H2551 H 0.12077 0.23227 0.45454 0.0
H2552 H 0.13841 0.22475 0.43831 0.0
H2553 H 0.11105 0.16916 0.39965 0.0
H2554 H 0.08152 0.18523 0.39282 0.0
H2555 H 0.08842 0.219 0.44259 0.0
C2556 C 0.15489 0.1833 0.45712 0.0
C2557 C 0.16666 0.16909 0.45013 0.0
C2558 C 0.16144 0.15954 0.43363 0.0
C2559 C 0.14497 0.16406 0.42419 0.0
C2560 C 0.13374 0.17811 0.43143 0.0
C2561 C 0.13841 0.1876 0.44752 0.0
C2562 C 0.12367 0.20197 0.45238 0.0
C2563 C 0.11466 0.19759 0.47132 0.0
C2564 C 0.13187 0.22176 0.45204 0.0
C2565 C 0.11002 0.19902 0.43651 0.0
C2566 C 0.11614 0.18519 0.42461 0.0
C2567 C 0.10603 0.17994 0.40892 0.0
C2568 C 0.08917 0.18907 0.40525 0.0
C2569 C 0.08248 0.20327 0.41725 0.0
C2570 C 0.09315 0.20829 0.43308 0.0
H2571 H 0.55997 0.41495 0.2034 0.0
H2572 H 0.59326 0.39023 0.24752 0.0
H2573 H 0.58235 0.35904 0.23823 0.0
H2574 H 0.52101 0.38325 0.20641 0.0
H2575 H 0.51737 0.38236 0.18158 0.0
H2576 H 0.52719 0.40294 0.19208 0.0
H2577 H 0.5558 0.40066 0.17015 0.0
H2578 H 0.54604 0.38012 0.15954 0.0
H2579 H 0.56912 0.37937 0.16943 0.0
H2580 H 0.56826 0.33051 0.22405 0.0
H2581 H 0.55239 0.3064 0.20543 0.0
H2582 H 0.52944 0.34937 0.16949 0.0
C2583 C 0.56504 0.40299 0.21108 0.0
C2584 C 0.57735 0.40514 0.22634 0.0
C2585 C 0.58351 0.38906 0.23606 0.0
C2586 C 0.57749 0.37124 0.23081 0.0
C2587 C 0.56537 0.36965 0.21576 0.0
C2588 C 0.55924 0.38506 0.20598 0.0
C2589 C 0.54655 0.37941 0.19005 0.0
C2590 C 0.52686 0.38747 0.1927 0.0
C2591 C 0.55488 0.38523 0.17118 0.0
C2592 C 0.54661 0.35842 0.19236 0.0
C2593 C 0.55749 0.35311 0.20733 0.0
C2594 C 0.55977 0.33448 0.21224 0.0
C2595 C 0.55079 0.32088 0.20149 0.0
C2596 C 0.53973 0.32592 0.1859 0.0
C2597 C 0.5376 0.34501 0.18141 0.0
H2598 H 0.34855 0.81577 0.97266 0.0
H2599 H 0.31638 0.82458 0.92223 0.0
H2600 H 0.34095 0.80903 0.90382 0.0
H2601 H 0.39293 0.82492 0.95244 0.0
H2602 H 0.40517 0.80743 0.96568 0.0
H2603 H 0.38459 0.81822 0.97517 0.0
H2604 H 0.36944 0.78575 0.97963 0.0
H2605 H 0.39001 0.77484 0.97021 0.0
H2606 H 0.36753 0.7702 0.95999 0.0
H2607 H 0.36912 0.79359 0.89078 0.0
H2608 H 0.39963 0.77961 0.8836 0.0
H2609 H 0.41405 0.78077 0.94236 0.0
C2610 C 0.34661 0.81417 0.95778 0.0
C2611 C 0.33058 0.82134 0.94883 0.0
C2612 C 0.32863 0.81929 0.9293 0.0
C2613 C 0.34245 0.81042 0.91876 0.0
C2614 C 0.35818 0.80371 0.92795 0.0
C2615 C 0.36039 0.80548 0.94699 0.0
C2616 C 0.37904 0.7977 0.95323 0.0
C2617 C 0.39114 0.81298 0.96215 0.0
C2618 C 0.37634 0.78114 0.96655 0.0
C2619 C 0.387 0.79142 0.93469 0.0
C2620 C 0.37464 0.79491 0.92034 0.0
C2621 C 0.37886 0.79063 0.90191 0.0
C2622 C 0.3962 0.78258 0.89799 0.0
C2623 C 0.40919 0.7789 0.91243 0.0
C2624 C 0.40445 0.78343 0.93103 0.0
H2625 H 0.91652 0.41497 0.80632 0.0
H2626 H 0.94706 0.41984 0.75435 0.0
H2627 H 0.96438 0.39103 0.76185 0.0
H2628 H 0.9549 0.39725 0.83418 0.0
H2629 H 0.94029 0.38163 0.84737 0.0
H2630 H 0.93073 0.40293 0.83813 0.0
H2631 H 0.90505 0.38402 0.82116 0.0
H2632 H 0.91459 0.36267 0.83025 0.0
H2633 H 0.91166 0.36554 0.80547 0.0
H2634 H 0.9781 0.36154 0.77483 0.0
H2635 H 0.98709 0.33326 0.79226 0.0
H2636 H 0.94756 0.34755 0.83575 0.0
C2637 C 0.92703 0.41011 0.79664 0.0
C2638 C 0.93049 0.41966 0.77977 0.0
C2639 C 0.9441 0.41266 0.76729 0.0
C2640 C 0.95405 0.39636 0.77146 0.0
C2641 C 0.95019 0.38719 0.78813 0.0
C2642 C 0.93701 0.3938 0.80053 0.0
C2643 C 0.93521 0.38107 0.81728 0.0
C2644 C 0.94061 0.39133 0.83531 0.0
C2645 C 0.91546 0.37284 0.81861 0.0
C2646 C 0.9494 0.36624 0.81234 0.0
C2647 C 0.95794 0.37008 0.79551 0.0
C2648 C 0.97155 0.35842 0.78805 0.0
C2649 C 0.97662 0.34243 0.79808 0.0
C2650 C 0.96805 0.3382 0.81536 0.0
C2651 C 0.95422 0.3503 0.82249 0.0
H2652 H 0.34198 0.16595 0.55062 0.0
H2653 H 0.33775 0.19921 0.50029 0.0
H2654 H 0.3664 0.21615 0.50911 0.0
H2655 H 0.35865 0.20279 0.58064 0.0
H2656 H 0.37419 0.18777 0.59345 0.0
H2657 H 0.35328 0.17838 0.5832 0.0
H2658 H 0.373 0.15392 0.56539 0.0
H2659 H 0.39398 0.1633 0.5755 0.0
H2660 H 0.39176 0.16162 0.55054 0.0
H2661 H 0.39535 0.22959 0.52346 0.0
H2662 H 0.42284 0.23841 0.54223 0.0
H2663 H 0.40826 0.19641 0.58322 0.0
C2664 C 0.34698 0.17692 0.54155 0.0
C2665 C 0.33762 0.18127 0.52475 0.0
C2666 C 0.34479 0.19552 0.51312 0.0
C2667 C 0.361 0.20527 0.51805 0.0
C2668 C 0.36993 0.20057 0.53463 0.0
C2669 C 0.36319 0.18673 0.54621 0.0
C2670 C 0.37556 0.18427 0.56316 0.0
C2671 C 0.36478 0.18856 0.58118 0.0
C2672 C 0.38408 0.16461 0.56367 0.0
C2673 C 0.39028 0.19892 0.55931 0.0
C2674 C 0.38673 0.20819 0.54281 0.0
C2675 C 0.39826 0.22244 0.53641 0.0
C2676 C 0.41379 0.2274 0.5472 0.0
C2677 C 0.4177 0.21811 0.56418 0.0
C2678 C 0.40577 0.20362 0.5702 0.0
H2679 H 0.54594 0.66541 0.31136 0.0
H2680 H 0.50894 0.64142 0.35272 0.0
H2681 H 0.51653 0.60988 0.34126 0.0
H2682 H 0.53607 0.63172 0.27423 0.0
H2683 H 0.55987 0.63124 0.26618 0.0
H2684 H 0.55065 0.65203 0.27684 0.0
H2685 H 0.57752 0.65163 0.30096 0.0
H2686 H 0.5868 0.63085 0.2904 0.0
H2687 H 0.58127 0.63107 0.3149 0.0
H2688 H 0.52869 0.58099 0.32601 0.0
H2689 H 0.54578 0.55652 0.30888 0.0
H2690 H 0.57534 0.59905 0.27765 0.0
C2691 C 0.53926 0.65351 0.3178 0.0
C2692 C 0.52684 0.65583 0.33292 0.0
C2693 C 0.5186 0.63993 0.34122 0.0
C2694 C 0.52273 0.62198 0.33474 0.0
C2695 C 0.53516 0.62014 0.31994 0.0
C2696 C 0.54335 0.63545 0.31159 0.0
C2697 C 0.55691 0.62953 0.2965 0.0
C2698 C 0.55048 0.63655 0.2773 0.0
C2699 C 0.5768 0.63616 0.30097 0.0
C2700 C 0.55527 0.60851 0.2979 0.0
C2701 C 0.54246 0.60342 0.31134 0.0
C2702 C 0.53868 0.5848 0.31536 0.0
C2703 C 0.54837 0.571 0.3055 0.0
C2704 C 0.56183 0.57587 0.2919 0.0
C2705 C 0.56519 0.59491 0.28802 0.0
H2706 H 0.08794 0.81015 0.07491 0.0
H2707 H 0.08237 0.75729 0.04603 0.0
H2708 H 0.11122 0.76393 0.02844 0.0
H2709 H 0.10671 0.83649 0.03578 0.0
H2710 H 0.12234 0.84979 0.05028 0.0
H2711 H 0.10066 0.84131 0.05969 0.0
H2712 H 0.11869 0.82476 0.08625 0.0
H2713 H 0.14042 0.83307 0.07686 0.0
H2714 H 0.13693 0.80846 0.08049 0.0
H2715 H 0.14182 0.77551 0.01545 0.0
H2716 H 0.17112 0.79161 0.00728 0.0
H2717 H 0.15629 0.83707 0.0444 0.0
C2718 C 0.09273 0.79998 0.06483 0.0
C2719 C 0.08285 0.7832 0.06183 0.0
C2720 C 0.08953 0.77036 0.04839 0.0
C2721 C 0.10598 0.77395 0.03841 0.0
C2722 C 0.11553 0.79049 0.04196 0.0
C2723 C 0.10907 0.80336 0.05475 0.0
C2724 C 0.12213 0.81986 0.05629 0.0
C2725 C 0.11238 0.83793 0.05014 0.0
C2726 C 0.13001 0.82163 0.07615 0.0
C2727 C 0.1371 0.81415 0.04257 0.0
C2728 C 0.13303 0.79719 0.03441 0.0
C2729 C 0.14505 0.78889 0.02161 0.0
C2730 C 0.16163 0.7982 0.01699 0.0
C2731 C 0.16607 0.81565 0.02514 0.0
C2732 C 0.15351 0.82366 0.03806 0.0
H2733 H 0.72405 0.93745 0.59508 0.0
H2734 H 0.67484 0.93247 0.56016 0.0
H2735 H 0.6557 0.94597 0.58523 0.0
H2736 H 0.70186 0.9242 0.63747 0.0
H2737 H 0.7148 0.94024 0.65183 0.0
H2738 H 0.72499 0.93132 0.63071 0.0
H2739 H 0.73046 0.96504 0.61902 0.0
H2740 H 0.72026 0.97407 0.64012 0.0
H2741 H 0.71108 0.98098 0.61778 0.0
H2742 H 0.64156 0.95846 0.61432 0.0
H2743 H 0.63324 0.96942 0.6458 0.0
H2744 H 0.69131 0.96586 0.66243 0.0
C2745 C 0.70926 0.93923 0.59269 0.0
C2746 C 0.70101 0.93403 0.57553 0.0
C2747 C 0.6816 0.93669 0.57298 0.0
C2748 C 0.67056 0.94424 0.58719 0.0
C2749 C 0.6791 0.9491 0.60392 0.0
C2750 C 0.698 0.94675 0.60676 0.0
C2751 C 0.70354 0.95261 0.6263 0.0
C2752 C 0.71178 0.93611 0.63722 0.0
C2753 C 0.71714 0.96916 0.62576 0.0
C2754 C 0.68474 0.95838 0.63405 0.0
C2755 C 0.67088 0.95629 0.62085 0.0
C2756 C 0.65229 0.96021 0.62477 0.0
C2757 C 0.6477 0.96631 0.64272 0.0
C2758 C 0.66161 0.96841 0.65659 0.0
C2759 C 0.68041 0.96456 0.65207 0.0
H2760 H 0.81564 0.94955 0.33045 0.0
H2761 H 0.83308 0.00434 0.34947 0.0
H2762 H 0.82127 0.99713 0.38086 0.0
H2763 H 0.77394 0.94581 0.35845 0.0
H2764 H 0.77724 0.92138 0.36326 0.0
H2765 H 0.78599 0.93125 0.3419 0.0
H2766 H 0.8191 0.9191 0.34973 0.0
H2767 H 0.81045 0.90919 0.37109 0.0
H2768 H 0.82967 0.92536 0.37164 0.0
H2769 H 0.80835 0.98371 0.41052 0.0
H2770 H 0.79548 0.9649 0.43626 0.0
H2771 H 0.78842 0.9182 0.39839 0.0
C2772 C 0.81704 0.96006 0.34117 0.0
C2773 C 0.82518 0.97761 0.33729 0.0
C2774 C 0.82653 0.99096 0.35183 0.0
C2775 C 0.81999 0.98695 0.36981 0.0
C2776 C 0.81222 0.96948 0.37313 0.0
C2777 C 0.81075 0.95624 0.35924 0.0
C2778 C 0.80242 0.9383 0.36665 0.0
C2779 C 0.78379 0.93394 0.35699 0.0
C2780 C 0.81624 0.92203 0.36466 0.0
C2781 C 0.79953 0.94352 0.38689 0.0
C2782 C 0.80518 0.96159 0.39033 0.0
C2783 C 0.80393 0.96951 0.40801 0.0
C2784 C 0.79673 0.95865 0.42259 0.0
C2785 C 0.79096 0.94 0.41945 0.0
C2786 C 0.79243 0.93245 0.40128 0.0
H2787 H 0.77578 0.07072 0.09732 0.0
H2788 H 0.81898 0.05731 0.05702 0.0
H2789 H 0.83662 0.04097 0.08139 0.0
H2790 H 0.8069 0.08081 0.13467 0.0
H2791 H 0.79215 0.07108 0.15253 0.0
H2792 H 0.78195 0.08046 0.13161 0.0
H2793 H 0.76529 0.049 0.12557 0.0
H2794 H 0.77548 0.0395 0.14647 0.0
H2795 H 0.77882 0.02786 0.12446 0.0
H2796 H 0.85041 0.02738 0.10999 0.0
H2797 H 0.86001 0.01798 0.14157 0.0
H2798 H 0.80882 0.0411 0.16409 0.0
C2799 C 0.78893 0.06433 0.09358 0.0
C2800 C 0.79579 0.06514 0.07508 0.0
C2801 C 0.81308 0.05652 0.07088 0.0
C2802 C 0.82332 0.04728 0.08468 0.0
C2803 C 0.81618 0.04681 0.1027 0.0
C2804 C 0.79943 0.05512 0.10725 0.0
C2805 C 0.79542 0.05328 0.12794 0.0
C2806 C 0.79403 0.07255 0.13723 0.0
C2807 C 0.7777 0.04172 0.1313 0.0
C2808 C 0.81269 0.04287 0.13431 0.0
C2809 C 0.82438 0.03918 0.11945 0.0
C2810 C 0.84139 0.03016 0.12175 0.0
C2811 C 0.84676 0.02498 0.13976 0.0
C2812 C 0.83523 0.02891 0.15531 0.0
C2813 C 0.81784 0.03775 0.15246 0.0
H2814 H 0.68548 0.054 0.82965 0.0
H2815 H 0.6693 0.99926 0.84986 0.0
H2816 H 0.68138 0.00721 0.88096 0.0
H2817 H 0.72757 0.05875 0.85679 0.0
H2818 H 0.72408 0.08321 0.86133 0.0
H2819 H 0.715 0.07293 0.84029 0.0
H2820 H 0.68192 0.0848 0.84864 0.0
H2821 H 0.6909 0.09513 0.86967 0.0
H2822 H 0.67188 0.07875 0.87086 0.0
H2823 H 0.69469 0.0212 0.91008 0.0
H2824 H 0.70795 0.04046 0.93526 0.0
H2825 H 0.71373 0.08674 0.89667 0.0
C2826 C 0.68441 0.04367 0.84059 0.0
C2827 C 0.67659 0.02589 0.83713 0.0
C2828 C 0.67563 0.0128 0.85192 0.0
C2829 C 0.68232 0.01723 0.86973 0.0
C2830 C 0.68986 0.03487 0.87263 0.0
C2831 C 0.6909 0.04791 0.85851 0.0
C2832 C 0.69918 0.06605 0.86548 0.0
C2833 C 0.71755 0.07049 0.85537 0.0
C2834 C 0.68513 0.08213 0.86355 0.0
C2835 C 0.70255 0.06117 0.88574 0.0
C2836 C 0.69715 0.04309 0.88955 0.0
C2837 C 0.69889 0.03542 0.90729 0.0
C2838 C 0.70632 0.04653 0.92155 0.0
C2839 C 0.71182 0.06519 0.91805 0.0
C2840 C 0.70989 0.07249 0.89983 0.0
H2841 H 0.58809 0.69507 0.9224 0.0
H2842 H 0.5892 0.75116 0.94479 0.0
H2843 H 0.61836 0.74386 0.96173 0.0
H2844 H 0.60668 0.67131 0.96301 0.0
H2845 H 0.62046 0.65524 0.94949 0.0
H2846 H 0.59921 0.66463 0.93997 0.0
H2847 H 0.61743 0.67669 0.91122 0.0
H2848 H 0.63875 0.66744 0.9207 0.0
H2849 H 0.63726 0.69176 0.9146 0.0
H2850 H 0.6472 0.73038 0.97631 0.0
H2851 H 0.67461 0.71209 0.98647 0.0
H2852 H 0.65572 0.66529 0.95323 0.0
C2853 C 0.59439 0.70569 0.93108 0.0
C2854 C 0.5864 0.72362 0.9325 0.0
C2855 C 0.59516 0.73735 0.94362 0.0
C2856 C 0.61167 0.73331 0.95328 0.0
C2857 C 0.61933 0.71555 0.95147 0.0
C2858 C 0.61105 0.70199 0.94056 0.0
C2859 C 0.62258 0.68429 0.94036 0.0
C2860 C 0.61157 0.6679 0.94871 0.0
C2861 C 0.62941 0.67979 0.92054 0.0
C2862 C 0.63859 0.69 0.95288 0.0
C2863 C 0.63635 0.70803 0.95927 0.0
C2864 C 0.64914 0.71627 0.97135 0.0
C2865 C 0.66462 0.70579 0.97707 0.0
C2866 C 0.66728 0.68737 0.97054 0.0
C2867 C 0.65412 0.67944 0.95823 0.0
H2868 H 0.06622 0.08414 0.80599 0.0
H2869 H 0.06641 0.09669 0.74681 0.0
H2870 H 0.05259 0.1275 0.75333 0.0
H2871 H 0.02258 0.10764 0.81687 0.0
H2872 H 0.03077 0.11601 0.83909 0.0
H2873 H 0.03983 0.09458 0.82966 0.0
H2874 H 0.07343 0.10753 0.83248 0.0
H2875 H 0.06448 0.12903 0.84183 0.0
H2876 H 0.07921 0.12936 0.82148 0.0
H2877 H 0.04041 0.15761 0.7664 0.0
H2878 H 0.02966 0.18445 0.78498 0.0
H2879 H 0.03688 0.15211 0.83563 0.0
C2880 C 0.06331 0.09335 0.79439 0.0
C2881 C 0.06733 0.08795 0.77587 0.0
C2882 C 0.06318 0.10037 0.76108 0.0
C2883 C 0.05544 0.11796 0.76465 0.0
C2884 C 0.05186 0.12291 0.78308 0.0
C2885 C 0.05554 0.11094 0.7977 0.0
C2886 C 0.05064 0.11978 0.81623 0.0
C2887 C 0.03503 0.10885 0.82604 0.0
C2888 C 0.06798 0.12153 0.82874 0.0
C2889 C 0.04389 0.1387 0.80976 0.0
C2890 C 0.04468 0.14021 0.79059 0.0
C2891 C 0.03954 0.15652 0.78141 0.0
C2892 C 0.03335 0.17167 0.7921 0.0
C2893 C 0.03229 0.17043 0.8118 0.0
C2894 C 0.03766 0.15364 0.82065 0.0
H2895 H 0.9132 0.30583 0.43508 0.0
H2896 H 0.90259 0.24648 0.43987 0.0
H2897 H 0.87178 0.25316 0.45372 0.0
H2898 H 0.88985 0.31972 0.47794 0.0
H2899 H 0.88073 0.34087 0.4679 0.0
H2900 H 0.90238 0.33131 0.4595 0.0
H2901 H 0.88908 0.33077 0.42592 0.0
H2902 H 0.86736 0.3402 0.43423 0.0
H2903 H 0.86756 0.31862 0.42137 0.0
H2904 H 0.84125 0.26642 0.46526 0.0
H2905 H 0.81391 0.28519 0.47452 0.0
H2906 H 0.84479 0.33581 0.46238 0.0
C2907 C 0.90444 0.29422 0.43909 0.0
C2908 C 0.91035 0.27562 0.43642 0.0
C2909 C 0.8985 0.26084 0.44204 0.0
C2910 C 0.88092 0.26449 0.4498 0.0
C2911 C 0.87541 0.283 0.45194 0.0
C2912 C 0.88688 0.29761 0.44686 0.0
C2913 C 0.87752 0.31623 0.45018 0.0
C2914 C 0.88826 0.3277 0.46475 0.0
C2915 C 0.87525 0.32709 0.43183 0.0
C2916 C 0.85887 0.3098 0.45767 0.0
C2917 C 0.85792 0.2906 0.45863 0.0
C2918 C 0.8419 0.28147 0.46474 0.0
C2919 C 0.82646 0.29227 0.47004 0.0
C2920 C 0.82714 0.312 0.46921 0.0
C2921 C 0.84366 0.32077 0.46297 0.0
H2922 H 0.56535 0.9181 0.80502 0.0
H2923 H 0.56561 0.90393 0.74624 0.0
H2924 H 0.551 0.87362 0.75348 0.0
H2925 H 0.57716 0.87352 0.82165 0.0
H2926 H 0.56241 0.8745 0.84197 0.0
H2927 H 0.57154 0.89567 0.83209 0.0
H2928 H 0.53803 0.90878 0.82889 0.0
H2929 H 0.52879 0.88764 0.83882 0.0
H2930 H 0.52071 0.89554 0.81639 0.0
H2931 H 0.53817 0.84425 0.76717 0.0
H2932 H 0.52772 0.81773 0.78645 0.0
H2933 H 0.53584 0.8509 0.83637 0.0
C2934 C 0.56198 0.90877 0.79365 0.0
C2935 C 0.5666 0.91335 0.77506 0.0
C2936 C 0.56233 0.90061 0.76059 0.0
C2937 C 0.55395 0.88343 0.76455 0.0
C2938 C 0.54986 0.87921 0.78304 0.0
C2939 C 0.55365 0.89152 0.79736 0.0
C2940 C 0.54867 0.88318 0.81611 0.0
C2941 C 0.56598 0.88162 0.82869 0.0
C2942 C 0.53312 0.89446 0.82561 0.0
C2943 C 0.54177 0.86415 0.81011 0.0
C2944 C 0.54247 0.8622 0.79097 0.0
C2945 C 0.53745 0.84564 0.78217 0.0
C2946 C 0.53166 0.83063 0.79324 0.0
C2947 C 0.53097 0.83225 0.8129 0.0
C2948 C 0.53595 0.84933 0.82137 0.0
H2949 H 0.96961 0.15443 0.33111 0.0
H2950 H 0.94847 0.19511 0.29167 0.0
H2951 H 0.93496 0.16972 0.27276 0.0
H2952 H 0.98138 0.11851 0.29699 0.0
H2953 H 0.97418 0.09968 0.31198 0.0
H2954 H 0.98295 0.121 0.32194 0.0
H2955 H 0.95271 0.12435 0.34139 0.0
H2956 H 0.94381 0.10311 0.33144 0.0
H2957 H 0.93045 0.12431 0.32972 0.0
H2958 H 0.92282 0.14016 0.25879 0.0
H2959 H 0.91252 0.1084 0.25076 0.0
H2960 H 0.94193 0.08671 0.29901 0.0
C2961 C 0.9624 0.15796 0.31834 0.0
C2962 C 0.96011 0.17674 0.31283 0.0
C2963 C 0.95025 0.18083 0.29622 0.0
C2964 C 0.94262 0.1665 0.28534 0.0
C2965 C 0.94497 0.14816 0.29126 0.0
C2966 C 0.95462 0.14383 0.30735 0.0
C2967 C 0.95454 0.12301 0.31093 0.0
C2968 C 0.97445 0.11509 0.31042 0.0
C2969 C 0.94479 0.11844 0.32947 0.0
C2970 C 0.94319 0.11634 0.29442 0.0
C2971 C 0.9379 0.13108 0.28321 0.0
C2972 C 0.92702 0.12848 0.26736 0.0
C2973 C 0.92134 0.11035 0.26285 0.0
C2974 C 0.92652 0.09498 0.27415 0.0
C2975 C 0.93765 0.09813 0.29012 0.0
H2976 H 0.57821 0.08926 0.69788 0.0
H2977 H 0.55591 0.09338 0.75397 0.0
H2978 H 0.54068 0.12313 0.74564 0.0
H2979 H 0.58733 0.13785 0.69127 0.0
H2980 H 0.58056 0.13777 0.66708 0.0
H2981 H 0.58983 0.11694 0.67756 0.0
H2982 H 0.56032 0.09866 0.66753 0.0
H2983 H 0.55096 0.11944 0.65701 0.0
H2984 H 0.53765 0.10709 0.67436 0.0
H2985 H 0.52772 0.15238 0.73103 0.0
H2986 H 0.51787 0.17878 0.71124 0.0
H2987 H 0.54851 0.1552 0.66471 0.0
C2988 C 0.56997 0.09628 0.70839 0.0
C2989 C 0.56825 0.08894 0.7266 0.0
C2990 C 0.55762 0.09882 0.74 0.0
C2991 C 0.54883 0.11567 0.73537 0.0
C2992 C 0.5508 0.12246 0.71728 0.0
C2993 C 0.5611 0.11306 0.70401 0.0
C2994 C 0.56104 0.1233 0.68556 0.0
C2995 C 0.58087 0.12932 0.68005 0.0
C2996 C 0.55195 0.11141 0.67021 0.0
C2997 C 0.54905 0.13993 0.69051 0.0
C2998 C 0.54331 0.13922 0.70888 0.0
C2999 C 0.53216 0.1531 0.71664 0.0
C3000 C 0.52673 0.16809 0.70532 0.0
C3001 C 0.53243 0.16908 0.68643 0.0
C3002 C 0.54374 0.15475 0.67902 0.0
H3003 H 0.17187 0.31004 0.94133 0.0
H3004 H 0.15122 0.33222 0.9937 0.0
H3005 H 0.11983 0.32043 0.98634 0.0
H3006 H 0.13176 0.32152 0.91426 0.0
H3007 H 0.13255 0.30069 0.90024 0.0
H3008 H 0.1537 0.31004 0.90998 0.0
H3009 H 0.16051 0.27833 0.92585 0.0
H3010 H 0.13935 0.26888 0.91617 0.0
H3011 H 0.14323 0.26813 0.94098 0.0
H3012 H 0.09041 0.30786 0.97278 0.0
H3013 H 0.06481 0.29456 0.95399 0.0
H3014 H 0.10421 0.28026 0.91042 0.0
C3015 C 0.16075 0.31238 0.95126 0.0
C3016 C 0.16408 0.32193 0.96818 0.0
C3017 C 0.14913 0.32464 0.98083 0.0
C3018 C 0.13121 0.31809 0.97673 0.0
C3019 C 0.1284 0.30879 0.95994 0.0
C3020 C 0.14273 0.30585 0.94742 0.0
C3021 C 0.1358 0.29574 0.93019 0.0
C3022 C 0.13862 0.30772 0.91263 0.0
C3023 C 0.14529 0.27664 0.92819 0.0
C3024 C 0.11531 0.29369 0.93492 0.0
C3025 C 0.11137 0.30132 0.95216 0.0
C3026 C 0.09333 0.30173 0.95931 0.0
C3027 C 0.07888 0.29423 0.94853 0.0
C3028 C 0.08256 0.28636 0.93081 0.0
C3029 C 0.10106 0.28596 0.92403 0.0
H3030 H 0.40827 0.70336 0.41899 0.0
H3031 H 0.41812 0.75048 0.45565 0.0
H3032 H 0.38983 0.74232 0.47355 0.0
H3033 H 0.35848 0.70805 0.4171 0.0
H3034 H 0.35436 0.68327 0.41671 0.0
H3035 H 0.37561 0.6926 0.40714 0.0
H3036 H 0.39494 0.67116 0.42886 0.0
H3037 H 0.37376 0.66174 0.43847 0.0
H3038 H 0.39099 0.67192 0.45366 0.0
H3039 H 0.3601 0.72905 0.48724 0.0
H3040 H 0.33152 0.7117 0.49562 0.0
H3041 H 0.34126 0.67368 0.44959 0.0
C3042 C 0.40444 0.7121 0.43067 0.0
C3043 C 0.41545 0.7276 0.43588 0.0
C3044 C 0.41006 0.73841 0.45151 0.0
C3045 C 0.39394 0.73396 0.4617 0.0
C3046 C 0.38337 0.71866 0.45607 0.0
C3047 C 0.38841 0.70791 0.44092 0.0
C3048 C 0.37467 0.69224 0.43767 0.0
C3049 C 0.36522 0.69416 0.41852 0.0
C3050 C 0.38416 0.67313 0.4398 0.0
C3051 C 0.36104 0.69586 0.45334 0.0
C3052 C 0.36629 0.71113 0.46383 0.0
C3053 C 0.35588 0.71706 0.47913 0.0
C3054 C 0.33972 0.70707 0.48382 0.0
C3055 C 0.3341 0.69137 0.47324 0.0
C3056 C 0.34498 0.68579 0.4578 0.0
H3057 H 0.80426 0.55012 0.83522 0.0
H3058 H 0.8198 0.49556 0.85625 0.0
H3059 H 0.80675 0.50372 0.88698 0.0
H3060 H 0.81548 0.57541 0.87532 0.0
H3061 H 0.79617 0.5914 0.87381 0.0
H3062 H 0.8053 0.58082 0.85299 0.0
H3063 H 0.77251 0.56803 0.8449 0.0
H3064 H 0.76323 0.57867 0.86568 0.0
H3065 H 0.76018 0.55404 0.86174 0.0
H3066 H 0.79468 0.51865 0.91601 0.0
H3067 H 0.78332 0.53911 0.94129 0.0
H3068 H 0.77447 0.58361 0.90138 0.0
C3069 C 0.80451 0.53972 0.84615 0.0
C3070 C 0.81311 0.52219 0.84331 0.0
C3071 C 0.81351 0.50915 0.85813 0.0
C3072 C 0.80601 0.5136 0.87561 0.0
C3073 C 0.79799 0.53111 0.87803 0.0
C3074 C 0.79703 0.54392 0.86369 0.0
C3075 C 0.78842 0.56207 0.87025 0.0
C3076 C 0.80217 0.57838 0.86796 0.0
C3077 C 0.76999 0.56592 0.86003 0.0
C3078 C 0.78509 0.5576 0.89062 0.0
C3079 C 0.79066 0.53963 0.89478 0.0
C3080 C 0.79003 0.53265 0.91288 0.0
C3081 C 0.78365 0.54437 0.92714 0.0
C3082 C 0.77792 0.56284 0.92321 0.0
C3083 C 0.77844 0.56943 0.90467 0.0
H3084 H 0.65928 0.55324 0.15998 0.0
H3085 H 0.69498 0.50486 0.16683 0.0
H3086 H 0.71239 0.51373 0.13852 0.0
H3087 H 0.65704 0.55198 0.10987 0.0
H3088 H 0.65763 0.57696 0.1073 0.0
H3089 H 0.64778 0.56671 0.12799 0.0
H3090 H 0.67041 0.58601 0.14848 0.0
H3091 H 0.68029 0.59637 0.12787 0.0
H3092 H 0.69515 0.58454 0.14431 0.0
H3093 H 0.72634 0.52816 0.10991 0.0
H3094 H 0.73571 0.54704 0.08271 0.0
H3095 H 0.69114 0.58618 0.09457 0.0
C3096 C 0.67083 0.54457 0.1556 0.0
C3097 C 0.67572 0.52831 0.16561 0.0
C3098 C 0.6908 0.51723 0.15925 0.0
C3099 C 0.70083 0.5222 0.14324 0.0
C3100 C 0.69562 0.53828 0.13371 0.0
C3101 C 0.68097 0.5493 0.13961 0.0
C3102 C 0.67829 0.56592 0.12687 0.0
C3103 C 0.65904 0.56535 0.11745 0.0
C3104 C 0.68122 0.58429 0.13752 0.0
C3105 C 0.69378 0.56257 0.11292 0.0
C3106 C 0.70361 0.54655 0.11714 0.0
C3107 C 0.71874 0.54072 0.10646 0.0
C3108 C 0.72401 0.55158 0.0911 0.0
C3109 C 0.71417 0.56808 0.08653 0.0
C3110 C 0.69879 0.57352 0.09757 0.0
H3111 H 0.71892 0.41693 0.39859 0.0
H3112 H 0.72361 0.46593 0.43371 0.0
H3113 H 0.71244 0.48559 0.40776 0.0
H3114 H 0.73325 0.43947 0.35482 0.0
H3115 H 0.71684 0.42637 0.34104 0.0
H3116 H 0.72653 0.41633 0.36193 0.0
H3117 H 0.69322 0.41063 0.37469 0.0
H3118 H 0.68344 0.42064 0.35388 0.0
H3119 H 0.67719 0.42991 0.37638 0.0
H3120 H 0.69905 0.49962 0.37875 0.0
H3121 H 0.68399 0.50704 0.3487 0.0
H3122 H 0.68792 0.44892 0.33243 0.0
C3123 C 0.71795 0.43185 0.40069 0.0
C3124 C 0.72216 0.43992 0.41816 0.0
C3125 C 0.72031 0.45944 0.42049 0.0
C3126 C 0.7141 0.47073 0.40581 0.0
C3127 C 0.70984 0.4623 0.38885 0.0
C3128 C 0.71171 0.44331 0.38619 0.0
C3129 C 0.70523 0.43763 0.36691 0.0
C3130 C 0.72143 0.42947 0.3555 0.0
C3131 C 0.68879 0.4239 0.36804 0.0
C3132 C 0.69914 0.45634 0.35926 0.0
C3133 C 0.70205 0.4704 0.37209 0.0
C3134 C 0.69682 0.48875 0.36853 0.0
C3135 C 0.68819 0.49281 0.35148 0.0
C3136 C 0.68481 0.47858 0.33821 0.0
C3137 C 0.69061 0.46016 0.34214 0.0
H3138 H 0.79977 0.46412 0.66836 0.0
H3139 H 0.85602 0.47847 0.65119 0.0
H3140 H 0.84985 0.46547 0.62004 0.0
H3141 H 0.79741 0.42037 0.64375 0.0
H3142 H 0.77326 0.42299 0.63732 0.0
H3143 H 0.78188 0.43371 0.65831 0.0
H3144 H 0.77005 0.46585 0.64687 0.0
H3145 H 0.76138 0.45522 0.62585 0.0
H3146 H 0.77746 0.47447 0.62447 0.0
H3147 H 0.83799 0.45071 0.59101 0.0
H3148 H 0.82098 0.43515 0.56556 0.0
H3149 H 0.77225 0.43024 0.60113 0.0
C3150 C 0.81079 0.46448 0.65805 0.0
C3151 C 0.82832 0.47251 0.66218 0.0
C3152 C 0.84235 0.47276 0.64826 0.0
C3153 C 0.83904 0.46529 0.63056 0.0
C3154 C 0.82162 0.45755 0.62693 0.0
C3155 C 0.8077 0.45708 0.64023 0.0
C3156 C 0.79024 0.44792 0.63261 0.0
C3157 C 0.78542 0.4302 0.64366 0.0
C3158 C 0.77381 0.46169 0.63244 0.0
C3159 C 0.79658 0.44327 0.61299 0.0
C3160 C 0.81473 0.44898 0.61005 0.0
C3161 C 0.82373 0.44626 0.59309 0.0
C3162 C 0.8139 0.43751 0.57868 0.0
C3163 C 0.79523 0.43159 0.58127 0.0
C3164 C 0.78653 0.43449 0.59874 0.0
H3165 H 0.42712 0.08129 0.18999 0.0
H3166 H 0.44005 0.08876 0.24863 0.0
H3167 H 0.45588 0.11838 0.24134 0.0
H3168 H 0.46999 0.10084 0.17176 0.0
H3169 H 0.45867 0.11206 0.15234 0.0
H3170 H 0.44901 0.09101 0.16202 0.0
H3171 H 0.41744 0.10777 0.16724 0.0
H3172 H 0.42699 0.12886 0.15755 0.0
H3173 H 0.41684 0.12908 0.18053 0.0
H3174 H 0.46924 0.14776 0.22795 0.0
H3175 H 0.47956 0.17473 0.20923 0.0
H3176 H 0.45749 0.14851 0.15939 0.0
C3177 C 0.43326 0.08915 0.20131 0.0
C3178 C 0.43242 0.0826 0.21989 0.0
C3179 C 0.44079 0.09328 0.23425 0.0
C3180 C 0.44972 0.1102 0.23028 0.0
C3181 C 0.45021 0.11627 0.21185 0.0
C3182 C 0.44225 0.10608 0.19759 0.0
C3183 C 0.44442 0.11593 0.17904 0.0
C3184 C 0.45623 0.10426 0.16549 0.0
C3185 C 0.42528 0.12069 0.1706 0.0
C3186 C 0.45469 0.13334 0.18514 0.0
C3187 C 0.45792 0.13324 0.20412 0.0
C3188 C 0.46683 0.14798 0.21307 0.0
C3189 C 0.47254 0.16329 0.20234 0.0
C3190 C 0.46933 0.16374 0.18286 0.0
C3191 C 0.46037 0.14847 0.17421 0.0
H3192 H 0.03169 0.84411 0.69087 0.0
H3193 H 0.07759 0.82514 0.65633 0.0
H3194 H 0.09577 0.85296 0.66519 0.0
H3195 H 0.03611 0.89261 0.68048 0.0
H3196 H 0.03053 0.9003 0.70373 0.0
H3197 H 0.02127 0.87861 0.69514 0.0
H3198 H 0.03557 0.8612 0.72336 0.0
H3199 H 0.04484 0.88285 0.73206 0.0
H3200 H 0.06017 0.86336 0.72803 0.0
H3201 H 0.10842 0.8834 0.67659 0.0
H3202 H 0.11539 0.9138 0.69117 0.0
H3203 H 0.06155 0.91297 0.7187 0.0
C3204 C 0.04558 0.84581 0.6852 0.0
C3205 C 0.05326 0.83241 0.67296 0.0
C3206 C 0.07153 0.83507 0.66594 0.0
C3207 C 0.08192 0.85089 0.6708 0.0
C3208 C 0.0739 0.86388 0.68278 0.0
C3209 C 0.05621 0.86147 0.69002 0.0
C3210 C 0.05087 0.87757 0.70262 0.0
C3211 C 0.03368 0.88788 0.69503 0.0
C3212 C 0.04768 0.87083 0.72271 0.0
C3213 C 0.06826 0.88948 0.70117 0.0
C3214 C 0.08132 0.88135 0.6896 0.0
C3215 C 0.09832 0.88989 0.68573 0.0
C3216 C 0.10211 0.90719 0.69396 0.0
C3217 C 0.08899 0.91573 0.706 0.0
C3218 C 0.07188 0.90668 0.70967 0.0
H3219 H 0.44659 0.83697 0.33017 0.0
H3220 H 0.49182 0.82748 0.29112 0.0
H3221 H 0.48317 0.85619 0.27421 0.0
H3222 H 0.4135 0.85481 0.29646 0.0
H3223 H 0.40389 0.87178 0.31231 0.0
H3224 H 0.41357 0.85039 0.32119 0.0
H3225 H 0.43572 0.8693 0.34254 0.0
H3226 H 0.42621 0.89075 0.33363 0.0
H3227 H 0.45095 0.88652 0.33239 0.0
H3228 H 0.46979 0.88596 0.26169 0.0
H3229 H 0.45235 0.91464 0.25417 0.0
H3230 H 0.41555 0.90458 0.30112 0.0
C3231 C 0.45454 0.8408 0.31792 0.0
C3232 C 0.4699 0.82997 0.31196 0.0
C3233 C 0.48013 0.83565 0.29606 0.0
C3234 C 0.47528 0.85189 0.28632 0.0
C3235 C 0.46017 0.86231 0.29266 0.0
C3236 C 0.44992 0.85698 0.30806 0.0
C3237 C 0.43441 0.87076 0.31207 0.0
C3238 C 0.41521 0.86137 0.3104 0.0
C3239 C 0.43699 0.87987 0.3313 0.0
C3240 C 0.43755 0.88467 0.29651 0.0
C3241 C 0.45247 0.87951 0.28547 0.0
C3242 C 0.45804 0.8901 0.27019 0.0
C3243 C 0.448 0.90633 0.26599 0.0
C3244 C 0.43255 0.91184 0.27702 0.0
C3245 C 0.4274 0.90086 0.29255 0.0
H3246 H 0.83891 0.69538 0.03683 0.0
H3247 H 0.83823 0.64138 0.06431 0.0
H3248 H 0.86721 0.64934 0.08064 0.0
H3249 H 0.88887 0.69611 0.02939 0.0
H3250 H 0.89096 0.72085 0.03323 0.0
H3251 H 0.86959 0.71134 0.0241 0.0
H3252 H 0.85119 0.72671 0.05109 0.0
H3253 H 0.87251 0.73619 0.06036 0.0
H3254 H 0.85779 0.72189 0.07484 0.0
H3255 H 0.89571 0.66302 0.09456 0.0
H3256 H 0.9233 0.68095 0.10395 0.0
H3257 H 0.90759 0.72515 0.06562 0.0
C3258 C 0.84488 0.68515 0.04617 0.0
C3259 C 0.83594 0.66785 0.04947 0.0
C3260 C 0.84434 0.65496 0.06191 0.0
C3261 C 0.86095 0.65927 0.07117 0.0
C3262 C 0.86924 0.67644 0.06773 0.0
C3263 C 0.86165 0.68913 0.05541 0.0
C3264 C 0.87381 0.70639 0.05393 0.0
C3265 C 0.88125 0.70881 0.03398 0.0
C3266 C 0.86319 0.72383 0.06044 0.0
C3267 C 0.88934 0.70137 0.06738 0.0
C3268 C 0.8863 0.68408 0.07524 0.0
C3269 C 0.89841 0.67649 0.08833 0.0
C3270 C 0.91418 0.68676 0.09344 0.0
C3271 C 0.91795 0.7044 0.08532 0.0
C3272 C 0.90519 0.71178 0.07217 0.0
H3273 H 0.59704 0.27771 0.57121 0.0
H3274 H 0.56204 0.32662 0.57742 0.0
H3275 H 0.58668 0.34606 0.56328 0.0
H3276 H 0.63989 0.30011 0.58275 0.0
H3277 H 0.6537 0.28728 0.56615 0.0
H3278 H 0.633 0.27694 0.57589 0.0
H3279 H 0.61992 0.27143 0.54269 0.0
H3280 H 0.64063 0.28167 0.53284 0.0
H3281 H 0.61801 0.29079 0.5268 0.0
H3282 H 0.6151 0.36027 0.54922 0.0
H3283 H 0.6459 0.3686 0.53647 0.0
H3284 H 0.66287 0.3106 0.53945 0.0
C3285 C 0.59451 0.29247 0.56936 0.0
C3286 C 0.57766 0.3007 0.57539 0.0
C3287 C 0.57493 0.3201 0.57303 0.0
C3288 C 0.58879 0.33122 0.56494 0.0
C3289 C 0.60533 0.32274 0.55935 0.0
C3290 C 0.6083 0.30383 0.56145 0.0
C3291 C 0.62762 0.29838 0.55481 0.0
C3292 C 0.63923 0.2902 0.57086 0.0
C3293 C 0.62647 0.28476 0.5383 0.0
C3294 C 0.63505 0.3172 0.54875 0.0
C3295 C 0.6219 0.33102 0.55139 0.0
C3296 C 0.62549 0.34956 0.54698 0.0
C3297 C 0.643 0.35414 0.53965 0.0
C3298 C 0.65677 0.34025 0.53685 0.0
C3299 C 0.65268 0.32154 0.54152 0.0
H3300 H 0.22599 0.43709 0.09421 0.0
H3301 H 0.18949 0.38945 0.0864 0.0
H3302 H 0.17352 0.39682 0.11586 0.0
H3303 H 0.23059 0.43241 0.14446 0.0
H3304 H 0.23051 0.45719 0.1486 0.0
H3305 H 0.23935 0.44812 0.12692 0.0
H3306 H 0.21624 0.46903 0.10869 0.0
H3307 H 0.20731 0.47814 0.1303 0.0
H3308 H 0.19166 0.46758 0.11373 0.0
H3309 H 0.16106 0.40945 0.14561 0.0
H3310 H 0.15254 0.42685 0.17388 0.0
H3311 H 0.19761 0.46592 0.16339 0.0
C3312 C 0.21474 0.42814 0.09879 0.0
C3313 C 0.2089 0.41277 0.08788 0.0
C3314 C 0.19399 0.40149 0.0943 0.0
C3315 C 0.18492 0.40547 0.1111 0.0
C3316 C 0.19092 0.42075 0.12142 0.0
C3317 C 0.20547 0.43192 0.11557 0.0
C3318 C 0.2089 0.44767 0.12926 0.0
C3319 C 0.2285 0.44625 0.13782 0.0
C3320 C 0.20584 0.46673 0.11993 0.0
C3321 C 0.19392 0.44363 0.14362 0.0
C3322 C 0.18379 0.42799 0.13882 0.0
C3323 C 0.16901 0.42162 0.14964 0.0
C3324 C 0.16438 0.43155 0.16579 0.0
C3325 C 0.17451 0.44768 0.17106 0.0
C3326 C 0.18953 0.45371 0.15976 0.0
H3327 H 0.30953 0.45586 0.83353 0.0
H3328 H 0.34145 0.50146 0.85727 0.0
H3329 H 0.32986 0.49325 0.88856 0.0
H3330 H 0.26948 0.45961 0.86465 0.0
H3331 H 0.26626 0.43474 0.86611 0.0
H3332 H 0.27612 0.44491 0.84538 0.0
H3333 H 0.30503 0.42349 0.8485 0.0
H3334 H 0.29527 0.41325 0.86921 0.0
H3335 H 0.31817 0.42355 0.86992 0.0
H3336 H 0.31651 0.47891 0.91748 0.0
H3337 H 0.30171 0.45974 0.94198 0.0
H3338 H 0.27858 0.42339 0.89955 0.0
C3339 C 0.31404 0.46416 0.84529 0.0
C3340 C 0.32633 0.47939 0.84289 0.0
C3341 C 0.33179 0.48995 0.85867 0.0
C3342 C 0.32536 0.48533 0.87653 0.0
C3343 C 0.31341 0.47016 0.87841 0.0
C3344 C 0.30772 0.45977 0.86322 0.0
C3345 C 0.29525 0.44378 0.86914 0.0
C3346 C 0.27561 0.4459 0.86082 0.0
C3347 C 0.30396 0.4249 0.86388 0.0
C3348 C 0.29506 0.44663 0.89006 0.0
C3349 C 0.30559 0.46195 0.8951 0.0
C3350 C 0.30811 0.46696 0.91369 0.0
C3351 C 0.29974 0.45596 0.9275 0.0
C3352 C 0.28895 0.44015 0.92266 0.0
C3353 C 0.28649 0.43558 0.90366 0.0
H3354 H 0.31039 0.57906 0.58764 0.0
H3355 H 0.25422 0.55663 0.5885 0.0
H3356 H 0.26159 0.5393 0.61731 0.0
H3357 H 0.33374 0.53736 0.60507 0.0
H3358 H 0.35023 0.5504 0.61883 0.0
H3359 H 0.34077 0.56037 0.59782 0.0
H3360 H 0.32949 0.58911 0.61655 0.0
H3361 H 0.33879 0.57918 0.63763 0.0
H3362 H 0.31457 0.58576 0.6365 0.0
H3363 H 0.2747 0.52512 0.64638 0.0
H3364 H 0.29271 0.51508 0.67393 0.0
H3365 H 0.34041 0.54665 0.6542 0.0
C3366 C 0.29975 0.57028 0.59374 0.0
C3367 C 0.28174 0.56917 0.58584 0.0
C3368 C 0.26806 0.55779 0.59442 0.0
C3369 C 0.27213 0.54784 0.61073 0.0
C3370 C 0.28994 0.54943 0.6183 0.0
C3371 C 0.30355 0.56032 0.6101 0.0
C3372 C 0.32138 0.56005 0.62141 0.0
C3373 C 0.33748 0.55153 0.6101 0.0
C3374 C 0.32634 0.57969 0.62844 0.0
C3375 C 0.31562 0.54742 0.63731 0.0
C3376 C 0.29746 0.54136 0.63518 0.0
C3377 C 0.28898 0.52968 0.64815 0.0
C3378 C 0.29934 0.52399 0.66371 0.0
C3379 C 0.31798 0.53005 0.66621 0.0
C3380 C 0.32615 0.54193 0.65278 0.0
H3381 H 0.19658 0.55039 0.33227 0.0
H3382 H 0.16014 0.50859 0.35664 0.0
H3383 H 0.17087 0.51749 0.38791 0.0
H3384 H 0.2346 0.54583 0.36539 0.0
H3385 H 0.23937 0.57049 0.36605 0.0
H3386 H 0.22979 0.56011 0.34528 0.0
H3387 H 0.2022 0.5834 0.34623 0.0
H3388 H 0.21172 0.59388 0.36695 0.0
H3389 H 0.18818 0.58508 0.36701 0.0
H3390 H 0.18451 0.53139 0.4166 0.0
H3391 H 0.19982 0.55004 0.44105 0.0
H3392 H 0.22645 0.58388 0.39853 0.0
C3393 C 0.19085 0.54309 0.34416 0.0
C3394 C 0.17768 0.52856 0.34185 0.0
C3395 C 0.1706 0.51939 0.35788 0.0
C3396 C 0.17651 0.52443 0.37577 0.0
C3397 C 0.18945 0.53876 0.37752 0.0
C3398 C 0.19651 0.54802 0.36219 0.0
C3399 C 0.20974 0.56343 0.36807 0.0
C3400 C 0.22955 0.55974 0.36076 0.0
C3401 C 0.20252 0.58258 0.36169 0.0
C3402 C 0.20883 0.56146 0.38909 0.0
C3403 C 0.19712 0.54707 0.3942 0.0
C3404 C 0.19371 0.54271 0.41279 0.0
C3405 C 0.20238 0.55347 0.42658 0.0
C3406 C 0.21426 0.56849 0.42173 0.0
C3407 C 0.21762 0.57237 0.40269 0.0
loop_
_geom_bond_atom_site_label_1
_geom_bond_atom_site_label_2
_geom_bond_distance
_geom_bond_site_symmetry_2
_ccdc_geom_bond_type
Li0 N17 1.990 . S
Li0 O60 1.956 . S
Li0 O61 1.970 . S
Li0 O62 1.961 1_455 S
Li1 N25 1.990 . S
Li1 O60 1.970 . S
Li1 O61 1.956 . S
Li1 O63 1.961 1_455 S
Li2 N47 1.990 . S
Li2 O60 1.961 1_655 S
Li2 O62 1.956 . S
Li2 O63 1.970 . S
Li3 N53 1.990 . S
Li3 O61 1.961 1_655 S
Li3 O62 1.970 . S
Li3 O63 1.956 . S
C4 C6 1.348 . S
C4 C7 1.356 . S
C4 O60 1.325 . S
N5 C8 1.314 . S
N5 C9 1.279 . S
C6 C4 1.348 . S
C6 C8 1.353 . S
C6 H64 0.929 . S
C7 C4 1.356 . S
C7 C9 1.358 . S
C7 H65 0.930 . S
C8 N5 1.314 . S
C8 C6 1.353 . S
C8 H66 0.930 . S
C9 N5 1.279 . S
C9 C7 1.358 . S
C9 H67 0.930 . S
C10 C13 1.348 . S
C10 C14 1.356 . S
C10 O61 1.325 . S
C11 N12 1.279 . S
C11 C14 1.358 . S
C11 H68 0.930 . S
N12 C11 1.279 . S
N12 C15 1.314 . S
C13 C10 1.348 . S
C13 C15 1.353 . S
C13 H69 0.929 . S
C14 C10 1.356 . S
C14 C11 1.358 . S
C14 H70 0.930 . S
C15 N12 1.314 . S
C15 C13 1.353 . S
C15 H71 0.930 . S
C16 N17 1.314 . S
C16 C21 1.353 . S
C16 H22 0.930 1_455 S
N17 Li0 1.990 . S
N17 C16 1.314 . S
N17 C19 1.279 . S
C18 C19 1.358 . S
C18 C20 1.356 . S
C18 H72 0.930 . S
C19 N17 1.279 . S
C19 C18 1.358 . S
C19 H23 0.930 . S
C20 C18 1.356 . S
C20 C21 1.348 . S
C21 C16 1.353 . S
C21 C20 1.348 . S
C21 H73 0.929 . S
H22 C16 0.930 1_655 S
H23 C19 0.930 . S
C24 N25 1.314 . S
C24 C26 1.353 . S
C24 H30 0.930 . S
N25 Li1 1.990 . S
N25 C24 1.314 . S
N25 C28 1.279 . S
C26 C24 1.353 . S
C26 C29 1.348 . S
C26 H74 0.929 . S
C27 C28 1.358 . S
C27 C29 1.356 . S
C27 H75 0.930 . S
C28 N25 1.279 . S
C28 C27 1.358 . S
C28 H31 0.930 . S
C29 C26 1.348 . S
C29 C27 1.356 . S
H30 C24 0.930 . S
H31 C28 0.930 . S
C32 C34 1.348 . S
C32 C35 1.356 . S
C32 O62 1.325 . S
N33 C36 1.314 . S
N33 C37 1.279 . S
C34 C32 1.348 . S
C34 C36 1.353 . S
C34 H76 0.929 . S
C35 C32 1.356 . S
C35 C37 1.358 . S
C35 H77 0.930 . S
C36 N33 1.314 . S
C36 C34 1.353 . S
C36 H78 0.930 . S
C37 N33 1.279 . S
C37 C35 1.358 . S
C37 H79 0.930 . S
C38 C39 1.348 . S
C38 C40 1.356 . S
C38 O63 1.325 . S
C39 C38 1.348 . S
C39 C41 1.353 . S
C39 H80 0.929 . S
C40 C38 1.356 . S
C40 C42 1.358 . S
C40 H81 0.930 . S
C41 C39 1.353 . S
C41 N43 1.314 . S
C41 H82 0.930 . S
C42 C40 1.358 . S
C42 N43 1.279 . S
C42 H83 0.930 . S
N43 C41 1.314 . S
N43 C42 1.279 . S
C44 C46 1.353 . S
C44 N47 1.314 . S
C44 H50 0.930 1_655 S
C45 N47 1.279 . S
C45 C48 1.358 . S
C45 H51 0.930 . S
C46 C44 1.353 . S
C46 C49 1.348 . S
C46 H84 0.929 . S
N47 Li2 1.990 . S
N47 C44 1.314 . S
N47 C45 1.279 . S
C48 C45 1.358 . S
C48 C49 1.356 . S
C48 H85 0.930 . S
C49 C46 1.348 . S
C49 C48 1.356 . S
H50 C44 0.930 1_455 S
H51 C45 0.930 . S
C52 N53 1.314 . S
C52 C54 1.353 . S
C52 H58 0.930 . S
N53 Li3 1.990 . S
N53 C52 1.314 . S
N53 C56 1.279 . S
C54 C52 1.353 . S
C54 C57 1.348 . S
C54 H86 0.929 . S
C55 C56 1.358 . S
C55 C57 1.356 . S
C55 H87 0.930 . S
C56 N53 1.279 . S
C56 C55 1.358 . S
C56 H59 0.930 . S
C57 C54 1.348 . S
C57 C55 1.356 . S
H58 C52 0.930 . S
H59 C56 0.930 . S
O60 Li0 1.956 . S
O60 Li1 1.970 . S
O60 Li2 1.961 1_455 S
O60 C4 1.325 . S
O61 Li0 1.970 . S
O61 Li1 1.956 . S
O61 Li3 1.961 1_455 S
O61 C10 1.325 . S
O62 Li0 1.961 1_655 S
O62 Li2 1.956 . S
O62 Li3 1.970 . S
O62 C32 1.325 . S
O63 Li1 1.961 1_655 S
O63 Li2 1.970 . S
O63 Li3 1.956 . S
O63 C38 1.325 . S
H64 C6 0.929 . S
H65 C7 0.930 . S
H66 C8 0.930 . S
H67 C9 0.930 . S
H68 C11 0.930 . S
H69 C13 0.929 . S
H70 C14 0.930 . S
H71 C15 0.930 . S
H72 C18 0.930 . S
H73 C21 0.929 . S
H74 C26 0.929 . S
H75 C27 0.930 . S
H76 C34 0.929 . S
H77 C35 0.930 . S
H78 C36 0.930 . S
H79 C37 0.930 . S
H80 C39 0.929 . S
H81 C40 0.930 . S
H82 C41 0.930 . S
H83 C42 0.930 . S
H84 C46 0.929 . S
H85 C48 0.930 . S
H86 C54 0.929 . S
H87 C55 0.930 . S
Li88 N105 1.990 . S
Li88 O148 1.956 1_455 S
Li88 O149 1.970 . S
Li88 O150 1.961 . S
Li89 N113 1.990 . S
Li89 O148 1.970 . S
Li89 O149 1.956 1_655 S
Li89 O151 1.961 . S
Li90 N135 1.990 . S
Li90 O148 1.961 . S
Li90 O150 1.956 1_655 S
Li90 O151 1.970 . S
Li91 N141 1.990 . S
Li91 O149 1.961 . S
Li91 O150 1.970 . S
Li91 O151 1.956 1_455 S
C92 C94 1.348 . S
C92 C95 1.356 . S
C92 O148 1.325 . S
N93 C96 1.314 . S
N93 C97 1.279 . S
C94 C92 1.348 . S
C94 C96 1.353 . S
C94 H152 0.929 . S
C95 C92 1.356 . S
C95 C97 1.358 . S
C95 H153 0.930 . S
C96 N93 1.314 . S
C96 C94 1.353 . S
C96 H154 0.930 . S
C97 N93 1.279 . S
C97 C95 1.358 . S
C97 H155 0.930 . S
C98 C101 1.348 . S
C98 C102 1.356 . S
C98 O149 1.325 . S
C99 N100 1.279 . S
C99 C102 1.358 . S
C99 H156 0.930 . S
N100 C99 1.279 . S
N100 C103 1.314 . S
C101 C98 1.348 . S
C101 C103 1.353 . S
C101 H157 0.929 . S
C102 C98 1.356 . S
C102 C99 1.358 . S
C102 H158 0.930 . S
C103 N100 1.314 . S
C103 C101 1.353 . S
C103 H159 0.930 . S
C104 N105 1.314 . S
C104 C109 1.353 . S
C104 H110 0.930 . S
N105 Li88 1.990 . S
N105 C104 1.314 . S
N105 C107 1.279 . S
C106 C107 1.358 . S
C106 C108 1.356 . S
C106 H160 0.930 . S
C107 N105 1.279 . S
C107 C106 1.358 . S
C107 H111 0.930 1_455 S
C108 C106 1.356 . S
C108 C109 1.348 . S
C109 C104 1.353 . S
C109 C108 1.348 . S
C109 H161 0.929 . S
H110 C104 0.930 . S
H111 C107 0.930 1_655 S
C112 N113 1.314 . S
C112 C114 1.353 . S
C112 H118 0.930 . S
N113 Li89 1.990 . S
N113 C112 1.314 . S
N113 C116 1.279 . S
C114 C112 1.353 . S
C114 C117 1.348 . S
C114 H162 0.929 . S
C115 C116 1.358 . S
C115 C117 1.356 . S
C115 H163 0.930 . S
C116 N113 1.279 . S
C116 C115 1.358 . S
C116 H119 0.930 . S
C117 C114 1.348 . S
C117 C115 1.356 . S
H118 C112 0.930 . S
H119 C116 0.930 . S
C120 C122 1.348 . S
C120 C123 1.356 . S
C120 O150 1.325 . S
N121 C124 1.314 . S
N121 C125 1.279 . S
C122 C120 1.348 . S
C122 C124 1.353 . S
C122 H164 0.929 . S
C123 C120 1.356 . S
C123 C125 1.358 . S
C123 H165 0.930 . S
C124 N121 1.314 . S
C124 C122 1.353 . S
C124 H166 0.930 . S
C125 N121 1.279 . S
C125 C123 1.358 . S
C125 H167 0.930 . S
C126 C127 1.348 . S
C126 C128 1.356 . S
C126 O151 1.325 . S
C127 C126 1.348 . S
C127 C129 1.353 . S
C127 H168 0.929 . S
C128 C126 1.356 . S
C128 C130 1.358 . S
C128 H169 0.930 . S
C129 C127 1.353 . S
C129 N131 1.314 . S
C129 H170 0.930 . S
C130 C128 1.358 . S
C130 N131 1.279 . S
C130 H171 0.930 . S
N131 C129 1.314 . S
N131 C130 1.279 . S
C132 C134 1.353 . S
C132 N135 1.314 . S
C132 H138 0.930 . S
C133 N135 1.279 . S
C133 C136 1.358 . S
C133 H139 0.930 1_655 S
C134 C132 1.353 . S
C134 C137 1.348 . S
C134 H172 0.929 . S
N135 Li90 1.990 . S
N135 C132 1.314 . S
N135 C133 1.279 . S
C136 C133 1.358 . S
C136 C137 1.356 . S
C136 H173 0.930 . S
C137 C134 1.348 . S
C137 C136 1.356 . S
H138 C132 0.930 . S
H139 C133 0.930 1_455 S
C140 N141 1.314 . S
C140 C142 1.353 . S
C140 H146 0.930 . S
N141 Li91 1.990 . S
N141 C140 1.314 . S
N141 C144 1.279 . S
C142 C140 1.353 . S
C142 C145 1.348 . S
C142 H174 0.929 . S
C143 C144 1.358 . S
C143 C145 1.356 . S
C143 H175 0.930 . S
C144 N141 1.279 . S
C144 C143 1.358 . S
C144 H147 0.930 . S
C145 C142 1.348 . S
C145 C143 1.356 . S
H146 C140 0.930 . S
H147 C144 0.930 . S
O148 Li88 1.956 1_655 S
O148 Li89 1.970 . S
O148 Li90 1.961 . S
O148 C92 1.325 . S
O149 Li88 1.970 . S
O149 Li89 1.956 1_455 S
O149 Li91 1.961 . S
O149 C98 1.325 . S
O150 Li88 1.961 . S
O150 Li90 1.956 1_455 S
O150 Li91 1.970 . S
O150 C120 1.325 . S
O151 Li89 1.961 . S
O151 Li90 1.970 . S
O151 Li91 1.956 1_655 S
O151 C126 1.325 . S
H152 C94 0.929 . S
H153 C95 0.930 . S
H154 C96 0.930 . S
H155 C97 0.930 . S
H156 C99 0.930 . S
H157 C101 0.929 . S
H158 C102 0.930 . S
H159 C103 0.930 . S
H160 C106 0.930 . S
H161 C109 0.929 . S
H162 C114 0.929 . S
H163 C115 0.930 . S
H164 C122 0.929 . S
H165 C123 0.930 . S
H166 C124 0.930 . S
H167 C125 0.930 . S
H168 C127 0.929 . S
H169 C128 0.930 . S
H170 C129 0.930 . S
H171 C130 0.930 . S
H172 C134 0.929 . S
H173 C136 0.930 . S
H174 C142 0.929 . S
H175 C143 0.930 . S
Li176 N193 1.990 . S
Li176 O236 1.956 . S
Li176 O237 1.970 . S
Li176 O238 1.961 . S
Li177 N201 1.990 . S
Li177 O236 1.970 . S
Li177 O237 1.956 . S
Li177 O239 1.961 . S
Li178 N223 1.990 . S
Li178 O236 1.961 . S
Li178 O238 1.956 . S
Li178 O239 1.970 . S
Li179 N229 1.990 . S
Li179 O237 1.961 . S
Li179 O238 1.970 . S
Li179 O239 1.956 . S
C180 C182 1.348 . S
C180 C183 1.356 . S
C180 O236 1.325 . S
N181 C184 1.314 . S
N181 C185 1.279 . S
C182 C180 1.348 . S
C182 C184 1.353 . S
C182 H240 0.929 . S
C183 C180 1.356 . S
C183 C185 1.358 . S
C183 H241 0.930 . S
C184 N181 1.314 . S
C184 C182 1.353 . S
C184 H242 0.930 . S
C185 N181 1.279 . S
C185 C183 1.358 . S
C185 H243 0.930 . S
C186 C189 1.348 . S
C186 C190 1.356 . S
C186 O237 1.325 . S
C187 N188 1.279 . S
C187 C190 1.358 . S
C187 H244 0.930 . S
N188 C187 1.279 . S
N188 C191 1.314 . S
C189 C186 1.348 . S
C189 C191 1.353 . S
C189 H245 0.929 . S
C190 C186 1.356 . S
C190 C187 1.358 . S
C190 H246 0.930 . S
C191 N188 1.314 . S
C191 C189 1.353 . S
C191 H247 0.930 . S
C192 N193 1.314 . S
C192 C197 1.353 . S
C192 H198 0.930 . S
N193 Li176 1.990 . S
N193 C192 1.314 . S
N193 C195 1.279 . S
C194 C195 1.358 . S
C194 C196 1.356 . S
C194 H248 0.930 . S
C195 N193 1.279 . S
C195 C194 1.358 . S
C195 H199 0.930 . S
C196 C194 1.356 . S
C196 C197 1.348 . S
C197 C192 1.353 . S
C197 C196 1.348 . S
C197 H249 0.929 . S
H198 C192 0.930 . S
H199 C195 0.930 . S
C200 N201 1.314 . S
C200 C202 1.353 . S
C200 H206 0.930 . S
N201 Li177 1.990 . S
N201 C200 1.314 . S
N201 C204 1.279 . S
C202 C200 1.353 . S
C202 C205 1.348 . S
C202 H250 0.929 . S
C203 C204 1.358 . S
C203 C205 1.356 . S
C203 H251 0.930 . S
C204 N201 1.279 . S
C204 C203 1.358 . S
C204 H207 0.930 . S
C205 C202 1.348 . S
C205 C203 1.356 . S
H206 C200 0.930 . S
H207 C204 0.930 . S
C208 C210 1.348 . S
C208 C211 1.356 . S
C208 O238 1.325 . S
N209 C212 1.314 . S
N209 C213 1.279 . S
C210 C208 1.348 . S
C210 C212 1.353 . S
C210 H252 0.929 . S
C211 C208 1.356 . S
C211 C213 1.358 . S
C211 H253 0.930 . S
C212 N209 1.314 . S
C212 C210 1.353 . S
C212 H254 0.930 . S
C213 N209 1.279 . S
C213 C211 1.358 . S
C213 H255 0.930 . S
C214 C215 1.348 . S
C214 C216 1.356 . S
C214 O239 1.325 . S
C215 C214 1.348 . S
C215 C217 1.353 . S
C215 H256 0.929 . S
C216 C214 1.356 . S
C216 C218 1.358 . S
C216 H257 0.930 . S
C217 C215 1.353 . S
C217 N219 1.314 . S
C217 H258 0.930 . S
C218 C216 1.358 . S
C218 N219 1.279 . S
C218 H259 0.930 . S
N219 C217 1.314 . S
N219 C218 1.279 . S
C220 C222 1.353 . S
C220 N223 1.314 . S
C220 H226 0.930 . S
C221 N223 1.279 . S
C221 C224 1.358 . S
C221 H227 0.930 . S
C222 C220 1.353 . S
C222 C225 1.348 . S
C222 H260 0.929 . S
N223 Li178 1.990 . S
N223 C220 1.314 . S
N223 C221 1.279 . S
C224 C221 1.358 . S
C224 C225 1.356 . S
C224 H261 0.930 . S
C225 C222 1.348 . S
C225 C224 1.356 . S
H226 C220 0.930 . S
H227 C221 0.930 . S
C228 N229 1.314 . S
C228 C230 1.353 . S
C228 H234 0.930 . S
N229 Li179 1.990 . S
N229 C228 1.314 . S
N229 C232 1.279 . S
C230 C228 1.353 . S
C230 C233 1.348 . S
C230 H262 0.929 . S
C231 C232 1.358 . S
C231 C233 1.356 . S
C231 H263 0.930 . S
C232 N229 1.279 . S
C232 C231 1.358 . S
C232 H235 0.930 . S
C233 C230 1.348 . S
C233 C231 1.356 . S
H234 C228 0.930 . S
H235 C232 0.930 . S
O236 Li176 1.956 . S
O236 Li177 1.970 . S
O236 Li178 1.961 . S
O236 C180 1.325 . S
O237 Li176 1.970 . S
O237 Li177 1.956 . S
O237 Li179 1.961 . S
O237 C186 1.325 . S
O238 Li176 1.961 . S
O238 Li178 1.956 . S
O238 Li179 1.970 . S
O238 C208 1.325 . S
O239 Li177 1.961 . S
O239 Li178 1.970 . S
O239 Li179 1.956 . S
O239 C214 1.325 . S
H240 C182 0.929 . S
H241 C183 0.930 . S
H242 C184 0.930 . S
H243 C185 0.930 . S
H244 C187 0.930 . S
H245 C189 0.929 . S
H246 C190 0.930 . S
H247 C191 0.930 . S
H248 C194 0.930 . S
H249 C197 0.929 . S
H250 C202 0.929 . S
H251 C203 0.930 . S
H252 C210 0.929 . S
H253 C211 0.930 . S
H254 C212 0.930 . S
H255 C213 0.930 . S
H256 C215 0.929 . S
H257 C216 0.930 . S
H258 C217 0.930 . S
H259 C218 0.930 . S
H260 C222 0.929 . S
H261 C224 0.930 . S
H262 C230 0.929 . S
H263 C231 0.930 . S
Li264 N281 1.990 . S
Li264 O324 1.956 . S
Li264 O325 1.970 . S
Li264 O326 1.961 . S
Li265 N289 1.990 . S
Li265 O324 1.970 . S
Li265 O325 1.956 . S
Li265 O327 1.961 . S
Li266 N311 1.990 . S
Li266 O324 1.961 . S
Li266 O326 1.956 . S
Li266 O327 1.970 . S
Li267 N317 1.990 . S
Li267 O325 1.961 . S
Li267 O326 1.970 . S
Li267 O327 1.956 . S
C268 C270 1.348 . S
C268 C271 1.356 . S
C268 O324 1.325 . S
N269 C272 1.314 . S
N269 C273 1.279 . S
C270 C268 1.348 . S
C270 C272 1.353 . S
C270 H328 0.929 . S
C271 C268 1.356 . S
C271 C273 1.358 . S
C271 H329 0.930 . S
C272 N269 1.314 . S
C272 C270 1.353 . S
C272 H330 0.930 . S
C273 N269 1.279 . S
C273 C271 1.358 . S
C273 H331 0.930 . S
C274 C277 1.348 . S
C274 C278 1.356 . S
C274 O325 1.325 . S
C275 N276 1.279 . S
C275 C278 1.358 . S
C275 H332 0.930 . S
N276 C275 1.279 . S
N276 C279 1.314 . S
C277 C274 1.348 . S
C277 C279 1.353 . S
C277 H333 0.929 . S
C278 C274 1.356 . S
C278 C275 1.358 . S
C278 H334 0.930 . S
C279 N276 1.314 . S
C279 C277 1.353 . S
C279 H335 0.930 . S
C280 N281 1.314 . S
C280 C285 1.353 . S
C280 H286 0.930 . S
N281 Li264 1.990 . S
N281 C280 1.314 . S
N281 C283 1.279 . S
C282 C283 1.358 . S
C282 C284 1.356 . S
C282 H336 0.930 . S
C283 N281 1.279 . S
C283 C282 1.358 . S
C283 H287 0.930 . S
C284 C282 1.356 . S
C284 C285 1.348 . S
C285 C280 1.353 . S
C285 C284 1.348 . S
C285 H337 0.929 . S
H286 C280 0.930 . S
H287 C283 0.930 . S
C288 N289 1.314 . S
C288 C290 1.353 . S
C288 H294 0.930 . S
N289 Li265 1.990 . S
N289 C288 1.314 . S
N289 C292 1.279 . S
C290 C288 1.353 . S
C290 C293 1.348 . S
C290 H338 0.929 . S
C291 C292 1.358 . S
C291 C293 1.356 . S
C291 H339 0.930 . S
C292 N289 1.279 . S
C292 C291 1.358 . S
C292 H295 0.930 . S
C293 C290 1.348 . S
C293 C291 1.356 . S
H294 C288 0.930 . S
H295 C292 0.930 . S
C296 C298 1.348 . S
C296 C299 1.356 . S
C296 O326 1.325 . S
N297 C300 1.314 . S
N297 C301 1.279 . S
C298 C296 1.348 . S
C298 C300 1.353 . S
C298 H340 0.929 . S
C299 C296 1.356 . S
C299 C301 1.358 . S
C299 H341 0.930 . S
C300 N297 1.314 . S
C300 C298 1.353 . S
C300 H342 0.930 . S
C301 N297 1.279 . S
C301 C299 1.358 . S
C301 H343 0.930 . S
C302 C303 1.348 . S
C302 C304 1.356 . S
C302 O327 1.325 . S
C303 C302 1.348 . S
C303 C305 1.353 . S
C303 H344 0.929 . S
C304 C302 1.356 . S
C304 C306 1.358 . S
C304 H345 0.930 . S
C305 C303 1.353 . S
C305 N307 1.314 . S
C305 H346 0.930 . S
C306 C304 1.358 . S
C306 N307 1.279 . S
C306 H347 0.930 . S
N307 C305 1.314 . S
N307 C306 1.279 . S
C308 C310 1.353 . S
C308 N311 1.314 . S
C308 H314 0.930 . S
C309 N311 1.279 . S
C309 C312 1.358 . S
C309 H315 0.930 . S
C310 C308 1.353 . S
C310 C313 1.348 . S
C310 H348 0.929 . S
N311 Li266 1.990 . S
N311 C308 1.314 . S
N311 C309 1.279 . S
C312 C309 1.358 . S
C312 C313 1.356 . S
C312 H349 0.930 . S
C313 C310 1.348 . S
C313 C312 1.356 . S
H314 C308 0.930 . S
H315 C309 0.930 . S
C316 N317 1.314 . S
C316 C318 1.353 . S
C316 H322 0.930 . S
N317 Li267 1.990 . S
N317 C316 1.314 . S
N317 C320 1.279 . S
C318 C316 1.353 . S
C318 C321 1.348 . S
C318 H350 0.929 . S
C319 C320 1.358 . S
C319 C321 1.356 . S
C319 H351 0.930 . S
C320 N317 1.279 . S
C320 C319 1.358 . S
C320 H323 0.930 . S
C321 C318 1.348 . S
C321 C319 1.356 . S
H322 C316 0.930 . S
H323 C320 0.930 . S
O324 Li264 1.956 . S
O324 Li265 1.970 . S
O324 Li266 1.961 . S
O324 C268 1.325 . S
O325 Li264 1.970 . S
O325 Li265 1.956 . S
O325 Li267 1.961 . S
O325 C274 1.325 . S
O326 Li264 1.961 . S
O326 Li266 1.956 . S
O326 Li267 1.970 . S
O326 C296 1.325 . S
O327 Li265 1.961 . S
O327 Li266 1.970 . S
O327 Li267 1.956 . S
O327 C302 1.325 . S
H328 C270 0.929 . S
H329 C271 0.930 . S
H330 C272 0.930 . S
H331 C273 0.930 . S
H332 C275 0.930 . S
H333 C277 0.929 . S
H334 C278 0.930 . S
H335 C279 0.930 . S
H336 C282 0.930 . S
H337 C285 0.929 . S
H338 C290 0.929 . S
H339 C291 0.930 . S
H340 C298 0.929 . S
H341 C299 0.930 . S
H342 C300 0.930 . S
H343 C301 0.930 . S
H344 C303 0.929 . S
H345 C304 0.930 . S
H346 C305 0.930 . S
H347 C306 0.930 . S
H348 C310 0.929 . S
H349 C312 0.930 . S
H350 C318 0.929 . S
H351 C319 0.930 . S
Li352 N369 1.990 . S
Li352 O412 1.956 . S
Li352 O413 1.970 . S
Li352 O414 1.961 1_455 S
Li353 N377 1.990 . S
Li353 O412 1.970 . S
Li353 O413 1.956 . S
Li353 O415 1.961 1_455 S
Li354 N399 1.990 . S
Li354 O412 1.961 1_655 S
Li354 O414 1.956 . S
Li354 O415 1.970 . S
Li355 N405 1.990 . S
Li355 O413 1.961 1_655 S
Li355 O414 1.970 . S
Li355 O415 1.956 . S
C356 C358 1.348 . S
C356 C359 1.356 . S
C356 O412 1.325 . S
N357 C360 1.314 . S
N357 C361 1.279 . S
C358 C356 1.348 . S
C358 C360 1.353 . S
C358 H416 0.929 . S
C359 C356 1.356 . S
C359 C361 1.358 . S
C359 H417 0.930 . S
C360 N357 1.314 . S
C360 C358 1.353 . S
C360 H418 0.930 . S
C361 N357 1.279 . S
C361 C359 1.358 . S
C361 H419 0.930 . S
C362 C365 1.348 . S
C362 C366 1.356 . S
C362 O413 1.325 . S
C363 N364 1.279 . S
C363 C366 1.358 . S
C363 H420 0.930 . S
N364 C363 1.279 . S
N364 C367 1.314 . S
C365 C362 1.348 . S
C365 C367 1.353 . S
C365 H421 0.929 . S
C366 C362 1.356 . S
C366 C363 1.358 . S
C366 H422 0.930 . S
C367 N364 1.314 . S
C367 C365 1.353 . S
C367 H423 0.930 . S
C368 N369 1.314 . S
C368 C373 1.353 . S
C368 H374 0.930 1_455 S
N369 Li352 1.990 . S
N369 C368 1.314 . S
N369 C371 1.279 . S
C370 C371 1.358 . S
C370 C372 1.356 . S
C370 H424 0.930 . S
C371 N369 1.279 . S
C371 C370 1.358 . S
C371 H375 0.930 . S
C372 C370 1.356 . S
C372 C373 1.348 . S
C373 C368 1.353 . S
C373 C372 1.348 . S
C373 H425 0.929 . S
H374 C368 0.930 1_655 S
H375 C371 0.930 . S
C376 N377 1.314 . S
C376 C378 1.353 . S
C376 H382 0.930 . S
N377 Li353 1.990 . S
N377 C376 1.314 . S
N377 C380 1.279 . S
C378 C376 1.353 . S
C378 C381 1.348 . S
C378 H426 0.929 . S
C379 C380 1.358 . S
C379 C381 1.356 . S
C379 H427 0.930 . S
C380 N377 1.279 . S
C380 C379 1.358 . S
C380 H383 0.930 . S
C381 C378 1.348 . S
C381 C379 1.356 . S
H382 C376 0.930 . S
H383 C380 0.930 . S
C384 C386 1.348 . S
C384 C387 1.356 . S
C384 O414 1.325 . S
N385 C388 1.314 . S
N385 C389 1.279 . S
C386 C384 1.348 . S
C386 C388 1.353 . S
C386 H428 0.929 . S
C387 C384 1.356 . S
C387 C389 1.358 . S
C387 H429 0.930 . S
C388 N385 1.314 . S
C388 C386 1.353 . S
C388 H430 0.930 . S
C389 N385 1.279 . S
C389 C387 1.358 . S
C389 H431 0.930 . S
C390 C391 1.348 . S
C390 C392 1.356 . S
C390 O415 1.325 . S
C391 C390 1.348 . S
C391 C393 1.353 . S
C391 H432 0.929 . S
C392 C390 1.356 . S
C392 C394 1.358 . S
C392 H433 0.930 . S
C393 C391 1.353 . S
C393 N395 1.314 . S
C393 H434 0.930 . S
C394 C392 1.358 . S
C394 N395 1.279 . S
C394 H435 0.930 . S
N395 C393 1.314 . S
N395 C394 1.279 . S
C396 C398 1.353 . S
C396 N399 1.314 . S
C396 H402 0.930 1_655 S
C397 N399 1.279 . S
C397 C400 1.358 . S
C397 H403 0.930 . S
C398 C396 1.353 . S
C398 C401 1.348 . S
C398 H436 0.929 . S
N399 Li354 1.990 . S
N399 C396 1.314 . S
N399 C397 1.279 . S
C400 C397 1.358 . S
C400 C401 1.356 . S
C400 H437 0.930 . S
C401 C398 1.348 . S
C401 C400 1.356 . S
H402 C396 0.930 1_455 S
H403 C397 0.930 . S
C404 N405 1.314 . S
C404 C406 1.353 . S
C404 H410 0.930 . S
N405 Li355 1.990 . S
N405 C404 1.314 . S
N405 C408 1.279 . S
C406 C404 1.353 . S
C406 C409 1.348 . S
C406 H438 0.929 . S
C407 C408 1.358 . S
C407 C409 1.356 . S
C407 H439 0.930 . S
C408 N405 1.279 . S
C408 C407 1.358 . S
C408 H411 0.930 . S
C409 C406 1.348 . S
C409 C407 1.356 . S
H410 C404 0.930 . S
H411 C408 0.930 . S
O412 Li352 1.956 . S
O412 Li353 1.970 . S
O412 Li354 1.961 1_455 S
O412 C356 1.325 . S
O413 Li352 1.970 . S
O413 Li353 1.956 . S
O413 Li355 1.961 1_455 S
O413 C362 1.325 . S
O414 Li352 1.961 1_655 S
O414 Li354 1.956 . S
O414 Li355 1.970 . S
O414 C384 1.325 . S
O415 Li353 1.961 1_655 S
O415 Li354 1.970 . S
O415 Li355 1.956 . S
O415 C390 1.325 . S
H416 C358 0.929 . S
H417 C359 0.930 . S
H418 C360 0.930 . S
H419 C361 0.930 . S
H420 C363 0.930 . S
H421 C365 0.929 . S
H422 C366 0.930 . S
H423 C367 0.930 . S
H424 C370 0.930 . S
H425 C373 0.929 . S
H426 C378 0.929 . S
H427 C379 0.930 . S
H428 C386 0.929 . S
H429 C387 0.930 . S
H430 C388 0.930 . S
H431 C389 0.930 . S
H432 C391 0.929 . S
H433 C392 0.930 . S
H434 C393 0.930 . S
H435 C394 0.930 . S
H436 C398 0.929 . S
H437 C400 0.930 . S
H438 C406 0.929 . S
H439 C407 0.930 . S
Li440 N457 1.990 . S
Li440 O500 1.956 . S
Li440 O501 1.970 . S
Li440 O502 1.961 . S
Li441 N465 1.990 . S
Li441 O500 1.970 . S
Li441 O501 1.956 . S
Li441 O503 1.961 . S
Li442 N487 1.990 . S
Li442 O500 1.961 . S
Li442 O502 1.956 . S
Li442 O503 1.970 . S
Li443 N493 1.990 . S
Li443 O501 1.961 . S
Li443 O502 1.970 . S
Li443 O503 1.956 . S
C444 C446 1.348 . S
C444 C447 1.356 . S
C444 O500 1.325 . S
N445 C448 1.314 . S
N445 C449 1.279 . S
C446 C444 1.348 . S
C446 C448 1.353 . S
C446 H504 0.929 . S
C447 C444 1.356 . S
C447 C449 1.358 . S
C447 H505 0.930 . S
C448 N445 1.314 . S
C448 C446 1.353 . S
C448 H506 0.930 . S
C449 N445 1.279 . S
C449 C447 1.358 . S
C449 H507 0.930 . S
C450 C453 1.348 . S
C450 C454 1.356 . S
C450 O501 1.325 . S
C451 N452 1.279 . S
C451 C454 1.358 . S
C451 H508 0.930 . S
N452 C451 1.279 . S
N452 C455 1.314 . S
C453 C450 1.348 . S
C453 C455 1.353 . S
C453 H509 0.929 . S
C454 C450 1.356 . S
C454 C451 1.358 . S
C454 H510 0.930 . S
C455 N452 1.314 . S
C455 C453 1.353 . S
C455 H511 0.930 . S
C456 N457 1.314 . S
C456 C461 1.353 . S
C456 H462 0.930 . S
N457 Li440 1.990 . S
N457 C456 1.314 . S
N457 C459 1.279 . S
C458 C459 1.358 . S
C458 C460 1.356 . S
C458 H512 0.930 . S
C459 N457 1.279 . S
C459 C458 1.358 . S
C459 H463 0.930 . S
C460 C458 1.356 . S
C460 C461 1.348 . S
C461 C456 1.353 . S
C461 C460 1.348 . S
C461 H513 0.929 . S
H462 C456 0.930 . S
H463 C459 0.930 . S
C464 N465 1.314 . S
C464 C466 1.353 . S
C464 H470 0.930 . S
N465 Li441 1.990 . S
N465 C464 1.314 . S
N465 C468 1.279 . S
C466 C464 1.353 . S
C466 C469 1.348 . S
C466 H514 0.929 . S
C467 C468 1.358 . S
C467 C469 1.356 . S
C467 H515 0.930 . S
C468 N465 1.279 . S
C468 C467 1.358 . S
C468 H471 0.930 . S
C469 C466 1.348 . S
C469 C467 1.356 . S
H470 C464 0.930 . S
H471 C468 0.930 . S
C472 C474 1.348 . S
C472 C475 1.356 . S
C472 O502 1.325 . S
N473 C476 1.314 . S
N473 C477 1.279 . S
C474 C472 1.348 . S
C474 C476 1.353 . S
C474 H516 0.929 . S
C475 C472 1.356 . S
C475 C477 1.358 . S
C475 H517 0.930 . S
C476 N473 1.314 . S
C476 C474 1.353 . S
C476 H518 0.930 . S
C477 N473 1.279 . S
C477 C475 1.358 . S
C477 H519 0.930 . S
C478 C479 1.348 . S
C478 C480 1.356 . S
C478 O503 1.325 . S
C479 C478 1.348 . S
C479 C481 1.353 . S
C479 H520 0.929 . S
C480 C478 1.356 . S
C480 C482 1.358 . S
C480 H521 0.930 . S
C481 C479 1.353 . S
C481 N483 1.314 . S
C481 H522 0.930 . S
C482 C480 1.358 . S
C482 N483 1.279 . S
C482 H523 0.930 . S
N483 C481 1.314 . S
N483 C482 1.279 . S
C484 C486 1.353 . S
C484 N487 1.314 . S
C484 H490 0.930 . S
C485 N487 1.279 . S
C485 C488 1.358 . S
C485 H491 0.930 . S
C486 C484 1.353 . S
C486 C489 1.348 . S
C486 H524 0.929 . S
N487 Li442 1.990 . S
N487 C484 1.314 . S
N487 C485 1.279 . S
C488 C485 1.358 . S
C488 C489 1.356 . S
C488 H525 0.930 . S
C489 C486 1.348 . S
C489 C488 1.356 . S
H490 C484 0.930 . S
H491 C485 0.930 . S
C492 N493 1.314 . S
C492 C494 1.353 . S
C492 H498 0.930 . S
N493 Li443 1.990 . S
N493 C492 1.314 . S
N493 C496 1.279 . S
C494 C492 1.353 . S
C494 C497 1.348 . S
C494 H526 0.929 . S
C495 C496 1.358 . S
C495 C497 1.356 . S
C495 H527 0.930 . S
C496 N493 1.279 . S
C496 C495 1.358 . S
C496 H499 0.930 . S
C497 C494 1.348 . S
C497 C495 1.356 . S
H498 C492 0.930 . S
H499 C496 0.930 . S
O500 Li440 1.956 . S
O500 Li441 1.970 . S
O500 Li442 1.961 . S
O500 C444 1.325 . S
O501 Li440 1.970 . S
O501 Li441 1.956 . S
O501 Li443 1.961 . S
O501 C450 1.325 . S
O502 Li440 1.961 . S
O502 Li442 1.956 . S
O502 Li443 1.970 . S
O502 C472 1.325 . S
O503 Li441 1.961 . S
O503 Li442 1.970 . S
O503 Li443 1.956 . S
O503 C478 1.325 . S
H504 C446 0.929 . S
H505 C447 0.930 . S
H506 C448 0.930 . S
H507 C449 0.930 . S
H508 C451 0.930 . S
H509 C453 0.929 . S
H510 C454 0.930 . S
H511 C455 0.930 . S
H512 C458 0.930 . S
H513 C461 0.929 . S
H514 C466 0.929 . S
H515 C467 0.930 . S
H516 C474 0.929 . S
H517 C475 0.930 . S
H518 C476 0.930 . S
H519 C477 0.930 . S
H520 C479 0.929 . S
H521 C480 0.930 . S
H522 C481 0.930 . S
H523 C482 0.930 . S
H524 C486 0.929 . S
H525 C488 0.930 . S
H526 C494 0.929 . S
H527 C495 0.930 . S
Li528 N545 1.990 . S
Li528 O588 1.956 . S
Li528 O589 1.970 . S
Li528 O590 1.961 . S
Li529 N553 1.990 . S
Li529 O588 1.970 . S
Li529 O589 1.956 . S
Li529 O591 1.961 . S
Li530 N575 1.990 . S
Li530 O588 1.961 . S
Li530 O590 1.956 . S
Li530 O591 1.970 . S
Li531 N581 1.990 . S
Li531 O589 1.961 . S
Li531 O590 1.970 . S
Li531 O591 1.956 . S
C532 C534 1.348 . S
C532 C535 1.356 . S
C532 O588 1.325 . S
N533 C536 1.314 . S
N533 C537 1.279 . S
C534 C532 1.348 . S
C534 C536 1.353 . S
C534 H592 0.929 . S
C535 C532 1.356 . S
C535 C537 1.358 . S
C535 H593 0.930 . S
C536 N533 1.314 . S
C536 C534 1.353 . S
C536 H594 0.930 . S
C537 N533 1.279 . S
C537 C535 1.358 . S
C537 H595 0.930 . S
C538 C541 1.348 . S
C538 C542 1.356 . S
C538 O589 1.325 . S
C539 N540 1.279 . S
C539 C542 1.358 . S
C539 H596 0.930 . S
N540 C539 1.279 . S
N540 C543 1.314 . S
C541 C538 1.348 . S
C541 C543 1.353 . S
C541 H597 0.929 . S
C542 C538 1.356 . S
C542 C539 1.358 . S
C542 H598 0.930 . S
C543 N540 1.314 . S
C543 C541 1.353 . S
C543 H599 0.930 . S
C544 N545 1.314 . S
C544 C549 1.353 . S
C544 H550 0.930 . S
N545 Li528 1.990 . S
N545 C544 1.314 . S
N545 C547 1.279 . S
C546 C547 1.358 . S
C546 C548 1.356 . S
C546 H600 0.930 . S
C547 N545 1.279 . S
C547 C546 1.358 . S
C547 H551 0.930 . S
C548 C546 1.356 . S
C548 C549 1.348 . S
C549 C544 1.353 . S
C549 C548 1.348 . S
C549 H601 0.929 . S
H550 C544 0.930 . S
H551 C547 0.930 . S
C552 N553 1.314 . S
C552 C554 1.353 . S
C552 H558 0.930 . S
N553 Li529 1.990 . S
N553 C552 1.314 . S
N553 C556 1.279 . S
C554 C552 1.353 . S
C554 C557 1.348 . S
C554 H602 0.929 . S
C555 C556 1.358 . S
C555 C557 1.356 . S
C555 H603 0.930 . S
C556 N553 1.279 . S
C556 C555 1.358 . S
C556 H559 0.930 . S
C557 C554 1.348 . S
C557 C555 1.356 . S
H558 C552 0.930 . S
H559 C556 0.930 . S
C560 C562 1.348 . S
C560 C563 1.356 . S
C560 O590 1.325 . S
N561 C564 1.314 . S
N561 C565 1.279 . S
C562 C560 1.348 . S
C562 C564 1.353 . S
C562 H604 0.929 . S
C563 C560 1.356 . S
C563 C565 1.358 . S
C563 H605 0.930 . S
C564 N561 1.314 . S
C564 C562 1.353 . S
C564 H606 0.930 . S
C565 N561 1.279 . S
C565 C563 1.358 . S
C565 H607 0.930 . S
C566 C567 1.348 . S
C566 C568 1.356 . S
C566 O591 1.325 . S
C567 C566 1.348 . S
C567 C569 1.353 . S
C567 H608 0.929 . S
C568 C566 1.356 . S
C568 C570 1.358 . S
C568 H609 0.930 . S
C569 C567 1.353 . S
C569 N571 1.314 . S
C569 H610 0.930 . S
C570 C568 1.358 . S
C570 N571 1.279 . S
C570 H611 0.930 . S
N571 C569 1.314 . S
N571 C570 1.279 . S
C572 C574 1.353 . S
C572 N575 1.314 . S
C572 H578 0.930 . S
C573 N575 1.279 . S
C573 C576 1.358 . S
C573 H579 0.930 . S
C574 C572 1.353 . S
C574 C577 1.348 . S
C574 H612 0.929 . S
N575 Li530 1.990 . S
N575 C572 1.314 . S
N575 C573 1.279 . S
C576 C573 1.358 . S
C576 C577 1.356 . S
C576 H613 0.930 . S
C577 C574 1.348 . S
C577 C576 1.356 . S
H578 C572 0.930 . S
H579 C573 0.930 . S
C580 N581 1.314 . S
C580 C582 1.353 . S
C580 H586 0.930 . S
N581 Li531 1.990 . S
N581 C580 1.314 . S
N581 C584 1.279 . S
C582 C580 1.353 . S
C582 C585 1.348 . S
C582 H614 0.929 . S
C583 C584 1.358 . S
C583 C585 1.356 . S
C583 H615 0.930 . S
C584 N581 1.279 . S
C584 C583 1.358 . S
C584 H587 0.930 . S
C585 C582 1.348 . S
C585 C583 1.356 . S
H586 C580 0.930 . S
H587 C584 0.930 . S
O588 Li528 1.956 . S
O588 Li529 1.970 . S
O588 Li530 1.961 . S
O588 C532 1.325 . S
O589 Li528 1.970 . S
O589 Li529 1.956 . S
O589 Li531 1.961 . S
O589 C538 1.325 . S
O590 Li528 1.961 . S
O590 Li530 1.956 . S
O590 Li531 1.970 . S
O590 C560 1.325 . S
O591 Li529 1.961 . S
O591 Li530 1.970 . S
O591 Li531 1.956 . S
O591 C566 1.325 . S
H592 C534 0.929 . S
H593 C535 0.930 . S
H594 C536 0.930 . S
H595 C537 0.930 . S
H596 C539 0.930 . S
H597 C541 0.929 . S
H598 C542 0.930 . S
H599 C543 0.930 . S
H600 C546 0.930 . S
H601 C549 0.929 . S
H602 C554 0.929 . S
H603 C555 0.930 . S
H604 C562 0.929 . S
H605 C563 0.930 . S
H606 C564 0.930 . S
H607 C565 0.930 . S
H608 C567 0.929 . S
H609 C568 0.930 . S
H610 C569 0.930 . S
H611 C570 0.930 . S
H612 C574 0.929 . S
H613 C576 0.930 . S
H614 C582 0.929 . S
H615 C583 0.930 . S
Li616 N633 1.990 . S
Li616 O676 1.956 1_655 S
Li616 O677 1.970 . S
Li616 O678 1.961 . S
Li617 N641 1.990 . S
Li617 O676 1.970 . S
Li617 O677 1.956 1_455 S
Li617 O679 1.961 . S
Li618 N663 1.990 . S
Li618 O676 1.961 . S
Li618 O678 1.956 1_455 S
Li618 O679 1.970 . S
Li619 N669 1.990 . S
Li619 O677 1.961 . S
Li619 O678 1.970 . S
Li619 O679 1.956 1_655 S
C620 C622 1.348 . S
C620 C623 1.356 . S
C620 O676 1.325 . S
N621 C624 1.314 . S
N621 C625 1.279 . S
C622 C620 1.348 . S
C622 C624 1.353 . S
C622 H680 0.929 . S
C623 C620 1.356 . S
C623 C625 1.358 . S
C623 H681 0.930 . S
C624 N621 1.314 . S
C624 C622 1.353 . S
C624 H682 0.930 . S
C625 N621 1.279 . S
C625 C623 1.358 . S
C625 H683 0.930 . S
C626 C629 1.348 . S
C626 C630 1.356 . S
C626 O677 1.325 . S
C627 N628 1.279 . S
C627 C630 1.358 . S
C627 H684 0.930 . S
N628 C627 1.279 . S
N628 C631 1.314 . S
C629 C626 1.348 . S
C629 C631 1.353 . S
C629 H685 0.929 . S
C630 C626 1.356 . S
C630 C627 1.358 . S
C630 H686 0.930 . S
C631 N628 1.314 . S
C631 C629 1.353 . S
C631 H687 0.930 . S
C632 N633 1.314 . S
C632 C637 1.353 . S
C632 H638 0.930 . S
N633 Li616 1.990 . S
N633 C632 1.314 . S
N633 C635 1.279 . S
C634 C635 1.358 . S
C634 C636 1.356 . S
C634 H688 0.930 . S
C635 N633 1.279 . S
C635 C634 1.358 . S
C635 H639 0.930 1_655 S
C636 C634 1.356 . S
C636 C637 1.348 . S
C637 C632 1.353 . S
C637 C636 1.348 . S
C637 H689 0.929 . S
H638 C632 0.930 . S
H639 C635 0.930 1_455 S
C640 N641 1.314 . S
C640 C642 1.353 . S
C640 H646 0.930 . S
N641 Li617 1.990 . S
N641 C640 1.314 . S
N641 C644 1.279 . S
C642 C640 1.353 . S
C642 C645 1.348 . S
C642 H690 0.929 . S
C643 C644 1.358 . S
C643 C645 1.356 . S
C643 H691 0.930 . S
C644 N641 1.279 . S
C644 C643 1.358 . S
C644 H647 0.930 . S
C645 C642 1.348 . S
C645 C643 1.356 . S
H646 C640 0.930 . S
H647 C644 0.930 . S
C648 C650 1.348 . S
C648 C651 1.356 . S
C648 O678 1.325 . S
N649 C652 1.314 . S
N649 C653 1.279 . S
C650 C648 1.348 . S
C650 C652 1.353 . S
C650 H692 0.929 . S
C651 C648 1.356 . S
C651 C653 1.358 . S
C651 H693 0.930 . S
C652 N649 1.314 . S
C652 C650 1.353 . S
C652 H694 0.930 . S
C653 N649 1.279 . S
C653 C651 1.358 . S
C653 H695 0.930 . S
C654 C655 1.348 . S
C654 C656 1.356 . S
C654 O679 1.325 . S
C655 C654 1.348 . S
C655 C657 1.353 . S
C655 H696 0.929 . S
C656 C654 1.356 . S
C656 C658 1.358 . S
C656 H697 0.930 . S
C657 C655 1.353 . S
C657 N659 1.314 . S
C657 H698 0.930 . S
C658 C656 1.358 . S
C658 N659 1.279 . S
C658 H699 0.930 . S
N659 C657 1.314 . S
N659 C658 1.279 . S
C660 C662 1.353 . S
C660 N663 1.314 . S
C660 H666 0.930 . S
C661 N663 1.279 . S
C661 C664 1.358 . S
C661 H667 0.930 1_455 S
C662 C660 1.353 . S
C662 C665 1.348 . S
C662 H700 0.929 . S
N663 Li618 1.990 . S
N663 C660 1.314 . S
N663 C661 1.279 . S
C664 C661 1.358 . S
C664 C665 1.356 . S
C664 H701 0.930 . S
C665 C662 1.348 . S
C665 C664 1.356 . S
H666 C660 0.930 . S
H667 C661 0.930 1_655 S
C668 N669 1.314 . S
C668 C670 1.353 . S
C668 H674 0.930 . S
N669 Li619 1.990 . S
N669 C668 1.314 . S
N669 C672 1.279 . S
C670 C668 1.353 . S
C670 C673 1.348 . S
C670 H702 0.929 . S
C671 C672 1.358 . S
C671 C673 1.356 . S
C671 H703 0.930 . S
C672 N669 1.279 . S
C672 C671 1.358 . S
C672 H675 0.930 . S
C673 C670 1.348 . S
C673 C671 1.356 . S
H674 C668 0.930 . S
H675 C672 0.930 . S
O676 Li616 1.956 1_455 S
O676 Li617 1.970 . S
O676 Li618 1.961 . S
O676 C620 1.325 . S
O677 Li616 1.970 . S
O677 Li617 1.956 1_655 S
O677 Li619 1.961 . S
O677 C626 1.325 . S
O678 Li616 1.961 . S
O678 Li618 1.956 1_655 S
O678 Li619 1.970 . S
O678 C648 1.325 . S
O679 Li617 1.961 . S
O679 Li618 1.970 . S
O679 Li619 1.956 1_455 S
O679 C654 1.325 . S
H680 C622 0.929 . S
H681 C623 0.930 . S
H682 C624 0.930 . S
H683 C625 0.930 . S
H684 C627 0.930 . S
H685 C629 0.929 . S
H686 C630 0.930 . S
H687 C631 0.930 . S
H688 C634 0.930 . S
H689 C637 0.929 . S
H690 C642 0.929 . S
H691 C643 0.930 . S
H692 C650 0.929 . S
H693 C651 0.930 . S
H694 C652 0.930 . S
H695 C653 0.930 . S
H696 C655 0.929 . S
H697 C656 0.930 . S
H698 C657 0.930 . S
H699 C658 0.930 . S
H700 C662 0.929 . S
H701 C664 0.930 . S
H702 C670 0.929 . S
H703 C671 0.930 . S
Li704 N721 1.990 . S
Li704 O764 1.956 . S
Li704 O765 1.970 . S
Li704 O766 1.961 1_545 S
Li705 N729 1.990 . S
Li705 O764 1.970 . S
Li705 O765 1.956 . S
Li705 O767 1.961 1_545 S
Li706 N751 1.990 . S
Li706 O764 1.961 1_565 S
Li706 O766 1.956 . S
Li706 O767 1.970 . S
Li707 N757 1.990 . S
Li707 O765 1.961 1_565 S
Li707 O766 1.970 . S
Li707 O767 1.956 . S
C708 C710 1.348 . S
C708 C711 1.356 . S
C708 O764 1.325 . S
N709 C712 1.314 . S
N709 C713 1.279 . S
C710 C708 1.348 . S
C710 C712 1.353 . S
C710 H768 0.929 . S
C711 C708 1.356 . S
C711 C713 1.358 . S
C711 H769 0.930 . S
C712 N709 1.314 . S
C712 C710 1.353 . S
C712 H770 0.930 . S
C713 N709 1.279 . S
C713 C711 1.358 . S
C713 H771 0.930 . S
C714 C717 1.348 . S
C714 C718 1.356 . S
C714 O765 1.325 . S
C715 N716 1.279 . S
C715 C718 1.358 . S
C715 H772 0.930 . S
N716 C715 1.279 . S
N716 C719 1.314 . S
C717 C714 1.348 . S
C717 C719 1.353 . S
C717 H773 0.929 . S
C718 C714 1.356 . S
C718 C715 1.358 . S
C718 H774 0.930 . S
C719 N716 1.314 . S
C719 C717 1.353 . S
C719 H775 0.930 . S
C720 N721 1.314 . S
C720 C725 1.353 . S
C720 H726 0.930 . S
N721 Li704 1.990 . S
N721 C720 1.314 . S
N721 C723 1.279 . S
C722 C723 1.358 . S
C722 C724 1.356 . S
C722 H776 0.930 . S
C723 N721 1.279 . S
C723 C722 1.358 . S
C723 H727 0.930 . S
C724 C722 1.356 . S
C724 C725 1.348 . S
C725 C720 1.353 . S
C725 C724 1.348 . S
C725 H777 0.929 . S
H726 C720 0.930 . S
H727 C723 0.930 . S
C728 N729 1.314 . S
C728 C730 1.353 . S
C728 H734 0.930 1_545 S
N729 Li705 1.990 . S
N729 C728 1.314 . S
N729 C732 1.279 . S
C730 C728 1.353 . S
C730 C733 1.348 . S
C730 H778 0.929 . S
C731 C732 1.358 . S
C731 C733 1.356 . S
C731 H779 0.930 . S
C732 N729 1.279 . S
C732 C731 1.358 . S
C732 H735 0.930 . S
C733 C730 1.348 . S
C733 C731 1.356 . S
H734 C728 0.930 1_565 S
H735 C732 0.930 . S
C736 C738 1.348 . S
C736 C739 1.356 . S
C736 O766 1.325 . S
N737 C740 1.314 . S
N737 C741 1.279 . S
C738 C736 1.348 . S
C738 C740 1.353 . S
C738 H780 0.929 . S
C739 C736 1.356 . S
C739 C741 1.358 . S
C739 H781 0.930 . S
C740 N737 1.314 . S
C740 C738 1.353 . S
C740 H782 0.930 . S
C741 N737 1.279 . S
C741 C739 1.358 . S
C741 H783 0.930 . S
C742 C743 1.348 . S
C742 C744 1.356 . S
C742 O767 1.325 . S
C743 C742 1.348 . S
C743 C745 1.353 . S
C743 H784 0.929 . S
C744 C742 1.356 . S
C744 C746 1.358 . S
C744 H785 0.930 . S
C745 C743 1.353 . S
C745 N747 1.314 . S
C745 H786 0.930 . S
C746 C744 1.358 . S
C746 N747 1.279 . S
C746 H787 0.930 . S
N747 C745 1.314 . S
N747 C746 1.279 . S
C748 C750 1.353 . S
C748 N751 1.314 . S
C748 H754 0.930 . S
C749 N751 1.279 . S
C749 C752 1.358 . S
C749 H755 0.930 . S
C750 C748 1.353 . S
C750 C753 1.348 . S
C750 H788 0.929 . S
N751 Li706 1.990 . S
N751 C748 1.314 . S
N751 C749 1.279 . S
C752 C749 1.358 . S
C752 C753 1.356 . S
C752 H789 0.930 . S
C753 C750 1.348 . S
C753 C752 1.356 . S
H754 C748 0.930 . S
H755 C749 0.930 . S
C756 N757 1.314 . S
C756 C758 1.353 . S
C756 H762 0.930 1_565 S
N757 Li707 1.990 . S
N757 C756 1.314 . S
N757 C760 1.279 . S
C758 C756 1.353 . S
C758 C761 1.348 . S
C758 H790 0.929 . S
C759 C760 1.358 . S
C759 C761 1.356 . S
C759 H791 0.930 . S
C760 N757 1.279 . S
C760 C759 1.358 . S
C760 H763 0.930 . S
C761 C758 1.348 . S
C761 C759 1.356 . S
H762 C756 0.930 1_545 S
H763 C760 0.930 . S
O764 Li704 1.956 . S
O764 Li705 1.970 . S
O764 Li706 1.961 1_545 S
O764 C708 1.325 . S
O765 Li704 1.970 . S
O765 Li705 1.956 . S
O765 Li707 1.961 1_545 S
O765 C714 1.325 . S
O766 Li704 1.961 1_565 S
O766 Li706 1.956 . S
O766 Li707 1.970 . S
O766 C736 1.325 . S
O767 Li705 1.961 1_565 S
O767 Li706 1.970 . S
O767 Li707 1.956 . S
O767 C742 1.325 . S
H768 C710 0.929 . S
H769 C711 0.930 . S
H770 C712 0.930 . S
H771 C713 0.930 . S
H772 C715 0.930 . S
H773 C717 0.929 . S
H774 C718 0.930 . S
H775 C719 0.930 . S
H776 C722 0.930 . S
H777 C725 0.929 . S
H778 C730 0.929 . S
H779 C731 0.930 . S
H780 C738 0.929 . S
H781 C739 0.930 . S
H782 C740 0.930 . S
H783 C741 0.930 . S
H784 C743 0.929 . S
H785 C744 0.930 . S
H786 C745 0.930 . S
H787 C746 0.930 . S
H788 C750 0.929 . S
H789 C752 0.930 . S
H790 C758 0.929 . S
H791 C759 0.930 . S
Li792 N809 1.990 . S
Li792 O852 1.956 . S
Li792 O853 1.970 . S
Li792 O854 1.961 . S
Li793 N817 1.990 . S
Li793 O852 1.970 . S
Li793 O853 1.956 . S
Li793 O855 1.961 . S
Li794 N839 1.990 . S
Li794 O852 1.961 . S
Li794 O854 1.956 . S
Li794 O855 1.970 . S
Li795 N845 1.990 . S
Li795 O853 1.961 . S
Li795 O854 1.970 . S
Li795 O855 1.956 . S
C796 C798 1.348 . S
C796 C799 1.356 . S
C796 O852 1.325 . S
N797 C800 1.314 . S
N797 C801 1.279 . S
C798 C796 1.348 . S
C798 C800 1.353 . S
C798 H856 0.929 . S
C799 C796 1.356 . S
C799 C801 1.358 . S
C799 H857 0.930 . S
C800 N797 1.314 . S
C800 C798 1.353 . S
C800 H858 0.930 . S
C801 N797 1.279 . S
C801 C799 1.358 . S
C801 H859 0.930 . S
C802 C805 1.348 . S
C802 C806 1.356 . S
C802 O853 1.325 . S
C803 N804 1.279 . S
C803 C806 1.358 . S
C803 H860 0.930 . S
N804 C803 1.279 . S
N804 C807 1.314 . S
C805 C802 1.348 . S
C805 C807 1.353 . S
C805 H861 0.929 . S
C806 C802 1.356 . S
C806 C803 1.358 . S
C806 H862 0.930 . S
C807 N804 1.314 . S
C807 C805 1.353 . S
C807 H863 0.930 . S
C808 N809 1.314 . S
C808 C813 1.353 . S
C808 H814 0.930 . S
N809 Li792 1.990 . S
N809 C808 1.314 . S
N809 C811 1.279 . S
C810 C811 1.358 . S
C810 C812 1.356 . S
C810 H864 0.930 . S
C811 N809 1.279 . S
C811 C810 1.358 . S
C811 H815 0.930 . S
C812 C810 1.356 . S
C812 C813 1.348 . S
C813 C808 1.353 . S
C813 C812 1.348 . S
C813 H865 0.929 . S
H814 C808 0.930 . S
H815 C811 0.930 . S
C816 N817 1.314 . S
C816 C818 1.353 . S
C816 H822 0.930 . S
N817 Li793 1.990 . S
N817 C816 1.314 . S
N817 C820 1.279 . S
C818 C816 1.353 . S
C818 C821 1.348 . S
C818 H866 0.929 . S
C819 C820 1.358 . S
C819 C821 1.356 . S
C819 H867 0.930 . S
C820 N817 1.279 . S
C820 C819 1.358 . S
C820 H823 0.930 . S
C821 C818 1.348 . S
C821 C819 1.356 . S
H822 C816 0.930 . S
H823 C820 0.930 . S
C824 C826 1.348 . S
C824 C827 1.356 . S
C824 O854 1.325 . S
N825 C828 1.314 . S
N825 C829 1.279 . S
C826 C824 1.348 . S
C826 C828 1.353 . S
C826 H868 0.929 . S
C827 C824 1.356 . S
C827 C829 1.358 . S
C827 H869 0.930 . S
C828 N825 1.314 . S
C828 C826 1.353 . S
C828 H870 0.930 . S
C829 N825 1.279 . S
C829 C827 1.358 . S
C829 H871 0.930 . S
C830 C831 1.348 . S
C830 C832 1.356 . S
C830 O855 1.325 . S
C831 C830 1.348 . S
C831 C833 1.353 . S
C831 H872 0.929 . S
C832 C830 1.356 . S
C832 C834 1.358 . S
C832 H873 0.930 . S
C833 C831 1.353 . S
C833 N835 1.314 . S
C833 H874 0.930 . S
C834 C832 1.358 . S
C834 N835 1.279 . S
C834 H875 0.930 . S
N835 C833 1.314 . S
N835 C834 1.279 . S
C836 C838 1.353 . S
C836 N839 1.314 . S
C836 H842 0.930 . S
C837 N839 1.279 . S
C837 C840 1.358 . S
C837 H843 0.930 . S
C838 C836 1.353 . S
C838 C841 1.348 . S
C838 H876 0.929 . S
N839 Li794 1.990 . S
N839 C836 1.314 . S
N839 C837 1.279 . S
C840 C837 1.358 . S
C840 C841 1.356 . S
C840 H877 0.930 . S
C841 C838 1.348 . S
C841 C840 1.356 . S
H842 C836 0.930 . S
H843 C837 0.930 . S
C844 N845 1.314 . S
C844 C846 1.353 . S
C844 H850 0.930 . S
N845 Li795 1.990 . S
N845 C844 1.314 . S
N845 C848 1.279 . S
C846 C844 1.353 . S
C846 C849 1.348 . S
C846 H878 0.929 . S
C847 C848 1.358 . S
C847 C849 1.356 . S
C847 H879 0.930 . S
C848 N845 1.279 . S
C848 C847 1.358 . S
C848 H851 0.930 . S
C849 C846 1.348 . S
C849 C847 1.356 . S
H850 C844 0.930 . S
H851 C848 0.930 . S
O852 Li792 1.956 . S
O852 Li793 1.970 . S
O852 Li794 1.961 . S
O852 C796 1.325 . S
O853 Li792 1.970 . S
O853 Li793 1.956 . S
O853 Li795 1.961 . S
O853 C802 1.325 . S
O854 Li792 1.961 . S
O854 Li794 1.956 . S
O854 Li795 1.970 . S
O854 C824 1.325 . S
O855 Li793 1.961 . S
O855 Li794 1.970 . S
O855 Li795 1.956 . S
O855 C830 1.325 . S
H856 C798 0.929 . S
H857 C799 0.930 . S
H858 C800 0.930 . S
H859 C801 0.930 . S
H860 C803 0.930 . S
H861 C805 0.929 . S
H862 C806 0.930 . S
H863 C807 0.930 . S
H864 C810 0.930 . S
H865 C813 0.929 . S
H866 C818 0.929 . S
H867 C819 0.930 . S
H868 C826 0.929 . S
H869 C827 0.930 . S
H870 C828 0.930 . S
H871 C829 0.930 . S
H872 C831 0.929 . S
H873 C832 0.930 . S
H874 C833 0.930 . S
H875 C834 0.930 . S
H876 C838 0.929 . S
H877 C840 0.930 . S
H878 C846 0.929 . S
H879 C847 0.930 . S
Li880 N897 1.990 . S
Li880 O940 1.956 . S
Li880 O941 1.970 . S
Li880 O942 1.961 1_545 S
Li881 N905 1.990 . S
Li881 O940 1.970 . S
Li881 O941 1.956 . S
Li881 O943 1.961 1_545 S
Li882 N927 1.990 . S
Li882 O940 1.961 1_565 S
Li882 O942 1.956 . S
Li882 O943 1.970 . S
Li883 N933 1.990 . S
Li883 O941 1.961 1_565 S
Li883 O942 1.970 . S
Li883 O943 1.956 . S
C884 C886 1.348 . S
C884 C887 1.356 . S
C884 O940 1.325 . S
N885 C888 1.314 . S
N885 C889 1.279 . S
C886 C884 1.348 . S
C886 C888 1.353 . S
C886 H944 0.929 . S
C887 C884 1.356 . S
C887 C889 1.358 . S
C887 H945 0.930 . S
C888 N885 1.314 . S
C888 C886 1.353 . S
C888 H946 0.930 . S
C889 N885 1.279 . S
C889 C887 1.358 . S
C889 H947 0.930 . S
C890 C893 1.348 . S
C890 C894 1.356 . S
C890 O941 1.325 . S
C891 N892 1.279 . S
C891 C894 1.358 . S
C891 H948 0.930 . S
N892 C891 1.279 . S
N892 C895 1.314 . S
C893 C890 1.348 . S
C893 C895 1.353 . S
C893 H949 0.929 . S
C894 C890 1.356 . S
C894 C891 1.358 . S
C894 H950 0.930 . S
C895 N892 1.314 . S
C895 C893 1.353 . S
C895 H951 0.930 . S
C896 N897 1.314 . S
C896 C901 1.353 . S
C896 H902 0.930 1_545 S
N897 Li880 1.990 . S
N897 C896 1.314 . S
N897 C899 1.279 . S
C898 C899 1.358 . S
C898 C900 1.356 . S
C898 H952 0.930 . S
C899 N897 1.279 . S
C899 C898 1.358 . S
C899 H903 0.930 . S
C900 C898 1.356 . S
C900 C901 1.348 . S
C901 C896 1.353 . S
C901 C900 1.348 . S
C901 H953 0.929 . S
H902 C896 0.930 1_565 S
H903 C899 0.930 . S
C904 N905 1.314 . S
C904 C906 1.353 . S
C904 H910 0.930 . S
N905 Li881 1.990 . S
N905 C904 1.314 . S
N905 C908 1.279 . S
C906 C904 1.353 . S
C906 C909 1.348 . S
C906 H954 0.929 . S
C907 C908 1.358 . S
C907 C909 1.356 . S
C907 H955 0.930 . S
C908 N905 1.279 . S
C908 C907 1.358 . S
C908 H911 0.930 . S
C909 C906 1.348 . S
C909 C907 1.356 . S
H910 C904 0.930 . S
H911 C908 0.930 . S
C912 C914 1.348 . S
C912 C915 1.356 . S
C912 O942 1.325 . S
N913 C916 1.314 . S
N913 C917 1.279 . S
C914 C912 1.348 . S
C914 C916 1.353 . S
C914 H956 0.929 . S
C915 C912 1.356 . S
C915 C917 1.358 . S
C915 H957 0.930 . S
C916 N913 1.314 . S
C916 C914 1.353 . S
C916 H958 0.930 . S
C917 N913 1.279 . S
C917 C915 1.358 . S
C917 H959 0.930 . S
C918 C919 1.348 . S
C918 C920 1.356 . S
C918 O943 1.325 . S
C919 C918 1.348 . S
C919 C921 1.353 . S
C919 H960 0.929 . S
C920 C918 1.356 . S
C920 C922 1.358 . S
C920 H961 0.930 . S
C921 C919 1.353 . S
C921 N923 1.314 . S
C921 H962 0.930 . S
C922 C920 1.358 . S
C922 N923 1.279 . S
C922 H963 0.930 . S
N923 C921 1.314 . S
N923 C922 1.279 . S
C924 C926 1.353 . S
C924 N927 1.314 . S
C924 H930 0.930 1_565 S
C925 N927 1.279 . S
C925 C928 1.358 . S
C925 H931 0.930 . S
C926 C924 1.353 . S
C926 C929 1.348 . S
C926 H964 0.929 . S
N927 Li882 1.990 . S
N927 C924 1.314 . S
N927 C925 1.279 . S
C928 C925 1.358 . S
C928 C929 1.356 . S
C928 H965 0.930 . S
C929 C926 1.348 . S
C929 C928 1.356 . S
H930 C924 0.930 1_545 S
H931 C925 0.930 . S
C932 N933 1.314 . S
C932 C934 1.353 . S
C932 H938 0.930 . S
N933 Li883 1.990 . S
N933 C932 1.314 . S
N933 C936 1.279 . S
C934 C932 1.353 . S
C934 C937 1.348 . S
C934 H966 0.929 . S
C935 C936 1.358 . S
C935 C937 1.356 . S
C935 H967 0.930 . S
C936 N933 1.279 . S
C936 C935 1.358 . S
C936 H939 0.930 . S
C937 C934 1.348 . S
C937 C935 1.356 . S
H938 C932 0.930 . S
H939 C936 0.930 . S
O940 Li880 1.956 . S
O940 Li881 1.970 . S
O940 Li882 1.961 1_545 S
O940 C884 1.325 . S
O941 Li880 1.970 . S
O941 Li881 1.956 . S
O941 Li883 1.961 1_545 S
O941 C890 1.325 . S
O942 Li880 1.961 1_565 S
O942 Li882 1.956 . S
O942 Li883 1.970 . S
O942 C912 1.325 . S
O943 Li881 1.961 1_565 S
O943 Li882 1.970 . S
O943 Li883 1.956 . S
O943 C918 1.325 . S
H944 C886 0.929 . S
H945 C887 0.930 . S
H946 C888 0.930 . S
H947 C889 0.930 . S
H948 C891 0.930 . S
H949 C893 0.929 . S
H950 C894 0.930 . S
H951 C895 0.930 . S
H952 C898 0.930 . S
H953 C901 0.929 . S
H954 C906 0.929 . S
H955 C907 0.930 . S
H956 C914 0.929 . S
H957 C915 0.930 . S
H958 C916 0.930 . S
H959 C917 0.930 . S
H960 C919 0.929 . S
H961 C920 0.930 . S
H962 C921 0.930 . S
H963 C922 0.930 . S
H964 C926 0.929 . S
H965 C928 0.930 . S
H966 C934 0.929 . S
H967 C935 0.930 . S
Li968 N985 1.990 . S
Li968 O1028 1.956 1_556 S
Li968 O1029 1.970 . S
Li968 O1030 1.961 . S
Li969 N993 1.990 . S
Li969 O1028 1.970 . S
Li969 O1029 1.956 1_554 S
Li969 O1031 1.961 . S
Li970 N1015 1.990 . S
Li970 O1028 1.961 . S
Li970 O1030 1.956 1_554 S
Li970 O1031 1.970 . S
Li971 N1021 1.990 . S
Li971 O1029 1.961 . S
Li971 O1030 1.970 . S
Li971 O1031 1.956 1_556 S
C972 C974 1.348 . S
C972 C975 1.356 . S
C972 O1028 1.325 . S
N973 C976 1.314 . S
N973 C977 1.279 . S
C974 C972 1.348 . S
C974 C976 1.353 . S
C974 H1032 0.929 . S
C975 C972 1.356 . S
C975 C977 1.358 . S
C975 H1033 0.930 . S
C976 N973 1.314 . S
C976 C974 1.353 . S
C976 H1034 0.930 . S
C977 N973 1.279 . S
C977 C975 1.358 . S
C977 H1035 0.930 . S
C978 C981 1.348 . S
C978 C982 1.356 . S
C978 O1029 1.325 . S
C979 N980 1.279 . S
C979 C982 1.358 . S
C979 H1036 0.930 . S
N980 C979 1.279 . S
N980 C983 1.314 . S
C981 C978 1.348 . S
C981 C983 1.353 . S
C981 H1037 0.929 . S
C982 C978 1.356 . S
C982 C979 1.358 . S
C982 H1038 0.930 . S
C983 N980 1.314 . S
C983 C981 1.353 . S
C983 H1039 0.930 . S
C984 N985 1.314 . S
C984 C989 1.353 . S
C984 H990 0.930 . S
N985 Li968 1.990 . S
N985 C984 1.314 . S
N985 C987 1.279 . S
C986 C987 1.358 . S
C986 C988 1.356 . S
C986 H1040 0.930 . S
C987 N985 1.279 . S
C987 C986 1.358 . S
C987 H991 0.930 1_556 S
C988 C986 1.356 . S
C988 C989 1.348 . S
C989 C984 1.353 . S
C989 C988 1.348 . S
C989 H1041 0.929 . S
H990 C984 0.930 . S
H991 C987 0.930 1_554 S
C992 N993 1.314 . S
C992 C994 1.353 . S
C992 H998 0.930 . S
N993 Li969 1.990 . S
N993 C992 1.314 . S
N993 C996 1.279 . S
C994 C992 1.353 . S
C994 C997 1.348 . S
C994 H1042 0.929 . S
C995 C996 1.358 . S
C995 C997 1.356 . S
C995 H1043 0.930 . S
C996 N993 1.279 . S
C996 C995 1.358 . S
C996 H999 0.930 . S
C997 C994 1.348 . S
C997 C995 1.356 . S
H998 C992 0.930 . S
H999 C996 0.930 . S
C1000 C1002 1.348 . S
C1000 C1003 1.356 . S
C1000 O1030 1.325 . S
N1001 C1004 1.314 . S
N1001 C1005 1.279 . S
C1002 C1000 1.348 . S
C1002 C1004 1.353 . S
C1002 H1044 0.929 . S
C1003 C1000 1.356 . S
C1003 C1005 1.358 . S
C1003 H1045 0.930 . S
C1004 N1001 1.314 . S
C1004 C1002 1.353 . S
C1004 H1046 0.930 . S
C1005 N1001 1.279 . S
C1005 C1003 1.358 . S
C1005 H1047 0.930 . S
C1006 C1007 1.348 . S
C1006 C1008 1.356 . S
C1006 O1031 1.325 . S
C1007 C1006 1.348 . S
C1007 C1009 1.353 . S
C1007 H1048 0.929 . S
C1008 C1006 1.356 . S
C1008 C1010 1.358 . S
C1008 H1049 0.930 . S
C1009 C1007 1.353 . S
C1009 N1011 1.314 . S
C1009 H1050 0.930 . S
C1010 C1008 1.358 . S
C1010 N1011 1.279 . S
C1010 H1051 0.930 . S
N1011 C1009 1.314 . S
N1011 C1010 1.279 . S
C1012 C1014 1.353 . S
C1012 N1015 1.314 . S
C1012 H1018 0.930 . S
C1013 N1015 1.279 . S
C1013 C1016 1.358 . S
C1013 H1019 0.930 1_554 S
C1014 C1012 1.353 . S
C1014 C1017 1.348 . S
C1014 H1052 0.929 . S
N1015 Li970 1.990 . S
N1015 C1012 1.314 . S
N1015 C1013 1.279 . S
C1016 C1013 1.358 . S
C1016 C1017 1.356 . S
C1016 H1053 0.930 . S
C1017 C1014 1.348 . S
C1017 C1016 1.356 . S
H1018 C1012 0.930 . S
H1019 C1013 0.930 1_556 S
C1020 N1021 1.314 . S
C1020 C1022 1.353 . S
C1020 H1026 0.930 . S
N1021 Li971 1.990 . S
N1021 C1020 1.314 . S
N1021 C1024 1.279 . S
C1022 C1020 1.353 . S
C1022 C1025 1.348 . S
C1022 H1054 0.929 . S
C1023 C1024 1.358 . S
C1023 C1025 1.356 . S
C1023 H1055 0.930 . S
C1024 N1021 1.279 . S
C1024 C1023 1.358 . S
C1024 H1027 0.930 . S
C1025 C1022 1.348 . S
C1025 C1023 1.356 . S
H1026 C1020 0.930 . S
H1027 C1024 0.930 . S
O1028 Li968 1.956 1_554 S
O1028 Li969 1.970 . S
O1028 Li970 1.961 . S
O1028 C972 1.325 . S
O1029 Li968 1.970 . S
O1029 Li969 1.956 1_556 S
O1029 Li971 1.961 . S
O1029 C978 1.325 . S
O1030 Li968 1.961 . S
O1030 Li970 1.956 1_556 S
O1030 Li971 1.970 . S
O1030 C1000 1.325 . S
O1031 Li969 1.961 . S
O1031 Li970 1.970 . S
O1031 Li971 1.956 1_554 S
O1031 C1006 1.325 . S
H1032 C974 0.929 . S
H1033 C975 0.930 . S
H1034 C976 0.930 . S
H1035 C977 0.930 . S
H1036 C979 0.930 . S
H1037 C981 0.929 . S
H1038 C982 0.930 . S
H1039 C983 0.930 . S
H1040 C986 0.930 . S
H1041 C989 0.929 . S
H1042 C994 0.929 . S
H1043 C995 0.930 . S
H1044 C1002 0.929 . S
H1045 C1003 0.930 . S
H1046 C1004 0.930 . S
H1047 C1005 0.930 . S
H1048 C1007 0.929 . S
H1049 C1008 0.930 . S
H1050 C1009 0.930 . S
H1051 C1010 0.930 . S
H1052 C1014 0.929 . S
H1053 C1016 0.930 . S
H1054 C1022 0.929 . S
H1055 C1023 0.930 . S
Li1056 N1073 1.990 . S
Li1056 O1116 1.956 . S
Li1056 O1117 1.970 . S
Li1056 O1118 1.961 1_554 S
Li1057 N1081 1.990 . S
Li1057 O1116 1.970 . S
Li1057 O1117 1.956 . S
Li1057 O1119 1.961 1_554 S
Li1058 N1103 1.990 . S
Li1058 O1116 1.961 1_556 S
Li1058 O1118 1.956 . S
Li1058 O1119 1.970 . S
Li1059 N1109 1.990 . S
Li1059 O1117 1.961 1_556 S
Li1059 O1118 1.970 . S
Li1059 O1119 1.956 . S
C1060 C1062 1.348 . S
C1060 C1063 1.356 . S
C1060 O1116 1.325 . S
N1061 C1064 1.314 . S
N1061 C1065 1.279 . S
C1062 C1060 1.348 . S
C1062 C1064 1.353 . S
C1062 H1120 0.929 . S
C1063 C1060 1.356 . S
C1063 C1065 1.358 . S
C1063 H1121 0.930 . S
C1064 N1061 1.314 . S
C1064 C1062 1.353 . S
C1064 H1122 0.930 . S
C1065 N1061 1.279 . S
C1065 C1063 1.358 . S
C1065 H1123 0.930 . S
C1066 C1069 1.348 . S
C1066 C1070 1.356 . S
C1066 O1117 1.325 . S
C1067 N1068 1.279 . S
C1067 C1070 1.358 . S
C1067 H1124 0.930 . S
N1068 C1067 1.279 . S
N1068 C1071 1.314 . S
C1069 C1066 1.348 . S
C1069 C1071 1.353 . S
C1069 H1125 0.929 . S
C1070 C1066 1.356 . S
C1070 C1067 1.358 . S
C1070 H1126 0.930 . S
C1071 N1068 1.314 . S
C1071 C1069 1.353 . S
C1071 H1127 0.930 . S
C1072 N1073 1.314 . S
C1072 C1077 1.353 . S
C1072 H1078 0.930 . S
N1073 Li1056 1.990 . S
N1073 C1072 1.314 . S
N1073 C1075 1.279 . S
C1074 C1075 1.358 . S
C1074 C1076 1.356 . S
C1074 H1128 0.930 . S
C1075 N1073 1.279 . S
C1075 C1074 1.358 . S
C1075 H1079 0.930 . S
C1076 C1074 1.356 . S
C1076 C1077 1.348 . S
C1077 C1072 1.353 . S
C1077 C1076 1.348 . S
C1077 H1129 0.929 . S
H1078 C1072 0.930 . S
H1079 C1075 0.930 . S
C1080 N1081 1.314 . S
C1080 C1082 1.353 . S
C1080 H1086 0.930 1_554 S
N1081 Li1057 1.990 . S
N1081 C1080 1.314 . S
N1081 C1084 1.279 . S
C1082 C1080 1.353 . S
C1082 C1085 1.348 . S
C1082 H1130 0.929 . S
C1083 C1084 1.358 . S
C1083 C1085 1.356 . S
C1083 H1131 0.930 . S
C1084 N1081 1.279 . S
C1084 C1083 1.358 . S
C1084 H1087 0.930 . S
C1085 C1082 1.348 . S
C1085 C1083 1.356 . S
H1086 C1080 0.930 1_556 S
H1087 C1084 0.930 . S
C1088 C1090 1.348 . S
C1088 C1091 1.356 . S
C1088 O1118 1.325 . S
N1089 C1092 1.314 . S
N1089 C1093 1.279 . S
C1090 C1088 1.348 . S
C1090 C1092 1.353 . S
C1090 H1132 0.929 . S
C1091 C1088 1.356 . S
C1091 C1093 1.358 . S
C1091 H1133 0.930 . S
C1092 N1089 1.314 . S
C1092 C1090 1.353 . S
C1092 H1134 0.930 . S
C1093 N1089 1.279 . S
C1093 C1091 1.358 . S
C1093 H1135 0.930 . S
C1094 C1095 1.348 . S
C1094 C1096 1.356 . S
C1094 O1119 1.325 . S
C1095 C1094 1.348 . S
C1095 C1097 1.353 . S
C1095 H1136 0.929 . S
C1096 C1094 1.356 . S
C1096 C1098 1.358 . S
C1096 H1137 0.930 . S
C1097 C1095 1.353 . S
C1097 N1099 1.314 . S
C1097 H1138 0.930 . S
C1098 C1096 1.358 . S
C1098 N1099 1.279 . S
C1098 H1139 0.930 . S
N1099 C1097 1.314 . S
N1099 C1098 1.279 . S
C1100 C1102 1.353 . S
C1100 N1103 1.314 . S
C1100 H1106 0.930 . S
C1101 N1103 1.279 . S
C1101 C1104 1.358 . S
C1101 H1107 0.930 . S
C1102 C1100 1.353 . S
C1102 C1105 1.348 . S
C1102 H1140 0.929 . S
N1103 Li1058 1.990 . S
N1103 C1100 1.314 . S
N1103 C1101 1.279 . S
C1104 C1101 1.358 . S
C1104 C1105 1.356 . S
C1104 H1141 0.930 . S
C1105 C1102 1.348 . S
C1105 C1104 1.356 . S
H1106 C1100 0.930 . S
H1107 C1101 0.930 . S
C1108 N1109 1.314 . S
C1108 C1110 1.353 . S
C1108 H1114 0.930 1_556 S
N1109 Li1059 1.990 . S
N1109 C1108 1.314 . S
N1109 C1112 1.279 . S
C1110 C1108 1.353 . S
C1110 C1113 1.348 . S
C1110 H1142 0.929 . S
C1111 C1112 1.358 . S
C1111 C1113 1.356 . S
C1111 H1143 0.930 . S
C1112 N1109 1.279 . S
C1112 C1111 1.358 . S
C1112 H1115 0.930 . S
C1113 C1110 1.348 . S
C1113 C1111 1.356 . S
H1114 C1108 0.930 1_554 S
H1115 C1112 0.930 . S
O1116 Li1056 1.956 . S
O1116 Li1057 1.970 . S
O1116 Li1058 1.961 1_554 S
O1116 C1060 1.325 . S
O1117 Li1056 1.970 . S
O1117 Li1057 1.956 . S
O1117 Li1059 1.961 1_554 S
O1117 C1066 1.325 . S
O1118 Li1056 1.961 1_556 S
O1118 Li1058 1.956 . S
O1118 Li1059 1.970 . S
O1118 C1088 1.325 . S
O1119 Li1057 1.961 1_556 S
O1119 Li1058 1.970 . S
O1119 Li1059 1.956 . S
O1119 C1094 1.325 . S
H1120 C1062 0.929 . S
H1121 C1063 0.930 . S
H1122 C1064 0.930 . S
H1123 C1065 0.930 . S
H1124 C1067 0.930 . S
H1125 C1069 0.929 . S
H1126 C1070 0.930 . S
H1127 C1071 0.930 . S
H1128 C1074 0.930 . S
H1129 C1077 0.929 . S
H1130 C1082 0.929 . S
H1131 C1083 0.930 . S
H1132 C1090 0.929 . S
H1133 C1091 0.930 . S
H1134 C1092 0.930 . S
H1135 C1093 0.930 . S
H1136 C1095 0.929 . S
H1137 C1096 0.930 . S
H1138 C1097 0.930 . S
H1139 C1098 0.930 . S
H1140 C1102 0.929 . S
H1141 C1104 0.930 . S
H1142 C1110 0.929 . S
H1143 C1111 0.930 . S
Li1144 N1161 1.990 . S
Li1144 O1204 1.956 . S
Li1144 O1205 1.970 . S
Li1144 O1206 1.961 1_554 S
Li1145 N1169 1.990 . S
Li1145 O1204 1.970 . S
Li1145 O1205 1.956 . S
Li1145 O1207 1.961 1_554 S
Li1146 N1191 1.990 . S
Li1146 O1204 1.961 1_556 S
Li1146 O1206 1.956 . S
Li1146 O1207 1.970 . S
Li1147 N1197 1.990 . S
Li1147 O1205 1.961 1_556 S
Li1147 O1206 1.970 . S
Li1147 O1207 1.956 . S
C1148 C1150 1.348 . S
C1148 C1151 1.356 . S
C1148 O1204 1.325 . S
N1149 C1152 1.314 . S
N1149 C1153 1.279 . S
C1150 C1148 1.348 . S
C1150 C1152 1.353 . S
C1150 H1208 0.929 . S
C1151 C1148 1.356 . S
C1151 C1153 1.358 . S
C1151 H1209 0.930 . S
C1152 N1149 1.314 . S
C1152 C1150 1.353 . S
C1152 H1210 0.930 . S
C1153 N1149 1.279 . S
C1153 C1151 1.358 . S
C1153 H1211 0.930 . S
C1154 C1157 1.348 . S
C1154 C1158 1.356 . S
C1154 O1205 1.325 . S
C1155 N1156 1.279 . S
C1155 C1158 1.358 . S
C1155 H1212 0.930 . S
N1156 C1155 1.279 . S
N1156 C1159 1.314 . S
C1157 C1154 1.348 . S
C1157 C1159 1.353 . S
C1157 H1213 0.929 . S
C1158 C1154 1.356 . S
C1158 C1155 1.358 . S
C1158 H1214 0.930 . S
C1159 N1156 1.314 . S
C1159 C1157 1.353 . S
C1159 H1215 0.930 . S
C1160 N1161 1.314 . S
C1160 C1165 1.353 . S
C1160 H1166 0.930 1_554 S
N1161 Li1144 1.990 . S
N1161 C1160 1.314 . S
N1161 C1163 1.279 . S
C1162 C1163 1.358 . S
C1162 C1164 1.356 . S
C1162 H1216 0.930 . S
C1163 N1161 1.279 . S
C1163 C1162 1.358 . S
C1163 H1167 0.930 . S
C1164 C1162 1.356 . S
C1164 C1165 1.348 . S
C1165 C1160 1.353 . S
C1165 C1164 1.348 . S
C1165 H1217 0.929 . S
H1166 C1160 0.930 1_556 S
H1167 C1163 0.930 . S
C1168 N1169 1.314 . S
C1168 C1170 1.353 . S
C1168 H1174 0.930 . S
N1169 Li1145 1.990 . S
N1169 C1168 1.314 . S
N1169 C1172 1.279 . S
C1170 C1168 1.353 . S
C1170 C1173 1.348 . S
C1170 H1218 0.929 . S
C1171 C1172 1.358 . S
C1171 C1173 1.356 . S
C1171 H1219 0.930 . S
C1172 N1169 1.279 . S
C1172 C1171 1.358 . S
C1172 H1175 0.930 . S
C1173 C1170 1.348 . S
C1173 C1171 1.356 . S
H1174 C1168 0.930 . S
H1175 C1172 0.930 . S
C1176 C1178 1.348 . S
C1176 C1179 1.356 . S
C1176 O1206 1.325 . S
N1177 C1180 1.314 . S
N1177 C1181 1.279 . S
C1178 C1176 1.348 . S
C1178 C1180 1.353 . S
C1178 H1220 0.929 . S
C1179 C1176 1.356 . S
C1179 C1181 1.358 . S
C1179 H1221 0.930 . S
C1180 N1177 1.314 . S
C1180 C1178 1.353 . S
C1180 H1222 0.930 . S
C1181 N1177 1.279 . S
C1181 C1179 1.358 . S
C1181 H1223 0.930 . S
C1182 C1183 1.348 . S
C1182 C1184 1.356 . S
C1182 O1207 1.325 . S
C1183 C1182 1.348 . S
C1183 C1185 1.353 . S
C1183 H1224 0.929 . S
C1184 C1182 1.356 . S
C1184 C1186 1.358 . S
C1184 H1225 0.930 . S
C1185 C1183 1.353 . S
C1185 N1187 1.314 . S
C1185 H1226 0.930 . S
C1186 C1184 1.358 . S
C1186 N1187 1.279 . S
C1186 H1227 0.930 . S
N1187 C1185 1.314 . S
N1187 C1186 1.279 . S
C1188 C1190 1.353 . S
C1188 N1191 1.314 . S
C1188 H1194 0.930 1_556 S
C1189 N1191 1.279 . S
C1189 C1192 1.358 . S
C1189 H1195 0.930 . S
C1190 C1188 1.353 . S
C1190 C1193 1.348 . S
C1190 H1228 0.929 . S
N1191 Li1146 1.990 . S
N1191 C1188 1.314 . S
N1191 C1189 1.279 . S
C1192 C1189 1.358 . S
C1192 C1193 1.356 . S
C1192 H1229 0.930 . S
C1193 C1190 1.348 . S
C1193 C1192 1.356 . S
H1194 C1188 0.930 1_554 S
H1195 C1189 0.930 . S
C1196 N1197 1.314 . S
C1196 C1198 1.353 . S
C1196 H1202 0.930 . S
N1197 Li1147 1.990 . S
N1197 C1196 1.314 . S
N1197 C1200 1.279 . S
C1198 C1196 1.353 . S
C1198 C1201 1.348 . S
C1198 H1230 0.929 . S
C1199 C1200 1.358 . S
C1199 C1201 1.356 . S
C1199 H1231 0.930 . S
C1200 N1197 1.279 . S
C1200 C1199 1.358 . S
C1200 H1203 0.930 . S
C1201 C1198 1.348 . S
C1201 C1199 1.356 . S
H1202 C1196 0.930 . S
H1203 C1200 0.930 . S
O1204 Li1144 1.956 . S
O1204 Li1145 1.970 . S
O1204 Li1146 1.961 1_554 S
O1204 C1148 1.325 . S
O1205 Li1144 1.970 . S
O1205 Li1145 1.956 . S
O1205 Li1147 1.961 1_554 S
O1205 C1154 1.325 . S
O1206 Li1144 1.961 1_556 S
O1206 Li1146 1.956 . S
O1206 Li1147 1.970 . S
O1206 C1176 1.325 . S
O1207 Li1145 1.961 1_556 S
O1207 Li1146 1.970 . S
O1207 Li1147 1.956 . S
O1207 C1182 1.325 . S
H1208 C1150 0.929 . S
H1209 C1151 0.930 . S
H1210 C1152 0.930 . S
H1211 C1153 0.930 . S
H1212 C1155 0.930 . S
H1213 C1157 0.929 . S
H1214 C1158 0.930 . S
H1215 C1159 0.930 . S
H1216 C1162 0.930 . S
H1217 C1165 0.929 . S
H1218 C1170 0.929 . S
H1219 C1171 0.930 . S
H1220 C1178 0.929 . S
H1221 C1179 0.930 . S
H1222 C1180 0.930 . S
H1223 C1181 0.930 . S
H1224 C1183 0.929 . S
H1225 C1184 0.930 . S
H1226 C1185 0.930 . S
H1227 C1186 0.930 . S
H1228 C1190 0.929 . S
H1229 C1192 0.930 . S
H1230 C1198 0.929 . S
H1231 C1199 0.930 . S
Li1232 N1249 1.990 . S
Li1232 O1292 1.956 . S
Li1232 O1293 1.970 . S
Li1232 O1294 1.961 . S
Li1233 N1257 1.990 . S
Li1233 O1292 1.970 . S
Li1233 O1293 1.956 . S
Li1233 O1295 1.961 . S
Li1234 N1279 1.990 . S
Li1234 O1292 1.961 . S
Li1234 O1294 1.956 . S
Li1234 O1295 1.970 . S
Li1235 N1285 1.990 . S
Li1235 O1293 1.961 . S
Li1235 O1294 1.970 . S
Li1235 O1295 1.956 . S
C1236 C1238 1.348 . S
C1236 C1239 1.356 . S
C1236 O1292 1.325 . S
N1237 C1240 1.314 . S
N1237 C1241 1.279 . S
C1238 C1236 1.348 . S
C1238 C1240 1.353 . S
C1238 H1296 0.929 . S
C1239 C1236 1.356 . S
C1239 C1241 1.358 . S
C1239 H1297 0.930 . S
C1240 N1237 1.314 . S
C1240 C1238 1.353 . S
C1240 H1298 0.930 . S
C1241 N1237 1.279 . S
C1241 C1239 1.358 . S
C1241 H1299 0.930 . S
C1242 C1245 1.348 . S
C1242 C1246 1.356 . S
C1242 O1293 1.325 . S
C1243 N1244 1.279 . S
C1243 C1246 1.358 . S
C1243 H1300 0.930 . S
N1244 C1243 1.279 . S
N1244 C1247 1.314 . S
C1245 C1242 1.348 . S
C1245 C1247 1.353 . S
C1245 H1301 0.929 . S
C1246 C1242 1.356 . S
C1246 C1243 1.358 . S
C1246 H1302 0.930 . S
C1247 N1244 1.314 . S
C1247 C1245 1.353 . S
C1247 H1303 0.930 . S
C1248 N1249 1.314 . S
C1248 C1253 1.353 . S
C1248 H1254 0.930 . S
N1249 Li1232 1.990 . S
N1249 C1248 1.314 . S
N1249 C1251 1.279 . S
C1250 C1251 1.358 . S
C1250 C1252 1.356 . S
C1250 H1304 0.930 . S
C1251 N1249 1.279 . S
C1251 C1250 1.358 . S
C1251 H1255 0.930 . S
C1252 C1250 1.356 . S
C1252 C1253 1.348 . S
C1253 C1248 1.353 . S
C1253 C1252 1.348 . S
C1253 H1305 0.929 . S
H1254 C1248 0.930 . S
H1255 C1251 0.930 . S
C1256 N1257 1.314 . S
C1256 C1258 1.353 . S
C1256 H1262 0.930 . S
N1257 Li1233 1.990 . S
N1257 C1256 1.314 . S
N1257 C1260 1.279 . S
C1258 C1256 1.353 . S
C1258 C1261 1.348 . S
C1258 H1306 0.929 . S
C1259 C1260 1.358 . S
C1259 C1261 1.356 . S
C1259 H1307 0.930 . S
C1260 N1257 1.279 . S
C1260 C1259 1.358 . S
C1260 H1263 0.930 . S
C1261 C1258 1.348 . S
C1261 C1259 1.356 . S
H1262 C1256 0.930 . S
H1263 C1260 0.930 . S
C1264 C1266 1.348 . S
C1264 C1267 1.356 . S
C1264 O1294 1.325 . S
N1265 C1268 1.314 . S
N1265 C1269 1.279 . S
C1266 C1264 1.348 . S
C1266 C1268 1.353 . S
C1266 H1308 0.929 . S
C1267 C1264 1.356 . S
C1267 C1269 1.358 . S
C1267 H1309 0.930 . S
C1268 N1265 1.314 . S
C1268 C1266 1.353 . S
C1268 H1310 0.930 . S
C1269 N1265 1.279 . S
C1269 C1267 1.358 . S
C1269 H1311 0.930 . S
C1270 C1271 1.348 . S
C1270 C1272 1.356 . S
C1270 O1295 1.325 . S
C1271 C1270 1.348 . S
C1271 C1273 1.353 . S
C1271 H1312 0.929 . S
C1272 C1270 1.356 . S
C1272 C1274 1.358 . S
C1272 H1313 0.930 . S
C1273 C1271 1.353 . S
C1273 N1275 1.314 . S
C1273 H1314 0.930 . S
C1274 C1272 1.358 . S
C1274 N1275 1.279 . S
C1274 H1315 0.930 . S
N1275 C1273 1.314 . S
N1275 C1274 1.279 . S
C1276 C1278 1.353 . S
C1276 N1279 1.314 . S
C1276 H1282 0.930 . S
C1277 N1279 1.279 . S
C1277 C1280 1.358 . S
C1277 H1283 0.930 . S
C1278 C1276 1.353 . S
C1278 C1281 1.348 . S
C1278 H1316 0.929 . S
N1279 Li1234 1.990 . S
N1279 C1276 1.314 . S
N1279 C1277 1.279 . S
C1280 C1277 1.358 . S
C1280 C1281 1.356 . S
C1280 H1317 0.930 . S
C1281 C1278 1.348 . S
C1281 C1280 1.356 . S
H1282 C1276 0.930 . S
H1283 C1277 0.930 . S
C1284 N1285 1.314 . S
C1284 C1286 1.353 . S
C1284 H1290 0.930 . S
N1285 Li1235 1.990 . S
N1285 C1284 1.314 . S
N1285 C1288 1.279 . S
C1286 C1284 1.353 . S
C1286 C1289 1.348 . S
C1286 H1318 0.929 . S
C1287 C1288 1.358 . S
C1287 C1289 1.356 . S
C1287 H1319 0.930 . S
C1288 N1285 1.279 . S
C1288 C1287 1.358 . S
C1288 H1291 0.930 . S
C1289 C1286 1.348 . S
C1289 C1287 1.356 . S
H1290 C1284 0.930 . S
H1291 C1288 0.930 . S
O1292 Li1232 1.956 . S
O1292 Li1233 1.970 . S
O1292 Li1234 1.961 . S
O1292 C1236 1.325 . S
O1293 Li1232 1.970 . S
O1293 Li1233 1.956 . S
O1293 Li1235 1.961 . S
O1293 C1242 1.325 . S
O1294 Li1232 1.961 . S
O1294 Li1234 1.956 . S
O1294 Li1235 1.970 . S
O1294 C1264 1.325 . S
O1295 Li1233 1.961 . S
O1295 Li1234 1.970 . S
O1295 Li1235 1.956 . S
O1295 C1270 1.325 . S
H1296 C1238 0.929 . S
H1297 C1239 0.930 . S
H1298 C1240 0.930 . S
H1299 C1241 0.930 . S
H1300 C1243 0.930 . S
H1301 C1245 0.929 . S
H1302 C1246 0.930 . S
H1303 C1247 0.930 . S
H1304 C1250 0.930 . S
H1305 C1253 0.929 . S
H1306 C1258 0.929 . S
H1307 C1259 0.930 . S
H1308 C1266 0.929 . S
H1309 C1267 0.930 . S
H1310 C1268 0.930 . S
H1311 C1269 0.930 . S
H1312 C1271 0.929 . S
H1313 C1272 0.930 . S
H1314 C1273 0.930 . S
H1315 C1274 0.930 . S
H1316 C1278 0.929 . S
H1317 C1280 0.930 . S
H1318 C1286 0.929 . S
H1319 C1287 0.930 . S
Li1320 N1337 1.990 . S
Li1320 O1380 1.956 . S
Li1320 O1381 1.970 . S
Li1320 O1382 1.961 . S
Li1321 N1345 1.990 . S
Li1321 O1380 1.970 . S
Li1321 O1381 1.956 . S
Li1321 O1383 1.961 . S
Li1322 N1367 1.990 . S
Li1322 O1380 1.961 . S
Li1322 O1382 1.956 . S
Li1322 O1383 1.970 . S
Li1323 N1373 1.990 . S
Li1323 O1381 1.961 . S
Li1323 O1382 1.970 . S
Li1323 O1383 1.956 . S
C1324 C1326 1.348 . S
C1324 C1327 1.356 . S
C1324 O1380 1.325 . S
N1325 C1328 1.314 . S
N1325 C1329 1.279 . S
C1326 C1324 1.348 . S
C1326 C1328 1.353 . S
C1326 H1384 0.929 . S
C1327 C1324 1.356 . S
C1327 C1329 1.358 . S
C1327 H1385 0.930 . S
C1328 N1325 1.314 . S
C1328 C1326 1.353 . S
C1328 H1386 0.930 . S
C1329 N1325 1.279 . S
C1329 C1327 1.358 . S
C1329 H1387 0.930 . S
C1330 C1333 1.348 . S
C1330 C1334 1.356 . S
C1330 O1381 1.325 . S
C1331 N1332 1.279 . S
C1331 C1334 1.358 . S
C1331 H1388 0.930 . S
N1332 C1331 1.279 . S
N1332 C1335 1.314 . S
C1333 C1330 1.348 . S
C1333 C1335 1.353 . S
C1333 H1389 0.929 . S
C1334 C1330 1.356 . S
C1334 C1331 1.358 . S
C1334 H1390 0.930 . S
C1335 N1332 1.314 . S
C1335 C1333 1.353 . S
C1335 H1391 0.930 . S
C1336 N1337 1.314 . S
C1336 C1341 1.353 . S
C1336 H1342 0.930 . S
N1337 Li1320 1.990 . S
N1337 C1336 1.314 . S
N1337 C1339 1.279 . S
C1338 C1339 1.358 . S
C1338 C1340 1.356 . S
C1338 H1392 0.930 . S
C1339 N1337 1.279 . S
C1339 C1338 1.358 . S
C1339 H1343 0.930 . S
C1340 C1338 1.356 . S
C1340 C1341 1.348 . S
C1341 C1336 1.353 . S
C1341 C1340 1.348 . S
C1341 H1393 0.929 . S
H1342 C1336 0.930 . S
H1343 C1339 0.930 . S
C1344 N1345 1.314 . S
C1344 C1346 1.353 . S
C1344 H1350 0.930 . S
N1345 Li1321 1.990 . S
N1345 C1344 1.314 . S
N1345 C1348 1.279 . S
C1346 C1344 1.353 . S
C1346 C1349 1.348 . S
C1346 H1394 0.929 . S
C1347 C1348 1.358 . S
C1347 C1349 1.356 . S
C1347 H1395 0.930 . S
C1348 N1345 1.279 . S
C1348 C1347 1.358 . S
C1348 H1351 0.930 . S
C1349 C1346 1.348 . S
C1349 C1347 1.356 . S
H1350 C1344 0.930 . S
H1351 C1348 0.930 . S
C1352 C1354 1.348 . S
C1352 C1355 1.356 . S
C1352 O1382 1.325 . S
N1353 C1356 1.314 . S
N1353 C1357 1.279 . S
C1354 C1352 1.348 . S
C1354 C1356 1.353 . S
C1354 H1396 0.929 . S
C1355 C1352 1.356 . S
C1355 C1357 1.358 . S
C1355 H1397 0.930 . S
C1356 N1353 1.314 . S
C1356 C1354 1.353 . S
C1356 H1398 0.930 . S
C1357 N1353 1.279 . S
C1357 C1355 1.358 . S
C1357 H1399 0.930 . S
C1358 C1359 1.348 . S
C1358 C1360 1.356 . S
C1358 O1383 1.325 . S
C1359 C1358 1.348 . S
C1359 C1361 1.353 . S
C1359 H1400 0.929 . S
C1360 C1358 1.356 . S
C1360 C1362 1.358 . S
C1360 H1401 0.930 . S
C1361 C1359 1.353 . S
C1361 N1363 1.314 . S
C1361 H1402 0.930 . S
C1362 C1360 1.358 . S
C1362 N1363 1.279 . S
C1362 H1403 0.930 . S
N1363 C1361 1.314 . S
N1363 C1362 1.279 . S
C1364 C1366 1.353 . S
C1364 N1367 1.314 . S
C1364 H1370 0.930 . S
C1365 N1367 1.279 . S
C1365 C1368 1.358 . S
C1365 H1371 0.930 . S
C1366 C1364 1.353 . S
C1366 C1369 1.348 . S
C1366 H1404 0.929 . S
N1367 Li1322 1.990 . S
N1367 C1364 1.314 . S
N1367 C1365 1.279 . S
C1368 C1365 1.358 . S
C1368 C1369 1.356 . S
C1368 H1405 0.930 . S
C1369 C1366 1.348 . S
C1369 C1368 1.356 . S
H1370 C1364 0.930 . S
H1371 C1365 0.930 . S
C1372 N1373 1.314 . S
C1372 C1374 1.353 . S
C1372 H1378 0.930 . S
N1373 Li1323 1.990 . S
N1373 C1372 1.314 . S
N1373 C1376 1.279 . S
C1374 C1372 1.353 . S
C1374 C1377 1.348 . S
C1374 H1406 0.929 . S
C1375 C1376 1.358 . S
C1375 C1377 1.356 . S
C1375 H1407 0.930 . S
C1376 N1373 1.279 . S
C1376 C1375 1.358 . S
C1376 H1379 0.930 . S
C1377 C1374 1.348 . S
C1377 C1375 1.356 . S
H1378 C1372 0.930 . S
H1379 C1376 0.930 . S
O1380 Li1320 1.956 . S
O1380 Li1321 1.970 . S
O1380 Li1322 1.961 . S
O1380 C1324 1.325 . S
O1381 Li1320 1.970 . S
O1381 Li1321 1.956 . S
O1381 Li1323 1.961 . S
O1381 C1330 1.325 . S
O1382 Li1320 1.961 . S
O1382 Li1322 1.956 . S
O1382 Li1323 1.970 . S
O1382 C1352 1.325 . S
O1383 Li1321 1.961 . S
O1383 Li1322 1.970 . S
O1383 Li1323 1.956 . S
O1383 C1358 1.325 . S
H1384 C1326 0.929 . S
H1385 C1327 0.930 . S
H1386 C1328 0.930 . S
H1387 C1329 0.930 . S
H1388 C1331 0.930 . S
H1389 C1333 0.929 . S
H1390 C1334 0.930 . S
H1391 C1335 0.930 . S
H1392 C1338 0.930 . S
H1393 C1341 0.929 . S
H1394 C1346 0.929 . S
H1395 C1347 0.930 . S
H1396 C1354 0.929 . S
H1397 C1355 0.930 . S
H1398 C1356 0.930 . S
H1399 C1357 0.930 . S
H1400 C1359 0.929 . S
H1401 C1360 0.930 . S
H1402 C1361 0.930 . S
H1403 C1362 0.930 . S
H1404 C1366 0.929 . S
H1405 C1368 0.930 . S
H1406 C1374 0.929 . S
H1407 C1375 0.930 . S
Li1408 N1425 1.990 . S
Li1408 O1468 1.956 1_545 S
Li1408 O1469 1.970 . S
Li1408 O1470 1.961 . S
Li1409 N1433 1.990 . S
Li1409 O1468 1.970 . S
Li1409 O1469 1.956 1_565 S
Li1409 O1471 1.961 . S
Li1410 N1455 1.990 . S
Li1410 O1468 1.961 . S
Li1410 O1470 1.956 1_565 S
Li1410 O1471 1.970 . S
Li1411 N1461 1.990 . S
Li1411 O1469 1.961 . S
Li1411 O1470 1.970 . S
Li1411 O1471 1.956 1_545 S
C1412 C1414 1.348 . S
C1412 C1415 1.356 . S
C1412 O1468 1.325 . S
N1413 C1416 1.314 . S
N1413 C1417 1.279 . S
C1414 C1412 1.348 . S
C1414 C1416 1.353 . S
C1414 H1472 0.929 . S
C1415 C1412 1.356 . S
C1415 C1417 1.358 . S
C1415 H1473 0.930 . S
C1416 N1413 1.314 . S
C1416 C1414 1.353 . S
C1416 H1474 0.930 . S
C1417 N1413 1.279 . S
C1417 C1415 1.358 . S
C1417 H1475 0.930 . S
C1418 C1421 1.348 . S
C1418 C1422 1.356 . S
C1418 O1469 1.325 . S
C1419 N1420 1.279 . S
C1419 C1422 1.358 . S
C1419 H1476 0.930 . S
N1420 C1419 1.279 . S
N1420 C1423 1.314 . S
C1421 C1418 1.348 . S
C1421 C1423 1.353 . S
C1421 H1477 0.929 . S
C1422 C1418 1.356 . S
C1422 C1419 1.358 . S
C1422 H1478 0.930 . S
C1423 N1420 1.314 . S
C1423 C1421 1.353 . S
C1423 H1479 0.930 . S
C1424 N1425 1.314 . S
C1424 C1429 1.353 . S
C1424 H1430 0.930 . S
N1425 Li1408 1.990 . S
N1425 C1424 1.314 . S
N1425 C1427 1.279 . S
C1426 C1427 1.358 . S
C1426 C1428 1.356 . S
C1426 H1480 0.930 . S
C1427 N1425 1.279 . S
C1427 C1426 1.358 . S
C1427 H1431 0.930 . S
C1428 C1426 1.356 . S
C1428 C1429 1.348 . S
C1429 C1424 1.353 . S
C1429 C1428 1.348 . S
C1429 H1481 0.929 . S
H1430 C1424 0.930 . S
H1431 C1427 0.930 . S
C1432 N1433 1.314 . S
C1432 C1434 1.353 . S
C1432 H1438 0.930 . S
N1433 Li1409 1.990 . S
N1433 C1432 1.314 . S
N1433 C1436 1.279 . S
C1434 C1432 1.353 . S
C1434 C1437 1.348 . S
C1434 H1482 0.929 . S
C1435 C1436 1.358 . S
C1435 C1437 1.356 . S
C1435 H1483 0.930 . S
C1436 N1433 1.279 . S
C1436 C1435 1.358 . S
C1436 H1439 0.930 1_565 S
C1437 C1434 1.348 . S
C1437 C1435 1.356 . S
H1438 C1432 0.930 . S
H1439 C1436 0.930 1_545 S
C1440 C1442 1.348 . S
C1440 C1443 1.356 . S
C1440 O1470 1.325 . S
N1441 C1444 1.314 . S
N1441 C1445 1.279 . S
C1442 C1440 1.348 . S
C1442 C1444 1.353 . S
C1442 H1484 0.929 . S
C1443 C1440 1.356 . S
C1443 C1445 1.358 . S
C1443 H1485 0.930 . S
C1444 N1441 1.314 . S
C1444 C1442 1.353 . S
C1444 H1486 0.930 . S
C1445 N1441 1.279 . S
C1445 C1443 1.358 . S
C1445 H1487 0.930 . S
C1446 C1447 1.348 . S
C1446 C1448 1.356 . S
C1446 O1471 1.325 . S
C1447 C1446 1.348 . S
C1447 C1449 1.353 . S
C1447 H1488 0.929 . S
C1448 C1446 1.356 . S
C1448 C1450 1.358 . S
C1448 H1489 0.930 . S
C1449 C1447 1.353 . S
C1449 N1451 1.314 . S
C1449 H1490 0.930 . S
C1450 C1448 1.358 . S
C1450 N1451 1.279 . S
C1450 H1491 0.930 . S
N1451 C1449 1.314 . S
N1451 C1450 1.279 . S
C1452 C1454 1.353 . S
C1452 N1455 1.314 . S
C1452 H1458 0.930 . S
C1453 N1455 1.279 . S
C1453 C1456 1.358 . S
C1453 H1459 0.930 . S
C1454 C1452 1.353 . S
C1454 C1457 1.348 . S
C1454 H1492 0.929 . S
N1455 Li1410 1.990 . S
N1455 C1452 1.314 . S
N1455 C1453 1.279 . S
C1456 C1453 1.358 . S
C1456 C1457 1.356 . S
C1456 H1493 0.930 . S
C1457 C1454 1.348 . S
C1457 C1456 1.356 . S
H1458 C1452 0.930 . S
H1459 C1453 0.930 . S
C1460 N1461 1.314 . S
C1460 C1462 1.353 . S
C1460 H1466 0.930 . S
N1461 Li1411 1.990 . S
N1461 C1460 1.314 . S
N1461 C1464 1.279 . S
C1462 C1460 1.353 . S
C1462 C1465 1.348 . S
C1462 H1494 0.929 . S
C1463 C1464 1.358 . S
C1463 C1465 1.356 . S
C1463 H1495 0.930 . S
C1464 N1461 1.279 . S
C1464 C1463 1.358 . S
C1464 H1467 0.930 1_545 S
C1465 C1462 1.348 . S
C1465 C1463 1.356 . S
H1466 C1460 0.930 . S
H1467 C1464 0.930 1_565 S
O1468 Li1408 1.956 1_565 S
O1468 Li1409 1.970 . S
O1468 Li1410 1.961 . S
O1468 C1412 1.325 . S
O1469 Li1408 1.970 . S
O1469 Li1409 1.956 1_545 S
O1469 Li1411 1.961 . S
O1469 C1418 1.325 . S
O1470 Li1408 1.961 . S
O1470 Li1410 1.956 1_545 S
O1470 Li1411 1.970 . S
O1470 C1440 1.325 . S
O1471 Li1409 1.961 . S
O1471 Li1410 1.970 . S
O1471 Li1411 1.956 1_565 S
O1471 C1446 1.325 . S
H1472 C1414 0.929 . S
H1473 C1415 0.930 . S
H1474 C1416 0.930 . S
H1475 C1417 0.930 . S
H1476 C1419 0.930 . S
H1477 C1421 0.929 . S
H1478 C1422 0.930 . S
H1479 C1423 0.930 . S
H1480 C1426 0.930 . S
H1481 C1429 0.929 . S
H1482 C1434 0.929 . S
H1483 C1435 0.930 . S
H1484 C1442 0.929 . S
H1485 C1443 0.930 . S
H1486 C1444 0.930 . S
H1487 C1445 0.930 . S
H1488 C1447 0.929 . S
H1489 C1448 0.930 . S
H1490 C1449 0.930 . S
H1491 C1450 0.930 . S
H1492 C1454 0.929 . S
H1493 C1456 0.930 . S
H1494 C1462 0.929 . S
H1495 C1463 0.930 . S
Li1496 N1513 1.990 . S
Li1496 O1556 1.956 . S
Li1496 O1557 1.970 . S
Li1496 O1558 1.961 . S
Li1497 N1521 1.990 . S
Li1497 O1556 1.970 . S
Li1497 O1557 1.956 . S
Li1497 O1559 1.961 . S
Li1498 N1543 1.990 . S
Li1498 O1556 1.961 . S
Li1498 O1558 1.956 . S
Li1498 O1559 1.970 . S
Li1499 N1549 1.990 . S
Li1499 O1557 1.961 . S
Li1499 O1558 1.970 . S
Li1499 O1559 1.956 . S
C1500 C1502 1.348 . S
C1500 C1503 1.356 . S
C1500 O1556 1.325 . S
N1501 C1504 1.314 . S
N1501 C1505 1.279 . S
C1502 C1500 1.348 . S
C1502 C1504 1.353 . S
C1502 H1560 0.929 . S
C1503 C1500 1.356 . S
C1503 C1505 1.358 . S
C1503 H1561 0.930 . S
C1504 N1501 1.314 . S
C1504 C1502 1.353 . S
C1504 H1562 0.930 . S
C1505 N1501 1.279 . S
C1505 C1503 1.358 . S
C1505 H1563 0.930 . S
C1506 C1509 1.348 . S
C1506 C1510 1.356 . S
C1506 O1557 1.325 . S
C1507 N1508 1.279 . S
C1507 C1510 1.358 . S
C1507 H1564 0.930 . S
N1508 C1507 1.279 . S
N1508 C1511 1.314 . S
C1509 C1506 1.348 . S
C1509 C1511 1.353 . S
C1509 H1565 0.929 . S
C1510 C1506 1.356 . S
C1510 C1507 1.358 . S
C1510 H1566 0.930 . S
C1511 N1508 1.314 . S
C1511 C1509 1.353 . S
C1511 H1567 0.930 . S
C1512 N1513 1.314 . S
C1512 C1517 1.353 . S
C1512 H1518 0.930 . S
N1513 Li1496 1.990 . S
N1513 C1512 1.314 . S
N1513 C1515 1.279 . S
C1514 C1515 1.358 . S
C1514 C1516 1.356 . S
C1514 H1568 0.930 . S
C1515 N1513 1.279 . S
C1515 C1514 1.358 . S
C1515 H1519 0.930 . S
C1516 C1514 1.356 . S
C1516 C1517 1.348 . S
C1517 C1512 1.353 . S
C1517 C1516 1.348 . S
C1517 H1569 0.929 . S
H1518 C1512 0.930 . S
H1519 C1515 0.930 . S
C1520 N1521 1.314 . S
C1520 C1522 1.353 . S
C1520 H1526 0.930 . S
N1521 Li1497 1.990 . S
N1521 C1520 1.314 . S
N1521 C1524 1.279 . S
C1522 C1520 1.353 . S
C1522 C1525 1.348 . S
C1522 H1570 0.929 . S
C1523 C1524 1.358 . S
C1523 C1525 1.356 . S
C1523 H1571 0.930 . S
C1524 N1521 1.279 . S
C1524 C1523 1.358 . S
C1524 H1527 0.930 . S
C1525 C1522 1.348 . S
C1525 C1523 1.356 . S
H1526 C1520 0.930 . S
H1527 C1524 0.930 . S
C1528 C1530 1.348 . S
C1528 C1531 1.356 . S
C1528 O1558 1.325 . S
N1529 C1532 1.314 . S
N1529 C1533 1.279 . S
C1530 C1528 1.348 . S
C1530 C1532 1.353 . S
C1530 H1572 0.929 . S
C1531 C1528 1.356 . S
C1531 C1533 1.358 . S
C1531 H1573 0.930 . S
C1532 N1529 1.314 . S
C1532 C1530 1.353 . S
C1532 H1574 0.930 . S
C1533 N1529 1.279 . S
C1533 C1531 1.358 . S
C1533 H1575 0.930 . S
C1534 C1535 1.348 . S
C1534 C1536 1.356 . S
C1534 O1559 1.325 . S
C1535 C1534 1.348 . S
C1535 C1537 1.353 . S
C1535 H1576 0.929 . S
C1536 C1534 1.356 . S
C1536 C1538 1.358 . S
C1536 H1577 0.930 . S
C1537 C1535 1.353 . S
C1537 N1539 1.314 . S
C1537 H1578 0.930 . S
C1538 C1536 1.358 . S
C1538 N1539 1.279 . S
C1538 H1579 0.930 . S
N1539 C1537 1.314 . S
N1539 C1538 1.279 . S
C1540 C1542 1.353 . S
C1540 N1543 1.314 . S
C1540 H1546 0.930 . S
C1541 N1543 1.279 . S
C1541 C1544 1.358 . S
C1541 H1547 0.930 . S
C1542 C1540 1.353 . S
C1542 C1545 1.348 . S
C1542 H1580 0.929 . S
N1543 Li1498 1.990 . S
N1543 C1540 1.314 . S
N1543 C1541 1.279 . S
C1544 C1541 1.358 . S
C1544 C1545 1.356 . S
C1544 H1581 0.930 . S
C1545 C1542 1.348 . S
C1545 C1544 1.356 . S
H1546 C1540 0.930 . S
H1547 C1541 0.930 . S
C1548 N1549 1.314 . S
C1548 C1550 1.353 . S
C1548 H1554 0.930 . S
N1549 Li1499 1.990 . S
N1549 C1548 1.314 . S
N1549 C1552 1.279 . S
C1550 C1548 1.353 . S
C1550 C1553 1.348 . S
C1550 H1582 0.929 . S
C1551 C1552 1.358 . S
C1551 C1553 1.356 . S
C1551 H1583 0.930 . S
C1552 N1549 1.279 . S
C1552 C1551 1.358 . S
C1552 H1555 0.930 . S
C1553 C1550 1.348 . S
C1553 C1551 1.356 . S
H1554 C1548 0.930 . S
H1555 C1552 0.930 . S
O1556 Li1496 1.956 . S
O1556 Li1497 1.970 . S
O1556 Li1498 1.961 . S
O1556 C1500 1.325 . S
O1557 Li1496 1.970 . S
O1557 Li1497 1.956 . S
O1557 Li1499 1.961 . S
O1557 C1506 1.325 . S
O1558 Li1496 1.961 . S
O1558 Li1498 1.956 . S
O1558 Li1499 1.970 . S
O1558 C1528 1.325 . S
O1559 Li1497 1.961 . S
O1559 Li1498 1.970 . S
O1559 Li1499 1.956 . S
O1559 C1534 1.325 . S
H1560 C1502 0.929 . S
H1561 C1503 0.930 . S
H1562 C1504 0.930 . S
H1563 C1505 0.930 . S
H1564 C1507 0.930 . S
H1565 C1509 0.929 . S
H1566 C1510 0.930 . S
H1567 C1511 0.930 . S
H1568 C1514 0.930 . S
H1569 C1517 0.929 . S
H1570 C1522 0.929 . S
H1571 C1523 0.930 . S
H1572 C1530 0.929 . S
H1573 C1531 0.930 . S
H1574 C1532 0.930 . S
H1575 C1533 0.930 . S
H1576 C1535 0.929 . S
H1577 C1536 0.930 . S
H1578 C1537 0.930 . S
H1579 C1538 0.930 . S
H1580 C1542 0.929 . S
H1581 C1544 0.930 . S
H1582 C1550 0.929 . S
H1583 C1551 0.930 . S
Li1584 N1601 1.990 . S
Li1584 O1644 1.956 . S
Li1584 O1645 1.970 . S
Li1584 O1646 1.961 . S
Li1585 N1609 1.990 . S
Li1585 O1644 1.970 . S
Li1585 O1645 1.956 . S
Li1585 O1647 1.961 . S
Li1586 N1631 1.990 . S
Li1586 O1644 1.961 . S
Li1586 O1646 1.956 . S
Li1586 O1647 1.970 . S
Li1587 N1637 1.990 . S
Li1587 O1645 1.961 . S
Li1587 O1646 1.970 . S
Li1587 O1647 1.956 . S
C1588 C1590 1.348 . S
C1588 C1591 1.356 . S
C1588 O1644 1.325 . S
N1589 C1592 1.314 . S
N1589 C1593 1.279 . S
C1590 C1588 1.348 . S
C1590 C1592 1.353 . S
C1590 H1648 0.929 . S
C1591 C1588 1.356 . S
C1591 C1593 1.358 . S
C1591 H1649 0.930 . S
C1592 N1589 1.314 . S
C1592 C1590 1.353 . S
C1592 H1650 0.930 . S
C1593 N1589 1.279 . S
C1593 C1591 1.358 . S
C1593 H1651 0.930 . S
C1594 C1597 1.348 . S
C1594 C1598 1.356 . S
C1594 O1645 1.325 . S
C1595 N1596 1.279 . S
C1595 C1598 1.358 . S
C1595 H1652 0.930 . S
N1596 C1595 1.279 . S
N1596 C1599 1.314 . S
C1597 C1594 1.348 . S
C1597 C1599 1.353 . S
C1597 H1653 0.929 . S
C1598 C1594 1.356 . S
C1598 C1595 1.358 . S
C1598 H1654 0.930 . S
C1599 N1596 1.314 . S
C1599 C1597 1.353 . S
C1599 H1655 0.930 . S
C1600 N1601 1.314 . S
C1600 C1605 1.353 . S
C1600 H1606 0.930 . S
N1601 Li1584 1.990 . S
N1601 C1600 1.314 . S
N1601 C1603 1.279 . S
C1602 C1603 1.358 . S
C1602 C1604 1.356 . S
C1602 H1656 0.930 . S
C1603 N1601 1.279 . S
C1603 C1602 1.358 . S
C1603 H1607 0.930 . S
C1604 C1602 1.356 . S
C1604 C1605 1.348 . S
C1605 C1600 1.353 . S
C1605 C1604 1.348 . S
C1605 H1657 0.929 . S
H1606 C1600 0.930 . S
H1607 C1603 0.930 . S
C1608 N1609 1.314 . S
C1608 C1610 1.353 . S
C1608 H1614 0.930 . S
N1609 Li1585 1.990 . S
N1609 C1608 1.314 . S
N1609 C1612 1.279 . S
C1610 C1608 1.353 . S
C1610 C1613 1.348 . S
C1610 H1658 0.929 . S
C1611 C1612 1.358 . S
C1611 C1613 1.356 . S
C1611 H1659 0.930 . S
C1612 N1609 1.279 . S
C1612 C1611 1.358 . S
C1612 H1615 0.930 . S
C1613 C1610 1.348 . S
C1613 C1611 1.356 . S
H1614 C1608 0.930 . S
H1615 C1612 0.930 . S
C1616 C1618 1.348 . S
C1616 C1619 1.356 . S
C1616 O1646 1.325 . S
N1617 C1620 1.314 . S
N1617 C1621 1.279 . S
C1618 C1616 1.348 . S
C1618 C1620 1.353 . S
C1618 H1660 0.929 . S
C1619 C1616 1.356 . S
C1619 C1621 1.358 . S
C1619 H1661 0.930 . S
C1620 N1617 1.314 . S
C1620 C1618 1.353 . S
C1620 H1662 0.930 . S
C1621 N1617 1.279 . S
C1621 C1619 1.358 . S
C1621 H1663 0.930 . S
C1622 C1623 1.348 . S
C1622 C1624 1.356 . S
C1622 O1647 1.325 . S
C1623 C1622 1.348 . S
C1623 C1625 1.353 . S
C1623 H1664 0.929 . S
C1624 C1622 1.356 . S
C1624 C1626 1.358 . S
C1624 H1665 0.930 . S
C1625 C1623 1.353 . S
C1625 N1627 1.314 . S
C1625 H1666 0.930 . S
C1626 C1624 1.358 . S
C1626 N1627 1.279 . S
C1626 H1667 0.930 . S
N1627 C1625 1.314 . S
N1627 C1626 1.279 . S
C1628 C1630 1.353 . S
C1628 N1631 1.314 . S
C1628 H1634 0.930 . S
C1629 N1631 1.279 . S
C1629 C1632 1.358 . S
C1629 H1635 0.930 . S
C1630 C1628 1.353 . S
C1630 C1633 1.348 . S
C1630 H1668 0.929 . S
N1631 Li1586 1.990 . S
N1631 C1628 1.314 . S
N1631 C1629 1.279 . S
C1632 C1629 1.358 . S
C1632 C1633 1.356 . S
C1632 H1669 0.930 . S
C1633 C1630 1.348 . S
C1633 C1632 1.356 . S
H1634 C1628 0.930 . S
H1635 C1629 0.930 . S
C1636 N1637 1.314 . S
C1636 C1638 1.353 . S
C1636 H1642 0.930 . S
N1637 Li1587 1.990 . S
N1637 C1636 1.314 . S
N1637 C1640 1.279 . S
C1638 C1636 1.353 . S
C1638 C1641 1.348 . S
C1638 H1670 0.929 . S
C1639 C1640 1.358 . S
C1639 C1641 1.356 . S
C1639 H1671 0.930 . S
C1640 N1637 1.279 . S
C1640 C1639 1.358 . S
C1640 H1643 0.930 . S
C1641 C1638 1.348 . S
C1641 C1639 1.356 . S
H1642 C1636 0.930 . S
H1643 C1640 0.930 . S
O1644 Li1584 1.956 . S
O1644 Li1585 1.970 . S
O1644 Li1586 1.961 . S
O1644 C1588 1.325 . S
O1645 Li1584 1.970 . S
O1645 Li1585 1.956 . S
O1645 Li1587 1.961 . S
O1645 C1594 1.325 . S
O1646 Li1584 1.961 . S
O1646 Li1586 1.956 . S
O1646 Li1587 1.970 . S
O1646 C1616 1.325 . S
O1647 Li1585 1.961 . S
O1647 Li1586 1.970 . S
O1647 Li1587 1.956 . S
O1647 C1622 1.325 . S
H1648 C1590 0.929 . S
H1649 C1591 0.930 . S
H1650 C1592 0.930 . S
H1651 C1593 0.930 . S
H1652 C1595 0.930 . S
H1653 C1597 0.929 . S
H1654 C1598 0.930 . S
H1655 C1599 0.930 . S
H1656 C1602 0.930 . S
H1657 C1605 0.929 . S
H1658 C1610 0.929 . S
H1659 C1611 0.930 . S
H1660 C1618 0.929 . S
H1661 C1619 0.930 . S
H1662 C1620 0.930 . S
H1663 C1621 0.930 . S
H1664 C1623 0.929 . S
H1665 C1624 0.930 . S
H1666 C1625 0.930 . S
H1667 C1626 0.930 . S
H1668 C1630 0.929 . S
H1669 C1632 0.930 . S
H1670 C1638 0.929 . S
H1671 C1639 0.930 . S
Li1672 N1689 1.990 . S
Li1672 O1732 1.956 1_545 S
Li1672 O1733 1.970 . S
Li1672 O1734 1.961 . S
Li1673 N1697 1.990 . S
Li1673 O1732 1.970 . S
Li1673 O1733 1.956 1_565 S
Li1673 O1735 1.961 . S
Li1674 N1719 1.990 . S
Li1674 O1732 1.961 . S
Li1674 O1734 1.956 1_565 S
Li1674 O1735 1.970 . S
Li1675 N1725 1.990 . S
Li1675 O1733 1.961 . S
Li1675 O1734 1.970 . S
Li1675 O1735 1.956 1_545 S
C1676 C1678 1.348 . S
C1676 C1679 1.356 . S
C1676 O1732 1.325 . S
N1677 C1680 1.314 . S
N1677 C1681 1.279 . S
C1678 C1676 1.348 . S
C1678 C1680 1.353 . S
C1678 H1736 0.929 . S
C1679 C1676 1.356 . S
C1679 C1681 1.358 . S
C1679 H1737 0.930 . S
C1680 N1677 1.314 . S
C1680 C1678 1.353 . S
C1680 H1738 0.930 . S
C1681 N1677 1.279 . S
C1681 C1679 1.358 . S
C1681 H1739 0.930 . S
C1682 C1685 1.348 . S
C1682 C1686 1.356 . S
C1682 O1733 1.325 . S
C1683 N1684 1.279 . S
C1683 C1686 1.358 . S
C1683 H1740 0.930 . S
N1684 C1683 1.279 . S
N1684 C1687 1.314 . S
C1685 C1682 1.348 . S
C1685 C1687 1.353 . S
C1685 H1741 0.929 . S
C1686 C1682 1.356 . S
C1686 C1683 1.358 . S
C1686 H1742 0.930 . S
C1687 N1684 1.314 . S
C1687 C1685 1.353 . S
C1687 H1743 0.930 . S
C1688 N1689 1.314 . S
C1688 C1693 1.353 . S
C1688 H1694 0.930 . S
N1689 Li1672 1.990 . S
N1689 C1688 1.314 . S
N1689 C1691 1.279 . S
C1690 C1691 1.358 . S
C1690 C1692 1.356 . S
C1690 H1744 0.930 . S
C1691 N1689 1.279 . S
C1691 C1690 1.358 . S
C1691 H1695 0.930 1_545 S
C1692 C1690 1.356 . S
C1692 C1693 1.348 . S
C1693 C1688 1.353 . S
C1693 C1692 1.348 . S
C1693 H1745 0.929 . S
H1694 C1688 0.930 . S
H1695 C1691 0.930 1_565 S
C1696 N1697 1.314 . S
C1696 C1698 1.353 . S
C1696 H1702 0.930 . S
N1697 Li1673 1.990 . S
N1697 C1696 1.314 . S
N1697 C1700 1.279 . S
C1698 C1696 1.353 . S
C1698 C1701 1.348 . S
C1698 H1746 0.929 . S
C1699 C1700 1.358 . S
C1699 C1701 1.356 . S
C1699 H1747 0.930 . S
C1700 N1697 1.279 . S
C1700 C1699 1.358 . S
C1700 H1703 0.930 . S
C1701 C1698 1.348 . S
C1701 C1699 1.356 . S
H1702 C1696 0.930 . S
H1703 C1700 0.930 . S
C1704 C1706 1.348 . S
C1704 C1707 1.356 . S
C1704 O1734 1.325 . S
N1705 C1708 1.314 . S
N1705 C1709 1.279 . S
C1706 C1704 1.348 . S
C1706 C1708 1.353 . S
C1706 H1748 0.929 . S
C1707 C1704 1.356 . S
C1707 C1709 1.358 . S
C1707 H1749 0.930 . S
C1708 N1705 1.314 . S
C1708 C1706 1.353 . S
C1708 H1750 0.930 . S
C1709 N1705 1.279 . S
C1709 C1707 1.358 . S
C1709 H1751 0.930 . S
C1710 C1711 1.348 . S
C1710 C1712 1.356 . S
C1710 O1735 1.325 . S
C1711 C1710 1.348 . S
C1711 C1713 1.353 . S
C1711 H1752 0.929 . S
C1712 C1710 1.356 . S
C1712 C1714 1.358 . S
C1712 H1753 0.930 . S
C1713 C1711 1.353 . S
C1713 N1715 1.314 . S
C1713 H1754 0.930 . S
C1714 C1712 1.358 . S
C1714 N1715 1.279 . S
C1714 H1755 0.930 . S
N1715 C1713 1.314 . S
N1715 C1714 1.279 . S
C1716 C1718 1.353 . S
C1716 N1719 1.314 . S
C1716 H1722 0.930 . S
C1717 N1719 1.279 . S
C1717 C1720 1.358 . S
C1717 H1723 0.930 1_565 S
C1718 C1716 1.353 . S
C1718 C1721 1.348 . S
C1718 H1756 0.929 . S
N1719 Li1674 1.990 . S
N1719 C1716 1.314 . S
N1719 C1717 1.279 . S
C1720 C1717 1.358 . S
C1720 C1721 1.356 . S
C1720 H1757 0.930 . S
C1721 C1718 1.348 . S
C1721 C1720 1.356 . S
H1722 C1716 0.930 . S
H1723 C1717 0.930 1_545 S
C1724 N1725 1.314 . S
C1724 C1726 1.353 . S
C1724 H1730 0.930 . S
N1725 Li1675 1.990 . S
N1725 C1724 1.314 . S
N1725 C1728 1.279 . S
C1726 C1724 1.353 . S
C1726 C1729 1.348 . S
C1726 H1758 0.929 . S
C1727 C1728 1.358 . S
C1727 C1729 1.356 . S
C1727 H1759 0.930 . S
C1728 N1725 1.279 . S
C1728 C1727 1.358 . S
C1728 H1731 0.930 . S
C1729 C1726 1.348 . S
C1729 C1727 1.356 . S
H1730 C1724 0.930 . S
H1731 C1728 0.930 . S
O1732 Li1672 1.956 1_565 S
O1732 Li1673 1.970 . S
O1732 Li1674 1.961 . S
O1732 C1676 1.325 . S
O1733 Li1672 1.970 . S
O1733 Li1673 1.956 1_545 S
O1733 Li1675 1.961 . S
O1733 C1682 1.325 . S
O1734 Li1672 1.961 . S
O1734 Li1674 1.956 1_545 S
O1734 Li1675 1.970 . S
O1734 C1704 1.325 . S
O1735 Li1673 1.961 . S
O1735 Li1674 1.970 . S
O1735 Li1675 1.956 1_565 S
O1735 C1710 1.325 . S
H1736 C1678 0.929 . S
H1737 C1679 0.930 . S
H1738 C1680 0.930 . S
H1739 C1681 0.930 . S
H1740 C1683 0.930 . S
H1741 C1685 0.929 . S
H1742 C1686 0.930 . S
H1743 C1687 0.930 . S
H1744 C1690 0.930 . S
H1745 C1693 0.929 . S
H1746 C1698 0.929 . S
H1747 C1699 0.930 . S
H1748 C1706 0.929 . S
H1749 C1707 0.930 . S
H1750 C1708 0.930 . S
H1751 C1709 0.930 . S
H1752 C1711 0.929 . S
H1753 C1712 0.930 . S
H1754 C1713 0.930 . S
H1755 C1714 0.930 . S
H1756 C1718 0.929 . S
H1757 C1720 0.930 . S
H1758 C1726 0.929 . S
H1759 C1727 0.930 . S
Li1760 N1777 1.990 . S
Li1760 O1820 1.956 1_556 S
Li1760 O1821 1.970 . S
Li1760 O1822 1.961 . S
Li1761 N1785 1.990 . S
Li1761 O1820 1.970 . S
Li1761 O1821 1.956 1_554 S
Li1761 O1823 1.961 . S
Li1762 N1807 1.990 . S
Li1762 O1820 1.961 . S
Li1762 O1822 1.956 1_554 S
Li1762 O1823 1.970 . S
Li1763 N1813 1.990 . S
Li1763 O1821 1.961 . S
Li1763 O1822 1.970 . S
Li1763 O1823 1.956 1_556 S
C1764 C1766 1.348 . S
C1764 C1767 1.356 . S
C1764 O1820 1.325 . S
N1765 C1768 1.314 . S
N1765 C1769 1.279 . S
C1766 C1764 1.348 . S
C1766 C1768 1.353 . S
C1766 H1824 0.929 . S
C1767 C1764 1.356 . S
C1767 C1769 1.358 . S
C1767 H1825 0.930 . S
C1768 N1765 1.314 . S
C1768 C1766 1.353 . S
C1768 H1826 0.930 . S
C1769 N1765 1.279 . S
C1769 C1767 1.358 . S
C1769 H1827 0.930 . S
C1770 C1773 1.348 . S
C1770 C1774 1.356 . S
C1770 O1821 1.325 . S
C1771 N1772 1.279 . S
C1771 C1774 1.358 . S
C1771 H1828 0.930 . S
N1772 C1771 1.279 . S
N1772 C1775 1.314 . S
C1773 C1770 1.348 . S
C1773 C1775 1.353 . S
C1773 H1829 0.929 . S
C1774 C1770 1.356 . S
C1774 C1771 1.358 . S
C1774 H1830 0.930 . S
C1775 N1772 1.314 . S
C1775 C1773 1.353 . S
C1775 H1831 0.930 . S
C1776 N1777 1.314 . S
C1776 C1781 1.353 . S
C1776 H1782 0.930 . S
N1777 Li1760 1.990 . S
N1777 C1776 1.314 . S
N1777 C1779 1.279 . S
C1778 C1779 1.358 . S
C1778 C1780 1.356 . S
C1778 H1832 0.930 . S
C1779 N1777 1.279 . S
C1779 C1778 1.358 . S
C1779 H1783 0.930 . S
C1780 C1778 1.356 . S
C1780 C1781 1.348 . S
C1781 C1776 1.353 . S
C1781 C1780 1.348 . S
C1781 H1833 0.929 . S
H1782 C1776 0.930 . S
H1783 C1779 0.930 . S
C1784 N1785 1.314 . S
C1784 C1786 1.353 . S
C1784 H1790 0.930 . S
N1785 Li1761 1.990 . S
N1785 C1784 1.314 . S
N1785 C1788 1.279 . S
C1786 C1784 1.353 . S
C1786 C1789 1.348 . S
C1786 H1834 0.929 . S
C1787 C1788 1.358 . S
C1787 C1789 1.356 . S
C1787 H1835 0.930 . S
C1788 N1785 1.279 . S
C1788 C1787 1.358 . S
C1788 H1791 0.930 1_554 S
C1789 C1786 1.348 . S
C1789 C1787 1.356 . S
H1790 C1784 0.930 . S
H1791 C1788 0.930 1_556 S
C1792 C1794 1.348 . S
C1792 C1795 1.356 . S
C1792 O1822 1.325 . S
N1793 C1796 1.314 . S
N1793 C1797 1.279 . S
C1794 C1792 1.348 . S
C1794 C1796 1.353 . S
C1794 H1836 0.929 . S
C1795 C1792 1.356 . S
C1795 C1797 1.358 . S
C1795 H1837 0.930 . S
C1796 N1793 1.314 . S
C1796 C1794 1.353 . S
C1796 H1838 0.930 . S
C1797 N1793 1.279 . S
C1797 C1795 1.358 . S
C1797 H1839 0.930 . S
C1798 C1799 1.348 . S
C1798 C1800 1.356 . S
C1798 O1823 1.325 . S
C1799 C1798 1.348 . S
C1799 C1801 1.353 . S
C1799 H1840 0.929 . S
C1800 C1798 1.356 . S
C1800 C1802 1.358 . S
C1800 H1841 0.930 . S
C1801 C1799 1.353 . S
C1801 N1803 1.314 . S
C1801 H1842 0.930 . S
C1802 C1800 1.358 . S
C1802 N1803 1.279 . S
C1802 H1843 0.930 . S
N1803 C1801 1.314 . S
N1803 C1802 1.279 . S
C1804 C1806 1.353 . S
C1804 N1807 1.314 . S
C1804 H1810 0.930 . S
C1805 N1807 1.279 . S
C1805 C1808 1.358 . S
C1805 H1811 0.930 . S
C1806 C1804 1.353 . S
C1806 C1809 1.348 . S
C1806 H1844 0.929 . S
N1807 Li1762 1.990 . S
N1807 C1804 1.314 . S
N1807 C1805 1.279 . S
C1808 C1805 1.358 . S
C1808 C1809 1.356 . S
C1808 H1845 0.930 . S
C1809 C1806 1.348 . S
C1809 C1808 1.356 . S
H1810 C1804 0.930 . S
H1811 C1805 0.930 . S
C1812 N1813 1.314 . S
C1812 C1814 1.353 . S
C1812 H1818 0.930 . S
N1813 Li1763 1.990 . S
N1813 C1812 1.314 . S
N1813 C1816 1.279 . S
C1814 C1812 1.353 . S
C1814 C1817 1.348 . S
C1814 H1846 0.929 . S
C1815 C1816 1.358 . S
C1815 C1817 1.356 . S
C1815 H1847 0.930 . S
C1816 N1813 1.279 . S
C1816 C1815 1.358 . S
C1816 H1819 0.930 1_556 S
C1817 C1814 1.348 . S
C1817 C1815 1.356 . S
H1818 C1812 0.930 . S
H1819 C1816 0.930 1_554 S
O1820 Li1760 1.956 1_554 S
O1820 Li1761 1.970 . S
O1820 Li1762 1.961 . S
O1820 C1764 1.325 . S
O1821 Li1760 1.970 . S
O1821 Li1761 1.956 1_556 S
O1821 Li1763 1.961 . S
O1821 C1770 1.325 . S
O1822 Li1760 1.961 . S
O1822 Li1762 1.956 1_556 S
O1822 Li1763 1.970 . S
O1822 C1792 1.325 . S
O1823 Li1761 1.961 . S
O1823 Li1762 1.970 . S
O1823 Li1763 1.956 1_554 S
O1823 C1798 1.325 . S
H1824 C1766 0.929 . S
H1825 C1767 0.930 . S
H1826 C1768 0.930 . S
H1827 C1769 0.930 . S
H1828 C1771 0.930 . S
H1829 C1773 0.929 . S
H1830 C1774 0.930 . S
H1831 C1775 0.930 . S
H1832 C1778 0.930 . S
H1833 C1781 0.929 . S
H1834 C1786 0.929 . S
H1835 C1787 0.930 . S
H1836 C1794 0.929 . S
H1837 C1795 0.930 . S
H1838 C1796 0.930 . S
H1839 C1797 0.930 . S
H1840 C1799 0.929 . S
H1841 C1800 0.930 . S
H1842 C1801 0.930 . S
H1843 C1802 0.930 . S
H1844 C1806 0.929 . S
H1845 C1808 0.930 . S
H1846 C1814 0.929 . S
H1847 C1815 0.930 . S
Li1848 N1865 1.990 . S
Li1848 O1908 1.956 . S
Li1848 O1909 1.970 . S
Li1848 O1910 1.961 . S
Li1849 N1873 1.990 . S
Li1849 O1908 1.970 . S
Li1849 O1909 1.956 . S
Li1849 O1911 1.961 . S
Li1850 N1895 1.990 . S
Li1850 O1908 1.961 . S
Li1850 O1910 1.956 . S
Li1850 O1911 1.970 . S
Li1851 N1901 1.990 . S
Li1851 O1909 1.961 . S
Li1851 O1910 1.970 . S
Li1851 O1911 1.956 . S
C1852 C1854 1.348 . S
C1852 C1855 1.356 . S
C1852 O1908 1.325 . S
N1853 C1856 1.314 . S
N1853 C1857 1.279 . S
C1854 C1852 1.348 . S
C1854 C1856 1.353 . S
C1854 H1912 0.929 . S
C1855 C1852 1.356 . S
C1855 C1857 1.358 . S
C1855 H1913 0.930 . S
C1856 N1853 1.314 . S
C1856 C1854 1.353 . S
C1856 H1914 0.930 . S
C1857 N1853 1.279 . S
C1857 C1855 1.358 . S
C1857 H1915 0.930 . S
C1858 C1861 1.348 . S
C1858 C1862 1.356 . S
C1858 O1909 1.325 . S
C1859 N1860 1.279 . S
C1859 C1862 1.358 . S
C1859 H1916 0.930 . S
N1860 C1859 1.279 . S
N1860 C1863 1.314 . S
C1861 C1858 1.348 . S
C1861 C1863 1.353 . S
C1861 H1917 0.929 . S
C1862 C1858 1.356 . S
C1862 C1859 1.358 . S
C1862 H1918 0.930 . S
C1863 N1860 1.314 . S
C1863 C1861 1.353 . S
C1863 H1919 0.930 . S
C1864 N1865 1.314 . S
C1864 C1869 1.353 . S
C1864 H1870 0.930 . S
N1865 Li1848 1.990 . S
N1865 C1864 1.314 . S
N1865 C1867 1.279 . S
C1866 C1867 1.358 . S
C1866 C1868 1.356 . S
C1866 H1920 0.930 . S
C1867 N1865 1.279 . S
C1867 C1866 1.358 . S
C1867 H1871 0.930 . S
C1868 C1866 1.356 . S
C1868 C1869 1.348 . S
C1869 C1864 1.353 . S
C1869 C1868 1.348 . S
C1869 H1921 0.929 . S
H1870 C1864 0.930 . S
H1871 C1867 0.930 . S
C1872 N1873 1.314 . S
C1872 C1874 1.353 . S
C1872 H1878 0.930 . S
N1873 Li1849 1.990 . S
N1873 C1872 1.314 . S
N1873 C1876 1.279 . S
C1874 C1872 1.353 . S
C1874 C1877 1.348 . S
C1874 H1922 0.929 . S
C1875 C1876 1.358 . S
C1875 C1877 1.356 . S
C1875 H1923 0.930 . S
C1876 N1873 1.279 . S
C1876 C1875 1.358 . S
C1876 H1879 0.930 . S
C1877 C1874 1.348 . S
C1877 C1875 1.356 . S
H1878 C1872 0.930 . S
H1879 C1876 0.930 . S
C1880 C1882 1.348 . S
C1880 C1883 1.356 . S
C1880 O1910 1.325 . S
N1881 C1884 1.314 . S
N1881 C1885 1.279 . S
C1882 C1880 1.348 . S
C1882 C1884 1.353 . S
C1882 H1924 0.929 . S
C1883 C1880 1.356 . S
C1883 C1885 1.358 . S
C1883 H1925 0.930 . S
C1884 N1881 1.314 . S
C1884 C1882 1.353 . S
C1884 H1926 0.930 . S
C1885 N1881 1.279 . S
C1885 C1883 1.358 . S
C1885 H1927 0.930 . S
C1886 C1887 1.348 . S
C1886 C1888 1.356 . S
C1886 O1911 1.325 . S
C1887 C1886 1.348 . S
C1887 C1889 1.353 . S
C1887 H1928 0.929 . S
C1888 C1886 1.356 . S
C1888 C1890 1.358 . S
C1888 H1929 0.930 . S
C1889 C1887 1.353 . S
C1889 N1891 1.314 . S
C1889 H1930 0.930 . S
C1890 C1888 1.358 . S
C1890 N1891 1.279 . S
C1890 H1931 0.930 . S
N1891 C1889 1.314 . S
N1891 C1890 1.279 . S
C1892 C1894 1.353 . S
C1892 N1895 1.314 . S
C1892 H1898 0.930 . S
C1893 N1895 1.279 . S
C1893 C1896 1.358 . S
C1893 H1899 0.930 . S
C1894 C1892 1.353 . S
C1894 C1897 1.348 . S
C1894 H1932 0.929 . S
N1895 Li1850 1.990 . S
N1895 C1892 1.314 . S
N1895 C1893 1.279 . S
C1896 C1893 1.358 . S
C1896 C1897 1.356 . S
C1896 H1933 0.930 . S
C1897 C1894 1.348 . S
C1897 C1896 1.356 . S
H1898 C1892 0.930 . S
H1899 C1893 0.930 . S
C1900 N1901 1.314 . S
C1900 C1902 1.353 . S
C1900 H1906 0.930 . S
N1901 Li1851 1.990 . S
N1901 C1900 1.314 . S
N1901 C1904 1.279 . S
C1902 C1900 1.353 . S
C1902 C1905 1.348 . S
C1902 H1934 0.929 . S
C1903 C1904 1.358 . S
C1903 C1905 1.356 . S
C1903 H1935 0.930 . S
C1904 N1901 1.279 . S
C1904 C1903 1.358 . S
C1904 H1907 0.930 . S
C1905 C1902 1.348 . S
C1905 C1903 1.356 . S
H1906 C1900 0.930 . S
H1907 C1904 0.930 . S
O1908 Li1848 1.956 . S
O1908 Li1849 1.970 . S
O1908 Li1850 1.961 . S
O1908 C1852 1.325 . S
O1909 Li1848 1.970 . S
O1909 Li1849 1.956 . S
O1909 Li1851 1.961 . S
O1909 C1858 1.325 . S
O1910 Li1848 1.961 . S
O1910 Li1850 1.956 . S
O1910 Li1851 1.970 . S
O1910 C1880 1.325 . S
O1911 Li1849 1.961 . S
O1911 Li1850 1.970 . S
O1911 Li1851 1.956 . S
O1911 C1886 1.325 . S
H1912 C1854 0.929 . S
H1913 C1855 0.930 . S
H1914 C1856 0.930 . S
H1915 C1857 0.930 . S
H1916 C1859 0.930 . S
H1917 C1861 0.929 . S
H1918 C1862 0.930 . S
H1919 C1863 0.930 . S
H1920 C1866 0.930 . S
H1921 C1869 0.929 . S
H1922 C1874 0.929 . S
H1923 C1875 0.930 . S
H1924 C1882 0.929 . S
H1925 C1883 0.930 . S
H1926 C1884 0.930 . S
H1927 C1885 0.930 . S
H1928 C1887 0.929 . S
H1929 C1888 0.930 . S
H1930 C1889 0.930 . S
H1931 C1890 0.930 . S
H1932 C1894 0.929 . S
H1933 C1896 0.930 . S
H1934 C1902 0.929 . S
H1935 C1903 0.930 . S
Li1936 N1953 1.990 . S
Li1936 O1996 1.956 . S
Li1936 O1997 1.970 . S
Li1936 O1998 1.961 . S
Li1937 N1961 1.990 . S
Li1937 O1996 1.970 . S
Li1937 O1997 1.956 . S
Li1937 O1999 1.961 . S
Li1938 N1983 1.990 . S
Li1938 O1996 1.961 . S
Li1938 O1998 1.956 . S
Li1938 O1999 1.970 . S
Li1939 N1989 1.990 . S
Li1939 O1997 1.961 . S
Li1939 O1998 1.970 . S
Li1939 O1999 1.956 . S
C1940 C1942 1.348 . S
C1940 C1943 1.356 . S
C1940 O1996 1.325 . S
N1941 C1944 1.314 . S
N1941 C1945 1.279 . S
C1942 C1940 1.348 . S
C1942 C1944 1.353 . S
C1942 H2000 0.929 . S
C1943 C1940 1.356 . S
C1943 C1945 1.358 . S
C1943 H2001 0.930 . S
C1944 N1941 1.314 . S
C1944 C1942 1.353 . S
C1944 H2002 0.930 . S
C1945 N1941 1.279 . S
C1945 C1943 1.358 . S
C1945 H2003 0.930 . S
C1946 C1949 1.348 . S
C1946 C1950 1.356 . S
C1946 O1997 1.325 . S
C1947 N1948 1.279 . S
C1947 C1950 1.358 . S
C1947 H2004 0.930 . S
N1948 C1947 1.279 . S
N1948 C1951 1.314 . S
C1949 C1946 1.348 . S
C1949 C1951 1.353 . S
C1949 H2005 0.929 . S
C1950 C1946 1.356 . S
C1950 C1947 1.358 . S
C1950 H2006 0.930 . S
C1951 N1948 1.314 . S
C1951 C1949 1.353 . S
C1951 H2007 0.930 . S
C1952 N1953 1.314 . S
C1952 C1957 1.353 . S
C1952 H1958 0.930 . S
N1953 Li1936 1.990 . S
N1953 C1952 1.314 . S
N1953 C1955 1.279 . S
C1954 C1955 1.358 . S
C1954 C1956 1.356 . S
C1954 H2008 0.930 . S
C1955 N1953 1.279 . S
C1955 C1954 1.358 . S
C1955 H1959 0.930 . S
C1956 C1954 1.356 . S
C1956 C1957 1.348 . S
C1957 C1952 1.353 . S
C1957 C1956 1.348 . S
C1957 H2009 0.929 . S
H1958 C1952 0.930 . S
H1959 C1955 0.930 . S
C1960 N1961 1.314 . S
C1960 C1962 1.353 . S
C1960 H1966 0.930 . S
N1961 Li1937 1.990 . S
N1961 C1960 1.314 . S
N1961 C1964 1.279 . S
C1962 C1960 1.353 . S
C1962 C1965 1.348 . S
C1962 H2010 0.929 . S
C1963 C1964 1.358 . S
C1963 C1965 1.356 . S
C1963 H2011 0.930 . S
C1964 N1961 1.279 . S
C1964 C1963 1.358 . S
C1964 H1967 0.930 . S
C1965 C1962 1.348 . S
C1965 C1963 1.356 . S
H1966 C1960 0.930 . S
H1967 C1964 0.930 . S
C1968 C1970 1.348 . S
C1968 C1971 1.356 . S
C1968 O1998 1.325 . S
N1969 C1972 1.314 . S
N1969 C1973 1.279 . S
C1970 C1968 1.348 . S
C1970 C1972 1.353 . S
C1970 H2012 0.929 . S
C1971 C1968 1.356 . S
C1971 C1973 1.358 . S
C1971 H2013 0.930 . S
C1972 N1969 1.314 . S
C1972 C1970 1.353 . S
C1972 H2014 0.930 . S
C1973 N1969 1.279 . S
C1973 C1971 1.358 . S
C1973 H2015 0.930 . S
C1974 C1975 1.348 . S
C1974 C1976 1.356 . S
C1974 O1999 1.325 . S
C1975 C1974 1.348 . S
C1975 C1977 1.353 . S
C1975 H2016 0.929 . S
C1976 C1974 1.356 . S
C1976 C1978 1.358 . S
C1976 H2017 0.930 . S
C1977 C1975 1.353 . S
C1977 N1979 1.314 . S
C1977 H2018 0.930 . S
C1978 C1976 1.358 . S
C1978 N1979 1.279 . S
C1978 H2019 0.930 . S
N1979 C1977 1.314 . S
N1979 C1978 1.279 . S
C1980 C1982 1.353 . S
C1980 N1983 1.314 . S
C1980 H1986 0.930 . S
C1981 N1983 1.279 . S
C1981 C1984 1.358 . S
C1981 H1987 0.930 . S
C1982 C1980 1.353 . S
C1982 C1985 1.348 . S
C1982 H2020 0.929 . S
N1983 Li1938 1.990 . S
N1983 C1980 1.314 . S
N1983 C1981 1.279 . S
C1984 C1981 1.358 . S
C1984 C1985 1.356 . S
C1984 H2021 0.930 . S
C1985 C1982 1.348 . S
C1985 C1984 1.356 . S
H1986 C1980 0.930 . S
H1987 C1981 0.930 . S
C1988 N1989 1.314 . S
C1988 C1990 1.353 . S
C1988 H1994 0.930 . S
N1989 Li1939 1.990 . S
N1989 C1988 1.314 . S
N1989 C1992 1.279 . S
C1990 C1988 1.353 . S
C1990 C1993 1.348 . S
C1990 H2022 0.929 . S
C1991 C1992 1.358 . S
C1991 C1993 1.356 . S
C1991 H2023 0.930 . S
C1992 N1989 1.279 . S
C1992 C1991 1.358 . S
C1992 H1995 0.930 . S
C1993 C1990 1.348 . S
C1993 C1991 1.356 . S
H1994 C1988 0.930 . S
H1995 C1992 0.930 . S
O1996 Li1936 1.956 . S
O1996 Li1937 1.970 . S
O1996 Li1938 1.961 . S
O1996 C1940 1.325 . S
O1997 Li1936 1.970 . S
O1997 Li1937 1.956 . S
O1997 Li1939 1.961 . S
O1997 C1946 1.325 . S
O1998 Li1936 1.961 . S
O1998 Li1938 1.956 . S
O1998 Li1939 1.970 . S
O1998 C1968 1.325 . S
O1999 Li1937 1.961 . S
O1999 Li1938 1.970 . S
O1999 Li1939 1.956 . S
O1999 C1974 1.325 . S
H2000 C1942 0.929 . S
H2001 C1943 0.930 . S
H2002 C1944 0.930 . S
H2003 C1945 0.930 . S
H2004 C1947 0.930 . S
H2005 C1949 0.929 . S
H2006 C1950 0.930 . S
H2007 C1951 0.930 . S
H2008 C1954 0.930 . S
H2009 C1957 0.929 . S
H2010 C1962 0.929 . S
H2011 C1963 0.930 . S
H2012 C1970 0.929 . S
H2013 C1971 0.930 . S
H2014 C1972 0.930 . S
H2015 C1973 0.930 . S
H2016 C1975 0.929 . S
H2017 C1976 0.930 . S
H2018 C1977 0.930 . S
H2019 C1978 0.930 . S
H2020 C1982 0.929 . S
H2021 C1984 0.930 . S
H2022 C1990 0.929 . S
H2023 C1991 0.930 . S
Li2024 N2041 1.990 . S
Li2024 O2084 1.956 . S
Li2024 O2085 1.970 . S
Li2024 O2086 1.961 . S
Li2025 N2049 1.990 . S
Li2025 O2084 1.970 . S
Li2025 O2085 1.956 . S
Li2025 O2087 1.961 . S
Li2026 N2071 1.990 . S
Li2026 O2084 1.961 . S
Li2026 O2086 1.956 . S
Li2026 O2087 1.970 . S
Li2027 N2077 1.990 . S
Li2027 O2085 1.961 . S
Li2027 O2086 1.970 . S
Li2027 O2087 1.956 . S
C2028 C2030 1.348 . S
C2028 C2031 1.356 . S
C2028 O2084 1.325 . S
N2029 C2032 1.314 . S
N2029 C2033 1.279 . S
C2030 C2028 1.348 . S
C2030 C2032 1.353 . S
C2030 H2088 0.929 . S
C2031 C2028 1.356 . S
C2031 C2033 1.358 . S
C2031 H2089 0.930 . S
C2032 N2029 1.314 . S
C2032 C2030 1.353 . S
C2032 H2090 0.930 . S
C2033 N2029 1.279 . S
C2033 C2031 1.358 . S
C2033 H2091 0.930 . S
C2034 C2037 1.348 . S
C2034 C2038 1.356 . S
C2034 O2085 1.325 . S
C2035 N2036 1.279 . S
C2035 C2038 1.358 . S
C2035 H2092 0.930 . S
N2036 C2035 1.279 . S
N2036 C2039 1.314 . S
C2037 C2034 1.348 . S
C2037 C2039 1.353 . S
C2037 H2093 0.929 . S
C2038 C2034 1.356 . S
C2038 C2035 1.358 . S
C2038 H2094 0.930 . S
C2039 N2036 1.314 . S
C2039 C2037 1.353 . S
C2039 H2095 0.930 . S
C2040 N2041 1.314 . S
C2040 C2045 1.353 . S
C2040 H2046 0.930 . S
N2041 Li2024 1.990 . S
N2041 C2040 1.314 . S
N2041 C2043 1.279 . S
C2042 C2043 1.358 . S
C2042 C2044 1.356 . S
C2042 H2096 0.930 . S
C2043 N2041 1.279 . S
C2043 C2042 1.358 . S
C2043 H2047 0.930 . S
C2044 C2042 1.356 . S
C2044 C2045 1.348 . S
C2045 C2040 1.353 . S
C2045 C2044 1.348 . S
C2045 H2097 0.929 . S
H2046 C2040 0.930 . S
H2047 C2043 0.930 . S
C2048 N2049 1.314 . S
C2048 C2050 1.353 . S
C2048 H2054 0.930 . S
N2049 Li2025 1.990 . S
N2049 C2048 1.314 . S
N2049 C2052 1.279 . S
C2050 C2048 1.353 . S
C2050 C2053 1.348 . S
C2050 H2098 0.929 . S
C2051 C2052 1.358 . S
C2051 C2053 1.356 . S
C2051 H2099 0.930 . S
C2052 N2049 1.279 . S
C2052 C2051 1.358 . S
C2052 H2055 0.930 . S
C2053 C2050 1.348 . S
C2053 C2051 1.356 . S
H2054 C2048 0.930 . S
H2055 C2052 0.930 . S
C2056 C2058 1.348 . S
C2056 C2059 1.356 . S
C2056 O2086 1.325 . S
N2057 C2060 1.314 . S
N2057 C2061 1.279 . S
C2058 C2056 1.348 . S
C2058 C2060 1.353 . S
C2058 H2100 0.929 . S
C2059 C2056 1.356 . S
C2059 C2061 1.358 . S
C2059 H2101 0.930 . S
C2060 N2057 1.314 . S
C2060 C2058 1.353 . S
C2060 H2102 0.930 . S
C2061 N2057 1.279 . S
C2061 C2059 1.358 . S
C2061 H2103 0.930 . S
C2062 C2063 1.348 . S
C2062 C2064 1.356 . S
C2062 O2087 1.325 . S
C2063 C2062 1.348 . S
C2063 C2065 1.353 . S
C2063 H2104 0.929 . S
C2064 C2062 1.356 . S
C2064 C2066 1.358 . S
C2064 H2105 0.930 . S
C2065 C2063 1.353 . S
C2065 N2067 1.314 . S
C2065 H2106 0.930 . S
C2066 C2064 1.358 . S
C2066 N2067 1.279 . S
C2066 H2107 0.930 . S
N2067 C2065 1.314 . S
N2067 C2066 1.279 . S
C2068 C2070 1.353 . S
C2068 N2071 1.314 . S
C2068 H2074 0.930 . S
C2069 N2071 1.279 . S
C2069 C2072 1.358 . S
C2069 H2075 0.930 . S
C2070 C2068 1.353 . S
C2070 C2073 1.348 . S
C2070 H2108 0.929 . S
N2071 Li2026 1.990 . S
N2071 C2068 1.314 . S
N2071 C2069 1.279 . S
C2072 C2069 1.358 . S
C2072 C2073 1.356 . S
C2072 H2109 0.930 . S
C2073 C2070 1.348 . S
C2073 C2072 1.356 . S
H2074 C2068 0.930 . S
H2075 C2069 0.930 . S
C2076 N2077 1.314 . S
C2076 C2078 1.353 . S
C2076 H2082 0.930 . S
N2077 Li2027 1.990 . S
N2077 C2076 1.314 . S
N2077 C2080 1.279 . S
C2078 C2076 1.353 . S
C2078 C2081 1.348 . S
C2078 H2110 0.929 . S
C2079 C2080 1.358 . S
C2079 C2081 1.356 . S
C2079 H2111 0.930 . S
C2080 N2077 1.279 . S
C2080 C2079 1.358 . S
C2080 H2083 0.930 . S
C2081 C2078 1.348 . S
C2081 C2079 1.356 . S
H2082 C2076 0.930 . S
H2083 C2080 0.930 . S
O2084 Li2024 1.956 . S
O2084 Li2025 1.970 . S
O2084 Li2026 1.961 . S
O2084 C2028 1.325 . S
O2085 Li2024 1.970 . S
O2085 Li2025 1.956 . S
O2085 Li2027 1.961 . S
O2085 C2034 1.325 . S
O2086 Li2024 1.961 . S
O2086 Li2026 1.956 . S
O2086 Li2027 1.970 . S
O2086 C2056 1.325 . S
O2087 Li2025 1.961 . S
O2087 Li2026 1.970 . S
O2087 Li2027 1.956 . S
O2087 C2062 1.325 . S
H2088 C2030 0.929 . S
H2089 C2031 0.930 . S
H2090 C2032 0.930 . S
H2091 C2033 0.930 . S
H2092 C2035 0.930 . S
H2093 C2037 0.929 . S
H2094 C2038 0.930 . S
H2095 C2039 0.930 . S
H2096 C2042 0.930 . S
H2097 C2045 0.929 . S
H2098 C2050 0.929 . S
H2099 C2051 0.930 . S
H2100 C2058 0.929 . S
H2101 C2059 0.930 . S
H2102 C2060 0.930 . S
H2103 C2061 0.930 . S
H2104 C2063 0.929 . S
H2105 C2064 0.930 . S
H2106 C2065 0.930 . S
H2107 C2066 0.930 . S
H2108 C2070 0.929 . S
H2109 C2072 0.930 . S
H2110 C2078 0.929 . S
H2111 C2079 0.930 . S
H2112 C2124 0.930 . S
H2113 C2126 0.930 . S
H2114 C2127 0.930 . S
H2115 C2131 0.959 . S
H2116 C2131 0.959 . S
H2117 C2131 0.961 . S
H2118 C2132 0.960 . S
H2119 C2132 0.961 . S
H2120 C2132 0.959 . S
H2121 C2135 0.929 . S
H2122 C2136 0.931 . S
H2123 C2138 0.930 . S
C2124 H2112 0.930 . S
C2124 C2125 1.399 . S
C2124 C2129 1.399 . S
C2125 C2124 1.399 . S
C2125 C2126 1.376 . S
C2126 H2113 0.930 . S
C2126 C2125 1.376 . S
C2126 C2127 1.388 . S
C2127 H2114 0.930 . S
C2127 C2126 1.388 . S
C2127 C2128 1.390 . S
C2128 C2127 1.390 . S
C2128 C2129 1.394 . S
C2128 C2134 1.465 . S
C2129 C2124 1.399 . S
C2129 C2128 1.394 . S
C2129 C2130 1.516 . S
C2130 C2129 1.516 . S
C2130 C2131 1.502 . S
C2130 C2132 1.561 . S
C2130 C2133 1.526 . S
C2131 H2115 0.959 . S
C2131 H2116 0.959 . S
C2131 H2117 0.961 . S
C2131 C2130 1.502 . S
C2132 H2118 0.960 . S
C2132 H2119 0.961 . S
C2132 H2120 0.959 . S
C2132 C2130 1.561 . S
C2133 C2130 1.526 . S
C2133 C2134 1.396 . S
C2133 C2138 1.390 . S
C2134 C2128 1.465 . S
C2134 C2133 1.396 . S
C2134 C2135 1.399 . S
C2135 H2121 0.929 . S
C2135 C2134 1.399 . S
C2135 C2136 1.385 . S
C2136 H2122 0.931 . S
C2136 C2135 1.385 . S
C2136 C2137 1.389 . S
C2137 C2136 1.389 . S
C2137 C2138 1.387 . S
C2138 H2123 0.930 . S
C2138 C2133 1.390 . S
C2138 C2137 1.387 . S
H2139 C2151 0.930 . S
H2140 C2153 0.930 . S
H2141 C2154 0.930 . S
H2142 C2158 0.959 . S
H2143 C2158 0.959 . S
H2144 C2158 0.961 . S
H2145 C2159 0.960 . S
H2146 C2159 0.961 . S
H2147 C2159 0.959 . S
H2148 C2162 0.929 . S
H2149 C2163 0.931 . S
H2150 C2165 0.930 . S
C2151 H2139 0.930 . S
C2151 C2152 1.399 . S
C2151 C2156 1.399 . S
C2152 C2151 1.399 . S
C2152 C2153 1.376 . S
C2153 H2140 0.930 . S
C2153 C2152 1.376 . S
C2153 C2154 1.388 . S
C2154 H2141 0.930 . S
C2154 C2153 1.388 . S
C2154 C2155 1.390 . S
C2155 C2154 1.390 . S
C2155 C2156 1.394 . S
C2155 C2161 1.465 . S
C2156 C2151 1.399 . S
C2156 C2155 1.394 . S
C2156 C2157 1.516 . S
C2157 C2156 1.516 . S
C2157 C2158 1.502 . S
C2157 C2159 1.561 . S
C2157 C2160 1.526 . S
C2158 H2142 0.959 . S
C2158 H2143 0.959 . S
C2158 H2144 0.961 . S
C2158 C2157 1.502 . S
C2159 H2145 0.960 . S
C2159 H2146 0.961 . S
C2159 H2147 0.959 . S
C2159 C2157 1.561 . S
C2160 C2157 1.526 . S
C2160 C2161 1.396 . S
C2160 C2165 1.390 . S
C2161 C2155 1.465 . S
C2161 C2160 1.396 . S
C2161 C2162 1.399 . S
C2162 H2148 0.929 . S
C2162 C2161 1.399 . S
C2162 C2163 1.385 . S
C2163 H2149 0.931 . S
C2163 C2162 1.385 . S
C2163 C2164 1.389 . S
C2164 C2163 1.389 . S
C2164 C2165 1.387 . S
C2165 H2150 0.930 . S
C2165 C2160 1.390 . S
C2165 C2164 1.387 . S
H2166 C2178 0.930 . S
H2167 C2180 0.930 . S
H2168 C2181 0.930 . S
H2169 C2185 0.959 . S
H2170 C2185 0.959 . S
H2171 C2185 0.961 . S
H2172 C2186 0.960 . S
H2173 C2186 0.961 . S
H2174 C2186 0.959 . S
H2175 C2189 0.929 . S
H2176 C2190 0.931 . S
H2177 C2192 0.930 . S
C2178 H2166 0.930 . S
C2178 C2179 1.399 . S
C2178 C2183 1.399 . S
C2179 C2178 1.399 . S
C2179 C2180 1.376 . S
C2180 H2167 0.930 . S
C2180 C2179 1.376 . S
C2180 C2181 1.388 . S
C2181 H2168 0.930 . S
C2181 C2180 1.388 . S
C2181 C2182 1.390 . S
C2182 C2181 1.390 . S
C2182 C2183 1.394 . S
C2182 C2188 1.465 . S
C2183 C2178 1.399 . S
C2183 C2182 1.394 . S
C2183 C2184 1.516 . S
C2184 C2183 1.516 . S
C2184 C2185 1.502 . S
C2184 C2186 1.561 . S
C2184 C2187 1.526 . S
C2185 H2169 0.959 . S
C2185 H2170 0.959 . S
C2185 H2171 0.961 . S
C2185 C2184 1.502 . S
C2186 H2172 0.960 . S
C2186 H2173 0.961 . S
C2186 H2174 0.959 . S
C2186 C2184 1.561 . S
C2187 C2184 1.526 . S
C2187 C2188 1.396 . S
C2187 C2192 1.390 . S
C2188 C2182 1.465 . S
C2188 C2187 1.396 . S
C2188 C2189 1.399 . S
C2189 H2175 0.929 . S
C2189 C2188 1.399 . S
C2189 C2190 1.385 . S
C2190 H2176 0.931 . S
C2190 C2189 1.385 . S
C2190 C2191 1.389 . S
C2191 C2190 1.389 . S
C2191 C2192 1.387 . S
C2192 H2177 0.930 . S
C2192 C2187 1.390 . S
C2192 C2191 1.387 . S
H2193 C2205 0.930 . S
H2194 C2207 0.930 . S
H2195 C2208 0.930 . S
H2196 C2212 0.959 . S
H2197 C2212 0.959 . S
H2198 C2212 0.961 . S
H2199 C2213 0.960 . S
H2200 C2213 0.961 . S
H2201 C2213 0.959 . S
H2202 C2216 0.929 . S
H2203 C2217 0.931 . S
H2204 C2219 0.930 . S
C2205 H2193 0.930 . S
C2205 C2206 1.399 . S
C2205 C2210 1.399 . S
C2206 C2205 1.399 . S
C2206 C2207 1.376 . S
C2207 H2194 0.930 . S
C2207 C2206 1.376 . S
C2207 C2208 1.388 . S
C2208 H2195 0.930 . S
C2208 C2207 1.388 . S
C2208 C2209 1.390 . S
C2209 C2208 1.390 . S
C2209 C2210 1.394 . S
C2209 C2215 1.465 . S
C2210 C2205 1.399 . S
C2210 C2209 1.394 . S
C2210 C2211 1.516 . S
C2211 C2210 1.516 . S
C2211 C2212 1.502 . S
C2211 C2213 1.561 . S
C2211 C2214 1.526 . S
C2212 H2196 0.959 . S
C2212 H2197 0.959 . S
C2212 H2198 0.961 . S
C2212 C2211 1.502 . S
C2213 H2199 0.960 . S
C2213 H2200 0.961 . S
C2213 H2201 0.959 . S
C2213 C2211 1.561 . S
C2214 C2211 1.526 . S
C2214 C2215 1.396 . S
C2214 C2219 1.390 . S
C2215 C2209 1.465 . S
C2215 C2214 1.396 . S
C2215 C2216 1.399 . S
C2216 H2202 0.929 . S
C2216 C2215 1.399 . S
C2216 C2217 1.385 . S
C2217 H2203 0.931 . S
C2217 C2216 1.385 . S
C2217 C2218 1.389 . S
C2218 C2217 1.389 . S
C2218 C2219 1.387 . S
C2219 H2204 0.930 . S
C2219 C2214 1.390 . S
C2219 C2218 1.387 . S
H2220 C2232 0.930 . S
H2221 C2234 0.930 . S
H2222 C2235 0.930 . S
H2223 C2239 0.959 . S
H2224 C2239 0.959 . S
H2225 C2239 0.961 . S
H2226 C2240 0.960 . S
H2227 C2240 0.961 . S
H2228 C2240 0.959 . S
H2229 C2243 0.929 . S
H2230 C2244 0.931 . S
H2231 C2246 0.930 . S
C2232 H2220 0.930 . S
C2232 C2233 1.399 . S
C2232 C2237 1.399 . S
C2233 C2232 1.399 . S
C2233 C2234 1.376 . S
C2234 H2221 0.930 . S
C2234 C2233 1.376 . S
C2234 C2235 1.388 . S
C2235 H2222 0.930 . S
C2235 C2234 1.388 . S
C2235 C2236 1.390 . S
C2236 C2235 1.390 . S
C2236 C2237 1.394 . S
C2236 C2242 1.465 . S
C2237 C2232 1.399 . S
C2237 C2236 1.394 . S
C2237 C2238 1.516 . S
C2238 C2237 1.516 . S
C2238 C2239 1.502 . S
C2238 C2240 1.561 . S
C2238 C2241 1.526 . S
C2239 H2223 0.959 . S
C2239 H2224 0.959 . S
C2239 H2225 0.961 . S
C2239 C2238 1.502 . S
C2240 H2226 0.960 . S
C2240 H2227 0.961 . S
C2240 H2228 0.959 . S
C2240 C2238 1.561 . S
C2241 C2238 1.526 . S
C2241 C2242 1.396 . S
C2241 C2246 1.390 . S
C2242 C2236 1.465 . S
C2242 C2241 1.396 . S
C2242 C2243 1.399 . S
C2243 H2229 0.929 . S
C2243 C2242 1.399 . S
C2243 C2244 1.385 . S
C2244 H2230 0.931 . S
C2244 C2243 1.385 . S
C2244 C2245 1.389 . S
C2245 C2244 1.389 . S
C2245 C2246 1.387 . S
C2246 H2231 0.930 . S
C2246 C2241 1.390 . S
C2246 C2245 1.387 . S
H2247 C2259 0.930 . S
H2248 C2261 0.930 . S
H2249 C2262 0.930 . S
H2250 C2266 0.959 . S
H2251 C2266 0.959 . S
H2252 C2266 0.961 . S
H2253 C2267 0.960 . S
H2254 C2267 0.961 . S
H2255 C2267 0.959 . S
H2256 C2270 0.929 . S
H2257 C2271 0.931 . S
H2258 C2273 0.930 . S
C2259 H2247 0.930 . S
C2259 C2260 1.399 . S
C2259 C2264 1.399 . S
C2260 C2259 1.399 . S
C2260 C2261 1.376 . S
C2261 H2248 0.930 . S
C2261 C2260 1.376 . S
C2261 C2262 1.388 . S
C2262 H2249 0.930 . S
C2262 C2261 1.388 . S
C2262 C2263 1.390 . S
C2263 C2262 1.390 . S
C2263 C2264 1.394 . S
C2263 C2269 1.465 . S
C2264 C2259 1.399 . S
C2264 C2263 1.394 . S
C2264 C2265 1.516 . S
C2265 C2264 1.516 . S
C2265 C2266 1.502 . S
C2265 C2267 1.561 . S
C2265 C2268 1.526 . S
C2266 H2250 0.959 . S
C2266 H2251 0.959 . S
C2266 H2252 0.961 . S
C2266 C2265 1.502 . S
C2267 H2253 0.960 . S
C2267 H2254 0.961 . S
C2267 H2255 0.959 . S
C2267 C2265 1.561 . S
C2268 C2265 1.526 . S
C2268 C2269 1.396 . S
C2268 C2273 1.390 . S
C2269 C2263 1.465 . S
C2269 C2268 1.396 . S
C2269 C2270 1.399 . S
C2270 H2256 0.929 . S
C2270 C2269 1.399 . S
C2270 C2271 1.385 . S
C2271 H2257 0.931 . S
C2271 C2270 1.385 . S
C2271 C2272 1.389 . S
C2272 C2271 1.389 . S
C2272 C2273 1.387 . S
C2273 H2258 0.930 . S
C2273 C2268 1.390 . S
C2273 C2272 1.387 . S
H2274 C2286 0.930 . S
H2275 C2288 0.930 . S
H2276 C2289 0.930 . S
H2277 C2293 0.959 . S
H2278 C2293 0.959 . S
H2279 C2293 0.961 . S
H2280 C2294 0.960 . S
H2281 C2294 0.961 . S
H2282 C2294 0.959 . S
H2283 C2297 0.929 . S
H2284 C2298 0.931 . S
H2285 C2300 0.930 . S
C2286 H2274 0.930 . S
C2286 C2287 1.399 . S
C2286 C2291 1.399 . S
C2287 C2286 1.399 . S
C2287 C2288 1.376 . S
C2288 H2275 0.930 . S
C2288 C2287 1.376 . S
C2288 C2289 1.388 . S
C2289 H2276 0.930 . S
C2289 C2288 1.388 . S
C2289 C2290 1.390 . S
C2290 C2289 1.390 . S
C2290 C2291 1.394 . S
C2290 C2296 1.465 . S
C2291 C2286 1.399 . S
C2291 C2290 1.394 . S
C2291 C2292 1.516 . S
C2292 C2291 1.516 . S
C2292 C2293 1.502 . S
C2292 C2294 1.561 . S
C2292 C2295 1.526 . S
C2293 H2277 0.959 . S
C2293 H2278 0.959 . S
C2293 H2279 0.961 . S
C2293 C2292 1.502 . S
C2294 H2280 0.960 . S
C2294 H2281 0.961 . S
C2294 H2282 0.959 . S
C2294 C2292 1.561 . S
C2295 C2292 1.526 . S
C2295 C2296 1.396 . S
C2295 C2300 1.390 . S
C2296 C2290 1.465 . S
C2296 C2295 1.396 . S
C2296 C2297 1.399 . S
C2297 H2283 0.929 . S
C2297 C2296 1.399 . S
C2297 C2298 1.385 . S
C2298 H2284 0.931 . S
C2298 C2297 1.385 . S
C2298 C2299 1.389 . S
C2299 C2298 1.389 . S
C2299 C2300 1.387 . S
C2300 H2285 0.930 . S
C2300 C2295 1.390 . S
C2300 C2299 1.387 . S
H2301 C2313 0.930 . S
H2302 C2315 0.930 . S
H2303 C2316 0.930 . S
H2304 C2320 0.959 . S
H2305 C2320 0.959 . S
H2306 C2320 0.961 . S
H2307 C2321 0.960 . S
H2308 C2321 0.961 . S
H2309 C2321 0.959 . S
H2310 C2324 0.929 . S
H2311 C2325 0.931 . S
H2312 C2327 0.930 . S
C2313 H2301 0.930 . S
C2313 C2314 1.399 . S
C2313 C2318 1.399 . S
C2314 C2313 1.399 . S
C2314 C2315 1.376 . S
C2315 H2302 0.930 . S
C2315 C2314 1.376 . S
C2315 C2316 1.388 . S
C2316 H2303 0.930 . S
C2316 C2315 1.388 . S
C2316 C2317 1.390 . S
C2317 C2316 1.390 . S
C2317 C2318 1.394 . S
C2317 C2323 1.465 . S
C2318 C2313 1.399 . S
C2318 C2317 1.394 . S
C2318 C2319 1.516 . S
C2319 C2318 1.516 . S
C2319 C2320 1.502 . S
C2319 C2321 1.561 . S
C2319 C2322 1.526 . S
C2320 H2304 0.959 . S
C2320 H2305 0.959 . S
C2320 H2306 0.961 . S
C2320 C2319 1.502 . S
C2321 H2307 0.960 . S
C2321 H2308 0.961 . S
C2321 H2309 0.959 . S
C2321 C2319 1.561 . S
C2322 C2319 1.526 . S
C2322 C2323 1.396 . S
C2322 C2327 1.390 . S
C2323 C2317 1.465 . S
C2323 C2322 1.396 . S
C2323 C2324 1.399 . S
C2324 H2310 0.929 . S
C2324 C2323 1.399 . S
C2324 C2325 1.385 . S
C2325 H2311 0.931 . S
C2325 C2324 1.385 . S
C2325 C2326 1.389 . S
C2326 C2325 1.389 . S
C2326 C2327 1.387 . S
C2327 H2312 0.930 . S
C2327 C2322 1.390 . S
C2327 C2326 1.387 . S
H2328 C2340 0.930 . S
H2329 C2342 0.930 . S
H2330 C2343 0.930 . S
H2331 C2347 0.959 . S
H2332 C2347 0.959 . S
H2333 C2347 0.961 . S
H2334 C2348 0.960 . S
H2335 C2348 0.961 . S
H2336 C2348 0.959 . S
H2337 C2351 0.929 . S
H2338 C2352 0.931 . S
H2339 C2354 0.930 . S
C2340 H2328 0.930 . S
C2340 C2341 1.399 . S
C2340 C2345 1.399 . S
C2341 C2340 1.399 . S
C2341 C2342 1.376 . S
C2342 H2329 0.930 . S
C2342 C2341 1.376 . S
C2342 C2343 1.388 . S
C2343 H2330 0.930 . S
C2343 C2342 1.388 . S
C2343 C2344 1.390 . S
C2344 C2343 1.390 . S
C2344 C2345 1.394 . S
C2344 C2350 1.465 . S
C2345 C2340 1.399 . S
C2345 C2344 1.394 . S
C2345 C2346 1.516 . S
C2346 C2345 1.516 . S
C2346 C2347 1.502 . S
C2346 C2348 1.561 . S
C2346 C2349 1.526 . S
C2347 H2331 0.959 . S
C2347 H2332 0.959 . S
C2347 H2333 0.961 . S
C2347 C2346 1.502 . S
C2348 H2334 0.960 . S
C2348 H2335 0.961 . S
C2348 H2336 0.959 . S
C2348 C2346 1.561 . S
C2349 C2346 1.526 . S
C2349 C2350 1.396 . S
C2349 C2354 1.390 . S
C2350 C2344 1.465 . S
C2350 C2349 1.396 . S
C2350 C2351 1.399 . S
C2351 H2337 0.929 . S
C2351 C2350 1.399 . S
C2351 C2352 1.385 . S
C2352 H2338 0.931 . S
C2352 C2351 1.385 . S
C2352 C2353 1.389 . S
C2353 C2352 1.389 . S
C2353 C2354 1.387 . S
C2354 H2339 0.930 . S
C2354 C2349 1.390 . S
C2354 C2353 1.387 . S
H2355 C2367 0.930 . S
H2356 C2369 0.930 . S
H2357 C2370 0.930 . S
H2358 C2374 0.959 . S
H2359 C2374 0.959 . S
H2360 C2374 0.961 . S
H2361 C2375 0.960 . S
H2362 C2375 0.961 . S
H2363 C2375 0.959 . S
H2364 C2378 0.929 . S
H2365 C2379 0.931 . S
H2366 C2381 0.930 . S
C2367 H2355 0.930 . S
C2367 C2368 1.399 . S
C2367 C2372 1.399 . S
C2368 C2367 1.399 . S
C2368 C2369 1.376 . S
C2369 H2356 0.930 . S
C2369 C2368 1.376 . S
C2369 C2370 1.388 . S
C2370 H2357 0.930 . S
C2370 C2369 1.388 . S
C2370 C2371 1.390 . S
C2371 C2370 1.390 . S
C2371 C2372 1.394 . S
C2371 C2377 1.465 . S
C2372 C2367 1.399 . S
C2372 C2371 1.394 . S
C2372 C2373 1.516 . S
C2373 C2372 1.516 . S
C2373 C2374 1.502 . S
C2373 C2375 1.561 . S
C2373 C2376 1.526 . S
C2374 H2358 0.959 . S
C2374 H2359 0.959 . S
C2374 H2360 0.961 . S
C2374 C2373 1.502 . S
C2375 H2361 0.960 . S
C2375 H2362 0.961 . S
C2375 H2363 0.959 . S
C2375 C2373 1.561 . S
C2376 C2373 1.526 . S
C2376 C2377 1.396 . S
C2376 C2381 1.390 . S
C2377 C2371 1.465 . S
C2377 C2376 1.396 . S
C2377 C2378 1.399 . S
C2378 H2364 0.929 . S
C2378 C2377 1.399 . S
C2378 C2379 1.385 . S
C2379 H2365 0.931 . S
C2379 C2378 1.385 . S
C2379 C2380 1.389 . S
C2380 C2379 1.389 . S
C2380 C2381 1.387 . S
C2381 H2366 0.930 . S
C2381 C2376 1.390 . S
C2381 C2380 1.387 . S
H2382 C2394 0.930 . S
H2383 C2396 0.930 . S
H2384 C2397 0.930 . S
H2385 C2401 0.959 . S
H2386 C2401 0.959 . S
H2387 C2401 0.961 . S
H2388 C2402 0.960 . S
H2389 C2402 0.961 . S
H2390 C2402 0.959 . S
H2391 C2405 0.929 . S
H2392 C2406 0.931 . S
H2393 C2408 0.930 . S
C2394 H2382 0.930 . S
C2394 C2395 1.399 . S
C2394 C2399 1.399 . S
C2395 C2394 1.399 . S
C2395 C2396 1.376 . S
C2396 H2383 0.930 . S
C2396 C2395 1.376 . S
C2396 C2397 1.388 . S
C2397 H2384 0.930 . S
C2397 C2396 1.388 . S
C2397 C2398 1.390 . S
C2398 C2397 1.390 . S
C2398 C2399 1.394 . S
C2398 C2404 1.465 . S
C2399 C2394 1.399 . S
C2399 C2398 1.394 . S
C2399 C2400 1.516 . S
C2400 C2399 1.516 . S
C2400 C2401 1.502 . S
C2400 C2402 1.561 . S
C2400 C2403 1.526 . S
C2401 H2385 0.959 . S
C2401 H2386 0.959 . S
C2401 H2387 0.961 . S
C2401 C2400 1.502 . S
C2402 H2388 0.960 . S
C2402 H2389 0.961 . S
C2402 H2390 0.959 . S
C2402 C2400 1.561 . S
C2403 C2400 1.526 . S
C2403 C2404 1.396 . S
C2403 C2408 1.390 . S
C2404 C2398 1.465 . S
C2404 C2403 1.396 . S
C2404 C2405 1.399 . S
C2405 H2391 0.929 . S
C2405 C2404 1.399 . S
C2405 C2406 1.385 . S
C2406 H2392 0.931 . S
C2406 C2405 1.385 . S
C2406 C2407 1.389 . S
C2407 C2406 1.389 . S
C2407 C2408 1.387 . S
C2408 H2393 0.930 . S
C2408 C2403 1.390 . S
C2408 C2407 1.387 . S
H2409 C2421 0.930 . S
H2410 C2423 0.930 . S
H2411 C2424 0.930 . S
H2412 C2428 0.959 . S
H2413 C2428 0.959 . S
H2414 C2428 0.961 . S
H2415 C2429 0.960 . S
H2416 C2429 0.961 . S
H2417 C2429 0.959 . S
H2418 C2432 0.929 . S
H2419 C2433 0.931 . S
H2420 C2435 0.930 . S
C2421 H2409 0.930 . S
C2421 C2422 1.399 . S
C2421 C2426 1.399 . S
C2422 C2421 1.399 . S
C2422 C2423 1.376 . S
C2423 H2410 0.930 . S
C2423 C2422 1.376 . S
C2423 C2424 1.388 . S
C2424 H2411 0.930 . S
C2424 C2423 1.388 . S
C2424 C2425 1.390 . S
C2425 C2424 1.390 . S
C2425 C2426 1.394 . S
C2425 C2431 1.465 . S
C2426 C2421 1.399 . S
C2426 C2425 1.394 . S
C2426 C2427 1.516 . S
C2427 C2426 1.516 . S
C2427 C2428 1.502 . S
C2427 C2429 1.561 . S
C2427 C2430 1.526 . S
C2428 H2412 0.959 . S
C2428 H2413 0.959 . S
C2428 H2414 0.961 . S
C2428 C2427 1.502 . S
C2429 H2415 0.960 . S
C2429 H2416 0.961 . S
C2429 H2417 0.959 . S
C2429 C2427 1.561 . S
C2430 C2427 1.526 . S
C2430 C2431 1.396 . S
C2430 C2435 1.390 . S
C2431 C2425 1.465 . S
C2431 C2430 1.396 . S
C2431 C2432 1.399 . S
C2432 H2418 0.929 . S
C2432 C2431 1.399 . S
C2432 C2433 1.385 . S
C2433 H2419 0.931 . S
C2433 C2432 1.385 . S
C2433 C2434 1.389 . S
C2434 C2433 1.389 . S
C2434 C2435 1.387 . S
C2435 H2420 0.930 . S
C2435 C2430 1.390 . S
C2435 C2434 1.387 . S
H2436 C2448 0.930 . S
H2437 C2450 0.930 . S
H2438 C2451 0.930 . S
H2439 C2455 0.959 . S
H2440 C2455 0.959 . S
H2441 C2455 0.961 . S
H2442 C2456 0.960 . S
H2443 C2456 0.961 . S
H2444 C2456 0.959 . S
H2445 C2459 0.929 . S
H2446 C2460 0.931 . S
H2447 C2462 0.930 . S
C2448 H2436 0.930 . S
C2448 C2449 1.399 . S
C2448 C2453 1.399 . S
C2449 C2448 1.399 . S
C2449 C2450 1.376 . S
C2450 H2437 0.930 . S
C2450 C2449 1.376 . S
C2450 C2451 1.388 . S
C2451 H2438 0.930 . S
C2451 C2450 1.388 . S
C2451 C2452 1.390 . S
C2452 C2451 1.390 . S
C2452 C2453 1.394 . S
C2452 C2458 1.465 . S
C2453 C2448 1.399 . S
C2453 C2452 1.394 . S
C2453 C2454 1.516 . S
C2454 C2453 1.516 . S
C2454 C2455 1.502 . S
C2454 C2456 1.561 . S
C2454 C2457 1.526 . S
C2455 H2439 0.959 . S
C2455 H2440 0.959 . S
C2455 H2441 0.961 . S
C2455 C2454 1.502 . S
C2456 H2442 0.960 . S
C2456 H2443 0.961 . S
C2456 H2444 0.959 . S
C2456 C2454 1.561 . S
C2457 C2454 1.526 . S
C2457 C2458 1.396 . S
C2457 C2462 1.390 . S
C2458 C2452 1.465 . S
C2458 C2457 1.396 . S
C2458 C2459 1.399 . S
C2459 H2445 0.929 . S
C2459 C2458 1.399 . S
C2459 C2460 1.385 . S
C2460 H2446 0.931 . S
C2460 C2459 1.385 . S
C2460 C2461 1.389 . S
C2461 C2460 1.389 . S
C2461 C2462 1.387 . S
C2462 H2447 0.930 . S
C2462 C2457 1.390 . S
C2462 C2461 1.387 . S
H2463 C2475 0.930 . S
H2464 C2477 0.930 . S
H2465 C2478 0.930 . S
H2466 C2482 0.959 . S
H2467 C2482 0.959 . S
H2468 C2482 0.961 . S
H2469 C2483 0.960 . S
H2470 C2483 0.961 . S
H2471 C2483 0.959 . S
H2472 C2486 0.929 . S
H2473 C2487 0.931 . S
H2474 C2489 0.930 . S
C2475 H2463 0.930 . S
C2475 C2476 1.399 . S
C2475 C2480 1.399 . S
C2476 C2475 1.399 . S
C2476 C2477 1.376 . S
C2477 H2464 0.930 . S
C2477 C2476 1.376 . S
C2477 C2478 1.388 . S
C2478 H2465 0.930 . S
C2478 C2477 1.388 . S
C2478 C2479 1.390 . S
C2479 C2478 1.390 . S
C2479 C2480 1.394 . S
C2479 C2485 1.465 . S
C2480 C2475 1.399 . S
C2480 C2479 1.394 . S
C2480 C2481 1.516 . S
C2481 C2480 1.516 . S
C2481 C2482 1.502 . S
C2481 C2483 1.561 . S
C2481 C2484 1.526 . S
C2482 H2466 0.959 . S
C2482 H2467 0.959 . S
C2482 H2468 0.961 . S
C2482 C2481 1.502 . S
C2483 H2469 0.960 . S
C2483 H2470 0.961 . S
C2483 H2471 0.959 . S
C2483 C2481 1.561 . S
C2484 C2481 1.526 . S
C2484 C2485 1.396 . S
C2484 C2489 1.390 . S
C2485 C2479 1.465 . S
C2485 C2484 1.396 . S
C2485 C2486 1.399 . S
C2486 H2472 0.929 . S
C2486 C2485 1.399 . S
C2486 C2487 1.385 . S
C2487 H2473 0.931 . S
C2487 C2486 1.385 . S
C2487 C2488 1.389 . S
C2488 C2487 1.389 . S
C2488 C2489 1.387 . S
C2489 H2474 0.930 . S
C2489 C2484 1.390 . S
C2489 C2488 1.387 . S
H2490 C2502 0.930 . S
H2491 C2504 0.930 . S
H2492 C2505 0.930 . S
H2493 C2509 0.959 . S
H2494 C2509 0.959 . S
H2495 C2509 0.961 . S
H2496 C2510 0.960 . S
H2497 C2510 0.961 . S
H2498 C2510 0.959 . S
H2499 C2513 0.929 . S
H2500 C2514 0.931 . S
H2501 C2516 0.930 . S
C2502 H2490 0.930 . S
C2502 C2503 1.399 . S
C2502 C2507 1.399 . S
C2503 C2502 1.399 . S
C2503 C2504 1.376 . S
C2504 H2491 0.930 . S
C2504 C2503 1.376 . S
C2504 C2505 1.388 . S
C2505 H2492 0.930 . S
C2505 C2504 1.388 . S
C2505 C2506 1.390 . S
C2506 C2505 1.390 . S
C2506 C2507 1.394 . S
C2506 C2512 1.465 . S
C2507 C2502 1.399 . S
C2507 C2506 1.394 . S
C2507 C2508 1.516 . S
C2508 C2507 1.516 . S
C2508 C2509 1.502 . S
C2508 C2510 1.561 . S
C2508 C2511 1.526 . S
C2509 H2493 0.959 . S
C2509 H2494 0.959 . S
C2509 H2495 0.961 . S
C2509 C2508 1.502 . S
C2510 H2496 0.960 . S
C2510 H2497 0.961 . S
C2510 H2498 0.959 . S
C2510 C2508 1.561 . S
C2511 C2508 1.526 . S
C2511 C2512 1.396 . S
C2511 C2516 1.390 . S
C2512 C2506 1.465 . S
C2512 C2511 1.396 . S
C2512 C2513 1.399 . S
C2513 H2499 0.929 . S
C2513 C2512 1.399 . S
C2513 C2514 1.385 . S
C2514 H2500 0.931 . S
C2514 C2513 1.385 . S
C2514 C2515 1.389 . S
C2515 C2514 1.389 . S
C2515 C2516 1.387 . S
C2516 H2501 0.930 . S
C2516 C2511 1.390 . S
C2516 C2515 1.387 . S
H2517 C2529 0.930 . S
H2518 C2531 0.930 . S
H2519 C2532 0.930 . S
H2520 C2536 0.959 . S
H2521 C2536 0.959 . S
H2522 C2536 0.961 . S
H2523 C2537 0.960 . S
H2524 C2537 0.961 . S
H2525 C2537 0.959 . S
H2526 C2540 0.929 . S
H2527 C2541 0.931 . S
H2528 C2543 0.930 . S
C2529 H2517 0.930 . S
C2529 C2530 1.399 . S
C2529 C2534 1.399 . S
C2530 C2529 1.399 . S
C2530 C2531 1.376 . S
C2531 H2518 0.930 . S
C2531 C2530 1.376 . S
C2531 C2532 1.388 . S
C2532 H2519 0.930 . S
C2532 C2531 1.388 . S
C2532 C2533 1.390 . S
C2533 C2532 1.390 . S
C2533 C2534 1.394 . S
C2533 C2539 1.465 . S
C2534 C2529 1.399 . S
C2534 C2533 1.394 . S
C2534 C2535 1.516 . S
C2535 C2534 1.516 . S
C2535 C2536 1.502 . S
C2535 C2537 1.561 . S
C2535 C2538 1.526 . S
C2536 H2520 0.959 . S
C2536 H2521 0.959 . S
C2536 H2522 0.961 . S
C2536 C2535 1.502 . S
C2537 H2523 0.960 . S
C2537 H2524 0.961 . S
C2537 H2525 0.959 . S
C2537 C2535 1.561 . S
C2538 C2535 1.526 . S
C2538 C2539 1.396 . S
C2538 C2543 1.390 . S
C2539 C2533 1.465 . S
C2539 C2538 1.396 . S
C2539 C2540 1.399 . S
C2540 H2526 0.929 . S
C2540 C2539 1.399 . S
C2540 C2541 1.385 . S
C2541 H2527 0.931 . S
C2541 C2540 1.385 . S
C2541 C2542 1.389 . S
C2542 C2541 1.389 . S
C2542 C2543 1.387 . S
C2543 H2528 0.930 . S
C2543 C2538 1.390 . S
C2543 C2542 1.387 . S
H2544 C2556 0.930 . S
H2545 C2558 0.930 . S
H2546 C2559 0.930 . S
H2547 C2563 0.959 . S
H2548 C2563 0.959 . S
H2549 C2563 0.961 . S
H2550 C2564 0.960 . S
H2551 C2564 0.961 . S
H2552 C2564 0.959 . S
H2553 C2567 0.929 . S
H2554 C2568 0.931 . S
H2555 C2570 0.930 . S
C2556 H2544 0.930 . S
C2556 C2557 1.399 . S
C2556 C2561 1.399 . S
C2557 C2556 1.399 . S
C2557 C2558 1.376 . S
C2558 H2545 0.930 . S
C2558 C2557 1.376 . S
C2558 C2559 1.388 . S
C2559 H2546 0.930 . S
C2559 C2558 1.388 . S
C2559 C2560 1.390 . S
C2560 C2559 1.390 . S
C2560 C2561 1.394 . S
C2560 C2566 1.465 . S
C2561 C2556 1.399 . S
C2561 C2560 1.394 . S
C2561 C2562 1.516 . S
C2562 C2561 1.516 . S
C2562 C2563 1.502 . S
C2562 C2564 1.561 . S
C2562 C2565 1.526 . S
C2563 H2547 0.959 . S
C2563 H2548 0.959 . S
C2563 H2549 0.961 . S
C2563 C2562 1.502 . S
C2564 H2550 0.960 . S
C2564 H2551 0.961 . S
C2564 H2552 0.959 . S
C2564 C2562 1.561 . S
C2565 C2562 1.526 . S
C2565 C2566 1.396 . S
C2565 C2570 1.390 . S
C2566 C2560 1.465 . S
C2566 C2565 1.396 . S
C2566 C2567 1.399 . S
C2567 H2553 0.929 . S
C2567 C2566 1.399 . S
C2567 C2568 1.385 . S
C2568 H2554 0.931 . S
C2568 C2567 1.385 . S
C2568 C2569 1.389 . S
C2569 C2568 1.389 . S
C2569 C2570 1.387 . S
C2570 H2555 0.930 . S
C2570 C2565 1.390 . S
C2570 C2569 1.387 . S
H2571 C2583 0.930 . S
H2572 C2585 0.930 . S
H2573 C2586 0.930 . S
H2574 C2590 0.959 . S
H2575 C2590 0.959 . S
H2576 C2590 0.961 . S
H2577 C2591 0.960 . S
H2578 C2591 0.961 . S
H2579 C2591 0.959 . S
H2580 C2594 0.929 . S
H2581 C2595 0.931 . S
H2582 C2597 0.930 . S
C2583 H2571 0.930 . S
C2583 C2584 1.399 . S
C2583 C2588 1.399 . S
C2584 C2583 1.399 . S
C2584 C2585 1.376 . S
C2585 H2572 0.930 . S
C2585 C2584 1.376 . S
C2585 C2586 1.388 . S
C2586 H2573 0.930 . S
C2586 C2585 1.388 . S
C2586 C2587 1.390 . S
C2587 C2586 1.390 . S
C2587 C2588 1.394 . S
C2587 C2593 1.465 . S
C2588 C2583 1.399 . S
C2588 C2587 1.394 . S
C2588 C2589 1.516 . S
C2589 C2588 1.516 . S
C2589 C2590 1.502 . S
C2589 C2591 1.561 . S
C2589 C2592 1.526 . S
C2590 H2574 0.959 . S
C2590 H2575 0.959 . S
C2590 H2576 0.961 . S
C2590 C2589 1.502 . S
C2591 H2577 0.960 . S
C2591 H2578 0.961 . S
C2591 H2579 0.959 . S
C2591 C2589 1.561 . S
C2592 C2589 1.526 . S
C2592 C2593 1.396 . S
C2592 C2597 1.390 . S
C2593 C2587 1.465 . S
C2593 C2592 1.396 . S
C2593 C2594 1.399 . S
C2594 H2580 0.929 . S
C2594 C2593 1.399 . S
C2594 C2595 1.385 . S
C2595 H2581 0.931 . S
C2595 C2594 1.385 . S
C2595 C2596 1.389 . S
C2596 C2595 1.389 . S
C2596 C2597 1.387 . S
C2597 H2582 0.930 . S
C2597 C2592 1.390 . S
C2597 C2596 1.387 . S
H2598 C2610 0.930 . S
H2599 C2612 0.930 . S
H2600 C2613 0.930 . S
H2601 C2617 0.959 . S
H2602 C2617 0.959 . S
H2603 C2617 0.961 . S
H2604 C2618 0.960 . S
H2605 C2618 0.961 . S
H2606 C2618 0.959 . S
H2607 C2621 0.929 . S
H2608 C2622 0.931 . S
H2609 C2624 0.930 . S
C2610 H2598 0.930 . S
C2610 C2611 1.399 . S
C2610 C2615 1.399 . S
C2611 C2610 1.399 . S
C2611 C2612 1.376 . S
C2612 H2599 0.930 . S
C2612 C2611 1.376 . S
C2612 C2613 1.388 . S
C2613 H2600 0.930 . S
C2613 C2612 1.388 . S
C2613 C2614 1.390 . S
C2614 C2613 1.390 . S
C2614 C2615 1.394 . S
C2614 C2620 1.465 . S
C2615 C2610 1.399 . S
C2615 C2614 1.394 . S
C2615 C2616 1.516 . S
C2616 C2615 1.516 . S
C2616 C2617 1.502 . S
C2616 C2618 1.561 . S
C2616 C2619 1.526 . S
C2617 H2601 0.959 . S
C2617 H2602 0.959 . S
C2617 H2603 0.961 . S
C2617 C2616 1.502 . S
C2618 H2604 0.960 . S
C2618 H2605 0.961 . S
C2618 H2606 0.959 . S
C2618 C2616 1.561 . S
C2619 C2616 1.526 . S
C2619 C2620 1.396 . S
C2619 C2624 1.390 . S
C2620 C2614 1.465 . S
C2620 C2619 1.396 . S
C2620 C2621 1.399 . S
C2621 H2607 0.929 . S
C2621 C2620 1.399 . S
C2621 C2622 1.385 . S
C2622 H2608 0.931 . S
C2622 C2621 1.385 . S
C2622 C2623 1.389 . S
C2623 C2622 1.389 . S
C2623 C2624 1.387 . S
C2624 H2609 0.930 . S
C2624 C2619 1.390 . S
C2624 C2623 1.387 . S
H2625 C2637 0.930 . S
H2626 C2639 0.930 . S
H2627 C2640 0.930 . S
H2628 C2644 0.959 . S
H2629 C2644 0.959 . S
H2630 C2644 0.961 . S
H2631 C2645 0.960 . S
H2632 C2645 0.961 . S
H2633 C2645 0.959 . S
H2634 C2648 0.929 . S
H2635 C2649 0.931 . S
H2636 C2651 0.930 . S
C2637 H2625 0.930 . S
C2637 C2638 1.399 . S
C2637 C2642 1.399 . S
C2638 C2637 1.399 . S
C2638 C2639 1.376 . S
C2639 H2626 0.930 . S
C2639 C2638 1.376 . S
C2639 C2640 1.388 . S
C2640 H2627 0.930 . S
C2640 C2639 1.388 . S
C2640 C2641 1.390 . S
C2641 C2640 1.390 . S
C2641 C2642 1.394 . S
C2641 C2647 1.465 . S
C2642 C2637 1.399 . S
C2642 C2641 1.394 . S
C2642 C2643 1.516 . S
C2643 C2642 1.516 . S
C2643 C2644 1.502 . S
C2643 C2645 1.561 . S
C2643 C2646 1.526 . S
C2644 H2628 0.959 . S
C2644 H2629 0.959 . S
C2644 H2630 0.961 . S
C2644 C2643 1.502 . S
C2645 H2631 0.960 . S
C2645 H2632 0.961 . S
C2645 H2633 0.959 . S
C2645 C2643 1.561 . S
C2646 C2643 1.526 . S
C2646 C2647 1.396 . S
C2646 C2651 1.390 . S
C2647 C2641 1.465 . S
C2647 C2646 1.396 . S
C2647 C2648 1.399 . S
C2648 H2634 0.929 . S
C2648 C2647 1.399 . S
C2648 C2649 1.385 . S
C2649 H2635 0.931 . S
C2649 C2648 1.385 . S
C2649 C2650 1.389 . S
C2650 C2649 1.389 . S
C2650 C2651 1.387 . S
C2651 H2636 0.930 . S
C2651 C2646 1.390 . S
C2651 C2650 1.387 . S
H2652 C2664 0.930 . S
H2653 C2666 0.930 . S
H2654 C2667 0.930 . S
H2655 C2671 0.959 . S
H2656 C2671 0.959 . S
H2657 C2671 0.961 . S
H2658 C2672 0.960 . S
H2659 C2672 0.961 . S
H2660 C2672 0.959 . S
H2661 C2675 0.929 . S
H2662 C2676 0.931 . S
H2663 C2678 0.930 . S
C2664 H2652 0.930 . S
C2664 C2665 1.399 . S
C2664 C2669 1.399 . S
C2665 C2664 1.399 . S
C2665 C2666 1.376 . S
C2666 H2653 0.930 . S
C2666 C2665 1.376 . S
C2666 C2667 1.388 . S
C2667 H2654 0.930 . S
C2667 C2666 1.388 . S
C2667 C2668 1.390 . S
C2668 C2667 1.390 . S
C2668 C2669 1.394 . S
C2668 C2674 1.465 . S
C2669 C2664 1.399 . S
C2669 C2668 1.394 . S
C2669 C2670 1.516 . S
C2670 C2669 1.516 . S
C2670 C2671 1.502 . S
C2670 C2672 1.561 . S
C2670 C2673 1.526 . S
C2671 H2655 0.959 . S
C2671 H2656 0.959 . S
C2671 H2657 0.961 . S
C2671 C2670 1.502 . S
C2672 H2658 0.960 . S
C2672 H2659 0.961 . S
C2672 H2660 0.959 . S
C2672 C2670 1.561 . S
C2673 C2670 1.526 . S
C2673 C2674 1.396 . S
C2673 C2678 1.390 . S
C2674 C2668 1.465 . S
C2674 C2673 1.396 . S
C2674 C2675 1.399 . S
C2675 H2661 0.929 . S
C2675 C2674 1.399 . S
C2675 C2676 1.385 . S
C2676 H2662 0.931 . S
C2676 C2675 1.385 . S
C2676 C2677 1.389 . S
C2677 C2676 1.389 . S
C2677 C2678 1.387 . S
C2678 H2663 0.930 . S
C2678 C2673 1.390 . S
C2678 C2677 1.387 . S
H2679 C2691 0.930 . S
H2680 C2693 0.930 . S
H2681 C2694 0.930 . S
H2682 C2698 0.959 . S
H2683 C2698 0.959 . S
H2684 C2698 0.961 . S
H2685 C2699 0.960 . S
H2686 C2699 0.961 . S
H2687 C2699 0.959 . S
H2688 C2702 0.929 . S
H2689 C2703 0.931 . S
H2690 C2705 0.930 . S
C2691 H2679 0.930 . S
C2691 C2692 1.399 . S
C2691 C2696 1.399 . S
C2692 C2691 1.399 . S
C2692 C2693 1.376 . S
C2693 H2680 0.930 . S
C2693 C2692 1.376 . S
C2693 C2694 1.388 . S
C2694 H2681 0.930 . S
C2694 C2693 1.388 . S
C2694 C2695 1.390 . S
C2695 C2694 1.390 . S
C2695 C2696 1.394 . S
C2695 C2701 1.465 . S
C2696 C2691 1.399 . S
C2696 C2695 1.394 . S
C2696 C2697 1.516 . S
C2697 C2696 1.516 . S
C2697 C2698 1.502 . S
C2697 C2699 1.561 . S
C2697 C2700 1.526 . S
C2698 H2682 0.959 . S
C2698 H2683 0.959 . S
C2698 H2684 0.961 . S
C2698 C2697 1.502 . S
C2699 H2685 0.960 . S
C2699 H2686 0.961 . S
C2699 H2687 0.959 . S
C2699 C2697 1.561 . S
C2700 C2697 1.526 . S
C2700 C2701 1.396 . S
C2700 C2705 1.390 . S
C2701 C2695 1.465 . S
C2701 C2700 1.396 . S
C2701 C2702 1.399 . S
C2702 H2688 0.929 . S
C2702 C2701 1.399 . S
C2702 C2703 1.385 . S
C2703 H2689 0.931 . S
C2703 C2702 1.385 . S
C2703 C2704 1.389 . S
C2704 C2703 1.389 . S
C2704 C2705 1.387 . S
C2705 H2690 0.930 . S
C2705 C2700 1.390 . S
C2705 C2704 1.387 . S
H2706 C2718 0.930 . S
H2707 C2720 0.930 . S
H2708 C2721 0.930 . S
H2709 C2725 0.959 . S
H2710 C2725 0.959 . S
H2711 C2725 0.961 . S
H2712 C2726 0.960 . S
H2713 C2726 0.961 . S
H2714 C2726 0.959 . S
H2715 C2729 0.929 . S
H2716 C2730 0.931 . S
H2717 C2732 0.930 . S
C2718 H2706 0.930 . S
C2718 C2719 1.399 . S
C2718 C2723 1.399 . S
C2719 C2718 1.399 . S
C2719 C2720 1.376 . S
C2720 H2707 0.930 . S
C2720 C2719 1.376 . S
C2720 C2721 1.388 . S
C2721 H2708 0.930 . S
C2721 C2720 1.388 . S
C2721 C2722 1.390 . S
C2722 C2721 1.390 . S
C2722 C2723 1.394 . S
C2722 C2728 1.465 . S
C2723 C2718 1.399 . S
C2723 C2722 1.394 . S
C2723 C2724 1.516 . S
C2724 C2723 1.516 . S
C2724 C2725 1.502 . S
C2724 C2726 1.561 . S
C2724 C2727 1.526 . S
C2725 H2709 0.959 . S
C2725 H2710 0.959 . S
C2725 H2711 0.961 . S
C2725 C2724 1.502 . S
C2726 H2712 0.960 . S
C2726 H2713 0.961 . S
C2726 H2714 0.959 . S
C2726 C2724 1.561 . S
C2727 C2724 1.526 . S
C2727 C2728 1.396 . S
C2727 C2732 1.390 . S
C2728 C2722 1.465 . S
C2728 C2727 1.396 . S
C2728 C2729 1.399 . S
C2729 H2715 0.929 . S
C2729 C2728 1.399 . S
C2729 C2730 1.385 . S
C2730 H2716 0.931 . S
C2730 C2729 1.385 . S
C2730 C2731 1.389 . S
C2731 C2730 1.389 . S
C2731 C2732 1.387 . S
C2732 H2717 0.930 . S
C2732 C2727 1.390 . S
C2732 C2731 1.387 . S
H2733 C2745 0.930 . S
H2734 C2747 0.930 . S
H2735 C2748 0.930 . S
H2736 C2752 0.959 . S
H2737 C2752 0.959 . S
H2738 C2752 0.961 . S
H2739 C2753 0.960 . S
H2740 C2753 0.961 . S
H2741 C2753 0.959 . S
H2742 C2756 0.929 . S
H2743 C2757 0.931 . S
H2744 C2759 0.930 . S
C2745 H2733 0.930 . S
C2745 C2746 1.399 . S
C2745 C2750 1.399 . S
C2746 C2745 1.399 . S
C2746 C2747 1.376 . S
C2747 H2734 0.930 . S
C2747 C2746 1.376 . S
C2747 C2748 1.388 . S
C2748 H2735 0.930 . S
C2748 C2747 1.388 . S
C2748 C2749 1.390 . S
C2749 C2748 1.390 . S
C2749 C2750 1.394 . S
C2749 C2755 1.465 . S
C2750 C2745 1.399 . S
C2750 C2749 1.394 . S
C2750 C2751 1.516 . S
C2751 C2750 1.516 . S
C2751 C2752 1.502 . S
C2751 C2753 1.561 . S
C2751 C2754 1.526 . S
C2752 H2736 0.959 . S
C2752 H2737 0.959 . S
C2752 H2738 0.961 . S
C2752 C2751 1.502 . S
C2753 H2739 0.960 . S
C2753 H2740 0.961 . S
C2753 H2741 0.959 . S
C2753 C2751 1.561 . S
C2754 C2751 1.526 . S
C2754 C2755 1.396 . S
C2754 C2759 1.390 . S
C2755 C2749 1.465 . S
C2755 C2754 1.396 . S
C2755 C2756 1.399 . S
C2756 H2742 0.929 . S
C2756 C2755 1.399 . S
C2756 C2757 1.385 . S
C2757 H2743 0.931 . S
C2757 C2756 1.385 . S
C2757 C2758 1.389 . S
C2758 C2757 1.389 . S
C2758 C2759 1.387 . S
C2759 H2744 0.930 . S
C2759 C2754 1.390 . S
C2759 C2758 1.387 . S
H2760 C2772 0.930 . S
H2761 C2774 0.930 . S
H2762 C2775 0.930 . S
H2763 C2779 0.959 . S
H2764 C2779 0.959 . S
H2765 C2779 0.961 . S
H2766 C2780 0.960 . S
H2767 C2780 0.961 . S
H2768 C2780 0.959 . S
H2769 C2783 0.929 . S
H2770 C2784 0.931 . S
H2771 C2786 0.930 . S
C2772 H2760 0.930 . S
C2772 C2773 1.399 . S
C2772 C2777 1.399 . S
C2773 C2772 1.399 . S
C2773 C2774 1.376 . S
C2774 H2761 0.930 . S
C2774 C2773 1.376 . S
C2774 C2775 1.388 . S
C2775 H2762 0.930 . S
C2775 C2774 1.388 . S
C2775 C2776 1.390 . S
C2776 C2775 1.390 . S
C2776 C2777 1.394 . S
C2776 C2782 1.465 . S
C2777 C2772 1.399 . S
C2777 C2776 1.394 . S
C2777 C2778 1.516 . S
C2778 C2777 1.516 . S
C2778 C2779 1.502 . S
C2778 C2780 1.561 . S
C2778 C2781 1.526 . S
C2779 H2763 0.959 . S
C2779 H2764 0.959 . S
C2779 H2765 0.961 . S
C2779 C2778 1.502 . S
C2780 H2766 0.960 . S
C2780 H2767 0.961 . S
C2780 H2768 0.959 . S
C2780 C2778 1.561 . S
C2781 C2778 1.526 . S
C2781 C2782 1.396 . S
C2781 C2786 1.390 . S
C2782 C2776 1.465 . S
C2782 C2781 1.396 . S
C2782 C2783 1.399 . S
C2783 H2769 0.929 . S
C2783 C2782 1.399 . S
C2783 C2784 1.385 . S
C2784 H2770 0.931 . S
C2784 C2783 1.385 . S
C2784 C2785 1.389 . S
C2785 C2784 1.389 . S
C2785 C2786 1.387 . S
C2786 H2771 0.930 . S
C2786 C2781 1.390 . S
C2786 C2785 1.387 . S
H2787 C2799 0.930 . S
H2788 C2801 0.930 . S
H2789 C2802 0.930 . S
H2790 C2806 0.959 . S
H2791 C2806 0.959 . S
H2792 C2806 0.961 . S
H2793 C2807 0.960 . S
H2794 C2807 0.961 . S
H2795 C2807 0.959 . S
H2796 C2810 0.929 . S
H2797 C2811 0.931 . S
H2798 C2813 0.930 . S
C2799 H2787 0.930 . S
C2799 C2800 1.399 . S
C2799 C2804 1.399 . S
C2800 C2799 1.399 . S
C2800 C2801 1.376 . S
C2801 H2788 0.930 . S
C2801 C2800 1.376 . S
C2801 C2802 1.388 . S
C2802 H2789 0.930 . S
C2802 C2801 1.388 . S
C2802 C2803 1.390 . S
C2803 C2802 1.390 . S
C2803 C2804 1.394 . S
C2803 C2809 1.465 . S
C2804 C2799 1.399 . S
C2804 C2803 1.394 . S
C2804 C2805 1.516 . S
C2805 C2804 1.516 . S
C2805 C2806 1.502 . S
C2805 C2807 1.561 . S
C2805 C2808 1.526 . S
C2806 H2790 0.959 . S
C2806 H2791 0.959 . S
C2806 H2792 0.961 . S
C2806 C2805 1.502 . S
C2807 H2793 0.960 . S
C2807 H2794 0.961 . S
C2807 H2795 0.959 . S
C2807 C2805 1.561 . S
C2808 C2805 1.526 . S
C2808 C2809 1.396 . S
C2808 C2813 1.390 . S
C2809 C2803 1.465 . S
C2809 C2808 1.396 . S
C2809 C2810 1.399 . S
C2810 H2796 0.929 . S
C2810 C2809 1.399 . S
C2810 C2811 1.385 . S
C2811 H2797 0.931 . S
C2811 C2810 1.385 . S
C2811 C2812 1.389 . S
C2812 C2811 1.389 . S
C2812 C2813 1.387 . S
C2813 H2798 0.930 . S
C2813 C2808 1.390 . S
C2813 C2812 1.387 . S
H2814 C2826 0.930 . S
H2815 C2828 0.930 . S
H2816 C2829 0.930 . S
H2817 C2833 0.959 . S
H2818 C2833 0.959 . S
H2819 C2833 0.961 . S
H2820 C2834 0.960 . S
H2821 C2834 0.961 . S
H2822 C2834 0.959 . S
H2823 C2837 0.929 . S
H2824 C2838 0.931 . S
H2825 C2840 0.930 . S
C2826 H2814 0.930 . S
C2826 C2827 1.399 . S
C2826 C2831 1.399 . S
C2827 C2826 1.399 . S
C2827 C2828 1.376 . S
C2828 H2815 0.930 . S
C2828 C2827 1.376 . S
C2828 C2829 1.388 . S
C2829 H2816 0.930 . S
C2829 C2828 1.388 . S
C2829 C2830 1.390 . S
C2830 C2829 1.390 . S
C2830 C2831 1.394 . S
C2830 C2836 1.465 . S
C2831 C2826 1.399 . S
C2831 C2830 1.394 . S
C2831 C2832 1.516 . S
C2832 C2831 1.516 . S
C2832 C2833 1.502 . S
C2832 C2834 1.561 . S
C2832 C2835 1.526 . S
C2833 H2817 0.959 . S
C2833 H2818 0.959 . S
C2833 H2819 0.961 . S
C2833 C2832 1.502 . S
C2834 H2820 0.960 . S
C2834 H2821 0.961 . S
C2834 H2822 0.959 . S
C2834 C2832 1.561 . S
C2835 C2832 1.526 . S
C2835 C2836 1.396 . S
C2835 C2840 1.390 . S
C2836 C2830 1.465 . S
C2836 C2835 1.396 . S
C2836 C2837 1.399 . S
C2837 H2823 0.929 . S
C2837 C2836 1.399 . S
C2837 C2838 1.385 . S
C2838 H2824 0.931 . S
C2838 C2837 1.385 . S
C2838 C2839 1.389 . S
C2839 C2838 1.389 . S
C2839 C2840 1.387 . S
C2840 H2825 0.930 . S
C2840 C2835 1.390 . S
C2840 C2839 1.387 . S
H2841 C2853 0.930 . S
H2842 C2855 0.930 . S
H2843 C2856 0.930 . S
H2844 C2860 0.959 . S
H2845 C2860 0.959 . S
H2846 C2860 0.961 . S
H2847 C2861 0.960 . S
H2848 C2861 0.961 . S
H2849 C2861 0.959 . S
H2850 C2864 0.929 . S
H2851 C2865 0.931 . S
H2852 C2867 0.930 . S
C2853 H2841 0.930 . S
C2853 C2854 1.399 . S
C2853 C2858 1.399 . S
C2854 C2853 1.399 . S
C2854 C2855 1.376 . S
C2855 H2842 0.930 . S
C2855 C2854 1.376 . S
C2855 C2856 1.388 . S
C2856 H2843 0.930 . S
C2856 C2855 1.388 . S
C2856 C2857 1.390 . S
C2857 C2856 1.390 . S
C2857 C2858 1.394 . S
C2857 C2863 1.465 . S
C2858 C2853 1.399 . S
C2858 C2857 1.394 . S
C2858 C2859 1.516 . S
C2859 C2858 1.516 . S
C2859 C2860 1.502 . S
C2859 C2861 1.561 . S
C2859 C2862 1.526 . S
C2860 H2844 0.959 . S
C2860 H2845 0.959 . S
C2860 H2846 0.961 . S
C2860 C2859 1.502 . S
C2861 H2847 0.960 . S
C2861 H2848 0.961 . S
C2861 H2849 0.959 . S
C2861 C2859 1.561 . S
C2862 C2859 1.526 . S
C2862 C2863 1.396 . S
C2862 C2867 1.390 . S
C2863 C2857 1.465 . S
C2863 C2862 1.396 . S
C2863 C2864 1.399 . S
C2864 H2850 0.929 . S
C2864 C2863 1.399 . S
C2864 C2865 1.385 . S
C2865 H2851 0.931 . S
C2865 C2864 1.385 . S
C2865 C2866 1.389 . S
C2866 C2865 1.389 . S
C2866 C2867 1.387 . S
C2867 H2852 0.930 . S
C2867 C2862 1.390 . S
C2867 C2866 1.387 . S
H2868 C2880 0.930 . S
H2869 C2882 0.930 . S
H2870 C2883 0.930 . S
H2871 C2887 0.959 . S
H2872 C2887 0.959 . S
H2873 C2887 0.961 . S
H2874 C2888 0.960 . S
H2875 C2888 0.961 . S
H2876 C2888 0.959 . S
H2877 C2891 0.929 . S
H2878 C2892 0.931 . S
H2879 C2894 0.930 . S
C2880 H2868 0.930 . S
C2880 C2881 1.399 . S
C2880 C2885 1.399 . S
C2881 C2880 1.399 . S
C2881 C2882 1.376 . S
C2882 H2869 0.930 . S
C2882 C2881 1.376 . S
C2882 C2883 1.388 . S
C2883 H2870 0.930 . S
C2883 C2882 1.388 . S
C2883 C2884 1.390 . S
C2884 C2883 1.390 . S
C2884 C2885 1.394 . S
C2884 C2890 1.465 . S
C2885 C2880 1.399 . S
C2885 C2884 1.394 . S
C2885 C2886 1.516 . S
C2886 C2885 1.516 . S
C2886 C2887 1.502 . S
C2886 C2888 1.561 . S
C2886 C2889 1.526 . S
C2887 H2871 0.959 . S
C2887 H2872 0.959 . S
C2887 H2873 0.961 . S
C2887 C2886 1.502 . S
C2888 H2874 0.960 . S
C2888 H2875 0.961 . S
C2888 H2876 0.959 . S
C2888 C2886 1.561 . S
C2889 C2886 1.526 . S
C2889 C2890 1.396 . S
C2889 C2894 1.390 . S
C2890 C2884 1.465 . S
C2890 C2889 1.396 . S
C2890 C2891 1.399 . S
C2891 H2877 0.929 . S
C2891 C2890 1.399 . S
C2891 C2892 1.385 . S
C2892 H2878 0.931 . S
C2892 C2891 1.385 . S
C2892 C2893 1.389 . S
C2893 C2892 1.389 . S
C2893 C2894 1.387 . S
C2894 H2879 0.930 . S
C2894 C2889 1.390 . S
C2894 C2893 1.387 . S
H2895 C2907 0.930 . S
H2896 C2909 0.930 . S
H2897 C2910 0.930 . S
H2898 C2914 0.959 . S
H2899 C2914 0.959 . S
H2900 C2914 0.961 . S
H2901 C2915 0.960 . S
H2902 C2915 0.961 . S
H2903 C2915 0.959 . S
H2904 C2918 0.929 . S
H2905 C2919 0.931 . S
H2906 C2921 0.930 . S
C2907 H2895 0.930 . S
C2907 C2908 1.399 . S
C2907 C2912 1.399 . S
C2908 C2907 1.399 . S
C2908 C2909 1.376 . S
C2909 H2896 0.930 . S
C2909 C2908 1.376 . S
C2909 C2910 1.388 . S
C2910 H2897 0.930 . S
C2910 C2909 1.388 . S
C2910 C2911 1.390 . S
C2911 C2910 1.390 . S
C2911 C2912 1.394 . S
C2911 C2917 1.465 . S
C2912 C2907 1.399 . S
C2912 C2911 1.394 . S
C2912 C2913 1.516 . S
C2913 C2912 1.516 . S
C2913 C2914 1.502 . S
C2913 C2915 1.561 . S
C2913 C2916 1.526 . S
C2914 H2898 0.959 . S
C2914 H2899 0.959 . S
C2914 H2900 0.961 . S
C2914 C2913 1.502 . S
C2915 H2901 0.960 . S
C2915 H2902 0.961 . S
C2915 H2903 0.959 . S
C2915 C2913 1.561 . S
C2916 C2913 1.526 . S
C2916 C2917 1.396 . S
C2916 C2921 1.390 . S
C2917 C2911 1.465 . S
C2917 C2916 1.396 . S
C2917 C2918 1.399 . S
C2918 H2904 0.929 . S
C2918 C2917 1.399 . S
C2918 C2919 1.385 . S
C2919 H2905 0.931 . S
C2919 C2918 1.385 . S
C2919 C2920 1.389 . S
C2920 C2919 1.389 . S
C2920 C2921 1.387 . S
C2921 H2906 0.930 . S
C2921 C2916 1.390 . S
C2921 C2920 1.387 . S
H2922 C2934 0.930 . S
H2923 C2936 0.930 . S
H2924 C2937 0.930 . S
H2925 C2941 0.959 . S
H2926 C2941 0.959 . S
H2927 C2941 0.961 . S
H2928 C2942 0.960 . S
H2929 C2942 0.961 . S
H2930 C2942 0.959 . S
H2931 C2945 0.929 . S
H2932 C2946 0.931 . S
H2933 C2948 0.930 . S
C2934 H2922 0.930 . S
C2934 C2935 1.399 . S
C2934 C2939 1.399 . S
C2935 C2934 1.399 . S
C2935 C2936 1.376 . S
C2936 H2923 0.930 . S
C2936 C2935 1.376 . S
C2936 C2937 1.388 . S
C2937 H2924 0.930 . S
C2937 C2936 1.388 . S
C2937 C2938 1.390 . S
C2938 C2937 1.390 . S
C2938 C2939 1.394 . S
C2938 C2944 1.465 . S
C2939 C2934 1.399 . S
C2939 C2938 1.394 . S
C2939 C2940 1.516 . S
C2940 C2939 1.516 . S
C2940 C2941 1.502 . S
C2940 C2942 1.561 . S
C2940 C2943 1.526 . S
C2941 H2925 0.959 . S
C2941 H2926 0.959 . S
C2941 H2927 0.961 . S
C2941 C2940 1.502 . S
C2942 H2928 0.960 . S
C2942 H2929 0.961 . S
C2942 H2930 0.959 . S
C2942 C2940 1.561 . S
C2943 C2940 1.526 . S
C2943 C2944 1.396 . S
C2943 C2948 1.390 . S
C2944 C2938 1.465 . S
C2944 C2943 1.396 . S
C2944 C2945 1.399 . S
C2945 H2931 0.929 . S
C2945 C2944 1.399 . S
C2945 C2946 1.385 . S
C2946 H2932 0.931 . S
C2946 C2945 1.385 . S
C2946 C2947 1.389 . S
C2947 C2946 1.389 . S
C2947 C2948 1.387 . S
C2948 H2933 0.930 . S
C2948 C2943 1.390 . S
C2948 C2947 1.387 . S
H2949 C2961 0.930 . S
H2950 C2963 0.930 . S
H2951 C2964 0.930 . S
H2952 C2968 0.959 . S
H2953 C2968 0.959 . S
H2954 C2968 0.961 . S
H2955 C2969 0.960 . S
H2956 C2969 0.961 . S
H2957 C2969 0.959 . S
H2958 C2972 0.929 . S
H2959 C2973 0.931 . S
H2960 C2975 0.930 . S
C2961 H2949 0.930 . S
C2961 C2962 1.399 . S
C2961 C2966 1.399 . S
C2962 C2961 1.399 . S
C2962 C2963 1.376 . S
C2963 H2950 0.930 . S
C2963 C2962 1.376 . S
C2963 C2964 1.388 . S
C2964 H2951 0.930 . S
C2964 C2963 1.388 . S
C2964 C2965 1.390 . S
C2965 C2964 1.390 . S
C2965 C2966 1.394 . S
C2965 C2971 1.465 . S
C2966 C2961 1.399 . S
C2966 C2965 1.394 . S
C2966 C2967 1.516 . S
C2967 C2966 1.516 . S
C2967 C2968 1.502 . S
C2967 C2969 1.561 . S
C2967 C2970 1.526 . S
C2968 H2952 0.959 . S
C2968 H2953 0.959 . S
C2968 H2954 0.961 . S
C2968 C2967 1.502 . S
C2969 H2955 0.960 . S
C2969 H2956 0.961 . S
C2969 H2957 0.959 . S
C2969 C2967 1.561 . S
C2970 C2967 1.526 . S
C2970 C2971 1.396 . S
C2970 C2975 1.390 . S
C2971 C2965 1.465 . S
C2971 C2970 1.396 . S
C2971 C2972 1.399 . S
C2972 H2958 0.929 . S
C2972 C2971 1.399 . S
C2972 C2973 1.385 . S
C2973 H2959 0.931 . S
C2973 C2972 1.385 . S
C2973 C2974 1.389 . S
C2974 C2973 1.389 . S
C2974 C2975 1.387 . S
C2975 H2960 0.930 . S
C2975 C2970 1.390 . S
C2975 C2974 1.387 . S
H2976 C2988 0.930 . S
H2977 C2990 0.930 . S
H2978 C2991 0.930 . S
H2979 C2995 0.959 . S
H2980 C2995 0.959 . S
H2981 C2995 0.961 . S
H2982 C2996 0.960 . S
H2983 C2996 0.961 . S
H2984 C2996 0.959 . S
H2985 C2999 0.929 . S
H2986 C3000 0.931 . S
H2987 C3002 0.930 . S
C2988 H2976 0.930 . S
C2988 C2989 1.399 . S
C2988 C2993 1.399 . S
C2989 C2988 1.399 . S
C2989 C2990 1.376 . S
C2990 H2977 0.930 . S
C2990 C2989 1.376 . S
C2990 C2991 1.388 . S
C2991 H2978 0.930 . S
C2991 C2990 1.388 . S
C2991 C2992 1.390 . S
C2992 C2991 1.390 . S
C2992 C2993 1.394 . S
C2992 C2998 1.465 . S
C2993 C2988 1.399 . S
C2993 C2992 1.394 . S
C2993 C2994 1.516 . S
C2994 C2993 1.516 . S
C2994 C2995 1.502 . S
C2994 C2996 1.561 . S
C2994 C2997 1.526 . S
C2995 H2979 0.959 . S
C2995 H2980 0.959 . S
C2995 H2981 0.961 . S
C2995 C2994 1.502 . S
C2996 H2982 0.960 . S
C2996 H2983 0.961 . S
C2996 H2984 0.959 . S
C2996 C2994 1.561 . S
C2997 C2994 1.526 . S
C2997 C2998 1.396 . S
C2997 C3002 1.390 . S
C2998 C2992 1.465 . S
C2998 C2997 1.396 . S
C2998 C2999 1.399 . S
C2999 H2985 0.929 . S
C2999 C2998 1.399 . S
C2999 C3000 1.385 . S
C3000 H2986 0.931 . S
C3000 C2999 1.385 . S
C3000 C3001 1.389 . S
C3001 C3000 1.389 . S
C3001 C3002 1.387 . S
C3002 H2987 0.930 . S
C3002 C2997 1.390 . S
C3002 C3001 1.387 . S
H3003 C3015 0.930 . S
H3004 C3017 0.930 . S
H3005 C3018 0.930 . S
H3006 C3022 0.959 . S
H3007 C3022 0.959 . S
H3008 C3022 0.961 . S
H3009 C3023 0.960 . S
H3010 C3023 0.961 . S
H3011 C3023 0.959 . S
H3012 C3026 0.929 . S
H3013 C3027 0.931 . S
H3014 C3029 0.930 . S
C3015 H3003 0.930 . S
C3015 C3016 1.399 . S
C3015 C3020 1.399 . S
C3016 C3015 1.399 . S
C3016 C3017 1.376 . S
C3017 H3004 0.930 . S
C3017 C3016 1.376 . S
C3017 C3018 1.388 . S
C3018 H3005 0.930 . S
C3018 C3017 1.388 . S
C3018 C3019 1.390 . S
C3019 C3018 1.390 . S
C3019 C3020 1.394 . S
C3019 C3025 1.465 . S
C3020 C3015 1.399 . S
C3020 C3019 1.394 . S
C3020 C3021 1.516 . S
C3021 C3020 1.516 . S
C3021 C3022 1.502 . S
C3021 C3023 1.561 . S
C3021 C3024 1.526 . S
C3022 H3006 0.959 . S
C3022 H3007 0.959 . S
C3022 H3008 0.961 . S
C3022 C3021 1.502 . S
C3023 H3009 0.960 . S
C3023 H3010 0.961 . S
C3023 H3011 0.959 . S
C3023 C3021 1.561 . S
C3024 C3021 1.526 . S
C3024 C3025 1.396 . S
C3024 C3029 1.390 . S
C3025 C3019 1.465 . S
C3025 C3024 1.396 . S
C3025 C3026 1.399 . S
C3026 H3012 0.929 . S
C3026 C3025 1.399 . S
C3026 C3027 1.385 . S
C3027 H3013 0.931 . S
C3027 C3026 1.385 . S
C3027 C3028 1.389 . S
C3028 C3027 1.389 . S
C3028 C3029 1.387 . S
C3029 H3014 0.930 . S
C3029 C3024 1.390 . S
C3029 C3028 1.387 . S
H3030 C3042 0.930 . S
H3031 C3044 0.930 . S
H3032 C3045 0.930 . S
H3033 C3049 0.959 . S
H3034 C3049 0.959 . S
H3035 C3049 0.961 . S
H3036 C3050 0.960 . S
H3037 C3050 0.961 . S
H3038 C3050 0.959 . S
H3039 C3053 0.929 . S
H3040 C3054 0.931 . S
H3041 C3056 0.930 . S
C3042 H3030 0.930 . S
C3042 C3043 1.399 . S
C3042 C3047 1.399 . S
C3043 C3042 1.399 . S
C3043 C3044 1.376 . S
C3044 H3031 0.930 . S
C3044 C3043 1.376 . S
C3044 C3045 1.388 . S
C3045 H3032 0.930 . S
C3045 C3044 1.388 . S
C3045 C3046 1.390 . S
C3046 C3045 1.390 . S
C3046 C3047 1.394 . S
C3046 C3052 1.465 . S
C3047 C3042 1.399 . S
C3047 C3046 1.394 . S
C3047 C3048 1.516 . S
C3048 C3047 1.516 . S
C3048 C3049 1.502 . S
C3048 C3050 1.561 . S
C3048 C3051 1.526 . S
C3049 H3033 0.959 . S
C3049 H3034 0.959 . S
C3049 H3035 0.961 . S
C3049 C3048 1.502 . S
C3050 H3036 0.960 . S
C3050 H3037 0.961 . S
C3050 H3038 0.959 . S
C3050 C3048 1.561 . S
C3051 C3048 1.526 . S
C3051 C3052 1.396 . S
C3051 C3056 1.390 . S
C3052 C3046 1.465 . S
C3052 C3051 1.396 . S
C3052 C3053 1.399 . S
C3053 H3039 0.929 . S
C3053 C3052 1.399 . S
C3053 C3054 1.385 . S
C3054 H3040 0.931 . S
C3054 C3053 1.385 . S
C3054 C3055 1.389 . S
C3055 C3054 1.389 . S
C3055 C3056 1.387 . S
C3056 H3041 0.930 . S
C3056 C3051 1.390 . S
C3056 C3055 1.387 . S
H3057 C3069 0.930 . S
H3058 C3071 0.930 . S
H3059 C3072 0.930 . S
H3060 C3076 0.959 . S
H3061 C3076 0.959 . S
H3062 C3076 0.961 . S
H3063 C3077 0.960 . S
H3064 C3077 0.961 . S
H3065 C3077 0.959 . S
H3066 C3080 0.929 . S
H3067 C3081 0.931 . S
H3068 C3083 0.930 . S
C3069 H3057 0.930 . S
C3069 C3070 1.399 . S
C3069 C3074 1.399 . S
C3070 C3069 1.399 . S
C3070 C3071 1.376 . S
C3071 H3058 0.930 . S
C3071 C3070 1.376 . S
C3071 C3072 1.388 . S
C3072 H3059 0.930 . S
C3072 C3071 1.388 . S
C3072 C3073 1.390 . S
C3073 C3072 1.390 . S
C3073 C3074 1.394 . S
C3073 C3079 1.465 . S
C3074 C3069 1.399 . S
C3074 C3073 1.394 . S
C3074 C3075 1.516 . S
C3075 C3074 1.516 . S
C3075 C3076 1.502 . S
C3075 C3077 1.561 . S
C3075 C3078 1.526 . S
C3076 H3060 0.959 . S
C3076 H3061 0.959 . S
C3076 H3062 0.961 . S
C3076 C3075 1.502 . S
C3077 H3063 0.960 . S
C3077 H3064 0.961 . S
C3077 H3065 0.959 . S
C3077 C3075 1.561 . S
C3078 C3075 1.526 . S
C3078 C3079 1.396 . S
C3078 C3083 1.390 . S
C3079 C3073 1.465 . S
C3079 C3078 1.396 . S
C3079 C3080 1.399 . S
C3080 H3066 0.929 . S
C3080 C3079 1.399 . S
C3080 C3081 1.385 . S
C3081 H3067 0.931 . S
C3081 C3080 1.385 . S
C3081 C3082 1.389 . S
C3082 C3081 1.389 . S
C3082 C3083 1.387 . S
C3083 H3068 0.930 . S
C3083 C3078 1.390 . S
C3083 C3082 1.387 . S
H3084 C3096 0.930 . S
H3085 C3098 0.930 . S
H3086 C3099 0.930 . S
H3087 C3103 0.959 . S
H3088 C3103 0.959 . S
H3089 C3103 0.961 . S
H3090 C3104 0.960 . S
H3091 C3104 0.961 . S
H3092 C3104 0.959 . S
H3093 C3107 0.929 . S
H3094 C3108 0.931 . S
H3095 C3110 0.930 . S
C3096 H3084 0.930 . S
C3096 C3097 1.399 . S
C3096 C3101 1.399 . S
C3097 C3096 1.399 . S
C3097 C3098 1.376 . S
C3098 H3085 0.930 . S
C3098 C3097 1.376 . S
C3098 C3099 1.388 . S
C3099 H3086 0.930 . S
C3099 C3098 1.388 . S
C3099 C3100 1.390 . S
C3100 C3099 1.390 . S
C3100 C3101 1.394 . S
C3100 C3106 1.465 . S
C3101 C3096 1.399 . S
C3101 C3100 1.394 . S
C3101 C3102 1.516 . S
C3102 C3101 1.516 . S
C3102 C3103 1.502 . S
C3102 C3104 1.561 . S
C3102 C3105 1.526 . S
C3103 H3087 0.959 . S
C3103 H3088 0.959 . S
C3103 H3089 0.961 . S
C3103 C3102 1.502 . S
C3104 H3090 0.960 . S
C3104 H3091 0.961 . S
C3104 H3092 0.959 . S
C3104 C3102 1.561 . S
C3105 C3102 1.526 . S
C3105 C3106 1.396 . S
C3105 C3110 1.390 . S
C3106 C3100 1.465 . S
C3106 C3105 1.396 . S
C3106 C3107 1.399 . S
C3107 H3093 0.929 . S
C3107 C3106 1.399 . S
C3107 C3108 1.385 . S
C3108 H3094 0.931 . S
C3108 C3107 1.385 . S
C3108 C3109 1.389 . S
C3109 C3108 1.389 . S
C3109 C3110 1.387 . S
C3110 H3095 0.930 . S
C3110 C3105 1.390 . S
C3110 C3109 1.387 . S
H3111 C3123 0.930 . S
H3112 C3125 0.930 . S
H3113 C3126 0.930 . S
H3114 C3130 0.959 . S
H3115 C3130 0.959 . S
H3116 C3130 0.961 . S
H3117 C3131 0.960 . S
H3118 C3131 0.961 . S
H3119 C3131 0.959 . S
H3120 C3134 0.929 . S
H3121 C3135 0.931 . S
H3122 C3137 0.930 . S
C3123 H3111 0.930 . S
C3123 C3124 1.399 . S
C3123 C3128 1.399 . S
C3124 C3123 1.399 . S
C3124 C3125 1.376 . S
C3125 H3112 0.930 . S
C3125 C3124 1.376 . S
C3125 C3126 1.388 . S
C3126 H3113 0.930 . S
C3126 C3125 1.388 . S
C3126 C3127 1.390 . S
C3127 C3126 1.390 . S
C3127 C3128 1.394 . S
C3127 C3133 1.465 . S
C3128 C3123 1.399 . S
C3128 C3127 1.394 . S
C3128 C3129 1.516 . S
C3129 C3128 1.516 . S
C3129 C3130 1.502 . S
C3129 C3131 1.561 . S
C3129 C3132 1.526 . S
C3130 H3114 0.959 . S
C3130 H3115 0.959 . S
C3130 H3116 0.961 . S
C3130 C3129 1.502 . S
C3131 H3117 0.960 . S
C3131 H3118 0.961 . S
C3131 H3119 0.959 . S
C3131 C3129 1.561 . S
C3132 C3129 1.526 . S
C3132 C3133 1.396 . S
C3132 C3137 1.390 . S
C3133 C3127 1.465 . S
C3133 C3132 1.396 . S
C3133 C3134 1.399 . S
C3134 H3120 0.929 . S
C3134 C3133 1.399 . S
C3134 C3135 1.385 . S
C3135 H3121 0.931 . S
C3135 C3134 1.385 . S
C3135 C3136 1.389 . S
C3136 C3135 1.389 . S
C3136 C3137 1.387 . S
C3137 H3122 0.930 . S
C3137 C3132 1.390 . S
C3137 C3136 1.387 . S
H3138 C3150 0.930 . S
H3139 C3152 0.930 . S
H3140 C3153 0.930 . S
H3141 C3157 0.959 . S
H3142 C3157 0.959 . S
H3143 C3157 0.961 . S
H3144 C3158 0.960 . S
H3145 C3158 0.961 . S
H3146 C3158 0.959 . S
H3147 C3161 0.929 . S
H3148 C3162 0.931 . S
H3149 C3164 0.930 . S
C3150 H3138 0.930 . S
C3150 C3151 1.399 . S
C3150 C3155 1.399 . S
C3151 C3150 1.399 . S
C3151 C3152 1.376 . S
C3152 H3139 0.930 . S
C3152 C3151 1.376 . S
C3152 C3153 1.388 . S
C3153 H3140 0.930 . S
C3153 C3152 1.388 . S
C3153 C3154 1.390 . S
C3154 C3153 1.390 . S
C3154 C3155 1.394 . S
C3154 C3160 1.465 . S
C3155 C3150 1.399 . S
C3155 C3154 1.394 . S
C3155 C3156 1.516 . S
C3156 C3155 1.516 . S
C3156 C3157 1.502 . S
C3156 C3158 1.561 . S
C3156 C3159 1.526 . S
C3157 H3141 0.959 . S
C3157 H3142 0.959 . S
C3157 H3143 0.961 . S
C3157 C3156 1.502 . S
C3158 H3144 0.960 . S
C3158 H3145 0.961 . S
C3158 H3146 0.959 . S
C3158 C3156 1.561 . S
C3159 C3156 1.526 . S
C3159 C3160 1.396 . S
C3159 C3164 1.390 . S
C3160 C3154 1.465 . S
C3160 C3159 1.396 . S
C3160 C3161 1.399 . S
C3161 H3147 0.929 . S
C3161 C3160 1.399 . S
C3161 C3162 1.385 . S
C3162 H3148 0.931 . S
C3162 C3161 1.385 . S
C3162 C3163 1.389 . S
C3163 C3162 1.389 . S
C3163 C3164 1.387 . S
C3164 H3149 0.930 . S
C3164 C3159 1.390 . S
C3164 C3163 1.387 . S
H3165 C3177 0.930 . S
H3166 C3179 0.930 . S
H3167 C3180 0.930 . S
H3168 C3184 0.959 . S
H3169 C3184 0.959 . S
H3170 C3184 0.961 . S
H3171 C3185 0.960 . S
H3172 C3185 0.961 . S
H3173 C3185 0.959 . S
H3174 C3188 0.929 . S
H3175 C3189 0.931 . S
H3176 C3191 0.930 . S
C3177 H3165 0.930 . S
C3177 C3178 1.399 . S
C3177 C3182 1.399 . S
C3178 C3177 1.399 . S
C3178 C3179 1.376 . S
C3179 H3166 0.930 . S
C3179 C3178 1.376 . S
C3179 C3180 1.388 . S
C3180 H3167 0.930 . S
C3180 C3179 1.388 . S
C3180 C3181 1.390 . S
C3181 C3180 1.390 . S
C3181 C3182 1.394 . S
C3181 C3187 1.465 . S
C3182 C3177 1.399 . S
C3182 C3181 1.394 . S
C3182 C3183 1.516 . S
C3183 C3182 1.516 . S
C3183 C3184 1.502 . S
C3183 C3185 1.561 . S
C3183 C3186 1.526 . S
C3184 H3168 0.959 . S
C3184 H3169 0.959 . S
C3184 H3170 0.961 . S
C3184 C3183 1.502 . S
C3185 H3171 0.960 . S
C3185 H3172 0.961 . S
C3185 H3173 0.959 . S
C3185 C3183 1.561 . S
C3186 C3183 1.526 . S
C3186 C3187 1.396 . S
C3186 C3191 1.390 . S
C3187 C3181 1.465 . S
C3187 C3186 1.396 . S
C3187 C3188 1.399 . S
C3188 H3174 0.929 . S
C3188 C3187 1.399 . S
C3188 C3189 1.385 . S
C3189 H3175 0.931 . S
C3189 C3188 1.385 . S
C3189 C3190 1.389 . S
C3190 C3189 1.389 . S
C3190 C3191 1.387 . S
C3191 H3176 0.930 . S
C3191 C3186 1.390 . S
C3191 C3190 1.387 . S
H3192 C3204 0.930 . S
H3193 C3206 0.930 . S
H3194 C3207 0.930 . S
H3195 C3211 0.959 . S
H3196 C3211 0.959 . S
H3197 C3211 0.961 . S
H3198 C3212 0.960 . S
H3199 C3212 0.961 . S
H3200 C3212 0.959 . S
H3201 C3215 0.929 . S
H3202 C3216 0.931 . S
H3203 C3218 0.930 . S
C3204 H3192 0.930 . S
C3204 C3205 1.399 . S
C3204 C3209 1.399 . S
C3205 C3204 1.399 . S
C3205 C3206 1.376 . S
C3206 H3193 0.930 . S
C3206 C3205 1.376 . S
C3206 C3207 1.388 . S
C3207 H3194 0.930 . S
C3207 C3206 1.388 . S
C3207 C3208 1.390 . S
C3208 C3207 1.390 . S
C3208 C3209 1.394 . S
C3208 C3214 1.465 . S
C3209 C3204 1.399 . S
C3209 C3208 1.394 . S
C3209 C3210 1.516 . S
C3210 C3209 1.516 . S
C3210 C3211 1.502 . S
C3210 C3212 1.561 . S
C3210 C3213 1.526 . S
C3211 H3195 0.959 . S
C3211 H3196 0.959 . S
C3211 H3197 0.961 . S
C3211 C3210 1.502 . S
C3212 H3198 0.960 . S
C3212 H3199 0.961 . S
C3212 H3200 0.959 . S
C3212 C3210 1.561 . S
C3213 C3210 1.526 . S
C3213 C3214 1.396 . S
C3213 C3218 1.390 . S
C3214 C3208 1.465 . S
C3214 C3213 1.396 . S
C3214 C3215 1.399 . S
C3215 H3201 0.929 . S
C3215 C3214 1.399 . S
C3215 C3216 1.385 . S
C3216 H3202 0.931 . S
C3216 C3215 1.385 . S
C3216 C3217 1.389 . S
C3217 C3216 1.389 . S
C3217 C3218 1.387 . S
C3218 H3203 0.930 . S
C3218 C3213 1.390 . S
C3218 C3217 1.387 . S
H3219 C3231 0.930 . S
H3220 C3233 0.930 . S
H3221 C3234 0.930 . S
H3222 C3238 0.959 . S
H3223 C3238 0.959 . S
H3224 C3238 0.961 . S
H3225 C3239 0.960 . S
H3226 C3239 0.961 . S
H3227 C3239 0.959 . S
H3228 C3242 0.929 . S
H3229 C3243 0.931 . S
H3230 C3245 0.930 . S
C3231 H3219 0.930 . S
C3231 C3232 1.399 . S
C3231 C3236 1.399 . S
C3232 C3231 1.399 . S
C3232 C3233 1.376 . S
C3233 H3220 0.930 . S
C3233 C3232 1.376 . S
C3233 C3234 1.388 . S
C3234 H3221 0.930 . S
C3234 C3233 1.388 . S
C3234 C3235 1.390 . S
C3235 C3234 1.390 . S
C3235 C3236 1.394 . S
C3235 C3241 1.465 . S
C3236 C3231 1.399 . S
C3236 C3235 1.394 . S
C3236 C3237 1.516 . S
C3237 C3236 1.516 . S
C3237 C3238 1.502 . S
C3237 C3239 1.561 . S
C3237 C3240 1.526 . S
C3238 H3222 0.959 . S
C3238 H3223 0.959 . S
C3238 H3224 0.961 . S
C3238 C3237 1.502 . S
C3239 H3225 0.960 . S
C3239 H3226 0.961 . S
C3239 H3227 0.959 . S
C3239 C3237 1.561 . S
C3240 C3237 1.526 . S
C3240 C3241 1.396 . S
C3240 C3245 1.390 . S
C3241 C3235 1.465 . S
C3241 C3240 1.396 . S
C3241 C3242 1.399 . S
C3242 H3228 0.929 . S
C3242 C3241 1.399 . S
C3242 C3243 1.385 . S
C3243 H3229 0.931 . S
C3243 C3242 1.385 . S
C3243 C3244 1.389 . S
C3244 C3243 1.389 . S
C3244 C3245 1.387 . S
C3245 H3230 0.930 . S
C3245 C3240 1.390 . S
C3245 C3244 1.387 . S
H3246 C3258 0.930 . S
H3247 C3260 0.930 . S
H3248 C3261 0.930 . S
H3249 C3265 0.959 . S
H3250 C3265 0.959 . S
H3251 C3265 0.961 . S
H3252 C3266 0.960 . S
H3253 C3266 0.961 . S
H3254 C3266 0.959 . S
H3255 C3269 0.929 . S
H3256 C3270 0.931 . S
H3257 C3272 0.930 . S
C3258 H3246 0.930 . S
C3258 C3259 1.399 . S
C3258 C3263 1.399 . S
C3259 C3258 1.399 . S
C3259 C3260 1.376 . S
C3260 H3247 0.930 . S
C3260 C3259 1.376 . S
C3260 C3261 1.388 . S
C3261 H3248 0.930 . S
C3261 C3260 1.388 . S
C3261 C3262 1.390 . S
C3262 C3261 1.390 . S
C3262 C3263 1.394 . S
C3262 C3268 1.465 . S
C3263 C3258 1.399 . S
C3263 C3262 1.394 . S
C3263 C3264 1.516 . S
C3264 C3263 1.516 . S
C3264 C3265 1.502 . S
C3264 C3266 1.561 . S
C3264 C3267 1.526 . S
C3265 H3249 0.959 . S
C3265 H3250 0.959 . S
C3265 H3251 0.961 . S
C3265 C3264 1.502 . S
C3266 H3252 0.960 . S
C3266 H3253 0.961 . S
C3266 H3254 0.959 . S
C3266 C3264 1.561 . S
C3267 C3264 1.526 . S
C3267 C3268 1.396 . S
C3267 C3272 1.390 . S
C3268 C3262 1.465 . S
C3268 C3267 1.396 . S
C3268 C3269 1.399 . S
C3269 H3255 0.929 . S
C3269 C3268 1.399 . S
C3269 C3270 1.385 . S
C3270 H3256 0.931 . S
C3270 C3269 1.385 . S
C3270 C3271 1.389 . S
C3271 C3270 1.389 . S
C3271 C3272 1.387 . S
C3272 H3257 0.930 . S
C3272 C3267 1.390 . S
C3272 C3271 1.387 . S
H3273 C3285 0.930 . S
H3274 C3287 0.930 . S
H3275 C3288 0.930 . S
H3276 C3292 0.959 . S
H3277 C3292 0.959 . S
H3278 C3292 0.961 . S
H3279 C3293 0.960 . S
H3280 C3293 0.961 . S
H3281 C3293 0.959 . S
H3282 C3296 0.929 . S
H3283 C3297 0.931 . S
H3284 C3299 0.930 . S
C3285 H3273 0.930 . S
C3285 C3286 1.399 . S
C3285 C3290 1.399 . S
C3286 C3285 1.399 . S
C3286 C3287 1.376 . S
C3287 H3274 0.930 . S
C3287 C3286 1.376 . S
C3287 C3288 1.388 . S
C3288 H3275 0.930 . S
C3288 C3287 1.388 . S
C3288 C3289 1.390 . S
C3289 C3288 1.390 . S
C3289 C3290 1.394 . S
C3289 C3295 1.465 . S
C3290 C3285 1.399 . S
C3290 C3289 1.394 . S
C3290 C3291 1.516 . S
C3291 C3290 1.516 . S
C3291 C3292 1.502 . S
C3291 C3293 1.561 . S
C3291 C3294 1.526 . S
C3292 H3276 0.959 . S
C3292 H3277 0.959 . S
C3292 H3278 0.961 . S
C3292 C3291 1.502 . S
C3293 H3279 0.960 . S
C3293 H3280 0.961 . S
C3293 H3281 0.959 . S
C3293 C3291 1.561 . S
C3294 C3291 1.526 . S
C3294 C3295 1.396 . S
C3294 C3299 1.390 . S
C3295 C3289 1.465 . S
C3295 C3294 1.396 . S
C3295 C3296 1.399 . S
C3296 H3282 0.929 . S
C3296 C3295 1.399 . S
C3296 C3297 1.385 . S
C3297 H3283 0.931 . S
C3297 C3296 1.385 . S
C3297 C3298 1.389 . S
C3298 C3297 1.389 . S
C3298 C3299 1.387 . S
C3299 H3284 0.930 . S
C3299 C3294 1.390 . S
C3299 C3298 1.387 . S
H3300 C3312 0.930 . S
H3301 C3314 0.930 . S
H3302 C3315 0.930 . S
H3303 C3319 0.959 . S
H3304 C3319 0.959 . S
H3305 C3319 0.961 . S
H3306 C3320 0.960 . S
H3307 C3320 0.961 . S
H3308 C3320 0.959 . S
H3309 C3323 0.929 . S
H3310 C3324 0.931 . S
H3311 C3326 0.930 . S
C3312 H3300 0.930 . S
C3312 C3313 1.399 . S
C3312 C3317 1.399 . S
C3313 C3312 1.399 . S
C3313 C3314 1.376 . S
C3314 H3301 0.930 . S
C3314 C3313 1.376 . S
C3314 C3315 1.388 . S
C3315 H3302 0.930 . S
C3315 C3314 1.388 . S
C3315 C3316 1.390 . S
C3316 C3315 1.390 . S
C3316 C3317 1.394 . S
C3316 C3322 1.465 . S
C3317 C3312 1.399 . S
C3317 C3316 1.394 . S
C3317 C3318 1.516 . S
C3318 C3317 1.516 . S
C3318 C3319 1.502 . S
C3318 C3320 1.561 . S
C3318 C3321 1.526 . S
C3319 H3303 0.959 . S
C3319 H3304 0.959 . S
C3319 H3305 0.961 . S
C3319 C3318 1.502 . S
C3320 H3306 0.960 . S
C3320 H3307 0.961 . S
C3320 H3308 0.959 . S
C3320 C3318 1.561 . S
C3321 C3318 1.526 . S
C3321 C3322 1.396 . S
C3321 C3326 1.390 . S
C3322 C3316 1.465 . S
C3322 C3321 1.396 . S
C3322 C3323 1.399 . S
C3323 H3309 0.929 . S
C3323 C3322 1.399 . S
C3323 C3324 1.385 . S
C3324 H3310 0.931 . S
C3324 C3323 1.385 . S
C3324 C3325 1.389 . S
C3325 C3324 1.389 . S
C3325 C3326 1.387 . S
C3326 H3311 0.930 . S
C3326 C3321 1.390 . S
C3326 C3325 1.387 . S
H3327 C3339 0.930 . S
H3328 C3341 0.930 . S
H3329 C3342 0.930 . S
H3330 C3346 0.959 . S
H3331 C3346 0.959 . S
H3332 C3346 0.961 . S
H3333 C3347 0.960 . S
H3334 C3347 0.961 . S
H3335 C3347 0.959 . S
H3336 C3350 0.929 . S
H3337 C3351 0.931 . S
H3338 C3353 0.930 . S
C3339 H3327 0.930 . S
C3339 C3340 1.399 . S
C3339 C3344 1.399 . S
C3340 C3339 1.399 . S
C3340 C3341 1.376 . S
C3341 H3328 0.930 . S
C3341 C3340 1.376 . S
C3341 C3342 1.388 . S
C3342 H3329 0.930 . S
C3342 C3341 1.388 . S
C3342 C3343 1.390 . S
C3343 C3342 1.390 . S
C3343 C3344 1.394 . S
C3343 C3349 1.465 . S
C3344 C3339 1.399 . S
C3344 C3343 1.394 . S
C3344 C3345 1.516 . S
C3345 C3344 1.516 . S
C3345 C3346 1.502 . S
C3345 C3347 1.561 . S
C3345 C3348 1.526 . S
C3346 H3330 0.959 . S
C3346 H3331 0.959 . S
C3346 H3332 0.961 . S
C3346 C3345 1.502 . S
C3347 H3333 0.960 . S
C3347 H3334 0.961 . S
C3347 H3335 0.959 . S
C3347 C3345 1.561 . S
C3348 C3345 1.526 . S
C3348 C3349 1.396 . S
C3348 C3353 1.390 . S
C3349 C3343 1.465 . S
C3349 C3348 1.396 . S
C3349 C3350 1.399 . S
C3350 H3336 0.929 . S
C3350 C3349 1.399 . S
C3350 C3351 1.385 . S
C3351 H3337 0.931 . S
C3351 C3350 1.385 . S
C3351 C3352 1.389 . S
C3352 C3351 1.389 . S
C3352 C3353 1.387 . S
C3353 H3338 0.930 . S
C3353 C3348 1.390 . S
C3353 C3352 1.387 . S
H3354 C3366 0.930 . S
H3355 C3368 0.930 . S
H3356 C3369 0.930 . S
H3357 C3373 0.959 . S
H3358 C3373 0.959 . S
H3359 C3373 0.961 . S
H3360 C3374 0.960 . S
H3361 C3374 0.961 . S
H3362 C3374 0.959 . S
H3363 C3377 0.929 . S
H3364 C3378 0.931 . S
H3365 C3380 0.930 . S
C3366 H3354 0.930 . S
C3366 C3367 1.399 . S
C3366 C3371 1.399 . S
C3367 C3366 1.399 . S
C3367 C3368 1.376 . S
C3368 H3355 0.930 . S
C3368 C3367 1.376 . S
C3368 C3369 1.388 . S
C3369 H3356 0.930 . S
C3369 C3368 1.388 . S
C3369 C3370 1.390 . S
C3370 C3369 1.390 . S
C3370 C3371 1.394 . S
C3370 C3376 1.465 . S
C3371 C3366 1.399 . S
C3371 C3370 1.394 . S
C3371 C3372 1.516 . S
C3372 C3371 1.516 . S
C3372 C3373 1.502 . S
C3372 C3374 1.561 . S
C3372 C3375 1.526 . S
C3373 H3357 0.959 . S
C3373 H3358 0.959 . S
C3373 H3359 0.961 . S
C3373 C3372 1.502 . S
C3374 H3360 0.960 . S
C3374 H3361 0.961 . S
C3374 H3362 0.959 . S
C3374 C3372 1.561 . S
C3375 C3372 1.526 . S
C3375 C3376 1.396 . S
C3375 C3380 1.390 . S
C3376 C3370 1.465 . S
C3376 C3375 1.396 . S
C3376 C3377 1.399 . S
C3377 H3363 0.929 . S
C3377 C3376 1.399 . S
C3377 C3378 1.385 . S
C3378 H3364 0.931 . S
C3378 C3377 1.385 . S
C3378 C3379 1.389 . S
C3379 C3378 1.389 . S
C3379 C3380 1.387 . S
C3380 H3365 0.930 . S
C3380 C3375 1.390 . S
C3380 C3379 1.387 . S
H3381 C3393 0.930 . S
H3382 C3395 0.930 . S
H3383 C3396 0.930 . S
H3384 C3400 0.959 . S
H3385 C3400 0.959 . S
H3386 C3400 0.961 . S
H3387 C3401 0.960 . S
H3388 C3401 0.961 . S
H3389 C3401 0.959 . S
H3390 C3404 0.929 . S
H3391 C3405 0.931 . S
H3392 C3407 0.930 . S
C3393 H3381 0.930 . S
C3393 C3394 1.399 . S
C3393 C3398 1.399 . S
C3394 C3393 1.399 . S
C3394 C3395 1.376 . S
C3395 H3382 0.930 . S
C3395 C3394 1.376 . S
C3395 C3396 1.388 . S
C3396 H3383 0.930 . S
C3396 C3395 1.388 . S
C3396 C3397 1.390 . S
C3397 C3396 1.390 . S
C3397 C3398 1.394 . S
C3397 C3403 1.465 . S
C3398 C3393 1.399 . S
C3398 C3397 1.394 . S
C3398 C3399 1.516 . S
C3399 C3398 1.516 . S
C3399 C3400 1.502 . S
C3399 C3401 1.561 . S
C3399 C3402 1.526 . S
C3400 H3384 0.959 . S
C3400 H3385 0.959 . S
C3400 H3386 0.961 . S
C3400 C3399 1.502 . S
C3401 H3387 0.960 . S
C3401 H3388 0.961 . S
C3401 H3389 0.959 . S
C3401 C3399 1.561 . S
C3402 C3399 1.526 . S
C3402 C3403 1.396 . S
C3402 C3407 1.390 . S
C3403 C3397 1.465 . S
C3403 C3402 1.396 . S
C3403 C3404 1.399 . S
C3404 H3390 0.929 . S
C3404 C3403 1.399 . S
C3404 C3405 1.385 . S
C3405 H3391 0.931 . S
C3405 C3404 1.385 . S
C3405 C3406 1.389 . S
C3406 C3405 1.389 . S
C3406 C3407 1.387 . S
C3407 H3392 0.930 . S
C3407 C3402 1.390 . S
C3407 C3406 1.387 . S
C2125 C1261 1.307 . S
C2137 C20 1.299 . S
C2152 C117 1.306 . S
C2164 C1349 1.309 . S
C2179 C1604 1.299 . S
C2191 C225 1.343 . S
C2206 C321 1.292 . S
C2218 C1164 1.332 . S
C2233 C1289 1.308 . S
C2245 C372 1.298 . S
C2260 C469 1.303 . S
C2272 C1377 1.306 . S
C2287 C577 1.341 . S
C2299 C1633 1.297 . S
C2314 C673 1.345 . S
C2326 C1193 1.315 . S
C2341 C849 1.295 . S
C2353 C733 1.337 . S
C2368 C900 1.307 . S
C2380 C821 1.300 . S
C2395 C929 1.328 . S
C2407 C1025 1.346 . S
C2422 C997 1.293 . S
C2434 C761 1.335 . S
C2449 C1085 1.337 . S
C2461 C293 1.325 . S
C2476 C401 1.292 . S
C2488 C1457 1.345 . S
C2503 C1516 1.293 . S
C2515 C145 1.314 . S
C2530 C137 1.352 . S
C2542 C1868 1.308 . S
C2557 C812 1.343 . S
C2569 C29 1.297 . S
C2584 C2081 1.304 . S
C2596 C284 1.340 . S
C2611 C988 1.350 . S
C2623 C233 1.301 . S
C2638 C1897 1.312 . S
C2650 C636 1.350 . S
C2665 C841 1.316 . S
C2677 C585 1.344 . S
C2692 C489 1.313 . S
C2704 C2053 1.329 . S
C2719 C381 1.304 . S
C2731 C1017 1.345 . S
C2746 C1340 1.332 . S
C2758 C1721 1.314 . S
C2773 C1437 1.300 . S
C2785 C1369 1.357 . S
C2800 C1173 1.336 . S
C2812 C1465 1.300 . S
C2827 C1692 1.298 . S
C2839 C1201 1.352 . S
C2854 C205 1.313 . S
C2866 C1817 1.348 . S
C2881 C909 1.305 . S
C2893 C665 1.344 . S
C2908 C57 1.305 . S
C2920 C1956 1.357 . S
C2935 C1701 1.328 . S
C2947 C196 1.343 . S
C2962 C49 1.340 . S
C2974 C1428 1.291 . S
C2989 C1729 1.328 . S
C3001 C548 1.331 . S
C3016 C1113 1.302 . S
C3028 C645 1.342 . S
C3043 C497 1.345 . S
C3055 C1545 1.307 . S
C3070 C1877 1.317 . S
C3082 C1780 1.348 . S
C3097 C2044 1.334 . S
C3109 C1809 1.326 . S
C3124 C1993 1.344 . S
C3136 C2073 1.302 . S
C3151 C1905 1.303 . S
C3163 C1965 1.306 . S
C3178 C724 1.303 . S
C3190 C313 1.347 . S
C3205 C108 1.313 . S
C3217 C937 1.332 . S
C3232 C460 1.340 . S
C3244 C753 1.327 . S
C3259 C1789 1.333 . S
C3271 C409 1.314 . S
C3286 C557 1.350 . S
C3298 C1985 1.299 . S
C3313 C1076 1.326 . S
C3325 C1281 1.311 . S
C3340 C1613 1.299 . S
C3352 C1105 1.358 . S
C3367 C1525 1.335 . S
C3379 C1641 1.327 . S
C3394 C1252 1.300 . S
C3406 C1553 1.353 . S
