# Generated by pormake.
# Topology dei, (4)-cn, num edge types: 1
# Building blocks:
#     Node 0, Type 0, BuildingBlock: UXUYUI_clean_sbu_0, # of connection points: 4
#     Node 1, Type 0, BuildingBlock: UXUYUI_clean_sbu_0, # of connection points: 4
#     Node 2, Type 0, BuildingBlock: UXUYUI_clean_sbu_0, # of connection points: 4
#     Node 3, Type 0, BuildingBlock: UXUYUI_clean_sbu_0, # of connection points: 4
#     Node 4, Type 0, BuildingBlock: UXUYUI_clean_sbu_0, # of connection points: 4
#     Node 5, Type 0, BuildingBlock: UXUYUI_clean_sbu_0, # of connection points: 4
#     Node 6, Type 0, BuildingBlock: UXUYUI_clean_sbu_0, # of connection points: 4
#     Node 7, Type 0, BuildingBlock: UXUYUI_clean_sbu_0, # of connection points: 4
#     Node 8, Type 0, BuildingBlock: UXUYUI_clean_sbu_0, # of connection points: 4
#     Node 9, Type 0, BuildingBlock: UXUYUI_clean_sbu_0, # of connection points: 4
#     Node 10, Type 0, BuildingBlock: UXUYUI_clean_sbu_0, # of connection points: 4
#     Node 11, Type 0, BuildingBlock: UXUYUI_clean_sbu_0, # of connection points: 4
#     Node 12, Type 0, BuildingBlock: UXUYUI_clean_sbu_0, # of connection points: 4
#     Node 13, Type 0, BuildingBlock: UXUYUI_clean_sbu_0, # of connection points: 4
#     Node 14, Type 0, BuildingBlock: UXUYUI_clean_sbu_0, # of connection points: 4
#     Node 15, Type 0, BuildingBlock: UXUYUI_clean_sbu_0, # of connection points: 4
#     Node 16, Type 0, BuildingBlock: UXUYUI_clean_sbu_0, # of connection points: 4
#     Node 17, Type 0, BuildingBlock: UXUYUI_clean_sbu_0, # of connection points: 4
#     Node 18, Type 0, BuildingBlock: UXUYUI_clean_sbu_0, # of connection points: 4
#     Node 19, Type 0, BuildingBlock: UXUYUI_clean_sbu_0, # of connection points: 4
#     Node 20, Type 0, BuildingBlock: UXUYUI_clean_sbu_0, # of connection points: 4
#     Node 21, Type 0, BuildingBlock: UXUYUI_clean_sbu_0, # of connection points: 4
#     Node 22, Type 0, BuildingBlock: UXUYUI_clean_sbu_0, # of connection points: 4
#     Node 23, Type 0, BuildingBlock: UXUYUI_clean_sbu_0, # of connection points: 4
#     Node 24, Type 0, BuildingBlock: UXUYUI_clean_sbu_0, # of connection points: 4
#     Node 25, Type 0, BuildingBlock: UXUYUI_clean_sbu_0, # of connection points: 4
#     Node 26, Type 0, BuildingBlock: UXUYUI_clean_sbu_0, # of connection points: 4
#     Node 27, Type 0, BuildingBlock: UXUYUI_clean_sbu_0, # of connection points: 4
#     Node 28, Type 0, BuildingBlock: UXUYUI_clean_sbu_0, # of connection points: 4
#     Node 29, Type 0, BuildingBlock: UXUYUI_clean_sbu_0, # of connection points: 4
#     Node 30, Type 0, BuildingBlock: UXUYUI_clean_sbu_0, # of connection points: 4
#     Node 31, Type 0, BuildingBlock: UXUYUI_clean_sbu_0, # of connection points: 4
#     Edge 32, Type (0, 0), BuildingBlock: XIVTED_clean_linker_0, # of connection points: 2
#     Edge 33, Type (0, 0), BuildingBlock: XIVTED_clean_linker_0, # of connection points: 2
#     Edge 34, Type (0, 0), BuildingBlock: XIVTED_clean_linker_0, # of connection points: 2
#     Edge 35, Type (0, 0), BuildingBlock: XIVTED_clean_linker_0, # of connection points: 2
#     Edge 36, Type (0, 0), BuildingBlock: XIVTED_clean_linker_0, # of connection points: 2
#     Edge 37, Type (0, 0), BuildingBlock: XIVTED_clean_linker_0, # of connection points: 2
#     Edge 38, Type (0, 0), BuildingBlock: XIVTED_clean_linker_0, # of connection points: 2
#     Edge 39, Type (0, 0), BuildingBlock: XIVTED_clean_linker_0, # of connection points: 2
#     Edge 40, Type (0, 0), BuildingBlock: XIVTED_clean_linker_0, # of connection points: 2
#     Edge 41, Type (0, 0), BuildingBlock: XIVTED_clean_linker_0, # of connection points: 2
#     Edge 42, Type (0, 0), BuildingBlock: XIVTED_clean_linker_0, # of connection points: 2
#     Edge 43, Type (0, 0), BuildingBlock: XIVTED_clean_linker_0, # of connection points: 2
#     Edge 44, Type (0, 0), BuildingBlock: XIVTED_clean_linker_0, # of connection points: 2
#     Edge 45, Type (0, 0), BuildingBlock: XIVTED_clean_linker_0, # of connection points: 2
#     Edge 46, Type (0, 0), BuildingBlock: XIVTED_clean_linker_0, # of connection points: 2
#     Edge 47, Type (0, 0), BuildingBlock: XIVTED_clean_linker_0, # of connection points: 2
#     Edge 48, Type (0, 0), BuildingBlock: XIVTED_clean_linker_0, # of connection points: 2
#     Edge 49, Type (0, 0), BuildingBlock: XIVTED_clean_linker_0, # of connection points: 2
#     Edge 50, Type (0, 0), BuildingBlock: XIVTED_clean_linker_0, # of connection points: 2
#     Edge 51, Type (0, 0), BuildingBlock: XIVTED_clean_linker_0, # of connection points: 2
#     Edge 52, Type (0, 0), BuildingBlock: XIVTED_clean_linker_0, # of connection points: 2
#     Edge 53, Type (0, 0), BuildingBlock: XIVTED_clean_linker_0, # of connection points: 2
#     Edge 54, Type (0, 0), BuildingBlock: XIVTED_clean_linker_0, # of connection points: 2
#     Edge 55, Type (0, 0), BuildingBlock: XIVTED_clean_linker_0, # of connection points: 2
#     Edge 56, Type (0, 0), BuildingBlock: XIVTED_clean_linker_0, # of connection points: 2
#     Edge 57, Type (0, 0), BuildingBlock: XIVTED_clean_linker_0, # of connection points: 2
#     Edge 58, Type (0, 0), BuildingBlock: XIVTED_clean_linker_0, # of connection points: 2
#     Edge 59, Type (0, 0), BuildingBlock: XIVTED_clean_linker_0, # of connection points: 2
#     Edge 60, Type (0, 0), BuildingBlock: XIVTED_clean_linker_0, # of connection points: 2
#     Edge 61, Type (0, 0), BuildingBlock: XIVTED_clean_linker_0, # of connection points: 2
#     Edge 62, Type (0, 0), BuildingBlock: XIVTED_clean_linker_0, # of connection points: 2
#     Edge 63, Type (0, 0), BuildingBlock: XIVTED_clean_linker_0, # of connection points: 2
#     Edge 64, Type (0, 0), BuildingBlock: XIVTED_clean_linker_0, # of connection points: 2
#     Edge 65, Type (0, 0), BuildingBlock: XIVTED_clean_linker_0, # of connection points: 2
#     Edge 66, Type (0, 0), BuildingBlock: XIVTED_clean_linker_0, # of connection points: 2
#     Edge 67, Type (0, 0), BuildingBlock: XIVTED_clean_linker_0, # of connection points: 2
#     Edge 68, Type (0, 0), BuildingBlock: XIVTED_clean_linker_0, # of connection points: 2
#     Edge 69, Type (0, 0), BuildingBlock: XIVTED_clean_linker_0, # of connection points: 2
#     Edge 70, Type (0, 0), BuildingBlock: XIVTED_clean_linker_0, # of connection points: 2
#     Edge 71, Type (0, 0), BuildingBlock: XIVTED_clean_linker_0, # of connection points: 2
#     Edge 72, Type (0, 0), BuildingBlock: XIVTED_clean_linker_0, # of connection points: 2
#     Edge 73, Type (0, 0), BuildingBlock: XIVTED_clean_linker_0, # of connection points: 2
#     Edge 74, Type (0, 0), BuildingBlock: XIVTED_clean_linker_0, # of connection points: 2
#     Edge 75, Type (0, 0), BuildingBlock: XIVTED_clean_linker_0, # of connection points: 2
#     Edge 76, Type (0, 0), BuildingBlock: XIVTED_clean_linker_0, # of connection points: 2
#     Edge 77, Type (0, 0), BuildingBlock: XIVTED_clean_linker_0, # of connection points: 2
#     Edge 78, Type (0, 0), BuildingBlock: XIVTED_clean_linker_0, # of connection points: 2
#     Edge 79, Type (0, 0), BuildingBlock: XIVTED_clean_linker_0, # of connection points: 2
#     Edge 80, Type (0, 0), BuildingBlock: XIVTED_clean_linker_0, # of connection points: 2
#     Edge 81, Type (0, 0), BuildingBlock: XIVTED_clean_linker_0, # of connection points: 2
#     Edge 82, Type (0, 0), BuildingBlock: XIVTED_clean_linker_0, # of connection points: 2
#     Edge 83, Type (0, 0), BuildingBlock: XIVTED_clean_linker_0, # of connection points: 2
#     Edge 84, Type (0, 0), BuildingBlock: XIVTED_clean_linker_0, # of connection points: 2
#     Edge 85, Type (0, 0), BuildingBlock: XIVTED_clean_linker_0, # of connection points: 2
#     Edge 86, Type (0, 0), BuildingBlock: XIVTED_clean_linker_0, # of connection points: 2
#     Edge 87, Type (0, 0), BuildingBlock: XIVTED_clean_linker_0, # of connection points: 2
#     Edge 88, Type (0, 0), BuildingBlock: XIVTED_clean_linker_0, # of connection points: 2
#     Edge 89, Type (0, 0), BuildingBlock: XIVTED_clean_linker_0, # of connection points: 2
#     Edge 90, Type (0, 0), BuildingBlock: XIVTED_clean_linker_0, # of connection points: 2
#     Edge 91, Type (0, 0), BuildingBlock: XIVTED_clean_linker_0, # of connection points: 2
#     Edge 92, Type (0, 0), BuildingBlock: XIVTED_clean_linker_0, # of connection points: 2
#     Edge 93, Type (0, 0), BuildingBlock: XIVTED_clean_linker_0, # of connection points: 2
#     Edge 94, Type (0, 0), BuildingBlock: XIVTED_clean_linker_0, # of connection points: 2
#     Edge 95, Type (0, 0), BuildingBlock: XIVTED_clean_linker_0, # of connection points: 2
# Relax obj value: 0.318
# Max RMSD: 0.128
# Mean RMSD: 0.128
data_MOF--net-dei--node1-UXUYUI_clean_sbu_0--edge1-XIVTED_clean_linker_0
_symmetry_space_group_name_H-M    P1
_symmetry_Int_Tables_number       1
_symmetry_cell_setting            triclinic
loop_
_symmetry_equiv_pos_as_xyz
'x, y, z'
_cell_length_a     72.574995
_cell_length_b     72.553887
_cell_length_c     144.67135
_cell_angle_alpha  89.997011
_cell_angle_beta   90.002313
_cell_angle_gamma 89.999159
loop_
_atom_site_label
_atom_site_type_symbol
_atom_site_fract_x
_atom_site_fract_y
_atom_site_fract_z
_atom_type_partial_charge
Li0 Li 0.16091 0.61791 0.04818 0.0
Li1 Li 0.16249 0.5933 0.05884 0.0
Li2 Li 0.16546 0.58775 0.04174 0.0
Li3 Li 0.13539 0.59672 0.04931 0.0
C4 C 0.19708 0.61243 0.04894 0.0
N5 N 0.22698 0.63543 0.04631 0.0
C6 C 0.20109 0.6262 0.05539 0.0
C7 C 0.20834 0.61031 0.04117 0.0
C8 C 0.21624 0.63772 0.05393 0.0
C9 C 0.22339 0.62208 0.03997 0.0
C10 C 0.14207 0.61598 0.06815 0.0
C11 C 0.12828 0.60614 0.0825 0.0
N12 N 0.13794 0.61936 0.08708 0.0
C13 C 0.15184 0.6295 0.073 0.0
C14 C 0.13015 0.60425 0.07294 0.0
C15 C 0.14955 0.63099 0.08256 0.0
C16 C 0.15744 0.65593 0.05121 0.0
N17 N 0.1663 0.6433 0.0459 0.0
C18 C 0.1816 0.6672 0.03749 0.0
C19 C 0.178 0.64855 0.03903 0.0
C20 C 0.17312 0.68045 0.04312 0.0
C21 C 0.16083 0.67466 0.05001 0.0
H22 H 0.14754 0.65147 0.05631 0.0
H23 H 0.18446 0.63827 0.03471 0.0
C24 C 0.16601 0.56762 0.07343 0.0
N25 N 0.17093 0.58475 0.07055 0.0
C26 C 0.1702 0.56179 0.08238 0.0
C27 C 0.18512 0.59106 0.08509 0.0
C28 C 0.18091 0.59617 0.07606 0.0
C29 C 0.17942 0.57379 0.08845 0.0
H30 H 0.1585 0.55861 0.06885 0.0
H31 H 0.1849 0.60961 0.07358 0.0
C32 C 0.14277 0.6206 0.03232 0.0
N33 N 0.13479 0.65103 0.02157 0.0
C34 C 0.1284 0.63243 0.03481 0.0
C35 C 0.15301 0.62417 0.02434 0.0
C36 C 0.12461 0.64777 0.02929 0.0
C37 C 0.14877 0.63965 0.019 0.0
C38 C 0.13835 0.55968 0.05037 0.0
C39 C 0.13807 0.54894 0.04234 0.0
C40 C 0.12603 0.55575 0.05753 0.0
C41 C 0.1253 0.53461 0.04158 0.0
C42 C 0.11345 0.54133 0.05649 0.0
N43 N 0.11334 0.53115 0.0486 0.0
C44 C 0.19126 0.56243 0.03518 0.0
C45 C 0.16989 0.57294 0.02394 0.0
C46 C 0.19919 0.55038 0.02881 0.0
N47 N 0.1768 0.5732 0.03265 0.0
C48 C 0.17738 0.5611 0.01735 0.0
C49 C 0.19205 0.54941 0.01979 0.0
H50 H 0.19636 0.56298 0.0422 0.0
H51 H 0.15816 0.58145 0.02221 0.0
C52 C 0.09904 0.60594 0.05404 0.0
N53 N 0.10918 0.59449 0.04862 0.0
C54 C 0.07986 0.60503 0.05395 0.0
C55 C 0.08175 0.58092 0.04247 0.0
C56 C 0.10095 0.58242 0.04273 0.0
C57 C 0.07091 0.59224 0.04819 0.0
H58 H 0.10586 0.61595 0.05838 0.0
H59 H 0.10927 0.57391 0.03825 0.0
O60 O 0.18231 0.601 0.05023 0.0
O61 O 0.14434 0.61407 0.05879 0.0
O62 O 0.14696 0.60578 0.03776 0.0
O63 O 0.15071 0.57383 0.05123 0.0
H64 H 0.19236 0.62829 0.06135 0.0
H65 H 0.20543 0.59978 0.03609 0.0
H66 H 0.21939 0.64854 0.05883 0.0
H67 H 0.23218 0.62062 0.03397 0.0
H68 H 0.11917 0.59708 0.08629 0.0
H69 H 0.16141 0.6385 0.06947 0.0
H70 H 0.12248 0.59373 0.06933 0.0
H71 H 0.15713 0.6413 0.08639 0.0
H72 H 0.19105 0.6712 0.03206 0.0
H73 H 0.15366 0.68455 0.05432 0.0
H74 H 0.16593 0.54817 0.08456 0.0
H75 H 0.19203 0.60094 0.0895 0.0
H76 H 0.12044 0.62993 0.041 0.0
H77 H 0.16431 0.61526 0.02237 0.0
H78 H 0.11361 0.65711 0.03116 0.0
H79 H 0.15666 0.64266 0.01284 0.0
H80 H 0.14751 0.55167 0.03674 0.0
H81 H 0.12612 0.56378 0.06382 0.0
H82 H 0.12488 0.52626 0.03539 0.0
H83 H 0.10377 0.53823 0.06196 0.0
H84 H 0.21054 0.54169 0.03095 0.0
H85 H 0.17119 0.56051 0.01054 0.0
H86 H 0.07213 0.61445 0.05827 0.0
H87 H 0.0755 0.57086 0.03791 0.0
Li88 Li 0.63058 0.90914 0.29696 0.0
Li89 Li 0.65392 0.90829 0.30916 0.0
Li90 Li 0.66198 0.9142 0.29314 0.0
Li91 Li 0.65224 0.88333 0.2981 0.0
C92 C 0.65281 0.94662 0.29987 0.0
N93 N 0.66746 0.98108 0.29643 0.0
C94 C 0.66455 0.95485 0.30631 0.0
C95 C 0.64839 0.95596 0.29171 0.0
C96 C 0.67184 0.97229 0.30444 0.0
C97 C 0.65599 0.97335 0.29009 0.0
C98 C 0.62611 0.88822 0.31559 0.0
C99 C 0.62821 0.87519 0.33089 0.0
N100 N 0.61226 0.88385 0.33324 0.0
C101 C 0.6097 0.89693 0.31814 0.0
C102 C 0.63541 0.87718 0.32199 0.0
C103 C 0.60293 0.89456 0.3271 0.0
C104 C 0.59406 0.90052 0.29314 0.0
N105 N 0.60578 0.91492 0.29432 0.0
C106 C 0.58131 0.93649 0.29216 0.0
C107 C 0.59986 0.93267 0.29389 0.0
C108 C 0.56893 0.92186 0.29082 0.0
C109 C 0.57551 0.90369 0.29129 0.0
H110 H 0.59915 0.88656 0.29372 0.0
H111 H 0.60948 0.94383 0.29498 0.0
C112 C 0.6764 0.91064 0.32496 0.0
N113 N 0.6594 0.91452 0.32156 0.0
C114 C 0.68064 0.91459 0.33415 0.0
C115 C 0.64986 0.92673 0.3361 0.0
C116 C 0.64635 0.92285 0.32683 0.0
C117 C 0.66717 0.92245 0.33993 0.0
H118 H 0.68667 0.90445 0.32053 0.0
H119 H 0.6331 0.9262 0.32386 0.0
C120 C 0.63192 0.89484 0.28024 0.0
N121 N 0.6043 0.89028 0.2673 0.0
C122 C 0.62434 0.8774 0.2787 0.0
C123 C 0.62558 0.90993 0.27514 0.0
C124 C 0.61037 0.87538 0.27213 0.0
C125 C 0.61156 0.90735 0.26865 0.0
C126 C 0.68801 0.88478 0.30164 0.0
C127 C 0.7002 0.88468 0.29416 0.0
C128 C 0.68965 0.87142 0.30854 0.0
C129 C 0.7138 0.87108 0.29369 0.0
C130 C 0.7034 0.85803 0.30781 0.0
N131 N 0.71508 0.85813 0.30046 0.0
C132 C 0.69316 0.93579 0.28961 0.0
C133 C 0.67654 0.92688 0.27622 0.0
C134 C 0.70654 0.94438 0.28421 0.0
N135 N 0.67866 0.92717 0.28554 0.0
C136 C 0.68968 0.93516 0.27055 0.0
C137 C 0.70512 0.94376 0.27453 0.0
H138 H 0.69455 0.93557 0.29705 0.0
H139 H 0.66501 0.91967 0.27319 0.0
C140 C 0.64303 0.84645 0.30143 0.0
N141 N 0.65452 0.85735 0.29642 0.0
C142 C 0.64339 0.82737 0.30033 0.0
C143 C 0.66749 0.83097 0.28894 0.0
C144 C 0.66649 0.85006 0.29018 0.0
C145 C 0.65572 0.8194 0.29401 0.0
H146 H 0.63337 0.85258 0.3062 0.0
H147 H 0.6751 0.85906 0.28608 0.0
O148 O 0.64575 0.92945 0.30151 0.0
O149 O 0.63308 0.89053 0.30688 0.0
O150 O 0.64539 0.89715 0.28675 0.0
O151 O 0.6745 0.89788 0.30219 0.0
H152 H 0.66813 0.94781 0.31265 0.0
H153 H 0.63937 0.94974 0.28664 0.0
H154 H 0.68102 0.9788 0.30934 0.0
H155 H 0.6528 0.98068 0.28378 0.0
H156 H 0.63532 0.86679 0.33593 0.0
H157 H 0.60235 0.90557 0.31328 0.0
H158 H 0.64813 0.87036 0.32012 0.0
H159 H 0.59029 0.90128 0.32918 0.0
H160 H 0.57671 0.95068 0.29186 0.0
H161 H 0.56632 0.89204 0.2905 0.0
H162 H 0.69432 0.91147 0.33669 0.0
H163 H 0.63893 0.93259 0.34026 0.0
H164 H 0.62907 0.86557 0.28258 0.0
H165 H 0.63124 0.92353 0.27628 0.0
H166 H 0.60431 0.86199 0.2709 0.0
H167 H 0.60641 0.91893 0.26471 0.0
H168 H 0.6991 0.89487 0.28873 0.0
H169 H 0.6803 0.87131 0.31437 0.0
H170 H 0.72329 0.87077 0.28793 0.0
H171 H 0.70476 0.84753 0.31308 0.0
H172 H 0.71812 0.95098 0.28757 0.0
H173 H 0.68819 0.934 0.26312 0.0
H174 H 0.63416 0.81892 0.30441 0.0
H175 H 0.67701 0.82534 0.28391 0.0
Li176 Li 0.33821 0.40333 0.55857 0.0
Li177 Li 0.33742 0.3772 0.54793 0.0
Li178 Li 0.36442 0.39913 0.54853 0.0
Li179 Li 0.33484 0.40855 0.54165 0.0
C180 C 0.35687 0.37678 0.56712 0.0
N181 N 0.35951 0.36714 0.58555 0.0
C182 C 0.34729 0.36147 0.57048 0.0
C183 C 0.36799 0.38704 0.5731 0.0
C184 C 0.34877 0.35685 0.57982 0.0
C185 C 0.36907 0.382 0.5824 0.0
C186 C 0.30044 0.38987 0.54814 0.0
C187 C 0.27774 0.3808 0.53685 0.0
N188 N 0.26529 0.37814 0.54375 0.0
C189 C 0.28737 0.38722 0.55511 0.0
C190 C 0.29556 0.38678 0.53893 0.0
C191 C 0.2697 0.38122 0.55276 0.0
C192 C 0.33609 0.42824 0.57348 0.0
N193 N 0.33086 0.41129 0.57048 0.0
C194 C 0.31798 0.40413 0.58523 0.0
C195 C 0.32145 0.39949 0.57603 0.0
C196 C 0.32404 0.4212 0.58868 0.0
C197 C 0.33276 0.43353 0.5826 0.0
H198 H 0.34325 0.43749 0.56886 0.0
H199 H 0.3173 0.38616 0.57343 0.0
C200 C 0.34388 0.34187 0.5416 0.0
N201 N 0.33115 0.35217 0.54614 0.0
C202 C 0.3408 0.32318 0.54005 0.0
C203 C 0.31157 0.32597 0.54795 0.0
C204 C 0.31526 0.34464 0.54937 0.0
C205 C 0.32446 0.31497 0.54325 0.0
H206 H 0.35656 0.34819 0.53927 0.0
H207 H 0.30556 0.35301 0.55315 0.0
C208 C 0.36319 0.43587 0.55032 0.0
N209 N 0.38974 0.4631 0.54938 0.0
C210 C 0.36382 0.44774 0.54272 0.0
C211 C 0.37594 0.43796 0.55749 0.0
C212 C 0.37738 0.4614 0.54236 0.0
C213 C 0.3893 0.45176 0.55687 0.0
C214 C 0.35276 0.3843 0.5285 0.0
C215 C 0.36799 0.39003 0.52333 0.0
C216 C 0.33894 0.37388 0.52426 0.0
C217 C 0.36894 0.38557 0.51395 0.0
C218 C 0.34041 0.36968 0.51487 0.0
N219 N 0.35524 0.37558 0.50994 0.0
C220 C 0.40032 0.38811 0.55289 0.0
C221 C 0.39935 0.41245 0.54199 0.0
C222 C 0.41953 0.38815 0.55274 0.0
N223 N 0.39065 0.40025 0.54764 0.0
C224 C 0.41858 0.41312 0.5417 0.0
C225 C 0.42898 0.40089 0.54715 0.0
H226 H 0.39309 0.37829 0.55718 0.0
H227 H 0.39137 0.42174 0.53775 0.0
C228 C 0.30693 0.43149 0.53481 0.0
N229 N 0.32314 0.42324 0.53257 0.0
C230 C 0.29806 0.44297 0.52847 0.0
C231 C 0.32275 0.43715 0.51763 0.0
C232 C 0.33115 0.42588 0.52419 0.0
C233 C 0.30605 0.44597 0.51977 0.0
H234 H 0.301 0.42931 0.54159 0.0
H235 H 0.34431 0.4197 0.52267 0.0
O236 O 0.35534 0.38171 0.55803 0.0
O237 O 0.31782 0.3957 0.55036 0.0
O238 O 0.35005 0.42239 0.55077 0.0
O239 O 0.35169 0.3885 0.53771 0.0
H240 H 0.33866 0.35336 0.56594 0.0
H241 H 0.37557 0.39886 0.5706 0.0
H242 H 0.34134 0.3451 0.58253 0.0
H243 H 0.3775 0.3899 0.58713 0.0
H244 H 0.27379 0.37833 0.52975 0.0
H245 H 0.29087 0.3897 0.56228 0.0
H246 H 0.30533 0.38916 0.53343 0.0
H247 H 0.25948 0.37902 0.55809 0.0
H248 H 0.31138 0.39408 0.58966 0.0
H249 H 0.33731 0.44698 0.5849 0.0
H250 H 0.35132 0.31517 0.53659 0.0
H251 H 0.29878 0.32022 0.55052 0.0
H252 H 0.354 0.44641 0.53714 0.0
H253 H 0.37562 0.42892 0.56343 0.0
H254 H 0.37808 0.47064 0.53651 0.0
H255 H 0.39933 0.45346 0.56233 0.0
H256 H 0.3789 0.39795 0.52651 0.0
H257 H 0.32731 0.36887 0.52819 0.0
H258 H 0.38059 0.39003 0.50985 0.0
H259 H 0.32979 0.36165 0.5115 0.0
H260 H 0.42687 0.37813 0.55689 0.0
H261 H 0.42519 0.42327 0.53733 0.0
H262 H 0.28523 0.44955 0.53039 0.0
H263 H 0.32964 0.4395 0.5111 0.0
Li264 Li 0.84172 0.08873 0.80866 0.0
Li265 Li 0.86893 0.08768 0.79875 0.0
Li266 Li 0.84703 0.11333 0.79774 0.0
Li267 Li 0.83933 0.08241 0.79222 0.0
C268 C 0.86704 0.10858 0.81728 0.0
N269 N 0.87484 0.11198 0.83589 0.0
C270 C 0.88157 0.09861 0.82118 0.0
C271 C 0.85659 0.1204 0.82282 0.0
C272 C 0.88528 0.10052 0.83061 0.0
C273 C 0.8607 0.12188 0.83222 0.0
C274 C 0.84484 0.05062 0.79977 0.0
C275 C 0.84416 0.02318 0.79037 0.0
N276 N 0.82892 0.01737 0.795 0.0
C277 C 0.8292 0.04438 0.80444 0.0
C278 C 0.85243 0.03994 0.79268 0.0
C279 C 0.82135 0.02752 0.80193 0.0
C280 C 0.81663 0.08942 0.82377 0.0
N281 N 0.83303 0.08285 0.82066 0.0
C282 C 0.83965 0.0696 0.83539 0.0
C283 C 0.84423 0.07261 0.82615 0.0
C284 C 0.82321 0.07697 0.83896 0.0
C285 C 0.81141 0.08661 0.83295 0.0
H286 H 0.80778 0.09713 0.81919 0.0
H287 H 0.85707 0.06736 0.82343 0.0
C288 C 0.90592 0.09703 0.79824 0.0
N289 N 0.89439 0.0823 0.79828 0.0
C290 C 0.9248 0.09449 0.79718 0.0
C291 C 0.91971 0.06154 0.79666 0.0
C292 C 0.90084 0.06475 0.79766 0.0
C293 C 0.93188 0.07657 0.79627 0.0
H294 H 0.90034 0.1108 0.79885 0.0
H295 H 0.89132 0.0533 0.7978 0.0
C296 C 0.81082 0.11243 0.79871 0.0
N297 N 0.78522 0.14016 0.79609 0.0
C298 C 0.80035 0.11303 0.7906 0.0
C299 C 0.80824 0.12592 0.80549 0.0
C300 C 0.78747 0.12715 0.78941 0.0
C301 C 0.79526 0.13984 0.80403 0.0
C302 C 0.87362 0.10221 0.78221 0.0
C303 C 0.88058 0.12004 0.78111 0.0
C304 C 0.88288 0.08734 0.77817 0.0
C305 C 0.89675 0.12269 0.77604 0.0
C306 C 0.89904 0.09055 0.77317 0.0
N307 N 0.90558 0.10801 0.77222 0.0
C308 C 0.85481 0.15062 0.80123 0.0
C309 C 0.83521 0.14583 0.78834 0.0
C310 C 0.85452 0.16962 0.79977 0.0
N311 N 0.84517 0.13919 0.79558 0.0
C312 C 0.83424 0.1648 0.78674 0.0
C313 C 0.84409 0.1769 0.79247 0.0
H314 H 0.86295 0.14497 0.80681 0.0
H315 H 0.82819 0.1364 0.78376 0.0
C316 C 0.80811 0.06467 0.78492 0.0
N317 N 0.82594 0.06915 0.78317 0.0
C318 C 0.79732 0.05659 0.77805 0.0
C319 C 0.82387 0.05663 0.76795 0.0
C320 C 0.83403 0.06501 0.77496 0.0
C321 C 0.80507 0.05287 0.76933 0.0
H322 H 0.80208 0.06808 0.79154 0.0
H323 H 0.84824 0.06861 0.77378 0.0
O324 O 0.86292 0.10661 0.8081 0.0
O325 O 0.85241 0.06732 0.80195 0.0
O326 O 0.82362 0.09881 0.79997 0.0
O327 O 0.85796 0.0993 0.78729 0.0
H328 H 0.88974 0.08932 0.81702 0.0
H329 H 0.8453 0.12822 0.81991 0.0
H330 H 0.89641 0.0928 0.83374 0.0
H331 H 0.85263 0.13086 0.8366 0.0
H332 H 0.8498 0.01483 0.78486 0.0
H333 H 0.82305 0.05254 0.80989 0.0
H334 H 0.86437 0.04471 0.78889 0.0
H335 H 0.8092 0.02255 0.80547 0.0
H336 H 0.84929 0.06226 0.83975 0.0
H337 H 0.79842 0.09218 0.83534 0.0
H338 H 0.93378 0.10642 0.79708 0.0
H339 H 0.92468 0.04753 0.79598 0.0
H340 H 0.8023 0.10288 0.78522 0.0
H341 H 0.81634 0.1258 0.81175 0.0
H342 H 0.77933 0.12782 0.78316 0.0
H343 H 0.7932 0.15042 0.80919 0.0
H344 H 0.87367 0.13173 0.78417 0.0
H345 H 0.87796 0.07339 0.7791 0.0
H346 H 0.90231 0.13641 0.77516 0.0
H347 H 0.90644 0.07915 0.77011 0.0
H348 H 0.86229 0.17856 0.80434 0.0
H349 H 0.82626 0.16993 0.78096 0.0
H350 H 0.78286 0.0542 0.77943 0.0
H351 H 0.83057 0.05366 0.76144 0.0
Li352 Li 0.16059 0.41035 0.95345 0.0
Li353 Li 0.13098 0.40013 0.94691 0.0
Li354 Li 0.15822 0.37854 0.94771 0.0
Li355 Li 0.1569 0.40393 0.93663 0.0
C356 C 0.14333 0.3859 0.967 0.0
N357 N 0.1415 0.37668 0.98551 0.0
C358 C 0.12804 0.39105 0.97228 0.0
C359 C 0.15756 0.37583 0.97111 0.0
C360 C 0.12741 0.38633 0.98164 0.0
C361 C 0.15642 0.37136 0.98048 0.0
C362 C 0.13193 0.43685 0.9444 0.0
C363 C 0.10588 0.45237 0.93758 0.0
N364 N 0.10536 0.46409 0.94492 0.0
C365 C 0.13123 0.44912 0.95184 0.0
C366 C 0.11926 0.43855 0.93718 0.0
C367 C 0.11767 0.46278 0.95198 0.0
C368 C 0.18733 0.43542 0.95946 0.0
N369 N 0.17212 0.42591 0.96217 0.0
C370 C 0.173 0.43998 0.97705 0.0
C371 C 0.16487 0.42797 0.97076 0.0
C372 C 0.18861 0.45015 0.97444 0.0
C373 C 0.19585 0.44773 0.96552 0.0
H374 H 0.19267 0.43362 0.95254 0.0
H375 H 0.15247 0.42072 0.97266 0.0
C376 C 0.09486 0.38889 0.94306 0.0
N377 N 0.10483 0.40126 0.94802 0.0
C378 C 0.07565 0.38906 0.94344 0.0
C379 C 0.07726 0.41465 0.9541 0.0
C380 C 0.09647 0.41381 0.9536 0.0
C381 C 0.06653 0.40219 0.94894 0.0
H382 H 0.10183 0.3788 0.93883 0.0
H383 H 0.1047 0.42323 0.95765 0.0
C384 C 0.19519 0.39234 0.94708 0.0
N385 N 0.23099 0.38275 0.95145 0.0
C386 C 0.20822 0.38983 0.94007 0.0
C387 C 0.20043 0.39018 0.95631 0.0
C388 C 0.22623 0.38492 0.94242 0.0
C389 C 0.21858 0.38528 0.95838 0.0
C390 C 0.13802 0.3765 0.9287 0.0
C391 C 0.14727 0.36078 0.9256 0.0
C392 C 0.12674 0.38634 0.92263 0.0
C393 C 0.1453 0.35533 0.91639 0.0
C394 C 0.12515 0.38047 0.91347 0.0
N395 N 0.13439 0.36522 0.91056 0.0
C396 C 0.15205 0.34303 0.95397 0.0
C397 C 0.18128 0.3466 0.94689 0.0
C398 C 0.15541 0.32436 0.95549 0.0
N399 N 0.16492 0.35369 0.94975 0.0
C400 C 0.18527 0.32799 0.94831 0.0
C401 C 0.17219 0.31658 0.95262 0.0
H402 H 0.13904 0.34903 0.95604 0.0
H403 H 0.19112 0.35523 0.94336 0.0
C404 C 0.15969 0.42816 0.92142 0.0
N405 N 0.16411 0.4111 0.92458 0.0
C406 C 0.16348 0.43303 0.91229 0.0
C407 C 0.17676 0.40283 0.90993 0.0
C408 C 0.17299 0.39869 0.91915 0.0
C409 C 0.17172 0.42012 0.90633 0.0
H410 H 0.15295 0.43789 0.92596 0.0
H411 H 0.17662 0.38532 0.92191 0.0
O412 O 0.14408 0.39038 0.95782 0.0
O413 O 0.14507 0.42334 0.94416 0.0
O414 O 0.17751 0.39713 0.94486 0.0
O415 O 0.13999 0.38219 0.93766 0.0
H416 H 0.11683 0.39871 0.9692 0.0
H417 H 0.16928 0.37133 0.9671 0.0
H418 H 0.11572 0.39033 0.98582 0.0
H419 H 0.16735 0.3636 0.98375 0.0
H420 H 0.09591 0.45377 0.93207 0.0
H421 H 0.141 0.44806 0.95746 0.0
H422 H 0.11967 0.42921 0.93135 0.0
H423 H 0.1169 0.47232 0.95771 0.0
H424 H 0.1667 0.4418 0.98378 0.0
H425 H 0.20785 0.45538 0.96325 0.0
H426 H 0.06808 0.37884 0.93953 0.0
H427 H 0.07095 0.42511 0.95838 0.0
H428 H 0.20442 0.39158 0.93289 0.0
H429 H 0.19066 0.39244 0.96182 0.0
H430 H 0.23643 0.38284 0.93707 0.0
H431 H 0.22281 0.38355 0.9655 0.0
H432 H 0.15601 0.35298 0.93022 0.0
H433 H 0.1194 0.39846 0.92495 0.0
H434 H 0.15246 0.34327 0.91386 0.0
H435 H 0.11658 0.38803 0.90867 0.0
H436 H 0.14474 0.31605 0.95865 0.0
H437 H 0.19842 0.32262 0.94602 0.0
H438 H 0.15976 0.44668 0.90992 0.0
H439 H 0.18292 0.3923 0.90563 0.0
Li440 Li 0.83894 0.91509 0.20541 0.0
Li441 Li 0.84746 0.88439 0.19986 0.0
Li442 Li 0.86981 0.90978 0.20062 0.0
Li443 Li 0.84506 0.90981 0.18912 0.0
C444 C 0.87038 0.89347 0.217 0.0
N445 N 0.89946 0.88536 0.22866 0.0
C446 C 0.87618 0.87524 0.21815 0.0
C447 C 0.87933 0.90756 0.22183 0.0
C448 C 0.8909 0.87143 0.22407 0.0
C449 C 0.89403 0.90319 0.22767 0.0
C450 C 0.81182 0.88589 0.19676 0.0
C451 C 0.79699 0.85951 0.18984 0.0
N452 N 0.78566 0.85822 0.1973 0.0
C453 C 0.80005 0.88427 0.20436 0.0
C454 C 0.81028 0.87342 0.18943 0.0
C455 C 0.78689 0.87021 0.2045 0.0
C456 C 0.8061 0.93178 0.2118 0.0
N457 N 0.82401 0.92824 0.21388 0.0
C458 C 0.82058 0.94193 0.22876 0.0
C459 C 0.83146 0.93347 0.22207 0.0
C460 C 0.80169 0.94462 0.2271 0.0
C461 C 0.79458 0.93986 0.21837 0.0
H462 H 0.80063 0.92767 0.20515 0.0
H463 H 0.84578 0.93079 0.22348 0.0
C464 C 0.85489 0.84758 0.19541 0.0
N465 N 0.84465 0.85832 0.20112 0.0
C466 C 0.85343 0.82845 0.19579 0.0
C467 C 0.83116 0.83164 0.2081 0.0
C468 C 0.8332 0.85077 0.20754 0.0
C469 C 0.84127 0.82018 0.20211 0.0
H470 H 0.86435 0.85385 0.19059 0.0
H471 H 0.82562 0.8596 0.21219 0.0
C472 C 0.84616 0.94721 0.1985 0.0
N473 N 0.82894 0.98029 0.20234 0.0
C474 C 0.83116 0.95298 0.19318 0.0
C475 C 0.85242 0.95826 0.20576 0.0
C476 C 0.82264 0.96976 0.19523 0.0
C477 C 0.84352 0.97493 0.2076 0.0
C478 C 0.87228 0.88972 0.18182 0.0
C479 C 0.88849 0.89862 0.17912 0.0
C480 C 0.86261 0.87901 0.17541 0.0
C481 C 0.89467 0.89681 0.17002 0.0
C482 C 0.86921 0.87759 0.16637 0.0
N483 N 0.88496 0.88645 0.16388 0.0
C484 C 0.9065 0.90026 0.20342 0.0
C485 C 0.90123 0.93253 0.20353 0.0
C486 C 0.92506 0.90292 0.20543 0.0
N487 N 0.895 0.91495 0.20267 0.0
C488 C 0.91979 0.93585 0.20547 0.0
C489 C 0.93188 0.92089 0.20654 0.0
H490 H 0.90113 0.88646 0.20257 0.0
H491 H 0.89179 0.94394 0.20278 0.0
C492 C 0.82315 0.91097 0.17286 0.0
N493 N 0.83936 0.91624 0.17675 0.0
C494 C 0.82039 0.91304 0.16336 0.0
C495 C 0.85067 0.92681 0.16221 0.0
C496 C 0.85267 0.92481 0.17173 0.0
C497 C 0.83456 0.92044 0.15792 0.0
H498 H 0.81264 0.90456 0.17705 0.0
H499 H 0.86525 0.92922 0.17507 0.0
O500 O 0.85609 0.89749 0.21114 0.0
O501 O 0.82492 0.89946 0.19652 0.0
O502 O 0.85433 0.93058 0.19677 0.0
O503 O 0.8658 0.89162 0.19066 0.0
H504 H 0.86949 0.86412 0.21449 0.0
H505 H 0.87539 0.9218 0.22088 0.0
H506 H 0.89556 0.85738 0.225 0.0
H507 H 0.90121 0.91399 0.23136 0.0
H508 H 0.79572 0.84972 0.18424 0.0
H509 H 0.80121 0.89357 0.21017 0.0
H510 H 0.81938 0.87432 0.18354 0.0
H511 H 0.77774 0.86877 0.21035 0.0
H512 H 0.82682 0.94581 0.23528 0.0
H513 H 0.7801 0.94149 0.21677 0.0
H514 H 0.86197 0.82025 0.19123 0.0
H515 H 0.82161 0.82593 0.21308 0.0
H516 H 0.826 0.94451 0.1876 0.0
H517 H 0.86381 0.95385 0.21006 0.0
H518 H 0.81097 0.97437 0.19119 0.0
H519 H 0.84814 0.98357 0.21324 0.0
H520 H 0.89612 0.90704 0.18396 0.0
H521 H 0.85004 0.87204 0.17737 0.0
H522 H 0.90713 0.90371 0.16782 0.0
H523 H 0.86177 0.86949 0.16132 0.0
H524 H 0.93402 0.89103 0.20601 0.0
H525 H 0.92456 0.9499 0.20626 0.0
H526 H 0.80779 0.90801 0.16025 0.0
H527 H 0.86179 0.93274 0.15819 0.0
Li528 Li 0.36339 0.598 0.45031 0.0
Li529 Li 0.33311 0.58735 0.45594 0.0
Li530 Li 0.33824 0.59491 0.43946 0.0
Li531 Li 0.33593 0.61958 0.45083 0.0
C532 C 0.36207 0.56097 0.44715 0.0
N533 N 0.38732 0.5325 0.44779 0.0
C534 C 0.3615 0.54816 0.45437 0.0
C535 C 0.37537 0.55921 0.44022 0.0
C536 C 0.37441 0.53388 0.45457 0.0
C537 C 0.38806 0.54476 0.44068 0.0
C538 C 0.35141 0.61051 0.47023 0.0
C539 C 0.34184 0.62544 0.48434 0.0
N540 N 0.35635 0.61767 0.48883 0.0
C541 C 0.36631 0.60279 0.47498 0.0
C542 C 0.33913 0.62203 0.47493 0.0
C543 C 0.36854 0.60653 0.48438 0.0
C544 C 0.39916 0.61166 0.44831 0.0
N545 N 0.38953 0.59723 0.45186 0.0
C546 C 0.41742 0.58283 0.4569 0.0
C547 C 0.39822 0.58313 0.45627 0.0
C548 C 0.42768 0.59745 0.45319 0.0
C549 C 0.41834 0.61211 0.44894 0.0
H550 H 0.39193 0.62283 0.44494 0.0
H551 H 0.3903 0.57209 0.45931 0.0
C552 C 0.30699 0.56057 0.4606 0.0
N553 N 0.32072 0.57121 0.46413 0.0
C554 C 0.29804 0.54768 0.4662 0.0
C555 C 0.31726 0.55734 0.47897 0.0
C556 C 0.32588 0.5699 0.47312 0.0
C557 C 0.3033 0.54587 0.4755 0.0
H558 H 0.30323 0.56189 0.4534 0.0
H559 H 0.33701 0.5782 0.47574 0.0
C560 C 0.3583 0.62235 0.43237 0.0
N561 N 0.36426 0.63372 0.4144 0.0
C562 C 0.3493 0.63796 0.42896 0.0
C563 C 0.37054 0.61268 0.42671 0.0
C564 C 0.35247 0.64346 0.41984 0.0
C565 C 0.37329 0.6186 0.41762 0.0
C566 C 0.29947 0.60548 0.45038 0.0
C567 C 0.28487 0.60687 0.44412 0.0
C568 C 0.29629 0.60831 0.45979 0.0
C569 C 0.26729 0.61122 0.4474 0.0
C570 C 0.27852 0.61261 0.4628 0.0
N571 N 0.26451 0.61398 0.4566 0.0
C572 C 0.338 0.57299 0.42324 0.0
C573 C 0.32321 0.60206 0.42206 0.0
C574 C 0.3357 0.56994 0.41378 0.0
N575 N 0.33222 0.58907 0.42709 0.0
C576 C 0.32098 0.59977 0.41256 0.0
C577 C 0.32761 0.5837 0.40832 0.0
H578 H 0.3449 0.56281 0.42744 0.0
H579 H 0.31848 0.61456 0.42536 0.0
C580 C 0.3415 0.65498 0.45745 0.0
N581 N 0.32903 0.64427 0.45298 0.0
C582 C 0.33795 0.67364 0.45888 0.0
C583 C 0.3087 0.66986 0.45109 0.0
C584 C 0.31287 0.65127 0.44978 0.0
C585 C 0.32141 0.68135 0.45563 0.0
H586 H 0.35439 0.64905 0.45976 0.0
H587 H 0.30338 0.64256 0.44605 0.0
O588 O 0.34952 0.57501 0.44683 0.0
O589 O 0.3491 0.60707 0.461 0.0
O590 O 0.35505 0.6165 0.44121 0.0
O591 O 0.31675 0.60133 0.44724 0.0
H592 H 0.35127 0.54927 0.45977 0.0
H593 H 0.37599 0.56899 0.43458 0.0
H594 H 0.37418 0.52391 0.46013 0.0
H595 H 0.3985 0.5433 0.43539 0.0
H596 H 0.33242 0.6343 0.48806 0.0
H597 H 0.37594 0.59387 0.47146 0.0
H598 H 0.32768 0.62838 0.47137 0.0
H599 H 0.37995 0.60056 0.48815 0.0
H600 H 0.42417 0.57142 0.46034 0.0
H601 H 0.42582 0.62359 0.44598 0.0
H602 H 0.28734 0.53908 0.46327 0.0
H603 H 0.32205 0.55609 0.48603 0.0
H604 H 0.33982 0.64561 0.43327 0.0
H605 H 0.3777 0.60066 0.42928 0.0
H606 H 0.34549 0.65543 0.41708 0.0
H607 H 0.3826 0.61116 0.41313 0.0
H608 H 0.28713 0.6047 0.4368 0.0
H609 H 0.30739 0.60707 0.46472 0.0
H610 H 0.25586 0.6124 0.44264 0.0
H611 H 0.27586 0.61482 0.47008 0.0
H612 H 0.34101 0.55741 0.4107 0.0
H613 H 0.31457 0.61059 0.40853 0.0
H614 H 0.34834 0.68202 0.46222 0.0
H615 H 0.29576 0.6752 0.44851 0.0
Li616 Li 0.66086 0.08218 0.70593 0.0
Li617 Li 0.65044 0.11288 0.70111 0.0
Li618 Li 0.62896 0.08721 0.70349 0.0
Li619 Li 0.65004 0.08741 0.69029 0.0
C620 C 0.63294 0.10257 0.71978 0.0
N621 N 0.6071 0.10842 0.73349 0.0
C622 C 0.62595 0.12025 0.72132 0.0
C623 C 0.6269 0.08788 0.72525 0.0
C624 C 0.61288 0.12292 0.72828 0.0
C625 C 0.61378 0.09111 0.73213 0.0
C626 C 0.68544 0.11106 0.69601 0.0
C627 C 0.69985 0.13745 0.68889 0.0
N628 N 0.71274 0.13759 0.69571 0.0
C629 C 0.69885 0.11145 0.70294 0.0
C630 C 0.68596 0.12412 0.6889 0.0
C631 C 0.71255 0.12497 0.70266 0.0
C632 C 0.69326 0.06168 0.70846 0.0
N633 N 0.67872 0.06941 0.71293 0.0
C634 C 0.69094 0.06054 0.72757 0.0
C635 C 0.67719 0.06882 0.72228 0.0
C636 C 0.70644 0.05292 0.72318 0.0
C637 C 0.70734 0.05325 0.71348 0.0
H638 H 0.69411 0.06249 0.70101 0.0
H639 H 0.66558 0.07529 0.72564 0.0
C640 C 0.64137 0.14955 0.6973 0.0
N641 N 0.65331 0.13894 0.70219 0.0
C642 C 0.64282 0.16869 0.69749 0.0
C643 C 0.66857 0.1658 0.70798 0.0
C644 C 0.66651 0.14664 0.70764 0.0
C645 C 0.65672 0.1771 0.70277 0.0
H646 H 0.6306 0.14317 0.69327 0.0
H647 H 0.67554 0.13791 0.71165 0.0
C648 C 0.65098 0.04969 0.69994 0.0
N649 N 0.66724 0.01582 0.70303 0.0
C650 C 0.66216 0.04173 0.69316 0.0
C651 C 0.64796 0.04038 0.70826 0.0
C652 C 0.67027 0.0246 0.69486 0.0
C653 C 0.65635 0.02329 0.7097 0.0
C654 C 0.62137 0.10756 0.68492 0.0
C655 C 0.60448 0.09899 0.68315 0.0
C656 C 0.62968 0.11824 0.67804 0.0
C657 C 0.59627 0.10112 0.67448 0.0
C658 C 0.62106 0.11998 0.66945 0.0
N659 N 0.60467 0.11145 0.66786 0.0
C660 C 0.59302 0.09618 0.70843 0.0
C661 C 0.59879 0.06401 0.70817 0.0
C662 C 0.57468 0.09316 0.71081 0.0
N663 N 0.6046 0.0817 0.70718 0.0
C664 C 0.58047 0.06033 0.71048 0.0
C665 C 0.56816 0.07504 0.71179 0.0
H666 H 0.598 0.11008 0.70741 0.0
H667 H 0.60829 0.05277 0.70702 0.0
C668 C 0.66871 0.08589 0.67325 0.0
N669 N 0.65291 0.08111 0.67768 0.0
C670 C 0.67025 0.08346 0.66372 0.0
C671 C 0.63949 0.07061 0.66357 0.0
C672 C 0.6387 0.07293 0.67313 0.0
C673 C 0.65529 0.07624 0.65876 0.0
H674 H 0.6799 0.09207 0.67707 0.0
H675 H 0.62647 0.0689 0.67689 0.0
O676 O 0.64551 0.09962 0.71289 0.0
O677 O 0.67183 0.09802 0.69618 0.0
O678 O 0.6432 0.06659 0.69847 0.0
O679 O 0.62979 0.10539 0.69332 0.0
H680 H 0.63045 0.13177 0.71715 0.0
H681 H 0.63204 0.07407 0.72409 0.0
H682 H 0.60729 0.13652 0.72953 0.0
H683 H 0.60886 0.07985 0.73636 0.0
H684 H 0.70035 0.1477 0.68347 0.0
H685 H 0.69861 0.10154 0.70852 0.0
H686 H 0.67564 0.12407 0.68351 0.0
H687 H 0.72298 0.12548 0.708 0.0
H688 H 0.68985 0.06092 0.73503 0.0
H689 H 0.71901 0.04746 0.70982 0.0
H690 H 0.63299 0.1768 0.6936 0.0
H691 H 0.67949 0.17165 0.71215 0.0
H692 H 0.66468 0.04877 0.68669 0.0
H693 H 0.63944 0.04641 0.7136 0.0
H694 H 0.67903 0.01831 0.6897 0.0
H695 H 0.65425 0.01599 0.71614 0.0
H696 H 0.59788 0.0906 0.68837 0.0
H697 H 0.64278 0.12492 0.67929 0.0
H698 H 0.58326 0.09448 0.673 0.0
H699 H 0.62742 0.12807 0.66404 0.0
H700 H 0.56556 0.10489 0.71155 0.0
H701 H 0.57596 0.04617 0.71118 0.0
H702 H 0.68263 0.08798 0.6602 0.0
H703 H 0.62777 0.06483 0.65995 0.0
Li704 Li 0.83799 0.40082 0.93849 0.0
Li705 Li 0.83431 0.41033 0.9545 0.0
Li706 Li 0.86388 0.39914 0.9494 0.0
Li707 Li 0.83675 0.37905 0.95112 0.0
C708 C 0.84489 0.43829 0.94215 0.0
N709 N 0.83235 0.47253 0.93664 0.0
C710 C 0.82599 0.44147 0.94108 0.0
C711 C 0.85738 0.45254 0.94044 0.0
C712 C 0.81994 0.45888 0.93828 0.0
C713 C 0.85078 0.46974 0.93764 0.0
C714 C 0.80182 0.38484 0.94733 0.0
C715 C 0.78068 0.36622 0.95619 0.0
N716 N 0.77173 0.36155 0.94827 0.0
C717 C 0.79225 0.38005 0.93929 0.0
C718 C 0.79583 0.37807 0.95586 0.0
C719 C 0.77713 0.36819 0.93991 0.0
C720 C 0.82735 0.38764 0.92134 0.0
N721 N 0.83274 0.40339 0.92565 0.0
C722 C 0.83362 0.41942 0.91123 0.0
C723 C 0.83597 0.41912 0.92079 0.0
C724 C 0.82828 0.40329 0.9066 0.0
C725 C 0.82497 0.38727 0.91178 0.0
H726 H 0.82541 0.37518 0.92534 0.0
H727 H 0.84104 0.43129 0.92421 0.0
C728 C 0.83383 0.44335 0.96431 0.0
N729 N 0.82339 0.42837 0.96224 0.0
C730 C 0.82678 0.45726 0.96989 0.0
C731 C 0.79846 0.43988 0.97134 0.0
C732 C 0.80596 0.42643 0.96555 0.0
C733 C 0.80893 0.45555 0.9735 0.0
H734 H 0.84772 0.44442 0.96166 0.0
H735 H 0.79795 0.41443 0.96376 0.0
C736 C 0.86621 0.37747 0.93347 0.0
N737 N 0.88941 0.37261 0.91853 0.0
C738 C 0.86899 0.35988 0.9298 0.0
C739 C 0.87518 0.39261 0.92952 0.0
C740 C 0.8808 0.35771 0.92225 0.0
C741 C 0.88687 0.38986 0.92198 0.0
C742 C 0.85072 0.39975 0.96947 0.0
C743 C 0.8649 0.41173 0.97204 0.0
C744 C 0.83645 0.39605 0.97569 0.0
C745 C 0.86444 0.42001 0.98076 0.0
C746 C 0.83646 0.40463 0.98433 0.0
N747 N 0.85033 0.41635 0.98666 0.0
C748 C 0.89866 0.41678 0.95116 0.0
C749 C 0.89951 0.38424 0.94964 0.0
C750 C 0.9179 0.41755 0.95135 0.0
N751 N 0.88994 0.40029 0.95027 0.0
C752 C 0.91872 0.3844 0.94964 0.0
C753 C 0.92814 0.40122 0.95046 0.0
H754 H 0.89066 0.42931 0.95165 0.0
H755 H 0.89217 0.37132 0.94898 0.0
C756 C 0.82436 0.34371 0.94676 0.0
N757 N 0.83002 0.35452 0.95388 0.0
C758 C 0.82039 0.32515 0.94826 0.0
C759 C 0.82797 0.32931 0.96442 0.0
C760 C 0.83176 0.34782 0.9626 0.0
C761 C 0.82245 0.31767 0.95716 0.0
H762 H 0.82333 0.34945 0.93988 0.0
H763 H 0.83647 0.35673 0.96809 0.0
O764 O 0.8512 0.42149 0.94506 0.0
O765 O 0.81678 0.3963 0.94684 0.0
O766 O 0.8545 0.3798 0.94078 0.0
O767 O 0.85069 0.39192 0.96086 0.0
H768 H 0.81608 0.43067 0.94238 0.0
H769 H 0.87204 0.45032 0.94126 0.0
H770 H 0.80537 0.46153 0.93743 0.0
H771 H 0.8603 0.48089 0.93628 0.0
H772 H 0.77606 0.3607 0.96274 0.0
H773 H 0.79634 0.38554 0.93266 0.0
H774 H 0.80302 0.38165 0.96215 0.0
H775 H 0.76966 0.36432 0.93374 0.0
H776 H 0.83674 0.43193 0.90745 0.0
H777 H 0.82087 0.37453 0.90847 0.0
H778 H 0.83534 0.46903 0.97156 0.0
H779 H 0.78466 0.43816 0.97405 0.0
H780 H 0.86207 0.34805 0.93275 0.0
H781 H 0.8731 0.40635 0.93223 0.0
H782 H 0.88309 0.34417 0.91934 0.0
H783 H 0.89389 0.40145 0.91886 0.0
H784 H 0.87603 0.41478 0.96733 0.0
H785 H 0.82535 0.38683 0.97383 0.0
H786 H 0.87526 0.42941 0.98281 0.0
H787 H 0.82541 0.40201 0.98918 0.0
H788 H 0.9247 0.43079 0.95194 0.0
H789 H 0.92615 0.37151 0.94903 0.0
H790 H 0.81649 0.31661 0.94244 0.0
H791 H 0.82961 0.32411 0.97138 0.0
Li792 Li 0.35168 0.1182 0.69963 0.0
Li793 Li 0.37189 0.09151 0.70128 0.0
Li794 Li 0.3493 0.09315 0.68879 0.0
Li795 Li 0.34003 0.08808 0.70466 0.0
C796 C 0.3785 0.11034 0.68247 0.0
N797 N 0.39332 0.11072 0.66487 0.0
C798 C 0.3943 0.10005 0.68049 0.0
C799 C 0.37027 0.12087 0.6755 0.0
C800 C 0.40158 0.10044 0.67155 0.0
C801 C 0.37795 0.12084 0.66664 0.0
C802 C 0.37035 0.10616 0.71785 0.0
C803 C 0.38925 0.09287 0.72984 0.0
N804 N 0.39769 0.10943 0.73105 0.0
C805 C 0.37915 0.12307 0.71924 0.0
C806 C 0.37536 0.09095 0.72323 0.0
C807 C 0.39295 0.12444 0.72594 0.0
C808 C 0.34081 0.15201 0.70821 0.0
N809 N 0.35031 0.14431 0.70109 0.0
C810 C 0.35889 0.17403 0.69546 0.0
C811 C 0.35935 0.15488 0.69481 0.0
C812 C 0.34919 0.18248 0.70273 0.0
C813 C 0.34002 0.17119 0.70915 0.0
H814 H 0.33394 0.14325 0.71318 0.0
H815 H 0.36702 0.14845 0.6893 0.0
C816 C 0.40118 0.06692 0.70591 0.0
N817 N 0.39622 0.08477 0.70451 0.0
C818 C 0.4193 0.06259 0.70836 0.0
C819 C 0.42668 0.0951 0.70785 0.0
C820 C 0.40853 0.09876 0.70536 0.0
C821 C 0.43227 0.07682 0.70938 0.0
H822 H 0.39112 0.05607 0.7051 0.0
H823 H 0.40419 0.11278 0.70406 0.0
C824 C 0.31654 0.11905 0.6962 0.0
N825 N 0.29228 0.14816 0.69808 0.0
C826 C 0.30497 0.12009 0.70391 0.0
C827 C 0.31574 0.13279 0.68944 0.0
C828 C 0.29279 0.13491 0.70472 0.0
C829 C 0.30341 0.14742 0.69052 0.0
C830 C 0.34788 0.0551 0.69827 0.0
C831 C 0.33608 0.04739 0.69169 0.0
C832 C 0.35122 0.04573 0.70655 0.0
C833 C 0.32768 0.03046 0.69353 0.0
C834 C 0.34252 0.02885 0.70814 0.0
N835 N 0.33103 0.02163 0.70165 0.0
C836 C 0.35634 0.07651 0.67148 0.0
C837 C 0.32892 0.09419 0.67231 0.0
C838 C 0.35378 0.0737 0.66203 0.0
N839 N 0.34426 0.08707 0.67633 0.0
C840 C 0.32574 0.09163 0.6629 0.0
C841 C 0.3385 0.08166 0.65759 0.0
H842 H 0.36831 0.07084 0.67491 0.0
H843 H 0.31934 0.10218 0.67638 0.0
C844 C 0.32387 0.07579 0.72135 0.0
N845 N 0.32222 0.07601 0.71201 0.0
C846 C 0.31005 0.06794 0.72677 0.0
C847 C 0.29338 0.0603 0.7128 0.0
C848 C 0.30747 0.06839 0.70767 0.0
C849 C 0.29439 0.06033 0.7225 0.0
H850 H 0.33561 0.08223 0.72461 0.0
H851 H 0.30649 0.06898 0.70021 0.0
O852 O 0.37098 0.10992 0.69114 0.0
O853 O 0.35708 0.10445 0.7112 0.0
O854 O 0.32882 0.10485 0.69536 0.0
O855 O 0.35601 0.0718 0.69665 0.0
H856 H 0.40078 0.09171 0.68575 0.0
H857 H 0.35786 0.12868 0.67686 0.0
H858 H 0.41377 0.0925 0.66991 0.0
H859 H 0.37162 0.12879 0.66117 0.0
H860 H 0.39338 0.08117 0.73399 0.0
H861 H 0.37553 0.13497 0.71512 0.0
H862 H 0.36881 0.07771 0.72219 0.0
H863 H 0.39994 0.13742 0.72705 0.0
H864 H 0.36594 0.18212 0.69027 0.0
H865 H 0.33258 0.17707 0.71493 0.0
H866 H 0.42309 0.04833 0.70948 0.0
H867 H 0.43634 0.10643 0.70837 0.0
H868 H 0.30549 0.10968 0.70925 0.0
H869 H 0.32477 0.13234 0.68349 0.0
H870 H 0.28379 0.13593 0.71066 0.0
H871 H 0.30274 0.15821 0.68537 0.0
H872 H 0.3333 0.05448 0.68526 0.0
H873 H 0.3602 0.05156 0.71175 0.0
H874 H 0.31845 0.02437 0.68852 0.0
H875 H 0.34487 0.02151 0.71454 0.0
H876 H 0.36403 0.06601 0.6582 0.0
H877 H 0.31356 0.09764 0.65981 0.0
H878 H 0.31124 0.06863 0.73422 0.0
H879 H 0.28163 0.05448 0.70923 0.0
Li880 Li 0.6302 0.60187 0.44874 0.0
Li881 Li 0.65793 0.62108 0.45046 0.0
Li882 Li 0.65535 0.5993 0.43771 0.0
Li883 Li 0.65989 0.58914 0.45354 0.0
C884 C 0.62507 0.63107 0.43752 0.0
N885 N 0.59431 0.65119 0.43252 0.0
C886 C 0.62185 0.64837 0.44146 0.0
C887 C 0.61272 0.62407 0.43099 0.0
C888 C 0.60621 0.65832 0.43885 0.0
C889 C 0.59723 0.63443 0.42857 0.0
C890 C 0.64462 0.60014 0.46873 0.0
C891 C 0.66029 0.59397 0.4831 0.0
N892 N 0.64593 0.58321 0.48582 0.0
C893 C 0.62998 0.5891 0.47168 0.0
C894 C 0.65986 0.60269 0.47449 0.0
C895 C 0.63091 0.58064 0.48034 0.0
C896 C 0.59555 0.58419 0.44882 0.0
N897 N 0.60416 0.60055 0.45031 0.0
C898 C 0.57542 0.61511 0.45371 0.0
C899 C 0.59458 0.61574 0.45296 0.0
C900 C 0.566 0.5985 0.45199 0.0
C901 C 0.57644 0.58282 0.44966 0.0
H902 H 0.60354 0.57215 0.447 0.0
H903 H 0.60181 0.62843 0.45441 0.0
C904 C 0.67112 0.65594 0.44612 0.0
N905 N 0.66604 0.64512 0.45334 0.0
C906 C 0.6758 0.67432 0.44758 0.0
C907 C 0.67014 0.67002 0.46392 0.0
C908 C 0.66564 0.65165 0.46214 0.0
C909 C 0.67504 0.68166 0.45655 0.0
H910 H 0.67093 0.6504 0.43918 0.0
H911 H 0.66132 0.64275 0.46773 0.0
C912 C 0.64063 0.56569 0.43793 0.0
N913 N 0.63816 0.53866 0.42454 0.0
C914 C 0.65257 0.55058 0.43813 0.0
C915 C 0.62735 0.56699 0.43097 0.0
C916 C 0.65111 0.53707 0.43129 0.0
C917 C 0.62635 0.55321 0.42424 0.0
C918 C 0.69195 0.61453 0.44527 0.0
C919 C 0.69812 0.62073 0.43666 0.0
C920 C 0.70101 0.62023 0.45331 0.0
C921 C 0.71318 0.63269 0.43624 0.0
C922 C 0.716 0.63222 0.45259 0.0
N923 N 0.72172 0.63816 0.44415 0.0
C924 C 0.65495 0.60711 0.41877 0.0
C925 C 0.67227 0.58058 0.4228 0.0
C926 C 0.659 0.60451 0.40945 0.0
N927 N 0.66139 0.59507 0.42519 0.0
C928 C 0.67639 0.57725 0.41353 0.0
C929 C 0.6697 0.58933 0.40675 0.0
H930 H 0.64672 0.61877 0.42088 0.0
H931 H 0.67774 0.57161 0.4281 0.0
C932 C 0.65925 0.55592 0.46278 0.0
N933 N 0.67048 0.57033 0.46078 0.0
C934 C 0.66589 0.54106 0.46784 0.0
C935 C 0.69549 0.5563 0.46888 0.0
C936 C 0.6883 0.57084 0.46367 0.0
C937 C 0.68423 0.54111 0.47092 0.0
H938 H 0.64513 0.55599 0.46039 0.0
H939 H 0.69691 0.58247 0.46192 0.0
O940 O 0.64025 0.62105 0.44003 0.0
O941 O 0.64419 0.60811 0.46017 0.0
O942 O 0.64196 0.57918 0.44451 0.0
O943 O 0.67705 0.60304 0.44584 0.0
H944 H 0.63117 0.65398 0.44656 0.0
H945 H 0.61504 0.61076 0.42785 0.0
H946 H 0.60349 0.67168 0.44187 0.0
H947 H 0.58751 0.62913 0.42356 0.0
H948 H 0.67206 0.5957 0.4876 0.0
H949 H 0.61811 0.58692 0.46728 0.0
H950 H 0.67138 0.61108 0.47228 0.0
H951 H 0.61973 0.57197 0.4827 0.0
H952 H 0.5681 0.62763 0.45546 0.0
H953 H 0.56998 0.56957 0.44854 0.0
H954 H 0.67913 0.68288 0.44168 0.0
H955 H 0.66944 0.67516 0.47094 0.0
H956 H 0.66304 0.54942 0.44342 0.0
H957 H 0.61796 0.57854 0.43073 0.0
H958 H 0.66034 0.52536 0.43132 0.0
H959 H 0.6162 0.55408 0.41879 0.0
H960 H 0.69127 0.61648 0.43037 0.0
H961 H 0.69632 0.61571 0.46003 0.0
H962 H 0.71805 0.63766 0.42963 0.0
H963 H 0.72305 0.63687 0.45876 0.0
H964 H 0.65357 0.61409 0.40439 0.0
H965 H 0.68488 0.56553 0.41168 0.0
H966 H 0.65669 0.52974 0.46945 0.0
H967 H 0.70969 0.55678 0.47116 0.0
Li968 Li 0.15028 0.88003 0.20008 0.0
Li969 Li 0.12922 0.90657 0.20157 0.0
Li970 Li 0.15111 0.9052 0.1887 0.0
Li971 Li 0.16086 0.91175 0.20433 0.0
C972 C 0.12088 0.88547 0.18365 0.0
N973 N 0.10178 0.88127 0.16724 0.0
C974 C 0.10563 0.89661 0.18172 0.0
C975 C 0.12627 0.87205 0.17726 0.0
C976 C 0.09618 0.8943 0.17339 0.0
C977 C 0.11648 0.87019 0.16899 0.0
C978 C 0.13207 0.89297 0.21828 0.0
C979 C 0.11289 0.90635 0.23013 0.0
N980 N 0.10548 0.88947 0.23184 0.0
C981 C 0.12435 0.87574 0.22019 0.0
C982 C 0.12639 0.9084 0.22333 0.0
C983 C 0.11091 0.87426 0.22706 0.0
C984 C 0.16785 0.8464 0.20553 0.0
N985 N 0.15274 0.85415 0.20155 0.0
C986 C 0.14019 0.82451 0.19818 0.0
C987 C 0.1389 0.84366 0.19805 0.0
C988 C 0.1558 0.81604 0.20202 0.0
C989 C 0.16964 0.8272 0.20588 0.0
H990 H 0.17866 0.85513 0.20825 0.0
H991 H 0.12695 0.85021 0.19503 0.0
C992 C 0.09925 0.93045 0.2056 0.0
N993 N 0.10477 0.91262 0.20487 0.0
C994 C 0.08088 0.93456 0.20759 0.0
C995 C 0.07443 0.90186 0.20811 0.0
C996 C 0.09285 0.89841 0.20607 0.0
C997 C 0.0682 0.92014 0.20882 0.0
H998 H 0.10902 0.94147 0.20449 0.0
H999 H 0.09764 0.88438 0.20527 0.0
C1000 C 0.18565 0.88413 0.19134 0.0
N1001 N 0.21333 0.86379 0.18309 0.0
C1002 C 0.2041 0.88889 0.19272 0.0
C1003 C 0.18129 0.86894 0.18582 0.0
C1004 C 0.2179 0.87847 0.18846 0.0
C1005 C 0.19547 0.85883 0.1817 0.0
C1006 C 0.15146 0.94378 0.19747 0.0
C1007 C 0.1625 0.95139 0.19053 0.0
C1008 C 0.14827 0.95369 0.2056 0.0
C1009 C 0.17031 0.96878 0.19189 0.0
C1010 C 0.15636 0.97102 0.20669 0.0
N1011 N 0.16712 0.97815 0.19987 0.0
C1012 C 0.13994 0.92027 0.17193 0.0
C1013 C 0.16886 0.90527 0.17091 0.0
C1014 C 0.13973 0.92321 0.16241 0.0
N1015 N 0.15402 0.91082 0.17592 0.0
C1016 C 0.16935 0.90811 0.16137 0.0
C1017 C 0.15441 0.91676 0.157 0.0
H1018 H 0.12863 0.92513 0.17613 0.0
H1019 H 0.18021 0.89836 0.17422 0.0
C1020 C 0.17727 0.92506 0.22065 0.0
N1021 N 0.17857 0.92478 0.2113 0.0
C1022 C 0.19106 0.93335 0.22592 0.0
C1023 C 0.20692 0.94141 0.21178 0.0
C1024 C 0.19283 0.93295 0.20679 0.0
C1025 C 0.20634 0.94131 0.22148 0.0
H1026 H 0.16588 0.91827 0.22404 0.0
H1027 H 0.19348 0.93243 0.19933 0.0
O1028 O 0.13045 0.88766 0.19173 0.0
O1029 O 0.145 0.89475 0.21146 0.0
O1030 O 0.172 0.89416 0.19549 0.0
O1031 O 0.14386 0.92668 0.19631 0.0
H1032 H 0.1013 0.90717 0.18652 0.0
H1033 H 0.13787 0.86315 0.17864 0.0
H1034 H 0.08445 0.90293 0.17179 0.0
H1035 H 0.12057 0.85992 0.16398 0.0
H1036 H 0.10825 0.9182 0.23403 0.0
H1037 H 0.1286 0.86366 0.21635 0.0
H1038 H 0.13214 0.92186 0.2219 0.0
H1039 H 0.10475 0.86103 0.22858 0.0
H1040 H 0.12909 0.81638 0.19526 0.0
H1041 H 0.18193 0.82118 0.20886 0.0
H1042 H 0.07662 0.94883 0.2081 0.0
H1043 H 0.06505 0.89034 0.20881 0.0
H1044 H 0.20775 0.90052 0.19703 0.0
H1045 H 0.16712 0.86504 0.1847 0.0
H1046 H 0.23223 0.88206 0.18945 0.0
H1047 H 0.19227 0.84707 0.1774 0.0
H1048 H 0.16515 0.9439 0.18421 0.0
H1049 H 0.13986 0.94795 0.21106 0.0
H1050 H 0.17894 0.97482 0.1866 0.0
H1051 H 0.15412 0.97879 0.21297 0.0
H1052 H 0.12813 0.93026 0.1593 0.0
H1053 H 0.18094 0.90296 0.15743 0.0
H1054 H 0.19023 0.93264 0.23338 0.0
H1055 H 0.2184 0.94749 0.20809 0.0
Li1056 Li 0.84217 0.62074 0.04681 0.0
Li1057 Li 0.86842 0.59972 0.04845 0.0
Li1058 Li 0.83735 0.58941 0.04244 0.0
Li1059 Li 0.8414 0.59601 0.05879 0.0
C1060 C 0.85754 0.62005 0.03026 0.0
N1061 N 0.86176 0.64744 0.01717 0.0
C1062 C 0.87473 0.62832 0.02894 0.0
C1063 C 0.84256 0.62553 0.02485 0.0
C1064 C 0.87657 0.64218 0.02229 0.0
C1065 C 0.84495 0.63946 0.01829 0.0
C1066 C 0.86979 0.62264 0.06472 0.0
C1067 C 0.88787 0.6152 0.07821 0.0
N1068 N 0.89264 0.63325 0.07905 0.0
C1069 C 0.87472 0.64115 0.06578 0.0
C1070 C 0.8763 0.60959 0.07103 0.0
C1071 C 0.88635 0.64622 0.07304 0.0
C1072 C 0.81866 0.65125 0.04332 0.0
N1073 N 0.83643 0.64562 0.0442 0.0
C1074 C 0.84745 0.67586 0.04087 0.0
C1075 C 0.85073 0.65749 0.0431 0.0
C1076 C 0.82925 0.68211 0.03986 0.0
C1077 C 0.81472 0.66959 0.04116 0.0
H1078 H 0.80756 0.64153 0.0443 0.0
H1079 H 0.86472 0.65261 0.04392 0.0
C1080 C 0.90219 0.58169 0.04435 0.0
N1081 N 0.89451 0.59757 0.04753 0.0
C1082 C 0.92135 0.5798 0.044 0.0
C1083 C 0.92426 0.61077 0.04999 0.0
C1084 C 0.9051 0.61212 0.05014 0.0
C1085 C 0.93261 0.59438 0.04698 0.0
H1086 H 0.89342 0.57042 0.04221 0.0
H1087 H 0.89869 0.62481 0.05233 0.0
C1088 C 0.80388 0.59908 0.04865 0.0
N1089 N 0.7686 0.58712 0.04472 0.0
C1090 C 0.79423 0.58838 0.05506 0.0
C1091 C 0.79551 0.60388 0.04029 0.0
C1092 C 0.77642 0.58243 0.05294 0.0
C1093 C 0.77769 0.59764 0.03842 0.0
C1094 C 0.85945 0.56087 0.05544 0.0
C1095 C 0.8491 0.54482 0.05414 0.0
C1096 C 0.87546 0.56019 0.0608 0.0
C1097 C 0.85468 0.52849 0.05842 0.0
C1098 C 0.88059 0.54358 0.06496 0.0
N1099 N 0.87017 0.52821 0.0637 0.0
C1100 C 0.83033 0.575 0.02489 0.0
C1101 C 0.81274 0.56108 0.03679 0.0
C1102 C 0.8224 0.56343 0.01832 0.0
N1103 N 0.82547 0.57358 0.03391 0.0
C1104 C 0.80435 0.54929 0.03045 0.0
C1105 C 0.8093 0.55026 0.02107 0.0
H1106 H 0.84068 0.58488 0.02281 0.0
H1107 H 0.80925 0.56012 0.04403 0.0
C1108 C 0.83198 0.60481 0.07689 0.0
N1109 N 0.83412 0.59032 0.07104 0.0
C1110 C 0.82801 0.6018 0.08619 0.0
C1111 C 0.82764 0.56902 0.0832 0.0
C1112 C 0.83158 0.57268 0.07394 0.0
C1113 C 0.82612 0.58369 0.08948 0.0
H1114 H 0.83385 0.61871 0.07436 0.0
H1115 H 0.83275 0.56143 0.06912 0.0
O1116 O 0.85539 0.60671 0.03685 0.0
O1117 O 0.85846 0.61747 0.05761 0.0
O1118 O 0.82135 0.60498 0.05061 0.0
O1119 O 0.8542 0.57696 0.05124 0.0
H1120 H 0.88648 0.6242 0.03304 0.0
H1121 H 0.82919 0.61921 0.02577 0.0
H1122 H 0.88976 0.64879 0.02123 0.0
H1123 H 0.83344 0.64394 0.01411 0.0
H1124 H 0.89298 0.60522 0.08314 0.0
H1125 H 0.86967 0.65149 0.06103 0.0
H1126 H 0.87223 0.59533 0.07048 0.0
H1127 H 0.89035 0.66048 0.07391 0.0
H1128 H 0.85903 0.68515 0.0401 0.0
H1129 H 0.8005 0.67388 0.04043 0.0
H1130 H 0.92728 0.56693 0.04164 0.0
H1131 H 0.93246 0.62247 0.05215 0.0
H1132 H 0.80045 0.58462 0.06159 0.0
H1133 H 0.80276 0.61218 0.03526 0.0
H1134 H 0.76882 0.57406 0.05781 0.0
H1135 H 0.7711 0.60113 0.03194 0.0
H1136 H 0.83681 0.54498 0.04993 0.0
H1137 H 0.88399 0.57225 0.06167 0.0
H1138 H 0.8467 0.51602 0.05752 0.0
H1139 H 0.89292 0.5429 0.06915 0.0
H1140 H 0.827 0.56439 0.01121 0.0
H1141 H 0.79426 0.53942 0.03287 0.0
H1142 H 0.82711 0.61351 0.09082 0.0
H1143 H 0.82595 0.55487 0.08543 0.0
Li1144 Li 0.16133 0.09114 0.79178 0.0
Li1145 Li 0.1553 0.09879 0.80785 0.0
Li1146 Li 0.13038 0.0947 0.79685 0.0
Li1147 Li 0.1505 0.12188 0.79612 0.0
C1148 C 0.13743 0.06144 0.80271 0.0
N1149 N 0.11324 0.0328 0.80603 0.0
C1150 C 0.13181 0.0575 0.81173 0.0
C1151 C 0.13083 0.05077 0.79538 0.0
C1152 C 0.11956 0.04296 0.81327 0.0
C1153 C 0.11857 0.03637 0.7972 0.0
C1154 C 0.18893 0.1095 0.80501 0.0
C1155 C 0.20667 0.12202 0.81763 0.0
N1156 N 0.21854 0.10758 0.81696 0.0
C1157 C 0.20131 0.0948 0.80444 0.0
C1158 C 0.19163 0.12327 0.81163 0.0
C1159 C 0.21621 0.09408 0.81054 0.0
C1160 C 0.18848 0.09059 0.77856 0.0
N1161 N 0.17741 0.07916 0.78349 0.0
C1162 C 0.18855 0.05295 0.7752 0.0
C1163 C 0.17744 0.06061 0.7821 0.0
C1164 C 0.19933 0.06465 0.7697 0.0
C1165 C 0.19945 0.08362 0.77151 0.0
H1166 H 0.18829 0.10524 0.77994 0.0
H1167 H 0.16861 0.05186 0.78622 0.0
C1168 C 0.15755 0.1074 0.82669 0.0
N1169 N 0.1629 0.09492 0.82024 0.0
C1170 C 0.16307 0.10546 0.83584 0.0
C1171 C 0.17914 0.07748 0.83165 0.0
C1172 C 0.17346 0.0801 0.82251 0.0
C1173 C 0.174 0.09036 0.83841 0.0
H1174 H 0.14889 0.11882 0.82474 0.0
H1175 H 0.17742 0.07034 0.81722 0.0
C1176 C 0.14573 0.10494 0.77675 0.0
N1177 N 0.15589 0.10189 0.75841 0.0
C1178 C 0.15382 0.11988 0.7722 0.0
C1179 C 0.14263 0.08851 0.77195 0.0
C1180 C 0.15888 0.11806 0.76293 0.0
C1181 C 0.14793 0.08722 0.76269 0.0
C1182 C 0.12435 0.13043 0.80817 0.0
C1183 C 0.10599 0.13274 0.80548 0.0
C1184 C 0.13353 0.14488 0.81262 0.0
C1185 C 0.09712 0.14944 0.8073 0.0
C1186 C 0.12419 0.16138 0.8143 0.0
N1187 N 0.10633 0.16329 0.81163 0.0
C1188 C 0.09563 0.08314 0.80318 0.0
C1189 C 0.09843 0.08488 0.78687 0.0
C1190 C 0.07709 0.07832 0.80241 0.0
N1191 N 0.10578 0.08648 0.79546 0.0
C1192 C 0.07996 0.08005 0.78578 0.0
C1193 C 0.06895 0.07703 0.79362 0.0
H1194 H 0.10182 0.08479 0.80993 0.0
H1195 H 0.10678 0.08777 0.78087 0.0
C1196 C 0.1687 0.15597 0.79427 0.0
N1197 N 0.15213 0.14748 0.79332 0.0
C1198 C 0.17019 0.17498 0.79304 0.0
C1199 C 0.13762 0.1761 0.78963 0.0
C1200 C 0.13686 0.157 0.79073 0.0
C1201 C 0.15441 0.18545 0.79093 0.0
H1202 H 0.18074 0.148 0.79609 0.0
H1203 H 0.12392 0.14982 0.78984 0.0
O1204 O 0.14915 0.07582 0.80104 0.0
O1205 O 0.17397 0.11018 0.79928 0.0
O1206 O 0.14106 0.10633 0.78589 0.0
O1207 O 0.1333 0.11418 0.80641 0.0
H1208 H 0.13668 0.06569 0.81748 0.0
H1209 H 0.13491 0.05374 0.78834 0.0
H1210 H 0.11503 0.0398 0.82022 0.0
H1211 H 0.11324 0.02808 0.79159 0.0
H1212 H 0.20887 0.1325 0.82283 0.0
H1213 H 0.19934 0.08396 0.7994 0.0
H1214 H 0.18206 0.13464 0.81223 0.0
H1215 H 0.22587 0.08274 0.81021 0.0
H1216 H 0.18829 0.03823 0.77397 0.0
H1217 H 0.20784 0.09296 0.76746 0.0
H1218 H 0.1585 0.11548 0.8409 0.0
H1219 H 0.18753 0.06564 0.83339 0.0
H1220 H 0.15635 0.13269 0.7758 0.0
H1221 H 0.13654 0.07675 0.77538 0.0
H1222 H 0.16525 0.12947 0.75933 0.0
H1223 H 0.1458 0.07452 0.75891 0.0
H1224 H 0.09867 0.12185 0.80194 0.0
H1225 H 0.14787 0.14356 0.81455 0.0
H1226 H 0.08293 0.15141 0.80524 0.0
H1227 H 0.13119 0.1727 0.81766 0.0
H1228 H 0.06906 0.07643 0.80865 0.0
H1229 H 0.07429 0.07903 0.77887 0.0
H1230 H 0.18357 0.18138 0.79383 0.0
H1231 H 0.12501 0.18344 0.78808 0.0
Li1232 Li 0.66118 0.40802 0.54103 0.0
Li1233 Li 0.6576 0.40243 0.55756 0.0
Li1234 Li 0.6595 0.37787 0.54643 0.0
Li1235 Li 0.63172 0.39721 0.54693 0.0
C1236 C 0.69401 0.38506 0.54931 0.0
N1237 N 0.72384 0.36138 0.54882 0.0
C1238 C 0.70247 0.37944 0.55751 0.0
C1239 C 0.70095 0.37889 0.54085 0.0
C1240 C 0.71748 0.36741 0.55713 0.0
C1241 C 0.71597 0.36685 0.54074 0.0
C1242 C 0.64949 0.4386 0.55113 0.0
C1243 C 0.64229 0.47084 0.55299 0.0
N1244 N 0.66057 0.47467 0.55374 0.0
C1245 C 0.66823 0.44286 0.55191 0.0
C1246 C 0.63641 0.4527 0.55166 0.0
C1247 C 0.67354 0.46117 0.55323 0.0
C1248 C 0.65929 0.43446 0.52723 0.0
N1249 N 0.67143 0.42417 0.53216 0.0
C1250 C 0.69679 0.43658 0.52368 0.0
C1251 C 0.68991 0.42526 0.53068 0.0
C1252 C 0.68441 0.44655 0.51818 0.0
C1253 C 0.66549 0.44561 0.52007 0.0
H1254 H 0.64472 0.43363 0.52874 0.0
H1255 H 0.69926 0.41724 0.53488 0.0
C1256 C 0.66805 0.39453 0.57557 0.0
N1257 N 0.66272 0.40879 0.5701 0.0
C1258 C 0.67066 0.39713 0.58503 0.0
C1259 C 0.66209 0.42908 0.58312 0.0
C1260 C 0.65961 0.42584 0.57369 0.0
C1261 C 0.66754 0.41458 0.58893 0.0
H1262 H 0.6697 0.38094 0.57262 0.0
H1263 H 0.65468 0.43687 0.56937 0.0
C1264 C 0.64366 0.39237 0.52684 0.0
N1265 N 0.64057 0.4021 0.50842 0.0
C1266 C 0.62702 0.39922 0.52339 0.0
C1267 C 0.65864 0.39018 0.52085 0.0
C1268 C 0.62575 0.40412 0.51407 0.0
C1269 C 0.65684 0.39527 0.51158 0.0
C1270 C 0.62974 0.38002 0.56404 0.0
C1271 C 0.62659 0.36349 0.56874 0.0
C1272 C 0.62083 0.39611 0.56694 0.0
C1273 C 0.6145 0.3633 0.57625 0.0
C1274 C 0.60885 0.39535 0.57449 0.0
N1275 N 0.60596 0.3791 0.57895 0.0
C1276 C 0.67092 0.34255 0.55219 0.0
C1277 C 0.6686 0.34656 0.53597 0.0
C1278 C 0.67565 0.32405 0.55103 0.0
N1279 N 0.66733 0.35326 0.54471 0.0
C1280 C 0.67338 0.32821 0.53448 0.0
C1281 C 0.67664 0.31659 0.54207 0.0
H1282 H 0.66972 0.34832 0.55906 0.0
H1283 H 0.66561 0.35538 0.53016 0.0
C1284 C 0.59707 0.41395 0.54379 0.0
N1285 N 0.60562 0.39788 0.546 0.0
C1286 C 0.57785 0.41483 0.54345 0.0
C1287 C 0.57666 0.38262 0.54772 0.0
C1288 C 0.59589 0.3823 0.54784 0.0
C1289 C 0.56742 0.39906 0.54554 0.0
H1290 H 0.60519 0.42608 0.5423 0.0
H1291 H 0.60308 0.36969 0.54953 0.0
O1292 O 0.67904 0.39655 0.54955 0.0
O1293 O 0.64393 0.42082 0.54964 0.0
O1294 O 0.6452 0.38771 0.53599 0.0
O1295 O 0.64168 0.38039 0.55672 0.0
H1296 H 0.69759 0.38436 0.56412 0.0
H1297 H 0.69468 0.38317 0.53443 0.0
H1298 H 0.72409 0.36288 0.56343 0.0
H1299 H 0.72134 0.36183 0.53424 0.0
H1300 H 0.63231 0.48188 0.55343 0.0
H1301 H 0.67857 0.43217 0.55154 0.0
H1302 H 0.62187 0.44966 0.55106 0.0
H1303 H 0.68798 0.46466 0.55385 0.0
H1304 H 0.71149 0.4372 0.52242 0.0
H1305 H 0.65563 0.45342 0.51603 0.0
H1306 H 0.6744 0.38544 0.58929 0.0
H1307 H 0.65953 0.44275 0.58583 0.0
H1308 H 0.6152 0.40081 0.52785 0.0
H1309 H 0.67163 0.3849 0.52335 0.0
H1310 H 0.61298 0.40954 0.51134 0.0
H1311 H 0.6684 0.39385 0.50692 0.0
H1312 H 0.63344 0.35094 0.56659 0.0
H1313 H 0.62314 0.40906 0.56343 0.0
H1314 H 0.61192 0.3506 0.57994 0.0
H1315 H 0.60186 0.40768 0.5768 0.0
H1316 H 0.67781 0.31555 0.55708 0.0
H1317 H 0.67423 0.32311 0.52746 0.0
H1318 H 0.57122 0.42779 0.54179 0.0
H1319 H 0.5691 0.37012 0.54926 0.0
Li1320 Li 0.34885 0.87965 0.29731 0.0
Li1321 Li 0.37044 0.90591 0.29679 0.0
Li1322 Li 0.34259 0.90702 0.3071 0.0
Li1323 Li 0.34038 0.91007 0.29056 0.0
C1324 C 0.37064 0.88053 0.31493 0.0
N1325 N 0.38414 0.86174 0.33014 0.0
C1326 C 0.38926 0.87567 0.31541 0.0
C1327 C 0.35896 0.87601 0.32229 0.0
C1328 C 0.3958 0.86611 0.32313 0.0
C1329 C 0.36602 0.86648 0.32989 0.0
C1330 C 0.37339 0.88868 0.28037 0.0
C1331 C 0.39718 0.89918 0.26998 0.0
N1332 N 0.40268 0.88144 0.26871 0.0
C1333 C 0.37924 0.87054 0.27894 0.0
C1334 C 0.38237 0.90312 0.27582 0.0
C1335 C 0.39408 0.86717 0.27303 0.0
C1336 C 0.33277 0.84588 0.29168 0.0
N1337 N 0.34708 0.85351 0.29639 0.0
C1338 C 0.35862 0.82372 0.30036 0.0
C1339 C 0.36006 0.84288 0.30056 0.0
C1340 C 0.34379 0.81542 0.29572 0.0
C1341 C 0.33086 0.82672 0.29124 0.0
H1342 H 0.3227 0.8547 0.28839 0.0
H1343 H 0.37155 0.84924 0.30405 0.0
C1344 C 0.40144 0.92973 0.29616 0.0
N1345 N 0.39578 0.91189 0.2957 0.0
C1346 C 0.41996 0.93415 0.29475 0.0
C1347 C 0.42638 0.90174 0.29255 0.0
C1348 C 0.40783 0.89796 0.29404 0.0
C1349 C 0.43263 0.92004 0.2928 0.0
H1350 H 0.39154 0.94053 0.29753 0.0
H1351 H 0.40295 0.8839 0.29373 0.0
C1352 C 0.31109 0.88487 0.30314 0.0
N1353 N 0.28262 0.86681 0.31206 0.0
C1354 C 0.29278 0.88963 0.3013 0.0
C1355 C 0.31486 0.87072 0.30941 0.0
C1356 C 0.27859 0.8804 0.30591 0.0
C1357 C 0.30031 0.8618 0.31387 0.0
C1358 C 0.34686 0.94323 0.29627 0.0
C1359 C 0.33141 0.95105 0.30049 0.0
C1360 C 0.35511 0.95211 0.28876 0.0
C1361 C 0.32437 0.96763 0.29708 0.0
C1362 C 0.34763 0.96865 0.28554 0.0
N1363 N 0.33254 0.976 0.28973 0.0
C1364 C 0.34797 0.92026 0.32479 0.0
C1365 C 0.31642 0.91498 0.32146 0.0
C1366 C 0.34377 0.92461 0.33392 0.0
N1367 N 0.33442 0.91508 0.31886 0.0
C1368 C 0.31158 0.91922 0.33055 0.0
C1369 C 0.32541 0.92374 0.33696 0.0
H1370 H 0.36215 0.9203 0.32248 0.0
H1371 H 0.30585 0.91128 0.31656 0.0
C1372 C 0.33442 0.92419 0.27258 0.0
N1373 N 0.32677 0.92185 0.28107 0.0
C1374 C 0.32429 0.93226 0.26547 0.0
C1375 C 0.29862 0.93549 0.276 0.0
C1376 C 0.3094 0.92769 0.28295 0.0
C1377 C 0.30592 0.93757 0.26705 0.0
H1378 H 0.3483 0.91959 0.27129 0.0
H1379 H 0.30385 0.92602 0.28982 0.0
O1380 O 0.36408 0.89003 0.30741 0.0
O1381 O 0.35893 0.89222 0.28618 0.0
O1382 O 0.32514 0.89383 0.29867 0.0
O1383 O 0.35365 0.92677 0.29936 0.0
H1384 H 0.39861 0.87915 0.30989 0.0
H1385 H 0.34465 0.88002 0.32225 0.0
H1386 H 0.41016 0.86219 0.32354 0.0
H1387 H 0.35711 0.86293 0.33561 0.0
H1388 H 0.40437 0.91023 0.26649 0.0
H1389 H 0.37242 0.85918 0.28236 0.0
H1390 H 0.37827 0.91727 0.27696 0.0
H1391 H 0.39878 0.85321 0.27188 0.0
H1392 H 0.36906 0.81548 0.30375 0.0
H1393 H 0.3192 0.82083 0.28762 0.0
H1394 H 0.42425 0.94844 0.295 0.0
H1395 H 0.43576 0.89041 0.29125 0.0
H1396 H 0.2895 0.90035 0.29639 0.0
H1397 H 0.32883 0.86645 0.31072 0.0
H1398 H 0.26438 0.88404 0.30459 0.0
H1399 H 0.30309 0.85084 0.31874 0.0
H1400 H 0.32482 0.94429 0.30628 0.0
H1401 H 0.36699 0.94615 0.28537 0.0
H1402 H 0.31236 0.9738 0.30025 0.0
H1403 H 0.35378 0.97561 0.2797 0.0
H1404 H 0.3549 0.9278 0.33864 0.0
H1405 H 0.29723 0.91868 0.33258 0.0
H1406 H 0.3307 0.93395 0.25877 0.0
H1407 H 0.2845 0.93916 0.27757 0.0
Li1408 Li 0.66013 0.11836 0.54598 0.0
Li1409 Li 0.65691 0.09572 0.5584 0.0
Li1410 Li 0.66529 0.08673 0.54281 0.0
Li1411 Li 0.63387 0.09712 0.54632 0.0
C1412 C 0.69655 0.09552 0.55074 0.0
N1413 N 0.73096 0.07967 0.54892 0.0
C1414 C 0.70329 0.08382 0.55762 0.0
C1415 C 0.70735 0.0993 0.54297 0.0
C1416 C 0.72072 0.07592 0.55657 0.0
C1417 C 0.72469 0.0911 0.54216 0.0
C1418 C 0.63608 0.1241 0.56357 0.0
C1419 C 0.6204 0.12286 0.57826 0.0
N1420 N 0.62874 0.13887 0.58078 0.0
C1421 C 0.64443 0.14059 0.56629 0.0
C1422 C 0.62388 0.1152 0.56957 0.0
C1423 C 0.64055 0.14783 0.57502 0.0
C1424 C 0.65255 0.15485 0.54164 0.0
N1425 N 0.66661 0.14299 0.54334 0.0
C1426 C 0.68869 0.1672 0.54188 0.0
C1427 C 0.68444 0.1487 0.54348 0.0
C1428 C 0.67441 0.17977 0.54008 0.0
C1429 C 0.65616 0.17337 0.53992 0.0
H1430 H 0.63848 0.14992 0.54177 0.0
H1431 H 0.69531 0.13896 0.54497 0.0
C1432 C 0.65522 0.07465 0.57473 0.0
N1433 N 0.6606 0.09109 0.57113 0.0
C1434 C 0.65631 0.07158 0.58424 0.0
C1435 C 0.66889 0.10225 0.58608 0.0
C1436 C 0.66793 0.10457 0.57652 0.0
C1437 C 0.66279 0.08567 0.59001 0.0
H1438 H 0.64974 0.06407 0.57025 0.0
H1439 H 0.67253 0.11732 0.57342 0.0
C1440 C 0.64849 0.11649 0.52881 0.0
N1441 N 0.64633 0.14376 0.51553 0.0
C1442 C 0.63145 0.12423 0.52653 0.0
C1443 C 0.66441 0.12251 0.52429 0.0
C1444 C 0.63065 0.13802 0.5198 0.0
C1445 C 0.66304 0.13636 0.51762 0.0
C1446 C 0.6342 0.06151 0.55038 0.0
C1447 C 0.63516 0.04892 0.54308 0.0
C1448 C 0.61971 0.0604 0.55672 0.0
C1449 C 0.62151 0.03546 0.54222 0.0
C1450 C 0.6063 0.04677 0.5556 0.0
N1451 N 0.60747 0.03469 0.54843 0.0
C1452 C 0.68637 0.05468 0.54041 0.0
C1453 C 0.68012 0.07119 0.52661 0.0
C1454 C 0.69484 0.04061 0.53541 0.0
N1455 N 0.67902 0.06941 0.53594 0.0
C1456 C 0.68836 0.0574 0.52134 0.0
C1457 C 0.69546 0.04162 0.52572 0.0
H1458 H 0.68505 0.05357 0.54784 0.0
H1459 H 0.67388 0.08292 0.52324 0.0
C1460 C 0.59673 0.10671 0.5482 0.0
N1461 N 0.60821 0.09497 0.54369 0.0
C1462 C 0.5778 0.10605 0.54666 0.0
C1463 C 0.58272 0.08134 0.53573 0.0
C1464 C 0.60166 0.08262 0.53742 0.0
C1465 C 0.57055 0.0932 0.54038 0.0
H1466 H 0.60228 0.11669 0.55298 0.0
H1467 H 0.61112 0.0738 0.53372 0.0
O1468 O 0.67941 0.10317 0.55158 0.0
O1469 O 0.63991 0.11664 0.5551 0.0
O1470 O 0.6496 0.1032 0.53549 0.0
O1471 O 0.64734 0.0749 0.5513 0.0
H1472 H 0.69509 0.08074 0.56368 0.0
H1473 H 0.70229 0.10827 0.53756 0.0
H1474 H 0.72608 0.06676 0.56182 0.0
H1475 H 0.73315 0.09378 0.53616 0.0
H1476 H 0.61111 0.11604 0.583 0.0
H1477 H 0.65396 0.14763 0.56175 0.0
H1478 H 0.61733 0.10241 0.56758 0.0
H1479 H 0.64698 0.16053 0.57724 0.0
H1480 H 0.70293 0.17164 0.54206 0.0
H1481 H 0.64473 0.18269 0.53876 0.0
H1482 H 0.65149 0.05863 0.58708 0.0
H1483 H 0.67414 0.11332 0.59035 0.0
H1484 H 0.61899 0.11975 0.52996 0.0
H1485 H 0.67772 0.11673 0.52601 0.0
H1486 H 0.61757 0.1442 0.51799 0.0
H1487 H 0.67526 0.14125 0.51411 0.0
H1488 H 0.64622 0.04962 0.53808 0.0
H1489 H 0.61874 0.07007 0.56239 0.0
H1490 H 0.62203 0.02567 0.53658 0.0
H1491 H 0.59495 0.04582 0.56042 0.0
H1492 H 0.70025 0.02877 0.53908 0.0
H1493 H 0.68819 0.05862 0.51388 0.0
H1494 H 0.56889 0.11538 0.55043 0.0
H1495 H 0.57769 0.0714 0.53075 0.0
Li1496 Li 0.15484 0.41276 0.80689 0.0
Li1497 Li 0.12941 0.41459 0.79588 0.0
Li1498 Li 0.15147 0.3876 0.79604 0.0
Li1499 Li 0.16112 0.41796 0.79013 0.0
C1500 C 0.12771 0.39221 0.81433 0.0
N1501 N 0.11632 0.38576 0.83226 0.0
C1502 C 0.11206 0.40106 0.81779 0.0
C1503 C 0.1374 0.37987 0.81993 0.0
C1504 C 0.10656 0.39766 0.82689 0.0
C1505 C 0.13148 0.37687 0.82899 0.0
C1506 C 0.14179 0.45157 0.79737 0.0
C1507 C 0.13264 0.4755 0.78675 0.0
N1508 N 0.12978 0.48708 0.794 0.0
C1509 C 0.13891 0.46375 0.80471 0.0
C1510 C 0.13875 0.45752 0.78831 0.0
C1511 C 0.13278 0.48163 0.80287 0.0
C1512 C 0.17873 0.41468 0.82235 0.0
N1513 N 0.1617 0.419 0.81912 0.0
C1514 C 0.15266 0.43037 0.83391 0.0
C1515 C 0.14891 0.42718 0.8246 0.0
C1516 C 0.16992 0.42546 0.83758 0.0
C1517 C 0.1832 0.41788 0.83159 0.0
H1518 H 0.18877 0.40851 0.81778 0.0
H1519 H 0.13558 0.43075 0.82179 0.0
C1520 C 0.09443 0.40918 0.78872 0.0
N1521 N 0.10451 0.42109 0.7939 0.0
C1522 C 0.07584 0.41261 0.78705 0.0
C1523 C 0.07831 0.44048 0.79614 0.0
C1524 C 0.09686 0.43645 0.79766 0.0
C1525 C 0.06752 0.42843 0.79079 0.0
H1526 H 0.10082 0.39687 0.78598 0.0
H1527 H 0.10503 0.44545 0.80196 0.0
C1528 C 0.18843 0.38926 0.79898 0.0
N1529 N 0.21665 0.36371 0.79877 0.0
C1530 C 0.20149 0.38952 0.79189 0.0
C1531 C 0.18984 0.37616 0.80603 0.0
C1532 C 0.21563 0.37645 0.79189 0.0
C1533 C 0.20416 0.36331 0.80578 0.0
C1534 C 0.13754 0.40085 0.77624 0.0
C1535 C 0.14326 0.38573 0.77098 0.0
C1536 C 0.12754 0.41501 0.77203 0.0
C1537 C 0.1392 0.38522 0.76154 0.0
C1538 C 0.12373 0.41398 0.76258 0.0
N1539 N 0.12962 0.39924 0.75757 0.0
C1540 C 0.13925 0.35127 0.79813 0.0
C1541 C 0.16647 0.35376 0.78916 0.0
C1542 C 0.13924 0.33215 0.79708 0.0
N1543 N 0.15281 0.36162 0.79425 0.0
C1544 C 0.16721 0.33465 0.78809 0.0
C1545 C 0.15345 0.32364 0.79208 0.0
H1546 H 0.1284 0.35788 0.80203 0.0
H1547 H 0.17674 0.36231 0.78588 0.0
C1548 C 0.18294 0.44713 0.78301 0.0
N1549 N 0.17594 0.43008 0.78128 0.0
C1550 C 0.19369 0.45604 0.77635 0.0
C1551 C 0.18989 0.42954 0.76638 0.0
C1552 C 0.17943 0.42113 0.77324 0.0
C1553 C 0.1971 0.44724 0.76788 0.0
H1554 H 0.18019 0.4538 0.78955 0.0
H1555 H 0.17438 0.40731 0.7722 0.0
O1556 O 0.13344 0.39555 0.80548 0.0
O1557 O 0.1477 0.43399 0.79907 0.0
O1558 O 0.17445 0.4019 0.79907 0.0
O1559 O 0.14137 0.4015 0.7855 0.0
H1560 H 0.10435 0.41059 0.81353 0.0
H1561 H 0.1494 0.37275 0.81731 0.0
H1562 H 0.09455 0.40452 0.82968 0.0
H1563 H 0.13892 0.36745 0.83343 0.0
H1564 H 0.13022 0.48028 0.77977 0.0
H1565 H 0.14132 0.4594 0.81176 0.0
H1566 H 0.14128 0.44842 0.78254 0.0
H1567 H 0.13041 0.49117 0.80849 0.0
H1568 H 0.14186 0.43601 0.83822 0.0
H1569 H 0.19682 0.41425 0.83403 0.0
H1570 H 0.06798 0.4027 0.78308 0.0
H1571 H 0.07247 0.45283 0.79914 0.0
H1572 H 0.2007 0.39966 0.78642 0.0
H1573 H 0.17992 0.37585 0.8116 0.0
H1574 H 0.2258 0.37643 0.78642 0.0
H1575 H 0.20535 0.35301 0.81115 0.0
H1576 H 0.15088 0.37458 0.77414 0.0
H1577 H 0.12254 0.42656 0.77601 0.0
H1578 H 0.14367 0.37367 0.75738 0.0
H1579 H 0.11602 0.42486 0.75923 0.0
H1580 H 0.12842 0.32406 0.80027 0.0
H1581 H 0.17824 0.32855 0.78408 0.0
H1582 H 0.19919 0.46962 0.77777 0.0
H1583 H 0.19272 0.42204 0.76006 0.0
Li1584 Li 0.83821 0.90188 0.05748 0.0
Li1585 Li 0.83659 0.87999 0.04466 0.0
Li1586 Li 0.86223 0.90189 0.04584 0.0
Li1587 Li 0.83079 0.91167 0.04188 0.0
C1588 C 0.85975 0.87397 0.0626 0.0
N1589 N 0.86683 0.85867 0.07972 0.0
C1590 C 0.85163 0.85723 0.06509 0.0
C1591 C 0.87161 0.88285 0.06877 0.0
C1592 C 0.85537 0.84973 0.07379 0.0
C1593 C 0.87496 0.87493 0.07741 0.0
C1594 C 0.79925 0.9017 0.04907 0.0
C1595 C 0.77166 0.90622 0.04006 0.0
N1596 N 0.76473 0.91712 0.04688 0.0
C1597 C 0.79183 0.91287 0.056 0.0
C1598 C 0.78907 0.89825 0.04105 0.0
C1599 C 0.77436 0.92056 0.05476 0.0
C1600 C 0.83815 0.92167 0.07427 0.0
N1601 N 0.83342 0.90544 0.07022 0.0
C1602 C 0.82404 0.89293 0.08473 0.0
C1603 C 0.82591 0.8914 0.07517 0.0
C1604 C 0.82944 0.90928 0.08913 0.0
C1605 C 0.83616 0.92394 0.08379 0.0
H1606 H 0.8438 0.9327 0.07013 0.0
H1607 H 0.82185 0.87883 0.07171 0.0
C1608 C 0.8458 0.84391 0.04033 0.0
N1609 N 0.83117 0.85533 0.04151 0.0
C1610 C 0.84303 0.82537 0.03832 0.0
C1611 C 0.81013 0.83064 0.03878 0.0
C1612 C 0.81355 0.84917 0.04076 0.0
C1613 C 0.825 0.81847 0.03759 0.0
H1614 H 0.85964 0.84922 0.04112 0.0
H1615 H 0.8022 0.85857 0.04181 0.0
C1616 C 0.86047 0.93731 0.05053 0.0
N1617 N 0.88629 0.96525 0.04971 0.0
C1618 C 0.85957 0.95051 0.0435 0.0
C1619 C 0.87444 0.93837 0.05716 0.0
C1620 C 0.87276 0.96453 0.04321 0.0
C1621 C 0.88739 0.95258 0.05661 0.0
C1622 C 0.84949 0.88309 0.02784 0.0
C1623 C 0.86688 0.87582 0.02587 0.0
C1624 C 0.83412 0.87689 0.02292 0.0
C1625 C 0.86858 0.86231 0.01904 0.0
C1626 C 0.83639 0.86334 0.01615 0.0
N1627 N 0.85343 0.85638 0.01437 0.0
C1628 C 0.89932 0.8921 0.0477 0.0
C1629 C 0.89474 0.91799 0.03798 0.0
C1630 C 0.91827 0.89278 0.0462 0.0
N1631 N 0.888 0.90466 0.04366 0.0
C1632 C 0.9137 0.91937 0.0364 0.0
C1633 C 0.92568 0.90657 0.0405 0.0
H1634 H 0.8936 0.88135 0.052 0.0
H1635 H 0.88541 0.92743 0.0346 0.0
C1636 C 0.80914 0.94346 0.03942 0.0
N1637 N 0.81713 0.92903 0.03498 0.0
C1638 C 0.80068 0.95749 0.03438 0.0
C1639 C 0.80842 0.94122 0.02031 0.0
C1640 C 0.81666 0.92749 0.02563 0.0
C1641 C 0.80068 0.95671 0.02468 0.0
H1642 H 0.80994 0.94437 0.04688 0.0
H1643 H 0.82339 0.91602 0.02228 0.0
O1644 O 0.85603 0.88169 0.05418 0.0
O1645 O 0.81645 0.89429 0.0501 0.0
O1646 O 0.84776 0.92341 0.05092 0.0
O1647 O 0.84748 0.89607 0.03463 0.0
H1648 H 0.84235 0.8502 0.06042 0.0
H1649 H 0.87802 0.8958 0.06694 0.0
H1650 H 0.84909 0.83683 0.07584 0.0
H1651 H 0.884 0.88172 0.08229 0.0
H1652 H 0.76368 0.90378 0.03387 0.0
H1653 H 0.79954 0.9157 0.06224 0.0
H1654 H 0.79466 0.88972 0.0356 0.0
H1655 H 0.76847 0.9293 0.06004 0.0
H1656 H 0.81863 0.88142 0.08865 0.0
H1657 H 0.84048 0.93673 0.08699 0.0
H1658 H 0.85489 0.81641 0.03764 0.0
H1659 H 0.79603 0.82586 0.03826 0.0
H1660 H 0.84893 0.94986 0.03828 0.0
H1661 H 0.87534 0.92826 0.06264 0.0
H1662 H 0.87227 0.9748 0.03779 0.0
H1663 H 0.89832 0.95351 0.06167 0.0
H1664 H 0.87893 0.88044 0.02961 0.0
H1665 H 0.82054 0.88227 0.0244 0.0
H1666 H 0.88195 0.85649 0.01747 0.0
H1667 H 0.8246 0.8583 0.01234 0.0
H1668 H 0.92707 0.88269 0.04951 0.0
H1669 H 0.9189 0.93005 0.03186 0.0
H1670 H 0.79479 0.96913 0.03802 0.0
H1671 H 0.8091 0.9402 0.01285 0.0
Li1672 Li 0.37004 0.58747 0.29731 0.0
Li1673 Li 0.3452 0.58671 0.30874 0.0
Li1674 Li 0.33911 0.58287 0.29238 0.0
Li1675 Li 0.34797 0.61294 0.29855 0.0
C1676 C 0.34622 0.55012 0.29847 0.0
N1677 N 0.32909 0.5175 0.29366 0.0
C1678 C 0.33104 0.54384 0.30352 0.0
C1679 C 0.35271 0.5398 0.29099 0.0
C1680 C 0.32257 0.52731 0.30097 0.0
C1681 C 0.34385 0.52335 0.28866 0.0
C1682 C 0.37249 0.60574 0.31656 0.0
C1683 C 0.36918 0.61601 0.33234 0.0
N1684 N 0.38495 0.60695 0.33461 0.0
C1685 C 0.38872 0.5966 0.31904 0.0
C1686 C 0.3627 0.61562 0.32325 0.0
C1687 C 0.39478 0.59738 0.3282 0.0
C1688 C 0.40672 0.59706 0.29476 0.0
N1689 N 0.39524 0.58231 0.29527 0.0
C1690 C 0.42025 0.56157 0.29266 0.0
C1691 C 0.40157 0.56478 0.29435 0.0
C1692 C 0.43235 0.5766 0.29189 0.0
C1693 C 0.42539 0.59452 0.29299 0.0
H1694 H 0.40129 0.61081 0.29569 0.0
H1695 H 0.39214 0.55332 0.29493 0.0
C1696 C 0.32304 0.58414 0.32486 0.0
N1697 N 0.33927 0.57912 0.32091 0.0
C1698 C 0.32014 0.5812 0.33429 0.0
C1699 C 0.35028 0.56707 0.33521 0.0
C1700 C 0.35243 0.56994 0.32575 0.0
C1701 C 0.33419 0.5732 0.3396 0.0
H1702 H 0.31266 0.59106 0.32079 0.0
H1703 H 0.36502 0.56577 0.32235 0.0
C1704 C 0.37081 0.60463 0.28119 0.0
N1705 N 0.4 0.6126 0.26957 0.0
C1706 C 0.37708 0.62275 0.28028 0.0
C1707 C 0.37935 0.59057 0.27614 0.0
C1708 C 0.39185 0.6265 0.27438 0.0
C1709 C 0.3941 0.59487 0.27033 0.0
C1710 C 0.31253 0.61188 0.30145 0.0
C1711 C 0.30143 0.61468 0.29367 0.0
C1712 C 0.3108 0.62364 0.30906 0.0
C1713 C 0.28875 0.62917 0.29366 0.0
C1714 C 0.298 0.638 0.30876 0.0
N1715 N 0.28732 0.64044 0.30113 0.0
C1716 C 0.30584 0.56766 0.28588 0.0
C1717 C 0.33084 0.5657 0.2754 0.0
C1718 C 0.29384 0.56047 0.27927 0.0
N1719 N 0.32381 0.57067 0.28372 0.0
C1720 C 0.31946 0.55808 0.26865 0.0
C1721 C 0.30052 0.55601 0.27041 0.0
H1722 H 0.30069 0.57156 0.29262 0.0
H1723 H 0.34522 0.56796 0.27393 0.0
C1724 C 0.35428 0.64952 0.30404 0.0
N1725 N 0.34533 0.63907 0.29768 0.0
C1726 C 0.35276 0.66866 0.30386 0.0
C1727 C 0.33311 0.66608 0.29044 0.0
C1728 C 0.3351 0.64692 0.29085 0.0
C1729 C 0.34193 0.67722 0.29705 0.0
H1730 H 0.36276 0.64301 0.30922 0.0
H1731 H 0.32849 0.63831 0.28574 0.0
O1732 O 0.35435 0.56653 0.30069 0.0
O1733 O 0.36613 0.60485 0.30766 0.0
O1734 O 0.35648 0.60065 0.28702 0.0
O1735 O 0.32523 0.59793 0.30155 0.0
H1736 H 0.32573 0.55174 0.30927 0.0
H1737 H 0.36425 0.54461 0.28691 0.0
H1738 H 0.31077 0.52231 0.30479 0.0
H1739 H 0.34864 0.51529 0.28285 0.0
H1740 H 0.36163 0.62345 0.33759 0.0
H1741 H 0.39644 0.58879 0.314 0.0
H1742 H 0.35008 0.6227 0.32147 0.0
H1743 H 0.40725 0.59029 0.33023 0.0
H1744 H 0.42514 0.54756 0.29187 0.0
H1745 H 0.43435 0.60644 0.29264 0.0
H1746 H 0.30756 0.5861 0.33748 0.0
H1747 H 0.36132 0.56072 0.33912 0.0
H1748 H 0.37074 0.63382 0.28413 0.0
H1749 H 0.37502 0.5764 0.27691 0.0
H1750 H 0.39688 0.64046 0.27364 0.0
H1751 H 0.40096 0.5841 0.26647 0.0
H1752 H 0.30279 0.60598 0.28765 0.0
H1753 H 0.31941 0.62184 0.31509 0.0
H1754 H 0.28013 0.63153 0.28767 0.0
H1755 H 0.2966 0.64725 0.31458 0.0
H1756 H 0.27936 0.55932 0.28096 0.0
H1757 H 0.32538 0.55438 0.26204 0.0
H1758 H 0.36024 0.67667 0.30894 0.0
H1759 H 0.32459 0.67204 0.28507 0.0
Li1760 Li 0.66209 0.91067 0.45533 0.0
Li1761 Li 0.63223 0.90281 0.44852 0.0
Li1762 Li 0.65769 0.88057 0.44926 0.0
Li1763 Li 0.65885 0.90691 0.43873 0.0
C1764 C 0.63965 0.87748 0.46504 0.0
N1765 N 0.63091 0.84654 0.4753 0.0
C1766 C 0.62151 0.87102 0.46532 0.0
C1767 C 0.65333 0.86823 0.47004 0.0
C1768 C 0.61737 0.85537 0.47054 0.0
C1769 C 0.64864 0.8526 0.47516 0.0
C1770 C 0.63399 0.93896 0.44708 0.0
C1771 C 0.60826 0.95522 0.44038 0.0
N1772 N 0.6065 0.9652 0.44829 0.0
C1773 C 0.63193 0.94938 0.45514 0.0
C1774 C 0.62209 0.94191 0.43963 0.0
C1775 C 0.61796 0.96259 0.45561 0.0
C1776 C 0.67945 0.94208 0.46279 0.0
N1777 N 0.67409 0.92452 0.46464 0.0
C1778 C 0.68541 0.92674 0.48007 0.0
C1779 C 0.67709 0.91668 0.47302 0.0
C1780 C 0.69034 0.94522 0.47854 0.0
C1781 C 0.68755 0.95279 0.4697 0.0
H1782 H 0.67698 0.94789 0.45602 0.0
H1783 H 0.67284 0.90266 0.47427 0.0
C1784 C 0.59601 0.89623 0.44267 0.0
N1785 N 0.60608 0.90538 0.44912 0.0
C1786 C 0.57686 0.89759 0.44261 0.0
C1787 C 0.57863 0.91756 0.45594 0.0
C1788 C 0.59781 0.91565 0.4558 0.0
C1789 C 0.56788 0.90853 0.44924 0.0
H1790 H 0.60284 0.88769 0.43761 0.0
H1791 H 0.6061 0.9224 0.461 0.0
C1792 C 0.69512 0.90438 0.44925 0.0
N1793 N 0.7277 0.92062 0.45484 0.0
C1794 C 0.7022 0.91947 0.44441 0.0
C1795 C 0.70463 0.89752 0.45692 0.0
C1796 C 0.7187 0.92749 0.44734 0.0
C1797 C 0.72106 0.90594 0.45964 0.0
C1798 C 0.64007 0.88094 0.42979 0.0
C1799 C 0.64943 0.86525 0.42672 0.0
C1800 C 0.6302 0.89167 0.42347 0.0
C1801 C 0.64887 0.86065 0.41734 0.0
C1802 C 0.63002 0.88664 0.41415 0.0
N1803 N 0.63929 0.87136 0.41131 0.0
C1804 C 0.64861 0.8433 0.45048 0.0
C1805 C 0.6806 0.84932 0.45201 0.0
C1806 C 0.65146 0.82462 0.45217 0.0
N1807 N 0.66305 0.85521 0.45061 0.0
C1808 C 0.68411 0.8307 0.45367 0.0
C1809 C 0.66938 0.81816 0.45389 0.0
H1810 H 0.63484 0.84842 0.44923 0.0
H1811 H 0.69181 0.8591 0.45197 0.0
C1812 C 0.66193 0.93143 0.42353 0.0
N1813 N 0.66682 0.91464 0.42687 0.0
C1814 C 0.66577 0.93605 0.41436 0.0
C1815 C 0.68037 0.90634 0.41245 0.0
C1816 C 0.67652 0.90245 0.42168 0.0
C1817 C 0.67458 0.92317 0.40859 0.0
H1818 H 0.65465 0.94106 0.4279 0.0
H1819 H 0.68051 0.88933 0.4246 0.0
O1820 O 0.64401 0.89266 0.45985 0.0
O1821 O 0.64748 0.92583 0.44651 0.0
O1822 O 0.67873 0.89666 0.44663 0.0
O1823 O 0.64072 0.88587 0.43891 0.0
H1824 H 0.61073 0.87793 0.4615 0.0
H1825 H 0.66752 0.87273 0.46975 0.0
H1826 H 0.6034 0.8502 0.47079 0.0
H1827 H 0.65913 0.8452 0.47896 0.0
H1828 H 0.59889 0.95757 0.43468 0.0
H1829 H 0.64085 0.94714 0.46102 0.0
H1830 H 0.62337 0.93387 0.43337 0.0
H1831 H 0.61616 0.9707 0.46182 0.0
H1832 H 0.68764 0.92018 0.4867 0.0
H1833 H 0.69086 0.96702 0.46821 0.0
H1834 H 0.56919 0.88992 0.43747 0.0
H1835 H 0.57236 0.92617 0.46118 0.0
H1836 H 0.69496 0.92507 0.43851 0.0
H1837 H 0.69918 0.88605 0.46084 0.0
H1838 H 0.72431 0.93921 0.44368 0.0
H1839 H 0.72849 0.90087 0.4656 0.0
H1840 H 0.65721 0.85683 0.43149 0.0
H1841 H 0.62293 0.90389 0.42572 0.0
H1842 H 0.65612 0.8486 0.41486 0.0
H1843 H 0.62256 0.8949 0.40918 0.0
H1844 H 0.63978 0.81533 0.4521 0.0
H1845 H 0.69811 0.82623 0.45496 0.0
H1846 H 0.6615 0.94939 0.41179 0.0
H1847 H 0.68702 0.89585 0.4083 0.0
Li1848 Li 0.33507 0.41552 0.704 0.0
Li1849 Li 0.34474 0.38506 0.6993 0.0
Li1850 Li 0.36687 0.41091 0.70022 0.0
Li1851 Li 0.34352 0.41038 0.68804 0.0
C1852 C 0.3452 0.3909 0.71807 0.0
N1853 N 0.32968 0.37426 0.73338 0.0
C1854 C 0.32679 0.3852 0.71787 0.0
C1855 C 0.35571 0.3881 0.72603 0.0
C1856 C 0.3192 0.37682 0.72569 0.0
C1857 C 0.34761 0.37967 0.73371 0.0
C1858 C 0.31138 0.38834 0.68965 0.0
C1859 C 0.30692 0.36755 0.67684 0.0
N1860 N 0.28868 0.36648 0.67894 0.0
C1861 C 0.29259 0.38709 0.69166 0.0
C1862 C 0.31862 0.37852 0.68218 0.0
C1863 C 0.28134 0.37595 0.68617 0.0
C1864 C 0.3043 0.43733 0.70696 0.0
N1865 N 0.3187 0.42931 0.71139 0.0
C1866 C 0.30813 0.44057 0.72594 0.0
C1867 C 0.32115 0.43118 0.72065 0.0
C1868 C 0.29261 0.4484 0.72162 0.0
C1869 C 0.29109 0.44711 0.71195 0.0
H1870 H 0.30296 0.43586 0.69955 0.0
H1871 H 0.33299 0.42505 0.72398 0.0
C1872 C 0.35961 0.3505 0.70249 0.0
N1873 N 0.34323 0.35909 0.70107 0.0
C1874 C 0.36035 0.3314 0.70353 0.0
C1875 C 0.32724 0.33032 0.70185 0.0
C1876 C 0.32714 0.34949 0.70092 0.0
C1877 C 0.34404 0.32097 0.70308 0.0
H1878 H 0.37216 0.35854 0.70272 0.0
H1879 H 0.31422 0.35662 0.69999 0.0
C1880 C 0.35475 0.44734 0.70062 0.0
N1881 N 0.36269 0.47964 0.70992 0.0
C1882 C 0.35275 0.46432 0.69618 0.0
C1883 C 0.36074 0.44678 0.7098 0.0
C1884 C 0.35685 0.4805 0.70099 0.0
C1885 C 0.3647 0.46326 0.71438 0.0
C1886 C 0.37497 0.38496 0.68398 0.0
C1887 C 0.3909 0.39427 0.6812 0.0
C1888 C 0.37114 0.36752 0.68034 0.0
C1889 C 0.40258 0.38611 0.67471 0.0
C1890 C 0.38318 0.35982 0.67387 0.0
N1891 N 0.39851 0.3692 0.67121 0.0
C1892 C 0.40162 0.40409 0.70764 0.0
C1893 C 0.3996 0.4321 0.69926 0.0
C1894 C 0.42041 0.40685 0.70913 0.0
N1895 N 0.39174 0.41657 0.70271 0.0
C1896 C 0.4183 0.43552 0.70066 0.0
C1897 C 0.42904 0.42266 0.70554 0.0
H1898 H 0.39497 0.39175 0.71019 0.0
H1899 H 0.39147 0.44165 0.69523 0.0
C1900 C 0.32112 0.42023 0.67279 0.0
N1901 N 0.33872 0.41701 0.67558 0.0
C1902 C 0.31737 0.42436 0.66356 0.0
C1903 C 0.35003 0.42267 0.66036 0.0
C1904 C 0.35311 0.41855 0.66964 0.0
C1905 C 0.33194 0.42542 0.65718 0.0
H1906 H 0.30996 0.41943 0.67773 0.0
H1907 H 0.36699 0.41649 0.67208 0.0
O1908 O 0.35306 0.39903 0.7105 0.0
O1909 O 0.32252 0.39909 0.69503 0.0
O1910 O 0.35062 0.43143 0.69599 0.0
O1911 O 0.36351 0.3926 0.69045 0.0
H1912 H 0.31841 0.38724 0.71179 0.0
H1913 H 0.36999 0.3924 0.72627 0.0
H1914 H 0.30498 0.37236 0.72564 0.0
H1915 H 0.35558 0.37743 0.73992 0.0
H1916 H 0.31234 0.35989 0.67103 0.0
H1917 H 0.2868 0.39462 0.69744 0.0
H1918 H 0.33306 0.3795 0.68047 0.0
H1919 H 0.26678 0.37482 0.68766 0.0
H1920 H 0.30986 0.44095 0.73337 0.0
H1921 H 0.27962 0.45324 0.70828 0.0
H1922 H 0.37358 0.32491 0.70469 0.0
H1923 H 0.31432 0.32291 0.70141 0.0
H1924 H 0.34806 0.46498 0.68908 0.0
H1925 H 0.36235 0.43378 0.71336 0.0
H1926 H 0.35538 0.49375 0.69764 0.0
H1927 H 0.36936 0.46302 0.72148 0.0
H1928 H 0.3941 0.40776 0.68393 0.0
H1929 H 0.35906 0.35994 0.6825 0.0
H1930 H 0.41489 0.39323 0.67246 0.0
H1931 H 0.38036 0.34636 0.67098 0.0
H1932 H 0.42816 0.39639 0.71278 0.0
H1933 H 0.4243 0.44798 0.69785 0.0
H1934 H 0.30326 0.42669 0.66143 0.0
H1935 H 0.36167 0.42322 0.65569 0.0
Li1936 Li 0.86761 0.09716 0.94825 0.0
Li1937 Li 0.83788 0.08766 0.95474 0.0
Li1938 Li 0.84042 0.09607 0.93792 0.0
Li1939 Li 0.84117 0.1192 0.95015 0.0
C1940 C 0.86196 0.06024 0.94194 0.0
N1941 N 0.88132 0.02948 0.93618 0.0
C1942 C 0.8643 0.04524 0.94789 0.0
C1943 C 0.86915 0.05939 0.93298 0.0
C1944 C 0.87422 0.02988 0.94488 0.0
C1945 C 0.87898 0.04378 0.93022 0.0
C1946 C 0.85718 0.10261 0.96897 0.0
C1947 C 0.84426 0.10231 0.98433 0.0
N1948 N 0.86013 0.09476 0.9876 0.0
C1949 C 0.87342 0.09501 0.9725 0.0
C1950 C 0.84254 0.10645 0.97494 0.0
C1951 C 0.87462 0.0911 0.98194 0.0
C1952 C 0.90394 0.10997 0.94693 0.0
N1953 N 0.89378 0.09473 0.94889 0.0
C1954 C 0.92116 0.07717 0.95156 0.0
C1955 C 0.90197 0.07858 0.95132 0.0
C1956 C 0.93201 0.09255 0.9493 0.0
C1957 C 0.92315 0.10916 0.94703 0.0
H1958 H 0.89711 0.12278 0.94525 0.0
H1959 H 0.89364 0.06681 0.95314 0.0
C1960 C 0.80805 0.07063 0.96412 0.0
N1961 N 0.82672 0.07174 0.96347 0.0
C1962 C 0.79993 0.06002 0.97108 0.0
C1963 C 0.83042 0.05181 0.97643 0.0
C1964 C 0.83791 0.06226 0.9693 0.0
C1965 C 0.81123 0.0508 0.97743 0.0
H1966 H 0.79949 0.07819 0.95932 0.0
H1967 H 0.85268 0.06316 0.96855 0.0
C1968 C 0.86713 0.12188 0.93167 0.0
N1969 N 0.8848 0.13285 0.91565 0.0
C1970 C 0.86379 0.13935 0.92794 0.0
C1971 C 0.87971 0.11015 0.92733 0.0
C1972 C 0.87278 0.14459 0.91981 0.0
C1973 C 0.88844 0.1159 0.91923 0.0
C1974 C 0.80567 0.11355 0.94741 0.0
C1975 C 0.7975 0.12013 0.93931 0.0
C1976 C 0.79858 0.11887 0.95599 0.0
C1977 C 0.78256 0.1322 0.93992 0.0
C1978 C 0.78363 0.13099 0.95631 0.0
N1979 N 0.77601 0.13736 0.94834 0.0
C1980 C 0.82864 0.07365 0.92296 0.0
C1981 C 0.83044 0.10565 0.91982 0.0
C1982 C 0.82363 0.07004 0.91382 0.0
N1983 N 0.83231 0.09119 0.9257 0.0
C1984 C 0.8255 0.1027 0.91063 0.0
C1985 C 0.82223 0.08467 0.90748 0.0
H1986 H 0.82985 0.06244 0.92785 0.0
H1987 H 0.83288 0.11951 0.92224 0.0
C1988 C 0.83814 0.15075 0.96149 0.0
N1989 N 0.83485 0.14393 0.9529 0.0
C1990 C 0.83413 0.16911 0.96351 0.0
C1991 C 0.82334 0.17304 0.94783 0.0
C1992 C 0.82748 0.15458 0.94612 0.0
C1993 C 0.82685 0.18059 0.9566 0.0
H1994 H 0.84414 0.14203 0.96673 0.0
H1995 H 0.82508 0.14879 0.93935 0.0
O1996 O 0.85222 0.07538 0.94479 0.0
O1997 O 0.8557 0.10634 0.95972 0.0
O1998 O 0.85836 0.11651 0.93961 0.0
O1999 O 0.82052 0.10196 0.94695 0.0
H2000 H 0.85861 0.04548 0.95479 0.0
H2001 H 0.86697 0.07052 0.92815 0.0
H2002 H 0.87626 0.01826 0.94945 0.0
H2003 H 0.88465 0.04299 0.92332 0.0
H2004 H 0.83297 0.10506 0.98902 0.0
H2005 H 0.88495 0.09208 0.968 0.0
H2006 H 0.8299 0.11239 0.97235 0.0
H2007 H 0.88707 0.08512 0.98475 0.0
H2008 H 0.92743 0.0641 0.95336 0.0
H2009 H 0.93098 0.12146 0.94542 0.0
H2010 H 0.78506 0.05941 0.97164 0.0
H2011 H 0.83954 0.04458 0.98112 0.0
H2012 H 0.85431 0.14874 0.93125 0.0
H2013 H 0.88295 0.09688 0.93027 0.0
H2014 H 0.87021 0.15801 0.91682 0.0
H2015 H 0.89819 0.10692 0.91581 0.0
H2016 H 0.8027 0.11605 0.93261 0.0
H2017 H 0.80461 0.11379 0.96232 0.0
H2018 H 0.77618 0.13749 0.93371 0.0
H2019 H 0.7781 0.13532 0.96291 0.0
H2020 H 0.82095 0.05596 0.91172 0.0
H2021 H 0.82475 0.1144 0.906 0.0
H2022 H 0.83688 0.17429 0.9704 0.0
H2023 H 0.81802 0.18142 0.94224 0.0
Li2024 Li 0.1513 0.61361 0.1966 0.0
Li2025 Li 0.15992 0.58345 0.20304 0.0
Li2026 Li 0.15468 0.58703 0.18657 0.0
Li2027 Li 0.12939 0.58811 0.19766 0.0
C2028 C 0.18774 0.61129 0.19485 0.0
N2029 N 0.21525 0.63738 0.19661 0.0
C2030 C 0.1981 0.61231 0.20298 0.0
C2031 C 0.19145 0.62346 0.1876 0.0
C2032 C 0.21195 0.62561 0.20374 0.0
C2033 C 0.20538 0.63659 0.18863 0.0
C2034 C 0.12719 0.60456 0.21345 0.0
C2035 C 0.10504 0.59424 0.22475 0.0
N2036 N 0.09583 0.61048 0.22386 0.0
C2037 C 0.11755 0.62116 0.21266 0.0
C2038 C 0.12095 0.591 0.21956 0.0
C2039 C 0.10172 0.62388 0.21798 0.0
C2040 C 0.14414 0.65044 0.19165 0.0
N2041 N 0.15391 0.63972 0.19759 0.0
C2042 C 0.16665 0.66644 0.20487 0.0
C2043 C 0.16476 0.6473 0.20424 0.0
C2044 C 0.15701 0.67788 0.19869 0.0
C2045 C 0.1455 0.66959 0.19207 0.0
H2046 H 0.13508 0.64413 0.18664 0.0
H2047 H 0.17195 0.63849 0.20906 0.0
C2048 C 0.19039 0.56255 0.20802 0.0
N2049 N 0.17563 0.57162 0.21157 0.0
C2050 C 0.20351 0.55486 0.21389 0.0
C2051 C 0.18583 0.56581 0.22696 0.0
C2052 C 0.17296 0.5732 0.22082 0.0
C2053 C 0.20155 0.55684 0.2235 0.0
H2054 H 0.19223 0.56177 0.20061 0.0
H2055 H 0.16125 0.58079 0.22342 0.0
C2056 C 0.1297 0.60722 0.17802 0.0
N2057 N 0.12188 0.61066 0.15941 0.0
C2058 C 0.11434 0.59835 0.17425 0.0
C2059 C 0.14103 0.61789 0.17233 0.0
C2060 C 0.11062 0.60026 0.16482 0.0
C2061 C 0.13687 0.61943 0.16293 0.0
C2062 C 0.15191 0.55015 0.19698 0.0
C2063 C 0.16364 0.54071 0.19094 0.0
C2064 C 0.14731 0.54225 0.20548 0.0
C2065 C 0.17067 0.52356 0.19356 0.0
C2066 C 0.15467 0.5251 0.20785 0.0
N2067 N 0.1661 0.51619 0.20189 0.0
C2068 C 0.17946 0.58295 0.17168 0.0
C2069 C 0.14988 0.57002 0.16925 0.0
C2070 C 0.18476 0.57835 0.16271 0.0
N2071 N 0.16214 0.57912 0.17467 0.0
C2072 C 0.15444 0.56549 0.16018 0.0
C2073 C 0.17202 0.56991 0.15672 0.0
H2074 H 0.18909 0.58976 0.17624 0.0
H2075 H 0.13635 0.56673 0.17191 0.0
C2076 C 0.09194 0.59594 0.19654 0.0
N2077 N 0.10407 0.58287 0.1994 0.0
C2078 C 0.07306 0.59286 0.19728 0.0
C2079 C 0.0795 0.5633 0.20432 0.0
C2080 C 0.0983 0.56678 0.20325 0.0
C2081 C 0.06672 0.57636 0.20118 0.0
H2082 H 0.09697 0.60868 0.19359 0.0
H2083 H 0.10826 0.55667 0.20547 0.0
O2084 O 0.174 0.59848 0.194 0.0
O2085 O 0.14238 0.60142 0.20809 0.0
O2086 O 0.13376 0.60528 0.18721 0.0
O2087 O 0.14504 0.56704 0.19457 0.0
H2088 H 0.19539 0.6031 0.2087 0.0
H2089 H 0.18359 0.62286 0.18126 0.0
H2090 H 0.22002 0.62661 0.21 0.0
H2091 H 0.20833 0.64615 0.18309 0.0
H2092 H 0.09997 0.58382 0.22945 0.0
H2093 H 0.12212 0.63175 0.20792 0.0
H2094 H 0.12812 0.57798 0.22016 0.0
H2095 H 0.09406 0.63663 0.21742 0.0
H2096 H 0.1757 0.67217 0.21008 0.0
H2097 H 0.13737 0.6778 0.18734 0.0
H2098 H 0.21533 0.54793 0.21093 0.0
H2099 H 0.18395 0.56795 0.23431 0.0
H2100 H 0.10555 0.58982 0.1785 0.0
H2101 H 0.153 0.62479 0.17512 0.0
H2102 H 0.09884 0.5934 0.1618 0.0
H2103 H 0.14558 0.62757 0.15845 0.0
H2104 H 0.16737 0.5466 0.18434 0.0
H2105 H 0.13849 0.54947 0.2103 0.0
H2106 H 0.17981 0.51614 0.18898 0.0
H2107 H 0.15135 0.51891 0.21445 0.0
H2108 H 0.19861 0.58159 0.16047 0.0
H2109 H 0.14403 0.55918 0.15585 0.0
H2110 H 0.0635 0.60328 0.19487 0.0
H2111 H 0.07498 0.55043 0.20736 0.0
Li2112 Li 0.33905 0.90478 0.43591 0.0
Li2113 Li 0.33455 0.91074 0.45228 0.0
Li2114 Li 0.36567 0.90053 0.44647 0.0
Li2115 Li 0.33926 0.8795 0.4477 0.0
C2116 C 0.35784 0.93911 0.4394 0.0
N2117 N 0.37041 0.97078 0.43085 0.0
C2118 C 0.34849 0.95579 0.4406 0.0
C2119 C 0.37379 0.93864 0.43399 0.0
C2120 C 0.355 0.97162 0.43618 0.0
C2121 C 0.37987 0.95476 0.42969 0.0
C2122 C 0.3013 0.90151 0.44592 0.0
C2123 C 0.27512 0.90234 0.45618 0.0
N2124 N 0.2662 0.9136 0.45014 0.0
C2125 C 0.29182 0.91297 0.43978 0.0
C2126 C 0.29285 0.89602 0.45415 0.0
C2127 C 0.2741 0.91897 0.44205 0.0
C2128 C 0.33015 0.89675 0.41765 0.0
N2129 N 0.33201 0.91097 0.42368 0.0
C2130 C 0.32467 0.93274 0.41185 0.0
C2131 C 0.32899 0.92869 0.42103 0.0
C2132 C 0.32328 0.91836 0.40539 0.0
C2133 C 0.32585 0.90015 0.40842 0.0
H2134 H 0.33236 0.88277 0.41999 0.0
H2135 H 0.32992 0.9397 0.42602 0.0
C2136 C 0.3261 0.92417 0.46991 0.0
N2137 N 0.32242 0.92639 0.46078 0.0
C2138 C 0.31795 0.93574 0.47641 0.0
C2139 C 0.30211 0.95147 0.464 0.0
C2140 C 0.31068 0.93967 0.45773 0.0
C2141 C 0.30589 0.94973 0.47349 0.0
H2142 H 0.33569 0.91368 0.47212 0.0
H2143 H 0.30814 0.94122 0.45041 0.0
C2144 C 0.36738 0.87717 0.43019 0.0
N2145 N 0.39055 0.86483 0.41635 0.0
C2146 C 0.37219 0.85854 0.42968 0.0
C2147 C 0.37416 0.88947 0.42358 0.0
C2148 C 0.38398 0.85259 0.42266 0.0
C2149 C 0.3859 0.88298 0.41665 0.0
C2150 C 0.35448 0.87973 0.46443 0.0
C2151 C 0.37188 0.87208 0.46598 0.0
C2152 C 0.33942 0.87367 0.46964 0.0
C2153 C 0.37387 0.85824 0.47263 0.0
C2154 C 0.34197 0.85979 0.4762 0.0
N2155 N 0.35899 0.85242 0.47755 0.0
C2156 C 0.39903 0.91831 0.45137 0.0
C2157 C 0.40263 0.88856 0.44485 0.0
C2158 C 0.41814 0.92038 0.45204 0.0
N2159 N 0.39171 0.90268 0.44769 0.0
C2160 C 0.42175 0.89013 0.44528 0.0
C2161 C 0.42972 0.90626 0.44884 0.0
H2162 H 0.39 0.92925 0.45367 0.0
H2163 H 0.39652 0.87602 0.44226 0.0
C2164 C 0.31515 0.84909 0.44963 0.0
N2165 N 0.33304 0.85459 0.44992 0.0
C2166 C 0.31058 0.83069 0.45128 0.0
C2167 C 0.34294 0.82408 0.45354 0.0
C2168 C 0.34688 0.84253 0.45175 0.0
C2169 C 0.3246 0.81797 0.45329 0.0
H2170 H 0.30444 0.85896 0.44807 0.0
H2171 H 0.36101 0.84725 0.45178 0.0
O2172 O 0.35167 0.92351 0.44374 0.0
O2173 O 0.31871 0.89561 0.44384 0.0
O2174 O 0.35588 0.8832 0.43706 0.0
O2175 O 0.35222 0.89313 0.45788 0.0
H2176 H 0.33627 0.9565 0.44486 0.0
H2177 H 0.38155 0.92604 0.4332 0.0
H2178 H 0.34781 0.98458 0.43699 0.0
H2179 H 0.39217 0.95456 0.42547 0.0
H2180 H 0.26846 0.89831 0.46256 0.0
H2181 H 0.29812 0.91727 0.43336 0.0
H2182 H 0.29995 0.88709 0.45896 0.0
H2183 H 0.26664 0.92793 0.43739 0.0
H2184 H 0.32246 0.94694 0.40984 0.0
H2185 H 0.3251 0.88866 0.40365 0.0
H2186 H 0.32165 0.93414 0.48362 0.0
H2187 H 0.29282 0.96198 0.46144 0.0
H2188 H 0.36693 0.84878 0.43467 0.0
H2189 H 0.37019 0.9038 0.42369 0.0
H2190 H 0.3879 0.83823 0.42222 0.0
H2191 H 0.39124 0.89236 0.4115 0.0
H2192 H 0.38369 0.87667 0.46205 0.0
H2193 H 0.32589 0.87951 0.46856 0.0
H2194 H 0.38723 0.85212 0.47386 0.0
H2195 H 0.33041 0.85487 0.48023 0.0
H2196 H 0.42379 0.93303 0.45482 0.0
H2197 H 0.43023 0.87878 0.44291 0.0
H2198 H 0.29628 0.82646 0.45103 0.0
H2199 H 0.35417 0.81462 0.45489 0.0
Li2200 Li 0.84728 0.61794 0.20045 0.0
Li2201 Li 0.86846 0.5915 0.20096 0.0
Li2202 Li 0.84323 0.5927 0.18905 0.0
Li2203 Li 0.83709 0.58615 0.20521 0.0
C2204 C 0.87178 0.62162 0.18462 0.0
N2205 N 0.8863 0.6464 0.17206 0.0
C2206 C 0.8904 0.62648 0.18504 0.0
C2207 C 0.86063 0.62915 0.17771 0.0
C2208 C 0.89746 0.6391 0.17867 0.0
C2209 C 0.8682 0.6417 0.17145 0.0
C2210 C 0.86734 0.6045 0.21837 0.0
C2211 C 0.88668 0.59039 0.22993 0.0
N2212 N 0.8933 0.6073 0.23226 0.0
C2213 C 0.8742 0.62176 0.22093 0.0
C2214 C 0.87349 0.5887 0.22295 0.0
C2215 C 0.88736 0.62288 0.22796 0.0
C2216 C 0.8292 0.65167 0.20493 0.0
N2217 N 0.84538 0.64388 0.20222 0.0
C2218 C 0.8594 0.67351 0.20076 0.0
C2219 C 0.86048 0.65435 0.20041 0.0
C2220 C 0.84271 0.68198 0.20319 0.0
C2221 C 0.82757 0.67085 0.2055 0.0
H2222 H 0.81746 0.643 0.20646 0.0
H2223 H 0.87335 0.64783 0.19861 0.0
C2224 C 0.89915 0.56775 0.20055 0.0
N2225 N 0.89341 0.58497 0.20288 0.0
C2226 C 0.91771 0.56298 0.20138 0.0
C2227 C 0.92392 0.5936 0.20723 0.0
C2228 C 0.90534 0.59786 0.20613 0.0
C2229 C 0.9303 0.57604 0.20474 0.0
H2230 H 0.88939 0.55786 0.19785 0.0
H2231 H 0.9005 0.61161 0.20765 0.0
C2232 C 0.8091 0.61117 0.19279 0.0
N2233 N 0.77823 0.62505 0.18403 0.0
C2234 C 0.79203 0.60249 0.19386 0.0
C2235 C 0.81039 0.62708 0.18739 0.0
C2236 C 0.77661 0.60967 0.18934 0.0
C2237 C 0.79465 0.63385 0.18299 0.0
C2238 C 0.84691 0.55374 0.19787 0.0
C2239 C 0.83521 0.54502 0.19156 0.0
C2240 C 0.85305 0.54418 0.20566 0.0
C2241 C 0.82958 0.52692 0.19325 0.0
C2242 C 0.84709 0.5261 0.20712 0.0
N2243 N 0.83556 0.51792 0.20094 0.0
C2244 C 0.85167 0.58565 0.17067 0.0
C2245 C 0.81961 0.58476 0.17376 0.0
C2246 C 0.84851 0.58231 0.16131 0.0
N2247 N 0.83729 0.58715 0.17662 0.0
C2248 C 0.81579 0.58148 0.16445 0.0
C2249 C 0.83036 0.58041 0.15809 0.0
H2250 H 0.8656 0.58736 0.17317 0.0
H2251 H 0.80845 0.58537 0.17868 0.0
C2252 C 0.82326 0.57449 0.22235 0.0
N2253 N 0.82129 0.5727 0.21307 0.0
C2254 C 0.81129 0.56536 0.22833 0.0
C2255 C 0.79577 0.55232 0.21505 0.0
C2256 C 0.80796 0.56185 0.20934 0.0
C2257 C 0.79715 0.55425 0.22469 0.0
H2258 H 0.83383 0.58341 0.22512 0.0
H2259 H 0.8066 0.56084 0.20192 0.0
O2260 O 0.86469 0.60927 0.19083 0.0
O2261 O 0.85454 0.60313 0.21146 0.0
O2262 O 0.82433 0.60427 0.19717 0.0
O2263 O 0.85243 0.57151 0.19637 0.0
H2264 H 0.8993 0.62066 0.19028 0.0
H2265 H 0.84636 0.62517 0.17708 0.0
H2266 H 0.91181 0.64307 0.17896 0.0
H2267 H 0.8597 0.64764 0.16607 0.0
H2268 H 0.89166 0.57826 0.23349 0.0
H2269 H 0.86948 0.63414 0.21751 0.0
H2270 H 0.86823 0.57526 0.22109 0.0
H2271 H 0.89287 0.63613 0.22998 0.0
H2272 H 0.87149 0.68164 0.19912 0.0
H2273 H 0.81447 0.67692 0.20741 0.0
H2274 H 0.92222 0.54934 0.19935 0.0
H2275 H 0.93332 0.60414 0.20965 0.0
H2276 H 0.79071 0.59029 0.1981 0.0
H2277 H 0.82332 0.63428 0.18669 0.0
H2278 H 0.76335 0.60301 0.19006 0.0
H2279 H 0.79548 0.64613 0.17877 0.0
H2280 H 0.8304 0.5522 0.18547 0.0
H2281 H 0.86224 0.55067 0.21056 0.0
H2282 H 0.82043 0.52003 0.18847 0.0
H2283 H 0.85163 0.51857 0.21316 0.0
H2284 H 0.86013 0.58174 0.15663 0.0
H2285 H 0.80162 0.57978 0.16226 0.0
H2286 H 0.81264 0.56763 0.23569 0.0
H2287 H 0.78518 0.54383 0.21195 0.0
Li2288 Li 0.13472 0.09484 0.94777 0.0
Li2289 Li 0.16139 0.11687 0.94928 0.0
Li2290 Li 0.16181 0.09254 0.93789 0.0
Li2291 Li 0.16651 0.08565 0.95365 0.0
C2292 C 0.1433 0.12029 0.9303 0.0
N2293 N 0.14305 0.13346 0.91239 0.0
C2294 C 0.15724 0.13213 0.92728 0.0
C2295 C 0.12917 0.11524 0.92425 0.0
C2296 C 0.15689 0.13862 0.91819 0.0
C2297 C 0.12931 0.12203 0.91522 0.0
C2298 C 0.14462 0.11607 0.96571 0.0
C2299 C 0.15497 0.13662 0.97775 0.0
N2300 N 0.13756 0.14334 0.97858 0.0
C2301 C 0.12679 0.12305 0.96674 0.0
C2302 C 0.1588 0.12277 0.97132 0.0
C2303 C 0.12351 0.13688 0.97326 0.0
C2304 C 0.10032 0.07769 0.95212 0.0
N2305 N 0.10874 0.09278 0.94849 0.0
C2306 C 0.07969 0.1067 0.94517 0.0
C2307 C 0.09888 0.1072 0.94512 0.0
C2308 C 0.0705 0.09118 0.9487 0.0
C2309 C 0.08107 0.07658 0.95229 0.0
H2310 H 0.10855 0.06645 0.95479 0.0
H2311 H 0.10598 0.11914 0.94241 0.0
C2312 C 0.18394 0.14863 0.95137 0.0
N2313 N 0.1664 0.14206 0.9515 0.0
C2314 C 0.18727 0.1674 0.9527 0.0
C2315 C 0.15443 0.17218 0.95425 0.0
C2316 C 0.15174 0.15341 0.95278 0.0
C2317 C 0.17238 0.17939 0.95418 0.0
H2318 H 0.19531 0.13938 0.95007 0.0
H2319 H 0.13792 0.14787 0.95254 0.0
C2320 C 0.14943 0.05762 0.93923 0.0
N2321 N 0.14911 0.02773 0.92739 0.0
C2322 C 0.16599 0.04969 0.93631 0.0
C2323 C 0.1327 0.0503 0.93615 0.0
C2324 C 0.16554 0.03462 0.93031 0.0
C2325 C 0.13283 0.03519 0.93017 0.0
C2326 C 0.1995 0.09656 0.9487 0.0
C2327 C 0.21044 0.08434 0.94362 0.0
C2328 C 0.20617 0.10375 0.95702 0.0
C2329 C 0.22781 0.07943 0.94699 0.0
C2330 C 0.22358 0.09847 0.96016 0.0
N2331 N 0.23396 0.08652 0.95513 0.0
C2332 C 0.18461 0.09411 0.92212 0.0
C2333 C 0.15588 0.07942 0.9196 0.0
C2334 C 0.18924 0.09211 0.91282 0.0
N2335 N 0.16823 0.08767 0.92533 0.0
C2336 C 0.15998 0.07705 0.91026 0.0
C2337 C 0.17679 0.08355 0.90675 0.0
H2338 H 0.19385 0.10131 0.92673 0.0
H2339 H 0.14258 0.07524 0.92219 0.0
C2340 C 0.17409 0.07262 0.97149 0.0
N2341 N 0.17847 0.07026 0.96244 0.0
C2342 C 0.18191 0.06133 0.97823 0.0
C2343 C 0.19897 0.04564 0.96624 0.0
C2344 C 0.19062 0.05707 0.95973 0.0
C2345 C 0.19443 0.04747 0.97564 0.0
H2346 H 0.16417 0.08299 0.97347 0.0
H2347 H 0.19376 0.05527 0.95251 0.0
O2348 O 0.14374 0.11335 0.93908 0.0
O2349 O 0.14815 0.10272 0.95927 0.0
O2350 O 0.14954 0.07241 0.94509 0.0
O2351 O 0.1824 0.10147 0.94555 0.0
H2352 H 0.16836 0.13605 0.93186 0.0
H2353 H 0.11837 0.10595 0.92647 0.0
H2354 H 0.16765 0.14769 0.91573 0.0
H2355 H 0.11853 0.11814 0.91043 0.0
H2356 H 0.16585 0.14201 0.98209 0.0
H2357 H 0.11561 0.11796 0.96252 0.0
H2358 H 0.17263 0.1174 0.9707 0.0
H2359 H 0.1098 0.14249 0.97409 0.0
H2360 H 0.07214 0.11845 0.94252 0.0
H2361 H 0.07458 0.0643 0.95502 0.0
H2362 H 0.2013 0.17249 0.95254 0.0
H2363 H 0.14256 0.18106 0.95516 0.0
H2364 H 0.17904 0.05539 0.93847 0.0
H2365 H 0.11975 0.05629 0.93831 0.0
H2366 H 0.17826 0.02846 0.92793 0.0
H2367 H 0.11999 0.02942 0.92771 0.0
H2368 H 0.2055 0.07844 0.93723 0.0
H2369 H 0.19795 0.11323 0.96103 0.0
H2370 H 0.23635 0.06991 0.94316 0.0
H2371 H 0.22885 0.10388 0.96661 0.0
H2372 H 0.2023 0.09743 0.91037 0.0
H2373 H 0.14975 0.07087 0.90577 0.0
H2374 H 0.1776 0.06302 0.98535 0.0
H2375 H 0.20867 0.0353 0.96391 0.0
Li2376 Li 0.64978 0.37936 0.70029 0.0
Li2377 Li 0.6282 0.40531 0.70125 0.0
Li2378 Li 0.65276 0.40513 0.68913 0.0
Li2379 Li 0.65954 0.4113 0.70531 0.0
C2380 C 0.62622 0.37538 0.68443 0.0
N2381 N 0.61495 0.35013 0.67129 0.0
C2382 C 0.60779 0.36985 0.68402 0.0
C2383 C 0.63885 0.36825 0.67808 0.0
C2384 C 0.60238 0.35701 0.67735 0.0
C2385 C 0.63291 0.35547 0.67151 0.0
C2386 C 0.6297 0.39226 0.71834 0.0
C2387 C 0.61057 0.40638 0.72998 0.0
N2388 N 0.6032 0.38961 0.73198 0.0
C2389 C 0.62207 0.37514 0.72056 0.0
C2390 C 0.62405 0.40799 0.72314 0.0
C2391 C 0.60865 0.3741 0.72746 0.0
C2392 C 0.66857 0.34577 0.70431 0.0
N2393 N 0.65218 0.35343 0.70184 0.0
C2394 C 0.63834 0.3237 0.70053 0.0
C2395 C 0.63709 0.34285 0.7002 0.0
C2396 C 0.65521 0.31535 0.70273 0.0
C2397 C 0.6704 0.3266 0.70482 0.0
H2398 H 0.6803 0.35454 0.70571 0.0
H2399 H 0.62407 0.34928 0.69857 0.0
C2400 C 0.59712 0.4286 0.70292 0.0
N2401 N 0.60322 0.41094 0.70358 0.0
C2402 C 0.57853 0.43263 0.70436 0.0
C2403 C 0.57301 0.40026 0.70727 0.0
C2404 C 0.59163 0.39684 0.70568 0.0
C2405 C 0.56625 0.41833 0.70654 0.0
H2406 H 0.60662 0.4395 0.70114 0.0
H2407 H 0.59683 0.3829 0.70599 0.0
C2408 C 0.68823 0.38877 0.69257 0.0
N2409 N 0.72067 0.37887 0.68386 0.0
C2410 C 0.70391 0.39983 0.69342 0.0
C2411 C 0.68917 0.3725 0.68741 0.0
C2412 C 0.72015 0.39464 0.68893 0.0
C2413 C 0.70565 0.36778 0.68303 0.0
C2414 C 0.64891 0.44378 0.69805 0.0
C2415 C 0.65953 0.45272 0.69135 0.0
C2416 C 0.64363 0.45327 0.70603 0.0
C2417 C 0.66493 0.47097 0.69282 0.0
C2418 C 0.64933 0.4715 0.70725 0.0
N2419 N 0.65979 0.4799 0.70068 0.0
C2420 C 0.64268 0.41225 0.67101 0.0
C2421 C 0.67499 0.41367 0.67326 0.0
C2422 C 0.6448 0.41552 0.66158 0.0
N2423 N 0.65767 0.41102 0.67659 0.0
C2424 C 0.67777 0.41696 0.66386 0.0
C2425 C 0.66255 0.4177 0.65787 0.0
H2426 H 0.62905 0.41031 0.67388 0.0
H2427 H 0.68666 0.4132 0.67786 0.0
C2428 C 0.6743 0.42031 0.72256 0.0
N2429 N 0.6752 0.4245 0.71343 0.0
C2430 C 0.68602 0.42895 0.72884 0.0
C2431 C 0.69912 0.44643 0.71622 0.0
C2432 C 0.68723 0.43732 0.71018 0.0
C2433 C 0.6988 0.44209 0.72568 0.0
H2434 H 0.6648 0.40987 0.72495 0.0
H2435 H 0.68784 0.44024 0.70286 0.0
O2436 O 0.63172 0.3879 0.69096 0.0
O2437 O 0.64266 0.3936 0.71151 0.0
O2438 O 0.67225 0.39364 0.69696 0.0
O2439 O 0.64353 0.42591 0.69674 0.0
H2440 H 0.59777 0.37534 0.68881 0.0
H2441 H 0.65302 0.37274 0.67813 0.0
H2442 H 0.58818 0.35253 0.67699 0.0
H2443 H 0.64256 0.34985 0.66656 0.0
H2444 H 0.60597 0.41847 0.7337 0.0
H2445 H 0.62637 0.36281 0.71696 0.0
H2446 H 0.62992 0.42132 0.72154 0.0
H2447 H 0.60253 0.36096 0.72922 0.0
H2448 H 0.62621 0.31549 0.69906 0.0
H2449 H 0.68364 0.32065 0.70656 0.0
H2450 H 0.57381 0.44674 0.70374 0.0
H2451 H 0.56391 0.38881 0.70877 0.0
H2452 H 0.70355 0.41235 0.69746 0.0
H2453 H 0.67739 0.36347 0.68688 0.0
H2454 H 0.73234 0.40316 0.68948 0.0
H2455 H 0.70653 0.35525 0.679 0.0
H2456 H 0.66365 0.44562 0.68511 0.0
H2457 H 0.63532 0.4466 0.71125 0.0
H2458 H 0.67323 0.47803 0.68772 0.0
H2459 H 0.64545 0.47897 0.71342 0.0
H2460 H 0.63269 0.41581 0.65721 0.0
H2461 H 0.69166 0.4189 0.66131 0.0
H2462 H 0.68555 0.4248 0.73602 0.0
H2463 H 0.70865 0.45653 0.71348 0.0
Li2464 Li 0.34186 0.11588 0.54541 0.0
Li2465 Li 0.36941 0.09479 0.54525 0.0
Li2466 Li 0.3369 0.08457 0.54125 0.0
Li2467 Li 0.34494 0.09153 0.55663 0.0
C2468 C 0.35486 0.1161 0.52822 0.0
N2469 N 0.35823 0.1442 0.51543 0.0
C2470 C 0.37212 0.1238 0.52636 0.0
C2471 C 0.33935 0.12253 0.52348 0.0
C2472 C 0.37353 0.13803 0.51989 0.0
C2473 C 0.34133 0.1368 0.51708 0.0
C2474 C 0.36392 0.12 0.56318 0.0
C2475 C 0.3809 0.12244 0.57745 0.0
N2476 N 0.36736 0.13333 0.58098 0.0
C2477 C 0.35021 0.13128 0.56693 0.0
C2478 C 0.37943 0.11557 0.56846 0.0
C2479 C 0.35219 0.13786 0.57595 0.0
C2480 C 0.3177 0.14667 0.54458 0.0
N2481 N 0.33541 0.14089 0.54362 0.0
C2482 C 0.34555 0.1716 0.54066 0.0
C2483 C 0.34929 0.15291 0.54181 0.0
C2484 C 0.32739 0.178 0.54159 0.0
C2485 C 0.31335 0.16531 0.54359 0.0
H2486 H 0.30701 0.13689 0.54629 0.0
H2487 H 0.36332 0.14798 0.54138 0.0
C2488 C 0.40244 0.07887 0.53821 0.0
N2489 N 0.39501 0.09333 0.54287 0.0
C2490 C 0.42144 0.07815 0.53661 0.0
C2491 C 0.42458 0.10733 0.54453 0.0
C2492 C 0.4056 0.10746 0.54598 0.0
C2493 C 0.43277 0.09254 0.53979 0.0
H2494 H 0.39361 0.06788 0.53576 0.0
H2495 H 0.39926 0.11886 0.54959 0.0
C2496 C 0.305 0.09387 0.54801 0.0
N2497 N 0.27001 0.08191 0.54339 0.0
C2498 C 0.29591 0.08099 0.55357 0.0
C2499 C 0.29622 0.10072 0.54012 0.0
C2500 C 0.27824 0.07512 0.55112 0.0
C2501 C 0.27856 0.09447 0.53789 0.0
C2502 C 0.35852 0.05731 0.5546 0.0
C2503 C 0.34329 0.04848 0.55851 0.0
C2504 C 0.37628 0.05111 0.55668 0.0
C2505 C 0.34608 0.03364 0.5645 0.0
C2506 C 0.3785 0.0362 0.56269 0.0
N2507 N 0.36348 0.02786 0.56645 0.0
C2508 C 0.32564 0.07165 0.52392 0.0
C2509 C 0.31329 0.05464 0.53644 0.0
C2510 C 0.31711 0.05994 0.51759 0.0
N2511 N 0.32371 0.06874 0.53314 0.0
C2512 C 0.3043 0.04273 0.53037 0.0
C2513 C 0.30641 0.04509 0.52079 0.0
H2514 H 0.33425 0.08275 0.52146 0.0
H2515 H 0.31209 0.05245 0.54379 0.0
C2516 C 0.32568 0.09233 0.57348 0.0
N2517 N 0.34157 0.0865 0.56946 0.0
C2518 C 0.32309 0.0904 0.58298 0.0
C2519 C 0.35337 0.07669 0.58407 0.0
C2520 C 0.35538 0.07894 0.57456 0.0
C2521 C 0.33709 0.08259 0.58841 0.0
H2522 H 0.31523 0.09901 0.56934 0.0
H2523 H 0.36824 0.07524 0.57129 0.0
O2524 O 0.35316 0.10234 0.53465 0.0
O2525 O 0.36193 0.11295 0.55448 0.0
O2526 O 0.32237 0.09972 0.55025 0.0
O2527 O 0.35612 0.07187 0.54871 0.0
H2528 H 0.38429 0.11895 0.52991 0.0
H2529 H 0.32592 0.11663 0.52476 0.0
H2530 H 0.38679 0.14419 0.51843 0.0
H2531 H 0.32942 0.14199 0.51341 0.0
H2532 H 0.39277 0.11904 0.58164 0.0
H2533 H 0.33803 0.13469 0.56296 0.0
H2534 H 0.39007 0.1067 0.5657 0.0
H2535 H 0.34164 0.1465 0.57896 0.0
H2536 H 0.35683 0.18101 0.53933 0.0
H2537 H 0.29919 0.16975 0.54439 0.0
H2538 H 0.42715 0.06658 0.53285 0.0
H2539 H 0.43278 0.11859 0.54722 0.0
H2540 H 0.30252 0.07533 0.55964 0.0
H2541 H 0.30301 0.11065 0.53573 0.0
H2542 H 0.27111 0.06508 0.55534 0.0
H2543 H 0.27167 0.0996 0.53178 0.0
H2544 H 0.32949 0.05328 0.5571 0.0
H2545 H 0.38823 0.0578 0.55374 0.0
H2546 H 0.33441 0.02678 0.56764 0.0
H2547 H 0.39216 0.03129 0.56439 0.0
H2548 H 0.31954 0.0621 0.51029 0.0
H2549 H 0.29606 0.0316 0.53316 0.0
H2550 H 0.31035 0.09518 0.58605 0.0
H2551 H 0.3647 0.07106 0.58804 0.0
Li2552 Li 0.66197 0.58536 0.2912 0.0
Li2553 Li 0.65715 0.59189 0.30749 0.0
Li2554 Li 0.63119 0.59086 0.29623 0.0
Li2555 Li 0.65221 0.61731 0.29629 0.0
C2556 C 0.65297 0.55288 0.29909 0.0
N2557 N 0.66435 0.51691 0.29652 0.0
C2558 C 0.66414 0.5443 0.30568 0.0
C2559 C 0.64741 0.5431 0.29124 0.0
C2560 C 0.66978 0.52611 0.30424 0.0
C2561 C 0.65337 0.52495 0.29005 0.0
C2562 C 0.69192 0.60947 0.30232 0.0
C2563 C 0.7105 0.63218 0.31017 0.0
N2564 N 0.72563 0.62143 0.30891 0.0
C2565 C 0.70772 0.59875 0.30101 0.0
C2566 C 0.69336 0.62642 0.30686 0.0
C2567 C 0.72461 0.60499 0.30442 0.0
C2568 C 0.6751 0.57567 0.27366 0.0
N2569 N 0.67697 0.5721 0.28282 0.0
C2570 C 0.70099 0.55042 0.27983 0.0
C2571 C 0.68953 0.55972 0.28599 0.0
C2572 C 0.69972 0.55415 0.27032 0.0
C2573 C 0.68639 0.56682 0.26725 0.0
H2574 H 0.66515 0.58575 0.27134 0.0
H2575 H 0.69088 0.55729 0.29332 0.0
C2576 C 0.64976 0.58251 0.32565 0.0
N2577 N 0.66392 0.58644 0.31983 0.0
C2578 C 0.65309 0.5796 0.33502 0.0
C2579 C 0.6856 0.58429 0.33219 0.0
C2580 C 0.68164 0.58695 0.32286 0.0
C2581 C 0.67118 0.58082 0.33841 0.0
H2582 H 0.63581 0.58212 0.32302 0.0
H2583 H 0.69272 0.58968 0.3181 0.0
C2584 C 0.62997 0.60341 0.27916 0.0
N2585 N 0.60101 0.60508 0.2668 0.0
C2586 C 0.62109 0.62017 0.27747 0.0
C2587 C 0.62428 0.58755 0.27448 0.0
C2588 C 0.60644 0.62071 0.27121 0.0
C2589 C 0.60956 0.58866 0.26828 0.0
C2590 C 0.63141 0.6205 0.31335 0.0
C2591 C 0.61305 0.62495 0.31523 0.0
C2592 C 0.64539 0.6279 0.31885 0.0
C2593 C 0.60901 0.63697 0.3225 0.0
C2594 C 0.64081 0.63983 0.32607 0.0
N2595 N 0.62287 0.64411 0.32772 0.0
C2596 C 0.60018 0.5672 0.29416 0.0
C2597 C 0.59422 0.59933 0.29364 0.0
C2598 C 0.58156 0.56334 0.29267 0.0
N2599 N 0.60607 0.58497 0.29456 0.0
C2600 C 0.57556 0.59612 0.2921 0.0
C2601 C 0.56902 0.57793 0.29158 0.0
H2602 H 0.60992 0.55606 0.29497 0.0
H2603 H 0.59934 0.6133 0.29405 0.0
C2604 C 0.66907 0.65085 0.29051 0.0
N2605 N 0.65379 0.64321 0.29437 0.0
C2606 C 0.67027 0.66995 0.28936 0.0
C2607 C 0.63982 0.67284 0.29596 0.0
C2608 C 0.6392 0.65374 0.29696 0.0
C2609 C 0.65554 0.68125 0.29216 0.0
H2610 H 0.68037 0.6421 0.28839 0.0
H2611 H 0.62704 0.64732 0.2998 0.0
O2612 O 0.64734 0.57069 0.30038 0.0
O2613 O 0.67528 0.60356 0.29898 0.0
O2614 O 0.64407 0.60252 0.28541 0.0
O2615 O 0.63555 0.60873 0.30625 0.0
H2616 H 0.66851 0.55163 0.31181 0.0
H2617 H 0.63876 0.54952 0.28608 0.0
H2618 H 0.67851 0.51933 0.30926 0.0
H2619 H 0.64929 0.51727 0.28398 0.0
H2620 H 0.71177 0.64525 0.31372 0.0
H2621 H 0.70696 0.5857 0.29745 0.0
H2622 H 0.68145 0.63515 0.30776 0.0
H2623 H 0.73691 0.59677 0.30351 0.0
H2624 H 0.71094 0.54067 0.2825 0.0
H2625 H 0.68517 0.57049 0.26003 0.0
H2626 H 0.64158 0.57714 0.33962 0.0
H2627 H 0.69975 0.58512 0.33454 0.0
H2628 H 0.62535 0.63258 0.28101 0.0
H2629 H 0.63106 0.5745 0.27568 0.0
H2630 H 0.59935 0.63356 0.26988 0.0
H2631 H 0.60492 0.57647 0.26467 0.0
H2632 H 0.60202 0.61921 0.31111 0.0
H2633 H 0.6596 0.62425 0.31766 0.0
H2634 H 0.59487 0.6406 0.32399 0.0
H2635 H 0.65152 0.64563 0.33038 0.0
H2636 H 0.57706 0.54912 0.2923 0.0
H2637 H 0.56632 0.60777 0.29148 0.0
H2638 H 0.68254 0.67578 0.28627 0.0
H2639 H 0.62819 0.68094 0.29832 0.0
Li2640 Li 0.15892 0.90971 0.04046 0.0
Li2641 Li 0.14965 0.90175 0.05611 0.0
Li2642 Li 0.15343 0.8779 0.04372 0.0
Li2643 Li 0.12658 0.89856 0.0436 0.0
C2644 C 0.19006 0.90005 0.04898 0.0
N2645 N 0.22585 0.91281 0.04784 0.0
C2646 C 0.19732 0.91107 0.05602 0.0
C2647 C 0.20107 0.89532 0.04142 0.0
C2648 C 0.21544 0.91743 0.0553 0.0
C2649 C 0.21911 0.90198 0.04095 0.0
C2650 C 0.13295 0.93644 0.05275 0.0
C2651 C 0.10985 0.95152 0.06206 0.0
N2652 N 0.12035 0.96705 0.06222 0.0
C2653 C 0.14338 0.95264 0.0529 0.0
C2654 C 0.11594 0.93596 0.05727 0.0
C2655 C 0.13683 0.96793 0.05777 0.0
C2656 C 0.17128 0.92486 0.0239 0.0
N2657 N 0.17308 0.92623 0.03321 0.0
C2658 C 0.19379 0.95164 0.03159 0.0
C2659 C 0.18414 0.93919 0.03713 0.0
C2660 C 0.19192 0.95074 0.02193 0.0
C2661 C 0.18064 0.93698 0.0181 0.0
H2662 H 0.16219 0.91464 0.02096 0.0
H2663 H 0.18525 0.94006 0.04456 0.0
C2664 C 0.15058 0.89131 0.07458 0.0
N2665 N 0.1525 0.90619 0.06896 0.0
C2666 C 0.15122 0.89339 0.08414 0.0
C2667 C 0.15706 0.92592 0.08199 0.0
C2668 C 0.1561 0.92322 0.07244 0.0
C2669 C 0.15425 0.91091 0.08795 0.0
H2670 H 0.14829 0.87782 0.07162 0.0
H2671 H 0.1582 0.93473 0.06784 0.0
C2672 C 0.14356 0.87997 0.02607 0.0
N2673 N 0.14402 0.85441 0.01191 0.0
C2674 C 0.12707 0.87249 0.02278 0.0
C2675 C 0.16026 0.87464 0.02207 0.0
C2676 C 0.12759 0.85954 0.01564 0.0
C2677 C 0.16022 0.86164 0.01495 0.0
C2678 C 0.11958 0.87316 0.05823 0.0
C2679 C 0.11468 0.85461 0.05735 0.0
C2680 C 0.11011 0.88433 0.0645 0.0
C2681 C 0.10014 0.84764 0.06263 0.0
C2682 C 0.09567 0.87686 0.06967 0.0
N2683 N 0.091 0.85882 0.06862 0.0
C2684 C 0.1783 0.84807 0.04365 0.0
C2685 C 0.14837 0.84111 0.03807 0.0
C2686 C 0.1837 0.82973 0.04258 0.0
N2687 N 0.16086 0.85331 0.04146 0.0
C2688 C 0.15321 0.82269 0.03683 0.0
C2689 C 0.171 0.81676 0.03922 0.0
H2690 H 0.18788 0.85803 0.04642 0.0
H2691 H 0.1345 0.8456 0.03655 0.0
C2692 C 0.09374 0.91723 0.03846 0.0
N2693 N 0.10106 0.90057 0.0407 0.0
C2694 C 0.07481 0.91901 0.03692 0.0
C2695 C 0.07146 0.88633 0.03968 0.0
C2696 C 0.09042 0.88519 0.04112 0.0
C2697 C 0.06334 0.90345 0.03765 0.0
H2698 H 0.10258 0.9292 0.038 0.0
H2699 H 0.09662 0.87202 0.04264 0.0
O2700 O 0.17232 0.89379 0.04955 0.0
O2701 O 0.13918 0.92136 0.04799 0.0
O2702 O 0.14333 0.89254 0.03312 0.0
O2703 O 0.13377 0.8802 0.05308 0.0
H2704 H 0.18903 0.91476 0.06195 0.0
H2705 H 0.19572 0.8867 0.03596 0.0
H2706 H 0.2212 0.92605 0.06067 0.0
H2707 H 0.22775 0.89853 0.03511 0.0
H2708 H 0.09673 0.95129 0.06561 0.0
H2709 H 0.15644 0.9534 0.04935 0.0
H2710 H 0.10738 0.9238 0.05699 0.0
H2711 H 0.14483 0.98049 0.058 0.0
H2712 H 0.20238 0.962 0.03482 0.0
H2713 H 0.17842 0.93604 0.01072 0.0
H2714 H 0.14938 0.88141 0.08852 0.0
H2715 H 0.15952 0.93963 0.08468 0.0
H2716 H 0.11401 0.87658 0.02573 0.0
H2717 H 0.17313 0.8804 0.02448 0.0
H2718 H 0.11494 0.85356 0.01306 0.0
H2719 H 0.17306 0.85729 0.01184 0.0
H2720 H 0.12197 0.84568 0.05262 0.0
H2721 H 0.11405 0.89853 0.0655 0.0
H2722 H 0.09614 0.83334 0.06197 0.0
H2723 H 0.08824 0.88537 0.07455 0.0
H2724 H 0.19755 0.82569 0.04449 0.0
H2725 H 0.1429 0.81306 0.03438 0.0
H2726 H 0.06924 0.93242 0.03519 0.0
H2727 H 0.06323 0.87397 0.0404 0.0
Li2728 Li 0.83843 0.41026 0.79002 0.0
Li2729 Li 0.84618 0.40123 0.80575 0.0
Li2730 Li 0.87017 0.40537 0.79356 0.0
Li2731 Li 0.85015 0.37806 0.79332 0.0
C2732 C 0.84738 0.44168 0.79879 0.0
N2733 N 0.83433 0.47741 0.79796 0.0
C2734 C 0.83657 0.4487 0.80597 0.0
C2735 C 0.85174 0.4529 0.79124 0.0
C2736 C 0.83006 0.46679 0.80541 0.0
C2737 C 0.84494 0.4709 0.79094 0.0
C2738 C 0.81143 0.38422 0.80187 0.0
C2739 C 0.79496 0.36099 0.81048 0.0
N2740 N 0.77972 0.3719 0.81047 0.0
C2741 C 0.79552 0.39508 0.80183 0.0
C2742 C 0.81108 0.36693 0.80613 0.0
C2743 C 0.77966 0.38866 0.80626 0.0
C2744 C 0.8227 0.42117 0.77334 0.0
N2745 N 0.82182 0.42398 0.7826 0.0
C2746 C 0.79674 0.44498 0.78073 0.0
C2747 C 0.80925 0.43568 0.78637 0.0
C2748 C 0.79706 0.44204 0.77113 0.0
C2749 C 0.81042 0.43009 0.76745 0.0
H2750 H 0.83264 0.41161 0.77053 0.0
H2751 H 0.8087 0.43754 0.79377 0.0
C2752 C 0.85657 0.4033 0.82414 0.0
N2753 N 0.8415 0.40394 0.81858 0.0
C2754 C 0.85456 0.40353 0.83371 0.0
C2755 C 0.82162 0.40639 0.83168 0.0
C2756 C 0.82426 0.40593 0.82213 0.0
C2757 C 0.83688 0.40477 0.83758 0.0
H2758 H 0.87016 0.40223 0.82113 0.0
H2759 H 0.81255 0.40701 0.81758 0.0
C2760 C 0.86897 0.39552 0.77597 0.0
N2761 N 0.89532 0.39684 0.76221 0.0
C2762 C 0.87755 0.37933 0.77298 0.0
C2763 C 0.8736 0.41234 0.77187 0.0
C2764 C 0.89088 0.3803 0.76603 0.0
C2765 C 0.88701 0.41273 0.76495 0.0
C2766 C 0.87453 0.3721 0.8086 0.0
C2767 C 0.89332 0.36787 0.80875 0.0
C2768 C 0.86247 0.36253 0.8144 0.0
C2769 C 0.89968 0.35393 0.81459 0.0
C2770 C 0.86936 0.3487 0.82016 0.0
N2771 N 0.88767 0.3447 0.82013 0.0
C2772 C 0.89963 0.43083 0.79288 0.0
C2773 C 0.90711 0.40014 0.78866 0.0
C2774 C 0.91791 0.4363 0.79165 0.0
N2775 N 0.89467 0.41301 0.7914 0.0
C2776 C 0.92546 0.40502 0.78727 0.0
C2777 C 0.93108 0.42327 0.78885 0.0
H2778 H 0.88948 0.44072 0.79516 0.0
H2779 H 0.90281 0.386 0.78771 0.0
C2780 C 0.83273 0.34474 0.78781 0.0
N2781 N 0.8489 0.35246 0.79053 0.0
C2782 C 0.83149 0.3257 0.78645 0.0
C2783 C 0.86372 0.32308 0.79044 0.0
C2784 C 0.86435 0.34213 0.79162 0.0
C2785 C 0.84707 0.31452 0.78792 0.0
H2786 H 0.8207 0.35333 0.78684 0.0
H2787 H 0.87717 0.34866 0.79354 0.0
O2788 O 0.85385 0.424 0.79921 0.0
O2789 O 0.82705 0.39028 0.79751 0.0
O2790 O 0.85607 0.39489 0.78285 0.0
O2791 O 0.86809 0.38569 0.80288 0.0
H2792 H 0.83315 0.44024 0.81188 0.0
H2793 H 0.86017 0.44772 0.78566 0.0
H2794 H 0.8216 0.47237 0.81089 0.0
H2795 H 0.8481 0.4797 0.78511 0.0
H2796 H 0.79453 0.34767 0.81383 0.0
H2797 H 0.79543 0.40838 0.79849 0.0
H2798 H 0.82302 0.35806 0.806 0.0
H2799 H 0.76731 0.397 0.80635 0.0
H2800 H 0.78674 0.45413 0.78386 0.0
H2801 H 0.81093 0.42701 0.76013 0.0
H2802 H 0.86671 0.40266 0.83804 0.0
H2803 H 0.80777 0.40746 0.83442 0.0
H2804 H 0.87404 0.36619 0.77604 0.0
H2805 H 0.86699 0.42496 0.77406 0.0
H2806 H 0.89772 0.3679 0.76369 0.0
H2807 H 0.89083 0.42567 0.76177 0.0
H2808 H 0.9029 0.37524 0.80437 0.0
H2809 H 0.84801 0.36594 0.81457 0.0
H2810 H 0.91418 0.35046 0.81474 0.0
H2811 H 0.86017 0.34121 0.82469 0.0
H2812 H 0.92172 0.45051 0.79292 0.0
H2813 H 0.93526 0.39448 0.78528 0.0
H2814 H 0.81846 0.31983 0.78432 0.0
H2815 H 0.87608 0.31515 0.79176 0.0
H2816 H 0.16052 0.54171 0.14529 0.0
H2817 H 0.20805 0.58299 0.1001 0.0
H2818 H 0.19381 0.59113 0.14539 0.0
H2819 H 0.15606 0.55392 0.09961 0.0
H2820 H 0.20903 0.57915 0.11688 0.0
H2821 H 0.16494 0.53943 0.12858 0.0
C2822 C 0.16882 0.55203 0.14185 0.0
C2823 C 0.17654 0.56682 0.1468 0.0
C2824 C 0.19756 0.57343 0.11304 0.0
C2825 C 0.18206 0.56388 0.12773 0.0
C2826 C 0.1969 0.57569 0.10347 0.0
C2827 C 0.18177 0.56907 0.09839 0.0
C2828 C 0.18316 0.56424 0.11755 0.0
C2829 C 0.16807 0.5592 0.10316 0.0
C2830 C 0.17143 0.55061 0.13233 0.0
C2831 C 0.18768 0.5794 0.14195 0.0
N2832 N 0.16903 0.5572 0.11248 0.0
N2833 N 0.19001 0.57769 0.13268 0.0
H2834 H 0.70254 0.91227 0.39689 0.0
H2835 H 0.65438 0.95036 0.35116 0.0
H2836 H 0.65071 0.94163 0.39711 0.0
H2837 H 0.68838 0.90144 0.35164 0.0
H2838 H 0.6583 0.95317 0.36788 0.0
H2839 H 0.70287 0.91433 0.38003 0.0
C2840 C 0.69128 0.91924 0.39344 0.0
C2841 C 0.67643 0.92655 0.39848 0.0
C2842 C 0.66501 0.94195 0.36427 0.0
C2843 C 0.67705 0.92931 0.37921 0.0
C2844 C 0.66269 0.94022 0.35473 0.0
C2845 C 0.67085 0.92548 0.34993 0.0
C2846 C 0.67579 0.92903 0.36903 0.0
C2847 C 0.68194 0.91314 0.35496 0.0
C2848 C 0.69156 0.92048 0.38382 0.0
C2849 C 0.66254 0.93591 0.39359 0.0
N2850 N 0.68402 0.91516 0.36423 0.0
N2851 N 0.66315 0.93693 0.38422 0.0
H2852 H 0.3516 0.44694 0.64513 0.0
H2853 H 0.29571 0.41294 0.60065 0.0
H2854 H 0.30421 0.41108 0.64651 0.0
H2855 H 0.34923 0.4389 0.59962 0.0
H2856 H 0.29553 0.41693 0.61744 0.0
H2857 H 0.34766 0.44902 0.62841 0.0
C2858 C 0.34032 0.43956 0.64192 0.0
C2859 C 0.32838 0.4286 0.64722 0.0
C2860 C 0.3072 0.42191 0.61351 0.0
C2861 C 0.32371 0.43104 0.62808 0.0
C2862 C 0.30736 0.41957 0.60393 0.0
C2863 C 0.32258 0.42544 0.5987 0.0
C2864 C 0.32235 0.43021 0.61788 0.0
C2865 C 0.33711 0.43431 0.60332 0.0
C2866 C 0.33803 0.44082 0.63238 0.0
C2867 C 0.31371 0.41973 0.64271 0.0
N2868 N 0.33668 0.43629 0.61264 0.0
N2869 N 0.31189 0.421 0.63338 0.0
H2870 H 0.8006 0.10507 0.89576 0.0
H2871 H 0.82969 0.04796 0.85079 0.0
H2872 H 0.83499 0.05652 0.89655 0.0
H2873 H 0.80762 0.10324 0.85011 0.0
H2874 H 0.82631 0.04788 0.86761 0.0
H2875 H 0.79757 0.10139 0.87905 0.0
C2876 C 0.80745 0.09358 0.89243 0.0
C2877 C 0.8183 0.08125 0.89756 0.0
C2878 C 0.82204 0.05994 0.86375 0.0
C2879 C 0.81471 0.07686 0.87844 0.0
C2880 C 0.82404 0.06004 0.85415 0.0
C2881 C 0.81913 0.07571 0.84901 0.0
C2882 C 0.81501 0.07558 0.86823 0.0
C2883 C 0.81147 0.09078 0.85374 0.0
C2884 C 0.80564 0.09145 0.8829 0.0
C2885 C 0.82644 0.06634 0.8929 0.0
N2886 N 0.80978 0.09038 0.86308 0.0
N2887 N 0.82461 0.06466 0.88359 0.0
H2888 H 0.14907 0.44055 0.89506 0.0
H2889 H 0.19023 0.40244 0.84872 0.0
H2890 H 0.19943 0.40875 0.89459 0.0
H2891 H 0.1578 0.45238 0.84955 0.0
H2892 H 0.19343 0.40388 0.86547 0.0
H2893 H 0.15144 0.4446 0.87841 0.0
C2894 C 0.16082 0.43467 0.89152 0.0
C2895 C 0.17401 0.42416 0.8963 0.0
C2896 C 0.18581 0.41464 0.86195 0.0
C2897 C 0.17643 0.42835 0.87712 0.0
C2898 C 0.18404 0.41391 0.85237 0.0
C2899 C 0.17357 0.42723 0.84766 0.0
C2900 C 0.1768 0.42859 0.86691 0.0
C2901 C 0.1656 0.44153 0.85286 0.0
C2902 C 0.16209 0.43693 0.88198 0.0
C2903 C 0.18868 0.41658 0.89121 0.0
N2904 N 0.16717 0.44169 0.86222 0.0
N2905 N 0.18936 0.41862 0.88189 0.0
H2906 H 0.84479 0.88556 0.10143 0.0
H2907 H 0.80734 0.93435 0.1468 0.0
H2908 H 0.81376 0.93615 0.09984 0.0
H2909 H 0.8588 0.90467 0.14608 0.0
H2910 H 0.80538 0.93177 0.12985 0.0
H2911 H 0.84571 0.88859 0.11829 0.0
C2912 C 0.83802 0.8972 0.10466 0.0
C2913 C 0.82917 0.91062 0.0993 0.0
C2914 C 0.81712 0.92593 0.13343 0.0
C2915 C 0.83012 0.91414 0.11848 0.0
C2916 C 0.81821 0.92736 0.14304 0.0
C2917 C 0.83333 0.91984 0.14775 0.0
C2918 C 0.83099 0.9165 0.12859 0.0
C2919 C 0.84706 0.91085 0.14265 0.0
C2920 C 0.83866 0.89899 0.11424 0.0
C2921 C 0.82076 0.92557 0.10378 0.0
N2922 N 0.84549 0.90928 0.13334 0.0
N2923 N 0.82134 0.9269 0.11315 0.0
H2924 H 0.3422 0.60776 0.39603 0.0
H2925 H 0.30701 0.55853 0.35052 0.0
H2926 H 0.31339 0.55589 0.39768 0.0
H2927 H 0.35835 0.58836 0.35163 0.0
H2928 H 0.30485 0.56055 0.36749 0.0
H2929 H 0.34367 0.60448 0.3792 0.0
C2930 C 0.33603 0.59578 0.3928 0.0
C2931 C 0.32762 0.58208 0.39817 0.0
C2932 C 0.31662 0.5665 0.36399 0.0
C2933 C 0.3292 0.57828 0.37903 0.0
C2934 C 0.31783 0.56539 0.35436 0.0
C2935 C 0.33295 0.57316 0.34976 0.0
C2936 C 0.33036 0.5759 0.36893 0.0
C2937 C 0.34661 0.58201 0.35498 0.0
C2938 C 0.33699 0.59384 0.38325 0.0
C2939 C 0.32 0.56669 0.39372 0.0
N2940 N 0.3449 0.58331 0.36429 0.0
N2941 N 0.32085 0.56523 0.38435 0.0
H2942 H 0.62996 0.09091 0.64709 0.0
H2943 H 0.67775 0.05809 0.60049 0.0
H2944 H 0.68158 0.06148 0.64739 0.0
H2945 H 0.64607 0.10822 0.6024 0.0
H2946 H 0.67568 0.05467 0.61739 0.0
H2947 H 0.63168 0.09262 0.6302 0.0
C2948 C 0.64152 0.0846 0.64356 0.0
C2949 C 0.65564 0.07602 0.64857 0.0
C2950 C 0.66925 0.06642 0.61408 0.0
C2951 C 0.65769 0.07791 0.62936 0.0
C2952 C 0.67038 0.06834 0.60449 0.0
C2953 C 0.66216 0.08351 0.60014 0.0
C2954 C 0.65945 0.07954 0.61924 0.0
C2955 C 0.65274 0.09645 0.60555 0.0
C2956 C 0.64257 0.08571 0.63397 0.0
C2957 C 0.67047 0.06826 0.64373 0.0
N2958 N 0.65151 0.0941 0.61484 0.0
N2959 N 0.67109 0.06931 0.63435 0.0
H2960 H 0.85309 0.38081 0.84958 0.0
H2961 H 0.8131 0.4289 0.89494 0.0
H2962 H 0.81511 0.42652 0.8486 0.0
H2963 H 0.84194 0.37689 0.89505 0.0
H2964 H 0.81399 0.42884 0.87801 0.0
H2965 H 0.84967 0.37975 0.86634 0.0
C2966 C 0.84406 0.39067 0.85292 0.0
C2967 C 0.83446 0.40386 0.84772 0.0
C2968 C 0.81998 0.41737 0.88175 0.0
C2969 C 0.83038 0.40268 0.8669 0.0
C2970 C 0.81954 0.41744 0.89139 0.0
C2971 C 0.82746 0.40288 0.89639 0.0
C2972 C 0.82859 0.40274 0.87709 0.0
C2973 C 0.83549 0.38829 0.89147 0.0
C2974 C 0.84201 0.38998 0.86248 0.0
C2975 C 0.8227 0.4161 0.85236 0.0
N2976 N 0.83596 0.38866 0.88209 0.0
N2977 N 0.82108 0.4153 0.86172 0.0
H2978 H 0.34551 0.05214 0.64618 0.0
H2979 H 0.32309 0.10874 0.60004 0.0
H2980 H 0.32706 0.10872 0.64575 0.0
H2981 H 0.34708 0.0543 0.59995 0.0
H2982 H 0.32156 0.10761 0.61686 0.0
H2983 H 0.3437 0.05148 0.62929 0.0
C2984 C 0.34105 0.0644 0.64254 0.0
C2985 C 0.33644 0.08051 0.6474 0.0
C2986 C 0.32708 0.09586 0.61318 0.0
C2987 C 0.33421 0.0798 0.62811 0.0
C2988 C 0.32783 0.09644 0.60356 0.0
C2989 C 0.33523 0.08159 0.59859 0.0
C2990 C 0.33379 0.08032 0.61788 0.0
C2991 C 0.34147 0.06614 0.60353 0.0
C2992 C 0.33995 0.06399 0.63291 0.0
C2993 C 0.33049 0.0959 0.64233 0.0
N2994 N 0.34065 0.06592 0.61291 0.0
N2995 N 0.32961 0.09518 0.63298 0.0
H2996 H 0.66506 0.55746 0.39699 0.0
H2997 H 0.69257 0.60375 0.34878 0.0
H2998 H 0.68282 0.6139 0.39412 0.0
H2999 H 0.6576 0.55583 0.35087 0.0
H3000 H 0.69559 0.60407 0.36561 0.0
H3001 H 0.66862 0.55333 0.38024 0.0
C3002 C 0.66996 0.56887 0.39283 0.0
C3003 C 0.67351 0.58608 0.39687 0.0
C3004 C 0.68741 0.59338 0.36237 0.0
C3005 C 0.67762 0.58149 0.37785 0.0
C3006 C 0.68579 0.59311 0.35278 0.0
C3007 C 0.67472 0.57982 0.34846 0.0
C3008 C 0.67799 0.5802 0.36767 0.0
C3009 C 0.66607 0.56646 0.35397 0.0
C3010 C 0.67189 0.56655 0.38331 0.0
C3011 C 0.67972 0.60049 0.39122 0.0
N3012 N 0.66782 0.56703 0.36331 0.0
N3013 N 0.68154 0.59789 0.38198 0.0
H3014 H 0.12537 0.90866 0.14578 0.0
H3015 H 0.17877 0.93019 0.09864 0.0
H3016 H 0.18178 0.92738 0.14505 0.0
H3017 H 0.12923 0.89747 0.10026 0.0
H3018 H 0.17838 0.93339 0.11553 0.0
H3019 H 0.12478 0.9088 0.12891 0.0
C3020 C 0.13756 0.91303 0.14206 0.0
C3021 C 0.15365 0.91801 0.1468 0.0
C3022 C 0.1676 0.92554 0.11217 0.0
C3023 C 0.15314 0.91804 0.12751 0.0
C3024 C 0.16777 0.92379 0.10256 0.0
C3025 C 0.15408 0.91345 0.09809 0.0
C3026 C 0.15352 0.91708 0.1173 0.0
C3027 C 0.14018 0.90534 0.10346 0.0
C3028 C 0.13726 0.91296 0.13243 0.0
C3029 C 0.16916 0.92328 0.14164 0.0
N3030 N 0.14025 0.90735 0.11278 0.0
N3031 N 0.16852 0.92316 0.13225 0.0
H3032 H 0.84312 0.55748 0.10004 0.0
H3033 H 0.80402 0.5975 0.14763 0.0
H3034 H 0.80387 0.60205 0.10173 0.0
H3035 H 0.8485 0.55819 0.14579 0.0
H3036 H 0.80016 0.59573 0.13087 0.0
H3037 H 0.84152 0.55396 0.1168 0.0
C3038 C 0.83393 0.56633 0.10392 0.0
C3039 C 0.82372 0.58018 0.0995 0.0
C3040 C 0.81066 0.58737 0.13414 0.0
C3041 C 0.82203 0.57641 0.11869 0.0
C3042 C 0.81279 0.58829 0.14371 0.0
C3043 C 0.82672 0.5781 0.14809 0.0
C3044 C 0.82252 0.57616 0.12892 0.0
C3045 C 0.83781 0.56652 0.14267 0.0
C3046 C 0.83313 0.56441 0.1135 0.0
C3047 C 0.81221 0.5914 0.10489 0.0
N3048 N 0.83554 0.56595 0.13336 0.0
N3049 N 0.81177 0.58935 0.11422 0.0
H3050 H 0.18809 0.11617 0.85015 0.0
H3051 H 0.17058 0.05472 0.89491 0.0
H3052 H 0.17156 0.05912 0.84894 0.0
H3053 H 0.19143 0.1104 0.89572 0.0
H3054 H 0.17375 0.05488 0.87808 0.0
H3055 H 0.19257 0.11317 0.86681 0.0
C3056 C 0.18557 0.10295 0.85341 0.0
C3057 C 0.17924 0.08792 0.84821 0.0
C3058 C 0.17785 0.06697 0.88195 0.0
C3059 C 0.1842 0.08438 0.86726 0.0
C3060 C 0.17596 0.06692 0.89154 0.0
C3061 C 0.18061 0.08262 0.89671 0.0
C3062 C 0.18429 0.08291 0.87748 0.0
C3063 C 0.18779 0.09795 0.89202 0.0
C3064 C 0.18817 0.10122 0.86291 0.0
C3065 C 0.17646 0.07103 0.85271 0.0
N3066 N 0.18921 0.09778 0.88267 0.0
N3067 N 0.17871 0.06978 0.86202 0.0
H3068 H 0.69347 0.4007 0.60085 0.0
H3069 H 0.64219 0.43878 0.64592 0.0
H3070 H 0.64454 0.4345 0.60012 0.0
H3071 H 0.68864 0.40167 0.64681 0.0
H3072 H 0.64491 0.44004 0.62911 0.0
H3073 H 0.69392 0.40346 0.61769 0.0
C3074 C 0.68286 0.40874 0.60423 0.0
C3075 C 0.66889 0.4173 0.59907 0.0
C3076 C 0.65459 0.43172 0.63299 0.0
C3077 C 0.66938 0.42062 0.61832 0.0
C3078 C 0.653 0.43094 0.64258 0.0
C3079 C 0.6651 0.41997 0.64777 0.0
C3080 C 0.66836 0.42141 0.62854 0.0
C3081 C 0.67908 0.41039 0.64309 0.0
C3082 C 0.68317 0.41039 0.61383 0.0
C3083 C 0.65567 0.42782 0.6038 0.0
N3084 N 0.68023 0.41122 0.63373 0.0
N3085 N 0.65618 0.42908 0.61315 0.0
H3086 H 0.30146 0.90358 0.34751 0.0
H3087 H 0.33822 0.94601 0.39491 0.0
H3088 H 0.33965 0.94908 0.34911 0.0
H3089 H 0.30116 0.89959 0.39323 0.0
H3090 H 0.33534 0.95026 0.37823 0.0
H3091 H 0.29754 0.90496 0.36424 0.0
C3092 C 0.30876 0.9141 0.35136 0.0
C3093 C 0.32105 0.92612 0.34691 0.0
C3094 C 0.32769 0.93926 0.38152 0.0
C3095 C 0.3169 0.92753 0.3661 0.0
C3096 C 0.32924 0.93689 0.39106 0.0
C3097 C 0.32007 0.92229 0.39546 0.0
C3098 C 0.31694 0.92692 0.37634 0.0
C3099 C 0.30878 0.91079 0.3901 0.0
C3100 C 0.30663 0.91478 0.36093 0.0
C3101 C 0.33031 0.93931 0.35228 0.0
N3102 N 0.30765 0.91325 0.38081 0.0
N3103 N 0.32818 0.93955 0.3616 0.0
H3104 H 0.04731 0.59532 0.06292 0.0
H3105 H 0.95521 0.58041 0.03346 0.0
H3106 H 0.04771 0.58606 0.03343 0.0
H3107 H 0.95627 0.60417 0.06079 0.0
H3108 H 0.98897 0.57847 0.03377 0.0
H3109 H 0.01375 0.59482 0.06267 0.0
C3110 C 0.04037 0.59326 0.05637 0.0
C3111 C 0.05044 0.59094 0.04816 0.0
C3112 C 0.98178 0.58408 0.0397 0.0
C3113 C 0.01186 0.59001 0.04787 0.0
C3114 C 0.96255 0.5851 0.03954 0.0
C3115 C 0.95296 0.59256 0.04709 0.0
C3116 C 0.99144 0.59036 0.0475 0.0
C3117 C 0.96313 0.59856 0.05477 0.0
C3118 C 0.02118 0.59288 0.05625 0.0
C3119 C 0.04059 0.58778 0.03994 0.0
N3120 N 0.9818 0.5973 0.05478 0.0
N3121 N 0.02184 0.58746 0.04 0.0
H3122 H 0.68542 0.70393 0.29497 0.0
H3123 H 0.6263 0.79636 0.29189 0.0
H3124 H 0.6279 0.70525 0.28737 0.0
H3125 H 0.68568 0.79639 0.29313 0.0
H3126 H 0.62671 0.76283 0.29053 0.0
H3127 H 0.68607 0.73761 0.29443 0.0
C3128 C 0.67298 0.71125 0.29308 0.0
C3129 C 0.65653 0.70167 0.29129 0.0
C3130 C 0.63968 0.77014 0.29104 0.0
C3131 C 0.65713 0.74028 0.29082 0.0
C3132 C 0.63944 0.78927 0.29187 0.0
C3133 C 0.65598 0.79914 0.29268 0.0
C3134 C 0.65658 0.76071 0.29112 0.0
C3135 C 0.67263 0.78929 0.29248 0.0
C3136 C 0.67334 0.7305 0.29282 0.0
C3137 C 0.64079 0.71199 0.28901 0.0
N3138 N 0.6725 0.77059 0.29181 0.0
N3139 N 0.64146 0.73069 0.2889 0.0
H3140 H 0.45283 0.39506 0.56161 0.0
H3141 H 0.54445 0.41454 0.53265 0.0
H3142 H 0.45212 0.40774 0.53243 0.0
H3143 H 0.54401 0.38539 0.55864 0.0
H3144 H 0.51068 0.41561 0.53302 0.0
H3145 H 0.4864 0.39474 0.56118 0.0
C3146 C 0.45967 0.39767 0.55509 0.0
C3147 C 0.4495 0.40129 0.54703 0.0
C3148 C 0.51799 0.40896 0.53863 0.0
C3149 C 0.4881 0.40132 0.54656 0.0
C3150 C 0.53723 0.40843 0.53844 0.0
C3151 C 0.54701 0.39981 0.54561 0.0
C3152 C 0.5085 0.40104 0.5461 0.0
C3153 C 0.537 0.39198 0.55292 0.0
C3154 C 0.47888 0.39758 0.55487 0.0
C3155 C 0.45929 0.40508 0.53885 0.0
N3156 N 0.5183 0.39285 0.553 0.0
N3157 N 0.47803 0.40501 0.53883 0.0
H3158 H 0.8735 0.2903 0.78168 0.0
H3159 H 0.81409 0.19922 0.79005 0.0
H3160 H 0.81806 0.29184 0.79255 0.0
H3161 H 0.87347 0.20014 0.79104 0.0
H3162 H 0.81409 0.23283 0.7879 0.0
H3163 H 0.8724 0.2567 0.78203 0.0
C3164 C 0.86108 0.28365 0.78414 0.0
C3165 C 0.84593 0.29406 0.78721 0.0
C3166 C 0.82709 0.22562 0.78856 0.0
C3167 C 0.8445 0.25549 0.7874 0.0
C3168 C 0.8271 0.20651 0.78974 0.0
C3169 C 0.8438 0.197 0.79078 0.0
C3170 C 0.84391 0.23517 0.78825 0.0
C3171 C 0.8603 0.20703 0.79037 0.0
C3172 C 0.86046 0.26444 0.78429 0.0
C3173 C 0.83004 0.28451 0.79005 0.0
N3174 N 0.85995 0.22558 0.78911 0.0
N3175 N 0.82976 0.26577 0.7901 0.0
H3176 H 0.95079 0.38421 0.93808 0.0
H3177 H 0.0441 0.41067 0.96374 0.0
H3178 H 0.95175 0.4193 0.96214 0.0
H3179 H 0.04193 0.39512 0.93492 0.0
H3180 H 0.01044 0.4112 0.96408 0.0
H3181 H 0.98449 0.38487 0.93769 0.0
C3182 C 0.95813 0.392 0.9433 0.0
C3183 C 0.94853 0.40169 0.95016 0.0
C3184 C 0.0174 0.40772 0.95769 0.0
C3185 C 0.98702 0.40249 0.94977 0.0
C3186 C 0.03664 0.4075 0.95746 0.0
C3187 C 0.04601 0.40279 0.94929 0.0
C3188 C 0.00742 0.40297 0.94973 0.0
C3189 C 0.03543 0.39846 0.94144 0.0
C3190 C 0.97733 0.39247 0.94304 0.0
C3191 C 0.95868 0.41173 0.9567 0.0
N3192 N 0.01674 0.39855 0.94188 0.0
N3193 N 0.97741 0.41177 0.95639 0.0
H3194 H 0.83629 0.7978 0.21733 0.0
H3195 H 0.8534 0.70504 0.18938 0.0
H3196 H 0.84191 0.79582 0.18762 0.0
H3197 H 0.82832 0.70503 0.2164 0.0
H3198 H 0.85155 0.73865 0.1891 0.0
H3199 H 0.83497 0.76408 0.21761 0.0
C3200 C 0.83706 0.79035 0.21086 0.0
C3201 C 0.83941 0.79975 0.20244 0.0
C3202 C 0.84636 0.73132 0.19508 0.0
C3203 C 0.83827 0.76117 0.20276 0.0
C3204 C 0.84753 0.71217 0.19526 0.0
C3205 C 0.84109 0.70231 0.20295 0.0
C3206 C 0.83892 0.74076 0.20268 0.0
C3207 C 0.83338 0.71217 0.21034 0.0
C3208 C 0.83639 0.77109 0.21104 0.0
C3209 C 0.84057 0.78925 0.1943 0.0
N3210 N 0.83266 0.73091 0.21007 0.0
N3211 N 0.84014 0.77057 0.19468 0.0
H3212 H 0.45053 0.62493 0.45915 0.0
H3213 H 0.54232 0.57732 0.44156 0.0
H3214 H 0.45101 0.56975 0.44808 0.0
H3215 H 0.54257 0.61764 0.46356 0.0
H3216 H 0.50879 0.57632 0.4424 0.0
H3217 H 0.48434 0.62476 0.45927 0.0
C3218 C 0.45779 0.61279 0.45675 0.0
C3219 C 0.44805 0.59732 0.4536 0.0
C3220 C 0.51625 0.58532 0.44706 0.0
C3221 C 0.48654 0.59711 0.45363 0.0
C3222 C 0.53544 0.58584 0.44664 0.0
C3223 C 0.54549 0.59758 0.45251 0.0
C3224 C 0.50691 0.59684 0.45327 0.0
C3225 C 0.53555 0.60863 0.45876 0.0
C3226 C 0.47702 0.61267 0.45686 0.0
C3227 C 0.45806 0.58189 0.45062 0.0
N3228 N 0.51683 0.60808 0.45893 0.0
N3229 N 0.47678 0.58223 0.45062 0.0
H3230 H 0.66562 0.19994 0.71735 0.0
H3231 H 0.6431 0.29185 0.68938 0.0
H3232 H 0.65227 0.20093 0.68826 0.0
H3233 H 0.67125 0.29265 0.71564 0.0
H3234 H 0.64498 0.25827 0.68929 0.0
H3235 H 0.66694 0.23368 0.71726 0.0
C3236 C 0.66314 0.2072 0.71092 0.0
C3237 C 0.65863 0.19752 0.70282 0.0
C3238 C 0.65083 0.26575 0.69506 0.0
C3239 C 0.65983 0.23611 0.70272 0.0
C3240 C 0.64966 0.28491 0.69514 0.0
C3241 C 0.65694 0.295 0.70255 0.0
C3242 C 0.65917 0.25654 0.7025 0.0
C3243 C 0.66553 0.28535 0.70978 0.0
C3244 C 0.66382 0.22646 0.7109 0.0
C3245 C 0.65536 0.20774 0.69473 0.0
N3246 N 0.66628 0.2666 0.70961 0.0
N3247 N 0.65589 0.22643 0.69491 0.0
H3248 H 0.31926 0.29734 0.71137 0.0
H3249 H 0.3773 0.2068 0.69936 0.0
H3250 H 0.37025 0.29769 0.69597 0.0
H3251 H 0.32039 0.20487 0.70802 0.0
H3252 H 0.37612 0.24033 0.69983 0.0
H3253 H 0.3205 0.26364 0.71179 0.0
C3254 C 0.33068 0.29039 0.70805 0.0
C3255 C 0.34468 0.30047 0.70363 0.0
C3256 C 0.36388 0.23259 0.70163 0.0
C3257 C 0.3463 0.26189 0.70424 0.0
C3258 C 0.36451 0.21341 0.70132 0.0
C3259 C 0.34885 0.20293 0.70354 0.0
C3260 C 0.34752 0.24148 0.70424 0.0
C3261 C 0.33284 0.21234 0.7063 0.0
C3262 C 0.33141 0.27114 0.70834 0.0
C3263 C 0.3593 0.29063 0.6996 0.0
N3264 N 0.33256 0.23109 0.70654 0.0
N3265 N 0.35971 0.27194 0.70001 0.0
H3266 H 0.15793 0.70245 0.18429 0.0
H3267 H 0.1666 0.79255 0.2159 0.0
H3268 H 0.16007 0.70003 0.2141 0.0
H3269 H 0.14947 0.79332 0.18735 0.0
H3270 H 0.16849 0.75877 0.21518 0.0
H3271 H 0.1589 0.73597 0.18513 0.0
C3272 C 0.15853 0.70893 0.19102 0.0
C3273 C 0.15869 0.69831 0.19914 0.0
C3274 C 0.16434 0.76637 0.20908 0.0
C3275 C 0.16015 0.73685 0.20013 0.0
C3276 C 0.16336 0.78561 0.20948 0.0
C3277 C 0.15774 0.79571 0.2017 0.0
C3278 C 0.1599 0.75724 0.20081 0.0
C3279 C 0.1536 0.78605 0.19355 0.0
C3280 C 0.15919 0.72811 0.19149 0.0
C3281 C 0.16004 0.70759 0.20765 0.0
N3282 N 0.15478 0.76739 0.19332 0.0
N3283 N 0.16065 0.72633 0.20793 0.0
H3284 H 0.17648 0.20887 0.80101 0.0
H3285 H 0.12582 0.30076 0.78635 0.0
H3286 H 0.13431 0.20917 0.7799 0.0
H3287 H 0.18222 0.30056 0.79573 0.0
H3288 H 0.12668 0.26699 0.78541 0.0
H3289 H 0.17712 0.24241 0.80053 0.0
C3290 C 0.16751 0.21587 0.79618 0.0
C3291 C 0.15534 0.20597 0.79046 0.0
C3292 C 0.13889 0.27437 0.78761 0.0
C3293 C 0.15565 0.24457 0.79015 0.0
C3294 C 0.13837 0.29357 0.7882 0.0
C3295 C 0.15397 0.30336 0.79113 0.0
C3296 C 0.15499 0.26494 0.79016 0.0
C3297 C 0.16995 0.29347 0.79339 0.0
C3298 C 0.16782 0.23508 0.79597 0.0
C3299 C 0.14369 0.21607 0.78456 0.0
N3300 N 0.17 0.27476 0.79295 0.0
N3301 N 0.14403 0.23481 0.78461 0.0
H3302 H 0.33877 0.70087 0.31173 0.0
H3303 H 0.33552 0.7927 0.28113 0.0
H3304 H 0.34091 0.70022 0.2819 0.0
H3305 H 0.34745 0.79194 0.31034 0.0
H3306 H 0.33334 0.75894 0.28133 0.0
H3307 H 0.33791 0.73444 0.31137 0.0
C3308 C 0.33912 0.70776 0.3051 0.0
C3309 C 0.34015 0.69764 0.29684 0.0
C3310 C 0.3364 0.76619 0.28769 0.0
C3311 C 0.33886 0.7362 0.29638 0.0
C3312 C 0.33755 0.78543 0.28759 0.0
C3313 C 0.34179 0.79509 0.29572 0.0
C3314 C 0.3393 0.75662 0.296 0.0
C3315 C 0.34441 0.785 0.30389 0.0
C3316 C 0.33854 0.72696 0.3049 0.0
C3317 C 0.34002 0.7074 0.28844 0.0
N3318 N 0.34311 0.76634 0.30382 0.0
N3319 N 0.33947 0.72615 0.28843 0.0
H3320 H 0.45548 0.12124 0.53515 0.0
H3321 H 0.54856 0.06251 0.53936 0.0
H3322 H 0.45631 0.06295 0.54112 0.0
H3323 H 0.54667 0.12186 0.53782 0.0
H3324 H 0.5149 0.06167 0.53791 0.0
H3325 H 0.48901 0.12096 0.53409 0.0
C3326 C 0.46271 0.10836 0.53624 0.0
C3327 C 0.45305 0.09214 0.53835 0.0
C3328 C 0.52188 0.07486 0.53784 0.0
C3329 C 0.49153 0.09168 0.53705 0.0
C3330 C 0.54108 0.07533 0.53861 0.0
C3331 C 0.55039 0.09229 0.53879 0.0
C3332 C 0.51197 0.09145 0.53718 0.0
C3333 C 0.54001 0.10851 0.53786 0.0
C3334 C 0.48187 0.1082 0.53559 0.0
C3335 C 0.46316 0.07577 0.53945 0.0
N3336 N 0.52139 0.10768 0.53713 0.0
N3337 N 0.48187 0.07599 0.53886 0.0
H3338 H 0.94846 0.93663 0.04137 0.0
H3339 H 0.03942 0.87887 0.02958 0.0
H3340 H 0.94858 0.87821 0.03586 0.0
H3341 H 0.04071 0.93165 0.04338 0.0
H3342 H 0.00584 0.88042 0.02929 0.0
H3343 H 0.98209 0.937 0.03952 0.0
C3344 C 0.95557 0.92394 0.03968 0.0
C3345 C 0.9458 0.90734 0.03884 0.0
C3346 C 0.0135 0.8917 0.03234 0.0
C3347 C 0.98409 0.90766 0.0367 0.0
C3348 C 0.03268 0.8908 0.03255 0.0
C3349 C 0.04299 0.90504 0.03662 0.0
C3350 C 0.00446 0.90701 0.03616 0.0
C3351 C 0.03342 0.92039 0.04012 0.0
C3352 C 0.97472 0.92414 0.03868 0.0
C3353 C 0.95564 0.89125 0.03669 0.0
N3354 N 0.0147 0.92092 0.03984 0.0
N3355 N 0.97424 0.89181 0.03571 0.0
H3356 H 0.45149 0.91803 0.46317 0.0
H3357 H 0.54495 0.91054 0.4342 0.0
H3358 H 0.45403 0.89919 0.43492 0.0
H3359 H 0.54404 0.91056 0.46405 0.0
H3360 H 0.51138 0.91123 0.43412 0.0
H3361 H 0.48527 0.92025 0.46336 0.0
C3362 C 0.45917 0.91449 0.457 0.0
C3363 C 0.45002 0.90832 0.44904 0.0
C3364 C 0.51854 0.91111 0.44068 0.0
C3365 C 0.48846 0.9109 0.44919 0.0
C3366 C 0.53773 0.91062 0.44075 0.0
C3367 C 0.54743 0.91023 0.44915 0.0
C3368 C 0.50887 0.91141 0.44908 0.0
C3369 C 0.53722 0.91095 0.4574 0.0
C3370 C 0.4784 0.91567 0.45713 0.0
C3371 C 0.46058 0.9038 0.44124 0.0
N3372 N 0.51849 0.91145 0.45716 0.0
N3373 N 0.47923 0.90521 0.4415 0.0
H3374 H 0.04719 0.10284 0.93501 0.0
H3375 H 0.95467 0.07542 0.96186 0.0
H3376 H 0.04707 0.07744 0.962 0.0
H3377 H 0.95587 0.10686 0.93654 0.0
H3378 H 0.98838 0.07402 0.96161 0.0
H3379 H 0.01363 0.10258 0.93508 0.0
C3380 C 0.04011 0.09728 0.94098 0.0
C3381 C 0.05002 0.09031 0.94855 0.0
C3382 C 0.98126 0.08122 0.95611 0.0
C3383 C 0.01143 0.08974 0.94861 0.0
C3384 C 0.96202 0.08194 0.95622 0.0
C3385 C 0.95244 0.09134 0.94923 0.0
C3386 C 0.99099 0.08986 0.94892 0.0
C3387 C 0.96268 0.09969 0.94215 0.0
C3388 C 0.02091 0.09705 0.94099 0.0
C3389 C 0.04003 0.08285 0.95598 0.0
N3390 N 0.98137 0.09874 0.94217 0.0
N3391 N 0.02129 0.08281 0.95584 0.0
H3392 H 0.19883 0.48552 0.97037 0.0
H3393 H 0.20065 0.51346 0.02352 0.0
H3394 H 0.19537 0.44682 0.99295 0.0
H3395 H 0.19796 0.5527 0.00112 0.0
H3396 H 0.20636 0.48899 0.01235 0.0
H3397 H 0.20606 0.50997 0.98142 0.0
C3398 C 0.20001 0.48209 0.97764 0.0
C3399 C 0.1962 0.4642 0.98079 0.0
C3400 C 0.20479 0.50299 0.00988 0.0
C3401 C 0.20418 0.49211 0.99344 0.0
C3402 C 0.20166 0.51702 0.01626 0.0
C3403 C 0.19853 0.53513 0.01323 0.0
C3404 C 0.20468 0.50706 0.00039 0.0
C3405 C 0.19985 0.53885 0.00373 0.0
C3406 C 0.20402 0.49607 0.98394 0.0
C3407 C 0.19782 0.46053 0.99027 0.0
N3408 N 0.20258 0.52488 0.99764 0.0
N3409 N 0.20146 0.47442 0.99628 0.0
H3410 H 0.77036 0.96621 0.2262 0.0
H3411 H 0.74204 0.94015 0.27778 0.0
H3412 H 0.80427 0.93578 0.24544 0.0
H3413 H 0.7035 0.96143 0.25769 0.0
H3414 H 0.76706 0.94595 0.26702 0.0
H3415 H 0.74782 0.97115 0.23854 0.0
C3416 C 0.7732 0.96073 0.23301 0.0
C3417 C 0.7892 0.95036 0.23471 0.0
C3418 C 0.75316 0.94958 0.265 0.0
C3419 C 0.76361 0.95621 0.24887 0.0
C3420 C 0.73884 0.94644 0.27119 0.0
C3421 C 0.72056 0.95008 0.2686 0.0
C3422 C 0.74923 0.95626 0.25611 0.0
C3423 C 0.71733 0.958 0.25989 0.0
C3424 C 0.76037 0.96366 0.24006 0.0
C3425 C 0.7923 0.944 0.24375 0.0
N3426 N 0.73152 0.9606 0.25389 0.0
N3427 N 0.77956 0.94688 0.25044 0.0
H3428 H 0.29172 0.48002 0.52356 0.0
H3429 H 0.29705 0.50989 0.47082 0.0
H3430 H 0.30236 0.44257 0.501 0.0
H3431 H 0.29262 0.54798 0.49362 0.0
H3432 H 0.29067 0.48447 0.4814 0.0
H3433 H 0.28381 0.50397 0.5124 0.0
C3434 C 0.29198 0.4767 0.51626 0.0
C3435 C 0.29804 0.45939 0.51319 0.0
C3436 C 0.29077 0.49842 0.48407 0.0
C3437 C 0.28931 0.48682 0.50039 0.0
C3438 C 0.29428 0.51296 0.47801 0.0
C3439 C 0.29571 0.53102 0.48139 0.0
C3440 C 0.28877 0.50199 0.49356 0.0
C3441 C 0.29207 0.53418 0.49078 0.0
C3442 C 0.28757 0.49043 0.50989 0.0
C3443 C 0.29819 0.45589 0.50365 0.0
N3444 N 0.28905 0.51977 0.49657 0.0
N3445 N 0.29417 0.46958 0.49758 0.0
H3446 H 0.80791 0.0631 0.75115 0.0
H3447 H 0.70621 0.03256 0.73919 0.0
H3448 H 0.77482 0.02977 0.76952 0.0
H3449 H 0.74294 0.05931 0.71994 0.0
H3450 H 0.73228 0.0274 0.74961 0.0
H3451 H 0.78593 0.05751 0.73887 0.0
C3452 C 0.79625 0.05424 0.75258 0.0
C3453 C 0.79317 0.0471 0.76147 0.0
C3454 C 0.73468 0.03409 0.74302 0.0
C3455 C 0.76744 0.04116 0.7474 0.0
C3456 C 0.7198 0.03711 0.7371 0.0
C3457 C 0.72236 0.04662 0.72875 0.0
C3458 C 0.75218 0.04081 0.74061 0.0
C3459 C 0.7403 0.0519 0.72629 0.0
C3460 C 0.78356 0.05118 0.74554 0.0
C3461 C 0.77755 0.03599 0.76286 0.0
N3462 N 0.75446 0.04917 0.73226 0.0
N3463 N 0.76511 0.03361 0.75594 0.0
H3464 H 0.80262 0.51341 0.0237 0.0
H3465 H 0.80745 0.49257 0.97061 0.0
H3466 H 0.79973 0.5561 0.00294 0.0
H3467 H 0.79489 0.45073 0.99081 0.0
H3468 H 0.80108 0.51629 0.98217 0.0
H3469 H 0.7959 0.49053 0.01186 0.0
C3470 C 0.80017 0.51806 0.0167 0.0
C3471 C 0.80211 0.53671 0.01429 0.0
C3472 C 0.79934 0.50195 0.98405 0.0
C3473 C 0.79484 0.51046 0.00065 0.0
C3474 C 0.80302 0.48844 0.97746 0.0
C3475 C 0.80187 0.46977 0.97984 0.0
C3476 C 0.79489 0.49668 0.99312 0.0
C3477 C 0.79595 0.46504 0.98875 0.0
C3478 C 0.79641 0.50494 0.00992 0.0
C3479 C 0.79891 0.54182 0.00507 0.0
N3480 N 0.79302 0.47843 0.99514 0.0
N3481 N 0.79576 0.52873 -0.00144 0.0
H3482 H 0.22724 0.03936 0.77019 0.0
H3483 H 0.25783 0.06615 0.71902 0.0
H3484 H 0.19638 0.07423 0.7517 0.0
H3485 H 0.29448 0.04133 0.73897 0.0
H3486 H 0.23218 0.06114 0.72953 0.0
H3487 H 0.24882 0.03243 0.75754 0.0
C3488 C 0.22482 0.04517 0.76339 0.0
C3489 C 0.21028 0.05753 0.76193 0.0
C3490 C 0.24579 0.05653 0.73156 0.0
C3491 C 0.23466 0.04981 0.74757 0.0
C3492 C 0.26046 0.05925 0.72552 0.0
C3493 C 0.27842 0.05441 0.72817 0.0
C3494 C 0.24908 0.04907 0.74036 0.0
C3495 C 0.28092 0.04568 0.73675 0.0
C3496 C 0.23712 0.04131 0.75622 0.0
C3497 C 0.20763 0.0648 0.75307 0.0
N3498 N 0.26644 0.04353 0.74261 0.0
N3499 N 0.21981 0.06098 0.74624 0.0
H3500 H 0.7087 0.47533 0.51851 0.0
H3501 H 0.68048 0.5045 0.46729 0.0
H3502 H 0.67438 0.44334 0.50024 0.0
H3503 H 0.70338 0.54232 0.48722 0.0
H3504 H 0.68653 0.47905 0.4779 0.0
H3505 H 0.71481 0.49699 0.50578 0.0
C3506 C 0.70282 0.4727 0.51175 0.0
C3507 C 0.69085 0.45781 0.51037 0.0
C3508 C 0.69049 0.49288 0.47991 0.0
C3509 C 0.69767 0.48223 0.49593 0.0
C3510 C 0.68702 0.50738 0.47387 0.0
C3511 C 0.69108 0.52551 0.4765 0.0
C3512 C 0.69791 0.49657 0.48868 0.0
C3513 C 0.69993 0.52851 0.48499 0.0
C3514 C 0.70623 0.48503 0.50453 0.0
C3515 C 0.68348 0.45488 0.50156 0.0
N3516 N 0.70275 0.51418 0.49087 0.0
N3517 N 0.68688 0.46709 0.49468 0.0
H3518 H 0.20685 0.96075 0.2378 0.0
H3519 H 0.30692 0.92584 0.24903 0.0
H3520 H 0.24264 0.93498 0.21777 0.0
H3521 H 0.27735 0.96276 0.2672 0.0
H3522 H 0.28492 0.93241 0.23691 0.0
H3523 H 0.23332 0.96487 0.24807 0.0
C3524 C 0.22033 0.95624 0.2355 0.0
C3525 C 0.2225 0.94727 0.22697 0.0
C3526 C 0.28336 0.93931 0.2435 0.0
C3527 C 0.25275 0.95184 0.23868 0.0
C3528 C 0.29606 0.93566 0.25045 0.0
C3529 C 0.29396 0.94356 0.25925 0.0
C3530 C 0.26815 0.95066 0.24535 0.0
C3531 C 0.27928 0.95591 0.26062 0.0
C3532 C 0.23543 0.95866 0.24135 0.0
C3533 C 0.2403 0.94199 0.22427 0.0
N3534 N 0.26675 0.95884 0.2538 0.0
N3535 N 0.25466 0.94408 0.23017 0.0
H3536 H 0.68835 0.00528 0.52916 0.0
H3537 H 0.71571 0.97358 0.47826 0.0
H3538 H 0.7151 0.04106 0.50943 0.0
H3539 H 0.67927 0.94394 0.49662 0.0
H3540 H 0.72222 0.99538 0.49076 0.0
H3541 H 0.69253 0.97954 0.51862 0.0
C3542 C 0.69552 0.00768 0.52271 0.0
C3543 C 0.70115 0.02546 0.52013 0.0
C3544 C 0.71304 0.9839 0.49206 0.0
C3545 C 0.70548 0.99603 0.50789 0.0
C3546 C 0.70921 0.97152 0.48492 0.0
C3547 C 0.6967 0.95699 0.48632 0.0
C3548 C 0.70436 0.98168 0.50066 0.0
C3549 C 0.68909 0.95477 0.49518 0.0
C3550 C 0.69774 0.99297 0.51664 0.0
C3551 C 0.71016 0.02767 0.51161 0.0
N3552 N 0.69291 0.96707 0.50196 0.0
N3553 N 0.71182 0.01317 0.50572 0.0
H3554 H 0.23051 0.46412 0.77029 0.0
H3555 H 0.2555 0.44621 0.71822 0.0
H3556 H 0.19099 0.44923 0.74931 0.0
H3557 H 0.29454 0.46783 0.738 0.0
H3558 H 0.23066 0.45355 0.72876 0.0
H3559 H 0.25273 0.4717 0.75816 0.0
C3560 C 0.22636 0.46291 0.76312 0.0
C3561 C 0.20907 0.45565 0.76077 0.0
C3562 C 0.24462 0.45698 0.73076 0.0
C3563 C 0.23442 0.46398 0.7469 0.0
C3564 C 0.25891 0.45291 0.72468 0.0
C3565 C 0.27729 0.45602 0.72727 0.0
C3566 C 0.2487 0.46389 0.73959 0.0
C3567 C 0.28065 0.46458 0.73583 0.0
C3568 C 0.23907 0.46715 0.7562 0.0
C3569 C 0.20438 0.45433 0.7514 0.0
N3570 N 0.26652 0.46787 0.74176 0.0
N3571 N 0.21709 0.45815 0.74481 0.0
H3572 H 0.80692 0.99312 0.02836 0.0
H3573 H 0.7852 0.02355 0.97662 0.0
H3574 H 0.78192 0.95719 0.00814 0.0
H3575 H 0.81958 0.05365 0.99567 0.0
H3576 H 0.77633 0.00269 0.98923 0.0
H3577 H 0.80339 0.01885 0.01773 0.0
C3578 C 0.80024 0.99069 0.02178 0.0
C3579 C 0.795 0.97287 0.01908 0.0
C3580 C 0.78556 0.01406 0.99067 0.0
C3581 C 0.79141 0.00226 0.00676 0.0
C3582 C 0.79055 0.02596 0.98351 0.0
C3583 C 0.80335 0.04006 0.98513 0.0
C3584 C 0.79337 0.01645 -0.00052 0.0
C3585 C 0.80992 0.04269 0.99413 0.0
C3586 C 0.79839 0.0054 0.01567 0.0
C3587 C 0.78658 0.97062 0.01041 0.0
N3588 N 0.805 0.03087 0.00096 0.0
N3589 N 0.78531 0.9851 0.00448 0.0
H3590 H 0.30305 0.56547 0.25213 0.0
H3591 H 0.19932 0.54073 0.24069 0.0
H3592 H 0.26821 0.53589 0.27129 0.0
H3593 H 0.23845 0.56119 0.22069 0.0
H3594 H 0.22463 0.5362 0.25167 0.0
H3595 H 0.28025 0.56093 0.24015 0.0
C3596 C 0.29079 0.55766 0.25381 0.0
C3597 C 0.28759 0.55117 0.26282 0.0
C3598 C 0.22768 0.54139 0.24482 0.0
C3599 C 0.26091 0.54649 0.24907 0.0
C3600 C 0.21324 0.54407 0.23858 0.0
C3601 C 0.21675 0.55149 0.22979 0.0
C3602 C 0.24568 0.54635 0.24227 0.0
C3603 C 0.23507 0.55531 0.22736 0.0
C3604 C 0.27763 0.55521 0.24694 0.0
C3605 C 0.27113 0.54152 0.26453 0.0
N3606 N 0.24878 0.5529 0.23359 0.0
N3607 N 0.25828 0.5397 0.25775 0.0
H3608 H 0.29226 0.05081 0.50336 0.0
H3609 H 0.29408 0.94357 0.49127 0.0
H3610 H 0.3041 0.00763 0.52306 0.0
H3611 H 0.30142 0.98698 0.47116 0.0
H3612 H 0.28792 0.9669 0.50306 0.0
H3613 H 0.2859 0.02728 0.49169 0.0
C3614 C 0.29333 0.03642 0.50528 0.0
C3615 C 0.29913 0.03124 0.51417 0.0
C3616 C 0.29058 0.97125 0.49602 0.0
C3617 C 0.29153 0.00434 0.5009 0.0
C3618 C 0.29419 0.95798 0.4893 0.0
C3619 C 0.2987 0.96332 0.48025 0.0
C3620 C 0.2914 0.98999 0.49367 0.0
C3621 C 0.29806 0.98217 0.47804 0.0
C3622 C 0.28958 0.02303 0.49863 0.0
C3623 C 0.29968 0.01236 0.51633 0.0
N3624 N 0.29475 0.99484 0.48474 0.0
N3625 N 0.29617 -0.0004 0.5097 0.0
H3626 H 0.69402 0.54272 0.25242 0.0
H3627 H 0.80177 0.53925 0.24199 0.0
H3628 H 0.73656 0.54804 0.27314 0.0
H3629 H 0.75999 0.55148 0.22162 0.0
H3630 H 0.77747 0.53234 0.25317 0.0
H3631 H 0.71774 0.53585 0.24092 0.0
C3632 C 0.7083 0.54222 0.25459 0.0
C3633 C 0.71331 0.5464 0.26372 0.0
C3634 C 0.77368 0.53621 0.2462 0.0
C3635 C 0.74041 0.53829 0.25065 0.0
C3636 C 0.78752 0.54025 0.23983 0.0
C3637 C 0.78293 0.54639 0.23091 0.0
C3638 C 0.75516 0.53828 0.24362 0.0
C3639 C 0.76424 0.54686 0.22841 0.0
C3640 C 0.72179 0.53819 0.24803 0.0
C3641 C 0.73198 0.54496 0.26619 0.0
N3642 N 0.75103 0.54314 0.23478 0.0
N3643 N 0.74487 0.54129 0.25966 0.0
H3644 H 0.20799 0.94615 0.00493 0.0
H3645 H 0.20389 0.05368 0.99381 0.0
H3646 H 0.19427 0.98791 0.02504 0.0
H3647 H 0.20048 0.01044 0.97335 0.0
H3648 H 0.20984 0.03034 0.00564 0.0
H3649 H 0.21512 0.97039 0.99377 0.0
C3650 C 0.20673 0.96041 0.00704 0.0
C3651 C 0.2001 0.96501 0.01586 0.0
C3652 C 0.20809 0.02606 -0.00148 0.0
C3653 C 0.20832 0.99275 0.00316 0.0
C3654 C 0.20458 0.03934 0.99177 0.0
C3655 C 0.20128 0.03403 0.98258 0.0
C3656 C 0.20842 0.00737 0.99605 0.0
C3657 C 0.20293 0.01527 0.98031 0.0
C3658 C 0.21086 0.97423 0.00068 0.0
C3659 C 0.19925 0.98372 0.01831 0.0
N3660 N 0.20616 0.00262 0.98702 0.0
N3661 N 0.20301 0.99693 0.01194 0.0
H3662 H 0.76027 0.44624 0.7749 0.0
H3663 H 0.73527 0.44918 0.72221 0.0
H3664 H 0.80062 0.45533 0.75344 0.0
H3665 H 0.69439 0.45228 0.74386 0.0
H3666 H 0.75905 0.45637 0.73348 0.0
H3667 H 0.73592 0.45337 0.76391 0.0
C3668 C 0.76408 0.45017 0.76793 0.0
C3669 C 0.78254 0.44979 0.76504 0.0
C3670 C 0.74485 0.4558 0.73575 0.0
C3671 C 0.75461 0.45751 0.75234 0.0
C3672 C 0.73119 0.45179 0.72929 0.0
C3673 C 0.71279 0.44974 0.73211 0.0
C3674 C 0.74014 0.4575 0.74513 0.0
C3675 C 0.70846 0.45315 0.74142 0.0
C3676 C 0.75011 0.45414 0.76163 0.0
C3677 C 0.78654 0.45489 0.7559 0.0
N3678 N 0.72208 0.45653 0.74762 0.0
N3679 N 0.77267 0.4582 0.74983 0.0
H3680 H 0.18886 0.79654 0.05236 0.0
H3681 H 0.17227 0.70004 0.02696 0.0
H3682 H 0.16345 0.79181 0.0255 0.0
H3683 H 0.18197 0.70586 0.05623 0.0
H3684 H 0.17543 0.73355 0.02521 0.0
H3685 H 0.19311 0.76316 0.05265 0.0
C3686 C 0.18448 0.7885 0.04645 0.0
C3687 C 0.17566 0.79691 0.03892 0.0
C3688 C 0.17703 0.72744 0.032 0.0
C3689 C 0.18027 0.75873 0.03927 0.0
C3690 C 0.17532 0.70837 0.03299 0.0
C3691 C 0.17669 0.7003 0.04177 0.0
C3692 C 0.18032 0.73839 0.03983 0.0
C3693 C 0.18056 0.71164 0.04937 0.0
C3694 C 0.18677 0.76945 0.04665 0.0
C3695 C 0.17006 0.7858 0.03149 0.0
N3696 N 0.18218 0.73013 0.04823 0.0
N3697 N 0.17236 0.76723 0.03187 0.0
H3698 H 0.54608 0.90569 0.27822 0.0
H3699 H 0.45497 0.944 0.30227 0.0
H3700 H 0.54658 0.94565 0.3003 0.0
H3701 H 0.45514 0.9054 0.27958 0.0
H3702 H 0.48825 0.94795 0.3004 0.0
H3703 H 0.51261 0.90843 0.27736 0.0
C3704 C 0.53911 0.91516 0.28284 0.0
C3705 C 0.54904 0.92529 0.28942 0.0
C3706 C 0.48097 0.93876 0.29577 0.0
C3707 C 0.51075 0.92846 0.28852 0.0
C3708 C 0.46197 0.93657 0.29681 0.0
C3709 C 0.45235 0.92414 0.29116 0.0
C3710 C 0.49037 0.92843 0.28904 0.0
C3711 C 0.46211 0.91479 0.28422 0.0
C3712 C 0.52002 0.91677 0.28233 0.0
C3713 C 0.53942 0.9376 0.29513 0.0
N3714 N 0.48059 0.917 0.28342 0.0
N3715 N 0.52075 0.93867 0.29463 0.0
H3716 H 0.30593 0.19895 0.55304 0.0
H3717 H 0.3326 0.29368 0.52813 0.0
H3718 H 0.33998 0.20241 0.52865 0.0
H3719 H 0.30944 0.29047 0.55557 0.0
H3720 H 0.33048 0.26018 0.52689 0.0
H3721 H 0.302 0.23244 0.55264 0.0
C3722 C 0.31235 0.20674 0.54752 0.0
C3723 C 0.32342 0.19796 0.54091 0.0
C3724 C 0.32574 0.26684 0.53315 0.0
C3725 C 0.31911 0.23619 0.54045 0.0
C3726 C 0.32701 0.28595 0.53389 0.0
C3727 C 0.32141 0.2949 0.54202 0.0
C3728 C 0.31877 0.25657 0.5406 0.0
C3729 C 0.31384 0.28419 0.54916 0.0
C3730 C 0.3102 0.22585 0.54733 0.0
C3731 C 0.33156 0.20871 0.53396 0.0
N3732 N 0.31288 0.26558 0.54831 0.0
N3733 N 0.32932 0.22728 0.53394 0.0
H3734 H 0.95462 0.05147 0.80469 0.0
H3735 H 0.04526 0.09399 0.78165 0.0
H3736 H 0.95454 0.09534 0.78455 0.0
H3737 H 0.04669 0.05361 0.80357 0.0
H3738 H 0.01186 0.09129 0.78115 0.0
H3739 H 0.98812 0.0489 0.80297 0.0
C3740 C 0.96164 0.06041 0.79984 0.0
C3741 C 0.95187 0.07379 0.79484 0.0
C3742 C 0.01946 0.0829 0.78603 0.0
C3743 C 0.99005 0.07101 0.79287 0.0
C3744 C 0.03859 0.08431 0.78626 0.0
C3745 C 0.04882 0.07407 0.79269 0.0
C3746 C 0.01042 0.07122 0.79229 0.0
C3747 C 0.03932 0.06199 0.7986 0.0
C3748 C 0.98074 0.059 0.79889 0.0
C3749 C 0.96161 0.08509 0.78867 0.0
N3750 N 0.02063 0.06099 0.7983 0.0
N3751 N 0.98016 0.0835 0.7879 0.0
H3752 H 0.15689 0.20265 0.96684 0.0
H3753 H 0.18939 0.29305 0.94052 0.0
H3754 H 0.19433 0.20172 0.94368 0.0
H3755 H 0.16251 0.29422 0.96715 0.0
H3756 H 0.19239 0.2597 0.94184 0.0
H3757 H 0.15948 0.23624 0.96735 0.0
C3758 C 0.16575 0.20955 0.9619 0.0
C3759 C 0.17531 0.19946 0.95517 0.0
C3760 C 0.18599 0.26727 0.94744 0.0
C3761 C 0.17829 0.23781 0.95567 0.0
C3762 C 0.18436 0.28637 0.94671 0.0
C3763 C 0.17554 0.2965 0.9537 0.0
C3764 C 0.1786 0.25819 0.95516 0.0
C3765 C 0.16905 0.28696 0.9615 0.0
C3766 C 0.1673 0.22869 0.96222 0.0
C3767 C 0.18679 0.209 0.94901 0.0
N3768 N 0.17055 0.26833 0.96197 0.0
N3769 N 0.1878 0.22768 0.94934 0.0
H3770 H 0.95326 0.9025 0.21903 0.0
H3771 H 0.04683 0.94598 0.20013 0.0
H3772 H 0.95538 0.94595 0.1987 0.0
H3773 H 0.04433 0.90281 0.22061 0.0
H3774 H 0.01339 0.94926 0.20108 0.0
H3775 H 0.98651 0.90524 0.22116 0.0
C3776 C 0.96075 0.91269 0.21505 0.0
C3777 C 0.95163 0.92384 0.20859 0.0
C3778 C 0.02017 0.93921 0.20545 0.0
C3779 C 0.98967 0.92709 0.21098 0.0
C3780 C 0.03928 0.93742 0.20495 0.0
C3781 C 0.04834 0.92394 0.21022 0.0
C3782 C 0.01006 0.9274 0.21123 0.0
C3783 C 0.03785 0.91311 0.21629 0.0
C3784 C 0.97971 0.91431 0.21629 0.0
C3785 C 0.9619 0.93708 0.20375 0.0
N3786 N 0.01925 0.91495 0.21656 0.0
N3787 N 0.98043 0.93819 0.20496 0.0
H3788 H 0.32972 0.70412 0.47021 0.0
H3789 H 0.30174 0.796 0.44308 0.0
H3790 H 0.30563 0.70452 0.44291 0.0
H3791 H 0.33794 0.79511 0.46674 0.0
H3792 H 0.29746 0.76268 0.44464 0.0
H3793 H 0.32743 0.73771 0.47062 0.0
C3794 C 0.32387 0.71124 0.46432 0.0
C3795 C 0.31808 0.70147 0.45646 0.0
C3796 C 0.3062 0.76982 0.44954 0.0
C3797 C 0.31523 0.73987 0.45695 0.0
C3798 C 0.30856 0.78882 0.44869 0.0
C3799 C 0.32036 0.79824 0.45474 0.0
C3800 C 0.31564 0.76023 0.45652 0.0
C3801 C 0.32896 0.78828 0.46184 0.0
C3802 C 0.32249 0.7304 0.46458 0.0
C3803 C 0.31018 0.71142 0.44913 0.0
N3804 N 0.32651 0.76978 0.46251 0.0
N3805 N 0.30912 0.73008 0.44953 0.0
H3806 H 0.45424 0.04956 0.70229 0.0
H3807 H 0.54555 0.09295 0.72397 0.0
H3808 H 0.45467 0.09499 0.72155 0.0
H3809 H 0.54562 0.04969 0.70351 0.0
H3810 H 0.51209 0.0903 0.72512 0.0
H3811 H 0.48739 0.04573 0.70466 0.0
C3812 C 0.46126 0.05852 0.70714 0.0
C3813 C 0.45176 0.07278 0.71163 0.0
C3814 C 0.51943 0.08123 0.72045 0.0
C3815 C 0.48967 0.06863 0.71429 0.0
C3816 C 0.53852 0.08278 0.71978 0.0
C3817 C 0.54833 0.0717 0.71354 0.0
C3818 C 0.51005 0.0686 0.71479 0.0
C3819 C 0.53859 0.05849 0.70841 0.0
C3820 C 0.48019 0.0564 0.70845 0.0
C3821 C 0.46155 0.08407 0.71779 0.0
N3822 N 0.51994 0.05747 0.70906 0.0
N3823 N 0.47999 0.08186 0.71887 0.0
H3824 H 0.79594 0.29462 0.9501 0.0
H3825 H 0.84868 0.20401 0.96662 0.0
H3826 H 0.84421 0.29492 0.96753 0.0
H3827 H 0.79871 0.2028 0.95042 0.0
H3828 H 0.84534 0.23721 0.9683 0.0
H3829 H 0.79495 0.261 0.95125 0.0
C3830 C 0.80625 0.28762 0.95422 0.0
C3831 C 0.82027 0.29758 0.95866 0.0
C3832 C 0.835 0.22969 0.96444 0.0
C3833 C 0.81922 0.25916 0.96002 0.0
C3834 C 0.83683 0.21066 0.96353 0.0
C3835 C 0.82401 0.20056 0.95832 0.0
C3836 C 0.82033 0.23877 0.96005 0.0
C3837 C 0.80912 0.21007 0.95435 0.0
C3838 C 0.80564 0.26845 0.95491 0.0
C3839 C 0.83308 0.28784 0.96404 0.0
N3840 N 0.80777 0.22866 0.95523 0.0
N3841 N 0.83235 0.26917 0.96449 0.0
H3842 H 0.64951 0.79566 0.46527 0.0
H3843 H 0.70111 0.70428 0.44881 0.0
H3844 H 0.6965 0.79577 0.44699 0.0
H3845 H 0.65462 0.70473 0.46741 0.0
H3846 H 0.70204 0.73794 0.44948 0.0
H3847 H 0.65339 0.76254 0.46748 0.0
C3848 C 0.66067 0.78868 0.46173 0.0
C3849 C 0.67255 0.79839 0.45584 0.0
C3850 C 0.69179 0.73066 0.45351 0.0
C3851 C 0.67716 0.76051 0.45837 0.0
C3852 C 0.69122 0.71146 0.45311 0.0
C3853 C 0.67765 0.7017 0.45799 0.0
C3854 C 0.6786 0.74017 0.45877 0.0
C3855 C 0.66538 0.71167 0.46357 0.0
C3856 C 0.66296 0.7698 0.46304 0.0
C3857 C 0.68704 0.78878 0.4516 0.0
N3858 N 0.66601 0.73036 0.46373 0.0
N3859 N 0.68882 0.77032 0.45287 0.0
H3860 H 0.84681 0.70414 0.02731 0.0
H3861 H 0.79988 0.79613 0.0462 0.0
H3862 H 0.80344 0.70477 0.04772 0.0
H3863 H 0.84334 0.79525 0.02583 0.0
H3864 H 0.79789 0.76258 0.04524 0.0
H3865 H 0.84291 0.7373 0.0252 0.0
C3866 C 0.83639 0.71127 0.03131 0.0
C3867 C 0.8256 0.70176 0.03779 0.0
C3868 C 0.80772 0.76974 0.0409 0.0
C3869 C 0.82102 0.73969 0.0354 0.0
C3870 C 0.80878 0.78891 0.0414 0.0
C3871 C 0.82196 0.79848 0.03617 0.0
C3872 C 0.81996 0.76007 0.03515 0.0
C3873 C 0.83324 0.78839 0.03013 0.0
C3874 C 0.83411 0.73018 0.03008 0.0
C3875 C 0.81204 0.71157 0.04265 0.0
N3876 N 0.83211 0.76972 0.02986 0.0
N3877 N 0.81028 0.73006 0.04143 0.0
H3878 H 0.70026 0.29351 0.55143 0.0
H3879 H 0.65972 0.20315 0.52725 0.0
H3880 H 0.6597 0.29394 0.52959 0.0
H3881 H 0.69761 0.20162 0.55022 0.0
H3882 H 0.66304 0.23659 0.52663 0.0
H3883 H 0.70269 0.26001 0.54984 0.0
C3884 C 0.69195 0.28659 0.54627 0.0
C3885 C 0.67968 0.29656 0.54067 0.0
C3886 C 0.67078 0.22896 0.53176 0.0
C3887 C 0.68249 0.2583 0.53877 0.0
C3888 C 0.66884 0.20988 0.53212 0.0
C3889 C 0.67822 0.19966 0.53887 0.0
C3890 C 0.68208 0.23793 0.53823 0.0
C3891 C 0.69015 0.209 0.5449 0.0
C3892 C 0.69341 0.26749 0.54533 0.0
C3893 C 0.66949 0.2869 0.53399 0.0
N3894 N 0.69158 0.22766 0.54451 0.0
N3895 N 0.67102 0.26833 0.53329 0.0
H3896 H 0.95148 0.44391 0.80089 0.0
H3897 H 0.04667 0.42261 0.77523 0.0
H3898 H 0.95553 0.41375 0.77526 0.0
H3899 H 0.04268 0.44158 0.80346 0.0
H3900 H 0.01319 0.42477 0.77388 0.0
H3901 H 0.98478 0.44894 0.80053 0.0
C3902 C 0.95934 0.43862 0.79511 0.0
C3903 C 0.95079 0.42825 0.78813 0.0
C3904 C 0.01968 0.42862 0.78033 0.0
C3905 C 0.98885 0.43376 0.78774 0.0
C3906 C 0.03878 0.42731 0.78113 0.0
C3907 C 0.0475 0.43168 0.78951 0.0
C3908 C 0.00922 0.43438 0.78796 0.0
C3909 C 0.0366 0.43814 0.79685 0.0
C3910 C 0.97835 0.44138 0.79494 0.0
C3911 C 0.96166 0.42156 0.78085 0.0
N3912 N 0.01801 0.43914 0.79592 0.0
N3913 N 0.98016 0.42433 0.78087 0.0
H3914 H 0.45448 0.59521 0.27983 0.0
H3915 H 0.54718 0.5525 0.30033 0.0
H3916 H 0.45544 0.55169 0.30015 0.0
H3917 H 0.54557 0.59537 0.27966 0.0
H3918 H 0.51374 0.54922 0.29901 0.0
H3919 H 0.4879 0.59286 0.27838 0.0
C3920 C 0.46176 0.58509 0.28395 0.0
C3921 C 0.45225 0.57379 0.29021 0.0
C3922 C 0.52073 0.55922 0.2947 0.0
C3923 C 0.49049 0.57101 0.28861 0.0
C3924 C 0.53982 0.56103 0.29542 0.0
C3925 C 0.54912 0.5744 0.29018 0.0
C3926 C 0.5109 0.57089 0.28872 0.0
C3927 C 0.53889 0.58517 0.28397 0.0
C3928 C 0.48082 0.58369 0.2831 0.0
C3929 C 0.46227 0.56065 0.29524 0.0
N3930 N 0.52032 0.58328 0.28348 0.0
N3931 N 0.4809 0.55976 0.29442 0.0
H3932 H 0.45305 0.43671 0.69271 0.0
H3933 H 0.54282 0.40523 0.71982 0.0
H3934 H 0.45131 0.41409 0.72032 0.0
H3935 H 0.5443 0.43939 0.69542 0.0
H3936 H 0.50932 0.40881 0.72037 0.0
H3937 H 0.48645 0.4386 0.69381 0.0
C3938 C 0.45963 0.4324 0.69907 0.0
C3939 C 0.44928 0.42515 0.70643 0.0
C3940 C 0.51699 0.4157 0.71496 0.0
C3941 C 0.48769 0.42689 0.70763 0.0
C3942 C 0.53607 0.41359 0.71462 0.0
C3943 C 0.54629 0.42193 0.70754 0.0
C3944 C 0.50805 0.42603 0.70808 0.0
C3945 C 0.53694 0.4328 0.70103 0.0
C3946 C 0.47876 0.43339 0.69967 0.0
C3947 C 0.45871 0.41944 0.71441 0.0
N3948 N 0.51831 0.43437 0.7014 0.0
N3949 N 0.4774 0.42028 0.71477 0.0
H3950 H 0.95443 0.5815 0.21898 0.0
H3951 H 0.04199 0.5759 0.18713 0.0
H3952 H 0.95139 0.56199 0.19087 0.0
H3953 H 0.04641 0.56907 0.21664 0.0
H3954 H 0.00852 0.5723 0.18832 0.0
H3955 H 0.98808 0.57833 0.21843 0.0
C3956 C 0.96088 0.57634 0.21274 0.0
C3957 C 0.95024 0.57204 0.20495 0.0
C3958 C 0.01682 0.57137 0.19452 0.0
C3959 C 0.98847 0.56868 0.20422 0.0
C3960 C 0.03584 0.57351 0.19385 0.0
C3961 C 0.04679 0.57283 0.20181 0.0
C3962 C 0.00872 0.56895 0.20325 0.0
C3963 C 0.03831 0.56963 0.21036 0.0
C3964 C 0.98 0.57448 0.21244 0.0
C3965 C 0.95915 0.56535 0.19703 0.0
N3966 N 0.01967 0.56807 0.21089 0.0
N3967 N 0.9778 0.56414 0.19682 0.0
loop_
_geom_bond_atom_site_label_1
_geom_bond_atom_site_label_2
_geom_bond_distance
_geom_bond_site_symmetry_2
_ccdc_geom_bond_type
Li0 N17 1.990 . S
Li0 O60 1.956 . S
Li0 O61 1.970 . S
Li0 O62 1.961 . S
Li1 N25 1.990 . S
Li1 O60 1.970 . S
Li1 O61 1.956 . S
Li1 O63 1.961 . S
Li2 N47 1.990 . S
Li2 O60 1.961 . S
Li2 O62 1.956 . S
Li2 O63 1.970 . S
Li3 N53 1.990 . S
Li3 O61 1.961 . S
Li3 O62 1.970 . S
Li3 O63 1.956 . S
C4 C6 1.348 . S
C4 C7 1.356 . S
C4 O60 1.325 . S
N5 C8 1.314 . S
N5 C9 1.279 . S
C6 C4 1.348 . S
C6 C8 1.353 . S
C6 H64 0.929 . S
C7 C4 1.356 . S
C7 C9 1.358 . S
C7 H65 0.930 . S
C8 N5 1.314 . S
C8 C6 1.353 . S
C8 H66 0.930 . S
C9 N5 1.279 . S
C9 C7 1.358 . S
C9 H67 0.930 . S
C10 C13 1.348 . S
C10 C14 1.356 . S
C10 O61 1.325 . S
C11 N12 1.279 . S
C11 C14 1.358 . S
C11 H68 0.930 . S
N12 C11 1.279 . S
N12 C15 1.314 . S
C13 C10 1.348 . S
C13 C15 1.353 . S
C13 H69 0.929 . S
C14 C10 1.356 . S
C14 C11 1.358 . S
C14 H70 0.930 . S
C15 N12 1.314 . S
C15 C13 1.353 . S
C15 H71 0.930 . S
C16 N17 1.314 . S
C16 C21 1.353 . S
C16 H22 0.930 . S
N17 Li0 1.990 . S
N17 C16 1.314 . S
N17 C19 1.279 . S
C18 C19 1.358 . S
C18 C20 1.356 . S
C18 H72 0.930 . S
C19 N17 1.279 . S
C19 C18 1.358 . S
C19 H23 0.930 . S
C20 C18 1.356 . S
C20 C21 1.348 . S
C21 C16 1.353 . S
C21 C20 1.348 . S
C21 H73 0.929 . S
H22 C16 0.930 . S
H23 C19 0.930 . S
C24 N25 1.314 . S
C24 C26 1.353 . S
C24 H30 0.930 . S
N25 Li1 1.990 . S
N25 C24 1.314 . S
N25 C28 1.279 . S
C26 C24 1.353 . S
C26 C29 1.348 . S
C26 H74 0.929 . S
C27 C28 1.358 . S
C27 C29 1.356 . S
C27 H75 0.930 . S
C28 N25 1.279 . S
C28 C27 1.358 . S
C28 H31 0.930 . S
C29 C26 1.348 . S
C29 C27 1.356 . S
H30 C24 0.930 . S
H31 C28 0.930 . S
C32 C34 1.348 . S
C32 C35 1.356 . S
C32 O62 1.325 . S
N33 C36 1.314 . S
N33 C37 1.279 . S
C34 C32 1.348 . S
C34 C36 1.353 . S
C34 H76 0.929 . S
C35 C32 1.356 . S
C35 C37 1.358 . S
C35 H77 0.930 . S
C36 N33 1.314 . S
C36 C34 1.353 . S
C36 H78 0.930 . S
C37 N33 1.279 . S
C37 C35 1.358 . S
C37 H79 0.930 . S
C38 C39 1.348 . S
C38 C40 1.356 . S
C38 O63 1.325 . S
C39 C38 1.348 . S
C39 C41 1.353 . S
C39 H80 0.929 . S
C40 C38 1.356 . S
C40 C42 1.358 . S
C40 H81 0.930 . S
C41 C39 1.353 . S
C41 N43 1.314 . S
C41 H82 0.930 . S
C42 C40 1.358 . S
C42 N43 1.279 . S
C42 H83 0.930 . S
N43 C41 1.314 . S
N43 C42 1.279 . S
C44 C46 1.353 . S
C44 N47 1.314 . S
C44 H50 0.930 . S
C45 N47 1.279 . S
C45 C48 1.358 . S
C45 H51 0.930 . S
C46 C44 1.353 . S
C46 C49 1.348 . S
C46 H84 0.929 . S
N47 Li2 1.990 . S
N47 C44 1.314 . S
N47 C45 1.279 . S
C48 C45 1.358 . S
C48 C49 1.356 . S
C48 H85 0.930 . S
C49 C46 1.348 . S
C49 C48 1.356 . S
H50 C44 0.930 . S
H51 C45 0.930 . S
C52 N53 1.314 . S
C52 C54 1.353 . S
C52 H58 0.930 . S
N53 Li3 1.990 . S
N53 C52 1.314 . S
N53 C56 1.279 . S
C54 C52 1.353 . S
C54 C57 1.348 . S
C54 H86 0.929 . S
C55 C56 1.358 . S
C55 C57 1.356 . S
C55 H87 0.930 . S
C56 N53 1.279 . S
C56 C55 1.358 . S
C56 H59 0.930 . S
C57 C54 1.348 . S
C57 C55 1.356 . S
H58 C52 0.930 . S
H59 C56 0.930 . S
O60 Li0 1.956 . S
O60 Li1 1.970 . S
O60 Li2 1.961 . S
O60 C4 1.325 . S
O61 Li0 1.970 . S
O61 Li1 1.956 . S
O61 Li3 1.961 . S
O61 C10 1.325 . S
O62 Li0 1.961 . S
O62 Li2 1.956 . S
O62 Li3 1.970 . S
O62 C32 1.325 . S
O63 Li1 1.961 . S
O63 Li2 1.970 . S
O63 Li3 1.956 . S
O63 C38 1.325 . S
H64 C6 0.929 . S
H65 C7 0.930 . S
H66 C8 0.930 . S
H67 C9 0.930 . S
H68 C11 0.930 . S
H69 C13 0.929 . S
H70 C14 0.930 . S
H71 C15 0.930 . S
H72 C18 0.930 . S
H73 C21 0.929 . S
H74 C26 0.929 . S
H75 C27 0.930 . S
H76 C34 0.929 . S
H77 C35 0.930 . S
H78 C36 0.930 . S
H79 C37 0.930 . S
H80 C39 0.929 . S
H81 C40 0.930 . S
H82 C41 0.930 . S
H83 C42 0.930 . S
H84 C46 0.929 . S
H85 C48 0.930 . S
H86 C54 0.929 . S
H87 C55 0.930 . S
Li88 N105 1.990 . S
Li88 O148 1.956 . S
Li88 O149 1.970 . S
Li88 O150 1.961 . S
Li89 N113 1.990 . S
Li89 O148 1.970 . S
Li89 O149 1.956 . S
Li89 O151 1.961 . S
Li90 N135 1.990 . S
Li90 O148 1.961 . S
Li90 O150 1.956 . S
Li90 O151 1.970 . S
Li91 N141 1.990 . S
Li91 O149 1.961 . S
Li91 O150 1.970 . S
Li91 O151 1.956 . S
C92 C94 1.348 . S
C92 C95 1.356 . S
C92 O148 1.325 . S
N93 C96 1.314 . S
N93 C97 1.279 . S
C94 C92 1.348 . S
C94 C96 1.353 . S
C94 H152 0.929 . S
C95 C92 1.356 . S
C95 C97 1.358 . S
C95 H153 0.930 . S
C96 N93 1.314 . S
C96 C94 1.353 . S
C96 H154 0.930 . S
C97 N93 1.279 . S
C97 C95 1.358 . S
C97 H155 0.930 . S
C98 C101 1.348 . S
C98 C102 1.356 . S
C98 O149 1.325 . S
C99 N100 1.279 . S
C99 C102 1.358 . S
C99 H156 0.930 . S
N100 C99 1.279 . S
N100 C103 1.314 . S
C101 C98 1.348 . S
C101 C103 1.353 . S
C101 H157 0.929 . S
C102 C98 1.356 . S
C102 C99 1.358 . S
C102 H158 0.930 . S
C103 N100 1.314 . S
C103 C101 1.353 . S
C103 H159 0.930 . S
C104 N105 1.314 . S
C104 C109 1.353 . S
C104 H110 0.930 . S
N105 Li88 1.990 . S
N105 C104 1.314 . S
N105 C107 1.279 . S
C106 C107 1.358 . S
C106 C108 1.356 . S
C106 H160 0.930 . S
C107 N105 1.279 . S
C107 C106 1.358 . S
C107 H111 0.930 . S
C108 C106 1.356 . S
C108 C109 1.348 . S
C109 C104 1.353 . S
C109 C108 1.348 . S
C109 H161 0.929 . S
H110 C104 0.930 . S
H111 C107 0.930 . S
C112 N113 1.314 . S
C112 C114 1.353 . S
C112 H118 0.930 . S
N113 Li89 1.990 . S
N113 C112 1.314 . S
N113 C116 1.279 . S
C114 C112 1.353 . S
C114 C117 1.348 . S
C114 H162 0.929 . S
C115 C116 1.358 . S
C115 C117 1.356 . S
C115 H163 0.930 . S
C116 N113 1.279 . S
C116 C115 1.358 . S
C116 H119 0.930 . S
C117 C114 1.348 . S
C117 C115 1.356 . S
H118 C112 0.930 . S
H119 C116 0.930 . S
C120 C122 1.348 . S
C120 C123 1.356 . S
C120 O150 1.325 . S
N121 C124 1.314 . S
N121 C125 1.279 . S
C122 C120 1.348 . S
C122 C124 1.353 . S
C122 H164 0.929 . S
C123 C120 1.356 . S
C123 C125 1.358 . S
C123 H165 0.930 . S
C124 N121 1.314 . S
C124 C122 1.353 . S
C124 H166 0.930 . S
C125 N121 1.279 . S
C125 C123 1.358 . S
C125 H167 0.930 . S
C126 C127 1.348 . S
C126 C128 1.356 . S
C126 O151 1.325 . S
C127 C126 1.348 . S
C127 C129 1.353 . S
C127 H168 0.929 . S
C128 C126 1.356 . S
C128 C130 1.358 . S
C128 H169 0.930 . S
C129 C127 1.353 . S
C129 N131 1.314 . S
C129 H170 0.930 . S
C130 C128 1.358 . S
C130 N131 1.279 . S
C130 H171 0.930 . S
N131 C129 1.314 . S
N131 C130 1.279 . S
C132 C134 1.353 . S
C132 N135 1.314 . S
C132 H138 0.930 . S
C133 N135 1.279 . S
C133 C136 1.358 . S
C133 H139 0.930 . S
C134 C132 1.353 . S
C134 C137 1.348 . S
C134 H172 0.929 . S
N135 Li90 1.990 . S
N135 C132 1.314 . S
N135 C133 1.279 . S
C136 C133 1.358 . S
C136 C137 1.356 . S
C136 H173 0.930 . S
C137 C134 1.348 . S
C137 C136 1.356 . S
H138 C132 0.930 . S
H139 C133 0.930 . S
C140 N141 1.314 . S
C140 C142 1.353 . S
C140 H146 0.930 . S
N141 Li91 1.990 . S
N141 C140 1.314 . S
N141 C144 1.279 . S
C142 C140 1.353 . S
C142 C145 1.348 . S
C142 H174 0.929 . S
C143 C144 1.358 . S
C143 C145 1.356 . S
C143 H175 0.930 . S
C144 N141 1.279 . S
C144 C143 1.358 . S
C144 H147 0.930 . S
C145 C142 1.348 . S
C145 C143 1.356 . S
H146 C140 0.930 . S
H147 C144 0.930 . S
O148 Li88 1.956 . S
O148 Li89 1.970 . S
O148 Li90 1.961 . S
O148 C92 1.325 . S
O149 Li88 1.970 . S
O149 Li89 1.956 . S
O149 Li91 1.961 . S
O149 C98 1.325 . S
O150 Li88 1.961 . S
O150 Li90 1.956 . S
O150 Li91 1.970 . S
O150 C120 1.325 . S
O151 Li89 1.961 . S
O151 Li90 1.970 . S
O151 Li91 1.956 . S
O151 C126 1.325 . S
H152 C94 0.929 . S
H153 C95 0.930 . S
H154 C96 0.930 . S
H155 C97 0.930 . S
H156 C99 0.930 . S
H157 C101 0.929 . S
H158 C102 0.930 . S
H159 C103 0.930 . S
H160 C106 0.930 . S
H161 C109 0.929 . S
H162 C114 0.929 . S
H163 C115 0.930 . S
H164 C122 0.929 . S
H165 C123 0.930 . S
H166 C124 0.930 . S
H167 C125 0.930 . S
H168 C127 0.929 . S
H169 C128 0.930 . S
H170 C129 0.930 . S
H171 C130 0.930 . S
H172 C134 0.929 . S
H173 C136 0.930 . S
H174 C142 0.929 . S
H175 C143 0.930 . S
Li176 N193 1.990 . S
Li176 O236 1.956 . S
Li176 O237 1.970 . S
Li176 O238 1.961 . S
Li177 N201 1.990 . S
Li177 O236 1.970 . S
Li177 O237 1.956 . S
Li177 O239 1.961 . S
Li178 N223 1.990 . S
Li178 O236 1.961 . S
Li178 O238 1.956 . S
Li178 O239 1.970 . S
Li179 N229 1.990 . S
Li179 O237 1.961 . S
Li179 O238 1.970 . S
Li179 O239 1.956 . S
C180 C182 1.348 . S
C180 C183 1.356 . S
C180 O236 1.325 . S
N181 C184 1.314 . S
N181 C185 1.279 . S
C182 C180 1.348 . S
C182 C184 1.353 . S
C182 H240 0.929 . S
C183 C180 1.356 . S
C183 C185 1.358 . S
C183 H241 0.930 . S
C184 N181 1.314 . S
C184 C182 1.353 . S
C184 H242 0.930 . S
C185 N181 1.279 . S
C185 C183 1.358 . S
C185 H243 0.930 . S
C186 C189 1.348 . S
C186 C190 1.356 . S
C186 O237 1.325 . S
C187 N188 1.279 . S
C187 C190 1.358 . S
C187 H244 0.930 . S
N188 C187 1.279 . S
N188 C191 1.314 . S
C189 C186 1.348 . S
C189 C191 1.353 . S
C189 H245 0.929 . S
C190 C186 1.356 . S
C190 C187 1.358 . S
C190 H246 0.930 . S
C191 N188 1.314 . S
C191 C189 1.353 . S
C191 H247 0.930 . S
C192 N193 1.314 . S
C192 C197 1.353 . S
C192 H198 0.930 . S
N193 Li176 1.990 . S
N193 C192 1.314 . S
N193 C195 1.279 . S
C194 C195 1.358 . S
C194 C196 1.356 . S
C194 H248 0.930 . S
C195 N193 1.279 . S
C195 C194 1.358 . S
C195 H199 0.930 . S
C196 C194 1.356 . S
C196 C197 1.348 . S
C197 C192 1.353 . S
C197 C196 1.348 . S
C197 H249 0.929 . S
H198 C192 0.930 . S
H199 C195 0.930 . S
C200 N201 1.314 . S
C200 C202 1.353 . S
C200 H206 0.930 . S
N201 Li177 1.990 . S
N201 C200 1.314 . S
N201 C204 1.279 . S
C202 C200 1.353 . S
C202 C205 1.348 . S
C202 H250 0.929 . S
C203 C204 1.358 . S
C203 C205 1.356 . S
C203 H251 0.930 . S
C204 N201 1.279 . S
C204 C203 1.358 . S
C204 H207 0.930 . S
C205 C202 1.348 . S
C205 C203 1.356 . S
H206 C200 0.930 . S
H207 C204 0.930 . S
C208 C210 1.348 . S
C208 C211 1.356 . S
C208 O238 1.325 . S
N209 C212 1.314 . S
N209 C213 1.279 . S
C210 C208 1.348 . S
C210 C212 1.353 . S
C210 H252 0.929 . S
C211 C208 1.356 . S
C211 C213 1.358 . S
C211 H253 0.930 . S
C212 N209 1.314 . S
C212 C210 1.353 . S
C212 H254 0.930 . S
C213 N209 1.279 . S
C213 C211 1.358 . S
C213 H255 0.930 . S
C214 C215 1.348 . S
C214 C216 1.356 . S
C214 O239 1.325 . S
C215 C214 1.348 . S
C215 C217 1.353 . S
C215 H256 0.929 . S
C216 C214 1.356 . S
C216 C218 1.358 . S
C216 H257 0.930 . S
C217 C215 1.353 . S
C217 N219 1.314 . S
C217 H258 0.930 . S
C218 C216 1.358 . S
C218 N219 1.279 . S
C218 H259 0.930 . S
N219 C217 1.314 . S
N219 C218 1.279 . S
C220 C222 1.353 . S
C220 N223 1.314 . S
C220 H226 0.930 . S
C221 N223 1.279 . S
C221 C224 1.358 . S
C221 H227 0.930 . S
C222 C220 1.353 . S
C222 C225 1.348 . S
C222 H260 0.929 . S
N223 Li178 1.990 . S
N223 C220 1.314 . S
N223 C221 1.279 . S
C224 C221 1.358 . S
C224 C225 1.356 . S
C224 H261 0.930 . S
C225 C222 1.348 . S
C225 C224 1.356 . S
H226 C220 0.930 . S
H227 C221 0.930 . S
C228 N229 1.314 . S
C228 C230 1.353 . S
C228 H234 0.930 . S
N229 Li179 1.990 . S
N229 C228 1.314 . S
N229 C232 1.279 . S
C230 C228 1.353 . S
C230 C233 1.348 . S
C230 H262 0.929 . S
C231 C232 1.358 . S
C231 C233 1.356 . S
C231 H263 0.930 . S
C232 N229 1.279 . S
C232 C231 1.358 . S
C232 H235 0.930 . S
C233 C230 1.348 . S
C233 C231 1.356 . S
H234 C228 0.930 . S
H235 C232 0.930 . S
O236 Li176 1.956 . S
O236 Li177 1.970 . S
O236 Li178 1.961 . S
O236 C180 1.325 . S
O237 Li176 1.970 . S
O237 Li177 1.956 . S
O237 Li179 1.961 . S
O237 C186 1.325 . S
O238 Li176 1.961 . S
O238 Li178 1.956 . S
O238 Li179 1.970 . S
O238 C208 1.325 . S
O239 Li177 1.961 . S
O239 Li178 1.970 . S
O239 Li179 1.956 . S
O239 C214 1.325 . S
H240 C182 0.929 . S
H241 C183 0.930 . S
H242 C184 0.930 . S
H243 C185 0.930 . S
H244 C187 0.930 . S
H245 C189 0.929 . S
H246 C190 0.930 . S
H247 C191 0.930 . S
H248 C194 0.930 . S
H249 C197 0.929 . S
H250 C202 0.929 . S
H251 C203 0.930 . S
H252 C210 0.929 . S
H253 C211 0.930 . S
H254 C212 0.930 . S
H255 C213 0.930 . S
H256 C215 0.929 . S
H257 C216 0.930 . S
H258 C217 0.930 . S
H259 C218 0.930 . S
H260 C222 0.929 . S
H261 C224 0.930 . S
H262 C230 0.929 . S
H263 C231 0.930 . S
Li264 N281 1.990 . S
Li264 O324 1.956 . S
Li264 O325 1.970 . S
Li264 O326 1.961 . S
Li265 N289 1.990 . S
Li265 O324 1.970 . S
Li265 O325 1.956 . S
Li265 O327 1.961 . S
Li266 N311 1.990 . S
Li266 O324 1.961 . S
Li266 O326 1.956 . S
Li266 O327 1.970 . S
Li267 N317 1.990 . S
Li267 O325 1.961 . S
Li267 O326 1.970 . S
Li267 O327 1.956 . S
C268 C270 1.348 . S
C268 C271 1.356 . S
C268 O324 1.325 . S
N269 C272 1.314 . S
N269 C273 1.279 . S
C270 C268 1.348 . S
C270 C272 1.353 . S
C270 H328 0.929 . S
C271 C268 1.356 . S
C271 C273 1.358 . S
C271 H329 0.930 . S
C272 N269 1.314 . S
C272 C270 1.353 . S
C272 H330 0.930 . S
C273 N269 1.279 . S
C273 C271 1.358 . S
C273 H331 0.930 . S
C274 C277 1.348 . S
C274 C278 1.356 . S
C274 O325 1.325 . S
C275 N276 1.279 . S
C275 C278 1.358 . S
C275 H332 0.930 . S
N276 C275 1.279 . S
N276 C279 1.314 . S
C277 C274 1.348 . S
C277 C279 1.353 . S
C277 H333 0.929 . S
C278 C274 1.356 . S
C278 C275 1.358 . S
C278 H334 0.930 . S
C279 N276 1.314 . S
C279 C277 1.353 . S
C279 H335 0.930 . S
C280 N281 1.314 . S
C280 C285 1.353 . S
C280 H286 0.930 . S
N281 Li264 1.990 . S
N281 C280 1.314 . S
N281 C283 1.279 . S
C282 C283 1.358 . S
C282 C284 1.356 . S
C282 H336 0.930 . S
C283 N281 1.279 . S
C283 C282 1.358 . S
C283 H287 0.930 . S
C284 C282 1.356 . S
C284 C285 1.348 . S
C285 C280 1.353 . S
C285 C284 1.348 . S
C285 H337 0.929 . S
H286 C280 0.930 . S
H287 C283 0.930 . S
C288 N289 1.314 . S
C288 C290 1.353 . S
C288 H294 0.930 . S
N289 Li265 1.990 . S
N289 C288 1.314 . S
N289 C292 1.279 . S
C290 C288 1.353 . S
C290 C293 1.348 . S
C290 H338 0.929 . S
C291 C292 1.358 . S
C291 C293 1.356 . S
C291 H339 0.930 . S
C292 N289 1.279 . S
C292 C291 1.358 . S
C292 H295 0.930 . S
C293 C290 1.348 . S
C293 C291 1.356 . S
H294 C288 0.930 . S
H295 C292 0.930 . S
C296 C298 1.348 . S
C296 C299 1.356 . S
C296 O326 1.325 . S
N297 C300 1.314 . S
N297 C301 1.279 . S
C298 C296 1.348 . S
C298 C300 1.353 . S
C298 H340 0.929 . S
C299 C296 1.356 . S
C299 C301 1.358 . S
C299 H341 0.930 . S
C300 N297 1.314 . S
C300 C298 1.353 . S
C300 H342 0.930 . S
C301 N297 1.279 . S
C301 C299 1.358 . S
C301 H343 0.930 . S
C302 C303 1.348 . S
C302 C304 1.356 . S
C302 O327 1.325 . S
C303 C302 1.348 . S
C303 C305 1.353 . S
C303 H344 0.929 . S
C304 C302 1.356 . S
C304 C306 1.358 . S
C304 H345 0.930 . S
C305 C303 1.353 . S
C305 N307 1.314 . S
C305 H346 0.930 . S
C306 C304 1.358 . S
C306 N307 1.279 . S
C306 H347 0.930 . S
N307 C305 1.314 . S
N307 C306 1.279 . S
C308 C310 1.353 . S
C308 N311 1.314 . S
C308 H314 0.930 . S
C309 N311 1.279 . S
C309 C312 1.358 . S
C309 H315 0.930 . S
C310 C308 1.353 . S
C310 C313 1.348 . S
C310 H348 0.929 . S
N311 Li266 1.990 . S
N311 C308 1.314 . S
N311 C309 1.279 . S
C312 C309 1.358 . S
C312 C313 1.356 . S
C312 H349 0.930 . S
C313 C310 1.348 . S
C313 C312 1.356 . S
H314 C308 0.930 . S
H315 C309 0.930 . S
C316 N317 1.314 . S
C316 C318 1.353 . S
C316 H322 0.930 . S
N317 Li267 1.990 . S
N317 C316 1.314 . S
N317 C320 1.279 . S
C318 C316 1.353 . S
C318 C321 1.348 . S
C318 H350 0.929 . S
C319 C320 1.358 . S
C319 C321 1.356 . S
C319 H351 0.930 . S
C320 N317 1.279 . S
C320 C319 1.358 . S
C320 H323 0.930 . S
C321 C318 1.348 . S
C321 C319 1.356 . S
H322 C316 0.930 . S
H323 C320 0.930 . S
O324 Li264 1.956 . S
O324 Li265 1.970 . S
O324 Li266 1.961 . S
O324 C268 1.325 . S
O325 Li264 1.970 . S
O325 Li265 1.956 . S
O325 Li267 1.961 . S
O325 C274 1.325 . S
O326 Li264 1.961 . S
O326 Li266 1.956 . S
O326 Li267 1.970 . S
O326 C296 1.325 . S
O327 Li265 1.961 . S
O327 Li266 1.970 . S
O327 Li267 1.956 . S
O327 C302 1.325 . S
H328 C270 0.929 . S
H329 C271 0.930 . S
H330 C272 0.930 . S
H331 C273 0.930 . S
H332 C275 0.930 . S
H333 C277 0.929 . S
H334 C278 0.930 . S
H335 C279 0.930 . S
H336 C282 0.930 . S
H337 C285 0.929 . S
H338 C290 0.929 . S
H339 C291 0.930 . S
H340 C298 0.929 . S
H341 C299 0.930 . S
H342 C300 0.930 . S
H343 C301 0.930 . S
H344 C303 0.929 . S
H345 C304 0.930 . S
H346 C305 0.930 . S
H347 C306 0.930 . S
H348 C310 0.929 . S
H349 C312 0.930 . S
H350 C318 0.929 . S
H351 C319 0.930 . S
Li352 N369 1.990 . S
Li352 O412 1.956 . S
Li352 O413 1.970 . S
Li352 O414 1.961 . S
Li353 N377 1.990 . S
Li353 O412 1.970 . S
Li353 O413 1.956 . S
Li353 O415 1.961 . S
Li354 N399 1.990 . S
Li354 O412 1.961 . S
Li354 O414 1.956 . S
Li354 O415 1.970 . S
Li355 N405 1.990 . S
Li355 O413 1.961 . S
Li355 O414 1.970 . S
Li355 O415 1.956 . S
C356 C358 1.348 . S
C356 C359 1.356 . S
C356 O412 1.325 . S
N357 C360 1.314 . S
N357 C361 1.279 . S
C358 C356 1.348 . S
C358 C360 1.353 . S
C358 H416 0.929 . S
C359 C356 1.356 . S
C359 C361 1.358 . S
C359 H417 0.930 . S
C360 N357 1.314 . S
C360 C358 1.353 . S
C360 H418 0.930 . S
C361 N357 1.279 . S
C361 C359 1.358 . S
C361 H419 0.930 . S
C362 C365 1.348 . S
C362 C366 1.356 . S
C362 O413 1.325 . S
C363 N364 1.279 . S
C363 C366 1.358 . S
C363 H420 0.930 . S
N364 C363 1.279 . S
N364 C367 1.314 . S
C365 C362 1.348 . S
C365 C367 1.353 . S
C365 H421 0.929 . S
C366 C362 1.356 . S
C366 C363 1.358 . S
C366 H422 0.930 . S
C367 N364 1.314 . S
C367 C365 1.353 . S
C367 H423 0.930 . S
C368 N369 1.314 . S
C368 C373 1.353 . S
C368 H374 0.930 . S
N369 Li352 1.990 . S
N369 C368 1.314 . S
N369 C371 1.279 . S
C370 C371 1.358 . S
C370 C372 1.356 . S
C370 H424 0.930 . S
C371 N369 1.279 . S
C371 C370 1.358 . S
C371 H375 0.930 . S
C372 C370 1.356 . S
C372 C373 1.348 . S
C373 C368 1.353 . S
C373 C372 1.348 . S
C373 H425 0.929 . S
H374 C368 0.930 . S
H375 C371 0.930 . S
C376 N377 1.314 . S
C376 C378 1.353 . S
C376 H382 0.930 . S
N377 Li353 1.990 . S
N377 C376 1.314 . S
N377 C380 1.279 . S
C378 C376 1.353 . S
C378 C381 1.348 . S
C378 H426 0.929 . S
C379 C380 1.358 . S
C379 C381 1.356 . S
C379 H427 0.930 . S
C380 N377 1.279 . S
C380 C379 1.358 . S
C380 H383 0.930 . S
C381 C378 1.348 . S
C381 C379 1.356 . S
H382 C376 0.930 . S
H383 C380 0.930 . S
C384 C386 1.348 . S
C384 C387 1.356 . S
C384 O414 1.325 . S
N385 C388 1.314 . S
N385 C389 1.279 . S
C386 C384 1.348 . S
C386 C388 1.353 . S
C386 H428 0.929 . S
C387 C384 1.356 . S
C387 C389 1.358 . S
C387 H429 0.930 . S
C388 N385 1.314 . S
C388 C386 1.353 . S
C388 H430 0.930 . S
C389 N385 1.279 . S
C389 C387 1.358 . S
C389 H431 0.930 . S
C390 C391 1.348 . S
C390 C392 1.356 . S
C390 O415 1.325 . S
C391 C390 1.348 . S
C391 C393 1.353 . S
C391 H432 0.929 . S
C392 C390 1.356 . S
C392 C394 1.358 . S
C392 H433 0.930 . S
C393 C391 1.353 . S
C393 N395 1.314 . S
C393 H434 0.930 . S
C394 C392 1.358 . S
C394 N395 1.279 . S
C394 H435 0.930 . S
N395 C393 1.314 . S
N395 C394 1.279 . S
C396 C398 1.353 . S
C396 N399 1.314 . S
C396 H402 0.930 . S
C397 N399 1.279 . S
C397 C400 1.358 . S
C397 H403 0.930 . S
C398 C396 1.353 . S
C398 C401 1.348 . S
C398 H436 0.929 . S
N399 Li354 1.990 . S
N399 C396 1.314 . S
N399 C397 1.279 . S
C400 C397 1.358 . S
C400 C401 1.356 . S
C400 H437 0.930 . S
C401 C398 1.348 . S
C401 C400 1.356 . S
H402 C396 0.930 . S
H403 C397 0.930 . S
C404 N405 1.314 . S
C404 C406 1.353 . S
C404 H410 0.930 . S
N405 Li355 1.990 . S
N405 C404 1.314 . S
N405 C408 1.279 . S
C406 C404 1.353 . S
C406 C409 1.348 . S
C406 H438 0.929 . S
C407 C408 1.358 . S
C407 C409 1.356 . S
C407 H439 0.930 . S
C408 N405 1.279 . S
C408 C407 1.358 . S
C408 H411 0.930 . S
C409 C406 1.348 . S
C409 C407 1.356 . S
H410 C404 0.930 . S
H411 C408 0.930 . S
O412 Li352 1.956 . S
O412 Li353 1.970 . S
O412 Li354 1.961 . S
O412 C356 1.325 . S
O413 Li352 1.970 . S
O413 Li353 1.956 . S
O413 Li355 1.961 . S
O413 C362 1.325 . S
O414 Li352 1.961 . S
O414 Li354 1.956 . S
O414 Li355 1.970 . S
O414 C384 1.325 . S
O415 Li353 1.961 . S
O415 Li354 1.970 . S
O415 Li355 1.956 . S
O415 C390 1.325 . S
H416 C358 0.929 . S
H417 C359 0.930 . S
H418 C360 0.930 . S
H419 C361 0.930 . S
H420 C363 0.930 . S
H421 C365 0.929 . S
H422 C366 0.930 . S
H423 C367 0.930 . S
H424 C370 0.930 . S
H425 C373 0.929 . S
H426 C378 0.929 . S
H427 C379 0.930 . S
H428 C386 0.929 . S
H429 C387 0.930 . S
H430 C388 0.930 . S
H431 C389 0.930 . S
H432 C391 0.929 . S
H433 C392 0.930 . S
H434 C393 0.930 . S
H435 C394 0.930 . S
H436 C398 0.929 . S
H437 C400 0.930 . S
H438 C406 0.929 . S
H439 C407 0.930 . S
Li440 N457 1.990 . S
Li440 O500 1.956 . S
Li440 O501 1.970 . S
Li440 O502 1.961 . S
Li441 N465 1.990 . S
Li441 O500 1.970 . S
Li441 O501 1.956 . S
Li441 O503 1.961 . S
Li442 N487 1.990 . S
Li442 O500 1.961 . S
Li442 O502 1.956 . S
Li442 O503 1.970 . S
Li443 N493 1.990 . S
Li443 O501 1.961 . S
Li443 O502 1.970 . S
Li443 O503 1.956 . S
C444 C446 1.348 . S
C444 C447 1.356 . S
C444 O500 1.325 . S
N445 C448 1.314 . S
N445 C449 1.279 . S
C446 C444 1.348 . S
C446 C448 1.353 . S
C446 H504 0.929 . S
C447 C444 1.356 . S
C447 C449 1.358 . S
C447 H505 0.930 . S
C448 N445 1.314 . S
C448 C446 1.353 . S
C448 H506 0.930 . S
C449 N445 1.279 . S
C449 C447 1.358 . S
C449 H507 0.930 . S
C450 C453 1.348 . S
C450 C454 1.356 . S
C450 O501 1.325 . S
C451 N452 1.279 . S
C451 C454 1.358 . S
C451 H508 0.930 . S
N452 C451 1.279 . S
N452 C455 1.314 . S
C453 C450 1.348 . S
C453 C455 1.353 . S
C453 H509 0.929 . S
C454 C450 1.356 . S
C454 C451 1.358 . S
C454 H510 0.930 . S
C455 N452 1.314 . S
C455 C453 1.353 . S
C455 H511 0.930 . S
C456 N457 1.314 . S
C456 C461 1.353 . S
C456 H462 0.930 . S
N457 Li440 1.990 . S
N457 C456 1.314 . S
N457 C459 1.279 . S
C458 C459 1.358 . S
C458 C460 1.356 . S
C458 H512 0.930 . S
C459 N457 1.279 . S
C459 C458 1.358 . S
C459 H463 0.930 . S
C460 C458 1.356 . S
C460 C461 1.348 . S
C461 C456 1.353 . S
C461 C460 1.348 . S
C461 H513 0.929 . S
H462 C456 0.930 . S
H463 C459 0.930 . S
C464 N465 1.314 . S
C464 C466 1.353 . S
C464 H470 0.930 . S
N465 Li441 1.990 . S
N465 C464 1.314 . S
N465 C468 1.279 . S
C466 C464 1.353 . S
C466 C469 1.348 . S
C466 H514 0.929 . S
C467 C468 1.358 . S
C467 C469 1.356 . S
C467 H515 0.930 . S
C468 N465 1.279 . S
C468 C467 1.358 . S
C468 H471 0.930 . S
C469 C466 1.348 . S
C469 C467 1.356 . S
H470 C464 0.930 . S
H471 C468 0.930 . S
C472 C474 1.348 . S
C472 C475 1.356 . S
C472 O502 1.325 . S
N473 C476 1.314 . S
N473 C477 1.279 . S
C474 C472 1.348 . S
C474 C476 1.353 . S
C474 H516 0.929 . S
C475 C472 1.356 . S
C475 C477 1.358 . S
C475 H517 0.930 . S
C476 N473 1.314 . S
C476 C474 1.353 . S
C476 H518 0.930 . S
C477 N473 1.279 . S
C477 C475 1.358 . S
C477 H519 0.930 . S
C478 C479 1.348 . S
C478 C480 1.356 . S
C478 O503 1.325 . S
C479 C478 1.348 . S
C479 C481 1.353 . S
C479 H520 0.929 . S
C480 C478 1.356 . S
C480 C482 1.358 . S
C480 H521 0.930 . S
C481 C479 1.353 . S
C481 N483 1.314 . S
C481 H522 0.930 . S
C482 C480 1.358 . S
C482 N483 1.279 . S
C482 H523 0.930 . S
N483 C481 1.314 . S
N483 C482 1.279 . S
C484 C486 1.353 . S
C484 N487 1.314 . S
C484 H490 0.930 . S
C485 N487 1.279 . S
C485 C488 1.358 . S
C485 H491 0.930 . S
C486 C484 1.353 . S
C486 C489 1.348 . S
C486 H524 0.929 . S
N487 Li442 1.990 . S
N487 C484 1.314 . S
N487 C485 1.279 . S
C488 C485 1.358 . S
C488 C489 1.356 . S
C488 H525 0.930 . S
C489 C486 1.348 . S
C489 C488 1.356 . S
H490 C484 0.930 . S
H491 C485 0.930 . S
C492 N493 1.314 . S
C492 C494 1.353 . S
C492 H498 0.930 . S
N493 Li443 1.990 . S
N493 C492 1.314 . S
N493 C496 1.279 . S
C494 C492 1.353 . S
C494 C497 1.348 . S
C494 H526 0.929 . S
C495 C496 1.358 . S
C495 C497 1.356 . S
C495 H527 0.930 . S
C496 N493 1.279 . S
C496 C495 1.358 . S
C496 H499 0.930 . S
C497 C494 1.348 . S
C497 C495 1.356 . S
H498 C492 0.930 . S
H499 C496 0.930 . S
O500 Li440 1.956 . S
O500 Li441 1.970 . S
O500 Li442 1.961 . S
O500 C444 1.325 . S
O501 Li440 1.970 . S
O501 Li441 1.956 . S
O501 Li443 1.961 . S
O501 C450 1.325 . S
O502 Li440 1.961 . S
O502 Li442 1.956 . S
O502 Li443 1.970 . S
O502 C472 1.325 . S
O503 Li441 1.961 . S
O503 Li442 1.970 . S
O503 Li443 1.956 . S
O503 C478 1.325 . S
H504 C446 0.929 . S
H505 C447 0.930 . S
H506 C448 0.930 . S
H507 C449 0.930 . S
H508 C451 0.930 . S
H509 C453 0.929 . S
H510 C454 0.930 . S
H511 C455 0.930 . S
H512 C458 0.930 . S
H513 C461 0.929 . S
H514 C466 0.929 . S
H515 C467 0.930 . S
H516 C474 0.929 . S
H517 C475 0.930 . S
H518 C476 0.930 . S
H519 C477 0.930 . S
H520 C479 0.929 . S
H521 C480 0.930 . S
H522 C481 0.930 . S
H523 C482 0.930 . S
H524 C486 0.929 . S
H525 C488 0.930 . S
H526 C494 0.929 . S
H527 C495 0.930 . S
Li528 N545 1.990 . S
Li528 O588 1.956 . S
Li528 O589 1.970 . S
Li528 O590 1.961 . S
Li529 N553 1.990 . S
Li529 O588 1.970 . S
Li529 O589 1.956 . S
Li529 O591 1.961 . S
Li530 N575 1.990 . S
Li530 O588 1.961 . S
Li530 O590 1.956 . S
Li530 O591 1.970 . S
Li531 N581 1.990 . S
Li531 O589 1.961 . S
Li531 O590 1.970 . S
Li531 O591 1.956 . S
C532 C534 1.348 . S
C532 C535 1.356 . S
C532 O588 1.325 . S
N533 C536 1.314 . S
N533 C537 1.279 . S
C534 C532 1.348 . S
C534 C536 1.353 . S
C534 H592 0.929 . S
C535 C532 1.356 . S
C535 C537 1.358 . S
C535 H593 0.930 . S
C536 N533 1.314 . S
C536 C534 1.353 . S
C536 H594 0.930 . S
C537 N533 1.279 . S
C537 C535 1.358 . S
C537 H595 0.930 . S
C538 C541 1.348 . S
C538 C542 1.356 . S
C538 O589 1.325 . S
C539 N540 1.279 . S
C539 C542 1.358 . S
C539 H596 0.930 . S
N540 C539 1.279 . S
N540 C543 1.314 . S
C541 C538 1.348 . S
C541 C543 1.353 . S
C541 H597 0.929 . S
C542 C538 1.356 . S
C542 C539 1.358 . S
C542 H598 0.930 . S
C543 N540 1.314 . S
C543 C541 1.353 . S
C543 H599 0.930 . S
C544 N545 1.314 . S
C544 C549 1.353 . S
C544 H550 0.930 . S
N545 Li528 1.990 . S
N545 C544 1.314 . S
N545 C547 1.279 . S
C546 C547 1.358 . S
C546 C548 1.356 . S
C546 H600 0.930 . S
C547 N545 1.279 . S
C547 C546 1.358 . S
C547 H551 0.930 . S
C548 C546 1.356 . S
C548 C549 1.348 . S
C549 C544 1.353 . S
C549 C548 1.348 . S
C549 H601 0.929 . S
H550 C544 0.930 . S
H551 C547 0.930 . S
C552 N553 1.314 . S
C552 C554 1.353 . S
C552 H558 0.930 . S
N553 Li529 1.990 . S
N553 C552 1.314 . S
N553 C556 1.279 . S
C554 C552 1.353 . S
C554 C557 1.348 . S
C554 H602 0.929 . S
C555 C556 1.358 . S
C555 C557 1.356 . S
C555 H603 0.930 . S
C556 N553 1.279 . S
C556 C555 1.358 . S
C556 H559 0.930 . S
C557 C554 1.348 . S
C557 C555 1.356 . S
H558 C552 0.930 . S
H559 C556 0.930 . S
C560 C562 1.348 . S
C560 C563 1.356 . S
C560 O590 1.325 . S
N561 C564 1.314 . S
N561 C565 1.279 . S
C562 C560 1.348 . S
C562 C564 1.353 . S
C562 H604 0.929 . S
C563 C560 1.356 . S
C563 C565 1.358 . S
C563 H605 0.930 . S
C564 N561 1.314 . S
C564 C562 1.353 . S
C564 H606 0.930 . S
C565 N561 1.279 . S
C565 C563 1.358 . S
C565 H607 0.930 . S
C566 C567 1.348 . S
C566 C568 1.356 . S
C566 O591 1.325 . S
C567 C566 1.348 . S
C567 C569 1.353 . S
C567 H608 0.929 . S
C568 C566 1.356 . S
C568 C570 1.358 . S
C568 H609 0.930 . S
C569 C567 1.353 . S
C569 N571 1.314 . S
C569 H610 0.930 . S
C570 C568 1.358 . S
C570 N571 1.279 . S
C570 H611 0.930 . S
N571 C569 1.314 . S
N571 C570 1.279 . S
C572 C574 1.353 . S
C572 N575 1.314 . S
C572 H578 0.930 . S
C573 N575 1.279 . S
C573 C576 1.358 . S
C573 H579 0.930 . S
C574 C572 1.353 . S
C574 C577 1.348 . S
C574 H612 0.929 . S
N575 Li530 1.990 . S
N575 C572 1.314 . S
N575 C573 1.279 . S
C576 C573 1.358 . S
C576 C577 1.356 . S
C576 H613 0.930 . S
C577 C574 1.348 . S
C577 C576 1.356 . S
H578 C572 0.930 . S
H579 C573 0.930 . S
C580 N581 1.314 . S
C580 C582 1.353 . S
C580 H586 0.930 . S
N581 Li531 1.990 . S
N581 C580 1.314 . S
N581 C584 1.279 . S
C582 C580 1.353 . S
C582 C585 1.348 . S
C582 H614 0.929 . S
C583 C584 1.358 . S
C583 C585 1.356 . S
C583 H615 0.930 . S
C584 N581 1.279 . S
C584 C583 1.358 . S
C584 H587 0.930 . S
C585 C582 1.348 . S
C585 C583 1.356 . S
H586 C580 0.930 . S
H587 C584 0.930 . S
O588 Li528 1.956 . S
O588 Li529 1.970 . S
O588 Li530 1.961 . S
O588 C532 1.325 . S
O589 Li528 1.970 . S
O589 Li529 1.956 . S
O589 Li531 1.961 . S
O589 C538 1.325 . S
O590 Li528 1.961 . S
O590 Li530 1.956 . S
O590 Li531 1.970 . S
O590 C560 1.325 . S
O591 Li529 1.961 . S
O591 Li530 1.970 . S
O591 Li531 1.956 . S
O591 C566 1.325 . S
H592 C534 0.929 . S
H593 C535 0.930 . S
H594 C536 0.930 . S
H595 C537 0.930 . S
H596 C539 0.930 . S
H597 C541 0.929 . S
H598 C542 0.930 . S
H599 C543 0.930 . S
H600 C546 0.930 . S
H601 C549 0.929 . S
H602 C554 0.929 . S
H603 C555 0.930 . S
H604 C562 0.929 . S
H605 C563 0.930 . S
H606 C564 0.930 . S
H607 C565 0.930 . S
H608 C567 0.929 . S
H609 C568 0.930 . S
H610 C569 0.930 . S
H611 C570 0.930 . S
H612 C574 0.929 . S
H613 C576 0.930 . S
H614 C582 0.929 . S
H615 C583 0.930 . S
Li616 N633 1.990 . S
Li616 O676 1.956 . S
Li616 O677 1.970 . S
Li616 O678 1.961 . S
Li617 N641 1.990 . S
Li617 O676 1.970 . S
Li617 O677 1.956 . S
Li617 O679 1.961 . S
Li618 N663 1.990 . S
Li618 O676 1.961 . S
Li618 O678 1.956 . S
Li618 O679 1.970 . S
Li619 N669 1.990 . S
Li619 O677 1.961 . S
Li619 O678 1.970 . S
Li619 O679 1.956 . S
C620 C622 1.348 . S
C620 C623 1.356 . S
C620 O676 1.325 . S
N621 C624 1.314 . S
N621 C625 1.279 . S
C622 C620 1.348 . S
C622 C624 1.353 . S
C622 H680 0.929 . S
C623 C620 1.356 . S
C623 C625 1.358 . S
C623 H681 0.930 . S
C624 N621 1.314 . S
C624 C622 1.353 . S
C624 H682 0.930 . S
C625 N621 1.279 . S
C625 C623 1.358 . S
C625 H683 0.930 . S
C626 C629 1.348 . S
C626 C630 1.356 . S
C626 O677 1.325 . S
C627 N628 1.279 . S
C627 C630 1.358 . S
C627 H684 0.930 . S
N628 C627 1.279 . S
N628 C631 1.314 . S
C629 C626 1.348 . S
C629 C631 1.353 . S
C629 H685 0.929 . S
C630 C626 1.356 . S
C630 C627 1.358 . S
C630 H686 0.930 . S
C631 N628 1.314 . S
C631 C629 1.353 . S
C631 H687 0.930 . S
C632 N633 1.314 . S
C632 C637 1.353 . S
C632 H638 0.930 . S
N633 Li616 1.990 . S
N633 C632 1.314 . S
N633 C635 1.279 . S
C634 C635 1.358 . S
C634 C636 1.356 . S
C634 H688 0.930 . S
C635 N633 1.279 . S
C635 C634 1.358 . S
C635 H639 0.930 . S
C636 C634 1.356 . S
C636 C637 1.348 . S
C637 C632 1.353 . S
C637 C636 1.348 . S
C637 H689 0.929 . S
H638 C632 0.930 . S
H639 C635 0.930 . S
C640 N641 1.314 . S
C640 C642 1.353 . S
C640 H646 0.930 . S
N641 Li617 1.990 . S
N641 C640 1.314 . S
N641 C644 1.279 . S
C642 C640 1.353 . S
C642 C645 1.348 . S
C642 H690 0.929 . S
C643 C644 1.358 . S
C643 C645 1.356 . S
C643 H691 0.930 . S
C644 N641 1.279 . S
C644 C643 1.358 . S
C644 H647 0.930 . S
C645 C642 1.348 . S
C645 C643 1.356 . S
H646 C640 0.930 . S
H647 C644 0.930 . S
C648 C650 1.348 . S
C648 C651 1.356 . S
C648 O678 1.325 . S
N649 C652 1.314 . S
N649 C653 1.279 . S
C650 C648 1.348 . S
C650 C652 1.353 . S
C650 H692 0.929 . S
C651 C648 1.356 . S
C651 C653 1.358 . S
C651 H693 0.930 . S
C652 N649 1.314 . S
C652 C650 1.353 . S
C652 H694 0.930 . S
C653 N649 1.279 . S
C653 C651 1.358 . S
C653 H695 0.930 . S
C654 C655 1.348 . S
C654 C656 1.356 . S
C654 O679 1.325 . S
C655 C654 1.348 . S
C655 C657 1.353 . S
C655 H696 0.929 . S
C656 C654 1.356 . S
C656 C658 1.358 . S
C656 H697 0.930 . S
C657 C655 1.353 . S
C657 N659 1.314 . S
C657 H698 0.930 . S
C658 C656 1.358 . S
C658 N659 1.279 . S
C658 H699 0.930 . S
N659 C657 1.314 . S
N659 C658 1.279 . S
C660 C662 1.353 . S
C660 N663 1.314 . S
C660 H666 0.930 . S
C661 N663 1.279 . S
C661 C664 1.358 . S
C661 H667 0.930 . S
C662 C660 1.353 . S
C662 C665 1.348 . S
C662 H700 0.929 . S
N663 Li618 1.990 . S
N663 C660 1.314 . S
N663 C661 1.279 . S
C664 C661 1.358 . S
C664 C665 1.356 . S
C664 H701 0.930 . S
C665 C662 1.348 . S
C665 C664 1.356 . S
H666 C660 0.930 . S
H667 C661 0.930 . S
C668 N669 1.314 . S
C668 C670 1.353 . S
C668 H674 0.930 . S
N669 Li619 1.990 . S
N669 C668 1.314 . S
N669 C672 1.279 . S
C670 C668 1.353 . S
C670 C673 1.348 . S
C670 H702 0.929 . S
C671 C672 1.358 . S
C671 C673 1.356 . S
C671 H703 0.930 . S
C672 N669 1.279 . S
C672 C671 1.358 . S
C672 H675 0.930 . S
C673 C670 1.348 . S
C673 C671 1.356 . S
H674 C668 0.930 . S
H675 C672 0.930 . S
O676 Li616 1.956 . S
O676 Li617 1.970 . S
O676 Li618 1.961 . S
O676 C620 1.325 . S
O677 Li616 1.970 . S
O677 Li617 1.956 . S
O677 Li619 1.961 . S
O677 C626 1.325 . S
O678 Li616 1.961 . S
O678 Li618 1.956 . S
O678 Li619 1.970 . S
O678 C648 1.325 . S
O679 Li617 1.961 . S
O679 Li618 1.970 . S
O679 Li619 1.956 . S
O679 C654 1.325 . S
H680 C622 0.929 . S
H681 C623 0.930 . S
H682 C624 0.930 . S
H683 C625 0.930 . S
H684 C627 0.930 . S
H685 C629 0.929 . S
H686 C630 0.930 . S
H687 C631 0.930 . S
H688 C634 0.930 . S
H689 C637 0.929 . S
H690 C642 0.929 . S
H691 C643 0.930 . S
H692 C650 0.929 . S
H693 C651 0.930 . S
H694 C652 0.930 . S
H695 C653 0.930 . S
H696 C655 0.929 . S
H697 C656 0.930 . S
H698 C657 0.930 . S
H699 C658 0.930 . S
H700 C662 0.929 . S
H701 C664 0.930 . S
H702 C670 0.929 . S
H703 C671 0.930 . S
Li704 N721 1.990 . S
Li704 O764 1.956 . S
Li704 O765 1.970 . S
Li704 O766 1.961 . S
Li705 N729 1.990 . S
Li705 O764 1.970 . S
Li705 O765 1.956 . S
Li705 O767 1.961 . S
Li706 N751 1.990 . S
Li706 O764 1.961 . S
Li706 O766 1.956 . S
Li706 O767 1.970 . S
Li707 N757 1.990 . S
Li707 O765 1.961 . S
Li707 O766 1.970 . S
Li707 O767 1.956 . S
C708 C710 1.348 . S
C708 C711 1.356 . S
C708 O764 1.325 . S
N709 C712 1.314 . S
N709 C713 1.279 . S
C710 C708 1.348 . S
C710 C712 1.353 . S
C710 H768 0.929 . S
C711 C708 1.356 . S
C711 C713 1.358 . S
C711 H769 0.930 . S
C712 N709 1.314 . S
C712 C710 1.353 . S
C712 H770 0.930 . S
C713 N709 1.279 . S
C713 C711 1.358 . S
C713 H771 0.930 . S
C714 C717 1.348 . S
C714 C718 1.356 . S
C714 O765 1.325 . S
C715 N716 1.279 . S
C715 C718 1.358 . S
C715 H772 0.930 . S
N716 C715 1.279 . S
N716 C719 1.314 . S
C717 C714 1.348 . S
C717 C719 1.353 . S
C717 H773 0.929 . S
C718 C714 1.356 . S
C718 C715 1.358 . S
C718 H774 0.930 . S
C719 N716 1.314 . S
C719 C717 1.353 . S
C719 H775 0.930 . S
C720 N721 1.314 . S
C720 C725 1.353 . S
C720 H726 0.930 . S
N721 Li704 1.990 . S
N721 C720 1.314 . S
N721 C723 1.279 . S
C722 C723 1.358 . S
C722 C724 1.356 . S
C722 H776 0.930 . S
C723 N721 1.279 . S
C723 C722 1.358 . S
C723 H727 0.930 . S
C724 C722 1.356 . S
C724 C725 1.348 . S
C725 C720 1.353 . S
C725 C724 1.348 . S
C725 H777 0.929 . S
H726 C720 0.930 . S
H727 C723 0.930 . S
C728 N729 1.314 . S
C728 C730 1.353 . S
C728 H734 0.930 . S
N729 Li705 1.990 . S
N729 C728 1.314 . S
N729 C732 1.279 . S
C730 C728 1.353 . S
C730 C733 1.348 . S
C730 H778 0.929 . S
C731 C732 1.358 . S
C731 C733 1.356 . S
C731 H779 0.930 . S
C732 N729 1.279 . S
C732 C731 1.358 . S
C732 H735 0.930 . S
C733 C730 1.348 . S
C733 C731 1.356 . S
H734 C728 0.930 . S
H735 C732 0.930 . S
C736 C738 1.348 . S
C736 C739 1.356 . S
C736 O766 1.325 . S
N737 C740 1.314 . S
N737 C741 1.279 . S
C738 C736 1.348 . S
C738 C740 1.353 . S
C738 H780 0.929 . S
C739 C736 1.356 . S
C739 C741 1.358 . S
C739 H781 0.930 . S
C740 N737 1.314 . S
C740 C738 1.353 . S
C740 H782 0.930 . S
C741 N737 1.279 . S
C741 C739 1.358 . S
C741 H783 0.930 . S
C742 C743 1.348 . S
C742 C744 1.356 . S
C742 O767 1.325 . S
C743 C742 1.348 . S
C743 C745 1.353 . S
C743 H784 0.929 . S
C744 C742 1.356 . S
C744 C746 1.358 . S
C744 H785 0.930 . S
C745 C743 1.353 . S
C745 N747 1.314 . S
C745 H786 0.930 . S
C746 C744 1.358 . S
C746 N747 1.279 . S
C746 H787 0.930 . S
N747 C745 1.314 . S
N747 C746 1.279 . S
C748 C750 1.353 . S
C748 N751 1.314 . S
C748 H754 0.930 . S
C749 N751 1.279 . S
C749 C752 1.358 . S
C749 H755 0.930 . S
C750 C748 1.353 . S
C750 C753 1.348 . S
C750 H788 0.929 . S
N751 Li706 1.990 . S
N751 C748 1.314 . S
N751 C749 1.279 . S
C752 C749 1.358 . S
C752 C753 1.356 . S
C752 H789 0.930 . S
C753 C750 1.348 . S
C753 C752 1.356 . S
H754 C748 0.930 . S
H755 C749 0.930 . S
C756 N757 1.314 . S
C756 C758 1.353 . S
C756 H762 0.930 . S
N757 Li707 1.990 . S
N757 C756 1.314 . S
N757 C760 1.279 . S
C758 C756 1.353 . S
C758 C761 1.348 . S
C758 H790 0.929 . S
C759 C760 1.358 . S
C759 C761 1.356 . S
C759 H791 0.930 . S
C760 N757 1.279 . S
C760 C759 1.358 . S
C760 H763 0.930 . S
C761 C758 1.348 . S
C761 C759 1.356 . S
H762 C756 0.930 . S
H763 C760 0.930 . S
O764 Li704 1.956 . S
O764 Li705 1.970 . S
O764 Li706 1.961 . S
O764 C708 1.325 . S
O765 Li704 1.970 . S
O765 Li705 1.956 . S
O765 Li707 1.961 . S
O765 C714 1.325 . S
O766 Li704 1.961 . S
O766 Li706 1.956 . S
O766 Li707 1.970 . S
O766 C736 1.325 . S
O767 Li705 1.961 . S
O767 Li706 1.970 . S
O767 Li707 1.956 . S
O767 C742 1.325 . S
H768 C710 0.929 . S
H769 C711 0.930 . S
H770 C712 0.930 . S
H771 C713 0.930 . S
H772 C715 0.930 . S
H773 C717 0.929 . S
H774 C718 0.930 . S
H775 C719 0.930 . S
H776 C722 0.930 . S
H777 C725 0.929 . S
H778 C730 0.929 . S
H779 C731 0.930 . S
H780 C738 0.929 . S
H781 C739 0.930 . S
H782 C740 0.930 . S
H783 C741 0.930 . S
H784 C743 0.929 . S
H785 C744 0.930 . S
H786 C745 0.930 . S
H787 C746 0.930 . S
H788 C750 0.929 . S
H789 C752 0.930 . S
H790 C758 0.929 . S
H791 C759 0.930 . S
Li792 N809 1.990 . S
Li792 O852 1.956 . S
Li792 O853 1.970 . S
Li792 O854 1.961 . S
Li793 N817 1.990 . S
Li793 O852 1.970 . S
Li793 O853 1.956 . S
Li793 O855 1.961 . S
Li794 N839 1.990 . S
Li794 O852 1.961 . S
Li794 O854 1.956 . S
Li794 O855 1.970 . S
Li795 N845 1.990 . S
Li795 O853 1.961 . S
Li795 O854 1.970 . S
Li795 O855 1.956 . S
C796 C798 1.348 . S
C796 C799 1.356 . S
C796 O852 1.325 . S
N797 C800 1.314 . S
N797 C801 1.279 . S
C798 C796 1.348 . S
C798 C800 1.353 . S
C798 H856 0.929 . S
C799 C796 1.356 . S
C799 C801 1.358 . S
C799 H857 0.930 . S
C800 N797 1.314 . S
C800 C798 1.353 . S
C800 H858 0.930 . S
C801 N797 1.279 . S
C801 C799 1.358 . S
C801 H859 0.930 . S
C802 C805 1.348 . S
C802 C806 1.356 . S
C802 O853 1.325 . S
C803 N804 1.279 . S
C803 C806 1.358 . S
C803 H860 0.930 . S
N804 C803 1.279 . S
N804 C807 1.314 . S
C805 C802 1.348 . S
C805 C807 1.353 . S
C805 H861 0.929 . S
C806 C802 1.356 . S
C806 C803 1.358 . S
C806 H862 0.930 . S
C807 N804 1.314 . S
C807 C805 1.353 . S
C807 H863 0.930 . S
C808 N809 1.314 . S
C808 C813 1.353 . S
C808 H814 0.930 . S
N809 Li792 1.990 . S
N809 C808 1.314 . S
N809 C811 1.279 . S
C810 C811 1.358 . S
C810 C812 1.356 . S
C810 H864 0.930 . S
C811 N809 1.279 . S
C811 C810 1.358 . S
C811 H815 0.930 . S
C812 C810 1.356 . S
C812 C813 1.348 . S
C813 C808 1.353 . S
C813 C812 1.348 . S
C813 H865 0.929 . S
H814 C808 0.930 . S
H815 C811 0.930 . S
C816 N817 1.314 . S
C816 C818 1.353 . S
C816 H822 0.930 . S
N817 Li793 1.990 . S
N817 C816 1.314 . S
N817 C820 1.279 . S
C818 C816 1.353 . S
C818 C821 1.348 . S
C818 H866 0.929 . S
C819 C820 1.358 . S
C819 C821 1.356 . S
C819 H867 0.930 . S
C820 N817 1.279 . S
C820 C819 1.358 . S
C820 H823 0.930 . S
C821 C818 1.348 . S
C821 C819 1.356 . S
H822 C816 0.930 . S
H823 C820 0.930 . S
C824 C826 1.348 . S
C824 C827 1.356 . S
C824 O854 1.325 . S
N825 C828 1.314 . S
N825 C829 1.279 . S
C826 C824 1.348 . S
C826 C828 1.353 . S
C826 H868 0.929 . S
C827 C824 1.356 . S
C827 C829 1.358 . S
C827 H869 0.930 . S
C828 N825 1.314 . S
C828 C826 1.353 . S
C828 H870 0.930 . S
C829 N825 1.279 . S
C829 C827 1.358 . S
C829 H871 0.930 . S
C830 C831 1.348 . S
C830 C832 1.356 . S
C830 O855 1.325 . S
C831 C830 1.348 . S
C831 C833 1.353 . S
C831 H872 0.929 . S
C832 C830 1.356 . S
C832 C834 1.358 . S
C832 H873 0.930 . S
C833 C831 1.353 . S
C833 N835 1.314 . S
C833 H874 0.930 . S
C834 C832 1.358 . S
C834 N835 1.279 . S
C834 H875 0.930 . S
N835 C833 1.314 . S
N835 C834 1.279 . S
C836 C838 1.353 . S
C836 N839 1.314 . S
C836 H842 0.930 . S
C837 N839 1.279 . S
C837 C840 1.358 . S
C837 H843 0.930 . S
C838 C836 1.353 . S
C838 C841 1.348 . S
C838 H876 0.929 . S
N839 Li794 1.990 . S
N839 C836 1.314 . S
N839 C837 1.279 . S
C840 C837 1.358 . S
C840 C841 1.356 . S
C840 H877 0.930 . S
C841 C838 1.348 . S
C841 C840 1.356 . S
H842 C836 0.930 . S
H843 C837 0.930 . S
C844 N845 1.314 . S
C844 C846 1.353 . S
C844 H850 0.930 . S
N845 Li795 1.990 . S
N845 C844 1.314 . S
N845 C848 1.279 . S
C846 C844 1.353 . S
C846 C849 1.348 . S
C846 H878 0.929 . S
C847 C848 1.358 . S
C847 C849 1.356 . S
C847 H879 0.930 . S
C848 N845 1.279 . S
C848 C847 1.358 . S
C848 H851 0.930 . S
C849 C846 1.348 . S
C849 C847 1.356 . S
H850 C844 0.930 . S
H851 C848 0.930 . S
O852 Li792 1.956 . S
O852 Li793 1.970 . S
O852 Li794 1.961 . S
O852 C796 1.325 . S
O853 Li792 1.970 . S
O853 Li793 1.956 . S
O853 Li795 1.961 . S
O853 C802 1.325 . S
O854 Li792 1.961 . S
O854 Li794 1.956 . S
O854 Li795 1.970 . S
O854 C824 1.325 . S
O855 Li793 1.961 . S
O855 Li794 1.970 . S
O855 Li795 1.956 . S
O855 C830 1.325 . S
H856 C798 0.929 . S
H857 C799 0.930 . S
H858 C800 0.930 . S
H859 C801 0.930 . S
H860 C803 0.930 . S
H861 C805 0.929 . S
H862 C806 0.930 . S
H863 C807 0.930 . S
H864 C810 0.930 . S
H865 C813 0.929 . S
H866 C818 0.929 . S
H867 C819 0.930 . S
H868 C826 0.929 . S
H869 C827 0.930 . S
H870 C828 0.930 . S
H871 C829 0.930 . S
H872 C831 0.929 . S
H873 C832 0.930 . S
H874 C833 0.930 . S
H875 C834 0.930 . S
H876 C838 0.929 . S
H877 C840 0.930 . S
H878 C846 0.929 . S
H879 C847 0.930 . S
Li880 N897 1.990 . S
Li880 O940 1.956 . S
Li880 O941 1.970 . S
Li880 O942 1.961 . S
Li881 N905 1.990 . S
Li881 O940 1.970 . S
Li881 O941 1.956 . S
Li881 O943 1.961 . S
Li882 N927 1.990 . S
Li882 O940 1.961 . S
Li882 O942 1.956 . S
Li882 O943 1.970 . S
Li883 N933 1.990 . S
Li883 O941 1.961 . S
Li883 O942 1.970 . S
Li883 O943 1.956 . S
C884 C886 1.348 . S
C884 C887 1.356 . S
C884 O940 1.325 . S
N885 C888 1.314 . S
N885 C889 1.279 . S
C886 C884 1.348 . S
C886 C888 1.353 . S
C886 H944 0.929 . S
C887 C884 1.356 . S
C887 C889 1.358 . S
C887 H945 0.930 . S
C888 N885 1.314 . S
C888 C886 1.353 . S
C888 H946 0.930 . S
C889 N885 1.279 . S
C889 C887 1.358 . S
C889 H947 0.930 . S
C890 C893 1.348 . S
C890 C894 1.356 . S
C890 O941 1.325 . S
C891 N892 1.279 . S
C891 C894 1.358 . S
C891 H948 0.930 . S
N892 C891 1.279 . S
N892 C895 1.314 . S
C893 C890 1.348 . S
C893 C895 1.353 . S
C893 H949 0.929 . S
C894 C890 1.356 . S
C894 C891 1.358 . S
C894 H950 0.930 . S
C895 N892 1.314 . S
C895 C893 1.353 . S
C895 H951 0.930 . S
C896 N897 1.314 . S
C896 C901 1.353 . S
C896 H902 0.930 . S
N897 Li880 1.990 . S
N897 C896 1.314 . S
N897 C899 1.279 . S
C898 C899 1.358 . S
C898 C900 1.356 . S
C898 H952 0.930 . S
C899 N897 1.279 . S
C899 C898 1.358 . S
C899 H903 0.930 . S
C900 C898 1.356 . S
C900 C901 1.348 . S
C901 C896 1.353 . S
C901 C900 1.348 . S
C901 H953 0.929 . S
H902 C896 0.930 . S
H903 C899 0.930 . S
C904 N905 1.314 . S
C904 C906 1.353 . S
C904 H910 0.930 . S
N905 Li881 1.990 . S
N905 C904 1.314 . S
N905 C908 1.279 . S
C906 C904 1.353 . S
C906 C909 1.348 . S
C906 H954 0.929 . S
C907 C908 1.358 . S
C907 C909 1.356 . S
C907 H955 0.930 . S
C908 N905 1.279 . S
C908 C907 1.358 . S
C908 H911 0.930 . S
C909 C906 1.348 . S
C909 C907 1.356 . S
H910 C904 0.930 . S
H911 C908 0.930 . S
C912 C914 1.348 . S
C912 C915 1.356 . S
C912 O942 1.325 . S
N913 C916 1.314 . S
N913 C917 1.279 . S
C914 C912 1.348 . S
C914 C916 1.353 . S
C914 H956 0.929 . S
C915 C912 1.356 . S
C915 C917 1.358 . S
C915 H957 0.930 . S
C916 N913 1.314 . S
C916 C914 1.353 . S
C916 H958 0.930 . S
C917 N913 1.279 . S
C917 C915 1.358 . S
C917 H959 0.930 . S
C918 C919 1.348 . S
C918 C920 1.356 . S
C918 O943 1.325 . S
C919 C918 1.348 . S
C919 C921 1.353 . S
C919 H960 0.929 . S
C920 C918 1.356 . S
C920 C922 1.358 . S
C920 H961 0.930 . S
C921 C919 1.353 . S
C921 N923 1.314 . S
C921 H962 0.930 . S
C922 C920 1.358 . S
C922 N923 1.279 . S
C922 H963 0.930 . S
N923 C921 1.314 . S
N923 C922 1.279 . S
C924 C926 1.353 . S
C924 N927 1.314 . S
C924 H930 0.930 . S
C925 N927 1.279 . S
C925 C928 1.358 . S
C925 H931 0.930 . S
C926 C924 1.353 . S
C926 C929 1.348 . S
C926 H964 0.929 . S
N927 Li882 1.990 . S
N927 C924 1.314 . S
N927 C925 1.279 . S
C928 C925 1.358 . S
C928 C929 1.356 . S
C928 H965 0.930 . S
C929 C926 1.348 . S
C929 C928 1.356 . S
H930 C924 0.930 . S
H931 C925 0.930 . S
C932 N933 1.314 . S
C932 C934 1.353 . S
C932 H938 0.930 . S
N933 Li883 1.990 . S
N933 C932 1.314 . S
N933 C936 1.279 . S
C934 C932 1.353 . S
C934 C937 1.348 . S
C934 H966 0.929 . S
C935 C936 1.358 . S
C935 C937 1.356 . S
C935 H967 0.930 . S
C936 N933 1.279 . S
C936 C935 1.358 . S
C936 H939 0.930 . S
C937 C934 1.348 . S
C937 C935 1.356 . S
H938 C932 0.930 . S
H939 C936 0.930 . S
O940 Li880 1.956 . S
O940 Li881 1.970 . S
O940 Li882 1.961 . S
O940 C884 1.325 . S
O941 Li880 1.970 . S
O941 Li881 1.956 . S
O941 Li883 1.961 . S
O941 C890 1.325 . S
O942 Li880 1.961 . S
O942 Li882 1.956 . S
O942 Li883 1.970 . S
O942 C912 1.325 . S
O943 Li881 1.961 . S
O943 Li882 1.970 . S
O943 Li883 1.956 . S
O943 C918 1.325 . S
H944 C886 0.929 . S
H945 C887 0.930 . S
H946 C888 0.930 . S
H947 C889 0.930 . S
H948 C891 0.930 . S
H949 C893 0.929 . S
H950 C894 0.930 . S
H951 C895 0.930 . S
H952 C898 0.930 . S
H953 C901 0.929 . S
H954 C906 0.929 . S
H955 C907 0.930 . S
H956 C914 0.929 . S
H957 C915 0.930 . S
H958 C916 0.930 . S
H959 C917 0.930 . S
H960 C919 0.929 . S
H961 C920 0.930 . S
H962 C921 0.930 . S
H963 C922 0.930 . S
H964 C926 0.929 . S
H965 C928 0.930 . S
H966 C934 0.929 . S
H967 C935 0.930 . S
Li968 N985 1.990 . S
Li968 O1028 1.956 . S
Li968 O1029 1.970 . S
Li968 O1030 1.961 . S
Li969 N993 1.990 . S
Li969 O1028 1.970 . S
Li969 O1029 1.956 . S
Li969 O1031 1.961 . S
Li970 N1015 1.990 . S
Li970 O1028 1.961 . S
Li970 O1030 1.956 . S
Li970 O1031 1.970 . S
Li971 N1021 1.990 . S
Li971 O1029 1.961 . S
Li971 O1030 1.970 . S
Li971 O1031 1.956 . S
C972 C974 1.348 . S
C972 C975 1.356 . S
C972 O1028 1.325 . S
N973 C976 1.314 . S
N973 C977 1.279 . S
C974 C972 1.348 . S
C974 C976 1.353 . S
C974 H1032 0.929 . S
C975 C972 1.356 . S
C975 C977 1.358 . S
C975 H1033 0.930 . S
C976 N973 1.314 . S
C976 C974 1.353 . S
C976 H1034 0.930 . S
C977 N973 1.279 . S
C977 C975 1.358 . S
C977 H1035 0.930 . S
C978 C981 1.348 . S
C978 C982 1.356 . S
C978 O1029 1.325 . S
C979 N980 1.279 . S
C979 C982 1.358 . S
C979 H1036 0.930 . S
N980 C979 1.279 . S
N980 C983 1.314 . S
C981 C978 1.348 . S
C981 C983 1.353 . S
C981 H1037 0.929 . S
C982 C978 1.356 . S
C982 C979 1.358 . S
C982 H1038 0.930 . S
C983 N980 1.314 . S
C983 C981 1.353 . S
C983 H1039 0.930 . S
C984 N985 1.314 . S
C984 C989 1.353 . S
C984 H990 0.930 . S
N985 Li968 1.990 . S
N985 C984 1.314 . S
N985 C987 1.279 . S
C986 C987 1.358 . S
C986 C988 1.356 . S
C986 H1040 0.930 . S
C987 N985 1.279 . S
C987 C986 1.358 . S
C987 H991 0.930 . S
C988 C986 1.356 . S
C988 C989 1.348 . S
C989 C984 1.353 . S
C989 C988 1.348 . S
C989 H1041 0.929 . S
H990 C984 0.930 . S
H991 C987 0.930 . S
C992 N993 1.314 . S
C992 C994 1.353 . S
C992 H998 0.930 . S
N993 Li969 1.990 . S
N993 C992 1.314 . S
N993 C996 1.279 . S
C994 C992 1.353 . S
C994 C997 1.348 . S
C994 H1042 0.929 . S
C995 C996 1.358 . S
C995 C997 1.356 . S
C995 H1043 0.930 . S
C996 N993 1.279 . S
C996 C995 1.358 . S
C996 H999 0.930 . S
C997 C994 1.348 . S
C997 C995 1.356 . S
H998 C992 0.930 . S
H999 C996 0.930 . S
C1000 C1002 1.348 . S
C1000 C1003 1.356 . S
C1000 O1030 1.325 . S
N1001 C1004 1.314 . S
N1001 C1005 1.279 . S
C1002 C1000 1.348 . S
C1002 C1004 1.353 . S
C1002 H1044 0.929 . S
C1003 C1000 1.356 . S
C1003 C1005 1.358 . S
C1003 H1045 0.930 . S
C1004 N1001 1.314 . S
C1004 C1002 1.353 . S
C1004 H1046 0.930 . S
C1005 N1001 1.279 . S
C1005 C1003 1.358 . S
C1005 H1047 0.930 . S
C1006 C1007 1.348 . S
C1006 C1008 1.356 . S
C1006 O1031 1.325 . S
C1007 C1006 1.348 . S
C1007 C1009 1.353 . S
C1007 H1048 0.929 . S
C1008 C1006 1.356 . S
C1008 C1010 1.358 . S
C1008 H1049 0.930 . S
C1009 C1007 1.353 . S
C1009 N1011 1.314 . S
C1009 H1050 0.930 . S
C1010 C1008 1.358 . S
C1010 N1011 1.279 . S
C1010 H1051 0.930 . S
N1011 C1009 1.314 . S
N1011 C1010 1.279 . S
C1012 C1014 1.353 . S
C1012 N1015 1.314 . S
C1012 H1018 0.930 . S
C1013 N1015 1.279 . S
C1013 C1016 1.358 . S
C1013 H1019 0.930 . S
C1014 C1012 1.353 . S
C1014 C1017 1.348 . S
C1014 H1052 0.929 . S
N1015 Li970 1.990 . S
N1015 C1012 1.314 . S
N1015 C1013 1.279 . S
C1016 C1013 1.358 . S
C1016 C1017 1.356 . S
C1016 H1053 0.930 . S
C1017 C1014 1.348 . S
C1017 C1016 1.356 . S
H1018 C1012 0.930 . S
H1019 C1013 0.930 . S
C1020 N1021 1.314 . S
C1020 C1022 1.353 . S
C1020 H1026 0.930 . S
N1021 Li971 1.990 . S
N1021 C1020 1.314 . S
N1021 C1024 1.279 . S
C1022 C1020 1.353 . S
C1022 C1025 1.348 . S
C1022 H1054 0.929 . S
C1023 C1024 1.358 . S
C1023 C1025 1.356 . S
C1023 H1055 0.930 . S
C1024 N1021 1.279 . S
C1024 C1023 1.358 . S
C1024 H1027 0.930 . S
C1025 C1022 1.348 . S
C1025 C1023 1.356 . S
H1026 C1020 0.930 . S
H1027 C1024 0.930 . S
O1028 Li968 1.956 . S
O1028 Li969 1.970 . S
O1028 Li970 1.961 . S
O1028 C972 1.325 . S
O1029 Li968 1.970 . S
O1029 Li969 1.956 . S
O1029 Li971 1.961 . S
O1029 C978 1.325 . S
O1030 Li968 1.961 . S
O1030 Li970 1.956 . S
O1030 Li971 1.970 . S
O1030 C1000 1.325 . S
O1031 Li969 1.961 . S
O1031 Li970 1.970 . S
O1031 Li971 1.956 . S
O1031 C1006 1.325 . S
H1032 C974 0.929 . S
H1033 C975 0.930 . S
H1034 C976 0.930 . S
H1035 C977 0.930 . S
H1036 C979 0.930 . S
H1037 C981 0.929 . S
H1038 C982 0.930 . S
H1039 C983 0.930 . S
H1040 C986 0.930 . S
H1041 C989 0.929 . S
H1042 C994 0.929 . S
H1043 C995 0.930 . S
H1044 C1002 0.929 . S
H1045 C1003 0.930 . S
H1046 C1004 0.930 . S
H1047 C1005 0.930 . S
H1048 C1007 0.929 . S
H1049 C1008 0.930 . S
H1050 C1009 0.930 . S
H1051 C1010 0.930 . S
H1052 C1014 0.929 . S
H1053 C1016 0.930 . S
H1054 C1022 0.929 . S
H1055 C1023 0.930 . S
Li1056 N1073 1.990 . S
Li1056 O1116 1.956 . S
Li1056 O1117 1.970 . S
Li1056 O1118 1.961 . S
Li1057 N1081 1.990 . S
Li1057 O1116 1.970 . S
Li1057 O1117 1.956 . S
Li1057 O1119 1.961 . S
Li1058 N1103 1.990 . S
Li1058 O1116 1.961 . S
Li1058 O1118 1.956 . S
Li1058 O1119 1.970 . S
Li1059 N1109 1.990 . S
Li1059 O1117 1.961 . S
Li1059 O1118 1.970 . S
Li1059 O1119 1.956 . S
C1060 C1062 1.348 . S
C1060 C1063 1.356 . S
C1060 O1116 1.325 . S
N1061 C1064 1.314 . S
N1061 C1065 1.279 . S
C1062 C1060 1.348 . S
C1062 C1064 1.353 . S
C1062 H1120 0.929 . S
C1063 C1060 1.356 . S
C1063 C1065 1.358 . S
C1063 H1121 0.930 . S
C1064 N1061 1.314 . S
C1064 C1062 1.353 . S
C1064 H1122 0.930 . S
C1065 N1061 1.279 . S
C1065 C1063 1.358 . S
C1065 H1123 0.930 . S
C1066 C1069 1.348 . S
C1066 C1070 1.356 . S
C1066 O1117 1.325 . S
C1067 N1068 1.279 . S
C1067 C1070 1.358 . S
C1067 H1124 0.930 . S
N1068 C1067 1.279 . S
N1068 C1071 1.314 . S
C1069 C1066 1.348 . S
C1069 C1071 1.353 . S
C1069 H1125 0.929 . S
C1070 C1066 1.356 . S
C1070 C1067 1.358 . S
C1070 H1126 0.930 . S
C1071 N1068 1.314 . S
C1071 C1069 1.353 . S
C1071 H1127 0.930 . S
C1072 N1073 1.314 . S
C1072 C1077 1.353 . S
C1072 H1078 0.930 . S
N1073 Li1056 1.990 . S
N1073 C1072 1.314 . S
N1073 C1075 1.279 . S
C1074 C1075 1.358 . S
C1074 C1076 1.356 . S
C1074 H1128 0.930 . S
C1075 N1073 1.279 . S
C1075 C1074 1.358 . S
C1075 H1079 0.930 . S
C1076 C1074 1.356 . S
C1076 C1077 1.348 . S
C1077 C1072 1.353 . S
C1077 C1076 1.348 . S
C1077 H1129 0.929 . S
H1078 C1072 0.930 . S
H1079 C1075 0.930 . S
C1080 N1081 1.314 . S
C1080 C1082 1.353 . S
C1080 H1086 0.930 . S
N1081 Li1057 1.990 . S
N1081 C1080 1.314 . S
N1081 C1084 1.279 . S
C1082 C1080 1.353 . S
C1082 C1085 1.348 . S
C1082 H1130 0.929 . S
C1083 C1084 1.358 . S
C1083 C1085 1.356 . S
C1083 H1131 0.930 . S
C1084 N1081 1.279 . S
C1084 C1083 1.358 . S
C1084 H1087 0.930 . S
C1085 C1082 1.348 . S
C1085 C1083 1.356 . S
H1086 C1080 0.930 . S
H1087 C1084 0.930 . S
C1088 C1090 1.348 . S
C1088 C1091 1.356 . S
C1088 O1118 1.325 . S
N1089 C1092 1.314 . S
N1089 C1093 1.279 . S
C1090 C1088 1.348 . S
C1090 C1092 1.353 . S
C1090 H1132 0.929 . S
C1091 C1088 1.356 . S
C1091 C1093 1.358 . S
C1091 H1133 0.930 . S
C1092 N1089 1.314 . S
C1092 C1090 1.353 . S
C1092 H1134 0.930 . S
C1093 N1089 1.279 . S
C1093 C1091 1.358 . S
C1093 H1135 0.930 . S
C1094 C1095 1.348 . S
C1094 C1096 1.356 . S
C1094 O1119 1.325 . S
C1095 C1094 1.348 . S
C1095 C1097 1.353 . S
C1095 H1136 0.929 . S
C1096 C1094 1.356 . S
C1096 C1098 1.358 . S
C1096 H1137 0.930 . S
C1097 C1095 1.353 . S
C1097 N1099 1.314 . S
C1097 H1138 0.930 . S
C1098 C1096 1.358 . S
C1098 N1099 1.279 . S
C1098 H1139 0.930 . S
N1099 C1097 1.314 . S
N1099 C1098 1.279 . S
C1100 C1102 1.353 . S
C1100 N1103 1.314 . S
C1100 H1106 0.930 . S
C1101 N1103 1.279 . S
C1101 C1104 1.358 . S
C1101 H1107 0.930 . S
C1102 C1100 1.353 . S
C1102 C1105 1.348 . S
C1102 H1140 0.929 . S
N1103 Li1058 1.990 . S
N1103 C1100 1.314 . S
N1103 C1101 1.279 . S
C1104 C1101 1.358 . S
C1104 C1105 1.356 . S
C1104 H1141 0.930 . S
C1105 C1102 1.348 . S
C1105 C1104 1.356 . S
H1106 C1100 0.930 . S
H1107 C1101 0.930 . S
C1108 N1109 1.314 . S
C1108 C1110 1.353 . S
C1108 H1114 0.930 . S
N1109 Li1059 1.990 . S
N1109 C1108 1.314 . S
N1109 C1112 1.279 . S
C1110 C1108 1.353 . S
C1110 C1113 1.348 . S
C1110 H1142 0.929 . S
C1111 C1112 1.358 . S
C1111 C1113 1.356 . S
C1111 H1143 0.930 . S
C1112 N1109 1.279 . S
C1112 C1111 1.358 . S
C1112 H1115 0.930 . S
C1113 C1110 1.348 . S
C1113 C1111 1.356 . S
H1114 C1108 0.930 . S
H1115 C1112 0.930 . S
O1116 Li1056 1.956 . S
O1116 Li1057 1.970 . S
O1116 Li1058 1.961 . S
O1116 C1060 1.325 . S
O1117 Li1056 1.970 . S
O1117 Li1057 1.956 . S
O1117 Li1059 1.961 . S
O1117 C1066 1.325 . S
O1118 Li1056 1.961 . S
O1118 Li1058 1.956 . S
O1118 Li1059 1.970 . S
O1118 C1088 1.325 . S
O1119 Li1057 1.961 . S
O1119 Li1058 1.970 . S
O1119 Li1059 1.956 . S
O1119 C1094 1.325 . S
H1120 C1062 0.929 . S
H1121 C1063 0.930 . S
H1122 C1064 0.930 . S
H1123 C1065 0.930 . S
H1124 C1067 0.930 . S
H1125 C1069 0.929 . S
H1126 C1070 0.930 . S
H1127 C1071 0.930 . S
H1128 C1074 0.930 . S
H1129 C1077 0.929 . S
H1130 C1082 0.929 . S
H1131 C1083 0.930 . S
H1132 C1090 0.929 . S
H1133 C1091 0.930 . S
H1134 C1092 0.930 . S
H1135 C1093 0.930 . S
H1136 C1095 0.929 . S
H1137 C1096 0.930 . S
H1138 C1097 0.930 . S
H1139 C1098 0.930 . S
H1140 C1102 0.929 . S
H1141 C1104 0.930 . S
H1142 C1110 0.929 . S
H1143 C1111 0.930 . S
Li1144 N1161 1.990 . S
Li1144 O1204 1.956 . S
Li1144 O1205 1.970 . S
Li1144 O1206 1.961 . S
Li1145 N1169 1.990 . S
Li1145 O1204 1.970 . S
Li1145 O1205 1.956 . S
Li1145 O1207 1.961 . S
Li1146 N1191 1.990 . S
Li1146 O1204 1.961 . S
Li1146 O1206 1.956 . S
Li1146 O1207 1.970 . S
Li1147 N1197 1.990 . S
Li1147 O1205 1.961 . S
Li1147 O1206 1.970 . S
Li1147 O1207 1.956 . S
C1148 C1150 1.348 . S
C1148 C1151 1.356 . S
C1148 O1204 1.325 . S
N1149 C1152 1.314 . S
N1149 C1153 1.279 . S
C1150 C1148 1.348 . S
C1150 C1152 1.353 . S
C1150 H1208 0.929 . S
C1151 C1148 1.356 . S
C1151 C1153 1.358 . S
C1151 H1209 0.930 . S
C1152 N1149 1.314 . S
C1152 C1150 1.353 . S
C1152 H1210 0.930 . S
C1153 N1149 1.279 . S
C1153 C1151 1.358 . S
C1153 H1211 0.930 . S
C1154 C1157 1.348 . S
C1154 C1158 1.356 . S
C1154 O1205 1.325 . S
C1155 N1156 1.279 . S
C1155 C1158 1.358 . S
C1155 H1212 0.930 . S
N1156 C1155 1.279 . S
N1156 C1159 1.314 . S
C1157 C1154 1.348 . S
C1157 C1159 1.353 . S
C1157 H1213 0.929 . S
C1158 C1154 1.356 . S
C1158 C1155 1.358 . S
C1158 H1214 0.930 . S
C1159 N1156 1.314 . S
C1159 C1157 1.353 . S
C1159 H1215 0.930 . S
C1160 N1161 1.314 . S
C1160 C1165 1.353 . S
C1160 H1166 0.930 . S
N1161 Li1144 1.990 . S
N1161 C1160 1.314 . S
N1161 C1163 1.279 . S
C1162 C1163 1.358 . S
C1162 C1164 1.356 . S
C1162 H1216 0.930 . S
C1163 N1161 1.279 . S
C1163 C1162 1.358 . S
C1163 H1167 0.930 . S
C1164 C1162 1.356 . S
C1164 C1165 1.348 . S
C1165 C1160 1.353 . S
C1165 C1164 1.348 . S
C1165 H1217 0.929 . S
H1166 C1160 0.930 . S
H1167 C1163 0.930 . S
C1168 N1169 1.314 . S
C1168 C1170 1.353 . S
C1168 H1174 0.930 . S
N1169 Li1145 1.990 . S
N1169 C1168 1.314 . S
N1169 C1172 1.279 . S
C1170 C1168 1.353 . S
C1170 C1173 1.348 . S
C1170 H1218 0.929 . S
C1171 C1172 1.358 . S
C1171 C1173 1.356 . S
C1171 H1219 0.930 . S
C1172 N1169 1.279 . S
C1172 C1171 1.358 . S
C1172 H1175 0.930 . S
C1173 C1170 1.348 . S
C1173 C1171 1.356 . S
H1174 C1168 0.930 . S
H1175 C1172 0.930 . S
C1176 C1178 1.348 . S
C1176 C1179 1.356 . S
C1176 O1206 1.325 . S
N1177 C1180 1.314 . S
N1177 C1181 1.279 . S
C1178 C1176 1.348 . S
C1178 C1180 1.353 . S
C1178 H1220 0.929 . S
C1179 C1176 1.356 . S
C1179 C1181 1.358 . S
C1179 H1221 0.930 . S
C1180 N1177 1.314 . S
C1180 C1178 1.353 . S
C1180 H1222 0.930 . S
C1181 N1177 1.279 . S
C1181 C1179 1.358 . S
C1181 H1223 0.930 . S
C1182 C1183 1.348 . S
C1182 C1184 1.356 . S
C1182 O1207 1.325 . S
C1183 C1182 1.348 . S
C1183 C1185 1.353 . S
C1183 H1224 0.929 . S
C1184 C1182 1.356 . S
C1184 C1186 1.358 . S
C1184 H1225 0.930 . S
C1185 C1183 1.353 . S
C1185 N1187 1.314 . S
C1185 H1226 0.930 . S
C1186 C1184 1.358 . S
C1186 N1187 1.279 . S
C1186 H1227 0.930 . S
N1187 C1185 1.314 . S
N1187 C1186 1.279 . S
C1188 C1190 1.353 . S
C1188 N1191 1.314 . S
C1188 H1194 0.930 . S
C1189 N1191 1.279 . S
C1189 C1192 1.358 . S
C1189 H1195 0.930 . S
C1190 C1188 1.353 . S
C1190 C1193 1.348 . S
C1190 H1228 0.929 . S
N1191 Li1146 1.990 . S
N1191 C1188 1.314 . S
N1191 C1189 1.279 . S
C1192 C1189 1.358 . S
C1192 C1193 1.356 . S
C1192 H1229 0.930 . S
C1193 C1190 1.348 . S
C1193 C1192 1.356 . S
H1194 C1188 0.930 . S
H1195 C1189 0.930 . S
C1196 N1197 1.314 . S
C1196 C1198 1.353 . S
C1196 H1202 0.930 . S
N1197 Li1147 1.990 . S
N1197 C1196 1.314 . S
N1197 C1200 1.279 . S
C1198 C1196 1.353 . S
C1198 C1201 1.348 . S
C1198 H1230 0.929 . S
C1199 C1200 1.358 . S
C1199 C1201 1.356 . S
C1199 H1231 0.930 . S
C1200 N1197 1.279 . S
C1200 C1199 1.358 . S
C1200 H1203 0.930 . S
C1201 C1198 1.348 . S
C1201 C1199 1.356 . S
H1202 C1196 0.930 . S
H1203 C1200 0.930 . S
O1204 Li1144 1.956 . S
O1204 Li1145 1.970 . S
O1204 Li1146 1.961 . S
O1204 C1148 1.325 . S
O1205 Li1144 1.970 . S
O1205 Li1145 1.956 . S
O1205 Li1147 1.961 . S
O1205 C1154 1.325 . S
O1206 Li1144 1.961 . S
O1206 Li1146 1.956 . S
O1206 Li1147 1.970 . S
O1206 C1176 1.325 . S
O1207 Li1145 1.961 . S
O1207 Li1146 1.970 . S
O1207 Li1147 1.956 . S
O1207 C1182 1.325 . S
H1208 C1150 0.929 . S
H1209 C1151 0.930 . S
H1210 C1152 0.930 . S
H1211 C1153 0.930 . S
H1212 C1155 0.930 . S
H1213 C1157 0.929 . S
H1214 C1158 0.930 . S
H1215 C1159 0.930 . S
H1216 C1162 0.930 . S
H1217 C1165 0.929 . S
H1218 C1170 0.929 . S
H1219 C1171 0.930 . S
H1220 C1178 0.929 . S
H1221 C1179 0.930 . S
H1222 C1180 0.930 . S
H1223 C1181 0.930 . S
H1224 C1183 0.929 . S
H1225 C1184 0.930 . S
H1226 C1185 0.930 . S
H1227 C1186 0.930 . S
H1228 C1190 0.929 . S
H1229 C1192 0.930 . S
H1230 C1198 0.929 . S
H1231 C1199 0.930 . S
Li1232 N1249 1.990 . S
Li1232 O1292 1.956 . S
Li1232 O1293 1.970 . S
Li1232 O1294 1.961 . S
Li1233 N1257 1.990 . S
Li1233 O1292 1.970 . S
Li1233 O1293 1.956 . S
Li1233 O1295 1.961 . S
Li1234 N1279 1.990 . S
Li1234 O1292 1.961 . S
Li1234 O1294 1.956 . S
Li1234 O1295 1.970 . S
Li1235 N1285 1.990 . S
Li1235 O1293 1.961 . S
Li1235 O1294 1.970 . S
Li1235 O1295 1.956 . S
C1236 C1238 1.348 . S
C1236 C1239 1.356 . S
C1236 O1292 1.325 . S
N1237 C1240 1.314 . S
N1237 C1241 1.279 . S
C1238 C1236 1.348 . S
C1238 C1240 1.353 . S
C1238 H1296 0.929 . S
C1239 C1236 1.356 . S
C1239 C1241 1.358 . S
C1239 H1297 0.930 . S
C1240 N1237 1.314 . S
C1240 C1238 1.353 . S
C1240 H1298 0.930 . S
C1241 N1237 1.279 . S
C1241 C1239 1.358 . S
C1241 H1299 0.930 . S
C1242 C1245 1.348 . S
C1242 C1246 1.356 . S
C1242 O1293 1.325 . S
C1243 N1244 1.279 . S
C1243 C1246 1.358 . S
C1243 H1300 0.930 . S
N1244 C1243 1.279 . S
N1244 C1247 1.314 . S
C1245 C1242 1.348 . S
C1245 C1247 1.353 . S
C1245 H1301 0.929 . S
C1246 C1242 1.356 . S
C1246 C1243 1.358 . S
C1246 H1302 0.930 . S
C1247 N1244 1.314 . S
C1247 C1245 1.353 . S
C1247 H1303 0.930 . S
C1248 N1249 1.314 . S
C1248 C1253 1.353 . S
C1248 H1254 0.930 . S
N1249 Li1232 1.990 . S
N1249 C1248 1.314 . S
N1249 C1251 1.279 . S
C1250 C1251 1.358 . S
C1250 C1252 1.356 . S
C1250 H1304 0.930 . S
C1251 N1249 1.279 . S
C1251 C1250 1.358 . S
C1251 H1255 0.930 . S
C1252 C1250 1.356 . S
C1252 C1253 1.348 . S
C1253 C1248 1.353 . S
C1253 C1252 1.348 . S
C1253 H1305 0.929 . S
H1254 C1248 0.930 . S
H1255 C1251 0.930 . S
C1256 N1257 1.314 . S
C1256 C1258 1.353 . S
C1256 H1262 0.930 . S
N1257 Li1233 1.990 . S
N1257 C1256 1.314 . S
N1257 C1260 1.279 . S
C1258 C1256 1.353 . S
C1258 C1261 1.348 . S
C1258 H1306 0.929 . S
C1259 C1260 1.358 . S
C1259 C1261 1.356 . S
C1259 H1307 0.930 . S
C1260 N1257 1.279 . S
C1260 C1259 1.358 . S
C1260 H1263 0.930 . S
C1261 C1258 1.348 . S
C1261 C1259 1.356 . S
H1262 C1256 0.930 . S
H1263 C1260 0.930 . S
C1264 C1266 1.348 . S
C1264 C1267 1.356 . S
C1264 O1294 1.325 . S
N1265 C1268 1.314 . S
N1265 C1269 1.279 . S
C1266 C1264 1.348 . S
C1266 C1268 1.353 . S
C1266 H1308 0.929 . S
C1267 C1264 1.356 . S
C1267 C1269 1.358 . S
C1267 H1309 0.930 . S
C1268 N1265 1.314 . S
C1268 C1266 1.353 . S
C1268 H1310 0.930 . S
C1269 N1265 1.279 . S
C1269 C1267 1.358 . S
C1269 H1311 0.930 . S
C1270 C1271 1.348 . S
C1270 C1272 1.356 . S
C1270 O1295 1.325 . S
C1271 C1270 1.348 . S
C1271 C1273 1.353 . S
C1271 H1312 0.929 . S
C1272 C1270 1.356 . S
C1272 C1274 1.358 . S
C1272 H1313 0.930 . S
C1273 C1271 1.353 . S
C1273 N1275 1.314 . S
C1273 H1314 0.930 . S
C1274 C1272 1.358 . S
C1274 N1275 1.279 . S
C1274 H1315 0.930 . S
N1275 C1273 1.314 . S
N1275 C1274 1.279 . S
C1276 C1278 1.353 . S
C1276 N1279 1.314 . S
C1276 H1282 0.930 . S
C1277 N1279 1.279 . S
C1277 C1280 1.358 . S
C1277 H1283 0.930 . S
C1278 C1276 1.353 . S
C1278 C1281 1.348 . S
C1278 H1316 0.929 . S
N1279 Li1234 1.990 . S
N1279 C1276 1.314 . S
N1279 C1277 1.279 . S
C1280 C1277 1.358 . S
C1280 C1281 1.356 . S
C1280 H1317 0.930 . S
C1281 C1278 1.348 . S
C1281 C1280 1.356 . S
H1282 C1276 0.930 . S
H1283 C1277 0.930 . S
C1284 N1285 1.314 . S
C1284 C1286 1.353 . S
C1284 H1290 0.930 . S
N1285 Li1235 1.990 . S
N1285 C1284 1.314 . S
N1285 C1288 1.279 . S
C1286 C1284 1.353 . S
C1286 C1289 1.348 . S
C1286 H1318 0.929 . S
C1287 C1288 1.358 . S
C1287 C1289 1.356 . S
C1287 H1319 0.930 . S
C1288 N1285 1.279 . S
C1288 C1287 1.358 . S
C1288 H1291 0.930 . S
C1289 C1286 1.348 . S
C1289 C1287 1.356 . S
H1290 C1284 0.930 . S
H1291 C1288 0.930 . S
O1292 Li1232 1.956 . S
O1292 Li1233 1.970 . S
O1292 Li1234 1.961 . S
O1292 C1236 1.325 . S
O1293 Li1232 1.970 . S
O1293 Li1233 1.956 . S
O1293 Li1235 1.961 . S
O1293 C1242 1.325 . S
O1294 Li1232 1.961 . S
O1294 Li1234 1.956 . S
O1294 Li1235 1.970 . S
O1294 C1264 1.325 . S
O1295 Li1233 1.961 . S
O1295 Li1234 1.970 . S
O1295 Li1235 1.956 . S
O1295 C1270 1.325 . S
H1296 C1238 0.929 . S
H1297 C1239 0.930 . S
H1298 C1240 0.930 . S
H1299 C1241 0.930 . S
H1300 C1243 0.930 . S
H1301 C1245 0.929 . S
H1302 C1246 0.930 . S
H1303 C1247 0.930 . S
H1304 C1250 0.930 . S
H1305 C1253 0.929 . S
H1306 C1258 0.929 . S
H1307 C1259 0.930 . S
H1308 C1266 0.929 . S
H1309 C1267 0.930 . S
H1310 C1268 0.930 . S
H1311 C1269 0.930 . S
H1312 C1271 0.929 . S
H1313 C1272 0.930 . S
H1314 C1273 0.930 . S
H1315 C1274 0.930 . S
H1316 C1278 0.929 . S
H1317 C1280 0.930 . S
H1318 C1286 0.929 . S
H1319 C1287 0.930 . S
Li1320 N1337 1.990 . S
Li1320 O1380 1.956 . S
Li1320 O1381 1.970 . S
Li1320 O1382 1.961 . S
Li1321 N1345 1.990 . S
Li1321 O1380 1.970 . S
Li1321 O1381 1.956 . S
Li1321 O1383 1.961 . S
Li1322 N1367 1.990 . S
Li1322 O1380 1.961 . S
Li1322 O1382 1.956 . S
Li1322 O1383 1.970 . S
Li1323 N1373 1.990 . S
Li1323 O1381 1.961 . S
Li1323 O1382 1.970 . S
Li1323 O1383 1.956 . S
C1324 C1326 1.348 . S
C1324 C1327 1.356 . S
C1324 O1380 1.325 . S
N1325 C1328 1.314 . S
N1325 C1329 1.279 . S
C1326 C1324 1.348 . S
C1326 C1328 1.353 . S
C1326 H1384 0.929 . S
C1327 C1324 1.356 . S
C1327 C1329 1.358 . S
C1327 H1385 0.930 . S
C1328 N1325 1.314 . S
C1328 C1326 1.353 . S
C1328 H1386 0.930 . S
C1329 N1325 1.279 . S
C1329 C1327 1.358 . S
C1329 H1387 0.930 . S
C1330 C1333 1.348 . S
C1330 C1334 1.356 . S
C1330 O1381 1.325 . S
C1331 N1332 1.279 . S
C1331 C1334 1.358 . S
C1331 H1388 0.930 . S
N1332 C1331 1.279 . S
N1332 C1335 1.314 . S
C1333 C1330 1.348 . S
C1333 C1335 1.353 . S
C1333 H1389 0.929 . S
C1334 C1330 1.356 . S
C1334 C1331 1.358 . S
C1334 H1390 0.930 . S
C1335 N1332 1.314 . S
C1335 C1333 1.353 . S
C1335 H1391 0.930 . S
C1336 N1337 1.314 . S
C1336 C1341 1.353 . S
C1336 H1342 0.930 . S
N1337 Li1320 1.990 . S
N1337 C1336 1.314 . S
N1337 C1339 1.279 . S
C1338 C1339 1.358 . S
C1338 C1340 1.356 . S
C1338 H1392 0.930 . S
C1339 N1337 1.279 . S
C1339 C1338 1.358 . S
C1339 H1343 0.930 . S
C1340 C1338 1.356 . S
C1340 C1341 1.348 . S
C1341 C1336 1.353 . S
C1341 C1340 1.348 . S
C1341 H1393 0.929 . S
H1342 C1336 0.930 . S
H1343 C1339 0.930 . S
C1344 N1345 1.314 . S
C1344 C1346 1.353 . S
C1344 H1350 0.930 . S
N1345 Li1321 1.990 . S
N1345 C1344 1.314 . S
N1345 C1348 1.279 . S
C1346 C1344 1.353 . S
C1346 C1349 1.348 . S
C1346 H1394 0.929 . S
C1347 C1348 1.358 . S
C1347 C1349 1.356 . S
C1347 H1395 0.930 . S
C1348 N1345 1.279 . S
C1348 C1347 1.358 . S
C1348 H1351 0.930 . S
C1349 C1346 1.348 . S
C1349 C1347 1.356 . S
H1350 C1344 0.930 . S
H1351 C1348 0.930 . S
C1352 C1354 1.348 . S
C1352 C1355 1.356 . S
C1352 O1382 1.325 . S
N1353 C1356 1.314 . S
N1353 C1357 1.279 . S
C1354 C1352 1.348 . S
C1354 C1356 1.353 . S
C1354 H1396 0.929 . S
C1355 C1352 1.356 . S
C1355 C1357 1.358 . S
C1355 H1397 0.930 . S
C1356 N1353 1.314 . S
C1356 C1354 1.353 . S
C1356 H1398 0.930 . S
C1357 N1353 1.279 . S
C1357 C1355 1.358 . S
C1357 H1399 0.930 . S
C1358 C1359 1.348 . S
C1358 C1360 1.356 . S
C1358 O1383 1.325 . S
C1359 C1358 1.348 . S
C1359 C1361 1.353 . S
C1359 H1400 0.929 . S
C1360 C1358 1.356 . S
C1360 C1362 1.358 . S
C1360 H1401 0.930 . S
C1361 C1359 1.353 . S
C1361 N1363 1.314 . S
C1361 H1402 0.930 . S
C1362 C1360 1.358 . S
C1362 N1363 1.279 . S
C1362 H1403 0.930 . S
N1363 C1361 1.314 . S
N1363 C1362 1.279 . S
C1364 C1366 1.353 . S
C1364 N1367 1.314 . S
C1364 H1370 0.930 . S
C1365 N1367 1.279 . S
C1365 C1368 1.358 . S
C1365 H1371 0.930 . S
C1366 C1364 1.353 . S
C1366 C1369 1.348 . S
C1366 H1404 0.929 . S
N1367 Li1322 1.990 . S
N1367 C1364 1.314 . S
N1367 C1365 1.279 . S
C1368 C1365 1.358 . S
C1368 C1369 1.356 . S
C1368 H1405 0.930 . S
C1369 C1366 1.348 . S
C1369 C1368 1.356 . S
H1370 C1364 0.930 . S
H1371 C1365 0.930 . S
C1372 N1373 1.314 . S
C1372 C1374 1.353 . S
C1372 H1378 0.930 . S
N1373 Li1323 1.990 . S
N1373 C1372 1.314 . S
N1373 C1376 1.279 . S
C1374 C1372 1.353 . S
C1374 C1377 1.348 . S
C1374 H1406 0.929 . S
C1375 C1376 1.358 . S
C1375 C1377 1.356 . S
C1375 H1407 0.930 . S
C1376 N1373 1.279 . S
C1376 C1375 1.358 . S
C1376 H1379 0.930 . S
C1377 C1374 1.348 . S
C1377 C1375 1.356 . S
H1378 C1372 0.930 . S
H1379 C1376 0.930 . S
O1380 Li1320 1.956 . S
O1380 Li1321 1.970 . S
O1380 Li1322 1.961 . S
O1380 C1324 1.325 . S
O1381 Li1320 1.970 . S
O1381 Li1321 1.956 . S
O1381 Li1323 1.961 . S
O1381 C1330 1.325 . S
O1382 Li1320 1.961 . S
O1382 Li1322 1.956 . S
O1382 Li1323 1.970 . S
O1382 C1352 1.325 . S
O1383 Li1321 1.961 . S
O1383 Li1322 1.970 . S
O1383 Li1323 1.956 . S
O1383 C1358 1.325 . S
H1384 C1326 0.929 . S
H1385 C1327 0.930 . S
H1386 C1328 0.930 . S
H1387 C1329 0.930 . S
H1388 C1331 0.930 . S
H1389 C1333 0.929 . S
H1390 C1334 0.930 . S
H1391 C1335 0.930 . S
H1392 C1338 0.930 . S
H1393 C1341 0.929 . S
H1394 C1346 0.929 . S
H1395 C1347 0.930 . S
H1396 C1354 0.929 . S
H1397 C1355 0.930 . S
H1398 C1356 0.930 . S
H1399 C1357 0.930 . S
H1400 C1359 0.929 . S
H1401 C1360 0.930 . S
H1402 C1361 0.930 . S
H1403 C1362 0.930 . S
H1404 C1366 0.929 . S
H1405 C1368 0.930 . S
H1406 C1374 0.929 . S
H1407 C1375 0.930 . S
Li1408 N1425 1.990 . S
Li1408 O1468 1.956 . S
Li1408 O1469 1.970 . S
Li1408 O1470 1.961 . S
Li1409 N1433 1.990 . S
Li1409 O1468 1.970 . S
Li1409 O1469 1.956 . S
Li1409 O1471 1.961 . S
Li1410 N1455 1.990 . S
Li1410 O1468 1.961 . S
Li1410 O1470 1.956 . S
Li1410 O1471 1.970 . S
Li1411 N1461 1.990 . S
Li1411 O1469 1.961 . S
Li1411 O1470 1.970 . S
Li1411 O1471 1.956 . S
C1412 C1414 1.348 . S
C1412 C1415 1.356 . S
C1412 O1468 1.325 . S
N1413 C1416 1.314 . S
N1413 C1417 1.279 . S
C1414 C1412 1.348 . S
C1414 C1416 1.353 . S
C1414 H1472 0.929 . S
C1415 C1412 1.356 . S
C1415 C1417 1.358 . S
C1415 H1473 0.930 . S
C1416 N1413 1.314 . S
C1416 C1414 1.353 . S
C1416 H1474 0.930 . S
C1417 N1413 1.279 . S
C1417 C1415 1.358 . S
C1417 H1475 0.930 . S
C1418 C1421 1.348 . S
C1418 C1422 1.356 . S
C1418 O1469 1.325 . S
C1419 N1420 1.279 . S
C1419 C1422 1.358 . S
C1419 H1476 0.930 . S
N1420 C1419 1.279 . S
N1420 C1423 1.314 . S
C1421 C1418 1.348 . S
C1421 C1423 1.353 . S
C1421 H1477 0.929 . S
C1422 C1418 1.356 . S
C1422 C1419 1.358 . S
C1422 H1478 0.930 . S
C1423 N1420 1.314 . S
C1423 C1421 1.353 . S
C1423 H1479 0.930 . S
C1424 N1425 1.314 . S
C1424 C1429 1.353 . S
C1424 H1430 0.930 . S
N1425 Li1408 1.990 . S
N1425 C1424 1.314 . S
N1425 C1427 1.279 . S
C1426 C1427 1.358 . S
C1426 C1428 1.356 . S
C1426 H1480 0.930 . S
C1427 N1425 1.279 . S
C1427 C1426 1.358 . S
C1427 H1431 0.930 . S
C1428 C1426 1.356 . S
C1428 C1429 1.348 . S
C1429 C1424 1.353 . S
C1429 C1428 1.348 . S
C1429 H1481 0.929 . S
H1430 C1424 0.930 . S
H1431 C1427 0.930 . S
C1432 N1433 1.314 . S
C1432 C1434 1.353 . S
C1432 H1438 0.930 . S
N1433 Li1409 1.990 . S
N1433 C1432 1.314 . S
N1433 C1436 1.279 . S
C1434 C1432 1.353 . S
C1434 C1437 1.348 . S
C1434 H1482 0.929 . S
C1435 C1436 1.358 . S
C1435 C1437 1.356 . S
C1435 H1483 0.930 . S
C1436 N1433 1.279 . S
C1436 C1435 1.358 . S
C1436 H1439 0.930 . S
C1437 C1434 1.348 . S
C1437 C1435 1.356 . S
H1438 C1432 0.930 . S
H1439 C1436 0.930 . S
C1440 C1442 1.348 . S
C1440 C1443 1.356 . S
C1440 O1470 1.325 . S
N1441 C1444 1.314 . S
N1441 C1445 1.279 . S
C1442 C1440 1.348 . S
C1442 C1444 1.353 . S
C1442 H1484 0.929 . S
C1443 C1440 1.356 . S
C1443 C1445 1.358 . S
C1443 H1485 0.930 . S
C1444 N1441 1.314 . S
C1444 C1442 1.353 . S
C1444 H1486 0.930 . S
C1445 N1441 1.279 . S
C1445 C1443 1.358 . S
C1445 H1487 0.930 . S
C1446 C1447 1.348 . S
C1446 C1448 1.356 . S
C1446 O1471 1.325 . S
C1447 C1446 1.348 . S
C1447 C1449 1.353 . S
C1447 H1488 0.929 . S
C1448 C1446 1.356 . S
C1448 C1450 1.358 . S
C1448 H1489 0.930 . S
C1449 C1447 1.353 . S
C1449 N1451 1.314 . S
C1449 H1490 0.930 . S
C1450 C1448 1.358 . S
C1450 N1451 1.279 . S
C1450 H1491 0.930 . S
N1451 C1449 1.314 . S
N1451 C1450 1.279 . S
C1452 C1454 1.353 . S
C1452 N1455 1.314 . S
C1452 H1458 0.930 . S
C1453 N1455 1.279 . S
C1453 C1456 1.358 . S
C1453 H1459 0.930 . S
C1454 C1452 1.353 . S
C1454 C1457 1.348 . S
C1454 H1492 0.929 . S
N1455 Li1410 1.990 . S
N1455 C1452 1.314 . S
N1455 C1453 1.279 . S
C1456 C1453 1.358 . S
C1456 C1457 1.356 . S
C1456 H1493 0.930 . S
C1457 C1454 1.348 . S
C1457 C1456 1.356 . S
H1458 C1452 0.930 . S
H1459 C1453 0.930 . S
C1460 N1461 1.314 . S
C1460 C1462 1.353 . S
C1460 H1466 0.930 . S
N1461 Li1411 1.990 . S
N1461 C1460 1.314 . S
N1461 C1464 1.279 . S
C1462 C1460 1.353 . S
C1462 C1465 1.348 . S
C1462 H1494 0.929 . S
C1463 C1464 1.358 . S
C1463 C1465 1.356 . S
C1463 H1495 0.930 . S
C1464 N1461 1.279 . S
C1464 C1463 1.358 . S
C1464 H1467 0.930 . S
C1465 C1462 1.348 . S
C1465 C1463 1.356 . S
H1466 C1460 0.930 . S
H1467 C1464 0.930 . S
O1468 Li1408 1.956 . S
O1468 Li1409 1.970 . S
O1468 Li1410 1.961 . S
O1468 C1412 1.325 . S
O1469 Li1408 1.970 . S
O1469 Li1409 1.956 . S
O1469 Li1411 1.961 . S
O1469 C1418 1.325 . S
O1470 Li1408 1.961 . S
O1470 Li1410 1.956 . S
O1470 Li1411 1.970 . S
O1470 C1440 1.325 . S
O1471 Li1409 1.961 . S
O1471 Li1410 1.970 . S
O1471 Li1411 1.956 . S
O1471 C1446 1.325 . S
H1472 C1414 0.929 . S
H1473 C1415 0.930 . S
H1474 C1416 0.930 . S
H1475 C1417 0.930 . S
H1476 C1419 0.930 . S
H1477 C1421 0.929 . S
H1478 C1422 0.930 . S
H1479 C1423 0.930 . S
H1480 C1426 0.930 . S
H1481 C1429 0.929 . S
H1482 C1434 0.929 . S
H1483 C1435 0.930 . S
H1484 C1442 0.929 . S
H1485 C1443 0.930 . S
H1486 C1444 0.930 . S
H1487 C1445 0.930 . S
H1488 C1447 0.929 . S
H1489 C1448 0.930 . S
H1490 C1449 0.930 . S
H1491 C1450 0.930 . S
H1492 C1454 0.929 . S
H1493 C1456 0.930 . S
H1494 C1462 0.929 . S
H1495 C1463 0.930 . S
Li1496 N1513 1.990 . S
Li1496 O1556 1.956 . S
Li1496 O1557 1.970 . S
Li1496 O1558 1.961 . S
Li1497 N1521 1.990 . S
Li1497 O1556 1.970 . S
Li1497 O1557 1.956 . S
Li1497 O1559 1.961 . S
Li1498 N1543 1.990 . S
Li1498 O1556 1.961 . S
Li1498 O1558 1.956 . S
Li1498 O1559 1.970 . S
Li1499 N1549 1.990 . S
Li1499 O1557 1.961 . S
Li1499 O1558 1.970 . S
Li1499 O1559 1.956 . S
C1500 C1502 1.348 . S
C1500 C1503 1.356 . S
C1500 O1556 1.325 . S
N1501 C1504 1.314 . S
N1501 C1505 1.279 . S
C1502 C1500 1.348 . S
C1502 C1504 1.353 . S
C1502 H1560 0.929 . S
C1503 C1500 1.356 . S
C1503 C1505 1.358 . S
C1503 H1561 0.930 . S
C1504 N1501 1.314 . S
C1504 C1502 1.353 . S
C1504 H1562 0.930 . S
C1505 N1501 1.279 . S
C1505 C1503 1.358 . S
C1505 H1563 0.930 . S
C1506 C1509 1.348 . S
C1506 C1510 1.356 . S
C1506 O1557 1.325 . S
C1507 N1508 1.279 . S
C1507 C1510 1.358 . S
C1507 H1564 0.930 . S
N1508 C1507 1.279 . S
N1508 C1511 1.314 . S
C1509 C1506 1.348 . S
C1509 C1511 1.353 . S
C1509 H1565 0.929 . S
C1510 C1506 1.356 . S
C1510 C1507 1.358 . S
C1510 H1566 0.930 . S
C1511 N1508 1.314 . S
C1511 C1509 1.353 . S
C1511 H1567 0.930 . S
C1512 N1513 1.314 . S
C1512 C1517 1.353 . S
C1512 H1518 0.930 . S
N1513 Li1496 1.990 . S
N1513 C1512 1.314 . S
N1513 C1515 1.279 . S
C1514 C1515 1.358 . S
C1514 C1516 1.356 . S
C1514 H1568 0.930 . S
C1515 N1513 1.279 . S
C1515 C1514 1.358 . S
C1515 H1519 0.930 . S
C1516 C1514 1.356 . S
C1516 C1517 1.348 . S
C1517 C1512 1.353 . S
C1517 C1516 1.348 . S
C1517 H1569 0.929 . S
H1518 C1512 0.930 . S
H1519 C1515 0.930 . S
C1520 N1521 1.314 . S
C1520 C1522 1.353 . S
C1520 H1526 0.930 . S
N1521 Li1497 1.990 . S
N1521 C1520 1.314 . S
N1521 C1524 1.279 . S
C1522 C1520 1.353 . S
C1522 C1525 1.348 . S
C1522 H1570 0.929 . S
C1523 C1524 1.358 . S
C1523 C1525 1.356 . S
C1523 H1571 0.930 . S
C1524 N1521 1.279 . S
C1524 C1523 1.358 . S
C1524 H1527 0.930 . S
C1525 C1522 1.348 . S
C1525 C1523 1.356 . S
H1526 C1520 0.930 . S
H1527 C1524 0.930 . S
C1528 C1530 1.348 . S
C1528 C1531 1.356 . S
C1528 O1558 1.325 . S
N1529 C1532 1.314 . S
N1529 C1533 1.279 . S
C1530 C1528 1.348 . S
C1530 C1532 1.353 . S
C1530 H1572 0.929 . S
C1531 C1528 1.356 . S
C1531 C1533 1.358 . S
C1531 H1573 0.930 . S
C1532 N1529 1.314 . S
C1532 C1530 1.353 . S
C1532 H1574 0.930 . S
C1533 N1529 1.279 . S
C1533 C1531 1.358 . S
C1533 H1575 0.930 . S
C1534 C1535 1.348 . S
C1534 C1536 1.356 . S
C1534 O1559 1.325 . S
C1535 C1534 1.348 . S
C1535 C1537 1.353 . S
C1535 H1576 0.929 . S
C1536 C1534 1.356 . S
C1536 C1538 1.358 . S
C1536 H1577 0.930 . S
C1537 C1535 1.353 . S
C1537 N1539 1.314 . S
C1537 H1578 0.930 . S
C1538 C1536 1.358 . S
C1538 N1539 1.279 . S
C1538 H1579 0.930 . S
N1539 C1537 1.314 . S
N1539 C1538 1.279 . S
C1540 C1542 1.353 . S
C1540 N1543 1.314 . S
C1540 H1546 0.930 . S
C1541 N1543 1.279 . S
C1541 C1544 1.358 . S
C1541 H1547 0.930 . S
C1542 C1540 1.353 . S
C1542 C1545 1.348 . S
C1542 H1580 0.929 . S
N1543 Li1498 1.990 . S
N1543 C1540 1.314 . S
N1543 C1541 1.279 . S
C1544 C1541 1.358 . S
C1544 C1545 1.356 . S
C1544 H1581 0.930 . S
C1545 C1542 1.348 . S
C1545 C1544 1.356 . S
H1546 C1540 0.930 . S
H1547 C1541 0.930 . S
C1548 N1549 1.314 . S
C1548 C1550 1.353 . S
C1548 H1554 0.930 . S
N1549 Li1499 1.990 . S
N1549 C1548 1.314 . S
N1549 C1552 1.279 . S
C1550 C1548 1.353 . S
C1550 C1553 1.348 . S
C1550 H1582 0.929 . S
C1551 C1552 1.358 . S
C1551 C1553 1.356 . S
C1551 H1583 0.930 . S
C1552 N1549 1.279 . S
C1552 C1551 1.358 . S
C1552 H1555 0.930 . S
C1553 C1550 1.348 . S
C1553 C1551 1.356 . S
H1554 C1548 0.930 . S
H1555 C1552 0.930 . S
O1556 Li1496 1.956 . S
O1556 Li1497 1.970 . S
O1556 Li1498 1.961 . S
O1556 C1500 1.325 . S
O1557 Li1496 1.970 . S
O1557 Li1497 1.956 . S
O1557 Li1499 1.961 . S
O1557 C1506 1.325 . S
O1558 Li1496 1.961 . S
O1558 Li1498 1.956 . S
O1558 Li1499 1.970 . S
O1558 C1528 1.325 . S
O1559 Li1497 1.961 . S
O1559 Li1498 1.970 . S
O1559 Li1499 1.956 . S
O1559 C1534 1.325 . S
H1560 C1502 0.929 . S
H1561 C1503 0.930 . S
H1562 C1504 0.930 . S
H1563 C1505 0.930 . S
H1564 C1507 0.930 . S
H1565 C1509 0.929 . S
H1566 C1510 0.930 . S
H1567 C1511 0.930 . S
H1568 C1514 0.930 . S
H1569 C1517 0.929 . S
H1570 C1522 0.929 . S
H1571 C1523 0.930 . S
H1572 C1530 0.929 . S
H1573 C1531 0.930 . S
H1574 C1532 0.930 . S
H1575 C1533 0.930 . S
H1576 C1535 0.929 . S
H1577 C1536 0.930 . S
H1578 C1537 0.930 . S
H1579 C1538 0.930 . S
H1580 C1542 0.929 . S
H1581 C1544 0.930 . S
H1582 C1550 0.929 . S
H1583 C1551 0.930 . S
Li1584 N1601 1.990 . S
Li1584 O1644 1.956 . S
Li1584 O1645 1.970 . S
Li1584 O1646 1.961 . S
Li1585 N1609 1.990 . S
Li1585 O1644 1.970 . S
Li1585 O1645 1.956 . S
Li1585 O1647 1.961 . S
Li1586 N1631 1.990 . S
Li1586 O1644 1.961 . S
Li1586 O1646 1.956 . S
Li1586 O1647 1.970 . S
Li1587 N1637 1.990 . S
Li1587 O1645 1.961 . S
Li1587 O1646 1.970 . S
Li1587 O1647 1.956 . S
C1588 C1590 1.348 . S
C1588 C1591 1.356 . S
C1588 O1644 1.325 . S
N1589 C1592 1.314 . S
N1589 C1593 1.279 . S
C1590 C1588 1.348 . S
C1590 C1592 1.353 . S
C1590 H1648 0.929 . S
C1591 C1588 1.356 . S
C1591 C1593 1.358 . S
C1591 H1649 0.930 . S
C1592 N1589 1.314 . S
C1592 C1590 1.353 . S
C1592 H1650 0.930 . S
C1593 N1589 1.279 . S
C1593 C1591 1.358 . S
C1593 H1651 0.930 . S
C1594 C1597 1.348 . S
C1594 C1598 1.356 . S
C1594 O1645 1.325 . S
C1595 N1596 1.279 . S
C1595 C1598 1.358 . S
C1595 H1652 0.930 . S
N1596 C1595 1.279 . S
N1596 C1599 1.314 . S
C1597 C1594 1.348 . S
C1597 C1599 1.353 . S
C1597 H1653 0.929 . S
C1598 C1594 1.356 . S
C1598 C1595 1.358 . S
C1598 H1654 0.930 . S
C1599 N1596 1.314 . S
C1599 C1597 1.353 . S
C1599 H1655 0.930 . S
C1600 N1601 1.314 . S
C1600 C1605 1.353 . S
C1600 H1606 0.930 . S
N1601 Li1584 1.990 . S
N1601 C1600 1.314 . S
N1601 C1603 1.279 . S
C1602 C1603 1.358 . S
C1602 C1604 1.356 . S
C1602 H1656 0.930 . S
C1603 N1601 1.279 . S
C1603 C1602 1.358 . S
C1603 H1607 0.930 . S
C1604 C1602 1.356 . S
C1604 C1605 1.348 . S
C1605 C1600 1.353 . S
C1605 C1604 1.348 . S
C1605 H1657 0.929 . S
H1606 C1600 0.930 . S
H1607 C1603 0.930 . S
C1608 N1609 1.314 . S
C1608 C1610 1.353 . S
C1608 H1614 0.930 . S
N1609 Li1585 1.990 . S
N1609 C1608 1.314 . S
N1609 C1612 1.279 . S
C1610 C1608 1.353 . S
C1610 C1613 1.348 . S
C1610 H1658 0.929 . S
C1611 C1612 1.358 . S
C1611 C1613 1.356 . S
C1611 H1659 0.930 . S
C1612 N1609 1.279 . S
C1612 C1611 1.358 . S
C1612 H1615 0.930 . S
C1613 C1610 1.348 . S
C1613 C1611 1.356 . S
H1614 C1608 0.930 . S
H1615 C1612 0.930 . S
C1616 C1618 1.348 . S
C1616 C1619 1.356 . S
C1616 O1646 1.325 . S
N1617 C1620 1.314 . S
N1617 C1621 1.279 . S
C1618 C1616 1.348 . S
C1618 C1620 1.353 . S
C1618 H1660 0.929 . S
C1619 C1616 1.356 . S
C1619 C1621 1.358 . S
C1619 H1661 0.930 . S
C1620 N1617 1.314 . S
C1620 C1618 1.353 . S
C1620 H1662 0.930 . S
C1621 N1617 1.279 . S
C1621 C1619 1.358 . S
C1621 H1663 0.930 . S
C1622 C1623 1.348 . S
C1622 C1624 1.356 . S
C1622 O1647 1.325 . S
C1623 C1622 1.348 . S
C1623 C1625 1.353 . S
C1623 H1664 0.929 . S
C1624 C1622 1.356 . S
C1624 C1626 1.358 . S
C1624 H1665 0.930 . S
C1625 C1623 1.353 . S
C1625 N1627 1.314 . S
C1625 H1666 0.930 . S
C1626 C1624 1.358 . S
C1626 N1627 1.279 . S
C1626 H1667 0.930 . S
N1627 C1625 1.314 . S
N1627 C1626 1.279 . S
C1628 C1630 1.353 . S
C1628 N1631 1.314 . S
C1628 H1634 0.930 . S
C1629 N1631 1.279 . S
C1629 C1632 1.358 . S
C1629 H1635 0.930 . S
C1630 C1628 1.353 . S
C1630 C1633 1.348 . S
C1630 H1668 0.929 . S
N1631 Li1586 1.990 . S
N1631 C1628 1.314 . S
N1631 C1629 1.279 . S
C1632 C1629 1.358 . S
C1632 C1633 1.356 . S
C1632 H1669 0.930 . S
C1633 C1630 1.348 . S
C1633 C1632 1.356 . S
H1634 C1628 0.930 . S
H1635 C1629 0.930 . S
C1636 N1637 1.314 . S
C1636 C1638 1.353 . S
C1636 H1642 0.930 . S
N1637 Li1587 1.990 . S
N1637 C1636 1.314 . S
N1637 C1640 1.279 . S
C1638 C1636 1.353 . S
C1638 C1641 1.348 . S
C1638 H1670 0.929 . S
C1639 C1640 1.358 . S
C1639 C1641 1.356 . S
C1639 H1671 0.930 . S
C1640 N1637 1.279 . S
C1640 C1639 1.358 . S
C1640 H1643 0.930 . S
C1641 C1638 1.348 . S
C1641 C1639 1.356 . S
H1642 C1636 0.930 . S
H1643 C1640 0.930 . S
O1644 Li1584 1.956 . S
O1644 Li1585 1.970 . S
O1644 Li1586 1.961 . S
O1644 C1588 1.325 . S
O1645 Li1584 1.970 . S
O1645 Li1585 1.956 . S
O1645 Li1587 1.961 . S
O1645 C1594 1.325 . S
O1646 Li1584 1.961 . S
O1646 Li1586 1.956 . S
O1646 Li1587 1.970 . S
O1646 C1616 1.325 . S
O1647 Li1585 1.961 . S
O1647 Li1586 1.970 . S
O1647 Li1587 1.956 . S
O1647 C1622 1.325 . S
H1648 C1590 0.929 . S
H1649 C1591 0.930 . S
H1650 C1592 0.930 . S
H1651 C1593 0.930 . S
H1652 C1595 0.930 . S
H1653 C1597 0.929 . S
H1654 C1598 0.930 . S
H1655 C1599 0.930 . S
H1656 C1602 0.930 . S
H1657 C1605 0.929 . S
H1658 C1610 0.929 . S
H1659 C1611 0.930 . S
H1660 C1618 0.929 . S
H1661 C1619 0.930 . S
H1662 C1620 0.930 . S
H1663 C1621 0.930 . S
H1664 C1623 0.929 . S
H1665 C1624 0.930 . S
H1666 C1625 0.930 . S
H1667 C1626 0.930 . S
H1668 C1630 0.929 . S
H1669 C1632 0.930 . S
H1670 C1638 0.929 . S
H1671 C1639 0.930 . S
Li1672 N1689 1.990 . S
Li1672 O1732 1.956 . S
Li1672 O1733 1.970 . S
Li1672 O1734 1.961 . S
Li1673 N1697 1.990 . S
Li1673 O1732 1.970 . S
Li1673 O1733 1.956 . S
Li1673 O1735 1.961 . S
Li1674 N1719 1.990 . S
Li1674 O1732 1.961 . S
Li1674 O1734 1.956 . S
Li1674 O1735 1.970 . S
Li1675 N1725 1.990 . S
Li1675 O1733 1.961 . S
Li1675 O1734 1.970 . S
Li1675 O1735 1.956 . S
C1676 C1678 1.348 . S
C1676 C1679 1.356 . S
C1676 O1732 1.325 . S
N1677 C1680 1.314 . S
N1677 C1681 1.279 . S
C1678 C1676 1.348 . S
C1678 C1680 1.353 . S
C1678 H1736 0.929 . S
C1679 C1676 1.356 . S
C1679 C1681 1.358 . S
C1679 H1737 0.930 . S
C1680 N1677 1.314 . S
C1680 C1678 1.353 . S
C1680 H1738 0.930 . S
C1681 N1677 1.279 . S
C1681 C1679 1.358 . S
C1681 H1739 0.930 . S
C1682 C1685 1.348 . S
C1682 C1686 1.356 . S
C1682 O1733 1.325 . S
C1683 N1684 1.279 . S
C1683 C1686 1.358 . S
C1683 H1740 0.930 . S
N1684 C1683 1.279 . S
N1684 C1687 1.314 . S
C1685 C1682 1.348 . S
C1685 C1687 1.353 . S
C1685 H1741 0.929 . S
C1686 C1682 1.356 . S
C1686 C1683 1.358 . S
C1686 H1742 0.930 . S
C1687 N1684 1.314 . S
C1687 C1685 1.353 . S
C1687 H1743 0.930 . S
C1688 N1689 1.314 . S
C1688 C1693 1.353 . S
C1688 H1694 0.930 . S
N1689 Li1672 1.990 . S
N1689 C1688 1.314 . S
N1689 C1691 1.279 . S
C1690 C1691 1.358 . S
C1690 C1692 1.356 . S
C1690 H1744 0.930 . S
C1691 N1689 1.279 . S
C1691 C1690 1.358 . S
C1691 H1695 0.930 . S
C1692 C1690 1.356 . S
C1692 C1693 1.348 . S
C1693 C1688 1.353 . S
C1693 C1692 1.348 . S
C1693 H1745 0.929 . S
H1694 C1688 0.930 . S
H1695 C1691 0.930 . S
C1696 N1697 1.314 . S
C1696 C1698 1.353 . S
C1696 H1702 0.930 . S
N1697 Li1673 1.990 . S
N1697 C1696 1.314 . S
N1697 C1700 1.279 . S
C1698 C1696 1.353 . S
C1698 C1701 1.348 . S
C1698 H1746 0.929 . S
C1699 C1700 1.358 . S
C1699 C1701 1.356 . S
C1699 H1747 0.930 . S
C1700 N1697 1.279 . S
C1700 C1699 1.358 . S
C1700 H1703 0.930 . S
C1701 C1698 1.348 . S
C1701 C1699 1.356 . S
H1702 C1696 0.930 . S
H1703 C1700 0.930 . S
C1704 C1706 1.348 . S
C1704 C1707 1.356 . S
C1704 O1734 1.325 . S
N1705 C1708 1.314 . S
N1705 C1709 1.279 . S
C1706 C1704 1.348 . S
C1706 C1708 1.353 . S
C1706 H1748 0.929 . S
C1707 C1704 1.356 . S
C1707 C1709 1.358 . S
C1707 H1749 0.930 . S
C1708 N1705 1.314 . S
C1708 C1706 1.353 . S
C1708 H1750 0.930 . S
C1709 N1705 1.279 . S
C1709 C1707 1.358 . S
C1709 H1751 0.930 . S
C1710 C1711 1.348 . S
C1710 C1712 1.356 . S
C1710 O1735 1.325 . S
C1711 C1710 1.348 . S
C1711 C1713 1.353 . S
C1711 H1752 0.929 . S
C1712 C1710 1.356 . S
C1712 C1714 1.358 . S
C1712 H1753 0.930 . S
C1713 C1711 1.353 . S
C1713 N1715 1.314 . S
C1713 H1754 0.930 . S
C1714 C1712 1.358 . S
C1714 N1715 1.279 . S
C1714 H1755 0.930 . S
N1715 C1713 1.314 . S
N1715 C1714 1.279 . S
C1716 C1718 1.353 . S
C1716 N1719 1.314 . S
C1716 H1722 0.930 . S
C1717 N1719 1.279 . S
C1717 C1720 1.358 . S
C1717 H1723 0.930 . S
C1718 C1716 1.353 . S
C1718 C1721 1.348 . S
C1718 H1756 0.929 . S
N1719 Li1674 1.990 . S
N1719 C1716 1.314 . S
N1719 C1717 1.279 . S
C1720 C1717 1.358 . S
C1720 C1721 1.356 . S
C1720 H1757 0.930 . S
C1721 C1718 1.348 . S
C1721 C1720 1.356 . S
H1722 C1716 0.930 . S
H1723 C1717 0.930 . S
C1724 N1725 1.314 . S
C1724 C1726 1.353 . S
C1724 H1730 0.930 . S
N1725 Li1675 1.990 . S
N1725 C1724 1.314 . S
N1725 C1728 1.279 . S
C1726 C1724 1.353 . S
C1726 C1729 1.348 . S
C1726 H1758 0.929 . S
C1727 C1728 1.358 . S
C1727 C1729 1.356 . S
C1727 H1759 0.930 . S
C1728 N1725 1.279 . S
C1728 C1727 1.358 . S
C1728 H1731 0.930 . S
C1729 C1726 1.348 . S
C1729 C1727 1.356 . S
H1730 C1724 0.930 . S
H1731 C1728 0.930 . S
O1732 Li1672 1.956 . S
O1732 Li1673 1.970 . S
O1732 Li1674 1.961 . S
O1732 C1676 1.325 . S
O1733 Li1672 1.970 . S
O1733 Li1673 1.956 . S
O1733 Li1675 1.961 . S
O1733 C1682 1.325 . S
O1734 Li1672 1.961 . S
O1734 Li1674 1.956 . S
O1734 Li1675 1.970 . S
O1734 C1704 1.325 . S
O1735 Li1673 1.961 . S
O1735 Li1674 1.970 . S
O1735 Li1675 1.956 . S
O1735 C1710 1.325 . S
H1736 C1678 0.929 . S
H1737 C1679 0.930 . S
H1738 C1680 0.930 . S
H1739 C1681 0.930 . S
H1740 C1683 0.930 . S
H1741 C1685 0.929 . S
H1742 C1686 0.930 . S
H1743 C1687 0.930 . S
H1744 C1690 0.930 . S
H1745 C1693 0.929 . S
H1746 C1698 0.929 . S
H1747 C1699 0.930 . S
H1748 C1706 0.929 . S
H1749 C1707 0.930 . S
H1750 C1708 0.930 . S
H1751 C1709 0.930 . S
H1752 C1711 0.929 . S
H1753 C1712 0.930 . S
H1754 C1713 0.930 . S
H1755 C1714 0.930 . S
H1756 C1718 0.929 . S
H1757 C1720 0.930 . S
H1758 C1726 0.929 . S
H1759 C1727 0.930 . S
Li1760 N1777 1.990 . S
Li1760 O1820 1.956 . S
Li1760 O1821 1.970 . S
Li1760 O1822 1.961 . S
Li1761 N1785 1.990 . S
Li1761 O1820 1.970 . S
Li1761 O1821 1.956 . S
Li1761 O1823 1.961 . S
Li1762 N1807 1.990 . S
Li1762 O1820 1.961 . S
Li1762 O1822 1.956 . S
Li1762 O1823 1.970 . S
Li1763 N1813 1.990 . S
Li1763 O1821 1.961 . S
Li1763 O1822 1.970 . S
Li1763 O1823 1.956 . S
C1764 C1766 1.348 . S
C1764 C1767 1.356 . S
C1764 O1820 1.325 . S
N1765 C1768 1.314 . S
N1765 C1769 1.279 . S
C1766 C1764 1.348 . S
C1766 C1768 1.353 . S
C1766 H1824 0.929 . S
C1767 C1764 1.356 . S
C1767 C1769 1.358 . S
C1767 H1825 0.930 . S
C1768 N1765 1.314 . S
C1768 C1766 1.353 . S
C1768 H1826 0.930 . S
C1769 N1765 1.279 . S
C1769 C1767 1.358 . S
C1769 H1827 0.930 . S
C1770 C1773 1.348 . S
C1770 C1774 1.356 . S
C1770 O1821 1.325 . S
C1771 N1772 1.279 . S
C1771 C1774 1.358 . S
C1771 H1828 0.930 . S
N1772 C1771 1.279 . S
N1772 C1775 1.314 . S
C1773 C1770 1.348 . S
C1773 C1775 1.353 . S
C1773 H1829 0.929 . S
C1774 C1770 1.356 . S
C1774 C1771 1.358 . S
C1774 H1830 0.930 . S
C1775 N1772 1.314 . S
C1775 C1773 1.353 . S
C1775 H1831 0.930 . S
C1776 N1777 1.314 . S
C1776 C1781 1.353 . S
C1776 H1782 0.930 . S
N1777 Li1760 1.990 . S
N1777 C1776 1.314 . S
N1777 C1779 1.279 . S
C1778 C1779 1.358 . S
C1778 C1780 1.356 . S
C1778 H1832 0.930 . S
C1779 N1777 1.279 . S
C1779 C1778 1.358 . S
C1779 H1783 0.930 . S
C1780 C1778 1.356 . S
C1780 C1781 1.348 . S
C1781 C1776 1.353 . S
C1781 C1780 1.348 . S
C1781 H1833 0.929 . S
H1782 C1776 0.930 . S
H1783 C1779 0.930 . S
C1784 N1785 1.314 . S
C1784 C1786 1.353 . S
C1784 H1790 0.930 . S
N1785 Li1761 1.990 . S
N1785 C1784 1.314 . S
N1785 C1788 1.279 . S
C1786 C1784 1.353 . S
C1786 C1789 1.348 . S
C1786 H1834 0.929 . S
C1787 C1788 1.358 . S
C1787 C1789 1.356 . S
C1787 H1835 0.930 . S
C1788 N1785 1.279 . S
C1788 C1787 1.358 . S
C1788 H1791 0.930 . S
C1789 C1786 1.348 . S
C1789 C1787 1.356 . S
H1790 C1784 0.930 . S
H1791 C1788 0.930 . S
C1792 C1794 1.348 . S
C1792 C1795 1.356 . S
C1792 O1822 1.325 . S
N1793 C1796 1.314 . S
N1793 C1797 1.279 . S
C1794 C1792 1.348 . S
C1794 C1796 1.353 . S
C1794 H1836 0.929 . S
C1795 C1792 1.356 . S
C1795 C1797 1.358 . S
C1795 H1837 0.930 . S
C1796 N1793 1.314 . S
C1796 C1794 1.353 . S
C1796 H1838 0.930 . S
C1797 N1793 1.279 . S
C1797 C1795 1.358 . S
C1797 H1839 0.930 . S
C1798 C1799 1.348 . S
C1798 C1800 1.356 . S
C1798 O1823 1.325 . S
C1799 C1798 1.348 . S
C1799 C1801 1.353 . S
C1799 H1840 0.929 . S
C1800 C1798 1.356 . S
C1800 C1802 1.358 . S
C1800 H1841 0.930 . S
C1801 C1799 1.353 . S
C1801 N1803 1.314 . S
C1801 H1842 0.930 . S
C1802 C1800 1.358 . S
C1802 N1803 1.279 . S
C1802 H1843 0.930 . S
N1803 C1801 1.314 . S
N1803 C1802 1.279 . S
C1804 C1806 1.353 . S
C1804 N1807 1.314 . S
C1804 H1810 0.930 . S
C1805 N1807 1.279 . S
C1805 C1808 1.358 . S
C1805 H1811 0.930 . S
C1806 C1804 1.353 . S
C1806 C1809 1.348 . S
C1806 H1844 0.929 . S
N1807 Li1762 1.990 . S
N1807 C1804 1.314 . S
N1807 C1805 1.279 . S
C1808 C1805 1.358 . S
C1808 C1809 1.356 . S
C1808 H1845 0.930 . S
C1809 C1806 1.348 . S
C1809 C1808 1.356 . S
H1810 C1804 0.930 . S
H1811 C1805 0.930 . S
C1812 N1813 1.314 . S
C1812 C1814 1.353 . S
C1812 H1818 0.930 . S
N1813 Li1763 1.990 . S
N1813 C1812 1.314 . S
N1813 C1816 1.279 . S
C1814 C1812 1.353 . S
C1814 C1817 1.348 . S
C1814 H1846 0.929 . S
C1815 C1816 1.358 . S
C1815 C1817 1.356 . S
C1815 H1847 0.930 . S
C1816 N1813 1.279 . S
C1816 C1815 1.358 . S
C1816 H1819 0.930 . S
C1817 C1814 1.348 . S
C1817 C1815 1.356 . S
H1818 C1812 0.930 . S
H1819 C1816 0.930 . S
O1820 Li1760 1.956 . S
O1820 Li1761 1.970 . S
O1820 Li1762 1.961 . S
O1820 C1764 1.325 . S
O1821 Li1760 1.970 . S
O1821 Li1761 1.956 . S
O1821 Li1763 1.961 . S
O1821 C1770 1.325 . S
O1822 Li1760 1.961 . S
O1822 Li1762 1.956 . S
O1822 Li1763 1.970 . S
O1822 C1792 1.325 . S
O1823 Li1761 1.961 . S
O1823 Li1762 1.970 . S
O1823 Li1763 1.956 . S
O1823 C1798 1.325 . S
H1824 C1766 0.929 . S
H1825 C1767 0.930 . S
H1826 C1768 0.930 . S
H1827 C1769 0.930 . S
H1828 C1771 0.930 . S
H1829 C1773 0.929 . S
H1830 C1774 0.930 . S
H1831 C1775 0.930 . S
H1832 C1778 0.930 . S
H1833 C1781 0.929 . S
H1834 C1786 0.929 . S
H1835 C1787 0.930 . S
H1836 C1794 0.929 . S
H1837 C1795 0.930 . S
H1838 C1796 0.930 . S
H1839 C1797 0.930 . S
H1840 C1799 0.929 . S
H1841 C1800 0.930 . S
H1842 C1801 0.930 . S
H1843 C1802 0.930 . S
H1844 C1806 0.929 . S
H1845 C1808 0.930 . S
H1846 C1814 0.929 . S
H1847 C1815 0.930 . S
Li1848 N1865 1.990 . S
Li1848 O1908 1.956 . S
Li1848 O1909 1.970 . S
Li1848 O1910 1.961 . S
Li1849 N1873 1.990 . S
Li1849 O1908 1.970 . S
Li1849 O1909 1.956 . S
Li1849 O1911 1.961 . S
Li1850 N1895 1.990 . S
Li1850 O1908 1.961 . S
Li1850 O1910 1.956 . S
Li1850 O1911 1.970 . S
Li1851 N1901 1.990 . S
Li1851 O1909 1.961 . S
Li1851 O1910 1.970 . S
Li1851 O1911 1.956 . S
C1852 C1854 1.348 . S
C1852 C1855 1.356 . S
C1852 O1908 1.325 . S
N1853 C1856 1.314 . S
N1853 C1857 1.279 . S
C1854 C1852 1.348 . S
C1854 C1856 1.353 . S
C1854 H1912 0.929 . S
C1855 C1852 1.356 . S
C1855 C1857 1.358 . S
C1855 H1913 0.930 . S
C1856 N1853 1.314 . S
C1856 C1854 1.353 . S
C1856 H1914 0.930 . S
C1857 N1853 1.279 . S
C1857 C1855 1.358 . S
C1857 H1915 0.930 . S
C1858 C1861 1.348 . S
C1858 C1862 1.356 . S
C1858 O1909 1.325 . S
C1859 N1860 1.279 . S
C1859 C1862 1.358 . S
C1859 H1916 0.930 . S
N1860 C1859 1.279 . S
N1860 C1863 1.314 . S
C1861 C1858 1.348 . S
C1861 C1863 1.353 . S
C1861 H1917 0.929 . S
C1862 C1858 1.356 . S
C1862 C1859 1.358 . S
C1862 H1918 0.930 . S
C1863 N1860 1.314 . S
C1863 C1861 1.353 . S
C1863 H1919 0.930 . S
C1864 N1865 1.314 . S
C1864 C1869 1.353 . S
C1864 H1870 0.930 . S
N1865 Li1848 1.990 . S
N1865 C1864 1.314 . S
N1865 C1867 1.279 . S
C1866 C1867 1.358 . S
C1866 C1868 1.356 . S
C1866 H1920 0.930 . S
C1867 N1865 1.279 . S
C1867 C1866 1.358 . S
C1867 H1871 0.930 . S
C1868 C1866 1.356 . S
C1868 C1869 1.348 . S
C1869 C1864 1.353 . S
C1869 C1868 1.348 . S
C1869 H1921 0.929 . S
H1870 C1864 0.930 . S
H1871 C1867 0.930 . S
C1872 N1873 1.314 . S
C1872 C1874 1.353 . S
C1872 H1878 0.930 . S
N1873 Li1849 1.990 . S
N1873 C1872 1.314 . S
N1873 C1876 1.279 . S
C1874 C1872 1.353 . S
C1874 C1877 1.348 . S
C1874 H1922 0.929 . S
C1875 C1876 1.358 . S
C1875 C1877 1.356 . S
C1875 H1923 0.930 . S
C1876 N1873 1.279 . S
C1876 C1875 1.358 . S
C1876 H1879 0.930 . S
C1877 C1874 1.348 . S
C1877 C1875 1.356 . S
H1878 C1872 0.930 . S
H1879 C1876 0.930 . S
C1880 C1882 1.348 . S
C1880 C1883 1.356 . S
C1880 O1910 1.325 . S
N1881 C1884 1.314 . S
N1881 C1885 1.279 . S
C1882 C1880 1.348 . S
C1882 C1884 1.353 . S
C1882 H1924 0.929 . S
C1883 C1880 1.356 . S
C1883 C1885 1.358 . S
C1883 H1925 0.930 . S
C1884 N1881 1.314 . S
C1884 C1882 1.353 . S
C1884 H1926 0.930 . S
C1885 N1881 1.279 . S
C1885 C1883 1.358 . S
C1885 H1927 0.930 . S
C1886 C1887 1.348 . S
C1886 C1888 1.356 . S
C1886 O1911 1.325 . S
C1887 C1886 1.348 . S
C1887 C1889 1.353 . S
C1887 H1928 0.929 . S
C1888 C1886 1.356 . S
C1888 C1890 1.358 . S
C1888 H1929 0.930 . S
C1889 C1887 1.353 . S
C1889 N1891 1.314 . S
C1889 H1930 0.930 . S
C1890 C1888 1.358 . S
C1890 N1891 1.279 . S
C1890 H1931 0.930 . S
N1891 C1889 1.314 . S
N1891 C1890 1.279 . S
C1892 C1894 1.353 . S
C1892 N1895 1.314 . S
C1892 H1898 0.930 . S
C1893 N1895 1.279 . S
C1893 C1896 1.358 . S
C1893 H1899 0.930 . S
C1894 C1892 1.353 . S
C1894 C1897 1.348 . S
C1894 H1932 0.929 . S
N1895 Li1850 1.990 . S
N1895 C1892 1.314 . S
N1895 C1893 1.279 . S
C1896 C1893 1.358 . S
C1896 C1897 1.356 . S
C1896 H1933 0.930 . S
C1897 C1894 1.348 . S
C1897 C1896 1.356 . S
H1898 C1892 0.930 . S
H1899 C1893 0.930 . S
C1900 N1901 1.314 . S
C1900 C1902 1.353 . S
C1900 H1906 0.930 . S
N1901 Li1851 1.990 . S
N1901 C1900 1.314 . S
N1901 C1904 1.279 . S
C1902 C1900 1.353 . S
C1902 C1905 1.348 . S
C1902 H1934 0.929 . S
C1903 C1904 1.358 . S
C1903 C1905 1.356 . S
C1903 H1935 0.930 . S
C1904 N1901 1.279 . S
C1904 C1903 1.358 . S
C1904 H1907 0.930 . S
C1905 C1902 1.348 . S
C1905 C1903 1.356 . S
H1906 C1900 0.930 . S
H1907 C1904 0.930 . S
O1908 Li1848 1.956 . S
O1908 Li1849 1.970 . S
O1908 Li1850 1.961 . S
O1908 C1852 1.325 . S
O1909 Li1848 1.970 . S
O1909 Li1849 1.956 . S
O1909 Li1851 1.961 . S
O1909 C1858 1.325 . S
O1910 Li1848 1.961 . S
O1910 Li1850 1.956 . S
O1910 Li1851 1.970 . S
O1910 C1880 1.325 . S
O1911 Li1849 1.961 . S
O1911 Li1850 1.970 . S
O1911 Li1851 1.956 . S
O1911 C1886 1.325 . S
H1912 C1854 0.929 . S
H1913 C1855 0.930 . S
H1914 C1856 0.930 . S
H1915 C1857 0.930 . S
H1916 C1859 0.930 . S
H1917 C1861 0.929 . S
H1918 C1862 0.930 . S
H1919 C1863 0.930 . S
H1920 C1866 0.930 . S
H1921 C1869 0.929 . S
H1922 C1874 0.929 . S
H1923 C1875 0.930 . S
H1924 C1882 0.929 . S
H1925 C1883 0.930 . S
H1926 C1884 0.930 . S
H1927 C1885 0.930 . S
H1928 C1887 0.929 . S
H1929 C1888 0.930 . S
H1930 C1889 0.930 . S
H1931 C1890 0.930 . S
H1932 C1894 0.929 . S
H1933 C1896 0.930 . S
H1934 C1902 0.929 . S
H1935 C1903 0.930 . S
Li1936 N1953 1.990 . S
Li1936 O1996 1.956 . S
Li1936 O1997 1.970 . S
Li1936 O1998 1.961 . S
Li1937 N1961 1.990 . S
Li1937 O1996 1.970 . S
Li1937 O1997 1.956 . S
Li1937 O1999 1.961 . S
Li1938 N1983 1.990 . S
Li1938 O1996 1.961 . S
Li1938 O1998 1.956 . S
Li1938 O1999 1.970 . S
Li1939 N1989 1.990 . S
Li1939 O1997 1.961 . S
Li1939 O1998 1.970 . S
Li1939 O1999 1.956 . S
C1940 C1942 1.348 . S
C1940 C1943 1.356 . S
C1940 O1996 1.325 . S
N1941 C1944 1.314 . S
N1941 C1945 1.279 . S
C1942 C1940 1.348 . S
C1942 C1944 1.353 . S
C1942 H2000 0.929 . S
C1943 C1940 1.356 . S
C1943 C1945 1.358 . S
C1943 H2001 0.930 . S
C1944 N1941 1.314 . S
C1944 C1942 1.353 . S
C1944 H2002 0.930 . S
C1945 N1941 1.279 . S
C1945 C1943 1.358 . S
C1945 H2003 0.930 . S
C1946 C1949 1.348 . S
C1946 C1950 1.356 . S
C1946 O1997 1.325 . S
C1947 N1948 1.279 . S
C1947 C1950 1.358 . S
C1947 H2004 0.930 . S
N1948 C1947 1.279 . S
N1948 C1951 1.314 . S
C1949 C1946 1.348 . S
C1949 C1951 1.353 . S
C1949 H2005 0.929 . S
C1950 C1946 1.356 . S
C1950 C1947 1.358 . S
C1950 H2006 0.930 . S
C1951 N1948 1.314 . S
C1951 C1949 1.353 . S
C1951 H2007 0.930 . S
C1952 N1953 1.314 . S
C1952 C1957 1.353 . S
C1952 H1958 0.930 . S
N1953 Li1936 1.990 . S
N1953 C1952 1.314 . S
N1953 C1955 1.279 . S
C1954 C1955 1.358 . S
C1954 C1956 1.356 . S
C1954 H2008 0.930 . S
C1955 N1953 1.279 . S
C1955 C1954 1.358 . S
C1955 H1959 0.930 . S
C1956 C1954 1.356 . S
C1956 C1957 1.348 . S
C1957 C1952 1.353 . S
C1957 C1956 1.348 . S
C1957 H2009 0.929 . S
H1958 C1952 0.930 . S
H1959 C1955 0.930 . S
C1960 N1961 1.314 . S
C1960 C1962 1.353 . S
C1960 H1966 0.930 . S
N1961 Li1937 1.990 . S
N1961 C1960 1.314 . S
N1961 C1964 1.279 . S
C1962 C1960 1.353 . S
C1962 C1965 1.348 . S
C1962 H2010 0.929 . S
C1963 C1964 1.358 . S
C1963 C1965 1.356 . S
C1963 H2011 0.930 . S
C1964 N1961 1.279 . S
C1964 C1963 1.358 . S
C1964 H1967 0.930 . S
C1965 C1962 1.348 . S
C1965 C1963 1.356 . S
H1966 C1960 0.930 . S
H1967 C1964 0.930 . S
C1968 C1970 1.348 . S
C1968 C1971 1.356 . S
C1968 O1998 1.325 . S
N1969 C1972 1.314 . S
N1969 C1973 1.279 . S
C1970 C1968 1.348 . S
C1970 C1972 1.353 . S
C1970 H2012 0.929 . S
C1971 C1968 1.356 . S
C1971 C1973 1.358 . S
C1971 H2013 0.930 . S
C1972 N1969 1.314 . S
C1972 C1970 1.353 . S
C1972 H2014 0.930 . S
C1973 N1969 1.279 . S
C1973 C1971 1.358 . S
C1973 H2015 0.930 . S
C1974 C1975 1.348 . S
C1974 C1976 1.356 . S
C1974 O1999 1.325 . S
C1975 C1974 1.348 . S
C1975 C1977 1.353 . S
C1975 H2016 0.929 . S
C1976 C1974 1.356 . S
C1976 C1978 1.358 . S
C1976 H2017 0.930 . S
C1977 C1975 1.353 . S
C1977 N1979 1.314 . S
C1977 H2018 0.930 . S
C1978 C1976 1.358 . S
C1978 N1979 1.279 . S
C1978 H2019 0.930 . S
N1979 C1977 1.314 . S
N1979 C1978 1.279 . S
C1980 C1982 1.353 . S
C1980 N1983 1.314 . S
C1980 H1986 0.930 . S
C1981 N1983 1.279 . S
C1981 C1984 1.358 . S
C1981 H1987 0.930 . S
C1982 C1980 1.353 . S
C1982 C1985 1.348 . S
C1982 H2020 0.929 . S
N1983 Li1938 1.990 . S
N1983 C1980 1.314 . S
N1983 C1981 1.279 . S
C1984 C1981 1.358 . S
C1984 C1985 1.356 . S
C1984 H2021 0.930 . S
C1985 C1982 1.348 . S
C1985 C1984 1.356 . S
H1986 C1980 0.930 . S
H1987 C1981 0.930 . S
C1988 N1989 1.314 . S
C1988 C1990 1.353 . S
C1988 H1994 0.930 . S
N1989 Li1939 1.990 . S
N1989 C1988 1.314 . S
N1989 C1992 1.279 . S
C1990 C1988 1.353 . S
C1990 C1993 1.348 . S
C1990 H2022 0.929 . S
C1991 C1992 1.358 . S
C1991 C1993 1.356 . S
C1991 H2023 0.930 . S
C1992 N1989 1.279 . S
C1992 C1991 1.358 . S
C1992 H1995 0.930 . S
C1993 C1990 1.348 . S
C1993 C1991 1.356 . S
H1994 C1988 0.930 . S
H1995 C1992 0.930 . S
O1996 Li1936 1.956 . S
O1996 Li1937 1.970 . S
O1996 Li1938 1.961 . S
O1996 C1940 1.325 . S
O1997 Li1936 1.970 . S
O1997 Li1937 1.956 . S
O1997 Li1939 1.961 . S
O1997 C1946 1.325 . S
O1998 Li1936 1.961 . S
O1998 Li1938 1.956 . S
O1998 Li1939 1.970 . S
O1998 C1968 1.325 . S
O1999 Li1937 1.961 . S
O1999 Li1938 1.970 . S
O1999 Li1939 1.956 . S
O1999 C1974 1.325 . S
H2000 C1942 0.929 . S
H2001 C1943 0.930 . S
H2002 C1944 0.930 . S
H2003 C1945 0.930 . S
H2004 C1947 0.930 . S
H2005 C1949 0.929 . S
H2006 C1950 0.930 . S
H2007 C1951 0.930 . S
H2008 C1954 0.930 . S
H2009 C1957 0.929 . S
H2010 C1962 0.929 . S
H2011 C1963 0.930 . S
H2012 C1970 0.929 . S
H2013 C1971 0.930 . S
H2014 C1972 0.930 . S
H2015 C1973 0.930 . S
H2016 C1975 0.929 . S
H2017 C1976 0.930 . S
H2018 C1977 0.930 . S
H2019 C1978 0.930 . S
H2020 C1982 0.929 . S
H2021 C1984 0.930 . S
H2022 C1990 0.929 . S
H2023 C1991 0.930 . S
Li2024 N2041 1.990 . S
Li2024 O2084 1.956 . S
Li2024 O2085 1.970 . S
Li2024 O2086 1.961 . S
Li2025 N2049 1.990 . S
Li2025 O2084 1.970 . S
Li2025 O2085 1.956 . S
Li2025 O2087 1.961 . S
Li2026 N2071 1.990 . S
Li2026 O2084 1.961 . S
Li2026 O2086 1.956 . S
Li2026 O2087 1.970 . S
Li2027 N2077 1.990 . S
Li2027 O2085 1.961 . S
Li2027 O2086 1.970 . S
Li2027 O2087 1.956 . S
C2028 C2030 1.348 . S
C2028 C2031 1.356 . S
C2028 O2084 1.325 . S
N2029 C2032 1.314 . S
N2029 C2033 1.279 . S
C2030 C2028 1.348 . S
C2030 C2032 1.353 . S
C2030 H2088 0.929 . S
C2031 C2028 1.356 . S
C2031 C2033 1.358 . S
C2031 H2089 0.930 . S
C2032 N2029 1.314 . S
C2032 C2030 1.353 . S
C2032 H2090 0.930 . S
C2033 N2029 1.279 . S
C2033 C2031 1.358 . S
C2033 H2091 0.930 . S
C2034 C2037 1.348 . S
C2034 C2038 1.356 . S
C2034 O2085 1.325 . S
C2035 N2036 1.279 . S
C2035 C2038 1.358 . S
C2035 H2092 0.930 . S
N2036 C2035 1.279 . S
N2036 C2039 1.314 . S
C2037 C2034 1.348 . S
C2037 C2039 1.353 . S
C2037 H2093 0.929 . S
C2038 C2034 1.356 . S
C2038 C2035 1.358 . S
C2038 H2094 0.930 . S
C2039 N2036 1.314 . S
C2039 C2037 1.353 . S
C2039 H2095 0.930 . S
C2040 N2041 1.314 . S
C2040 C2045 1.353 . S
C2040 H2046 0.930 . S
N2041 Li2024 1.990 . S
N2041 C2040 1.314 . S
N2041 C2043 1.279 . S
C2042 C2043 1.358 . S
C2042 C2044 1.356 . S
C2042 H2096 0.930 . S
C2043 N2041 1.279 . S
C2043 C2042 1.358 . S
C2043 H2047 0.930 . S
C2044 C2042 1.356 . S
C2044 C2045 1.348 . S
C2045 C2040 1.353 . S
C2045 C2044 1.348 . S
C2045 H2097 0.929 . S
H2046 C2040 0.930 . S
H2047 C2043 0.930 . S
C2048 N2049 1.314 . S
C2048 C2050 1.353 . S
C2048 H2054 0.930 . S
N2049 Li2025 1.990 . S
N2049 C2048 1.314 . S
N2049 C2052 1.279 . S
C2050 C2048 1.353 . S
C2050 C2053 1.348 . S
C2050 H2098 0.929 . S
C2051 C2052 1.358 . S
C2051 C2053 1.356 . S
C2051 H2099 0.930 . S
C2052 N2049 1.279 . S
C2052 C2051 1.358 . S
C2052 H2055 0.930 . S
C2053 C2050 1.348 . S
C2053 C2051 1.356 . S
H2054 C2048 0.930 . S
H2055 C2052 0.930 . S
C2056 C2058 1.348 . S
C2056 C2059 1.356 . S
C2056 O2086 1.325 . S
N2057 C2060 1.314 . S
N2057 C2061 1.279 . S
C2058 C2056 1.348 . S
C2058 C2060 1.353 . S
C2058 H2100 0.929 . S
C2059 C2056 1.356 . S
C2059 C2061 1.358 . S
C2059 H2101 0.930 . S
C2060 N2057 1.314 . S
C2060 C2058 1.353 . S
C2060 H2102 0.930 . S
C2061 N2057 1.279 . S
C2061 C2059 1.358 . S
C2061 H2103 0.930 . S
C2062 C2063 1.348 . S
C2062 C2064 1.356 . S
C2062 O2087 1.325 . S
C2063 C2062 1.348 . S
C2063 C2065 1.353 . S
C2063 H2104 0.929 . S
C2064 C2062 1.356 . S
C2064 C2066 1.358 . S
C2064 H2105 0.930 . S
C2065 C2063 1.353 . S
C2065 N2067 1.314 . S
C2065 H2106 0.930 . S
C2066 C2064 1.358 . S
C2066 N2067 1.279 . S
C2066 H2107 0.930 . S
N2067 C2065 1.314 . S
N2067 C2066 1.279 . S
C2068 C2070 1.353 . S
C2068 N2071 1.314 . S
C2068 H2074 0.930 . S
C2069 N2071 1.279 . S
C2069 C2072 1.358 . S
C2069 H2075 0.930 . S
C2070 C2068 1.353 . S
C2070 C2073 1.348 . S
C2070 H2108 0.929 . S
N2071 Li2026 1.990 . S
N2071 C2068 1.314 . S
N2071 C2069 1.279 . S
C2072 C2069 1.358 . S
C2072 C2073 1.356 . S
C2072 H2109 0.930 . S
C2073 C2070 1.348 . S
C2073 C2072 1.356 . S
H2074 C2068 0.930 . S
H2075 C2069 0.930 . S
C2076 N2077 1.314 . S
C2076 C2078 1.353 . S
C2076 H2082 0.930 . S
N2077 Li2027 1.990 . S
N2077 C2076 1.314 . S
N2077 C2080 1.279 . S
C2078 C2076 1.353 . S
C2078 C2081 1.348 . S
C2078 H2110 0.929 . S
C2079 C2080 1.358 . S
C2079 C2081 1.356 . S
C2079 H2111 0.930 . S
C2080 N2077 1.279 . S
C2080 C2079 1.358 . S
C2080 H2083 0.930 . S
C2081 C2078 1.348 . S
C2081 C2079 1.356 . S
H2082 C2076 0.930 . S
H2083 C2080 0.930 . S
O2084 Li2024 1.956 . S
O2084 Li2025 1.970 . S
O2084 Li2026 1.961 . S
O2084 C2028 1.325 . S
O2085 Li2024 1.970 . S
O2085 Li2025 1.956 . S
O2085 Li2027 1.961 . S
O2085 C2034 1.325 . S
O2086 Li2024 1.961 . S
O2086 Li2026 1.956 . S
O2086 Li2027 1.970 . S
O2086 C2056 1.325 . S
O2087 Li2025 1.961 . S
O2087 Li2026 1.970 . S
O2087 Li2027 1.956 . S
O2087 C2062 1.325 . S
H2088 C2030 0.929 . S
H2089 C2031 0.930 . S
H2090 C2032 0.930 . S
H2091 C2033 0.930 . S
H2092 C2035 0.930 . S
H2093 C2037 0.929 . S
H2094 C2038 0.930 . S
H2095 C2039 0.930 . S
H2096 C2042 0.930 . S
H2097 C2045 0.929 . S
H2098 C2050 0.929 . S
H2099 C2051 0.930 . S
H2100 C2058 0.929 . S
H2101 C2059 0.930 . S
H2102 C2060 0.930 . S
H2103 C2061 0.930 . S
H2104 C2063 0.929 . S
H2105 C2064 0.930 . S
H2106 C2065 0.930 . S
H2107 C2066 0.930 . S
H2108 C2070 0.929 . S
H2109 C2072 0.930 . S
H2110 C2078 0.929 . S
H2111 C2079 0.930 . S
Li2112 N2129 1.990 . S
Li2112 O2172 1.956 . S
Li2112 O2173 1.970 . S
Li2112 O2174 1.961 . S
Li2113 N2137 1.990 . S
Li2113 O2172 1.970 . S
Li2113 O2173 1.956 . S
Li2113 O2175 1.961 . S
Li2114 N2159 1.990 . S
Li2114 O2172 1.961 . S
Li2114 O2174 1.956 . S
Li2114 O2175 1.970 . S
Li2115 N2165 1.990 . S
Li2115 O2173 1.961 . S
Li2115 O2174 1.970 . S
Li2115 O2175 1.956 . S
C2116 C2118 1.348 . S
C2116 C2119 1.356 . S
C2116 O2172 1.325 . S
N2117 C2120 1.314 . S
N2117 C2121 1.279 . S
C2118 C2116 1.348 . S
C2118 C2120 1.353 . S
C2118 H2176 0.929 . S
C2119 C2116 1.356 . S
C2119 C2121 1.358 . S
C2119 H2177 0.930 . S
C2120 N2117 1.314 . S
C2120 C2118 1.353 . S
C2120 H2178 0.930 . S
C2121 N2117 1.279 . S
C2121 C2119 1.358 . S
C2121 H2179 0.930 . S
C2122 C2125 1.348 . S
C2122 C2126 1.356 . S
C2122 O2173 1.325 . S
C2123 N2124 1.279 . S
C2123 C2126 1.358 . S
C2123 H2180 0.930 . S
N2124 C2123 1.279 . S
N2124 C2127 1.314 . S
C2125 C2122 1.348 . S
C2125 C2127 1.353 . S
C2125 H2181 0.929 . S
C2126 C2122 1.356 . S
C2126 C2123 1.358 . S
C2126 H2182 0.930 . S
C2127 N2124 1.314 . S
C2127 C2125 1.353 . S
C2127 H2183 0.930 . S
C2128 N2129 1.314 . S
C2128 C2133 1.353 . S
C2128 H2134 0.930 . S
N2129 Li2112 1.990 . S
N2129 C2128 1.314 . S
N2129 C2131 1.279 . S
C2130 C2131 1.358 . S
C2130 C2132 1.356 . S
C2130 H2184 0.930 . S
C2131 N2129 1.279 . S
C2131 C2130 1.358 . S
C2131 H2135 0.930 . S
C2132 C2130 1.356 . S
C2132 C2133 1.348 . S
C2133 C2128 1.353 . S
C2133 C2132 1.348 . S
C2133 H2185 0.929 . S
H2134 C2128 0.930 . S
H2135 C2131 0.930 . S
C2136 N2137 1.314 . S
C2136 C2138 1.353 . S
C2136 H2142 0.930 . S
N2137 Li2113 1.990 . S
N2137 C2136 1.314 . S
N2137 C2140 1.279 . S
C2138 C2136 1.353 . S
C2138 C2141 1.348 . S
C2138 H2186 0.929 . S
C2139 C2140 1.358 . S
C2139 C2141 1.356 . S
C2139 H2187 0.930 . S
C2140 N2137 1.279 . S
C2140 C2139 1.358 . S
C2140 H2143 0.930 . S
C2141 C2138 1.348 . S
C2141 C2139 1.356 . S
H2142 C2136 0.930 . S
H2143 C2140 0.930 . S
C2144 C2146 1.348 . S
C2144 C2147 1.356 . S
C2144 O2174 1.325 . S
N2145 C2148 1.314 . S
N2145 C2149 1.279 . S
C2146 C2144 1.348 . S
C2146 C2148 1.353 . S
C2146 H2188 0.929 . S
C2147 C2144 1.356 . S
C2147 C2149 1.358 . S
C2147 H2189 0.930 . S
C2148 N2145 1.314 . S
C2148 C2146 1.353 . S
C2148 H2190 0.930 . S
C2149 N2145 1.279 . S
C2149 C2147 1.358 . S
C2149 H2191 0.930 . S
C2150 C2151 1.348 . S
C2150 C2152 1.356 . S
C2150 O2175 1.325 . S
C2151 C2150 1.348 . S
C2151 C2153 1.353 . S
C2151 H2192 0.929 . S
C2152 C2150 1.356 . S
C2152 C2154 1.358 . S
C2152 H2193 0.930 . S
C2153 C2151 1.353 . S
C2153 N2155 1.314 . S
C2153 H2194 0.930 . S
C2154 C2152 1.358 . S
C2154 N2155 1.279 . S
C2154 H2195 0.930 . S
N2155 C2153 1.314 . S
N2155 C2154 1.279 . S
C2156 C2158 1.353 . S
C2156 N2159 1.314 . S
C2156 H2162 0.930 . S
C2157 N2159 1.279 . S
C2157 C2160 1.358 . S
C2157 H2163 0.930 . S
C2158 C2156 1.353 . S
C2158 C2161 1.348 . S
C2158 H2196 0.929 . S
N2159 Li2114 1.990 . S
N2159 C2156 1.314 . S
N2159 C2157 1.279 . S
C2160 C2157 1.358 . S
C2160 C2161 1.356 . S
C2160 H2197 0.930 . S
C2161 C2158 1.348 . S
C2161 C2160 1.356 . S
H2162 C2156 0.930 . S
H2163 C2157 0.930 . S
C2164 N2165 1.314 . S
C2164 C2166 1.353 . S
C2164 H2170 0.930 . S
N2165 Li2115 1.990 . S
N2165 C2164 1.314 . S
N2165 C2168 1.279 . S
C2166 C2164 1.353 . S
C2166 C2169 1.348 . S
C2166 H2198 0.929 . S
C2167 C2168 1.358 . S
C2167 C2169 1.356 . S
C2167 H2199 0.930 . S
C2168 N2165 1.279 . S
C2168 C2167 1.358 . S
C2168 H2171 0.930 . S
C2169 C2166 1.348 . S
C2169 C2167 1.356 . S
H2170 C2164 0.930 . S
H2171 C2168 0.930 . S
O2172 Li2112 1.956 . S
O2172 Li2113 1.970 . S
O2172 Li2114 1.961 . S
O2172 C2116 1.325 . S
O2173 Li2112 1.970 . S
O2173 Li2113 1.956 . S
O2173 Li2115 1.961 . S
O2173 C2122 1.325 . S
O2174 Li2112 1.961 . S
O2174 Li2114 1.956 . S
O2174 Li2115 1.970 . S
O2174 C2144 1.325 . S
O2175 Li2113 1.961 . S
O2175 Li2114 1.970 . S
O2175 Li2115 1.956 . S
O2175 C2150 1.325 . S
H2176 C2118 0.929 . S
H2177 C2119 0.930 . S
H2178 C2120 0.930 . S
H2179 C2121 0.930 . S
H2180 C2123 0.930 . S
H2181 C2125 0.929 . S
H2182 C2126 0.930 . S
H2183 C2127 0.930 . S
H2184 C2130 0.930 . S
H2185 C2133 0.929 . S
H2186 C2138 0.929 . S
H2187 C2139 0.930 . S
H2188 C2146 0.929 . S
H2189 C2147 0.930 . S
H2190 C2148 0.930 . S
H2191 C2149 0.930 . S
H2192 C2151 0.929 . S
H2193 C2152 0.930 . S
H2194 C2153 0.930 . S
H2195 C2154 0.930 . S
H2196 C2158 0.929 . S
H2197 C2160 0.930 . S
H2198 C2166 0.929 . S
H2199 C2167 0.930 . S
Li2200 N2217 1.990 . S
Li2200 O2260 1.956 . S
Li2200 O2261 1.970 . S
Li2200 O2262 1.961 . S
Li2201 N2225 1.990 . S
Li2201 O2260 1.970 . S
Li2201 O2261 1.956 . S
Li2201 O2263 1.961 . S
Li2202 N2247 1.990 . S
Li2202 O2260 1.961 . S
Li2202 O2262 1.956 . S
Li2202 O2263 1.970 . S
Li2203 N2253 1.990 . S
Li2203 O2261 1.961 . S
Li2203 O2262 1.970 . S
Li2203 O2263 1.956 . S
C2204 C2206 1.348 . S
C2204 C2207 1.356 . S
C2204 O2260 1.325 . S
N2205 C2208 1.314 . S
N2205 C2209 1.279 . S
C2206 C2204 1.348 . S
C2206 C2208 1.353 . S
C2206 H2264 0.929 . S
C2207 C2204 1.356 . S
C2207 C2209 1.358 . S
C2207 H2265 0.930 . S
C2208 N2205 1.314 . S
C2208 C2206 1.353 . S
C2208 H2266 0.930 . S
C2209 N2205 1.279 . S
C2209 C2207 1.358 . S
C2209 H2267 0.930 . S
C2210 C2213 1.348 . S
C2210 C2214 1.356 . S
C2210 O2261 1.325 . S
C2211 N2212 1.279 . S
C2211 C2214 1.358 . S
C2211 H2268 0.930 . S
N2212 C2211 1.279 . S
N2212 C2215 1.314 . S
C2213 C2210 1.348 . S
C2213 C2215 1.353 . S
C2213 H2269 0.929 . S
C2214 C2210 1.356 . S
C2214 C2211 1.358 . S
C2214 H2270 0.930 . S
C2215 N2212 1.314 . S
C2215 C2213 1.353 . S
C2215 H2271 0.930 . S
C2216 N2217 1.314 . S
C2216 C2221 1.353 . S
C2216 H2222 0.930 . S
N2217 Li2200 1.990 . S
N2217 C2216 1.314 . S
N2217 C2219 1.279 . S
C2218 C2219 1.358 . S
C2218 C2220 1.356 . S
C2218 H2272 0.930 . S
C2219 N2217 1.279 . S
C2219 C2218 1.358 . S
C2219 H2223 0.930 . S
C2220 C2218 1.356 . S
C2220 C2221 1.348 . S
C2221 C2216 1.353 . S
C2221 C2220 1.348 . S
C2221 H2273 0.929 . S
H2222 C2216 0.930 . S
H2223 C2219 0.930 . S
C2224 N2225 1.314 . S
C2224 C2226 1.353 . S
C2224 H2230 0.930 . S
N2225 Li2201 1.990 . S
N2225 C2224 1.314 . S
N2225 C2228 1.279 . S
C2226 C2224 1.353 . S
C2226 C2229 1.348 . S
C2226 H2274 0.929 . S
C2227 C2228 1.358 . S
C2227 C2229 1.356 . S
C2227 H2275 0.930 . S
C2228 N2225 1.279 . S
C2228 C2227 1.358 . S
C2228 H2231 0.930 . S
C2229 C2226 1.348 . S
C2229 C2227 1.356 . S
H2230 C2224 0.930 . S
H2231 C2228 0.930 . S
C2232 C2234 1.348 . S
C2232 C2235 1.356 . S
C2232 O2262 1.325 . S
N2233 C2236 1.314 . S
N2233 C2237 1.279 . S
C2234 C2232 1.348 . S
C2234 C2236 1.353 . S
C2234 H2276 0.929 . S
C2235 C2232 1.356 . S
C2235 C2237 1.358 . S
C2235 H2277 0.930 . S
C2236 N2233 1.314 . S
C2236 C2234 1.353 . S
C2236 H2278 0.930 . S
C2237 N2233 1.279 . S
C2237 C2235 1.358 . S
C2237 H2279 0.930 . S
C2238 C2239 1.348 . S
C2238 C2240 1.356 . S
C2238 O2263 1.325 . S
C2239 C2238 1.348 . S
C2239 C2241 1.353 . S
C2239 H2280 0.929 . S
C2240 C2238 1.356 . S
C2240 C2242 1.358 . S
C2240 H2281 0.930 . S
C2241 C2239 1.353 . S
C2241 N2243 1.314 . S
C2241 H2282 0.930 . S
C2242 C2240 1.358 . S
C2242 N2243 1.279 . S
C2242 H2283 0.930 . S
N2243 C2241 1.314 . S
N2243 C2242 1.279 . S
C2244 C2246 1.353 . S
C2244 N2247 1.314 . S
C2244 H2250 0.930 . S
C2245 N2247 1.279 . S
C2245 C2248 1.358 . S
C2245 H2251 0.930 . S
C2246 C2244 1.353 . S
C2246 C2249 1.348 . S
C2246 H2284 0.929 . S
N2247 Li2202 1.990 . S
N2247 C2244 1.314 . S
N2247 C2245 1.279 . S
C2248 C2245 1.358 . S
C2248 C2249 1.356 . S
C2248 H2285 0.930 . S
C2249 C2246 1.348 . S
C2249 C2248 1.356 . S
H2250 C2244 0.930 . S
H2251 C2245 0.930 . S
C2252 N2253 1.314 . S
C2252 C2254 1.353 . S
C2252 H2258 0.930 . S
N2253 Li2203 1.990 . S
N2253 C2252 1.314 . S
N2253 C2256 1.279 . S
C2254 C2252 1.353 . S
C2254 C2257 1.348 . S
C2254 H2286 0.929 . S
C2255 C2256 1.358 . S
C2255 C2257 1.356 . S
C2255 H2287 0.930 . S
C2256 N2253 1.279 . S
C2256 C2255 1.358 . S
C2256 H2259 0.930 . S
C2257 C2254 1.348 . S
C2257 C2255 1.356 . S
H2258 C2252 0.930 . S
H2259 C2256 0.930 . S
O2260 Li2200 1.956 . S
O2260 Li2201 1.970 . S
O2260 Li2202 1.961 . S
O2260 C2204 1.325 . S
O2261 Li2200 1.970 . S
O2261 Li2201 1.956 . S
O2261 Li2203 1.961 . S
O2261 C2210 1.325 . S
O2262 Li2200 1.961 . S
O2262 Li2202 1.956 . S
O2262 Li2203 1.970 . S
O2262 C2232 1.325 . S
O2263 Li2201 1.961 . S
O2263 Li2202 1.970 . S
O2263 Li2203 1.956 . S
O2263 C2238 1.325 . S
H2264 C2206 0.929 . S
H2265 C2207 0.930 . S
H2266 C2208 0.930 . S
H2267 C2209 0.930 . S
H2268 C2211 0.930 . S
H2269 C2213 0.929 . S
H2270 C2214 0.930 . S
H2271 C2215 0.930 . S
H2272 C2218 0.930 . S
H2273 C2221 0.929 . S
H2274 C2226 0.929 . S
H2275 C2227 0.930 . S
H2276 C2234 0.929 . S
H2277 C2235 0.930 . S
H2278 C2236 0.930 . S
H2279 C2237 0.930 . S
H2280 C2239 0.929 . S
H2281 C2240 0.930 . S
H2282 C2241 0.930 . S
H2283 C2242 0.930 . S
H2284 C2246 0.929 . S
H2285 C2248 0.930 . S
H2286 C2254 0.929 . S
H2287 C2255 0.930 . S
Li2288 N2305 1.990 . S
Li2288 O2348 1.956 . S
Li2288 O2349 1.970 . S
Li2288 O2350 1.961 . S
Li2289 N2313 1.990 . S
Li2289 O2348 1.970 . S
Li2289 O2349 1.956 . S
Li2289 O2351 1.961 . S
Li2290 N2335 1.990 . S
Li2290 O2348 1.961 . S
Li2290 O2350 1.956 . S
Li2290 O2351 1.970 . S
Li2291 N2341 1.990 . S
Li2291 O2349 1.961 . S
Li2291 O2350 1.970 . S
Li2291 O2351 1.956 . S
C2292 C2294 1.348 . S
C2292 C2295 1.356 . S
C2292 O2348 1.325 . S
N2293 C2296 1.314 . S
N2293 C2297 1.279 . S
C2294 C2292 1.348 . S
C2294 C2296 1.353 . S
C2294 H2352 0.929 . S
C2295 C2292 1.356 . S
C2295 C2297 1.358 . S
C2295 H2353 0.930 . S
C2296 N2293 1.314 . S
C2296 C2294 1.353 . S
C2296 H2354 0.930 . S
C2297 N2293 1.279 . S
C2297 C2295 1.358 . S
C2297 H2355 0.930 . S
C2298 C2301 1.348 . S
C2298 C2302 1.356 . S
C2298 O2349 1.325 . S
C2299 N2300 1.279 . S
C2299 C2302 1.358 . S
C2299 H2356 0.930 . S
N2300 C2299 1.279 . S
N2300 C2303 1.314 . S
C2301 C2298 1.348 . S
C2301 C2303 1.353 . S
C2301 H2357 0.929 . S
C2302 C2298 1.356 . S
C2302 C2299 1.358 . S
C2302 H2358 0.930 . S
C2303 N2300 1.314 . S
C2303 C2301 1.353 . S
C2303 H2359 0.930 . S
C2304 N2305 1.314 . S
C2304 C2309 1.353 . S
C2304 H2310 0.930 . S
N2305 Li2288 1.990 . S
N2305 C2304 1.314 . S
N2305 C2307 1.279 . S
C2306 C2307 1.358 . S
C2306 C2308 1.356 . S
C2306 H2360 0.930 . S
C2307 N2305 1.279 . S
C2307 C2306 1.358 . S
C2307 H2311 0.930 . S
C2308 C2306 1.356 . S
C2308 C2309 1.348 . S
C2309 C2304 1.353 . S
C2309 C2308 1.348 . S
C2309 H2361 0.929 . S
H2310 C2304 0.930 . S
H2311 C2307 0.930 . S
C2312 N2313 1.314 . S
C2312 C2314 1.353 . S
C2312 H2318 0.930 . S
N2313 Li2289 1.990 . S
N2313 C2312 1.314 . S
N2313 C2316 1.279 . S
C2314 C2312 1.353 . S
C2314 C2317 1.348 . S
C2314 H2362 0.929 . S
C2315 C2316 1.358 . S
C2315 C2317 1.356 . S
C2315 H2363 0.930 . S
C2316 N2313 1.279 . S
C2316 C2315 1.358 . S
C2316 H2319 0.930 . S
C2317 C2314 1.348 . S
C2317 C2315 1.356 . S
H2318 C2312 0.930 . S
H2319 C2316 0.930 . S
C2320 C2322 1.348 . S
C2320 C2323 1.356 . S
C2320 O2350 1.325 . S
N2321 C2324 1.314 . S
N2321 C2325 1.279 . S
C2322 C2320 1.348 . S
C2322 C2324 1.353 . S
C2322 H2364 0.929 . S
C2323 C2320 1.356 . S
C2323 C2325 1.358 . S
C2323 H2365 0.930 . S
C2324 N2321 1.314 . S
C2324 C2322 1.353 . S
C2324 H2366 0.930 . S
C2325 N2321 1.279 . S
C2325 C2323 1.358 . S
C2325 H2367 0.930 . S
C2326 C2327 1.348 . S
C2326 C2328 1.356 . S
C2326 O2351 1.325 . S
C2327 C2326 1.348 . S
C2327 C2329 1.353 . S
C2327 H2368 0.929 . S
C2328 C2326 1.356 . S
C2328 C2330 1.358 . S
C2328 H2369 0.930 . S
C2329 C2327 1.353 . S
C2329 N2331 1.314 . S
C2329 H2370 0.930 . S
C2330 C2328 1.358 . S
C2330 N2331 1.279 . S
C2330 H2371 0.930 . S
N2331 C2329 1.314 . S
N2331 C2330 1.279 . S
C2332 C2334 1.353 . S
C2332 N2335 1.314 . S
C2332 H2338 0.930 . S
C2333 N2335 1.279 . S
C2333 C2336 1.358 . S
C2333 H2339 0.930 . S
C2334 C2332 1.353 . S
C2334 C2337 1.348 . S
C2334 H2372 0.929 . S
N2335 Li2290 1.990 . S
N2335 C2332 1.314 . S
N2335 C2333 1.279 . S
C2336 C2333 1.358 . S
C2336 C2337 1.356 . S
C2336 H2373 0.930 . S
C2337 C2334 1.348 . S
C2337 C2336 1.356 . S
H2338 C2332 0.930 . S
H2339 C2333 0.930 . S
C2340 N2341 1.314 . S
C2340 C2342 1.353 . S
C2340 H2346 0.930 . S
N2341 Li2291 1.990 . S
N2341 C2340 1.314 . S
N2341 C2344 1.279 . S
C2342 C2340 1.353 . S
C2342 C2345 1.348 . S
C2342 H2374 0.929 . S
C2343 C2344 1.358 . S
C2343 C2345 1.356 . S
C2343 H2375 0.930 . S
C2344 N2341 1.279 . S
C2344 C2343 1.358 . S
C2344 H2347 0.930 . S
C2345 C2342 1.348 . S
C2345 C2343 1.356 . S
H2346 C2340 0.930 . S
H2347 C2344 0.930 . S
O2348 Li2288 1.956 . S
O2348 Li2289 1.970 . S
O2348 Li2290 1.961 . S
O2348 C2292 1.325 . S
O2349 Li2288 1.970 . S
O2349 Li2289 1.956 . S
O2349 Li2291 1.961 . S
O2349 C2298 1.325 . S
O2350 Li2288 1.961 . S
O2350 Li2290 1.956 . S
O2350 Li2291 1.970 . S
O2350 C2320 1.325 . S
O2351 Li2289 1.961 . S
O2351 Li2290 1.970 . S
O2351 Li2291 1.956 . S
O2351 C2326 1.325 . S
H2352 C2294 0.929 . S
H2353 C2295 0.930 . S
H2354 C2296 0.930 . S
H2355 C2297 0.930 . S
H2356 C2299 0.930 . S
H2357 C2301 0.929 . S
H2358 C2302 0.930 . S
H2359 C2303 0.930 . S
H2360 C2306 0.930 . S
H2361 C2309 0.929 . S
H2362 C2314 0.929 . S
H2363 C2315 0.930 . S
H2364 C2322 0.929 . S
H2365 C2323 0.930 . S
H2366 C2324 0.930 . S
H2367 C2325 0.930 . S
H2368 C2327 0.929 . S
H2369 C2328 0.930 . S
H2370 C2329 0.930 . S
H2371 C2330 0.930 . S
H2372 C2334 0.929 . S
H2373 C2336 0.930 . S
H2374 C2342 0.929 . S
H2375 C2343 0.930 . S
Li2376 N2393 1.990 . S
Li2376 O2436 1.956 . S
Li2376 O2437 1.970 . S
Li2376 O2438 1.961 . S
Li2377 N2401 1.990 . S
Li2377 O2436 1.970 . S
Li2377 O2437 1.956 . S
Li2377 O2439 1.961 . S
Li2378 N2423 1.990 . S
Li2378 O2436 1.961 . S
Li2378 O2438 1.956 . S
Li2378 O2439 1.970 . S
Li2379 N2429 1.990 . S
Li2379 O2437 1.961 . S
Li2379 O2438 1.970 . S
Li2379 O2439 1.956 . S
C2380 C2382 1.348 . S
C2380 C2383 1.356 . S
C2380 O2436 1.325 . S
N2381 C2384 1.314 . S
N2381 C2385 1.279 . S
C2382 C2380 1.348 . S
C2382 C2384 1.353 . S
C2382 H2440 0.929 . S
C2383 C2380 1.356 . S
C2383 C2385 1.358 . S
C2383 H2441 0.930 . S
C2384 N2381 1.314 . S
C2384 C2382 1.353 . S
C2384 H2442 0.930 . S
C2385 N2381 1.279 . S
C2385 C2383 1.358 . S
C2385 H2443 0.930 . S
C2386 C2389 1.348 . S
C2386 C2390 1.356 . S
C2386 O2437 1.325 . S
C2387 N2388 1.279 . S
C2387 C2390 1.358 . S
C2387 H2444 0.930 . S
N2388 C2387 1.279 . S
N2388 C2391 1.314 . S
C2389 C2386 1.348 . S
C2389 C2391 1.353 . S
C2389 H2445 0.929 . S
C2390 C2386 1.356 . S
C2390 C2387 1.358 . S
C2390 H2446 0.930 . S
C2391 N2388 1.314 . S
C2391 C2389 1.353 . S
C2391 H2447 0.930 . S
C2392 N2393 1.314 . S
C2392 C2397 1.353 . S
C2392 H2398 0.930 . S
N2393 Li2376 1.990 . S
N2393 C2392 1.314 . S
N2393 C2395 1.279 . S
C2394 C2395 1.358 . S
C2394 C2396 1.356 . S
C2394 H2448 0.930 . S
C2395 N2393 1.279 . S
C2395 C2394 1.358 . S
C2395 H2399 0.930 . S
C2396 C2394 1.356 . S
C2396 C2397 1.348 . S
C2397 C2392 1.353 . S
C2397 C2396 1.348 . S
C2397 H2449 0.929 . S
H2398 C2392 0.930 . S
H2399 C2395 0.930 . S
C2400 N2401 1.314 . S
C2400 C2402 1.353 . S
C2400 H2406 0.930 . S
N2401 Li2377 1.990 . S
N2401 C2400 1.314 . S
N2401 C2404 1.279 . S
C2402 C2400 1.353 . S
C2402 C2405 1.348 . S
C2402 H2450 0.929 . S
C2403 C2404 1.358 . S
C2403 C2405 1.356 . S
C2403 H2451 0.930 . S
C2404 N2401 1.279 . S
C2404 C2403 1.358 . S
C2404 H2407 0.930 . S
C2405 C2402 1.348 . S
C2405 C2403 1.356 . S
H2406 C2400 0.930 . S
H2407 C2404 0.930 . S
C2408 C2410 1.348 . S
C2408 C2411 1.356 . S
C2408 O2438 1.325 . S
N2409 C2412 1.314 . S
N2409 C2413 1.279 . S
C2410 C2408 1.348 . S
C2410 C2412 1.353 . S
C2410 H2452 0.929 . S
C2411 C2408 1.356 . S
C2411 C2413 1.358 . S
C2411 H2453 0.930 . S
C2412 N2409 1.314 . S
C2412 C2410 1.353 . S
C2412 H2454 0.930 . S
C2413 N2409 1.279 . S
C2413 C2411 1.358 . S
C2413 H2455 0.930 . S
C2414 C2415 1.348 . S
C2414 C2416 1.356 . S
C2414 O2439 1.325 . S
C2415 C2414 1.348 . S
C2415 C2417 1.353 . S
C2415 H2456 0.929 . S
C2416 C2414 1.356 . S
C2416 C2418 1.358 . S
C2416 H2457 0.930 . S
C2417 C2415 1.353 . S
C2417 N2419 1.314 . S
C2417 H2458 0.930 . S
C2418 C2416 1.358 . S
C2418 N2419 1.279 . S
C2418 H2459 0.930 . S
N2419 C2417 1.314 . S
N2419 C2418 1.279 . S
C2420 C2422 1.353 . S
C2420 N2423 1.314 . S
C2420 H2426 0.930 . S
C2421 N2423 1.279 . S
C2421 C2424 1.358 . S
C2421 H2427 0.930 . S
C2422 C2420 1.353 . S
C2422 C2425 1.348 . S
C2422 H2460 0.929 . S
N2423 Li2378 1.990 . S
N2423 C2420 1.314 . S
N2423 C2421 1.279 . S
C2424 C2421 1.358 . S
C2424 C2425 1.356 . S
C2424 H2461 0.930 . S
C2425 C2422 1.348 . S
C2425 C2424 1.356 . S
H2426 C2420 0.930 . S
H2427 C2421 0.930 . S
C2428 N2429 1.314 . S
C2428 C2430 1.353 . S
C2428 H2434 0.930 . S
N2429 Li2379 1.990 . S
N2429 C2428 1.314 . S
N2429 C2432 1.279 . S
C2430 C2428 1.353 . S
C2430 C2433 1.348 . S
C2430 H2462 0.929 . S
C2431 C2432 1.358 . S
C2431 C2433 1.356 . S
C2431 H2463 0.930 . S
C2432 N2429 1.279 . S
C2432 C2431 1.358 . S
C2432 H2435 0.930 . S
C2433 C2430 1.348 . S
C2433 C2431 1.356 . S
H2434 C2428 0.930 . S
H2435 C2432 0.930 . S
O2436 Li2376 1.956 . S
O2436 Li2377 1.970 . S
O2436 Li2378 1.961 . S
O2436 C2380 1.325 . S
O2437 Li2376 1.970 . S
O2437 Li2377 1.956 . S
O2437 Li2379 1.961 . S
O2437 C2386 1.325 . S
O2438 Li2376 1.961 . S
O2438 Li2378 1.956 . S
O2438 Li2379 1.970 . S
O2438 C2408 1.325 . S
O2439 Li2377 1.961 . S
O2439 Li2378 1.970 . S
O2439 Li2379 1.956 . S
O2439 C2414 1.325 . S
H2440 C2382 0.929 . S
H2441 C2383 0.930 . S
H2442 C2384 0.930 . S
H2443 C2385 0.930 . S
H2444 C2387 0.930 . S
H2445 C2389 0.929 . S
H2446 C2390 0.930 . S
H2447 C2391 0.930 . S
H2448 C2394 0.930 . S
H2449 C2397 0.929 . S
H2450 C2402 0.929 . S
H2451 C2403 0.930 . S
H2452 C2410 0.929 . S
H2453 C2411 0.930 . S
H2454 C2412 0.930 . S
H2455 C2413 0.930 . S
H2456 C2415 0.929 . S
H2457 C2416 0.930 . S
H2458 C2417 0.930 . S
H2459 C2418 0.930 . S
H2460 C2422 0.929 . S
H2461 C2424 0.930 . S
H2462 C2430 0.929 . S
H2463 C2431 0.930 . S
Li2464 N2481 1.990 . S
Li2464 O2524 1.956 . S
Li2464 O2525 1.970 . S
Li2464 O2526 1.961 . S
Li2465 N2489 1.990 . S
Li2465 O2524 1.970 . S
Li2465 O2525 1.956 . S
Li2465 O2527 1.961 . S
Li2466 N2511 1.990 . S
Li2466 O2524 1.961 . S
Li2466 O2526 1.956 . S
Li2466 O2527 1.970 . S
Li2467 N2517 1.990 . S
Li2467 O2525 1.961 . S
Li2467 O2526 1.970 . S
Li2467 O2527 1.956 . S
C2468 C2470 1.348 . S
C2468 C2471 1.356 . S
C2468 O2524 1.325 . S
N2469 C2472 1.314 . S
N2469 C2473 1.279 . S
C2470 C2468 1.348 . S
C2470 C2472 1.353 . S
C2470 H2528 0.929 . S
C2471 C2468 1.356 . S
C2471 C2473 1.358 . S
C2471 H2529 0.930 . S
C2472 N2469 1.314 . S
C2472 C2470 1.353 . S
C2472 H2530 0.930 . S
C2473 N2469 1.279 . S
C2473 C2471 1.358 . S
C2473 H2531 0.930 . S
C2474 C2477 1.348 . S
C2474 C2478 1.356 . S
C2474 O2525 1.325 . S
C2475 N2476 1.279 . S
C2475 C2478 1.358 . S
C2475 H2532 0.930 . S
N2476 C2475 1.279 . S
N2476 C2479 1.314 . S
C2477 C2474 1.348 . S
C2477 C2479 1.353 . S
C2477 H2533 0.929 . S
C2478 C2474 1.356 . S
C2478 C2475 1.358 . S
C2478 H2534 0.930 . S
C2479 N2476 1.314 . S
C2479 C2477 1.353 . S
C2479 H2535 0.930 . S
C2480 N2481 1.314 . S
C2480 C2485 1.353 . S
C2480 H2486 0.930 . S
N2481 Li2464 1.990 . S
N2481 C2480 1.314 . S
N2481 C2483 1.279 . S
C2482 C2483 1.358 . S
C2482 C2484 1.356 . S
C2482 H2536 0.930 . S
C2483 N2481 1.279 . S
C2483 C2482 1.358 . S
C2483 H2487 0.930 . S
C2484 C2482 1.356 . S
C2484 C2485 1.348 . S
C2485 C2480 1.353 . S
C2485 C2484 1.348 . S
C2485 H2537 0.929 . S
H2486 C2480 0.930 . S
H2487 C2483 0.930 . S
C2488 N2489 1.314 . S
C2488 C2490 1.353 . S
C2488 H2494 0.930 . S
N2489 Li2465 1.990 . S
N2489 C2488 1.314 . S
N2489 C2492 1.279 . S
C2490 C2488 1.353 . S
C2490 C2493 1.348 . S
C2490 H2538 0.929 . S
C2491 C2492 1.358 . S
C2491 C2493 1.356 . S
C2491 H2539 0.930 . S
C2492 N2489 1.279 . S
C2492 C2491 1.358 . S
C2492 H2495 0.930 . S
C2493 C2490 1.348 . S
C2493 C2491 1.356 . S
H2494 C2488 0.930 . S
H2495 C2492 0.930 . S
C2496 C2498 1.348 . S
C2496 C2499 1.356 . S
C2496 O2526 1.325 . S
N2497 C2500 1.314 . S
N2497 C2501 1.279 . S
C2498 C2496 1.348 . S
C2498 C2500 1.353 . S
C2498 H2540 0.929 . S
C2499 C2496 1.356 . S
C2499 C2501 1.358 . S
C2499 H2541 0.930 . S
C2500 N2497 1.314 . S
C2500 C2498 1.353 . S
C2500 H2542 0.930 . S
C2501 N2497 1.279 . S
C2501 C2499 1.358 . S
C2501 H2543 0.930 . S
C2502 C2503 1.348 . S
C2502 C2504 1.356 . S
C2502 O2527 1.325 . S
C2503 C2502 1.348 . S
C2503 C2505 1.353 . S
C2503 H2544 0.929 . S
C2504 C2502 1.356 . S
C2504 C2506 1.358 . S
C2504 H2545 0.930 . S
C2505 C2503 1.353 . S
C2505 N2507 1.314 . S
C2505 H2546 0.930 . S
C2506 C2504 1.358 . S
C2506 N2507 1.279 . S
C2506 H2547 0.930 . S
N2507 C2505 1.314 . S
N2507 C2506 1.279 . S
C2508 C2510 1.353 . S
C2508 N2511 1.314 . S
C2508 H2514 0.930 . S
C2509 N2511 1.279 . S
C2509 C2512 1.358 . S
C2509 H2515 0.930 . S
C2510 C2508 1.353 . S
C2510 C2513 1.348 . S
C2510 H2548 0.929 . S
N2511 Li2466 1.990 . S
N2511 C2508 1.314 . S
N2511 C2509 1.279 . S
C2512 C2509 1.358 . S
C2512 C2513 1.356 . S
C2512 H2549 0.930 . S
C2513 C2510 1.348 . S
C2513 C2512 1.356 . S
H2514 C2508 0.930 . S
H2515 C2509 0.930 . S
C2516 N2517 1.314 . S
C2516 C2518 1.353 . S
C2516 H2522 0.930 . S
N2517 Li2467 1.990 . S
N2517 C2516 1.314 . S
N2517 C2520 1.279 . S
C2518 C2516 1.353 . S
C2518 C2521 1.348 . S
C2518 H2550 0.929 . S
C2519 C2520 1.358 . S
C2519 C2521 1.356 . S
C2519 H2551 0.930 . S
C2520 N2517 1.279 . S
C2520 C2519 1.358 . S
C2520 H2523 0.930 . S
C2521 C2518 1.348 . S
C2521 C2519 1.356 . S
H2522 C2516 0.930 . S
H2523 C2520 0.930 . S
O2524 Li2464 1.956 . S
O2524 Li2465 1.970 . S
O2524 Li2466 1.961 . S
O2524 C2468 1.325 . S
O2525 Li2464 1.970 . S
O2525 Li2465 1.956 . S
O2525 Li2467 1.961 . S
O2525 C2474 1.325 . S
O2526 Li2464 1.961 . S
O2526 Li2466 1.956 . S
O2526 Li2467 1.970 . S
O2526 C2496 1.325 . S
O2527 Li2465 1.961 . S
O2527 Li2466 1.970 . S
O2527 Li2467 1.956 . S
O2527 C2502 1.325 . S
H2528 C2470 0.929 . S
H2529 C2471 0.930 . S
H2530 C2472 0.930 . S
H2531 C2473 0.930 . S
H2532 C2475 0.930 . S
H2533 C2477 0.929 . S
H2534 C2478 0.930 . S
H2535 C2479 0.930 . S
H2536 C2482 0.930 . S
H2537 C2485 0.929 . S
H2538 C2490 0.929 . S
H2539 C2491 0.930 . S
H2540 C2498 0.929 . S
H2541 C2499 0.930 . S
H2542 C2500 0.930 . S
H2543 C2501 0.930 . S
H2544 C2503 0.929 . S
H2545 C2504 0.930 . S
H2546 C2505 0.930 . S
H2547 C2506 0.930 . S
H2548 C2510 0.929 . S
H2549 C2512 0.930 . S
H2550 C2518 0.929 . S
H2551 C2519 0.930 . S
Li2552 N2569 1.990 . S
Li2552 O2612 1.956 . S
Li2552 O2613 1.970 . S
Li2552 O2614 1.961 . S
Li2553 N2577 1.990 . S
Li2553 O2612 1.970 . S
Li2553 O2613 1.956 . S
Li2553 O2615 1.961 . S
Li2554 N2599 1.990 . S
Li2554 O2612 1.961 . S
Li2554 O2614 1.956 . S
Li2554 O2615 1.970 . S
Li2555 N2605 1.990 . S
Li2555 O2613 1.961 . S
Li2555 O2614 1.970 . S
Li2555 O2615 1.956 . S
C2556 C2558 1.348 . S
C2556 C2559 1.356 . S
C2556 O2612 1.325 . S
N2557 C2560 1.314 . S
N2557 C2561 1.279 . S
C2558 C2556 1.348 . S
C2558 C2560 1.353 . S
C2558 H2616 0.929 . S
C2559 C2556 1.356 . S
C2559 C2561 1.358 . S
C2559 H2617 0.930 . S
C2560 N2557 1.314 . S
C2560 C2558 1.353 . S
C2560 H2618 0.930 . S
C2561 N2557 1.279 . S
C2561 C2559 1.358 . S
C2561 H2619 0.930 . S
C2562 C2565 1.348 . S
C2562 C2566 1.356 . S
C2562 O2613 1.325 . S
C2563 N2564 1.279 . S
C2563 C2566 1.358 . S
C2563 H2620 0.930 . S
N2564 C2563 1.279 . S
N2564 C2567 1.314 . S
C2565 C2562 1.348 . S
C2565 C2567 1.353 . S
C2565 H2621 0.929 . S
C2566 C2562 1.356 . S
C2566 C2563 1.358 . S
C2566 H2622 0.930 . S
C2567 N2564 1.314 . S
C2567 C2565 1.353 . S
C2567 H2623 0.930 . S
C2568 N2569 1.314 . S
C2568 C2573 1.353 . S
C2568 H2574 0.930 . S
N2569 Li2552 1.990 . S
N2569 C2568 1.314 . S
N2569 C2571 1.279 . S
C2570 C2571 1.358 . S
C2570 C2572 1.356 . S
C2570 H2624 0.930 . S
C2571 N2569 1.279 . S
C2571 C2570 1.358 . S
C2571 H2575 0.930 . S
C2572 C2570 1.356 . S
C2572 C2573 1.348 . S
C2573 C2568 1.353 . S
C2573 C2572 1.348 . S
C2573 H2625 0.929 . S
H2574 C2568 0.930 . S
H2575 C2571 0.930 . S
C2576 N2577 1.314 . S
C2576 C2578 1.353 . S
C2576 H2582 0.930 . S
N2577 Li2553 1.990 . S
N2577 C2576 1.314 . S
N2577 C2580 1.279 . S
C2578 C2576 1.353 . S
C2578 C2581 1.348 . S
C2578 H2626 0.929 . S
C2579 C2580 1.358 . S
C2579 C2581 1.356 . S
C2579 H2627 0.930 . S
C2580 N2577 1.279 . S
C2580 C2579 1.358 . S
C2580 H2583 0.930 . S
C2581 C2578 1.348 . S
C2581 C2579 1.356 . S
H2582 C2576 0.930 . S
H2583 C2580 0.930 . S
C2584 C2586 1.348 . S
C2584 C2587 1.356 . S
C2584 O2614 1.325 . S
N2585 C2588 1.314 . S
N2585 C2589 1.279 . S
C2586 C2584 1.348 . S
C2586 C2588 1.353 . S
C2586 H2628 0.929 . S
C2587 C2584 1.356 . S
C2587 C2589 1.358 . S
C2587 H2629 0.930 . S
C2588 N2585 1.314 . S
C2588 C2586 1.353 . S
C2588 H2630 0.930 . S
C2589 N2585 1.279 . S
C2589 C2587 1.358 . S
C2589 H2631 0.930 . S
C2590 C2591 1.348 . S
C2590 C2592 1.356 . S
C2590 O2615 1.325 . S
C2591 C2590 1.348 . S
C2591 C2593 1.353 . S
C2591 H2632 0.929 . S
C2592 C2590 1.356 . S
C2592 C2594 1.358 . S
C2592 H2633 0.930 . S
C2593 C2591 1.353 . S
C2593 N2595 1.314 . S
C2593 H2634 0.930 . S
C2594 C2592 1.358 . S
C2594 N2595 1.279 . S
C2594 H2635 0.930 . S
N2595 C2593 1.314 . S
N2595 C2594 1.279 . S
C2596 C2598 1.353 . S
C2596 N2599 1.314 . S
C2596 H2602 0.930 . S
C2597 N2599 1.279 . S
C2597 C2600 1.358 . S
C2597 H2603 0.930 . S
C2598 C2596 1.353 . S
C2598 C2601 1.348 . S
C2598 H2636 0.929 . S
N2599 Li2554 1.990 . S
N2599 C2596 1.314 . S
N2599 C2597 1.279 . S
C2600 C2597 1.358 . S
C2600 C2601 1.356 . S
C2600 H2637 0.930 . S
C2601 C2598 1.348 . S
C2601 C2600 1.356 . S
H2602 C2596 0.930 . S
H2603 C2597 0.930 . S
C2604 N2605 1.314 . S
C2604 C2606 1.353 . S
C2604 H2610 0.930 . S
N2605 Li2555 1.990 . S
N2605 C2604 1.314 . S
N2605 C2608 1.279 . S
C2606 C2604 1.353 . S
C2606 C2609 1.348 . S
C2606 H2638 0.929 . S
C2607 C2608 1.358 . S
C2607 C2609 1.356 . S
C2607 H2639 0.930 . S
C2608 N2605 1.279 . S
C2608 C2607 1.358 . S
C2608 H2611 0.930 . S
C2609 C2606 1.348 . S
C2609 C2607 1.356 . S
H2610 C2604 0.930 . S
H2611 C2608 0.930 . S
O2612 Li2552 1.956 . S
O2612 Li2553 1.970 . S
O2612 Li2554 1.961 . S
O2612 C2556 1.325 . S
O2613 Li2552 1.970 . S
O2613 Li2553 1.956 . S
O2613 Li2555 1.961 . S
O2613 C2562 1.325 . S
O2614 Li2552 1.961 . S
O2614 Li2554 1.956 . S
O2614 Li2555 1.970 . S
O2614 C2584 1.325 . S
O2615 Li2553 1.961 . S
O2615 Li2554 1.970 . S
O2615 Li2555 1.956 . S
O2615 C2590 1.325 . S
H2616 C2558 0.929 . S
H2617 C2559 0.930 . S
H2618 C2560 0.930 . S
H2619 C2561 0.930 . S
H2620 C2563 0.930 . S
H2621 C2565 0.929 . S
H2622 C2566 0.930 . S
H2623 C2567 0.930 . S
H2624 C2570 0.930 . S
H2625 C2573 0.929 . S
H2626 C2578 0.929 . S
H2627 C2579 0.930 . S
H2628 C2586 0.929 . S
H2629 C2587 0.930 . S
H2630 C2588 0.930 . S
H2631 C2589 0.930 . S
H2632 C2591 0.929 . S
H2633 C2592 0.930 . S
H2634 C2593 0.930 . S
H2635 C2594 0.930 . S
H2636 C2598 0.929 . S
H2637 C2600 0.930 . S
H2638 C2606 0.929 . S
H2639 C2607 0.930 . S
Li2640 N2657 1.990 . S
Li2640 O2700 1.956 . S
Li2640 O2701 1.970 . S
Li2640 O2702 1.961 . S
Li2641 N2665 1.990 . S
Li2641 O2700 1.970 . S
Li2641 O2701 1.956 . S
Li2641 O2703 1.961 . S
Li2642 N2687 1.990 . S
Li2642 O2700 1.961 . S
Li2642 O2702 1.956 . S
Li2642 O2703 1.970 . S
Li2643 N2693 1.990 . S
Li2643 O2701 1.961 . S
Li2643 O2702 1.970 . S
Li2643 O2703 1.956 . S
C2644 C2646 1.348 . S
C2644 C2647 1.356 . S
C2644 O2700 1.325 . S
N2645 C2648 1.314 . S
N2645 C2649 1.279 . S
C2646 C2644 1.348 . S
C2646 C2648 1.353 . S
C2646 H2704 0.929 . S
C2647 C2644 1.356 . S
C2647 C2649 1.358 . S
C2647 H2705 0.930 . S
C2648 N2645 1.314 . S
C2648 C2646 1.353 . S
C2648 H2706 0.930 . S
C2649 N2645 1.279 . S
C2649 C2647 1.358 . S
C2649 H2707 0.930 . S
C2650 C2653 1.348 . S
C2650 C2654 1.356 . S
C2650 O2701 1.325 . S
C2651 N2652 1.279 . S
C2651 C2654 1.358 . S
C2651 H2708 0.930 . S
N2652 C2651 1.279 . S
N2652 C2655 1.314 . S
C2653 C2650 1.348 . S
C2653 C2655 1.353 . S
C2653 H2709 0.929 . S
C2654 C2650 1.356 . S
C2654 C2651 1.358 . S
C2654 H2710 0.930 . S
C2655 N2652 1.314 . S
C2655 C2653 1.353 . S
C2655 H2711 0.930 . S
C2656 N2657 1.314 . S
C2656 C2661 1.353 . S
C2656 H2662 0.930 . S
N2657 Li2640 1.990 . S
N2657 C2656 1.314 . S
N2657 C2659 1.279 . S
C2658 C2659 1.358 . S
C2658 C2660 1.356 . S
C2658 H2712 0.930 . S
C2659 N2657 1.279 . S
C2659 C2658 1.358 . S
C2659 H2663 0.930 . S
C2660 C2658 1.356 . S
C2660 C2661 1.348 . S
C2661 C2656 1.353 . S
C2661 C2660 1.348 . S
C2661 H2713 0.929 . S
H2662 C2656 0.930 . S
H2663 C2659 0.930 . S
C2664 N2665 1.314 . S
C2664 C2666 1.353 . S
C2664 H2670 0.930 . S
N2665 Li2641 1.990 . S
N2665 C2664 1.314 . S
N2665 C2668 1.279 . S
C2666 C2664 1.353 . S
C2666 C2669 1.348 . S
C2666 H2714 0.929 . S
C2667 C2668 1.358 . S
C2667 C2669 1.356 . S
C2667 H2715 0.930 . S
C2668 N2665 1.279 . S
C2668 C2667 1.358 . S
C2668 H2671 0.930 . S
C2669 C2666 1.348 . S
C2669 C2667 1.356 . S
H2670 C2664 0.930 . S
H2671 C2668 0.930 . S
C2672 C2674 1.348 . S
C2672 C2675 1.356 . S
C2672 O2702 1.325 . S
N2673 C2676 1.314 . S
N2673 C2677 1.279 . S
C2674 C2672 1.348 . S
C2674 C2676 1.353 . S
C2674 H2716 0.929 . S
C2675 C2672 1.356 . S
C2675 C2677 1.358 . S
C2675 H2717 0.930 . S
C2676 N2673 1.314 . S
C2676 C2674 1.353 . S
C2676 H2718 0.930 . S
C2677 N2673 1.279 . S
C2677 C2675 1.358 . S
C2677 H2719 0.930 . S
C2678 C2679 1.348 . S
C2678 C2680 1.356 . S
C2678 O2703 1.325 . S
C2679 C2678 1.348 . S
C2679 C2681 1.353 . S
C2679 H2720 0.929 . S
C2680 C2678 1.356 . S
C2680 C2682 1.358 . S
C2680 H2721 0.930 . S
C2681 C2679 1.353 . S
C2681 N2683 1.314 . S
C2681 H2722 0.930 . S
C2682 C2680 1.358 . S
C2682 N2683 1.279 . S
C2682 H2723 0.930 . S
N2683 C2681 1.314 . S
N2683 C2682 1.279 . S
C2684 C2686 1.353 . S
C2684 N2687 1.314 . S
C2684 H2690 0.930 . S
C2685 N2687 1.279 . S
C2685 C2688 1.358 . S
C2685 H2691 0.930 . S
C2686 C2684 1.353 . S
C2686 C2689 1.348 . S
C2686 H2724 0.929 . S
N2687 Li2642 1.990 . S
N2687 C2684 1.314 . S
N2687 C2685 1.279 . S
C2688 C2685 1.358 . S
C2688 C2689 1.356 . S
C2688 H2725 0.930 . S
C2689 C2686 1.348 . S
C2689 C2688 1.356 . S
H2690 C2684 0.930 . S
H2691 C2685 0.930 . S
C2692 N2693 1.314 . S
C2692 C2694 1.353 . S
C2692 H2698 0.930 . S
N2693 Li2643 1.990 . S
N2693 C2692 1.314 . S
N2693 C2696 1.279 . S
C2694 C2692 1.353 . S
C2694 C2697 1.348 . S
C2694 H2726 0.929 . S
C2695 C2696 1.358 . S
C2695 C2697 1.356 . S
C2695 H2727 0.930 . S
C2696 N2693 1.279 . S
C2696 C2695 1.358 . S
C2696 H2699 0.930 . S
C2697 C2694 1.348 . S
C2697 C2695 1.356 . S
H2698 C2692 0.930 . S
H2699 C2696 0.930 . S
O2700 Li2640 1.956 . S
O2700 Li2641 1.970 . S
O2700 Li2642 1.961 . S
O2700 C2644 1.325 . S
O2701 Li2640 1.970 . S
O2701 Li2641 1.956 . S
O2701 Li2643 1.961 . S
O2701 C2650 1.325 . S
O2702 Li2640 1.961 . S
O2702 Li2642 1.956 . S
O2702 Li2643 1.970 . S
O2702 C2672 1.325 . S
O2703 Li2641 1.961 . S
O2703 Li2642 1.970 . S
O2703 Li2643 1.956 . S
O2703 C2678 1.325 . S
H2704 C2646 0.929 . S
H2705 C2647 0.930 . S
H2706 C2648 0.930 . S
H2707 C2649 0.930 . S
H2708 C2651 0.930 . S
H2709 C2653 0.929 . S
H2710 C2654 0.930 . S
H2711 C2655 0.930 . S
H2712 C2658 0.930 . S
H2713 C2661 0.929 . S
H2714 C2666 0.929 . S
H2715 C2667 0.930 . S
H2716 C2674 0.929 . S
H2717 C2675 0.930 . S
H2718 C2676 0.930 . S
H2719 C2677 0.930 . S
H2720 C2679 0.929 . S
H2721 C2680 0.930 . S
H2722 C2681 0.930 . S
H2723 C2682 0.930 . S
H2724 C2686 0.929 . S
H2725 C2688 0.930 . S
H2726 C2694 0.929 . S
H2727 C2695 0.930 . S
Li2728 N2745 1.990 . S
Li2728 O2788 1.956 . S
Li2728 O2789 1.970 . S
Li2728 O2790 1.961 . S
Li2729 N2753 1.990 . S
Li2729 O2788 1.970 . S
Li2729 O2789 1.956 . S
Li2729 O2791 1.961 . S
Li2730 N2775 1.990 . S
Li2730 O2788 1.961 . S
Li2730 O2790 1.956 . S
Li2730 O2791 1.970 . S
Li2731 N2781 1.990 . S
Li2731 O2789 1.961 . S
Li2731 O2790 1.970 . S
Li2731 O2791 1.956 . S
C2732 C2734 1.348 . S
C2732 C2735 1.356 . S
C2732 O2788 1.325 . S
N2733 C2736 1.314 . S
N2733 C2737 1.279 . S
C2734 C2732 1.348 . S
C2734 C2736 1.353 . S
C2734 H2792 0.929 . S
C2735 C2732 1.356 . S
C2735 C2737 1.358 . S
C2735 H2793 0.930 . S
C2736 N2733 1.314 . S
C2736 C2734 1.353 . S
C2736 H2794 0.930 . S
C2737 N2733 1.279 . S
C2737 C2735 1.358 . S
C2737 H2795 0.930 . S
C2738 C2741 1.348 . S
C2738 C2742 1.356 . S
C2738 O2789 1.325 . S
C2739 N2740 1.279 . S
C2739 C2742 1.358 . S
C2739 H2796 0.930 . S
N2740 C2739 1.279 . S
N2740 C2743 1.314 . S
C2741 C2738 1.348 . S
C2741 C2743 1.353 . S
C2741 H2797 0.929 . S
C2742 C2738 1.356 . S
C2742 C2739 1.358 . S
C2742 H2798 0.930 . S
C2743 N2740 1.314 . S
C2743 C2741 1.353 . S
C2743 H2799 0.930 . S
C2744 N2745 1.314 . S
C2744 C2749 1.353 . S
C2744 H2750 0.930 . S
N2745 Li2728 1.990 . S
N2745 C2744 1.314 . S
N2745 C2747 1.279 . S
C2746 C2747 1.358 . S
C2746 C2748 1.356 . S
C2746 H2800 0.930 . S
C2747 N2745 1.279 . S
C2747 C2746 1.358 . S
C2747 H2751 0.930 . S
C2748 C2746 1.356 . S
C2748 C2749 1.348 . S
C2749 C2744 1.353 . S
C2749 C2748 1.348 . S
C2749 H2801 0.929 . S
H2750 C2744 0.930 . S
H2751 C2747 0.930 . S
C2752 N2753 1.314 . S
C2752 C2754 1.353 . S
C2752 H2758 0.930 . S
N2753 Li2729 1.990 . S
N2753 C2752 1.314 . S
N2753 C2756 1.279 . S
C2754 C2752 1.353 . S
C2754 C2757 1.348 . S
C2754 H2802 0.929 . S
C2755 C2756 1.358 . S
C2755 C2757 1.356 . S
C2755 H2803 0.930 . S
C2756 N2753 1.279 . S
C2756 C2755 1.358 . S
C2756 H2759 0.930 . S
C2757 C2754 1.348 . S
C2757 C2755 1.356 . S
H2758 C2752 0.930 . S
H2759 C2756 0.930 . S
C2760 C2762 1.348 . S
C2760 C2763 1.356 . S
C2760 O2790 1.325 . S
N2761 C2764 1.314 . S
N2761 C2765 1.279 . S
C2762 C2760 1.348 . S
C2762 C2764 1.353 . S
C2762 H2804 0.929 . S
C2763 C2760 1.356 . S
C2763 C2765 1.358 . S
C2763 H2805 0.930 . S
C2764 N2761 1.314 . S
C2764 C2762 1.353 . S
C2764 H2806 0.930 . S
C2765 N2761 1.279 . S
C2765 C2763 1.358 . S
C2765 H2807 0.930 . S
C2766 C2767 1.348 . S
C2766 C2768 1.356 . S
C2766 O2791 1.325 . S
C2767 C2766 1.348 . S
C2767 C2769 1.353 . S
C2767 H2808 0.929 . S
C2768 C2766 1.356 . S
C2768 C2770 1.358 . S
C2768 H2809 0.930 . S
C2769 C2767 1.353 . S
C2769 N2771 1.314 . S
C2769 H2810 0.930 . S
C2770 C2768 1.358 . S
C2770 N2771 1.279 . S
C2770 H2811 0.930 . S
N2771 C2769 1.314 . S
N2771 C2770 1.279 . S
C2772 C2774 1.353 . S
C2772 N2775 1.314 . S
C2772 H2778 0.930 . S
C2773 N2775 1.279 . S
C2773 C2776 1.358 . S
C2773 H2779 0.930 . S
C2774 C2772 1.353 . S
C2774 C2777 1.348 . S
C2774 H2812 0.929 . S
N2775 Li2730 1.990 . S
N2775 C2772 1.314 . S
N2775 C2773 1.279 . S
C2776 C2773 1.358 . S
C2776 C2777 1.356 . S
C2776 H2813 0.930 . S
C2777 C2774 1.348 . S
C2777 C2776 1.356 . S
H2778 C2772 0.930 . S
H2779 C2773 0.930 . S
C2780 N2781 1.314 . S
C2780 C2782 1.353 . S
C2780 H2786 0.930 . S
N2781 Li2731 1.990 . S
N2781 C2780 1.314 . S
N2781 C2784 1.279 . S
C2782 C2780 1.353 . S
C2782 C2785 1.348 . S
C2782 H2814 0.929 . S
C2783 C2784 1.358 . S
C2783 C2785 1.356 . S
C2783 H2815 0.930 . S
C2784 N2781 1.279 . S
C2784 C2783 1.358 . S
C2784 H2787 0.930 . S
C2785 C2782 1.348 . S
C2785 C2783 1.356 . S
H2786 C2780 0.930 . S
H2787 C2784 0.930 . S
O2788 Li2728 1.956 . S
O2788 Li2729 1.970 . S
O2788 Li2730 1.961 . S
O2788 C2732 1.325 . S
O2789 Li2728 1.970 . S
O2789 Li2729 1.956 . S
O2789 Li2731 1.961 . S
O2789 C2738 1.325 . S
O2790 Li2728 1.961 . S
O2790 Li2730 1.956 . S
O2790 Li2731 1.970 . S
O2790 C2760 1.325 . S
O2791 Li2729 1.961 . S
O2791 Li2730 1.970 . S
O2791 Li2731 1.956 . S
O2791 C2766 1.325 . S
H2792 C2734 0.929 . S
H2793 C2735 0.930 . S
H2794 C2736 0.930 . S
H2795 C2737 0.930 . S
H2796 C2739 0.930 . S
H2797 C2741 0.929 . S
H2798 C2742 0.930 . S
H2799 C2743 0.930 . S
H2800 C2746 0.930 . S
H2801 C2749 0.929 . S
H2802 C2754 0.929 . S
H2803 C2755 0.930 . S
H2804 C2762 0.929 . S
H2805 C2763 0.930 . S
H2806 C2764 0.930 . S
H2807 C2765 0.930 . S
H2808 C2767 0.929 . S
H2809 C2768 0.930 . S
H2810 C2769 0.930 . S
H2811 C2770 0.930 . S
H2812 C2774 0.929 . S
H2813 C2776 0.930 . S
H2814 C2782 0.929 . S
H2815 C2783 0.930 . S
H2816 C2822 0.930 . S
H2817 C2826 0.930 . S
H2818 C2831 0.929 . S
H2819 C2829 0.929 . S
H2820 C2824 0.929 . S
H2821 C2830 0.929 . S
C2822 H2816 0.930 . S
C2822 C2823 1.367 . S
C2822 C2830 1.378 . S
C2823 C2822 1.367 . S
C2823 C2831 1.433 . S
C2824 H2820 0.929 . S
C2824 C2826 1.378 . S
C2824 C2828 1.350 . S
C2825 C2828 1.463 . S
C2825 C2830 1.350 . S
C2825 N2833 1.427 . S
C2826 H2817 0.930 . S
C2826 C2824 1.378 . S
C2826 C2827 1.367 . S
C2827 C2826 1.367 . S
C2827 C2829 1.433 . S
C2828 C2824 1.350 . S
C2828 C2825 1.463 . S
C2828 N2832 1.427 . S
C2829 H2819 0.929 . S
C2829 C2827 1.433 . S
C2829 N2832 1.384 . S
C2830 H2821 0.929 . S
C2830 C2822 1.378 . S
C2830 C2825 1.350 . S
C2831 H2818 0.929 . S
C2831 C2823 1.433 . S
C2831 N2833 1.384 . S
N2832 C2828 1.427 . S
N2832 C2829 1.384 . S
N2833 C2825 1.427 . S
N2833 C2831 1.384 . S
H2834 C2840 0.930 . S
H2835 C2844 0.930 . S
H2836 C2849 0.929 . S
H2837 C2847 0.929 . S
H2838 C2842 0.929 . S
H2839 C2848 0.929 . S
C2840 H2834 0.930 . S
C2840 C2841 1.367 . S
C2840 C2848 1.378 . S
C2841 C2840 1.367 . S
C2841 C2849 1.433 . S
C2842 H2838 0.929 . S
C2842 C2844 1.378 . S
C2842 C2846 1.350 . S
C2843 C2846 1.463 . S
C2843 C2848 1.350 . S
C2843 N2851 1.427 . S
C2844 H2835 0.930 . S
C2844 C2842 1.378 . S
C2844 C2845 1.367 . S
C2845 C2844 1.367 . S
C2845 C2847 1.433 . S
C2846 C2842 1.350 . S
C2846 C2843 1.463 . S
C2846 N2850 1.427 . S
C2847 H2837 0.929 . S
C2847 C2845 1.433 . S
C2847 N2850 1.384 . S
C2848 H2839 0.929 . S
C2848 C2840 1.378 . S
C2848 C2843 1.350 . S
C2849 H2836 0.929 . S
C2849 C2841 1.433 . S
C2849 N2851 1.384 . S
N2850 C2846 1.427 . S
N2850 C2847 1.384 . S
N2851 C2843 1.427 . S
N2851 C2849 1.384 . S
H2852 C2858 0.930 . S
H2853 C2862 0.930 . S
H2854 C2867 0.929 . S
H2855 C2865 0.929 . S
H2856 C2860 0.929 . S
H2857 C2866 0.929 . S
C2858 H2852 0.930 . S
C2858 C2859 1.367 . S
C2858 C2866 1.378 . S
C2859 C2858 1.367 . S
C2859 C2867 1.433 . S
C2860 H2856 0.929 . S
C2860 C2862 1.378 . S
C2860 C2864 1.350 . S
C2861 C2864 1.463 . S
C2861 C2866 1.350 . S
C2861 N2869 1.427 . S
C2862 H2853 0.930 . S
C2862 C2860 1.378 . S
C2862 C2863 1.367 . S
C2863 C2862 1.367 . S
C2863 C2865 1.433 . S
C2864 C2860 1.350 . S
C2864 C2861 1.463 . S
C2864 N2868 1.427 . S
C2865 H2855 0.929 . S
C2865 C2863 1.433 . S
C2865 N2868 1.384 . S
C2866 H2857 0.929 . S
C2866 C2858 1.378 . S
C2866 C2861 1.350 . S
C2867 H2854 0.929 . S
C2867 C2859 1.433 . S
C2867 N2869 1.384 . S
N2868 C2864 1.427 . S
N2868 C2865 1.384 . S
N2869 C2861 1.427 . S
N2869 C2867 1.384 . S
H2870 C2876 0.930 . S
H2871 C2880 0.930 . S
H2872 C2885 0.929 . S
H2873 C2883 0.929 . S
H2874 C2878 0.929 . S
H2875 C2884 0.929 . S
C2876 H2870 0.930 . S
C2876 C2877 1.367 . S
C2876 C2884 1.378 . S
C2877 C2876 1.367 . S
C2877 C2885 1.433 . S
C2878 H2874 0.929 . S
C2878 C2880 1.378 . S
C2878 C2882 1.350 . S
C2879 C2882 1.463 . S
C2879 C2884 1.350 . S
C2879 N2887 1.427 . S
C2880 H2871 0.930 . S
C2880 C2878 1.378 . S
C2880 C2881 1.367 . S
C2881 C2880 1.367 . S
C2881 C2883 1.433 . S
C2882 C2878 1.350 . S
C2882 C2879 1.463 . S
C2882 N2886 1.427 . S
C2883 H2873 0.929 . S
C2883 C2881 1.433 . S
C2883 N2886 1.384 . S
C2884 H2875 0.929 . S
C2884 C2876 1.378 . S
C2884 C2879 1.350 . S
C2885 H2872 0.929 . S
C2885 C2877 1.433 . S
C2885 N2887 1.384 . S
N2886 C2882 1.427 . S
N2886 C2883 1.384 . S
N2887 C2879 1.427 . S
N2887 C2885 1.384 . S
H2888 C2894 0.930 . S
H2889 C2898 0.930 . S
H2890 C2903 0.929 . S
H2891 C2901 0.929 . S
H2892 C2896 0.929 . S
H2893 C2902 0.929 . S
C2894 H2888 0.930 . S
C2894 C2895 1.367 . S
C2894 C2902 1.378 . S
C2895 C2894 1.367 . S
C2895 C2903 1.433 . S
C2896 H2892 0.929 . S
C2896 C2898 1.378 . S
C2896 C2900 1.350 . S
C2897 C2900 1.463 . S
C2897 C2902 1.350 . S
C2897 N2905 1.427 . S
C2898 H2889 0.930 . S
C2898 C2896 1.378 . S
C2898 C2899 1.367 . S
C2899 C2898 1.367 . S
C2899 C2901 1.433 . S
C2900 C2896 1.350 . S
C2900 C2897 1.463 . S
C2900 N2904 1.427 . S
C2901 H2891 0.929 . S
C2901 C2899 1.433 . S
C2901 N2904 1.384 . S
C2902 H2893 0.929 . S
C2902 C2894 1.378 . S
C2902 C2897 1.350 . S
C2903 H2890 0.929 . S
C2903 C2895 1.433 . S
C2903 N2905 1.384 . S
N2904 C2900 1.427 . S
N2904 C2901 1.384 . S
N2905 C2897 1.427 . S
N2905 C2903 1.384 . S
H2906 C2912 0.930 . S
H2907 C2916 0.930 . S
H2908 C2921 0.929 . S
H2909 C2919 0.929 . S
H2910 C2914 0.929 . S
H2911 C2920 0.929 . S
C2912 H2906 0.930 . S
C2912 C2913 1.367 . S
C2912 C2920 1.378 . S
C2913 C2912 1.367 . S
C2913 C2921 1.433 . S
C2914 H2910 0.929 . S
C2914 C2916 1.378 . S
C2914 C2918 1.350 . S
C2915 C2918 1.463 . S
C2915 C2920 1.350 . S
C2915 N2923 1.427 . S
C2916 H2907 0.930 . S
C2916 C2914 1.378 . S
C2916 C2917 1.367 . S
C2917 C2916 1.367 . S
C2917 C2919 1.433 . S
C2918 C2914 1.350 . S
C2918 C2915 1.463 . S
C2918 N2922 1.427 . S
C2919 H2909 0.929 . S
C2919 C2917 1.433 . S
C2919 N2922 1.384 . S
C2920 H2911 0.929 . S
C2920 C2912 1.378 . S
C2920 C2915 1.350 . S
C2921 H2908 0.929 . S
C2921 C2913 1.433 . S
C2921 N2923 1.384 . S
N2922 C2918 1.427 . S
N2922 C2919 1.384 . S
N2923 C2915 1.427 . S
N2923 C2921 1.384 . S
H2924 C2930 0.930 . S
H2925 C2934 0.930 . S
H2926 C2939 0.929 . S
H2927 C2937 0.929 . S
H2928 C2932 0.929 . S
H2929 C2938 0.929 . S
C2930 H2924 0.930 . S
C2930 C2931 1.367 . S
C2930 C2938 1.378 . S
C2931 C2930 1.367 . S
C2931 C2939 1.433 . S
C2932 H2928 0.929 . S
C2932 C2934 1.378 . S
C2932 C2936 1.350 . S
C2933 C2936 1.463 . S
C2933 C2938 1.350 . S
C2933 N2941 1.427 . S
C2934 H2925 0.930 . S
C2934 C2932 1.378 . S
C2934 C2935 1.367 . S
C2935 C2934 1.367 . S
C2935 C2937 1.433 . S
C2936 C2932 1.350 . S
C2936 C2933 1.463 . S
C2936 N2940 1.427 . S
C2937 H2927 0.929 . S
C2937 C2935 1.433 . S
C2937 N2940 1.384 . S
C2938 H2929 0.929 . S
C2938 C2930 1.378 . S
C2938 C2933 1.350 . S
C2939 H2926 0.929 . S
C2939 C2931 1.433 . S
C2939 N2941 1.384 . S
N2940 C2936 1.427 . S
N2940 C2937 1.384 . S
N2941 C2933 1.427 . S
N2941 C2939 1.384 . S
H2942 C2948 0.930 . S
H2943 C2952 0.930 . S
H2944 C2957 0.929 . S
H2945 C2955 0.929 . S
H2946 C2950 0.929 . S
H2947 C2956 0.929 . S
C2948 H2942 0.930 . S
C2948 C2949 1.367 . S
C2948 C2956 1.378 . S
C2949 C2948 1.367 . S
C2949 C2957 1.433 . S
C2950 H2946 0.929 . S
C2950 C2952 1.378 . S
C2950 C2954 1.350 . S
C2951 C2954 1.463 . S
C2951 C2956 1.350 . S
C2951 N2959 1.427 . S
C2952 H2943 0.930 . S
C2952 C2950 1.378 . S
C2952 C2953 1.367 . S
C2953 C2952 1.367 . S
C2953 C2955 1.433 . S
C2954 C2950 1.350 . S
C2954 C2951 1.463 . S
C2954 N2958 1.427 . S
C2955 H2945 0.929 . S
C2955 C2953 1.433 . S
C2955 N2958 1.384 . S
C2956 H2947 0.929 . S
C2956 C2948 1.378 . S
C2956 C2951 1.350 . S
C2957 H2944 0.929 . S
C2957 C2949 1.433 . S
C2957 N2959 1.384 . S
N2958 C2954 1.427 . S
N2958 C2955 1.384 . S
N2959 C2951 1.427 . S
N2959 C2957 1.384 . S
H2960 C2966 0.930 . S
H2961 C2970 0.930 . S
H2962 C2975 0.929 . S
H2963 C2973 0.929 . S
H2964 C2968 0.929 . S
H2965 C2974 0.929 . S
C2966 H2960 0.930 . S
C2966 C2967 1.367 . S
C2966 C2974 1.378 . S
C2967 C2966 1.367 . S
C2967 C2975 1.433 . S
C2968 H2964 0.929 . S
C2968 C2970 1.378 . S
C2968 C2972 1.350 . S
C2969 C2972 1.463 . S
C2969 C2974 1.350 . S
C2969 N2977 1.427 . S
C2970 H2961 0.930 . S
C2970 C2968 1.378 . S
C2970 C2971 1.367 . S
C2971 C2970 1.367 . S
C2971 C2973 1.433 . S
C2972 C2968 1.350 . S
C2972 C2969 1.463 . S
C2972 N2976 1.427 . S
C2973 H2963 0.929 . S
C2973 C2971 1.433 . S
C2973 N2976 1.384 . S
C2974 H2965 0.929 . S
C2974 C2966 1.378 . S
C2974 C2969 1.350 . S
C2975 H2962 0.929 . S
C2975 C2967 1.433 . S
C2975 N2977 1.384 . S
N2976 C2972 1.427 . S
N2976 C2973 1.384 . S
N2977 C2969 1.427 . S
N2977 C2975 1.384 . S
H2978 C2984 0.930 . S
H2979 C2988 0.930 . S
H2980 C2993 0.929 . S
H2981 C2991 0.929 . S
H2982 C2986 0.929 . S
H2983 C2992 0.929 . S
C2984 H2978 0.930 . S
C2984 C2985 1.367 . S
C2984 C2992 1.378 . S
C2985 C2984 1.367 . S
C2985 C2993 1.433 . S
C2986 H2982 0.929 . S
C2986 C2988 1.378 . S
C2986 C2990 1.350 . S
C2987 C2990 1.463 . S
C2987 C2992 1.350 . S
C2987 N2995 1.427 . S
C2988 H2979 0.930 . S
C2988 C2986 1.378 . S
C2988 C2989 1.367 . S
C2989 C2988 1.367 . S
C2989 C2991 1.433 . S
C2990 C2986 1.350 . S
C2990 C2987 1.463 . S
C2990 N2994 1.427 . S
C2991 H2981 0.929 . S
C2991 C2989 1.433 . S
C2991 N2994 1.384 . S
C2992 H2983 0.929 . S
C2992 C2984 1.378 . S
C2992 C2987 1.350 . S
C2993 H2980 0.929 . S
C2993 C2985 1.433 . S
C2993 N2995 1.384 . S
N2994 C2990 1.427 . S
N2994 C2991 1.384 . S
N2995 C2987 1.427 . S
N2995 C2993 1.384 . S
H2996 C3002 0.930 . S
H2997 C3006 0.930 . S
H2998 C3011 0.929 . S
H2999 C3009 0.929 . S
H3000 C3004 0.929 . S
H3001 C3010 0.929 . S
C3002 H2996 0.930 . S
C3002 C3003 1.367 . S
C3002 C3010 1.378 . S
C3003 C3002 1.367 . S
C3003 C3011 1.433 . S
C3004 H3000 0.929 . S
C3004 C3006 1.378 . S
C3004 C3008 1.350 . S
C3005 C3008 1.463 . S
C3005 C3010 1.350 . S
C3005 N3013 1.427 . S
C3006 H2997 0.930 . S
C3006 C3004 1.378 . S
C3006 C3007 1.367 . S
C3007 C3006 1.367 . S
C3007 C3009 1.433 . S
C3008 C3004 1.350 . S
C3008 C3005 1.463 . S
C3008 N3012 1.427 . S
C3009 H2999 0.929 . S
C3009 C3007 1.433 . S
C3009 N3012 1.384 . S
C3010 H3001 0.929 . S
C3010 C3002 1.378 . S
C3010 C3005 1.350 . S
C3011 H2998 0.929 . S
C3011 C3003 1.433 . S
C3011 N3013 1.384 . S
N3012 C3008 1.427 . S
N3012 C3009 1.384 . S
N3013 C3005 1.427 . S
N3013 C3011 1.384 . S
H3014 C3020 0.930 . S
H3015 C3024 0.930 . S
H3016 C3029 0.929 . S
H3017 C3027 0.929 . S
H3018 C3022 0.929 . S
H3019 C3028 0.929 . S
C3020 H3014 0.930 . S
C3020 C3021 1.367 . S
C3020 C3028 1.378 . S
C3021 C3020 1.367 . S
C3021 C3029 1.433 . S
C3022 H3018 0.929 . S
C3022 C3024 1.378 . S
C3022 C3026 1.350 . S
C3023 C3026 1.463 . S
C3023 C3028 1.350 . S
C3023 N3031 1.427 . S
C3024 H3015 0.930 . S
C3024 C3022 1.378 . S
C3024 C3025 1.367 . S
C3025 C3024 1.367 . S
C3025 C3027 1.433 . S
C3026 C3022 1.350 . S
C3026 C3023 1.463 . S
C3026 N3030 1.427 . S
C3027 H3017 0.929 . S
C3027 C3025 1.433 . S
C3027 N3030 1.384 . S
C3028 H3019 0.929 . S
C3028 C3020 1.378 . S
C3028 C3023 1.350 . S
C3029 H3016 0.929 . S
C3029 C3021 1.433 . S
C3029 N3031 1.384 . S
N3030 C3026 1.427 . S
N3030 C3027 1.384 . S
N3031 C3023 1.427 . S
N3031 C3029 1.384 . S
H3032 C3038 0.930 . S
H3033 C3042 0.930 . S
H3034 C3047 0.929 . S
H3035 C3045 0.929 . S
H3036 C3040 0.929 . S
H3037 C3046 0.929 . S
C3038 H3032 0.930 . S
C3038 C3039 1.367 . S
C3038 C3046 1.378 . S
C3039 C3038 1.367 . S
C3039 C3047 1.433 . S
C3040 H3036 0.929 . S
C3040 C3042 1.378 . S
C3040 C3044 1.350 . S
C3041 C3044 1.463 . S
C3041 C3046 1.350 . S
C3041 N3049 1.427 . S
C3042 H3033 0.930 . S
C3042 C3040 1.378 . S
C3042 C3043 1.367 . S
C3043 C3042 1.367 . S
C3043 C3045 1.433 . S
C3044 C3040 1.350 . S
C3044 C3041 1.463 . S
C3044 N3048 1.427 . S
C3045 H3035 0.929 . S
C3045 C3043 1.433 . S
C3045 N3048 1.384 . S
C3046 H3037 0.929 . S
C3046 C3038 1.378 . S
C3046 C3041 1.350 . S
C3047 H3034 0.929 . S
C3047 C3039 1.433 . S
C3047 N3049 1.384 . S
N3048 C3044 1.427 . S
N3048 C3045 1.384 . S
N3049 C3041 1.427 . S
N3049 C3047 1.384 . S
H3050 C3056 0.930 . S
H3051 C3060 0.930 . S
H3052 C3065 0.929 . S
H3053 C3063 0.929 . S
H3054 C3058 0.929 . S
H3055 C3064 0.929 . S
C3056 H3050 0.930 . S
C3056 C3057 1.367 . S
C3056 C3064 1.378 . S
C3057 C3056 1.367 . S
C3057 C3065 1.433 . S
C3058 H3054 0.929 . S
C3058 C3060 1.378 . S
C3058 C3062 1.350 . S
C3059 C3062 1.463 . S
C3059 C3064 1.350 . S
C3059 N3067 1.427 . S
C3060 H3051 0.930 . S
C3060 C3058 1.378 . S
C3060 C3061 1.367 . S
C3061 C3060 1.367 . S
C3061 C3063 1.433 . S
C3062 C3058 1.350 . S
C3062 C3059 1.463 . S
C3062 N3066 1.427 . S
C3063 H3053 0.929 . S
C3063 C3061 1.433 . S
C3063 N3066 1.384 . S
C3064 H3055 0.929 . S
C3064 C3056 1.378 . S
C3064 C3059 1.350 . S
C3065 H3052 0.929 . S
C3065 C3057 1.433 . S
C3065 N3067 1.384 . S
N3066 C3062 1.427 . S
N3066 C3063 1.384 . S
N3067 C3059 1.427 . S
N3067 C3065 1.384 . S
H3068 C3074 0.930 . S
H3069 C3078 0.930 . S
H3070 C3083 0.929 . S
H3071 C3081 0.929 . S
H3072 C3076 0.929 . S
H3073 C3082 0.929 . S
C3074 H3068 0.930 . S
C3074 C3075 1.367 . S
C3074 C3082 1.378 . S
C3075 C3074 1.367 . S
C3075 C3083 1.433 . S
C3076 H3072 0.929 . S
C3076 C3078 1.378 . S
C3076 C3080 1.350 . S
C3077 C3080 1.463 . S
C3077 C3082 1.350 . S
C3077 N3085 1.427 . S
C3078 H3069 0.930 . S
C3078 C3076 1.378 . S
C3078 C3079 1.367 . S
C3079 C3078 1.367 . S
C3079 C3081 1.433 . S
C3080 C3076 1.350 . S
C3080 C3077 1.463 . S
C3080 N3084 1.427 . S
C3081 H3071 0.929 . S
C3081 C3079 1.433 . S
C3081 N3084 1.384 . S
C3082 H3073 0.929 . S
C3082 C3074 1.378 . S
C3082 C3077 1.350 . S
C3083 H3070 0.929 . S
C3083 C3075 1.433 . S
C3083 N3085 1.384 . S
N3084 C3080 1.427 . S
N3084 C3081 1.384 . S
N3085 C3077 1.427 . S
N3085 C3083 1.384 . S
H3086 C3092 0.930 . S
H3087 C3096 0.930 . S
H3088 C3101 0.929 . S
H3089 C3099 0.929 . S
H3090 C3094 0.929 . S
H3091 C3100 0.929 . S
C3092 H3086 0.930 . S
C3092 C3093 1.367 . S
C3092 C3100 1.378 . S
C3093 C3092 1.367 . S
C3093 C3101 1.433 . S
C3094 H3090 0.929 . S
C3094 C3096 1.378 . S
C3094 C3098 1.350 . S
C3095 C3098 1.463 . S
C3095 C3100 1.350 . S
C3095 N3103 1.427 . S
C3096 H3087 0.930 . S
C3096 C3094 1.378 . S
C3096 C3097 1.367 . S
C3097 C3096 1.367 . S
C3097 C3099 1.433 . S
C3098 C3094 1.350 . S
C3098 C3095 1.463 . S
C3098 N3102 1.427 . S
C3099 H3089 0.929 . S
C3099 C3097 1.433 . S
C3099 N3102 1.384 . S
C3100 H3091 0.929 . S
C3100 C3092 1.378 . S
C3100 C3095 1.350 . S
C3101 H3088 0.929 . S
C3101 C3093 1.433 . S
C3101 N3103 1.384 . S
N3102 C3098 1.427 . S
N3102 C3099 1.384 . S
N3103 C3095 1.427 . S
N3103 C3101 1.384 . S
H3104 C3110 0.930 . S
H3105 C3114 0.930 . S
H3106 C3119 0.929 . S
H3107 C3117 0.929 . S
H3108 C3112 0.929 . S
H3109 C3118 0.929 . S
C3110 H3104 0.930 . S
C3110 C3111 1.367 . S
C3110 C3118 1.378 . S
C3111 C3110 1.367 . S
C3111 C3119 1.433 . S
C3112 H3108 0.929 . S
C3112 C3114 1.378 . S
C3112 C3116 1.350 . S
C3113 C3116 1.463 1_455 S
C3113 C3118 1.350 . S
C3113 N3121 1.427 . S
C3114 H3105 0.930 . S
C3114 C3112 1.378 . S
C3114 C3115 1.367 . S
C3115 C3114 1.367 . S
C3115 C3117 1.433 . S
C3116 C3112 1.350 . S
C3116 C3113 1.463 1_655 S
C3116 N3120 1.427 . S
C3117 H3107 0.929 . S
C3117 C3115 1.433 . S
C3117 N3120 1.384 . S
C3118 H3109 0.929 . S
C3118 C3110 1.378 . S
C3118 C3113 1.350 . S
C3119 H3106 0.929 . S
C3119 C3111 1.433 . S
C3119 N3121 1.384 . S
N3120 C3116 1.427 . S
N3120 C3117 1.384 . S
N3121 C3113 1.427 . S
N3121 C3119 1.384 . S
H3122 C3128 0.930 . S
H3123 C3132 0.930 . S
H3124 C3137 0.929 . S
H3125 C3135 0.929 . S
H3126 C3130 0.929 . S
H3127 C3136 0.929 . S
C3128 H3122 0.930 . S
C3128 C3129 1.367 . S
C3128 C3136 1.378 . S
C3129 C3128 1.367 . S
C3129 C3137 1.433 . S
C3130 H3126 0.929 . S
C3130 C3132 1.378 . S
C3130 C3134 1.350 . S
C3131 C3134 1.463 . S
C3131 C3136 1.350 . S
C3131 N3139 1.427 . S
C3132 H3123 0.930 . S
C3132 C3130 1.378 . S
C3132 C3133 1.367 . S
C3133 C3132 1.367 . S
C3133 C3135 1.433 . S
C3134 C3130 1.350 . S
C3134 C3131 1.463 . S
C3134 N3138 1.427 . S
C3135 H3125 0.929 . S
C3135 C3133 1.433 . S
C3135 N3138 1.384 . S
C3136 H3127 0.929 . S
C3136 C3128 1.378 . S
C3136 C3131 1.350 . S
C3137 H3124 0.929 . S
C3137 C3129 1.433 . S
C3137 N3139 1.384 . S
N3138 C3134 1.427 . S
N3138 C3135 1.384 . S
N3139 C3131 1.427 . S
N3139 C3137 1.384 . S
H3140 C3146 0.930 . S
H3141 C3150 0.930 . S
H3142 C3155 0.929 . S
H3143 C3153 0.929 . S
H3144 C3148 0.929 . S
H3145 C3154 0.929 . S
C3146 H3140 0.930 . S
C3146 C3147 1.367 . S
C3146 C3154 1.378 . S
C3147 C3146 1.367 . S
C3147 C3155 1.433 . S
C3148 H3144 0.929 . S
C3148 C3150 1.378 . S
C3148 C3152 1.350 . S
C3149 C3152 1.463 . S
C3149 C3154 1.350 . S
C3149 N3157 1.427 . S
C3150 H3141 0.930 . S
C3150 C3148 1.378 . S
C3150 C3151 1.367 . S
C3151 C3150 1.367 . S
C3151 C3153 1.433 . S
C3152 C3148 1.350 . S
C3152 C3149 1.463 . S
C3152 N3156 1.427 . S
C3153 H3143 0.929 . S
C3153 C3151 1.433 . S
C3153 N3156 1.384 . S
C3154 H3145 0.929 . S
C3154 C3146 1.378 . S
C3154 C3149 1.350 . S
C3155 H3142 0.929 . S
C3155 C3147 1.433 . S
C3155 N3157 1.384 . S
N3156 C3152 1.427 . S
N3156 C3153 1.384 . S
N3157 C3149 1.427 . S
N3157 C3155 1.384 . S
H3158 C3164 0.930 . S
H3159 C3168 0.930 . S
H3160 C3173 0.929 . S
H3161 C3171 0.929 . S
H3162 C3166 0.929 . S
H3163 C3172 0.929 . S
C3164 H3158 0.930 . S
C3164 C3165 1.367 . S
C3164 C3172 1.378 . S
C3165 C3164 1.367 . S
C3165 C3173 1.433 . S
C3166 H3162 0.929 . S
C3166 C3168 1.378 . S
C3166 C3170 1.350 . S
C3167 C3170 1.463 . S
C3167 C3172 1.350 . S
C3167 N3175 1.427 . S
C3168 H3159 0.930 . S
C3168 C3166 1.378 . S
C3168 C3169 1.367 . S
C3169 C3168 1.367 . S
C3169 C3171 1.433 . S
C3170 C3166 1.350 . S
C3170 C3167 1.463 . S
C3170 N3174 1.427 . S
C3171 H3161 0.929 . S
C3171 C3169 1.433 . S
C3171 N3174 1.384 . S
C3172 H3163 0.929 . S
C3172 C3164 1.378 . S
C3172 C3167 1.350 . S
C3173 H3160 0.929 . S
C3173 C3165 1.433 . S
C3173 N3175 1.384 . S
N3174 C3170 1.427 . S
N3174 C3171 1.384 . S
N3175 C3167 1.427 . S
N3175 C3173 1.384 . S
H3176 C3182 0.930 . S
H3177 C3186 0.930 . S
H3178 C3191 0.929 . S
H3179 C3189 0.929 . S
H3180 C3184 0.929 . S
H3181 C3190 0.929 . S
C3182 H3176 0.930 . S
C3182 C3183 1.367 . S
C3182 C3190 1.378 . S
C3183 C3182 1.367 . S
C3183 C3191 1.433 . S
C3184 H3180 0.929 . S
C3184 C3186 1.378 . S
C3184 C3188 1.350 . S
C3185 C3188 1.463 1_655 S
C3185 C3190 1.350 . S
C3185 N3193 1.427 . S
C3186 H3177 0.930 . S
C3186 C3184 1.378 . S
C3186 C3187 1.367 . S
C3187 C3186 1.367 . S
C3187 C3189 1.433 . S
C3188 C3184 1.350 . S
C3188 C3185 1.463 1_455 S
C3188 N3192 1.427 . S
C3189 H3179 0.929 . S
C3189 C3187 1.433 . S
C3189 N3192 1.384 . S
C3190 H3181 0.929 . S
C3190 C3182 1.378 . S
C3190 C3185 1.350 . S
C3191 H3178 0.929 . S
C3191 C3183 1.433 . S
C3191 N3193 1.384 . S
N3192 C3188 1.427 . S
N3192 C3189 1.384 . S
N3193 C3185 1.427 . S
N3193 C3191 1.384 . S
H3194 C3200 0.930 . S
H3195 C3204 0.930 . S
H3196 C3209 0.929 . S
H3197 C3207 0.929 . S
H3198 C3202 0.929 . S
H3199 C3208 0.929 . S
C3200 H3194 0.930 . S
C3200 C3201 1.367 . S
C3200 C3208 1.378 . S
C3201 C3200 1.367 . S
C3201 C3209 1.433 . S
C3202 H3198 0.929 . S
C3202 C3204 1.378 . S
C3202 C3206 1.350 . S
C3203 C3206 1.463 . S
C3203 C3208 1.350 . S
C3203 N3211 1.427 . S
C3204 H3195 0.930 . S
C3204 C3202 1.378 . S
C3204 C3205 1.367 . S
C3205 C3204 1.367 . S
C3205 C3207 1.433 . S
C3206 C3202 1.350 . S
C3206 C3203 1.463 . S
C3206 N3210 1.427 . S
C3207 H3197 0.929 . S
C3207 C3205 1.433 . S
C3207 N3210 1.384 . S
C3208 H3199 0.929 . S
C3208 C3200 1.378 . S
C3208 C3203 1.350 . S
C3209 H3196 0.929 . S
C3209 C3201 1.433 . S
C3209 N3211 1.384 . S
N3210 C3206 1.427 . S
N3210 C3207 1.384 . S
N3211 C3203 1.427 . S
N3211 C3209 1.384 . S
H3212 C3218 0.930 . S
H3213 C3222 0.930 . S
H3214 C3227 0.929 . S
H3215 C3225 0.929 . S
H3216 C3220 0.929 . S
H3217 C3226 0.929 . S
C3218 H3212 0.930 . S
C3218 C3219 1.367 . S
C3218 C3226 1.378 . S
C3219 C3218 1.367 . S
C3219 C3227 1.433 . S
C3220 H3216 0.929 . S
C3220 C3222 1.378 . S
C3220 C3224 1.350 . S
C3221 C3224 1.463 . S
C3221 C3226 1.350 . S
C3221 N3229 1.427 . S
C3222 H3213 0.930 . S
C3222 C3220 1.378 . S
C3222 C3223 1.367 . S
C3223 C3222 1.367 . S
C3223 C3225 1.433 . S
C3224 C3220 1.350 . S
C3224 C3221 1.463 . S
C3224 N3228 1.427 . S
C3225 H3215 0.929 . S
C3225 C3223 1.433 . S
C3225 N3228 1.384 . S
C3226 H3217 0.929 . S
C3226 C3218 1.378 . S
C3226 C3221 1.350 . S
C3227 H3214 0.929 . S
C3227 C3219 1.433 . S
C3227 N3229 1.384 . S
N3228 C3224 1.427 . S
N3228 C3225 1.384 . S
N3229 C3221 1.427 . S
N3229 C3227 1.384 . S
H3230 C3236 0.930 . S
H3231 C3240 0.930 . S
H3232 C3245 0.929 . S
H3233 C3243 0.929 . S
H3234 C3238 0.929 . S
H3235 C3244 0.929 . S
C3236 H3230 0.930 . S
C3236 C3237 1.367 . S
C3236 C3244 1.378 . S
C3237 C3236 1.367 . S
C3237 C3245 1.433 . S
C3238 H3234 0.929 . S
C3238 C3240 1.378 . S
C3238 C3242 1.350 . S
C3239 C3242 1.463 . S
C3239 C3244 1.350 . S
C3239 N3247 1.427 . S
C3240 H3231 0.930 . S
C3240 C3238 1.378 . S
C3240 C3241 1.367 . S
C3241 C3240 1.367 . S
C3241 C3243 1.433 . S
C3242 C3238 1.350 . S
C3242 C3239 1.463 . S
C3242 N3246 1.427 . S
C3243 H3233 0.929 . S
C3243 C3241 1.433 . S
C3243 N3246 1.384 . S
C3244 H3235 0.929 . S
C3244 C3236 1.378 . S
C3244 C3239 1.350 . S
C3245 H3232 0.929 . S
C3245 C3237 1.433 . S
C3245 N3247 1.384 . S
N3246 C3242 1.427 . S
N3246 C3243 1.384 . S
N3247 C3239 1.427 . S
N3247 C3245 1.384 . S
H3248 C3254 0.930 . S
H3249 C3258 0.930 . S
H3250 C3263 0.929 . S
H3251 C3261 0.929 . S
H3252 C3256 0.929 . S
H3253 C3262 0.929 . S
C3254 H3248 0.930 . S
C3254 C3255 1.367 . S
C3254 C3262 1.378 . S
C3255 C3254 1.367 . S
C3255 C3263 1.433 . S
C3256 H3252 0.929 . S
C3256 C3258 1.378 . S
C3256 C3260 1.350 . S
C3257 C3260 1.463 . S
C3257 C3262 1.350 . S
C3257 N3265 1.427 . S
C3258 H3249 0.930 . S
C3258 C3256 1.378 . S
C3258 C3259 1.367 . S
C3259 C3258 1.367 . S
C3259 C3261 1.433 . S
C3260 C3256 1.350 . S
C3260 C3257 1.463 . S
C3260 N3264 1.427 . S
C3261 H3251 0.929 . S
C3261 C3259 1.433 . S
C3261 N3264 1.384 . S
C3262 H3253 0.929 . S
C3262 C3254 1.378 . S
C3262 C3257 1.350 . S
C3263 H3250 0.929 . S
C3263 C3255 1.433 . S
C3263 N3265 1.384 . S
N3264 C3260 1.427 . S
N3264 C3261 1.384 . S
N3265 C3257 1.427 . S
N3265 C3263 1.384 . S
H3266 C3272 0.930 . S
H3267 C3276 0.930 . S
H3268 C3281 0.929 . S
H3269 C3279 0.929 . S
H3270 C3274 0.929 . S
H3271 C3280 0.929 . S
C3272 H3266 0.930 . S
C3272 C3273 1.367 . S
C3272 C3280 1.378 . S
C3273 C3272 1.367 . S
C3273 C3281 1.433 . S
C3274 H3270 0.929 . S
C3274 C3276 1.378 . S
C3274 C3278 1.350 . S
C3275 C3278 1.463 . S
C3275 C3280 1.350 . S
C3275 N3283 1.427 . S
C3276 H3267 0.930 . S
C3276 C3274 1.378 . S
C3276 C3277 1.367 . S
C3277 C3276 1.367 . S
C3277 C3279 1.433 . S
C3278 C3274 1.350 . S
C3278 C3275 1.463 . S
C3278 N3282 1.427 . S
C3279 H3269 0.929 . S
C3279 C3277 1.433 . S
C3279 N3282 1.384 . S
C3280 H3271 0.929 . S
C3280 C3272 1.378 . S
C3280 C3275 1.350 . S
C3281 H3268 0.929 . S
C3281 C3273 1.433 . S
C3281 N3283 1.384 . S
N3282 C3278 1.427 . S
N3282 C3279 1.384 . S
N3283 C3275 1.427 . S
N3283 C3281 1.384 . S
H3284 C3290 0.930 . S
H3285 C3294 0.930 . S
H3286 C3299 0.929 . S
H3287 C3297 0.929 . S
H3288 C3292 0.929 . S
H3289 C3298 0.929 . S
C3290 H3284 0.930 . S
C3290 C3291 1.367 . S
C3290 C3298 1.378 . S
C3291 C3290 1.367 . S
C3291 C3299 1.433 . S
C3292 H3288 0.929 . S
C3292 C3294 1.378 . S
C3292 C3296 1.350 . S
C3293 C3296 1.463 . S
C3293 C3298 1.350 . S
C3293 N3301 1.427 . S
C3294 H3285 0.930 . S
C3294 C3292 1.378 . S
C3294 C3295 1.367 . S
C3295 C3294 1.367 . S
C3295 C3297 1.433 . S
C3296 C3292 1.350 . S
C3296 C3293 1.463 . S
C3296 N3300 1.427 . S
C3297 H3287 0.929 . S
C3297 C3295 1.433 . S
C3297 N3300 1.384 . S
C3298 H3289 0.929 . S
C3298 C3290 1.378 . S
C3298 C3293 1.350 . S
C3299 H3286 0.929 . S
C3299 C3291 1.433 . S
C3299 N3301 1.384 . S
N3300 C3296 1.427 . S
N3300 C3297 1.384 . S
N3301 C3293 1.427 . S
N3301 C3299 1.384 . S
H3302 C3308 0.930 . S
H3303 C3312 0.930 . S
H3304 C3317 0.929 . S
H3305 C3315 0.929 . S
H3306 C3310 0.929 . S
H3307 C3316 0.929 . S
C3308 H3302 0.930 . S
C3308 C3309 1.367 . S
C3308 C3316 1.378 . S
C3309 C3308 1.367 . S
C3309 C3317 1.433 . S
C3310 H3306 0.929 . S
C3310 C3312 1.378 . S
C3310 C3314 1.350 . S
C3311 C3314 1.463 . S
C3311 C3316 1.350 . S
C3311 N3319 1.427 . S
C3312 H3303 0.930 . S
C3312 C3310 1.378 . S
C3312 C3313 1.367 . S
C3313 C3312 1.367 . S
C3313 C3315 1.433 . S
C3314 C3310 1.350 . S
C3314 C3311 1.463 . S
C3314 N3318 1.427 . S
C3315 H3305 0.929 . S
C3315 C3313 1.433 . S
C3315 N3318 1.384 . S
C3316 H3307 0.929 . S
C3316 C3308 1.378 . S
C3316 C3311 1.350 . S
C3317 H3304 0.929 . S
C3317 C3309 1.433 . S
C3317 N3319 1.384 . S
N3318 C3314 1.427 . S
N3318 C3315 1.384 . S
N3319 C3311 1.427 . S
N3319 C3317 1.384 . S
H3320 C3326 0.930 . S
H3321 C3330 0.930 . S
H3322 C3335 0.929 . S
H3323 C3333 0.929 . S
H3324 C3328 0.929 . S
H3325 C3334 0.929 . S
C3326 H3320 0.930 . S
C3326 C3327 1.367 . S
C3326 C3334 1.378 . S
C3327 C3326 1.367 . S
C3327 C3335 1.433 . S
C3328 H3324 0.929 . S
C3328 C3330 1.378 . S
C3328 C3332 1.350 . S
C3329 C3332 1.463 . S
C3329 C3334 1.350 . S
C3329 N3337 1.427 . S
C3330 H3321 0.930 . S
C3330 C3328 1.378 . S
C3330 C3331 1.367 . S
C3331 C3330 1.367 . S
C3331 C3333 1.433 . S
C3332 C3328 1.350 . S
C3332 C3329 1.463 . S
C3332 N3336 1.427 . S
C3333 H3323 0.929 . S
C3333 C3331 1.433 . S
C3333 N3336 1.384 . S
C3334 H3325 0.929 . S
C3334 C3326 1.378 . S
C3334 C3329 1.350 . S
C3335 H3322 0.929 . S
C3335 C3327 1.433 . S
C3335 N3337 1.384 . S
N3336 C3332 1.427 . S
N3336 C3333 1.384 . S
N3337 C3329 1.427 . S
N3337 C3335 1.384 . S
H3338 C3344 0.930 . S
H3339 C3348 0.930 . S
H3340 C3353 0.929 . S
H3341 C3351 0.929 . S
H3342 C3346 0.929 . S
H3343 C3352 0.929 . S
C3344 H3338 0.930 . S
C3344 C3345 1.367 . S
C3344 C3352 1.378 . S
C3345 C3344 1.367 . S
C3345 C3353 1.433 . S
C3346 H3342 0.929 . S
C3346 C3348 1.378 . S
C3346 C3350 1.350 . S
C3347 C3350 1.463 1_655 S
C3347 C3352 1.350 . S
C3347 N3355 1.427 . S
C3348 H3339 0.930 . S
C3348 C3346 1.378 . S
C3348 C3349 1.367 . S
C3349 C3348 1.367 . S
C3349 C3351 1.433 . S
C3350 C3346 1.350 . S
C3350 C3347 1.463 1_455 S
C3350 N3354 1.427 . S
C3351 H3341 0.929 . S
C3351 C3349 1.433 . S
C3351 N3354 1.384 . S
C3352 H3343 0.929 . S
C3352 C3344 1.378 . S
C3352 C3347 1.350 . S
C3353 H3340 0.929 . S
C3353 C3345 1.433 . S
C3353 N3355 1.384 . S
N3354 C3350 1.427 . S
N3354 C3351 1.384 . S
N3355 C3347 1.427 . S
N3355 C3353 1.384 . S
H3356 C3362 0.930 . S
H3357 C3366 0.930 . S
H3358 C3371 0.929 . S
H3359 C3369 0.929 . S
H3360 C3364 0.929 . S
H3361 C3370 0.929 . S
C3362 H3356 0.930 . S
C3362 C3363 1.367 . S
C3362 C3370 1.378 . S
C3363 C3362 1.367 . S
C3363 C3371 1.433 . S
C3364 H3360 0.929 . S
C3364 C3366 1.378 . S
C3364 C3368 1.350 . S
C3365 C3368 1.463 . S
C3365 C3370 1.350 . S
C3365 N3373 1.427 . S
C3366 H3357 0.930 . S
C3366 C3364 1.378 . S
C3366 C3367 1.367 . S
C3367 C3366 1.367 . S
C3367 C3369 1.433 . S
C3368 C3364 1.350 . S
C3368 C3365 1.463 . S
C3368 N3372 1.427 . S
C3369 H3359 0.929 . S
C3369 C3367 1.433 . S
C3369 N3372 1.384 . S
C3370 H3361 0.929 . S
C3370 C3362 1.378 . S
C3370 C3365 1.350 . S
C3371 H3358 0.929 . S
C3371 C3363 1.433 . S
C3371 N3373 1.384 . S
N3372 C3368 1.427 . S
N3372 C3369 1.384 . S
N3373 C3365 1.427 . S
N3373 C3371 1.384 . S
H3374 C3380 0.930 . S
H3375 C3384 0.930 . S
H3376 C3389 0.929 . S
H3377 C3387 0.929 . S
H3378 C3382 0.929 . S
H3379 C3388 0.929 . S
C3380 H3374 0.930 . S
C3380 C3381 1.367 . S
C3380 C3388 1.378 . S
C3381 C3380 1.367 . S
C3381 C3389 1.433 . S
C3382 H3378 0.929 . S
C3382 C3384 1.378 . S
C3382 C3386 1.350 . S
C3383 C3386 1.463 1_455 S
C3383 C3388 1.350 . S
C3383 N3391 1.427 . S
C3384 H3375 0.930 . S
C3384 C3382 1.378 . S
C3384 C3385 1.367 . S
C3385 C3384 1.367 . S
C3385 C3387 1.433 . S
C3386 C3382 1.350 . S
C3386 C3383 1.463 1_655 S
C3386 N3390 1.427 . S
C3387 H3377 0.929 . S
C3387 C3385 1.433 . S
C3387 N3390 1.384 . S
C3388 H3379 0.929 . S
C3388 C3380 1.378 . S
C3388 C3383 1.350 . S
C3389 H3376 0.929 . S
C3389 C3381 1.433 . S
C3389 N3391 1.384 . S
N3390 C3386 1.427 . S
N3390 C3387 1.384 . S
N3391 C3383 1.427 . S
N3391 C3389 1.384 . S
H3392 C3398 0.930 . S
H3393 C3402 0.930 . S
H3394 C3407 0.929 . S
H3395 C3405 0.929 . S
H3396 C3400 0.929 . S
H3397 C3406 0.929 . S
C3398 H3392 0.930 . S
C3398 C3399 1.367 . S
C3398 C3406 1.378 . S
C3399 C3398 1.367 . S
C3399 C3407 1.433 . S
C3400 H3396 0.929 . S
C3400 C3402 1.378 . S
C3400 C3404 1.350 . S
C3401 C3404 1.463 1_556 S
C3401 C3406 1.350 . S
C3401 N3409 1.427 . S
C3402 H3393 0.930 . S
C3402 C3400 1.378 . S
C3402 C3403 1.367 . S
C3403 C3402 1.367 . S
C3403 C3405 1.433 . S
C3404 C3400 1.350 . S
C3404 C3401 1.463 1_554 S
C3404 N3408 1.427 . S
C3405 H3395 0.929 . S
C3405 C3403 1.433 . S
C3405 N3408 1.384 . S
C3406 H3397 0.929 . S
C3406 C3398 1.378 . S
C3406 C3401 1.350 . S
C3407 H3394 0.929 . S
C3407 C3399 1.433 . S
C3407 N3409 1.384 . S
N3408 C3404 1.427 . S
N3408 C3405 1.384 . S
N3409 C3401 1.427 . S
N3409 C3407 1.384 . S
H3410 C3416 0.930 . S
H3411 C3420 0.930 . S
H3412 C3425 0.929 . S
H3413 C3423 0.929 . S
H3414 C3418 0.929 . S
H3415 C3424 0.929 . S
C3416 H3410 0.930 . S
C3416 C3417 1.367 . S
C3416 C3424 1.378 . S
C3417 C3416 1.367 . S
C3417 C3425 1.433 . S
C3418 H3414 0.929 . S
C3418 C3420 1.378 . S
C3418 C3422 1.350 . S
C3419 C3422 1.463 . S
C3419 C3424 1.350 . S
C3419 N3427 1.427 . S
C3420 H3411 0.930 . S
C3420 C3418 1.378 . S
C3420 C3421 1.367 . S
C3421 C3420 1.367 . S
C3421 C3423 1.433 . S
C3422 C3418 1.350 . S
C3422 C3419 1.463 . S
C3422 N3426 1.427 . S
C3423 H3413 0.929 . S
C3423 C3421 1.433 . S
C3423 N3426 1.384 . S
C3424 H3415 0.929 . S
C3424 C3416 1.378 . S
C3424 C3419 1.350 . S
C3425 H3412 0.929 . S
C3425 C3417 1.433 . S
C3425 N3427 1.384 . S
N3426 C3422 1.427 . S
N3426 C3423 1.384 . S
N3427 C3419 1.427 . S
N3427 C3425 1.384 . S
H3428 C3434 0.930 . S
H3429 C3438 0.930 . S
H3430 C3443 0.929 . S
H3431 C3441 0.929 . S
H3432 C3436 0.929 . S
H3433 C3442 0.929 . S
C3434 H3428 0.930 . S
C3434 C3435 1.367 . S
C3434 C3442 1.378 . S
C3435 C3434 1.367 . S
C3435 C3443 1.433 . S
C3436 H3432 0.929 . S
C3436 C3438 1.378 . S
C3436 C3440 1.350 . S
C3437 C3440 1.463 . S
C3437 C3442 1.350 . S
C3437 N3445 1.427 . S
C3438 H3429 0.930 . S
C3438 C3436 1.378 . S
C3438 C3439 1.367 . S
C3439 C3438 1.367 . S
C3439 C3441 1.433 . S
C3440 C3436 1.350 . S
C3440 C3437 1.463 . S
C3440 N3444 1.427 . S
C3441 H3431 0.929 . S
C3441 C3439 1.433 . S
C3441 N3444 1.384 . S
C3442 H3433 0.929 . S
C3442 C3434 1.378 . S
C3442 C3437 1.350 . S
C3443 H3430 0.929 . S
C3443 C3435 1.433 . S
C3443 N3445 1.384 . S
N3444 C3440 1.427 . S
N3444 C3441 1.384 . S
N3445 C3437 1.427 . S
N3445 C3443 1.384 . S
H3446 C3452 0.930 . S
H3447 C3456 0.930 . S
H3448 C3461 0.929 . S
H3449 C3459 0.929 . S
H3450 C3454 0.929 . S
H3451 C3460 0.929 . S
C3452 H3446 0.930 . S
C3452 C3453 1.367 . S
C3452 C3460 1.378 . S
C3453 C3452 1.367 . S
C3453 C3461 1.433 . S
C3454 H3450 0.929 . S
C3454 C3456 1.378 . S
C3454 C3458 1.350 . S
C3455 C3458 1.463 . S
C3455 C3460 1.350 . S
C3455 N3463 1.427 . S
C3456 H3447 0.930 . S
C3456 C3454 1.378 . S
C3456 C3457 1.367 . S
C3457 C3456 1.367 . S
C3457 C3459 1.433 . S
C3458 C3454 1.350 . S
C3458 C3455 1.463 . S
C3458 N3462 1.427 . S
C3459 H3449 0.929 . S
C3459 C3457 1.433 . S
C3459 N3462 1.384 . S
C3460 H3451 0.929 . S
C3460 C3452 1.378 . S
C3460 C3455 1.350 . S
C3461 H3448 0.929 . S
C3461 C3453 1.433 . S
C3461 N3463 1.384 . S
N3462 C3458 1.427 . S
N3462 C3459 1.384 . S
N3463 C3455 1.427 . S
N3463 C3461 1.384 . S
H3464 C3470 0.930 . S
H3465 C3474 0.930 . S
H3466 C3479 0.929 . S
H3467 C3477 0.929 . S
H3468 C3472 0.929 . S
H3469 C3478 0.929 . S
C3470 H3464 0.930 . S
C3470 C3471 1.367 . S
C3470 C3478 1.378 . S
C3471 C3470 1.367 . S
C3471 C3479 1.433 . S
C3472 H3468 0.929 . S
C3472 C3474 1.378 . S
C3472 C3476 1.350 . S
C3473 C3476 1.463 1_554 S
C3473 C3478 1.350 . S
C3473 N3481 1.427 . S
C3474 H3465 0.930 . S
C3474 C3472 1.378 . S
C3474 C3475 1.367 . S
C3475 C3474 1.367 . S
C3475 C3477 1.433 . S
C3476 C3472 1.350 . S
C3476 C3473 1.463 1_556 S
C3476 N3480 1.427 . S
C3477 H3467 0.929 . S
C3477 C3475 1.433 . S
C3477 N3480 1.384 . S
C3478 H3469 0.929 . S
C3478 C3470 1.378 . S
C3478 C3473 1.350 . S
C3479 H3466 0.929 . S
C3479 C3471 1.433 . S
C3479 N3481 1.384 . S
N3480 C3476 1.427 . S
N3480 C3477 1.384 . S
N3481 C3473 1.427 . S
N3481 C3479 1.384 . S
H3482 C3488 0.930 . S
H3483 C3492 0.930 . S
H3484 C3497 0.929 . S
H3485 C3495 0.929 . S
H3486 C3490 0.929 . S
H3487 C3496 0.929 . S
C3488 H3482 0.930 . S
C3488 C3489 1.367 . S
C3488 C3496 1.378 . S
C3489 C3488 1.367 . S
C3489 C3497 1.433 . S
C3490 H3486 0.929 . S
C3490 C3492 1.378 . S
C3490 C3494 1.350 . S
C3491 C3494 1.463 . S
C3491 C3496 1.350 . S
C3491 N3499 1.427 . S
C3492 H3483 0.930 . S
C3492 C3490 1.378 . S
C3492 C3493 1.367 . S
C3493 C3492 1.367 . S
C3493 C3495 1.433 . S
C3494 C3490 1.350 . S
C3494 C3491 1.463 . S
C3494 N3498 1.427 . S
C3495 H3485 0.929 . S
C3495 C3493 1.433 . S
C3495 N3498 1.384 . S
C3496 H3487 0.929 . S
C3496 C3488 1.378 . S
C3496 C3491 1.350 . S
C3497 H3484 0.929 . S
C3497 C3489 1.433 . S
C3497 N3499 1.384 . S
N3498 C3494 1.427 . S
N3498 C3495 1.384 . S
N3499 C3491 1.427 . S
N3499 C3497 1.384 . S
H3500 C3506 0.930 . S
H3501 C3510 0.930 . S
H3502 C3515 0.929 . S
H3503 C3513 0.929 . S
H3504 C3508 0.929 . S
H3505 C3514 0.929 . S
C3506 H3500 0.930 . S
C3506 C3507 1.367 . S
C3506 C3514 1.378 . S
C3507 C3506 1.367 . S
C3507 C3515 1.433 . S
C3508 H3504 0.929 . S
C3508 C3510 1.378 . S
C3508 C3512 1.350 . S
C3509 C3512 1.463 . S
C3509 C3514 1.350 . S
C3509 N3517 1.427 . S
C3510 H3501 0.930 . S
C3510 C3508 1.378 . S
C3510 C3511 1.367 . S
C3511 C3510 1.367 . S
C3511 C3513 1.433 . S
C3512 C3508 1.350 . S
C3512 C3509 1.463 . S
C3512 N3516 1.427 . S
C3513 H3503 0.929 . S
C3513 C3511 1.433 . S
C3513 N3516 1.384 . S
C3514 H3505 0.929 . S
C3514 C3506 1.378 . S
C3514 C3509 1.350 . S
C3515 H3502 0.929 . S
C3515 C3507 1.433 . S
C3515 N3517 1.384 . S
N3516 C3512 1.427 . S
N3516 C3513 1.384 . S
N3517 C3509 1.427 . S
N3517 C3515 1.384 . S
H3518 C3524 0.930 . S
H3519 C3528 0.930 . S
H3520 C3533 0.929 . S
H3521 C3531 0.929 . S
H3522 C3526 0.929 . S
H3523 C3532 0.929 . S
C3524 H3518 0.930 . S
C3524 C3525 1.367 . S
C3524 C3532 1.378 . S
C3525 C3524 1.367 . S
C3525 C3533 1.433 . S
C3526 H3522 0.929 . S
C3526 C3528 1.378 . S
C3526 C3530 1.350 . S
C3527 C3530 1.463 . S
C3527 C3532 1.350 . S
C3527 N3535 1.427 . S
C3528 H3519 0.930 . S
C3528 C3526 1.378 . S
C3528 C3529 1.367 . S
C3529 C3528 1.367 . S
C3529 C3531 1.433 . S
C3530 C3526 1.350 . S
C3530 C3527 1.463 . S
C3530 N3534 1.427 . S
C3531 H3521 0.929 . S
C3531 C3529 1.433 . S
C3531 N3534 1.384 . S
C3532 H3523 0.929 . S
C3532 C3524 1.378 . S
C3532 C3527 1.350 . S
C3533 H3520 0.929 . S
C3533 C3525 1.433 . S
C3533 N3535 1.384 . S
N3534 C3530 1.427 . S
N3534 C3531 1.384 . S
N3535 C3527 1.427 . S
N3535 C3533 1.384 . S
H3536 C3542 0.930 . S
H3537 C3546 0.930 . S
H3538 C3551 0.929 . S
H3539 C3549 0.929 . S
H3540 C3544 0.929 . S
H3541 C3550 0.929 . S
C3542 H3536 0.930 . S
C3542 C3543 1.367 . S
C3542 C3550 1.378 . S
C3543 C3542 1.367 . S
C3543 C3551 1.433 . S
C3544 H3540 0.929 . S
C3544 C3546 1.378 . S
C3544 C3548 1.350 . S
C3545 C3548 1.463 1_545 S
C3545 C3550 1.350 . S
C3545 N3553 1.427 . S
C3546 H3537 0.930 . S
C3546 C3544 1.378 . S
C3546 C3547 1.367 . S
C3547 C3546 1.367 . S
C3547 C3549 1.433 . S
C3548 C3544 1.350 . S
C3548 C3545 1.463 1_565 S
C3548 N3552 1.427 . S
C3549 H3539 0.929 . S
C3549 C3547 1.433 . S
C3549 N3552 1.384 . S
C3550 H3541 0.929 . S
C3550 C3542 1.378 . S
C3550 C3545 1.350 . S
C3551 H3538 0.929 . S
C3551 C3543 1.433 . S
C3551 N3553 1.384 . S
N3552 C3548 1.427 . S
N3552 C3549 1.384 . S
N3553 C3545 1.427 . S
N3553 C3551 1.384 . S
H3554 C3560 0.930 . S
H3555 C3564 0.930 . S
H3556 C3569 0.929 . S
H3557 C3567 0.929 . S
H3558 C3562 0.929 . S
H3559 C3568 0.929 . S
C3560 H3554 0.930 . S
C3560 C3561 1.367 . S
C3560 C3568 1.378 . S
C3561 C3560 1.367 . S
C3561 C3569 1.433 . S
C3562 H3558 0.929 . S
C3562 C3564 1.378 . S
C3562 C3566 1.350 . S
C3563 C3566 1.463 . S
C3563 C3568 1.350 . S
C3563 N3571 1.427 . S
C3564 H3555 0.930 . S
C3564 C3562 1.378 . S
C3564 C3565 1.367 . S
C3565 C3564 1.367 . S
C3565 C3567 1.433 . S
C3566 C3562 1.350 . S
C3566 C3563 1.463 . S
C3566 N3570 1.427 . S
C3567 H3557 0.929 . S
C3567 C3565 1.433 . S
C3567 N3570 1.384 . S
C3568 H3559 0.929 . S
C3568 C3560 1.378 . S
C3568 C3563 1.350 . S
C3569 H3556 0.929 . S
C3569 C3561 1.433 . S
C3569 N3571 1.384 . S
N3570 C3566 1.427 . S
N3570 C3567 1.384 . S
N3571 C3563 1.427 . S
N3571 C3569 1.384 . S
H3572 C3578 0.930 . S
H3573 C3582 0.930 . S
H3574 C3587 0.929 . S
H3575 C3585 0.929 . S
H3576 C3580 0.929 1_565 S
H3577 C3586 0.929 1_545 S
C3578 H3572 0.930 . S
C3578 C3579 1.367 . S
C3578 C3586 1.378 . S
C3579 C3578 1.367 . S
C3579 C3587 1.433 . S
C3580 H3576 0.929 1_545 S
C3580 C3582 1.378 . S
C3580 C3584 1.350 . S
C3581 C3584 1.463 1_564 S
C3581 C3586 1.350 . S
C3581 N3589 1.449 . S
C3582 H3573 0.930 . S
C3582 C3580 1.378 . S
C3582 C3583 1.367 . S
C3583 C3582 1.367 . S
C3583 C3585 1.433 . S
C3584 C3580 1.350 . S
C3584 C3581 1.463 1_546 S
C3584 N3588 1.449 . S
C3585 H3575 0.929 . S
C3585 C3583 1.433 . S
C3585 N3588 1.428 . S
C3586 H3577 0.929 1_565 S
C3586 C3578 1.378 . S
C3586 C3581 1.350 . S
C3587 H3574 0.929 . S
C3587 C3579 1.433 . S
C3587 N3589 1.428 . S
N3588 C3584 1.449 . S
N3588 C3585 1.428 . S
N3589 C3581 1.449 . S
N3589 C3587 1.428 . S
H3590 C3596 0.930 . S
H3591 C3600 0.930 . S
H3592 C3605 0.929 . S
H3593 C3603 0.929 . S
H3594 C3598 0.929 . S
H3595 C3604 0.929 . S
C3596 H3590 0.930 . S
C3596 C3597 1.367 . S
C3596 C3604 1.378 . S
C3597 C3596 1.367 . S
C3597 C3605 1.433 . S
C3598 H3594 0.929 . S
C3598 C3600 1.378 . S
C3598 C3602 1.350 . S
C3599 C3602 1.463 . S
C3599 C3604 1.350 . S
C3599 N3607 1.427 . S
C3600 H3591 0.930 . S
C3600 C3598 1.378 . S
C3600 C3601 1.367 . S
C3601 C3600 1.367 . S
C3601 C3603 1.433 . S
C3602 C3598 1.350 . S
C3602 C3599 1.463 . S
C3602 N3606 1.427 . S
C3603 H3593 0.929 . S
C3603 C3601 1.433 . S
C3603 N3606 1.384 . S
C3604 H3595 0.929 . S
C3604 C3596 1.378 . S
C3604 C3599 1.350 . S
C3605 H3592 0.929 . S
C3605 C3597 1.433 . S
C3605 N3607 1.384 . S
N3606 C3602 1.427 . S
N3606 C3603 1.384 . S
N3607 C3599 1.427 . S
N3607 C3605 1.384 . S
H3608 C3614 0.930 . S
H3609 C3618 0.930 . S
H3610 C3623 0.929 . S
H3611 C3621 0.929 . S
H3612 C3616 0.929 . S
H3613 C3622 0.929 . S
C3614 H3608 0.930 . S
C3614 C3615 1.367 . S
C3614 C3622 1.378 . S
C3615 C3614 1.367 . S
C3615 C3623 1.433 . S
C3616 H3612 0.929 . S
C3616 C3618 1.378 . S
C3616 C3620 1.350 . S
C3617 C3620 1.463 1_545 S
C3617 C3622 1.350 . S
C3617 N3625 1.427 . S
C3618 H3609 0.930 . S
C3618 C3616 1.378 . S
C3618 C3619 1.367 . S
C3619 C3618 1.367 . S
C3619 C3621 1.433 . S
C3620 C3616 1.350 . S
C3620 C3617 1.463 1_565 S
C3620 N3624 1.427 . S
C3621 H3611 0.929 . S
C3621 C3619 1.433 . S
C3621 N3624 1.384 . S
C3622 H3613 0.929 . S
C3622 C3614 1.378 . S
C3622 C3617 1.350 . S
C3623 H3610 0.929 . S
C3623 C3615 1.433 . S
C3623 N3625 1.384 . S
N3624 C3620 1.427 . S
N3624 C3621 1.384 . S
N3625 C3617 1.427 . S
N3625 C3623 1.384 . S
H3626 C3632 0.930 . S
H3627 C3636 0.930 . S
H3628 C3641 0.929 . S
H3629 C3639 0.929 . S
H3630 C3634 0.929 . S
H3631 C3640 0.929 . S
C3632 H3626 0.930 . S
C3632 C3633 1.367 . S
C3632 C3640 1.378 . S
C3633 C3632 1.367 . S
C3633 C3641 1.433 . S
C3634 H3630 0.929 . S
C3634 C3636 1.378 . S
C3634 C3638 1.350 . S
C3635 C3638 1.463 . S
C3635 C3640 1.350 . S
C3635 N3643 1.427 . S
C3636 H3627 0.930 . S
C3636 C3634 1.378 . S
C3636 C3637 1.367 . S
C3637 C3636 1.367 . S
C3637 C3639 1.433 . S
C3638 C3634 1.350 . S
C3638 C3635 1.463 . S
C3638 N3642 1.427 . S
C3639 H3629 0.929 . S
C3639 C3637 1.433 . S
C3639 N3642 1.384 . S
C3640 H3631 0.929 . S
C3640 C3632 1.378 . S
C3640 C3635 1.350 . S
C3641 H3628 0.929 . S
C3641 C3633 1.433 . S
C3641 N3643 1.384 . S
N3642 C3638 1.427 . S
N3642 C3639 1.384 . S
N3643 C3635 1.427 . S
N3643 C3641 1.384 . S
H3644 C3650 0.930 . S
H3645 C3654 0.930 . S
H3646 C3659 0.929 . S
H3647 C3657 0.929 . S
H3648 C3652 0.929 1_554 S
H3649 C3658 0.929 1_556 S
C3650 H3644 0.930 . S
C3650 C3651 1.367 . S
C3650 C3658 1.378 . S
C3651 C3650 1.367 . S
C3651 C3659 1.433 . S
C3652 H3648 0.929 1_556 S
C3652 C3654 1.378 . S
C3652 C3656 1.350 . S
C3653 C3656 1.463 1_564 S
C3653 C3658 1.350 . S
C3653 N3661 1.427 . S
C3654 H3645 0.930 . S
C3654 C3652 1.378 . S
C3654 C3655 1.367 . S
C3655 C3654 1.367 . S
C3655 C3657 1.433 . S
C3656 C3652 1.350 . S
C3656 C3653 1.463 1_546 S
C3656 N3660 1.427 . S
C3657 H3647 0.929 . S
C3657 C3655 1.433 . S
C3657 N3660 1.384 . S
C3658 H3649 0.929 1_554 S
C3658 C3650 1.378 . S
C3658 C3653 1.350 . S
C3659 H3646 0.929 . S
C3659 C3651 1.433 . S
C3659 N3661 1.384 . S
N3660 C3656 1.427 . S
N3660 C3657 1.384 . S
N3661 C3653 1.427 . S
N3661 C3659 1.384 . S
H3662 C3668 0.930 . S
H3663 C3672 0.930 . S
H3664 C3677 0.929 . S
H3665 C3675 0.929 . S
H3666 C3670 0.929 . S
H3667 C3676 0.929 . S
C3668 H3662 0.930 . S
C3668 C3669 1.367 . S
C3668 C3676 1.378 . S
C3669 C3668 1.367 . S
C3669 C3677 1.433 . S
C3670 H3666 0.929 . S
C3670 C3672 1.378 . S
C3670 C3674 1.350 . S
C3671 C3674 1.463 . S
C3671 C3676 1.350 . S
C3671 N3679 1.427 . S
C3672 H3663 0.930 . S
C3672 C3670 1.378 . S
C3672 C3673 1.367 . S
C3673 C3672 1.367 . S
C3673 C3675 1.433 . S
C3674 C3670 1.350 . S
C3674 C3671 1.463 . S
C3674 N3678 1.427 . S
C3675 H3665 0.929 . S
C3675 C3673 1.433 . S
C3675 N3678 1.384 . S
C3676 H3667 0.929 . S
C3676 C3668 1.378 . S
C3676 C3671 1.350 . S
C3677 H3664 0.929 . S
C3677 C3669 1.433 . S
C3677 N3679 1.384 . S
N3678 C3674 1.427 . S
N3678 C3675 1.384 . S
N3679 C3671 1.427 . S
N3679 C3677 1.384 . S
H3680 C3686 0.930 . S
H3681 C3690 0.930 . S
H3682 C3695 0.929 . S
H3683 C3693 0.929 . S
H3684 C3688 0.929 . S
H3685 C3694 0.929 . S
C3686 H3680 0.930 . S
C3686 C3687 1.367 . S
C3686 C3694 1.378 . S
C3687 C3686 1.367 . S
C3687 C3695 1.433 . S
C3688 H3684 0.929 . S
C3688 C3690 1.378 . S
C3688 C3692 1.350 . S
C3689 C3692 1.463 . S
C3689 C3694 1.350 . S
C3689 N3697 1.427 . S
C3690 H3681 0.930 . S
C3690 C3688 1.378 . S
C3690 C3691 1.367 . S
C3691 C3690 1.367 . S
C3691 C3693 1.433 . S
C3692 C3688 1.350 . S
C3692 C3689 1.463 . S
C3692 N3696 1.427 . S
C3693 H3683 0.929 . S
C3693 C3691 1.433 . S
C3693 N3696 1.384 . S
C3694 H3685 0.929 . S
C3694 C3686 1.378 . S
C3694 C3689 1.350 . S
C3695 H3682 0.929 . S
C3695 C3687 1.433 . S
C3695 N3697 1.384 . S
N3696 C3692 1.427 . S
N3696 C3693 1.384 . S
N3697 C3689 1.427 . S
N3697 C3695 1.384 . S
H3698 C3704 0.930 . S
H3699 C3708 0.930 . S
H3700 C3713 0.929 . S
H3701 C3711 0.929 . S
H3702 C3706 0.929 . S
H3703 C3712 0.929 . S
C3704 H3698 0.930 . S
C3704 C3705 1.367 . S
C3704 C3712 1.378 . S
C3705 C3704 1.367 . S
C3705 C3713 1.433 . S
C3706 H3702 0.929 . S
C3706 C3708 1.378 . S
C3706 C3710 1.350 . S
C3707 C3710 1.463 . S
C3707 C3712 1.350 . S
C3707 N3715 1.427 . S
C3708 H3699 0.930 . S
C3708 C3706 1.378 . S
C3708 C3709 1.367 . S
C3709 C3708 1.367 . S
C3709 C3711 1.433 . S
C3710 C3706 1.350 . S
C3710 C3707 1.463 . S
C3710 N3714 1.427 . S
C3711 H3701 0.929 . S
C3711 C3709 1.433 . S
C3711 N3714 1.384 . S
C3712 H3703 0.929 . S
C3712 C3704 1.378 . S
C3712 C3707 1.350 . S
C3713 H3700 0.929 . S
C3713 C3705 1.433 . S
C3713 N3715 1.384 . S
N3714 C3710 1.427 . S
N3714 C3711 1.384 . S
N3715 C3707 1.427 . S
N3715 C3713 1.384 . S
H3716 C3722 0.930 . S
H3717 C3726 0.930 . S
H3718 C3731 0.929 . S
H3719 C3729 0.929 . S
H3720 C3724 0.929 . S
H3721 C3730 0.929 . S
C3722 H3716 0.930 . S
C3722 C3723 1.367 . S
C3722 C3730 1.378 . S
C3723 C3722 1.367 . S
C3723 C3731 1.433 . S
C3724 H3720 0.929 . S
C3724 C3726 1.378 . S
C3724 C3728 1.350 . S
C3725 C3728 1.463 . S
C3725 C3730 1.350 . S
C3725 N3733 1.427 . S
C3726 H3717 0.930 . S
C3726 C3724 1.378 . S
C3726 C3727 1.367 . S
C3727 C3726 1.367 . S
C3727 C3729 1.433 . S
C3728 C3724 1.350 . S
C3728 C3725 1.463 . S
C3728 N3732 1.427 . S
C3729 H3719 0.929 . S
C3729 C3727 1.433 . S
C3729 N3732 1.384 . S
C3730 H3721 0.929 . S
C3730 C3722 1.378 . S
C3730 C3725 1.350 . S
C3731 H3718 0.929 . S
C3731 C3723 1.433 . S
C3731 N3733 1.384 . S
N3732 C3728 1.427 . S
N3732 C3729 1.384 . S
N3733 C3725 1.427 . S
N3733 C3731 1.384 . S
H3734 C3740 0.930 . S
H3735 C3744 0.930 . S
H3736 C3749 0.929 . S
H3737 C3747 0.929 . S
H3738 C3742 0.929 . S
H3739 C3748 0.929 . S
C3740 H3734 0.930 . S
C3740 C3741 1.367 . S
C3740 C3748 1.378 . S
C3741 C3740 1.367 . S
C3741 C3749 1.433 . S
C3742 H3738 0.929 . S
C3742 C3744 1.378 . S
C3742 C3746 1.350 . S
C3743 C3746 1.463 1_655 S
C3743 C3748 1.350 . S
C3743 N3751 1.427 . S
C3744 H3735 0.930 . S
C3744 C3742 1.378 . S
C3744 C3745 1.367 . S
C3745 C3744 1.367 . S
C3745 C3747 1.433 . S
C3746 C3742 1.350 . S
C3746 C3743 1.463 1_455 S
C3746 N3750 1.427 . S
C3747 H3737 0.929 . S
C3747 C3745 1.433 . S
C3747 N3750 1.384 . S
C3748 H3739 0.929 . S
C3748 C3740 1.378 . S
C3748 C3743 1.350 . S
C3749 H3736 0.929 . S
C3749 C3741 1.433 . S
C3749 N3751 1.384 . S
N3750 C3746 1.427 . S
N3750 C3747 1.384 . S
N3751 C3743 1.427 . S
N3751 C3749 1.384 . S
H3752 C3758 0.930 . S
H3753 C3762 0.930 . S
H3754 C3767 0.929 . S
H3755 C3765 0.929 . S
H3756 C3760 0.929 . S
H3757 C3766 0.929 . S
C3758 H3752 0.930 . S
C3758 C3759 1.367 . S
C3758 C3766 1.378 . S
C3759 C3758 1.367 . S
C3759 C3767 1.433 . S
C3760 H3756 0.929 . S
C3760 C3762 1.378 . S
C3760 C3764 1.350 . S
C3761 C3764 1.463 . S
C3761 C3766 1.350 . S
C3761 N3769 1.427 . S
C3762 H3753 0.930 . S
C3762 C3760 1.378 . S
C3762 C3763 1.367 . S
C3763 C3762 1.367 . S
C3763 C3765 1.433 . S
C3764 C3760 1.350 . S
C3764 C3761 1.463 . S
C3764 N3768 1.427 . S
C3765 H3755 0.929 . S
C3765 C3763 1.433 . S
C3765 N3768 1.384 . S
C3766 H3757 0.929 . S
C3766 C3758 1.378 . S
C3766 C3761 1.350 . S
C3767 H3754 0.929 . S
C3767 C3759 1.433 . S
C3767 N3769 1.384 . S
N3768 C3764 1.427 . S
N3768 C3765 1.384 . S
N3769 C3761 1.427 . S
N3769 C3767 1.384 . S
H3770 C3776 0.930 . S
H3771 C3780 0.930 . S
H3772 C3785 0.929 . S
H3773 C3783 0.929 . S
H3774 C3778 0.929 . S
H3775 C3784 0.929 . S
C3776 H3770 0.930 . S
C3776 C3777 1.367 . S
C3776 C3784 1.378 . S
C3777 C3776 1.367 . S
C3777 C3785 1.433 . S
C3778 H3774 0.929 . S
C3778 C3780 1.378 . S
C3778 C3782 1.350 . S
C3779 C3782 1.463 1_655 S
C3779 C3784 1.350 . S
C3779 N3787 1.427 . S
C3780 H3771 0.930 . S
C3780 C3778 1.378 . S
C3780 C3781 1.367 . S
C3781 C3780 1.367 . S
C3781 C3783 1.433 . S
C3782 C3778 1.350 . S
C3782 C3779 1.463 1_455 S
C3782 N3786 1.427 . S
C3783 H3773 0.929 . S
C3783 C3781 1.433 . S
C3783 N3786 1.384 . S
C3784 H3775 0.929 . S
C3784 C3776 1.378 . S
C3784 C3779 1.350 . S
C3785 H3772 0.929 . S
C3785 C3777 1.433 . S
C3785 N3787 1.384 . S
N3786 C3782 1.427 . S
N3786 C3783 1.384 . S
N3787 C3779 1.427 . S
N3787 C3785 1.384 . S
H3788 C3794 0.930 . S
H3789 C3798 0.930 . S
H3790 C3803 0.929 . S
H3791 C3801 0.929 . S
H3792 C3796 0.929 . S
H3793 C3802 0.929 . S
C3794 H3788 0.930 . S
C3794 C3795 1.367 . S
C3794 C3802 1.378 . S
C3795 C3794 1.367 . S
C3795 C3803 1.433 . S
C3796 H3792 0.929 . S
C3796 C3798 1.378 . S
C3796 C3800 1.350 . S
C3797 C3800 1.463 . S
C3797 C3802 1.350 . S
C3797 N3805 1.427 . S
C3798 H3789 0.930 . S
C3798 C3796 1.378 . S
C3798 C3799 1.367 . S
C3799 C3798 1.367 . S
C3799 C3801 1.433 . S
C3800 C3796 1.350 . S
C3800 C3797 1.463 . S
C3800 N3804 1.427 . S
C3801 H3791 0.929 . S
C3801 C3799 1.433 . S
C3801 N3804 1.384 . S
C3802 H3793 0.929 . S
C3802 C3794 1.378 . S
C3802 C3797 1.350 . S
C3803 H3790 0.929 . S
C3803 C3795 1.433 . S
C3803 N3805 1.384 . S
N3804 C3800 1.427 . S
N3804 C3801 1.384 . S
N3805 C3797 1.427 . S
N3805 C3803 1.384 . S
H3806 C3812 0.930 . S
H3807 C3816 0.930 . S
H3808 C3821 0.929 . S
H3809 C3819 0.929 . S
H3810 C3814 0.929 . S
H3811 C3820 0.929 . S
C3812 H3806 0.930 . S
C3812 C3813 1.367 . S
C3812 C3820 1.378 . S
C3813 C3812 1.367 . S
C3813 C3821 1.433 . S
C3814 H3810 0.929 . S
C3814 C3816 1.378 . S
C3814 C3818 1.350 . S
C3815 C3818 1.463 . S
C3815 C3820 1.350 . S
C3815 N3823 1.427 . S
C3816 H3807 0.930 . S
C3816 C3814 1.378 . S
C3816 C3817 1.367 . S
C3817 C3816 1.367 . S
C3817 C3819 1.433 . S
C3818 C3814 1.350 . S
C3818 C3815 1.463 . S
C3818 N3822 1.427 . S
C3819 H3809 0.929 . S
C3819 C3817 1.433 . S
C3819 N3822 1.384 . S
C3820 H3811 0.929 . S
C3820 C3812 1.378 . S
C3820 C3815 1.350 . S
C3821 H3808 0.929 . S
C3821 C3813 1.433 . S
C3821 N3823 1.384 . S
N3822 C3818 1.427 . S
N3822 C3819 1.384 . S
N3823 C3815 1.427 . S
N3823 C3821 1.384 . S
H3824 C3830 0.930 . S
H3825 C3834 0.930 . S
H3826 C3839 0.929 . S
H3827 C3837 0.929 . S
H3828 C3832 0.929 . S
H3829 C3838 0.929 . S
C3830 H3824 0.930 . S
C3830 C3831 1.367 . S
C3830 C3838 1.378 . S
C3831 C3830 1.367 . S
C3831 C3839 1.433 . S
C3832 H3828 0.929 . S
C3832 C3834 1.378 . S
C3832 C3836 1.350 . S
C3833 C3836 1.463 . S
C3833 C3838 1.350 . S
C3833 N3841 1.427 . S
C3834 H3825 0.930 . S
C3834 C3832 1.378 . S
C3834 C3835 1.367 . S
C3835 C3834 1.367 . S
C3835 C3837 1.433 . S
C3836 C3832 1.350 . S
C3836 C3833 1.463 . S
C3836 N3840 1.427 . S
C3837 H3827 0.929 . S
C3837 C3835 1.433 . S
C3837 N3840 1.384 . S
C3838 H3829 0.929 . S
C3838 C3830 1.378 . S
C3838 C3833 1.350 . S
C3839 H3826 0.929 . S
C3839 C3831 1.433 . S
C3839 N3841 1.384 . S
N3840 C3836 1.427 . S
N3840 C3837 1.384 . S
N3841 C3833 1.427 . S
N3841 C3839 1.384 . S
H3842 C3848 0.930 . S
H3843 C3852 0.930 . S
H3844 C3857 0.929 . S
H3845 C3855 0.929 . S
H3846 C3850 0.929 . S
H3847 C3856 0.929 . S
C3848 H3842 0.930 . S
C3848 C3849 1.367 . S
C3848 C3856 1.378 . S
C3849 C3848 1.367 . S
C3849 C3857 1.433 . S
C3850 H3846 0.929 . S
C3850 C3852 1.378 . S
C3850 C3854 1.350 . S
C3851 C3854 1.463 . S
C3851 C3856 1.350 . S
C3851 N3859 1.427 . S
C3852 H3843 0.930 . S
C3852 C3850 1.378 . S
C3852 C3853 1.367 . S
C3853 C3852 1.367 . S
C3853 C3855 1.433 . S
C3854 C3850 1.350 . S
C3854 C3851 1.463 . S
C3854 N3858 1.427 . S
C3855 H3845 0.929 . S
C3855 C3853 1.433 . S
C3855 N3858 1.384 . S
C3856 H3847 0.929 . S
C3856 C3848 1.378 . S
C3856 C3851 1.350 . S
C3857 H3844 0.929 . S
C3857 C3849 1.433 . S
C3857 N3859 1.384 . S
N3858 C3854 1.427 . S
N3858 C3855 1.384 . S
N3859 C3851 1.427 . S
N3859 C3857 1.384 . S
H3860 C3866 0.930 . S
H3861 C3870 0.930 . S
H3862 C3875 0.929 . S
H3863 C3873 0.929 . S
H3864 C3868 0.929 . S
H3865 C3874 0.929 . S
C3866 H3860 0.930 . S
C3866 C3867 1.367 . S
C3866 C3874 1.378 . S
C3867 C3866 1.367 . S
C3867 C3875 1.433 . S
C3868 H3864 0.929 . S
C3868 C3870 1.378 . S
C3868 C3872 1.350 . S
C3869 C3872 1.463 . S
C3869 C3874 1.350 . S
C3869 N3877 1.427 . S
C3870 H3861 0.930 . S
C3870 C3868 1.378 . S
C3870 C3871 1.367 . S
C3871 C3870 1.367 . S
C3871 C3873 1.433 . S
C3872 C3868 1.350 . S
C3872 C3869 1.463 . S
C3872 N3876 1.427 . S
C3873 H3863 0.929 . S
C3873 C3871 1.433 . S
C3873 N3876 1.384 . S
C3874 H3865 0.929 . S
C3874 C3866 1.378 . S
C3874 C3869 1.350 . S
C3875 H3862 0.929 . S
C3875 C3867 1.433 . S
C3875 N3877 1.384 . S
N3876 C3872 1.427 . S
N3876 C3873 1.384 . S
N3877 C3869 1.427 . S
N3877 C3875 1.384 . S
H3878 C3884 0.930 . S
H3879 C3888 0.930 . S
H3880 C3893 0.929 . S
H3881 C3891 0.929 . S
H3882 C3886 0.929 . S
H3883 C3892 0.929 . S
C3884 H3878 0.930 . S
C3884 C3885 1.367 . S
C3884 C3892 1.378 . S
C3885 C3884 1.367 . S
C3885 C3893 1.433 . S
C3886 H3882 0.929 . S
C3886 C3888 1.378 . S
C3886 C3890 1.350 . S
C3887 C3890 1.463 . S
C3887 C3892 1.350 . S
C3887 N3895 1.427 . S
C3888 H3879 0.930 . S
C3888 C3886 1.378 . S
C3888 C3889 1.367 . S
C3889 C3888 1.367 . S
C3889 C3891 1.433 . S
C3890 C3886 1.350 . S
C3890 C3887 1.463 . S
C3890 N3894 1.427 . S
C3891 H3881 0.929 . S
C3891 C3889 1.433 . S
C3891 N3894 1.384 . S
C3892 H3883 0.929 . S
C3892 C3884 1.378 . S
C3892 C3887 1.350 . S
C3893 H3880 0.929 . S
C3893 C3885 1.433 . S
C3893 N3895 1.384 . S
N3894 C3890 1.427 . S
N3894 C3891 1.384 . S
N3895 C3887 1.427 . S
N3895 C3893 1.384 . S
H3896 C3902 0.930 . S
H3897 C3906 0.930 . S
H3898 C3911 0.929 . S
H3899 C3909 0.929 . S
H3900 C3904 0.929 . S
H3901 C3910 0.929 . S
C3902 H3896 0.930 . S
C3902 C3903 1.367 . S
C3902 C3910 1.378 . S
C3903 C3902 1.367 . S
C3903 C3911 1.433 . S
C3904 H3900 0.929 . S
C3904 C3906 1.378 . S
C3904 C3908 1.350 . S
C3905 C3908 1.463 1_655 S
C3905 C3910 1.350 . S
C3905 N3913 1.427 . S
C3906 H3897 0.930 . S
C3906 C3904 1.378 . S
C3906 C3907 1.367 . S
C3907 C3906 1.367 . S
C3907 C3909 1.433 . S
C3908 C3904 1.350 . S
C3908 C3905 1.463 1_455 S
C3908 N3912 1.427 . S
C3909 H3899 0.929 . S
C3909 C3907 1.433 . S
C3909 N3912 1.384 . S
C3910 H3901 0.929 . S
C3910 C3902 1.378 . S
C3910 C3905 1.350 . S
C3911 H3898 0.929 . S
C3911 C3903 1.433 . S
C3911 N3913 1.384 . S
N3912 C3908 1.427 . S
N3912 C3909 1.384 . S
N3913 C3905 1.427 . S
N3913 C3911 1.384 . S
H3914 C3920 0.930 . S
H3915 C3924 0.930 . S
H3916 C3929 0.929 . S
H3917 C3927 0.929 . S
H3918 C3922 0.929 . S
H3919 C3928 0.929 . S
C3920 H3914 0.930 . S
C3920 C3921 1.367 . S
C3920 C3928 1.378 . S
C3921 C3920 1.367 . S
C3921 C3929 1.433 . S
C3922 H3918 0.929 . S
C3922 C3924 1.378 . S
C3922 C3926 1.350 . S
C3923 C3926 1.463 . S
C3923 C3928 1.350 . S
C3923 N3931 1.427 . S
C3924 H3915 0.930 . S
C3924 C3922 1.378 . S
C3924 C3925 1.367 . S
C3925 C3924 1.367 . S
C3925 C3927 1.433 . S
C3926 C3922 1.350 . S
C3926 C3923 1.463 . S
C3926 N3930 1.427 . S
C3927 H3917 0.929 . S
C3927 C3925 1.433 . S
C3927 N3930 1.384 . S
C3928 H3919 0.929 . S
C3928 C3920 1.378 . S
C3928 C3923 1.350 . S
C3929 H3916 0.929 . S
C3929 C3921 1.433 . S
C3929 N3931 1.384 . S
N3930 C3926 1.427 . S
N3930 C3927 1.384 . S
N3931 C3923 1.427 . S
N3931 C3929 1.384 . S
H3932 C3938 0.930 . S
H3933 C3942 0.930 . S
H3934 C3947 0.929 . S
H3935 C3945 0.929 . S
H3936 C3940 0.929 . S
H3937 C3946 0.929 . S
C3938 H3932 0.930 . S
C3938 C3939 1.367 . S
C3938 C3946 1.378 . S
C3939 C3938 1.367 . S
C3939 C3947 1.433 . S
C3940 H3936 0.929 . S
C3940 C3942 1.378 . S
C3940 C3944 1.350 . S
C3941 C3944 1.463 . S
C3941 C3946 1.350 . S
C3941 N3949 1.427 . S
C3942 H3933 0.930 . S
C3942 C3940 1.378 . S
C3942 C3943 1.367 . S
C3943 C3942 1.367 . S
C3943 C3945 1.433 . S
C3944 C3940 1.350 . S
C3944 C3941 1.463 . S
C3944 N3948 1.427 . S
C3945 H3935 0.929 . S
C3945 C3943 1.433 . S
C3945 N3948 1.384 . S
C3946 H3937 0.929 . S
C3946 C3938 1.378 . S
C3946 C3941 1.350 . S
C3947 H3934 0.929 . S
C3947 C3939 1.433 . S
C3947 N3949 1.384 . S
N3948 C3944 1.427 . S
N3948 C3945 1.384 . S
N3949 C3941 1.427 . S
N3949 C3947 1.384 . S
H3950 C3956 0.930 . S
H3951 C3960 0.930 . S
H3952 C3965 0.929 . S
H3953 C3963 0.929 . S
H3954 C3958 0.929 . S
H3955 C3964 0.929 . S
C3956 H3950 0.930 . S
C3956 C3957 1.367 . S
C3956 C3964 1.378 . S
C3957 C3956 1.367 . S
C3957 C3965 1.433 . S
C3958 H3954 0.929 . S
C3958 C3960 1.378 . S
C3958 C3962 1.350 . S
C3959 C3962 1.463 1_655 S
C3959 C3964 1.350 . S
C3959 N3967 1.427 . S
C3960 H3951 0.930 . S
C3960 C3958 1.378 . S
C3960 C3961 1.367 . S
C3961 C3960 1.367 . S
C3961 C3963 1.433 . S
C3962 C3958 1.350 . S
C3962 C3959 1.463 1_455 S
C3962 N3966 1.427 . S
C3963 H3953 0.929 . S
C3963 C3961 1.433 . S
C3963 N3966 1.384 . S
C3964 H3955 0.929 . S
C3964 C3956 1.378 . S
C3964 C3959 1.350 . S
C3965 H3952 0.929 . S
C3965 C3957 1.433 . S
C3965 N3967 1.384 . S
N3966 C3962 1.427 . S
N3966 C3963 1.384 . S
N3967 C3959 1.427 . S
N3967 C3965 1.384 . S
C2823 C2073 1.555 . S
C2827 C29 1.553 . S
C2841 C1817 1.549 . S
C2845 C117 1.557 . S
C2859 C1905 1.555 . S
C2863 C196 1.553 . S
C2877 C1985 1.557 . S
C2881 C284 1.549 . S
C2895 C409 1.552 . S
C2899 C1516 1.546 . S
C2913 C1604 1.546 . S
C2917 C497 1.557 . S
C2931 C577 1.545 . S
C2935 C1701 1.556 . S
C2949 C673 1.547 . S
C2953 C1437 1.557 . S
C2967 C2757 1.543 . S
C2971 C724 1.553 . S
C2985 C841 1.554 . S
C2989 C2521 1.545 . S
C3003 C929 1.543 . S
C3007 C2581 1.546 . S
C3021 C1017 1.542 . S
C3025 C2669 1.551 . S
C3039 C1113 1.547 . S
C3043 C2249 1.542 . S
C3057 C1173 1.541 . S
C3061 C2337 1.550 . S
C3075 C1261 1.549 . S
C3079 C2425 1.552 . S
C3093 C1369 1.545 . S
C3097 C2132 1.544 . S
C3111 C57 1.598 . S
C3115 C1085 1.600 . S
C3129 C2609 1.598 . S
C3133 C145 1.600 . S
C3147 C225 1.598 . S
C3151 C1289 1.600 . S
C3165 C2785 1.599 . S
C3169 C313 1.599 . S
C3183 C753 1.597 . S
C3187 C381 1.601 . S
C3201 C469 1.601 . S
C3205 C2220 1.597 . S
C3219 C548 1.600 . S
C3223 C900 1.598 . S
C3237 C645 1.600 . S
C3241 C2396 1.597 . S
C3255 C1877 1.600 . S
C3259 C812 1.598 . S
C3273 C2044 1.598 . S
C3277 C988 1.600 . S
C3291 C1201 1.598 . S
C3295 C1545 1.600 . S
C3309 C1729 1.598 . S
C3313 C1340 1.600 . S
C3327 C2493 1.599 . S
C3331 C1465 1.599 . S
C3345 C1633 1.598 . S
C3349 C2697 1.600 . S
C3363 C2161 1.600 . S
C3367 C1789 1.598 . S
C3381 C2308 1.597 . S
C3385 C1956 1.600 . S
C3399 C372 0.946 . S
C3403 C49 0.956 . S
C3417 C460 0.961 . S
C3421 C137 0.943 . S
C3435 C233 0.947 . S
C3439 C557 0.955 . S
C3453 C321 0.944 . S
C3457 C636 0.960 . S
C3471 C1105 0.955 . S
C3475 C733 0.940 . S
C3489 C1164 0.942 . S
C3493 C849 0.955 . S
C3507 C1252 0.952 . S
C3511 C937 0.943 . S
C3525 C1025 0.957 . S
C3529 C1377 0.940 . S
C3543 C1457 0.942 . S
C3547 C1780 0.959 . S
C3561 C1553 0.947 . S
C3565 C1868 0.957 . S
C3579 C1641 0.949 . S
C3583 C1965 0.953 . S
C3597 C1721 0.943 . S
C3601 C2053 0.960 . S
C3615 C2513 0.940 . S
C3619 C2141 0.956 . S
C3633 C2572 0.951 . S
C3637 C2257 0.946 . S
C3651 C2660 0.953 . S
C3655 C2345 0.942 . S
C3669 C2748 0.949 . S
C3673 C2433 0.948 . S
C3687 C2689 1.372 . S
C3691 C20 1.383 . S
C3705 C108 1.382 . S
C3709 C1349 1.374 . S
C3723 C2484 1.372 . S
C3727 C205 1.382 . S
C3741 C293 1.381 . S
C3745 C1193 1.374 . S
C3759 C2317 1.381 . S
C3763 C401 1.374 . S
C3777 C489 1.378 . S
C3781 C997 1.378 . S
C3795 C585 1.379 . S
C3799 C2169 1.375 . S
C3813 C821 1.375 . S
C3817 C665 1.381 . S
C3831 C761 1.381 . S
C3835 C1993 1.374 . S
C3849 C1809 1.375 . S
C3853 C909 1.380 . S
C3867 C1076 1.378 . S
C3871 C1613 1.377 . S
C3885 C1281 1.380 . S
C3889 C1428 1.375 . S
C3903 C2777 1.373 . S
C3907 C1525 1.383 . S
C3921 C1692 1.378 . S
C3925 C2601 1.378 . S
C3939 C1897 1.378 . S
C3943 C2405 1.377 . S
C3957 C2229 1.383 . S
C3961 C2081 1.373 . S
