# Generated by pormake.
# Topology unx, (4)-cn, num edge types: 1
# Building blocks:
#     Node 0, Type 0, BuildingBlock: QUQFOY_clean_sbu_1, # of connection points: 4
#     Node 1, Type 0, BuildingBlock: QUQFOY_clean_sbu_1, # of connection points: 4
#     Node 2, Type 0, BuildingBlock: QUQFOY_clean_sbu_1, # of connection points: 4
#     Node 3, Type 0, BuildingBlock: QUQFOY_clean_sbu_1, # of connection points: 4
#     Node 4, Type 0, BuildingBlock: QUQFOY_clean_sbu_1, # of connection points: 4
#     Node 5, Type 0, BuildingBlock: QUQFOY_clean_sbu_1, # of connection points: 4
#     Node 6, Type 0, BuildingBlock: QUQFOY_clean_sbu_1, # of connection points: 4
#     Node 7, Type 0, BuildingBlock: QUQFOY_clean_sbu_1, # of connection points: 4
#     Node 8, Type 0, BuildingBlock: QUQFOY_clean_sbu_1, # of connection points: 4
#     Node 9, Type 0, BuildingBlock: QUQFOY_clean_sbu_1, # of connection points: 4
#     Node 10, Type 0, BuildingBlock: QUQFOY_clean_sbu_1, # of connection points: 4
#     Node 11, Type 0, BuildingBlock: QUQFOY_clean_sbu_1, # of connection points: 4
#     Node 12, Type 0, BuildingBlock: QUQFOY_clean_sbu_1, # of connection points: 4
#     Node 13, Type 0, BuildingBlock: QUQFOY_clean_sbu_1, # of connection points: 4
#     Node 14, Type 0, BuildingBlock: QUQFOY_clean_sbu_1, # of connection points: 4
#     Node 15, Type 0, BuildingBlock: QUQFOY_clean_sbu_1, # of connection points: 4
#     Node 16, Type 0, BuildingBlock: QUQFOY_clean_sbu_1, # of connection points: 4
#     Node 17, Type 0, BuildingBlock: QUQFOY_clean_sbu_1, # of connection points: 4
#     Node 18, Type 0, BuildingBlock: QUQFOY_clean_sbu_1, # of connection points: 4
#     Node 19, Type 0, BuildingBlock: QUQFOY_clean_sbu_1, # of connection points: 4
#     Node 20, Type 0, BuildingBlock: QUQFOY_clean_sbu_1, # of connection points: 4
#     Node 21, Type 0, BuildingBlock: QUQFOY_clean_sbu_1, # of connection points: 4
#     Node 22, Type 0, BuildingBlock: QUQFOY_clean_sbu_1, # of connection points: 4
#     Node 23, Type 0, BuildingBlock: QUQFOY_clean_sbu_1, # of connection points: 4
#     Node 24, Type 0, BuildingBlock: QUQFOY_clean_sbu_1, # of connection points: 4
#     Node 25, Type 0, BuildingBlock: QUQFOY_clean_sbu_1, # of connection points: 4
#     Node 26, Type 0, BuildingBlock: QUQFOY_clean_sbu_1, # of connection points: 4
#     Node 27, Type 0, BuildingBlock: QUQFOY_clean_sbu_1, # of connection points: 4
#     Node 28, Type 0, BuildingBlock: QUQFOY_clean_sbu_1, # of connection points: 4
#     Node 29, Type 0, BuildingBlock: QUQFOY_clean_sbu_1, # of connection points: 4
#     Node 30, Type 0, BuildingBlock: QUQFOY_clean_sbu_1, # of connection points: 4
#     Node 31, Type 0, BuildingBlock: QUQFOY_clean_sbu_1, # of connection points: 4
#     Node 32, Type 0, BuildingBlock: QUQFOY_clean_sbu_1, # of connection points: 4
#     Node 33, Type 0, BuildingBlock: QUQFOY_clean_sbu_1, # of connection points: 4
#     Node 34, Type 0, BuildingBlock: QUQFOY_clean_sbu_1, # of connection points: 4
#     Node 35, Type 0, BuildingBlock: QUQFOY_clean_sbu_1, # of connection points: 4
#     Node 36, Type 0, BuildingBlock: QUQFOY_clean_sbu_1, # of connection points: 4
#     Node 37, Type 0, BuildingBlock: QUQFOY_clean_sbu_1, # of connection points: 4
#     Node 38, Type 0, BuildingBlock: QUQFOY_clean_sbu_1, # of connection points: 4
#     Node 39, Type 0, BuildingBlock: QUQFOY_clean_sbu_1, # of connection points: 4
#     Node 40, Type 0, BuildingBlock: QUQFOY_clean_sbu_1, # of connection points: 4
#     Node 41, Type 0, BuildingBlock: QUQFOY_clean_sbu_1, # of connection points: 4
#     Node 42, Type 0, BuildingBlock: QUQFOY_clean_sbu_1, # of connection points: 4
#     Node 43, Type 0, BuildingBlock: QUQFOY_clean_sbu_1, # of connection points: 4
#     Node 44, Type 0, BuildingBlock: QUQFOY_clean_sbu_1, # of connection points: 4
#     Node 45, Type 0, BuildingBlock: QUQFOY_clean_sbu_1, # of connection points: 4
#     Node 46, Type 0, BuildingBlock: QUQFOY_clean_sbu_1, # of connection points: 4
#     Node 47, Type 0, BuildingBlock: QUQFOY_clean_sbu_1, # of connection points: 4
#     Edge 48, Type (0, 0), BuildingBlock: OJICUG_clean_linker_0, # of connection points: 2
#     Edge 49, Type (0, 0), BuildingBlock: OJICUG_clean_linker_0, # of connection points: 2
#     Edge 50, Type (0, 0), BuildingBlock: OJICUG_clean_linker_0, # of connection points: 2
#     Edge 51, Type (0, 0), BuildingBlock: OJICUG_clean_linker_0, # of connection points: 2
#     Edge 52, Type (0, 0), BuildingBlock: OJICUG_clean_linker_0, # of connection points: 2
#     Edge 53, Type (0, 0), BuildingBlock: OJICUG_clean_linker_0, # of connection points: 2
#     Edge 54, Type (0, 0), BuildingBlock: OJICUG_clean_linker_0, # of connection points: 2
#     Edge 55, Type (0, 0), BuildingBlock: OJICUG_clean_linker_0, # of connection points: 2
#     Edge 56, Type (0, 0), BuildingBlock: OJICUG_clean_linker_0, # of connection points: 2
#     Edge 57, Type (0, 0), BuildingBlock: OJICUG_clean_linker_0, # of connection points: 2
#     Edge 58, Type (0, 0), BuildingBlock: OJICUG_clean_linker_0, # of connection points: 2
#     Edge 59, Type (0, 0), BuildingBlock: OJICUG_clean_linker_0, # of connection points: 2
#     Edge 60, Type (0, 0), BuildingBlock: OJICUG_clean_linker_0, # of connection points: 2
#     Edge 61, Type (0, 0), BuildingBlock: OJICUG_clean_linker_0, # of connection points: 2
#     Edge 62, Type (0, 0), BuildingBlock: OJICUG_clean_linker_0, # of connection points: 2
#     Edge 63, Type (0, 0), BuildingBlock: OJICUG_clean_linker_0, # of connection points: 2
#     Edge 64, Type (0, 0), BuildingBlock: OJICUG_clean_linker_0, # of connection points: 2
#     Edge 65, Type (0, 0), BuildingBlock: OJICUG_clean_linker_0, # of connection points: 2
#     Edge 66, Type (0, 0), BuildingBlock: OJICUG_clean_linker_0, # of connection points: 2
#     Edge 67, Type (0, 0), BuildingBlock: OJICUG_clean_linker_0, # of connection points: 2
#     Edge 68, Type (0, 0), BuildingBlock: OJICUG_clean_linker_0, # of connection points: 2
#     Edge 69, Type (0, 0), BuildingBlock: OJICUG_clean_linker_0, # of connection points: 2
#     Edge 70, Type (0, 0), BuildingBlock: OJICUG_clean_linker_0, # of connection points: 2
#     Edge 71, Type (0, 0), BuildingBlock: OJICUG_clean_linker_0, # of connection points: 2
#     Edge 72, Type (0, 0), BuildingBlock: OJICUG_clean_linker_0, # of connection points: 2
#     Edge 73, Type (0, 0), BuildingBlock: OJICUG_clean_linker_0, # of connection points: 2
#     Edge 74, Type (0, 0), BuildingBlock: OJICUG_clean_linker_0, # of connection points: 2
#     Edge 75, Type (0, 0), BuildingBlock: OJICUG_clean_linker_0, # of connection points: 2
#     Edge 76, Type (0, 0), BuildingBlock: OJICUG_clean_linker_0, # of connection points: 2
#     Edge 77, Type (0, 0), BuildingBlock: OJICUG_clean_linker_0, # of connection points: 2
#     Edge 78, Type (0, 0), BuildingBlock: OJICUG_clean_linker_0, # of connection points: 2
#     Edge 79, Type (0, 0), BuildingBlock: OJICUG_clean_linker_0, # of connection points: 2
#     Edge 80, Type (0, 0), BuildingBlock: OJICUG_clean_linker_0, # of connection points: 2
#     Edge 81, Type (0, 0), BuildingBlock: OJICUG_clean_linker_0, # of connection points: 2
#     Edge 82, Type (0, 0), BuildingBlock: OJICUG_clean_linker_0, # of connection points: 2
#     Edge 83, Type (0, 0), BuildingBlock: OJICUG_clean_linker_0, # of connection points: 2
#     Edge 84, Type (0, 0), BuildingBlock: OJICUG_clean_linker_0, # of connection points: 2
#     Edge 85, Type (0, 0), BuildingBlock: OJICUG_clean_linker_0, # of connection points: 2
#     Edge 86, Type (0, 0), BuildingBlock: OJICUG_clean_linker_0, # of connection points: 2
#     Edge 87, Type (0, 0), BuildingBlock: OJICUG_clean_linker_0, # of connection points: 2
#     Edge 88, Type (0, 0), BuildingBlock: OJICUG_clean_linker_0, # of connection points: 2
#     Edge 89, Type (0, 0), BuildingBlock: OJICUG_clean_linker_0, # of connection points: 2
#     Edge 90, Type (0, 0), BuildingBlock: OJICUG_clean_linker_0, # of connection points: 2
#     Edge 91, Type (0, 0), BuildingBlock: OJICUG_clean_linker_0, # of connection points: 2
#     Edge 92, Type (0, 0), BuildingBlock: OJICUG_clean_linker_0, # of connection points: 2
#     Edge 93, Type (0, 0), BuildingBlock: OJICUG_clean_linker_0, # of connection points: 2
#     Edge 94, Type (0, 0), BuildingBlock: OJICUG_clean_linker_0, # of connection points: 2
#     Edge 95, Type (0, 0), BuildingBlock: OJICUG_clean_linker_0, # of connection points: 2
#     Edge 96, Type (0, 0), BuildingBlock: OJICUG_clean_linker_0, # of connection points: 2
#     Edge 97, Type (0, 0), BuildingBlock: OJICUG_clean_linker_0, # of connection points: 2
#     Edge 98, Type (0, 0), BuildingBlock: OJICUG_clean_linker_0, # of connection points: 2
#     Edge 99, Type (0, 0), BuildingBlock: OJICUG_clean_linker_0, # of connection points: 2
#     Edge 100, Type (0, 0), BuildingBlock: OJICUG_clean_linker_0, # of connection points: 2
#     Edge 101, Type (0, 0), BuildingBlock: OJICUG_clean_linker_0, # of connection points: 2
#     Edge 102, Type (0, 0), BuildingBlock: OJICUG_clean_linker_0, # of connection points: 2
#     Edge 103, Type (0, 0), BuildingBlock: OJICUG_clean_linker_0, # of connection points: 2
#     Edge 104, Type (0, 0), BuildingBlock: OJICUG_clean_linker_0, # of connection points: 2
#     Edge 105, Type (0, 0), BuildingBlock: OJICUG_clean_linker_0, # of connection points: 2
#     Edge 106, Type (0, 0), BuildingBlock: OJICUG_clean_linker_0, # of connection points: 2
#     Edge 107, Type (0, 0), BuildingBlock: OJICUG_clean_linker_0, # of connection points: 2
#     Edge 108, Type (0, 0), BuildingBlock: OJICUG_clean_linker_0, # of connection points: 2
#     Edge 109, Type (0, 0), BuildingBlock: OJICUG_clean_linker_0, # of connection points: 2
#     Edge 110, Type (0, 0), BuildingBlock: OJICUG_clean_linker_0, # of connection points: 2
#     Edge 111, Type (0, 0), BuildingBlock: OJICUG_clean_linker_0, # of connection points: 2
#     Edge 112, Type (0, 0), BuildingBlock: OJICUG_clean_linker_0, # of connection points: 2
#     Edge 113, Type (0, 0), BuildingBlock: OJICUG_clean_linker_0, # of connection points: 2
#     Edge 114, Type (0, 0), BuildingBlock: OJICUG_clean_linker_0, # of connection points: 2
#     Edge 115, Type (0, 0), BuildingBlock: OJICUG_clean_linker_0, # of connection points: 2
#     Edge 116, Type (0, 0), BuildingBlock: OJICUG_clean_linker_0, # of connection points: 2
#     Edge 117, Type (0, 0), BuildingBlock: OJICUG_clean_linker_0, # of connection points: 2
#     Edge 118, Type (0, 0), BuildingBlock: OJICUG_clean_linker_0, # of connection points: 2
#     Edge 119, Type (0, 0), BuildingBlock: OJICUG_clean_linker_0, # of connection points: 2
#     Edge 120, Type (0, 0), BuildingBlock: OJICUG_clean_linker_0, # of connection points: 2
#     Edge 121, Type (0, 0), BuildingBlock: OJICUG_clean_linker_0, # of connection points: 2
#     Edge 122, Type (0, 0), BuildingBlock: OJICUG_clean_linker_0, # of connection points: 2
#     Edge 123, Type (0, 0), BuildingBlock: OJICUG_clean_linker_0, # of connection points: 2
#     Edge 124, Type (0, 0), BuildingBlock: OJICUG_clean_linker_0, # of connection points: 2
#     Edge 125, Type (0, 0), BuildingBlock: OJICUG_clean_linker_0, # of connection points: 2
#     Edge 126, Type (0, 0), BuildingBlock: OJICUG_clean_linker_0, # of connection points: 2
#     Edge 127, Type (0, 0), BuildingBlock: OJICUG_clean_linker_0, # of connection points: 2
#     Edge 128, Type (0, 0), BuildingBlock: OJICUG_clean_linker_0, # of connection points: 2
#     Edge 129, Type (0, 0), BuildingBlock: OJICUG_clean_linker_0, # of connection points: 2
#     Edge 130, Type (0, 0), BuildingBlock: OJICUG_clean_linker_0, # of connection points: 2
#     Edge 131, Type (0, 0), BuildingBlock: OJICUG_clean_linker_0, # of connection points: 2
#     Edge 132, Type (0, 0), BuildingBlock: OJICUG_clean_linker_0, # of connection points: 2
#     Edge 133, Type (0, 0), BuildingBlock: OJICUG_clean_linker_0, # of connection points: 2
#     Edge 134, Type (0, 0), BuildingBlock: OJICUG_clean_linker_0, # of connection points: 2
#     Edge 135, Type (0, 0), BuildingBlock: OJICUG_clean_linker_0, # of connection points: 2
#     Edge 136, Type (0, 0), BuildingBlock: OJICUG_clean_linker_0, # of connection points: 2
#     Edge 137, Type (0, 0), BuildingBlock: OJICUG_clean_linker_0, # of connection points: 2
#     Edge 138, Type (0, 0), BuildingBlock: OJICUG_clean_linker_0, # of connection points: 2
#     Edge 139, Type (0, 0), BuildingBlock: OJICUG_clean_linker_0, # of connection points: 2
#     Edge 140, Type (0, 0), BuildingBlock: OJICUG_clean_linker_0, # of connection points: 2
#     Edge 141, Type (0, 0), BuildingBlock: OJICUG_clean_linker_0, # of connection points: 2
#     Edge 142, Type (0, 0), BuildingBlock: OJICUG_clean_linker_0, # of connection points: 2
#     Edge 143, Type (0, 0), BuildingBlock: OJICUG_clean_linker_0, # of connection points: 2
# Relax obj value: 0.318
# Max RMSD: 0.122
# Mean RMSD: 0.122
data_MOF--net-unx--node1-QUQFOY_clean_sbu_1--edge1-OJICUG_clean_linker_0
_symmetry_space_group_name_H-M    P1
_symmetry_Int_Tables_number       1
_symmetry_cell_setting            triclinic
loop_
_symmetry_equiv_pos_as_xyz
'x, y, z'
_cell_length_a     46.31192
_cell_length_b     46.446727
_cell_length_c     46.372877
_cell_angle_alpha  90.002566
_cell_angle_beta   89.910335
_cell_angle_gamma 89.948945
loop_
_atom_site_label
_atom_site_type_symbol
_atom_site_fract_x
_atom_site_fract_y
_atom_site_fract_z
_atom_type_partial_charge
O0 O 0.15258 0.55529 0.18183 0.0
Cd1 Cd 0.13947 0.55646 0.2236 0.0
Cd2 Cd 0.10248 0.5211 0.19086 0.0
O3 O 0.14102 0.51085 0.17036 0.0
O4 O 0.17101 0.58177 0.23791 0.0
O5 O 0.16838 0.53519 0.24769 0.0
C6 C 0.18343 0.55864 0.24698 0.0
C7 C 0.05783 0.49877 0.18987 0.0
C8 C 0.15747 0.5326 0.16746 0.0
C9 C 0.08441 0.57842 0.20944 0.0
O10 O 0.09024 0.56291 0.18775 0.0
O11 O 0.10033 0.57699 0.23175 0.0
O12 O 0.07093 0.5058 0.16637 0.0
O13 O 0.07252 0.49929 0.21356 0.0
O14 O 0.6871 0.34942 0.42437 0.0
Cd15 Cd 0.72642 0.3668 0.4335 0.0
Cd16 Cd 0.6896 0.39421 0.46577 0.0
O17 O 0.67317 0.35266 0.4694 0.0
O18 O 0.75108 0.33731 0.41537 0.0
O19 O 0.74534 0.34179 0.46277 0.0
C20 C 0.75309 0.32624 0.44087 0.0
C21 C 0.68802 0.4345 0.49407 0.0
C22 C 0.67253 0.33952 0.4453 0.0
C23 C 0.7116 0.42196 0.41448 0.0
O24 O 0.68858 0.41279 0.42608 0.0
O25 O 0.73488 0.40782 0.41782 0.0
O26 O 0.66444 0.42224 0.48572 0.0
O27 O 0.71193 0.42017 0.49178 0.0
O28 O 0.84736 0.93824 0.67929 0.0
Cd29 Cd 0.8627 0.94161 0.72019 0.0
Cd30 Cd 0.89682 0.97399 0.68288 0.0
O31 O 0.85693 0.98193 0.6639 0.0
O32 O 0.83236 0.91782 0.73883 0.0
O33 O 0.83475 0.96521 0.74336 0.0
C34 C 0.81995 0.94171 0.7458 0.0
C35 C 0.94081 -0.00257 0.68055 0.0
C36 C 0.84096 0.95962 0.66356 0.0
C37 C 0.91748 0.9195 0.70508 0.0
O38 O 0.90975 0.93233 0.68228 0.0
O39 O 0.90284 0.92288 0.72811 0.0
O40 O 0.92783 0.98914 0.65741 0.0
O41 O 0.92623 -0.00259 0.70439 0.0
O42 O 0.31072 0.15308 0.95674 0.0
Cd43 Cd 0.26865 0.14271 0.95008 0.0
Cd44 Cd 0.2997 0.09675 0.98291 0.0
O45 O 0.32593 0.13039 0.99563 0.0
O46 O 0.2617 0.17556 0.92331 0.0
O47 O 0.24351 0.17407 0.96721 0.0
C48 C 0.24938 0.1888 0.94432 0.0
C49 C 0.30114 0.04973 0.00057 0.0
C50 C 0.32863 0.15047 0.97717 0.0
C51 C 0.28111 0.08911 0.92149 0.0
O52 O 0.30108 0.08858 0.94005 0.0
O53 O 0.26081 0.10752 0.92344 0.0
O54 O 0.32414 0.06298 0.99264 0.0
O55 O 0.27785 0.06479 0.00333 0.0
O56 O 0.09268 0.42947 0.80358 0.0
Cd57 Cd 0.1044 0.47151 0.80389 0.0
Cd58 Cd 0.14297 0.43707 0.76912 0.0
O59 O 0.10357 0.41798 0.75896 0.0
O60 O 0.07271 0.48513 0.82955 0.0
O61 O 0.07446 0.4947 0.78285 0.0
C62 C 0.05974 0.49383 0.80657 0.0
C63 C 0.18773 0.43448 0.74685 0.0
C64 C 0.08691 0.41575 0.78071 0.0
C65 C 0.15996 0.45909 0.82589 0.0
O66 O 0.15455 0.43664 0.81136 0.0
O67 O 0.1435 0.48096 0.82373 0.0
O68 O 0.17452 0.41149 0.75511 0.0
O69 O 0.17319 0.45828 0.74634 0.0
O70 O 0.80055 0.40497 0.06537 0.0
Cd71 Cd 0.80214 0.38822 0.02498 0.0
Cd72 Cd 0.76742 0.35503 0.05761 0.0
O73 O 0.75585 0.39393 0.07653 0.0
O74 O 0.82769 0.4184 0.0088 0.0
O75 O 0.78116 0.41534 -0.00147 0.0
C76 C 0.80465 0.4304 -0.00112 0.0
C77 C 0.74492 0.31095 0.05451 0.0
C78 C 0.7776 0.41043 0.07921 0.0
C79 C 0.82557 0.33562 0.04473 0.0
O80 O 0.8087 0.34236 0.06517 0.0
O81 O 0.8242 0.34938 0.02102 0.0
O82 O 0.74853 0.32345 0.07909 0.0
O83 O 0.74863 0.32615 0.03141 0.0
O84 O 0.9047 0.07168 0.29777 0.0
Cd85 Cd 0.88578 0.03256 0.30304 0.0
Cd86 Cd 0.8526 0.06618 0.2682 0.0
O87 O 0.89168 0.08252 0.2536 0.0
O88 O 0.91475 0.01776 0.33086 0.0
O89 O 0.91207 0.00289 0.28561 0.0
C90 C 0.92665 0.00487 0.30931 0.0
C91 C 0.8076 0.06192 0.24755 0.0
C92 C 0.90966 0.08456 0.2742 0.0
C93 C 0.83427 0.05604 0.32643 0.0
O94 O 0.84242 0.07604 0.30973 0.0
O95 O 0.84643 0.0315 0.32476 0.0
O96 O 0.82018 0.08663 0.24952 0.0
O97 O 0.82294 0.03907 0.25213 0.0
O98 O 0.22034 0.09565 0.55412 0.0
Cd99 Cd 0.19964 0.08982 0.51588 0.0
Cd100 Cd 0.23639 0.15347 0.55037 0.0
O101 O 0.24703 0.12279 0.58119 0.0
O102 O 0.1768 0.05484 0.52413 0.0
O103 O 0.21235 0.05559 0.49224 0.0
C104 C 0.1934 0.04108 0.50664 0.0
C105 C 0.2467 0.20223 0.55524 0.0
C106 C 0.23326 0.09939 0.57783 0.0
C107 C 0.17135 0.14428 0.52218 0.0
O108 O 0.19531 0.14986 0.53414 0.0
O109 O 0.16846 0.12077 0.50837 0.0
O110 O 0.23124 0.18864 0.57383 0.0
O111 O 0.25895 0.18746 0.53503 0.0
O112 O 0.17625 0.82292 0.453 0.0
Cd113 Cd 0.21593 0.84109 0.44869 0.0
Cd114 Cd 0.18271 0.87376 0.48434 0.0
O115 O 0.16399 0.83537 0.49699 0.0
O116 O 0.22979 0.81265 0.4199 0.0
O117 O 0.24542 0.81359 0.46487 0.0
C118 C 0.24278 0.7998 0.44079 0.0
C119 C 0.18891 0.91705 0.50738 0.0
C120 C 0.1618 0.81824 0.47573 0.0
C121 C 0.19372 0.89415 0.42684 0.0
O122 O 0.17342 0.88655 0.4435 0.0
O123 O 0.21775 0.88082 0.4278 0.0
O124 O 0.16359 0.90574 0.50499 0.0
O125 O 0.21116 0.90116 0.50162 0.0
O126 O 0.34153 0.4407 0.6781 0.0
Cd127 Cd 0.35584 0.43677 0.71926 0.0
Cd128 Cd 0.39064 0.47417 0.68628 0.0
O129 O 0.34954 0.48689 0.67307 0.0
O130 O 0.32529 0.41051 0.73372 0.0
O131 O 0.32767 0.45685 0.74507 0.0
C132 C 0.3128 0.43328 0.7438 0.0
C133 C 0.43504 0.49611 0.68757 0.0
C134 C 0.33326 0.46516 0.66927 0.0
C135 C 0.41116 0.41838 0.70177 0.0
O136 O 0.40197 0.43228 0.68013 0.0
O137 O 0.39695 0.41945 0.72529 0.0
O138 O 0.42177 0.49239 0.66336 0.0
O139 O 0.42049 0.49271 0.71121 0.0
O140 O 0.81071 0.65818 0.95424 0.0
Cd141 Cd 0.76885 0.6469 0.94838 0.0
Cd142 Cd 0.80167 0.6016 0.98116 0.0
O143 O 0.82722 0.63617 0.99298 0.0
O144 O 0.76113 0.67955 0.92161 0.0
O145 O 0.74344 0.67796 0.96569 0.0
C146 C 0.74897 0.69272 0.94274 0.0
C147 C 0.80382 0.55491 -0.00033 0.0
C148 C 0.82903 0.65622 0.97438 0.0
C149 C 0.78196 0.59339 0.91984 0.0
O150 O 0.80196 0.59291 0.93839 0.0
O151 O 0.76155 0.61168 0.92173 0.0
O152 O 0.82664 0.56812 0.99111 0.0
O153 O 0.78046 0.56986 0.0024 0.0
O154 O 0.65647 0.06038 0.18205 0.0
Cd155 Cd 0.64034 0.05769 0.22274 0.0
Cd156 Cd 0.61038 0.02216 0.1895 0.0
O157 O 0.65073 0.0148 0.17127 0.0
O158 O 0.66955 0.08263 0.2411 0.0
O159 O 0.66849 0.03527 0.24675 0.0
C160 C 0.68264 0.05924 0.2485 0.0
C161 C 0.56851 0.99598 0.19145 0.0
C162 C 0.66479 0.03817 0.16852 0.0
C163 C 0.58546 0.07701 0.20564 0.0
O164 O 0.59382 0.06234 0.18415 0.0
O165 O 0.59971 0.07579 0.22906 0.0
O166 O 0.58077 0.00146 0.16704 0.0
O167 O 0.58335 -8e-05 0.21476 0.0
O168 O 0.55986 0.18318 0.08772 0.0
Cd169 Cd 0.51755 0.1871 0.09825 0.0
Cd170 Cd 0.55005 0.22197 0.13436 0.0
O171 O 0.57248 0.22792 0.09592 0.0
O172 O 0.50315 0.16293 0.06619 0.0
O173 O 0.49728 0.21016 0.06751 0.0
C174 C 0.49709 0.18649 0.05282 0.0
C175 C 0.55421 0.24681 0.17735 0.0
C176 C 0.57541 0.20472 0.08162 0.0
C177 C 0.52706 0.16512 0.15376 0.0
O178 O 0.54891 0.18109 0.15008 0.0
O179 O 0.50601 0.16648 0.1362 0.0
O180 O 0.57662 0.23665 0.16443 0.0
O181 O 0.53029 0.24793 0.16305 0.0
O182 O 0.06499 0.80112 0.40446 0.0
Cd183 Cd 0.02398 0.80318 0.38925 0.0
Cd184 Cd 0.05746 0.76775 0.35504 0.0
O185 O 0.07231 0.75537 0.39561 0.0
O186 O 0.00839 0.82895 0.41963 0.0
O187 O 0.99832 0.78238 0.41713 0.0
C188 C -0.00118 0.80597 0.43201 0.0
C189 C 0.05586 0.74562 0.31078 0.0
C190 C 0.07554 0.77711 0.41199 0.0
C191 C 0.04183 0.82418 0.33508 0.0
O192 O 0.06344 0.80953 0.34322 0.0
O193 O 0.01824 0.82223 0.34907 0.0
O194 O 0.08019 0.74954 0.32379 0.0
O195 O 0.03232 0.74886 0.32555 0.0
O196 O 0.43824 0.30586 0.59658 0.0
Cd197 Cd 0.48099 0.30322 0.60532 0.0
Cd198 Cd 0.44635 0.27111 0.65224 0.0
O199 O 0.41648 0.26982 0.61887 0.0
O200 O 0.49272 0.32619 0.57106 0.0
O201 O 0.50117 0.27964 0.57452 0.0
C202 C 0.50013 0.30253 0.55876 0.0
C203 C 0.43858 0.2502 0.69744 0.0
C204 C 0.41655 0.28964 0.59989 0.0
C205 C 0.47787 0.33024 0.6609 0.0
O206 O 0.45904 0.31093 0.66486 0.0
O207 O 0.49409 0.3296 0.63875 0.0
O208 O 0.4196 0.26648 0.68561 0.0
O209 O 0.46003 0.24184 0.68172 0.0
O210 O 0.94009 0.67771 0.84161 0.0
Cd211 Cd 0.94025 0.71813 0.85819 0.0
Cd212 Cd 0.97595 0.68477 0.88938 0.0
O213 O 0.98606 0.66893 0.84852 0.0
O214 O 0.91579 0.73629 0.82826 0.0
O215 O 0.96309 0.74309 0.83152 0.0
C216 C 0.93965 0.74444 0.81636 0.0
C217 C -0.00015 0.68785 0.93259 0.0
C218 C 0.9634 0.66608 0.83328 0.0
C219 C 0.92046 0.69943 0.91242 0.0
O220 O 0.93488 0.67806 0.90336 0.0
O221 O 0.92209 0.72326 0.89894 0.0
O222 O 0.99613 0.66324 0.92014 0.0
O223 O 0.99551 0.71094 0.91753 0.0
O224 O 0.06144 0.69195 0.09147 0.0
Cd225 Cd 0.01911 0.69291 0.10273 0.0
Cd226 Cd 0.05275 0.72688 0.14108 0.0
O227 O 0.07416 0.73607 0.1027 0.0
O228 O 0.00602 0.66734 0.07102 0.0
O229 O 0.99681 0.714 0.07195 0.0
C230 C 0.99799 0.69021 0.05751 0.0
C231 C 0.05547 0.74869 0.18591 0.0
C232 C 0.07657 0.71408 0.08647 0.0
C233 C 0.03062 0.66973 0.15776 0.0
O234 O 0.05286 0.68492 0.15324 0.0
O235 O 0.00896 0.67191 0.14102 0.0
O236 O 0.07841 0.74011 0.1727 0.0
O237 O 0.03177 0.75008 0.17126 0.0
O238 O 0.43025 0.79723 0.08166 0.0
Cd239 Cd 0.47057 0.80175 0.09835 0.0
Cd240 Cd 0.44134 0.76458 0.13062 0.0
O241 O 0.42333 0.75167 0.09187 0.0
O242 O 0.48483 0.82916 0.06889 0.0
O243 O 0.49866 0.78353 0.0711 0.0
C244 C 0.4966 0.80721 0.05653 0.0
C245 C 0.44776 0.74154 0.17381 0.0
C246 C 0.41852 0.77331 0.07581 0.0
C247 C 0.45024 0.82172 0.15227 0.0
O248 O 0.43028 0.80474 0.14459 0.0
O249 O 0.47397 0.82159 0.13839 0.0
O250 O 0.42264 0.74281 0.16187 0.0
O251 O 0.47009 0.74791 0.15826 0.0
O252 O 0.43419 0.17599 0.84166 0.0
Cd253 Cd 0.43772 0.2149 0.8613 0.0
Cd254 Cd 0.47322 0.18067 0.88699 0.0
O255 O 0.48035 0.16632 0.84499 0.0
O256 O 0.4143 0.23737 0.83381 0.0
O257 O 0.46217 0.23968 0.83617 0.0
C258 C 0.43858 0.24407 0.82181 0.0
C259 C 0.49986 0.18522 0.92804 0.0
C260 C 0.45664 0.16426 0.8313 0.0
C261 C 0.41987 0.19357 0.9151 0.0
O262 O 0.43362 0.17253 0.90432 0.0
O263 O 0.42158 0.2181 0.90298 0.0
O264 O 0.49699 0.16039 0.91573 0.0
O265 O 0.49335 0.20805 0.91333 0.0
O266 O 0.56587 0.29167 0.40342 0.0
Cd267 Cd 0.52429 0.29543 0.3898 0.0
Cd268 Cd 0.5585 0.26447 0.34819 0.0
O269 O 0.58386 0.25285 0.38286 0.0
O270 O 0.51289 0.32171 0.42166 0.0
O271 O 0.49805 0.27669 0.41929 0.0
C272 C 0.50119 0.29997 0.43419 0.0
C273 C 0.55803 0.24531 0.3019 0.0
C274 C 0.58484 0.27204 0.40241 0.0
C275 C 0.53942 0.3243 0.33732 0.0
O276 O 0.56045 0.30702 0.33917 0.0
O277 O 0.51761 0.32139 0.3538 0.0
O278 O 0.58179 0.25261 0.3142 0.0
O279 O 0.53508 0.24402 0.31771 0.0
O280 O 0.15086 0.07361 0.67974 0.0
Cd281 Cd 0.13585 0.06333 0.71991 0.0
Cd282 Cd 0.10673 0.03173 0.68173 0.0
O283 O 0.14787 0.02941 0.66352 0.0
O284 O 0.1655 0.08332 0.74304 0.0
O285 O 0.16375 0.03584 0.73802 0.0
C286 C 0.17824 0.05863 0.74503 0.0
C287 C 0.06573 0.00406 0.67916 0.0
C288 C 0.16057 0.05373 0.66365 0.0
C289 C 0.07901 0.08032 0.70795 0.0
O290 O 0.08865 0.07144 0.68397 0.0
O291 O 0.09397 0.07634 0.7306 0.0
O292 O 0.07759 0.01406 0.65601 0.0
O293 O 0.08063 0.00453 0.70277 0.0
O294 O 0.68221 0.84163 0.93947 0.0
Cd295 Cd 0.72254 0.85873 0.94106 0.0
Cd296 Cd 0.68927 0.88877 0.97635 0.0
O297 O 0.67226 0.84828 0.98522 0.0
O298 O 0.7419 0.82922 0.91711 0.0
O299 O 0.74701 0.83221 0.96458 0.0
C300 C 0.74926 0.81723 0.94112 0.0
C301 C 0.69235 0.93135 0.00115 0.0
C302 C 0.66947 0.83352 0.96226 0.0
C303 C 0.70383 0.91278 0.92112 0.0
O304 O 0.68252 0.90397 0.93581 0.0
O305 O 0.72773 0.89929 0.9227 0.0
O306 O 0.66767 0.91903 0.99719 0.0
O307 O 0.71549 0.91629 0.99668 0.0
O308 O 0.84197 0.43737 0.17989 0.0
Cd309 Cd 0.85819 0.43741 0.22058 0.0
Cd310 Cd 0.88973 0.47359 0.18727 0.0
O311 O 0.84929 0.48304 0.17033 0.0
O312 O 0.82845 0.41231 0.23832 0.0
O313 O 0.8309 0.45944 0.24567 0.0
C314 C 0.81613 0.43579 0.24678 0.0
C315 C 0.93279 0.49811 0.18914 0.0
C316 C 0.83415 0.46037 0.16743 0.0
C317 C 0.91317 0.41853 0.20258 0.0
O318 O 0.90415 0.43273 0.18108 0.0
O319 O 0.89924 0.41985 0.22624 0.0
O320 O 0.92017 0.49334 0.1648 0.0
O321 O 0.91799 0.49431 0.21254 0.0
O322 O 0.31805 0.65225 0.41775 0.0
Cd323 Cd 0.27868 0.63505 0.42743 0.0
Cd324 Cd 0.31561 0.60915 0.46069 0.0
O325 O 0.33064 0.65128 0.46321 0.0
O326 O 0.25338 0.66395 0.40919 0.0
O327 O 0.26023 0.66067 0.45655 0.0
C328 C 0.25183 0.67563 0.43449 0.0
C329 C 0.31421 0.5702 0.49057 0.0
C330 C 0.33167 0.66347 0.43863 0.0
C331 C 0.29395 0.57832 0.41262 0.0
O332 O 0.3173 0.5892 0.42176 0.0
O333 O 0.27056 0.5924 0.41576 0.0
O334 O 0.33872 0.58135 0.48323 0.0
O335 O 0.29094 0.58513 0.48626 0.0
O336 O 0.08301 0.93437 0.29954 0.0
Cd337 Cd 0.09581 0.97533 0.30747 0.0
Cd338 Cd 0.13892 0.94558 0.27196 0.0
O339 O 0.1038 0.92139 0.2588 0.0
O340 O 0.06261 0.98413 0.33337 0.0
O341 O 0.06699 0.00286 0.28989 0.0
C342 C 0.05104 -0.00232 0.31217 0.0
C343 C 0.18477 0.94509 0.25127 0.0
C344 C 0.08418 0.91803 0.27772 0.0
C345 C 0.14869 0.95865 0.33505 0.0
O346 O 0.14933 0.94105 0.31422 0.0
O347 O 0.13068 0.97937 0.3352 0.0
O348 O 0.17168 0.92168 0.25809 0.0
O349 O 0.16995 0.96864 0.25157 0.0
O350 O 0.80651 0.89674 0.56234 0.0
Cd351 Cd 0.80424 0.88045 0.52181 0.0
Cd352 Cd 0.77064 0.84815 0.55647 0.0
O353 O 0.76195 0.88776 0.57566 0.0
O354 O 0.8286 0.91039 0.50361 0.0
O355 O 0.78124 0.90789 0.49766 0.0
C356 C 0.80485 0.92269 0.496 0.0
C357 C 0.74661 0.80477 0.55634 0.0
C358 C 0.78449 0.90336 0.57714 0.0
C359 C 0.8276 0.82736 0.53889 0.0
O360 O 0.81199 0.83402 0.56034 0.0
O361 O 0.82523 0.84152 0.51552 0.0
O362 O 0.75289 0.81751 0.58023 0.0
O363 O 0.74851 0.81953 0.53274 0.0
O364 O 0.90996 0.56626 0.79783 0.0
Cd365 Cd 0.89287 0.52625 0.80224 0.0
Cd366 Cd 0.85792 0.55966 0.7672 0.0
O367 O 0.89662 0.5779 0.7539 0.0
O368 O 0.92298 0.51181 0.82915 0.0
O369 O 0.91991 0.49791 0.78366 0.0
C370 C 0.93489 0.49976 0.80711 0.0
C371 C 0.813 0.55586 0.746 0.0
C372 C 0.91436 0.58012 0.77471 0.0
C373 C 0.83995 0.54719 0.82535 0.0
O374 O 0.84719 0.56767 0.80886 0.0
O375 O 0.85353 0.52336 0.82393 0.0
O376 O 0.82525 0.58059 0.74922 0.0
O377 O 0.8286 0.53303 0.7497 0.0
O378 O 0.18769 0.59333 0.0619 0.0
Cd379 Cd 0.19144 0.60736 0.02064 0.0
Cd380 Cd 0.22463 0.64143 0.05592 0.0
O381 O 0.23227 0.60174 0.07533 0.0
O382 O 0.16791 0.57637 0.00313 0.0
O383 O 0.21543 0.57876 -0.00138 0.0
C384 C 0.19194 0.5638 0.99682 0.0
C385 C 0.24867 0.68482 0.05853 0.0
C386 C 0.20948 0.5865 0.07688 0.0
C387 C 0.16876 0.66184 0.03444 0.0
O388 O 0.18315 0.6556 0.05679 0.0
O389 O 0.17144 0.64647 0.01186 0.0
O390 O 0.24029 0.67177 0.0816 0.0
O391 O 0.24865 0.67045 0.03462 0.0
O392 O 0.18688 0.34477 0.94105 0.0
Cd393 Cd 0.22868 0.35764 0.94273 0.0
Cd394 Cd 0.19484 0.39457 0.97612 0.0
O395 O 0.1728 0.35654 0.98477 0.0
O396 O 0.24406 0.3257 0.9187 0.0
O397 O 0.2512 0.3286 0.96574 0.0
C398 C 0.25152 0.31333 0.94241 0.0
C399 C 0.19282 0.43913 -0.00154 0.0
C400 C 0.17084 0.34031 0.96273 0.0
C401 C 0.21566 0.41182 0.91855 0.0
O402 O 0.19379 0.40729 0.93432 0.0
O403 O 0.23773 0.39562 0.9208 0.0
O404 O 0.16966 0.42612 0.99037 0.0
O405 O 0.21651 0.42438 -0.00088 0.0
O406 O 0.34203 0.9467 0.18663 0.0
Cd407 Cd 0.35457 0.94413 0.22843 0.0
Cd408 Cd 0.39765 0.97572 0.19513 0.0
O409 O 0.36268 0.98568 0.16912 0.0
O410 O 0.3213 0.91975 0.23988 0.0
O411 O 0.32535 0.96505 0.25336 0.0
C412 C 0.30948 0.94238 0.25059 0.0
C413 C 0.44368 0.99574 0.1924 0.0
C414 C 0.34322 0.9664 0.16782 0.0
C415 C 0.40688 0.91422 0.21541 0.0
O416 O 0.40803 0.9333 0.19596 0.0
O417 O 0.38863 0.91618 0.23584 0.0
O418 O 0.43071 0.98617 0.16989 0.0
O419 O 0.42862 -0.00136 0.21568 0.0
O420 O 0.80739 0.15744 0.46817 0.0
Cd421 Cd 0.76624 0.15389 0.4537 0.0
Cd422 Cd 0.80032 0.09506 0.48607 0.0
O423 O 0.83112 0.12618 0.49479 0.0
O424 O 0.76904 0.18824 0.42815 0.0
O425 O 0.7414 0.18761 0.46675 0.0
C426 C 0.7531 0.20207 0.44605 0.0
C427 C 0.80563 0.04685 0.49968 0.0
C428 C 0.82979 0.1504 0.48205 0.0
C429 C 0.77381 0.09942 0.42225 0.0
O430 O 0.78809 0.09156 0.44413 0.0
O431 O 0.75964 0.12292 0.42232 0.0
O432 O 0.8253 0.06012 0.48541 0.0
O433 O 0.7845 0.06193 0.50979 0.0
O434 O 0.65595 0.54874 0.68301 0.0
Cd435 Cd 0.64338 0.54812 0.72494 0.0
Cd436 Cd 0.60525 0.51531 0.6896 0.0
O437 O 0.64403 0.5051 0.66932 0.0
O438 O 0.67433 0.57435 0.73855 0.0
O439 O 0.67389 0.5278 0.74832 0.0
C440 C 0.68799 0.5518 0.74721 0.0
C441 C 0.56015 0.49396 0.68735 0.0
C442 C 0.66095 0.52664 0.66781 0.0
C443 C 0.58872 0.57188 0.71204 0.0
O444 O 0.59413 0.55761 0.6894 0.0
O445 O 0.60463 0.5688 0.73419 0.0
O446 O 0.57331 0.50215 0.66426 0.0
O447 O 0.57489 0.49284 0.711 0.0
O448 O 0.5602 0.68701 0.59713 0.0
Cd449 Cd 0.51861 0.68821 0.61089 0.0
Cd450 Cd 0.55043 0.72301 0.64565 0.0
O451 O 0.57192 0.73166 0.60731 0.0
O452 O 0.50254 0.66432 0.57938 0.0
O453 O 0.49548 0.71137 0.5827 0.0
C454 C 0.49486 0.68812 0.56734 0.0
C455 C 0.55163 0.7471 0.68914 0.0
C456 C 0.5751 0.70925 0.59185 0.0
C457 C 0.53271 0.6651 0.66499 0.0
O458 O 0.55375 0.68183 0.66021 0.0
O459 O 0.5104 0.66647 0.64907 0.0
O460 O 0.57507 0.73974 0.67609 0.0
O461 O 0.52779 0.74612 0.6747 0.0
O462 O 0.06367 0.30916 0.90023 0.0
Cd463 Cd 0.0222 0.30375 0.8871 0.0
Cd464 Cd 0.05953 0.27188 0.85135 0.0
O465 O 0.07982 0.26568 0.8909 0.0
O466 O 0.00413 0.32696 0.91824 0.0
O467 O 0.00127 0.27947 0.91637 0.0
C468 C 0.9985 0.30299 0.93108 0.0
C469 C 0.06341 0.24784 0.80778 0.0
C470 C 0.0802 0.28832 0.90641 0.0
C471 C 0.03364 0.32604 0.83161 0.0
O472 O 0.05701 0.31318 0.83754 0.0
O473 O 0.01165 0.32262 0.84777 0.0
O474 O 0.086 0.258 0.8204 0.0
O475 O 0.03968 0.2465 0.82248 0.0
O476 O 0.93748 0.17635 0.3435 0.0
Cd477 Cd 0.93683 0.21631 0.36104 0.0
Cd478 Cd 0.97484 0.18453 0.38995 0.0
O479 O 0.98415 0.17024 0.34825 0.0
O480 O 0.91237 0.23516 0.33152 0.0
O481 O 0.95966 0.24203 0.33518 0.0
C482 C 0.93628 0.24365 0.31994 0.0
C483 C 0.00076 0.18791 0.43205 0.0
C484 C 0.96109 0.16645 0.33385 0.0
C485 C 0.91903 0.19549 0.4152 0.0
O486 O 0.93475 0.17526 0.40563 0.0
O487 O 0.91911 0.21966 0.4022 0.0
O488 O 0.99762 0.16346 0.41914 0.0
O489 O 0.99445 0.21109 0.41785 0.0
O490 O 0.06166 0.1714 0.5964 0.0
Cd491 Cd 0.01988 0.18305 0.60345 0.0
Cd492 Cd 0.05631 0.21457 0.641 0.0
O493 O 0.07971 0.21457 0.60236 0.0
O494 O 0.00294 0.16241 0.57006 0.0
O495 O 0.00585 0.20988 0.57221 0.0
C496 C 0.00158 0.1869 0.55704 0.0
C497 C 0.06434 0.24011 0.68321 0.0
C498 C 0.07995 0.1904 0.58936 0.0
C499 C 0.02086 0.16374 0.66078 0.0
O500 O 0.04525 0.17585 0.65827 0.0
O501 O 0.00197 0.1668 0.64112 0.0
O502 O 0.08449 0.22474 0.67179 0.0
O503 O 0.04171 0.24545 0.66778 0.0
O504 O 0.44909 0.69026 0.33813 0.0
Cd505 Cd 0.45055 0.73327 0.34562 0.0
Cd506 Cd 0.47939 0.69853 0.39626 0.0
O507 O 0.48226 0.66782 0.36389 0.0
O508 O 0.42637 0.74187 0.31149 0.0
O509 O 0.47247 0.75299 0.31305 0.0
C510 C 0.44926 0.74971 0.29805 0.0
C511 C 0.49655 0.69014 0.44297 0.0
C512 C 0.46392 0.66802 0.34346 0.0
C513 C 0.41996 0.73143 0.39954 0.0
O514 O 0.43894 0.71271 0.40536 0.0
O515 O 0.42219 0.74701 0.37712 0.0
O516 O 0.48032 0.67196 0.42999 0.0
O517 O 0.50675 0.71123 0.42799 0.0
O518 O 0.56776 0.80147 0.90636 0.0
Cd519 Cd 0.52718 0.80426 0.88996 0.0
Cd520 Cd 0.55809 0.76794 0.85737 0.0
O521 O 0.57677 0.75619 0.89624 0.0
O522 O 0.5118 0.83063 0.91988 0.0
O523 O 0.50019 0.78444 0.91719 0.0
C524 C 0.5012 0.80801 0.93205 0.0
C525 C 0.55391 0.74488 0.81377 0.0
C526 C 0.58059 0.7781 0.91223 0.0
C527 C 0.54664 0.82516 0.83626 0.0
O528 O 0.567 0.8086 0.84381 0.0
O529 O 0.52294 0.82453 0.85019 0.0
O530 O 0.57871 0.74781 0.82605 0.0
O531 O 0.53099 0.74957 0.82909 0.0
O532 O 0.59714 0.4389 0.30855 0.0
Cd533 Cd 0.60785 0.48074 0.3007 0.0
Cd534 Cd 0.64675 0.44357 0.27159 0.0
O535 O 0.60856 0.42076 0.26634 0.0
O536 O 0.57619 0.49758 0.32394 0.0
O537 O 0.5769 0.49926 0.27634 0.0
C538 C 0.56259 0.50196 0.30014 0.0
C539 C 0.69125 0.437 0.24961 0.0
C540 C 0.59276 0.42054 0.28884 0.0
C541 C 0.66332 0.47485 0.3246 0.0
O542 O 0.65955 0.45056 0.31279 0.0
O543 O 0.64571 0.49526 0.31966 0.0
O544 O 0.67832 0.41596 0.26225 0.0
O545 O 0.67654 0.46017 0.24472 0.0
O546 O 0.29145 0.42447 0.56978 0.0
Cd547 Cd 0.30003 0.40565 0.53109 0.0
Cd548 Cd 0.2641 0.37108 0.56372 0.0
O549 O 0.24848 0.40858 0.58186 0.0
O550 O 0.32936 0.43464 0.51937 0.0
O551 O 0.28608 0.43203 0.49961 0.0
C552 C 0.30951 0.44649 0.50401 0.0
C553 C 0.24348 0.32638 0.55766 0.0
C554 C 0.26834 0.4273 0.58416 0.0
C555 C 0.32299 0.35376 0.55571 0.0
O556 O 0.30518 0.36097 0.57515 0.0
O557 O 0.32235 0.36658 0.53143 0.0
O558 O 0.24464 0.33831 0.58274 0.0
O559 O 0.24924 0.34205 0.53532 0.0
O560 O 0.40269 0.06576 0.79407 0.0
Cd561 Cd 0.38787 0.02493 0.79898 0.0
Cd562 Cd 0.34941 0.05841 0.76494 0.0
O563 O 0.38721 0.07796 0.75096 0.0
O564 O 0.41907 0.01273 0.82585 0.0
O565 O 0.41653 -0.00211 0.78066 0.0
C566 C 0.43149 0.0009 0.80399 0.0
C567 C 0.30336 0.05799 0.7453 0.0
C568 C 0.40574 0.08017 0.77108 0.0
C569 C 0.33494 0.04328 0.82407 0.0
O570 O 0.34051 0.06412 0.8074 0.0
O571 O 0.34956 0.02012 0.82206 0.0
O572 O 0.31664 0.08182 0.75042 0.0
O573 O 0.31822 0.03443 0.74636 0.0
O574 O 0.69808 0.08945 0.06093 0.0
Cd575 Cd 0.6975 0.1012 0.01877 0.0
Cd576 Cd 0.72996 0.1408 0.05122 0.0
O577 O 0.74134 0.10384 0.07373 0.0
O578 O 0.67171 0.06933 0.00687 0.0
O579 O 0.71801 0.07054 0.99559 0.0
C580 C 0.69435 0.05596 0.99792 0.0
C581 C 0.75013 0.18643 0.05296 0.0
C582 C 0.72029 0.08648 0.07653 0.0
C583 C 0.67124 0.15467 0.0311 0.0
O584 O 0.68742 0.15133 0.05282 0.0
O585 O 0.67403 0.13814 0.00939 0.0
O586 O 0.74263 0.17309 0.07612 0.0
O587 O 0.75136 0.17173 0.02931 0.0
O588 O 0.93836 0.30431 0.09684 0.0
Cd589 Cd 0.98143 0.30308 0.10344 0.0
Cd590 Cd 0.94862 0.26844 0.15009 0.0
O591 O 0.92288 0.26267 0.1136 0.0
O592 O 0.99083 0.32709 0.06903 0.0
O593 O 0.00139 0.28092 0.07136 0.0
C594 C -0.00119 0.30397 0.05602 0.0
C595 C 0.94021 0.24784 0.19528 0.0
C596 C 0.92076 0.28353 0.09589 0.0
C597 C 0.97735 0.32894 0.15905 0.0
O598 O 0.95867 0.30931 0.16235 0.0
O599 O 0.99435 0.32865 0.13746 0.0
O600 O 0.92053 0.26234 0.18223 0.0
O601 O 0.96295 0.24085 0.18068 0.0
O602 O 0.93745 0.8031 0.59612 0.0
Cd603 Cd 0.98053 0.80304 0.60357 0.0
Cd604 Cd 0.94881 0.76797 0.64666 0.0
O605 O 0.92607 0.75902 0.60901 0.0
O606 O 0.99077 0.82822 0.57029 0.0
O607 O 0.00128 0.78188 0.57164 0.0
C608 C -0.00106 0.80536 0.55686 0.0
C609 C 0.94317 0.74653 0.69162 0.0
C610 C 0.92264 0.78053 0.59237 0.0
C611 C 0.97369 0.82686 0.65946 0.0
O612 O 0.95229 0.8099 0.65883 0.0
O613 O 0.99317 0.82535 0.64012 0.0
O614 O 0.92152 0.75755 0.67821 0.0
O615 O 0.96688 0.74298 0.67731 0.0
O616 O 0.59307 0.937 0.79935 0.0
Cd617 Cd 0.60274 0.9795 0.80142 0.0
Cd618 Cd 0.64877 0.94649 0.76859 0.0
O619 O 0.6135 0.92043 0.75965 0.0
O620 O 0.56926 0.98928 0.82676 0.0
O621 O 0.57161 0.00241 0.78115 0.0
C622 C 0.55641 -0.0008 0.80431 0.0
C623 C 0.69497 0.94229 0.74873 0.0
C624 C 0.59426 0.91864 0.77921 0.0
C625 C 0.65771 0.97108 0.8288 0.0
O626 O 0.65912 0.95063 0.81081 0.0
O627 O 0.63798 0.99008 0.82689 0.0
O628 O 0.68203 0.92054 0.75996 0.0
O629 O 0.67987 0.96526 0.74428 0.0
O630 O 0.31683 0.89704 0.05994 0.0
Cd631 Cd 0.30677 0.88249 0.01973 0.0
Cd632 Cd 0.27676 0.85128 0.05718 0.0
O633 O 0.27284 0.89157 0.07642 0.0
O634 O 0.32661 0.91289 0.99762 0.0
O635 O 0.27897 0.91031 0.0019 0.0
C636 C 0.30171 0.92528 0.99565 0.0
C637 C 0.25072 0.80938 0.06019 0.0
C638 C 0.29664 0.90528 0.07647 0.0
C639 C 0.32775 0.82703 0.03044 0.0
O640 O 0.31724 0.8347 0.05448 0.0
O641 O 0.32296 0.84233 0.00821 0.0
O642 O 0.26073 0.82147 0.08316 0.0
O643 O 0.25012 0.82435 0.03664 0.0
O644 O 0.39594 0.55381 0.3201 0.0
Cd645 Cd 0.39071 0.51186 0.30925 0.0
Cd646 Cd 0.3507 0.54619 0.27632 0.0
O647 O 0.3885 0.57081 0.27665 0.0
O648 O 0.42551 0.49728 0.32928 0.0
O649 O 0.42187 0.49864 0.28178 0.0
C650 C 0.43787 0.49577 0.30441 0.0
C651 C 0.30808 0.55678 0.2522 0.0
C652 C 0.4017 0.57206 0.3007 0.0
C653 C 0.33445 0.51057 0.33058 0.0
O654 O 0.33381 0.53272 0.31463 0.0
O655 O 0.35558 0.49315 0.329 0.0
O656 O 0.31987 0.57528 0.26912 0.0
O657 O 0.32317 0.53454 0.24481 0.0
O658 O 0.69002 0.58723 0.56454 0.0
Cd659 Cd 0.68991 0.60205 0.52342 0.0
Cd660 Cd 0.72484 0.63617 0.55657 0.0
O661 O 0.73509 0.59675 0.57536 0.0
O662 O 0.6644 0.57148 0.50798 0.0
O663 O 0.7112 0.57374 0.49851 0.0
C664 C 0.68754 0.55895 0.49889 0.0
C665 C 0.74795 0.6801 0.55603 0.0
C666 C 0.71288 0.58085 0.57805 0.0
C667 C 0.66752 0.65593 0.53998 0.0
O668 O 0.68325 0.64935 0.56132 0.0
O669 O 0.6692 0.64119 0.5169 0.0
O670 O 0.74234 0.66719 0.58002 0.0
O671 O 0.74585 0.66536 0.53243 0.0
C672 C 0.21654 0.56695 0.12637 0.0
C673 C 0.20551 0.56369 0.09851 0.0
H674 H 0.20971 0.55802 0.17108 0.0
C675 C 0.18473 0.54215 0.0932 0.0
H676 H 0.23273 0.58313 0.13094 0.0
C677 C 0.17153 0.52774 0.11611 0.0
C678 C 0.17907 0.5349 0.14438 0.0
H679 H 0.17639 0.53881 0.07162 0.0
H680 H 0.15304 0.51413 0.11182 0.0
C681 C 0.20332 0.55255 0.14927 0.0
C682 C 0.68719 0.46677 0.39917 0.0
C683 C 0.70909 0.44625 0.39433 0.0
H684 H 0.65535 0.49386 0.37955 0.0
C685 C 0.72241 0.4449 0.36727 0.0
H686 H 0.67711 0.46863 0.4202 0.0
C687 C 0.71016 0.45973 0.34412 0.0
C688 C 0.68453 0.47567 0.34802 0.0
H689 H 0.7395 0.42951 0.3631 0.0
H690 H 0.71806 0.45518 0.32257 0.0
C691 C 0.67493 0.48157 0.376 0.0
C692 C 0.79535 0.93597 0.64918 0.0
C693 C 0.81779 0.95532 0.64233 0.0
H694 H 0.76606 0.90409 0.63307 0.0
C695 C 0.82168 0.96382 0.61366 0.0
H696 H 0.7916 0.92955 0.67135 0.0
C697 C 0.80687 0.94933 0.59182 0.0
C698 C 0.78814 0.92637 0.59858 0.0
H699 H 0.8386 0.97884 0.60786 0.0
H700 H 0.81267 0.95372 0.56959 0.0
C701 C 0.78052 0.92151 0.62735 0.0
C702 C 0.31664 0.03471 0.87407 0.0
C703 C 0.31388 0.04838 0.84736 0.0
H704 H 0.30711 0.03692 0.91912 0.0
C705 C 0.29356 0.07082 0.84423 0.0
H706 H 0.33174 0.01713 0.87697 0.0
C707 C 0.27943 0.0822 0.86828 0.0
C708 C 0.28556 0.07124 0.89567 0.0
H709 H 0.29042 0.08121 0.82354 0.0
H710 H 0.2663 0.10135 0.86577 0.0
C711 C 0.30252 0.0461 0.89813 0.0
C712 C 0.1927 0.45574 0.89907 0.0
C713 C 0.21187 0.43248 0.89485 0.0
H714 H 0.16083 0.48313 0.8798 0.0
C715 C 0.21997 0.42493 0.86681 0.0
H716 H 0.18654 0.46224 0.92068 0.0
C717 C 0.20529 0.437 0.84347 0.0
C718 C 0.18249 0.45664 0.84808 0.0
H719 H 0.23478 0.40727 0.863 0.0
H720 H 0.20956 0.42858 0.82208 0.0
C721 C 0.178 0.46779 0.87573 0.0
C722 C 0.7728 0.42531 0.13021 0.0
C723 C 0.77972 0.43252 0.10176 0.0
H724 H 0.7851 0.42973 0.1744 0.0
C725 C 0.79772 0.45641 0.09645 0.0
H726 H 0.75893 0.4071 0.13483 0.0
C727 C 0.81295 0.46924 0.11903 0.0
C728 C 0.81008 0.45819 0.14693 0.0
H729 H 0.80304 0.46254 0.07451 0.0
H730 H 0.82961 0.48485 0.11405 0.0
C731 C 0.78802 0.43812 0.15278 0.0
C732 C 0.77938 0.09836 0.36885 0.0
C733 C 0.77978 0.08367 0.39522 0.0
H734 H 0.79653 0.10084 0.32617 0.0
C735 C 0.7932 0.0564 0.39662 0.0
H736 H 0.76911 0.11924 0.36699 0.0
C737 C 0.80935 0.04601 0.37337 0.0
C738 C 0.81217 0.06272 0.3484 0.0
H739 H 0.79347 0.04432 0.41661 0.0
H740 H 0.8214 0.02616 0.37584 0.0
C741 C 0.79552 0.08798 0.34563 0.0
C742 C 0.2217 0.09538 0.63005 0.0
C743 C 0.22389 0.08209 0.60296 0.0
H744 H 0.19963 0.09668 0.67047 0.0
C745 C 0.20979 0.05556 0.59856 0.0
H746 H 0.23237 0.1157 0.63426 0.0
C747 C 0.19074 0.04466 0.61937 0.0
C748 C 0.18544 0.0603 0.64469 0.0
H749 H 0.21143 0.04462 0.57799 0.0
H750 H 0.17846 0.02542 0.61455 0.0
C751 C 0.20252 0.08467 0.65064 0.0
C752 C 0.12725 0.19839 0.56369 0.0
C753 C 0.10137 0.18307 0.5668 0.0
H754 H 0.17001 0.19836 0.54597 0.0
C755 C 0.09665 0.15869 0.54935 0.0
H756 H 0.13121 0.21762 0.5763 0.0
C757 C 0.11856 0.14789 0.53173 0.0
C758 C 0.14576 0.1611 0.53139 0.0
H759 H 0.07652 0.14687 0.55052 0.0
H760 H 0.11494 0.12775 0.52052 0.0
C761 C 0.14935 0.18743 0.54616 0.0
C762 C 0.02661 0.37635 0.8153 0.0
C763 C 0.03524 0.34819 0.80906 0.0
H764 H 0.03654 0.42093 0.80972 0.0
C765 C 0.05403 0.34321 0.78561 0.0
H766 H 0.01206 0.38072 0.83308 0.0
C767 C 0.06842 0.36615 0.77247 0.0
C768 C 0.06383 0.3941 0.78269 0.0
H769 H 0.06057 0.32146 0.78016 0.0
H770 H 0.08571 0.36163 0.75737 0.0
C771 C 0.04087 0.3993 0.80205 0.0
C772 C 0.87586 0.31738 0.03857 0.0
C773 C 0.84845 0.3145 0.05091 0.0
H774 H 0.92089 0.30859 0.04332 0.0
C775 C 0.84432 0.29452 0.07346 0.0
H776 H 0.87955 0.33231 0.021 0.0
C777 C 0.86793 0.28088 0.08627 0.0
C778 C 0.89582 0.28723 0.07665 0.0
H779 H 0.82311 0.2914 0.08286 0.0
H780 H 0.86457 0.26804 0.10549 0.0
C781 C 0.89945 0.3038 0.05142 0.0
C782 C 0.97085 0.12065 0.30798 0.0
C783 C 0.95961 0.14859 0.30773 0.0
H784 H 0.96363 0.07711 0.29497 0.0
C785 C 0.93924 0.1562 0.2865 0.0
H786 H 0.98672 0.11436 0.32393 0.0
C787 C 0.9259 0.13491 0.26995 0.0
C788 C 0.93292 0.10603 0.27479 0.0
H789 H 0.93073 0.17793 0.28557 0.0
H790 H 0.90716 0.14062 0.25721 0.0
C791 C 0.9576 0.09937 0.29129 0.0
C792 C 0.10993 0.80689 0.47768 0.0
C793 C 0.1382 0.79735 0.47303 0.0
H794 H 0.06687 0.80702 0.46121 0.0
C795 C 0.14294 0.77327 0.4551 0.0
H796 H 0.10567 0.82524 0.49149 0.0
C797 C 0.12085 0.76311 0.4373 0.0
C798 C 0.09398 0.77685 0.4378 0.0
H799 H 0.16468 0.76534 0.45153 0.0
H800 H 0.12596 0.7475 0.4207 0.0
C801 C 0.08784 0.79669 0.45998 0.0
C802 C 0.45996 0.35383 0.70525 0.0
C803 C 0.47405 0.35648 0.67835 0.0
H804 H 0.42794 0.37142 0.73373 0.0
C805 C 0.47377 0.38317 0.66436 0.0
H806 H 0.4603 0.33353 0.71677 0.0
C807 C 0.45512 0.40475 0.67404 0.0
C808 C 0.43679 0.39987 0.69785 0.0
H809 H 0.48464 0.38601 0.64385 0.0
H810 H 0.45307 0.42415 0.66121 0.0
C811 C 0.44115 0.37536 0.71484 0.0
C812 C 0.90478 0.67088 0.95499 0.0
C813 C 0.90046 0.69477 0.93672 0.0
H814 H 0.88491 0.64002 0.98299 0.0
C815 C 0.87504 0.71085 0.93934 0.0
H816 H 0.9247 0.65866 0.9541 0.0
C817 C 0.85249 0.70043 0.95641 0.0
C818 C 0.85517 0.67377 0.97076 0.0
H819 H 0.8714 0.72964 0.92598 0.0
H820 H 0.83179 0.71129 0.95545 0.0
C821 C 0.88222 0.66045 0.97203 0.0
C822 C 0.52529 0.11337 0.16659 0.0
C823 C 0.53024 0.14185 0.17499 0.0
H824 H 0.53932 0.0697 0.17066 0.0
C825 C 0.54699 0.14731 0.19977 0.0
H826 H 0.51243 0.10861 0.14768 0.0
C827 C 0.56266 0.12514 0.21278 0.0
C828 C 0.56159 0.09743 0.20104 0.0
H829 H 0.55079 0.16924 0.20681 0.0
H830 H 0.57806 0.13038 0.22954 0.0
C831 C 0.541 0.09121 0.17956 0.0
C832 C 0.02966 0.87034 0.31009 0.0
C833 C 0.04607 0.84507 0.31152 0.0
H834 H 0.02881 0.91415 0.296 0.0
C835 C 0.0699 0.84174 0.29283 0.0
H836 H 0.01087 0.87323 0.32373 0.0
C837 C 0.08006 0.86504 0.27676 0.0
C838 C 0.06652 0.89184 0.27943 0.0
H839 H 0.08235 0.82197 0.29276 0.0
H840 H 0.10054 0.86305 0.2656 0.0
C841 C 0.03981 0.89363 0.29396 0.0
C842 C 0.36332 0.29683 0.5974 0.0
C843 C 0.39035 0.29786 0.58394 0.0
H844 H 0.32054 0.31402 0.59874 0.0
C845 C 0.39336 0.31311 0.55781 0.0
H846 H 0.36042 0.28524 0.61747 0.0
C847 C 0.3707 0.32984 0.54719 0.0
C848 C 0.34478 0.33163 0.56264 0.0
H849 H 0.41401 0.31393 0.54681 0.0
H850 H 0.37425 0.34297 0.5282 0.0
C851 C 0.3407 0.31369 0.58685 0.0
C852 C 0.92872 0.63115 0.77051 0.0
C853 C 0.93658 0.60263 0.77611 0.0
H854 H 0.93235 0.67475 0.78477 0.0
C855 C 0.96111 0.5971 0.79324 0.0
H856 H 0.91008 0.63599 0.75727 0.0
C857 C 0.97361 0.61919 0.80942 0.0
C858 C 0.96172 0.64683 0.80815 0.0
H859 H 0.96779 0.57512 0.79749 0.0
H860 H 0.98956 0.6138 0.82562 0.0
C861 C 0.94131 0.65325 0.78656 0.0
C862 C 0.11819 0.67849 0.02797 0.0
C863 C 0.14621 0.68389 0.03771 0.0
H864 H 0.07323 0.68514 0.03607 0.0
C865 C 0.15095 0.70647 0.05748 0.0
H866 H 0.11402 0.66136 0.01268 0.0
C867 C 0.12766 0.72003 0.07102 0.0
C868 C 0.09957 0.71098 0.06482 0.0
H869 H 0.1726 0.7113 0.0649 0.0
H870 H 0.13178 0.73472 0.08868 0.0
C871 C 0.09491 0.69202 0.04153 0.0
C872 C 0.42003 0.83858 0.19356 0.0
C873 C 0.44426 0.84257 0.17554 0.0
H874 H 0.38932 0.85858 0.22184 0.0
C875 C 0.46035 0.86796 0.178 0.0
H876 H 0.40771 0.81877 0.19276 0.0
C877 C 0.45002 0.89049 0.19505 0.0
C878 C 0.42353 0.88788 0.20981 0.0
H879 H 0.4794 0.8714 0.16487 0.0
H880 H 0.46114 0.91101 0.19427 0.0
C881 C 0.40974 0.86112 0.21068 0.0
C882 C 0.40421 0.16295 0.95628 0.0
C883 C 0.40042 0.18807 0.93966 0.0
H884 H 0.38385 0.13142 0.98316 0.0
C885 C 0.37584 0.20507 0.94412 0.0
H886 H 0.42349 0.14992 0.95391 0.0
C887 C 0.3534 0.19466 0.96132 0.0
C888 C 0.35535 0.16717 0.97406 0.0
H889 H 0.37263 0.22478 0.93204 0.0
H890 H 0.33315 0.20639 0.96164 0.0
C891 C 0.38178 0.15258 0.97354 0.0
C892 C 0.60744 0.29133 0.44647 0.0
C893 C 0.61083 0.27719 0.41978 0.0
H894 H 0.62456 0.32278 0.47564 0.0
C895 C 0.6377 0.27796 0.40599 0.0
H896 H 0.58684 0.29085 0.45759 0.0
C897 C 0.65908 0.29657 0.4161 0.0
C898 C 0.65385 0.31432 0.44021 0.0
H899 H 0.64088 0.26727 0.38546 0.0
H900 H 0.67872 0.29889 0.40357 0.0
C901 C 0.62886 0.30987 0.45665 0.0
C902 C 0.70254 0.95335 0.85144 0.0
C903 C 0.67602 0.968 0.85449 0.0
H904 H 0.73247 0.92381 0.8706 0.0
C905 C 0.66379 0.97083 0.88193 0.0
H906 H 0.7126 0.95126 0.83041 0.0
C907 C 0.67518 0.95502 0.90487 0.0
C908 C 0.69884 0.93638 0.9005 0.0
H909 H 0.64353 0.98212 0.88489 0.0
H910 H 0.66375 0.95522 0.92528 0.0
C911 C 0.7139 0.93751 0.87436 0.0
C912 C 0.32801 0.51195 0.38301 0.0
C913 C 0.31513 0.51164 0.35574 0.0
H914 H 0.33096 0.53443 0.42311 0.0
C915 C 0.28838 0.52575 0.35203 0.0
H916 H 0.34831 0.50093 0.38667 0.0
C917 C 0.27879 0.54564 0.37258 0.0
C918 C 0.29556 0.55066 0.39715 0.0
H919 H 0.27773 0.52535 0.33124 0.0
H920 H 0.26069 0.5595 0.36745 0.0
C921 C 0.31839 0.53168 0.40361 0.0
C922 C 0.15394 0.95326 0.38817 0.0
C923 C 0.16588 0.95089 0.36055 0.0
H924 H 0.15382 0.93681 0.43121 0.0
C925 C 0.19121 0.93448 0.35662 0.0
H926 H 0.13454 0.96581 0.39178 0.0
C927 C 0.20218 0.91768 0.37905 0.0
C928 C 0.1878 0.91702 0.4056 0.0
H929 H 0.20104 0.93264 0.33546 0.0
H930 H 0.22021 0.90341 0.37482 0.0
C931 C 0.16479 0.93632 0.41055 0.0
C932 C 0.79866 0.57639 0.84337 0.0
C933 C 0.81769 0.55299 0.84733 0.0
H934 H 0.77119 0.60751 0.86376 0.0
C935 C 0.81775 0.53844 0.87374 0.0
H936 H 0.79758 0.58748 0.82284 0.0
C937 C 0.80229 0.54975 0.89699 0.0
C938 C 0.78666 0.57565 0.89402 0.0
H939 H 0.83179 0.5201 0.87721 0.0
H940 H 0.80496 0.5399 0.91802 0.0
C941 C 0.78316 0.58766 0.86661 0.0
C942 C 0.87876 0.81224 0.53329 0.0
C943 C 0.85105 0.80667 0.54392 0.0
H944 H 0.92402 0.80721 0.54068 0.0
C945 C 0.84728 0.78538 0.56526 0.0
H946 H 0.88219 0.82839 0.51678 0.0
C947 C 0.87117 0.77322 0.57899 0.0
C948 C 0.89891 0.78244 0.57148 0.0
H949 H 0.8259 0.7804 0.5734 0.0
H950 H 0.8678 0.75944 0.59754 0.0
C951 C 0.90263 0.80019 0.54711 0.0
C952 C 0.09631 0.31418 0.95035 0.0
C953 C 0.10197 0.29328 0.92898 0.0
H954 H 0.11444 0.34554 0.97899 0.0
C955 C 0.12994 0.28225 0.92616 0.0
H956 H 0.07465 0.32252 0.95342 0.0
C957 C 0.1526 0.2953 0.94106 0.0
C958 C 0.14742 0.31937 0.95887 0.0
H959 H 0.13479 0.26594 0.91017 0.0
H960 H 0.17453 0.28869 0.93615 0.0
C961 C 0.11897 0.32718 0.96529 0.0
C962 C 0.87461 0.20547 0.44458 0.0
C963 C 0.89962 0.18922 0.43971 0.0
H964 H 0.83263 0.20619 0.46374 0.0
C965 C 0.90449 0.16438 0.45648 0.0
H966 H 0.8706 0.22504 0.43253 0.0
C967 C 0.88286 0.15357 0.47447 0.0
C968 C 0.85602 0.16742 0.47579 0.0
H969 H 0.92415 0.15195 0.45397 0.0
H970 H 0.88606 0.13277 0.48454 0.0
C971 C 0.85298 0.19469 0.46266 0.0
C972 C 0.52883 0.61349 0.67862 0.0
C973 C 0.53763 0.64145 0.68548 0.0
H974 H 0.53847 0.56867 0.68277 0.0
C975 C 0.55759 0.64564 0.70802 0.0
H976 H 0.51338 0.6097 0.66152 0.0
C977 C 0.57207 0.62221 0.72016 0.0
C978 C 0.56663 0.5945 0.70973 0.0
H979 H 0.5643 0.66718 0.71403 0.0
H980 H 0.58971 0.62611 0.73497 0.0
C981 C 0.54335 0.59007 0.69069 0.0
C982 C 0.3993 0.7919 0.03006 0.0
C983 C 0.39548 0.77382 0.05417 0.0
H984 H 0.37966 0.82352 0.00272 0.0
C985 C 0.36752 0.76601 0.06247 0.0
H986 H 0.42084 0.79792 0.02315 0.0
C987 C 0.344 0.78071 0.05077 0.0
C988 C 0.34845 0.80307 0.03072 0.0
H989 H 0.36405 0.75206 0.08088 0.0
H990 H 0.32283 0.77731 0.0602 0.0
C991 C 0.37576 0.8066 0.01833 0.0
C992 C 0.36736 0.72399 0.39816 0.0
C993 C 0.39232 0.72773 0.41474 0.0
H994 H 0.32841 0.69999 0.39283 0.0
C995 C 0.39306 0.71632 0.4429 0.0
H996 H 0.3661 0.73261 0.37648 0.0
C997 C 0.37184 0.697 0.45206 0.0
C998 C 0.34951 0.68927 0.43325 0.0
H999 H 0.41206 0.71916 0.45624 0.0
H1000 H 0.37452 0.68611 0.47254 0.0
C1001 C 0.34614 0.70469 0.4073 0.0
C1002 C 0.62107 0.8122 0.97118 0.0
C1003 C 0.64885 0.80963 0.95962 0.0
H1004 H 0.57642 0.80236 0.96495 0.0
C1005 C 0.65447 0.78804 0.93898 0.0
H1006 H 0.61628 0.82848 0.98723 0.0
C1007 C 0.63172 0.77297 0.9263 0.0
C1008 C 0.60333 0.77962 0.93414 0.0
H1009 H 0.67601 0.78535 0.93018 0.0
H1010 H 0.63611 0.7595 0.90772 0.0
C1011 C 0.59831 0.79718 0.95843 0.0
C1012 C 0.7201 0.56268 0.62788 0.0
C1013 C 0.71057 0.55787 0.59971 0.0
H1014 H 0.71162 0.55505 0.67253 0.0
C1015 C 0.69125 0.53505 0.59428 0.0
H1016 H 0.7351 0.57995 0.63257 0.0
C1017 C 0.67755 0.52094 0.6171 0.0
C1018 C 0.68324 0.52962 0.64539 0.0
H1019 H 0.68404 0.53063 0.57249 0.0
H1020 H 0.66 0.50624 0.61247 0.0
C1021 C 0.70648 0.54851 0.65069 0.0
C1022 C 0.29873 0.9475 0.14549 0.0
C1023 C 0.32524 0.96202 0.1421 0.0
H1024 H 0.26867 0.91766 0.1271 0.0
C1025 C 0.33784 0.96353 0.11471 0.0
H1026 H 0.28845 0.94633 0.16648 0.0
C1027 C 0.32662 0.9469 0.09228 0.0
C1028 C 0.30267 0.92875 0.09703 0.0
H1029 H 0.35817 0.97462 0.11151 0.0
H1030 H 0.33819 0.94637 0.07195 0.0
C1031 C 0.28749 0.93089 0.12307 0.0
C1032 C 0.30541 0.48164 0.62633 0.0
C1033 C 0.30654 0.46617 0.65217 0.0
H1034 H 0.28922 0.48178 0.5832 0.0
C1035 C 0.28493 0.44564 0.65808 0.0
H1036 H 0.32147 0.49789 0.62148 0.0
C1037 C 0.26641 0.43643 0.63624 0.0
C1038 C 0.26979 0.44756 0.60842 0.0
H1039 H 0.28487 0.43402 0.67835 0.0
H1040 H 0.25329 0.41748 0.63996 0.0
C1041 C 0.28671 0.47252 0.60452 0.0
C1042 C 0.70872 0.06367 0.15199 0.0
C1043 C 0.68811 0.04186 0.14729 0.0
H1044 H 0.73645 0.095 0.1324 0.0
C1045 C 0.68618 0.02907 0.12006 0.0
H1046 H 0.711 0.07342 0.17311 0.0
C1047 C 0.70099 0.04132 0.09686 0.0
C1048 C 0.71774 0.06635 0.10081 0.0
H1049 H 0.67071 0.01208 0.11599 0.0
H1050 H 0.69652 0.03341 0.07533 0.0
C1051 C 0.72357 0.07587 0.1288 0.0
C1052 C 0.59519 0.17924 0.03905 0.0
C1053 C 0.59886 0.20022 0.0607 0.0
H1054 H 0.61596 0.14826 0.01172 0.0
C1055 C 0.62636 0.21148 0.06581 0.0
H1056 H 0.57395 0.17065 0.03438 0.0
C1057 C 0.65032 0.1987 0.05272 0.0
C1058 C 0.64689 0.1747 0.03442 0.0
H1059 H 0.62969 0.22778 0.08218 0.0
H1060 H 0.67169 0.20563 0.05923 0.0
C1061 C 0.61915 0.16654 0.02587 0.0
C1062 C 0.56099 0.34642 0.29389 0.0
C1063 C 0.54364 0.34953 0.3187 0.0
H1064 H 0.59036 0.3668 0.26458 0.0
C1065 C 0.53724 0.37714 0.32888 0.0
H1066 H 0.56587 0.3252 0.28543 0.0
C1067 C 0.55137 0.4009 0.31698 0.0
C1068 C 0.57196 0.39725 0.2948 0.0
H1069 H 0.52388 0.38008 0.34785 0.0
H1070 H 0.54795 0.42183 0.32676 0.0
C1071 C 0.57507 0.37016 0.28196 0.0
C1072 C 0.43104 0.1532 0.78584 0.0
C1073 C 0.45312 0.14616 0.80551 0.0
H1074 H 0.39854 0.13677 0.75748 0.0
C1075 C 0.46594 0.11892 0.80412 0.0
H1076 H 0.42136 0.17447 0.78604 0.0
C1077 C 0.45313 0.0975 0.7873 0.0
C1078 C 0.42736 0.10325 0.77217 0.0
H1079 H 0.48319 0.1131 0.81877 0.0
H1080 H 0.46075 0.07555 0.78965 0.0
C1081 C 0.41818 0.13177 0.76911 0.0
C1082 C 0.9566 0.40404 0.17456 0.0
C1083 C 0.93803 0.39916 0.19818 0.0
H1084 H 0.98533 0.38511 0.14372 0.0
C1085 C 0.94098 0.37374 0.2141 0.0
H1086 H 0.95552 0.42402 0.16253 0.0
C1087 C 0.95865 0.35168 0.20362 0.0
C1088 C 0.97316 0.35479 0.177 0.0
H1089 H 0.92746 0.36969 0.23274 0.0
H1090 H 0.95799 0.33096 0.21435 0.0
C1091 C 0.97416 0.38197 0.16402 0.0
C1092 C 0.03165 0.09096 0.68612 0.0
C1093 C 0.05234 0.09756 0.70737 0.0
H1094 H 0.00298 0.10824 0.65439 0.0
C1095 C 0.05138 0.12449 0.72083 0.0
H1096 H 0.03146 0.06991 0.67602 0.0
C1097 C 0.03436 0.14628 0.70883 0.0
C1098 C 0.0191 0.14123 0.68299 0.0
H1099 H 0.06675 0.12995 0.73755 0.0
H1100 H 0.03735 0.1681 0.71656 0.0
C1101 C 0.01493 0.11282 0.67392 0.0
C1102 C 0.54969 0.8961 0.79787 0.0
C1103 C 0.57606 0.893 0.78294 0.0
H1104 H 0.51939 0.87668 0.82691 0.0
C1105 C 0.58801 0.86554 0.77965 0.0
H1106 H 0.53983 0.91715 0.8003 0.0
C1107 C 0.57632 0.84244 0.79499 0.0
C1108 C 0.5526 0.84664 0.81365 0.0
H1109 H 0.60816 0.86255 0.76814 0.0
H1110 H 0.58741 0.8219 0.79423 0.0
C1111 C 0.53801 0.87302 0.81322 0.0
C1112 C 0.42355 0.62064 0.2919 0.0
C1113 C 0.42287 0.59483 0.30745 0.0
H1114 H 0.43822 0.66422 0.29092 0.0
C1115 C 0.44122 0.59156 0.33149 0.0
H1116 H 0.41012 0.62358 0.27302 0.0
C1117 C 0.45745 0.61472 0.34172 0.0
C1118 C 0.45548 0.64152 0.32811 0.0
H1119 H 0.44183 0.57152 0.34343 0.0
H1120 H 0.46949 0.61225 0.36158 0.0
C1121 C 0.43974 0.64382 0.30217 0.0
C1122 C 0.61728 0.674 0.53372 0.0
C1123 C 0.64512 0.6779 0.54467 0.0
H1124 H 0.57232 0.68225 0.54039 0.0
C1125 C 0.64998 0.69942 0.56554 0.0
H1126 H 0.61304 0.65777 0.5175 0.0
C1127 C 0.62676 0.71356 0.57855 0.0
C1128 C 0.59859 0.70608 0.57083 0.0
H1129 H 0.67151 0.70319 0.57388 0.0
H1130 H 0.63076 0.72745 0.5969 0.0
C1131 C 0.59405 0.68802 0.54686 0.0
C1132 C 0.95431 0.84823 0.70435 0.0
C1133 C 0.97105 0.8516 0.67911 0.0
H1134 H 0.92361 0.86783 0.73294 0.0
C1135 C 0.97692 0.87935 0.66901 0.0
H1136 H 0.94997 0.82693 0.71287 0.0
C1137 C 0.96194 0.90271 0.68067 0.0
C1138 C 0.94105 0.89841 0.7024 0.0
H1139 H 0.98992 0.88259 0.64984 0.0
H1140 H 0.96426 0.92357 0.67044 0.0
C1141 C 0.93921 0.87158 0.71592 0.0
C1142 C 0.05185 0.65143 0.20302 0.0
C1143 C 0.03355 0.64663 0.17922 0.0
H1144 H 0.08271 0.63287 0.23201 0.0
C1145 C 0.02568 0.61846 0.17215 0.0
H1146 H 0.05779 0.67316 0.20914 0.0
C1147 C 0.03989 0.59546 0.18536 0.0
C1148 C 0.062 0.60056 0.20562 0.0
H1149 H 0.01151 0.61422 0.15408 0.0
H1150 H 0.03589 0.57389 0.17739 0.0
C1151 C 0.0661 0.62844 0.2162 0.0
C1152 C 0.23094 0.58381 0.25289 0.0
C1153 C 0.21528 0.55803 0.25021 0.0
H1154 H 0.27264 0.60375 0.25499 0.0
C1155 C 0.23055 0.53219 0.24593 0.0
H1156 H 0.21982 0.60416 0.25564 0.0
C1157 C 0.26076 0.53212 0.24443 0.0
C1158 C 0.27643 0.55783 0.24766 0.0
H1159 H 0.21915 0.51205 0.24306 0.0
H1160 H 0.27185 0.51175 0.24177 0.0
C1161 C 0.26117 0.58366 0.25195 0.0
C1162 C 0.71428 0.48169 0.4969 0.0
C1163 C 0.68826 0.46613 0.4986 0.0
H1164 H 0.73449 0.52316 0.49452 0.0
C1165 C 0.6621 0.48151 0.49903 0.0
H1166 H 0.73482 0.47057 0.49593 0.0
C1167 C 0.6619 0.51158 0.49756 0.0
C1168 C 0.68784 0.52716 0.49557 0.0
H1169 H 0.64163 0.47028 0.49986 0.0
H1170 H 0.6413 0.52263 0.49832 0.0
C1171 C 0.71407 0.51185 0.49535 0.0
C1172 C 0.77267 0.9683 0.74621 0.0
C1173 C 0.78812 0.94242 0.74971 0.0
H1174 H 0.73119 0.98851 0.7421 0.0
C1175 C 0.77254 0.91652 0.75179 0.0
H1176 H 0.78396 0.98858 0.74397 0.0
C1177 C 0.74239 0.91644 0.75024 0.0
C1178 C 0.72694 0.94223 0.74634 0.0
H1179 H 0.7837 0.89614 0.75406 0.0
H1180 H 0.73115 0.8961 0.75226 0.0
C1181 C 0.74243 0.96819 0.74445 0.0
C1182 C 0.32637 0.00266 0.99446 0.0
C1183 C 0.30082 0.01778 0.00083 0.0
H1184 H 0.34642 0.96207 0.98646 0.0
C1185 C 0.27487 0.00223 0.00316 0.0
H1186 H 0.34672 0.01389 0.99202 0.0
C1187 C 0.27465 0.97219 -0.00037 0.0
C1188 C 0.30036 0.95714 0.99353 0.0
H1189 H 0.2547 0.01327 0.00746 0.0
H1190 H 0.25449 0.96072 0.00246 0.0
C1191 C 0.32612 0.97286 0.99074 0.0
C1192 C 0.23496 0.40812 0.74471 0.0
C1193 C 0.21969 0.4343 0.74393 0.0
H1194 H 0.27618 0.38721 0.74616 0.0
C1195 C 0.23542 0.46018 0.74491 0.0
H1196 H 0.22357 0.38776 0.74444 0.0
C1197 C 0.26565 0.45985 0.74669 0.0
C1198 C 0.28091 0.43364 0.7473 0.0
H1199 H 0.22438 0.48074 0.74492 0.0
H1200 H 0.27707 0.48018 0.74679 0.0
C1201 C 0.26515 0.40779 0.74623 0.0
C1202 C 0.77779 0.47738 0.99747 0.0
C1203 C 0.80401 0.46215 0.99538 0.0
H1204 H 0.75712 0.51857 0.00155 0.0
C1205 C 0.82999 0.47776 0.99566 0.0
H1206 H 0.75739 0.46601 -0.00205 0.0
C1207 C 0.82984 0.50774 -0.00171 0.0
C1208 C 0.80371 0.52298 0.00086 0.0
H1209 H 0.85059 0.46675 0.99453 0.0
H1210 H 0.85031 0.51899 -0.00183 0.0
C1211 C 0.77765 0.50746 0.00027 0.0
C1212 C 0.76079 0.03424 0.24886 0.0
C1213 C 0.77559 0.06056 0.24612 0.0
H1214 H 0.71975 0.01308 0.25264 0.0
C1215 C 0.7595 0.08624 0.24645 0.0
H1216 H 0.77253 0.01407 0.24926 0.0
C1217 C 0.7295 0.08572 0.24928 0.0
C1218 C 0.71456 0.05949 0.2516 0.0
H1219 H 0.77011 0.10696 0.24493 0.0
H1220 H 0.71796 0.10601 0.24888 0.0
C1221 C 0.73057 0.03371 0.25146 0.0
C1222 C 0.16773 0.99501 0.51616 0.0
C1223 C 0.19232 0.00934 0.50581 0.0
H1224 H 0.14764 0.95467 0.52552 0.0
C1225 C 0.21663 0.9931 0.49775 0.0
H1226 H 0.1487 0.00698 0.52264 0.0
C1227 C 0.2163 0.96303 0.50013 0.0
C1228 C 0.19152 0.94867 0.51024 0.0
H1229 H 0.23604 0.00364 0.49007 0.0
H1230 H 0.23511 0.95101 0.49314 0.0
C1231 C 0.16727 0.96505 0.5182 0.0
C1232 C 0.23763 0.24864 0.5804 0.0
C1233 C 0.2472 0.23401 0.55567 0.0
H1234 H 0.22809 0.28908 0.60011 0.0
C1235 C 0.25384 0.24995 0.53077 0.0
H1236 H 0.23218 0.23696 0.59988 0.0
C1237 C 0.25092 0.28001 0.53071 0.0
C1238 C 0.24152 0.29463 0.55562 0.0
H1239 H 0.26084 0.2392 0.51124 0.0
H1240 H 0.2568 0.29182 0.51144 0.0
C1241 C 0.2349 0.27853 0.5804 0.0
C1242 C 0.01243 0.49703 0.83275 0.0
C1243 C 0.02782 0.49699 0.80658 0.0
H1244 H 0.97107 0.49707 0.8535 0.0
C1245 C 0.01222 0.49557 0.78062 0.0
H1246 H 0.02374 0.49758 0.85317 0.0
C1247 C 0.98197 0.49442 0.78084 0.0
C1248 C 0.96658 0.49494 0.80702 0.0
H1249 H 0.02337 0.49483 0.76009 0.0
H1250 H 0.97064 0.49407 0.76043 0.0
C1251 C 0.98222 0.4962 0.83296 0.0
C1252 C 0.74317 0.26319 0.07914 0.0
C1253 C 0.74346 0.27903 0.05331 0.0
H1254 H 0.74632 0.22203 0.09936 0.0
C1255 C 0.74744 0.26411 0.02717 0.0
H1256 H 0.74061 0.2739 0.09974 0.0
C1257 C 0.75112 0.23409 0.02698 0.0
C1258 C 0.75101 0.21838 0.05293 0.0
H1259 H 0.74833 0.27567 0.0069 0.0
H1260 H 0.75356 0.22317 0.00648 0.0
C1261 C 0.74698 0.23338 0.07896 0.0
C1262 C 0.97436 0.00124 0.28418 0.0
C1263 C 0.95819 -0.00035 0.30984 0.0
H1264 H 0.0164 0.00321 0.26485 0.0
C1265 C 0.97296 -0.00122 0.33628 0.0
H1266 H 0.96366 0.00267 0.26348 0.0
C1267 C 0.00314 -0.0006 0.33707 0.0
C1268 C 0.0193 0.00145 0.31147 0.0
H1269 H 0.96114 -0.00192 0.35645 0.0
H1270 H 0.01385 -0.00184 0.35779 0.0
C1271 C 0.00458 0.00234 0.285 0.0
C1272 C 0.25352 0.75197 0.4639 0.0
C1273 C 0.24791 0.76829 0.43897 0.0
H1274 H 0.25816 0.70988 0.48237 0.0
C1275 C 0.2421 0.75366 0.41306 0.0
H1276 H 0.25752 0.76249 0.48435 0.0
C1277 C 0.24171 0.72359 0.41209 0.0
C1278 C 0.24723 0.7072 0.43697 0.0
H1279 H 0.23726 0.76545 0.3935 0.0
H1280 H 0.23756 0.7132 0.3916 0.0
C1281 C 0.2532 0.72177 0.46291 0.0
C1282 C 0.4825 0.4946 0.71389 0.0
C1283 C 0.46708 0.49789 0.68796 0.0
H1284 H 0.52388 0.48982 0.73406 0.0
C1285 C 0.4826 0.49818 0.66187 0.0
H1286 H 0.47124 0.49371 0.73436 0.0
C1287 C 0.51266 0.4953 0.66166 0.0
C1288 C 0.52812 0.49205 0.68754 0.0
H1289 H 0.47148 0.50016 0.64143 0.0
H1290 H 0.52382 0.49609 0.64113 0.0
C1291 C 0.51266 0.49171 0.71368 0.0
C1292 C 0.74501 0.74034 0.96818 0.0
C1293 C 0.74717 0.72462 0.94235 0.0
H1294 H 0.74524 0.78191 0.98829 0.0
C1295 C 0.7523 0.73966 0.91653 0.0
H1296 H 0.74173 0.72939 0.98854 0.0
C1297 C 0.75484 0.76966 0.91644 0.0
C1298 C 0.75255 0.78546 0.9422 0.0
H1299 H 0.75455 0.72822 0.89629 0.0
H1300 H 0.75802 0.78053 0.89602 0.0
C1301 C 0.74778 0.77041 0.96812 0.0
C1302 C 0.4912 -0.00077 0.21844 0.0
C1303 C 0.47565 -0.00239 0.19246 0.0
H1304 H 0.5328 -0.00111 0.23873 0.0
C1305 C 0.49097 0.99325 0.16662 0.0
H1306 H 0.48003 0.00197 0.23879 0.0
C1307 C 0.52101 0.99075 0.16665 0.0
C1308 C 0.53668 0.99262 0.19252 0.0
H1309 H 0.47972 0.99144 0.14624 0.0
H1310 H 0.53201 0.98805 0.1462 0.0
C1311 C 0.5214 0.99675 0.21847 0.0
C1312 C 0.58131 0.24884 0.22377 0.0
C1313 C 0.55477 0.25001 0.20916 0.0
H1314 H 0.60312 0.24542 0.26419 0.0
C1315 C 0.5291 0.24859 0.22537 0.0
H1316 H 0.60151 0.24946 0.21197 0.0
C1317 C 0.53002 0.24563 0.25546 0.0
C1318 C 0.55663 0.24415 0.26997 0.0
H1319 H 0.50828 0.24881 0.21475 0.0
H1320 H 0.50989 0.24493 0.26737 0.0
C1321 C 0.58223 0.24599 0.25373 0.0
C1322 C 0.08124 0.74333 0.26315 0.0
C1323 C 0.05521 0.744 0.27879 0.0
H1324 H 0.10184 0.74541 0.22192 0.0
C1325 C 0.02923 0.74796 0.26357 0.0
H1326 H 0.10172 0.74081 0.27412 0.0
C1327 C 0.02934 0.75115 0.23347 0.0
C1328 C 0.05543 0.75044 0.2179 0.0
H1329 H 0.00882 0.74918 0.27494 0.0
H1330 H 0.00892 0.75356 0.22238 0.0
C1331 C 0.08135 0.74652 0.23318 0.0
C1332 C 0.49724 0.27455 0.48186 0.0
C1333 C 0.49767 0.30034 0.46595 0.0
H1334 H 0.49874 0.25486 0.52373 0.0
C1335 C 0.49999 0.32656 0.4809 0.0
H1336 H 0.49606 0.25395 0.47098 0.0
C1337 C 0.50208 0.32704 0.51092 0.0
C1338 C 0.50204 0.30132 0.52687 0.0
H1339 H 0.50078 0.34681 0.46933 0.0
H1340 H 0.50354 0.34771 0.52165 0.0
C1341 C 0.49949 0.27503 0.51203 0.0
C1342 C 0.96793 0.74277 0.73961 0.0
C1343 C 0.94224 0.74393 0.72351 0.0
H1344 H 0.98741 0.74326 0.7815 0.0
C1345 C 0.91592 0.74729 0.73831 0.0
H1346 H 0.98863 0.7408 0.7289 0.0
C1347 C 0.91524 0.74918 0.76842 0.0
C1348 C 0.9409 0.74802 0.78456 0.0
H1349 H 0.89575 0.74873 0.7266 0.0
H1350 H 0.8945 0.75105 0.77909 0.0
C1351 C 0.96727 0.7449 0.76976 0.0
C1352 C 0.00316 0.66346 0.98056 0.0
C1353 C 0.00217 0.68914 0.96454 0.0
H1354 H 0.00145 0.64356 0.02207 0.0
C1355 C 0.99835 0.71529 0.97944 0.0
H1356 H 0.00559 0.64285 0.96988 0.0
C1357 C 0.9955 0.71565 0.00959 0.0
C1358 C 0.99633 0.68987 0.02551 0.0
H1359 H 0.99693 0.73544 0.96779 0.0
H1360 H 0.99312 0.73617 0.02043 0.0
C1361 C 0.00023 0.66381 0.01056 0.0
C1362 C 0.42393 0.74213 0.25144 0.0
C1363 C 0.44949 0.7492 0.26611 0.0
H1364 H 0.40369 0.73264 0.21134 0.0
C1365 C 0.47532 0.7514 0.25026 0.0
H1366 H 0.40368 0.73977 0.26292 0.0
C1367 C 0.47534 0.74706 0.22028 0.0
C1368 C 0.44959 0.7402 0.20569 0.0
H1369 H 0.49549 0.75623 0.261 0.0
H1370 H 0.49534 0.74984 0.20847 0.0
C1371 C 0.42402 0.7375 0.22177 0.0
C1372 C 0.50103 0.16082 0.00568 0.0
C1373 C 0.49621 0.18662 0.0208 0.0
H1374 H 0.50745 0.14033 0.96498 0.0
C1375 C 0.49507 0.21254 0.00513 0.0
H1376 H 0.50261 0.14047 0.01698 0.0
C1377 C 0.49818 0.21249 0.97499 0.0
C1378 C 0.50272 0.18654 0.95992 0.0
H1379 H 0.49201 0.23288 0.01613 0.0
H1380 H 0.49625 0.23268 0.96347 0.0
C1381 C 0.5044 0.1608 0.97576 0.0
C1382 C 0.25577 0.03169 0.74242 0.0
C1383 C 0.2713 0.05768 0.74384 0.0
H1384 H 0.21413 0.01137 0.74247 0.0
C1385 C 0.25587 0.08346 0.74794 0.0
H1386 H 0.26698 0.01138 0.73985 0.0
C1387 C 0.22581 0.08337 0.75031 0.0
C1388 C 0.21014 0.05753 0.74838 0.0
H1389 H 0.26704 0.10386 0.74968 0.0
H1390 H 0.21482 0.10381 0.75286 0.0
C1391 C 0.2255 0.03163 0.74453 0.0
C1392 C 0.71999 0.00814 0.99541 0.0
C1393 C 0.69412 0.02401 0.99666 0.0
H1394 H 0.73994 0.96644 0.99688 0.0
C1395 C 0.66813 0.00912 0.00149 0.0
H1396 H 0.74047 0.01896 0.99235 0.0
C1397 C 0.66791 0.97923 0.00484 0.0
C1398 C 0.69366 0.96324 0.00337 0.0
H1399 H 0.64783 0.02061 0.00308 0.0
H1400 H 0.64733 0.96859 0.00794 0.0
C1401 C 0.71975 0.97809 -0.00129 0.0
C1402 C 0.76863 0.41053 0.25212 0.0
C1403 C 0.7843 0.43641 0.25054 0.0
H1404 H 0.72706 0.39032 0.25228 0.0
C1405 C 0.76899 0.46237 0.24721 0.0
H1406 H 0.77972 0.39009 0.25419 0.0
C1407 C 0.7388 0.46241 0.2452 0.0
C1408 C 0.72316 0.43652 0.24679 0.0
H1409 H 0.78035 0.48265 0.24527 0.0
H1410 H 0.72769 0.48283 0.24307 0.0
C1411 C 0.73845 0.41061 0.25047 0.0
C1412 C 0.28585 0.49371 0.49263 0.0
C1413 C 0.31114 0.47779 0.49786 0.0
H1414 H 0.26671 0.5354 0.48751 0.0
C1415 C 0.33714 0.49278 0.50231 0.0
H1416 H 0.26534 0.48292 0.4897 0.0
C1417 C 0.33785 0.52289 0.50151 0.0
C1418 C 0.31253 0.53885 0.49656 0.0
H1419 H 0.35695 0.48123 0.50683 0.0
H1420 H 0.35837 0.53367 0.50443 0.0
C1421 C 0.2865 0.52387 0.49213 0.0
C1422 C 0.23262 0.97072 0.2516 0.0
C1423 C 0.21669 0.94507 0.24894 0.0
H1424 H 0.27457 0.99002 0.25527 0.0
C1425 C 0.23161 0.91871 0.24868 0.0
H1426 H 0.22174 0.99135 0.25246 0.0
C1427 C 0.26162 0.91792 0.25094 0.0
C1428 C 0.27765 0.94346 0.25355 0.0
H1429 H 0.22005 0.89851 0.24708 0.0
H1430 H 0.27233 0.89719 0.25016 0.0
C1431 C 0.26282 0.96991 0.25392 0.0
C1432 C 0.83073 -0.00031 0.49329 0.0
C1433 C 0.80542 0.015 0.50002 0.0
H1434 H 0.85024 0.95858 0.48585 0.0
C1435 C 0.77937 -0.00022 0.50297 0.0
H1436 H 0.85107 0.01084 0.4905 0.0
C1437 C 0.77873 0.96982 0.49941 0.0
C1438 C 0.80419 0.95445 0.49319 0.0
H1439 H 0.75939 0.01105 0.50752 0.0
H1440 H 0.75847 0.95862 0.5026 0.0
C1441 C 0.83016 0.96978 0.4901 0.0
C1442 C 0.76462 0.57964 0.74309 0.0
C1443 C 0.78102 0.55417 0.74414 0.0
H1444 H 0.72277 0.59897 0.74438 0.0
C1445 C 0.76648 0.52784 0.74798 0.0
H1446 H 0.77503 0.60037 0.74063 0.0
C1447 C 0.73628 0.52707 0.75061 0.0
C1448 C 0.71997 0.55262 0.74951 0.0
H1449 H 0.77844 0.50785 0.74945 0.0
H1450 H 0.72571 0.5064 0.75289 0.0
C1451 C 0.73458 0.57888 0.74577 0.0
C1452 C 0.219 0.48661 0.00019 0.0
C1453 C 0.19293 0.47106 0.00042 0.0
H1454 H 0.2393 0.52808 0.99784 0.0
C1455 C 0.16686 0.48633 0.99759 0.0
H1456 H 0.23952 0.47552 0.00172 0.0
C1457 C 0.16677 0.51627 0.99464 0.0
C1458 C 0.19274 0.53191 0.99449 0.0
H1459 H 0.14637 0.4751 0.99719 0.0
H1460 H 0.14617 0.52721 0.99302 0.0
C1461 C 0.21891 0.5167 0.99726 0.0
C1462 C 0.2505 0.73176 0.08499 0.0
C1463 C 0.25156 0.71666 0.05872 0.0
H1464 H 0.2483 0.77268 0.10608 0.0
C1465 C 0.25037 0.73243 0.03285 0.0
H1466 H 0.25088 0.72033 0.10535 0.0
C1467 C 0.24815 0.76255 0.03328 0.0
C1468 C 0.24724 0.77762 0.0596 0.0
H1469 H 0.25051 0.7215 0.01222 0.0
H1470 H 0.24795 0.77404 0.01296 0.0
C1471 C 0.24844 0.7618 0.08542 0.0
C1472 C 0.74799 0.72744 0.5295 0.0
C1473 C 0.75003 0.71201 0.55555 0.0
H1474 H 0.74433 0.76883 0.5092 0.0
C1475 C 0.74908 0.72742 0.58163 0.0
H1476 H 0.74804 0.71624 0.50902 0.0
C1477 C 0.74613 0.75735 0.58176 0.0
C1478 C 0.74423 0.77288 0.5558 0.0
H1479 H 0.7501 0.71631 0.60214 0.0
H1480 H 0.74596 0.76837 0.60234 0.0
C1481 C 0.74518 0.75755 0.52962 0.0
C1482 C 0.25469 0.2656 0.91759 0.0
C1483 C 0.25374 0.28146 0.9434 0.0
H1484 H 0.25318 0.22412 0.89757 0.0
C1485 C 0.24981 0.26653 0.96952 0.0
H1486 H 0.2572 0.27641 0.89704 0.0
C1487 C 0.2467 0.23648 0.96975 0.0
C1488 C 0.2477 0.22069 0.94388 0.0
H1489 H 0.24835 0.2781 0.98975 0.0
H1490 H 0.24419 0.22559 0.99025 0.0
C1491 C 0.25186 0.23563 0.91784 0.0
C1492 C 0.76443 0.27818 0.41952 0.0
C1493 C 0.75671 0.29467 0.44376 0.0
H1494 H 0.76848 0.23622 0.40101 0.0
C1495 C 0.74703 0.28033 0.46871 0.0
H1496 H 0.77148 0.28849 0.39978 0.0
C1497 C 0.74463 0.25024 0.46918 0.0
C1498 C 0.7521 0.23389 0.44479 0.0
H1499 H 0.74031 0.29237 0.48757 0.0
H1500 H 0.73729 0.2398 0.48874 0.0
C1501 C 0.76223 0.24821 0.42007 0.0
C1502 C 0.52618 0.74652 0.76706 0.0
C1503 C 0.55249 0.74312 0.78186 0.0
H1504 H 0.50518 0.75133 0.72607 0.0
C1505 C 0.57829 0.74305 0.76585 0.0
H1506 H 0.50594 0.74728 0.77877 0.0
C1507 C 0.57791 0.74635 0.73597 0.0
C1508 C 0.55171 0.74947 0.72104 0.0
H1509 H 0.59901 0.74101 0.77645 0.0
H1510 H 0.5983 0.74576 0.72451 0.0
C1511 C 0.52579 0.74954 0.73693 0.0
C1512 C 0.09022 0.2424 0.73061 0.0
C1513 C 0.06446 0.24513 0.71482 0.0
H1514 H 0.11009 0.24056 0.77231 0.0
C1515 C 0.03824 0.24741 0.73001 0.0
H1516 H 0.11073 0.24012 0.71958 0.0
C1517 C 0.03778 0.24659 0.76022 0.0
C1518 C 0.06355 0.24391 0.77601 0.0
H1519 H 0.01793 0.24887 0.71855 0.0
H1520 H 0.01723 0.24875 0.77121 0.0
C1521 C 0.0898 0.2421 0.76082 0.0
C1522 C 0.50057 0.78149 0.00923 0.0
C1523 C 0.50059 0.80747 0.02482 0.0
H1524 H 0.49939 0.76123 0.96775 0.0
C1525 C 0.499 0.83355 0.00951 0.0
H1526 H 0.50109 0.76098 0.02034 0.0
C1527 C 0.49757 0.83368 0.97938 0.0
C1528 C 0.49735 0.80772 0.96378 0.0
H1529 H 0.49846 0.85393 0.02085 0.0
H1530 H 0.49701 0.85418 0.96827 0.0
C1531 C 0.49881 0.78161 0.97908 0.0
C1532 C 0.96388 0.24328 0.27338 0.0
C1533 C 0.93771 0.24778 0.28821 0.0
H1534 H 0.98502 0.23851 0.23248 0.0
C1535 C 0.91221 0.25081 0.27207 0.0
H1536 H 0.98384 0.24014 0.28511 0.0
C1537 C 0.91287 0.24956 0.24191 0.0
C1538 C 0.93896 0.24476 0.2271 0.0
H1539 H 0.89162 0.25374 0.28278 0.0
H1540 H 0.89289 0.25251 0.23015 0.0
C1541 C 0.96446 0.2416 0.2432 0.0
C1542 C 0.00067 0.21411 0.50983 0.0
C1543 C 0.0004 0.18787 0.52501 0.0
H1544 H 0.00165 0.2349 0.46844 0.0
C1545 C 0.00273 0.16209 0.50927 0.0
H1546 H -0.00055 0.23438 0.5213 0.0
C1547 C 0.00495 0.16241 0.47925 0.0
C1548 C 0.00452 0.18851 0.46389 0.0
H1549 H 0.0032 0.14146 0.52016 0.0
H1550 H 0.0061 0.14198 0.46804 0.0
C1551 C 0.00251 0.21442 0.47956 0.0
C1552 C 0.4641 0.24136 0.74426 0.0
C1553 C 0.43832 0.24656 0.72916 0.0
H1554 H 0.48474 0.23786 0.78543 0.0
C1555 C 0.41318 0.25304 0.74492 0.0
H1556 H 0.48399 0.23696 0.73274 0.0
C1557 C 0.41369 0.25401 0.77504 0.0
C1558 C 0.43943 0.24885 0.79021 0.0
H1559 H 0.39306 0.25757 0.73392 0.0
H1560 H 0.39373 0.25829 0.78648 0.0
C1561 C 0.46468 0.24265 0.77445 0.0
C1562 C 0.49875 0.71496 0.52066 0.0
C1563 C 0.4924 0.68932 0.53554 0.0
H1564 H 0.50633 0.7351 0.4797 0.0
C1565 C 0.48903 0.66378 0.51967 0.0
H1566 H 0.50218 0.73488 0.5323 0.0
C1567 C 0.49174 0.66386 0.48965 0.0
C1568 C 0.49835 0.68939 0.47479 0.0
H1569 H 0.48467 0.64357 0.5305 0.0
H1570 H 0.48846 0.6439 0.47802 0.0
C1571 C 0.50189 0.71495 0.4906 0.0
C1572 C 0.48612 0.49823 0.32804 0.0
C1573 C 0.46986 0.49605 0.30256 0.0
H1574 H 0.52764 0.50315 0.3472 0.0
C1575 C 0.4843 0.49805 0.27591 0.0
H1576 H 0.47578 0.49733 0.34898 0.0
C1577 C 0.5144 0.50162 0.27487 0.0
C1578 C 0.53058 0.50355 0.30047 0.0
H1579 H 0.47235 0.497 0.25588 0.0
H1580 H 0.52504 0.50219 0.25406 0.0
C1581 C 0.51595 0.50209 0.32701 0.0
C1582 C 0.4789 -0.00195 0.77791 0.0
C1583 C 0.46333 -0.00262 0.80399 0.0
H1584 H 0.52044 0.00033 0.75751 0.0
C1585 C 0.47872 -0.00142 0.83007 0.0
H1586 H 0.4677 -0.00217 0.75742 0.0
C1587 C 0.50888 0.00035 0.83011 0.0
C1588 C 0.52444 0.00141 0.80406 0.0
H1589 H 0.46741 -0.00142 0.85054 0.0
H1590 H 0.52004 0.00077 0.85062 0.0
C1591 C 0.5091 0.0002 0.77795 0.0
C1592 C 0.01022 0.49618 0.21609 0.0
C1593 C 0.02584 0.49644 0.19004 0.0
H1594 H 0.96857 0.49745 0.23643 0.0
C1595 C 0.01051 0.49915 0.16403 0.0
H1596 H 0.02136 0.49471 0.23656 0.0
C1597 C 0.98044 0.5015 0.164 0.0
C1598 C 0.96472 0.50107 0.18996 0.0
H1599 H 0.02176 0.49992 0.14356 0.0
H1600 H 0.96947 0.50305 0.14344 0.0
C1601 C 0.97999 0.49842 0.21605 0.0
C1602 C 0.01875 -0.00047 0.706 0.0
C1603 C 0.03402 -0.00082 0.67972 0.0
H1604 H 0.97741 0.00034 0.72694 0.0
C1605 C 0.0182 -0.00048 0.65386 0.0
H1606 H 0.03019 -8e-05 0.72635 0.0
C1607 C 0.988 0.00032 0.65421 0.0
C1608 C 0.97271 0.00097 0.68043 0.0
H1609 H 0.02919 -0.00026 0.63323 0.0
H1610 H 0.97662 0.00017 0.63382 0.0
C1611 C 0.98846 0.00049 0.70634 0.0
C1612 C -0.00122 0.27675 0.9786 0.0
C1613 C 0.9954 0.30252 0.96297 0.0
H1614 H 0.00338 0.25695 0.02021 0.0
C1615 C 0.99403 0.3286 0.9783 0.0
H1616 H 0.00045 0.25631 0.96749 0.0
C1617 C 0.99631 0.32901 0.00834 0.0
C1618 C 5e-05 0.30336 0.02401 0.0
H1619 H 0.99182 0.34891 0.96704 0.0
H1620 H 0.99495 0.34956 0.01931 0.0
C1621 C 0.00109 0.27717 0.0088 0.0
C1622 C 0.99724 0.77944 0.47916 0.0
C1623 C 0.99545 0.80555 0.46385 0.0
H1624 H 0.00081 0.75886 0.52043 0.0
C1625 C 0.99584 0.83149 0.47947 0.0
H1626 H 0.99765 0.75906 0.46781 0.0
C1627 C 0.99812 0.83138 0.50955 0.0
C1628 C 0.00033 0.80533 0.52486 0.0
H1629 H 0.99496 0.852 0.4684 0.0
H1630 H 0.99804 0.8518 0.52083 0.0
C1631 C -0.00025 0.77933 0.5093 0.0
loop_
_geom_bond_atom_site_label_1
_geom_bond_atom_site_label_2
_geom_bond_distance
_geom_bond_site_symmetry_2
_ccdc_geom_bond_type
O0 Cd1 2.223 . S
O0 C8 1.315 . S
Cd1 O0 2.223 . S
Cd1 O4 2.297 . S
Cd1 O5 2.439 . S
Cd1 O11 2.240 . S
Cd2 O3 2.240 . S
Cd2 O10 2.223 . S
Cd2 O12 2.297 . S
Cd2 O13 2.439 . S
O3 Cd2 2.240 . S
O3 C8 1.279 . S
O4 Cd1 2.297 . S
O4 C6 1.247 . S
O5 Cd1 2.439 . S
O5 C6 1.208 . S
C6 O4 1.247 . S
C6 O5 1.208 . S
C7 O12 1.247 . S
C7 O13 1.208 . S
C8 O0 1.315 . S
C8 O3 1.279 . S
C9 O10 1.315 . S
C9 O11 1.279 . S
O10 Cd2 2.223 . S
O10 C9 1.315 . S
O11 Cd1 2.240 . S
O11 C9 1.279 . S
O12 Cd2 2.297 . S
O12 C7 1.247 . S
O13 Cd2 2.439 . S
O13 C7 1.208 . S
O14 Cd15 2.223 . S
O14 C22 1.315 . S
Cd15 O14 2.223 . S
Cd15 O18 2.297 . S
Cd15 O19 2.439 . S
Cd15 O25 2.240 . S
Cd16 O17 2.240 . S
Cd16 O24 2.223 . S
Cd16 O26 2.297 . S
Cd16 O27 2.439 . S
O17 Cd16 2.240 . S
O17 C22 1.279 . S
O18 Cd15 2.297 . S
O18 C20 1.247 . S
O19 Cd15 2.439 . S
O19 C20 1.208 . S
C20 O18 1.247 . S
C20 O19 1.208 . S
C21 O26 1.247 . S
C21 O27 1.208 . S
C22 O14 1.315 . S
C22 O17 1.279 . S
C23 O24 1.315 . S
C23 O25 1.279 . S
O24 Cd16 2.223 . S
O24 C23 1.315 . S
O25 Cd15 2.240 . S
O25 C23 1.279 . S
O26 Cd16 2.297 . S
O26 C21 1.247 . S
O27 Cd16 2.439 . S
O27 C21 1.208 . S
O28 Cd29 2.223 . S
O28 C36 1.315 . S
Cd29 O28 2.223 . S
Cd29 O32 2.297 . S
Cd29 O33 2.439 . S
Cd29 O39 2.240 . S
Cd30 O31 2.240 . S
Cd30 O38 2.223 . S
Cd30 O40 2.297 . S
Cd30 O41 2.439 . S
O31 Cd30 2.240 . S
O31 C36 1.279 . S
O32 Cd29 2.297 . S
O32 C34 1.247 . S
O33 Cd29 2.439 . S
O33 C34 1.208 . S
C34 O32 1.247 . S
C34 O33 1.208 . S
C35 O40 1.247 1_545 S
C35 O41 1.208 1_545 S
C36 O28 1.315 . S
C36 O31 1.279 . S
C37 O38 1.315 . S
C37 O39 1.279 . S
O38 Cd30 2.223 . S
O38 C37 1.315 . S
O39 Cd29 2.240 . S
O39 C37 1.279 . S
O40 Cd30 2.297 . S
O40 C35 1.247 1_565 S
O41 Cd30 2.439 . S
O41 C35 1.208 1_565 S
O42 Cd43 2.223 . S
O42 C50 1.315 . S
Cd43 O42 2.223 . S
Cd43 O46 2.297 . S
Cd43 O47 2.439 . S
Cd43 O53 2.240 . S
Cd44 O45 2.240 . S
Cd44 O52 2.223 . S
Cd44 O54 2.297 . S
Cd44 O55 2.439 . S
O45 Cd44 2.240 . S
O45 C50 1.279 . S
O46 Cd43 2.297 . S
O46 C48 1.247 . S
O47 Cd43 2.439 . S
O47 C48 1.208 . S
C48 O46 1.247 . S
C48 O47 1.208 . S
C49 O54 1.247 1_554 S
C49 O55 1.208 1_554 S
C50 O42 1.315 . S
C50 O45 1.279 . S
C51 O52 1.315 . S
C51 O53 1.279 . S
O52 Cd44 2.223 . S
O52 C51 1.315 . S
O53 Cd43 2.240 . S
O53 C51 1.279 . S
O54 Cd44 2.297 . S
O54 C49 1.247 1_556 S
O55 Cd44 2.439 . S
O55 C49 1.208 1_556 S
O56 Cd57 2.223 . S
O56 C64 1.315 . S
Cd57 O56 2.223 . S
Cd57 O60 2.297 . S
Cd57 O61 2.439 . S
Cd57 O67 2.240 . S
Cd58 O59 2.240 . S
Cd58 O66 2.223 . S
Cd58 O68 2.297 . S
Cd58 O69 2.439 . S
O59 Cd58 2.240 . S
O59 C64 1.279 . S
O60 Cd57 2.297 . S
O60 C62 1.247 . S
O61 Cd57 2.439 . S
O61 C62 1.208 . S
C62 O60 1.247 . S
C62 O61 1.208 . S
C63 O68 1.247 . S
C63 O69 1.208 . S
C64 O56 1.315 . S
C64 O59 1.279 . S
C65 O66 1.315 . S
C65 O67 1.279 . S
O66 Cd58 2.223 . S
O66 C65 1.315 . S
O67 Cd57 2.240 . S
O67 C65 1.279 . S
O68 Cd58 2.297 . S
O68 C63 1.247 . S
O69 Cd58 2.439 . S
O69 C63 1.208 . S
O70 Cd71 2.223 . S
O70 C78 1.315 . S
Cd71 O70 2.223 . S
Cd71 O74 2.297 . S
Cd71 O75 2.439 . S
Cd71 O81 2.240 . S
Cd72 O73 2.240 . S
Cd72 O80 2.223 . S
Cd72 O82 2.297 . S
Cd72 O83 2.439 . S
O73 Cd72 2.240 . S
O73 C78 1.279 . S
O74 Cd71 2.297 . S
O74 C76 1.247 1_554 S
O75 Cd71 2.439 . S
O75 C76 1.208 1_554 S
C76 O74 1.247 1_556 S
C76 O75 1.208 1_556 S
C77 O82 1.247 . S
C77 O83 1.208 . S
C78 O70 1.315 . S
C78 O73 1.279 . S
C79 O80 1.315 . S
C79 O81 1.279 . S
O80 Cd72 2.223 . S
O80 C79 1.315 . S
O81 Cd71 2.240 . S
O81 C79 1.279 . S
O82 Cd72 2.297 . S
O82 C77 1.247 . S
O83 Cd72 2.439 . S
O83 C77 1.208 . S
O84 Cd85 2.223 . S
O84 C92 1.315 . S
Cd85 O84 2.223 . S
Cd85 O88 2.297 . S
Cd85 O89 2.439 . S
Cd85 O95 2.240 . S
Cd86 O87 2.240 . S
Cd86 O94 2.223 . S
Cd86 O96 2.297 . S
Cd86 O97 2.439 . S
O87 Cd86 2.240 . S
O87 C92 1.279 . S
O88 Cd85 2.297 . S
O88 C90 1.247 1_545 S
O89 Cd85 2.439 . S
O89 C90 1.208 1_545 S
C90 O88 1.247 1_565 S
C90 O89 1.208 1_565 S
C91 O96 1.247 . S
C91 O97 1.208 . S
C92 O84 1.315 . S
C92 O87 1.279 . S
C93 O94 1.315 . S
C93 O95 1.279 . S
O94 Cd86 2.223 . S
O94 C93 1.315 . S
O95 Cd85 2.240 . S
O95 C93 1.279 . S
O96 Cd86 2.297 . S
O96 C91 1.247 . S
O97 Cd86 2.439 . S
O97 C91 1.208 . S
O98 Cd99 2.223 . S
O98 C106 1.315 . S
Cd99 O98 2.223 . S
Cd99 O102 2.297 . S
Cd99 O103 2.439 . S
Cd99 O109 2.240 . S
Cd100 O101 2.240 . S
Cd100 O108 2.223 . S
Cd100 O110 2.297 . S
Cd100 O111 2.439 . S
O101 Cd100 2.240 . S
O101 C106 1.279 . S
O102 Cd99 2.297 . S
O102 C104 1.247 . S
O103 Cd99 2.439 . S
O103 C104 1.208 . S
C104 O102 1.247 . S
C104 O103 1.208 . S
C105 O110 1.247 . S
C105 O111 1.208 . S
C106 O98 1.315 . S
C106 O101 1.279 . S
C107 O108 1.315 . S
C107 O109 1.279 . S
O108 Cd100 2.223 . S
O108 C107 1.315 . S
O109 Cd99 2.240 . S
O109 C107 1.279 . S
O110 Cd100 2.297 . S
O110 C105 1.247 . S
O111 Cd100 2.439 . S
O111 C105 1.208 . S
O112 Cd113 2.223 . S
O112 C120 1.315 . S
Cd113 O112 2.223 . S
Cd113 O116 2.297 . S
Cd113 O117 2.439 . S
Cd113 O123 2.240 . S
Cd114 O115 2.240 . S
Cd114 O122 2.223 . S
Cd114 O124 2.297 . S
Cd114 O125 2.439 . S
O115 Cd114 2.240 . S
O115 C120 1.279 . S
O116 Cd113 2.297 . S
O116 C118 1.247 . S
O117 Cd113 2.439 . S
O117 C118 1.208 . S
C118 O116 1.247 . S
C118 O117 1.208 . S
C119 O124 1.247 . S
C119 O125 1.208 . S
C120 O112 1.315 . S
C120 O115 1.279 . S
C121 O122 1.315 . S
C121 O123 1.279 . S
O122 Cd114 2.223 . S
O122 C121 1.315 . S
O123 Cd113 2.240 . S
O123 C121 1.279 . S
O124 Cd114 2.297 . S
O124 C119 1.247 . S
O125 Cd114 2.439 . S
O125 C119 1.208 . S
O126 Cd127 2.223 . S
O126 C134 1.315 . S
Cd127 O126 2.223 . S
Cd127 O130 2.297 . S
Cd127 O131 2.439 . S
Cd127 O137 2.240 . S
Cd128 O129 2.240 . S
Cd128 O136 2.223 . S
Cd128 O138 2.297 . S
Cd128 O139 2.439 . S
O129 Cd128 2.240 . S
O129 C134 1.279 . S
O130 Cd127 2.297 . S
O130 C132 1.247 . S
O131 Cd127 2.439 . S
O131 C132 1.208 . S
C132 O130 1.247 . S
C132 O131 1.208 . S
C133 O138 1.247 . S
C133 O139 1.208 . S
C134 O126 1.315 . S
C134 O129 1.279 . S
C135 O136 1.315 . S
C135 O137 1.279 . S
O136 Cd128 2.223 . S
O136 C135 1.315 . S
O137 Cd127 2.240 . S
O137 C135 1.279 . S
O138 Cd128 2.297 . S
O138 C133 1.247 . S
O139 Cd128 2.439 . S
O139 C133 1.208 . S
O140 Cd141 2.223 . S
O140 C148 1.315 . S
Cd141 O140 2.223 . S
Cd141 O144 2.297 . S
Cd141 O145 2.439 . S
Cd141 O151 2.240 . S
Cd142 O143 2.240 . S
Cd142 O150 2.223 . S
Cd142 O152 2.297 . S
Cd142 O153 2.439 . S
O143 Cd142 2.240 . S
O143 C148 1.279 . S
O144 Cd141 2.297 . S
O144 C146 1.247 . S
O145 Cd141 2.439 . S
O145 C146 1.208 . S
C146 O144 1.247 . S
C146 O145 1.208 . S
C147 O152 1.247 1_554 S
C147 O153 1.208 1_554 S
C148 O140 1.315 . S
C148 O143 1.279 . S
C149 O150 1.315 . S
C149 O151 1.279 . S
O150 Cd142 2.223 . S
O150 C149 1.315 . S
O151 Cd141 2.240 . S
O151 C149 1.279 . S
O152 Cd142 2.297 . S
O152 C147 1.247 1_556 S
O153 Cd142 2.439 . S
O153 C147 1.208 1_556 S
O154 Cd155 2.223 . S
O154 C162 1.315 . S
Cd155 O154 2.223 . S
Cd155 O158 2.297 . S
Cd155 O159 2.439 . S
Cd155 O165 2.240 . S
Cd156 O157 2.240 . S
Cd156 O164 2.223 . S
Cd156 O166 2.297 . S
Cd156 O167 2.439 . S
O157 Cd156 2.240 . S
O157 C162 1.279 . S
O158 Cd155 2.297 . S
O158 C160 1.247 . S
O159 Cd155 2.439 . S
O159 C160 1.208 . S
C160 O158 1.247 . S
C160 O159 1.208 . S
C161 O166 1.247 1_565 S
C161 O167 1.208 1_565 S
C162 O154 1.315 . S
C162 O157 1.279 . S
C163 O164 1.315 . S
C163 O165 1.279 . S
O164 Cd156 2.223 . S
O164 C163 1.315 . S
O165 Cd155 2.240 . S
O165 C163 1.279 . S
O166 Cd156 2.297 . S
O166 C161 1.247 1_545 S
O167 Cd156 2.439 . S
O167 C161 1.208 1_545 S
O168 Cd169 2.223 . S
O168 C176 1.315 . S
Cd169 O168 2.223 . S
Cd169 O172 2.297 . S
Cd169 O173 2.439 . S
Cd169 O179 2.240 . S
Cd170 O171 2.240 . S
Cd170 O178 2.223 . S
Cd170 O180 2.297 . S
Cd170 O181 2.439 . S
O171 Cd170 2.240 . S
O171 C176 1.279 . S
O172 Cd169 2.297 . S
O172 C174 1.247 . S
O173 Cd169 2.439 . S
O173 C174 1.208 . S
C174 O172 1.247 . S
C174 O173 1.208 . S
C175 O180 1.247 . S
C175 O181 1.208 . S
C176 O168 1.315 . S
C176 O171 1.279 . S
C177 O178 1.315 . S
C177 O179 1.279 . S
O178 Cd170 2.223 . S
O178 C177 1.315 . S
O179 Cd169 2.240 . S
O179 C177 1.279 . S
O180 Cd170 2.297 . S
O180 C175 1.247 . S
O181 Cd170 2.439 . S
O181 C175 1.208 . S
O182 Cd183 2.223 . S
O182 C190 1.315 . S
Cd183 O182 2.223 . S
Cd183 O186 2.297 . S
Cd183 O187 2.439 . S
Cd183 O193 2.240 . S
Cd184 O185 2.240 . S
Cd184 O192 2.223 . S
Cd184 O194 2.297 . S
Cd184 O195 2.439 . S
O185 Cd184 2.240 . S
O185 C190 1.279 . S
O186 Cd183 2.297 . S
O186 C188 1.247 1_455 S
O187 Cd183 2.439 . S
O187 C188 1.208 1_455 S
C188 O186 1.247 1_655 S
C188 O187 1.208 1_655 S
C189 O194 1.247 . S
C189 O195 1.208 . S
C190 O182 1.315 . S
C190 O185 1.279 . S
C191 O192 1.315 . S
C191 O193 1.279 . S
O192 Cd184 2.223 . S
O192 C191 1.315 . S
O193 Cd183 2.240 . S
O193 C191 1.279 . S
O194 Cd184 2.297 . S
O194 C189 1.247 . S
O195 Cd184 2.439 . S
O195 C189 1.208 . S
O196 Cd197 2.223 . S
O196 C204 1.315 . S
Cd197 O196 2.223 . S
Cd197 O200 2.297 . S
Cd197 O201 2.439 . S
Cd197 O207 2.240 . S
Cd198 O199 2.240 . S
Cd198 O206 2.223 . S
Cd198 O208 2.297 . S
Cd198 O209 2.439 . S
O199 Cd198 2.240 . S
O199 C204 1.279 . S
O200 Cd197 2.297 . S
O200 C202 1.247 . S
O201 Cd197 2.439 . S
O201 C202 1.208 . S
C202 O200 1.247 . S
C202 O201 1.208 . S
C203 O208 1.247 . S
C203 O209 1.208 . S
C204 O196 1.315 . S
C204 O199 1.279 . S
C205 O206 1.315 . S
C205 O207 1.279 . S
O206 Cd198 2.223 . S
O206 C205 1.315 . S
O207 Cd197 2.240 . S
O207 C205 1.279 . S
O208 Cd198 2.297 . S
O208 C203 1.247 . S
O209 Cd198 2.439 . S
O209 C203 1.208 . S
O210 Cd211 2.223 . S
O210 C218 1.315 . S
Cd211 O210 2.223 . S
Cd211 O214 2.297 . S
Cd211 O215 2.439 . S
Cd211 O221 2.240 . S
Cd212 O213 2.240 . S
Cd212 O220 2.223 . S
Cd212 O222 2.297 . S
Cd212 O223 2.439 . S
O213 Cd212 2.240 . S
O213 C218 1.279 . S
O214 Cd211 2.297 . S
O214 C216 1.247 . S
O215 Cd211 2.439 . S
O215 C216 1.208 . S
C216 O214 1.247 . S
C216 O215 1.208 . S
C217 O222 1.247 1_455 S
C217 O223 1.208 1_455 S
C218 O210 1.315 . S
C218 O213 1.279 . S
C219 O220 1.315 . S
C219 O221 1.279 . S
O220 Cd212 2.223 . S
O220 C219 1.315 . S
O221 Cd211 2.240 . S
O221 C219 1.279 . S
O222 Cd212 2.297 . S
O222 C217 1.247 1_655 S
O223 Cd212 2.439 . S
O223 C217 1.208 1_655 S
O224 Cd225 2.223 . S
O224 C232 1.315 . S
Cd225 O224 2.223 . S
Cd225 O228 2.297 . S
Cd225 O229 2.439 . S
Cd225 O235 2.240 . S
Cd226 O227 2.240 . S
Cd226 O234 2.223 . S
Cd226 O236 2.297 . S
Cd226 O237 2.439 . S
O227 Cd226 2.240 . S
O227 C232 1.279 . S
O228 Cd225 2.297 . S
O228 C230 1.247 1_455 S
O229 Cd225 2.439 . S
O229 C230 1.208 1_455 S
C230 O228 1.247 1_655 S
C230 O229 1.208 1_655 S
C231 O236 1.247 . S
C231 O237 1.208 . S
C232 O224 1.315 . S
C232 O227 1.279 . S
C233 O234 1.315 . S
C233 O235 1.279 . S
O234 Cd226 2.223 . S
O234 C233 1.315 . S
O235 Cd225 2.240 . S
O235 C233 1.279 . S
O236 Cd226 2.297 . S
O236 C231 1.247 . S
O237 Cd226 2.439 . S
O237 C231 1.208 . S
O238 Cd239 2.223 . S
O238 C246 1.315 . S
Cd239 O238 2.223 . S
Cd239 O242 2.297 . S
Cd239 O243 2.439 . S
Cd239 O249 2.240 . S
Cd240 O241 2.240 . S
Cd240 O248 2.223 . S
Cd240 O250 2.297 . S
Cd240 O251 2.439 . S
O241 Cd240 2.240 . S
O241 C246 1.279 . S
O242 Cd239 2.297 . S
O242 C244 1.247 . S
O243 Cd239 2.439 . S
O243 C244 1.208 . S
C244 O242 1.247 . S
C244 O243 1.208 . S
C245 O250 1.247 . S
C245 O251 1.208 . S
C246 O238 1.315 . S
C246 O241 1.279 . S
C247 O248 1.315 . S
C247 O249 1.279 . S
O248 Cd240 2.223 . S
O248 C247 1.315 . S
O249 Cd239 2.240 . S
O249 C247 1.279 . S
O250 Cd240 2.297 . S
O250 C245 1.247 . S
O251 Cd240 2.439 . S
O251 C245 1.208 . S
O252 Cd253 2.223 . S
O252 C260 1.315 . S
Cd253 O252 2.223 . S
Cd253 O256 2.297 . S
Cd253 O257 2.439 . S
Cd253 O263 2.240 . S
Cd254 O255 2.240 . S
Cd254 O262 2.223 . S
Cd254 O264 2.297 . S
Cd254 O265 2.439 . S
O255 Cd254 2.240 . S
O255 C260 1.279 . S
O256 Cd253 2.297 . S
O256 C258 1.247 . S
O257 Cd253 2.439 . S
O257 C258 1.208 . S
C258 O256 1.247 . S
C258 O257 1.208 . S
C259 O264 1.247 . S
C259 O265 1.208 . S
C260 O252 1.315 . S
C260 O255 1.279 . S
C261 O262 1.315 . S
C261 O263 1.279 . S
O262 Cd254 2.223 . S
O262 C261 1.315 . S
O263 Cd253 2.240 . S
O263 C261 1.279 . S
O264 Cd254 2.297 . S
O264 C259 1.247 . S
O265 Cd254 2.439 . S
O265 C259 1.208 . S
O266 Cd267 2.223 . S
O266 C274 1.315 . S
Cd267 O266 2.223 . S
Cd267 O270 2.297 . S
Cd267 O271 2.439 . S
Cd267 O277 2.240 . S
Cd268 O269 2.240 . S
Cd268 O276 2.223 . S
Cd268 O278 2.297 . S
Cd268 O279 2.439 . S
O269 Cd268 2.240 . S
O269 C274 1.279 . S
O270 Cd267 2.297 . S
O270 C272 1.247 . S
O271 Cd267 2.439 . S
O271 C272 1.208 . S
C272 O270 1.247 . S
C272 O271 1.208 . S
C273 O278 1.247 . S
C273 O279 1.208 . S
C274 O266 1.315 . S
C274 O269 1.279 . S
C275 O276 1.315 . S
C275 O277 1.279 . S
O276 Cd268 2.223 . S
O276 C275 1.315 . S
O277 Cd267 2.240 . S
O277 C275 1.279 . S
O278 Cd268 2.297 . S
O278 C273 1.247 . S
O279 Cd268 2.439 . S
O279 C273 1.208 . S
O280 Cd281 2.223 . S
O280 C288 1.315 . S
Cd281 O280 2.223 . S
Cd281 O284 2.297 . S
Cd281 O285 2.439 . S
Cd281 O291 2.240 . S
Cd282 O283 2.240 . S
Cd282 O290 2.223 . S
Cd282 O292 2.297 . S
Cd282 O293 2.439 . S
O283 Cd282 2.240 . S
O283 C288 1.279 . S
O284 Cd281 2.297 . S
O284 C286 1.247 . S
O285 Cd281 2.439 . S
O285 C286 1.208 . S
C286 O284 1.247 . S
C286 O285 1.208 . S
C287 O292 1.247 1_565 S
C287 O293 1.208 1_565 S
C288 O280 1.315 . S
C288 O283 1.279 . S
C289 O290 1.315 . S
C289 O291 1.279 . S
O290 Cd282 2.223 . S
O290 C289 1.315 . S
O291 Cd281 2.240 . S
O291 C289 1.279 . S
O292 Cd282 2.297 . S
O292 C287 1.247 1_545 S
O293 Cd282 2.439 . S
O293 C287 1.208 1_545 S
O294 Cd295 2.223 . S
O294 C302 1.315 . S
Cd295 O294 2.223 . S
Cd295 O298 2.297 . S
Cd295 O299 2.439 . S
Cd295 O305 2.240 . S
Cd296 O297 2.240 . S
Cd296 O304 2.223 . S
Cd296 O306 2.297 . S
Cd296 O307 2.439 . S
O297 Cd296 2.240 . S
O297 C302 1.279 . S
O298 Cd295 2.297 . S
O298 C300 1.247 . S
O299 Cd295 2.439 . S
O299 C300 1.208 . S
C300 O298 1.247 . S
C300 O299 1.208 . S
C301 O306 1.247 1_554 S
C301 O307 1.208 1_554 S
C302 O294 1.315 . S
C302 O297 1.279 . S
C303 O304 1.315 . S
C303 O305 1.279 . S
O304 Cd296 2.223 . S
O304 C303 1.315 . S
O305 Cd295 2.240 . S
O305 C303 1.279 . S
O306 Cd296 2.297 . S
O306 C301 1.247 1_556 S
O307 Cd296 2.439 . S
O307 C301 1.208 1_556 S
O308 Cd309 2.223 . S
O308 C316 1.315 . S
Cd309 O308 2.223 . S
Cd309 O312 2.297 . S
Cd309 O313 2.439 . S
Cd309 O319 2.240 . S
Cd310 O311 2.240 . S
Cd310 O318 2.223 . S
Cd310 O320 2.297 . S
Cd310 O321 2.439 . S
O311 Cd310 2.240 . S
O311 C316 1.279 . S
O312 Cd309 2.297 . S
O312 C314 1.247 . S
O313 Cd309 2.439 . S
O313 C314 1.208 . S
C314 O312 1.247 . S
C314 O313 1.208 . S
C315 O320 1.247 . S
C315 O321 1.208 . S
C316 O308 1.315 . S
C316 O311 1.279 . S
C317 O318 1.315 . S
C317 O319 1.279 . S
O318 Cd310 2.223 . S
O318 C317 1.315 . S
O319 Cd309 2.240 . S
O319 C317 1.279 . S
O320 Cd310 2.297 . S
O320 C315 1.247 . S
O321 Cd310 2.439 . S
O321 C315 1.208 . S
O322 Cd323 2.223 . S
O322 C330 1.315 . S
Cd323 O322 2.223 . S
Cd323 O326 2.297 . S
Cd323 O327 2.439 . S
Cd323 O333 2.240 . S
Cd324 O325 2.240 . S
Cd324 O332 2.223 . S
Cd324 O334 2.297 . S
Cd324 O335 2.439 . S
O325 Cd324 2.240 . S
O325 C330 1.279 . S
O326 Cd323 2.297 . S
O326 C328 1.247 . S
O327 Cd323 2.439 . S
O327 C328 1.208 . S
C328 O326 1.247 . S
C328 O327 1.208 . S
C329 O334 1.247 . S
C329 O335 1.208 . S
C330 O322 1.315 . S
C330 O325 1.279 . S
C331 O332 1.315 . S
C331 O333 1.279 . S
O332 Cd324 2.223 . S
O332 C331 1.315 . S
O333 Cd323 2.240 . S
O333 C331 1.279 . S
O334 Cd324 2.297 . S
O334 C329 1.247 . S
O335 Cd324 2.439 . S
O335 C329 1.208 . S
O336 Cd337 2.223 . S
O336 C344 1.315 . S
Cd337 O336 2.223 . S
Cd337 O340 2.297 . S
Cd337 O341 2.439 . S
Cd337 O347 2.240 . S
Cd338 O339 2.240 . S
Cd338 O346 2.223 . S
Cd338 O348 2.297 . S
Cd338 O349 2.439 . S
O339 Cd338 2.240 . S
O339 C344 1.279 . S
O340 Cd337 2.297 . S
O340 C342 1.247 1_565 S
O341 Cd337 2.439 . S
O341 C342 1.208 1_565 S
C342 O340 1.247 1_545 S
C342 O341 1.208 1_545 S
C343 O348 1.247 . S
C343 O349 1.208 . S
C344 O336 1.315 . S
C344 O339 1.279 . S
C345 O346 1.315 . S
C345 O347 1.279 . S
O346 Cd338 2.223 . S
O346 C345 1.315 . S
O347 Cd337 2.240 . S
O347 C345 1.279 . S
O348 Cd338 2.297 . S
O348 C343 1.247 . S
O349 Cd338 2.439 . S
O349 C343 1.208 . S
O350 Cd351 2.223 . S
O350 C358 1.315 . S
Cd351 O350 2.223 . S
Cd351 O354 2.297 . S
Cd351 O355 2.439 . S
Cd351 O361 2.240 . S
Cd352 O353 2.240 . S
Cd352 O360 2.223 . S
Cd352 O362 2.297 . S
Cd352 O363 2.439 . S
O353 Cd352 2.240 . S
O353 C358 1.279 . S
O354 Cd351 2.297 . S
O354 C356 1.247 . S
O355 Cd351 2.439 . S
O355 C356 1.208 . S
C356 O354 1.247 . S
C356 O355 1.208 . S
C357 O362 1.247 . S
C357 O363 1.208 . S
C358 O350 1.315 . S
C358 O353 1.279 . S
C359 O360 1.315 . S
C359 O361 1.279 . S
O360 Cd352 2.223 . S
O360 C359 1.315 . S
O361 Cd351 2.240 . S
O361 C359 1.279 . S
O362 Cd352 2.297 . S
O362 C357 1.247 . S
O363 Cd352 2.439 . S
O363 C357 1.208 . S
O364 Cd365 2.223 . S
O364 C372 1.315 . S
Cd365 O364 2.223 . S
Cd365 O368 2.297 . S
Cd365 O369 2.439 . S
Cd365 O375 2.240 . S
Cd366 O367 2.240 . S
Cd366 O374 2.223 . S
Cd366 O376 2.297 . S
Cd366 O377 2.439 . S
O367 Cd366 2.240 . S
O367 C372 1.279 . S
O368 Cd365 2.297 . S
O368 C370 1.247 . S
O369 Cd365 2.439 . S
O369 C370 1.208 . S
C370 O368 1.247 . S
C370 O369 1.208 . S
C371 O376 1.247 . S
C371 O377 1.208 . S
C372 O364 1.315 . S
C372 O367 1.279 . S
C373 O374 1.315 . S
C373 O375 1.279 . S
O374 Cd366 2.223 . S
O374 C373 1.315 . S
O375 Cd365 2.240 . S
O375 C373 1.279 . S
O376 Cd366 2.297 . S
O376 C371 1.247 . S
O377 Cd366 2.439 . S
O377 C371 1.208 . S
O378 Cd379 2.223 . S
O378 C386 1.315 . S
Cd379 O378 2.223 . S
Cd379 O382 2.297 . S
Cd379 O383 2.439 . S
Cd379 O389 2.240 . S
Cd380 O381 2.240 . S
Cd380 O388 2.223 . S
Cd380 O390 2.297 . S
Cd380 O391 2.439 . S
O381 Cd380 2.240 . S
O381 C386 1.279 . S
O382 Cd379 2.297 . S
O382 C384 1.247 1_554 S
O383 Cd379 2.439 . S
O383 C384 1.208 1_554 S
C384 O382 1.247 1_556 S
C384 O383 1.208 1_556 S
C385 O390 1.247 . S
C385 O391 1.208 . S
C386 O378 1.315 . S
C386 O381 1.279 . S
C387 O388 1.315 . S
C387 O389 1.279 . S
O388 Cd380 2.223 . S
O388 C387 1.315 . S
O389 Cd379 2.240 . S
O389 C387 1.279 . S
O390 Cd380 2.297 . S
O390 C385 1.247 . S
O391 Cd380 2.439 . S
O391 C385 1.208 . S
O392 Cd393 2.223 . S
O392 C400 1.315 . S
Cd393 O392 2.223 . S
Cd393 O396 2.297 . S
Cd393 O397 2.439 . S
Cd393 O403 2.240 . S
Cd394 O395 2.240 . S
Cd394 O402 2.223 . S
Cd394 O404 2.297 . S
Cd394 O405 2.439 . S
O395 Cd394 2.240 . S
O395 C400 1.279 . S
O396 Cd393 2.297 . S
O396 C398 1.247 . S
O397 Cd393 2.439 . S
O397 C398 1.208 . S
C398 O396 1.247 . S
C398 O397 1.208 . S
C399 O404 1.247 1_554 S
C399 O405 1.208 1_554 S
C400 O392 1.315 . S
C400 O395 1.279 . S
C401 O402 1.315 . S
C401 O403 1.279 . S
O402 Cd394 2.223 . S
O402 C401 1.315 . S
O403 Cd393 2.240 . S
O403 C401 1.279 . S
O404 Cd394 2.297 . S
O404 C399 1.247 1_556 S
O405 Cd394 2.439 . S
O405 C399 1.208 1_556 S
O406 Cd407 2.223 . S
O406 C414 1.315 . S
Cd407 O406 2.223 . S
Cd407 O410 2.297 . S
Cd407 O411 2.439 . S
Cd407 O417 2.240 . S
Cd408 O409 2.240 . S
Cd408 O416 2.223 . S
Cd408 O418 2.297 . S
Cd408 O419 2.439 . S
O409 Cd408 2.240 . S
O409 C414 1.279 . S
O410 Cd407 2.297 . S
O410 C412 1.247 . S
O411 Cd407 2.439 . S
O411 C412 1.208 . S
C412 O410 1.247 . S
C412 O411 1.208 . S
C413 O418 1.247 1_545 S
C413 O419 1.208 1_545 S
C414 O406 1.315 . S
C414 O409 1.279 . S
C415 O416 1.315 . S
C415 O417 1.279 . S
O416 Cd408 2.223 . S
O416 C415 1.315 . S
O417 Cd407 2.240 . S
O417 C415 1.279 . S
O418 Cd408 2.297 . S
O418 C413 1.247 1_565 S
O419 Cd408 2.439 . S
O419 C413 1.208 1_565 S
O420 Cd421 2.223 . S
O420 C428 1.315 . S
Cd421 O420 2.223 . S
Cd421 O424 2.297 . S
Cd421 O425 2.439 . S
Cd421 O431 2.240 . S
Cd422 O423 2.240 . S
Cd422 O430 2.223 . S
Cd422 O432 2.297 . S
Cd422 O433 2.439 . S
O423 Cd422 2.240 . S
O423 C428 1.279 . S
O424 Cd421 2.297 . S
O424 C426 1.247 . S
O425 Cd421 2.439 . S
O425 C426 1.208 . S
C426 O424 1.247 . S
C426 O425 1.208 . S
C427 O432 1.247 . S
C427 O433 1.208 . S
C428 O420 1.315 . S
C428 O423 1.279 . S
C429 O430 1.315 . S
C429 O431 1.279 . S
O430 Cd422 2.223 . S
O430 C429 1.315 . S
O431 Cd421 2.240 . S
O431 C429 1.279 . S
O432 Cd422 2.297 . S
O432 C427 1.247 . S
O433 Cd422 2.439 . S
O433 C427 1.208 . S
O434 Cd435 2.223 . S
O434 C442 1.315 . S
Cd435 O434 2.223 . S
Cd435 O438 2.297 . S
Cd435 O439 2.439 . S
Cd435 O445 2.240 . S
Cd436 O437 2.240 . S
Cd436 O444 2.223 . S
Cd436 O446 2.297 . S
Cd436 O447 2.439 . S
O437 Cd436 2.240 . S
O437 C442 1.279 . S
O438 Cd435 2.297 . S
O438 C440 1.247 . S
O439 Cd435 2.439 . S
O439 C440 1.208 . S
C440 O438 1.247 . S
C440 O439 1.208 . S
C441 O446 1.247 . S
C441 O447 1.208 . S
C442 O434 1.315 . S
C442 O437 1.279 . S
C443 O444 1.315 . S
C443 O445 1.279 . S
O444 Cd436 2.223 . S
O444 C443 1.315 . S
O445 Cd435 2.240 . S
O445 C443 1.279 . S
O446 Cd436 2.297 . S
O446 C441 1.247 . S
O447 Cd436 2.439 . S
O447 C441 1.208 . S
O448 Cd449 2.223 . S
O448 C456 1.315 . S
Cd449 O448 2.223 . S
Cd449 O452 2.297 . S
Cd449 O453 2.439 . S
Cd449 O459 2.240 . S
Cd450 O451 2.240 . S
Cd450 O458 2.223 . S
Cd450 O460 2.297 . S
Cd450 O461 2.439 . S
O451 Cd450 2.240 . S
O451 C456 1.279 . S
O452 Cd449 2.297 . S
O452 C454 1.247 . S
O453 Cd449 2.439 . S
O453 C454 1.208 . S
C454 O452 1.247 . S
C454 O453 1.208 . S
C455 O460 1.247 . S
C455 O461 1.208 . S
C456 O448 1.315 . S
C456 O451 1.279 . S
C457 O458 1.315 . S
C457 O459 1.279 . S
O458 Cd450 2.223 . S
O458 C457 1.315 . S
O459 Cd449 2.240 . S
O459 C457 1.279 . S
O460 Cd450 2.297 . S
O460 C455 1.247 . S
O461 Cd450 2.439 . S
O461 C455 1.208 . S
O462 Cd463 2.223 . S
O462 C470 1.315 . S
Cd463 O462 2.223 . S
Cd463 O466 2.297 . S
Cd463 O467 2.439 . S
Cd463 O473 2.240 . S
Cd464 O465 2.240 . S
Cd464 O472 2.223 . S
Cd464 O474 2.297 . S
Cd464 O475 2.439 . S
O465 Cd464 2.240 . S
O465 C470 1.279 . S
O466 Cd463 2.297 . S
O466 C468 1.247 1_455 S
O467 Cd463 2.439 . S
O467 C468 1.208 1_455 S
C468 O466 1.247 1_655 S
C468 O467 1.208 1_655 S
C469 O474 1.247 . S
C469 O475 1.208 . S
C470 O462 1.315 . S
C470 O465 1.279 . S
C471 O472 1.315 . S
C471 O473 1.279 . S
O472 Cd464 2.223 . S
O472 C471 1.315 . S
O473 Cd463 2.240 . S
O473 C471 1.279 . S
O474 Cd464 2.297 . S
O474 C469 1.247 . S
O475 Cd464 2.439 . S
O475 C469 1.208 . S
O476 Cd477 2.223 . S
O476 C484 1.315 . S
Cd477 O476 2.223 . S
Cd477 O480 2.297 . S
Cd477 O481 2.439 . S
Cd477 O487 2.240 . S
Cd478 O479 2.240 . S
Cd478 O486 2.223 . S
Cd478 O488 2.297 . S
Cd478 O489 2.439 . S
O479 Cd478 2.240 . S
O479 C484 1.279 . S
O480 Cd477 2.297 . S
O480 C482 1.247 . S
O481 Cd477 2.439 . S
O481 C482 1.208 . S
C482 O480 1.247 . S
C482 O481 1.208 . S
C483 O488 1.247 1_455 S
C483 O489 1.208 1_455 S
C484 O476 1.315 . S
C484 O479 1.279 . S
C485 O486 1.315 . S
C485 O487 1.279 . S
O486 Cd478 2.223 . S
O486 C485 1.315 . S
O487 Cd477 2.240 . S
O487 C485 1.279 . S
O488 Cd478 2.297 . S
O488 C483 1.247 1_655 S
O489 Cd478 2.439 . S
O489 C483 1.208 1_655 S
O490 Cd491 2.223 . S
O490 C498 1.315 . S
Cd491 O490 2.223 . S
Cd491 O494 2.297 . S
Cd491 O495 2.439 . S
Cd491 O501 2.240 . S
Cd492 O493 2.240 . S
Cd492 O500 2.223 . S
Cd492 O502 2.297 . S
Cd492 O503 2.439 . S
O493 Cd492 2.240 . S
O493 C498 1.279 . S
O494 Cd491 2.297 . S
O494 C496 1.247 1_455 S
O495 Cd491 2.439 . S
O495 C496 1.208 1_455 S
C496 O494 1.247 1_655 S
C496 O495 1.208 1_655 S
C497 O502 1.247 . S
C497 O503 1.208 . S
C498 O490 1.315 . S
C498 O493 1.279 . S
C499 O500 1.315 . S
C499 O501 1.279 . S
O500 Cd492 2.223 . S
O500 C499 1.315 . S
O501 Cd491 2.240 . S
O501 C499 1.279 . S
O502 Cd492 2.297 . S
O502 C497 1.247 . S
O503 Cd492 2.439 . S
O503 C497 1.208 . S
O504 Cd505 2.223 . S
O504 C512 1.315 . S
Cd505 O504 2.223 . S
Cd505 O508 2.297 . S
Cd505 O509 2.439 . S
Cd505 O515 2.240 . S
Cd506 O507 2.240 . S
Cd506 O514 2.223 . S
Cd506 O516 2.297 . S
Cd506 O517 2.439 . S
O507 Cd506 2.240 . S
O507 C512 1.279 . S
O508 Cd505 2.297 . S
O508 C510 1.247 . S
O509 Cd505 2.439 . S
O509 C510 1.208 . S
C510 O508 1.247 . S
C510 O509 1.208 . S
C511 O516 1.247 . S
C511 O517 1.208 . S
C512 O504 1.315 . S
C512 O507 1.279 . S
C513 O514 1.315 . S
C513 O515 1.279 . S
O514 Cd506 2.223 . S
O514 C513 1.315 . S
O515 Cd505 2.240 . S
O515 C513 1.279 . S
O516 Cd506 2.297 . S
O516 C511 1.247 . S
O517 Cd506 2.439 . S
O517 C511 1.208 . S
O518 Cd519 2.223 . S
O518 C526 1.315 . S
Cd519 O518 2.223 . S
Cd519 O522 2.297 . S
Cd519 O523 2.439 . S
Cd519 O529 2.240 . S
Cd520 O521 2.240 . S
Cd520 O528 2.223 . S
Cd520 O530 2.297 . S
Cd520 O531 2.439 . S
O521 Cd520 2.240 . S
O521 C526 1.279 . S
O522 Cd519 2.297 . S
O522 C524 1.247 . S
O523 Cd519 2.439 . S
O523 C524 1.208 . S
C524 O522 1.247 . S
C524 O523 1.208 . S
C525 O530 1.247 . S
C525 O531 1.208 . S
C526 O518 1.315 . S
C526 O521 1.279 . S
C527 O528 1.315 . S
C527 O529 1.279 . S
O528 Cd520 2.223 . S
O528 C527 1.315 . S
O529 Cd519 2.240 . S
O529 C527 1.279 . S
O530 Cd520 2.297 . S
O530 C525 1.247 . S
O531 Cd520 2.439 . S
O531 C525 1.208 . S
O532 Cd533 2.223 . S
O532 C540 1.315 . S
Cd533 O532 2.223 . S
Cd533 O536 2.297 . S
Cd533 O537 2.439 . S
Cd533 O543 2.240 . S
Cd534 O535 2.240 . S
Cd534 O542 2.223 . S
Cd534 O544 2.297 . S
Cd534 O545 2.439 . S
O535 Cd534 2.240 . S
O535 C540 1.279 . S
O536 Cd533 2.297 . S
O536 C538 1.247 . S
O537 Cd533 2.439 . S
O537 C538 1.208 . S
C538 O536 1.247 . S
C538 O537 1.208 . S
C539 O544 1.247 . S
C539 O545 1.208 . S
C540 O532 1.315 . S
C540 O535 1.279 . S
C541 O542 1.315 . S
C541 O543 1.279 . S
O542 Cd534 2.223 . S
O542 C541 1.315 . S
O543 Cd533 2.240 . S
O543 C541 1.279 . S
O544 Cd534 2.297 . S
O544 C539 1.247 . S
O545 Cd534 2.439 . S
O545 C539 1.208 . S
O546 Cd547 2.223 . S
O546 C554 1.315 . S
Cd547 O546 2.223 . S
Cd547 O550 2.297 . S
Cd547 O551 2.439 . S
Cd547 O557 2.240 . S
Cd548 O549 2.240 . S
Cd548 O556 2.223 . S
Cd548 O558 2.297 . S
Cd548 O559 2.439 . S
O549 Cd548 2.240 . S
O549 C554 1.279 . S
O550 Cd547 2.297 . S
O550 C552 1.247 . S
O551 Cd547 2.439 . S
O551 C552 1.208 . S
C552 O550 1.247 . S
C552 O551 1.208 . S
C553 O558 1.247 . S
C553 O559 1.208 . S
C554 O546 1.315 . S
C554 O549 1.279 . S
C555 O556 1.315 . S
C555 O557 1.279 . S
O556 Cd548 2.223 . S
O556 C555 1.315 . S
O557 Cd547 2.240 . S
O557 C555 1.279 . S
O558 Cd548 2.297 . S
O558 C553 1.247 . S
O559 Cd548 2.439 . S
O559 C553 1.208 . S
O560 Cd561 2.223 . S
O560 C568 1.315 . S
Cd561 O560 2.223 . S
Cd561 O564 2.297 . S
Cd561 O565 2.439 . S
Cd561 O571 2.240 . S
Cd562 O563 2.240 . S
Cd562 O570 2.223 . S
Cd562 O572 2.297 . S
Cd562 O573 2.439 . S
O563 Cd562 2.240 . S
O563 C568 1.279 . S
O564 Cd561 2.297 . S
O564 C566 1.247 1_545 S
O565 Cd561 2.439 . S
O565 C566 1.208 1_545 S
C566 O564 1.247 1_565 S
C566 O565 1.208 1_565 S
C567 O572 1.247 . S
C567 O573 1.208 . S
C568 O560 1.315 . S
C568 O563 1.279 . S
C569 O570 1.315 . S
C569 O571 1.279 . S
O570 Cd562 2.223 . S
O570 C569 1.315 . S
O571 Cd561 2.240 . S
O571 C569 1.279 . S
O572 Cd562 2.297 . S
O572 C567 1.247 . S
O573 Cd562 2.439 . S
O573 C567 1.208 . S
O574 Cd575 2.223 . S
O574 C582 1.315 . S
Cd575 O574 2.223 . S
Cd575 O578 2.297 . S
Cd575 O579 2.439 . S
Cd575 O585 2.240 . S
Cd576 O577 2.240 . S
Cd576 O584 2.223 . S
Cd576 O586 2.297 . S
Cd576 O587 2.439 . S
O577 Cd576 2.240 . S
O577 C582 1.279 . S
O578 Cd575 2.297 . S
O578 C580 1.247 1_554 S
O579 Cd575 2.439 . S
O579 C580 1.208 1_554 S
C580 O578 1.247 1_556 S
C580 O579 1.208 1_556 S
C581 O586 1.247 . S
C581 O587 1.208 . S
C582 O574 1.315 . S
C582 O577 1.279 . S
C583 O584 1.315 . S
C583 O585 1.279 . S
O584 Cd576 2.223 . S
O584 C583 1.315 . S
O585 Cd575 2.240 . S
O585 C583 1.279 . S
O586 Cd576 2.297 . S
O586 C581 1.247 . S
O587 Cd576 2.439 . S
O587 C581 1.208 . S
O588 Cd589 2.223 . S
O588 C596 1.315 . S
Cd589 O588 2.223 . S
Cd589 O592 2.297 . S
Cd589 O593 2.439 . S
Cd589 O599 2.240 . S
Cd590 O591 2.240 . S
Cd590 O598 2.223 . S
Cd590 O600 2.297 . S
Cd590 O601 2.439 . S
O591 Cd590 2.240 . S
O591 C596 1.279 . S
O592 Cd589 2.297 . S
O592 C594 1.247 1_655 S
O593 Cd589 2.439 . S
O593 C594 1.208 1_655 S
C594 O592 1.247 1_455 S
C594 O593 1.208 1_455 S
C595 O600 1.247 . S
C595 O601 1.208 . S
C596 O588 1.315 . S
C596 O591 1.279 . S
C597 O598 1.315 . S
C597 O599 1.279 . S
O598 Cd590 2.223 . S
O598 C597 1.315 . S
O599 Cd589 2.240 . S
O599 C597 1.279 . S
O600 Cd590 2.297 . S
O600 C595 1.247 . S
O601 Cd590 2.439 . S
O601 C595 1.208 . S
O602 Cd603 2.223 . S
O602 C610 1.315 . S
Cd603 O602 2.223 . S
Cd603 O606 2.297 . S
Cd603 O607 2.439 . S
Cd603 O613 2.240 . S
Cd604 O605 2.240 . S
Cd604 O612 2.223 . S
Cd604 O614 2.297 . S
Cd604 O615 2.439 . S
O605 Cd604 2.240 . S
O605 C610 1.279 . S
O606 Cd603 2.297 . S
O606 C608 1.247 1_655 S
O607 Cd603 2.439 . S
O607 C608 1.208 1_655 S
C608 O606 1.247 1_455 S
C608 O607 1.208 1_455 S
C609 O614 1.247 . S
C609 O615 1.208 . S
C610 O602 1.315 . S
C610 O605 1.279 . S
C611 O612 1.315 . S
C611 O613 1.279 . S
O612 Cd604 2.223 . S
O612 C611 1.315 . S
O613 Cd603 2.240 . S
O613 C611 1.279 . S
O614 Cd604 2.297 . S
O614 C609 1.247 . S
O615 Cd604 2.439 . S
O615 C609 1.208 . S
O616 Cd617 2.223 . S
O616 C624 1.315 . S
Cd617 O616 2.223 . S
Cd617 O620 2.297 . S
Cd617 O621 2.439 . S
Cd617 O627 2.240 . S
Cd618 O619 2.240 . S
Cd618 O626 2.223 . S
Cd618 O628 2.297 . S
Cd618 O629 2.439 . S
O619 Cd618 2.240 . S
O619 C624 1.279 . S
O620 Cd617 2.297 . S
O620 C622 1.247 1_565 S
O621 Cd617 2.439 . S
O621 C622 1.208 1_565 S
C622 O620 1.247 1_545 S
C622 O621 1.208 1_545 S
C623 O628 1.247 . S
C623 O629 1.208 . S
C624 O616 1.315 . S
C624 O619 1.279 . S
C625 O626 1.315 . S
C625 O627 1.279 . S
O626 Cd618 2.223 . S
O626 C625 1.315 . S
O627 Cd617 2.240 . S
O627 C625 1.279 . S
O628 Cd618 2.297 . S
O628 C623 1.247 . S
O629 Cd618 2.439 . S
O629 C623 1.208 . S
O630 Cd631 2.223 . S
O630 C638 1.315 . S
Cd631 O630 2.223 . S
Cd631 O634 2.297 . S
Cd631 O635 2.439 . S
Cd631 O641 2.240 . S
Cd632 O633 2.240 . S
Cd632 O640 2.223 . S
Cd632 O642 2.297 . S
Cd632 O643 2.439 . S
O633 Cd632 2.240 . S
O633 C638 1.279 . S
O634 Cd631 2.297 . S
O634 C636 1.247 1_554 S
O635 Cd631 2.439 . S
O635 C636 1.208 1_554 S
C636 O634 1.247 1_556 S
C636 O635 1.208 1_556 S
C637 O642 1.247 . S
C637 O643 1.208 . S
C638 O630 1.315 . S
C638 O633 1.279 . S
C639 O640 1.315 . S
C639 O641 1.279 . S
O640 Cd632 2.223 . S
O640 C639 1.315 . S
O641 Cd631 2.240 . S
O641 C639 1.279 . S
O642 Cd632 2.297 . S
O642 C637 1.247 . S
O643 Cd632 2.439 . S
O643 C637 1.208 . S
O644 Cd645 2.223 . S
O644 C652 1.315 . S
Cd645 O644 2.223 . S
Cd645 O648 2.297 . S
Cd645 O649 2.439 . S
Cd645 O655 2.240 . S
Cd646 O647 2.240 . S
Cd646 O654 2.223 . S
Cd646 O656 2.297 . S
Cd646 O657 2.439 . S
O647 Cd646 2.240 . S
O647 C652 1.279 . S
O648 Cd645 2.297 . S
O648 C650 1.247 . S
O649 Cd645 2.439 . S
O649 C650 1.208 . S
C650 O648 1.247 . S
C650 O649 1.208 . S
C651 O656 1.247 . S
C651 O657 1.208 . S
C652 O644 1.315 . S
C652 O647 1.279 . S
C653 O654 1.315 . S
C653 O655 1.279 . S
O654 Cd646 2.223 . S
O654 C653 1.315 . S
O655 Cd645 2.240 . S
O655 C653 1.279 . S
O656 Cd646 2.297 . S
O656 C651 1.247 . S
O657 Cd646 2.439 . S
O657 C651 1.208 . S
O658 Cd659 2.223 . S
O658 C666 1.315 . S
Cd659 O658 2.223 . S
Cd659 O662 2.297 . S
Cd659 O663 2.439 . S
Cd659 O669 2.240 . S
Cd660 O661 2.240 . S
Cd660 O668 2.223 . S
Cd660 O670 2.297 . S
Cd660 O671 2.439 . S
O661 Cd660 2.240 . S
O661 C666 1.279 . S
O662 Cd659 2.297 . S
O662 C664 1.247 . S
O663 Cd659 2.439 . S
O663 C664 1.208 . S
C664 O662 1.247 . S
C664 O663 1.208 . S
C665 O670 1.247 . S
C665 O671 1.208 . S
C666 O658 1.315 . S
C666 O661 1.279 . S
C667 O668 1.315 . S
C667 O669 1.279 . S
O668 Cd660 2.223 . S
O668 C667 1.315 . S
O669 Cd659 2.240 . S
O669 C667 1.279 . S
O670 Cd660 2.297 . S
O670 C665 1.247 . S
O671 Cd660 2.439 . S
O671 C665 1.208 . S
C672 C673 1.387 . S
C672 H676 0.950 . S
C672 C681 1.390 . S
C673 C672 1.387 . S
C673 C675 1.387 . S
H674 C681 0.950 . S
C675 C673 1.387 . S
C675 C677 1.390 . S
C675 H679 0.950 . S
H676 C672 0.950 . S
C677 C675 1.390 . S
C677 C678 1.387 . S
C677 H680 0.950 . S
C678 C677 1.387 . S
C678 C681 1.387 . S
H679 C675 0.950 . S
H680 C677 0.950 . S
C681 C672 1.390 . S
C681 H674 0.950 . S
C681 C678 1.387 . S
C682 C683 1.387 . S
C682 H686 0.950 . S
C682 C691 1.390 . S
C683 C682 1.387 . S
C683 C685 1.387 . S
H684 C691 0.950 . S
C685 C683 1.387 . S
C685 C687 1.390 . S
C685 H689 0.950 . S
H686 C682 0.950 . S
C687 C685 1.390 . S
C687 C688 1.387 . S
C687 H690 0.950 . S
C688 C687 1.387 . S
C688 C691 1.387 . S
H689 C685 0.950 . S
H690 C687 0.950 . S
C691 C682 1.390 . S
C691 H684 0.950 . S
C691 C688 1.387 . S
C692 C693 1.387 . S
C692 H696 0.950 . S
C692 C701 1.390 . S
C693 C692 1.387 . S
C693 C695 1.387 . S
H694 C701 0.950 . S
C695 C693 1.387 . S
C695 C697 1.390 . S
C695 H699 0.950 . S
H696 C692 0.950 . S
C697 C695 1.390 . S
C697 C698 1.387 . S
C697 H700 0.950 . S
C698 C697 1.387 . S
C698 C701 1.387 . S
H699 C695 0.950 . S
H700 C697 0.950 . S
C701 C692 1.390 . S
C701 H694 0.950 . S
C701 C698 1.387 . S
C702 C703 1.387 . S
C702 H706 0.950 . S
C702 C711 1.390 . S
C703 C702 1.387 . S
C703 C705 1.387 . S
H704 C711 0.950 . S
C705 C703 1.387 . S
C705 C707 1.390 . S
C705 H709 0.950 . S
H706 C702 0.950 . S
C707 C705 1.390 . S
C707 C708 1.387 . S
C707 H710 0.950 . S
C708 C707 1.387 . S
C708 C711 1.387 . S
H709 C705 0.950 . S
H710 C707 0.950 . S
C711 C702 1.390 . S
C711 H704 0.950 . S
C711 C708 1.387 . S
C712 C713 1.387 . S
C712 H716 0.950 . S
C712 C721 1.390 . S
C713 C712 1.387 . S
C713 C715 1.387 . S
H714 C721 0.950 . S
C715 C713 1.387 . S
C715 C717 1.390 . S
C715 H719 0.950 . S
H716 C712 0.950 . S
C717 C715 1.390 . S
C717 C718 1.387 . S
C717 H720 0.950 . S
C718 C717 1.387 . S
C718 C721 1.387 . S
H719 C715 0.950 . S
H720 C717 0.950 . S
C721 C712 1.390 . S
C721 H714 0.950 . S
C721 C718 1.387 . S
C722 C723 1.387 . S
C722 H726 0.950 . S
C722 C731 1.390 . S
C723 C722 1.387 . S
C723 C725 1.387 . S
H724 C731 0.950 . S
C725 C723 1.387 . S
C725 C727 1.390 . S
C725 H729 0.950 . S
H726 C722 0.950 . S
C727 C725 1.390 . S
C727 C728 1.387 . S
C727 H730 0.950 . S
C728 C727 1.387 . S
C728 C731 1.387 . S
H729 C725 0.950 . S
H730 C727 0.950 . S
C731 C722 1.390 . S
C731 H724 0.950 . S
C731 C728 1.387 . S
C732 C733 1.387 . S
C732 H736 0.950 . S
C732 C741 1.390 . S
C733 C732 1.387 . S
C733 C735 1.387 . S
H734 C741 0.950 . S
C735 C733 1.387 . S
C735 C737 1.390 . S
C735 H739 0.950 . S
H736 C732 0.950 . S
C737 C735 1.390 . S
C737 C738 1.387 . S
C737 H740 0.950 . S
C738 C737 1.387 . S
C738 C741 1.387 . S
H739 C735 0.950 . S
H740 C737 0.950 . S
C741 C732 1.390 . S
C741 H734 0.950 . S
C741 C738 1.387 . S
C742 C743 1.387 . S
C742 H746 0.950 . S
C742 C751 1.390 . S
C743 C742 1.387 . S
C743 C745 1.387 . S
H744 C751 0.950 . S
C745 C743 1.387 . S
C745 C747 1.390 . S
C745 H749 0.950 . S
H746 C742 0.950 . S
C747 C745 1.390 . S
C747 C748 1.387 . S
C747 H750 0.950 . S
C748 C747 1.387 . S
C748 C751 1.387 . S
H749 C745 0.950 . S
H750 C747 0.950 . S
C751 C742 1.390 . S
C751 H744 0.950 . S
C751 C748 1.387 . S
C752 C753 1.387 . S
C752 H756 0.950 . S
C752 C761 1.390 . S
C753 C752 1.387 . S
C753 C755 1.387 . S
H754 C761 0.950 . S
C755 C753 1.387 . S
C755 C757 1.390 . S
C755 H759 0.950 . S
H756 C752 0.950 . S
C757 C755 1.390 . S
C757 C758 1.387 . S
C757 H760 0.950 . S
C758 C757 1.387 . S
C758 C761 1.387 . S
H759 C755 0.950 . S
H760 C757 0.950 . S
C761 C752 1.390 . S
C761 H754 0.950 . S
C761 C758 1.387 . S
C762 C763 1.387 . S
C762 H766 0.950 . S
C762 C771 1.390 . S
C763 C762 1.387 . S
C763 C765 1.387 . S
H764 C771 0.950 . S
C765 C763 1.387 . S
C765 C767 1.390 . S
C765 H769 0.950 . S
H766 C762 0.950 . S
C767 C765 1.390 . S
C767 C768 1.387 . S
C767 H770 0.950 . S
C768 C767 1.387 . S
C768 C771 1.387 . S
H769 C765 0.950 . S
H770 C767 0.950 . S
C771 C762 1.390 . S
C771 H764 0.950 . S
C771 C768 1.387 . S
C772 C773 1.387 . S
C772 H776 0.950 . S
C772 C781 1.390 . S
C773 C772 1.387 . S
C773 C775 1.387 . S
H774 C781 0.950 . S
C775 C773 1.387 . S
C775 C777 1.390 . S
C775 H779 0.950 . S
H776 C772 0.950 . S
C777 C775 1.390 . S
C777 C778 1.387 . S
C777 H780 0.950 . S
C778 C777 1.387 . S
C778 C781 1.387 . S
H779 C775 0.950 . S
H780 C777 0.950 . S
C781 C772 1.390 . S
C781 H774 0.950 . S
C781 C778 1.387 . S
C782 C783 1.387 . S
C782 H786 0.950 . S
C782 C791 1.390 . S
C783 C782 1.387 . S
C783 C785 1.387 . S
H784 C791 0.950 . S
C785 C783 1.387 . S
C785 C787 1.390 . S
C785 H789 0.950 . S
H786 C782 0.950 . S
C787 C785 1.390 . S
C787 C788 1.387 . S
C787 H790 0.950 . S
C788 C787 1.387 . S
C788 C791 1.387 . S
H789 C785 0.950 . S
H790 C787 0.950 . S
C791 C782 1.390 . S
C791 H784 0.950 . S
C791 C788 1.387 . S
C792 C793 1.387 . S
C792 H796 0.950 . S
C792 C801 1.390 . S
C793 C792 1.387 . S
C793 C795 1.387 . S
H794 C801 0.950 . S
C795 C793 1.387 . S
C795 C797 1.390 . S
C795 H799 0.950 . S
H796 C792 0.950 . S
C797 C795 1.390 . S
C797 C798 1.387 . S
C797 H800 0.950 . S
C798 C797 1.387 . S
C798 C801 1.387 . S
H799 C795 0.950 . S
H800 C797 0.950 . S
C801 C792 1.390 . S
C801 H794 0.950 . S
C801 C798 1.387 . S
C802 C803 1.387 . S
C802 H806 0.950 . S
C802 C811 1.390 . S
C803 C802 1.387 . S
C803 C805 1.387 . S
H804 C811 0.950 . S
C805 C803 1.387 . S
C805 C807 1.390 . S
C805 H809 0.950 . S
H806 C802 0.950 . S
C807 C805 1.390 . S
C807 C808 1.387 . S
C807 H810 0.950 . S
C808 C807 1.387 . S
C808 C811 1.387 . S
H809 C805 0.950 . S
H810 C807 0.950 . S
C811 C802 1.390 . S
C811 H804 0.950 . S
C811 C808 1.387 . S
C812 C813 1.387 . S
C812 H816 0.950 . S
C812 C821 1.390 . S
C813 C812 1.387 . S
C813 C815 1.387 . S
H814 C821 0.950 . S
C815 C813 1.387 . S
C815 C817 1.390 . S
C815 H819 0.950 . S
H816 C812 0.950 . S
C817 C815 1.390 . S
C817 C818 1.387 . S
C817 H820 0.950 . S
C818 C817 1.387 . S
C818 C821 1.387 . S
H819 C815 0.950 . S
H820 C817 0.950 . S
C821 C812 1.390 . S
C821 H814 0.950 . S
C821 C818 1.387 . S
C822 C823 1.387 . S
C822 H826 0.950 . S
C822 C831 1.390 . S
C823 C822 1.387 . S
C823 C825 1.387 . S
H824 C831 0.950 . S
C825 C823 1.387 . S
C825 C827 1.390 . S
C825 H829 0.950 . S
H826 C822 0.950 . S
C827 C825 1.390 . S
C827 C828 1.387 . S
C827 H830 0.950 . S
C828 C827 1.387 . S
C828 C831 1.387 . S
H829 C825 0.950 . S
H830 C827 0.950 . S
C831 C822 1.390 . S
C831 H824 0.950 . S
C831 C828 1.387 . S
C832 C833 1.387 . S
C832 H836 0.950 . S
C832 C841 1.390 . S
C833 C832 1.387 . S
C833 C835 1.387 . S
H834 C841 0.950 . S
C835 C833 1.387 . S
C835 C837 1.390 . S
C835 H839 0.950 . S
H836 C832 0.950 . S
C837 C835 1.390 . S
C837 C838 1.387 . S
C837 H840 0.950 . S
C838 C837 1.387 . S
C838 C841 1.387 . S
H839 C835 0.950 . S
H840 C837 0.950 . S
C841 C832 1.390 . S
C841 H834 0.950 . S
C841 C838 1.387 . S
C842 C843 1.387 . S
C842 H846 0.950 . S
C842 C851 1.390 . S
C843 C842 1.387 . S
C843 C845 1.387 . S
H844 C851 0.950 . S
C845 C843 1.387 . S
C845 C847 1.390 . S
C845 H849 0.950 . S
H846 C842 0.950 . S
C847 C845 1.390 . S
C847 C848 1.387 . S
C847 H850 0.950 . S
C848 C847 1.387 . S
C848 C851 1.387 . S
H849 C845 0.950 . S
H850 C847 0.950 . S
C851 C842 1.390 . S
C851 H844 0.950 . S
C851 C848 1.387 . S
C852 C853 1.387 . S
C852 H856 0.950 . S
C852 C861 1.390 . S
C853 C852 1.387 . S
C853 C855 1.387 . S
H854 C861 0.950 . S
C855 C853 1.387 . S
C855 C857 1.390 . S
C855 H859 0.950 . S
H856 C852 0.950 . S
C857 C855 1.390 . S
C857 C858 1.387 . S
C857 H860 0.950 . S
C858 C857 1.387 . S
C858 C861 1.387 . S
H859 C855 0.950 . S
H860 C857 0.950 . S
C861 C852 1.390 . S
C861 H854 0.950 . S
C861 C858 1.387 . S
C862 C863 1.387 . S
C862 H866 0.950 . S
C862 C871 1.390 . S
C863 C862 1.387 . S
C863 C865 1.387 . S
H864 C871 0.950 . S
C865 C863 1.387 . S
C865 C867 1.390 . S
C865 H869 0.950 . S
H866 C862 0.950 . S
C867 C865 1.390 . S
C867 C868 1.387 . S
C867 H870 0.950 . S
C868 C867 1.387 . S
C868 C871 1.387 . S
H869 C865 0.950 . S
H870 C867 0.950 . S
C871 C862 1.390 . S
C871 H864 0.950 . S
C871 C868 1.387 . S
C872 C873 1.387 . S
C872 H876 0.950 . S
C872 C881 1.390 . S
C873 C872 1.387 . S
C873 C875 1.387 . S
H874 C881 0.950 . S
C875 C873 1.387 . S
C875 C877 1.390 . S
C875 H879 0.950 . S
H876 C872 0.950 . S
C877 C875 1.390 . S
C877 C878 1.387 . S
C877 H880 0.950 . S
C878 C877 1.387 . S
C878 C881 1.387 . S
H879 C875 0.950 . S
H880 C877 0.950 . S
C881 C872 1.390 . S
C881 H874 0.950 . S
C881 C878 1.387 . S
C882 C883 1.387 . S
C882 H886 0.950 . S
C882 C891 1.390 . S
C883 C882 1.387 . S
C883 C885 1.387 . S
H884 C891 0.950 . S
C885 C883 1.387 . S
C885 C887 1.390 . S
C885 H889 0.950 . S
H886 C882 0.950 . S
C887 C885 1.390 . S
C887 C888 1.387 . S
C887 H890 0.950 . S
C888 C887 1.387 . S
C888 C891 1.387 . S
H889 C885 0.950 . S
H890 C887 0.950 . S
C891 C882 1.390 . S
C891 H884 0.950 . S
C891 C888 1.387 . S
C892 C893 1.387 . S
C892 H896 0.950 . S
C892 C901 1.390 . S
C893 C892 1.387 . S
C893 C895 1.387 . S
H894 C901 0.950 . S
C895 C893 1.387 . S
C895 C897 1.390 . S
C895 H899 0.950 . S
H896 C892 0.950 . S
C897 C895 1.390 . S
C897 C898 1.387 . S
C897 H900 0.950 . S
C898 C897 1.387 . S
C898 C901 1.387 . S
H899 C895 0.950 . S
H900 C897 0.950 . S
C901 C892 1.390 . S
C901 H894 0.950 . S
C901 C898 1.387 . S
C902 C903 1.387 . S
C902 H906 0.950 . S
C902 C911 1.390 . S
C903 C902 1.387 . S
C903 C905 1.387 . S
H904 C911 0.950 . S
C905 C903 1.387 . S
C905 C907 1.390 . S
C905 H909 0.950 . S
H906 C902 0.950 . S
C907 C905 1.390 . S
C907 C908 1.387 . S
C907 H910 0.950 . S
C908 C907 1.387 . S
C908 C911 1.387 . S
H909 C905 0.950 . S
H910 C907 0.950 . S
C911 C902 1.390 . S
C911 H904 0.950 . S
C911 C908 1.387 . S
C912 C913 1.387 . S
C912 H916 0.950 . S
C912 C921 1.390 . S
C913 C912 1.387 . S
C913 C915 1.387 . S
H914 C921 0.950 . S
C915 C913 1.387 . S
C915 C917 1.390 . S
C915 H919 0.950 . S
H916 C912 0.950 . S
C917 C915 1.390 . S
C917 C918 1.387 . S
C917 H920 0.950 . S
C918 C917 1.387 . S
C918 C921 1.387 . S
H919 C915 0.950 . S
H920 C917 0.950 . S
C921 C912 1.390 . S
C921 H914 0.950 . S
C921 C918 1.387 . S
C922 C923 1.387 . S
C922 H926 0.950 . S
C922 C931 1.390 . S
C923 C922 1.387 . S
C923 C925 1.387 . S
H924 C931 0.950 . S
C925 C923 1.387 . S
C925 C927 1.390 . S
C925 H929 0.950 . S
H926 C922 0.950 . S
C927 C925 1.390 . S
C927 C928 1.387 . S
C927 H930 0.950 . S
C928 C927 1.387 . S
C928 C931 1.387 . S
H929 C925 0.950 . S
H930 C927 0.950 . S
C931 C922 1.390 . S
C931 H924 0.950 . S
C931 C928 1.387 . S
C932 C933 1.387 . S
C932 H936 0.950 . S
C932 C941 1.390 . S
C933 C932 1.387 . S
C933 C935 1.387 . S
H934 C941 0.950 . S
C935 C933 1.387 . S
C935 C937 1.390 . S
C935 H939 0.950 . S
H936 C932 0.950 . S
C937 C935 1.390 . S
C937 C938 1.387 . S
C937 H940 0.950 . S
C938 C937 1.387 . S
C938 C941 1.387 . S
H939 C935 0.950 . S
H940 C937 0.950 . S
C941 C932 1.390 . S
C941 H934 0.950 . S
C941 C938 1.387 . S
C942 C943 1.387 . S
C942 H946 0.950 . S
C942 C951 1.390 . S
C943 C942 1.387 . S
C943 C945 1.387 . S
H944 C951 0.950 . S
C945 C943 1.387 . S
C945 C947 1.390 . S
C945 H949 0.950 . S
H946 C942 0.950 . S
C947 C945 1.390 . S
C947 C948 1.387 . S
C947 H950 0.950 . S
C948 C947 1.387 . S
C948 C951 1.387 . S
H949 C945 0.950 . S
H950 C947 0.950 . S
C951 C942 1.390 . S
C951 H944 0.950 . S
C951 C948 1.387 . S
C952 C953 1.387 . S
C952 H956 0.950 . S
C952 C961 1.390 . S
C953 C952 1.387 . S
C953 C955 1.387 . S
H954 C961 0.950 . S
C955 C953 1.387 . S
C955 C957 1.390 . S
C955 H959 0.950 . S
H956 C952 0.950 . S
C957 C955 1.390 . S
C957 C958 1.387 . S
C957 H960 0.950 . S
C958 C957 1.387 . S
C958 C961 1.387 . S
H959 C955 0.950 . S
H960 C957 0.950 . S
C961 C952 1.390 . S
C961 H954 0.950 . S
C961 C958 1.387 . S
C962 C963 1.387 . S
C962 H966 0.950 . S
C962 C971 1.390 . S
C963 C962 1.387 . S
C963 C965 1.387 . S
H964 C971 0.950 . S
C965 C963 1.387 . S
C965 C967 1.390 . S
C965 H969 0.950 . S
H966 C962 0.950 . S
C967 C965 1.390 . S
C967 C968 1.387 . S
C967 H970 0.950 . S
C968 C967 1.387 . S
C968 C971 1.387 . S
H969 C965 0.950 . S
H970 C967 0.950 . S
C971 C962 1.390 . S
C971 H964 0.950 . S
C971 C968 1.387 . S
C972 C973 1.387 . S
C972 H976 0.950 . S
C972 C981 1.390 . S
C973 C972 1.387 . S
C973 C975 1.387 . S
H974 C981 0.950 . S
C975 C973 1.387 . S
C975 C977 1.390 . S
C975 H979 0.950 . S
H976 C972 0.950 . S
C977 C975 1.390 . S
C977 C978 1.387 . S
C977 H980 0.950 . S
C978 C977 1.387 . S
C978 C981 1.387 . S
H979 C975 0.950 . S
H980 C977 0.950 . S
C981 C972 1.390 . S
C981 H974 0.950 . S
C981 C978 1.387 . S
C982 C983 1.387 . S
C982 H986 0.950 . S
C982 C991 1.390 . S
C983 C982 1.387 . S
C983 C985 1.387 . S
H984 C991 0.950 . S
C985 C983 1.387 . S
C985 C987 1.390 . S
C985 H989 0.950 . S
H986 C982 0.950 . S
C987 C985 1.390 . S
C987 C988 1.387 . S
C987 H990 0.950 . S
C988 C987 1.387 . S
C988 C991 1.387 . S
H989 C985 0.950 . S
H990 C987 0.950 . S
C991 C982 1.390 . S
C991 H984 0.950 . S
C991 C988 1.387 . S
C992 C993 1.387 . S
C992 H996 0.950 . S
C992 C1001 1.390 . S
C993 C992 1.387 . S
C993 C995 1.387 . S
H994 C1001 0.950 . S
C995 C993 1.387 . S
C995 C997 1.390 . S
C995 H999 0.950 . S
H996 C992 0.950 . S
C997 C995 1.390 . S
C997 C998 1.387 . S
C997 H1000 0.950 . S
C998 C997 1.387 . S
C998 C1001 1.387 . S
H999 C995 0.950 . S
H1000 C997 0.950 . S
C1001 C992 1.390 . S
C1001 H994 0.950 . S
C1001 C998 1.387 . S
C1002 C1003 1.387 . S
C1002 H1006 0.950 . S
C1002 C1011 1.390 . S
C1003 C1002 1.387 . S
C1003 C1005 1.387 . S
H1004 C1011 0.950 . S
C1005 C1003 1.387 . S
C1005 C1007 1.390 . S
C1005 H1009 0.950 . S
H1006 C1002 0.950 . S
C1007 C1005 1.390 . S
C1007 C1008 1.387 . S
C1007 H1010 0.950 . S
C1008 C1007 1.387 . S
C1008 C1011 1.387 . S
H1009 C1005 0.950 . S
H1010 C1007 0.950 . S
C1011 C1002 1.390 . S
C1011 H1004 0.950 . S
C1011 C1008 1.387 . S
C1012 C1013 1.387 . S
C1012 H1016 0.950 . S
C1012 C1021 1.390 . S
C1013 C1012 1.387 . S
C1013 C1015 1.387 . S
H1014 C1021 0.950 . S
C1015 C1013 1.387 . S
C1015 C1017 1.390 . S
C1015 H1019 0.950 . S
H1016 C1012 0.950 . S
C1017 C1015 1.390 . S
C1017 C1018 1.387 . S
C1017 H1020 0.950 . S
C1018 C1017 1.387 . S
C1018 C1021 1.387 . S
H1019 C1015 0.950 . S
H1020 C1017 0.950 . S
C1021 C1012 1.390 . S
C1021 H1014 0.950 . S
C1021 C1018 1.387 . S
C1022 C1023 1.387 . S
C1022 H1026 0.950 . S
C1022 C1031 1.390 . S
C1023 C1022 1.387 . S
C1023 C1025 1.387 . S
H1024 C1031 0.950 . S
C1025 C1023 1.387 . S
C1025 C1027 1.390 . S
C1025 H1029 0.950 . S
H1026 C1022 0.950 . S
C1027 C1025 1.390 . S
C1027 C1028 1.387 . S
C1027 H1030 0.950 . S
C1028 C1027 1.387 . S
C1028 C1031 1.387 . S
H1029 C1025 0.950 . S
H1030 C1027 0.950 . S
C1031 C1022 1.390 . S
C1031 H1024 0.950 . S
C1031 C1028 1.387 . S
C1032 C1033 1.387 . S
C1032 H1036 0.950 . S
C1032 C1041 1.390 . S
C1033 C1032 1.387 . S
C1033 C1035 1.387 . S
H1034 C1041 0.950 . S
C1035 C1033 1.387 . S
C1035 C1037 1.390 . S
C1035 H1039 0.950 . S
H1036 C1032 0.950 . S
C1037 C1035 1.390 . S
C1037 C1038 1.387 . S
C1037 H1040 0.950 . S
C1038 C1037 1.387 . S
C1038 C1041 1.387 . S
H1039 C1035 0.950 . S
H1040 C1037 0.950 . S
C1041 C1032 1.390 . S
C1041 H1034 0.950 . S
C1041 C1038 1.387 . S
C1042 C1043 1.387 . S
C1042 H1046 0.950 . S
C1042 C1051 1.390 . S
C1043 C1042 1.387 . S
C1043 C1045 1.387 . S
H1044 C1051 0.950 . S
C1045 C1043 1.387 . S
C1045 C1047 1.390 . S
C1045 H1049 0.950 . S
H1046 C1042 0.950 . S
C1047 C1045 1.390 . S
C1047 C1048 1.387 . S
C1047 H1050 0.950 . S
C1048 C1047 1.387 . S
C1048 C1051 1.387 . S
H1049 C1045 0.950 . S
H1050 C1047 0.950 . S
C1051 C1042 1.390 . S
C1051 H1044 0.950 . S
C1051 C1048 1.387 . S
C1052 C1053 1.387 . S
C1052 H1056 0.950 . S
C1052 C1061 1.390 . S
C1053 C1052 1.387 . S
C1053 C1055 1.387 . S
H1054 C1061 0.950 . S
C1055 C1053 1.387 . S
C1055 C1057 1.390 . S
C1055 H1059 0.950 . S
H1056 C1052 0.950 . S
C1057 C1055 1.390 . S
C1057 C1058 1.387 . S
C1057 H1060 0.950 . S
C1058 C1057 1.387 . S
C1058 C1061 1.387 . S
H1059 C1055 0.950 . S
H1060 C1057 0.950 . S
C1061 C1052 1.390 . S
C1061 H1054 0.950 . S
C1061 C1058 1.387 . S
C1062 C1063 1.387 . S
C1062 H1066 0.950 . S
C1062 C1071 1.390 . S
C1063 C1062 1.387 . S
C1063 C1065 1.387 . S
H1064 C1071 0.950 . S
C1065 C1063 1.387 . S
C1065 C1067 1.390 . S
C1065 H1069 0.950 . S
H1066 C1062 0.950 . S
C1067 C1065 1.390 . S
C1067 C1068 1.387 . S
C1067 H1070 0.950 . S
C1068 C1067 1.387 . S
C1068 C1071 1.387 . S
H1069 C1065 0.950 . S
H1070 C1067 0.950 . S
C1071 C1062 1.390 . S
C1071 H1064 0.950 . S
C1071 C1068 1.387 . S
C1072 C1073 1.387 . S
C1072 H1076 0.950 . S
C1072 C1081 1.390 . S
C1073 C1072 1.387 . S
C1073 C1075 1.387 . S
H1074 C1081 0.950 . S
C1075 C1073 1.387 . S
C1075 C1077 1.390 . S
C1075 H1079 0.950 . S
H1076 C1072 0.950 . S
C1077 C1075 1.390 . S
C1077 C1078 1.387 . S
C1077 H1080 0.950 . S
C1078 C1077 1.387 . S
C1078 C1081 1.387 . S
H1079 C1075 0.950 . S
H1080 C1077 0.950 . S
C1081 C1072 1.390 . S
C1081 H1074 0.950 . S
C1081 C1078 1.387 . S
C1082 C1083 1.387 . S
C1082 H1086 0.950 . S
C1082 C1091 1.390 . S
C1083 C1082 1.387 . S
C1083 C1085 1.387 . S
H1084 C1091 0.950 . S
C1085 C1083 1.387 . S
C1085 C1087 1.390 . S
C1085 H1089 0.950 . S
H1086 C1082 0.950 . S
C1087 C1085 1.390 . S
C1087 C1088 1.387 . S
C1087 H1090 0.950 . S
C1088 C1087 1.387 . S
C1088 C1091 1.387 . S
H1089 C1085 0.950 . S
H1090 C1087 0.950 . S
C1091 C1082 1.390 . S
C1091 H1084 0.950 . S
C1091 C1088 1.387 . S
C1092 C1093 1.387 . S
C1092 H1096 0.950 . S
C1092 C1101 1.390 . S
C1093 C1092 1.387 . S
C1093 C1095 1.387 . S
H1094 C1101 0.950 . S
C1095 C1093 1.387 . S
C1095 C1097 1.390 . S
C1095 H1099 0.950 . S
H1096 C1092 0.950 . S
C1097 C1095 1.390 . S
C1097 C1098 1.387 . S
C1097 H1100 0.950 . S
C1098 C1097 1.387 . S
C1098 C1101 1.387 . S
H1099 C1095 0.950 . S
H1100 C1097 0.950 . S
C1101 C1092 1.390 . S
C1101 H1094 0.950 . S
C1101 C1098 1.387 . S
C1102 C1103 1.387 . S
C1102 H1106 0.950 . S
C1102 C1111 1.390 . S
C1103 C1102 1.387 . S
C1103 C1105 1.387 . S
H1104 C1111 0.950 . S
C1105 C1103 1.387 . S
C1105 C1107 1.390 . S
C1105 H1109 0.950 . S
H1106 C1102 0.950 . S
C1107 C1105 1.390 . S
C1107 C1108 1.387 . S
C1107 H1110 0.950 . S
C1108 C1107 1.387 . S
C1108 C1111 1.387 . S
H1109 C1105 0.950 . S
H1110 C1107 0.950 . S
C1111 C1102 1.390 . S
C1111 H1104 0.950 . S
C1111 C1108 1.387 . S
C1112 C1113 1.387 . S
C1112 H1116 0.950 . S
C1112 C1121 1.390 . S
C1113 C1112 1.387 . S
C1113 C1115 1.387 . S
H1114 C1121 0.950 . S
C1115 C1113 1.387 . S
C1115 C1117 1.390 . S
C1115 H1119 0.950 . S
H1116 C1112 0.950 . S
C1117 C1115 1.390 . S
C1117 C1118 1.387 . S
C1117 H1120 0.950 . S
C1118 C1117 1.387 . S
C1118 C1121 1.387 . S
H1119 C1115 0.950 . S
H1120 C1117 0.950 . S
C1121 C1112 1.390 . S
C1121 H1114 0.950 . S
C1121 C1118 1.387 . S
C1122 C1123 1.387 . S
C1122 H1126 0.950 . S
C1122 C1131 1.390 . S
C1123 C1122 1.387 . S
C1123 C1125 1.387 . S
H1124 C1131 0.950 . S
C1125 C1123 1.387 . S
C1125 C1127 1.390 . S
C1125 H1129 0.950 . S
H1126 C1122 0.950 . S
C1127 C1125 1.390 . S
C1127 C1128 1.387 . S
C1127 H1130 0.950 . S
C1128 C1127 1.387 . S
C1128 C1131 1.387 . S
H1129 C1125 0.950 . S
H1130 C1127 0.950 . S
C1131 C1122 1.390 . S
C1131 H1124 0.950 . S
C1131 C1128 1.387 . S
C1132 C1133 1.387 . S
C1132 H1136 0.950 . S
C1132 C1141 1.390 . S
C1133 C1132 1.387 . S
C1133 C1135 1.387 . S
H1134 C1141 0.950 . S
C1135 C1133 1.387 . S
C1135 C1137 1.390 . S
C1135 H1139 0.950 . S
H1136 C1132 0.950 . S
C1137 C1135 1.390 . S
C1137 C1138 1.387 . S
C1137 H1140 0.950 . S
C1138 C1137 1.387 . S
C1138 C1141 1.387 . S
H1139 C1135 0.950 . S
H1140 C1137 0.950 . S
C1141 C1132 1.390 . S
C1141 H1134 0.950 . S
C1141 C1138 1.387 . S
C1142 C1143 1.387 . S
C1142 H1146 0.950 . S
C1142 C1151 1.390 . S
C1143 C1142 1.387 . S
C1143 C1145 1.387 . S
H1144 C1151 0.950 . S
C1145 C1143 1.387 . S
C1145 C1147 1.390 . S
C1145 H1149 0.950 . S
H1146 C1142 0.950 . S
C1147 C1145 1.390 . S
C1147 C1148 1.387 . S
C1147 H1150 0.950 . S
C1148 C1147 1.387 . S
C1148 C1151 1.387 . S
H1149 C1145 0.950 . S
H1150 C1147 0.950 . S
C1151 C1142 1.390 . S
C1151 H1144 0.950 . S
C1151 C1148 1.387 . S
C1152 C1153 1.387 . S
C1152 H1156 0.950 . S
C1152 C1161 1.390 . S
C1153 C1152 1.387 . S
C1153 C1155 1.387 . S
H1154 C1161 0.950 . S
C1155 C1153 1.387 . S
C1155 C1157 1.390 . S
C1155 H1159 0.950 . S
H1156 C1152 0.950 . S
C1157 C1155 1.390 . S
C1157 C1158 1.387 . S
C1157 H1160 0.950 . S
C1158 C1157 1.387 . S
C1158 C1161 1.387 . S
H1159 C1155 0.950 . S
H1160 C1157 0.950 . S
C1161 C1152 1.390 . S
C1161 H1154 0.950 . S
C1161 C1158 1.387 . S
C1162 C1163 1.387 . S
C1162 H1166 0.950 . S
C1162 C1171 1.390 . S
C1163 C1162 1.387 . S
C1163 C1165 1.387 . S
H1164 C1171 0.950 . S
C1165 C1163 1.387 . S
C1165 C1167 1.390 . S
C1165 H1169 0.950 . S
H1166 C1162 0.950 . S
C1167 C1165 1.390 . S
C1167 C1168 1.387 . S
C1167 H1170 0.950 . S
C1168 C1167 1.387 . S
C1168 C1171 1.387 . S
H1169 C1165 0.950 . S
H1170 C1167 0.950 . S
C1171 C1162 1.390 . S
C1171 H1164 0.950 . S
C1171 C1168 1.387 . S
C1172 C1173 1.387 1_545 S
C1172 H1176 0.950 . S
C1172 C1181 1.390 . S
C1173 C1172 1.387 1_565 S
C1173 C1175 1.387 . S
H1174 C1181 0.950 . S
C1175 C1173 1.387 . S
C1175 C1177 1.390 . S
C1175 H1179 0.950 . S
H1176 C1172 0.950 . S
C1177 C1175 1.390 . S
C1177 C1178 1.387 . S
C1177 H1180 0.950 . S
C1178 C1177 1.387 . S
C1178 C1181 1.387 1_565 S
H1179 C1175 0.950 . S
H1180 C1177 0.950 . S
C1181 C1172 1.390 . S
C1181 H1174 0.950 . S
C1181 C1178 1.387 1_545 S
C1182 C1183 1.387 . S
C1182 H1186 0.950 . S
C1182 C1191 1.390 1_544 S
C1183 C1182 1.387 . S
C1183 C1185 1.387 . S
H1184 C1191 0.950 . S
C1185 C1183 1.387 . S
C1185 C1187 1.390 1_544 S
C1185 H1189 0.950 . S
H1186 C1182 0.950 . S
C1187 C1185 1.390 1_566 S
C1187 C1188 1.387 . S
C1187 H1190 0.950 . S
C1188 C1187 1.387 . S
C1188 C1191 1.387 . S
H1189 C1185 0.950 . S
H1190 C1187 0.950 . S
C1191 C1182 1.390 1_566 S
C1191 H1184 0.950 . S
C1191 C1188 1.387 . S
C1192 C1193 1.387 . S
C1192 H1196 0.950 . S
C1192 C1201 1.390 . S
C1193 C1192 1.387 . S
C1193 C1195 1.387 . S
H1194 C1201 0.950 . S
C1195 C1193 1.387 . S
C1195 C1197 1.390 . S
C1195 H1199 0.950 . S
H1196 C1192 0.950 . S
C1197 C1195 1.390 . S
C1197 C1198 1.387 . S
C1197 H1200 0.950 . S
C1198 C1197 1.387 . S
C1198 C1201 1.387 . S
H1199 C1195 0.950 . S
H1200 C1197 0.950 . S
C1201 C1192 1.390 . S
C1201 H1194 0.950 . S
C1201 C1198 1.387 . S
C1202 C1203 1.387 . S
C1202 H1206 0.950 . S
C1202 C1211 1.390 1_556 S
C1203 C1202 1.387 . S
C1203 C1205 1.387 . S
H1204 C1211 0.950 . S
C1205 C1203 1.387 . S
C1205 C1207 1.390 1_556 S
C1205 H1209 0.950 . S
H1206 C1202 0.950 . S
C1207 C1205 1.390 1_554 S
C1207 C1208 1.387 . S
C1207 H1210 0.950 . S
C1208 C1207 1.387 . S
C1208 C1211 1.387 . S
H1209 C1205 0.950 . S
H1210 C1207 0.950 . S
C1211 C1202 1.390 1_554 S
C1211 H1204 0.950 . S
C1211 C1208 1.387 . S
C1212 C1213 1.387 1_565 S
C1212 H1216 0.950 . S
C1212 C1221 1.390 . S
C1213 C1212 1.387 1_545 S
C1213 C1215 1.387 . S
H1214 C1221 0.950 . S
C1215 C1213 1.387 . S
C1215 C1217 1.390 . S
C1215 H1219 0.950 . S
H1216 C1212 0.950 . S
C1217 C1215 1.390 . S
C1217 C1218 1.387 . S
C1217 H1220 0.950 . S
C1218 C1217 1.387 . S
C1218 C1221 1.387 1_545 S
H1219 C1215 0.950 . S
H1220 C1217 0.950 . S
C1221 C1212 1.390 . S
C1221 H1214 0.950 . S
C1221 C1218 1.387 1_565 S
C1222 C1223 1.387 . S
C1222 H1226 0.950 . S
C1222 C1231 1.390 1_545 S
C1223 C1222 1.387 . S
C1223 C1225 1.387 . S
H1224 C1231 0.950 . S
C1225 C1223 1.387 . S
C1225 C1227 1.390 1_545 S
C1225 H1229 0.950 . S
H1226 C1222 0.950 . S
C1227 C1225 1.390 1_565 S
C1227 C1228 1.387 . S
C1227 H1230 0.950 . S
C1228 C1227 1.387 . S
C1228 C1231 1.387 . S
H1229 C1225 0.950 . S
H1230 C1227 0.950 . S
C1231 C1222 1.390 1_565 S
C1231 H1224 0.950 . S
C1231 C1228 1.387 . S
C1232 C1233 1.387 . S
C1232 H1236 0.950 . S
C1232 C1241 1.390 . S
C1233 C1232 1.387 . S
C1233 C1235 1.387 . S
H1234 C1241 0.950 . S
C1235 C1233 1.387 . S
C1235 C1237 1.390 . S
C1235 H1239 0.950 . S
H1236 C1232 0.950 . S
C1237 C1235 1.390 . S
C1237 C1238 1.387 . S
C1237 H1240 0.950 . S
C1238 C1237 1.387 . S
C1238 C1241 1.387 . S
H1239 C1235 0.950 . S
H1240 C1237 0.950 . S
C1241 C1232 1.390 . S
C1241 H1234 0.950 . S
C1241 C1238 1.387 . S
C1242 C1243 1.387 . S
C1242 H1246 0.950 . S
C1242 C1251 1.390 1_455 S
C1243 C1242 1.387 . S
C1243 C1245 1.387 . S
H1244 C1251 0.950 . S
C1245 C1243 1.387 . S
C1245 C1247 1.390 1_455 S
C1245 H1249 0.950 . S
H1246 C1242 0.950 . S
C1247 C1245 1.390 1_655 S
C1247 C1248 1.387 . S
C1247 H1250 0.950 . S
C1248 C1247 1.387 . S
C1248 C1251 1.387 . S
H1249 C1245 0.950 . S
H1250 C1247 0.950 . S
C1251 C1242 1.390 1_655 S
C1251 H1244 0.950 . S
C1251 C1248 1.387 . S
C1252 C1253 1.387 . S
C1252 H1256 0.950 . S
C1252 C1261 1.390 . S
C1253 C1252 1.387 . S
C1253 C1255 1.387 1_554 S
H1254 C1261 0.950 . S
C1255 C1253 1.387 1_556 S
C1255 C1257 1.390 . S
C1255 H1259 0.950 . S
H1256 C1252 0.950 . S
C1257 C1255 1.390 . S
C1257 C1258 1.387 1_556 S
C1257 H1260 0.950 . S
C1258 C1257 1.387 1_554 S
C1258 C1261 1.387 . S
H1259 C1255 0.950 . S
H1260 C1257 0.950 . S
C1261 C1252 1.390 . S
C1261 H1254 0.950 . S
C1261 C1258 1.387 . S
C1262 C1263 1.387 . S
C1262 H1266 0.950 . S
C1262 C1271 1.390 1_665 S
C1263 C1262 1.387 . S
C1263 C1265 1.387 . S
H1264 C1271 0.950 . S
C1265 C1263 1.387 . S
C1265 C1267 1.390 1_665 S
C1265 H1269 0.950 . S
H1266 C1262 0.950 . S
C1267 C1265 1.390 1_445 S
C1267 C1268 1.387 . S
C1267 H1270 0.950 . S
C1268 C1267 1.387 . S
C1268 C1271 1.387 . S
H1269 C1265 0.950 . S
H1270 C1267 0.950 . S
C1271 C1262 1.390 1_445 S
C1271 H1264 0.950 . S
C1271 C1268 1.387 . S
C1272 C1273 1.387 . S
C1272 H1276 0.950 . S
C1272 C1281 1.390 . S
C1273 C1272 1.387 . S
C1273 C1275 1.387 . S
H1274 C1281 0.950 . S
C1275 C1273 1.387 . S
C1275 C1277 1.390 . S
C1275 H1279 0.950 . S
H1276 C1272 0.950 . S
C1277 C1275 1.390 . S
C1277 C1278 1.387 . S
C1277 H1280 0.950 . S
C1278 C1277 1.387 . S
C1278 C1281 1.387 . S
H1279 C1275 0.950 . S
H1280 C1277 0.950 . S
C1281 C1272 1.390 . S
C1281 H1274 0.950 . S
C1281 C1278 1.387 . S
C1282 C1283 1.387 . S
C1282 H1286 0.950 . S
C1282 C1291 1.390 . S
C1283 C1282 1.387 . S
C1283 C1285 1.387 . S
H1284 C1291 0.950 . S
C1285 C1283 1.387 . S
C1285 C1287 1.390 . S
C1285 H1289 0.950 . S
H1286 C1282 0.950 . S
C1287 C1285 1.390 . S
C1287 C1288 1.387 . S
C1287 H1290 0.950 . S
C1288 C1287 1.387 . S
C1288 C1291 1.387 . S
H1289 C1285 0.950 . S
H1290 C1287 0.950 . S
C1291 C1282 1.390 . S
C1291 H1284 0.950 . S
C1291 C1288 1.387 . S
C1292 C1293 1.387 1_554 S
C1292 H1296 0.950 . S
C1292 C1301 1.390 . S
C1293 C1292 1.387 1_556 S
C1293 C1295 1.387 . S
H1294 C1301 0.950 . S
C1295 C1293 1.387 . S
C1295 C1297 1.390 . S
C1295 H1299 0.950 . S
H1296 C1292 0.950 . S
C1297 C1295 1.390 . S
C1297 C1298 1.387 . S
C1297 H1300 0.950 . S
C1298 C1297 1.387 . S
C1298 C1301 1.387 1_556 S
H1299 C1295 0.950 . S
H1300 C1297 0.950 . S
C1301 C1292 1.390 . S
C1301 H1294 0.950 . S
C1301 C1298 1.387 1_554 S
C1302 C1303 1.387 . S
C1302 H1306 0.950 . S
C1302 C1311 1.390 1_545 S
C1303 C1302 1.387 . S
C1303 C1305 1.387 . S
H1304 C1311 0.950 . S
C1305 C1303 1.387 . S
C1305 C1307 1.390 1_545 S
C1305 H1309 0.950 . S
H1306 C1302 0.950 . S
C1307 C1305 1.390 1_565 S
C1307 C1308 1.387 . S
C1307 H1310 0.950 . S
C1308 C1307 1.387 . S
C1308 C1311 1.387 . S
H1309 C1305 0.950 . S
H1310 C1307 0.950 . S
C1311 C1302 1.390 1_565 S
C1311 H1304 0.950 . S
C1311 C1308 1.387 . S
C1312 C1313 1.387 . S
C1312 H1316 0.950 . S
C1312 C1321 1.390 . S
C1313 C1312 1.387 . S
C1313 C1315 1.387 . S
H1314 C1321 0.950 . S
C1315 C1313 1.387 . S
C1315 C1317 1.390 . S
C1315 H1319 0.950 . S
H1316 C1312 0.950 . S
C1317 C1315 1.390 . S
C1317 C1318 1.387 . S
C1317 H1320 0.950 . S
C1318 C1317 1.387 . S
C1318 C1321 1.387 . S
H1319 C1315 0.950 . S
H1320 C1317 0.950 . S
C1321 C1312 1.390 . S
C1321 H1314 0.950 . S
C1321 C1318 1.387 . S
C1322 C1323 1.387 . S
C1322 H1326 0.950 . S
C1322 C1331 1.390 . S
C1323 C1322 1.387 . S
C1323 C1325 1.387 1_455 S
H1324 C1331 0.950 . S
C1325 C1323 1.387 1_655 S
C1325 C1327 1.390 . S
C1325 H1329 0.950 . S
H1326 C1322 0.950 . S
C1327 C1325 1.390 . S
C1327 C1328 1.387 1_655 S
C1327 H1330 0.950 . S
C1328 C1327 1.387 1_455 S
C1328 C1331 1.387 . S
H1329 C1325 0.950 . S
H1330 C1327 0.950 . S
C1331 C1322 1.390 . S
C1331 H1324 0.950 . S
C1331 C1328 1.387 . S
C1332 C1333 1.387 . S
C1332 H1336 0.950 . S
C1332 C1341 1.390 . S
C1333 C1332 1.387 . S
C1333 C1335 1.387 . S
H1334 C1341 0.950 . S
C1335 C1333 1.387 . S
C1335 C1337 1.390 . S
C1335 H1339 0.950 . S
H1336 C1332 0.950 . S
C1337 C1335 1.390 . S
C1337 C1338 1.387 . S
C1337 H1340 0.950 . S
C1338 C1337 1.387 . S
C1338 C1341 1.387 . S
H1339 C1335 0.950 . S
H1340 C1337 0.950 . S
C1341 C1332 1.390 . S
C1341 H1334 0.950 . S
C1341 C1338 1.387 . S
C1342 C1343 1.387 1_455 S
C1342 H1346 0.950 . S
C1342 C1351 1.390 . S
C1343 C1342 1.387 1_655 S
C1343 C1345 1.387 . S
H1344 C1351 0.950 . S
C1345 C1343 1.387 . S
C1345 C1347 1.390 . S
C1345 H1349 0.950 . S
H1346 C1342 0.950 . S
C1347 C1345 1.390 . S
C1347 C1348 1.387 . S
C1347 H1350 0.950 . S
C1348 C1347 1.387 . S
C1348 C1351 1.387 1_655 S
H1349 C1345 0.950 . S
H1350 C1347 0.950 . S
C1351 C1342 1.390 . S
C1351 H1344 0.950 . S
C1351 C1348 1.387 1_455 S
C1352 C1353 1.387 . S
C1352 H1356 0.950 . S
C1352 C1361 1.390 1_456 S
C1353 C1352 1.387 . S
C1353 C1355 1.387 . S
H1354 C1361 0.950 . S
C1355 C1353 1.387 . S
C1355 C1357 1.390 1_456 S
C1355 H1359 0.950 . S
H1356 C1352 0.950 . S
C1357 C1355 1.390 1_654 S
C1357 C1358 1.387 . S
C1357 H1360 0.950 . S
C1358 C1357 1.387 . S
C1358 C1361 1.387 . S
H1359 C1355 0.950 . S
H1360 C1357 0.950 . S
C1361 C1352 1.390 1_654 S
C1361 H1354 0.950 . S
C1361 C1358 1.387 . S
C1362 C1363 1.387 . S
C1362 H1366 0.950 . S
C1362 C1371 1.390 . S
C1363 C1362 1.387 . S
C1363 C1365 1.387 . S
H1364 C1371 0.950 . S
C1365 C1363 1.387 . S
C1365 C1367 1.390 . S
C1365 H1369 0.950 . S
H1366 C1362 0.950 . S
C1367 C1365 1.390 . S
C1367 C1368 1.387 . S
C1367 H1370 0.950 . S
C1368 C1367 1.387 . S
C1368 C1371 1.387 . S
H1369 C1365 0.950 . S
H1370 C1367 0.950 . S
C1371 C1362 1.390 . S
C1371 H1364 0.950 . S
C1371 C1368 1.387 . S
C1372 C1373 1.387 . S
C1372 H1376 0.950 . S
C1372 C1381 1.390 1_554 S
C1373 C1372 1.387 . S
C1373 C1375 1.387 . S
H1374 C1381 0.950 . S
C1375 C1373 1.387 . S
C1375 C1377 1.390 1_554 S
C1375 H1379 0.950 . S
H1376 C1372 0.950 . S
C1377 C1375 1.390 1_556 S
C1377 C1378 1.387 . S
C1377 H1380 0.950 . S
C1378 C1377 1.387 . S
C1378 C1381 1.387 . S
H1379 C1375 0.950 . S
H1380 C1377 0.950 . S
C1381 C1372 1.390 1_556 S
C1381 H1374 0.950 . S
C1381 C1378 1.387 . S
C1382 C1383 1.387 1_565 S
C1382 H1386 0.950 . S
C1382 C1391 1.390 . S
C1383 C1382 1.387 1_545 S
C1383 C1385 1.387 . S
H1384 C1391 0.950 . S
C1385 C1383 1.387 . S
C1385 C1387 1.390 . S
C1385 H1389 0.950 . S
H1386 C1382 0.950 . S
C1387 C1385 1.390 . S
C1387 C1388 1.387 . S
C1387 H1390 0.950 . S
C1388 C1387 1.387 . S
C1388 C1391 1.387 1_545 S
H1389 C1385 0.950 . S
H1390 C1387 0.950 . S
C1391 C1382 1.390 . S
C1391 H1384 0.950 . S
C1391 C1388 1.387 1_565 S
C1392 C1393 1.387 . S
C1392 H1396 0.950 . S
C1392 C1401 1.390 1_546 S
C1393 C1392 1.387 . S
C1393 C1395 1.387 . S
H1394 C1401 0.950 . S
C1395 C1393 1.387 . S
C1395 C1397 1.390 1_546 S
C1395 H1399 0.950 . S
H1396 C1392 0.950 . S
C1397 C1395 1.390 1_564 S
C1397 C1398 1.387 . S
C1397 H1400 0.950 . S
C1398 C1397 1.387 . S
C1398 C1401 1.387 . S
H1399 C1395 0.950 . S
H1400 C1397 0.950 . S
C1401 C1392 1.390 1_564 S
C1401 H1394 0.950 . S
C1401 C1398 1.387 . S
C1402 C1403 1.387 . S
C1402 H1406 0.950 . S
C1402 C1411 1.390 . S
C1403 C1402 1.387 . S
C1403 C1405 1.387 . S
H1404 C1411 0.950 . S
C1405 C1403 1.387 . S
C1405 C1407 1.390 . S
C1405 H1409 0.950 . S
H1406 C1402 0.950 . S
C1407 C1405 1.390 . S
C1407 C1408 1.387 . S
C1407 H1410 0.950 . S
C1408 C1407 1.387 . S
C1408 C1411 1.387 . S
H1409 C1405 0.950 . S
H1410 C1407 0.950 . S
C1411 C1402 1.390 . S
C1411 H1404 0.950 . S
C1411 C1408 1.387 . S
C1412 C1413 1.387 . S
C1412 H1416 0.950 . S
C1412 C1421 1.390 . S
C1413 C1412 1.387 . S
C1413 C1415 1.387 . S
H1414 C1421 0.950 . S
C1415 C1413 1.387 . S
C1415 C1417 1.390 . S
C1415 H1419 0.950 . S
H1416 C1412 0.950 . S
C1417 C1415 1.390 . S
C1417 C1418 1.387 . S
C1417 H1420 0.950 . S
C1418 C1417 1.387 . S
C1418 C1421 1.387 . S
H1419 C1415 0.950 . S
H1420 C1417 0.950 . S
C1421 C1412 1.390 . S
C1421 H1414 0.950 . S
C1421 C1418 1.387 . S
C1422 C1423 1.387 1_545 S
C1422 H1426 0.950 . S
C1422 C1431 1.390 . S
C1423 C1422 1.387 1_565 S
C1423 C1425 1.387 . S
H1424 C1431 0.950 . S
C1425 C1423 1.387 . S
C1425 C1427 1.390 . S
C1425 H1429 0.950 . S
H1426 C1422 0.950 . S
C1427 C1425 1.390 . S
C1427 C1428 1.387 . S
C1427 H1430 0.950 . S
C1428 C1427 1.387 . S
C1428 C1431 1.387 1_565 S
H1429 C1425 0.950 . S
H1430 C1427 0.950 . S
C1431 C1422 1.390 . S
C1431 H1424 0.950 . S
C1431 C1428 1.387 1_545 S
C1432 C1433 1.387 . S
C1432 H1436 0.950 . S
C1432 C1441 1.390 1_545 S
C1433 C1432 1.387 . S
C1433 C1435 1.387 . S
H1434 C1441 0.950 . S
C1435 C1433 1.387 . S
C1435 C1437 1.390 1_545 S
C1435 H1439 0.950 . S
H1436 C1432 0.950 . S
C1437 C1435 1.390 1_565 S
C1437 C1438 1.387 . S
C1437 H1440 0.950 . S
C1438 C1437 1.387 . S
C1438 C1441 1.387 . S
H1439 C1435 0.950 . S
H1440 C1437 0.950 . S
C1441 C1432 1.390 1_565 S
C1441 H1434 0.950 . S
C1441 C1438 1.387 . S
C1442 C1443 1.387 . S
C1442 H1446 0.950 . S
C1442 C1451 1.390 . S
C1443 C1442 1.387 . S
C1443 C1445 1.387 . S
H1444 C1451 0.950 . S
C1445 C1443 1.387 . S
C1445 C1447 1.390 . S
C1445 H1449 0.950 . S
H1446 C1442 0.950 . S
C1447 C1445 1.390 . S
C1447 C1448 1.387 . S
C1447 H1450 0.950 . S
C1448 C1447 1.387 . S
C1448 C1451 1.387 . S
H1449 C1445 0.950 . S
H1450 C1447 0.950 . S
C1451 C1442 1.390 . S
C1451 H1444 0.950 . S
C1451 C1448 1.387 . S
C1452 C1453 1.387 . S
C1452 H1456 0.950 . S
C1452 C1461 1.390 1_554 S
C1453 C1452 1.387 . S
C1453 C1455 1.387 . S
H1454 C1461 0.950 . S
C1455 C1453 1.387 . S
C1455 C1457 1.390 1_554 S
C1455 H1459 0.950 . S
H1456 C1452 0.950 . S
C1457 C1455 1.390 1_556 S
C1457 C1458 1.387 . S
C1457 H1460 0.950 . S
C1458 C1457 1.387 . S
C1458 C1461 1.387 . S
H1459 C1455 0.950 . S
H1460 C1457 0.950 . S
C1461 C1452 1.390 1_556 S
C1461 H1454 0.950 . S
C1461 C1458 1.387 . S
C1462 C1463 1.387 . S
C1462 H1466 0.950 . S
C1462 C1471 1.390 . S
C1463 C1462 1.387 . S
C1463 C1465 1.387 1_554 S
H1464 C1471 0.950 . S
C1465 C1463 1.387 1_556 S
C1465 C1467 1.390 . S
C1465 H1469 0.950 . S
H1466 C1462 0.950 . S
C1467 C1465 1.390 . S
C1467 C1468 1.387 1_556 S
C1467 H1470 0.950 . S
C1468 C1467 1.387 1_554 S
C1468 C1471 1.387 . S
H1469 C1465 0.950 . S
H1470 C1467 0.950 . S
C1471 C1462 1.390 . S
C1471 H1464 0.950 . S
C1471 C1468 1.387 . S
C1472 C1473 1.387 . S
C1472 H1476 0.950 . S
C1472 C1481 1.390 . S
C1473 C1472 1.387 . S
C1473 C1475 1.387 . S
H1474 C1481 0.950 . S
C1475 C1473 1.387 . S
C1475 C1477 1.390 . S
C1475 H1479 0.950 . S
H1476 C1472 0.950 . S
C1477 C1475 1.390 . S
C1477 C1478 1.387 . S
C1477 H1480 0.950 . S
C1478 C1477 1.387 . S
C1478 C1481 1.387 . S
H1479 C1475 0.950 . S
H1480 C1477 0.950 . S
C1481 C1472 1.390 . S
C1481 H1474 0.950 . S
C1481 C1478 1.387 . S
C1482 C1483 1.387 . S
C1482 H1486 0.950 . S
C1482 C1491 1.390 . S
C1483 C1482 1.387 . S
C1483 C1485 1.387 1_556 S
H1484 C1491 0.950 . S
C1485 C1483 1.387 1_554 S
C1485 C1487 1.390 . S
C1485 H1489 0.950 . S
H1486 C1482 0.950 . S
C1487 C1485 1.390 . S
C1487 C1488 1.387 1_554 S
C1487 H1490 0.950 . S
C1488 C1487 1.387 1_556 S
C1488 C1491 1.387 . S
H1489 C1485 0.950 . S
H1490 C1487 0.950 . S
C1491 C1482 1.390 . S
C1491 H1484 0.950 . S
C1491 C1488 1.387 . S
C1492 C1493 1.387 . S
C1492 H1496 0.950 . S
C1492 C1501 1.390 . S
C1493 C1492 1.387 . S
C1493 C1495 1.387 . S
H1494 C1501 0.950 . S
C1495 C1493 1.387 . S
C1495 C1497 1.390 . S
C1495 H1499 0.950 . S
H1496 C1492 0.950 . S
C1497 C1495 1.390 . S
C1497 C1498 1.387 . S
C1497 H1500 0.950 . S
C1498 C1497 1.387 . S
C1498 C1501 1.387 . S
H1499 C1495 0.950 . S
H1500 C1497 0.950 . S
C1501 C1492 1.390 . S
C1501 H1494 0.950 . S
C1501 C1498 1.387 . S
C1502 C1503 1.387 . S
C1502 H1506 0.950 . S
C1502 C1511 1.390 . S
C1503 C1502 1.387 . S
C1503 C1505 1.387 . S
H1504 C1511 0.950 . S
C1505 C1503 1.387 . S
C1505 C1507 1.390 . S
C1505 H1509 0.950 . S
H1506 C1502 0.950 . S
C1507 C1505 1.390 . S
C1507 C1508 1.387 . S
C1507 H1510 0.950 . S
C1508 C1507 1.387 . S
C1508 C1511 1.387 . S
H1509 C1505 0.950 . S
H1510 C1507 0.950 . S
C1511 C1502 1.390 . S
C1511 H1504 0.950 . S
C1511 C1508 1.387 . S
C1512 C1513 1.387 . S
C1512 H1516 0.950 . S
C1512 C1521 1.390 . S
C1513 C1512 1.387 . S
C1513 C1515 1.387 1_455 S
H1514 C1521 0.950 . S
C1515 C1513 1.387 1_655 S
C1515 C1517 1.390 . S
C1515 H1519 0.950 . S
H1516 C1512 0.950 . S
C1517 C1515 1.390 . S
C1517 C1518 1.387 1_655 S
C1517 H1520 0.950 . S
C1518 C1517 1.387 1_455 S
C1518 C1521 1.387 . S
H1519 C1515 0.950 . S
H1520 C1517 0.950 . S
C1521 C1512 1.390 . S
C1521 H1514 0.950 . S
C1521 C1518 1.387 . S
C1522 C1523 1.387 . S
C1522 H1526 0.950 . S
C1522 C1531 1.390 1_554 S
C1523 C1522 1.387 . S
C1523 C1525 1.387 . S
H1524 C1531 0.950 . S
C1525 C1523 1.387 . S
C1525 C1527 1.390 1_554 S
C1525 H1529 0.950 . S
H1526 C1522 0.950 . S
C1527 C1525 1.390 1_556 S
C1527 C1528 1.387 . S
C1527 H1530 0.950 . S
C1528 C1527 1.387 . S
C1528 C1531 1.387 . S
H1529 C1525 0.950 . S
H1530 C1527 0.950 . S
C1531 C1522 1.390 1_556 S
C1531 H1524 0.950 . S
C1531 C1528 1.387 . S
C1532 C1533 1.387 1_455 S
C1532 H1536 0.950 . S
C1532 C1541 1.390 . S
C1533 C1532 1.387 1_655 S
C1533 C1535 1.387 . S
H1534 C1541 0.950 . S
C1535 C1533 1.387 . S
C1535 C1537 1.390 . S
C1535 H1539 0.950 . S
H1536 C1532 0.950 . S
C1537 C1535 1.390 . S
C1537 C1538 1.387 . S
C1537 H1540 0.950 . S
C1538 C1537 1.387 . S
C1538 C1541 1.387 1_655 S
H1539 C1535 0.950 . S
H1540 C1537 0.950 . S
C1541 C1532 1.390 . S
C1541 H1534 0.950 . S
C1541 C1538 1.387 1_455 S
C1542 C1543 1.387 . S
C1542 H1546 0.950 . S
C1542 C1551 1.390 1_655 S
C1543 C1542 1.387 . S
C1543 C1545 1.387 . S
H1544 C1551 0.950 . S
C1545 C1543 1.387 . S
C1545 C1547 1.390 1_655 S
C1545 H1549 0.950 . S
H1546 C1542 0.950 . S
C1547 C1545 1.390 1_455 S
C1547 C1548 1.387 . S
C1547 H1550 0.950 . S
C1548 C1547 1.387 . S
C1548 C1551 1.387 . S
H1549 C1545 0.950 . S
H1550 C1547 0.950 . S
C1551 C1542 1.390 1_455 S
C1551 H1544 0.950 . S
C1551 C1548 1.387 . S
C1552 C1553 1.387 . S
C1552 H1556 0.950 . S
C1552 C1561 1.390 . S
C1553 C1552 1.387 . S
C1553 C1555 1.387 . S
H1554 C1561 0.950 . S
C1555 C1553 1.387 . S
C1555 C1557 1.390 . S
C1555 H1559 0.950 . S
H1556 C1552 0.950 . S
C1557 C1555 1.390 . S
C1557 C1558 1.387 . S
C1557 H1560 0.950 . S
C1558 C1557 1.387 . S
C1558 C1561 1.387 . S
H1559 C1555 0.950 . S
H1560 C1557 0.950 . S
C1561 C1552 1.390 . S
C1561 H1554 0.950 . S
C1561 C1558 1.387 . S
C1562 C1563 1.387 . S
C1562 H1566 0.950 . S
C1562 C1571 1.390 . S
C1563 C1562 1.387 . S
C1563 C1565 1.387 . S
H1564 C1571 0.950 . S
C1565 C1563 1.387 . S
C1565 C1567 1.390 . S
C1565 H1569 0.950 . S
H1566 C1562 0.950 . S
C1567 C1565 1.390 . S
C1567 C1568 1.387 . S
C1567 H1570 0.950 . S
C1568 C1567 1.387 . S
C1568 C1571 1.387 . S
H1569 C1565 0.950 . S
H1570 C1567 0.950 . S
C1571 C1562 1.390 . S
C1571 H1564 0.950 . S
C1571 C1568 1.387 . S
C1572 C1573 1.387 . S
C1572 H1576 0.950 . S
C1572 C1581 1.390 . S
C1573 C1572 1.387 . S
C1573 C1575 1.387 . S
H1574 C1581 0.950 . S
C1575 C1573 1.387 . S
C1575 C1577 1.390 . S
C1575 H1579 0.950 . S
H1576 C1572 0.950 . S
C1577 C1575 1.390 . S
C1577 C1578 1.387 . S
C1577 H1580 0.950 . S
C1578 C1577 1.387 . S
C1578 C1581 1.387 . S
H1579 C1575 0.950 . S
H1580 C1577 0.950 . S
C1581 C1572 1.390 . S
C1581 H1574 0.950 . S
C1581 C1578 1.387 . S
C1582 C1583 1.387 . S
C1582 H1586 0.950 . S
C1582 C1591 1.390 1_565 S
C1583 C1582 1.387 . S
C1583 C1585 1.387 . S
H1584 C1591 0.950 . S
C1585 C1583 1.387 . S
C1585 C1587 1.390 1_565 S
C1585 H1589 0.950 . S
H1586 C1582 0.950 . S
C1587 C1585 1.390 1_545 S
C1587 C1588 1.387 . S
C1587 H1590 0.950 . S
C1588 C1587 1.387 . S
C1588 C1591 1.387 . S
H1589 C1585 0.950 . S
H1590 C1587 0.950 . S
C1591 C1582 1.390 1_545 S
C1591 H1584 0.950 . S
C1591 C1588 1.387 . S
C1592 C1593 1.387 . S
C1592 H1596 0.950 . S
C1592 C1601 1.390 1_455 S
C1593 C1592 1.387 . S
C1593 C1595 1.387 . S
H1594 C1601 0.950 . S
C1595 C1593 1.387 . S
C1595 C1597 1.390 1_455 S
C1595 H1599 0.950 . S
H1596 C1592 0.950 . S
C1597 C1595 1.390 1_655 S
C1597 C1598 1.387 . S
C1597 H1600 0.950 . S
C1598 C1597 1.387 . S
C1598 C1601 1.387 . S
H1599 C1595 0.950 . S
H1600 C1597 0.950 . S
C1601 C1592 1.390 1_655 S
C1601 H1594 0.950 . S
C1601 C1598 1.387 . S
C1602 C1603 1.387 . S
C1602 H1606 0.950 . S
C1602 C1611 1.390 1_465 S
C1603 C1602 1.387 . S
C1603 C1605 1.387 . S
H1604 C1611 0.950 . S
C1605 C1603 1.387 . S
C1605 C1607 1.390 1_465 S
C1605 H1609 0.950 . S
H1606 C1602 0.950 . S
C1607 C1605 1.390 1_645 S
C1607 C1608 1.387 . S
C1607 H1610 0.950 . S
C1608 C1607 1.387 . S
C1608 C1611 1.387 . S
H1609 C1605 0.950 . S
H1610 C1607 0.950 . S
C1611 C1602 1.390 1_645 S
C1611 H1604 0.950 . S
C1611 C1608 1.387 . S
C1612 C1613 1.387 . S
C1612 H1616 0.950 . S
C1612 C1621 1.390 1_656 S
C1613 C1612 1.387 . S
C1613 C1615 1.387 . S
H1614 C1621 0.950 . S
C1615 C1613 1.387 . S
C1615 C1617 1.390 1_656 S
C1615 H1619 0.950 . S
H1616 C1612 0.950 . S
C1617 C1615 1.390 1_454 S
C1617 C1618 1.387 . S
C1617 H1620 0.950 . S
C1618 C1617 1.387 . S
C1618 C1621 1.387 . S
H1619 C1615 0.950 . S
H1620 C1617 0.950 . S
C1621 C1612 1.390 1_454 S
C1621 H1614 0.950 . S
C1621 C1618 1.387 . S
C1622 C1623 1.387 . S
C1622 H1626 0.950 . S
C1622 C1631 1.390 1_655 S
C1623 C1622 1.387 . S
C1623 C1625 1.387 . S
H1624 C1631 0.950 . S
C1625 C1623 1.387 . S
C1625 C1627 1.390 1_655 S
C1625 H1629 0.950 . S
H1626 C1622 0.950 . S
C1627 C1625 1.390 1_455 S
C1627 C1628 1.387 . S
C1627 H1630 0.950 . S
C1628 C1627 1.387 . S
C1628 C1631 1.387 . S
H1629 C1625 0.950 . S
H1630 C1627 0.950 . S
C1631 C1622 1.390 1_455 S
C1631 H1624 0.950 . S
C1631 C1628 1.387 . S
C673 C386 1.068 . S
C678 C8 1.068 . S
C683 C23 1.068 . S
C688 C541 1.069 . S
C693 C36 1.071 . S
C698 C358 1.072 . S
C703 C569 1.069 . S
C708 C51 1.068 . S
C713 C401 1.069 . S
C718 C65 1.070 . S
C723 C78 1.071 . S
C728 C316 1.070 . S
C733 C429 1.072 . S
C738 C93 1.071 . S
C743 C106 1.072 . S
C748 C288 1.072 . S
C753 C498 1.068 . S
C758 C107 1.068 . S
C763 C471 1.071 . S
C768 C64 1.069 . S
C773 C79 1.072 . S
C778 C596 1.071 . S
C783 C484 1.068 . S
C788 C92 1.068 . S
C793 C120 1.072 . S
C798 C190 1.071 . S
C803 C205 1.069 . S
C808 C135 1.070 . S
C813 C219 1.070 . S
C818 C148 1.072 . S
C823 C177 1.072 . S
C828 C163 1.071 . S
C833 C191 1.071 . S
C838 C344 1.069 . S
C843 C204 1.072 . S
C848 C555 1.072 . S
C853 C372 1.069 . S
C858 C218 1.068 . S
C863 C387 1.072 . S
C868 C232 1.072 . S
C873 C247 1.072 . S
C878 C415 1.072 . S
C883 C261 1.072 . S
C888 C50 1.072 . S
C893 C274 1.068 . S
C898 C22 1.068 . S
C903 C625 1.071 . S
C908 C303 1.072 . S
C913 C653 1.071 . S
C918 C331 1.070 . S
C923 C345 1.072 . S
C928 C121 1.072 . S
C933 C373 1.072 . S
C938 C149 1.072 . S
C943 C359 1.072 . S
C948 C610 1.071 . S
C953 C470 1.072 . S
C958 C400 1.072 . S
C963 C485 1.068 . S
C968 C428 1.068 . S
C973 C457 1.072 . S
C978 C443 1.071 . S
C983 C246 1.068 . S
C988 C639 1.068 . S
C993 C513 1.072 . S
C998 C330 1.072 . S
C1003 C302 1.068 . S
C1008 C526 1.068 . S
C1013 C666 1.072 . S
C1018 C442 1.071 . S
C1023 C414 1.071 . S
C1028 C638 1.072 . S
C1033 C134 1.068 . S
C1038 C554 1.068 . S
C1043 C162 1.070 . S
C1048 C582 1.071 . S
C1053 C176 1.071 . S
C1058 C583 1.072 . S
C1063 C275 1.069 . S
C1068 C540 1.070 . S
C1073 C260 1.068 . S
C1078 C568 1.070 . S
C1083 C317 1.070 . S
C1088 C597 1.072 . S
C1093 C289 1.071 . S
C1098 C499 1.072 . S
C1103 C624 1.069 . S
C1108 C527 1.071 . S
C1113 C652 1.068 . S
C1118 C512 1.068 . S
C1123 C667 1.068 . S
C1128 C456 1.068 . S
C1133 C611 1.068 . S
C1138 C37 1.068 . S
C1143 C233 1.068 . S
C1148 C9 1.070 . S
C1153 C6 1.601 . S
C1158 C651 1.601 . S
C1163 C21 1.605 . S
C1168 C664 1.605 . S
C1173 C34 1.605 . S
C1178 C623 1.605 . S
C1183 C49 1.601 . S
C1188 C636 1.601 . S
C1193 C63 1.601 . S
C1198 C132 1.601 . S
C1203 C76 1.605 . S
C1208 C147 1.605 . S
C1213 C91 1.605 . S
C1218 C160 1.605 . S
C1223 C104 1.601 . S
C1228 C119 1.601 . S
C1233 C105 1.601 . S
C1238 C553 1.601 . S
C1243 C62 1.601 . S
C1248 C370 1.601 . S
C1253 C77 1.601 . S
C1258 C581 1.601 . S
C1263 C90 1.605 . S
C1268 C342 1.605 . S
C1273 C118 1.605 . S
C1278 C328 1.605 . S
C1283 C133 1.605 . S
C1288 C441 1.605 . S
C1293 C146 1.605 . S
C1298 C300 1.605 . S
C1303 C413 1.605 . S
C1308 C161 1.605 . S
C1313 C175 1.601 . S
C1318 C273 1.601 . S
C1323 C189 1.601 . S
C1328 C231 1.601 . S
C1333 C272 1.605 . S
C1338 C202 1.605 . S
C1343 C609 1.605 . S
C1348 C216 1.605 . S
C1353 C217 1.601 . S
C1358 C230 1.601 . S
C1363 C510 1.601 . S
C1368 C245 1.601 . S
C1373 C174 1.601 . S
C1378 C259 1.601 . S
C1383 C567 1.605 . S
C1388 C286 1.605 . S
C1393 C580 1.605 . S
C1398 C301 1.605 . S
C1403 C314 1.601 . S
C1408 C539 1.601 . S
C1413 C552 1.605 . S
C1418 C329 1.605 . S
C1423 C343 1.605 . S
C1428 C412 1.605 . S
C1433 C427 1.601 . S
C1438 C356 1.601 . S
C1443 C371 1.601 . S
C1448 C440 1.601 . S
C1453 C399 1.605 . S
C1458 C384 1.605 . S
C1463 C385 1.601 . S
C1468 C637 1.601 . S
C1473 C665 1.605 . S
C1478 C357 1.605 . S
C1483 C398 1.601 . S
C1488 C48 1.601 . S
C1493 C20 1.601 . S
C1498 C426 1.601 . S
C1503 C525 1.605 . S
C1508 C455 1.605 . S
C1513 C497 1.601 . S
C1518 C469 1.601 . S
C1523 C244 1.605 . S
C1528 C524 1.605 . S
C1533 C482 1.605 . S
C1538 C595 1.605 . S
C1543 C496 1.605 . S
C1548 C483 1.605 . S
C1553 C203 1.605 . S
C1558 C258 1.605 . S
C1563 C454 1.605 . S
C1568 C511 1.605 . S
C1573 C650 1.601 . S
C1578 C538 1.601 . S
C1583 C566 1.605 . S
C1588 C622 1.605 . S
C1593 C7 1.605 . S
C1598 C315 1.605 . S
C1603 C287 1.605 . S
C1608 C35 1.605 . S
C1613 C468 1.605 . S
C1618 C594 1.605 . S
C1623 C188 1.605 . S
C1628 C608 1.605 . S
