# Generated by pormake.
# Topology umr, (4)-cn, num edge types: 1
# Building blocks:
#     Node 0, Type 0, BuildingBlock: AZAVOO_clean_sbu_0, # of connection points: 4
#     Node 1, Type 0, BuildingBlock: AZAVOO_clean_sbu_0, # of connection points: 4
#     Node 2, Type 0, BuildingBlock: AZAVOO_clean_sbu_0, # of connection points: 4
#     Node 3, Type 0, BuildingBlock: AZAVOO_clean_sbu_0, # of connection points: 4
#     Node 4, Type 0, BuildingBlock: AZAVOO_clean_sbu_0, # of connection points: 4
#     Node 5, Type 0, BuildingBlock: AZAVOO_clean_sbu_0, # of connection points: 4
#     Node 6, Type 0, BuildingBlock: AZAVOO_clean_sbu_0, # of connection points: 4
#     Node 7, Type 0, BuildingBlock: AZAVOO_clean_sbu_0, # of connection points: 4
#     Node 8, Type 0, BuildingBlock: AZAVOO_clean_sbu_0, # of connection points: 4
#     Node 9, Type 0, BuildingBlock: AZAVOO_clean_sbu_0, # of connection points: 4
#     Node 10, Type 0, BuildingBlock: AZAVOO_clean_sbu_0, # of connection points: 4
#     Node 11, Type 0, BuildingBlock: AZAVOO_clean_sbu_0, # of connection points: 4
#     Node 12, Type 0, BuildingBlock: AZAVOO_clean_sbu_0, # of connection points: 4
#     Node 13, Type 0, BuildingBlock: AZAVOO_clean_sbu_0, # of connection points: 4
#     Node 14, Type 0, BuildingBlock: AZAVOO_clean_sbu_0, # of connection points: 4
#     Node 15, Type 0, BuildingBlock: AZAVOO_clean_sbu_0, # of connection points: 4
#     Node 16, Type 0, BuildingBlock: AZAVOO_clean_sbu_0, # of connection points: 4
#     Node 17, Type 0, BuildingBlock: AZAVOO_clean_sbu_0, # of connection points: 4
#     Node 18, Type 0, BuildingBlock: AZAVOO_clean_sbu_0, # of connection points: 4
#     Node 19, Type 0, BuildingBlock: AZAVOO_clean_sbu_0, # of connection points: 4
#     Node 20, Type 0, BuildingBlock: AZAVOO_clean_sbu_0, # of connection points: 4
#     Node 21, Type 0, BuildingBlock: AZAVOO_clean_sbu_0, # of connection points: 4
#     Node 22, Type 0, BuildingBlock: AZAVOO_clean_sbu_0, # of connection points: 4
#     Node 23, Type 0, BuildingBlock: AZAVOO_clean_sbu_0, # of connection points: 4
#     Node 24, Type 0, BuildingBlock: AZAVOO_clean_sbu_0, # of connection points: 4
#     Node 25, Type 0, BuildingBlock: AZAVOO_clean_sbu_0, # of connection points: 4
#     Node 26, Type 0, BuildingBlock: AZAVOO_clean_sbu_0, # of connection points: 4
#     Node 27, Type 0, BuildingBlock: AZAVOO_clean_sbu_0, # of connection points: 4
#     Node 28, Type 0, BuildingBlock: AZAVOO_clean_sbu_0, # of connection points: 4
#     Node 29, Type 0, BuildingBlock: AZAVOO_clean_sbu_0, # of connection points: 4
#     Node 30, Type 0, BuildingBlock: AZAVOO_clean_sbu_0, # of connection points: 4
#     Node 31, Type 0, BuildingBlock: AZAVOO_clean_sbu_0, # of connection points: 4
#     Edge 32, Type (0, 0), BuildingBlock: OJICUG_clean_linker_0, # of connection points: 2
#     Edge 33, Type (0, 0), BuildingBlock: OJICUG_clean_linker_0, # of connection points: 2
#     Edge 34, Type (0, 0), BuildingBlock: OJICUG_clean_linker_0, # of connection points: 2
#     Edge 35, Type (0, 0), BuildingBlock: OJICUG_clean_linker_0, # of connection points: 2
#     Edge 36, Type (0, 0), BuildingBlock: OJICUG_clean_linker_0, # of connection points: 2
#     Edge 37, Type (0, 0), BuildingBlock: OJICUG_clean_linker_0, # of connection points: 2
#     Edge 38, Type (0, 0), BuildingBlock: OJICUG_clean_linker_0, # of connection points: 2
#     Edge 39, Type (0, 0), BuildingBlock: OJICUG_clean_linker_0, # of connection points: 2
#     Edge 40, Type (0, 0), BuildingBlock: OJICUG_clean_linker_0, # of connection points: 2
#     Edge 41, Type (0, 0), BuildingBlock: OJICUG_clean_linker_0, # of connection points: 2
#     Edge 42, Type (0, 0), BuildingBlock: OJICUG_clean_linker_0, # of connection points: 2
#     Edge 43, Type (0, 0), BuildingBlock: OJICUG_clean_linker_0, # of connection points: 2
#     Edge 44, Type (0, 0), BuildingBlock: OJICUG_clean_linker_0, # of connection points: 2
#     Edge 45, Type (0, 0), BuildingBlock: OJICUG_clean_linker_0, # of connection points: 2
#     Edge 46, Type (0, 0), BuildingBlock: OJICUG_clean_linker_0, # of connection points: 2
#     Edge 47, Type (0, 0), BuildingBlock: OJICUG_clean_linker_0, # of connection points: 2
#     Edge 48, Type (0, 0), BuildingBlock: OJICUG_clean_linker_0, # of connection points: 2
#     Edge 49, Type (0, 0), BuildingBlock: OJICUG_clean_linker_0, # of connection points: 2
#     Edge 50, Type (0, 0), BuildingBlock: OJICUG_clean_linker_0, # of connection points: 2
#     Edge 51, Type (0, 0), BuildingBlock: OJICUG_clean_linker_0, # of connection points: 2
#     Edge 52, Type (0, 0), BuildingBlock: OJICUG_clean_linker_0, # of connection points: 2
#     Edge 53, Type (0, 0), BuildingBlock: OJICUG_clean_linker_0, # of connection points: 2
#     Edge 54, Type (0, 0), BuildingBlock: OJICUG_clean_linker_0, # of connection points: 2
#     Edge 55, Type (0, 0), BuildingBlock: OJICUG_clean_linker_0, # of connection points: 2
#     Edge 56, Type (0, 0), BuildingBlock: OJICUG_clean_linker_0, # of connection points: 2
#     Edge 57, Type (0, 0), BuildingBlock: OJICUG_clean_linker_0, # of connection points: 2
#     Edge 58, Type (0, 0), BuildingBlock: OJICUG_clean_linker_0, # of connection points: 2
#     Edge 59, Type (0, 0), BuildingBlock: OJICUG_clean_linker_0, # of connection points: 2
#     Edge 60, Type (0, 0), BuildingBlock: OJICUG_clean_linker_0, # of connection points: 2
#     Edge 61, Type (0, 0), BuildingBlock: OJICUG_clean_linker_0, # of connection points: 2
#     Edge 62, Type (0, 0), BuildingBlock: OJICUG_clean_linker_0, # of connection points: 2
#     Edge 63, Type (0, 0), BuildingBlock: OJICUG_clean_linker_0, # of connection points: 2
#     Edge 64, Type (0, 0), BuildingBlock: OJICUG_clean_linker_0, # of connection points: 2
#     Edge 65, Type (0, 0), BuildingBlock: OJICUG_clean_linker_0, # of connection points: 2
#     Edge 66, Type (0, 0), BuildingBlock: OJICUG_clean_linker_0, # of connection points: 2
#     Edge 67, Type (0, 0), BuildingBlock: OJICUG_clean_linker_0, # of connection points: 2
#     Edge 68, Type (0, 0), BuildingBlock: OJICUG_clean_linker_0, # of connection points: 2
#     Edge 69, Type (0, 0), BuildingBlock: OJICUG_clean_linker_0, # of connection points: 2
#     Edge 70, Type (0, 0), BuildingBlock: OJICUG_clean_linker_0, # of connection points: 2
#     Edge 71, Type (0, 0), BuildingBlock: OJICUG_clean_linker_0, # of connection points: 2
#     Edge 72, Type (0, 0), BuildingBlock: OJICUG_clean_linker_0, # of connection points: 2
#     Edge 73, Type (0, 0), BuildingBlock: OJICUG_clean_linker_0, # of connection points: 2
#     Edge 74, Type (0, 0), BuildingBlock: OJICUG_clean_linker_0, # of connection points: 2
#     Edge 75, Type (0, 0), BuildingBlock: OJICUG_clean_linker_0, # of connection points: 2
#     Edge 76, Type (0, 0), BuildingBlock: OJICUG_clean_linker_0, # of connection points: 2
#     Edge 77, Type (0, 0), BuildingBlock: OJICUG_clean_linker_0, # of connection points: 2
#     Edge 78, Type (0, 0), BuildingBlock: OJICUG_clean_linker_0, # of connection points: 2
#     Edge 79, Type (0, 0), BuildingBlock: OJICUG_clean_linker_0, # of connection points: 2
#     Edge 80, Type (0, 0), BuildingBlock: OJICUG_clean_linker_0, # of connection points: 2
#     Edge 81, Type (0, 0), BuildingBlock: OJICUG_clean_linker_0, # of connection points: 2
#     Edge 82, Type (0, 0), BuildingBlock: OJICUG_clean_linker_0, # of connection points: 2
#     Edge 83, Type (0, 0), BuildingBlock: OJICUG_clean_linker_0, # of connection points: 2
#     Edge 84, Type (0, 0), BuildingBlock: OJICUG_clean_linker_0, # of connection points: 2
#     Edge 85, Type (0, 0), BuildingBlock: OJICUG_clean_linker_0, # of connection points: 2
#     Edge 86, Type (0, 0), BuildingBlock: OJICUG_clean_linker_0, # of connection points: 2
#     Edge 87, Type (0, 0), BuildingBlock: OJICUG_clean_linker_0, # of connection points: 2
#     Edge 88, Type (0, 0), BuildingBlock: OJICUG_clean_linker_0, # of connection points: 2
#     Edge 89, Type (0, 0), BuildingBlock: OJICUG_clean_linker_0, # of connection points: 2
#     Edge 90, Type (0, 0), BuildingBlock: OJICUG_clean_linker_0, # of connection points: 2
#     Edge 91, Type (0, 0), BuildingBlock: OJICUG_clean_linker_0, # of connection points: 2
#     Edge 92, Type (0, 0), BuildingBlock: OJICUG_clean_linker_0, # of connection points: 2
#     Edge 93, Type (0, 0), BuildingBlock: OJICUG_clean_linker_0, # of connection points: 2
#     Edge 94, Type (0, 0), BuildingBlock: OJICUG_clean_linker_0, # of connection points: 2
#     Edge 95, Type (0, 0), BuildingBlock: OJICUG_clean_linker_0, # of connection points: 2
# Relax obj value: 0.167
# Max RMSD: 0.154
# Mean RMSD: 0.154
data_MOF--net-umr--node1-AZAVOO_clean_sbu_0--edge1-OJICUG_clean_linker_0
_symmetry_space_group_name_H-M    P1
_symmetry_Int_Tables_number       1
_symmetry_cell_setting            triclinic
loop_
_symmetry_equiv_pos_as_xyz
'x, y, z'
_cell_length_a     61.726352
_cell_length_b     61.794348
_cell_length_c     18.716379
_cell_angle_alpha  90.109965
_cell_angle_beta   90.181091
_cell_angle_gamma 89.950408
loop_
_atom_site_label
_atom_site_type_symbol
_atom_site_fract_x
_atom_site_fract_y
_atom_site_fract_z
_atom_type_partial_charge
Mg0 Mg 0.161 0.27817 0.07922 0.0
O1 O 0.19613 0.28317 0.05536 0.0
O2 O 0.21431 0.29507 0.15 0.0
Mg3 Mg 0.18925 0.29479 0.24193 0.0
C4 C 0.21348 0.28989 0.08404 0.0
C5 C 0.14749 0.28518 0.908 0.0
O6 O 0.13396 0.30087 0.92395 0.0
O7 O 0.15615 0.31466 0.08317 0.0
O8 O 0.17006 0.32282 0.19087 0.0
O9 O 0.16649 0.24418 0.11477 0.0
O10 O 0.16651 0.27194 0.18879 0.0
C11 C 0.15972 0.32806 0.13411 0.0
C12 C 0.16793 0.25134 0.17972 0.0
O13 O 0.15775 0.27541 0.95743 0.0
Mg14 Mg 0.94868 0.90655 0.359 0.0
O15 O 0.94718 0.94212 0.3355 0.0
O16 O 0.93368 0.96039 0.42752 0.0
Mg17 Mg 0.92879 0.93507 0.51673 0.0
C18 C 0.94098 0.95971 0.36385 0.0
C19 C 0.9743 0.89612 0.22869 0.0
O20 O 0.98542 0.88789 0.28205 0.0
O21 O 0.91198 0.9043 0.34914 0.0
O22 O 0.90147 0.91817 0.45438 0.0
O23 O 0.9818 0.90949 0.40713 0.0
O24 O 0.9514 0.91145 0.46846 0.0
C25 C 0.89734 0.90847 0.39548 0.0
C26 C 0.97222 0.9114 0.46811 0.0
O27 O 0.95521 0.90285 0.24041 0.0
Mg28 Mg 0.33852 0.69803 0.59177 0.0
O29 O 0.30278 0.69725 0.57107 0.0
O30 O 0.28462 0.68424 0.66376 0.0
Mg31 Mg 0.31053 0.67906 0.75146 0.0
C32 C 0.28518 0.69144 0.59996 0.0
C33 C 0.34769 0.72334 0.45946 0.0
O34 O 0.35594 0.73487 0.51187 0.0
O35 O 0.33968 0.66136 0.5823 0.0
O36 O 0.32605 0.65121 0.68808 0.0
O37 O 0.33666 0.73119 0.63951 0.0
O38 O 0.33453 0.70094 0.70159 0.0
C39 C 0.33522 0.64681 0.62859 0.0
C40 C 0.33504 0.72174 0.70078 0.0
O41 O 0.34135 0.70423 0.47248 0.0
Mg42 Mg 0.53383 0.08575 0.84166 0.0
O43 O 0.53663 0.05035 0.8145 0.0
O44 O 0.55048 0.03213 0.90619 0.0
Mg45 Mg 0.55378 0.05678 -0.00154 0.0
C46 C 0.54352 0.03289 0.84197 0.0
C47 C 0.50846 0.09817 0.71246 0.0
O48 O 0.49761 0.10595 0.76703 0.0
O49 O 0.57056 0.08924 0.83487 0.0
O50 O 0.58082 0.07501 0.93998 0.0
O51 O 0.50057 0.08179 0.88778 0.0
O52 O 0.53082 0.08005 0.9504 0.0
C53 C 0.58502 0.08523 0.88232 0.0
C54 C 0.51001 0.07993 0.94922 0.0
O55 O 0.52733 0.09065 0.7233 0.0
Mg56 Mg 0.15541 0.69766 0.41495 0.0
O57 O 0.19067 0.69632 0.44777 0.0
O58 O 0.21041 0.68511 0.35534 0.0
Mg59 Mg 0.18733 0.68165 0.25923 0.0
C60 C 0.20874 0.69099 0.42055 0.0
C61 C 0.13824 0.71901 0.54493 0.0
O62 O 0.12943 0.72935 0.49088 0.0
O63 O 0.15391 0.66086 0.41473 0.0
O64 O 0.16981 0.65282 0.31038 0.0
O65 O 0.15831 0.73203 0.37873 0.0
O66 O 0.16358 0.70353 0.30938 0.0
C67 C 0.15923 0.64731 0.36604 0.0
C68 C 0.1633 0.72423 0.31683 0.0
O69 O 0.14805 0.70134 0.5327 0.0
Mg70 Mg 0.53991 0.90365 0.66172 0.0
O71 O 0.54118 0.93911 0.68815 0.0
O72 O 0.5537 0.95814 0.59662 0.0
Mg73 Mg 0.55809 0.93352 0.50464 0.0
C74 C 0.54693 0.95695 0.66083 0.0
C75 C 0.51528 0.8923 0.79308 0.0
O76 O 0.50401 0.88417 0.73981 0.0
O77 O 0.5768 0.90143 0.66759 0.0
O78 O 0.58592 0.91606 0.56223 0.0
O79 O 0.50635 0.90642 0.61552 0.0
O80 O 0.53638 0.9092 0.55289 0.0
C81 C 0.59081 0.90583 0.6194 0.0
C82 C 0.5156 0.90869 0.55413 0.0
O83 O 0.53425 0.89923 0.78073 0.0
Mg84 Mg 0.3402 0.29252 0.88529 0.0
O85 O 0.30534 0.29384 0.91934 0.0
O86 O 0.28481 0.308 0.83369 0.0
Mg87 Mg 0.30788 0.31406 0.73875 0.0
C88 C 0.28707 0.30015 0.89629 0.0
C89 C 0.35215 0.26595 0.01236 0.0
O90 O 0.35872 0.25428 0.95787 0.0
O91 O 0.34321 0.32893 0.89832 0.0
O92 O 0.32664 0.34069 0.79898 0.0
O93 O 0.33549 0.25984 0.83635 0.0
O94 O 0.33239 0.29056 0.77722 0.0
C95 C 0.33798 0.34411 0.85521 0.0
C96 C 0.33196 0.26975 0.77669 0.0
O97 O 0.34666 0.28545 0.00161 0.0
Mg98 Mg 0.94891 0.08991 0.19278 0.0
O99 O 0.94785 0.05428 0.21711 0.0
O100 O 0.93601 0.03567 0.12307 0.0
Mg101 Mg 0.93189 0.06048 0.03217 0.0
C102 C 0.94234 0.03656 0.18796 0.0
C103 C 0.97317 0.10225 0.32458 0.0
O104 O 0.9838 0.11098 0.27126 0.0
O105 O 0.91185 0.09151 0.19634 0.0
O106 O 0.90362 0.07685 0.08981 0.0
O107 O 0.98266 0.08792 0.14783 0.0
O108 O 0.95281 0.08485 0.08393 0.0
C109 C 0.89816 0.08676 0.14704 0.0
C110 C 0.97356 0.0858 0.08595 0.0
O111 O 0.95459 0.09422 0.3123 0.0
Mg112 Mg 0.83597 0.70022 0.90715 0.0
O113 O 0.80091 0.69664 0.93956 0.0
O114 O 0.78188 0.684 0.84719 0.0
Mg115 Mg 0.80512 0.68201 0.7513 0.0
C116 C 0.7832 0.69009 0.91229 0.0
C117 C 0.85176 0.72275 0.03695 0.0
O118 O 0.85987 0.73354 0.98288 0.0
O119 O 0.84007 0.66364 0.90719 0.0
O120 O 0.82493 0.65453 0.80226 0.0
O121 O 0.83076 0.73427 0.87066 0.0
O122 O 0.82742 0.70544 0.8014 0.0
C123 C 0.8359 0.64979 0.85813 0.0
C124 C 0.82637 0.72612 0.80867 0.0
O125 O 0.84313 0.70448 0.02487 0.0
Mg126 Mg 0.04424 0.093 0.69465 0.0
O127 O 0.04724 0.05747 0.71964 0.0
O128 O 0.06058 0.03946 0.62678 0.0
Mg129 Mg 0.06443 0.06471 0.53712 0.0
C130 C 0.05376 0.04002 0.69101 0.0
C131 C 0.01912 0.10409 0.8251 0.0
O132 O 0.00789 0.11195 0.77138 0.0
O133 O 0.08088 0.09706 0.70311 0.0
O134 O 0.09124 0.08267 0.59872 0.0
O135 O 0.01096 0.08874 0.64772 0.0
O136 O 0.04112 0.08771 0.58513 0.0
C137 C 0.09545 0.09303 0.65637 0.0
C138 C 0.02031 0.08714 0.58624 0.0
O139 O 0.03811 0.09712 0.81331 0.0
Mg140 Mg 0.65638 0.29138 0.40933 0.0
O141 O 0.6913 0.29348 0.44514 0.0
O142 O 0.71154 0.30462 0.35407 0.0
Mg143 Mg 0.68927 0.30659 0.25528 0.0
C144 C 0.70946 0.2991 0.4194 0.0
C145 C 0.63854 0.27078 0.53896 0.0
O146 O 0.62995 0.26028 0.48474 0.0
O147 O 0.65416 0.32815 0.40568 0.0
O148 O 0.67025 0.33536 0.30109 0.0
O149 O 0.65993 0.25677 0.37532 0.0
O150 O 0.66536 0.2849 0.30494 0.0
C151 C 0.65916 0.34121 0.35537 0.0
C152 C 0.66511 0.26425 0.31327 0.0
O153 O 0.64828 0.28845 0.52674 0.0
Mg154 Mg 0.44529 0.90648 0.16015 0.0
O155 O 0.4433 0.94191 0.18742 0.0
O156 O 0.42993 0.96038 0.09551 0.0
Mg157 Mg 0.42645 0.93589 0.00289 0.0
C158 C 0.43677 0.95949 0.15986 0.0
C159 C 0.46958 0.89352 0.29074 0.0
O160 O 0.48049 0.88539 0.23687 0.0
O161 O 0.40852 0.90393 0.16582 0.0
O162 O 0.39883 0.91822 0.06027 0.0
O163 O 0.47882 0.90956 0.11492 0.0
O164 O 0.44877 0.91212 0.0516 0.0
C165 C 0.39427 0.90816 0.11795 0.0
C166 C 0.46958 0.91169 0.05325 0.0
O167 O 0.45097 0.90149 0.27877 0.0
Mg168 Mg 0.83765 0.29171 0.60128 0.0
O169 O 0.8021 0.29328 0.57859 0.0
O170 O 0.78342 0.30656 0.66981 0.0
Mg171 Mg 0.80892 0.31102 0.75953 0.0
C172 C 0.78437 0.2994 0.60595 0.0
C173 C 0.84499 0.266 0.46792 0.0
O174 O 0.85225 0.25371 0.51988 0.0
O175 O 0.83971 0.32844 0.59329 0.0
O176 O 0.82563 0.33855 0.69865 0.0
O177 O 0.83493 0.25855 0.64896 0.0
O178 O 0.83305 0.28886 0.711 0.0
C179 C 0.83537 0.34291 0.64021 0.0
C180 C 0.83326 0.26807 0.71021 0.0
O181 O 0.84044 0.28561 0.48155 0.0
Mg182 Mg 0.43863 0.08871 0.3393 0.0
O183 O 0.43821 0.05322 0.31403 0.0
O184 O 0.42512 0.03416 0.4046 0.0
Mg185 Mg 0.41923 0.05912 0.49482 0.0
C186 C 0.43252 0.03533 0.34114 0.0
C187 C 0.46428 0.09936 0.20904 0.0
O188 O 0.4755 0.10743 0.26249 0.0
O189 O 0.40188 0.09 0.32863 0.0
O190 O 0.39142 0.07539 0.43262 0.0
O191 O 0.47175 0.08642 0.38776 0.0
O192 O 0.4414 0.08359 0.44892 0.0
C193 C 0.38718 0.08518 0.37403 0.0
C194 C 0.46223 0.0841 0.44864 0.0
O195 O 0.44517 0.09274 0.22076 0.0
Mg196 Mg 0.65341 0.69548 0.08229 0.0
O197 O 0.68915 0.69462 0.06144 0.0
O198 O 0.70753 0.68197 0.15465 0.0
Mg199 Mg 0.6818 0.67702 0.24258 0.0
C200 C 0.70683 0.68893 0.09056 0.0
C201 C 0.6436 0.72056 0.94973 0.0
O202 O 0.63524 0.73191 0.00223 0.0
O203 O 0.65218 0.65868 0.07408 0.0
O204 O 0.66615 0.64901 0.18021 0.0
O205 O 0.65521 0.7288 0.12966 0.0
O206 O 0.65759 0.69869 0.19219 0.0
C207 C 0.65677 0.64433 0.12111 0.0
C208 C 0.65689 0.71947 0.19115 0.0
O209 O 0.65032 0.70155 0.96269 0.0
Mg210 Mg 0.04364 0.90995 0.86114 0.0
O211 O 0.04645 0.94546 0.83637 0.0
O212 O 0.06077 0.96304 0.92882 0.0
Mg213 Mg 0.06443 0.93778 0.01893 0.0
C214 C 0.05348 0.96272 0.86495 0.0
C215 C 0.01832 0.89772 0.7319 0.0
O216 O 0.00758 0.88973 0.78625 0.0
O217 O 0.08017 0.90619 0.85244 0.0
O218 O 0.0911 0.91939 0.95834 0.0
O219 O 0.01055 0.91395 0.908 0.0
O220 O 0.04093 0.91513 0.97022 0.0
C221 C 0.09488 0.90953 0.89954 0.0
C222 C 0.02011 0.91549 0.96937 0.0
O223 O 0.03705 0.9055 0.74292 0.0
Mg224 Mg 0.6542 0.79035 0.58186 0.0
O225 O 0.68935 0.79265 0.5505 0.0
O226 O 0.70858 0.80599 0.64098 0.0
Mg227 Mg 0.68514 0.80923 0.73631 0.0
C228 C 0.70715 0.79926 0.57663 0.0
C229 C 0.64026 0.76584 0.4527 0.0
O230 O 0.63257 0.75497 0.50725 0.0
O231 O 0.65102 0.82715 0.57723 0.0
O232 O 0.66632 0.83666 0.68164 0.0
O233 O 0.65821 0.75681 0.62661 0.0
O234 O 0.66113 0.78678 0.68976 0.0
C235 C 0.65551 0.84127 0.62529 0.0
C236 C 0.66096 0.76601 0.68807 0.0
O237 O 0.64803 0.78456 0.46384 0.0
Mg238 Mg 0.4541 0.40284 0.80626 0.0
O239 O 0.45164 0.43816 0.77861 0.0
O240 O 0.44244 0.4571 0.87508 0.0
Mg241 Mg 0.44134 0.43273 0.96843 0.0
C242 C 0.44681 0.45597 0.80854 0.0
C243 C 0.47174 0.38565 0.67214 0.0
O244 O 0.48211 0.37583 0.72425 0.0
O245 O 0.41751 0.40084 0.8139 0.0
O246 O 0.41125 0.41564 0.92139 0.0
O247 O 0.48911 0.40631 0.83477 0.0
O248 O 0.46221 0.40923 0.91179 0.0
C249 C 0.40479 0.40563 0.86537 0.0
C250 C 0.48274 0.40943 0.89973 0.0
O251 O 0.45508 0.39671 0.6874 0.0
Mg252 Mg 0.83068 0.19803 0.1007 0.0
O253 O 0.79586 0.19572 0.0645 0.0
O254 O 0.77599 0.18204 0.1523 0.0
Mg255 Mg 0.79838 0.17931 0.25108 0.0
C256 C 0.77792 0.18886 0.0883 0.0
C257 C 0.84662 0.22195 0.9738 0.0
O258 O 0.85391 0.23275 0.0294 0.0
O259 O 0.83407 0.1613 0.09707 0.0
O260 O 0.81845 0.152 0.20073 0.0
O261 O 0.82646 0.23167 0.14463 0.0
O262 O 0.82269 0.20182 0.20738 0.0
C263 C 0.82974 0.14738 0.1456 0.0
C264 C 0.82316 0.22259 0.20581 0.0
O265 O 0.83827 0.20346 0.98386 0.0
Mg266 Mg 0.04759 0.57959 0.33054 0.0
O267 O 0.05013 0.54407 0.3041 0.0
O268 O 0.06377 0.52612 0.39677 0.0
Mg269 Mg 0.06714 0.55096 0.48839 0.0
C270 C 0.05686 0.52667 0.33247 0.0
C271 C 0.02319 0.59323 0.20123 0.0
O272 O 0.01267 0.60142 0.25587 0.0
O273 O 0.08427 0.58302 0.3243 0.0
O274 O 0.09421 0.56927 0.43031 0.0
O275 O 0.01417 0.5761 0.37614 0.0
O276 O 0.0443 0.57411 0.43922 0.0
C277 C 0.09857 0.57938 0.37255 0.0
C278 C 0.02349 0.57428 0.4378 0.0
O279 O 0.04157 0.58463 0.21219 0.0
Mg280 Mg 0.65054 0.19997 0.90792 0.0
O281 O 0.68614 0.19558 0.92558 0.0
O282 O 0.70453 0.18299 0.8332 0.0
Mg283 Mg 0.67766 0.18033 0.74646 0.0
C284 C 0.70374 0.18933 0.89797 0.0
C285 C 0.66243 0.22147 0.04378 0.0
O286 O 0.6729 0.23104 0.99176 0.0
O287 O 0.64664 0.16334 0.91401 0.0
O288 O 0.66007 0.15333 0.80752 0.0
O289 O 0.6537 0.23322 0.86124 0.0
O290 O 0.65443 0.20306 0.79804 0.0
C291 C 0.65024 0.14901 0.86588 0.0
C292 C 0.6546 0.22385 0.79952 0.0
O293 O 0.64927 0.20628 0.02823 0.0
Mg294 Mg 0.0456 0.39681 0.16091 0.0
O295 O 0.04974 0.43221 0.18558 0.0
O296 O 0.06393 0.44968 0.09326 0.0
Mg297 Mg 0.06706 0.42413 0.00356 0.0
C298 C 0.0569 0.44941 0.15727 0.0
C299 C 0.0195 0.38757 0.2908 0.0
O300 O 0.00797 0.38015 0.237 0.0
O301 O 0.08207 0.39151 0.16984 0.0
O302 O 0.0931 0.4051 0.06504 0.0
O303 O 0.01264 0.40224 0.11326 0.0
O304 O 0.043 0.40206 0.05153 0.0
C305 C 0.09678 0.39476 0.12298 0.0
C306 C 0.02223 0.40344 0.05212 0.0
O307 O 0.03892 0.39329 0.27945 0.0
Mg308 Mg 0.83613 0.79273 0.40665 0.0
O309 O 0.80027 0.7952 0.42237 0.0
O310 O 0.78188 0.80741 0.32914 0.0
Mg311 Mg 0.80889 0.81178 0.24445 0.0
C312 C 0.78259 0.80078 0.39354 0.0
C313 C 0.82528 0.76995 0.54073 0.0
O314 O 0.81513 0.76021 0.488 0.0
O315 O 0.83805 0.82944 0.41542 0.0
O316 O 0.82471 0.83938 0.3086 0.0
O317 O 0.83475 0.75958 0.35867 0.0
O318 O 0.8328 0.78983 0.29642 0.0
C319 C 0.83394 0.84386 0.36816 0.0
C320 C 0.83352 0.76903 0.29725 0.0
O321 O 0.83753 0.78595 0.52645 0.0
Mg322 Mg 0.44936 0.58586 0.63586 0.0
O323 O 0.44897 0.5503 0.65973 0.0
O324 O 0.43581 0.53166 0.56774 0.0
Mg325 Mg 0.43039 0.55674 0.47802 0.0
C326 C 0.44315 0.53255 0.6315 0.0
C327 C 0.47411 0.59752 0.76732 0.0
O328 O 0.48517 0.60596 0.71445 0.0
O329 O 0.4127 0.58694 0.64479 0.0
O330 O 0.40246 0.57289 0.53935 0.0
O331 O 0.48262 0.58384 0.58928 0.0
O332 O 0.45239 0.58095 0.52668 0.0
C333 C 0.39813 0.58239 0.59839 0.0
C334 C 0.4732 0.58159 0.52793 0.0
O335 O 0.45538 0.59002 0.75452 0.0
Mg336 Mg 0.32729 0.19907 0.37893 0.0
O337 O 0.29143 0.20095 0.39676 0.0
O338 O 0.27278 0.18819 0.30429 0.0
Mg339 Mg 0.29886 0.18066 0.21904 0.0
C340 C 0.27353 0.19617 0.36714 0.0
C341 C 0.33936 0.22421 0.5097 0.0
O342 O 0.34826 0.23462 0.45625 0.0
O343 O 0.32665 0.16246 0.39062 0.0
O344 O 0.31351 0.1525 0.28367 0.0
O345 O 0.32776 0.2319 0.3301 0.0
O346 O 0.32397 0.20159 0.26873 0.0
C347 C 0.32232 0.14796 0.34378 0.0
C348 C 0.32598 0.2223 0.26897 0.0
O349 O 0.33074 0.2059 0.49783 0.0
Mg350 Mg 0.54374 0.58222 0.13636 0.0
O351 O 0.54359 0.54662 0.16099 0.0
O352 O 0.55605 0.5278 0.06845 0.0
Mg353 Mg 0.56188 0.55272 0.97858 0.0
C354 C 0.54891 0.52878 0.13228 0.0
C355 C 0.51972 0.59589 0.26638 0.0
O356 O 0.50926 0.60469 0.21255 0.0
O357 O 0.58047 0.58297 0.14491 0.0
O358 O 0.59007 0.56896 0.03896 0.0
O359 O 0.51033 0.58085 0.08965 0.0
O360 O 0.54041 0.57724 0.02736 0.0
C361 C 0.59475 0.57853 0.09767 0.0
C362 C 0.51963 0.57844 0.02834 0.0
O363 O 0.53792 0.58704 0.25469 0.0
Mg364 Mg 0.15189 0.79032 0.91386 0.0
O365 O 0.1878 0.79265 0.9294 0.0
O366 O 0.20615 0.80424 0.83562 0.0
Mg367 Mg 0.179 0.80858 0.7509 0.0
C368 C 0.20549 0.79793 0.90037 0.0
C369 C 0.163 0.76802 0.04891 0.0
O370 O 0.17302 0.75808 -0.00349 0.0
O371 O 0.15032 0.8271 0.92137 0.0
O372 O 0.16386 0.83658 0.81468 0.0
O373 O 0.15311 0.75698 0.86704 0.0
O374 O 0.15507 0.78701 0.80374 0.0
C375 C 0.15476 0.84136 0.87401 0.0
C376 C 0.15435 0.76623 0.80531 0.0
O377 O 0.15067 0.78395 0.03403 0.0
Mg378 Mg 0.95067 0.40412 0.65908 0.0
O379 O 0.94972 0.4397 0.68429 0.0
O380 O 0.93656 0.45812 0.59194 0.0
Mg381 Mg 0.93186 0.43322 0.50109 0.0
C382 C 0.94365 0.45734 0.656 0.0
C383 C 0.97532 0.39106 0.78888 0.0
O384 O 0.98575 0.38248 0.73472 0.0
O385 O 0.9139 0.40254 0.66669 0.0
O386 O 0.90407 0.41655 0.56086 0.0
O387 O 0.98402 0.40624 0.61255 0.0
O388 O 0.95383 0.40917 0.55008 0.0
C389 C 0.89953 0.40688 0.61931 0.0
C390 C 0.97463 0.40835 0.55113 0.0
O391 O 0.95688 0.39951 0.77762 0.0
Mg392 Mg 0.33428 0.79231 0.09116 0.0
O393 O 0.29909 0.79291 0.0589 0.0
O394 O 0.27937 0.80592 0.14845 0.0
Mg395 Mg 0.30268 0.81061 0.24395 0.0
C396 C 0.28104 0.79891 0.08451 0.0
C397 C 0.34963 0.7683 0.96314 0.0
O398 O 0.35766 0.75774 0.01803 0.0
O399 O 0.3357 0.82905 0.08442 0.0
O400 O 0.3202 0.83863 0.18809 0.0
O401 O 0.33173 0.75884 0.13649 0.0
O402 O 0.32751 0.78883 0.1989 0.0
C403 C 0.33067 0.84329 0.1313 0.0
C404 C 0.32852 0.76806 0.19762 0.0
O405 O 0.3409 0.7866 0.97388 0.0
Mg406 Mg 0.95284 0.58726 0.82799 0.0
O407 O 0.95042 0.55171 0.80433 0.0
O408 O 0.93736 0.5336 0.89708 0.0
Mg409 Mg 0.93332 0.55901 0.98668 0.0
C410 C 0.94418 0.53421 0.83285 0.0
C411 C 0.97836 0.5964 0.6965 0.0
O412 O 0.9899 0.60438 0.74938 0.0
O413 O 0.91607 0.59048 0.82028 0.0
O414 O 0.90613 0.57634 0.92553 0.0
O415 O 0.98615 0.58359 0.87534 0.0
O416 O 0.95589 0.58233 0.9374 0.0
C417 C 0.90169 0.58636 0.86757 0.0
C418 C 0.97669 0.58196 0.93658 0.0
O419 O 0.95903 0.59053 0.70885 0.0
Mg420 Mg 0.14393 0.20752 0.56082 0.0
O421 O 0.17825 0.20795 0.51498 0.0
O422 O 0.19965 0.20235 0.61003 0.0
Mg423 Mg 0.18055 0.20365 0.71522 0.0
C424 C 0.19692 0.20476 0.54269 0.0
C425 C 0.13018 0.19734 0.38596 0.0
O426 O 0.11567 0.18615 0.35009 0.0
O427 O 0.1477 0.17179 0.58655 0.0
O428 O 0.16451 0.17074 0.69262 0.0
O429 O 0.14178 0.24417 0.58036 0.0
O430 O 0.15514 0.22046 0.65547 0.0
C431 C 0.15427 0.16152 0.64162 0.0
C432 C 0.1504 0.24017 0.6421 0.0
O433 O 0.12884 0.19748 0.4538 0.0
Mg434 Mg 0.54223 0.39795 0.30462 0.0
O435 O 0.54118 0.43372 0.27789 0.0
O436 O 0.55305 0.45265 0.37126 0.0
Mg437 Mg 0.55819 0.42852 0.46332 0.0
C438 C 0.54632 0.45162 0.30681 0.0
C439 C 0.54263 0.40255 0.13501 0.0
O440 O 0.55903 0.41586 0.14314 0.0
O441 O 0.57921 0.39815 0.29943 0.0
O442 O 0.58702 0.41295 0.406 0.0
O443 O 0.5085 0.39806 0.34818 0.0
O444 O 0.5381 0.40342 0.41235 0.0
C445 C 0.59277 0.40327 0.34863 0.0
C446 C 0.51742 0.40124 0.40998 0.0
O447 O 0.53605 0.39144 0.18764 0.0
C448 C 0.27129 0.29614 0.01888 0.0
C449 C 0.2682 0.29819 0.9445 0.0
H450 H 0.25646 0.29219 0.12165 0.0
C451 C 0.24706 0.2978 0.91703 0.0
H452 H 0.28743 0.29647 0.0418 0.0
C453 C 0.22943 0.29498 0.96266 0.0
C454 C 0.23249 0.29289 0.03702 0.0
H455 H 0.24414 0.29926 0.86014 0.0
H456 H 0.21332 0.29459 0.9395 0.0
C457 C 0.2536 0.29373 0.06476 0.0
C458 C 0.94229 0.97773 0.24437 0.0
C459 C 0.94152 0.97948 0.31941 0.0
H460 H 0.94292 0.99432 0.14394 0.0
C461 C 0.94119 0.00012 0.35065 0.0
H462 H 0.94246 0.96202 0.21852 0.0
C463 C 0.94179 0.01861 0.30777 0.0
C464 C 0.94232 0.01684 0.2327 0.0
H465 H 0.94065 0.00199 0.40818 0.0
H466 H 0.94151 0.03432 0.33355 0.0
C467 C 0.94248 -0.0038 0.20147 0.0
C468 C 0.24894 0.69222 0.43658 0.0
C469 C 0.22821 0.69135 0.46678 0.0
H470 H 0.28304 0.69323 0.45492 0.0
C471 C 0.22623 0.69078 0.54175 0.0
H472 H 0.25101 0.69277 0.37915 0.0
C473 C 0.24465 0.69077 0.58552 0.0
C474 C 0.26538 0.69175 0.55516 0.0
H475 H 0.21043 0.69003 0.56664 0.0
H476 H 0.24267 0.69011 0.64296 0.0
C477 C 0.26729 0.6926 0.48022 0.0
C478 C 0.54429 0.01551 0.721 0.0
C479 C 0.54435 0.01338 0.79598 0.0
H480 H 0.5454 -0.00057 0.61943 0.0
C481 C 0.54542 0.99261 0.82582 0.0
H482 H 0.54363 0.03133 0.69626 0.0
C483 C 0.54613 0.97436 0.78168 0.0
C484 C 0.5462 0.97648 0.70671 0.0
H485 H 0.54548 0.99045 0.88324 0.0
H486 H 0.54683 0.95854 0.80644 0.0
C487 C 0.54542 -0.00273 0.67685 0.0
C488 C 0.72462 0.68946 0.97094 0.0
C489 C 0.72658 0.68925 0.04595 0.0
H490 H 0.74087 0.6896 0.8701 0.0
C491 C 0.74735 0.68912 0.07668 0.0
H492 H 0.70884 0.68941 0.94541 0.0
C493 C 0.76575 0.6895 0.03318 0.0
C494 C 0.76373 0.68959 0.95815 0.0
H495 H 0.74937 0.68895 0.13417 0.0
H496 H 0.78158 0.68953 0.05837 0.0
C497 C 0.74297 0.68945 0.92758 0.0
C498 C 0.05355 0.98102 0.74578 0.0
C499 C 0.05377 0.98258 0.8209 0.0
H500 H 0.0537 -0.00212 0.64578 0.0
C501 C 0.0542 0.00315 0.85271 0.0
H502 H 0.05336 0.96537 0.71957 0.0
C503 C 0.05405 0.02175 0.81031 0.0
C504 C 0.05391 0.02018 0.73519 0.0
H505 H 0.05434 0.00487 0.91032 0.0
H506 H 0.05423 0.0374 0.83649 0.0
C507 C 0.05384 -0.00038 0.70338 0.0
C508 C 0.74953 0.2987 0.43921 0.0
C509 C 0.72854 0.29931 0.46745 0.0
H510 H 0.78347 0.29798 0.46076 0.0
C511 C 0.72591 0.29997 0.54221 0.0
H512 H 0.75211 0.2981 0.38201 0.0
C513 C 0.74396 0.30018 0.58773 0.0
C514 C 0.76495 0.29931 0.55933 0.0
H515 H 0.70989 0.30054 0.56562 0.0
H516 H 0.74148 0.3008 0.64496 0.0
C517 C 0.7675 0.29852 0.48457 0.0
C518 C 0.43525 -0.00025 0.17625 0.0
C519 C 0.43603 0.97896 0.206 0.0
H520 H 0.4338 0.0338 0.19571 0.0
C521 C 0.4357 0.97679 0.28096 0.0
H522 H 0.43549 0.00195 0.11885 0.0
C523 C 0.43437 0.99501 0.32517 0.0
C524 C 0.43377 0.01581 0.29539 0.0
H525 H 0.43614 0.96094 0.30562 0.0
H526 H 0.43401 0.99283 0.38257 0.0
C527 C 0.43434 0.01797 0.22045 0.0
C528 C 0.7473 0.80023 0.5587 0.0
C529 C 0.72639 0.79968 0.52953 0.0
H530 H 0.78129 0.80078 0.5387 0.0
C531 C 0.72394 0.79964 0.45455 0.0
H532 H 0.74974 0.80023 0.61605 0.0
C533 C 0.74208 0.80028 0.40977 0.0
C534 C 0.763 0.80055 0.43914 0.0
H535 H 0.70797 0.79934 0.43037 0.0
H536 H 0.73973 0.8003 0.3524 0.0
C537 C 0.76538 0.80046 0.51411 0.0
C538 C 0.44425 0.47372 0.68858 0.0
C539 C 0.44585 0.4756 0.76348 0.0
H540 H 0.44192 0.49017 0.58808 0.0
C541 C 0.44655 0.4963 0.79425 0.0
H542 H 0.44357 0.45797 0.66313 0.0
C543 C 0.44588 0.5147 0.75108 0.0
C544 C 0.44415 0.51284 0.67621 0.0
H545 H 0.44783 0.49829 0.85162 0.0
H546 H 0.4465 0.53043 0.77665 0.0
C547 C 0.44324 0.49215 0.64544 0.0
C548 C 0.72015 0.18815 0.01999 0.0
C549 C 0.72303 0.18861 0.94528 0.0
H550 H 0.73507 0.18763 0.12337 0.0
C551 C 0.74415 0.18878 0.91794 0.0
H552 H 0.70407 0.18788 0.04302 0.0
C553 C 0.76199 0.18896 0.9645 0.0
C554 C 0.75903 0.18854 0.03921 0.0
H555 H 0.74689 0.18917 0.86082 0.0
H556 H 0.77812 0.18931 0.94191 0.0
C557 C 0.73791 0.18793 0.0663 0.0
C558 C 0.05766 0.48984 0.17011 0.0
C559 C 0.05737 0.46927 0.2016 0.0
H560 H 0.05741 0.5241 0.1869 0.0
C561 C 0.0572 0.46769 0.27669 0.0
H562 H 0.05774 0.49158 0.11253 0.0
C563 C 0.05734 0.48627 0.31938 0.0
C564 C 0.05721 0.50685 0.28791 0.0
H565 H 0.0571 0.45203 0.30266 0.0
H566 H 0.05721 0.48452 0.37695 0.0
C567 C 0.05736 0.50844 0.21281 0.0
C568 C 0.23275 0.19744 0.37918 0.0
C569 C 0.25353 0.19912 0.4098 0.0
H570 H 0.19839 0.19823 0.39702 0.0
C571 C 0.25531 0.2034 0.48345 0.0
H572 H 0.23083 0.19426 0.32264 0.0
C573 C 0.23694 0.20545 0.52582 0.0
C574 C 0.21617 0.20353 0.4958 0.0
H575 H 0.27101 0.20482 0.50917 0.0
H576 H 0.23907 0.20849 0.5824 0.0
C577 C 0.21422 0.19979 0.42178 0.0
C578 C 0.54416 0.46998 0.18739 0.0
C579 C 0.54579 0.47147 0.26238 0.0
H580 H 0.5443 0.48684 0.08727 0.0
C581 C 0.54786 0.492 0.29386 0.0
H582 H 0.54237 0.45447 0.16124 0.0
C583 C 0.54851 0.51056 0.25139 0.0
C584 C 0.54753 0.50899 0.17639 0.0
H585 H 0.54908 0.49375 0.35132 0.0
H586 H 0.55024 0.52614 0.2774 0.0
C587 C 0.5453 0.48852 0.1448 0.0
C588 C 0.24088 0.79835 0.06603 0.0
C589 C 0.26179 0.79839 0.03715 0.0
H590 H 0.20689 0.79792 0.04561 0.0
C591 C 0.26419 0.79815 0.96222 0.0
H592 H 0.23848 0.79847 0.12335 0.0
C593 C 0.24602 0.79815 0.91718 0.0
C594 C 0.22511 0.79796 0.94625 0.0
H595 H 0.28014 0.79828 0.93827 0.0
H596 H 0.24834 0.79814 0.85984 0.0
C597 C 0.22278 0.79795 0.0212 0.0
C598 C 0.9439 0.49771 0.66988 0.0
C599 C 0.94396 0.47707 0.70088 0.0
H600 H 0.94421 0.53189 0.68737 0.0
C601 C 0.94408 0.47532 0.77596 0.0
H602 H 0.94383 0.49958 0.61235 0.0
C603 C 0.94395 0.49381 0.8191 0.0
C604 C 0.94413 0.51444 0.78808 0.0
H605 H 0.94399 0.45961 0.80156 0.0
H606 H 0.94394 0.49194 0.87663 0.0
C607 C 0.94419 0.51619 0.71301 0.0
C608 C 0.16807 0.2644 0.81616 0.0
C609 C 0.15026 0.2776 0.83327 0.0
H610 H 0.18254 0.243 0.74029 0.0
C611 C 0.13463 0.28178 0.7801 0.0
H612 H 0.1807 0.26126 0.85513 0.0
C613 C 0.13579 0.27125 0.71355 0.0
C614 C 0.15259 0.25648 0.69951 0.0
H615 H 0.12082 0.29203 0.79145 0.0
H616 H 0.12266 0.27331 0.67564 0.0
C617 C 0.16921 0.254 0.75012 0.0
C618 C 0.98515 0.91278 0.03711 0.0
C619 C 0.00794 0.91323 0.03662 0.0
H620 H 0.95645 0.90692 0.09874 0.0
C621 C 0.01928 0.90847 0.09977 0.0
H622 H 0.97599 0.91625 0.98901 0.0
C623 C 0.00822 0.90252 0.16126 0.0
C624 C 0.9855 0.9016 0.16168 0.0
H625 H 0.03683 0.90853 0.10125 0.0
H626 H 0.01757 0.89873 0.20869 0.0
C627 C 0.97399 0.90722 0.0995 0.0
C628 C 0.33912 0.75666 0.39156 0.0
C629 C 0.34182 0.73411 0.39192 0.0
H630 H 0.33188 0.78485 0.33084 0.0
C631 C 0.33791 0.72235 0.32888 0.0
H632 H 0.34153 0.76615 0.43968 0.0
C633 C 0.33248 0.73321 0.26557 0.0
C634 C 0.33041 0.75589 0.2651 0.0
H635 H 0.33959 0.70491 0.32811 0.0
H636 H 0.33047 0.72395 0.21682 0.0
C637 C 0.33327 0.76738 0.3292 0.0
C638 C 0.50848 0.08928 0.58126 0.0
C639 C 0.49713 0.09433 0.64409 0.0
H640 H 0.50627 0.08197 0.46928 0.0
C641 C 0.47438 0.09445 0.64271 0.0
H642 H 0.52603 0.08885 0.58108 0.0
C643 C 0.46317 0.08992 0.57987 0.0
C644 C 0.47441 0.08556 0.51639 0.0
H645 H 0.46512 0.0979 0.69048 0.0
H646 H 0.44563 0.09053 0.58073 0.0
C647 C 0.49719 0.08516 0.5176 0.0
C648 C 0.14488 0.76466 0.67657 0.0
C649 C 0.15161 0.75381 0.7386 0.0
H650 H 0.13468 0.76211 0.56807 0.0
C651 C 0.15344 0.73114 0.73741 0.0
H652 H 0.14304 0.78209 0.67596 0.0
C653 C 0.14876 0.71957 0.67478 0.0
C654 C 0.14169 0.7305 0.61316 0.0
H655 H 0.15841 0.72237 0.78477 0.0
H656 H 0.1506 0.70214 0.67461 0.0
C657 C 0.13976 0.75314 0.6149 0.0
C658 C 0.47051 0.90519 0.92249 0.0
C659 C 0.48187 0.90934 0.98615 0.0
H660 H 0.47212 0.89597 0.81297 0.0
C661 C 0.50464 0.90826 0.98593 0.0
H662 H 0.45298 0.90574 0.92071 0.0
C663 C 0.51575 0.90275 0.92321 0.0
C664 C 0.50419 0.89775 0.86049 0.0
H665 H 0.51381 0.91124 0.03439 0.0
H666 H 0.53329 0.90199 0.9241 0.0
C667 C 0.48151 0.89926 0.86076 0.0
C668 C 0.33997 0.26712 0.13999 0.0
C669 C 0.34584 0.25513 0.07919 0.0
H670 H 0.32874 0.26609 0.24823 0.0
C671 C 0.34371 0.23251 0.08018 0.0
H672 H 0.34119 0.28461 0.1403 0.0
C673 C 0.33599 0.22205 0.1407 0.0
C674 C 0.33063 0.23391 0.20217 0.0
H675 H 0.34772 0.22281 0.0338 0.0
H676 H 0.33489 0.20455 0.13987 0.0
C677 C 0.33259 0.25657 0.2013 0.0
C678 C 0.01884 0.09346 0.45537 0.0
C679 C 0.00786 0.08859 0.51887 0.0
H680 H 0.01651 0.10215 0.34556 0.0
C681 C 0.98507 0.08784 0.51815 0.0
H682 H 0.03637 0.09433 0.454 0.0
C683 C 0.97355 0.09222 0.45506 0.0
C684 C 0.98466 0.09788 0.39239 0.0
H685 H 0.97617 0.08426 0.56647 0.0
H686 H 0.95601 0.09156 0.45562 0.0
C687 C 0.0074 0.09826 0.39323 0.0
C688 C 0.84094 0.72282 0.16626 0.0
C689 C 0.84766 0.73407 0.10502 0.0
H690 H 0.83102 0.72513 0.27587 0.0
C691 C 0.8486 0.75676 0.10697 0.0
H692 H 0.83984 0.70532 0.16592 0.0
C693 C 0.84292 0.76802 0.16854 0.0
C694 C 0.83659 0.75686 0.23027 0.0
H695 H 0.85338 0.76597 0.06041 0.0
H696 H 0.84406 0.78551 0.16816 0.0
C697 C 0.83567 0.73413 0.22876 0.0
C698 C 0.00861 0.08923 0.01866 0.0
C699 C 0.98585 0.08818 0.01898 0.0
H700 H 0.03721 0.09511 0.95638 0.0
C701 C 0.97445 0.09214 0.95531 0.0
H702 H 0.0178 0.0864 0.06714 0.0
C703 C 0.98539 0.09776 0.89331 0.0
C704 C 0.00807 0.09912 0.89281 0.0
H705 H 0.95691 0.09163 0.95363 0.0
H706 H 0.97597 0.10086 0.84546 0.0
C707 C 0.01968 0.09442 0.95566 0.0
C708 C 0.64002 0.23677 0.60911 0.0
C709 C 0.64201 0.25939 0.60726 0.0
H710 H 0.64327 0.20789 0.67014 0.0
C711 C 0.64922 0.27037 0.66876 0.0
H712 H 0.63485 0.22775 0.56241 0.0
C713 C 0.65395 0.25887 0.73138 0.0
C714 C 0.65203 0.2362 0.7327 0.0
H715 H 0.65113 0.28779 0.6685 0.0
H716 H 0.659 0.26767 0.77866 0.0
C717 C 0.64519 0.22531 0.67073 0.0
C718 C 0.50349 0.89786 0.36051 0.0
C719 C 0.48077 0.8976 0.35915 0.0
H720 H 0.53215 0.90241 0.42218 0.0
C721 C 0.46931 0.90257 0.42189 0.0
H722 H 0.51282 0.89451 0.31281 0.0
C723 C 0.48053 0.90698 0.48554 0.0
C724 C 0.50331 0.90698 0.48666 0.0
H725 H 0.45177 0.90271 0.42198 0.0
H726 H 0.47141 0.91007 0.53386 0.0
C727 C 0.51461 0.90271 0.42319 0.0
C728 C 0.82633 0.22338 0.33788 0.0
C729 C 0.82504 0.23486 0.27335 0.0
H730 H 0.83419 0.22413 0.44871 0.0
C731 C 0.82913 0.25727 0.27374 0.0
H732 H 0.82328 0.20613 0.33975 0.0
C733 C 0.83531 0.26774 0.33719 0.0
C734 C 0.83793 0.25581 0.40047 0.0
H735 H 0.82835 0.26652 0.22472 0.0
H736 H 0.83875 0.28492 0.33624 0.0
C737 C 0.83291 0.23366 0.40036 0.0
C738 C 0.46389 0.08858 0.07935 0.0
C739 C 0.47543 0.09379 0.14188 0.0
H740 H 0.46584 0.07989 0.96841 0.0
C741 C 0.49813 0.09242 0.14164 0.0
H742 H 0.44635 0.08923 0.07844 0.0
C743 C 0.50914 0.08645 0.07999 0.0
C744 C 0.49778 0.08213 0.01646 0.0
H745 H 0.5075 0.09588 0.18934 0.0
H746 H 0.52669 0.08605 0.08167 0.0
C747 C 0.47501 0.08301 0.01677 0.0
C748 C 0.65305 0.7199 0.81889 0.0
C749 C 0.64908 0.73149 0.88218 0.0
H750 H 0.66006 0.72179 0.70669 0.0
C751 C 0.65128 0.75409 0.88203 0.0
H752 H 0.65174 0.70242 0.81791 0.0
C753 C 0.65667 0.76501 0.81972 0.0
C754 C 0.65957 0.75367 0.75539 0.0
H755 H 0.64882 0.76348 0.9303 0.0
H756 H 0.65768 0.7825 0.82163 0.0
C757 C 0.65802 0.73095 0.75561 0.0
C758 C 0.9731 0.90544 0.59906 0.0
C759 C 0.98436 0.91002 0.53585 0.0
H760 H 0.97503 0.89738 0.70948 0.0
C761 C 0.00712 0.91072 0.5373 0.0
H762 H 0.95557 0.9046 0.59972 0.0
C763 C 0.01839 0.90668 0.60099 0.0
C764 C 0.00702 0.90143 0.66354 0.0
H765 H 0.01621 0.91408 0.48916 0.0
H766 H 0.03592 0.90734 0.60106 0.0
C767 C 0.98429 0.90099 0.66191 0.0
C768 C 0.65005 0.7658 0.32232 0.0
C769 C 0.64431 0.75451 0.38457 0.0
H770 H 0.65867 0.76351 0.21146 0.0
C771 C 0.64401 0.73179 0.38322 0.0
H772 H 0.65064 0.78332 0.32214 0.0
C773 C 0.64923 0.72056 0.32115 0.0
C774 C 0.65445 0.73174 0.25833 0.0
H775 H 0.64001 0.72256 0.43051 0.0
H776 H 0.64854 0.70304 0.32208 0.0
C777 C 0.65486 0.75449 0.25935 0.0
C778 C 0.50536 0.38747 0.6009 0.0
C779 C 0.48271 0.38896 0.60332 0.0
H780 H 0.53396 0.39102 0.53891 0.0
C781 C 0.47129 0.39547 0.54187 0.0
H782 H 0.51467 0.38286 0.64765 0.0
C783 C 0.48247 0.39995 0.4785 0.0
C784 C 0.50519 0.39861 0.47676 0.0
H785 H 0.45381 0.39696 0.54276 0.0
H786 H 0.4734 0.40444 0.43114 0.0
C787 C 0.51647 0.3925 0.53873 0.0
C788 C 0.84022 0.26711 0.84074 0.0
C789 C 0.83503 0.25592 0.77766 0.0
H790 H 0.84862 0.26513 0.95098 0.0
C791 C 0.83393 0.2332 0.77892 0.0
H792 H 0.84144 0.2846 0.84147 0.0
C793 C 0.83797 0.22193 0.84247 0.0
C794 C 0.8436 0.23322 0.90511 0.0
H795 H 0.83014 0.22417 0.73085 0.0
H796 H 0.83681 0.20444 0.8425 0.0
C797 C 0.84466 0.2559 0.90344 0.0
C798 C 0.02305 0.58484 0.06965 0.0
C799 C 0.01184 0.59024 0.13249 0.0
H800 H 0.02065 0.5779 0.95738 0.0
C801 C 0.98915 0.59154 0.13074 0.0
H802 H 0.04055 0.58353 0.06978 0.0
C803 C 0.97785 0.58771 0.06764 0.0
C804 C 0.98895 0.58291 0.00422 0.0
H805 H 0.97999 0.59531 0.17844 0.0
H806 H 0.96035 0.58917 0.06836 0.0
C807 C 0.01168 0.58143 0.00567 0.0
C808 C 0.65411 0.23213 0.2412 0.0
C809 C 0.66788 0.25 0.25123 0.0
H810 H 0.64125 0.20903 0.16645 0.0
C811 C 0.68166 0.25636 0.19596 0.0
H812 H 0.64324 0.22704 0.28327 0.0
C813 C 0.6806 0.24612 0.12987 0.0
C814 C 0.66549 0.2295 0.11737 0.0
H815 H 0.69263 0.26986 0.20279 0.0
H816 H 0.69099 0.252 0.08761 0.0
C817 C 0.65283 0.22197 0.17436 0.0
C818 C 0.97517 0.40178 0.42037 0.0
C819 C 0.98672 0.40564 0.48385 0.0
H820 H 0.97642 0.39245 0.31087 0.0
C821 C 0.00944 0.40396 0.4834 0.0
H822 H 0.95765 0.4028 0.41883 0.0
C823 C 0.02033 0.39808 0.42068 0.0
C824 C 0.00858 0.39338 0.35812 0.0
H825 H 0.01875 0.40672 0.53173 0.0
H826 H 0.03783 0.39682 0.42147 0.0
C827 C 0.98594 0.39552 0.35856 0.0
C828 C 0.83451 0.75919 0.73765 0.0
C829 C 0.82272 0.73991 0.74607 0.0
H830 H 0.84489 0.7839 0.66492 0.0
C831 C 0.80994 0.73225 0.68962 0.0
H832 H 0.84457 0.76533 0.78066 0.0
C833 C 0.81003 0.74282 0.62416 0.0
C834 C 0.82316 0.76111 0.61347 0.0
H835 H 0.80046 0.71764 0.69516 0.0
H836 H 0.80046 0.73601 0.58105 0.0
C837 C 0.83484 0.76969 0.67145 0.0
C838 C 0.51891 0.58561 0.89813 0.0
C839 C 0.50748 0.58103 0.96101 0.0
H840 H 0.51733 0.59505 0.78887 0.0
C841 C 0.48471 0.5817 0.95996 0.0
H842 H 0.53646 0.58542 0.89718 0.0
C843 C 0.47363 0.58712 0.89703 0.0
C844 C 0.48522 0.59243 0.83499 0.0
H845 H 0.47551 0.57838 0.00788 0.0
H846 H 0.45609 0.58748 0.89718 0.0
C847 C 0.50793 0.59147 0.83617 0.0
C848 C 0.33228 0.22396 0.64187 0.0
C849 C 0.3364 0.23539 0.57856 0.0
H850 H 0.32758 0.22597 0.75529 0.0
C851 C 0.33704 0.25809 0.58041 0.0
H852 H 0.33147 0.20645 0.64162 0.0
C853 C 0.33421 0.26919 0.64439 0.0
C854 C 0.3311 0.25785 0.70841 0.0
H855 H 0.33976 0.26738 0.53223 0.0
H856 H 0.33532 0.28668 0.6439 0.0
C857 C 0.32989 0.23512 0.70661 0.0
C858 C 0.5082 0.58225 0.45999 0.0
C859 C 0.48544 0.58328 0.46077 0.0
H860 H 0.53709 0.58543 0.39719 0.0
C861 C 0.47431 0.58844 0.39757 0.0
H862 H 0.51718 0.57845 0.50818 0.0
C863 C 0.48562 0.59307 0.33535 0.0
C864 C 0.50833 0.59221 0.33432 0.0
H865 H 0.45679 0.58957 0.39649 0.0
H866 H 0.47645 0.5971 0.28772 0.0
C867 C 0.51957 0.58644 0.39687 0.0
C868 C 0.18004 0.73151 0.19933 0.0
C869 C 0.16642 0.73829 0.25462 0.0
H870 H 0.18992 0.73592 0.09161 0.0
C871 C 0.15349 0.75681 0.24523 0.0
H872 H 0.19045 0.71755 0.20571 0.0
C873 C 0.1529 0.76732 0.17902 0.0
C874 C 0.16542 0.75949 0.12201 0.0
H875 H 0.1428 0.76228 0.28736 0.0
H876 H 0.14197 0.78086 0.17159 0.0
C877 C 0.17966 0.74208 0.13388 0.0
C878 C 0.00951 0.39339 0.8584 0.0
C879 C 0.98681 0.39463 0.85707 0.0
H880 H 0.03843 0.39603 0.92013 0.0
C881 C 0.97573 0.40046 0.91971 0.0
H882 H 0.01859 0.38933 0.81076 0.0
C883 C 0.98722 0.40421 0.98325 0.0
C884 C 0.00995 0.40262 0.98445 0.0
H885 H 0.95823 0.40177 0.91986 0.0
H886 H 0.97832 0.40797 0.0315 0.0
C887 C 0.02094 0.39754 0.92106 0.0
C888 C 0.34022 0.76806 0.8325 0.0
C889 C 0.34629 0.75689 0.89479 0.0
H890 H 0.33177 0.76561 0.72143 0.0
C891 C 0.34749 0.73421 0.8932 0.0
H892 H 0.33896 0.78554 0.83254 0.0
C893 C 0.34276 0.72287 0.83083 0.0
C894 C 0.33714 0.73396 0.76807 0.0
H895 H 0.35178 0.72508 0.94054 0.0
H896 H 0.34409 0.70539 0.8315 0.0
C897 C 0.3359 0.75667 0.76929 0.0
C898 C 0.97759 0.58508 0.5672 0.0
C899 C 0.98928 0.59003 0.62968 0.0
H900 H 0.97929 0.576 0.45652 0.0
C901 C 0.0119 0.58765 0.62976 0.0
H902 H 0.9601 0.58649 0.56607 0.0
C903 C 0.02272 0.58103 0.56846 0.0
C904 C 0.01126 0.57703 0.50488 0.0
H905 H 0.02137 0.59086 0.67745 0.0
H906 H 0.04022 0.57989 0.57041 0.0
C907 C 0.98854 0.57885 0.50491 0.0
C908 C 0.16093 0.24445 0.3101 0.0
C909 C 0.16551 0.23638 0.24119 0.0
H910 H 0.14631 0.23801 0.41211 0.0
C911 C 0.16326 0.2141 0.22856 0.0
H912 H 0.16268 0.26153 0.32187 0.0
C913 C 0.15381 0.2008 0.27995 0.0
C914 C 0.1467 0.20941 0.34535 0.0
H915 H 0.16691 0.20726 0.17664 0.0
H916 H 0.15045 0.1841 0.26614 0.0
C917 C 0.15162 0.231 0.36204 0.0
C918 C 0.53537 0.41045 0.00518 0.0
C919 C 0.52786 0.40492 0.07347 0.0
H920 H 0.52682 0.41611 0.89536 0.0
C921 C 0.50548 0.40266 0.08464 0.0
H922 H 0.55253 0.41258 0.99557 0.0
C923 C 0.49089 0.40537 0.02868 0.0
C924 C 0.4983 0.40995 0.95964 0.0
H925 H 0.49912 0.39892 0.13708 0.0
H926 H 0.4738 0.4031 0.03928 0.0
C927 C 0.52068 0.41263 0.94825 0.0
C928 C 0.13975 0.35759 0.19645 0.0
C929 C 0.14827 0.349 0.13275 0.0
H930 H 0.11647 0.37902 0.24351 0.0
C931 C 0.1427 0.35863 0.06749 0.0
H932 H 0.14376 0.35044 0.24763 0.0
C933 C 0.12751 0.37536 0.06538 0.0
C934 C 0.11715 0.38229 0.12834 0.0
H935 H 0.14914 0.35239 0.01773 0.0
H936 H 0.12254 0.38147 0.01366 0.0
C937 C 0.12409 0.37392 0.1942 0.0
C938 C 0.8526 0.87547 0.3142 0.0
C939 C 0.8445 0.86514 0.37553 0.0
H940 H 0.8761 0.89753 0.27237 0.0
C941 C 0.85047 0.87297 0.44314 0.0
H942 H 0.84826 0.86982 0.26123 0.0
C943 C 0.86602 0.88927 0.44932 0.0
C944 C 0.87625 0.8975 0.38801 0.0
H945 H 0.84436 0.86541 0.49119 0.0
H946 H 0.87155 0.89376 0.50229 0.0
C947 C 0.8686 0.89132 0.3204 0.0
C948 C 0.35324 0.61452 0.68086 0.0
C949 C 0.34529 0.62533 0.62008 0.0
H950 H 0.37666 0.59208 0.72162 0.0
C951 C 0.35113 0.61781 0.55206 0.0
H952 H 0.34896 0.6199 0.7341 0.0
C953 C 0.36658 0.60145 0.54506 0.0
C954 C 0.37682 0.59287 0.606 0.0
H955 H 0.34508 0.62574 0.50442 0.0
H956 H 0.37214 0.59729 0.49192 0.0
C957 C 0.36914 0.5986 0.67388 0.0
C958 C 0.63044 0.11866 0.80763 0.0
C959 C 0.63857 0.12825 0.87053 0.0
H960 H 0.60671 0.09741 0.76191 0.0
C961 C 0.63192 0.12019 0.9369 0.0
H962 H 0.63525 0.12454 0.75555 0.0
C963 C 0.61596 0.10423 0.94033 0.0
C964 C 0.60597 0.09657 0.87748 0.0
H965 H 0.63801 0.12722 0.9861 0.0
H966 H 0.61009 0.09943 0.99243 0.0
C967 C 0.61403 0.10317 0.81108 0.0
C968 C 0.12853 0.5991 0.43334 0.0
C969 C 0.11908 0.59159 0.36937 0.0
H970 H 0.14874 0.62307 0.48257 0.0
C971 C 0.12671 0.59959 0.30403 0.0
H972 H 0.12303 0.59324 0.48468 0.0
C973 C 0.14189 0.61634 0.303 0.0
C974 C 0.14917 0.6257 0.36731 0.0
H975 H 0.11981 0.59402 0.254 0.0
H976 H 0.14625 0.6233 0.25194 0.0
C977 C 0.14322 0.61625 0.43235 0.0
C978 C 0.63684 0.87085 0.55824 0.0
C979 C 0.64398 0.86218 0.62332 0.0
H980 H 0.61485 0.89238 0.50626 0.0
C981 C 0.63662 0.87143 0.68765 0.0
H982 H 0.64235 0.86409 0.50801 0.0
C983 C 0.62043 0.88723 0.68687 0.0
C984 C 0.61184 0.89447 0.62173 0.0
H985 H 0.64183 0.86506 0.73878 0.0
H986 H 0.61363 0.89269 0.73708 0.0
C987 C 0.62113 0.88712 0.55747 0.0
C988 C 0.37512 0.3867 0.92947 0.0
C989 C 0.38317 0.39556 0.86572 0.0
H990 H 0.35413 0.36309 0.9763 0.0
C991 C 0.37258 0.39093 0.80109 0.0
H992 H 0.38301 0.39001 0.98012 0.0
C993 C 0.35567 0.37596 0.79922 0.0
C994 C 0.34959 0.3649 0.86166 0.0
H995 H 0.37839 0.39769 0.75134 0.0
H996 H 0.34899 0.37146 0.7477 0.0
C997 C 0.35862 0.37125 0.92735 0.0
C998 C 0.84975 0.11797 0.08248 0.0
C999 C 0.84231 0.12709 0.14643 0.0
H1000 H 0.87286 0.09719 0.03292 0.0
C1001 C 0.85053 0.11932 0.2118 0.0
H1002 H 0.84362 0.12362 0.0315 0.0
C1003 C 0.86775 0.10464 0.21281 0.0
C1004 C 0.87656 0.09704 0.14852 0.0
H1005 H 0.84512 0.12612 0.26208 0.0
H1006 H 0.87507 0.10037 0.26356 0.0
C1007 C 0.8665 0.1028 0.08356 0.0
C1008 C 0.85402 0.61984 0.92436 0.0
C1009 C 0.8478 0.62913 0.85923 0.0
H1010 H 0.87552 0.59814 0.97764 0.0
C1011 C 0.85644 0.62086 0.79526 0.0
H1012 H 0.84751 0.62586 0.97429 0.0
C1013 C 0.87293 0.60538 0.79706 0.0
C1014 C 0.88058 0.59753 0.86275 0.0
H1015 H 0.85194 0.62779 0.74419 0.0
H1016 H 0.88066 0.60065 0.74752 0.0
C1017 C 0.87004 0.60391 0.92603 0.0
C1018 C 0.13656 0.13389 0.71804 0.0
C1019 C 0.14577 0.13951 0.65207 0.0
H1020 H 0.11311 0.11429 0.77171 0.0
C1021 C 0.14235 0.12605 0.59278 0.0
H1022 H 0.13898 0.14404 0.76465 0.0
C1023 C 0.12793 0.10874 0.59715 0.0
C1024 C 0.11616 0.10507 0.66034 0.0
H1025 H 0.14944 0.12997 0.54152 0.0
H1026 H 0.12435 0.0998 0.5487 0.0
C1027 C 0.12167 0.11688 0.72203 0.0
C1028 C 0.62469 0.38802 0.41268 0.0
C1029 C 0.61448 0.39321 0.34745 0.0
H1030 H 0.64702 0.36705 0.46655 0.0
C1031 C 0.62293 0.38471 0.2838 0.0
H1032 H 0.61867 0.39437 0.46283 0.0
C1033 C 0.63964 0.36947 0.28607 0.0
C1034 C 0.64771 0.36211 0.35214 0.0
H1035 H 0.61553 0.38855 0.2328 0.0
H1036 H 0.64462 0.36187 0.23655 0.0
C1037 C 0.64093 0.37232 0.41509 0.0
C1038 C 0.34796 0.87291 0.06144 0.0
C1039 C 0.3414 0.86454 0.12747 0.0
H1040 H 0.36947 0.8942 0.00688 0.0
C1041 C 0.34902 0.87427 0.19078 0.0
H1042 H 0.34223 0.86577 0.01196 0.0
C1043 C 0.36507 0.89015 0.18806 0.0
C1044 C 0.37324 0.89695 0.122 0.0
H1045 H 0.34424 0.86814 0.24257 0.0
H1046 H 0.37217 0.89594 0.23754 0.0
C1047 C 0.36353 0.88924 0.05873 0.0
C1048 C 0.86831 0.38806 0.56262 0.0
C1049 C 0.8783 0.39613 0.62491 0.0
H1050 H 0.84665 0.36445 0.51852 0.0
C1051 C 0.87024 0.38996 0.69178 0.0
H1052 H 0.87417 0.39256 0.5102 0.0
C1053 C 0.85406 0.37427 0.69635 0.0
C1054 C 0.84619 0.36409 0.63415 0.0
H1055 H 0.87755 0.39606 0.74052 0.0
H1056 H 0.84939 0.36861 0.74884 0.0
C1057 C 0.85259 0.37191 0.56721 0.0
C1058 C 0.34148 0.11641 0.29081 0.0
C1059 C 0.33286 0.12664 0.35171 0.0
H1060 H 0.36592 0.09508 0.25011 0.0
C1061 C 0.33883 0.11907 0.41961 0.0
H1062 H 0.33719 0.12185 0.23763 0.0
C1063 C 0.35493 0.10331 0.42655 0.0
C1064 C 0.36569 0.09535 0.36574 0.0
H1065 H 0.33236 0.12658 0.46736 0.0
H1066 H 0.36045 0.09911 0.47975 0.0
C1067 C 0.35802 0.10112 0.29779 0.0
C1068 C 0.64046 0.61493 0.04668 0.0
C1069 C 0.64677 0.62275 0.11397 0.0
H1070 H 0.61942 0.59376 0.98883 0.0
C1071 C 0.6396 0.61194 0.17566 0.0
H1072 H 0.6459 0.62283 -0.00167 0.0
C1073 C 0.62402 0.59564 0.17042 0.0
C1074 C 0.61589 0.58951 0.10336 0.0
H1075 H 0.64425 0.61753 0.2284 0.0
H1076 H 0.61711 0.58911 0.21893 0.0
C1077 C 0.62535 0.59819 0.04139 0.0
C1078 C 0.1228 0.89083 0.8257 0.0
C1079 C 0.11531 0.89732 0.89305 0.0
H1080 H 0.14204 0.86829 0.76705 0.0
C1081 C 0.12476 0.88828 0.9547 0.0
H1082 H 0.11588 0.89763 0.77743 0.0
C1083 C 0.13931 0.87106 0.94891 0.0
C1084 C 0.14508 0.86307 0.88141 0.0
H1085 H 0.1193 0.89297 0.00746 0.0
H1086 H 0.14482 0.86304 -0.00291 0.0
C1087 C 0.13782 0.87403 0.81994 0.0
loop_
_geom_bond_atom_site_label_1
_geom_bond_atom_site_label_2
_geom_bond_distance
_geom_bond_site_symmetry_2
_ccdc_geom_bond_type
Mg0 O1 2.028 . S
Mg0 O7 1.986 . S
Mg0 O9 2.114 . S
Mg0 O10 2.251 . S
Mg0 O13 2.010 1_554 S
O1 Mg0 2.028 . S
O1 C4 1.250 . S
O2 Mg3 2.028 . S
O2 C4 1.248 . S
Mg3 O2 2.028 . S
Mg3 O8 2.032 . S
Mg3 O10 2.079 . S
C4 O1 1.250 . S
C4 O2 1.248 . S
C5 O6 1.264 . S
C5 O13 1.249 . S
O6 C5 1.264 . S
O7 Mg0 1.986 . S
O7 C11 1.246 . S
O8 Mg3 2.032 . S
O8 C11 1.259 . S
O9 Mg0 2.114 . S
O9 C12 1.252 . S
O10 Mg0 2.251 . S
O10 Mg3 2.079 . S
O10 C12 1.273 . S
C11 O7 1.246 . S
C11 O8 1.259 . S
C12 O9 1.252 . S
C12 O10 1.273 . S
O13 Mg0 2.010 1_556 S
O13 C5 1.249 . S
Mg14 O15 2.028 . S
Mg14 O21 1.986 . S
Mg14 O23 2.114 . S
Mg14 O24 2.251 . S
Mg14 O27 2.010 . S
O15 Mg14 2.028 . S
O15 C18 1.250 . S
O16 Mg17 2.028 . S
O16 C18 1.248 . S
Mg17 O16 2.028 . S
Mg17 O22 2.032 . S
Mg17 O24 2.079 . S
C18 O15 1.250 . S
C18 O16 1.248 . S
C19 O20 1.264 . S
C19 O27 1.249 . S
O20 C19 1.264 . S
O21 Mg14 1.986 . S
O21 C25 1.246 . S
O22 Mg17 2.032 . S
O22 C25 1.259 . S
O23 Mg14 2.114 . S
O23 C26 1.252 . S
O24 Mg14 2.251 . S
O24 Mg17 2.079 . S
O24 C26 1.273 . S
C25 O21 1.246 . S
C25 O22 1.259 . S
C26 O23 1.252 . S
C26 O24 1.273 . S
O27 Mg14 2.010 . S
O27 C19 1.249 . S
Mg28 O29 2.028 . S
Mg28 O35 1.986 . S
Mg28 O37 2.114 . S
Mg28 O38 2.251 . S
Mg28 O41 2.010 . S
O29 Mg28 2.028 . S
O29 C32 1.250 . S
O30 Mg31 2.028 . S
O30 C32 1.248 . S
Mg31 O30 2.028 . S
Mg31 O36 2.032 . S
Mg31 O38 2.079 . S
C32 O29 1.250 . S
C32 O30 1.248 . S
C33 O34 1.264 . S
C33 O41 1.249 . S
O34 C33 1.264 . S
O35 Mg28 1.986 . S
O35 C39 1.246 . S
O36 Mg31 2.032 . S
O36 C39 1.259 . S
O37 Mg28 2.114 . S
O37 C40 1.252 . S
O38 Mg28 2.251 . S
O38 Mg31 2.079 . S
O38 C40 1.273 . S
C39 O35 1.246 . S
C39 O36 1.259 . S
C40 O37 1.252 . S
C40 O38 1.273 . S
O41 Mg28 2.010 . S
O41 C33 1.249 . S
Mg42 O43 2.028 . S
Mg42 O49 1.986 . S
Mg42 O51 2.114 . S
Mg42 O52 2.251 . S
Mg42 O55 2.010 . S
O43 Mg42 2.028 . S
O43 C46 1.250 . S
O44 Mg45 2.028 . S
O44 C46 1.248 . S
Mg45 O44 2.028 . S
Mg45 O50 2.032 . S
Mg45 O52 2.079 . S
C46 O43 1.250 . S
C46 O44 1.248 . S
C47 O48 1.264 . S
C47 O55 1.249 . S
O48 C47 1.264 . S
O49 Mg42 1.986 . S
O49 C53 1.246 . S
O50 Mg45 2.032 . S
O50 C53 1.259 . S
O51 Mg42 2.114 . S
O51 C54 1.252 . S
O52 Mg42 2.251 . S
O52 Mg45 2.079 . S
O52 C54 1.273 . S
C53 O49 1.246 . S
C53 O50 1.259 . S
C54 O51 1.252 . S
C54 O52 1.273 . S
O55 Mg42 2.010 . S
O55 C47 1.249 . S
Mg56 O57 2.028 . S
Mg56 O63 1.986 . S
Mg56 O65 2.114 . S
Mg56 O66 2.251 . S
Mg56 O69 2.010 . S
O57 Mg56 2.028 . S
O57 C60 1.250 . S
O58 Mg59 2.028 . S
O58 C60 1.248 . S
Mg59 O58 2.028 . S
Mg59 O64 2.032 . S
Mg59 O66 2.079 . S
C60 O57 1.250 . S
C60 O58 1.248 . S
C61 O62 1.264 . S
C61 O69 1.249 . S
O62 C61 1.264 . S
O63 Mg56 1.986 . S
O63 C67 1.246 . S
O64 Mg59 2.032 . S
O64 C67 1.259 . S
O65 Mg56 2.114 . S
O65 C68 1.252 . S
O66 Mg56 2.251 . S
O66 Mg59 2.079 . S
O66 C68 1.273 . S
C67 O63 1.246 . S
C67 O64 1.259 . S
C68 O65 1.252 . S
C68 O66 1.273 . S
O69 Mg56 2.010 . S
O69 C61 1.249 . S
Mg70 O71 2.028 . S
Mg70 O77 1.986 . S
Mg70 O79 2.114 . S
Mg70 O80 2.251 . S
Mg70 O83 2.010 . S
O71 Mg70 2.028 . S
O71 C74 1.250 . S
O72 Mg73 2.028 . S
O72 C74 1.248 . S
Mg73 O72 2.028 . S
Mg73 O78 2.032 . S
Mg73 O80 2.079 . S
C74 O71 1.250 . S
C74 O72 1.248 . S
C75 O76 1.264 . S
C75 O83 1.249 . S
O76 C75 1.264 . S
O77 Mg70 1.986 . S
O77 C81 1.246 . S
O78 Mg73 2.032 . S
O78 C81 1.259 . S
O79 Mg70 2.114 . S
O79 C82 1.252 . S
O80 Mg70 2.251 . S
O80 Mg73 2.079 . S
O80 C82 1.273 . S
C81 O77 1.246 . S
C81 O78 1.259 . S
C82 O79 1.252 . S
C82 O80 1.273 . S
O83 Mg70 2.010 . S
O83 C75 1.249 . S
Mg84 O85 2.028 . S
Mg84 O91 1.986 . S
Mg84 O93 2.114 . S
Mg84 O94 2.251 . S
Mg84 O97 2.010 1_556 S
O85 Mg84 2.028 . S
O85 C88 1.250 . S
O86 Mg87 2.028 . S
O86 C88 1.248 . S
Mg87 O86 2.028 . S
Mg87 O92 2.032 . S
Mg87 O94 2.079 . S
C88 O85 1.250 . S
C88 O86 1.248 . S
C89 O90 1.264 . S
C89 O97 1.249 . S
O90 C89 1.264 . S
O91 Mg84 1.986 . S
O91 C95 1.246 . S
O92 Mg87 2.032 . S
O92 C95 1.259 . S
O93 Mg84 2.114 . S
O93 C96 1.252 . S
O94 Mg84 2.251 . S
O94 Mg87 2.079 . S
O94 C96 1.273 . S
C95 O91 1.246 . S
C95 O92 1.259 . S
C96 O93 1.252 . S
C96 O94 1.273 . S
O97 Mg84 2.010 1_554 S
O97 C89 1.249 . S
Mg98 O99 2.028 . S
Mg98 O105 1.986 . S
Mg98 O107 2.114 . S
Mg98 O108 2.251 . S
Mg98 O111 2.010 . S
O99 Mg98 2.028 . S
O99 C102 1.250 . S
O100 Mg101 2.028 . S
O100 C102 1.248 . S
Mg101 O100 2.028 . S
Mg101 O106 2.032 . S
Mg101 O108 2.079 . S
C102 O99 1.250 . S
C102 O100 1.248 . S
C103 O104 1.264 . S
C103 O111 1.249 . S
O104 C103 1.264 . S
O105 Mg98 1.986 . S
O105 C109 1.246 . S
O106 Mg101 2.032 . S
O106 C109 1.259 . S
O107 Mg98 2.114 . S
O107 C110 1.252 . S
O108 Mg98 2.251 . S
O108 Mg101 2.079 . S
O108 C110 1.273 . S
C109 O105 1.246 . S
C109 O106 1.259 . S
C110 O107 1.252 . S
C110 O108 1.273 . S
O111 Mg98 2.010 . S
O111 C103 1.249 . S
Mg112 O113 2.028 . S
Mg112 O119 1.986 . S
Mg112 O121 2.114 . S
Mg112 O122 2.251 . S
Mg112 O125 2.010 1_556 S
O113 Mg112 2.028 . S
O113 C116 1.250 . S
O114 Mg115 2.028 . S
O114 C116 1.248 . S
Mg115 O114 2.028 . S
Mg115 O120 2.032 . S
Mg115 O122 2.079 . S
C116 O113 1.250 . S
C116 O114 1.248 . S
C117 O118 1.264 . S
C117 O125 1.249 . S
O118 C117 1.264 . S
O119 Mg112 1.986 . S
O119 C123 1.246 . S
O120 Mg115 2.032 . S
O120 C123 1.259 . S
O121 Mg112 2.114 . S
O121 C124 1.252 . S
O122 Mg112 2.251 . S
O122 Mg115 2.079 . S
O122 C124 1.273 . S
C123 O119 1.246 . S
C123 O120 1.259 . S
C124 O121 1.252 . S
C124 O122 1.273 . S
O125 Mg112 2.010 1_554 S
O125 C117 1.249 . S
Mg126 O127 2.028 . S
Mg126 O133 1.986 . S
Mg126 O135 2.114 . S
Mg126 O136 2.251 . S
Mg126 O139 2.010 . S
O127 Mg126 2.028 . S
O127 C130 1.250 . S
O128 Mg129 2.028 . S
O128 C130 1.248 . S
Mg129 O128 2.028 . S
Mg129 O134 2.032 . S
Mg129 O136 2.079 . S
C130 O127 1.250 . S
C130 O128 1.248 . S
C131 O132 1.264 . S
C131 O139 1.249 . S
O132 C131 1.264 . S
O133 Mg126 1.986 . S
O133 C137 1.246 . S
O134 Mg129 2.032 . S
O134 C137 1.259 . S
O135 Mg126 2.114 . S
O135 C138 1.252 . S
O136 Mg126 2.251 . S
O136 Mg129 2.079 . S
O136 C138 1.273 . S
C137 O133 1.246 . S
C137 O134 1.259 . S
C138 O135 1.252 . S
C138 O136 1.273 . S
O139 Mg126 2.010 . S
O139 C131 1.249 . S
Mg140 O141 2.028 . S
Mg140 O147 1.986 . S
Mg140 O149 2.114 . S
Mg140 O150 2.251 . S
Mg140 O153 2.010 . S
O141 Mg140 2.028 . S
O141 C144 1.250 . S
O142 Mg143 2.028 . S
O142 C144 1.248 . S
Mg143 O142 2.028 . S
Mg143 O148 2.032 . S
Mg143 O150 2.079 . S
C144 O141 1.250 . S
C144 O142 1.248 . S
C145 O146 1.264 . S
C145 O153 1.249 . S
O146 C145 1.264 . S
O147 Mg140 1.986 . S
O147 C151 1.246 . S
O148 Mg143 2.032 . S
O148 C151 1.259 . S
O149 Mg140 2.114 . S
O149 C152 1.252 . S
O150 Mg140 2.251 . S
O150 Mg143 2.079 . S
O150 C152 1.273 . S
C151 O147 1.246 . S
C151 O148 1.259 . S
C152 O149 1.252 . S
C152 O150 1.273 . S
O153 Mg140 2.010 . S
O153 C145 1.249 . S
Mg154 O155 2.028 . S
Mg154 O161 1.986 . S
Mg154 O163 2.114 . S
Mg154 O164 2.251 . S
Mg154 O167 2.010 . S
O155 Mg154 2.028 . S
O155 C158 1.250 . S
O156 Mg157 2.028 . S
O156 C158 1.248 . S
Mg157 O156 2.028 . S
Mg157 O162 2.032 . S
Mg157 O164 2.079 . S
C158 O155 1.250 . S
C158 O156 1.248 . S
C159 O160 1.264 . S
C159 O167 1.249 . S
O160 C159 1.264 . S
O161 Mg154 1.986 . S
O161 C165 1.246 . S
O162 Mg157 2.032 . S
O162 C165 1.259 . S
O163 Mg154 2.114 . S
O163 C166 1.252 . S
O164 Mg154 2.251 . S
O164 Mg157 2.079 . S
O164 C166 1.273 . S
C165 O161 1.246 . S
C165 O162 1.259 . S
C166 O163 1.252 . S
C166 O164 1.273 . S
O167 Mg154 2.010 . S
O167 C159 1.249 . S
Mg168 O169 2.028 . S
Mg168 O175 1.986 . S
Mg168 O177 2.114 . S
Mg168 O178 2.251 . S
Mg168 O181 2.010 . S
O169 Mg168 2.028 . S
O169 C172 1.250 . S
O170 Mg171 2.028 . S
O170 C172 1.248 . S
Mg171 O170 2.028 . S
Mg171 O176 2.032 . S
Mg171 O178 2.079 . S
C172 O169 1.250 . S
C172 O170 1.248 . S
C173 O174 1.264 . S
C173 O181 1.249 . S
O174 C173 1.264 . S
O175 Mg168 1.986 . S
O175 C179 1.246 . S
O176 Mg171 2.032 . S
O176 C179 1.259 . S
O177 Mg168 2.114 . S
O177 C180 1.252 . S
O178 Mg168 2.251 . S
O178 Mg171 2.079 . S
O178 C180 1.273 . S
C179 O175 1.246 . S
C179 O176 1.259 . S
C180 O177 1.252 . S
C180 O178 1.273 . S
O181 Mg168 2.010 . S
O181 C173 1.249 . S
Mg182 O183 2.028 . S
Mg182 O189 1.986 . S
Mg182 O191 2.114 . S
Mg182 O192 2.251 . S
Mg182 O195 2.010 . S
O183 Mg182 2.028 . S
O183 C186 1.250 . S
O184 Mg185 2.028 . S
O184 C186 1.248 . S
Mg185 O184 2.028 . S
Mg185 O190 2.032 . S
Mg185 O192 2.079 . S
C186 O183 1.250 . S
C186 O184 1.248 . S
C187 O188 1.264 . S
C187 O195 1.249 . S
O188 C187 1.264 . S
O189 Mg182 1.986 . S
O189 C193 1.246 . S
O190 Mg185 2.032 . S
O190 C193 1.259 . S
O191 Mg182 2.114 . S
O191 C194 1.252 . S
O192 Mg182 2.251 . S
O192 Mg185 2.079 . S
O192 C194 1.273 . S
C193 O189 1.246 . S
C193 O190 1.259 . S
C194 O191 1.252 . S
C194 O192 1.273 . S
O195 Mg182 2.010 . S
O195 C187 1.249 . S
Mg196 O197 2.028 . S
Mg196 O203 1.986 . S
Mg196 O205 2.114 . S
Mg196 O206 2.251 . S
Mg196 O209 2.010 1_554 S
O197 Mg196 2.028 . S
O197 C200 1.250 . S
O198 Mg199 2.028 . S
O198 C200 1.248 . S
Mg199 O198 2.028 . S
Mg199 O204 2.032 . S
Mg199 O206 2.079 . S
C200 O197 1.250 . S
C200 O198 1.248 . S
C201 O202 1.264 . S
C201 O209 1.249 . S
O202 C201 1.264 . S
O203 Mg196 1.986 . S
O203 C207 1.246 . S
O204 Mg199 2.032 . S
O204 C207 1.259 . S
O205 Mg196 2.114 . S
O205 C208 1.252 . S
O206 Mg196 2.251 . S
O206 Mg199 2.079 . S
O206 C208 1.273 . S
C207 O203 1.246 . S
C207 O204 1.259 . S
C208 O205 1.252 . S
C208 O206 1.273 . S
O209 Mg196 2.010 1_556 S
O209 C201 1.249 . S
Mg210 O211 2.028 . S
Mg210 O217 1.986 . S
Mg210 O219 2.114 . S
Mg210 O220 2.251 . S
Mg210 O223 2.010 . S
O211 Mg210 2.028 . S
O211 C214 1.250 . S
O212 Mg213 2.028 . S
O212 C214 1.248 . S
Mg213 O212 2.028 . S
Mg213 O218 2.032 . S
Mg213 O220 2.079 . S
C214 O211 1.250 . S
C214 O212 1.248 . S
C215 O216 1.264 . S
C215 O223 1.249 . S
O216 C215 1.264 . S
O217 Mg210 1.986 . S
O217 C221 1.246 . S
O218 Mg213 2.032 . S
O218 C221 1.259 . S
O219 Mg210 2.114 . S
O219 C222 1.252 . S
O220 Mg210 2.251 . S
O220 Mg213 2.079 . S
O220 C222 1.273 . S
C221 O217 1.246 . S
C221 O218 1.259 . S
C222 O219 1.252 . S
C222 O220 1.273 . S
O223 Mg210 2.010 . S
O223 C215 1.249 . S
Mg224 O225 2.028 . S
Mg224 O231 1.986 . S
Mg224 O233 2.114 . S
Mg224 O234 2.251 . S
Mg224 O237 2.010 . S
O225 Mg224 2.028 . S
O225 C228 1.250 . S
O226 Mg227 2.028 . S
O226 C228 1.248 . S
Mg227 O226 2.028 . S
Mg227 O232 2.032 . S
Mg227 O234 2.079 . S
C228 O225 1.250 . S
C228 O226 1.248 . S
C229 O230 1.264 . S
C229 O237 1.249 . S
O230 C229 1.264 . S
O231 Mg224 1.986 . S
O231 C235 1.246 . S
O232 Mg227 2.032 . S
O232 C235 1.259 . S
O233 Mg224 2.114 . S
O233 C236 1.252 . S
O234 Mg224 2.251 . S
O234 Mg227 2.079 . S
O234 C236 1.273 . S
C235 O231 1.246 . S
C235 O232 1.259 . S
C236 O233 1.252 . S
C236 O234 1.273 . S
O237 Mg224 2.010 . S
O237 C229 1.249 . S
Mg238 O239 2.028 . S
Mg238 O245 1.986 . S
Mg238 O247 2.114 . S
Mg238 O248 2.251 . S
Mg238 O251 2.010 . S
O239 Mg238 2.028 . S
O239 C242 1.250 . S
O240 Mg241 2.028 . S
O240 C242 1.248 . S
Mg241 O240 2.028 . S
Mg241 O246 2.032 . S
Mg241 O248 2.079 . S
C242 O239 1.250 . S
C242 O240 1.248 . S
C243 O244 1.264 . S
C243 O251 1.249 . S
O244 C243 1.264 . S
O245 Mg238 1.986 . S
O245 C249 1.246 . S
O246 Mg241 2.032 . S
O246 C249 1.259 . S
O247 Mg238 2.114 . S
O247 C250 1.252 . S
O248 Mg238 2.251 . S
O248 Mg241 2.079 . S
O248 C250 1.273 . S
C249 O245 1.246 . S
C249 O246 1.259 . S
C250 O247 1.252 . S
C250 O248 1.273 . S
O251 Mg238 2.010 . S
O251 C243 1.249 . S
Mg252 O253 2.028 . S
Mg252 O259 1.986 . S
Mg252 O261 2.114 . S
Mg252 O262 2.251 . S
Mg252 O265 2.010 1_554 S
O253 Mg252 2.028 . S
O253 C256 1.250 . S
O254 Mg255 2.028 . S
O254 C256 1.248 . S
Mg255 O254 2.028 . S
Mg255 O260 2.032 . S
Mg255 O262 2.079 . S
C256 O253 1.250 . S
C256 O254 1.248 . S
C257 O258 1.264 . S
C257 O265 1.249 . S
O258 C257 1.264 . S
O259 Mg252 1.986 . S
O259 C263 1.246 . S
O260 Mg255 2.032 . S
O260 C263 1.259 . S
O261 Mg252 2.114 . S
O261 C264 1.252 . S
O262 Mg252 2.251 . S
O262 Mg255 2.079 . S
O262 C264 1.273 . S
C263 O259 1.246 . S
C263 O260 1.259 . S
C264 O261 1.252 . S
C264 O262 1.273 . S
O265 Mg252 2.010 1_556 S
O265 C257 1.249 . S
Mg266 O267 2.028 . S
Mg266 O273 1.986 . S
Mg266 O275 2.114 . S
Mg266 O276 2.251 . S
Mg266 O279 2.010 . S
O267 Mg266 2.028 . S
O267 C270 1.250 . S
O268 Mg269 2.028 . S
O268 C270 1.248 . S
Mg269 O268 2.028 . S
Mg269 O274 2.032 . S
Mg269 O276 2.079 . S
C270 O267 1.250 . S
C270 O268 1.248 . S
C271 O272 1.264 . S
C271 O279 1.249 . S
O272 C271 1.264 . S
O273 Mg266 1.986 . S
O273 C277 1.246 . S
O274 Mg269 2.032 . S
O274 C277 1.259 . S
O275 Mg266 2.114 . S
O275 C278 1.252 . S
O276 Mg266 2.251 . S
O276 Mg269 2.079 . S
O276 C278 1.273 . S
C277 O273 1.246 . S
C277 O274 1.259 . S
C278 O275 1.252 . S
C278 O276 1.273 . S
O279 Mg266 2.010 . S
O279 C271 1.249 . S
Mg280 O281 2.028 . S
Mg280 O287 1.986 . S
Mg280 O289 2.114 . S
Mg280 O290 2.251 . S
Mg280 O293 2.010 1_556 S
O281 Mg280 2.028 . S
O281 C284 1.250 . S
O282 Mg283 2.028 . S
O282 C284 1.248 . S
Mg283 O282 2.028 . S
Mg283 O288 2.032 . S
Mg283 O290 2.079 . S
C284 O281 1.250 . S
C284 O282 1.248 . S
C285 O286 1.264 . S
C285 O293 1.249 . S
O286 C285 1.264 . S
O287 Mg280 1.986 . S
O287 C291 1.246 . S
O288 Mg283 2.032 . S
O288 C291 1.259 . S
O289 Mg280 2.114 . S
O289 C292 1.252 . S
O290 Mg280 2.251 . S
O290 Mg283 2.079 . S
O290 C292 1.273 . S
C291 O287 1.246 . S
C291 O288 1.259 . S
C292 O289 1.252 . S
C292 O290 1.273 . S
O293 Mg280 2.010 1_554 S
O293 C285 1.249 . S
Mg294 O295 2.028 . S
Mg294 O301 1.986 . S
Mg294 O303 2.114 . S
Mg294 O304 2.251 . S
Mg294 O307 2.010 . S
O295 Mg294 2.028 . S
O295 C298 1.250 . S
O296 Mg297 2.028 . S
O296 C298 1.248 . S
Mg297 O296 2.028 . S
Mg297 O302 2.032 . S
Mg297 O304 2.079 . S
C298 O295 1.250 . S
C298 O296 1.248 . S
C299 O300 1.264 . S
C299 O307 1.249 . S
O300 C299 1.264 . S
O301 Mg294 1.986 . S
O301 C305 1.246 . S
O302 Mg297 2.032 . S
O302 C305 1.259 . S
O303 Mg294 2.114 . S
O303 C306 1.252 . S
O304 Mg294 2.251 . S
O304 Mg297 2.079 . S
O304 C306 1.273 . S
C305 O301 1.246 . S
C305 O302 1.259 . S
C306 O303 1.252 . S
C306 O304 1.273 . S
O307 Mg294 2.010 . S
O307 C299 1.249 . S
Mg308 O309 2.028 . S
Mg308 O315 1.986 . S
Mg308 O317 2.114 . S
Mg308 O318 2.251 . S
Mg308 O321 2.010 . S
O309 Mg308 2.028 . S
O309 C312 1.250 . S
O310 Mg311 2.028 . S
O310 C312 1.248 . S
Mg311 O310 2.028 . S
Mg311 O316 2.032 . S
Mg311 O318 2.079 . S
C312 O309 1.250 . S
C312 O310 1.248 . S
C313 O314 1.264 . S
C313 O321 1.249 . S
O314 C313 1.264 . S
O315 Mg308 1.986 . S
O315 C319 1.246 . S
O316 Mg311 2.032 . S
O316 C319 1.259 . S
O317 Mg308 2.114 . S
O317 C320 1.252 . S
O318 Mg308 2.251 . S
O318 Mg311 2.079 . S
O318 C320 1.273 . S
C319 O315 1.246 . S
C319 O316 1.259 . S
C320 O317 1.252 . S
C320 O318 1.273 . S
O321 Mg308 2.010 . S
O321 C313 1.249 . S
Mg322 O323 2.028 . S
Mg322 O329 1.986 . S
Mg322 O331 2.114 . S
Mg322 O332 2.251 . S
Mg322 O335 2.010 . S
O323 Mg322 2.028 . S
O323 C326 1.250 . S
O324 Mg325 2.028 . S
O324 C326 1.248 . S
Mg325 O324 2.028 . S
Mg325 O330 2.032 . S
Mg325 O332 2.079 . S
C326 O323 1.250 . S
C326 O324 1.248 . S
C327 O328 1.264 . S
C327 O335 1.249 . S
O328 C327 1.264 . S
O329 Mg322 1.986 . S
O329 C333 1.246 . S
O330 Mg325 2.032 . S
O330 C333 1.259 . S
O331 Mg322 2.114 . S
O331 C334 1.252 . S
O332 Mg322 2.251 . S
O332 Mg325 2.079 . S
O332 C334 1.273 . S
C333 O329 1.246 . S
C333 O330 1.259 . S
C334 O331 1.252 . S
C334 O332 1.273 . S
O335 Mg322 2.010 . S
O335 C327 1.249 . S
Mg336 O337 2.028 . S
Mg336 O343 1.986 . S
Mg336 O345 2.114 . S
Mg336 O346 2.251 . S
Mg336 O349 2.010 . S
O337 Mg336 2.028 . S
O337 C340 1.250 . S
O338 Mg339 2.028 . S
O338 C340 1.248 . S
Mg339 O338 2.028 . S
Mg339 O344 2.032 . S
Mg339 O346 2.079 . S
C340 O337 1.250 . S
C340 O338 1.248 . S
C341 O342 1.264 . S
C341 O349 1.249 . S
O342 C341 1.264 . S
O343 Mg336 1.986 . S
O343 C347 1.246 . S
O344 Mg339 2.032 . S
O344 C347 1.259 . S
O345 Mg336 2.114 . S
O345 C348 1.252 . S
O346 Mg336 2.251 . S
O346 Mg339 2.079 . S
O346 C348 1.273 . S
C347 O343 1.246 . S
C347 O344 1.259 . S
C348 O345 1.252 . S
C348 O346 1.273 . S
O349 Mg336 2.010 . S
O349 C341 1.249 . S
Mg350 O351 2.028 . S
Mg350 O357 1.986 . S
Mg350 O359 2.114 . S
Mg350 O360 2.251 . S
Mg350 O363 2.010 . S
O351 Mg350 2.028 . S
O351 C354 1.250 . S
O352 Mg353 2.028 . S
O352 C354 1.248 . S
Mg353 O352 2.028 . S
Mg353 O358 2.032 . S
Mg353 O360 2.079 . S
C354 O351 1.250 . S
C354 O352 1.248 . S
C355 O356 1.264 . S
C355 O363 1.249 . S
O356 C355 1.264 . S
O357 Mg350 1.986 . S
O357 C361 1.246 . S
O358 Mg353 2.032 . S
O358 C361 1.259 . S
O359 Mg350 2.114 . S
O359 C362 1.252 . S
O360 Mg350 2.251 . S
O360 Mg353 2.079 . S
O360 C362 1.273 . S
C361 O357 1.246 . S
C361 O358 1.259 . S
C362 O359 1.252 . S
C362 O360 1.273 . S
O363 Mg350 2.010 . S
O363 C355 1.249 . S
Mg364 O365 2.028 . S
Mg364 O371 1.986 . S
Mg364 O373 2.114 . S
Mg364 O374 2.251 . S
Mg364 O377 2.010 1_556 S
O365 Mg364 2.028 . S
O365 C368 1.250 . S
O366 Mg367 2.028 . S
O366 C368 1.248 . S
Mg367 O366 2.028 . S
Mg367 O372 2.032 . S
Mg367 O374 2.079 . S
C368 O365 1.250 . S
C368 O366 1.248 . S
C369 O370 1.264 . S
C369 O377 1.249 . S
O370 C369 1.264 . S
O371 Mg364 1.986 . S
O371 C375 1.246 . S
O372 Mg367 2.032 . S
O372 C375 1.259 . S
O373 Mg364 2.114 . S
O373 C376 1.252 . S
O374 Mg364 2.251 . S
O374 Mg367 2.079 . S
O374 C376 1.273 . S
C375 O371 1.246 . S
C375 O372 1.259 . S
C376 O373 1.252 . S
C376 O374 1.273 . S
O377 Mg364 2.010 1_554 S
O377 C369 1.249 . S
Mg378 O379 2.028 . S
Mg378 O385 1.986 . S
Mg378 O387 2.114 . S
Mg378 O388 2.251 . S
Mg378 O391 2.010 . S
O379 Mg378 2.028 . S
O379 C382 1.250 . S
O380 Mg381 2.028 . S
O380 C382 1.248 . S
Mg381 O380 2.028 . S
Mg381 O386 2.032 . S
Mg381 O388 2.079 . S
C382 O379 1.250 . S
C382 O380 1.248 . S
C383 O384 1.264 . S
C383 O391 1.249 . S
O384 C383 1.264 . S
O385 Mg378 1.986 . S
O385 C389 1.246 . S
O386 Mg381 2.032 . S
O386 C389 1.259 . S
O387 Mg378 2.114 . S
O387 C390 1.252 . S
O388 Mg378 2.251 . S
O388 Mg381 2.079 . S
O388 C390 1.273 . S
C389 O385 1.246 . S
C389 O386 1.259 . S
C390 O387 1.252 . S
C390 O388 1.273 . S
O391 Mg378 2.010 . S
O391 C383 1.249 . S
Mg392 O393 2.028 . S
Mg392 O399 1.986 . S
Mg392 O401 2.114 . S
Mg392 O402 2.251 . S
Mg392 O405 2.010 1_554 S
O393 Mg392 2.028 . S
O393 C396 1.250 . S
O394 Mg395 2.028 . S
O394 C396 1.248 . S
Mg395 O394 2.028 . S
Mg395 O400 2.032 . S
Mg395 O402 2.079 . S
C396 O393 1.250 . S
C396 O394 1.248 . S
C397 O398 1.264 . S
C397 O405 1.249 . S
O398 C397 1.264 . S
O399 Mg392 1.986 . S
O399 C403 1.246 . S
O400 Mg395 2.032 . S
O400 C403 1.259 . S
O401 Mg392 2.114 . S
O401 C404 1.252 . S
O402 Mg392 2.251 . S
O402 Mg395 2.079 . S
O402 C404 1.273 . S
C403 O399 1.246 . S
C403 O400 1.259 . S
C404 O401 1.252 . S
C404 O402 1.273 . S
O405 Mg392 2.010 1_556 S
O405 C397 1.249 . S
Mg406 O407 2.028 . S
Mg406 O413 1.986 . S
Mg406 O415 2.114 . S
Mg406 O416 2.251 . S
Mg406 O419 2.010 . S
O407 Mg406 2.028 . S
O407 C410 1.250 . S
O408 Mg409 2.028 . S
O408 C410 1.248 . S
Mg409 O408 2.028 . S
Mg409 O414 2.032 . S
Mg409 O416 2.079 . S
C410 O407 1.250 . S
C410 O408 1.248 . S
C411 O412 1.264 . S
C411 O419 1.249 . S
O412 C411 1.264 . S
O413 Mg406 1.986 . S
O413 C417 1.246 . S
O414 Mg409 2.032 . S
O414 C417 1.259 . S
O415 Mg406 2.114 . S
O415 C418 1.252 . S
O416 Mg406 2.251 . S
O416 Mg409 2.079 . S
O416 C418 1.273 . S
C417 O413 1.246 . S
C417 O414 1.259 . S
C418 O415 1.252 . S
C418 O416 1.273 . S
O419 Mg406 2.010 . S
O419 C411 1.249 . S
Mg420 O421 2.028 . S
Mg420 O427 1.986 . S
Mg420 O429 2.114 . S
Mg420 O430 2.251 . S
Mg420 O433 2.010 . S
O421 Mg420 2.028 . S
O421 C424 1.250 . S
O422 Mg423 2.028 . S
O422 C424 1.248 . S
Mg423 O422 2.028 . S
Mg423 O428 2.032 . S
Mg423 O430 2.079 . S
C424 O421 1.250 . S
C424 O422 1.248 . S
C425 O426 1.264 . S
C425 O433 1.249 . S
O426 C425 1.264 . S
O427 Mg420 1.986 . S
O427 C431 1.246 . S
O428 Mg423 2.032 . S
O428 C431 1.259 . S
O429 Mg420 2.114 . S
O429 C432 1.252 . S
O430 Mg420 2.251 . S
O430 Mg423 2.079 . S
O430 C432 1.273 . S
C431 O427 1.246 . S
C431 O428 1.259 . S
C432 O429 1.252 . S
C432 O430 1.273 . S
O433 Mg420 2.010 . S
O433 C425 1.249 . S
Mg434 O435 2.028 . S
Mg434 O441 1.986 . S
Mg434 O443 2.114 . S
Mg434 O444 2.251 . S
Mg434 O447 2.010 . S
O435 Mg434 2.028 . S
O435 C438 1.250 . S
O436 Mg437 2.028 . S
O436 C438 1.248 . S
Mg437 O436 2.028 . S
Mg437 O442 2.032 . S
Mg437 O444 2.079 . S
C438 O435 1.250 . S
C438 O436 1.248 . S
C439 O440 1.264 . S
C439 O447 1.249 . S
O440 C439 1.264 . S
O441 Mg434 1.986 . S
O441 C445 1.246 . S
O442 Mg437 2.032 . S
O442 C445 1.259 . S
O443 Mg434 2.114 . S
O443 C446 1.252 . S
O444 Mg434 2.251 . S
O444 Mg437 2.079 . S
O444 C446 1.273 . S
C445 O441 1.246 . S
C445 O442 1.259 . S
C446 O443 1.252 . S
C446 O444 1.273 . S
O447 Mg434 2.010 . S
O447 C439 1.249 . S
C448 C449 1.387 . S
C448 H452 0.950 . S
C448 C457 1.390 1_556 S
C449 C448 1.387 . S
C449 C451 1.387 . S
H450 C457 0.950 . S
C451 C449 1.387 . S
C451 C453 1.390 1_556 S
C451 H455 0.950 . S
H452 C448 0.950 . S
C453 C451 1.390 1_554 S
C453 C454 1.387 . S
C453 H456 0.950 . S
C454 C453 1.387 . S
C454 C457 1.387 . S
H455 C451 0.950 . S
H456 C453 0.950 . S
C457 C448 1.390 1_554 S
C457 H450 0.950 . S
C457 C454 1.387 . S
C458 C459 1.387 . S
C458 H462 0.950 . S
C458 C467 1.390 1_565 S
C459 C458 1.387 . S
C459 C461 1.387 . S
H460 C467 0.950 . S
C461 C459 1.387 . S
C461 C463 1.390 1_565 S
C461 H465 0.950 . S
H462 C458 0.950 . S
C463 C461 1.390 1_545 S
C463 C464 1.387 . S
C463 H466 0.950 . S
C464 C463 1.387 . S
C464 C467 1.387 . S
H465 C461 0.950 . S
H466 C463 0.950 . S
C467 C458 1.390 1_545 S
C467 H460 0.950 . S
C467 C464 1.387 . S
C468 C469 1.387 . S
C468 H472 0.950 . S
C468 C477 1.390 . S
C469 C468 1.387 . S
C469 C471 1.387 . S
H470 C477 0.950 . S
C471 C469 1.387 . S
C471 C473 1.390 . S
C471 H475 0.950 . S
H472 C468 0.950 . S
C473 C471 1.390 . S
C473 C474 1.387 . S
C473 H476 0.950 . S
C474 C473 1.387 . S
C474 C477 1.387 . S
H475 C471 0.950 . S
H476 C473 0.950 . S
C477 C468 1.390 . S
C477 H470 0.950 . S
C477 C474 1.387 . S
C478 C479 1.387 . S
C478 H482 0.950 . S
C478 C487 1.390 1_545 S
C479 C478 1.387 . S
C479 C481 1.387 . S
H480 C487 0.950 . S
C481 C479 1.387 . S
C481 C483 1.390 1_545 S
C481 H485 0.950 . S
H482 C478 0.950 . S
C483 C481 1.390 1_565 S
C483 C484 1.387 . S
C483 H486 0.950 . S
C484 C483 1.387 . S
C484 C487 1.387 . S
H485 C481 0.950 . S
H486 C483 0.950 . S
C487 C478 1.390 1_565 S
C487 H480 0.950 . S
C487 C484 1.387 . S
C488 C489 1.387 . S
C488 H492 0.950 . S
C488 C497 1.390 1_554 S
C489 C488 1.387 . S
C489 C491 1.387 . S
H490 C497 0.950 . S
C491 C489 1.387 . S
C491 C493 1.390 1_554 S
C491 H495 0.950 . S
H492 C488 0.950 . S
C493 C491 1.390 1_556 S
C493 C494 1.387 . S
C493 H496 0.950 . S
C494 C493 1.387 . S
C494 C497 1.387 . S
H495 C491 0.950 . S
H496 C493 0.950 . S
C497 C488 1.390 1_556 S
C497 H490 0.950 . S
C497 C494 1.387 . S
C498 C499 1.387 . S
C498 H502 0.950 . S
C498 C507 1.390 1_565 S
C499 C498 1.387 . S
C499 C501 1.387 . S
H500 C507 0.950 . S
C501 C499 1.387 . S
C501 C503 1.390 1_565 S
C501 H505 0.950 . S
H502 C498 0.950 . S
C503 C501 1.390 1_545 S
C503 C504 1.387 . S
C503 H506 0.950 . S
C504 C503 1.387 . S
C504 C507 1.387 . S
H505 C501 0.950 . S
H506 C503 0.950 . S
C507 C498 1.390 1_545 S
C507 H500 0.950 . S
C507 C504 1.387 . S
C508 C509 1.387 . S
C508 H512 0.950 . S
C508 C517 1.390 . S
C509 C508 1.387 . S
C509 C511 1.387 . S
H510 C517 0.950 . S
C511 C509 1.387 . S
C511 C513 1.390 . S
C511 H515 0.950 . S
H512 C508 0.950 . S
C513 C511 1.390 . S
C513 C514 1.387 . S
C513 H516 0.950 . S
C514 C513 1.387 . S
C514 C517 1.387 . S
H515 C511 0.950 . S
H516 C513 0.950 . S
C517 C508 1.390 . S
C517 H510 0.950 . S
C517 C514 1.387 . S
C518 C519 1.387 . S
C518 H522 0.950 . S
C518 C527 1.390 1_565 S
C519 C518 1.387 . S
C519 C521 1.387 . S
H520 C527 0.950 . S
C521 C519 1.387 . S
C521 C523 1.390 1_565 S
C521 H525 0.950 . S
H522 C518 0.950 . S
C523 C521 1.390 1_545 S
C523 C524 1.387 . S
C523 H526 0.950 . S
C524 C523 1.387 . S
C524 C527 1.387 . S
H525 C521 0.950 . S
H526 C523 0.950 . S
C527 C518 1.390 1_545 S
C527 H520 0.950 . S
C527 C524 1.387 . S
C528 C529 1.387 . S
C528 H532 0.950 . S
C528 C537 1.390 . S
C529 C528 1.387 . S
C529 C531 1.387 . S
H530 C537 0.950 . S
C531 C529 1.387 . S
C531 C533 1.390 . S
C531 H535 0.950 . S
H532 C528 0.950 . S
C533 C531 1.390 . S
C533 C534 1.387 . S
C533 H536 0.950 . S
C534 C533 1.387 . S
C534 C537 1.387 . S
H535 C531 0.950 . S
H536 C533 0.950 . S
C537 C528 1.390 . S
C537 H530 0.950 . S
C537 C534 1.387 . S
C538 C539 1.387 . S
C538 H542 0.950 . S
C538 C547 1.390 . S
C539 C538 1.387 . S
C539 C541 1.387 . S
H540 C547 0.950 . S
C541 C539 1.387 . S
C541 C543 1.390 . S
C541 H545 0.950 . S
H542 C538 0.950 . S
C543 C541 1.390 . S
C543 C544 1.387 . S
C543 H546 0.950 . S
C544 C543 1.387 . S
C544 C547 1.387 . S
H545 C541 0.950 . S
H546 C543 0.950 . S
C547 C538 1.390 . S
C547 H540 0.950 . S
C547 C544 1.387 . S
C548 C549 1.387 . S
C548 H552 0.950 . S
C548 C557 1.390 1_556 S
C549 C548 1.387 . S
C549 C551 1.387 . S
H550 C557 0.950 . S
C551 C549 1.387 . S
C551 C553 1.390 1_556 S
C551 H555 0.950 . S
H552 C548 0.950 . S
C553 C551 1.390 1_554 S
C553 C554 1.387 . S
C553 H556 0.950 . S
C554 C553 1.387 . S
C554 C557 1.387 . S
H555 C551 0.950 . S
H556 C553 0.950 . S
C557 C548 1.390 1_554 S
C557 H550 0.950 . S
C557 C554 1.387 . S
C558 C559 1.387 . S
C558 H562 0.950 . S
C558 C567 1.390 . S
C559 C558 1.387 . S
C559 C561 1.387 . S
H560 C567 0.950 . S
C561 C559 1.387 . S
C561 C563 1.390 . S
C561 H565 0.950 . S
H562 C558 0.950 . S
C563 C561 1.390 . S
C563 C564 1.387 . S
C563 H566 0.950 . S
C564 C563 1.387 . S
C564 C567 1.387 . S
H565 C561 0.950 . S
H566 C563 0.950 . S
C567 C558 1.390 . S
C567 H560 0.950 . S
C567 C564 1.387 . S
C568 C569 1.387 . S
C568 H572 0.950 . S
C568 C577 1.390 . S
C569 C568 1.387 . S
C569 C571 1.387 . S
H570 C577 0.950 . S
C571 C569 1.387 . S
C571 C573 1.390 . S
C571 H575 0.950 . S
H572 C568 0.950 . S
C573 C571 1.390 . S
C573 C574 1.387 . S
C573 H576 0.950 . S
C574 C573 1.387 . S
C574 C577 1.387 . S
H575 C571 0.950 . S
H576 C573 0.950 . S
C577 C568 1.390 . S
C577 H570 0.950 . S
C577 C574 1.387 . S
C578 C579 1.387 . S
C578 H582 0.950 . S
C578 C587 1.390 . S
C579 C578 1.387 . S
C579 C581 1.387 . S
H580 C587 0.950 . S
C581 C579 1.387 . S
C581 C583 1.390 . S
C581 H585 0.950 . S
H582 C578 0.950 . S
C583 C581 1.390 . S
C583 C584 1.387 . S
C583 H586 0.950 . S
C584 C583 1.387 . S
C584 C587 1.387 . S
H585 C581 0.950 . S
H586 C583 0.950 . S
C587 C578 1.390 . S
C587 H580 0.950 . S
C587 C584 1.387 . S
C588 C589 1.387 . S
C588 H592 0.950 . S
C588 C597 1.390 1_554 S
C589 C588 1.387 . S
C589 C591 1.387 . S
H590 C597 0.950 . S
C591 C589 1.387 . S
C591 C593 1.390 1_554 S
C591 H595 0.950 . S
H592 C588 0.950 . S
C593 C591 1.390 1_556 S
C593 C594 1.387 . S
C593 H596 0.950 . S
C594 C593 1.387 . S
C594 C597 1.387 . S
H595 C591 0.950 . S
H596 C593 0.950 . S
C597 C588 1.390 1_556 S
C597 H590 0.950 . S
C597 C594 1.387 . S
C598 C599 1.387 . S
C598 H602 0.950 . S
C598 C607 1.390 . S
C599 C598 1.387 . S
C599 C601 1.387 . S
H600 C607 0.950 . S
C601 C599 1.387 . S
C601 C603 1.390 . S
C601 H605 0.950 . S
H602 C598 0.950 . S
C603 C601 1.390 . S
C603 C604 1.387 . S
C603 H606 0.950 . S
C604 C603 1.387 . S
C604 C607 1.387 . S
H605 C601 0.950 . S
H606 C603 0.950 . S
C607 C598 1.390 . S
C607 H600 0.950 . S
C607 C604 1.387 . S
C608 C609 1.387 . S
C608 H612 0.950 . S
C608 C617 1.390 . S
C609 C608 1.387 . S
C609 C611 1.387 . S
H610 C617 0.950 . S
C611 C609 1.387 . S
C611 C613 1.390 . S
C611 H615 0.950 . S
H612 C608 0.950 . S
C613 C611 1.390 . S
C613 C614 1.387 . S
C613 H616 0.950 . S
C614 C613 1.387 . S
C614 C617 1.387 . S
H615 C611 0.950 . S
H616 C613 0.950 . S
C617 C608 1.390 . S
C617 H610 0.950 . S
C617 C614 1.387 . S
C618 C619 1.387 1_554 S
C618 H622 0.950 . S
C618 C627 1.390 1_455 S
C619 C618 1.387 1_556 S
C619 C621 1.387 . S
H620 C627 0.950 . S
C621 C619 1.387 . S
C621 C623 1.390 1_456 S
C621 H625 0.950 . S
H622 C618 0.950 . S
C623 C621 1.390 1_654 S
C623 C624 1.387 . S
C623 H626 0.950 . S
C624 C623 1.387 . S
C624 C627 1.387 . S
H625 C621 0.950 . S
H626 C623 0.950 . S
C627 C618 1.390 1_655 S
C627 H620 0.950 . S
C627 C624 1.387 . S
C628 C629 1.387 . S
C628 H632 0.950 . S
C628 C637 1.390 . S
C629 C628 1.387 . S
C629 C631 1.387 . S
H630 C637 0.950 . S
C631 C629 1.387 . S
C631 C633 1.390 . S
C631 H635 0.950 . S
H632 C628 0.950 . S
C633 C631 1.390 . S
C633 C634 1.387 . S
C633 H636 0.950 . S
C634 C633 1.387 . S
C634 C637 1.387 . S
H635 C631 0.950 . S
H636 C633 0.950 . S
C637 C628 1.390 . S
C637 H630 0.950 . S
C637 C634 1.387 . S
C638 C639 1.387 . S
C638 H642 0.950 . S
C638 C647 1.390 . S
C639 C638 1.387 . S
C639 C641 1.387 . S
H640 C647 0.950 . S
C641 C639 1.387 . S
C641 C643 1.390 . S
C641 H645 0.950 . S
H642 C638 0.950 . S
C643 C641 1.390 . S
C643 C644 1.387 . S
C643 H646 0.950 . S
C644 C643 1.387 . S
C644 C647 1.387 . S
H645 C641 0.950 . S
H646 C643 0.950 . S
C647 C638 1.390 . S
C647 H640 0.950 . S
C647 C644 1.387 . S
C648 C649 1.387 . S
C648 H652 0.950 . S
C648 C657 1.390 . S
C649 C648 1.387 . S
C649 C651 1.387 . S
H650 C657 0.950 . S
C651 C649 1.387 . S
C651 C653 1.390 . S
C651 H655 0.950 . S
H652 C648 0.950 . S
C653 C651 1.390 . S
C653 C654 1.387 . S
C653 H656 0.950 . S
C654 C653 1.387 . S
C654 C657 1.387 . S
H655 C651 0.950 . S
H656 C653 0.950 . S
C657 C648 1.390 . S
C657 H650 0.950 . S
C657 C654 1.387 . S
C658 C659 1.387 1_556 S
C658 H662 0.950 . S
C658 C667 1.390 . S
C659 C658 1.387 1_554 S
C659 C661 1.387 . S
H660 C667 0.950 . S
C661 C659 1.387 . S
C661 C663 1.390 1_554 S
C661 H665 0.950 . S
H662 C658 0.950 . S
C663 C661 1.390 1_556 S
C663 C664 1.387 . S
C663 H666 0.950 . S
C664 C663 1.387 . S
C664 C667 1.387 . S
H665 C661 0.950 . S
H666 C663 0.950 . S
C667 C658 1.390 . S
C667 H660 0.950 . S
C667 C664 1.387 . S
C668 C669 1.387 . S
C668 H672 0.950 . S
C668 C677 1.390 . S
C669 C668 1.387 . S
C669 C671 1.387 . S
H670 C677 0.950 . S
C671 C669 1.387 . S
C671 C673 1.390 . S
C671 H675 0.950 . S
H672 C668 0.950 . S
C673 C671 1.390 . S
C673 C674 1.387 . S
C673 H676 0.950 . S
C674 C673 1.387 . S
C674 C677 1.387 . S
H675 C671 0.950 . S
H676 C673 0.950 . S
C677 C668 1.390 . S
C677 H670 0.950 . S
C677 C674 1.387 . S
C678 C679 1.387 . S
C678 H682 0.950 . S
C678 C687 1.390 1_455 S
C679 C678 1.387 . S
C679 C681 1.387 . S
H680 C687 0.950 . S
C681 C679 1.387 . S
C681 C683 1.390 1_455 S
C681 H685 0.950 . S
H682 C678 0.950 . S
C683 C681 1.390 1_655 S
C683 C684 1.387 . S
C683 H686 0.950 . S
C684 C683 1.387 . S
C684 C687 1.387 . S
H685 C681 0.950 . S
H686 C683 0.950 . S
C687 C678 1.390 1_655 S
C687 H680 0.950 . S
C687 C684 1.387 . S
C688 C689 1.387 . S
C688 H692 0.950 . S
C688 C697 1.390 . S
C689 C688 1.387 . S
C689 C691 1.387 . S
H690 C697 0.950 . S
C691 C689 1.387 . S
C691 C693 1.390 . S
C691 H695 0.950 . S
H692 C688 0.950 . S
C693 C691 1.390 . S
C693 C694 1.387 . S
C693 H696 0.950 . S
C694 C693 1.387 . S
C694 C697 1.387 . S
H695 C691 0.950 . S
H696 C693 0.950 . S
C697 C688 1.390 . S
C697 H690 0.950 . S
C697 C694 1.387 . S
C698 C699 1.387 1_456 S
C698 H702 0.949 1_556 S
C698 C707 1.392 . S
C699 C698 1.387 1_654 S
C699 C701 1.387 1_554 S
H700 C707 0.950 . S
C701 C699 1.387 1_556 S
C701 C703 1.390 . S
C701 H705 0.950 . S
H702 C698 0.949 1_554 S
C703 C701 1.390 . S
C703 C704 1.387 1_655 S
C703 H706 0.950 . S
C704 C703 1.387 1_455 S
C704 C707 1.387 . S
H705 C701 0.950 . S
H706 C703 0.950 . S
C707 C698 1.392 . S
C707 H700 0.950 . S
C707 C704 1.387 . S
C708 C709 1.387 . S
C708 H712 0.950 . S
C708 C717 1.390 . S
C709 C708 1.387 . S
C709 C711 1.387 . S
H710 C717 0.950 . S
C711 C709 1.387 . S
C711 C713 1.390 . S
C711 H715 0.950 . S
H712 C708 0.950 . S
C713 C711 1.390 . S
C713 C714 1.387 . S
C713 H716 0.950 . S
C714 C713 1.387 . S
C714 C717 1.387 . S
H715 C711 0.950 . S
H716 C713 0.950 . S
C717 C708 1.390 . S
C717 H710 0.950 . S
C717 C714 1.387 . S
C718 C719 1.387 . S
C718 H722 0.950 . S
C718 C727 1.390 . S
C719 C718 1.387 . S
C719 C721 1.387 . S
H720 C727 0.950 . S
C721 C719 1.387 . S
C721 C723 1.390 . S
C721 H725 0.950 . S
H722 C718 0.950 . S
C723 C721 1.390 . S
C723 C724 1.387 . S
C723 H726 0.950 . S
C724 C723 1.387 . S
C724 C727 1.387 . S
H725 C721 0.950 . S
H726 C723 0.950 . S
C727 C718 1.390 . S
C727 H720 0.950 . S
C727 C724 1.387 . S
C728 C729 1.387 . S
C728 H732 0.950 . S
C728 C737 1.390 . S
C729 C728 1.387 . S
C729 C731 1.387 . S
H730 C737 0.950 . S
C731 C729 1.387 . S
C731 C733 1.390 . S
C731 H735 0.950 . S
H732 C728 0.950 . S
C733 C731 1.390 . S
C733 C734 1.387 . S
C733 H736 0.950 . S
C734 C733 1.387 . S
C734 C737 1.387 . S
H735 C731 0.950 . S
H736 C733 0.950 . S
C737 C728 1.390 . S
C737 H730 0.950 . S
C737 C734 1.387 . S
C738 C739 1.387 . S
C738 H742 0.950 . S
C738 C747 1.390 . S
C739 C738 1.387 . S
C739 C741 1.387 . S
H740 C747 0.950 . S
C741 C739 1.387 . S
C741 C743 1.390 . S
C741 H745 0.950 . S
H742 C738 0.950 . S
C743 C741 1.390 . S
C743 C744 1.387 1_554 S
C743 H746 0.950 1_554 S
C744 C743 1.387 1_556 S
C744 C747 1.387 1_556 S
H745 C741 0.950 . S
H746 C743 0.950 1_556 S
C747 C738 1.390 . S
C747 H740 0.950 . S
C747 C744 1.387 1_554 S
C748 C749 1.387 . S
C748 H752 0.950 . S
C748 C757 1.390 . S
C749 C748 1.387 . S
C749 C751 1.387 . S
H750 C757 0.950 . S
C751 C749 1.387 . S
C751 C753 1.390 . S
C751 H755 0.950 . S
H752 C748 0.950 . S
C753 C751 1.390 . S
C753 C754 1.387 . S
C753 H756 0.950 . S
C754 C753 1.387 . S
C754 C757 1.387 . S
H755 C751 0.950 . S
H756 C753 0.950 . S
C757 C748 1.390 . S
C757 H750 0.950 . S
C757 C754 1.387 . S
C758 C759 1.387 . S
C758 H762 0.950 . S
C758 C767 1.390 1_655 S
C759 C758 1.387 . S
C759 C761 1.387 . S
H760 C767 0.950 . S
C761 C759 1.387 . S
C761 C763 1.390 1_655 S
C761 H765 0.950 . S
H762 C758 0.950 . S
C763 C761 1.390 1_455 S
C763 C764 1.387 . S
C763 H766 0.950 . S
C764 C763 1.387 . S
C764 C767 1.387 . S
H765 C761 0.950 . S
H766 C763 0.950 . S
C767 C758 1.390 1_455 S
C767 H760 0.950 . S
C767 C764 1.387 . S
C768 C769 1.387 . S
C768 H772 0.950 . S
C768 C777 1.390 . S
C769 C768 1.387 . S
C769 C771 1.387 . S
H770 C777 0.950 . S
C771 C769 1.387 . S
C771 C773 1.390 . S
C771 H775 0.950 . S
H772 C768 0.950 . S
C773 C771 1.390 . S
C773 C774 1.387 . S
C773 H776 0.950 . S
C774 C773 1.387 . S
C774 C777 1.387 . S
H775 C771 0.950 . S
H776 C773 0.950 . S
C777 C768 1.390 . S
C777 H770 0.950 . S
C777 C774 1.387 . S
C778 C779 1.387 . S
C778 H782 0.950 . S
C778 C787 1.390 . S
C779 C778 1.387 . S
C779 C781 1.387 . S
H780 C787 0.950 . S
C781 C779 1.387 . S
C781 C783 1.390 . S
C781 H785 0.950 . S
H782 C778 0.950 . S
C783 C781 1.390 . S
C783 C784 1.387 . S
C783 H786 0.950 . S
C784 C783 1.387 . S
C784 C787 1.387 . S
H785 C781 0.950 . S
H786 C783 0.950 . S
C787 C778 1.390 . S
C787 H780 0.950 . S
C787 C784 1.387 . S
C788 C789 1.387 . S
C788 H792 0.950 . S
C788 C797 1.390 . S
C789 C788 1.387 . S
C789 C791 1.387 . S
H790 C797 0.950 . S
C791 C789 1.387 . S
C791 C793 1.390 . S
C791 H795 0.950 . S
H792 C788 0.950 . S
C793 C791 1.390 . S
C793 C794 1.387 . S
C793 H796 0.950 . S
C794 C793 1.387 . S
C794 C797 1.387 . S
H795 C791 0.950 . S
H796 C793 0.950 . S
C797 C788 1.390 . S
C797 H790 0.950 . S
C797 C794 1.387 . S
C798 C799 1.387 . S
C798 H802 0.950 . S
C798 C807 1.390 1_455 S
C799 C798 1.387 . S
C799 C801 1.387 . S
H800 C807 0.950 1_556 S
C801 C799 1.387 . S
C801 C803 1.390 1_455 S
C801 H805 0.950 . S
H802 C798 0.950 . S
C803 C801 1.390 1_655 S
C803 C804 1.387 1_554 S
C803 H806 0.950 1_554 S
C804 C803 1.387 1_556 S
C804 C807 1.387 1_556 S
H805 C801 0.950 . S
H806 C803 0.950 1_556 S
C807 C798 1.390 1_655 S
C807 H800 0.950 1_554 S
C807 C804 1.387 1_554 S
C808 C809 1.387 . S
C808 H812 0.950 . S
C808 C817 1.390 . S
C809 C808 1.387 . S
C809 C811 1.387 . S
H810 C817 0.950 . S
C811 C809 1.387 . S
C811 C813 1.390 . S
C811 H815 0.950 . S
H812 C808 0.950 . S
C813 C811 1.390 . S
C813 C814 1.387 . S
C813 H816 0.950 . S
C814 C813 1.387 . S
C814 C817 1.387 . S
H815 C811 0.950 . S
H816 C813 0.950 . S
C817 C808 1.390 . S
C817 H810 0.950 . S
C817 C814 1.387 . S
C818 C819 1.387 . S
C818 H822 0.950 . S
C818 C827 1.390 1_655 S
C819 C818 1.387 . S
C819 C821 1.387 . S
H820 C827 0.950 . S
C821 C819 1.387 . S
C821 C823 1.390 1_655 S
C821 H825 0.950 . S
H822 C818 0.950 . S
C823 C821 1.390 1_455 S
C823 C824 1.387 . S
C823 H826 0.950 . S
C824 C823 1.387 . S
C824 C827 1.387 . S
H825 C821 0.950 . S
H826 C823 0.950 . S
C827 C818 1.390 1_455 S
C827 H820 0.950 . S
C827 C824 1.387 . S
C828 C829 1.387 . S
C828 H832 0.950 . S
C828 C837 1.390 . S
C829 C828 1.387 . S
C829 C831 1.387 . S
H830 C837 0.950 . S
C831 C829 1.387 . S
C831 C833 1.390 . S
C831 H835 0.950 . S
H832 C828 0.950 . S
C833 C831 1.390 . S
C833 C834 1.387 . S
C833 H836 0.950 . S
C834 C833 1.387 . S
C834 C837 1.387 . S
H835 C831 0.950 . S
H836 C833 0.950 . S
C837 C828 1.390 . S
C837 H830 0.950 . S
C837 C834 1.387 . S
C838 C839 1.387 1_556 S
C838 H842 0.950 . S
C838 C847 1.390 . S
C839 C838 1.387 1_554 S
C839 C841 1.387 . S
H840 C847 0.950 . S
C841 C839 1.387 . S
C841 C843 1.390 1_554 S
C841 H845 0.950 . S
H842 C838 0.950 . S
C843 C841 1.390 1_556 S
C843 C844 1.387 . S
C843 H846 0.950 . S
C844 C843 1.387 . S
C844 C847 1.387 . S
H845 C841 0.950 . S
H846 C843 0.950 . S
C847 C838 1.390 . S
C847 H840 0.950 . S
C847 C844 1.387 . S
C848 C849 1.387 . S
C848 H852 0.950 . S
C848 C857 1.390 . S
C849 C848 1.387 . S
C849 C851 1.387 . S
H850 C857 0.950 . S
C851 C849 1.387 . S
C851 C853 1.390 . S
C851 H855 0.950 . S
H852 C848 0.950 . S
C853 C851 1.390 . S
C853 C854 1.387 . S
C853 H856 0.950 . S
C854 C853 1.387 . S
C854 C857 1.387 . S
H855 C851 0.950 . S
H856 C853 0.950 . S
C857 C848 1.390 . S
C857 H850 0.950 . S
C857 C854 1.387 . S
C858 C859 1.387 . S
C858 H862 0.950 . S
C858 C867 1.390 . S
C859 C858 1.387 . S
C859 C861 1.387 . S
H860 C867 0.950 . S
C861 C859 1.387 . S
C861 C863 1.390 . S
C861 H865 0.950 . S
H862 C858 0.950 . S
C863 C861 1.390 . S
C863 C864 1.387 . S
C863 H866 0.950 . S
C864 C863 1.387 . S
C864 C867 1.387 . S
H865 C861 0.950 . S
H866 C863 0.950 . S
C867 C858 1.390 . S
C867 H860 0.950 . S
C867 C864 1.387 . S
C868 C869 1.387 . S
C868 H872 0.950 . S
C868 C877 1.390 . S
C869 C868 1.387 . S
C869 C871 1.387 . S
H870 C877 0.950 . S
C871 C869 1.387 . S
C871 C873 1.390 . S
C871 H875 0.950 . S
H872 C868 0.950 . S
C873 C871 1.390 . S
C873 C874 1.387 . S
C873 H876 0.950 . S
C874 C873 1.387 . S
C874 C877 1.387 . S
H875 C871 0.950 . S
H876 C873 0.950 . S
C877 C868 1.390 . S
C877 H870 0.950 . S
C877 C874 1.387 . S
C878 C879 1.387 . S
C878 H882 0.950 . S
C878 C887 1.390 1_656 S
C879 C878 1.387 . S
C879 C881 1.387 . S
H880 C887 0.950 . S
C881 C879 1.387 . S
C881 C883 1.390 1_655 S
C881 H885 0.950 . S
H882 C878 0.950 . S
C883 C881 1.390 1_455 S
C883 C884 1.387 1_556 S
C883 H886 0.950 . S
C884 C883 1.387 1_554 S
C884 C887 1.387 . S
H885 C881 0.950 . S
H886 C883 0.950 . S
C887 C878 1.390 1_454 S
C887 H880 0.950 . S
C887 C884 1.387 . S
C888 C889 1.387 . S
C888 H892 0.950 . S
C888 C897 1.390 . S
C889 C888 1.387 . S
C889 C891 1.387 . S
H890 C897 0.950 . S
C891 C889 1.387 . S
C891 C893 1.390 . S
C891 H895 0.950 . S
H892 C888 0.950 . S
C893 C891 1.390 . S
C893 C894 1.387 . S
C893 H896 0.950 . S
C894 C893 1.387 . S
C894 C897 1.387 . S
H895 C891 0.950 . S
H896 C893 0.950 . S
C897 C888 1.390 . S
C897 H890 0.950 . S
C897 C894 1.387 . S
C898 C899 1.387 . S
C898 H902 0.950 . S
C898 C907 1.390 1_655 S
C899 C898 1.387 . S
C899 C901 1.387 . S
H900 C907 0.950 . S
C901 C899 1.387 . S
C901 C903 1.390 1_655 S
C901 H905 0.950 . S
H902 C898 0.950 . S
C903 C901 1.390 1_455 S
C903 C904 1.387 . S
C903 H906 0.950 . S
C904 C903 1.387 . S
C904 C907 1.387 . S
H905 C901 0.950 . S
H906 C903 0.950 . S
C907 C898 1.390 1_455 S
C907 H900 0.950 . S
C907 C904 1.387 . S
C908 C909 1.387 . S
C908 H912 0.950 . S
C908 C917 1.390 . S
C909 C908 1.387 . S
C909 C911 1.387 . S
H910 C917 0.950 . S
C911 C909 1.387 . S
C911 C913 1.390 . S
C911 H915 0.950 . S
H912 C908 0.950 . S
C913 C911 1.390 . S
C913 C914 1.387 . S
C913 H916 0.950 . S
C914 C913 1.387 . S
C914 C917 1.387 . S
H915 C911 0.950 . S
H916 C913 0.950 . S
C917 C908 1.390 . S
C917 H910 0.950 . S
C917 C914 1.387 . S
C918 C919 1.387 . S
C918 H922 0.950 . S
C918 C927 1.390 1_554 S
C919 C918 1.387 . S
C919 C921 1.387 . S
H920 C927 0.950 . S
C921 C919 1.387 . S
C921 C923 1.390 . S
C921 H925 0.950 . S
H922 C918 0.950 . S
C923 C921 1.390 . S
C923 C924 1.387 1_554 S
C923 H926 0.950 . S
C924 C923 1.387 1_556 S
C924 C927 1.387 . S
H925 C921 0.950 . S
H926 C923 0.950 . S
C927 C918 1.390 1_556 S
C927 H920 0.950 . S
C927 C924 1.387 . S
C928 C929 1.387 . S
C928 H932 0.950 . S
C928 C937 1.390 . S
C929 C928 1.387 . S
C929 C931 1.387 . S
H930 C937 0.950 . S
C931 C929 1.387 . S
C931 C933 1.390 . S
C931 H935 0.950 . S
H932 C928 0.950 . S
C933 C931 1.390 . S
C933 C934 1.387 . S
C933 H936 0.950 . S
C934 C933 1.387 . S
C934 C937 1.387 . S
H935 C931 0.950 . S
H936 C933 0.950 . S
C937 C928 1.390 . S
C937 H930 0.950 . S
C937 C934 1.387 . S
C938 C939 1.387 . S
C938 H942 0.950 . S
C938 C947 1.390 . S
C939 C938 1.387 . S
C939 C941 1.387 . S
H940 C947 0.950 . S
C941 C939 1.387 . S
C941 C943 1.390 . S
C941 H945 0.950 . S
H942 C938 0.950 . S
C943 C941 1.390 . S
C943 C944 1.387 . S
C943 H946 0.950 . S
C944 C943 1.387 . S
C944 C947 1.387 . S
H945 C941 0.950 . S
H946 C943 0.950 . S
C947 C938 1.390 . S
C947 H940 0.950 . S
C947 C944 1.387 . S
C948 C949 1.387 . S
C948 H952 0.950 . S
C948 C957 1.390 . S
C949 C948 1.387 . S
C949 C951 1.387 . S
H950 C957 0.950 . S
C951 C949 1.387 . S
C951 C953 1.390 . S
C951 H955 0.950 . S
H952 C948 0.950 . S
C953 C951 1.390 . S
C953 C954 1.387 . S
C953 H956 0.950 . S
C954 C953 1.387 . S
C954 C957 1.387 . S
H955 C951 0.950 . S
H956 C953 0.950 . S
C957 C948 1.390 . S
C957 H950 0.950 . S
C957 C954 1.387 . S
C958 C959 1.387 . S
C958 H962 0.950 . S
C958 C967 1.390 . S
C959 C958 1.387 . S
C959 C961 1.387 . S
H960 C967 0.950 . S
C961 C959 1.387 . S
C961 C963 1.390 . S
C961 H965 0.950 . S
H962 C958 0.950 . S
C963 C961 1.390 . S
C963 C964 1.387 . S
C963 H966 0.950 . S
C964 C963 1.387 . S
C964 C967 1.387 . S
H965 C961 0.950 . S
H966 C963 0.950 . S
C967 C958 1.390 . S
C967 H960 0.950 . S
C967 C964 1.387 . S
C968 C969 1.387 . S
C968 H972 0.950 . S
C968 C977 1.390 . S
C969 C968 1.387 . S
C969 C971 1.387 . S
H970 C977 0.950 . S
C971 C969 1.387 . S
C971 C973 1.390 . S
C971 H975 0.950 . S
H972 C968 0.950 . S
C973 C971 1.390 . S
C973 C974 1.387 . S
C973 H976 0.950 . S
C974 C973 1.387 . S
C974 C977 1.387 . S
H975 C971 0.950 . S
H976 C973 0.950 . S
C977 C968 1.390 . S
C977 H970 0.950 . S
C977 C974 1.387 . S
C978 C979 1.387 . S
C978 H982 0.950 . S
C978 C987 1.390 . S
C979 C978 1.387 . S
C979 C981 1.387 . S
H980 C987 0.950 . S
C981 C979 1.387 . S
C981 C983 1.390 . S
C981 H985 0.950 . S
H982 C978 0.950 . S
C983 C981 1.390 . S
C983 C984 1.387 . S
C983 H986 0.950 . S
C984 C983 1.387 . S
C984 C987 1.387 . S
H985 C981 0.950 . S
H986 C983 0.950 . S
C987 C978 1.390 . S
C987 H980 0.950 . S
C987 C984 1.387 . S
C988 C989 1.387 . S
C988 H992 0.950 . S
C988 C997 1.390 . S
C989 C988 1.387 . S
C989 C991 1.387 . S
H990 C997 0.950 . S
C991 C989 1.387 . S
C991 C993 1.390 . S
C991 H995 0.950 . S
H992 C988 0.950 . S
C993 C991 1.390 . S
C993 C994 1.387 . S
C993 H996 0.950 . S
C994 C993 1.387 . S
C994 C997 1.387 . S
H995 C991 0.950 . S
H996 C993 0.950 . S
C997 C988 1.390 . S
C997 H990 0.950 . S
C997 C994 1.387 . S
C998 C999 1.387 . S
C998 H1002 0.950 . S
C998 C1007 1.390 . S
C999 C998 1.387 . S
C999 C1001 1.387 . S
H1000 C1007 0.950 . S
C1001 C999 1.387 . S
C1001 C1003 1.390 . S
C1001 H1005 0.950 . S
H1002 C998 0.950 . S
C1003 C1001 1.390 . S
C1003 C1004 1.387 . S
C1003 H1006 0.950 . S
C1004 C1003 1.387 . S
C1004 C1007 1.387 . S
H1005 C1001 0.950 . S
H1006 C1003 0.950 . S
C1007 C998 1.390 . S
C1007 H1000 0.950 . S
C1007 C1004 1.387 . S
C1008 C1009 1.387 . S
C1008 H1012 0.950 . S
C1008 C1017 1.390 . S
C1009 C1008 1.387 . S
C1009 C1011 1.387 . S
H1010 C1017 0.950 . S
C1011 C1009 1.387 . S
C1011 C1013 1.390 . S
C1011 H1015 0.950 . S
H1012 C1008 0.950 . S
C1013 C1011 1.390 . S
C1013 C1014 1.387 . S
C1013 H1016 0.950 . S
C1014 C1013 1.387 . S
C1014 C1017 1.387 . S
H1015 C1011 0.950 . S
H1016 C1013 0.950 . S
C1017 C1008 1.390 . S
C1017 H1010 0.950 . S
C1017 C1014 1.387 . S
C1018 C1019 1.387 . S
C1018 H1022 0.950 . S
C1018 C1027 1.390 . S
C1019 C1018 1.387 . S
C1019 C1021 1.387 . S
H1020 C1027 0.950 . S
C1021 C1019 1.387 . S
C1021 C1023 1.390 . S
C1021 H1025 0.950 . S
H1022 C1018 0.950 . S
C1023 C1021 1.390 . S
C1023 C1024 1.387 . S
C1023 H1026 0.950 . S
C1024 C1023 1.387 . S
C1024 C1027 1.387 . S
H1025 C1021 0.950 . S
H1026 C1023 0.950 . S
C1027 C1018 1.390 . S
C1027 H1020 0.950 . S
C1027 C1024 1.387 . S
C1028 C1029 1.387 . S
C1028 H1032 0.950 . S
C1028 C1037 1.390 . S
C1029 C1028 1.387 . S
C1029 C1031 1.387 . S
H1030 C1037 0.950 . S
C1031 C1029 1.387 . S
C1031 C1033 1.390 . S
C1031 H1035 0.950 . S
H1032 C1028 0.950 . S
C1033 C1031 1.390 . S
C1033 C1034 1.387 . S
C1033 H1036 0.950 . S
C1034 C1033 1.387 . S
C1034 C1037 1.387 . S
H1035 C1031 0.950 . S
H1036 C1033 0.950 . S
C1037 C1028 1.390 . S
C1037 H1030 0.950 . S
C1037 C1034 1.387 . S
C1038 C1039 1.387 . S
C1038 H1042 0.950 . S
C1038 C1047 1.390 . S
C1039 C1038 1.387 . S
C1039 C1041 1.387 . S
H1040 C1047 0.950 . S
C1041 C1039 1.387 . S
C1041 C1043 1.390 . S
C1041 H1045 0.950 . S
H1042 C1038 0.950 . S
C1043 C1041 1.390 . S
C1043 C1044 1.387 . S
C1043 H1046 0.950 . S
C1044 C1043 1.387 . S
C1044 C1047 1.387 . S
H1045 C1041 0.950 . S
H1046 C1043 0.950 . S
C1047 C1038 1.390 . S
C1047 H1040 0.950 . S
C1047 C1044 1.387 . S
C1048 C1049 1.387 . S
C1048 H1052 0.950 . S
C1048 C1057 1.390 . S
C1049 C1048 1.387 . S
C1049 C1051 1.387 . S
H1050 C1057 0.950 . S
C1051 C1049 1.387 . S
C1051 C1053 1.390 . S
C1051 H1055 0.950 . S
H1052 C1048 0.950 . S
C1053 C1051 1.390 . S
C1053 C1054 1.387 . S
C1053 H1056 0.950 . S
C1054 C1053 1.387 . S
C1054 C1057 1.387 . S
H1055 C1051 0.950 . S
H1056 C1053 0.950 . S
C1057 C1048 1.390 . S
C1057 H1050 0.950 . S
C1057 C1054 1.387 . S
C1058 C1059 1.387 . S
C1058 H1062 0.950 . S
C1058 C1067 1.390 . S
C1059 C1058 1.387 . S
C1059 C1061 1.387 . S
H1060 C1067 0.950 . S
C1061 C1059 1.387 . S
C1061 C1063 1.390 . S
C1061 H1065 0.950 . S
H1062 C1058 0.950 . S
C1063 C1061 1.390 . S
C1063 C1064 1.387 . S
C1063 H1066 0.950 . S
C1064 C1063 1.387 . S
C1064 C1067 1.387 . S
H1065 C1061 0.950 . S
H1066 C1063 0.950 . S
C1067 C1058 1.390 . S
C1067 H1060 0.950 . S
C1067 C1064 1.387 . S
C1068 C1069 1.387 . S
C1068 H1072 0.950 . S
C1068 C1077 1.390 . S
C1069 C1068 1.387 . S
C1069 C1071 1.387 . S
H1070 C1077 0.950 . S
C1071 C1069 1.387 . S
C1071 C1073 1.390 . S
C1071 H1075 0.950 . S
H1072 C1068 0.950 . S
C1073 C1071 1.390 . S
C1073 C1074 1.387 . S
C1073 H1076 0.950 . S
C1074 C1073 1.387 . S
C1074 C1077 1.387 . S
H1075 C1071 0.950 . S
H1076 C1073 0.950 . S
C1077 C1068 1.390 . S
C1077 H1070 0.950 . S
C1077 C1074 1.387 . S
C1078 C1079 1.387 . S
C1078 H1082 0.950 . S
C1078 C1087 1.390 . S
C1079 C1078 1.387 . S
C1079 C1081 1.387 . S
H1080 C1087 0.950 . S
C1081 C1079 1.387 . S
C1081 C1083 1.390 . S
C1081 H1085 0.950 . S
H1082 C1078 0.950 . S
C1083 C1081 1.390 . S
C1083 C1084 1.387 . S
C1083 H1086 0.935 1_556 S
C1084 C1083 1.387 . S
C1084 C1087 1.387 . S
H1085 C1081 0.950 . S
H1086 C1083 0.935 1_554 S
C1087 C1078 1.390 . S
C1087 H1080 0.950 . S
C1087 C1084 1.387 . S
C449 C88 1.274 . S
C454 C4 1.274 . S
C459 C18 1.273 . S
C464 C102 1.273 . S
C469 C60 1.274 . S
C474 C32 1.273 . S
C479 C46 1.274 . S
C484 C74 1.274 . S
C489 C200 1.274 . S
C494 C116 1.274 . S
C499 C214 1.273 . S
C504 C130 1.273 . S
C509 C144 1.273 . S
C514 C172 1.274 . S
C519 C158 1.273 . S
C524 C186 1.273 . S
C529 C228 1.275 . S
C534 C312 1.275 . S
C539 C242 1.273 . S
C544 C326 1.273 . S
C549 C284 1.274 . S
C554 C256 1.274 . S
C559 C298 1.273 . S
C564 C270 1.273 . S
C569 C340 1.275 . S
C574 C424 1.275 . S
C579 C438 1.274 . S
C584 C354 1.274 . S
C589 C396 1.274 . S
C594 C368 1.274 . S
C599 C382 1.274 . S
C604 C410 1.274 . S
C609 C5 1.327 . S
C614 C432 1.462 . S
C619 C222 1.462 . S
C624 C19 1.329 . S
C629 C33 1.330 . S
C634 C404 1.461 . S
C639 C47 1.328 . S
C644 C194 1.462 . S
C649 C376 1.461 . S
C654 C61 1.326 . S
C659 C166 1.461 . S
C664 C75 1.329 . S
C669 C89 1.325 . S
C674 C348 1.462 . S
C679 C138 1.461 . S
C684 C103 1.325 . S
C689 C117 1.330 . S
C694 C320 1.461 . S
C699 C110 1.461 . S
C704 C131 1.326 . S
C709 C145 1.327 . S
C714 C292 1.462 . S
C719 C159 1.329 . S
C724 C82 1.462 . S
C729 C264 1.461 . S
C734 C173 1.325 . S
C739 C187 1.326 . S
C744 C54 1.461 . S
C749 C201 1.326 . S
C754 C236 1.461 . S
C759 C26 1.462 . S
C764 C215 1.328 . S
C769 C229 1.325 . S
C774 C208 1.461 . S
C779 C243 1.330 . S
C784 C446 1.462 . S
C789 C180 1.461 . S
C794 C257 1.325 . S
C799 C271 1.328 . S
C804 C418 1.462 . S
C809 C152 1.462 . S
C814 C285 1.325 . S
C819 C390 1.461 . S
C824 C299 1.326 . S
C829 C124 1.462 . S
C834 C313 1.325 . S
C839 C362 1.461 . S
C844 C327 1.327 . S
C849 C341 1.330 . S
C854 C96 1.461 . S
C859 C334 1.461 . S
C864 C355 1.330 . S
C869 C68 1.462 . S
C874 C369 1.325 . S
C879 C383 1.329 . S
C884 C306 1.462 . S
C889 C397 1.330 . S
C894 C40 1.461 . S
C899 C411 1.325 . S
C904 C278 1.461 . S
C909 C12 1.462 . S
C914 C425 1.326 . S
C919 C439 1.329 . S
C924 C250 1.462 . S
C929 C11 1.300 . S
C934 C305 1.300 . S
C939 C319 1.299 . S
C944 C25 1.299 . S
C949 C39 1.301 . S
C954 C333 1.301 . S
C959 C291 1.300 . S
C964 C53 1.300 . S
C969 C277 1.299 . S
C974 C67 1.299 . S
C979 C235 1.298 . S
C984 C81 1.298 . S
C989 C249 1.298 . S
C994 C95 1.298 . S
C999 C263 1.300 . S
C1004 C109 1.300 . S
C1009 C123 1.301 . S
C1014 C417 1.301 . S
C1019 C431 1.298 . S
C1024 C137 1.298 . S
C1029 C445 1.301 . S
C1034 C151 1.301 . S
C1039 C403 1.301 . S
C1044 C165 1.301 . S
C1049 C389 1.300 . S
C1054 C179 1.300 . S
C1059 C347 1.299 . S
C1064 C193 1.299 . S
C1069 C207 1.300 . S
C1074 C361 1.300 . S
C1079 C221 1.300 . S
C1084 C375 1.299 . S
