# Generated by pormake.
# Topology wme, (6)-cn, num edge types: 1
# Building blocks:
#     Node 0, Type 0, BuildingBlock: GEDQOX_clean_sbu_0, # of connection points: 6
#     Node 1, Type 0, BuildingBlock: GEDQOX_clean_sbu_0, # of connection points: 6
#     Node 2, Type 0, BuildingBlock: GEDQOX_clean_sbu_0, # of connection points: 6
#     Node 3, Type 0, BuildingBlock: GEDQOX_clean_sbu_0, # of connection points: 6
#     Node 4, Type 0, BuildingBlock: GEDQOX_clean_sbu_0, # of connection points: 6
#     Node 5, Type 0, BuildingBlock: GEDQOX_clean_sbu_0, # of connection points: 6
#     Node 6, Type 0, BuildingBlock: GEDQOX_clean_sbu_0, # of connection points: 6
#     Node 7, Type 0, BuildingBlock: GEDQOX_clean_sbu_0, # of connection points: 6
#     Node 8, Type 0, BuildingBlock: GEDQOX_clean_sbu_0, # of connection points: 6
#     Node 9, Type 0, BuildingBlock: GEDQOX_clean_sbu_0, # of connection points: 6
#     Node 10, Type 0, BuildingBlock: GEDQOX_clean_sbu_0, # of connection points: 6
#     Node 11, Type 0, BuildingBlock: GEDQOX_clean_sbu_0, # of connection points: 6
#     Edge 12, Type (0, 0), BuildingBlock: XUDNAN_clean_linker_2, # of connection points: 2
#     Edge 13, Type (0, 0), BuildingBlock: XUDNAN_clean_linker_2, # of connection points: 2
#     Edge 14, Type (0, 0), BuildingBlock: XUDNAN_clean_linker_2, # of connection points: 2
#     Edge 15, Type (0, 0), BuildingBlock: XUDNAN_clean_linker_2, # of connection points: 2
#     Edge 16, Type (0, 0), BuildingBlock: XUDNAN_clean_linker_2, # of connection points: 2
#     Edge 17, Type (0, 0), BuildingBlock: XUDNAN_clean_linker_2, # of connection points: 2
#     Edge 18, Type (0, 0), BuildingBlock: XUDNAN_clean_linker_2, # of connection points: 2
#     Edge 19, Type (0, 0), BuildingBlock: XUDNAN_clean_linker_2, # of connection points: 2
#     Edge 20, Type (0, 0), BuildingBlock: XUDNAN_clean_linker_2, # of connection points: 2
#     Edge 21, Type (0, 0), BuildingBlock: XUDNAN_clean_linker_2, # of connection points: 2
#     Edge 22, Type (0, 0), BuildingBlock: XUDNAN_clean_linker_2, # of connection points: 2
#     Edge 23, Type (0, 0), BuildingBlock: XUDNAN_clean_linker_2, # of connection points: 2
#     Edge 24, Type (0, 0), BuildingBlock: XUDNAN_clean_linker_2, # of connection points: 2
#     Edge 25, Type (0, 0), BuildingBlock: XUDNAN_clean_linker_2, # of connection points: 2
#     Edge 26, Type (0, 0), BuildingBlock: XUDNAN_clean_linker_2, # of connection points: 2
#     Edge 27, Type (0, 0), BuildingBlock: XUDNAN_clean_linker_2, # of connection points: 2
#     Edge 28, Type (0, 0), BuildingBlock: XUDNAN_clean_linker_2, # of connection points: 2
#     Edge 29, Type (0, 0), BuildingBlock: XUDNAN_clean_linker_2, # of connection points: 2
#     Edge 30, Type (0, 0), BuildingBlock: XUDNAN_clean_linker_2, # of connection points: 2
#     Edge 31, Type (0, 0), BuildingBlock: XUDNAN_clean_linker_2, # of connection points: 2
#     Edge 32, Type (0, 0), BuildingBlock: XUDNAN_clean_linker_2, # of connection points: 2
#     Edge 33, Type (0, 0), BuildingBlock: XUDNAN_clean_linker_2, # of connection points: 2
#     Edge 34, Type (0, 0), BuildingBlock: XUDNAN_clean_linker_2, # of connection points: 2
#     Edge 35, Type (0, 0), BuildingBlock: XUDNAN_clean_linker_2, # of connection points: 2
#     Edge 36, Type (0, 0), BuildingBlock: XUDNAN_clean_linker_2, # of connection points: 2
#     Edge 37, Type (0, 0), BuildingBlock: XUDNAN_clean_linker_2, # of connection points: 2
#     Edge 38, Type (0, 0), BuildingBlock: XUDNAN_clean_linker_2, # of connection points: 2
#     Edge 39, Type (0, 0), BuildingBlock: XUDNAN_clean_linker_2, # of connection points: 2
#     Edge 40, Type (0, 0), BuildingBlock: XUDNAN_clean_linker_2, # of connection points: 2
#     Edge 41, Type (0, 0), BuildingBlock: XUDNAN_clean_linker_2, # of connection points: 2
#     Edge 42, Type (0, 0), BuildingBlock: XUDNAN_clean_linker_2, # of connection points: 2
#     Edge 43, Type (0, 0), BuildingBlock: XUDNAN_clean_linker_2, # of connection points: 2
#     Edge 44, Type (0, 0), BuildingBlock: XUDNAN_clean_linker_2, # of connection points: 2
#     Edge 45, Type (0, 0), BuildingBlock: XUDNAN_clean_linker_2, # of connection points: 2
#     Edge 46, Type (0, 0), BuildingBlock: XUDNAN_clean_linker_2, # of connection points: 2
#     Edge 47, Type (0, 0), BuildingBlock: XUDNAN_clean_linker_2, # of connection points: 2
# Relax obj value: 0.100
# Max RMSD: 0.209
# Mean RMSD: 0.209
data_MOF--net-wme--node1-GEDQOX_clean_sbu_0--edge1-XUDNAN_clean_linker_2
_symmetry_space_group_name_H-M    P1
_symmetry_Int_Tables_number       1
_symmetry_cell_setting            triclinic
loop_
_symmetry_equiv_pos_as_xyz
'x, y, z'
_cell_length_a     40.372792
_cell_length_b     40.328457
_cell_length_c     52.098487
_cell_angle_alpha  90.009265
_cell_angle_beta   90.07762
_cell_angle_gamma 119.91755
loop_
_atom_site_label
_atom_site_type_symbol
_atom_site_fract_x
_atom_site_fract_y
_atom_site_fract_z
_atom_type_partial_charge
Nd0 Nd 0.2869 0.38231 0.13945 0.0
Nd1 Nd 0.20711 0.3224 0.12274 0.0
C2 C 0.34788 0.4412 0.16049 0.0
C3 C 0.3785 0.48014 0.15272 0.0
C4 C 0.41602 0.48728 0.1494 0.0
C5 C 0.44528 0.52338 0.14174 0.0
C6 C 0.43796 0.55359 0.13737 0.0
C7 C 0.40056 0.54676 0.14123 0.0
C8 C 0.37113 0.51044 0.14874 0.0
C9 C 0.28722 0.35888 0.09019 0.0
C10 C 0.22658 0.40922 0.11733 0.0
C11 C 0.1433 0.26165 0.10645 0.0
C12 C 0.10218 0.23815 0.11248 0.0
C13 C 0.08387 0.19874 0.10772 0.0
C14 C 0.04507 0.17532 0.11318 0.0
C15 C 1.02341 0.19074 0.12349 0.0
C16 C 0.04199 0.23033 0.1286 0.0
C17 C 0.08105 0.25385 0.12314 0.0
C18 C 0.21312 0.34566 0.1734 0.0
C19 C 0.26736 0.29573 0.13789 0.0
O20 O 0.31311 0.4353 0.16315 0.0
O21 O 0.3485 0.41221 0.14978 0.0
O22 O 0.31636 0.37334 0.10546 0.0
O23 O 0.25995 0.36232 0.09957 0.0
O24 O 0.25736 0.41782 0.13111 0.0
O25 O 0.20437 0.37437 0.1084 0.0
O26 O 0.16699 0.25977 0.12266 0.0
O27 O 0.15582 0.29619 0.09748 0.0
O28 O 0.1838 0.33726 0.15904 0.0
O29 O 0.23642 0.33919 0.16162 0.0
O30 O 0.24273 0.29292 0.12026 0.0
O31 O 0.28355 0.32602 0.15321 0.0
H32 H 0.42279 0.46477 0.15263 0.0
H33 H 0.47382 0.52771 0.13943 0.0
H34 H 0.39384 0.56928 0.13793 0.0
H35 H 0.3426 0.5061 0.15124 0.0
H36 H 0.0997 0.18596 0.09977 0.0
H37 H 0.03213 0.14492 0.10952 0.0
H38 H 1.02623 0.24323 0.13643 0.0
H39 H 0.09467 0.28421 0.12717 0.0
Nd40 Nd 0.93314 0.27731 0.6412 0.0
Nd41 Nd 0.89388 0.18901 0.62572 0.0
C42 C 0.94828 0.34603 0.65752 0.0
C43 C 0.93736 0.37549 0.6515 0.0
C44 C 0.89908 0.36654 0.64848 0.0
C45 C 0.89024 0.39516 0.64188 0.0
C46 C 0.91947 0.43329 0.63792 0.0
C47 C 0.9576 0.44203 0.64142 0.0
C48 C 0.96635 0.41362 0.64812 0.0
C49 C 0.95665 0.2632 0.59545 0.0
C50 C 0.844 0.23204 0.61865 0.0
C51 C 0.87221 0.12229 0.60309 0.0
C52 C 0.86024 0.08219 0.61019 0.0
C53 C 0.82815 0.05208 0.59821 0.0
C54 C 0.81627 1.01391 0.60432 0.0
C55 C 0.83629 1.00482 0.62255 0.0
C56 C 0.86843 0.03512 0.63462 0.0
C57 C 0.88021 0.07336 0.62858 0.0
C58 C 0.88503 0.19574 0.67791 0.0
C59 C 0.98118 0.23387 0.64971 0.0
O60 O 0.92301 0.31403 0.66843 0.0
O61 O 0.9685 0.3407 0.64016 0.0
O62 O 0.97814 0.29094 0.61084 0.0
O63 O 0.92204 0.24493 0.60311 0.0
O64 O 0.87369 0.26404 0.62703 0.0
O65 O 0.84521 0.20023 0.61515 0.0
O66 O 0.90807 0.14836 0.60674 0.0
O67 O 0.84853 0.13444 0.60885 0.0
O68 O 0.87124 0.16321 0.66619 0.0
O69 O 0.90189 0.22212 0.66189 0.0
O70 O 0.95646 0.20747 0.63382 0.0
O71 O 0.97529 0.26096 0.65959 0.0
H72 H 0.87602 0.33739 0.65088 0.0
H73 H 0.86058 0.38725 0.63921 0.0
H74 H 0.9809 0.47106 0.639 0.0
H75 H 0.99606 0.42145 0.65044 0.0
H76 H 0.81231 0.0581 0.58394 0.0
H77 H 0.79178 0.99148 0.59434 0.0
H78 H 0.88431 0.02931 0.64895 0.0
H79 H 0.90492 0.09597 0.63828 0.0
Nd80 Nd 0.67304 0.90972 0.12916 0.0
Nd81 Nd 0.73367 0.88172 0.1206 0.0
C82 C 0.62305 0.93055 0.1438 0.0
C83 C 0.58341 0.92135 0.13747 0.0
C84 C 0.55353 0.88346 0.13399 0.0
C85 C 0.51635 0.87576 0.12804 0.0
C86 C 0.50827 0.90577 0.1252 0.0
C87 C 0.53831 0.94357 0.12887 0.0
C88 C 0.5753 0.9512 0.13493 0.0
C89 C 0.69994 0.91644 0.07899 0.0
C90 C 0.64266 0.82117 0.1133 0.0
C91 C 0.78451 0.86405 0.10316 0.0
C92 C 0.80676 0.84617 0.11243 0.0
C93 C 0.80386 0.81406 0.09975 0.0
C94 C 0.82744 0.79919 0.10679 0.0
C95 C 0.85471 0.81646 0.12645 0.0
C96 C 0.85669 0.8478 0.13966 0.0
C97 C 0.83295 0.8624 0.13282 0.0
C98 C 0.70978 0.86996 0.17131 0.0
C99 C 0.76477 0.97131 0.13566 0.0
O100 O 0.62742 0.90424 0.15551 0.0
O101 O 0.64926 0.94894 0.12639 0.0
O102 O 0.66477 0.90606 0.08495 0.0
O103 O 0.71831 0.92116 0.09946 0.0
O104 O 0.63471 0.84452 0.12622 0.0
O105 O 0.67736 0.83257 0.1043 0.0
O106 O 0.79342 0.8974 0.11291 0.0
O107 O 0.74762 0.84192 0.09969 0.0
O108 O 0.73549 0.86276 0.16253 0.0
O109 O 0.69927 0.88363 0.15356 0.0
O110 O 0.77154 0.94633 0.12381 0.0
O111 O 0.72989 0.96252 0.14337 0.0
H112 H 0.5589 0.85978 0.13573 0.0
H113 H 0.49411 0.84635 0.12515 0.0
H114 H 0.5332 0.96742 0.12727 0.0
H115 H 0.59769 0.98062 0.13764 0.0
H116 H 0.78406 0.80108 0.08392 0.0
H117 H 0.82544 0.7752 0.09612 0.0
H118 H 0.87711 0.86146 0.15508 0.0
H119 H 0.83585 0.88702 0.14315 0.0
Nd120 Nd 0.78696 0.66168 0.63185 0.0
Nd121 Nd 0.87017 0.71787 0.62971 0.0
C122 C 0.71527 0.60865 0.64214 0.0
C123 C 0.68718 0.56908 0.63389 0.0
C124 C 0.66523 0.54153 0.65242 0.0
C125 C 0.63823 0.50407 0.64517 0.0
C126 C 0.63235 0.49324 0.61913 0.0
C127 C 0.65472 0.52087 0.6006 0.0
C128 C 0.68188 0.55828 0.60788 0.0
C129 C 0.81005 0.69273 0.58293 0.0
C130 C 0.84621 0.63233 0.61569 0.0
C131 C 0.93991 0.77801 0.62685 0.0
C132 C 0.98093 0.7981 0.63402 0.0
C133 C 0.994 0.82807 0.65197 0.0
C134 C 0.03297 0.8519 0.6564 0.0
C135 C 0.06004 0.84649 0.643 0.0
C136 C 0.04716 0.81541 0.62592 0.0
C137 C 1.00787 0.79154 0.6213 0.0
C138 C 0.84744 0.67605 0.67481 0.0
C139 C 0.8119 0.75088 0.64153 0.0
O140 O 0.74464 0.61283 0.65539 0.0
O141 O 0.72448 0.63633 0.62561 0.0
O142 O 0.78712 0.65662 0.58749 0.0
O143 O 0.82172 0.70989 0.60401 0.0
O144 O 0.81503 0.62376 0.62888 0.0
O145 O 0.86878 0.66778 0.60786 0.0
O146 O 0.91549 0.7727 0.64502 0.0
O147 O 0.92636 0.75067 0.60955 0.0
O148 O 0.87796 0.68355 0.66221 0.0
O149 O 0.83021 0.69079 0.66364 0.0
O150 O 0.84573 0.75799 0.63346 0.0
O151 O 0.78377 0.71523 0.64482 0.0
H152 H 0.66879 0.54908 0.67259 0.0
H153 H 0.62133 0.48383 0.65997 0.0
H154 H 0.65141 0.51352 0.5804 0.0
H155 H 0.69865 0.57875 0.59314 0.0
H156 H 0.97408 0.8342 0.66188 0.0
H157 H 0.04204 0.87541 0.66982 0.0
H158 H 0.06748 0.81076 0.61523 0.0
H159 H 0.99873 0.76894 0.60716 0.0
Nd160 Nd 0.14955 0.77219 0.13275 0.0
Nd161 Nd 0.16786 0.85203 0.1182 0.0
C162 C 0.14866 0.71099 0.15257 0.0
C163 C 0.15585 0.67966 0.14471 0.0
C164 C 0.19311 0.68601 0.14085 0.0
C165 C 0.19908 0.6557 0.13405 0.0
C166 C 0.16797 0.6184 0.13087 0.0
C167 C 0.13084 0.61217 0.13494 0.0
C168 C 0.1249 0.64233 0.14185 0.0
C169 C 0.12011 0.77185 0.08527 0.0
C170 C 0.23627 0.83431 0.1107 0.0
C171 C 0.16985 0.9162 0.10356 0.0
C172 C 0.19013 0.95773 0.10877 0.0
C173 C 0.17653 0.98024 0.09758 0.0
C174 C 0.19332 1.01919 0.10347 0.0
C175 C 0.22427 0.03668 0.12074 0.0
C176 C 0.23814 1.01398 0.13173 0.0
C177 C 0.22119 0.97485 0.12583 0.0
C178 C 0.18851 0.84495 0.16782 0.0
C179 C 0.08293 0.79237 0.13729 0.0
O180 O 0.17791 0.74566 0.15439 0.0
O181 O 0.11856 0.71048 0.14285 0.0
O182 O 0.10769 0.74273 0.10042 0.0
O183 O 0.15195 0.79939 0.09333 0.0
O184 O 0.21429 0.80212 0.12319 0.0
O185 O 0.22324 0.85694 0.10331 0.0
O186 O 0.1482 0.8942 0.122 0.0
O187 O 0.18861 0.90196 0.09182 0.0
O188 O 0.20832 0.87471 0.15357 0.0
O189 O 0.15814 0.82185 0.15652 0.0
O190 O 0.10284 0.81784 0.1196 0.0
O191 O 0.09771 0.77422 0.14984 0.0
H192 H 0.21769 0.71436 0.14306 0.0
H193 H 0.22803 0.66158 0.13094 0.0
H194 H 0.10624 0.58374 0.13315 0.0
H195 H 0.09592 0.63634 0.14508 0.0
H196 H 0.1523 0.96748 0.0846 0.0
H197 H 0.18122 0.03531 0.095 0.0
H198 H 0.26208 0.02641 0.14491 0.0
H199 H 0.23198 0.95788 0.1348 0.0
Nd200 Nd 0.40045 0.13766 0.63384 0.0
Nd201 Nd 0.34666 0.16299 0.61823 0.0
C202 C 0.45909 0.13149 0.65146 0.0
C203 C 0.50058 0.14914 0.64686 0.0
C204 C 0.51935 0.17903 0.62915 0.0
C205 C 0.55827 0.19378 0.62383 0.0
C206 C 0.57919 0.17883 0.63607 0.0
C207 C 0.56016 0.14912 0.65402 0.0
C208 C 0.52131 0.13446 0.65932 0.0
C209 C 0.36648 0.10564 0.58777 0.0
C210 C 0.43299 0.22143 0.60619 0.0
C211 C 0.29018 0.17403 0.60215 0.0
C212 C 0.26055 0.18183 0.6123 0.0
C213 C 0.23015 0.17612 0.59636 0.0
C214 C 0.20266 0.18504 0.60494 0.0
C215 C 0.20488 0.19992 0.62975 0.0
C216 C 0.23531 0.20529 0.64582 0.0
C217 C 0.26284 0.19627 0.63719 0.0
C218 C 0.37578 0.18579 0.66747 0.0
C219 C 0.31252 0.07748 0.64302 0.0
O220 O 0.44697 0.15264 0.66241 0.0
O221 O 0.43704 0.11109 0.63263 0.0
O222 O 0.37553 0.08901 0.60537 0.0
O223 O 0.37768 0.14047 0.59357 0.0
O224 O 0.43941 0.20145 0.62346 0.0
O225 O 0.39876 0.20749 0.59606 0.0
O226 O 0.28596 0.14025 0.60643 0.0
O227 O 0.32561 0.20127 0.60456 0.0
O228 O 0.36953 0.20661 0.65159 0.0
O229 O 0.3642 0.15322 0.65797 0.0
O230 O 0.30693 0.09938 0.62685 0.0
O231 O 0.34683 0.08857 0.65262 0.0
H232 H 0.50379 0.19056 0.61914 0.0
H233 H 0.57174 0.21635 0.60972 0.0
H234 H 0.57535 0.1373 0.66415 0.0
H235 H 0.50731 0.11131 0.673 0.0
H236 H 0.22796 0.16523 0.57705 0.0
H237 H 0.18011 0.18104 0.59185 0.0
H238 H 0.23775 0.21626 0.66512 0.0
H239 H 0.28607 0.20086 0.64985 0.0
Nd240 Nd 0.66463 0.76311 0.39522 0.0
Nd241 Nd 0.72202 0.84878 0.41017 0.0
C242 C 0.60698 0.69683 0.37877 0.0
C243 C 0.56542 0.67309 0.38353 0.0
C244 C 0.54763 0.6829 0.40284 0.0
C245 C 0.50887 0.65876 0.40855 0.0
C246 C 0.48697 0.62409 0.39514 0.0
C247 C 0.50498 0.61456 0.37567 0.0
C248 C 0.54376 0.63881 0.36995 0.0
C249 C 0.7033 0.77051 0.44 0.0
C250 C 0.63043 0.81779 0.41638 0.0
C251 C 0.77216 0.91402 0.43256 0.0
C252 C 0.79908 0.95386 0.42462 0.0
C253 C 0.79694 0.96737 0.40017 0.0
C254 C 0.82294 1.00515 0.39291 0.0
C255 C 0.85175 0.03024 0.40995 0.0
C256 C 0.8535 1.01646 0.43449 0.0
C257 C 0.82752 0.97874 0.44169 0.0
C258 C 0.70586 0.84487 0.35805 0.0
C259 C 0.75465 0.79604 0.38537 0.0
O260 O 0.61902 0.72915 0.36646 0.0
O261 O 0.62895 0.70016 0.39814 0.0
O262 O 0.69281 0.74302 0.42353 0.0
O263 O 0.6911 0.7933 0.43367 0.0
O264 O 0.62377 0.78332 0.40987 0.0
O265 O 0.66536 0.84734 0.41839 0.0
O266 O 0.78039 0.88793 0.42527 0.0
O267 O 0.7357 0.90251 0.43052 0.0
O268 O 0.72956 0.87616 0.36975 0.0
O269 O 0.69306 0.81791 0.37393 0.0
O270 O 0.76044 0.82349 0.40173 0.0
O271 O 0.72014 0.77186 0.37609 0.0
H272 H 0.56391 0.7089 0.41385 0.0
H273 H 0.4963 0.66693 0.42388 0.0
H274 H 0.48905 0.58845 0.36469 0.0
H275 H 0.55697 0.63053 0.35509 0.0
H276 H 0.77526 0.94869 0.38663 0.0
H277 H 0.82087 1.01446 0.37378 0.0
H278 H 0.87478 0.03496 0.44832 0.0
H279 H 0.82965 0.96899 0.46068 0.0
Nd280 Nd 0.90438 0.65956 0.90381 0.0
Nd281 Nd 0.87287 0.71169 0.9126 0.0
C282 C 0.93079 0.61344 0.89 0.0
C283 C 0.92154 0.57346 0.89479 0.0
C284 C 0.88377 0.54363 0.89849 0.0
C285 C 0.8762 0.50638 0.90415 0.0
C286 C 0.90627 0.49834 0.9065 0.0
C287 C 0.94391 0.52829 0.90239 0.0
C288 C 0.9514 0.56531 0.89661 0.0
C289 C 0.91898 0.69038 0.95312 0.0
C290 C 0.81891 0.62173 0.92546 0.0
C291 C 0.84111 0.7527 0.92699 0.0
C292 C 0.83564 0.78465 0.91803 0.0
C293 C 0.85451 0.82023 0.93056 0.0
C294 C 0.84744 0.8497 0.9236 0.0
C295 C 0.82104 0.84425 0.90404 0.0
C296 C 0.80256 0.80875 0.89129 0.0
C297 C 0.80972 0.77934 0.8982 0.0
C298 C 0.86828 0.69 0.8621 0.0
C299 C 0.9585 0.75136 0.89081 0.0
O300 O 0.90691 0.61882 0.87614 0.0
O301 O 0.94389 0.6367 0.90954 0.0
O302 O 0.9061 0.65443 0.948 0.0
O303 O 0.92031 0.70756 0.93263 0.0
O304 O 0.84121 0.61522 0.91041 0.0
O305 O 0.83066 0.65659 0.93416 0.0
O306 O 0.8754 0.7607 0.93414 0.0
O307 O 0.8229 0.72023 0.91463 0.0
O308 O 0.87558 0.72363 0.8695 0.0
O309 O 0.86144 0.66807 0.88115 0.0
O310 O 0.93414 0.75708 0.90424 0.0
O311 O 0.95103 0.71622 0.88491 0.0
H312 H 0.86019 0.5492 0.89737 0.0
H313 H 0.84692 0.48414 0.90737 0.0
H314 H 0.96775 0.52314 0.90363 0.0
H315 H 0.98072 0.58778 0.89382 0.0
H316 H 0.87443 0.82516 0.94601 0.0
H317 H 0.86273 0.8768 0.93359 0.0
H318 H 0.78172 0.80325 0.87638 0.0
H319 H 0.79435 0.75221 0.88825 0.0
Nd320 Nd 0.28404 0.91462 0.39642 0.0
Nd321 Nd 0.1946 0.88159 0.40276 0.0
C322 C 0.35588 0.93666 0.38416 0.0
C323 C 0.3818 0.92085 0.38864 0.0
C324 C 0.36943 0.88194 0.38445 0.0
C325 C 0.39368 0.86713 0.38951 0.0
C326 C 0.43092 0.89063 0.39923 0.0
C327 C 0.44328 0.92969 0.40323 0.0
C328 C 0.41904 0.94455 0.39799 0.0
C329 C 0.26064 0.91943 0.44594 0.0
C330 C 0.2295 0.82403 0.40999 0.0
C331 C 0.12524 0.86325 0.41909 0.0
C332 C 0.08534 0.84682 0.4095 0.0
C333 C 0.05578 0.81287 0.42012 0.0
C334 C 1.01752 0.79949 0.41321 0.0
C335 C 1.00796 0.82005 0.39575 0.0
C336 C 0.03766 0.85338 0.38459 0.0
C337 C 0.0758 0.86655 0.39131 0.0
C338 C 0.20917 0.8709 0.35257 0.0
C339 C 0.2502 0.97317 0.38816 0.0
O340 O 0.32701 0.91778 0.36847 0.0
O341 O 0.34648 0.94937 0.40437 0.0
O342 O 0.28613 0.9097 0.44064 0.0
O343 O 0.24715 0.92334 0.42511 0.0
O344 O 0.26157 0.85032 0.39934 0.0
O345 O 0.20227 0.83133 0.41717 0.0
O346 O 0.15026 0.89698 0.41038 0.0
O347 O 0.13954 0.84057 0.42195 0.0
O348 O 0.17535 0.86038 0.36128 0.0
O349 O 0.23329 0.88642 0.37031 0.0
O350 O 0.21687 0.94541 0.39648 0.0
O351 O 0.27974 0.96784 0.38404 0.0
H352 H 0.34086 0.86277 0.37737 0.0
H353 H 0.38312 0.83712 0.38565 0.0
H354 H 0.47143 0.94872 0.41097 0.0
H355 H 0.42926 0.9746 0.40155 0.0
H356 H 0.06216 0.79723 0.43432 0.0
H357 H 0.99533 0.77387 0.42231 0.0
H358 H 0.03137 0.86963 0.37084 0.0
H359 H 0.0977 0.89279 0.38266 0.0
Nd360 Nd 0.38323 0.2669 0.89831 0.0
Nd361 Nd 0.33048 0.18276 0.90339 0.0
C362 C 0.43079 0.34021 0.8875 0.0
C363 C 0.47132 0.36909 0.89287 0.0
C364 C 0.48078 0.40682 0.89847 0.0
C365 C 0.51824 0.4343 0.90514 0.0
C366 C 0.54741 0.42483 0.90638 0.0
C367 C 0.5381 0.38713 0.90017 0.0
C368 C 0.50039 0.35947 0.89364 0.0
C369 C 0.35503 0.24504 0.94774 0.0
C370 C 0.42027 0.21707 0.9163 0.0
C371 C 0.29084 0.10882 0.91479 0.0
C372 C 0.25838 0.07182 0.90637 0.0
C373 C 0.22308 0.06783 0.89901 0.0
C374 C 0.19256 0.03181 0.89213 0.0
C375 C 0.19684 0.99919 0.89238 0.0
C376 C 0.23246 1.00359 0.89943 0.0
C377 C 0.2628 0.03946 0.90636 0.0
C378 C 0.35166 0.20577 0.85348 0.0
C379 C 0.29067 0.23173 0.8882 0.0
O380 O 0.42392 0.31221 0.87176 0.0
O381 O 0.40786 0.32872 0.90721 0.0
O382 O 0.39068 0.26861 0.94237 0.0
O383 O 0.33665 0.23213 0.92717 0.0
O384 O 0.42697 0.24714 0.90262 0.0
O385 O 0.38532 0.19279 0.92404 0.0
O386 O 0.28354 0.13438 0.92458 0.0
O387 O 0.32123 0.12383 0.90027 0.0
O388 O 0.31754 0.18012 0.86041 0.0
O389 O 0.37388 0.2177 0.87264 0.0
O390 O 0.28504 0.19951 0.89856 0.0
O391 O 0.32568 0.26031 0.88318 0.0
H392 H 0.45897 0.41499 0.89802 0.0
H393 H 0.52435 0.4631 0.90939 0.0
H394 H 0.5597 0.37872 0.9011 0.0
H395 H 0.49387 0.33047 0.88961 0.0
H396 H 0.21898 0.09241 0.89872 0.0
H397 H 0.16565 0.02953 0.88656 0.0
H398 H 0.23668 0.97912 0.90026 0.0
H399 H 0.28973 0.04184 0.91207 0.0
Nd400 Nd 0.13136 0.37807 0.39209 0.0
Nd401 Nd 0.16273 0.32863 0.40831 0.0
C402 C 0.1216 0.43424 0.37342 0.0
C403 C 0.13586 0.47508 0.37976 0.0
C404 C 0.1604 0.49246 0.40072 0.0
C405 C 0.17373 0.53104 0.40669 0.0
C406 C 0.16269 0.55327 0.39191 0.0
C407 C 0.13757 0.53547 0.37113 0.0
C408 C 0.12442 0.49687 0.3651 0.0
C409 C 0.10499 0.34731 0.43967 0.0
C410 C 0.22005 0.41783 0.41591 0.0
C411 C 0.17324 0.27145 0.42321 0.0
C412 C 0.19585 0.25215 0.41931 0.0
C413 C 0.19384 0.22602 0.43785 0.0
C414 C 0.20886 0.20199 0.43287 0.0
C415 C 0.22628 0.2035 0.40917 0.0
C416 C 0.23006 0.23117 0.39109 0.0
C417 C 0.21481 0.25515 0.39606 0.0
C418 C 0.18429 0.35735 0.3594 0.0
C419 C 0.07446 0.28873 0.38888 0.0
O420 O 0.14646 0.42553 0.36427 0.0
O421 O 0.09901 0.40929 0.39027 0.0
O422 O 0.08585 0.35446 0.4228 0.0
O423 O 0.13927 0.35934 0.43232 0.0
O424 O 0.19306 0.42185 0.40448 0.0
O425 O 0.21477 0.38386 0.42209 0.0
O426 O 0.15128 0.26944 0.40417 0.0
O427 O 0.18867 0.30439 0.43517 0.0
O428 O 0.20634 0.3542 0.37603 0.0
O429 O 0.15093 0.34417 0.3683 0.0
O430 O 0.09808 0.28872 0.4063 0.0
O431 O 0.08351 0.3204 0.37595 0.0
H432 H 0.16918 0.47613 0.41255 0.0
H433 H 0.19252 0.54338 0.42306 0.0
H434 H 0.1287 0.5516 0.35914 0.0
H435 H 0.10536 0.48406 0.34889 0.0
H436 H 0.17915 0.22302 0.45584 0.0
H437 H 0.20598 0.18151 0.44739 0.0
H438 H 0.24311 0.23301 0.37261 0.0
H439 H 0.2164 0.27487 0.38135 0.0
Nd440 Nd 0.77874 0.14173 0.89717 0.0
Nd441 Nd 0.86209 0.16016 0.91744 0.0
C442 C 0.7205 0.14165 0.87361 0.0
C443 C 0.68962 0.14864 0.88195 0.0
C444 C 0.66822 0.15565 0.86377 0.0
C445 C 0.63887 0.16235 0.87165 0.0
C446 C 0.63035 0.16204 0.89788 0.0
C447 C 0.65225 0.15537 0.91603 0.0
C448 C 0.68164 0.14885 0.90814 0.0
C449 C 0.77712 0.11338 0.94533 0.0
C450 C 0.8391 0.22769 0.92113 0.0
C451 C 0.92382 0.16893 0.94121 0.0
C452 C 0.96336 0.18029 0.93333 0.0
C453 C 0.99443 0.21111 0.94563 0.0
C454 C 0.03197 0.22317 0.93788 0.0
C455 C 0.03928 0.20447 0.91773 0.0
C456 C 1.00812 0.17345 0.90552 0.0
C457 C 0.97058 0.1616 0.91314 0.0
C458 C 0.86154 0.17172 0.8645 0.0
C459 C 0.8023 0.07647 0.89539 0.0
O460 O 0.75499 0.17133 0.87407 0.0
O461 O 0.71921 0.11072 0.88259 0.0
O462 O 0.74762 0.10196 0.93049 0.0
O463 O 0.80513 0.14408 0.93651 0.0
O464 O 0.80626 0.20511 0.90939 0.0
O465 O 0.86317 0.21598 0.92803 0.0
O466 O 0.89631 0.13568 0.93317 0.0
O467 O 0.9146 0.19578 0.94029 0.0
O468 O 0.8919 0.17764 0.87683 0.0
O469 O 0.83522 0.16057 0.88049 0.0
O470 O 0.82642 0.09537 0.91417 0.0
O471 O 0.78636 0.09222 0.8812 0.0
H472 H 0.67407 0.15575 0.84348 0.0
H473 H 0.62237 0.167 0.85715 0.0
H474 H 0.64685 0.15547 0.93638 0.0
H475 H 0.69815 0.14391 0.9225 0.0
H476 H 0.98965 0.22601 0.96122 0.0
H477 H 0.05531 0.24684 0.9479 0.0
H478 H 1.01273 0.15867 0.88979 0.0
H479 H 0.94727 0.13799 0.90306 0.0
H480 H 0.23549 0.09654 0.08943 0.0
H481 H 0.2495 0.07057 0.16817 0.0
H482 H 0.27122 0.13753 0.18041 0.0
H483 H 0.31581 0.19643 0.08824 0.0
H484 H 0.28925 0.2123 0.06897 0.0
H485 H 0.28039 0.16403 0.06579 0.0
H486 H 0.20848 0.13786 0.0753 0.0
H487 H 0.21731 0.186 0.07834 0.0
H488 H 0.1949 0.15252 0.10425 0.0
H489 H 0.28503 0.20666 0.18489 0.0
H490 H 0.28643 0.26879 0.18103 0.0
H491 H 0.26215 0.24787 0.0997 0.0
C492 C 0.24345 0.10488 0.10923 0.0
C493 C 0.2408 0.078 0.12777 0.0
C494 C 0.25183 0.09054 0.15344 0.0
C495 C 0.26413 0.12861 0.16062 0.0
C496 C 0.2656 0.15409 0.14193 0.0
C497 C 0.25566 0.14265 0.1167 0.0
C498 C 0.25654 0.17436 0.10063 0.0
C499 C 0.28734 0.18756 0.07967 0.0
C500 C 0.21696 0.16194 0.08896 0.0
C501 C 0.26725 0.20499 0.12088 0.0
C502 C 0.27305 0.19324 0.14453 0.0
C503 C 0.28104 0.21628 0.16636 0.0
C504 C 0.28201 0.25163 0.16402 0.0
C505 C 0.27447 0.26316 0.14011 0.0
C506 C 0.26813 0.23989 0.11826 0.0
H507 H 0.12739 0.16095 0.62061 0.0
H508 H 0.21623 0.2624 0.6584 0.0
H509 H 0.16829 0.28068 0.67074 0.0
H510 H 0.07805 0.20507 0.59397 0.0
H511 H 0.03143 0.16361 0.5981 0.0
H512 H 0.0725 0.15784 0.59392 0.0
H513 H 0.0564 0.11954 0.63652 0.0
H514 H 1.01538 0.12546 0.64084 0.0
H515 H 0.05124 0.14073 0.66563 0.0
H516 H 0.10957 0.28979 0.67639 0.0
H517 H 0.04721 0.28806 0.67456 0.0
H518 H 0.99872 0.18024 0.63336 0.0
C519 C 0.13693 0.18704 0.63149 0.0
C520 C 0.17577 0.21017 0.63849 0.0
C521 C 0.18664 0.24384 0.65305 0.0
C522 C 0.15959 0.25459 0.66005 0.0
C523 C 0.12161 0.2313 0.65253 0.0
C524 C 0.1104 0.19812 0.63863 0.0
C525 C 0.06831 0.17852 0.63206 0.0
C526 C 0.06224 0.17614 0.60278 0.0
C527 C 0.04656 0.13871 0.64451 0.0
C528 C 0.05754 0.20593 0.64417 0.0
C529 C 0.08844 0.23626 0.65596 0.0
C530 C 0.08515 0.26589 0.6674 0.0
C531 C 0.04958 0.26466 0.66636 0.0
C532 C 1.0178 0.23401 0.65395 0.0
C533 C 1.02212 0.20412 0.64318 0.0
H534 H 0.82179 1.00525 0.10127 0.0
H535 H 0.78264 0.02632 0.17361 0.0
H536 H 0.84334 0.08866 0.17726 0.0
H537 H 0.9155 0.03876 0.1188 0.0
H538 H 0.93542 0.05934 0.088 0.0
H539 H 0.88753 1.01951 0.08999 0.0
H540 H 0.86175 0.05846 0.06623 0.0
H541 H 0.90966 0.09841 0.06386 0.0
H542 H 0.87263 0.10464 0.07842 0.0
H543 H 0.91289 0.14609 0.1743 0.0
H544 H 0.98096 0.19186 0.16483 0.0
H545 H 0.97126 0.13135 0.09388 0.0
C546 C 0.82557 0.02314 0.11777 0.0
C547 C 0.79758 1.0109 0.13725 0.0
C548 C 0.80363 0.0353 0.1584 0.0
C549 C 0.83806 0.07064 0.16062 0.0
C550 C 0.86565 0.08119 0.14131 0.0
C551 C 0.85926 0.05814 0.12013 0.0
C552 C 0.89351 0.07422 0.10249 0.0
C553 C 0.90888 0.0463 0.09968 0.0
C554 C 0.8838 0.08456 0.0762 0.0
C555 C 0.92098 0.10959 0.1173 0.0
C556 C 0.90458 0.11355 0.13954 0.0
C557 C 0.92566 0.14338 0.15675 0.0
C558 C 0.96433 0.16936 0.15116 0.0
C559 C 0.9817 0.16525 0.12863 0.0
C560 C 0.95921 0.13521 0.11141 0.0
H561 H 0.86698 0.82603 0.64306 0.0
H562 H 0.74383 0.7521 0.64415 0.0
H563 H 0.73616 0.80946 0.64193 0.0
H564 H 0.87158 0.90496 0.68048 0.0
H565 H 0.91017 0.94051 0.66139 0.0
H566 H 0.90526 0.89393 0.66565 0.0
H567 H 0.90416 0.88555 0.6163 0.0
H568 H 0.90876 0.93189 0.61184 0.0
H569 H 0.86932 0.89028 0.59739 0.0
H570 H 0.74299 0.87606 0.63581 0.0
H571 H 0.76302 0.94401 0.62802 0.0
H572 H 0.88182 0.97269 0.63013 0.0
C573 C 0.83824 0.82166 0.64326 0.0
C574 C 0.80593 0.78436 0.64386 0.0
C575 C 0.769 0.78028 0.64398 0.0
C576 C 0.76443 0.81275 0.6426 0.0
C577 C 0.79707 0.84905 0.64129 0.0
C578 C 0.83325 0.8535 0.64186 0.0
C579 C 0.86388 0.89509 0.63895 0.0
C580 C 0.88921 0.90946 0.66306 0.0
C581 C 0.88793 0.90103 0.61468 0.0
C582 C 0.83944 0.91364 0.63627 0.0
C583 C 0.80097 0.88675 0.63775 0.0
C584 C 0.77305 0.89723 0.63481 0.0
C585 C 0.78475 0.93594 0.6302 0.0
C586 C 0.82408 0.96396 0.62849 0.0
C587 C 0.85159 0.95234 0.63177 0.0
H588 H 0.06393 0.84733 0.13984 0.0
H589 H 1.01549 0.72463 0.14564 0.0
H590 H 0.9502 0.71662 0.1463 0.0
H591 H 0.99311 0.85478 0.18071 0.0
H592 H 0.99445 0.89207 0.1609 0.0
H593 H 0.03636 0.88733 0.16397 0.0
H594 H 0.03925 0.88291 0.11448 0.0
H595 H 0.99715 0.88709 0.11121 0.0
H596 H 0.99824 0.84667 0.09741 0.0
H597 H 0.88994 0.72297 0.14038 0.0
H598 H 0.84168 0.74292 0.13264 0.0
H599 H 0.93179 0.86162 0.13186 0.0
C600 C 0.03959 0.81878 0.14192 0.0
C601 C 0.04454 0.78656 0.14286 0.0
C602 C 1.01217 0.74967 0.14533 0.0
C603 C 0.97508 0.74494 0.14552 0.0
C604 C 0.9712 0.77747 0.14367 0.0
C605 C 1.00282 0.81373 0.14241 0.0
C606 C 0.99167 0.84415 0.13931 0.0
C607 C 1.00466 0.87117 0.16261 0.0
C608 C 1.00751 0.86649 0.11411 0.0
C609 C 0.9487 0.81951 0.13839 0.0
C610 C 0.93719 0.7811 0.1409 0.0
C611 C 0.89872 0.75301 0.13887 0.0
C612 C 0.87154 0.76456 0.13432 0.0
C613 C 0.88293 0.80385 0.13201 0.0
C614 C 0.92205 0.83145 0.13419 0.0
H615 H 0.09206 0.92356 0.63891 0.0
H616 H 0.12093 0.83485 0.65185 0.0
H617 H 0.18935 0.8846 0.65657 0.0
H618 H 0.17345 0.98325 0.60082 0.0
H619 H 0.17785 0.02702 0.61319 0.0
H620 H 0.13177 0.98427 0.61212 0.0
H621 H 0.12357 0.99064 0.66094 0.0
H622 H 0.16984 0.03326 0.66216 0.0
H623 H 0.15939 0.99352 0.68298 0.0
H624 H 0.25558 0.94606 0.65986 0.0
H625 H 0.31233 1.01129 0.65698 0.0
H626 H 0.23777 0.05738 0.64089 0.0
C627 C 0.11271 0.91458 0.64302 0.0
C628 C 0.10125 0.87545 0.64537 0.0
C629 C 0.12922 0.86475 0.65006 0.0
C630 C 0.16802 0.89281 0.65291 0.0
C631 C 0.17829 0.93131 0.65076 0.0
C632 C 0.15129 0.942 0.64562 0.0
C633 C 0.16935 0.98483 0.64278 0.0
C634 C 0.16272 0.99545 0.61562 0.0
C635 C 0.15466 1.00153 0.66345 0.0
C636 C 0.21084 0.99685 0.64711 0.0
C637 C 0.21568 0.96583 0.65196 0.0
C638 C 0.25198 0.97047 0.65612 0.0
C639 C 0.28403 1.00759 0.65465 0.0
C640 C 0.27943 0.03934 0.64874 0.0
C641 C 0.24226 0.03369 0.64542 0.0
H642 H 0.97567 0.86568 0.3939 0.0
H643 H 0.94788 0.74757 0.3858 0.0
H644 H 0.88008 0.72851 0.37784 0.0
H645 H 0.89282 0.8464 0.42808 0.0
H646 H 0.88839 0.88444 0.41336 0.0
H647 H 0.93463 0.88844 0.41627 0.0
H648 H 0.94455 0.89926 0.36716 0.0
H649 H 0.89812 0.89501 0.36411 0.0
H650 H 0.9097 0.86453 0.34544 0.0
H651 H 0.81378 0.7226 0.37229 0.0
H652 H 0.75628 0.73002 0.37355 0.0
H653 H 0.82912 0.85191 0.38578 0.0
C654 C 0.95552 0.83588 0.38996 0.0
C655 C 0.96723 0.80819 0.39019 0.0
C656 C 0.9396 0.76931 0.38572 0.0
C657 C 0.90107 0.75827 0.38101 0.0
C658 C 0.89052 0.78641 0.38092 0.0
C659 C 0.91708 0.82441 0.38544 0.0
C660 C 0.89842 0.84892 0.38612 0.0
C661 C 0.90388 0.86816 0.41252 0.0
C662 C 0.9136 0.87868 0.36441 0.0
C663 C 0.85712 0.81884 0.38157 0.0
C664 C 0.85294 0.78296 0.37826 0.0
C665 C 0.81688 0.75066 0.37468 0.0
C666 C 0.78436 0.75513 0.37522 0.0
C667 C 0.7882 0.79152 0.37965 0.0
C668 C 0.82519 0.82369 0.38225 0.0
H669 H 0.98401 0.82532 0.90516 0.0
H670 H 1.01866 0.75447 0.86339 0.0
H671 H 0.08274 0.81129 0.85675 0.0
H672 H 0.03672 0.91209 0.86741 0.0
H673 H 0.04854 0.94267 0.89516 0.0
H674 H 1.00493 0.89716 0.8946 0.0
H675 H 1.02484 0.87786 0.93686 0.0
H676 H 0.06851 0.9232 0.93755 0.0
H677 H 0.07018 0.87938 0.93851 0.0
H678 H 0.14449 0.87606 0.85704 0.0
H679 H 0.19783 0.94179 0.86436 0.0
H680 H 0.12181 0.96847 0.90702 0.0
C681 C 1.00471 0.82159 0.89422 0.0
C682 C 0.99608 0.7853 0.88462 0.0
C683 C 1.02444 0.78195 0.87079 0.0
C684 C 0.06092 0.81409 0.86694 0.0
C685 C 0.06852 0.84931 0.87705 0.0
C686 C 0.04106 0.85311 0.89038 0.0
C687 C 0.05665 0.89335 0.9006 0.0
C688 C 0.03545 0.91244 0.88873 0.0
C689 C 0.05495 0.89343 0.93012 0.0
C690 C 0.09742 0.91178 0.89114 0.0
C691 C 0.10376 0.88605 0.87749 0.0
C692 C 0.1397 0.89639 0.86761 0.0
C693 C 0.16989 0.93377 0.872 0.0
C694 C 0.16411 0.96045 0.88626 0.0
C695 C 0.12716 0.94914 0.89567 0.0
H696 H 0.18649 0.12655 0.41874 0.0
H697 H 0.29197 0.21462 0.3849 0.0
H698 H 0.31017 0.16574 0.37456 0.0
H699 H 0.22495 0.07212 0.4476 0.0
H700 H 0.18273 0.02682 0.44117 0.0
H701 H 0.1789 0.06904 0.44569 0.0
H702 H 0.14518 0.05748 0.40147 0.0
H703 H 0.14916 1.01537 0.39679 0.0
H704 H 0.16839 0.05304 0.3732 0.0
H705 H 0.31711 0.10522 0.36934 0.0
H706 H 0.3107 0.0406 0.36883 0.0
H707 H 0.19964 0.99441 0.40513 0.0
C708 C 0.21364 0.13576 0.40939 0.0
C709 C 0.23795 0.17459 0.40287 0.0
C710 C 0.2728 0.18507 0.39005 0.0
C711 C 0.28342 0.15748 0.38418 0.0
C712 C 0.25873 0.11941 0.39101 0.0
C713 C 0.22446 0.1087 0.40326 0.0
C714 C 0.20254 0.06616 0.40843 0.0
C715 C 0.19697 0.05808 0.43744 0.0
C716 C 0.16405 0.04689 0.39411 0.0
C717 C 0.22973 0.05441 0.39729 0.0
C718 C 0.26216 0.0853 0.3874 0.0
C719 C 0.29161 0.08087 0.37688 0.0
C720 C 0.28775 0.04405 0.37662 0.0
C721 C 0.25454 1.0121 0.38664 0.0
C722 C 0.22529 1.0178 0.39691 0.0
H723 H 0.21611 0.17536 0.88719 0.0
H724 H 0.28826 0.29879 0.88471 0.0
H725 H 0.23077 0.30561 0.88888 0.0
H726 H 0.13291 0.16935 0.85281 0.0
H727 H 0.0996 0.13075 0.87295 0.0
H728 H 0.1458 0.13611 0.86621 0.0
H729 H 0.15891 0.13764 0.915 0.0
H730 H 0.1131 0.13285 0.92196 0.0
H731 H 0.15594 0.17263 0.93492 0.0
H732 H 0.16552 0.29834 0.89898 0.0
H733 H 0.0987 0.27789 0.91089 0.0
H734 H 0.07045 0.15921 0.90694 0.0
C735 C 0.21988 0.2039 0.88686 0.0
C736 C 0.25674 0.23659 0.8855 0.0
C737 C 0.26031 0.27334 0.88537 0.0
C738 C 0.2278 0.27745 0.88789 0.0
C739 C 0.19199 0.24452 0.89022 0.0
C740 C 0.18791 0.20844 0.88932 0.0
C741 C 0.14689 0.17756 0.89386 0.0
C742 C 0.13033 0.15193 0.87003 0.0
C743 C 0.14354 0.1538 0.91786 0.0
C744 C 0.12844 0.20181 0.89809 0.0
C745 C 0.15479 0.24037 0.89584 0.0
C746 C 0.14463 0.26821 0.90042 0.0
C747 C 0.10668 0.25633 0.90738 0.0
C748 C 0.07924 0.21693 0.90971 0.0
C749 C 0.09048 0.18949 0.90482 0.0
H750 H 0.05605 0.21907 0.40806 0.0
H751 H 1.00821 0.27623 0.36365 0.0
H752 H 0.9456 0.21561 0.3628 0.0
H753 H 1.00509 0.12693 0.37709 0.0
H754 H 0.99988 0.1014 0.40657 0.0
H755 H 0.04041 0.14853 0.40213 0.0
H756 H 1.02316 0.17114 0.44402 0.0
H757 H 0.9824 0.12423 0.44854 0.0
H758 H 0.97619 0.16548 0.4475 0.0
H759 H 0.88682 0.14746 0.36913 0.0
H760 H 0.83961 0.08088 0.38115 0.0
H761 H 0.92855 0.07088 0.42114 0.0
C762 C 0.03263 0.21913 0.39793 0.0
C763 C 0.03717 0.25265 0.38592 0.0
C764 C 1.00556 0.25096 0.37288 0.0
C765 C 0.96989 0.21665 0.37239 0.0
C766 C 0.96645 0.18434 0.38492 0.0
C767 C 0.99727 0.18552 0.39731 0.0
C768 C 0.98669 0.14774 0.40997 0.0
C769 C 1.00936 0.13012 0.39823 0.0
C770 C 0.99245 0.15245 0.43923 0.0
C771 C 0.94482 0.12478 0.40305 0.0
C772 C 0.93347 0.14611 0.38854 0.0
C773 C 0.89567 0.13062 0.38034 0.0
C774 C 0.86903 0.09262 0.38718 0.0
C775 C 0.88014 0.07037 0.40219 0.0
C776 C 0.91875 0.08699 0.40999 0.0
H777 H 0.81469 0.89445 0.93674 0.0
H778 H 0.80802 0.86457 0.85611 0.0
H779 H 0.79467 0.91639 0.84517 0.0
H780 H 0.7412 0.92231 0.93608 0.0
H781 H 0.76723 0.96143 0.95807 0.0
H782 H 0.77241 0.91961 0.95973 0.0
H783 H 0.84586 0.96218 0.95468 0.0
H784 H 0.8407 1.00393 0.9533 0.0
H785 H 0.86472 0.99428 0.9277 0.0
H786 H 0.78596 0.97508 0.84287 0.0
H787 H 0.78727 0.03677 0.84964 0.0
H788 H 0.80094 0.02763 0.93142 0.0
C789 C 0.81045 0.89869 0.91675 0.0
C790 C 0.81236 0.87517 0.89733 0.0
C791 C 0.80616 0.88169 0.87144 0.0
C792 C 0.7986 0.91115 0.86501 0.0
C793 C 0.79712 0.93387 0.88465 0.0
C794 C 0.80295 0.92793 0.91001 0.0
C795 C 0.8023 0.95764 0.92743 0.0
C796 C 0.76878 0.93913 0.94644 0.0
C797 C 0.84068 0.98088 0.94159 0.0
C798 C 0.79621 0.98182 0.90786 0.0
C799 C 0.79265 0.9675 0.8833 0.0
C800 C 0.78838 0.98632 0.86207 0.0
C801 C 0.7889 0.02117 0.86605 0.0
C802 C 0.7942 0.03688 0.89099 0.0
C803 C 0.79686 1.01629 0.91209 0.0
H804 H 0.22264 0.6017 0.14854 0.0
H805 H 0.12635 0.56131 0.09626 0.0
H806 H 0.13318 0.50549 0.08537 0.0
H807 H 0.27861 0.57108 0.10965 0.0
H808 H 0.29577 0.55714 0.13724 0.0
H809 H 0.28479 0.59519 0.13991 0.0
H810 H 0.23837 0.55945 0.17736 0.0
H811 H 0.2492 0.52135 0.17479 0.0
H812 H 0.20035 0.51089 0.17266 0.0
H813 H 0.14805 0.4521 0.08184 0.0
H814 H 0.16989 0.40506 0.08604 0.0
H815 H 0.25737 0.48032 0.13998 0.0
C816 C 0.20341 0.58148 0.13447 0.0
C817 C 0.17385 0.58596 0.12332 0.0
C818 C 0.1489 0.55836 0.10532 0.0
C819 C 0.15271 0.52664 0.09886 0.0
C820 C 0.18176 0.52282 0.11044 0.0
C821 C 0.2068 0.54953 0.1278 0.0
C822 C 0.23456 0.53777 0.13824 0.0
C823 C 0.27588 0.56704 0.13081 0.0
C824 C 0.23035 0.53202 0.16749 0.0
C825 C 0.22085 0.50006 0.12431 0.0
C826 C 0.1905 0.49209 0.10827 0.0
C827 C 0.17203 0.45821 0.09417 0.0
C828 C 0.18465 0.43161 0.0967 0.0
C829 C 0.2155 0.43892 0.11322 0.0
C830 C 0.23401 0.47393 0.12694 0.0
H831 H 0.77161 0.16935 0.61924 0.0
H832 H 0.83248 0.29309 0.61253 0.0
H833 H 0.77112 0.29264 0.61374 0.0
H834 H 0.68631 0.15073 0.58148 0.0
H835 H 0.65436 0.1125 0.60241 0.0
H836 H 0.7027 0.12231 0.59804 0.0
H837 H 0.71327 0.12962 0.64723 0.0
H838 H 0.66518 0.1203 0.65175 0.0
H839 H 0.70484 0.16363 0.66427 0.0
H840 H 0.70328 0.27912 0.6191 0.0
H841 H 0.63469 0.25368 0.62782 0.0
H842 H 0.61787 0.13871 0.63133 0.0
C843 C 0.77201 0.19628 0.61728 0.0
C844 C 0.80698 0.23124 0.61548 0.0
C845 C 0.80615 0.26592 0.61375 0.0
C846 C 0.77138 0.26595 0.61443 0.0
C847 C 0.73753 0.23109 0.6169 0.0
C848 C 0.73754 0.19686 0.61817 0.0
C849 C 0.69748 0.16361 0.62253 0.0
C850 C 0.68444 0.13564 0.59975 0.0
C851 C 0.69507 0.1431 0.64796 0.0
C852 C 0.67501 0.18452 0.62388 0.0
C853 C 0.69858 0.22338 0.62039 0.0
C854 C 0.6845 0.24867 0.62157 0.0
C855 C 0.64539 0.23389 0.62644 0.0
C856 C 0.62059 0.19411 0.63022 0.0
C857 C 0.6359 0.16927 0.62877 0.0
H858 H 0.57353 0.78207 0.13851 0.0
H859 H 0.64434 0.76697 0.08239 0.0
H860 H 0.59784 0.6978 0.08077 0.0
H861 H 0.54789 0.6978 0.17339 0.0
H862 H 0.49965 0.68678 0.18003 0.0
H863 H 0.53652 0.73566 0.17512 0.0
H864 H 0.49661 0.74267 0.13877 0.0
H865 H 0.45949 0.69381 0.14365 0.0
H866 H 0.48037 0.70941 0.1123 0.0
H867 H 0.546 0.62967 0.08725 0.0
H868 H 0.49222 0.56752 0.10097 0.0
H869 H 0.45493 0.62593 0.15345 0.0
C870 C 0.57892 0.76439 0.12547 0.0
C871 C 0.61263 0.78022 0.11041 0.0
C872 C 0.61879 0.75575 0.09403 0.0
C873 C 0.59248 0.71634 0.09297 0.0
C874 C 0.56 0.7016 0.1084 0.0
C875 C 0.553 0.72486 0.12427 0.0
C876 C 0.51687 0.70142 0.13988 0.0
C877 C 0.52578 0.70567 0.16881 0.0
C878 C 0.48654 0.71249 0.13325 0.0
C879 C 0.50494 0.66129 0.13056 0.0
C880 C 0.53016 0.66215 0.1123 0.0
C881 C 0.52599 0.62869 0.10144 0.0
C882 C 0.49544 0.59346 0.10951 0.0
C883 C 0.46928 0.59164 0.12837 0.0
C884 C 0.47406 0.62624 0.13879 0.0
H885 H 0.81911 0.56327 0.64101 0.0
H886 H 0.90274 0.6362 0.58452 0.0
H887 H 0.92787 0.59158 0.5826 0.0
H888 H 0.88076 0.54028 0.67532 0.0
H889 H 0.84491 0.49151 0.68207 0.0
H890 H 0.83117 0.52727 0.67751 0.0
H891 H 0.78432 0.48634 0.64146 0.0
H892 H 0.79783 0.45035 0.64597 0.0
H893 H 0.80176 0.47112 0.6147 0.0
H894 H 0.94647 0.54102 0.58846 0.0
H895 H 0.95721 0.48838 0.60147 0.0
H896 H 0.86248 0.44784 0.65488 0.0
C897 C 0.8422 0.56949 0.62782 0.0
C898 C 0.85865 0.60327 0.61268 0.0
C899 C 0.88943 0.61057 0.59618 0.0
C900 C 0.90394 0.58532 0.59496 0.0
C901 C 0.88753 0.55272 0.61041 0.0
C902 C 0.85725 0.54464 0.62649 0.0
C903 C 0.84612 0.50858 0.64202 0.0
C904 C 0.85104 0.51745 0.67094 0.0
C905 C 0.80507 0.47724 0.63565 0.0
C906 C 0.8751 0.49786 0.63234 0.0
C907 C 0.89857 0.5237 0.61403 0.0
C908 C 0.92818 0.52061 0.60274 0.0
C909 C 0.93422 0.49065 0.61041 0.0
C910 C 0.91093 0.46386 0.62936 0.0
C911 C 0.88063 0.46748 0.6402 0.0
H912 H 0.43775 0.84845 0.14271 0.0
H913 H 0.48981 0.94589 0.09119 0.0
H914 H 0.42607 0.93597 0.0803 0.0
H915 H 0.35256 0.78984 0.10333 0.0
H916 H 0.32122 0.77094 0.13064 0.0
H917 H 0.37086 0.78445 0.13368 0.0
H918 H 0.37848 0.82958 0.17139 0.0
H919 H 0.3289 0.81617 0.16848 0.0
H920 H 0.36536 0.86587 0.16683 0.0
H921 H 0.35695 0.91765 0.07635 0.0
H922 H 0.2875 0.89244 0.07994 0.0
H923 H 0.27906 0.80584 0.13327 0.0
C924 C 0.43573 0.86737 0.12886 0.0
C925 C 0.46911 0.89815 0.11794 0.0
C926 C 0.46496 0.92249 0.10017 0.0
C927 C 0.42875 0.91691 0.09368 0.0
C928 C 0.39659 0.8867 0.10499 0.0
C929 C 0.39963 0.86223 0.12216 0.0
C930 C 0.36046 0.83278 0.1322 0.0
C931 C 0.35071 0.79209 0.12449 0.0
C932 C 0.35818 0.83633 0.16146 0.0
C933 C 0.33506 0.84481 0.1182 0.0
C934 C 0.35654 0.87589 0.10253 0.0
C935 C 0.33981 0.8931 0.08841 0.0
C936 C 0.30024 0.87854 0.09058 0.0
C937 C 0.27751 0.84692 0.10671 0.0
C938 C 0.29535 0.82966 0.12045 0.0
H939 H 0.61355 0.42416 0.64218 0.0
H940 H 0.58232 0.47262 0.57859 0.0
H941 H 0.53108 0.408 0.56638 0.0
H942 H 0.59471 0.3361 0.60947 0.0
H943 H 0.57574 0.30702 0.6378 0.0
H944 H 0.6114 0.35685 0.64079 0.0
H945 H 0.5665 0.36783 0.67067 0.0
H946 H 0.53085 0.31805 0.66788 0.0
H947 H 0.519 0.35437 0.65982 0.0
H948 H 0.47995 0.33816 0.56284 0.0
H949 H 0.43394 0.26914 0.56814 0.0
H950 H 0.49913 0.26578 0.6334 0.0
C951 C 0.59601 0.42123 0.62564 0.0
C952 C 0.60226 0.45373 0.61131 0.0
C953 C 0.57868 0.44833 0.58969 0.0
C954 C 0.54931 0.41166 0.58265 0.0
C955 C 0.54385 0.38035 0.59725 0.0
C956 C 0.56669 0.38473 0.61823 0.0
C957 C 0.55419 0.3465 0.6311 0.0
C958 C 0.5859 0.33601 0.6297 0.0
C959 C 0.5419 0.34671 0.65902 0.0
C960 C 0.52032 0.32007 0.6144 0.0
C961 C 0.51489 0.34012 0.59492 0.0
C962 C 0.48425 0.32213 0.57785 0.0
C963 C 0.45823 0.28285 0.58099 0.0
C964 C 0.46298 0.26176 0.60099 0.0
C965 C 0.49491 0.28076 0.61761 0.0
H966 H 0.50991 0.9243 0.39424 0.0
H967 H 0.40964 0.81942 0.41898 0.0
H968 H 0.44999 0.79093 0.42791 0.0
H969 H 0.55759 0.88115 0.36367 0.0
H970 H 0.60476 0.9167 0.37407 0.0
H971 H 0.56818 0.9294 0.37008 0.0
H972 H 0.5784 0.95374 0.41702 0.0
H973 H 0.615 0.94102 0.42117 0.0
H974 H 0.57477 0.92217 0.44272 0.0
H975 H 0.50062 0.77204 0.43189 0.0
H976 H 0.55804 0.76508 0.43149 0.0
H977 H 0.62657 0.88308 0.40693 0.0
C978 C 0.49637 0.89554 0.40189 0.0
C979 C 0.45618 0.87415 0.40557 0.0
C980 C 0.44001 0.83634 0.41533 0.0
C981 C 0.46282 0.81992 0.42074 0.0
C982 C 0.50209 0.84163 0.41667 0.0
C983 C 0.51884 0.87872 0.40763 0.0
C984 C 0.56174 0.89559 0.40458 0.0
C985 C 0.57376 0.90633 0.37643 0.0
C986 C 0.58377 0.93018 0.42244 0.0
C987 C 0.56638 0.86202 0.41298 0.0
C988 C 0.53155 0.83116 0.41985 0.0
C989 C 0.52811 0.7962 0.42688 0.0
C990 C 0.56093 0.79249 0.42659 0.0
C991 C 0.59699 0.82363 0.41957 0.0
C992 C 0.59965 0.85901 0.41302 0.0
H993 H 0.77652 0.55412 0.89876 0.0
H994 H 0.76915 0.62118 0.96134 0.0
H995 H 0.7 0.57565 0.96494 0.0
H996 H 0.69065 0.53404 0.86887 0.0
H997 H 0.67705 0.48599 0.85917 0.0
H998 H 0.72676 0.521 0.86331 0.0
H999 H 0.73449 0.47657 0.89564 0.0
H1000 H 0.68481 0.44122 0.89144 0.0
H1001 H 0.70334 0.45872 0.92311 0.0
H1002 H 0.63083 0.52624 0.95948 0.0
H1003 H 0.56671 0.47574 0.94602 0.0
H1004 H 0.61753 0.44042 0.88635 0.0
C1005 C 0.76058 0.55867 0.91369 0.0
C1006 C 0.77856 0.59117 0.92998 0.0
C1007 C 0.75628 0.59648 0.94877 0.0
C1008 C 0.71688 0.57072 0.95095 0.0
C1009 C 0.69989 0.53962 0.93419 0.0
C1010 C 0.72102 0.53329 0.91601 0.0
C1011 C 0.69522 0.49897 0.89932 0.0
C1012 C 0.69757 0.51072 0.87099 0.0
C1013 C 0.70505 0.46697 0.90258 0.0
C1014 C 0.65625 0.48745 0.91065 0.0
C1015 C 0.65974 0.5112 0.93085 0.0
C1016 C 0.62781 0.50735 0.94378 0.0
C1017 C 0.5914 0.47868 0.93584 0.0
C1018 C 0.58681 0.45405 0.91502 0.0
C1019 C 0.61994 0.4584 0.9025 0.0
H1020 H 0.16365 0.75372 0.40356 0.0
H1021 H 0.28451 0.80621 0.42105 0.0
H1022 H 0.2796 0.74274 0.4203 0.0
H1023 H 0.13191 0.66356 0.43958 0.0
H1024 H 0.09746 0.6346 0.41549 0.0
H1025 H 0.10934 0.68361 0.42007 0.0
H1026 H 0.12704 0.6972 0.37199 0.0
H1027 H 0.11557 0.64836 0.3673 0.0
H1028 H 0.16219 0.68699 0.35867 0.0
H1029 H 0.26294 0.6744 0.41536 0.0
H1030 H 0.23587 0.60576 0.40613 0.0
H1031 H 0.12568 0.59597 0.3904 0.0
C1032 C 0.18876 0.75162 0.40794 0.0
C1033 C 0.22438 0.78497 0.41285 0.0
C1034 C 0.25689 0.78113 0.41754 0.0
C1035 C 0.25439 0.74515 0.41713 0.0
C1036 C 0.21919 0.71297 0.4117 0.0
C1037 C 0.18689 0.71573 0.40718 0.0
C1038 C 0.15324 0.67677 0.40009 0.0
C1039 C 0.12108 0.66387 0.42 0.0
C1040 C 0.13866 0.67738 0.3729 0.0
C1041 C 0.17178 0.65188 0.40117 0.0
C1042 C 0.20976 0.67341 0.40814 0.0
C1043 C 0.23312 0.65719 0.41012 0.0
C1044 C 0.21736 0.61799 0.40494 0.0
C1045 C 0.17847 0.59501 0.39769 0.0
C1046 C 0.15552 0.61253 0.39577 0.0
H1047 H 0.61031 0.21378 0.8794 0.0
H1048 H 0.57715 0.12267 0.93515 0.0
H1049 H 0.52275 0.13043 0.94843 0.0
H1050 H 0.58399 0.2729 0.91793 0.0
H1051 H 0.56645 0.28716 0.8907 0.0
H1052 H 0.60421 0.2761 0.88658 0.0
H1053 H 0.56419 0.22575 0.85189 0.0
H1054 H 0.52647 0.23682 0.85581 0.0
H1055 H 0.51648 0.18825 0.85952 0.0
H1056 H 0.46917 0.14486 0.9535 0.0
H1057 H 0.42076 0.16509 0.94999 0.0
H1058 H 0.48932 0.24765 0.89158 0.0
C1059 C 0.59166 0.1955 0.89444 0.0
C1060 C 0.59819 0.16769 0.90629 0.0
C1061 C 0.57317 0.14456 0.92603 0.0
C1062 C 0.54208 0.14867 0.93366 0.0
C1063 C 0.53641 0.17624 0.92153 0.0
C1064 C 0.56058 0.19938 0.9024 0.0
C1065 C 0.54741 0.22596 0.89188 0.0
C1066 C 0.5773 0.26802 0.89709 0.0
C1067 C 0.53808 0.21875 0.86307 0.0
C1068 C 0.51163 0.2136 0.9077 0.0
C1069 C 0.50587 0.18499 0.92477 0.0
C1070 C 0.47363 0.16757 0.94043 0.0
C1071 C 0.44628 0.17926 0.93831 0.0
C1072 C 0.45136 0.20822 0.92072 0.0
C1073 C 0.48487 0.22595 0.90557 0.0
H1074 H 0.29099 0.42408 0.41197 0.0
H1075 H 0.23503 0.49051 0.42518 0.0
H1076 H 0.29748 0.55007 0.42352 0.0
H1077 H 0.3805 0.48701 0.44774 0.0
H1078 H 0.40989 0.48047 0.42459 0.0
H1079 H 0.36141 0.44289 0.42993 0.0
H1080 H 0.3472 0.44248 0.38141 0.0
H1081 H 0.39545 0.48034 0.37595 0.0
H1082 H 0.35583 0.48618 0.36613 0.0
H1083 H 0.36522 0.6027 0.41717 0.0
H1084 H 0.4334 0.64467 0.40701 0.0
H1085 H 0.44629 0.54479 0.39708 0.0
C1086 C 0.2921 0.45111 0.41535 0.0
C1087 C 0.25814 0.4526 0.41916 0.0
C1088 C 0.26064 0.48864 0.42249 0.0
C1089 C 0.29602 0.52266 0.42156 0.0
C1090 C 0.32884 0.52033 0.41707 0.0
C1091 C 0.32729 0.48551 0.41411 0.0
C1092 C 0.36651 0.49125 0.40763 0.0
C1093 C 0.3804 0.47441 0.42873 0.0
C1094 C 0.36621 0.47404 0.38121 0.0
C1095 C 0.39018 0.53465 0.40715 0.0
C1096 C 0.3679 0.55082 0.41284 0.0
C1097 C 0.38303 0.59035 0.41298 0.0
C1098 C 0.42194 0.61401 0.40727 0.0
C1099 C 0.44558 0.59828 0.40135 0.0
C1100 C 0.42917 0.5579 0.40133 0.0
H1101 H 0.84929 0.42741 0.88927 0.0
H1102 H 0.94685 0.48095 0.94069 0.0
H1103 H 0.93765 0.41753 0.95191 0.0
H1104 H 0.79163 0.34207 0.92889 0.0
H1105 H 0.773 0.31049 0.90161 0.0
H1106 H 0.78578 0.35999 0.89852 0.0
H1107 H 0.83094 0.36807 0.86081 0.0
H1108 H 0.81827 0.31864 0.86377 0.0
H1109 H 0.86772 0.35567 0.86541 0.0
H1110 H 0.92035 0.34878 0.95597 0.0
H1111 H 0.89647 0.27952 0.95221 0.0
H1112 H 0.80916 0.26931 0.89881 0.0
C1113 C 0.86836 0.42574 0.90318 0.0
C1114 C 0.89898 0.45941 0.91398 0.0
C1115 C 0.92356 0.45581 0.93184 0.0
C1116 C 0.91839 0.41981 0.9385 0.0
C1117 C 0.88835 0.38734 0.92729 0.0
C1118 C 0.86365 0.38986 0.91005 0.0
C1119 C 0.83461 0.35045 0.90003 0.0
C1120 C 0.79383 0.34015 0.90773 0.0
C1121 C 0.83811 0.34808 0.87077 0.0
C1122 C 0.84722 0.32554 0.91407 0.0
C1123 C 0.87815 0.34745 0.9298 0.0
C1124 C 0.89592 0.33128 0.94389 0.0
C1125 C 0.88211 0.29182 0.94161 0.0
C1126 C 0.85071 0.26866 0.92538 0.0
C1127 C 0.83281 0.28592 0.91172 0.0
H1128 H 0.13775 0.34093 0.31642 0.0
H1129 H 0.25598 0.39048 0.34063 0.0
H1130 H 0.27623 0.39702 0.29553 0.0
H1131 H 0.14214 0.28561 0.2661 0.0
H1132 H 0.1118 0.29293 0.24417 0.0
H1133 H 0.1063 0.29572 0.27824 0.0
H1134 H 0.11591 0.36384 0.27308 0.0
H1135 H 0.12117 0.36114 0.23891 0.0
H1136 H 0.15802 0.40018 0.2571 0.0
H1137 H 0.28348 0.39129 0.24886 0.0
H1138 H 0.27755 0.37752 0.20239 0.0
H1139 H 0.15545 0.33419 0.2068 0.0
C1140 C 0.16792 0.35395 0.31211 0.0
C1141 C 0.19531 0.36518 0.33203 0.0
C1142 C 0.23449 0.38159 0.3257 0.0
C1143 C 0.24633 0.38551 0.30011 0.0
C1144 C 0.21871 0.37319 0.28092 0.0
C1145 C 0.18035 0.35818 0.28647 0.0
C1146 C 0.15661 0.34549 0.26201 0.0
C1147 C 0.1275 0.30238 0.26268 0.0
C1148 C 0.13676 0.36908 0.25751 0.0
C1149 C 0.18752 0.35474 0.24211 0.0
C1150 C 0.22312 0.3708 0.25353 0.0
C1151 C 0.25588 0.37941 0.23958 0.0
C1152 C 0.25224 0.37138 0.21323 0.0
C1153 C 0.21619 0.35524 0.20101 0.0
C1154 C 0.18347 0.34718 0.21561 0.0
H1155 H 0.93361 0.21467 0.71887 0.0
H1156 H 0.81756 0.18191 0.69758 0.0
H1157 H 0.79981 0.1766 0.74349 0.0
H1158 H 0.9091 0.14933 0.76896 0.0
H1159 H 0.94805 0.17989 0.78994 0.0
H1160 H 0.95329 0.18673 0.75574 0.0
H1161 H 0.97063 0.25743 0.76116 0.0
H1162 H 0.96592 0.25096 0.79546 0.0
H1163 H 0.93877 0.26849 0.77854 0.0
H1164 H 0.79312 0.16853 0.7913 0.0
H1165 H 0.79831 0.15974 0.83782 0.0
H1166 H 0.91847 0.19654 0.82849 0.0
C1167 C 0.90489 0.20776 0.72404 0.0
C1168 C 0.87707 0.19973 0.70493 0.0
C1169 C 0.83932 0.18903 0.71212 0.0
C1170 C 0.82901 0.18583 0.73809 0.0
C1171 C 0.8568 0.1931 0.75662 0.0
C1172 C 0.89406 0.20407 0.74996 0.0
C1173 C 0.91753 0.20713 0.77356 0.0
C1174 C 0.93288 0.1791 0.77194 0.0
C1175 C 0.95014 0.24847 0.77741 0.0
C1176 C 0.88752 0.19547 0.7944 0.0
C1177 C 0.85276 0.18778 0.78422 0.0
C1178 C 0.82031 0.17496 0.79952 0.0
C1179 C 0.82348 0.16999 0.82591 0.0
C1180 C 0.85879 0.17771 0.83674 0.0
C1181 C 0.89118 0.19071 0.82074 0.0
H1182 H 0.75325 0.90957 0.21204 0.0
H1183 H 0.64092 0.81736 0.19129 0.0
H1184 H 0.62622 0.80056 0.23738 0.0
H1185 H 0.77243 0.86376 0.2613 0.0
H1186 H 0.79597 0.90482 0.28212 0.0
H1187 H 0.79624 0.91132 0.24794 0.0
H1188 H 0.76628 0.95463 0.25378 0.0
H1189 H 0.76657 0.94886 0.28806 0.0
H1190 H 0.72262 0.93715 0.27179 0.0
H1191 H 0.62789 0.78933 0.28587 0.0
H1192 H 0.64194 0.79069 0.33245 0.0
H1193 H 0.75127 0.8934 0.32097 0.0
C1194 C 0.72516 0.8866 0.21736 0.0
C1195 C 0.6979 0.86506 0.19839 0.0
C1196 C 0.66175 0.83462 0.20576 0.0
C1197 C 0.65337 0.82475 0.23182 0.0
C1198 C 0.68129 0.84605 0.25017 0.0
C1199 C 0.71611 0.87699 0.24323 0.0
C1200 C 0.74146 0.89514 0.26642 0.0
C1201 C 0.77871 0.89365 0.2643 0.0
C1202 C 0.7497 0.93639 0.27024 0.0
C1203 C 0.71601 0.86906 0.28748 0.0
C1204 C 0.68152 0.84065 0.27782 0.0
C1205 C 0.65453 0.81188 0.29364 0.0
C1206 C 0.66281 0.81264 0.32 0.0
C1207 C 0.69751 0.84224 0.33023 0.0
C1208 C 0.72428 0.87067 0.31369 0.0
H1209 H 0.83707 0.71509 0.71379 0.0
H1210 H 0.85292 0.61851 0.69796 0.0
H1211 H 0.85445 0.60758 0.74473 0.0
H1212 H 0.90392 0.75115 0.76389 0.0
H1213 H 0.87838 0.76849 0.78285 0.0
H1214 H 0.8725 0.76486 0.74854 0.0
H1215 H 0.79925 0.72204 0.75393 0.0
H1216 H 0.80488 0.72573 0.78832 0.0
H1217 H 0.78058 0.67934 0.77321 0.0
H1218 H 0.85641 0.60903 0.79381 0.0
H1219 H 0.86467 0.62628 0.84002 0.0
H1220 H 0.8545 0.72596 0.82275 0.0
C1221 C 0.83971 0.69098 0.72025 0.0
C1222 C 0.84388 0.66694 0.70245 0.0
C1223 C 0.84901 0.63672 0.71145 0.0
C1224 C 0.84989 0.63035 0.73793 0.0
C1225 C 0.84638 0.65499 0.7551 0.0
C1226 C 0.84176 0.68494 0.74656 0.0
C1227 C 0.84289 0.70985 0.76869 0.0
C1228 C 0.87642 0.75101 0.76581 0.0
C1229 C 0.80462 0.70918 0.77118 0.0
C1230 C 0.84918 0.68952 0.79099 0.0
C1231 C 0.85033 0.65748 0.78292 0.0
C1232 C 0.85568 0.63415 0.80028 0.0
C1233 C 0.86042 0.64415 0.82648 0.0
C1234 C 0.86071 0.67764 0.83491 0.0
C1235 C 0.85473 0.70031 0.81687 0.0
H1236 H 0.2314 0.90293 0.20205 0.0
H1237 H 0.16069 0.77974 0.19571 0.0
H1238 H 0.16846 0.7733 0.24212 0.0
H1239 H 0.29606 0.90507 0.25434 0.0
H1240 H 0.29679 0.94521 0.27012 0.0
H1241 H 0.29129 0.94016 0.23574 0.0
H1242 H 0.22881 0.9432 0.23863 0.0
H1243 H 0.23428 0.9485 0.2729 0.0
H1244 H 0.19088 0.91023 0.25934 0.0
H1245 H 0.1774 0.78004 0.28922 0.0
H1246 H 0.18255 0.79976 0.33458 0.0
H1247 H 0.24605 0.91881 0.31196 0.0
C1248 C 0.21845 0.87461 0.2104 0.0
C1249 C 0.19595 0.84171 0.19526 0.0
C1250 C 0.17837 0.8052 0.20693 0.0
C1251 C 0.18278 0.80128 0.23325 0.0
C1252 C 0.20465 0.83421 0.24778 0.0
C1253 C 0.22201 0.87024 0.23687 0.0
C1254 C 0.24002 0.90107 0.25739 0.0
C1255 C 0.28364 0.92425 0.2542 0.0
C1256 C 0.22243 0.92728 0.25704 0.0
C1257 C 0.22906 0.87676 0.28155 0.0
C1258 C 0.20935 0.83823 0.27542 0.0
C1259 C 0.19347 0.81006 0.29426 0.0
C1260 C 0.19666 0.82147 0.31997 0.0
C1261 C 0.21566 0.86064 0.32668 0.0
C1262 C 0.23279 0.88867 0.30731 0.0
H1263 H 0.30615 0.18078 0.8111 0.0
H1264 H 0.42508 0.2412 0.83459 0.0
H1265 H 0.4447 0.24385 0.78917 0.0
H1266 H 0.31372 0.1227 0.76368 0.0
H1267 H 0.28044 0.12522 0.74177 0.0
H1268 H 0.27611 0.1302 0.77574 0.0
H1269 H 0.2798 0.19548 0.76828 0.0
H1270 H 0.28383 0.19057 0.73423 0.0
H1271 H 0.31962 0.23244 0.75081 0.0
H1272 H 0.45071 0.23671 0.74089 0.0
H1273 H 0.44253 0.22255 0.69413 0.0
H1274 H 0.31971 0.16694 0.70287 0.0
C1275 C 0.33636 0.19493 0.80668 0.0
C1276 C 0.36414 0.21075 0.82634 0.0
C1277 C 0.40336 0.22902 0.81979 0.0
C1278 C 0.41472 0.23056 0.79406 0.0
C1279 C 0.38649 0.21399 0.77516 0.0
C1280 C 0.34811 0.19685 0.78119 0.0
C1281 C 0.32327 0.18064 0.75752 0.0
C1282 C 0.29684 0.13711 0.75983 0.0
C1283 C 0.30028 0.201 0.75241 0.0
C1284 C 0.35354 0.19051 0.73721 0.0
C1285 C 0.38989 0.20995 0.74767 0.0
C1286 C 0.42239 0.22168 0.73254 0.0
C1287 C 0.41755 0.21349 0.7061 0.0
C1288 C 0.38058 0.19365 0.69521 0.0
C1289 C 0.34826 0.18206 0.71092 0.0
H1290 H 0.38939 0.29236 0.98909 0.0
H1291 H 0.27832 0.21325 0.95694 0.0
H1292 H 0.24731 0.23289 0.98979 0.0
H1293 H 0.35796 0.27997 0.05705 0.0
H1294 H 0.39017 0.32973 0.06412 0.0
H1295 H 0.40237 0.3059 0.0398 0.0
H1296 H 0.41097 0.35807 1.00704 0.0
H1297 H 0.39792 0.3815 0.03108 0.0
H1298 H 0.37187 0.3667 1.00123 0.0
H1299 H 0.22887 0.26641 0.02495 0.0
H1300 H 0.22579 0.30614 0.06056 0.0
H1301 H 0.3491 0.36284 0.06782 0.0
C1302 C 0.35849 0.2784 0.98935 0.0
C1303 C 0.33637 0.25116 0.97045 0.0
C1304 C 0.29595 0.23401 0.97133 0.0
C1305 C 0.27803 0.24514 0.98986 0.0
C1306 C 0.30082 0.27328 1.00761 0.0
C1307 C 0.34018 0.28914 1.0077 0.0
C1308 C 0.35854 0.31975 0.02807 0.0
C1309 C 0.37842 0.30813 0.04847 0.0
C1310 C 0.38646 0.3588 0.01613 0.0
C1311 C 0.32365 0.31945 0.03896 0.0
C1312 C 0.29043 0.2924 0.02719 0.0
C1313 C 0.25481 0.28758 0.03433 0.0
C1314 C 0.25326 0.31049 0.05434 0.0
C1315 C 0.28716 0.3378 0.06681 0.0
C1316 C 0.32259 0.34234 0.05864 0.0
H1317 H 0.03469 0.32956 0.45645 0.0
H1318 H 0.13377 0.32077 0.47813 0.0
H1319 H 0.10031 0.28709 0.51819 0.0
H1320 H 1.01431 0.35082 0.51738 0.0
H1321 H 0.9632 0.32435 0.51303 0.0
H1322 H 0.99399 0.34401 0.48566 0.0
H1323 H 0.96215 0.27653 0.46499 0.0
H1324 H 0.93173 0.25651 0.49263 0.0
H1325 H 0.96153 0.2375 0.48226 0.0
H1326 H 0.0571 0.25886 0.55735 0.0
H1327 H 1.0127 0.24561 0.59345 0.0
H1328 H 0.94185 0.27269 0.54552 0.0
C1329 C 0.04944 0.32035 0.46947 0.0
C1330 C 0.08696 0.32786 0.46418 0.0
C1331 C 0.10515 0.31549 0.48185 0.0
C1332 C 0.08616 0.29605 0.50449 0.0
C1333 C 0.04899 0.28905 0.509 0.0
C1334 C 0.03103 0.30113 0.49195 0.0
C1335 C 0.99235 0.29297 0.50184 0.0
C1336 C 0.99091 0.33024 0.50466 0.0
C1337 C 0.96003 0.26416 0.48439 0.0
C1338 C 0.99155 0.27544 0.52769 0.0
C1339 C 1.02414 0.27268 0.53125 0.0
C1340 C 0.03126 0.26025 0.55448 0.0
C1341 C 1.0056 0.25234 0.57483 0.0
C1342 C 0.97308 0.25673 0.57197 0.0
C1343 C 0.96539 0.26726 0.54784 0.0
H1344 H 0.66728 0.93712 0.04022 0.0
H1345 H 0.77653 0.95587 0.06804 0.0
H1346 H 0.80986 1.0089 0.03707 0.0
H1347 H 0.69665 0.96048 0.972 0.0
H1348 H 0.66771 0.98262 0.96788 0.0
H1349 H 0.65338 0.94389 0.99035 0.0
H1350 H 0.65075 0.98696 0.02635 0.0
H1351 H 0.66592 0.02605 1.00416 0.0
H1352 H 0.69271 0.03232 0.03322 0.0
H1353 H 0.83142 0.0656 1.00487 0.0
H1354 H 0.83732 0.11364 0.97231 0.0
H1355 H 0.71381 0.05634 0.96694 0.0
C1356 C 0.69817 0.95162 0.03935 0.0
C1357 C 0.71917 0.94215 0.05664 0.0
C1358 C 0.7597 0.96243 0.05499 0.0
C1359 C 0.77896 0.99283 0.03751 0.0
C1360 C 0.7574 1.0026 0.02152 0.0
C1361 C 0.71782 0.98197 0.02201 0.0
C1362 C 0.70103 0.99859 1.00352 0.0
C1363 C 0.67836 0.96968 0.98217 0.0
C1364 C 0.67615 1.01175 0.01767 0.0
C1365 C 0.73712 0.03232 0.99307 0.0
C1366 C 0.76955 0.03438 1.00343 0.0
C1367 C 0.80606 0.06394 0.99655 0.0
C1368 C 0.80926 0.09138 0.97825 0.0
C1369 C 0.77612 0.08896 0.96712 0.0
C1370 C 0.73983 0.05918 0.97503 0.0
H1371 H 0.76282 0.66076 0.54073 0.0
H1372 H 0.83985 0.76981 0.57639 0.0
H1373 H 0.81995 0.80264 0.54515 0.0
H1374 H 0.77767 0.69697 0.47451 0.0
H1375 H 0.7285 0.66517 0.46583 0.0
H1376 H 0.75083 0.6513 0.49024 0.0
H1377 H 0.69674 0.64026 0.52187 0.0
H1378 H 0.67473 0.65487 0.49771 0.0
H1379 H 0.68746 0.67879 0.52837 0.0
H1380 H 0.78745 0.82343 0.5104 0.0
H1381 H 0.75133 0.82933 0.47343 0.0
H1382 H 0.69694 0.70681 0.46153 0.0
C1383 C 0.77617 0.69162 0.54164 0.0
C1384 C 0.80307 0.71255 0.56107 0.0
C1385 C 0.81937 0.75298 0.56164 0.0
C1386 C 0.80803 0.77196 0.54403 0.0
C1387 C 0.78048 0.75033 0.52564 0.0
C1388 C 0.76531 0.71107 0.52412 0.0
C1389 C 0.73607 0.69421 0.50273 0.0
C1390 C 0.74905 0.67584 0.48211 0.0
C1391 C 0.69641 0.66533 0.51332 0.0
C1392 C 0.7368 0.72986 0.49266 0.0
C1393 C 0.76238 0.76212 0.50603 0.0
C1394 C 0.76742 0.79823 0.49979 0.0
C1395 C 0.74655 0.80139 0.47896 0.0
C1396 C 0.72116 0.76863 0.46462 0.0
C1397 C 0.71609 0.73256 0.47204 0.0
H1398 H 0.94356 0.65902 0.99055 0.0
H1399 H 0.96226 0.7677 0.9614 0.0
H1400 H 1.01768 0.80182 0.99056 0.0
H1401 H 0.97038 0.68982 0.05717 0.0
H1402 H 0.99271 0.66104 0.0612 0.0
H1403 H 0.95349 0.64618 0.03908 0.0
H1404 H 0.99569 0.64309 1.00274 0.0
H1405 H 0.03525 0.65872 0.02464 0.0
H1406 H 0.04083 0.68499 0.99546 0.0
H1407 H 0.07451 0.82425 0.02287 0.0
H1408 H 0.12154 0.83115 0.05656 0.0
H1409 H 0.06511 0.70765 0.06272 0.0
C1410 C 0.95876 0.68999 0.99065 0.0
C1411 C 0.94817 0.71054 0.97372 0.0
C1412 C 0.96945 0.75117 0.9743 0.0
C1413 C 1.00124 0.77088 0.99073 0.0
C1414 C 1.01164 0.74971 1.00665 0.0
C1415 C 0.99061 0.7101 1.00687 0.0
C1416 C 1.00775 0.69377 0.02536 0.0
C1417 C 0.9794 0.67139 0.04698 0.0
C1418 C 1.02064 0.66867 1.01119 0.0
C1419 C 0.04173 0.73016 0.03542 0.0
C1420 C 0.04383 0.76234 0.02452 0.0
C1421 C 0.07301 0.79909 0.03144 0.0
C1422 C 0.09992 0.80286 0.05039 0.0
C1423 C 0.09739 0.77004 0.06215 0.0
C1424 C 0.06816 0.73345 0.05406 0.0
H1425 H 0.30677 0.93439 0.48856 0.0
H1426 H 0.23061 0.96682 0.45188 0.0
H1427 H 0.25063 1.01996 0.48277 0.0
H1428 H 0.29143 0.95679 0.55451 0.0
H1429 H 0.34044 0.97378 0.56348 0.0
H1430 H 0.31808 0.93732 0.53925 0.0
H1431 H 0.37266 0.97951 0.50772 0.0
H1432 H 0.39469 1.01645 0.53167 0.0
H1433 H 0.38242 0.02735 0.50075 0.0
H1434 H 0.28367 0.07388 0.51679 0.0
H1435 H 0.31979 0.11644 0.55347 0.0
H1436 H 0.37241 0.04713 0.5675 0.0
C1437 C 0.29361 0.95208 0.48737 0.0
C1438 C 0.267 0.94615 0.46772 0.0
C1439 C 0.25087 0.97043 0.4668 0.0
C1440 C 0.2623 1.001 0.4842 0.0
C1441 C 0.28966 1.00691 0.50276 0.0
C1442 C 0.30447 0.98255 0.50473 0.0
C1443 C 0.33348 0.99493 0.52628 0.0
C1444 C 0.32005 0.96386 0.54711 0.0
C1445 C 0.37316 1.00517 0.51598 0.0
C1446 C 0.33305 0.03019 0.53595 0.0
C1447 C 0.30787 0.03703 0.52216 0.0
C1448 C 0.30332 0.06855 0.52776 0.0
C1449 C 0.32421 0.09288 0.54843 0.0
C1450 C 0.34907 0.08532 0.56327 0.0
C1451 C 0.35368 0.05383 0.55653 0.0
loop_
_geom_bond_atom_site_label_1
_geom_bond_atom_site_label_2
_geom_bond_distance
_geom_bond_site_symmetry_2
_ccdc_geom_bond_type
Nd0 C2 2.836 . S
Nd0 O20 2.500 . S
Nd0 O21 2.492 . S
Nd0 O22 2.487 . S
Nd0 O23 2.682 . S
Nd0 O24 2.410 . S
Nd0 O29 2.414 . S
Nd0 O31 2.424 . S
Nd1 C11 2.836 . S
Nd1 O23 2.414 . S
Nd1 O25 2.424 . S
Nd1 O26 2.500 . S
Nd1 O27 2.492 . S
Nd1 O28 2.487 . S
Nd1 O29 2.682 . S
Nd1 O30 2.410 . S
C2 Nd0 2.836 . S
C2 C3 1.498 . S
C2 O20 1.258 . S
C2 O21 1.239 . S
C3 C2 1.498 . S
C3 C4 1.366 . S
C3 C8 1.407 . S
C4 C3 1.366 . S
C4 C5 1.392 . S
C4 H32 0.930 . S
C5 C4 1.392 . S
C5 C6 1.398 . S
C5 H33 0.929 . S
C6 C5 1.398 . S
C6 C7 1.352 . S
C7 C6 1.352 . S
C7 C8 1.384 . S
C7 H34 0.930 . S
C8 C3 1.407 . S
C8 C7 1.384 . S
C8 H35 0.929 . S
C9 O22 1.241 . S
C9 O23 1.273 . S
C10 O24 1.251 . S
C10 O25 1.268 . S
C11 Nd1 2.836 . S
C11 C12 1.498 . S
C11 O26 1.258 . S
C11 O27 1.239 . S
C12 C11 1.498 . S
C12 C13 1.366 . S
C12 C17 1.407 . S
C13 C12 1.366 . S
C13 C14 1.392 . S
C13 H36 0.930 . S
C14 C13 1.392 . S
C14 C15 1.398 1_455 S
C14 H37 0.929 . S
C15 C14 1.398 1_655 S
C15 C16 1.352 . S
C16 C15 1.352 . S
C16 C17 1.384 1_655 S
C16 H38 0.930 . S
C17 C12 1.407 . S
C17 C16 1.384 1_455 S
C17 H39 0.929 . S
C18 O28 1.241 . S
C18 O29 1.273 . S
C19 O30 1.251 . S
C19 O31 1.268 . S
O20 Nd0 2.500 . S
O20 C2 1.258 . S
O21 Nd0 2.492 . S
O21 C2 1.239 . S
O22 Nd0 2.487 . S
O22 C9 1.241 . S
O23 Nd0 2.682 . S
O23 Nd1 2.414 . S
O23 C9 1.273 . S
O24 Nd0 2.410 . S
O24 C10 1.251 . S
O25 Nd1 2.424 . S
O25 C10 1.268 . S
O26 Nd1 2.500 . S
O26 C11 1.258 . S
O27 Nd1 2.492 . S
O27 C11 1.239 . S
O28 Nd1 2.487 . S
O28 C18 1.241 . S
O29 Nd0 2.414 . S
O29 Nd1 2.682 . S
O29 C18 1.273 . S
O30 Nd1 2.410 . S
O30 C19 1.251 . S
O31 Nd0 2.424 . S
O31 C19 1.268 . S
H32 C4 0.930 . S
H33 C5 0.929 . S
H34 C7 0.930 . S
H35 C8 0.929 . S
H36 C13 0.930 . S
H37 C14 0.929 . S
H38 C16 0.930 . S
H39 C17 0.929 . S
Nd40 C42 2.836 . S
Nd40 O60 2.500 . S
Nd40 O61 2.492 . S
Nd40 O62 2.487 . S
Nd40 O63 2.682 . S
Nd40 O64 2.410 . S
Nd40 O69 2.414 . S
Nd40 O71 2.424 . S
Nd41 C51 2.836 . S
Nd41 O63 2.414 . S
Nd41 O65 2.424 . S
Nd41 O66 2.500 . S
Nd41 O67 2.492 . S
Nd41 O68 2.487 . S
Nd41 O69 2.682 . S
Nd41 O70 2.410 . S
C42 Nd40 2.836 . S
C42 C43 1.498 . S
C42 O60 1.258 . S
C42 O61 1.239 . S
C43 C42 1.498 . S
C43 C44 1.366 . S
C43 C48 1.407 . S
C44 C43 1.366 . S
C44 C45 1.392 . S
C44 H72 0.930 . S
C45 C44 1.392 . S
C45 C46 1.398 . S
C45 H73 0.929 . S
C46 C45 1.398 . S
C46 C47 1.352 . S
C47 C46 1.352 . S
C47 C48 1.384 . S
C47 H74 0.930 . S
C48 C43 1.407 . S
C48 C47 1.384 . S
C48 H75 0.929 . S
C49 O62 1.241 . S
C49 O63 1.273 . S
C50 O64 1.251 . S
C50 O65 1.268 . S
C51 Nd41 2.836 . S
C51 C52 1.498 . S
C51 O66 1.258 . S
C51 O67 1.239 . S
C52 C51 1.498 . S
C52 C53 1.366 . S
C52 C57 1.407 . S
C53 C52 1.366 . S
C53 C54 1.392 . S
C53 H76 0.930 . S
C54 C53 1.392 . S
C54 C55 1.398 1_545 S
C54 H77 0.929 . S
C55 C54 1.398 1_565 S
C55 C56 1.352 . S
C56 C55 1.352 . S
C56 C57 1.384 1_565 S
C56 H78 0.930 . S
C57 C52 1.407 . S
C57 C56 1.384 1_545 S
C57 H79 0.929 . S
C58 O68 1.241 . S
C58 O69 1.273 . S
C59 O70 1.251 . S
C59 O71 1.268 . S
O60 Nd40 2.500 . S
O60 C42 1.258 . S
O61 Nd40 2.492 . S
O61 C42 1.239 . S
O62 Nd40 2.487 . S
O62 C49 1.241 . S
O63 Nd40 2.682 . S
O63 Nd41 2.414 . S
O63 C49 1.273 . S
O64 Nd40 2.410 . S
O64 C50 1.251 . S
O65 Nd41 2.424 . S
O65 C50 1.268 . S
O66 Nd41 2.500 . S
O66 C51 1.258 . S
O67 Nd41 2.492 . S
O67 C51 1.239 . S
O68 Nd41 2.487 . S
O68 C58 1.241 . S
O69 Nd40 2.414 . S
O69 Nd41 2.682 . S
O69 C58 1.273 . S
O70 Nd41 2.410 . S
O70 C59 1.251 . S
O71 Nd40 2.424 . S
O71 C59 1.268 . S
H72 C44 0.930 . S
H73 C45 0.929 . S
H74 C47 0.930 . S
H75 C48 0.929 . S
H76 C53 0.930 . S
H77 C54 0.929 . S
H78 C56 0.930 . S
H79 C57 0.929 . S
Nd80 C82 2.836 . S
Nd80 O100 2.500 . S
Nd80 O101 2.492 . S
Nd80 O102 2.487 . S
Nd80 O103 2.682 . S
Nd80 O104 2.410 . S
Nd80 O109 2.414 . S
Nd80 O111 2.424 . S
Nd81 C91 2.836 . S
Nd81 O103 2.414 . S
Nd81 O105 2.424 . S
Nd81 O106 2.500 . S
Nd81 O107 2.492 . S
Nd81 O108 2.487 . S
Nd81 O109 2.682 . S
Nd81 O110 2.410 . S
C82 Nd80 2.836 . S
C82 C83 1.498 . S
C82 O100 1.258 . S
C82 O101 1.239 . S
C83 C82 1.498 . S
C83 C84 1.366 . S
C83 C88 1.407 . S
C84 C83 1.366 . S
C84 C85 1.392 . S
C84 H112 0.930 . S
C85 C84 1.392 . S
C85 C86 1.398 . S
C85 H113 0.929 . S
C86 C85 1.398 . S
C86 C87 1.352 . S
C87 C86 1.352 . S
C87 C88 1.384 . S
C87 H114 0.930 . S
C88 C83 1.407 . S
C88 C87 1.384 . S
C88 H115 0.929 . S
C89 O102 1.241 . S
C89 O103 1.273 . S
C90 O104 1.251 . S
C90 O105 1.268 . S
C91 Nd81 2.836 . S
C91 C92 1.498 . S
C91 O106 1.258 . S
C91 O107 1.239 . S
C92 C91 1.498 . S
C92 C93 1.366 . S
C92 C97 1.407 . S
C93 C92 1.366 . S
C93 C94 1.392 . S
C93 H116 0.930 . S
C94 C93 1.392 . S
C94 C95 1.398 . S
C94 H117 0.929 . S
C95 C94 1.398 . S
C95 C96 1.352 . S
C96 C95 1.352 . S
C96 C97 1.384 . S
C96 H118 0.930 . S
C97 C92 1.407 . S
C97 C96 1.384 . S
C97 H119 0.929 . S
C98 O108 1.241 . S
C98 O109 1.273 . S
C99 O110 1.251 . S
C99 O111 1.268 . S
O100 Nd80 2.500 . S
O100 C82 1.258 . S
O101 Nd80 2.492 . S
O101 C82 1.239 . S
O102 Nd80 2.487 . S
O102 C89 1.241 . S
O103 Nd80 2.682 . S
O103 Nd81 2.414 . S
O103 C89 1.273 . S
O104 Nd80 2.410 . S
O104 C90 1.251 . S
O105 Nd81 2.424 . S
O105 C90 1.268 . S
O106 Nd81 2.500 . S
O106 C91 1.258 . S
O107 Nd81 2.492 . S
O107 C91 1.239 . S
O108 Nd81 2.487 . S
O108 C98 1.241 . S
O109 Nd80 2.414 . S
O109 Nd81 2.682 . S
O109 C98 1.273 . S
O110 Nd81 2.410 . S
O110 C99 1.251 . S
O111 Nd80 2.424 . S
O111 C99 1.268 . S
H112 C84 0.930 . S
H113 C85 0.929 . S
H114 C87 0.930 . S
H115 C88 0.929 . S
H116 C93 0.930 . S
H117 C94 0.929 . S
H118 C96 0.930 . S
H119 C97 0.929 . S
Nd120 C122 2.836 . S
Nd120 O140 2.500 . S
Nd120 O141 2.492 . S
Nd120 O142 2.487 . S
Nd120 O143 2.682 . S
Nd120 O144 2.410 . S
Nd120 O149 2.414 . S
Nd120 O151 2.424 . S
Nd121 C131 2.836 . S
Nd121 O143 2.414 . S
Nd121 O145 2.424 . S
Nd121 O146 2.500 . S
Nd121 O147 2.492 . S
Nd121 O148 2.487 . S
Nd121 O149 2.682 . S
Nd121 O150 2.410 . S
C122 Nd120 2.836 . S
C122 C123 1.498 . S
C122 O140 1.258 . S
C122 O141 1.239 . S
C123 C122 1.498 . S
C123 C124 1.366 . S
C123 C128 1.407 . S
C124 C123 1.366 . S
C124 C125 1.392 . S
C124 H152 0.930 . S
C125 C124 1.392 . S
C125 C126 1.398 . S
C125 H153 0.929 . S
C126 C125 1.398 . S
C126 C127 1.352 . S
C127 C126 1.352 . S
C127 C128 1.384 . S
C127 H154 0.930 . S
C128 C123 1.407 . S
C128 C127 1.384 . S
C128 H155 0.929 . S
C129 O142 1.241 . S
C129 O143 1.273 . S
C130 O144 1.251 . S
C130 O145 1.268 . S
C131 Nd121 2.836 . S
C131 C132 1.498 . S
C131 O146 1.258 . S
C131 O147 1.239 . S
C132 C131 1.498 . S
C132 C133 1.366 . S
C132 C137 1.407 . S
C133 C132 1.366 . S
C133 C134 1.392 . S
C133 H156 0.930 . S
C134 C133 1.392 . S
C134 C135 1.398 1_655 S
C134 H157 0.929 . S
C135 C134 1.398 1_455 S
C135 C136 1.352 . S
C136 C135 1.352 . S
C136 C137 1.384 1_455 S
C136 H158 0.930 . S
C137 C132 1.407 . S
C137 C136 1.384 1_655 S
C137 H159 0.929 . S
C138 O148 1.241 . S
C138 O149 1.273 . S
C139 O150 1.251 . S
C139 O151 1.268 . S
O140 Nd120 2.500 . S
O140 C122 1.258 . S
O141 Nd120 2.492 . S
O141 C122 1.239 . S
O142 Nd120 2.487 . S
O142 C129 1.241 . S
O143 Nd120 2.682 . S
O143 Nd121 2.414 . S
O143 C129 1.273 . S
O144 Nd120 2.410 . S
O144 C130 1.251 . S
O145 Nd121 2.424 . S
O145 C130 1.268 . S
O146 Nd121 2.500 . S
O146 C131 1.258 . S
O147 Nd121 2.492 . S
O147 C131 1.239 . S
O148 Nd121 2.487 . S
O148 C138 1.241 . S
O149 Nd120 2.414 . S
O149 Nd121 2.682 . S
O149 C138 1.273 . S
O150 Nd121 2.410 . S
O150 C139 1.251 . S
O151 Nd120 2.424 . S
O151 C139 1.268 . S
H152 C124 0.930 . S
H153 C125 0.929 . S
H154 C127 0.930 . S
H155 C128 0.929 . S
H156 C133 0.930 . S
H157 C134 0.929 . S
H158 C136 0.930 . S
H159 C137 0.929 . S
Nd160 C162 2.836 . S
Nd160 O180 2.500 . S
Nd160 O181 2.492 . S
Nd160 O182 2.487 . S
Nd160 O183 2.682 . S
Nd160 O184 2.410 . S
Nd160 O189 2.414 . S
Nd160 O191 2.424 . S
Nd161 C171 2.836 . S
Nd161 O183 2.414 . S
Nd161 O185 2.424 . S
Nd161 O186 2.500 . S
Nd161 O187 2.492 . S
Nd161 O188 2.487 . S
Nd161 O189 2.682 . S
Nd161 O190 2.410 . S
C162 Nd160 2.836 . S
C162 C163 1.498 . S
C162 O180 1.258 . S
C162 O181 1.239 . S
C163 C162 1.498 . S
C163 C164 1.366 . S
C163 C168 1.407 . S
C164 C163 1.366 . S
C164 C165 1.392 . S
C164 H192 0.930 . S
C165 C164 1.392 . S
C165 C166 1.398 . S
C165 H193 0.929 . S
C166 C165 1.398 . S
C166 C167 1.352 . S
C167 C166 1.352 . S
C167 C168 1.384 . S
C167 H194 0.930 . S
C168 C163 1.407 . S
C168 C167 1.384 . S
C168 H195 0.929 . S
C169 O182 1.241 . S
C169 O183 1.273 . S
C170 O184 1.251 . S
C170 O185 1.268 . S
C171 Nd161 2.836 . S
C171 C172 1.498 . S
C171 O186 1.258 . S
C171 O187 1.239 . S
C172 C171 1.498 . S
C172 C173 1.366 . S
C172 C177 1.407 . S
C173 C172 1.366 . S
C173 C174 1.392 . S
C173 H196 0.930 . S
C174 C173 1.392 . S
C174 C175 1.398 1_565 S
C174 H197 0.929 . S
C175 C174 1.398 1_545 S
C175 C176 1.352 . S
C176 C175 1.352 . S
C176 C177 1.384 1_545 S
C176 H198 0.930 . S
C177 C172 1.407 . S
C177 C176 1.384 1_565 S
C177 H199 0.929 . S
C178 O188 1.241 . S
C178 O189 1.273 . S
C179 O190 1.251 . S
C179 O191 1.268 . S
O180 Nd160 2.500 . S
O180 C162 1.258 . S
O181 Nd160 2.492 . S
O181 C162 1.239 . S
O182 Nd160 2.487 . S
O182 C169 1.241 . S
O183 Nd160 2.682 . S
O183 Nd161 2.414 . S
O183 C169 1.273 . S
O184 Nd160 2.410 . S
O184 C170 1.251 . S
O185 Nd161 2.424 . S
O185 C170 1.268 . S
O186 Nd161 2.500 . S
O186 C171 1.258 . S
O187 Nd161 2.492 . S
O187 C171 1.239 . S
O188 Nd161 2.487 . S
O188 C178 1.241 . S
O189 Nd160 2.414 . S
O189 Nd161 2.682 . S
O189 C178 1.273 . S
O190 Nd161 2.410 . S
O190 C179 1.251 . S
O191 Nd160 2.424 . S
O191 C179 1.268 . S
H192 C164 0.930 . S
H193 C165 0.929 . S
H194 C167 0.930 . S
H195 C168 0.929 . S
H196 C173 0.930 . S
H197 C174 0.929 . S
H198 C176 0.930 . S
H199 C177 0.929 . S
Nd200 C202 2.836 . S
Nd200 O220 2.500 . S
Nd200 O221 2.492 . S
Nd200 O222 2.487 . S
Nd200 O223 2.682 . S
Nd200 O224 2.410 . S
Nd200 O229 2.414 . S
Nd200 O231 2.424 . S
Nd201 C211 2.836 . S
Nd201 O223 2.414 . S
Nd201 O225 2.424 . S
Nd201 O226 2.500 . S
Nd201 O227 2.492 . S
Nd201 O228 2.487 . S
Nd201 O229 2.682 . S
Nd201 O230 2.410 . S
C202 Nd200 2.836 . S
C202 C203 1.498 . S
C202 O220 1.258 . S
C202 O221 1.239 . S
C203 C202 1.498 . S
C203 C204 1.366 . S
C203 C208 1.407 . S
C204 C203 1.366 . S
C204 C205 1.392 . S
C204 H232 0.930 . S
C205 C204 1.392 . S
C205 C206 1.398 . S
C205 H233 0.929 . S
C206 C205 1.398 . S
C206 C207 1.352 . S
C207 C206 1.352 . S
C207 C208 1.384 . S
C207 H234 0.930 . S
C208 C203 1.407 . S
C208 C207 1.384 . S
C208 H235 0.929 . S
C209 O222 1.241 . S
C209 O223 1.273 . S
C210 O224 1.251 . S
C210 O225 1.268 . S
C211 Nd201 2.836 . S
C211 C212 1.498 . S
C211 O226 1.258 . S
C211 O227 1.239 . S
C212 C211 1.498 . S
C212 C213 1.366 . S
C212 C217 1.407 . S
C213 C212 1.366 . S
C213 C214 1.392 . S
C213 H236 0.930 . S
C214 C213 1.392 . S
C214 C215 1.398 . S
C214 H237 0.929 . S
C215 C214 1.398 . S
C215 C216 1.352 . S
C216 C215 1.352 . S
C216 C217 1.384 . S
C216 H238 0.930 . S
C217 C212 1.407 . S
C217 C216 1.384 . S
C217 H239 0.929 . S
C218 O228 1.241 . S
C218 O229 1.273 . S
C219 O230 1.251 . S
C219 O231 1.268 . S
O220 Nd200 2.500 . S
O220 C202 1.258 . S
O221 Nd200 2.492 . S
O221 C202 1.239 . S
O222 Nd200 2.487 . S
O222 C209 1.241 . S
O223 Nd200 2.682 . S
O223 Nd201 2.414 . S
O223 C209 1.273 . S
O224 Nd200 2.410 . S
O224 C210 1.251 . S
O225 Nd201 2.424 . S
O225 C210 1.268 . S
O226 Nd201 2.500 . S
O226 C211 1.258 . S
O227 Nd201 2.492 . S
O227 C211 1.239 . S
O228 Nd201 2.487 . S
O228 C218 1.241 . S
O229 Nd200 2.414 . S
O229 Nd201 2.682 . S
O229 C218 1.273 . S
O230 Nd201 2.410 . S
O230 C219 1.251 . S
O231 Nd200 2.424 . S
O231 C219 1.268 . S
H232 C204 0.930 . S
H233 C205 0.929 . S
H234 C207 0.930 . S
H235 C208 0.929 . S
H236 C213 0.930 . S
H237 C214 0.929 . S
H238 C216 0.930 . S
H239 C217 0.929 . S
Nd240 C242 2.836 . S
Nd240 O260 2.500 . S
Nd240 O261 2.492 . S
Nd240 O262 2.487 . S
Nd240 O263 2.682 . S
Nd240 O264 2.410 . S
Nd240 O269 2.414 . S
Nd240 O271 2.424 . S
Nd241 C251 2.836 . S
Nd241 O263 2.414 . S
Nd241 O265 2.424 . S
Nd241 O266 2.500 . S
Nd241 O267 2.492 . S
Nd241 O268 2.487 . S
Nd241 O269 2.682 . S
Nd241 O270 2.410 . S
C242 Nd240 2.836 . S
C242 C243 1.498 . S
C242 O260 1.258 . S
C242 O261 1.239 . S
C243 C242 1.498 . S
C243 C244 1.366 . S
C243 C248 1.407 . S
C244 C243 1.366 . S
C244 C245 1.392 . S
C244 H272 0.930 . S
C245 C244 1.392 . S
C245 C246 1.398 . S
C245 H273 0.929 . S
C246 C245 1.398 . S
C246 C247 1.352 . S
C247 C246 1.352 . S
C247 C248 1.384 . S
C247 H274 0.930 . S
C248 C243 1.407 . S
C248 C247 1.384 . S
C248 H275 0.929 . S
C249 O262 1.241 . S
C249 O263 1.273 . S
C250 O264 1.251 . S
C250 O265 1.268 . S
C251 Nd241 2.836 . S
C251 C252 1.498 . S
C251 O266 1.258 . S
C251 O267 1.239 . S
C252 C251 1.498 . S
C252 C253 1.366 . S
C252 C257 1.407 . S
C253 C252 1.366 . S
C253 C254 1.392 . S
C253 H276 0.930 . S
C254 C253 1.392 . S
C254 C255 1.398 1_565 S
C254 H277 0.929 . S
C255 C254 1.398 1_545 S
C255 C256 1.352 . S
C256 C255 1.352 . S
C256 C257 1.384 1_545 S
C256 H278 0.930 . S
C257 C252 1.407 . S
C257 C256 1.384 1_565 S
C257 H279 0.929 . S
C258 O268 1.241 . S
C258 O269 1.273 . S
C259 O270 1.251 . S
C259 O271 1.268 . S
O260 Nd240 2.500 . S
O260 C242 1.258 . S
O261 Nd240 2.492 . S
O261 C242 1.239 . S
O262 Nd240 2.487 . S
O262 C249 1.241 . S
O263 Nd240 2.682 . S
O263 Nd241 2.414 . S
O263 C249 1.273 . S
O264 Nd240 2.410 . S
O264 C250 1.251 . S
O265 Nd241 2.424 . S
O265 C250 1.268 . S
O266 Nd241 2.500 . S
O266 C251 1.258 . S
O267 Nd241 2.492 . S
O267 C251 1.239 . S
O268 Nd241 2.487 . S
O268 C258 1.241 . S
O269 Nd240 2.414 . S
O269 Nd241 2.682 . S
O269 C258 1.273 . S
O270 Nd241 2.410 . S
O270 C259 1.251 . S
O271 Nd240 2.424 . S
O271 C259 1.268 . S
H272 C244 0.930 . S
H273 C245 0.929 . S
H274 C247 0.930 . S
H275 C248 0.929 . S
H276 C253 0.930 . S
H277 C254 0.929 . S
H278 C256 0.930 . S
H279 C257 0.929 . S
Nd280 C282 2.836 . S
Nd280 O300 2.500 . S
Nd280 O301 2.492 . S
Nd280 O302 2.487 . S
Nd280 O303 2.682 . S
Nd280 O304 2.410 . S
Nd280 O309 2.414 . S
Nd280 O311 2.424 . S
Nd281 C291 2.836 . S
Nd281 O303 2.414 . S
Nd281 O305 2.424 . S
Nd281 O306 2.500 . S
Nd281 O307 2.492 . S
Nd281 O308 2.487 . S
Nd281 O309 2.682 . S
Nd281 O310 2.410 . S
C282 Nd280 2.836 . S
C282 C283 1.498 . S
C282 O300 1.258 . S
C282 O301 1.239 . S
C283 C282 1.498 . S
C283 C284 1.366 . S
C283 C288 1.407 . S
C284 C283 1.366 . S
C284 C285 1.392 . S
C284 H312 0.930 . S
C285 C284 1.392 . S
C285 C286 1.398 . S
C285 H313 0.929 . S
C286 C285 1.398 . S
C286 C287 1.352 . S
C287 C286 1.352 . S
C287 C288 1.384 . S
C287 H314 0.930 . S
C288 C283 1.407 . S
C288 C287 1.384 . S
C288 H315 0.929 . S
C289 O302 1.241 . S
C289 O303 1.273 . S
C290 O304 1.251 . S
C290 O305 1.268 . S
C291 Nd281 2.836 . S
C291 C292 1.498 . S
C291 O306 1.258 . S
C291 O307 1.239 . S
C292 C291 1.498 . S
C292 C293 1.366 . S
C292 C297 1.407 . S
C293 C292 1.366 . S
C293 C294 1.392 . S
C293 H316 0.930 . S
C294 C293 1.392 . S
C294 C295 1.398 . S
C294 H317 0.929 . S
C295 C294 1.398 . S
C295 C296 1.352 . S
C296 C295 1.352 . S
C296 C297 1.384 . S
C296 H318 0.930 . S
C297 C292 1.407 . S
C297 C296 1.384 . S
C297 H319 0.929 . S
C298 O308 1.241 . S
C298 O309 1.273 . S
C299 O310 1.251 . S
C299 O311 1.268 . S
O300 Nd280 2.500 . S
O300 C282 1.258 . S
O301 Nd280 2.492 . S
O301 C282 1.239 . S
O302 Nd280 2.487 . S
O302 C289 1.241 . S
O303 Nd280 2.682 . S
O303 Nd281 2.414 . S
O303 C289 1.273 . S
O304 Nd280 2.410 . S
O304 C290 1.251 . S
O305 Nd281 2.424 . S
O305 C290 1.268 . S
O306 Nd281 2.500 . S
O306 C291 1.258 . S
O307 Nd281 2.492 . S
O307 C291 1.239 . S
O308 Nd281 2.487 . S
O308 C298 1.241 . S
O309 Nd280 2.414 . S
O309 Nd281 2.682 . S
O309 C298 1.273 . S
O310 Nd281 2.410 . S
O310 C299 1.251 . S
O311 Nd280 2.424 . S
O311 C299 1.268 . S
H312 C284 0.930 . S
H313 C285 0.929 . S
H314 C287 0.930 . S
H315 C288 0.929 . S
H316 C293 0.930 . S
H317 C294 0.929 . S
H318 C296 0.930 . S
H319 C297 0.929 . S
Nd320 C322 2.836 . S
Nd320 O340 2.500 . S
Nd320 O341 2.492 . S
Nd320 O342 2.487 . S
Nd320 O343 2.682 . S
Nd320 O344 2.410 . S
Nd320 O349 2.414 . S
Nd320 O351 2.424 . S
Nd321 C331 2.836 . S
Nd321 O343 2.414 . S
Nd321 O345 2.424 . S
Nd321 O346 2.500 . S
Nd321 O347 2.492 . S
Nd321 O348 2.487 . S
Nd321 O349 2.682 . S
Nd321 O350 2.410 . S
C322 Nd320 2.836 . S
C322 C323 1.498 . S
C322 O340 1.258 . S
C322 O341 1.239 . S
C323 C322 1.498 . S
C323 C324 1.366 . S
C323 C328 1.407 . S
C324 C323 1.366 . S
C324 C325 1.392 . S
C324 H352 0.930 . S
C325 C324 1.392 . S
C325 C326 1.398 . S
C325 H353 0.929 . S
C326 C325 1.398 . S
C326 C327 1.352 . S
C327 C326 1.352 . S
C327 C328 1.384 . S
C327 H354 0.930 . S
C328 C323 1.407 . S
C328 C327 1.384 . S
C328 H355 0.929 . S
C329 O342 1.241 . S
C329 O343 1.273 . S
C330 O344 1.251 . S
C330 O345 1.268 . S
C331 Nd321 2.836 . S
C331 C332 1.498 . S
C331 O346 1.258 . S
C331 O347 1.239 . S
C332 C331 1.498 . S
C332 C333 1.366 . S
C332 C337 1.407 . S
C333 C332 1.366 . S
C333 C334 1.392 . S
C333 H356 0.930 . S
C334 C333 1.392 . S
C334 C335 1.398 1_455 S
C334 H357 0.929 . S
C335 C334 1.398 1_655 S
C335 C336 1.352 . S
C336 C335 1.352 . S
C336 C337 1.384 1_655 S
C336 H358 0.930 . S
C337 C332 1.407 . S
C337 C336 1.384 1_455 S
C337 H359 0.929 . S
C338 O348 1.241 . S
C338 O349 1.273 . S
C339 O350 1.251 . S
C339 O351 1.268 . S
O340 Nd320 2.500 . S
O340 C322 1.258 . S
O341 Nd320 2.492 . S
O341 C322 1.239 . S
O342 Nd320 2.487 . S
O342 C329 1.241 . S
O343 Nd320 2.682 . S
O343 Nd321 2.414 . S
O343 C329 1.273 . S
O344 Nd320 2.410 . S
O344 C330 1.251 . S
O345 Nd321 2.424 . S
O345 C330 1.268 . S
O346 Nd321 2.500 . S
O346 C331 1.258 . S
O347 Nd321 2.492 . S
O347 C331 1.239 . S
O348 Nd321 2.487 . S
O348 C338 1.241 . S
O349 Nd320 2.414 . S
O349 Nd321 2.682 . S
O349 C338 1.273 . S
O350 Nd321 2.410 . S
O350 C339 1.251 . S
O351 Nd320 2.424 . S
O351 C339 1.268 . S
H352 C324 0.930 . S
H353 C325 0.929 . S
H354 C327 0.930 . S
H355 C328 0.929 . S
H356 C333 0.930 . S
H357 C334 0.929 . S
H358 C336 0.930 . S
H359 C337 0.929 . S
Nd360 C362 2.836 . S
Nd360 O380 2.500 . S
Nd360 O381 2.492 . S
Nd360 O382 2.487 . S
Nd360 O383 2.682 . S
Nd360 O384 2.410 . S
Nd360 O389 2.414 . S
Nd360 O391 2.424 . S
Nd361 C371 2.836 . S
Nd361 O383 2.414 . S
Nd361 O385 2.424 . S
Nd361 O386 2.500 . S
Nd361 O387 2.492 . S
Nd361 O388 2.487 . S
Nd361 O389 2.682 . S
Nd361 O390 2.410 . S
C362 Nd360 2.836 . S
C362 C363 1.498 . S
C362 O380 1.258 . S
C362 O381 1.239 . S
C363 C362 1.498 . S
C363 C364 1.366 . S
C363 C368 1.407 . S
C364 C363 1.366 . S
C364 C365 1.392 . S
C364 H392 0.930 . S
C365 C364 1.392 . S
C365 C366 1.398 . S
C365 H393 0.929 . S
C366 C365 1.398 . S
C366 C367 1.352 . S
C367 C366 1.352 . S
C367 C368 1.384 . S
C367 H394 0.930 . S
C368 C363 1.407 . S
C368 C367 1.384 . S
C368 H395 0.929 . S
C369 O382 1.241 . S
C369 O383 1.273 . S
C370 O384 1.251 . S
C370 O385 1.268 . S
C371 Nd361 2.836 . S
C371 C372 1.498 . S
C371 O386 1.258 . S
C371 O387 1.239 . S
C372 C371 1.498 . S
C372 C373 1.366 . S
C372 C377 1.407 . S
C373 C372 1.366 . S
C373 C374 1.392 . S
C373 H396 0.930 . S
C374 C373 1.392 . S
C374 C375 1.398 1_545 S
C374 H397 0.929 . S
C375 C374 1.398 1_565 S
C375 C376 1.352 . S
C376 C375 1.352 . S
C376 C377 1.384 1_565 S
C376 H398 0.930 . S
C377 C372 1.407 . S
C377 C376 1.384 1_545 S
C377 H399 0.929 . S
C378 O388 1.241 . S
C378 O389 1.273 . S
C379 O390 1.251 . S
C379 O391 1.268 . S
O380 Nd360 2.500 . S
O380 C362 1.258 . S
O381 Nd360 2.492 . S
O381 C362 1.239 . S
O382 Nd360 2.487 . S
O382 C369 1.241 . S
O383 Nd360 2.682 . S
O383 Nd361 2.414 . S
O383 C369 1.273 . S
O384 Nd360 2.410 . S
O384 C370 1.251 . S
O385 Nd361 2.424 . S
O385 C370 1.268 . S
O386 Nd361 2.500 . S
O386 C371 1.258 . S
O387 Nd361 2.492 . S
O387 C371 1.239 . S
O388 Nd361 2.487 . S
O388 C378 1.241 . S
O389 Nd360 2.414 . S
O389 Nd361 2.682 . S
O389 C378 1.273 . S
O390 Nd361 2.410 . S
O390 C379 1.251 . S
O391 Nd360 2.424 . S
O391 C379 1.268 . S
H392 C364 0.930 . S
H393 C365 0.929 . S
H394 C367 0.930 . S
H395 C368 0.929 . S
H396 C373 0.930 . S
H397 C374 0.929 . S
H398 C376 0.930 . S
H399 C377 0.929 . S
Nd400 C402 2.836 . S
Nd400 O420 2.500 . S
Nd400 O421 2.492 . S
Nd400 O422 2.487 . S
Nd400 O423 2.682 . S
Nd400 O424 2.410 . S
Nd400 O429 2.414 . S
Nd400 O431 2.424 . S
Nd401 C411 2.836 . S
Nd401 O423 2.414 . S
Nd401 O425 2.424 . S
Nd401 O426 2.500 . S
Nd401 O427 2.492 . S
Nd401 O428 2.487 . S
Nd401 O429 2.682 . S
Nd401 O430 2.410 . S
C402 Nd400 2.836 . S
C402 C403 1.498 . S
C402 O420 1.258 . S
C402 O421 1.239 . S
C403 C402 1.498 . S
C403 C404 1.366 . S
C403 C408 1.407 . S
C404 C403 1.366 . S
C404 C405 1.392 . S
C404 H432 0.930 . S
C405 C404 1.392 . S
C405 C406 1.398 . S
C405 H433 0.929 . S
C406 C405 1.398 . S
C406 C407 1.352 . S
C407 C406 1.352 . S
C407 C408 1.384 . S
C407 H434 0.930 . S
C408 C403 1.407 . S
C408 C407 1.384 . S
C408 H435 0.929 . S
C409 O422 1.241 . S
C409 O423 1.273 . S
C410 O424 1.251 . S
C410 O425 1.268 . S
C411 Nd401 2.836 . S
C411 C412 1.498 . S
C411 O426 1.258 . S
C411 O427 1.239 . S
C412 C411 1.498 . S
C412 C413 1.366 . S
C412 C417 1.407 . S
C413 C412 1.366 . S
C413 C414 1.392 . S
C413 H436 0.930 . S
C414 C413 1.392 . S
C414 C415 1.398 . S
C414 H437 0.929 . S
C415 C414 1.398 . S
C415 C416 1.352 . S
C416 C415 1.352 . S
C416 C417 1.384 . S
C416 H438 0.930 . S
C417 C412 1.407 . S
C417 C416 1.384 . S
C417 H439 0.929 . S
C418 O428 1.241 . S
C418 O429 1.273 . S
C419 O430 1.251 . S
C419 O431 1.268 . S
O420 Nd400 2.500 . S
O420 C402 1.258 . S
O421 Nd400 2.492 . S
O421 C402 1.239 . S
O422 Nd400 2.487 . S
O422 C409 1.241 . S
O423 Nd400 2.682 . S
O423 Nd401 2.414 . S
O423 C409 1.273 . S
O424 Nd400 2.410 . S
O424 C410 1.251 . S
O425 Nd401 2.424 . S
O425 C410 1.268 . S
O426 Nd401 2.500 . S
O426 C411 1.258 . S
O427 Nd401 2.492 . S
O427 C411 1.239 . S
O428 Nd401 2.487 . S
O428 C418 1.241 . S
O429 Nd400 2.414 . S
O429 Nd401 2.682 . S
O429 C418 1.273 . S
O430 Nd401 2.410 . S
O430 C419 1.251 . S
O431 Nd400 2.424 . S
O431 C419 1.268 . S
H432 C404 0.930 . S
H433 C405 0.929 . S
H434 C407 0.930 . S
H435 C408 0.929 . S
H436 C413 0.930 . S
H437 C414 0.929 . S
H438 C416 0.930 . S
H439 C417 0.929 . S
Nd440 C442 2.836 . S
Nd440 O460 2.500 . S
Nd440 O461 2.492 . S
Nd440 O462 2.487 . S
Nd440 O463 2.682 . S
Nd440 O464 2.410 . S
Nd440 O469 2.414 . S
Nd440 O471 2.424 . S
Nd441 C451 2.836 . S
Nd441 O463 2.414 . S
Nd441 O465 2.424 . S
Nd441 O466 2.500 . S
Nd441 O467 2.492 . S
Nd441 O468 2.487 . S
Nd441 O469 2.682 . S
Nd441 O470 2.410 . S
C442 Nd440 2.836 . S
C442 C443 1.498 . S
C442 O460 1.258 . S
C442 O461 1.239 . S
C443 C442 1.498 . S
C443 C444 1.366 . S
C443 C448 1.407 . S
C444 C443 1.366 . S
C444 C445 1.392 . S
C444 H472 0.930 . S
C445 C444 1.392 . S
C445 C446 1.398 . S
C445 H473 0.929 . S
C446 C445 1.398 . S
C446 C447 1.352 . S
C447 C446 1.352 . S
C447 C448 1.384 . S
C447 H474 0.930 . S
C448 C443 1.407 . S
C448 C447 1.384 . S
C448 H475 0.929 . S
C449 O462 1.241 . S
C449 O463 1.273 . S
C450 O464 1.251 . S
C450 O465 1.268 . S
C451 Nd441 2.836 . S
C451 C452 1.498 . S
C451 O466 1.258 . S
C451 O467 1.239 . S
C452 C451 1.498 . S
C452 C453 1.366 . S
C452 C457 1.407 . S
C453 C452 1.366 . S
C453 C454 1.392 . S
C453 H476 0.930 . S
C454 C453 1.392 . S
C454 C455 1.398 1_655 S
C454 H477 0.929 . S
C455 C454 1.398 1_455 S
C455 C456 1.352 . S
C456 C455 1.352 . S
C456 C457 1.384 1_455 S
C456 H478 0.930 . S
C457 C452 1.407 . S
C457 C456 1.384 1_655 S
C457 H479 0.929 . S
C458 O468 1.241 . S
C458 O469 1.273 . S
C459 O470 1.251 . S
C459 O471 1.268 . S
O460 Nd440 2.500 . S
O460 C442 1.258 . S
O461 Nd440 2.492 . S
O461 C442 1.239 . S
O462 Nd440 2.487 . S
O462 C449 1.241 . S
O463 Nd440 2.682 . S
O463 Nd441 2.414 . S
O463 C449 1.273 . S
O464 Nd440 2.410 . S
O464 C450 1.251 . S
O465 Nd441 2.424 . S
O465 C450 1.268 . S
O466 Nd441 2.500 . S
O466 C451 1.258 . S
O467 Nd441 2.492 . S
O467 C451 1.239 . S
O468 Nd441 2.487 . S
O468 C458 1.241 . S
O469 Nd440 2.414 . S
O469 Nd441 2.682 . S
O469 C458 1.273 . S
O470 Nd441 2.410 . S
O470 C459 1.251 . S
O471 Nd440 2.424 . S
O471 C459 1.268 . S
H472 C444 0.930 . S
H473 C445 0.929 . S
H474 C447 0.930 . S
H475 C448 0.929 . S
H476 C453 0.930 . S
H477 C454 0.929 . S
H478 C456 0.930 . S
H479 C457 0.929 . S
H480 C492 0.930 . S
H481 C494 0.930 . S
H482 C495 0.930 . S
H483 C499 0.959 . S
H484 C499 0.959 . S
H485 C499 0.961 . S
H486 C500 0.960 . S
H487 C500 0.961 . S
H488 C500 0.959 . S
H489 C503 0.929 . S
H490 C504 0.931 . S
H491 C506 0.930 . S
C492 H480 0.930 . S
C492 C493 1.399 . S
C492 C497 1.399 . S
C493 C492 1.399 . S
C493 C494 1.376 . S
C494 H481 0.930 . S
C494 C493 1.376 . S
C494 C495 1.388 . S
C495 H482 0.930 . S
C495 C494 1.388 . S
C495 C496 1.390 . S
C496 C495 1.390 . S
C496 C497 1.394 . S
C496 C502 1.465 . S
C497 C492 1.399 . S
C497 C496 1.394 . S
C497 C498 1.516 . S
C498 C497 1.516 . S
C498 C499 1.502 . S
C498 C500 1.561 . S
C498 C501 1.526 . S
C499 H483 0.959 . S
C499 H484 0.959 . S
C499 H485 0.961 . S
C499 C498 1.502 . S
C500 H486 0.960 . S
C500 H487 0.961 . S
C500 H488 0.959 . S
C500 C498 1.561 . S
C501 C498 1.526 . S
C501 C502 1.396 . S
C501 C506 1.390 . S
C502 C496 1.465 . S
C502 C501 1.396 . S
C502 C503 1.399 . S
C503 H489 0.929 . S
C503 C502 1.399 . S
C503 C504 1.385 . S
C504 H490 0.931 . S
C504 C503 1.385 . S
C504 C505 1.389 . S
C505 C504 1.389 . S
C505 C506 1.387 . S
C506 H491 0.930 . S
C506 C501 1.390 . S
C506 C505 1.387 . S
H507 C519 0.930 . S
H508 C521 0.930 . S
H509 C522 0.930 . S
H510 C526 0.959 . S
H511 C526 0.959 . S
H512 C526 0.961 . S
H513 C527 0.960 . S
H514 C527 0.961 . S
H515 C527 0.959 . S
H516 C530 0.929 . S
H517 C531 0.931 . S
H518 C533 0.930 . S
C519 H507 0.930 . S
C519 C520 1.399 . S
C519 C524 1.399 . S
C520 C519 1.399 . S
C520 C521 1.376 . S
C521 H508 0.930 . S
C521 C520 1.376 . S
C521 C522 1.388 . S
C522 H509 0.930 . S
C522 C521 1.388 . S
C522 C523 1.390 . S
C523 C522 1.390 . S
C523 C524 1.394 . S
C523 C529 1.465 . S
C524 C519 1.399 . S
C524 C523 1.394 . S
C524 C525 1.516 1_455 S
C525 C524 1.516 1_655 S
C525 C526 1.502 . S
C525 C527 1.561 . S
C525 C528 1.526 . S
C526 H510 0.959 . S
C526 H511 0.959 . S
C526 H512 0.961 . S
C526 C525 1.502 . S
C527 H513 0.960 . S
C527 H514 0.961 . S
C527 H515 0.959 . S
C527 C525 1.561 . S
C528 C525 1.526 . S
C528 C529 1.396 1_655 S
C528 C533 1.390 . S
C529 C523 1.465 . S
C529 C528 1.396 1_455 S
C529 C530 1.399 . S
C530 H516 0.929 . S
C530 C529 1.399 . S
C530 C531 1.385 1_455 S
C531 H517 0.931 . S
C531 C530 1.385 1_655 S
C531 C532 1.389 . S
C532 C531 1.389 . S
C532 C533 1.387 . S
C533 H518 0.930 . S
C533 C528 1.390 . S
C533 C532 1.387 . S
H534 C546 0.930 . S
H535 C548 0.930 . S
H536 C549 0.939 . S
H537 C553 0.959 . S
H538 C553 0.959 . S
H539 C553 0.961 . S
H540 C554 0.960 . S
H541 C554 0.961 . S
H542 C554 0.959 . S
H543 C557 0.929 . S
H544 C558 0.931 . S
H545 C560 0.930 . S
C546 H534 0.930 . S
C546 C547 1.399 . S
C546 C551 1.399 . S
C547 C546 1.399 . S
C547 C548 1.376 . S
C548 H535 0.930 . S
C548 C547 1.376 . S
C548 C549 1.380 1_565 S
C549 H536 0.939 . S
C549 C548 1.380 1_545 S
C549 C550 1.390 . S
C550 C549 1.390 . S
C550 C551 1.394 1_545 S
C550 C556 1.465 . S
C551 C546 1.399 . S
C551 C550 1.394 1_565 S
C551 C552 1.516 1_565 S
C552 C551 1.516 1_545 S
C552 C553 1.502 1_545 S
C552 C554 1.561 . S
C552 C555 1.526 . S
C553 H537 0.959 . S
C553 H538 0.959 . S
C553 H539 0.961 . S
C553 C552 1.502 1_565 S
C554 H540 0.960 . S
C554 H541 0.961 . S
C554 H542 0.959 . S
C554 C552 1.561 . S
C555 C552 1.526 . S
C555 C556 1.396 . S
C555 C560 1.390 . S
C556 C550 1.465 . S
C556 C555 1.396 . S
C556 C557 1.399 . S
C557 H543 0.929 . S
C557 C556 1.399 . S
C557 C558 1.385 . S
C558 H544 0.931 . S
C558 C557 1.385 . S
C558 C559 1.389 . S
C559 C558 1.389 . S
C559 C560 1.387 . S
C560 H545 0.930 . S
C560 C555 1.390 . S
C560 C559 1.387 . S
H561 C573 0.930 . S
H562 C575 0.930 . S
H563 C576 0.930 . S
H564 C580 0.959 . S
H565 C580 0.959 . S
H566 C580 0.961 . S
H567 C581 0.960 . S
H568 C581 0.961 . S
H569 C581 0.959 . S
H570 C584 0.929 . S
H571 C585 0.931 . S
H572 C587 0.930 . S
C573 H561 0.930 . S
C573 C574 1.399 . S
C573 C578 1.399 . S
C574 C573 1.399 . S
C574 C575 1.376 . S
C575 H562 0.930 . S
C575 C574 1.376 . S
C575 C576 1.388 . S
C576 H563 0.930 . S
C576 C575 1.388 . S
C576 C577 1.390 . S
C577 C576 1.390 . S
C577 C578 1.394 . S
C577 C583 1.465 . S
C578 C573 1.399 . S
C578 C577 1.394 . S
C578 C579 1.516 . S
C579 C578 1.516 . S
C579 C580 1.502 . S
C579 C581 1.561 . S
C579 C582 1.526 . S
C580 H564 0.959 . S
C580 H565 0.959 . S
C580 H566 0.961 . S
C580 C579 1.502 . S
C581 H567 0.960 . S
C581 H568 0.961 . S
C581 H569 0.959 . S
C581 C579 1.561 . S
C582 C579 1.526 . S
C582 C583 1.396 . S
C582 C587 1.390 . S
C583 C577 1.465 . S
C583 C582 1.396 . S
C583 C584 1.399 . S
C584 H570 0.929 . S
C584 C583 1.399 . S
C584 C585 1.385 . S
C585 H571 0.931 . S
C585 C584 1.385 . S
C585 C586 1.389 . S
C586 C585 1.389 . S
C586 C587 1.387 . S
C587 H572 0.930 . S
C587 C582 1.390 . S
C587 C586 1.387 . S
H588 C600 0.930 . S
H589 C602 0.930 . S
H590 C603 0.930 . S
H591 C607 0.959 . S
H592 C607 0.959 . S
H593 C607 0.961 . S
H594 C608 0.960 . S
H595 C608 0.961 . S
H596 C608 0.959 . S
H597 C611 0.929 . S
H598 C612 0.931 . S
H599 C614 0.930 . S
C600 H588 0.930 . S
C600 C601 1.399 . S
C600 C605 1.399 . S
C601 C600 1.399 . S
C601 C602 1.376 . S
C602 H589 0.930 . S
C602 C601 1.376 . S
C602 C603 1.388 . S
C603 H590 0.930 . S
C603 C602 1.388 . S
C603 C604 1.390 1_455 S
C604 C603 1.390 1_655 S
C604 C605 1.394 1_655 S
C604 C610 1.465 . S
C605 C600 1.399 . S
C605 C604 1.394 1_455 S
C605 C606 1.516 1_455 S
C606 C605 1.516 1_655 S
C606 C607 1.502 . S
C606 C608 1.561 1_655 S
C606 C609 1.526 . S
C607 H591 0.959 . S
C607 H592 0.959 . S
C607 H593 0.961 . S
C607 C606 1.502 . S
C608 H594 0.960 . S
C608 H595 0.961 . S
C608 H596 0.959 . S
C608 C606 1.561 1_455 S
C609 C606 1.526 . S
C609 C610 1.396 . S
C609 C614 1.390 . S
C610 C604 1.465 . S
C610 C609 1.396 . S
C610 C611 1.399 . S
C611 H597 0.929 . S
C611 C610 1.399 . S
C611 C612 1.385 . S
C612 H598 0.931 . S
C612 C611 1.385 . S
C612 C613 1.389 . S
C613 C612 1.389 . S
C613 C614 1.387 . S
C614 H599 0.930 . S
C614 C609 1.390 . S
C614 C613 1.387 . S
H615 C627 0.930 . S
H616 C629 0.930 . S
H617 C630 0.930 . S
H618 C634 0.959 . S
H619 C634 0.959 . S
H620 C634 0.961 . S
H621 C635 0.960 1_565 S
H622 C635 0.961 . S
H623 C635 0.959 . S
H624 C638 0.929 . S
H625 C639 0.931 . S
H626 C641 0.930 . S
C627 H615 0.930 . S
C627 C628 1.399 . S
C627 C632 1.399 . S
C628 C627 1.399 . S
C628 C629 1.376 . S
C629 H616 0.930 . S
C629 C628 1.376 . S
C629 C630 1.388 . S
C630 H617 0.930 . S
C630 C629 1.388 . S
C630 C631 1.390 . S
C631 C630 1.390 . S
C631 C632 1.394 . S
C631 C637 1.465 . S
C632 C627 1.399 . S
C632 C631 1.394 . S
C632 C633 1.516 . S
C633 C632 1.516 . S
C633 C634 1.502 . S
C633 C635 1.561 1_565 S
C633 C636 1.526 1_565 S
C634 H618 0.959 . S
C634 H619 0.959 . S
C634 H620 0.961 . S
C634 C633 1.502 . S
C635 H621 0.960 1_545 S
C635 H622 0.961 . S
C635 H623 0.959 . S
C635 C633 1.561 1_545 S
C636 C633 1.526 1_545 S
C636 C637 1.396 1_545 S
C636 C641 1.390 . S
C637 C631 1.465 . S
C637 C636 1.396 1_565 S
C637 C638 1.399 1_565 S
C638 H624 0.929 . S
C638 C637 1.399 1_545 S
C638 C639 1.385 . S
C639 H625 0.931 . S
C639 C638 1.385 . S
C639 C640 1.389 . S
C640 C639 1.389 . S
C640 C641 1.387 . S
C641 H626 0.930 . S
C641 C636 1.390 . S
C641 C640 1.387 . S
H642 C654 0.930 . S
H643 C656 0.930 . S
H644 C657 0.930 . S
H645 C661 0.959 . S
H646 C661 0.959 . S
H647 C661 0.961 . S
H648 C662 0.960 . S
H649 C662 0.961 . S
H650 C662 0.959 . S
H651 C665 0.929 . S
H652 C666 0.931 . S
H653 C668 0.930 . S
C654 H642 0.930 . S
C654 C655 1.399 . S
C654 C659 1.399 . S
C655 C654 1.399 . S
C655 C656 1.376 . S
C656 H643 0.930 . S
C656 C655 1.376 . S
C656 C657 1.388 . S
C657 H644 0.930 . S
C657 C656 1.388 . S
C657 C658 1.390 . S
C658 C657 1.390 . S
C658 C659 1.394 . S
C658 C664 1.465 . S
C659 C654 1.399 . S
C659 C658 1.394 . S
C659 C660 1.516 . S
C660 C659 1.516 . S
C660 C661 1.502 . S
C660 C662 1.561 . S
C660 C663 1.526 . S
C661 H645 0.959 . S
C661 H646 0.959 . S
C661 H647 0.961 . S
C661 C660 1.502 . S
C662 H648 0.960 . S
C662 H649 0.961 . S
C662 H650 0.959 . S
C662 C660 1.561 . S
C663 C660 1.526 . S
C663 C664 1.396 . S
C663 C668 1.390 . S
C664 C658 1.465 . S
C664 C663 1.396 . S
C664 C665 1.399 . S
C665 H651 0.929 . S
C665 C664 1.399 . S
C665 C666 1.385 . S
C666 H652 0.931 . S
C666 C665 1.385 . S
C666 C667 1.389 . S
C667 C666 1.389 . S
C667 C668 1.387 . S
C668 H653 0.930 . S
C668 C663 1.390 . S
C668 C667 1.387 . S
H669 C681 0.930 . S
H670 C683 0.930 . S
H671 C684 0.930 . S
H672 C688 0.959 . S
H673 C688 0.959 . S
H674 C688 0.961 . S
H675 C689 0.960 1_655 S
H676 C689 0.961 . S
H677 C689 0.959 . S
H678 C692 0.929 . S
H679 C693 0.931 . S
H680 C695 0.930 . S
C681 H669 0.930 . S
C681 C682 1.399 . S
C681 C686 1.399 . S
C682 C681 1.399 . S
C682 C683 1.376 . S
C683 H670 0.930 . S
C683 C682 1.376 . S
C683 C684 1.388 1_655 S
C684 H671 0.930 . S
C684 C683 1.388 1_455 S
C684 C685 1.390 . S
C685 C684 1.390 . S
C685 C686 1.394 1_455 S
C685 C691 1.465 . S
C686 C681 1.399 . S
C686 C685 1.394 1_655 S
C686 C687 1.516 1_655 S
C687 C686 1.516 1_455 S
C687 C688 1.502 1_455 S
C687 C689 1.561 . S
C687 C690 1.526 . S
C688 H672 0.959 . S
C688 H673 0.959 . S
C688 H674 0.961 . S
C688 C687 1.502 1_655 S
C689 H675 0.960 1_455 S
C689 H676 0.961 . S
C689 H677 0.959 . S
C689 C687 1.561 . S
C690 C687 1.526 . S
C690 C691 1.396 . S
C690 C695 1.390 . S
C691 C685 1.465 . S
C691 C690 1.396 . S
C691 C692 1.399 . S
C692 H678 0.929 . S
C692 C691 1.399 . S
C692 C693 1.385 . S
C693 H679 0.931 . S
C693 C692 1.385 . S
C693 C694 1.389 . S
C694 C693 1.389 . S
C694 C695 1.387 . S
C695 H680 0.930 . S
C695 C690 1.390 . S
C695 C694 1.387 . S
H696 C708 0.930 . S
H697 C710 0.930 . S
H698 C711 0.930 . S
H699 C715 0.959 . S
H700 C715 0.959 . S
H701 C715 0.961 . S
H702 C716 0.960 . S
H703 C716 0.961 . S
H704 C716 0.959 . S
H705 C719 0.929 . S
H706 C720 0.931 . S
H707 C722 0.930 . S
C708 H696 0.930 . S
C708 C709 1.399 . S
C708 C713 1.399 . S
C709 C708 1.399 . S
C709 C710 1.376 . S
C710 H697 0.930 . S
C710 C709 1.376 . S
C710 C711 1.388 . S
C711 H698 0.930 . S
C711 C710 1.388 . S
C711 C712 1.390 . S
C712 C711 1.390 . S
C712 C713 1.394 . S
C712 C718 1.465 . S
C713 C708 1.399 . S
C713 C712 1.394 . S
C713 C714 1.516 1_545 S
C714 C713 1.516 1_565 S
C714 C715 1.502 . S
C714 C716 1.561 . S
C714 C717 1.526 . S
C715 H699 0.959 . S
C715 H700 0.959 . S
C715 H701 0.961 . S
C715 C714 1.502 . S
C716 H702 0.960 . S
C716 H703 0.961 . S
C716 H704 0.959 . S
C716 C714 1.561 . S
C717 C714 1.526 . S
C717 C718 1.396 1_565 S
C717 C722 1.390 . S
C718 C712 1.465 . S
C718 C717 1.396 1_545 S
C718 C719 1.399 . S
C719 H705 0.929 . S
C719 C718 1.399 . S
C719 C720 1.385 1_545 S
C720 H706 0.931 . S
C720 C719 1.385 1_565 S
C720 C721 1.389 . S
C721 C720 1.389 . S
C721 C722 1.387 . S
C722 H707 0.930 . S
C722 C717 1.390 . S
C722 C721 1.387 . S
H723 C735 0.930 . S
H724 C737 0.930 . S
H725 C738 0.930 . S
H726 C742 0.959 . S
H727 C742 0.959 . S
H728 C742 0.961 . S
H729 C743 0.960 . S
H730 C743 0.961 . S
H731 C743 0.959 . S
H732 C746 0.929 . S
H733 C747 0.931 . S
H734 C749 0.930 . S
C735 H723 0.930 . S
C735 C736 1.399 . S
C735 C740 1.399 . S
C736 C735 1.399 . S
C736 C737 1.376 . S
C737 H724 0.930 . S
C737 C736 1.376 . S
C737 C738 1.388 . S
C738 H725 0.930 . S
C738 C737 1.388 . S
C738 C739 1.390 . S
C739 C738 1.390 . S
C739 C740 1.394 . S
C739 C745 1.465 . S
C740 C735 1.399 . S
C740 C739 1.394 . S
C740 C741 1.516 . S
C741 C740 1.516 . S
C741 C742 1.502 . S
C741 C743 1.561 . S
C741 C744 1.526 . S
C742 H726 0.959 . S
C742 H727 0.959 . S
C742 H728 0.961 . S
C742 C741 1.502 . S
C743 H729 0.960 . S
C743 H730 0.961 . S
C743 H731 0.959 . S
C743 C741 1.561 . S
C744 C741 1.526 . S
C744 C745 1.396 . S
C744 C749 1.390 . S
C745 C739 1.465 . S
C745 C744 1.396 . S
C745 C746 1.399 . S
C746 H732 0.929 . S
C746 C745 1.399 . S
C746 C747 1.385 . S
C747 H733 0.931 . S
C747 C746 1.385 . S
C747 C748 1.389 . S
C748 C747 1.389 . S
C748 C749 1.387 . S
C749 H734 0.930 . S
C749 C744 1.390 . S
C749 C748 1.387 . S
H750 C762 0.930 . S
H751 C764 0.930 . S
H752 C765 0.930 . S
H753 C769 0.959 . S
H754 C769 0.959 . S
H755 C769 0.961 . S
H756 C770 0.960 . S
H757 C770 0.961 . S
H758 C770 0.959 . S
H759 C773 0.929 1_455 S
H760 C774 0.931 . S
H761 C776 0.930 . S
C762 H750 0.930 . S
C762 C763 1.399 . S
C762 C767 1.399 1_455 S
C763 C762 1.399 . S
C763 C764 1.376 . S
C764 H751 0.930 . S
C764 C763 1.376 . S
C764 C765 1.388 . S
C765 H752 0.930 . S
C765 C764 1.388 . S
C765 C766 1.390 . S
C766 C765 1.390 . S
C766 C767 1.394 1_455 S
C766 C772 1.465 1_455 S
C767 C762 1.399 1_655 S
C767 C766 1.394 1_655 S
C767 C768 1.516 . S
C768 C767 1.516 . S
C768 C769 1.502 . S
C768 C770 1.561 . S
C768 C771 1.526 . S
C769 H753 0.959 . S
C769 H754 0.959 . S
C769 H755 0.961 . S
C769 C768 1.502 . S
C770 H756 0.960 . S
C770 H757 0.961 . S
C770 H758 0.959 . S
C770 C768 1.561 . S
C771 C768 1.526 . S
C771 C772 1.396 . S
C771 C776 1.390 . S
C772 C766 1.465 1_655 S
C772 C771 1.396 . S
C772 C773 1.399 . S
C773 H759 0.929 1_655 S
C773 C772 1.399 . S
C773 C774 1.385 . S
C774 H760 0.931 . S
C774 C773 1.385 . S
C774 C775 1.389 . S
C775 C774 1.389 . S
C775 C776 1.387 . S
C776 H761 0.930 . S
C776 C771 1.390 . S
C776 C775 1.387 . S
H777 C789 0.930 . S
H778 C791 0.930 . S
H779 C792 0.930 . S
H780 C796 0.959 . S
H781 C796 0.959 . S
H782 C796 0.961 . S
H783 C797 0.960 1_565 S
H784 C797 0.961 . S
H785 C797 0.959 . S
H786 C800 0.929 . S
H787 C801 0.931 . S
H788 C803 0.930 . S
C789 H777 0.930 . S
C789 C790 1.399 . S
C789 C794 1.399 . S
C790 C789 1.399 . S
C790 C791 1.376 . S
C791 H778 0.930 . S
C791 C790 1.376 . S
C791 C792 1.388 . S
C792 H779 0.930 . S
C792 C791 1.388 . S
C792 C793 1.390 . S
C793 C792 1.390 . S
C793 C794 1.394 . S
C793 C799 1.438 1_565 S
C794 C789 1.399 . S
C794 C793 1.394 . S
C794 C795 1.516 . S
C795 C794 1.516 . S
C795 C796 1.502 . S
C795 C797 1.561 1_565 S
C795 C798 1.526 1_565 S
C796 H780 0.959 . S
C796 H781 0.959 . S
C796 H782 0.961 . S
C796 C795 1.502 . S
C797 H783 0.960 1_545 S
C797 H784 0.961 . S
C797 H785 0.959 . S
C797 C795 1.561 1_545 S
C798 C795 1.526 1_545 S
C798 C799 1.407 . S
C798 C803 1.390 . S
C799 C793 1.438 1_545 S
C799 C798 1.407 . S
C799 C800 1.415 . S
C800 H786 0.929 . S
C800 C799 1.415 . S
C800 C801 1.385 . S
C801 H787 0.931 . S
C801 C800 1.385 . S
C801 C802 1.389 . S
C802 C801 1.389 . S
C802 C803 1.387 . S
C803 H788 0.930 . S
C803 C798 1.390 . S
C803 C802 1.387 . S
H804 C816 0.930 . S
H805 C818 0.930 . S
H806 C819 0.930 . S
H807 C823 0.959 . S
H808 C823 0.959 . S
H809 C823 0.961 . S
H810 C824 0.960 . S
H811 C824 0.961 . S
H812 C824 0.959 . S
H813 C827 0.929 . S
H814 C828 0.931 . S
H815 C830 0.930 . S
C816 H804 0.930 . S
C816 C817 1.399 . S
C816 C821 1.399 . S
C817 C816 1.399 . S
C817 C818 1.376 . S
C818 H805 0.930 . S
C818 C817 1.376 . S
C818 C819 1.388 . S
C819 H806 0.930 . S
C819 C818 1.388 . S
C819 C820 1.390 . S
C820 C819 1.390 . S
C820 C821 1.394 . S
C820 C826 1.465 . S
C821 C816 1.399 . S
C821 C820 1.394 . S
C821 C822 1.516 . S
C822 C821 1.516 . S
C822 C823 1.502 . S
C822 C824 1.561 . S
C822 C825 1.526 . S
C823 H807 0.959 . S
C823 H808 0.959 . S
C823 H809 0.961 . S
C823 C822 1.502 . S
C824 H810 0.960 . S
C824 H811 0.961 . S
C824 H812 0.959 . S
C824 C822 1.561 . S
C825 C822 1.526 . S
C825 C826 1.396 . S
C825 C830 1.390 . S
C826 C820 1.465 . S
C826 C825 1.396 . S
C826 C827 1.399 . S
C827 H813 0.929 . S
C827 C826 1.399 . S
C827 C828 1.385 . S
C828 H814 0.931 . S
C828 C827 1.385 . S
C828 C829 1.389 . S
C829 C828 1.389 . S
C829 C830 1.387 . S
C830 H815 0.930 . S
C830 C825 1.390 . S
C830 C829 1.387 . S
H831 C843 0.930 . S
H832 C845 0.930 . S
H833 C846 0.930 . S
H834 C850 0.959 . S
H835 C850 0.959 . S
H836 C850 0.961 . S
H837 C851 0.960 . S
H838 C851 0.961 . S
H839 C851 0.959 . S
H840 C854 0.929 . S
H841 C855 0.931 . S
H842 C857 0.930 . S
C843 H831 0.930 . S
C843 C844 1.399 . S
C843 C848 1.399 . S
C844 C843 1.399 . S
C844 C845 1.376 . S
C845 H832 0.930 . S
C845 C844 1.376 . S
C845 C846 1.388 . S
C846 H833 0.930 . S
C846 C845 1.388 . S
C846 C847 1.390 . S
C847 C846 1.390 . S
C847 C848 1.394 . S
C847 C853 1.465 . S
C848 C843 1.399 . S
C848 C847 1.394 . S
C848 C849 1.516 . S
C849 C848 1.516 . S
C849 C850 1.502 . S
C849 C851 1.561 . S
C849 C852 1.526 . S
C850 H834 0.959 . S
C850 H835 0.959 . S
C850 H836 0.961 . S
C850 C849 1.502 . S
C851 H837 0.960 . S
C851 H838 0.961 . S
C851 H839 0.959 . S
C851 C849 1.561 . S
C852 C849 1.526 . S
C852 C853 1.396 . S
C852 C857 1.390 . S
C853 C847 1.465 . S
C853 C852 1.396 . S
C853 C854 1.399 . S
C854 H840 0.929 . S
C854 C853 1.399 . S
C854 C855 1.385 . S
C855 H841 0.931 . S
C855 C854 1.385 . S
C855 C856 1.389 . S
C856 C855 1.389 . S
C856 C857 1.387 . S
C857 H842 0.930 . S
C857 C852 1.390 . S
C857 C856 1.387 . S
H858 C870 0.930 . S
H859 C872 0.930 . S
H860 C873 0.930 . S
H861 C877 0.959 . S
H862 C877 0.959 . S
H863 C877 0.961 . S
H864 C878 0.960 . S
H865 C878 0.961 . S
H866 C878 0.959 . S
H867 C881 0.929 . S
H868 C882 0.931 . S
H869 C884 0.930 . S
C870 H858 0.930 . S
C870 C871 1.399 . S
C870 C875 1.399 . S
C871 C870 1.399 . S
C871 C872 1.376 . S
C872 H859 0.930 . S
C872 C871 1.376 . S
C872 C873 1.388 . S
C873 H860 0.930 . S
C873 C872 1.388 . S
C873 C874 1.390 . S
C874 C873 1.390 . S
C874 C875 1.394 . S
C874 C880 1.465 . S
C875 C870 1.399 . S
C875 C874 1.394 . S
C875 C876 1.516 . S
C876 C875 1.516 . S
C876 C877 1.502 . S
C876 C878 1.561 . S
C876 C879 1.526 . S
C877 H861 0.959 . S
C877 H862 0.959 . S
C877 H863 0.961 . S
C877 C876 1.502 . S
C878 H864 0.960 . S
C878 H865 0.961 . S
C878 H866 0.959 . S
C878 C876 1.561 . S
C879 C876 1.526 . S
C879 C880 1.396 . S
C879 C884 1.390 . S
C880 C874 1.465 . S
C880 C879 1.396 . S
C880 C881 1.399 . S
C881 H867 0.929 . S
C881 C880 1.399 . S
C881 C882 1.385 . S
C882 H868 0.931 . S
C882 C881 1.385 . S
C882 C883 1.389 . S
C883 C882 1.389 . S
C883 C884 1.387 . S
C884 H869 0.930 . S
C884 C879 1.390 . S
C884 C883 1.387 . S
H885 C897 0.930 . S
H886 C899 0.930 . S
H887 C900 0.930 . S
H888 C904 0.959 . S
H889 C904 0.959 . S
H890 C904 0.961 . S
H891 C905 0.960 . S
H892 C905 0.961 . S
H893 C905 0.959 . S
H894 C908 0.929 . S
H895 C909 0.931 . S
H896 C911 0.930 . S
C897 H885 0.930 . S
C897 C898 1.399 . S
C897 C902 1.399 . S
C898 C897 1.399 . S
C898 C899 1.376 . S
C899 H886 0.930 . S
C899 C898 1.376 . S
C899 C900 1.388 . S
C900 H887 0.930 . S
C900 C899 1.388 . S
C900 C901 1.390 . S
C901 C900 1.390 . S
C901 C902 1.394 . S
C901 C907 1.465 . S
C902 C897 1.399 . S
C902 C901 1.394 . S
C902 C903 1.516 . S
C903 C902 1.516 . S
C903 C904 1.502 . S
C903 C905 1.561 . S
C903 C906 1.526 . S
C904 H888 0.959 . S
C904 H889 0.959 . S
C904 H890 0.961 . S
C904 C903 1.502 . S
C905 H891 0.960 . S
C905 H892 0.961 . S
C905 H893 0.959 . S
C905 C903 1.561 . S
C906 C903 1.526 . S
C906 C907 1.396 . S
C906 C911 1.390 . S
C907 C901 1.465 . S
C907 C906 1.396 . S
C907 C908 1.399 . S
C908 H894 0.929 . S
C908 C907 1.399 . S
C908 C909 1.385 . S
C909 H895 0.931 . S
C909 C908 1.385 . S
C909 C910 1.389 . S
C910 C909 1.389 . S
C910 C911 1.387 . S
C911 H896 0.930 . S
C911 C906 1.390 . S
C911 C910 1.387 . S
H912 C924 0.930 . S
H913 C926 0.930 . S
H914 C927 0.930 . S
H915 C931 0.959 . S
H916 C931 0.959 . S
H917 C931 0.961 . S
H918 C932 0.960 . S
H919 C932 0.961 . S
H920 C932 0.959 . S
H921 C935 0.929 . S
H922 C936 0.931 . S
H923 C938 0.930 . S
C924 H912 0.930 . S
C924 C925 1.399 . S
C924 C929 1.399 . S
C925 C924 1.399 . S
C925 C926 1.376 . S
C926 H913 0.930 . S
C926 C925 1.376 . S
C926 C927 1.388 . S
C927 H914 0.930 . S
C927 C926 1.388 . S
C927 C928 1.390 . S
C928 C927 1.390 . S
C928 C929 1.394 . S
C928 C934 1.465 . S
C929 C924 1.399 . S
C929 C928 1.394 . S
C929 C930 1.516 . S
C930 C929 1.516 . S
C930 C931 1.502 . S
C930 C932 1.561 . S
C930 C933 1.526 . S
C931 H915 0.959 . S
C931 H916 0.959 . S
C931 H917 0.961 . S
C931 C930 1.502 . S
C932 H918 0.960 . S
C932 H919 0.961 . S
C932 H920 0.959 . S
C932 C930 1.561 . S
C933 C930 1.526 . S
C933 C934 1.396 . S
C933 C938 1.390 . S
C934 C928 1.465 . S
C934 C933 1.396 . S
C934 C935 1.399 . S
C935 H921 0.929 . S
C935 C934 1.399 . S
C935 C936 1.385 . S
C936 H922 0.931 . S
C936 C935 1.385 . S
C936 C937 1.389 . S
C937 C936 1.389 . S
C937 C938 1.387 . S
C938 H923 0.930 . S
C938 C933 1.390 . S
C938 C937 1.387 . S
H939 C951 0.930 . S
H940 C953 0.930 . S
H941 C954 0.930 . S
H942 C958 0.959 . S
H943 C958 0.959 . S
H944 C958 0.961 . S
H945 C959 0.960 . S
H946 C959 0.961 . S
H947 C959 0.959 . S
H948 C962 0.929 . S
H949 C963 0.931 . S
H950 C965 0.930 . S
C951 H939 0.930 . S
C951 C952 1.399 . S
C951 C956 1.399 . S
C952 C951 1.399 . S
C952 C953 1.376 . S
C953 H940 0.930 . S
C953 C952 1.376 . S
C953 C954 1.388 . S
C954 H941 0.930 . S
C954 C953 1.388 . S
C954 C955 1.390 . S
C955 C954 1.390 . S
C955 C956 1.394 . S
C955 C961 1.465 . S
C956 C951 1.399 . S
C956 C955 1.394 . S
C956 C957 1.516 . S
C957 C956 1.516 . S
C957 C958 1.502 . S
C957 C959 1.561 . S
C957 C960 1.526 . S
C958 H942 0.959 . S
C958 H943 0.959 . S
C958 H944 0.961 . S
C958 C957 1.502 . S
C959 H945 0.960 . S
C959 H946 0.961 . S
C959 H947 0.959 . S
C959 C957 1.561 . S
C960 C957 1.526 . S
C960 C961 1.396 . S
C960 C965 1.390 . S
C961 C955 1.465 . S
C961 C960 1.396 . S
C961 C962 1.399 . S
C962 H948 0.929 . S
C962 C961 1.399 . S
C962 C963 1.385 . S
C963 H949 0.931 . S
C963 C962 1.385 . S
C963 C964 1.389 . S
C964 C963 1.389 . S
C964 C965 1.387 . S
C965 H950 0.930 . S
C965 C960 1.390 . S
C965 C964 1.387 . S
H966 C978 0.930 . S
H967 C980 0.930 . S
H968 C981 0.930 . S
H969 C985 0.959 . S
H970 C985 0.959 . S
H971 C985 0.961 . S
H972 C986 0.960 . S
H973 C986 0.961 . S
H974 C986 0.959 . S
H975 C989 0.929 . S
H976 C990 0.931 . S
H977 C992 0.930 . S
C978 H966 0.930 . S
C978 C979 1.399 . S
C978 C983 1.399 . S
C979 C978 1.399 . S
C979 C980 1.376 . S
C980 H967 0.930 . S
C980 C979 1.376 . S
C980 C981 1.388 . S
C981 H968 0.930 . S
C981 C980 1.388 . S
C981 C982 1.390 . S
C982 C981 1.390 . S
C982 C983 1.394 . S
C982 C988 1.465 . S
C983 C978 1.399 . S
C983 C982 1.394 . S
C983 C984 1.516 . S
C984 C983 1.516 . S
C984 C985 1.502 . S
C984 C986 1.561 . S
C984 C987 1.526 . S
C985 H969 0.959 . S
C985 H970 0.959 . S
C985 H971 0.961 . S
C985 C984 1.502 . S
C986 H972 0.960 . S
C986 H973 0.961 . S
C986 H974 0.959 . S
C986 C984 1.561 . S
C987 C984 1.526 . S
C987 C988 1.396 . S
C987 C992 1.390 . S
C988 C982 1.465 . S
C988 C987 1.396 . S
C988 C989 1.399 . S
C989 H975 0.929 . S
C989 C988 1.399 . S
C989 C990 1.385 . S
C990 H976 0.931 . S
C990 C989 1.385 . S
C990 C991 1.389 . S
C991 C990 1.389 . S
C991 C992 1.387 . S
C992 H977 0.930 . S
C992 C987 1.390 . S
C992 C991 1.387 . S
H993 C1005 0.930 . S
H994 C1007 0.930 . S
H995 C1008 0.930 . S
H996 C1012 0.959 . S
H997 C1012 0.959 . S
H998 C1012 0.961 . S
H999 C1013 0.960 . S
H1000 C1013 0.961 . S
H1001 C1013 0.959 . S
H1002 C1016 0.929 . S
H1003 C1017 0.931 . S
H1004 C1019 0.930 . S
C1005 H993 0.930 . S
C1005 C1006 1.399 . S
C1005 C1010 1.399 . S
C1006 C1005 1.399 . S
C1006 C1007 1.376 . S
C1007 H994 0.930 . S
C1007 C1006 1.376 . S
C1007 C1008 1.388 . S
C1008 H995 0.930 . S
C1008 C1007 1.388 . S
C1008 C1009 1.390 . S
C1009 C1008 1.390 . S
C1009 C1010 1.394 . S
C1009 C1015 1.465 . S
C1010 C1005 1.399 . S
C1010 C1009 1.394 . S
C1010 C1011 1.516 . S
C1011 C1010 1.516 . S
C1011 C1012 1.502 . S
C1011 C1013 1.561 . S
C1011 C1014 1.526 . S
C1012 H996 0.959 . S
C1012 H997 0.959 . S
C1012 H998 0.961 . S
C1012 C1011 1.502 . S
C1013 H999 0.960 . S
C1013 H1000 0.961 . S
C1013 H1001 0.959 . S
C1013 C1011 1.561 . S
C1014 C1011 1.526 . S
C1014 C1015 1.396 . S
C1014 C1019 1.390 . S
C1015 C1009 1.465 . S
C1015 C1014 1.396 . S
C1015 C1016 1.399 . S
C1016 H1002 0.929 . S
C1016 C1015 1.399 . S
C1016 C1017 1.385 . S
C1017 H1003 0.931 . S
C1017 C1016 1.385 . S
C1017 C1018 1.389 . S
C1018 C1017 1.389 . S
C1018 C1019 1.387 . S
C1019 H1004 0.930 . S
C1019 C1014 1.390 . S
C1019 C1018 1.387 . S
H1020 C1032 0.930 . S
H1021 C1034 0.930 . S
H1022 C1035 0.930 . S
H1023 C1039 0.959 . S
H1024 C1039 0.959 . S
H1025 C1039 0.961 . S
H1026 C1040 0.960 . S
H1027 C1040 0.961 . S
H1028 C1040 0.959 . S
H1029 C1043 0.929 . S
H1030 C1044 0.931 . S
H1031 C1046 0.930 . S
C1032 H1020 0.930 . S
C1032 C1033 1.399 . S
C1032 C1037 1.399 . S
C1033 C1032 1.399 . S
C1033 C1034 1.376 . S
C1034 H1021 0.930 . S
C1034 C1033 1.376 . S
C1034 C1035 1.388 . S
C1035 H1022 0.930 . S
C1035 C1034 1.388 . S
C1035 C1036 1.390 . S
C1036 C1035 1.390 . S
C1036 C1037 1.394 . S
C1036 C1042 1.465 . S
C1037 C1032 1.399 . S
C1037 C1036 1.394 . S
C1037 C1038 1.516 . S
C1038 C1037 1.516 . S
C1038 C1039 1.502 . S
C1038 C1040 1.561 . S
C1038 C1041 1.526 . S
C1039 H1023 0.959 . S
C1039 H1024 0.959 . S
C1039 H1025 0.961 . S
C1039 C1038 1.502 . S
C1040 H1026 0.960 . S
C1040 H1027 0.961 . S
C1040 H1028 0.959 . S
C1040 C1038 1.561 . S
C1041 C1038 1.526 . S
C1041 C1042 1.396 . S
C1041 C1046 1.390 . S
C1042 C1036 1.465 . S
C1042 C1041 1.396 . S
C1042 C1043 1.399 . S
C1043 H1029 0.929 . S
C1043 C1042 1.399 . S
C1043 C1044 1.385 . S
C1044 H1030 0.931 . S
C1044 C1043 1.385 . S
C1044 C1045 1.389 . S
C1045 C1044 1.389 . S
C1045 C1046 1.387 . S
C1046 H1031 0.930 . S
C1046 C1041 1.390 . S
C1046 C1045 1.387 . S
H1047 C1059 0.930 . S
H1048 C1061 0.930 . S
H1049 C1062 0.930 . S
H1050 C1066 0.959 . S
H1051 C1066 0.959 . S
H1052 C1066 0.961 . S
H1053 C1067 0.960 . S
H1054 C1067 0.961 . S
H1055 C1067 0.959 . S
H1056 C1070 0.929 . S
H1057 C1071 0.931 . S
H1058 C1073 0.930 . S
C1059 H1047 0.930 . S
C1059 C1060 1.399 . S
C1059 C1064 1.399 . S
C1060 C1059 1.399 . S
C1060 C1061 1.376 . S
C1061 H1048 0.930 . S
C1061 C1060 1.376 . S
C1061 C1062 1.388 . S
C1062 H1049 0.930 . S
C1062 C1061 1.388 . S
C1062 C1063 1.390 . S
C1063 C1062 1.390 . S
C1063 C1064 1.394 . S
C1063 C1069 1.465 . S
C1064 C1059 1.399 . S
C1064 C1063 1.394 . S
C1064 C1065 1.516 . S
C1065 C1064 1.516 . S
C1065 C1066 1.502 . S
C1065 C1067 1.561 . S
C1065 C1068 1.526 . S
C1066 H1050 0.959 . S
C1066 H1051 0.959 . S
C1066 H1052 0.961 . S
C1066 C1065 1.502 . S
C1067 H1053 0.960 . S
C1067 H1054 0.961 . S
C1067 H1055 0.959 . S
C1067 C1065 1.561 . S
C1068 C1065 1.526 . S
C1068 C1069 1.396 . S
C1068 C1073 1.390 . S
C1069 C1063 1.465 . S
C1069 C1068 1.396 . S
C1069 C1070 1.399 . S
C1070 H1056 0.929 . S
C1070 C1069 1.399 . S
C1070 C1071 1.385 . S
C1071 H1057 0.931 . S
C1071 C1070 1.385 . S
C1071 C1072 1.389 . S
C1072 C1071 1.389 . S
C1072 C1073 1.387 . S
C1073 H1058 0.930 . S
C1073 C1068 1.390 . S
C1073 C1072 1.387 . S
H1074 C1086 0.930 . S
H1075 C1088 0.930 . S
H1076 C1089 0.930 . S
H1077 C1093 0.959 . S
H1078 C1093 0.959 . S
H1079 C1093 0.961 . S
H1080 C1094 0.960 . S
H1081 C1094 0.961 . S
H1082 C1094 0.959 . S
H1083 C1097 0.929 . S
H1084 C1098 0.931 . S
H1085 C1100 0.930 . S
C1086 H1074 0.930 . S
C1086 C1087 1.399 . S
C1086 C1091 1.399 . S
C1087 C1086 1.399 . S
C1087 C1088 1.376 . S
C1088 H1075 0.930 . S
C1088 C1087 1.376 . S
C1088 C1089 1.388 . S
C1089 H1076 0.930 . S
C1089 C1088 1.388 . S
C1089 C1090 1.390 . S
C1090 C1089 1.390 . S
C1090 C1091 1.394 . S
C1090 C1096 1.465 . S
C1091 C1086 1.399 . S
C1091 C1090 1.394 . S
C1091 C1092 1.516 . S
C1092 C1091 1.516 . S
C1092 C1093 1.502 . S
C1092 C1094 1.561 . S
C1092 C1095 1.526 . S
C1093 H1077 0.959 . S
C1093 H1078 0.959 . S
C1093 H1079 0.961 . S
C1093 C1092 1.502 . S
C1094 H1080 0.960 . S
C1094 H1081 0.961 . S
C1094 H1082 0.959 . S
C1094 C1092 1.561 . S
C1095 C1092 1.526 . S
C1095 C1096 1.396 . S
C1095 C1100 1.390 . S
C1096 C1090 1.465 . S
C1096 C1095 1.396 . S
C1096 C1097 1.399 . S
C1097 H1083 0.929 . S
C1097 C1096 1.399 . S
C1097 C1098 1.385 . S
C1098 H1084 0.931 . S
C1098 C1097 1.385 . S
C1098 C1099 1.389 . S
C1099 C1098 1.389 . S
C1099 C1100 1.387 . S
C1100 H1085 0.930 . S
C1100 C1095 1.390 . S
C1100 C1099 1.387 . S
H1101 C1113 0.930 . S
H1102 C1115 0.930 . S
H1103 C1116 0.930 . S
H1104 C1120 0.959 . S
H1105 C1120 0.959 . S
H1106 C1120 0.961 . S
H1107 C1121 0.960 . S
H1108 C1121 0.961 . S
H1109 C1121 0.959 . S
H1110 C1124 0.929 . S
H1111 C1125 0.931 . S
H1112 C1127 0.930 . S
C1113 H1101 0.930 . S
C1113 C1114 1.399 . S
C1113 C1118 1.399 . S
C1114 C1113 1.399 . S
C1114 C1115 1.376 . S
C1115 H1102 0.930 . S
C1115 C1114 1.376 . S
C1115 C1116 1.388 . S
C1116 H1103 0.930 . S
C1116 C1115 1.388 . S
C1116 C1117 1.390 . S
C1117 C1116 1.390 . S
C1117 C1118 1.394 . S
C1117 C1123 1.465 . S
C1118 C1113 1.399 . S
C1118 C1117 1.394 . S
C1118 C1119 1.516 . S
C1119 C1118 1.516 . S
C1119 C1120 1.502 . S
C1119 C1121 1.561 . S
C1119 C1122 1.526 . S
C1120 H1104 0.959 . S
C1120 H1105 0.959 . S
C1120 H1106 0.961 . S
C1120 C1119 1.502 . S
C1121 H1107 0.960 . S
C1121 H1108 0.961 . S
C1121 H1109 0.959 . S
C1121 C1119 1.561 . S
C1122 C1119 1.526 . S
C1122 C1123 1.396 . S
C1122 C1127 1.390 . S
C1123 C1117 1.465 . S
C1123 C1122 1.396 . S
C1123 C1124 1.399 . S
C1124 H1110 0.929 . S
C1124 C1123 1.399 . S
C1124 C1125 1.385 . S
C1125 H1111 0.931 . S
C1125 C1124 1.385 . S
C1125 C1126 1.389 . S
C1126 C1125 1.389 . S
C1126 C1127 1.387 . S
C1127 H1112 0.930 . S
C1127 C1122 1.390 . S
C1127 C1126 1.387 . S
H1128 C1140 0.930 . S
H1129 C1142 0.930 . S
H1130 C1143 0.930 . S
H1131 C1147 0.959 . S
H1132 C1147 0.959 . S
H1133 C1147 0.961 . S
H1134 C1148 0.960 . S
H1135 C1148 0.961 . S
H1136 C1148 0.959 . S
H1137 C1151 0.929 . S
H1138 C1152 0.931 . S
H1139 C1154 0.930 . S
C1140 H1128 0.930 . S
C1140 C1141 1.399 . S
C1140 C1145 1.399 . S
C1141 C1140 1.399 . S
C1141 C1142 1.376 . S
C1142 H1129 0.930 . S
C1142 C1141 1.376 . S
C1142 C1143 1.388 . S
C1143 H1130 0.930 . S
C1143 C1142 1.388 . S
C1143 C1144 1.390 . S
C1144 C1143 1.390 . S
C1144 C1145 1.394 . S
C1144 C1150 1.465 . S
C1145 C1140 1.399 . S
C1145 C1144 1.394 . S
C1145 C1146 1.516 . S
C1146 C1145 1.516 . S
C1146 C1147 1.502 . S
C1146 C1148 1.561 . S
C1146 C1149 1.526 . S
C1147 H1131 0.959 . S
C1147 H1132 0.959 . S
C1147 H1133 0.961 . S
C1147 C1146 1.502 . S
C1148 H1134 0.960 . S
C1148 H1135 0.961 . S
C1148 H1136 0.959 . S
C1148 C1146 1.561 . S
C1149 C1146 1.526 . S
C1149 C1150 1.396 . S
C1149 C1154 1.390 . S
C1150 C1144 1.465 . S
C1150 C1149 1.396 . S
C1150 C1151 1.399 . S
C1151 H1137 0.929 . S
C1151 C1150 1.399 . S
C1151 C1152 1.385 . S
C1152 H1138 0.931 . S
C1152 C1151 1.385 . S
C1152 C1153 1.389 . S
C1153 C1152 1.389 . S
C1153 C1154 1.387 . S
C1154 H1139 0.930 . S
C1154 C1149 1.390 . S
C1154 C1153 1.387 . S
H1155 C1167 0.930 . S
H1156 C1169 0.930 . S
H1157 C1170 0.930 . S
H1158 C1174 0.959 . S
H1159 C1174 0.959 . S
H1160 C1174 0.961 . S
H1161 C1175 0.960 . S
H1162 C1175 0.961 . S
H1163 C1175 0.959 . S
H1164 C1178 0.929 . S
H1165 C1179 0.931 . S
H1166 C1181 0.930 . S
C1167 H1155 0.930 . S
C1167 C1168 1.399 . S
C1167 C1172 1.399 . S
C1168 C1167 1.399 . S
C1168 C1169 1.376 . S
C1169 H1156 0.930 . S
C1169 C1168 1.376 . S
C1169 C1170 1.388 . S
C1170 H1157 0.930 . S
C1170 C1169 1.388 . S
C1170 C1171 1.390 . S
C1171 C1170 1.390 . S
C1171 C1172 1.394 . S
C1171 C1177 1.465 . S
C1172 C1167 1.399 . S
C1172 C1171 1.394 . S
C1172 C1173 1.516 . S
C1173 C1172 1.516 . S
C1173 C1174 1.502 . S
C1173 C1175 1.561 . S
C1173 C1176 1.526 . S
C1174 H1158 0.959 . S
C1174 H1159 0.959 . S
C1174 H1160 0.961 . S
C1174 C1173 1.502 . S
C1175 H1161 0.960 . S
C1175 H1162 0.961 . S
C1175 H1163 0.959 . S
C1175 C1173 1.561 . S
C1176 C1173 1.526 . S
C1176 C1177 1.396 . S
C1176 C1181 1.390 . S
C1177 C1171 1.465 . S
C1177 C1176 1.396 . S
C1177 C1178 1.399 . S
C1178 H1164 0.929 . S
C1178 C1177 1.399 . S
C1178 C1179 1.385 . S
C1179 H1165 0.931 . S
C1179 C1178 1.385 . S
C1179 C1180 1.389 . S
C1180 C1179 1.389 . S
C1180 C1181 1.387 . S
C1181 H1166 0.930 . S
C1181 C1176 1.390 . S
C1181 C1180 1.387 . S
H1182 C1194 0.930 . S
H1183 C1196 0.930 . S
H1184 C1197 0.930 . S
H1185 C1201 0.959 . S
H1186 C1201 0.959 . S
H1187 C1201 0.961 . S
H1188 C1202 0.960 . S
H1189 C1202 0.961 . S
H1190 C1202 0.959 . S
H1191 C1205 0.929 . S
H1192 C1206 0.931 . S
H1193 C1208 0.930 . S
C1194 H1182 0.930 . S
C1194 C1195 1.399 . S
C1194 C1199 1.399 . S
C1195 C1194 1.399 . S
C1195 C1196 1.376 . S
C1196 H1183 0.930 . S
C1196 C1195 1.376 . S
C1196 C1197 1.388 . S
C1197 H1184 0.930 . S
C1197 C1196 1.388 . S
C1197 C1198 1.390 . S
C1198 C1197 1.390 . S
C1198 C1199 1.394 . S
C1198 C1204 1.465 . S
C1199 C1194 1.399 . S
C1199 C1198 1.394 . S
C1199 C1200 1.516 . S
C1200 C1199 1.516 . S
C1200 C1201 1.502 . S
C1200 C1202 1.561 . S
C1200 C1203 1.526 . S
C1201 H1185 0.959 . S
C1201 H1186 0.959 . S
C1201 H1187 0.961 . S
C1201 C1200 1.502 . S
C1202 H1188 0.960 . S
C1202 H1189 0.961 . S
C1202 H1190 0.959 . S
C1202 C1200 1.561 . S
C1203 C1200 1.526 . S
C1203 C1204 1.396 . S
C1203 C1208 1.390 . S
C1204 C1198 1.465 . S
C1204 C1203 1.396 . S
C1204 C1205 1.399 . S
C1205 H1191 0.929 . S
C1205 C1204 1.399 . S
C1205 C1206 1.385 . S
C1206 H1192 0.931 . S
C1206 C1205 1.385 . S
C1206 C1207 1.389 . S
C1207 C1206 1.389 . S
C1207 C1208 1.387 . S
C1208 H1193 0.930 . S
C1208 C1203 1.390 . S
C1208 C1207 1.387 . S
H1209 C1221 0.930 . S
H1210 C1223 0.930 . S
H1211 C1224 0.930 . S
H1212 C1228 0.959 . S
H1213 C1228 0.959 . S
H1214 C1228 0.961 . S
H1215 C1229 0.960 . S
H1216 C1229 0.961 . S
H1217 C1229 0.959 . S
H1218 C1232 0.929 . S
H1219 C1233 0.931 . S
H1220 C1235 0.930 . S
C1221 H1209 0.930 . S
C1221 C1222 1.399 . S
C1221 C1226 1.399 . S
C1222 C1221 1.399 . S
C1222 C1223 1.376 . S
C1223 H1210 0.930 . S
C1223 C1222 1.376 . S
C1223 C1224 1.388 . S
C1224 H1211 0.930 . S
C1224 C1223 1.388 . S
C1224 C1225 1.390 . S
C1225 C1224 1.390 . S
C1225 C1226 1.394 . S
C1225 C1231 1.465 . S
C1226 C1221 1.399 . S
C1226 C1225 1.394 . S
C1226 C1227 1.516 . S
C1227 C1226 1.516 . S
C1227 C1228 1.502 . S
C1227 C1229 1.561 . S
C1227 C1230 1.526 . S
C1228 H1212 0.959 . S
C1228 H1213 0.959 . S
C1228 H1214 0.961 . S
C1228 C1227 1.502 . S
C1229 H1215 0.960 . S
C1229 H1216 0.961 . S
C1229 H1217 0.959 . S
C1229 C1227 1.561 . S
C1230 C1227 1.526 . S
C1230 C1231 1.396 . S
C1230 C1235 1.390 . S
C1231 C1225 1.465 . S
C1231 C1230 1.396 . S
C1231 C1232 1.399 . S
C1232 H1218 0.929 . S
C1232 C1231 1.399 . S
C1232 C1233 1.385 . S
C1233 H1219 0.931 . S
C1233 C1232 1.385 . S
C1233 C1234 1.389 . S
C1234 C1233 1.389 . S
C1234 C1235 1.387 . S
C1235 H1220 0.930 . S
C1235 C1230 1.390 . S
C1235 C1234 1.387 . S
H1236 C1248 0.930 . S
H1237 C1250 0.930 . S
H1238 C1251 0.930 . S
H1239 C1255 0.959 . S
H1240 C1255 0.959 . S
H1241 C1255 0.961 . S
H1242 C1256 0.960 . S
H1243 C1256 0.961 . S
H1244 C1256 0.959 . S
H1245 C1259 0.929 . S
H1246 C1260 0.931 . S
H1247 C1262 0.930 . S
C1248 H1236 0.930 . S
C1248 C1249 1.399 . S
C1248 C1253 1.399 . S
C1249 C1248 1.399 . S
C1249 C1250 1.376 . S
C1250 H1237 0.930 . S
C1250 C1249 1.376 . S
C1250 C1251 1.388 . S
C1251 H1238 0.930 . S
C1251 C1250 1.388 . S
C1251 C1252 1.390 . S
C1252 C1251 1.390 . S
C1252 C1253 1.394 . S
C1252 C1258 1.465 . S
C1253 C1248 1.399 . S
C1253 C1252 1.394 . S
C1253 C1254 1.516 . S
C1254 C1253 1.516 . S
C1254 C1255 1.502 . S
C1254 C1256 1.561 . S
C1254 C1257 1.526 . S
C1255 H1239 0.959 . S
C1255 H1240 0.959 . S
C1255 H1241 0.961 . S
C1255 C1254 1.502 . S
C1256 H1242 0.960 . S
C1256 H1243 0.961 . S
C1256 H1244 0.959 . S
C1256 C1254 1.561 . S
C1257 C1254 1.526 . S
C1257 C1258 1.396 . S
C1257 C1262 1.390 . S
C1258 C1252 1.465 . S
C1258 C1257 1.396 . S
C1258 C1259 1.399 . S
C1259 H1245 0.929 . S
C1259 C1258 1.399 . S
C1259 C1260 1.385 . S
C1260 H1246 0.931 . S
C1260 C1259 1.385 . S
C1260 C1261 1.389 . S
C1261 C1260 1.389 . S
C1261 C1262 1.387 . S
C1262 H1247 0.930 . S
C1262 C1257 1.390 . S
C1262 C1261 1.387 . S
H1263 C1275 0.930 . S
H1264 C1277 0.930 . S
H1265 C1278 0.930 . S
H1266 C1282 0.959 . S
H1267 C1282 0.959 . S
H1268 C1282 0.961 . S
H1269 C1283 0.960 . S
H1270 C1283 0.961 . S
H1271 C1283 0.959 . S
H1272 C1286 0.929 . S
H1273 C1287 0.931 . S
H1274 C1289 0.930 . S
C1275 H1263 0.930 . S
C1275 C1276 1.399 . S
C1275 C1280 1.399 . S
C1276 C1275 1.399 . S
C1276 C1277 1.376 . S
C1277 H1264 0.930 . S
C1277 C1276 1.376 . S
C1277 C1278 1.388 . S
C1278 H1265 0.930 . S
C1278 C1277 1.388 . S
C1278 C1279 1.390 . S
C1279 C1278 1.390 . S
C1279 C1280 1.394 . S
C1279 C1285 1.465 . S
C1280 C1275 1.399 . S
C1280 C1279 1.394 . S
C1280 C1281 1.516 . S
C1281 C1280 1.516 . S
C1281 C1282 1.502 . S
C1281 C1283 1.561 . S
C1281 C1284 1.526 . S
C1282 H1266 0.959 . S
C1282 H1267 0.959 . S
C1282 H1268 0.961 . S
C1282 C1281 1.502 . S
C1283 H1269 0.960 . S
C1283 H1270 0.961 . S
C1283 H1271 0.959 . S
C1283 C1281 1.561 . S
C1284 C1281 1.526 . S
C1284 C1285 1.396 . S
C1284 C1289 1.390 . S
C1285 C1279 1.465 . S
C1285 C1284 1.396 . S
C1285 C1286 1.399 . S
C1286 H1272 0.929 . S
C1286 C1285 1.399 . S
C1286 C1287 1.385 . S
C1287 H1273 0.931 . S
C1287 C1286 1.385 . S
C1287 C1288 1.389 . S
C1288 C1287 1.389 . S
C1288 C1289 1.387 . S
C1289 H1274 0.930 . S
C1289 C1284 1.390 . S
C1289 C1288 1.387 . S
H1290 C1302 0.930 . S
H1291 C1304 0.930 . S
H1292 C1305 0.930 . S
H1293 C1309 0.959 . S
H1294 C1309 0.959 . S
H1295 C1309 0.961 . S
H1296 C1310 0.960 . S
H1297 C1310 0.961 . S
H1298 C1310 0.959 . S
H1299 C1313 0.929 . S
H1300 C1314 0.931 . S
H1301 C1316 0.930 . S
C1302 H1290 0.930 . S
C1302 C1303 1.399 . S
C1302 C1307 1.399 . S
C1303 C1302 1.399 . S
C1303 C1304 1.376 . S
C1304 H1291 0.930 . S
C1304 C1303 1.376 . S
C1304 C1305 1.388 . S
C1305 H1292 0.930 . S
C1305 C1304 1.388 . S
C1305 C1306 1.390 . S
C1306 C1305 1.390 . S
C1306 C1307 1.394 . S
C1306 C1312 1.465 . S
C1307 C1302 1.399 . S
C1307 C1306 1.394 . S
C1307 C1308 1.516 1_556 S
C1308 C1307 1.516 1_554 S
C1308 C1309 1.502 . S
C1308 C1310 1.561 . S
C1308 C1311 1.526 . S
C1309 H1293 0.959 . S
C1309 H1294 0.959 . S
C1309 H1295 0.961 . S
C1309 C1308 1.502 . S
C1310 H1296 0.960 . S
C1310 H1297 0.961 . S
C1310 H1298 0.959 . S
C1310 C1308 1.561 . S
C1311 C1308 1.526 . S
C1311 C1312 1.396 1_554 S
C1311 C1316 1.390 . S
C1312 C1306 1.465 . S
C1312 C1311 1.396 1_556 S
C1312 C1313 1.399 . S
C1313 H1299 0.929 . S
C1313 C1312 1.399 . S
C1313 C1314 1.385 1_556 S
C1314 H1300 0.931 . S
C1314 C1313 1.385 1_554 S
C1314 C1315 1.389 . S
C1315 C1314 1.389 . S
C1315 C1316 1.387 . S
C1316 H1301 0.930 . S
C1316 C1311 1.390 . S
C1316 C1315 1.387 . S
H1317 C1329 0.930 . S
H1318 C1331 0.930 . S
H1319 C1332 0.930 . S
H1320 C1336 0.959 . S
H1321 C1336 0.959 . S
H1322 C1336 0.961 . S
H1323 C1337 0.960 . S
H1324 C1337 0.961 . S
H1325 C1337 0.959 . S
H1326 C1340 0.929 1_455 S
H1327 C1341 0.931 . S
H1328 C1343 0.930 . S
C1329 H1317 0.930 . S
C1329 C1330 1.399 . S
C1329 C1334 1.399 . S
C1330 C1329 1.399 . S
C1330 C1331 1.376 . S
C1331 H1318 0.930 . S
C1331 C1330 1.376 . S
C1331 C1332 1.388 . S
C1332 H1319 0.930 . S
C1332 C1331 1.388 . S
C1332 C1333 1.390 . S
C1333 C1332 1.390 . S
C1333 C1334 1.394 . S
C1333 C1339 1.465 1_455 S
C1334 C1329 1.399 . S
C1334 C1333 1.394 . S
C1334 C1335 1.516 1_455 S
C1335 C1334 1.516 1_655 S
C1335 C1336 1.502 . S
C1335 C1337 1.561 . S
C1335 C1338 1.526 . S
C1336 H1320 0.959 . S
C1336 H1321 0.959 . S
C1336 H1322 0.961 . S
C1336 C1335 1.502 . S
C1337 H1323 0.960 . S
C1337 H1324 0.961 . S
C1337 H1325 0.959 . S
C1337 C1335 1.561 . S
C1338 C1335 1.526 . S
C1338 C1339 1.396 . S
C1338 C1343 1.390 . S
C1339 C1333 1.465 1_655 S
C1339 C1338 1.396 . S
C1339 C1340 1.399 . S
C1340 H1326 0.929 1_655 S
C1340 C1339 1.399 . S
C1340 C1341 1.385 . S
C1341 H1327 0.931 . S
C1341 C1340 1.385 . S
C1341 C1342 1.389 . S
C1342 C1341 1.389 . S
C1342 C1343 1.387 . S
C1343 H1328 0.930 . S
C1343 C1338 1.390 . S
C1343 C1342 1.387 . S
H1344 C1356 0.930 . S
H1345 C1358 0.930 . S
H1346 C1359 0.930 . S
H1347 C1363 0.959 1_544 S
H1348 C1363 0.959 1_545 S
H1349 C1363 0.961 . S
H1350 C1364 0.960 . S
H1351 C1364 0.961 . S
H1352 C1364 0.959 . S
H1353 C1367 0.929 1_554 S
H1354 C1368 0.931 . S
H1355 C1370 0.930 . S
C1356 H1344 0.930 . S
C1356 C1357 1.399 . S
C1356 C1361 1.399 . S
C1357 C1356 1.399 . S
C1357 C1358 1.376 . S
C1358 H1345 0.930 . S
C1358 C1357 1.376 . S
C1358 C1359 1.388 . S
C1359 H1346 0.930 . S
C1359 C1358 1.388 . S
C1359 C1360 1.390 . S
C1360 C1359 1.390 . S
C1360 C1361 1.394 . S
C1360 C1366 1.465 1_564 S
C1361 C1356 1.399 . S
C1361 C1360 1.394 . S
C1361 C1362 1.516 1_554 S
C1362 C1361 1.516 1_556 S
C1362 C1363 1.502 . S
C1362 C1364 1.561 . S
C1362 C1365 1.526 1_565 S
C1363 H1347 0.959 1_566 S
C1363 H1348 0.959 1_565 S
C1363 H1349 0.961 . S
C1363 C1362 1.502 . S
C1364 H1350 0.960 . S
C1364 H1351 0.961 . S
C1364 H1352 0.959 . S
C1364 C1362 1.561 . S
C1365 C1362 1.526 1_545 S
C1365 C1366 1.396 . S
C1365 C1370 1.390 . S
C1366 C1360 1.465 1_546 S
C1366 C1365 1.396 . S
C1366 C1367 1.399 . S
C1367 H1353 0.929 1_556 S
C1367 C1366 1.399 . S
C1367 C1368 1.385 . S
C1368 H1354 0.931 . S
C1368 C1367 1.385 . S
C1368 C1369 1.389 . S
C1369 C1368 1.389 . S
C1369 C1370 1.387 . S
C1370 H1355 0.930 . S
C1370 C1365 1.390 . S
C1370 C1369 1.387 . S
H1371 C1383 0.930 . S
H1372 C1385 0.930 . S
H1373 C1386 0.930 . S
H1374 C1390 0.959 . S
H1375 C1390 0.959 . S
H1376 C1390 0.961 . S
H1377 C1391 0.960 . S
H1378 C1391 0.961 . S
H1379 C1391 0.959 . S
H1380 C1394 0.929 . S
H1381 C1395 0.931 . S
H1382 C1397 0.930 . S
C1383 H1371 0.930 . S
C1383 C1384 1.399 . S
C1383 C1388 1.399 . S
C1384 C1383 1.399 . S
C1384 C1385 1.376 . S
C1385 H1372 0.930 . S
C1385 C1384 1.376 . S
C1385 C1386 1.388 . S
C1386 H1373 0.930 . S
C1386 C1385 1.388 . S
C1386 C1387 1.390 . S
C1387 C1386 1.390 . S
C1387 C1388 1.394 . S
C1387 C1393 1.465 . S
C1388 C1383 1.399 . S
C1388 C1387 1.394 . S
C1388 C1389 1.516 . S
C1389 C1388 1.516 . S
C1389 C1390 1.502 . S
C1389 C1391 1.561 . S
C1389 C1392 1.526 . S
C1390 H1374 0.959 . S
C1390 H1375 0.959 . S
C1390 H1376 0.961 . S
C1390 C1389 1.502 . S
C1391 H1377 0.960 . S
C1391 H1378 0.961 . S
C1391 H1379 0.959 . S
C1391 C1389 1.561 . S
C1392 C1389 1.526 . S
C1392 C1393 1.396 . S
C1392 C1397 1.390 . S
C1393 C1387 1.465 . S
C1393 C1392 1.396 . S
C1393 C1394 1.399 . S
C1394 H1380 0.929 . S
C1394 C1393 1.399 . S
C1394 C1395 1.385 . S
C1395 H1381 0.931 . S
C1395 C1394 1.385 . S
C1395 C1396 1.389 . S
C1396 C1395 1.389 . S
C1396 C1397 1.387 . S
C1397 H1382 0.930 . S
C1397 C1392 1.390 . S
C1397 C1396 1.387 . S
H1398 C1410 0.930 . S
H1399 C1412 0.930 . S
H1400 C1413 0.930 1_455 S
H1401 C1417 0.959 . S
H1402 C1417 0.959 . S
H1403 C1417 0.961 . S
H1404 C1418 0.960 . S
H1405 C1418 0.961 . S
H1406 C1418 0.959 . S
H1407 C1421 0.929 . S
H1408 C1422 0.931 . S
H1409 C1424 0.930 . S
C1410 H1398 0.930 . S
C1410 C1411 1.399 . S
C1410 C1415 1.399 . S
C1411 C1410 1.399 . S
C1411 C1412 1.376 . S
C1412 H1399 0.930 . S
C1412 C1411 1.376 . S
C1412 C1413 1.388 . S
C1413 H1400 0.930 1_655 S
C1413 C1412 1.388 . S
C1413 C1414 1.390 . S
C1414 C1413 1.390 . S
C1414 C1415 1.394 . S
C1414 C1420 1.465 1_655 S
C1415 C1410 1.399 . S
C1415 C1414 1.394 . S
C1415 C1416 1.516 1_556 S
C1416 C1415 1.516 1_554 S
C1416 C1417 1.502 . S
C1416 C1418 1.561 . S
C1416 C1419 1.526 1_655 S
C1417 H1401 0.959 . S
C1417 H1402 0.959 . S
C1417 H1403 0.961 . S
C1417 C1416 1.502 . S
C1418 H1404 0.960 . S
C1418 H1405 0.961 . S
C1418 H1406 0.959 . S
C1418 C1416 1.561 . S
C1419 C1416 1.526 1_455 S
C1419 C1420 1.396 1_554 S
C1419 C1424 1.390 . S
C1420 C1414 1.465 1_455 S
C1420 C1419 1.396 1_556 S
C1420 C1421 1.399 . S
C1421 H1407 0.929 . S
C1421 C1420 1.399 . S
C1421 C1422 1.385 1_556 S
C1422 H1408 0.931 . S
C1422 C1421 1.385 1_554 S
C1422 C1423 1.389 . S
C1423 C1422 1.389 . S
C1423 C1424 1.387 . S
C1424 H1409 0.930 . S
C1424 C1419 1.390 . S
C1424 C1423 1.387 . S
H1425 C1437 0.930 . S
H1426 C1439 0.930 . S
H1427 C1440 0.931 1_545 S
H1428 C1444 0.959 . S
H1429 C1444 0.959 . S
H1430 C1444 0.961 . S
H1431 C1445 0.960 . S
H1432 C1445 0.961 . S
H1433 C1445 0.959 . S
H1434 C1448 0.929 . S
H1435 C1449 0.931 . S
H1436 C1451 0.930 . S
C1437 H1425 0.930 . S
C1437 C1438 1.399 . S
C1437 C1442 1.399 . S
C1438 C1437 1.399 . S
C1438 C1439 1.376 . S
C1439 H1426 0.930 . S
C1439 C1438 1.376 . S
C1439 C1440 1.388 . S
C1440 H1427 0.931 1_565 S
C1440 C1439 1.388 . S
C1440 C1441 1.390 . S
C1441 C1440 1.390 . S
C1441 C1442 1.394 . S
C1441 C1447 1.465 1_565 S
C1442 C1437 1.399 . S
C1442 C1441 1.394 . S
C1442 C1443 1.516 . S
C1443 C1442 1.516 . S
C1443 C1444 1.502 . S
C1443 C1445 1.561 . S
C1443 C1446 1.526 1_565 S
C1444 H1428 0.959 . S
C1444 H1429 0.959 . S
C1444 H1430 0.961 . S
C1444 C1443 1.502 . S
C1445 H1431 0.960 . S
C1445 H1432 0.961 . S
C1445 H1433 0.959 . S
C1445 C1443 1.561 . S
C1446 C1443 1.526 1_545 S
C1446 C1447 1.396 . S
C1446 C1451 1.390 . S
C1447 C1441 1.465 1_545 S
C1447 C1446 1.396 . S
C1447 C1448 1.399 . S
C1448 H1434 0.929 . S
C1448 C1447 1.399 . S
C1448 C1449 1.385 . S
C1449 H1435 0.931 . S
C1449 C1448 1.385 . S
C1449 C1450 1.389 . S
C1450 C1449 1.389 . S
C1450 C1451 1.387 . S
C1451 H1436 0.930 . S
C1451 C1446 1.390 . S
C1451 C1450 1.387 . S
C493 C175 1.380 . S
C505 C19 1.416 . S
C520 C215 1.337 . S
C532 C59 1.426 . S
C547 C99 1.425 . S
C559 C15 1.346 . S
C574 C139 1.403 . S
C586 C55 1.404 . S
C601 C179 1.406 . S
C613 C95 1.387 . S
C628 C135 1.377 . S
C640 C219 1.417 . S
C655 C335 1.359 . S
C667 C259 1.415 . S
C682 C299 1.425 . S
C694 C375 1.340 . S
C709 C415 1.335 . S
C721 C339 1.425 . S
C736 C379 1.405 . S
C748 C455 1.391 . S
C763 C419 1.403 . S
C775 C255 1.411 . S
C790 C295 1.383 . S
C802 C459 1.415 . S
C817 C166 1.687 . S
C829 C10 1.686 . S
C844 C50 1.678 . S
C856 C206 1.713 . S
C871 C90 1.677 . S
C883 C6 1.712 . S
C898 C130 1.708 . S
C910 C46 1.686 . S
C925 C86 1.686 . S
C937 C170 1.687 . S
C952 C126 1.693 . S
C964 C210 1.678 . S
C979 C326 1.700 . S
C991 C250 1.707 . S
C1006 C290 1.673 . S
C1018 C366 1.708 . S
C1033 C330 1.690 . S
C1045 C406 1.712 . S
C1060 C446 1.703 . S
C1072 C370 1.673 . S
C1087 C410 1.675 . S
C1099 C246 1.711 . S
C1114 C286 1.687 . S
C1126 C450 1.686 . S
C1141 C418 1.680 . S
C1153 C18 1.693 . S
C1168 C58 1.712 . S
C1180 C458 1.728 . S
C1195 C98 1.730 . S
C1207 C258 1.734 . S
C1222 C138 1.679 . S
C1234 C298 1.691 . S
C1249 C178 1.708 . S
C1261 C338 1.691 . S
C1276 C378 1.706 . S
C1288 C218 1.723 . S
C1303 C369 1.957 . S
C1315 C9 2.034 . S
C1330 C409 2.048 . S
C1342 C49 1.979 . S
C1357 C89 1.978 . S
C1369 C449 1.996 . S
C1384 C129 1.970 . S
C1396 C249 2.006 . S
C1411 C289 1.957 . S
C1423 C169 2.036 . S
C1438 C329 1.962 . S
C1450 C209 2.018 . S
