# Generated by pormake.
# Topology pcl, (4)-cn, num edge types: 1
# Building blocks:
#     Node 0, Type 0, BuildingBlock: QUQFOY_clean_sbu_3, # of connection points: 4
#     Node 1, Type 0, BuildingBlock: QUQFOY_clean_sbu_3, # of connection points: 4
#     Node 2, Type 0, BuildingBlock: QUQFOY_clean_sbu_3, # of connection points: 4
#     Node 3, Type 0, BuildingBlock: QUQFOY_clean_sbu_3, # of connection points: 4
#     Node 4, Type 0, BuildingBlock: QUQFOY_clean_sbu_3, # of connection points: 4
#     Node 5, Type 0, BuildingBlock: QUQFOY_clean_sbu_3, # of connection points: 4
#     Node 6, Type 0, BuildingBlock: QUQFOY_clean_sbu_3, # of connection points: 4
#     Node 7, Type 0, BuildingBlock: QUQFOY_clean_sbu_3, # of connection points: 4
#     Node 8, Type 0, BuildingBlock: QUQFOY_clean_sbu_3, # of connection points: 4
#     Node 9, Type 0, BuildingBlock: QUQFOY_clean_sbu_3, # of connection points: 4
#     Node 10, Type 0, BuildingBlock: QUQFOY_clean_sbu_3, # of connection points: 4
#     Node 11, Type 0, BuildingBlock: QUQFOY_clean_sbu_3, # of connection points: 4
#     Node 12, Type 0, BuildingBlock: QUQFOY_clean_sbu_3, # of connection points: 4
#     Node 13, Type 0, BuildingBlock: QUQFOY_clean_sbu_3, # of connection points: 4
#     Node 14, Type 0, BuildingBlock: QUQFOY_clean_sbu_3, # of connection points: 4
#     Node 15, Type 0, BuildingBlock: QUQFOY_clean_sbu_3, # of connection points: 4
#     Edge 16, Type (0, 0), BuildingBlock: KIFKEQ_clean_linker_1, # of connection points: 2
#     Edge 17, Type (0, 0), BuildingBlock: KIFKEQ_clean_linker_1, # of connection points: 2
#     Edge 18, Type (0, 0), BuildingBlock: KIFKEQ_clean_linker_1, # of connection points: 2
#     Edge 19, Type (0, 0), BuildingBlock: KIFKEQ_clean_linker_1, # of connection points: 2
#     Edge 20, Type (0, 0), BuildingBlock: KIFKEQ_clean_linker_1, # of connection points: 2
#     Edge 21, Type (0, 0), BuildingBlock: KIFKEQ_clean_linker_1, # of connection points: 2
#     Edge 22, Type (0, 0), BuildingBlock: KIFKEQ_clean_linker_1, # of connection points: 2
#     Edge 23, Type (0, 0), BuildingBlock: KIFKEQ_clean_linker_1, # of connection points: 2
#     Edge 24, Type (0, 0), BuildingBlock: KIFKEQ_clean_linker_1, # of connection points: 2
#     Edge 25, Type (0, 0), BuildingBlock: KIFKEQ_clean_linker_1, # of connection points: 2
#     Edge 26, Type (0, 0), BuildingBlock: KIFKEQ_clean_linker_1, # of connection points: 2
#     Edge 27, Type (0, 0), BuildingBlock: KIFKEQ_clean_linker_1, # of connection points: 2
#     Edge 28, Type (0, 0), BuildingBlock: KIFKEQ_clean_linker_1, # of connection points: 2
#     Edge 29, Type (0, 0), BuildingBlock: KIFKEQ_clean_linker_1, # of connection points: 2
#     Edge 30, Type (0, 0), BuildingBlock: KIFKEQ_clean_linker_1, # of connection points: 2
#     Edge 31, Type (0, 0), BuildingBlock: KIFKEQ_clean_linker_1, # of connection points: 2
#     Edge 32, Type (0, 0), BuildingBlock: KIFKEQ_clean_linker_1, # of connection points: 2
#     Edge 33, Type (0, 0), BuildingBlock: KIFKEQ_clean_linker_1, # of connection points: 2
#     Edge 34, Type (0, 0), BuildingBlock: KIFKEQ_clean_linker_1, # of connection points: 2
#     Edge 35, Type (0, 0), BuildingBlock: KIFKEQ_clean_linker_1, # of connection points: 2
#     Edge 36, Type (0, 0), BuildingBlock: KIFKEQ_clean_linker_1, # of connection points: 2
#     Edge 37, Type (0, 0), BuildingBlock: KIFKEQ_clean_linker_1, # of connection points: 2
#     Edge 38, Type (0, 0), BuildingBlock: KIFKEQ_clean_linker_1, # of connection points: 2
#     Edge 39, Type (0, 0), BuildingBlock: KIFKEQ_clean_linker_1, # of connection points: 2
#     Edge 40, Type (0, 0), BuildingBlock: KIFKEQ_clean_linker_1, # of connection points: 2
#     Edge 41, Type (0, 0), BuildingBlock: KIFKEQ_clean_linker_1, # of connection points: 2
#     Edge 42, Type (0, 0), BuildingBlock: KIFKEQ_clean_linker_1, # of connection points: 2
#     Edge 43, Type (0, 0), BuildingBlock: KIFKEQ_clean_linker_1, # of connection points: 2
#     Edge 44, Type (0, 0), BuildingBlock: KIFKEQ_clean_linker_1, # of connection points: 2
#     Edge 45, Type (0, 0), BuildingBlock: KIFKEQ_clean_linker_1, # of connection points: 2
#     Edge 46, Type (0, 0), BuildingBlock: KIFKEQ_clean_linker_1, # of connection points: 2
#     Edge 47, Type (0, 0), BuildingBlock: KIFKEQ_clean_linker_1, # of connection points: 2
# Relax obj value: 0.063
# Max RMSD: 0.050
# Mean RMSD: 0.047
data_MOF--net-pcl--node1-QUQFOY_clean_sbu_3--edge1-KIFKEQ_clean_linker_1
_symmetry_space_group_name_H-M    P1
_symmetry_Int_Tables_number       1
_symmetry_cell_setting            triclinic
loop_
_symmetry_equiv_pos_as_xyz
'x, y, z'
_cell_length_a     55.202884
_cell_length_b     44.056048
_cell_length_c     45.678853
_cell_angle_alpha  89.928918
_cell_angle_beta   89.895261
_cell_angle_gamma 90.105458
loop_
_atom_site_label
_atom_site_type_symbol
_atom_site_fract_x
_atom_site_fract_y
_atom_site_fract_z
_atom_type_partial_charge
C0 C 0.10911 0.40569 0.05123 0.0
O1 O 0.10011 0.4099 0.07652 0.0
Cd2 Cd 0.09911 0.37207 0.11413 0.0
O3 O 0.11809 0.38005 0.04421 0.0
Cd4 Cd 0.12506 0.32926 0.06582 0.0
C5 C 0.06512 0.31841 0.07806 0.0
O6 O 0.13837 0.35051 0.11092 0.0
O7 O 0.13506 0.30192 0.11215 0.0
O8 O 0.16232 0.33108 0.03783 0.0
C9 C 0.14122 0.32618 0.12509 0.0
O10 O 0.06752 0.3365 0.09959 0.0
C11 C 0.16076 0.30423 0.02803 0.0
O12 O 0.08264 0.31334 0.06055 0.0
O13 O 0.14207 0.28904 0.03524 0.0
C14 C 0.86315 0.59074 0.56125 0.0
O15 O 0.8684 0.58728 0.58808 0.0
Cd16 Cd 0.87123 0.62973 0.62026 0.0
O17 O 0.85786 0.61686 0.5511 0.0
Cd18 Cd 0.85168 0.66969 0.568 0.0
C19 C 0.91121 0.67457 0.58077 0.0
O20 O 0.8338 0.65558 0.61349 0.0
O21 O 0.84579 0.70198 0.6123 0.0
O22 O 0.81524 0.66694 0.53912 0.0
C23 C 0.83436 0.68121 0.62578 0.0
O24 O 0.90659 0.65885 0.60356 0.0
C25 C 0.81748 0.69288 0.5274 0.0
O26 O 0.89471 0.68057 0.56222 0.0
O27 O 0.8363 0.70811 0.53392 0.0
C28 C 0.12747 0.58628 0.91745 0.0
O29 O 0.12522 0.58369 0.8899 0.0
Cd30 Cd 0.12319 0.62671 0.8581 0.0
O31 O 0.13064 0.61225 0.92911 0.0
Cd32 Cd 0.13608 0.66643 0.91624 0.0
C33 C 0.07775 0.66542 0.89611 0.0
O34 O 0.15593 0.65904 0.87019 0.0
O35 O 0.14044 0.70334 0.87588 0.0
O36 O 0.17177 0.66437 0.94637 0.0
C37 C 0.15254 0.68535 0.8599 0.0
O38 O 0.08564 0.65107 0.87381 0.0
C39 C 0.16768 0.68869 0.96033 0.0
O40 O 0.09189 0.67273 0.91703 0.0
O41 O 0.14807 0.7026 0.9545 0.0
C42 C 0.85293 0.41197 0.42451 0.0
O43 O 0.85237 0.41753 0.39724 0.0
Cd44 Cd 0.85809 0.37879 0.36184 0.0
O45 O 0.85339 0.38474 0.43405 0.0
Cd46 Cd 0.85018 0.33116 0.41701 0.0
C47 C 0.90741 0.3421 0.39527 0.0
O48 O 0.82817 0.34249 0.37368 0.0
O49 O 0.84346 0.29775 0.37396 0.0
O50 O 0.8168 0.32996 0.45074 0.0
C51 C 0.83093 0.31748 0.3606 0.0
O52 O 0.89792 0.3593 0.37596 0.0
C53 C 0.8215 0.30421 0.46176 0.0
O54 O 0.89439 0.32834 0.41419 0.0
O55 O 0.84047 0.29082 0.45258 0.0
C56 C 0.8404 0.62909 0.8347 0.0
O57 O 0.84659 0.60154 0.83791 0.0
Cd58 Cd 0.85741 0.58018 0.88393 0.0
O59 O 0.83794 0.64642 0.85678 0.0
Cd60 Cd 0.83898 0.64383 0.91085 0.0
C61 C 0.89925 0.63475 0.9062 0.0
O62 O 0.82447 0.59234 0.91501 0.0
O63 O 0.83869 0.6113 0.95485 0.0
O64 O 0.80004 0.66766 0.90615 0.0
C65 C 0.82842 0.58921 0.94209 0.0
O66 O 0.89378 0.60822 0.89727 0.0
C67 C 0.80354 0.68816 0.92512 0.0
O68 O 0.88276 0.654 0.91223 0.0
O69 O 0.82423 0.68879 0.93737 0.0
C70 C 0.15395 0.35497 0.33964 0.0
O71 O 0.15151 0.38305 0.34499 0.0
Cd72 Cd 0.13581 0.40028 0.3903 0.0
O73 O 0.15149 0.33516 0.3598 0.0
Cd74 Cd 0.14764 0.33317 0.41412 0.0
C75 C 0.08934 0.34723 0.4017 0.0
O76 O 0.1643 0.38245 0.42479 0.0
O77 O 0.14503 0.36171 0.46058 0.0
O78 O 0.18521 0.30631 0.40983 0.0
C79 C 0.15756 0.38385 0.45122 0.0
O80 O 0.09703 0.37343 0.39427 0.0
C81 C 0.17997 0.28511 0.42754 0.0
O82 O 0.10382 0.32665 0.41044 0.0
O83 O 0.15888 0.28554 0.43886 0.0
C84 C 0.84122 0.34818 0.14547 0.0
O85 O 0.85137 0.37314 0.13878 0.0
Cd86 Cd 0.85772 0.3911 0.09009 0.0
O87 O 0.83332 0.33046 0.12564 0.0
Cd88 Cd 0.83095 0.33051 0.07155 0.0
C89 C 0.89157 0.33202 0.06338 0.0
O90 O 0.81997 0.38335 0.06665 0.0
O91 O 0.83006 0.3616 0.02637 0.0
O92 O 0.79046 0.30967 0.07701 0.0
C93 C 0.82185 0.38498 0.03914 0.0
O94 O 0.88983 0.36026 0.06885 0.0
C95 C 0.79338 0.28825 0.05882 0.0
O96 O 0.87325 0.31454 0.0654 0.0
O97 O 0.81422 0.28579 0.04721 0.0
C98 C 0.13443 0.64069 0.6508 0.0
O99 O 0.1216 0.61692 0.64797 0.0
Cd100 Cd 0.11558 0.59092 0.60228 0.0
O101 O 0.14445 0.65306 0.62872 0.0
Cd102 Cd 0.14575 0.64536 0.5756 0.0
C103 C 0.08482 0.64745 0.56787 0.0
O104 O 0.15332 0.59095 0.57684 0.0
O105 O 0.14551 0.61011 0.53438 0.0
O106 O 0.18728 0.66326 0.57825 0.0
C107 C 0.15187 0.58725 0.5494 0.0
O108 O 0.08507 0.61993 0.57635 0.0
C109 C 0.185 0.68354 0.55873 0.0
O110 O 0.10401 0.66357 0.56818 0.0
O111 O 0.16417 0.68648 0.54725 0.0
C112 C 0.62295 0.90004 0.05629 0.0
O113 O 0.61953 0.90442 0.08347 0.0
Cd114 Cd 0.62118 0.86476 0.1191 0.0
O115 O 0.628 0.87368 0.04656 0.0
Cd116 Cd 0.63525 0.82097 0.06317 0.0
C117 C 0.57761 0.81778 0.0878 0.0
O118 O 0.65611 0.83707 0.10577 0.0
O119 O 0.64799 0.78942 0.10575 0.0
O120 O 0.66849 0.82391 0.02909 0.0
C121 C 0.65793 0.81174 0.11852 0.0
O122 O 0.58514 0.83479 0.10844 0.0
C123 C 0.66565 0.79764 0.01832 0.0
O124 O 0.59149 0.8104 0.06661 0.0
O125 O 0.64766 0.78224 0.02754 0.0
C126 C 0.36759 0.0795 0.55626 0.0
O127 O 0.37547 0.07635 0.5822 0.0
Cd128 Cd 0.37557 0.11721 0.61679 0.0
O129 O 0.35937 0.10495 0.54753 0.0
Cd130 Cd 0.35177 0.15707 0.56497 0.0
C131 C 0.41146 0.1675 0.57841 0.0
O132 O 0.33665 0.13948 0.61074 0.0
O133 O 0.34108 0.18794 0.60882 0.0
O134 O 0.31535 0.15243 0.53595 0.0
C135 C 0.33381 0.16488 0.62302 0.0
O136 O 0.40825 0.1508 0.60088 0.0
C137 C 0.31702 0.17834 0.52398 0.0
O138 O 0.39441 0.172 0.56016 0.0
O139 O 0.3354 0.19436 0.53054 0.0
C140 C 0.62244 0.07731 0.91679 0.0
O141 O 0.62077 0.07235 0.88948 0.0
Cd142 Cd 0.62007 0.11184 0.85395 0.0
O143 O 0.6252 0.10421 0.92656 0.0
Cd144 Cd 0.63039 0.1577 0.91038 0.0
C145 C 0.57304 0.15378 0.88567 0.0
O146 O 0.6524 0.14402 0.86774 0.0
O147 O 0.64099 0.19053 0.86783 0.0
O148 O 0.66265 0.15642 0.94563 0.0
C149 C 0.65209 0.16932 0.85472 0.0
O150 O 0.58183 0.13658 0.8659 0.0
C151 C 0.65853 0.18225 0.95676 0.0
O152 O 0.5864 0.16448 0.90598 0.0
O153 O 0.64054 0.19696 0.94673 0.0
C154 C 0.35566 0.90001 0.42044 0.0
O155 O 0.35553 0.90469 0.393 0.0
Cd156 Cd 0.355 0.86499 0.35788 0.0
O157 O 0.35378 0.87317 0.43073 0.0
Cd158 Cd 0.34785 0.81972 0.4145 0.0
C159 C 0.40404 0.82457 0.38658 0.0
O160 O 0.32339 0.83238 0.37338 0.0
O161 O 0.3371 0.78688 0.37227 0.0
O162 O 0.31665 0.81973 0.45124 0.0
C163 C 0.32412 0.80713 0.36035 0.0
O164 O 0.39415 0.84134 0.36724 0.0
C165 C 0.32116 0.79358 0.46146 0.0
O166 O 0.3917 0.8137 0.4078 0.0
O167 O 0.33914 0.77951 0.45052 0.0
C168 C 0.3264 0.14023 0.8354 0.0
O169 O 0.33123 0.11221 0.83789 0.0
Cd170 Cd 0.35059 0.09278 0.88013 0.0
O171 O 0.32834 0.15824 0.85706 0.0
Cd172 Cd 0.33413 0.15439 0.91103 0.0
C173 C 0.39277 0.15003 0.89488 0.0
O174 O 0.32205 0.10209 0.91768 0.0
O175 O 0.34054 0.12201 0.95442 0.0
O176 O 0.29432 0.17609 0.91203 0.0
C177 C 0.32967 0.09926 0.94362 0.0
O178 O 0.38713 0.124 0.88485 0.0
C179 C 0.2989 0.19667 0.93058 0.0
O180 O 0.37699 0.16726 0.90653 0.0
O181 O 0.32052 0.19821 0.94011 0.0
C182 C 0.65145 0.84538 0.32844 0.0
O183 O 0.6455 0.87316 0.32904 0.0
Cd184 Cd 0.6254 0.89437 0.37011 0.0
O185 O 0.64995 0.82873 0.35117 0.0
Cd186 Cd 0.64306 0.83524 0.40454 0.0
C187 C 0.58432 0.83684 0.38815 0.0
O188 O 0.65419 0.88827 0.40809 0.0
O189 O 0.63652 0.86943 0.44618 0.0
O190 O 0.68325 0.81488 0.40651 0.0
C191 C 0.64695 0.8919 0.43415 0.0
O192 O 0.58941 0.86242 0.37663 0.0
C193 C 0.67901 0.79503 0.42596 0.0
O194 O 0.60046 0.82091 0.40071 0.0
O195 O 0.65741 0.79328 0.43561 0.0
C196 C 0.33663 0.85685 0.1518 0.0
O197 O 0.34458 0.88375 0.14887 0.0
Cd198 Cd 0.3594 0.90365 0.10384 0.0
O199 O 0.3347 0.83933 0.12976 0.0
Cd200 Cd 0.33954 0.84072 0.07578 0.0
C201 C 0.39983 0.84609 0.08527 0.0
O202 O 0.32778 0.89305 0.0704 0.0
O203 O 0.34239 0.87271 0.0314 0.0
O204 O 0.2998 0.81804 0.07749 0.0
C205 C 0.33298 0.89572 0.04356 0.0
O206 O 0.39513 0.87293 0.09393 0.0
C207 C 0.30394 0.79741 0.05884 0.0
O208 O 0.38287 0.82807 0.07769 0.0
O209 O 0.32522 0.79629 0.04814 0.0
C210 C 0.63831 0.13254 0.64144 0.0
O211 O 0.62784 0.10752 0.63582 0.0
Cd212 Cd 0.6193 0.08935 0.58765 0.0
O213 O 0.64545 0.14988 0.62083 0.0
Cd214 Cd 0.64627 0.14968 0.5668 0.0
C215 C 0.5854 0.1492 0.56209 0.0
O216 O 0.65591 0.09648 0.56139 0.0
O217 O 0.64554 0.11899 0.52154 0.0
O218 O 0.68718 0.16907 0.57149 0.0
C219 C 0.65316 0.09509 0.53396 0.0
O220 O 0.58702 0.12104 0.56808 0.0
C221 C 0.68451 0.19095 0.55372 0.0
O222 O 0.60397 0.1664 0.56263 0.0
O223 O 0.66365 0.19419 0.54239 0.0
H224 H 0.03029 0.30279 0.11733 0.0
H225 H 0.04472 0.30845 0.02456 0.0
H226 H 0.98729 0.29544 0.10734 0.0
H227 H 0.00143 0.30177 0.01457 0.0
H228 H 0.92739 0.35867 0.0319 0.0
H229 H 0.96988 0.34376 0.03005 0.0
H230 H 0.95337 0.26339 0.08049 0.0
H231 H 0.91047 0.278 0.08167 0.0
C232 C 0.02432 0.30154 0.09478 0.0
C233 C 0.04072 0.30648 0.07172 0.0
C234 C -0.00025 0.29713 0.08905 0.0
C235 C -0.00891 0.2982 0.06019 0.0
C236 C 0.00773 0.30083 0.037 0.0
C237 C 0.03245 0.30458 0.04272 0.0
C238 C 0.93272 0.33734 0.04178 0.0
C239 C 0.91578 0.31958 0.05711 0.0
C240 C 0.95698 0.32869 0.04055 0.0
C241 C 0.96485 0.30246 0.05517 0.0
C242 C 0.94767 0.28366 0.06897 0.0
C243 C 0.9232 0.29198 0.0696 0.0
H244 H 0.93294 0.68043 0.52734 0.0
H245 H 0.94691 0.68619 0.62017 0.0
H246 H 0.97657 0.68283 0.51762 0.0
H247 H 0.99033 0.68935 0.61037 0.0
H248 H 0.04841 0.62158 0.53708 0.0
H249 H 0.00639 0.63855 0.5348 0.0
H250 H 0.02548 0.71983 0.58219 0.0
H251 H 0.0679 0.70318 0.58368 0.0
C252 C 0.94526 0.68327 0.54557 0.0
C253 C 0.93663 0.68279 0.57453 0.0
C254 C 0.97017 0.68461 0.53999 0.0
C255 C 0.98671 0.68627 0.56325 0.0
C256 C 0.97793 0.6884 0.59204 0.0
C257 C 0.95311 0.68636 0.59765 0.0
C258 C 0.04376 0.64357 0.54608 0.0
C259 C 0.06125 0.66106 0.56063 0.0
C260 C 0.01978 0.65335 0.54466 0.0
C261 C 0.01277 0.68044 0.55838 0.0
C262 C 0.03053 0.6989 0.57137 0.0
C263 C 0.05473 0.68945 0.57213 0.0
H264 H 0.92002 0.6868 0.92886 0.0
H265 H 0.9374 0.60189 0.88629 0.0
H266 H 0.96322 0.70085 0.92773 0.0
H267 H 0.97978 0.6161 0.88501 0.0
H268 H 0.04496 0.66378 0.85195 0.0
H269 H 0.00111 0.66136 0.85625 0.0
H270 H 0.00632 0.67587 0.9494 0.0
H271 H 0.05067 0.67826 0.94529 0.0
C272 C 0.93296 0.67115 0.91942 0.0
C273 C 0.92521 0.6433 0.90752 0.0
C274 C 0.95759 0.67918 0.91885 0.0
C275 C 0.97463 0.65969 0.90593 0.0
C276 C 0.96691 0.63171 0.8947 0.0
C277 C 0.94258 0.62355 0.89559 0.0
C278 C 0.03685 0.66704 0.87334 0.0
C279 C 0.05133 0.67058 0.89838 0.0
C280 C 0.01174 0.66571 0.87573 0.0
C281 C 0.00049 0.66797 0.90319 0.0
C282 C 0.01467 0.6741 0.92799 0.0
C283 C 0.03999 0.6754 0.92561 0.0
H284 H 0.05977 0.3644 0.35788 0.0
H285 H 0.06024 0.31627 0.44016 0.0
H286 H 0.01607 0.359 0.35513 0.0
H287 H 0.01596 0.31258 0.43868 0.0
H288 H 0.93546 0.29608 0.41778 0.0
H289 H 0.9798 0.29318 0.41793 0.0
H290 H 0.98329 0.38179 0.37718 0.0
H291 H 0.9396 0.3837 0.37558 0.0
C292 C 0.05038 0.35272 0.37546 0.0
C293 C 0.06321 0.34104 0.39937 0.0
C294 C 0.02529 0.34983 0.37408 0.0
C295 C 0.01227 0.33609 0.39708 0.0
C296 C 0.02531 0.32322 0.42051 0.0
C297 C 0.05063 0.32542 0.42147 0.0
C298 C 0.94586 0.31475 0.40873 0.0
C299 C 0.9341 0.33992 0.39632 0.0
C300 C 0.97124 0.3132 0.40893 0.0
C301 C 0.98527 0.33703 0.39715 0.0
C302 C 0.97327 0.36246 0.38551 0.0
C303 C 0.94811 0.36371 0.38479 0.0
H304 H 0.42017 0.79676 0.05731 0.0
H305 H 0.43739 0.87264 0.11353 0.0
H306 H 0.46306 0.78153 0.05782 0.0
H307 H 0.4795 0.85747 0.11407 0.0
H308 H 0.54754 0.81301 0.13455 0.0
H309 H 0.50348 0.81299 0.1339 0.0
H310 H 0.50432 0.80597 0.03967 0.0
H311 H 0.54876 0.80562 0.04027 0.0
C312 C 0.43301 0.81004 0.06985 0.0
C313 C 0.42538 0.83593 0.08535 0.0
C314 C 0.45747 0.80136 0.07006 0.0
C315 C 0.47449 0.81811 0.08628 0.0
C316 C 0.46673 0.84379 0.10181 0.0
C317 C 0.44257 0.85264 0.10127 0.0
C318 C 0.53837 0.81068 0.11371 0.0
C319 C 0.55158 0.80992 0.08741 0.0
C320 C 0.51315 0.8107 0.11336 0.0
C321 C 0.50055 0.81015 0.0867 0.0
C322 C 0.51363 0.80643 0.06052 0.0
C323 C 0.53904 0.80626 0.06087 0.0
H324 H 0.5489 0.12271 0.53199 0.0
H325 H 0.56715 0.20351 0.5806 0.0
H326 H 0.50655 0.13829 0.5308 0.0
H327 H 0.52437 0.21879 0.58012 0.0
H328 H 0.44659 0.1822 0.61756 0.0
H329 H 0.48978 0.18792 0.6075 0.0
H330 H 0.47583 0.18099 0.51482 0.0
H331 H 0.43239 0.1759 0.52482 0.0
C332 C 0.54388 0.14419 0.5418 0.0
C333 C 0.56116 0.16184 0.55653 0.0
C334 C 0.5197 0.15322 0.54094 0.0
C335 C 0.51225 0.17973 0.55538 0.0
C336 C 0.52974 0.19831 0.56874 0.0
C337 C 0.55414 0.18962 0.56897 0.0
C338 C 0.45266 0.18292 0.59499 0.0
C339 C 0.43623 0.17828 0.57198 0.0
C340 C 0.47735 0.1864 0.58924 0.0
C341 C 0.48608 0.18472 0.5604 0.0
C342 C 0.46947 0.18237 0.53723 0.0
C343 C 0.44467 0.17953 0.54296 0.0
H344 H 0.54678 0.19437 0.91894 0.0
H345 H 0.53926 0.12503 0.8527 0.0
H346 H 0.50271 0.20072 0.91972 0.0
H347 H 0.49589 0.13021 0.85442 0.0
H348 H 0.41974 0.15197 0.84577 0.0
H349 H 0.46322 0.16029 0.84194 0.0
H350 H 0.4667 0.17565 0.9354 0.0
H351 H 0.42267 0.16944 0.93853 0.0
C352 C 0.53577 0.18057 0.90453 0.0
C353 C 0.54658 0.15928 0.8857 0.0
C354 C 0.51052 0.18409 0.90507 0.0
C355 C 0.49562 0.16618 0.88696 0.0
C356 C 0.50663 0.1451 0.86808 0.0
C357 C 0.53167 0.1419 0.86729 0.0
C358 C 0.42982 0.15785 0.86531 0.0
C359 C 0.41811 0.15988 0.89244 0.0
C360 C 0.45475 0.16233 0.86325 0.0
C361 C 0.46868 0.16778 0.8885 0.0
C362 C 0.45663 0.1716 0.91546 0.0
C363 C 0.43145 0.16794 0.91735 0.0
H364 H 0.43244 0.78528 0.41867 0.0
H365 H 0.4359 0.85439 0.35154 0.0
H366 H 0.47667 0.78108 0.41745 0.0
H367 H 0.47941 0.85141 0.35135 0.0
H368 H 0.55615 0.83412 0.34011 0.0
H369 H 0.51291 0.82363 0.33793 0.0
H370 H 0.51214 0.80767 0.43143 0.0
H371 H 0.55597 0.81599 0.43287 0.0
C372 C 0.44259 0.79946 0.40362 0.0
C373 C 0.43061 0.82009 0.38516 0.0
C374 C 0.46794 0.7972 0.40302 0.0
C375 C 0.48176 0.81574 0.38416 0.0
C376 C 0.46956 0.83607 0.36559 0.0
C377 C 0.44442 0.838 0.36589 0.0
C378 C 0.54673 0.8277 0.36002 0.0
C379 C 0.55914 0.8261 0.38667 0.0
C380 C 0.52192 0.82196 0.3589 0.0
C381 C 0.50877 0.81564 0.38465 0.0
C382 C 0.52158 0.81233 0.41113 0.0
C383 C 0.54665 0.81723 0.41205 0.0
H384 H 0.14797 0.37633 0.15814 0.0
H385 H 0.14934 0.27835 0.16257 0.0
H386 H 0.1557 0.37928 0.20996 0.0
H387 H 0.15824 0.28128 0.21504 0.0
H388 H 0.13658 0.30468 0.31204 0.0
H389 H 0.13793 0.29434 0.25956 0.0
H390 H 0.1842 0.37268 0.2471 0.0
H391 H 0.18145 0.38391 0.29915 0.0
C392 C 0.15037 0.35533 0.17015 0.0
C393 C 0.1479 0.32709 0.15631 0.0
C394 C 0.1551 0.35703 0.19996 0.0
C395 C 0.15784 0.33051 0.21676 0.0
C396 C 0.15603 0.30213 0.20278 0.0
C397 C 0.15103 0.30044 0.17277 0.0
C398 C 0.14734 0.31931 0.29803 0.0
C399 C 0.15851 0.34541 0.30934 0.0
C400 C 0.14825 0.31333 0.268 0.0
C401 C 0.16074 0.33307 0.24898 0.0
C402 C 0.17374 0.35758 0.26095 0.0
C403 C 0.17231 0.36395 0.29076 0.0
H404 H 0.79977 0.64935 0.65402 0.0
H405 H 0.85533 0.71694 0.66775 0.0
H406 H 0.79663 0.6415 0.70666 0.0
H407 H 0.85256 0.70859 0.72067 0.0
H408 H 0.83452 0.6884 0.81778 0.0
H409 H 0.82764 0.70749 0.76807 0.0
H410 H 0.82896 0.61556 0.73537 0.0
H411 H 0.8357 0.59654 0.78451 0.0
C412 C 0.81084 0.66311 0.66842 0.0
C413 C 0.82808 0.68333 0.65696 0.0
C414 C 0.80911 0.65853 0.69848 0.0
C415 C 0.82478 0.67388 0.71758 0.0
C416 C 0.84029 0.69644 0.70637 0.0
C417 C 0.84188 0.70122 0.67613 0.0
C418 C 0.83316 0.67231 0.79995 0.0
C419 C 0.83571 0.64095 0.80503 0.0
C420 C 0.82926 0.68326 0.77158 0.0
C421 C 0.82748 0.66299 0.74801 0.0
C422 C 0.82975 0.63169 0.75323 0.0
C423 C 0.83387 0.6208 0.78137 0.0
H424 H 0.18617 0.66173 0.82322 0.0
H425 H 0.12226 0.71812 0.82511 0.0
H426 H 0.18316 0.65827 0.7699 0.0
H427 H 0.11891 0.71385 0.77184 0.0
H428 H 0.10399 0.63725 0.69758 0.0
H429 H 0.11072 0.65742 0.74674 0.0
H430 H 0.17985 0.69357 0.71937 0.0
H431 H 0.17289 0.67416 0.66978 0.0
C432 C 0.17197 0.67415 0.8121 0.0
C433 C 0.15441 0.69008 0.82814 0.0
C434 C 0.17027 0.6722 0.7817 0.0
C435 C 0.15071 0.68563 0.76707 0.0
C436 C 0.13412 0.70335 0.78283 0.0
C437 C 0.13614 0.7059 0.8132 0.0
C438 C 0.12049 0.64979 0.70197 0.0
C439 C 0.13798 0.65403 0.68001 0.0
C440 C 0.12421 0.66155 0.72993 0.0
C441 C 0.14569 0.67717 0.73652 0.0
C442 C 0.16309 0.68177 0.71456 0.0
C443 C 0.1591 0.67064 0.68635 0.0
H444 H 0.84734 0.38526 0.1924 0.0
H445 H 0.82714 0.29354 0.16905 0.0
H446 H 0.84062 0.37346 0.24371 0.0
H447 H 0.82049 0.28174 0.22095 0.0
H448 H 0.8478 0.27503 0.32166 0.0
H449 H 0.84744 0.27934 0.26819 0.0
H450 H 0.80359 0.36009 0.27474 0.0
H451 H 0.80396 0.35598 0.32787 0.0
C452 C 0.8415 0.36255 0.1982 0.0
C453 C 0.83773 0.34036 0.17664 0.0
C454 C 0.83746 0.35588 0.22758 0.0
C455 C 0.82974 0.32682 0.23615 0.0
C456 C 0.82636 0.30434 0.21478 0.0
C457 C 0.83014 0.31114 0.18518 0.0
C458 C 0.83756 0.29321 0.31162 0.0
C459 C 0.82632 0.31553 0.32889 0.0
C460 C 0.83734 0.29563 0.28107 0.0
C461 C 0.8259 0.32039 0.26754 0.0
C462 C 0.81293 0.34112 0.28476 0.0
C463 C 0.8131 0.33869 0.31513 0.0
H464 H 0.63189 0.79805 0.29896 0.0
H465 H 0.68962 0.86398 0.29606 0.0
H466 H 0.64043 0.78381 0.24842 0.0
H467 H 0.69974 0.84825 0.24637 0.0
H468 H 0.67589 0.85792 0.15084 0.0
H469 H 0.68061 0.85978 0.20314 0.0
H470 H 0.66289 0.76421 0.20908 0.0
H471 H 0.65686 0.76289 0.15605 0.0
C472 C 0.64699 0.80864 0.28769 0.0
C473 C 0.65985 0.8324 0.30081 0.0
C474 C 0.65208 0.80035 0.25882 0.0
C475 C 0.67048 0.81534 0.24296 0.0
C476 C 0.68491 0.83695 0.25751 0.0
C477 C 0.67929 0.84586 0.28597 0.0
C478 C 0.67336 0.83712 0.16317 0.0
C479 C 0.66548 0.81042 0.14942 0.0
C480 C 0.67637 0.83806 0.19334 0.0
C481 C 0.67194 0.81218 0.2106 0.0
C482 C 0.66596 0.78474 0.19654 0.0
C483 C 0.66266 0.78389 0.16617 0.0
H484 H 0.34574 0.18857 0.80676 0.0
H485 H 0.29224 0.11759 0.79923 0.0
H486 H 0.34149 0.19986 0.75467 0.0
H487 H 0.28647 0.13016 0.74776 0.0
H488 H 0.31976 0.11787 0.65709 0.0
H489 H 0.31184 0.11791 0.70891 0.0
H490 H 0.32123 0.21542 0.71115 0.0
H491 H 0.3303 0.21507 0.65861 0.0
C492 C 0.33239 0.17624 0.79408 0.0
C493 C 0.31963 0.15189 0.80653 0.0
C494 C 0.32981 0.18278 0.7643 0.0
C495 C 0.31406 0.16539 0.7468 0.0
C496 C 0.29937 0.14329 0.76033 0.0
C497 C 0.3025 0.13619 0.7898 0.0
C498 C 0.31989 0.13944 0.66846 0.0
C499 C 0.32599 0.16642 0.65385 0.0
C500 C 0.315 0.13954 0.69829 0.0
C501 C 0.31578 0.16671 0.71437 0.0
C502 C 0.32073 0.19405 0.69948 0.0
C503 C 0.32583 0.19389 0.66942 0.0
H504 H 0.63662 0.21157 0.81474 0.0
H505 H 0.67854 0.12928 0.82321 0.0
H506 H 0.63664 0.20552 0.76147 0.0
H507 H 0.67869 0.12348 0.77022 0.0
H508 H 0.6335 0.09672 0.68966 0.0
H509 H 0.64175 0.10992 0.74027 0.0
H510 H 0.66196 0.20066 0.71389 0.0
H511 H 0.65371 0.18748 0.66275 0.0
C512 C 0.64646 0.19276 0.8052 0.0
C513 C 0.65716 0.17054 0.82307 0.0
C514 C 0.64647 0.18932 0.77475 0.0
C515 C 0.65721 0.16367 0.76192 0.0
C516 C 0.66985 0.1431 0.77968 0.0
C517 C 0.66983 0.14651 0.80996 0.0
C518 C 0.63971 0.1195 0.69452 0.0
C519 C 0.64296 0.14104 0.67218 0.0
C520 C 0.64465 0.12697 0.7235 0.0
C521 C 0.65279 0.15619 0.73087 0.0
C522 C 0.65577 0.17796 0.70869 0.0
C523 C 0.65107 0.17037 0.67951 0.0
H524 H 0.3262 0.79851 0.16885 0.0
H525 H 0.33099 0.89054 0.20117 0.0
H526 H 0.31638 0.78073 0.2183 0.0
H527 H 0.32141 0.87283 0.2501 0.0
H528 H 0.29137 0.84223 0.33222 0.0
H529 H 0.28853 0.85007 0.27954 0.0
H530 H 0.33987 0.77765 0.26539 0.0
H531 H 0.3423 0.76934 0.31817 0.0
C532 C 0.32495 0.81494 0.1864 0.0
C533 C 0.32952 0.84592 0.18116 0.0
C534 C 0.31935 0.80474 0.21464 0.0
C535 C 0.31793 0.82541 0.23796 0.0
C536 C 0.3219 0.85641 0.23248 0.0
C537 C 0.32767 0.86653 0.20445 0.0
C538 C 0.30146 0.82736 0.31779 0.0
C539 C 0.31743 0.80563 0.3292 0.0
C540 C 0.29991 0.83193 0.28769 0.0
C541 C 0.31445 0.815 0.26849 0.0
C542 C 0.32847 0.79106 0.27971 0.0
C543 C 0.3299 0.78633 0.30993 0.0
H544 H 0.25248 0.1994 0.9111 0.0
H545 H 0.30109 0.2384 0.97495 0.0
H546 H 0.21897 0.2279 0.93197 0.0
H547 H 0.26729 0.26668 -0.00382 0.0
H548 H 0.20368 0.33062 0.01261 0.0
H549 H 0.23744 0.30739 0.98641 0.0
H550 H 0.19633 0.22431 0.97815 0.0
H551 H 0.16248 0.24759 0.00399 0.0
C552 C 0.25605 0.21423 0.92949 0.0
C553 C 0.27938 0.21648 0.94157 0.0
C554 C 0.23681 0.23043 0.94152 0.0
C555 C 0.24045 0.24923 0.96589 0.0
C556 C 0.26398 0.25249 0.97726 0.0
C557 C 0.2833 0.23623 0.9652 0.0
C558 C 0.20177 0.30749 0.00495 0.0
C559 C 0.18045 0.29088 0.01038 0.0
C560 C 0.22116 0.29416 -0.00988 0.0
C561 C 0.21954 0.26405 0.9803 0.0
C562 C 0.198 0.2477 0.98515 0.0
C563 C 0.17865 0.26097 7e-05 0.0
H564 H 0.77518 0.66539 0.51179 0.0
H565 H 0.81596 0.74853 0.501 0.0
H566 H 0.74159 0.68738 0.48455 0.0
H567 H 0.7822 0.77064 0.47408 0.0
H568 H 0.72557 0.79305 0.40662 0.0
H569 H 0.75945 0.76587 0.42819 0.0
H570 H 0.71153 0.72778 0.49354 0.0
H571 H 0.67739 0.75472 0.47163 0.0
C572 C 0.77705 0.68829 0.50341 0.0
C573 C 0.79818 0.70531 0.50862 0.0
C574 C 0.75774 0.70091 0.48797 0.0
C575 C 0.75921 0.73075 0.47734 0.0
C576 C 0.78064 0.74745 0.48177 0.0
C577 C 0.79994 0.73485 0.49727 0.0
C578 C 0.72218 0.77866 0.42543 0.0
C579 C 0.69884 0.77618 0.4376 0.0
C580 C 0.74163 0.76322 0.43785 0.0
C581 C 0.73818 0.74495 0.46269 0.0
C582 C 0.71469 0.74154 0.47424 0.0
C583 C 0.69517 0.75704 0.46179 0.0
H584 H 0.30553 0.75506 0.01513 0.0
H585 H 0.25783 0.79428 0.07991 0.0
H586 H 0.27165 0.72605 -0.0047 0.0
H587 H 0.22411 0.7649 0.06044 0.0
H588 H 0.2099 0.66227 0.97751 0.0
H589 H 0.24271 0.68532 0.00532 0.0
H590 H 0.20022 0.76691 0.01556 0.0
H591 H 0.16718 0.74364 0.98815 0.0
C592 C 0.28792 0.75709 0.02543 0.0
C593 C 0.2843 0.77713 0.04889 0.0
C594 C 0.26852 0.74038 0.01418 0.0
C595 C 0.24516 0.74336 0.02621 0.0
C596 C 0.2418 0.76249 0.05042 0.0
C597 C 0.26116 0.77919 0.06165 0.0
C598 C 0.20741 0.68498 0.98606 0.0
C599 C 0.18602 0.70126 0.98045 0.0
C600 C 0.22628 0.69822 0.00184 0.0
C601 C 0.22417 0.72802 0.01236 0.0
C602 C 0.20233 0.74379 0.00794 0.0
C603 C 0.18342 0.73052 -0.00784 0.0
H604 H 0.73143 0.18632 0.57194 0.0
H605 H 0.68436 0.23938 0.51641 0.0
H606 H 0.76624 0.21569 0.55489 0.0
H607 H 0.71916 0.26843 0.49914 0.0
H608 H 0.78237 0.33022 0.48775 0.0
H609 H 0.75012 0.30491 0.51478 0.0
H610 H 0.7887 0.21996 0.50817 0.0
H611 H 0.82128 0.24544 0.48141 0.0
C612 C 0.72848 0.20444 0.5563 0.0
C613 C 0.70517 0.21048 0.5454 0.0
C614 C 0.74844 0.22112 0.54646 0.0
C615 C 0.74545 0.24429 0.52565 0.0
C616 C 0.72202 0.25096 0.51548 0.0
C617 C 0.70208 0.23421 0.52523 0.0
C618 C 0.78419 0.30623 0.49246 0.0
C619 C 0.80423 0.28971 0.48216 0.0
C620 C 0.76564 0.29173 0.50782 0.0
C621 C 0.7667 0.26039 0.5132 0.0
C622 C 0.78743 0.24419 0.50446 0.0
C623 C 0.80606 0.25874 0.48908 0.0
H624 H 0.70661 0.82514 -0.00197 0.0
H625 H 0.66644 0.74094 -0.00603 0.0
H626 H 0.7399 0.8018 0.97122 0.0
H627 H 0.69988 0.71757 0.96729 0.0
H628 H 0.75777 0.68963 0.90309 0.0
H629 H 0.72349 0.71904 0.92093 0.0
H630 H 0.76976 0.76194 0.98491 0.0
H631 H 0.80421 0.73265 0.96692 0.0
C632 C 0.70472 0.80177 -0.00896 0.0
C633 C 0.68397 0.78477 -0.00169 0.0
C634 C 0.72386 0.7884 0.97584 0.0
C635 C 0.72258 0.75782 0.96744 0.0
C636 C 0.7013 0.74127 0.97333 0.0
C637 C 0.68218 0.75461 0.98868 0.0
C638 C 0.76074 0.70562 0.92073 0.0
C639 C 0.78367 0.70867 0.93379 0.0
C640 C 0.74105 0.72234 0.93099 0.0
C641 C 0.74391 0.74257 0.95442 0.0
C642 C 0.76707 0.74666 0.96663 0.0
C643 C 0.78677 0.72981 0.95644 0.0
H644 H 0.31572 0.23232 0.49467 0.0
H645 H 0.27427 0.15057 0.51042 0.0
H646 H 0.28188 0.2535 0.4673 0.0
H647 H 0.24047 0.17171 0.48276 0.0
H648 H 0.22444 0.27713 0.40315 0.0
H649 H 0.25779 0.24712 0.42237 0.0
H650 H 0.2114 0.21372 0.49157 0.0
H651 H 0.17779 0.24352 0.47208 0.0
C652 C 0.29953 0.21871 0.49192 0.0
C653 C 0.2976 0.18989 0.50483 0.0
C654 C 0.28019 0.23075 0.4761 0.0
C655 C 0.25851 0.21424 0.47296 0.0
C656 C 0.25687 0.18503 0.48508 0.0
C657 C 0.27627 0.17291 0.50079 0.0
C658 C 0.22121 0.26299 0.42219 0.0
C659 C 0.19859 0.26297 0.43638 0.0
C660 C 0.24036 0.24592 0.43324 0.0
C661 C 0.2373 0.22847 0.4587 0.0
C662 C 0.21425 0.22688 0.47182 0.0
C663 C 0.19503 0.24399 0.46073 0.0
H664 H 0.79432 0.24042 0.02098 0.0
H665 H 0.74611 0.29252 0.076 0.0
H666 H 0.7598 0.21261 0.00146 0.0
H667 H 0.71154 0.26439 0.05663 0.0
H668 H 0.69595 0.15368 0.98384 0.0
H669 H 0.72744 0.17651 0.01389 0.0
H670 H 0.69115 0.26312 0.00835 0.0
H671 H 0.65935 0.24014 0.97854 0.0
C672 C 0.7764 0.24557 0.02927 0.0
C673 C 0.77292 0.26878 0.04986 0.0
C674 C 0.75662 0.22953 0.0182 0.0
C675 C 0.73294 0.23642 0.02745 0.0
C676 C 0.72955 0.25884 0.04888 0.0
C677 C 0.74936 0.2748 0.06006 0.0
C678 C 0.69446 0.1775 -0.0106 0.0
C679 C 0.67533 0.19524 0.97853 0.0
C680 C 0.71256 0.19057 0.00652 0.0
C681 C 0.71194 0.22166 0.01314 0.0
C682 C 0.69205 0.23904 0.00374 0.0
C683 C 0.67388 0.22593 0.98658 0.0
H684 H 0.18499 0.73083 0.52014 0.0
H685 H 0.23227 0.67755 0.5752 0.0
H686 H 0.21987 0.75889 0.50162 0.0
H687 H 0.26721 0.70585 0.55674 0.0
H688 H 0.3209 0.73468 0.4808 0.0
H689 H 0.28875 0.70956 0.50865 0.0
H690 H 0.25148 0.79518 0.5176 0.0
H691 H 0.28334 0.82019 0.48962 0.0
C692 C 0.2028 0.72533 0.52851 0.0
C693 C 0.2059 0.70194 0.54903 0.0
C694 C 0.22277 0.74152 0.51805 0.0
C695 C 0.24626 0.73457 0.5278 0.0
C696 C 0.24933 0.71154 0.54872 0.0
C697 C 0.22932 0.69546 0.55934 0.0
C698 C 0.3061 0.74822 0.48925 0.0
C699 C 0.30447 0.7793 0.4827 0.0
C700 C 0.28772 0.73386 0.50524 0.0
C701 C 0.26744 0.75038 0.51488 0.0
C702 C 0.26666 0.7818 0.50994 0.0
C703 C 0.28499 0.79612 0.49404 0.0
H704 H 0.13264 0.58322 0.97682 0.0
H705 H 0.11761 0.52786 0.90085 0.0
H706 H 0.12767 0.53899 0.00821 0.0
H707 H 0.11216 0.48371 0.93243 0.0
H708 H 0.13044 0.40651 -0.00289 0.0
H709 H 0.13513 0.44978 0.9643 0.0
H710 H 0.09512 0.50585 0.02495 0.0
H711 H 0.09083 0.46285 0.05805 0.0
C712 C 0.12827 0.56163 0.9668 0.0
C713 C 0.12548 0.5591 0.93632 0.0
C714 C 0.12524 0.53633 0.98482 0.0
C715 C 0.11933 0.50793 0.97281 0.0
C716 C 0.1169 0.50525 0.94231 0.0
C717 C 0.11995 0.53058 0.92424 0.0
C718 C 0.1225 0.42801 0.00338 0.0
C719 C 0.11037 0.43126 0.03029 0.0
C720 C 0.12512 0.45277 0.98451 0.0
C721 C 0.11566 0.48127 -0.00785 0.0
C722 C 0.10301 0.48431 0.01871 0.0
C723 C 0.10041 0.4596 0.03758 0.0
H724 H 0.85646 0.53147 0.57653 0.0
H725 H 0.86789 0.59015 0.50195 0.0
H726 H 0.85291 0.48795 0.54402 0.0
H727 H 0.86577 0.54655 0.46948 0.0
H728 H 0.83651 0.46945 0.41574 0.0
H729 H 0.8385 0.51207 0.44939 0.0
H730 H 0.87414 0.45503 0.51329 0.0
H731 H 0.8708 0.41201 0.4801 0.0
C732 C 0.85857 0.53495 0.55318 0.0
C733 C 0.86235 0.56416 0.54172 0.0
C734 C 0.85666 0.50999 0.53452 0.0
C735 C 0.85895 0.51364 0.50403 0.0
C736 C 0.8633 0.54289 0.49273 0.0
C737 C 0.86473 0.5679 0.51135 0.0
C738 C 0.84464 0.46604 0.43706 0.0
C739 C 0.85352 0.43747 0.44533 0.0
C740 C 0.84598 0.49053 0.4563 0.0
C741 C 0.85671 0.48718 0.48403 0.0
C742 C 0.86543 0.45843 0.49232 0.0
C743 C 0.86364 0.43377 0.47327 0.0
H744 H 0.80593 0.4382 0.06228 0.0
H745 H 0.83186 0.39811 0.98183 0.0
H746 H 0.80483 0.4878 0.03878 0.0
H747 H 0.83119 0.44794 0.95844 0.0
H748 H 0.83919 0.57391 -0.00144 0.0
H749 H 0.83512 0.52415 0.0215 0.0
H750 H 0.80422 0.48845 0.94177 0.0
H751 H 0.80871 0.53802 0.91864 0.0
C752 C 0.81127 0.43996 0.03951 0.0
C753 C 0.81915 0.41431 0.02393 0.0
C754 C 0.81077 0.46841 0.02613 0.0
C755 C 0.81813 0.47182 -0.00313 0.0
C756 C 0.82522 0.44598 0.98097 0.0
C757 C 0.8257 0.41747 -0.00563 0.0
C758 C 0.83138 0.55549 0.98602 0.0
C759 C 0.8244 0.5598 0.95678 0.0
C760 C 0.82892 0.52703 -0.00081 0.0
C761 C 0.81941 0.50237 0.98338 0.0
C762 C 0.81192 0.50691 0.95435 0.0
C763 C 0.81437 0.53534 0.94119 0.0
H764 H 0.1823 0.43464 0.4351 0.0
H765 H 0.13877 0.39722 0.50517 0.0
H766 H 0.18337 0.48338 0.46011 0.0
H767 H 0.13949 0.44629 0.52999 0.0
H768 H 0.16174 0.53364 0.57696 0.0
H769 H 0.16589 0.48353 0.55474 0.0
H770 H 0.15309 0.52274 0.46941 0.0
H771 H 0.14933 0.57279 0.4915 0.0
C772 C 0.1731 0.43677 0.45596 0.0
C773 C 0.16025 0.4122 0.46806 0.0
C774 C 0.17361 0.46474 0.47019 0.0
C775 C 0.16128 0.46874 0.49681 0.0
C776 C 0.14929 0.44382 0.50956 0.0
C777 C 0.14879 0.41577 0.49531 0.0
C778 C 0.15995 0.53155 0.55344 0.0
C779 C 0.15517 0.55711 0.53595 0.0
C780 C 0.16222 0.50285 0.54076 0.0
C781 C 0.15985 0.49922 0.51036 0.0
C782 C 0.15537 0.52488 0.49287 0.0
C783 C 0.15305 0.55352 0.50553 0.0
H784 H 0.60975 0.01869 0.90499 0.0
H785 H 0.63287 0.07761 0.97526 0.0
H786 H 0.60849 0.97603 0.93882 0.0
H787 H 0.63234 0.0347 0.0089 0.0
H788 H 0.60672 0.95749 0.06741 0.0
H789 H 0.60537 0.00032 0.03368 0.0
H790 H 0.63578 0.94413 0.96541 0.0
H791 H 0.63642 0.90112 -0.00121 0.0
C792 C 0.61468 0.02251 0.92763 0.0
C793 C 0.62146 0.05152 0.93743 0.0
C794 C 0.61407 -0.00199 0.94699 0.0
C795 C 0.6204 0.00193 0.97653 0.0
C796 C 0.62703 0.031 0.98637 0.0
C797 C 0.62746 0.05556 0.96705 0.0
C798 C 0.61304 0.95426 0.04516 0.0
C799 C 0.62167 0.92591 0.03577 0.0
C800 C 0.61239 0.97886 0.02589 0.0
C801 C 0.6205 0.97566 -0.00313 0.0
C802 C 0.62903 0.94725 0.98747 0.0
C803 C 0.62952 0.92262 0.00667 0.0
H804 H 0.35138 0.90015 0.48017 0.0
H805 H 0.36583 0.95882 0.40619 0.0
H806 H 0.35499 0.9435 0.51302 0.0
H807 H 0.37009 0.00183 0.43904 0.0
H808 H 0.34747 0.07672 0.50184 0.0
H809 H 0.34499 0.03311 0.46953 0.0
H810 H 0.38434 0.97916 0.53254 0.0
H811 H 0.38628 0.02271 0.56538 0.0
C812 C 0.35548 0.92224 0.47093 0.0
C813 C 0.35818 0.92607 0.44055 0.0
C814 C 0.3577 0.94703 0.48978 0.0
C815 C 0.36278 0.97612 0.47863 0.0
C816 C 0.36577 0.97982 0.44828 0.0
C817 C 0.36342 0.95512 0.42946 0.0
C818 C 0.3557 0.05562 0.50881 0.0
C819 C 0.36708 0.0532 0.53621 0.0
C820 C 0.35437 0.03063 0.49019 0.0
C821 C 0.3645 0.00267 0.49844 0.0
C822 C 0.37608 0.00029 0.52573 0.0
C823 C 0.37732 0.02529 0.54445 0.0
H824 H 0.31801 0.94934 0.06689 0.0
H825 H 0.34349 0.90884 0.98641 0.0
H826 H 0.31606 -0.00132 0.04287 0.0
H827 H 0.34177 0.9584 0.96246 0.0
H828 H 0.31182 0.04593 0.92256 0.0
H829 H 0.31151 -0.00344 0.94667 0.0
H830 H 0.34514 0.03629 0.02291 0.0
H831 H 0.34523 0.08585 -0.00109 0.0
C832 C 0.32314 0.95096 0.04404 0.0
C833 C 0.33095 0.92524 0.02852 0.0
C834 C 0.32216 0.97925 0.03037 0.0
C835 C 0.32886 0.98239 0.00086 0.0
C836 C 0.3363 0.95658 0.98518 0.0
C837 C 0.33739 0.92826 -0.0011 0.0
C838 C 0.31904 0.04418 0.94453 0.0
C839 C 0.32858 0.06975 0.95886 0.0
C840 C 0.31899 0.01587 0.95824 0.0
C841 C 0.32838 0.01257 0.9866 0.0
C842 C 0.33758 0.03823 0.00112 0.0
C843 C 0.33772 0.06656 0.98736 0.0
H844 H 0.66611 0.0404 0.55677 0.0
H845 H 0.64329 0.0835 0.47638 0.0
H846 H 0.66586 0.99125 0.53248 0.0
H847 H 0.64268 0.03412 0.45217 0.0
H848 H 0.66658 0.94389 0.41202 0.0
H849 H 0.66974 0.9932 0.43583 0.0
H850 H 0.63511 0.95642 0.51305 0.0
H851 H 0.6323 0.90691 0.48941 0.0
C852 C 0.66112 0.03939 0.53387 0.0
C853 C 0.65461 0.06578 0.51849 0.0
C854 C 0.66083 0.0112 0.52003 0.0
C855 C 0.65406 0.00881 0.49051 0.0
C856 C 0.64815 0.0353 0.4749 0.0
C857 C 0.64842 0.06355 0.48877 0.0
C858 C 0.65971 0.9463 0.43412 0.0
C859 C 0.64917 0.92155 0.44887 0.0
C860 C 0.66141 0.97458 0.44767 0.0
C861 C 0.65266 0.97867 0.47627 0.0
C862 C 0.64228 0.95385 0.49111 0.0
C863 C 0.64055 0.92556 0.47753 0.0
loop_
_geom_bond_atom_site_label_1
_geom_bond_atom_site_label_2
_geom_bond_distance
_geom_bond_site_symmetry_2
_ccdc_geom_bond_type
C0 O1 1.306 . S
C0 O3 1.160 . S
O1 C0 1.306 . S
O1 Cd2 2.228 . S
Cd2 O1 2.228 . S
Cd2 O6 2.273 . S
Cd2 O10 2.277 . S
O3 C0 1.160 . S
O3 Cd4 2.203 . S
Cd4 O3 2.203 . S
Cd4 O6 2.411 . S
Cd4 O7 2.333 . S
Cd4 O8 2.352 . S
Cd4 O12 2.277 . S
Cd4 O13 2.356 . S
C5 O10 1.209 . S
C5 O12 1.226 . S
O6 Cd2 2.273 . S
O6 Cd4 2.411 . S
O6 C9 1.320 . S
O7 Cd4 2.333 . S
O7 C9 1.214 . S
O8 Cd4 2.352 . S
O8 C11 1.258 . S
C9 O6 1.320 . S
C9 O7 1.214 . S
O10 Cd2 2.277 . S
O10 C5 1.209 . S
C11 O8 1.258 . S
C11 O13 1.282 . S
O12 Cd4 2.277 . S
O12 C5 1.226 . S
O13 Cd4 2.356 . S
O13 C11 1.282 . S
C14 O15 1.306 . S
C14 O17 1.160 . S
O15 C14 1.306 . S
O15 Cd16 2.228 . S
Cd16 O15 2.228 . S
Cd16 O20 2.273 . S
Cd16 O24 2.277 . S
O17 C14 1.160 . S
O17 Cd18 2.203 . S
Cd18 O17 2.203 . S
Cd18 O20 2.411 . S
Cd18 O21 2.333 . S
Cd18 O22 2.352 . S
Cd18 O26 2.277 . S
Cd18 O27 2.356 . S
C19 O24 1.209 . S
C19 O26 1.226 . S
O20 Cd16 2.273 . S
O20 Cd18 2.411 . S
O20 C23 1.320 . S
O21 Cd18 2.333 . S
O21 C23 1.214 . S
O22 Cd18 2.352 . S
O22 C25 1.258 . S
C23 O20 1.320 . S
C23 O21 1.214 . S
O24 Cd16 2.277 . S
O24 C19 1.209 . S
C25 O22 1.258 . S
C25 O27 1.282 . S
O26 Cd18 2.277 . S
O26 C19 1.226 . S
O27 Cd18 2.356 . S
O27 C25 1.282 . S
C28 O29 1.306 . S
C28 O31 1.160 . S
O29 C28 1.306 . S
O29 Cd30 2.228 . S
Cd30 O29 2.228 . S
Cd30 O34 2.273 . S
Cd30 O38 2.277 . S
O31 C28 1.160 . S
O31 Cd32 2.203 . S
Cd32 O31 2.203 . S
Cd32 O34 2.411 . S
Cd32 O35 2.333 . S
Cd32 O36 2.352 . S
Cd32 O40 2.277 . S
Cd32 O41 2.356 . S
C33 O38 1.209 . S
C33 O40 1.226 . S
O34 Cd30 2.273 . S
O34 Cd32 2.411 . S
O34 C37 1.320 . S
O35 Cd32 2.333 . S
O35 C37 1.214 . S
O36 Cd32 2.352 . S
O36 C39 1.258 . S
C37 O34 1.320 . S
C37 O35 1.214 . S
O38 Cd30 2.277 . S
O38 C33 1.209 . S
C39 O36 1.258 . S
C39 O41 1.282 . S
O40 Cd32 2.277 . S
O40 C33 1.226 . S
O41 Cd32 2.356 . S
O41 C39 1.282 . S
C42 O43 1.306 . S
C42 O45 1.160 . S
O43 C42 1.306 . S
O43 Cd44 2.228 . S
Cd44 O43 2.228 . S
Cd44 O48 2.273 . S
Cd44 O52 2.277 . S
O45 C42 1.160 . S
O45 Cd46 2.203 . S
Cd46 O45 2.203 . S
Cd46 O48 2.411 . S
Cd46 O49 2.333 . S
Cd46 O50 2.352 . S
Cd46 O54 2.277 . S
Cd46 O55 2.356 . S
C47 O52 1.209 . S
C47 O54 1.226 . S
O48 Cd44 2.273 . S
O48 Cd46 2.411 . S
O48 C51 1.320 . S
O49 Cd46 2.333 . S
O49 C51 1.214 . S
O50 Cd46 2.352 . S
O50 C53 1.258 . S
C51 O48 1.320 . S
C51 O49 1.214 . S
O52 Cd44 2.277 . S
O52 C47 1.209 . S
C53 O50 1.258 . S
C53 O55 1.282 . S
O54 Cd46 2.277 . S
O54 C47 1.226 . S
O55 Cd46 2.356 . S
O55 C53 1.282 . S
C56 O57 1.306 . S
C56 O59 1.160 . S
O57 C56 1.306 . S
O57 Cd58 2.228 . S
Cd58 O57 2.228 . S
Cd58 O62 2.273 . S
Cd58 O66 2.277 . S
O59 C56 1.160 . S
O59 Cd60 2.203 . S
Cd60 O59 2.203 . S
Cd60 O62 2.411 . S
Cd60 O63 2.333 . S
Cd60 O64 2.352 . S
Cd60 O68 2.277 . S
Cd60 O69 2.356 . S
C61 O66 1.209 . S
C61 O68 1.226 . S
O62 Cd58 2.273 . S
O62 Cd60 2.411 . S
O62 C65 1.320 . S
O63 Cd60 2.333 . S
O63 C65 1.214 . S
O64 Cd60 2.352 . S
O64 C67 1.258 . S
C65 O62 1.320 . S
C65 O63 1.214 . S
O66 Cd58 2.277 . S
O66 C61 1.209 . S
C67 O64 1.258 . S
C67 O69 1.282 . S
O68 Cd60 2.277 . S
O68 C61 1.226 . S
O69 Cd60 2.356 . S
O69 C67 1.282 . S
C70 O71 1.306 . S
C70 O73 1.160 . S
O71 C70 1.306 . S
O71 Cd72 2.228 . S
Cd72 O71 2.228 . S
Cd72 O76 2.273 . S
Cd72 O80 2.277 . S
O73 C70 1.160 . S
O73 Cd74 2.203 . S
Cd74 O73 2.203 . S
Cd74 O76 2.411 . S
Cd74 O77 2.333 . S
Cd74 O78 2.352 . S
Cd74 O82 2.277 . S
Cd74 O83 2.356 . S
C75 O80 1.209 . S
C75 O82 1.226 . S
O76 Cd72 2.273 . S
O76 Cd74 2.411 . S
O76 C79 1.320 . S
O77 Cd74 2.333 . S
O77 C79 1.214 . S
O78 Cd74 2.352 . S
O78 C81 1.258 . S
C79 O76 1.320 . S
C79 O77 1.214 . S
O80 Cd72 2.277 . S
O80 C75 1.209 . S
C81 O78 1.258 . S
C81 O83 1.282 . S
O82 Cd74 2.277 . S
O82 C75 1.226 . S
O83 Cd74 2.356 . S
O83 C81 1.282 . S
C84 O85 1.306 . S
C84 O87 1.160 . S
O85 C84 1.306 . S
O85 Cd86 2.228 . S
Cd86 O85 2.228 . S
Cd86 O90 2.273 . S
Cd86 O94 2.277 . S
O87 C84 1.160 . S
O87 Cd88 2.203 . S
Cd88 O87 2.203 . S
Cd88 O90 2.411 . S
Cd88 O91 2.333 . S
Cd88 O92 2.352 . S
Cd88 O96 2.277 . S
Cd88 O97 2.356 . S
C89 O94 1.209 . S
C89 O96 1.226 . S
O90 Cd86 2.273 . S
O90 Cd88 2.411 . S
O90 C93 1.320 . S
O91 Cd88 2.333 . S
O91 C93 1.214 . S
O92 Cd88 2.352 . S
O92 C95 1.258 . S
C93 O90 1.320 . S
C93 O91 1.214 . S
O94 Cd86 2.277 . S
O94 C89 1.209 . S
C95 O92 1.258 . S
C95 O97 1.282 . S
O96 Cd88 2.277 . S
O96 C89 1.226 . S
O97 Cd88 2.356 . S
O97 C95 1.282 . S
C98 O99 1.306 . S
C98 O101 1.160 . S
O99 C98 1.306 . S
O99 Cd100 2.228 . S
Cd100 O99 2.228 . S
Cd100 O104 2.273 . S
Cd100 O108 2.277 . S
O101 C98 1.160 . S
O101 Cd102 2.203 . S
Cd102 O101 2.203 . S
Cd102 O104 2.411 . S
Cd102 O105 2.333 . S
Cd102 O106 2.352 . S
Cd102 O110 2.277 . S
Cd102 O111 2.356 . S
C103 O108 1.209 . S
C103 O110 1.226 . S
O104 Cd100 2.273 . S
O104 Cd102 2.411 . S
O104 C107 1.320 . S
O105 Cd102 2.333 . S
O105 C107 1.214 . S
O106 Cd102 2.352 . S
O106 C109 1.258 . S
C107 O104 1.320 . S
C107 O105 1.214 . S
O108 Cd100 2.277 . S
O108 C103 1.209 . S
C109 O106 1.258 . S
C109 O111 1.282 . S
O110 Cd102 2.277 . S
O110 C103 1.226 . S
O111 Cd102 2.356 . S
O111 C109 1.282 . S
C112 O113 1.306 . S
C112 O115 1.160 . S
O113 C112 1.306 . S
O113 Cd114 2.228 . S
Cd114 O113 2.228 . S
Cd114 O118 2.273 . S
Cd114 O122 2.277 . S
O115 C112 1.160 . S
O115 Cd116 2.203 . S
Cd116 O115 2.203 . S
Cd116 O118 2.411 . S
Cd116 O119 2.333 . S
Cd116 O120 2.352 . S
Cd116 O124 2.277 . S
Cd116 O125 2.356 . S
C117 O122 1.209 . S
C117 O124 1.226 . S
O118 Cd114 2.273 . S
O118 Cd116 2.411 . S
O118 C121 1.320 . S
O119 Cd116 2.333 . S
O119 C121 1.214 . S
O120 Cd116 2.352 . S
O120 C123 1.258 . S
C121 O118 1.320 . S
C121 O119 1.214 . S
O122 Cd114 2.277 . S
O122 C117 1.209 . S
C123 O120 1.258 . S
C123 O125 1.282 . S
O124 Cd116 2.277 . S
O124 C117 1.226 . S
O125 Cd116 2.356 . S
O125 C123 1.282 . S
C126 O127 1.306 . S
C126 O129 1.160 . S
O127 C126 1.306 . S
O127 Cd128 2.228 . S
Cd128 O127 2.228 . S
Cd128 O132 2.273 . S
Cd128 O136 2.277 . S
O129 C126 1.160 . S
O129 Cd130 2.203 . S
Cd130 O129 2.203 . S
Cd130 O132 2.411 . S
Cd130 O133 2.333 . S
Cd130 O134 2.352 . S
Cd130 O138 2.277 . S
Cd130 O139 2.356 . S
C131 O136 1.209 . S
C131 O138 1.226 . S
O132 Cd128 2.273 . S
O132 Cd130 2.411 . S
O132 C135 1.320 . S
O133 Cd130 2.333 . S
O133 C135 1.214 . S
O134 Cd130 2.352 . S
O134 C137 1.258 . S
C135 O132 1.320 . S
C135 O133 1.214 . S
O136 Cd128 2.277 . S
O136 C131 1.209 . S
C137 O134 1.258 . S
C137 O139 1.282 . S
O138 Cd130 2.277 . S
O138 C131 1.226 . S
O139 Cd130 2.356 . S
O139 C137 1.282 . S
C140 O141 1.306 . S
C140 O143 1.160 . S
O141 C140 1.306 . S
O141 Cd142 2.228 . S
Cd142 O141 2.228 . S
Cd142 O146 2.273 . S
Cd142 O150 2.277 . S
O143 C140 1.160 . S
O143 Cd144 2.203 . S
Cd144 O143 2.203 . S
Cd144 O146 2.411 . S
Cd144 O147 2.333 . S
Cd144 O148 2.352 . S
Cd144 O152 2.277 . S
Cd144 O153 2.356 . S
C145 O150 1.209 . S
C145 O152 1.226 . S
O146 Cd142 2.273 . S
O146 Cd144 2.411 . S
O146 C149 1.320 . S
O147 Cd144 2.333 . S
O147 C149 1.214 . S
O148 Cd144 2.352 . S
O148 C151 1.258 . S
C149 O146 1.320 . S
C149 O147 1.214 . S
O150 Cd142 2.277 . S
O150 C145 1.209 . S
C151 O148 1.258 . S
C151 O153 1.282 . S
O152 Cd144 2.277 . S
O152 C145 1.226 . S
O153 Cd144 2.356 . S
O153 C151 1.282 . S
C154 O155 1.306 . S
C154 O157 1.160 . S
O155 C154 1.306 . S
O155 Cd156 2.228 . S
Cd156 O155 2.228 . S
Cd156 O160 2.273 . S
Cd156 O164 2.277 . S
O157 C154 1.160 . S
O157 Cd158 2.203 . S
Cd158 O157 2.203 . S
Cd158 O160 2.411 . S
Cd158 O161 2.333 . S
Cd158 O162 2.352 . S
Cd158 O166 2.277 . S
Cd158 O167 2.356 . S
C159 O164 1.209 . S
C159 O166 1.226 . S
O160 Cd156 2.273 . S
O160 Cd158 2.411 . S
O160 C163 1.320 . S
O161 Cd158 2.333 . S
O161 C163 1.214 . S
O162 Cd158 2.352 . S
O162 C165 1.258 . S
C163 O160 1.320 . S
C163 O161 1.214 . S
O164 Cd156 2.277 . S
O164 C159 1.209 . S
C165 O162 1.258 . S
C165 O167 1.282 . S
O166 Cd158 2.277 . S
O166 C159 1.226 . S
O167 Cd158 2.356 . S
O167 C165 1.282 . S
C168 O169 1.306 . S
C168 O171 1.160 . S
O169 C168 1.306 . S
O169 Cd170 2.228 . S
Cd170 O169 2.228 . S
Cd170 O174 2.273 . S
Cd170 O178 2.277 . S
O171 C168 1.160 . S
O171 Cd172 2.203 . S
Cd172 O171 2.203 . S
Cd172 O174 2.411 . S
Cd172 O175 2.333 . S
Cd172 O176 2.352 . S
Cd172 O180 2.277 . S
Cd172 O181 2.356 . S
C173 O178 1.209 . S
C173 O180 1.226 . S
O174 Cd170 2.273 . S
O174 Cd172 2.411 . S
O174 C177 1.320 . S
O175 Cd172 2.333 . S
O175 C177 1.214 . S
O176 Cd172 2.352 . S
O176 C179 1.258 . S
C177 O174 1.320 . S
C177 O175 1.214 . S
O178 Cd170 2.277 . S
O178 C173 1.209 . S
C179 O176 1.258 . S
C179 O181 1.282 . S
O180 Cd172 2.277 . S
O180 C173 1.226 . S
O181 Cd172 2.356 . S
O181 C179 1.282 . S
C182 O183 1.306 . S
C182 O185 1.160 . S
O183 C182 1.306 . S
O183 Cd184 2.228 . S
Cd184 O183 2.228 . S
Cd184 O188 2.273 . S
Cd184 O192 2.277 . S
O185 C182 1.160 . S
O185 Cd186 2.203 . S
Cd186 O185 2.203 . S
Cd186 O188 2.411 . S
Cd186 O189 2.333 . S
Cd186 O190 2.352 . S
Cd186 O194 2.277 . S
Cd186 O195 2.356 . S
C187 O192 1.209 . S
C187 O194 1.226 . S
O188 Cd184 2.273 . S
O188 Cd186 2.411 . S
O188 C191 1.320 . S
O189 Cd186 2.333 . S
O189 C191 1.214 . S
O190 Cd186 2.352 . S
O190 C193 1.258 . S
C191 O188 1.320 . S
C191 O189 1.214 . S
O192 Cd184 2.277 . S
O192 C187 1.209 . S
C193 O190 1.258 . S
C193 O195 1.282 . S
O194 Cd186 2.277 . S
O194 C187 1.226 . S
O195 Cd186 2.356 . S
O195 C193 1.282 . S
C196 O197 1.306 . S
C196 O199 1.160 . S
O197 C196 1.306 . S
O197 Cd198 2.228 . S
Cd198 O197 2.228 . S
Cd198 O202 2.273 . S
Cd198 O206 2.277 . S
O199 C196 1.160 . S
O199 Cd200 2.203 . S
Cd200 O199 2.203 . S
Cd200 O202 2.411 . S
Cd200 O203 2.333 . S
Cd200 O204 2.352 . S
Cd200 O208 2.277 . S
Cd200 O209 2.356 . S
C201 O206 1.209 . S
C201 O208 1.226 . S
O202 Cd198 2.273 . S
O202 Cd200 2.411 . S
O202 C205 1.320 . S
O203 Cd200 2.333 . S
O203 C205 1.214 . S
O204 Cd200 2.352 . S
O204 C207 1.258 . S
C205 O202 1.320 . S
C205 O203 1.214 . S
O206 Cd198 2.277 . S
O206 C201 1.209 . S
C207 O204 1.258 . S
C207 O209 1.282 . S
O208 Cd200 2.277 . S
O208 C201 1.226 . S
O209 Cd200 2.356 . S
O209 C207 1.282 . S
C210 O211 1.306 . S
C210 O213 1.160 . S
O211 C210 1.306 . S
O211 Cd212 2.228 . S
Cd212 O211 2.228 . S
Cd212 O216 2.273 . S
Cd212 O220 2.277 . S
O213 C210 1.160 . S
O213 Cd214 2.203 . S
Cd214 O213 2.203 . S
Cd214 O216 2.411 . S
Cd214 O217 2.333 . S
Cd214 O218 2.352 . S
Cd214 O222 2.277 . S
Cd214 O223 2.356 . S
C215 O220 1.209 . S
C215 O222 1.226 . S
O216 Cd212 2.273 . S
O216 Cd214 2.411 . S
O216 C219 1.320 . S
O217 Cd214 2.333 . S
O217 C219 1.214 . S
O218 Cd214 2.352 . S
O218 C221 1.258 . S
C219 O216 1.320 . S
C219 O217 1.214 . S
O220 Cd212 2.277 . S
O220 C215 1.209 . S
C221 O218 1.258 . S
C221 O223 1.282 . S
O222 Cd214 2.277 . S
O222 C215 1.226 . S
O223 Cd214 2.356 . S
O223 C221 1.282 . S
H224 C232 0.950 . S
H225 C237 0.950 . S
H226 C234 0.950 . S
H227 C236 0.950 . S
H228 C238 0.950 . S
H229 C240 0.950 . S
H230 C242 0.950 . S
H231 C243 0.950 . S
C232 H224 0.950 . S
C232 C233 1.386 . S
C232 C234 1.391 . S
C233 C232 1.386 . S
C233 C237 1.393 . S
C234 H226 0.950 . S
C234 C232 1.391 . S
C234 C235 1.400 . S
C235 C234 1.400 . S
C235 C236 1.398 . S
C235 C241 1.491 1_455 S
C236 H227 0.950 . S
C236 C235 1.398 . S
C236 C237 1.391 . S
C237 H225 0.950 . S
C237 C233 1.393 . S
C237 C236 1.391 . S
C238 H228 0.950 . S
C238 C239 1.386 . S
C238 C240 1.391 . S
C239 C238 1.386 . S
C239 C243 1.393 . S
C240 H229 0.950 . S
C240 C238 1.391 . S
C240 C241 1.400 . S
C241 C235 1.491 1_655 S
C241 C240 1.400 . S
C241 C242 1.398 . S
C242 H230 0.950 . S
C242 C241 1.398 . S
C242 C243 1.391 . S
C243 H231 0.950 . S
C243 C239 1.393 . S
C243 C242 1.391 . S
H244 C252 0.950 . S
H245 C257 0.950 . S
H246 C254 0.950 . S
H247 C256 0.950 . S
H248 C258 0.950 . S
H249 C260 0.950 . S
H250 C262 0.950 . S
H251 C263 0.950 . S
C252 H244 0.950 . S
C252 C253 1.386 . S
C252 C254 1.391 . S
C253 C252 1.386 . S
C253 C257 1.393 . S
C254 H246 0.950 . S
C254 C252 1.391 . S
C254 C255 1.400 . S
C255 C254 1.400 . S
C255 C256 1.398 . S
C255 C261 1.491 1_655 S
C256 H247 0.950 . S
C256 C255 1.398 . S
C256 C257 1.391 . S
C257 H245 0.950 . S
C257 C253 1.393 . S
C257 C256 1.391 . S
C258 H248 0.950 . S
C258 C259 1.386 . S
C258 C260 1.391 . S
C259 C258 1.386 . S
C259 C263 1.393 . S
C260 H249 0.950 . S
C260 C258 1.391 . S
C260 C261 1.400 . S
C261 C255 1.491 1_455 S
C261 C260 1.400 . S
C261 C262 1.398 . S
C262 H250 0.950 . S
C262 C261 1.398 . S
C262 C263 1.391 . S
C263 H251 0.950 . S
C263 C259 1.393 . S
C263 C262 1.391 . S
H264 C272 0.950 . S
H265 C277 0.950 . S
H266 C274 0.950 . S
H267 C276 0.950 . S
H268 C278 0.950 . S
H269 C280 0.950 . S
H270 C282 0.950 . S
H271 C283 0.950 . S
C272 H264 0.950 . S
C272 C273 1.386 . S
C272 C274 1.391 . S
C273 C272 1.386 . S
C273 C277 1.393 . S
C274 H266 0.950 . S
C274 C272 1.391 . S
C274 C275 1.400 . S
C275 C274 1.400 . S
C275 C276 1.398 . S
C275 C281 1.491 1_655 S
C276 H267 0.950 . S
C276 C275 1.398 . S
C276 C277 1.391 . S
C277 H265 0.950 . S
C277 C273 1.393 . S
C277 C276 1.391 . S
C278 H268 0.950 . S
C278 C279 1.386 . S
C278 C280 1.391 . S
C279 C278 1.386 . S
C279 C283 1.393 . S
C280 H269 0.950 . S
C280 C278 1.391 . S
C280 C281 1.400 . S
C281 C275 1.491 1_455 S
C281 C280 1.400 . S
C281 C282 1.398 . S
C282 H270 0.950 . S
C282 C281 1.398 . S
C282 C283 1.391 . S
C283 H271 0.950 . S
C283 C279 1.393 . S
C283 C282 1.391 . S
H284 C292 0.950 . S
H285 C297 0.950 . S
H286 C294 0.950 . S
H287 C296 0.950 . S
H288 C298 0.950 . S
H289 C300 0.950 . S
H290 C302 0.950 . S
H291 C303 0.950 . S
C292 H284 0.950 . S
C292 C293 1.386 . S
C292 C294 1.391 . S
C293 C292 1.386 . S
C293 C297 1.393 . S
C294 H286 0.950 . S
C294 C292 1.391 . S
C294 C295 1.400 . S
C295 C294 1.400 . S
C295 C296 1.398 . S
C295 C301 1.491 1_455 S
C296 H287 0.950 . S
C296 C295 1.398 . S
C296 C297 1.391 . S
C297 H285 0.950 . S
C297 C293 1.393 . S
C297 C296 1.391 . S
C298 H288 0.950 . S
C298 C299 1.386 . S
C298 C300 1.391 . S
C299 C298 1.386 . S
C299 C303 1.393 . S
C300 H289 0.950 . S
C300 C298 1.391 . S
C300 C301 1.400 . S
C301 C295 1.491 1_655 S
C301 C300 1.400 . S
C301 C302 1.398 . S
C302 H290 0.950 . S
C302 C301 1.398 . S
C302 C303 1.391 . S
C303 H291 0.950 . S
C303 C299 1.393 . S
C303 C302 1.391 . S
H304 C312 0.950 . S
H305 C317 0.950 . S
H306 C314 0.950 . S
H307 C316 0.950 . S
H308 C318 0.950 . S
H309 C320 0.950 . S
H310 C322 0.950 . S
H311 C323 0.950 . S
C312 H304 0.950 . S
C312 C313 1.386 . S
C312 C314 1.391 . S
C313 C312 1.386 . S
C313 C317 1.393 . S
C314 H306 0.950 . S
C314 C312 1.391 . S
C314 C315 1.400 . S
C315 C314 1.400 . S
C315 C316 1.398 . S
C315 C321 1.491 . S
C316 H307 0.950 . S
C316 C315 1.398 . S
C316 C317 1.391 . S
C317 H305 0.950 . S
C317 C313 1.393 . S
C317 C316 1.391 . S
C318 H308 0.950 . S
C318 C319 1.386 . S
C318 C320 1.391 . S
C319 C318 1.386 . S
C319 C323 1.393 . S
C320 H309 0.950 . S
C320 C318 1.391 . S
C320 C321 1.400 . S
C321 C315 1.491 . S
C321 C320 1.400 . S
C321 C322 1.398 . S
C322 H310 0.950 . S
C322 C321 1.398 . S
C322 C323 1.391 . S
C323 H311 0.950 . S
C323 C319 1.393 . S
C323 C322 1.391 . S
H324 C332 0.950 . S
H325 C337 0.950 . S
H326 C334 0.950 . S
H327 C336 0.950 . S
H328 C338 0.950 . S
H329 C340 0.950 . S
H330 C342 0.950 . S
H331 C343 0.950 . S
C332 H324 0.950 . S
C332 C333 1.386 . S
C332 C334 1.391 . S
C333 C332 1.386 . S
C333 C337 1.393 . S
C334 H326 0.950 . S
C334 C332 1.391 . S
C334 C335 1.400 . S
C335 C334 1.400 . S
C335 C336 1.398 . S
C335 C341 1.491 . S
C336 H327 0.950 . S
C336 C335 1.398 . S
C336 C337 1.391 . S
C337 H325 0.950 . S
C337 C333 1.393 . S
C337 C336 1.391 . S
C338 H328 0.950 . S
C338 C339 1.386 . S
C338 C340 1.391 . S
C339 C338 1.386 . S
C339 C343 1.393 . S
C340 H329 0.950 . S
C340 C338 1.391 . S
C340 C341 1.400 . S
C341 C335 1.491 . S
C341 C340 1.400 . S
C341 C342 1.398 . S
C342 H330 0.950 . S
C342 C341 1.398 . S
C342 C343 1.391 . S
C343 H331 0.950 . S
C343 C339 1.393 . S
C343 C342 1.391 . S
H344 C352 0.950 . S
H345 C357 0.950 . S
H346 C354 0.950 . S
H347 C356 0.950 . S
H348 C358 0.950 . S
H349 C360 0.950 . S
H350 C362 0.950 . S
H351 C363 0.950 . S
C352 H344 0.950 . S
C352 C353 1.386 . S
C352 C354 1.391 . S
C353 C352 1.386 . S
C353 C357 1.393 . S
C354 H346 0.950 . S
C354 C352 1.391 . S
C354 C355 1.400 . S
C355 C354 1.400 . S
C355 C356 1.398 . S
C355 C361 1.491 . S
C356 H347 0.950 . S
C356 C355 1.398 . S
C356 C357 1.391 . S
C357 H345 0.950 . S
C357 C353 1.393 . S
C357 C356 1.391 . S
C358 H348 0.950 . S
C358 C359 1.386 . S
C358 C360 1.391 . S
C359 C358 1.386 . S
C359 C363 1.393 . S
C360 H349 0.950 . S
C360 C358 1.391 . S
C360 C361 1.400 . S
C361 C355 1.491 . S
C361 C360 1.400 . S
C361 C362 1.398 . S
C362 H350 0.950 . S
C362 C361 1.398 . S
C362 C363 1.391 . S
C363 H351 0.950 . S
C363 C359 1.393 . S
C363 C362 1.391 . S
H364 C372 0.950 . S
H365 C377 0.950 . S
H366 C374 0.950 . S
H367 C376 0.950 . S
H368 C378 0.950 . S
H369 C380 0.950 . S
H370 C382 0.950 . S
H371 C383 0.950 . S
C372 H364 0.950 . S
C372 C373 1.386 . S
C372 C374 1.391 . S
C373 C372 1.386 . S
C373 C377 1.393 . S
C374 H366 0.950 . S
C374 C372 1.391 . S
C374 C375 1.400 . S
C375 C374 1.400 . S
C375 C376 1.398 . S
C375 C381 1.491 . S
C376 H367 0.950 . S
C376 C375 1.398 . S
C376 C377 1.391 . S
C377 H365 0.950 . S
C377 C373 1.393 . S
C377 C376 1.391 . S
C378 H368 0.950 . S
C378 C379 1.386 . S
C378 C380 1.391 . S
C379 C378 1.386 . S
C379 C383 1.393 . S
C380 H369 0.950 . S
C380 C378 1.391 . S
C380 C381 1.400 . S
C381 C375 1.491 . S
C381 C380 1.400 . S
C381 C382 1.398 . S
C382 H370 0.950 . S
C382 C381 1.398 . S
C382 C383 1.391 . S
C383 H371 0.950 . S
C383 C379 1.393 . S
C383 C382 1.391 . S
H384 C392 0.950 . S
H385 C397 0.950 . S
H386 C394 0.950 . S
H387 C396 0.950 . S
H388 C398 0.950 . S
H389 C400 0.950 . S
H390 C402 0.950 . S
H391 C403 0.950 . S
C392 H384 0.950 . S
C392 C393 1.386 . S
C392 C394 1.391 . S
C393 C392 1.386 . S
C393 C397 1.393 . S
C394 H386 0.950 . S
C394 C392 1.391 . S
C394 C395 1.400 . S
C395 C394 1.400 . S
C395 C396 1.398 . S
C395 C401 1.491 . S
C396 H387 0.950 . S
C396 C395 1.398 . S
C396 C397 1.391 . S
C397 H385 0.950 . S
C397 C393 1.393 . S
C397 C396 1.391 . S
C398 H388 0.950 . S
C398 C399 1.386 . S
C398 C400 1.391 . S
C399 C398 1.386 . S
C399 C403 1.393 . S
C400 H389 0.950 . S
C400 C398 1.391 . S
C400 C401 1.400 . S
C401 C395 1.491 . S
C401 C400 1.400 . S
C401 C402 1.398 . S
C402 H390 0.950 . S
C402 C401 1.398 . S
C402 C403 1.391 . S
C403 H391 0.950 . S
C403 C399 1.393 . S
C403 C402 1.391 . S
H404 C412 0.950 . S
H405 C417 0.950 . S
H406 C414 0.950 . S
H407 C416 0.950 . S
H408 C418 0.950 . S
H409 C420 0.950 . S
H410 C422 0.950 . S
H411 C423 0.950 . S
C412 H404 0.950 . S
C412 C413 1.386 . S
C412 C414 1.391 . S
C413 C412 1.386 . S
C413 C417 1.393 . S
C414 H406 0.950 . S
C414 C412 1.391 . S
C414 C415 1.400 . S
C415 C414 1.400 . S
C415 C416 1.398 . S
C415 C421 1.491 . S
C416 H407 0.950 . S
C416 C415 1.398 . S
C416 C417 1.391 . S
C417 H405 0.950 . S
C417 C413 1.393 . S
C417 C416 1.391 . S
C418 H408 0.950 . S
C418 C419 1.386 . S
C418 C420 1.391 . S
C419 C418 1.386 . S
C419 C423 1.393 . S
C420 H409 0.950 . S
C420 C418 1.391 . S
C420 C421 1.400 . S
C421 C415 1.491 . S
C421 C420 1.400 . S
C421 C422 1.398 . S
C422 H410 0.950 . S
C422 C421 1.398 . S
C422 C423 1.391 . S
C423 H411 0.950 . S
C423 C419 1.393 . S
C423 C422 1.391 . S
H424 C432 0.950 . S
H425 C437 0.950 . S
H426 C434 0.950 . S
H427 C436 0.950 . S
H428 C438 0.950 . S
H429 C440 0.950 . S
H430 C442 0.950 . S
H431 C443 0.950 . S
C432 H424 0.950 . S
C432 C433 1.386 . S
C432 C434 1.391 . S
C433 C432 1.386 . S
C433 C437 1.393 . S
C434 H426 0.950 . S
C434 C432 1.391 . S
C434 C435 1.400 . S
C435 C434 1.400 . S
C435 C436 1.398 . S
C435 C441 1.491 . S
C436 H427 0.950 . S
C436 C435 1.398 . S
C436 C437 1.391 . S
C437 H425 0.950 . S
C437 C433 1.393 . S
C437 C436 1.391 . S
C438 H428 0.950 . S
C438 C439 1.386 . S
C438 C440 1.391 . S
C439 C438 1.386 . S
C439 C443 1.393 . S
C440 H429 0.950 . S
C440 C438 1.391 . S
C440 C441 1.400 . S
C441 C435 1.491 . S
C441 C440 1.400 . S
C441 C442 1.398 . S
C442 H430 0.950 . S
C442 C441 1.398 . S
C442 C443 1.391 . S
C443 H431 0.950 . S
C443 C439 1.393 . S
C443 C442 1.391 . S
H444 C452 0.950 . S
H445 C457 0.950 . S
H446 C454 0.950 . S
H447 C456 0.950 . S
H448 C458 0.950 . S
H449 C460 0.950 . S
H450 C462 0.950 . S
H451 C463 0.950 . S
C452 H444 0.950 . S
C452 C453 1.386 . S
C452 C454 1.391 . S
C453 C452 1.386 . S
C453 C457 1.393 . S
C454 H446 0.950 . S
C454 C452 1.391 . S
C454 C455 1.400 . S
C455 C454 1.400 . S
C455 C456 1.398 . S
C455 C461 1.491 . S
C456 H447 0.950 . S
C456 C455 1.398 . S
C456 C457 1.391 . S
C457 H445 0.950 . S
C457 C453 1.393 . S
C457 C456 1.391 . S
C458 H448 0.950 . S
C458 C459 1.386 . S
C458 C460 1.391 . S
C459 C458 1.386 . S
C459 C463 1.393 . S
C460 H449 0.950 . S
C460 C458 1.391 . S
C460 C461 1.400 . S
C461 C455 1.491 . S
C461 C460 1.400 . S
C461 C462 1.398 . S
C462 H450 0.950 . S
C462 C461 1.398 . S
C462 C463 1.391 . S
C463 H451 0.950 . S
C463 C459 1.393 . S
C463 C462 1.391 . S
H464 C472 0.950 . S
H465 C477 0.950 . S
H466 C474 0.950 . S
H467 C476 0.950 . S
H468 C478 0.950 . S
H469 C480 0.950 . S
H470 C482 0.950 . S
H471 C483 0.950 . S
C472 H464 0.950 . S
C472 C473 1.386 . S
C472 C474 1.391 . S
C473 C472 1.386 . S
C473 C477 1.393 . S
C474 H466 0.950 . S
C474 C472 1.391 . S
C474 C475 1.400 . S
C475 C474 1.400 . S
C475 C476 1.398 . S
C475 C481 1.491 . S
C476 H467 0.950 . S
C476 C475 1.398 . S
C476 C477 1.391 . S
C477 H465 0.950 . S
C477 C473 1.393 . S
C477 C476 1.391 . S
C478 H468 0.950 . S
C478 C479 1.386 . S
C478 C480 1.391 . S
C479 C478 1.386 . S
C479 C483 1.393 . S
C480 H469 0.950 . S
C480 C478 1.391 . S
C480 C481 1.400 . S
C481 C475 1.491 . S
C481 C480 1.400 . S
C481 C482 1.398 . S
C482 H470 0.950 . S
C482 C481 1.398 . S
C482 C483 1.391 . S
C483 H471 0.950 . S
C483 C479 1.393 . S
C483 C482 1.391 . S
H484 C492 0.950 . S
H485 C497 0.950 . S
H486 C494 0.950 . S
H487 C496 0.950 . S
H488 C498 0.950 . S
H489 C500 0.950 . S
H490 C502 0.950 . S
H491 C503 0.950 . S
C492 H484 0.950 . S
C492 C493 1.386 . S
C492 C494 1.391 . S
C493 C492 1.386 . S
C493 C497 1.393 . S
C494 H486 0.950 . S
C494 C492 1.391 . S
C494 C495 1.400 . S
C495 C494 1.400 . S
C495 C496 1.398 . S
C495 C501 1.491 . S
C496 H487 0.950 . S
C496 C495 1.398 . S
C496 C497 1.391 . S
C497 H485 0.950 . S
C497 C493 1.393 . S
C497 C496 1.391 . S
C498 H488 0.950 . S
C498 C499 1.386 . S
C498 C500 1.391 . S
C499 C498 1.386 . S
C499 C503 1.393 . S
C500 H489 0.950 . S
C500 C498 1.391 . S
C500 C501 1.400 . S
C501 C495 1.491 . S
C501 C500 1.400 . S
C501 C502 1.398 . S
C502 H490 0.950 . S
C502 C501 1.398 . S
C502 C503 1.391 . S
C503 H491 0.950 . S
C503 C499 1.393 . S
C503 C502 1.391 . S
H504 C512 0.950 . S
H505 C517 0.950 . S
H506 C514 0.950 . S
H507 C516 0.950 . S
H508 C518 0.950 . S
H509 C520 0.950 . S
H510 C522 0.950 . S
H511 C523 0.950 . S
C512 H504 0.950 . S
C512 C513 1.386 . S
C512 C514 1.391 . S
C513 C512 1.386 . S
C513 C517 1.393 . S
C514 H506 0.950 . S
C514 C512 1.391 . S
C514 C515 1.400 . S
C515 C514 1.400 . S
C515 C516 1.398 . S
C515 C521 1.491 . S
C516 H507 0.950 . S
C516 C515 1.398 . S
C516 C517 1.391 . S
C517 H505 0.950 . S
C517 C513 1.393 . S
C517 C516 1.391 . S
C518 H508 0.950 . S
C518 C519 1.386 . S
C518 C520 1.391 . S
C519 C518 1.386 . S
C519 C523 1.393 . S
C520 H509 0.950 . S
C520 C518 1.391 . S
C520 C521 1.400 . S
C521 C515 1.491 . S
C521 C520 1.400 . S
C521 C522 1.398 . S
C522 H510 0.950 . S
C522 C521 1.398 . S
C522 C523 1.391 . S
C523 H511 0.950 . S
C523 C519 1.393 . S
C523 C522 1.391 . S
H524 C532 0.950 . S
H525 C537 0.950 . S
H526 C534 0.950 . S
H527 C536 0.950 . S
H528 C538 0.950 . S
H529 C540 0.950 . S
H530 C542 0.950 . S
H531 C543 0.950 . S
C532 H524 0.950 . S
C532 C533 1.386 . S
C532 C534 1.391 . S
C533 C532 1.386 . S
C533 C537 1.393 . S
C534 H526 0.950 . S
C534 C532 1.391 . S
C534 C535 1.400 . S
C535 C534 1.400 . S
C535 C536 1.398 . S
C535 C541 1.491 . S
C536 H527 0.950 . S
C536 C535 1.398 . S
C536 C537 1.391 . S
C537 H525 0.950 . S
C537 C533 1.393 . S
C537 C536 1.391 . S
C538 H528 0.950 . S
C538 C539 1.386 . S
C538 C540 1.391 . S
C539 C538 1.386 . S
C539 C543 1.393 . S
C540 H529 0.950 . S
C540 C538 1.391 . S
C540 C541 1.400 . S
C541 C535 1.491 . S
C541 C540 1.400 . S
C541 C542 1.398 . S
C542 H530 0.950 . S
C542 C541 1.398 . S
C542 C543 1.391 . S
C543 H531 0.950 . S
C543 C539 1.393 . S
C543 C542 1.391 . S
H544 C552 0.950 . S
H545 C557 0.950 . S
H546 C554 0.942 1_554 S
H547 C556 0.950 . S
H548 C558 0.950 . S
H549 C560 0.944 1_556 S
H550 C562 0.950 . S
H551 C563 0.950 . S
C552 H544 0.950 . S
C552 C553 1.386 . S
C552 C554 1.391 . S
C553 C552 1.386 . S
C553 C557 1.393 . S
C554 H546 0.942 1_556 S
C554 C552 1.391 . S
C554 C555 1.400 . S
C555 C554 1.400 . S
C555 C556 1.398 . S
C555 C561 1.491 1_556 S
C556 H547 0.950 . S
C556 C555 1.398 . S
C556 C557 1.391 . S
C557 H545 0.950 . S
C557 C553 1.393 . S
C557 C556 1.391 . S
C558 H548 0.950 . S
C558 C559 1.386 . S
C558 C560 1.391 . S
C559 C558 1.386 . S
C559 C563 1.393 . S
C560 H549 0.944 1_554 S
C560 C558 1.391 . S
C560 C561 1.400 . S
C561 C555 1.491 1_554 S
C561 C560 1.400 . S
C561 C562 1.398 . S
C562 H550 0.950 . S
C562 C561 1.398 . S
C562 C563 1.391 . S
C563 H551 0.950 . S
C563 C559 1.393 . S
C563 C562 1.391 . S
H564 C572 0.950 . S
H565 C577 0.950 . S
H566 C574 0.950 . S
H567 C576 0.950 . S
H568 C578 0.950 . S
H569 C580 0.950 . S
H570 C582 0.950 . S
H571 C583 0.950 . S
C572 H564 0.950 . S
C572 C573 1.386 . S
C572 C574 1.391 . S
C573 C572 1.386 . S
C573 C577 1.393 . S
C574 H566 0.950 . S
C574 C572 1.391 . S
C574 C575 1.400 . S
C575 C574 1.400 . S
C575 C576 1.398 . S
C575 C581 1.491 . S
C576 H567 0.950 . S
C576 C575 1.398 . S
C576 C577 1.391 . S
C577 H565 0.950 . S
C577 C573 1.393 . S
C577 C576 1.391 . S
C578 H568 0.950 . S
C578 C579 1.386 . S
C578 C580 1.391 . S
C579 C578 1.386 . S
C579 C583 1.393 . S
C580 H569 0.950 . S
C580 C578 1.391 . S
C580 C581 1.400 . S
C581 C575 1.491 . S
C581 C580 1.400 . S
C581 C582 1.398 . S
C582 H570 0.950 . S
C582 C581 1.398 . S
C582 C583 1.391 . S
C583 H571 0.950 . S
C583 C579 1.393 . S
C583 C582 1.391 . S
H584 C592 0.950 . S
H585 C597 0.950 . S
H586 C594 0.952 1_556 S
H587 C596 0.950 . S
H588 C598 0.950 . S
H589 C600 0.948 1_554 S
H590 C602 0.950 . S
H591 C603 0.950 . S
C592 H584 0.950 . S
C592 C593 1.386 . S
C592 C594 1.390 . S
C593 C592 1.386 . S
C593 C597 1.393 . S
C594 H586 0.952 1_554 S
C594 C592 1.390 . S
C594 C595 1.399 . S
C595 C594 1.399 . S
C595 C596 1.398 . S
C595 C601 1.491 1_554 S
C596 H587 0.950 . S
C596 C595 1.398 . S
C596 C597 1.391 . S
C597 H585 0.950 . S
C597 C593 1.393 . S
C597 C596 1.391 . S
C598 H588 0.950 . S
C598 C599 1.386 . S
C598 C600 1.392 . S
C599 C598 1.386 . S
C599 C603 1.393 . S
C600 H589 0.948 1_556 S
C600 C598 1.392 . S
C600 C601 1.401 . S
C601 C595 1.491 1_556 S
C601 C600 1.401 . S
C601 C602 1.398 . S
C602 H590 0.950 . S
C602 C601 1.398 . S
C602 C603 1.391 . S
C603 H591 0.950 . S
C603 C599 1.393 . S
C603 C602 1.391 . S
H604 C612 0.950 . S
H605 C617 0.950 . S
H606 C614 0.950 . S
H607 C616 0.950 . S
H608 C618 0.950 . S
H609 C620 0.950 . S
H610 C622 0.950 . S
H611 C623 0.950 . S
C612 H604 0.950 . S
C612 C613 1.386 . S
C612 C614 1.391 . S
C613 C612 1.386 . S
C613 C617 1.393 . S
C614 H606 0.950 . S
C614 C612 1.391 . S
C614 C615 1.400 . S
C615 C614 1.400 . S
C615 C616 1.398 . S
C615 C621 1.491 . S
C616 H607 0.950 . S
C616 C615 1.398 . S
C616 C617 1.391 . S
C617 H605 0.950 . S
C617 C613 1.393 . S
C617 C616 1.391 . S
C618 H608 0.950 . S
C618 C619 1.386 . S
C618 C620 1.391 . S
C619 C618 1.386 . S
C619 C623 1.393 . S
C620 H609 0.950 . S
C620 C618 1.391 . S
C620 C621 1.400 . S
C621 C615 1.491 . S
C621 C620 1.400 . S
C621 C622 1.398 . S
C622 H610 0.950 . S
C622 C621 1.398 . S
C622 C623 1.391 . S
C623 H611 0.950 . S
C623 C619 1.393 . S
C623 C622 1.391 . S
H624 C632 0.950 . S
H625 C637 0.950 . S
H626 C634 0.950 . S
H627 C636 0.950 . S
H628 C638 0.950 . S
H629 C640 0.950 . S
H630 C642 0.950 . S
H631 C643 0.950 . S
C632 H624 0.950 . S
C632 C633 1.386 . S
C632 C634 1.391 . S
C633 C632 1.386 . S
C633 C637 1.393 . S
C634 H626 0.950 . S
C634 C632 1.391 . S
C634 C635 1.400 . S
C635 C634 1.400 . S
C635 C636 1.398 1_554 S
C635 C641 1.491 1_554 S
C636 H627 0.950 . S
C636 C635 1.398 1_556 S
C636 C637 1.391 1_556 S
C637 H625 0.950 . S
C637 C633 1.393 . S
C637 C636 1.391 1_554 S
C638 H628 0.950 . S
C638 C639 1.386 . S
C638 C640 1.391 . S
C639 C638 1.386 . S
C639 C643 1.393 . S
C640 H629 0.950 . S
C640 C638 1.391 . S
C640 C641 1.400 . S
C641 C635 1.491 1_556 S
C641 C640 1.400 . S
C641 C642 1.398 1_556 S
C642 H630 0.950 . S
C642 C641 1.398 1_554 S
C642 C643 1.391 1_554 S
C643 H631 0.950 . S
C643 C639 1.393 . S
C643 C642 1.391 1_556 S
H644 C652 0.950 . S
H645 C657 0.950 . S
H646 C654 0.950 . S
H647 C656 0.950 . S
H648 C658 0.950 . S
H649 C660 0.950 . S
H650 C662 0.950 . S
H651 C663 0.950 . S
C652 H644 0.950 . S
C652 C653 1.386 . S
C652 C654 1.391 . S
C653 C652 1.386 . S
C653 C657 1.393 . S
C654 H646 0.950 . S
C654 C652 1.391 . S
C654 C655 1.400 . S
C655 C654 1.400 . S
C655 C656 1.398 . S
C655 C661 1.491 . S
C656 H647 0.950 . S
C656 C655 1.398 . S
C656 C657 1.391 . S
C657 H645 0.950 . S
C657 C653 1.393 . S
C657 C656 1.391 . S
C658 H648 0.950 . S
C658 C659 1.386 . S
C658 C660 1.391 . S
C659 C658 1.386 . S
C659 C663 1.393 . S
C660 H649 0.950 . S
C660 C658 1.391 . S
C660 C661 1.400 . S
C661 C655 1.491 . S
C661 C660 1.400 . S
C661 C662 1.398 . S
C662 H650 0.950 . S
C662 C661 1.398 . S
C662 C663 1.391 . S
C663 H651 0.950 . S
C663 C659 1.393 . S
C663 C662 1.391 . S
H664 C672 0.950 . S
H665 C677 0.950 . S
H666 C674 0.981 . S
H667 C676 0.950 . S
H668 C678 0.950 . S
H669 C680 0.977 . S
H670 C682 0.950 . S
H671 C683 0.950 . S
C672 H664 0.950 . S
C672 C673 1.386 . S
C672 C674 1.372 1_554 S
C673 C672 1.386 . S
C673 C677 1.393 . S
C674 H666 0.981 . S
C674 C672 1.372 1_556 S
C674 C675 1.390 1_556 S
C675 C674 1.390 1_554 S
C675 C676 1.398 . S
C675 C681 1.491 1_554 S
C676 H667 0.950 . S
C676 C675 1.398 . S
C676 C677 1.391 . S
C677 H665 0.950 . S
C677 C673 1.393 . S
C677 C676 1.391 . S
C678 H668 0.950 . S
C678 C679 1.386 . S
C678 C680 1.375 1_556 S
C679 C678 1.386 . S
C679 C683 1.393 . S
C680 H669 0.977 . S
C680 C678 1.375 1_554 S
C680 C681 1.391 1_554 S
C681 C675 1.491 1_556 S
C681 C680 1.391 1_556 S
C681 C682 1.398 . S
C682 H670 0.950 . S
C682 C681 1.398 . S
C682 C683 1.391 . S
C683 H671 0.950 . S
C683 C679 1.393 . S
C683 C682 1.391 . S
H684 C692 0.950 . S
H685 C697 0.950 . S
H686 C694 0.950 . S
H687 C696 0.950 . S
H688 C698 0.950 . S
H689 C700 0.950 . S
H690 C702 0.950 . S
H691 C703 0.950 . S
C692 H684 0.950 . S
C692 C693 1.386 . S
C692 C694 1.391 . S
C693 C692 1.386 . S
C693 C697 1.393 . S
C694 H686 0.950 . S
C694 C692 1.391 . S
C694 C695 1.400 . S
C695 C694 1.400 . S
C695 C696 1.398 . S
C695 C701 1.491 . S
C696 H687 0.950 . S
C696 C695 1.398 . S
C696 C697 1.391 . S
C697 H685 0.950 . S
C697 C693 1.393 . S
C697 C696 1.391 . S
C698 H688 0.950 . S
C698 C699 1.386 . S
C698 C700 1.391 . S
C699 C698 1.386 . S
C699 C703 1.393 . S
C700 H689 0.950 . S
C700 C698 1.391 . S
C700 C701 1.400 . S
C701 C695 1.491 . S
C701 C700 1.400 . S
C701 C702 1.398 . S
C702 H690 0.950 . S
C702 C701 1.398 . S
C702 C703 1.391 . S
C703 H691 0.950 . S
C703 C699 1.393 . S
C703 C702 1.391 . S
H704 C712 0.950 1_554 S
H705 C717 0.950 . S
H706 C714 0.950 . S
H707 C716 0.950 . S
H708 C718 0.950 1_556 S
H709 C720 0.950 . S
H710 C722 0.950 . S
H711 C723 0.950 . S
C712 H704 0.950 1_556 S
C712 C713 1.386 . S
C712 C714 1.391 1_556 S
C713 C712 1.386 . S
C713 C717 1.393 . S
C714 H706 0.950 . S
C714 C712 1.391 1_554 S
C714 C715 1.400 1_554 S
C715 C714 1.400 1_556 S
C715 C716 1.398 . S
C715 C721 1.491 1_556 S
C716 H707 0.950 . S
C716 C715 1.398 . S
C716 C717 1.391 . S
C717 H705 0.950 . S
C717 C713 1.393 . S
C717 C716 1.391 . S
C718 H708 0.950 1_554 S
C718 C719 1.386 . S
C718 C720 1.391 1_554 S
C719 C718 1.386 . S
C719 C723 1.393 . S
C720 H709 0.950 . S
C720 C718 1.391 1_556 S
C720 C721 1.400 1_556 S
C721 C715 1.491 1_554 S
C721 C720 1.400 1_554 S
C721 C722 1.398 . S
C722 H710 0.950 . S
C722 C721 1.398 . S
C722 C723 1.391 . S
C723 H711 0.950 . S
C723 C719 1.393 . S
C723 C722 1.391 . S
H724 C732 0.950 . S
H725 C737 0.950 . S
H726 C734 0.950 . S
H727 C736 0.950 . S
H728 C738 0.950 . S
H729 C740 0.950 . S
H730 C742 0.950 . S
H731 C743 0.950 . S
C732 H724 0.950 . S
C732 C733 1.386 . S
C732 C734 1.391 . S
C733 C732 1.386 . S
C733 C737 1.393 . S
C734 H726 0.950 . S
C734 C732 1.391 . S
C734 C735 1.400 . S
C735 C734 1.400 . S
C735 C736 1.398 . S
C735 C741 1.491 . S
C736 H727 0.950 . S
C736 C735 1.398 . S
C736 C737 1.391 . S
C737 H725 0.950 . S
C737 C733 1.393 . S
C737 C736 1.391 . S
C738 H728 0.950 . S
C738 C739 1.386 . S
C738 C740 1.391 . S
C739 C738 1.386 . S
C739 C743 1.393 . S
C740 H729 0.950 . S
C740 C738 1.391 . S
C740 C741 1.400 . S
C741 C735 1.491 . S
C741 C740 1.400 . S
C741 C742 1.398 . S
C742 H730 0.950 . S
C742 C741 1.398 . S
C742 C743 1.391 . S
C743 H731 0.950 . S
C743 C739 1.393 . S
C743 C742 1.391 . S
H744 C752 0.950 . S
H745 C757 0.950 . S
H746 C754 0.950 . S
H747 C756 0.950 . S
H748 C758 0.950 . S
H749 C760 0.950 . S
H750 C762 0.950 . S
H751 C763 0.950 . S
C752 H744 0.950 . S
C752 C753 1.386 . S
C752 C754 1.391 . S
C753 C752 1.386 . S
C753 C757 1.393 . S
C754 H746 0.950 . S
C754 C752 1.391 . S
C754 C755 1.400 . S
C755 C754 1.400 . S
C755 C756 1.398 . S
C755 C761 1.491 1_554 S
C756 H747 0.950 . S
C756 C755 1.398 . S
C756 C757 1.391 . S
C757 H745 0.950 . S
C757 C753 1.393 . S
C757 C756 1.391 . S
C758 H748 0.950 . S
C758 C759 1.386 . S
C758 C760 1.391 . S
C759 C758 1.386 . S
C759 C763 1.393 . S
C760 H749 0.950 . S
C760 C758 1.391 . S
C760 C761 1.400 . S
C761 C755 1.491 1_556 S
C761 C760 1.400 . S
C761 C762 1.398 . S
C762 H750 0.950 . S
C762 C761 1.398 . S
C762 C763 1.391 . S
C763 H751 0.950 . S
C763 C759 1.393 . S
C763 C762 1.391 . S
H764 C772 0.950 . S
H765 C777 0.950 . S
H766 C774 0.950 . S
H767 C776 0.950 . S
H768 C778 0.950 . S
H769 C780 0.950 . S
H770 C782 0.950 . S
H771 C783 0.950 . S
C772 H764 0.950 . S
C772 C773 1.386 . S
C772 C774 1.391 . S
C773 C772 1.386 . S
C773 C777 1.393 . S
C774 H766 0.950 . S
C774 C772 1.391 . S
C774 C775 1.400 . S
C775 C774 1.400 . S
C775 C776 1.398 . S
C775 C781 1.491 . S
C776 H767 0.950 . S
C776 C775 1.398 . S
C776 C777 1.391 . S
C777 H765 0.950 . S
C777 C773 1.393 . S
C777 C776 1.391 . S
C778 H768 0.950 . S
C778 C779 1.386 . S
C778 C780 1.391 . S
C779 C778 1.386 . S
C779 C783 1.393 . S
C780 H769 0.950 . S
C780 C778 1.391 . S
C780 C781 1.400 . S
C781 C775 1.491 . S
C781 C780 1.400 . S
C781 C782 1.398 . S
C782 H770 0.950 . S
C782 C781 1.398 . S
C782 C783 1.391 . S
C783 H771 0.950 . S
C783 C779 1.393 . S
C783 C782 1.391 . S
H784 C792 0.950 . S
H785 C797 0.940 1_554 S
H786 C794 0.950 . S
H787 C796 0.950 . S
H788 C798 0.950 . S
H789 C800 0.950 . S
H790 C802 0.950 . S
H791 C803 0.940 1_556 S
C792 H784 0.950 . S
C792 C793 1.386 . S
C792 C794 1.391 . S
C793 C792 1.386 . S
C793 C797 1.393 . S
C794 H786 0.950 . S
C794 C792 1.391 . S
C794 C795 1.400 . S
C795 C794 1.400 . S
C795 C796 1.398 1_556 S
C795 C801 1.491 1_546 S
C796 H787 0.950 . S
C796 C795 1.398 1_554 S
C796 C797 1.391 1_554 S
C797 H785 0.940 1_556 S
C797 C793 1.393 . S
C797 C796 1.391 1_556 S
C798 H788 0.950 . S
C798 C799 1.386 . S
C798 C800 1.391 . S
C799 C798 1.386 . S
C799 C803 1.393 . S
C800 H789 0.950 . S
C800 C798 1.391 . S
C800 C801 1.400 . S
C801 C795 1.491 1_564 S
C801 C800 1.400 . S
C801 C802 1.398 1_554 S
C802 H790 0.950 . S
C802 C801 1.398 1_556 S
C802 C803 1.391 1_556 S
C803 H791 0.940 1_554 S
C803 C799 1.393 . S
C803 C802 1.391 1_554 S
H804 C812 0.950 . S
H805 C817 0.950 . S
H806 C814 0.950 . S
H807 C816 0.950 . S
H808 C818 0.950 . S
H809 C820 0.950 . S
H810 C822 0.950 . S
H811 C823 0.950 . S
C812 H804 0.950 . S
C812 C813 1.386 . S
C812 C814 1.391 . S
C813 C812 1.386 . S
C813 C817 1.393 . S
C814 H806 0.950 . S
C814 C812 1.391 . S
C814 C815 1.400 . S
C815 C814 1.400 . S
C815 C816 1.398 . S
C815 C821 1.491 1_565 S
C816 H807 0.950 . S
C816 C815 1.398 . S
C816 C817 1.391 . S
C817 H805 0.950 . S
C817 C813 1.393 . S
C817 C816 1.391 . S
C818 H808 0.950 . S
C818 C819 1.386 . S
C818 C820 1.391 . S
C819 C818 1.386 . S
C819 C823 1.393 . S
C820 H809 0.950 . S
C820 C818 1.391 . S
C820 C821 1.400 . S
C821 C815 1.491 1_545 S
C821 C820 1.400 . S
C821 C822 1.398 . S
C822 H810 0.950 . S
C822 C821 1.398 . S
C822 C823 1.391 . S
C823 H811 0.950 . S
C823 C819 1.393 . S
C823 C822 1.391 . S
H824 C832 0.950 . S
H825 C837 0.950 . S
H826 C834 0.950 . S
H827 C836 0.950 . S
H828 C838 0.950 . S
H829 C840 0.950 . S
H830 C842 0.950 . S
H831 C843 0.950 . S
C832 H824 0.950 . S
C832 C833 1.386 . S
C832 C834 1.391 . S
C833 C832 1.386 . S
C833 C837 1.393 . S
C834 H826 0.950 . S
C834 C832 1.391 . S
C834 C835 1.400 . S
C835 C834 1.400 . S
C835 C836 1.398 1_554 S
C835 C841 1.491 1_564 S
C836 H827 0.950 . S
C836 C835 1.398 1_556 S
C836 C837 1.391 1_556 S
C837 H825 0.950 . S
C837 C833 1.393 . S
C837 C836 1.391 1_554 S
C838 H828 0.950 . S
C838 C839 1.386 . S
C838 C840 1.391 . S
C839 C838 1.386 . S
C839 C843 1.393 . S
C840 H829 0.950 . S
C840 C838 1.391 . S
C840 C841 1.400 . S
C841 C835 1.491 1_546 S
C841 C840 1.400 . S
C841 C842 1.398 1_556 S
C842 H830 0.950 . S
C842 C841 1.398 1_554 S
C842 C843 1.391 1_554 S
C843 H831 0.950 . S
C843 C839 1.393 . S
C843 C842 1.391 1_556 S
H844 C852 0.950 . S
H845 C857 0.950 . S
H846 C854 0.950 . S
H847 C856 0.950 . S
H848 C858 0.950 . S
H849 C860 0.950 . S
H850 C862 0.950 . S
H851 C863 0.950 . S
C852 H844 0.950 . S
C852 C853 1.386 . S
C852 C854 1.391 . S
C853 C852 1.386 . S
C853 C857 1.393 . S
C854 H846 0.950 . S
C854 C852 1.391 . S
C854 C855 1.400 . S
C855 C854 1.400 . S
C855 C856 1.398 . S
C855 C861 1.491 1_545 S
C856 H847 0.950 . S
C856 C855 1.398 . S
C856 C857 1.391 . S
C857 H845 0.950 . S
C857 C853 1.393 . S
C857 C856 1.391 . S
C858 H848 0.950 . S
C858 C859 1.386 . S
C858 C860 1.391 . S
C859 C858 1.386 . S
C859 C863 1.393 . S
C860 H849 0.950 . S
C860 C858 1.391 . S
C860 C861 1.400 . S
C861 C855 1.491 1_565 S
C861 C860 1.400 . S
C861 C862 1.398 . S
C862 H850 0.950 . S
C862 C861 1.398 . S
C862 C863 1.391 . S
C863 H851 0.950 . S
C863 C859 1.393 . S
C863 C862 1.391 . S
C233 C5 1.441 . S
C239 C89 1.449 . S
C253 C19 1.448 . S
C259 C103 1.443 . S
C273 C61 1.443 . S
C279 C33 1.447 . S
C293 C75 1.448 . S
C299 C47 1.443 . S
C313 C201 1.444 . S
C319 C117 1.447 . S
C333 C215 1.442 . S
C339 C131 1.448 . S
C353 C145 1.446 . S
C359 C173 1.445 . S
C373 C159 1.445 . S
C379 C187 1.445 . S
C393 C9 1.485 . S
C399 C70 1.469 . S
C413 C23 1.487 . S
C419 C56 1.467 . S
C433 C37 1.486 . S
C439 C98 1.470 . S
C453 C84 1.466 . S
C459 C51 1.485 . S
C473 C182 1.454 . S
C479 C121 1.488 . S
C493 C168 1.455 . S
C499 C135 1.488 . S
C513 C149 1.487 . S
C519 C210 1.457 . S
C533 C196 1.459 . S
C539 C163 1.487 . S
C553 C179 1.390 . S
C559 C11 1.398 . S
C573 C25 1.402 . S
C579 C193 1.398 . S
C593 C207 1.392 . S
C599 C39 1.398 . S
C613 C221 1.391 . S
C619 C53 1.399 . S
C633 C123 1.401 . S
C639 C67 1.397 . S
C653 C137 1.399 . S
C659 C81 1.393 . S
C673 C95 1.392 . S
C679 C151 1.398 . S
C693 C109 1.402 . S
C699 C165 1.405 . S
C713 C28 1.443 . S
C719 C0 1.452 . S
C733 C14 1.451 . S
C739 C42 1.441 . S
C753 C93 1.501 . S
C759 C65 1.502 . S
C773 C79 1.501 . S
C779 C107 1.503 . S
C793 C140 1.454 . S
C799 C112 1.448 . S
C813 C154 1.437 . S
C819 C126 1.445 . S
C833 C205 1.501 . S
C839 C177 1.502 . S
C853 C219 1.500 . S
C859 C191 1.502 . S
