# Generated by pormake.
# Topology umk, (4)-cn, num edge types: 1
# Building blocks:
#     Node 0, Type 0, BuildingBlock: KUFVIS_clean_sbu_0, # of connection points: 4
#     Node 1, Type 0, BuildingBlock: KUFVIS_clean_sbu_0, # of connection points: 4
#     Node 2, Type 0, BuildingBlock: KUFVIS_clean_sbu_0, # of connection points: 4
#     Node 3, Type 0, BuildingBlock: KUFVIS_clean_sbu_0, # of connection points: 4
#     Node 4, Type 0, BuildingBlock: KUFVIS_clean_sbu_0, # of connection points: 4
#     Node 5, Type 0, BuildingBlock: KUFVIS_clean_sbu_0, # of connection points: 4
#     Node 6, Type 0, BuildingBlock: KUFVIS_clean_sbu_0, # of connection points: 4
#     Node 7, Type 0, BuildingBlock: KUFVIS_clean_sbu_0, # of connection points: 4
#     Node 8, Type 0, BuildingBlock: KUFVIS_clean_sbu_0, # of connection points: 4
#     Node 9, Type 0, BuildingBlock: KUFVIS_clean_sbu_0, # of connection points: 4
#     Node 10, Type 0, BuildingBlock: KUFVIS_clean_sbu_0, # of connection points: 4
#     Node 11, Type 0, BuildingBlock: KUFVIS_clean_sbu_0, # of connection points: 4
#     Node 12, Type 0, BuildingBlock: KUFVIS_clean_sbu_0, # of connection points: 4
#     Node 13, Type 0, BuildingBlock: KUFVIS_clean_sbu_0, # of connection points: 4
#     Node 14, Type 0, BuildingBlock: KUFVIS_clean_sbu_0, # of connection points: 4
#     Node 15, Type 0, BuildingBlock: KUFVIS_clean_sbu_0, # of connection points: 4
#     Node 16, Type 0, BuildingBlock: KUFVIS_clean_sbu_0, # of connection points: 4
#     Node 17, Type 0, BuildingBlock: KUFVIS_clean_sbu_0, # of connection points: 4
#     Node 18, Type 0, BuildingBlock: KUFVIS_clean_sbu_0, # of connection points: 4
#     Node 19, Type 0, BuildingBlock: KUFVIS_clean_sbu_0, # of connection points: 4
#     Node 20, Type 0, BuildingBlock: KUFVIS_clean_sbu_0, # of connection points: 4
#     Node 21, Type 0, BuildingBlock: KUFVIS_clean_sbu_0, # of connection points: 4
#     Node 22, Type 0, BuildingBlock: KUFVIS_clean_sbu_0, # of connection points: 4
#     Node 23, Type 0, BuildingBlock: KUFVIS_clean_sbu_0, # of connection points: 4
#     Edge 24, Type (0, 0), BuildingBlock: ZUJKAS_clean_linker_0, # of connection points: 2
#     Edge 25, Type (0, 0), BuildingBlock: ZUJKAS_clean_linker_0, # of connection points: 2
#     Edge 26, Type (0, 0), BuildingBlock: ZUJKAS_clean_linker_0, # of connection points: 2
#     Edge 27, Type (0, 0), BuildingBlock: ZUJKAS_clean_linker_0, # of connection points: 2
#     Edge 28, Type (0, 0), BuildingBlock: ZUJKAS_clean_linker_0, # of connection points: 2
#     Edge 29, Type (0, 0), BuildingBlock: ZUJKAS_clean_linker_0, # of connection points: 2
#     Edge 30, Type (0, 0), BuildingBlock: ZUJKAS_clean_linker_0, # of connection points: 2
#     Edge 31, Type (0, 0), BuildingBlock: ZUJKAS_clean_linker_0, # of connection points: 2
#     Edge 32, Type (0, 0), BuildingBlock: ZUJKAS_clean_linker_0, # of connection points: 2
#     Edge 33, Type (0, 0), BuildingBlock: ZUJKAS_clean_linker_0, # of connection points: 2
#     Edge 34, Type (0, 0), BuildingBlock: ZUJKAS_clean_linker_0, # of connection points: 2
#     Edge 35, Type (0, 0), BuildingBlock: ZUJKAS_clean_linker_0, # of connection points: 2
#     Edge 36, Type (0, 0), BuildingBlock: ZUJKAS_clean_linker_0, # of connection points: 2
#     Edge 37, Type (0, 0), BuildingBlock: ZUJKAS_clean_linker_0, # of connection points: 2
#     Edge 38, Type (0, 0), BuildingBlock: ZUJKAS_clean_linker_0, # of connection points: 2
#     Edge 39, Type (0, 0), BuildingBlock: ZUJKAS_clean_linker_0, # of connection points: 2
#     Edge 40, Type (0, 0), BuildingBlock: ZUJKAS_clean_linker_0, # of connection points: 2
#     Edge 41, Type (0, 0), BuildingBlock: ZUJKAS_clean_linker_0, # of connection points: 2
#     Edge 42, Type (0, 0), BuildingBlock: ZUJKAS_clean_linker_0, # of connection points: 2
#     Edge 43, Type (0, 0), BuildingBlock: ZUJKAS_clean_linker_0, # of connection points: 2
#     Edge 44, Type (0, 0), BuildingBlock: ZUJKAS_clean_linker_0, # of connection points: 2
#     Edge 45, Type (0, 0), BuildingBlock: ZUJKAS_clean_linker_0, # of connection points: 2
#     Edge 46, Type (0, 0), BuildingBlock: ZUJKAS_clean_linker_0, # of connection points: 2
#     Edge 47, Type (0, 0), BuildingBlock: ZUJKAS_clean_linker_0, # of connection points: 2
#     Edge 48, Type (0, 0), BuildingBlock: ZUJKAS_clean_linker_0, # of connection points: 2
#     Edge 49, Type (0, 0), BuildingBlock: ZUJKAS_clean_linker_0, # of connection points: 2
#     Edge 50, Type (0, 0), BuildingBlock: ZUJKAS_clean_linker_0, # of connection points: 2
#     Edge 51, Type (0, 0), BuildingBlock: ZUJKAS_clean_linker_0, # of connection points: 2
#     Edge 52, Type (0, 0), BuildingBlock: ZUJKAS_clean_linker_0, # of connection points: 2
#     Edge 53, Type (0, 0), BuildingBlock: ZUJKAS_clean_linker_0, # of connection points: 2
#     Edge 54, Type (0, 0), BuildingBlock: ZUJKAS_clean_linker_0, # of connection points: 2
#     Edge 55, Type (0, 0), BuildingBlock: ZUJKAS_clean_linker_0, # of connection points: 2
#     Edge 56, Type (0, 0), BuildingBlock: ZUJKAS_clean_linker_0, # of connection points: 2
#     Edge 57, Type (0, 0), BuildingBlock: ZUJKAS_clean_linker_0, # of connection points: 2
#     Edge 58, Type (0, 0), BuildingBlock: ZUJKAS_clean_linker_0, # of connection points: 2
#     Edge 59, Type (0, 0), BuildingBlock: ZUJKAS_clean_linker_0, # of connection points: 2
#     Edge 60, Type (0, 0), BuildingBlock: ZUJKAS_clean_linker_0, # of connection points: 2
#     Edge 61, Type (0, 0), BuildingBlock: ZUJKAS_clean_linker_0, # of connection points: 2
#     Edge 62, Type (0, 0), BuildingBlock: ZUJKAS_clean_linker_0, # of connection points: 2
#     Edge 63, Type (0, 0), BuildingBlock: ZUJKAS_clean_linker_0, # of connection points: 2
#     Edge 64, Type (0, 0), BuildingBlock: ZUJKAS_clean_linker_0, # of connection points: 2
#     Edge 65, Type (0, 0), BuildingBlock: ZUJKAS_clean_linker_0, # of connection points: 2
#     Edge 66, Type (0, 0), BuildingBlock: ZUJKAS_clean_linker_0, # of connection points: 2
#     Edge 67, Type (0, 0), BuildingBlock: ZUJKAS_clean_linker_0, # of connection points: 2
#     Edge 68, Type (0, 0), BuildingBlock: ZUJKAS_clean_linker_0, # of connection points: 2
#     Edge 69, Type (0, 0), BuildingBlock: ZUJKAS_clean_linker_0, # of connection points: 2
#     Edge 70, Type (0, 0), BuildingBlock: ZUJKAS_clean_linker_0, # of connection points: 2
#     Edge 71, Type (0, 0), BuildingBlock: ZUJKAS_clean_linker_0, # of connection points: 2
# Relax obj value: 0.072
# Max RMSD: 0.061
# Mean RMSD: 0.061
data_MOF--net-umk--node1-KUFVIS_clean_sbu_0--edge1-ZUJKAS_clean_linker_0
_symmetry_space_group_name_H-M    P1
_symmetry_Int_Tables_number       1
_symmetry_cell_setting            triclinic
loop_
_symmetry_equiv_pos_as_xyz
'x, y, z'
_cell_length_a     85.833115
_cell_length_b     85.817629
_cell_length_c     55.483041
_cell_angle_alpha  90.01594
_cell_angle_beta   89.973596
_cell_angle_gamma 120.0057
loop_
_atom_site_label
_atom_site_type_symbol
_atom_site_fract_x
_atom_site_fract_y
_atom_site_fract_z
_atom_type_partial_charge
Mn0 Mn 0.33848 0.47106 0.07789 0.0
Mn1 Mn 0.37756 0.49633 0.10771 0.0
C2 C 0.36317 0.49352 0.05767 0.0
C3 C 0.31023 0.46592 0.06567 0.0
C4 C 0.36431 0.45779 0.09171 0.0
O5 O 0.33094 0.46623 0.11335 0.0
O6 O 0.3572 0.48604 0.13087 0.0
C7 C 0.37173 0.52566 0.12501 0.0
N8 N 0.3819 0.5202 0.11272 0.0
C9 C 0.40458 0.55081 0.10433 0.0
C10 C 0.39441 0.55678 0.11705 0.0
C11 C 0.37789 0.54414 0.12735 0.0
C12 C 0.39777 0.53223 0.10263 0.0
H13 H 0.35903 0.51598 0.13293 0.0
C14 C 0.34037 0.47442 0.13186 0.0
O15 O 0.31383 0.45293 0.06674 0.0
O16 O 0.32282 0.48171 0.07247 0.0
N17 N 0.39844 0.50728 0.08753 0.0
C18 C 0.40599 0.49929 0.07449 0.0
C19 C 0.42235 0.51004 0.06247 0.0
C20 C 0.43085 0.52886 0.06414 0.0
C21 C 0.42284 0.53679 0.07768 0.0
C22 C 0.4066 0.52538 0.08943 0.0
H23 H 0.39959 0.48482 0.07328 0.0
O24 O 0.35014 0.48048 0.04584 0.0
O25 O 0.3613 0.49315 0.08095 0.0
O26 O 0.35034 0.45542 0.08042 0.0
O27 O 0.37475 0.47224 0.10314 0.0
C28 C 0.43016 0.55554 0.07961 0.0
C29 C 0.42101 0.56255 0.09287 0.0
H30 H 0.39908 0.57101 0.11882 0.0
H31 H 0.36993 0.54864 0.13708 0.0
H32 H 0.42842 0.50383 0.05198 0.0
H33 H 0.44348 0.53711 0.05486 0.0
H34 H 0.44266 0.56469 0.0706 0.0
H35 H 0.42662 0.57698 0.09387 0.0
Mn36 Mn 0.8683 0.3366 0.58287 0.0
Mn37 Mn 0.88218 0.37217 0.62031 0.0
C38 C 0.87294 0.36401 0.56804 0.0
C39 C 0.84504 0.31012 0.56597 0.0
C40 C 0.90717 0.35984 0.59999 0.0
O41 O 0.86396 0.32507 0.61639 0.0
O42 O 0.87082 0.34948 0.63895 0.0
C43 C 0.84629 0.36479 0.63672 0.0
N44 N 0.86273 0.37627 0.62715 0.0
C45 C 0.85659 0.40069 0.62732 0.0
C46 C 0.83969 0.38924 0.63758 0.0
C47 C 0.83444 0.37115 0.64204 0.0
C48 C 0.86765 0.39349 0.62196 0.0
H49 H 0.84226 0.35091 0.64019 0.0
C50 C 0.86498 0.33263 0.63662 0.0
O51 O 0.86142 0.31309 0.56711 0.0
O52 O 0.84213 0.32237 0.57506 0.0
N53 N 0.89341 0.39533 0.60534 0.0
C54 C 0.90977 0.40433 0.59432 0.0
C55 C 0.91685 0.42249 0.58806 0.0
C56 C 0.90727 0.43131 0.59377 0.0
C57 C 0.89051 0.4218 0.60527 0.0
C58 C 0.88402 0.40367 0.61071 0.0
H59 H 0.91744 0.39776 0.59052 0.0
O60 O 0.87245 0.35188 0.55361 0.0
O61 O 0.87006 0.35955 0.59066 0.0
O62 O 0.89553 0.34721 0.58675 0.0
O63 O 0.90333 0.36936 0.61386 0.0
C64 C 0.88002 0.4296 0.61169 0.0
C65 C 0.86294 0.41899 0.6223 0.0
H66 H 0.83061 0.39415 0.64194 0.0
H67 H 0.82136 0.36217 0.64974 0.0
H68 H 0.92979 0.42975 0.5792 0.0
H69 H 0.9129 0.44539 0.58921 0.0
H70 H 0.88485 0.44371 0.60822 0.0
H71 H 0.85483 0.42504 0.6266 0.0
Mn72 Mn 0.536 0.86838 0.08158 0.0
Mn73 Mn 0.51511 0.88309 0.11921 0.0
C74 C 0.5124 0.87185 0.06766 0.0
C75 C 0.53924 0.84512 0.06481 0.0
C76 C 0.55096 0.90806 0.09574 0.0
O77 O 0.54424 0.86487 0.11471 0.0
O78 O 0.52953 0.875 0.13766 0.0
C79 C 0.49019 0.84788 0.14143 0.0
N80 N 0.49296 0.86291 0.12948 0.0
C81 C 0.46148 0.85351 0.13112 0.0
C82 C 0.45826 0.83794 0.14352 0.0
C83 C 0.47267 0.83506 0.14855 0.0
C84 C 0.47916 0.86563 0.12408 0.0
H85 H 0.50127 0.84573 0.14555 0.0
C86 C 0.54006 0.8686 0.13511 0.0
O87 O 0.55244 0.86163 0.06504 0.0
O88 O 0.52431 0.84208 0.0748 0.0
N89 N 0.50059 0.89154 0.10452 0.0
C90 C 0.50601 0.90722 0.09236 0.0
C91 C 0.49329 0.91226 0.08617 0.0
C92 C 0.47524 0.90135 0.09306 0.0
C93 C 0.46999 0.88532 0.1057 0.0
C94 C 0.48325 0.88094 0.11122 0.0
H95 H 0.51996 0.91588 0.08757 0.0
O96 O 0.5239 0.87152 0.0528 0.0
O97 O 0.51471 0.86968 0.09034 0.0
O98 O 0.55245 0.89592 0.08432 0.0
O99 O 0.53751 0.90464 0.10913 0.0
C100 C 0.45218 0.87359 0.11327 0.0
C101 C 0.44787 0.85758 0.12566 0.0
H102 H 0.4448 0.82811 0.14927 0.0
H103 H 0.4703 0.82306 0.15809 0.0
H104 H 0.49743 0.92465 0.07645 0.0
H105 H 0.46554 0.90546 0.08859 0.0
H106 H 0.44165 0.87671 0.10953 0.0
H107 H 0.43409 0.84856 0.13108 0.0
Mn108 Mn 0.67261 0.53579 0.57523 0.0
Mn109 Mn 0.63349 0.51204 0.60565 0.0
C110 C 0.64736 0.51342 0.55568 0.0
C111 C 0.70041 0.5394 0.56305 0.0
C112 C 0.64771 0.55046 0.58816 0.0
O113 O 0.68041 0.54109 0.61062 0.0
O114 O 0.65397 0.52221 0.62853 0.0
C115 C 0.63833 0.48233 0.62396 0.0
N116 N 0.62841 0.48802 0.61153 0.0
C117 C 0.60493 0.45754 0.60433 0.0
C118 C 0.61482 0.45135 0.61724 0.0
C119 C 0.63162 0.46381 0.62701 0.0
C120 C 0.61229 0.47615 0.60191 0.0
H121 H 0.65126 0.49187 0.63144 0.0
C122 C 0.67091 0.53339 0.6293 0.0
O123 O 0.69758 0.55292 0.56359 0.0
O124 O 0.68735 0.52404 0.57035 0.0
N125 N 0.61244 0.50126 0.58579 0.0
C126 C 0.60518 0.5094 0.57249 0.0
C127 C 0.58857 0.49882 0.56095 0.0
C128 C 0.57953 0.48001 0.56339 0.0
C129 C 0.58725 0.47194 0.57717 0.0
C130 C 0.60376 0.48318 0.58842 0.0
H131 H 0.61198 0.52385 0.57071 0.0
O132 O 0.66055 0.52594 0.54343 0.0
O133 O 0.64939 0.51424 0.57893 0.0
O134 O 0.66156 0.55227 0.57701 0.0
O135 O 0.63708 0.53634 0.60007 0.0
C136 C 0.57938 0.45316 0.57984 0.0
C137 C 0.58824 0.44596 0.59335 0.0
H138 H 0.60972 0.43707 0.61955 0.0
H139 H 0.63938 0.45913 0.63686 0.0
H140 H 0.58272 0.50515 0.55028 0.0
H141 H 0.5667 0.47191 0.55452 0.0
H142 H 0.56666 0.44413 0.57124 0.0
H143 H 0.5822 0.4315 0.59492 0.0
Mn144 Mn 0.13969 0.67135 0.07816 0.0
Mn145 Mn 0.12313 0.63322 0.11137 0.0
C146 C 0.13634 0.64523 0.06084 0.0
C147 C 0.16396 0.69851 0.06452 0.0
C148 C 0.09958 0.64669 0.08991 0.0
O149 O 0.14238 0.6808 0.11263 0.0
O150 O 0.13142 0.65452 0.13253 0.0
C151 C 0.15726 0.64056 0.13435 0.0
N152 N 0.14233 0.62951 0.12127 0.0
C153 C 0.15045 0.60645 0.12002 0.0
C154 C 0.16588 0.61754 0.1336 0.0
C155 C 0.16933 0.6347 0.14071 0.0
C156 C 0.13893 0.61303 0.11422 0.0
H157 H 0.15991 0.65373 0.13989 0.0
C158 C 0.13812 0.6716 0.13204 0.0
O159 O 0.14766 0.6958 0.0646 0.0
O160 O 0.16619 0.68567 0.07299 0.0
N161 N 0.11439 0.61123 0.09387 0.0
C162 C 0.09946 0.60265 0.07974 0.0
C163 C 0.0942 0.58538 0.07089 0.0
C164 C 0.10426 0.57709 0.07677 0.0
C165 C 0.11954 0.58616 0.0914 0.0
C166 C 0.12398 0.60324 0.09996 0.0
H167 H 0.09158 0.6089 0.07538 0.0
O168 O 0.1372 0.65807 0.04757 0.0
O169 O 0.13763 0.64803 0.08404 0.0
O170 O 0.11215 0.66077 0.07976 0.0
O171 O 0.10238 0.63564 0.10191 0.0
C172 C 0.1307 0.57907 0.09748 0.0
C173 C 0.1462 0.58925 0.11168 0.0
H174 H 0.17524 0.61308 0.1385 0.0
H175 H 0.18124 0.64337 0.15111 0.0
H176 H 0.08239 0.57846 0.05959 0.0
H177 H 0.10022 0.56381 0.0698 0.0
H178 H 0.12765 0.56593 0.09101 0.0
H179 H 0.15484 0.58378 0.11592 0.0
Mn180 Mn 0.47139 0.13589 0.57824 0.0
Mn181 Mn 0.49514 0.12189 0.61121 0.0
C182 C 0.49376 0.1322 0.56016 0.0
C183 C 0.46758 0.15941 0.56376 0.0
C184 C 0.45679 0.09695 0.59415 0.0
O185 O 0.46588 0.13962 0.61306 0.0
O186 O 0.48492 0.13303 0.63256 0.0
C187 C 0.5247 0.15735 0.62723 0.0
N188 N 0.5191 0.14121 0.61624 0.0
C189 C 0.5496 0.14791 0.61037 0.0
C190 C 0.55571 0.16451 0.6219 0.0
C191 C 0.5432 0.1693 0.6302 0.0
C192 C 0.53102 0.13664 0.60772 0.0
H193 H 0.51512 0.16105 0.63364 0.0
C194 C 0.4736 0.13863 0.63223 0.0
O195 O 0.45415 0.14305 0.56513 0.0
O196 O 0.483 0.16214 0.57149 0.0
N197 N 0.50601 0.11091 0.59294 0.0
C198 C 0.49794 0.09485 0.58108 0.0
C199 C 0.50861 0.0884 0.57085 0.0
C200 C 0.5274 0.09833 0.57336 0.0
C201 C 0.53537 0.11467 0.58598 0.0
C202 C 0.52407 0.12052 0.59555 0.0
H203 H 0.48349 0.08703 0.57939 0.0
O204 O 0.48134 0.13249 0.54719 0.0
O205 O 0.49292 0.13441 0.58316 0.0
O206 O 0.45506 0.10852 0.58175 0.0
O207 O 0.47085 0.10087 0.60652 0.0
C208 C 0.55407 0.12541 0.5894 0.0
C209 C 0.56121 0.14213 0.60131 0.0
H210 H 0.56997 0.17374 0.62431 0.0
H211 H 0.54781 0.18215 0.63896 0.0
H212 H 0.50235 0.07575 0.56119 0.0
H213 H 0.53558 0.09329 0.56549 0.0
H214 H 0.56312 0.12109 0.58255 0.0
H215 H 0.57565 0.15046 0.60331 0.0
Mn216 Mn 0.53669 0.67092 0.92705 0.0
Mn217 Mn 0.51461 0.6327 0.89413 0.0
C218 C 0.51362 0.64507 0.94454 0.0
C219 C 0.54025 0.69836 0.94059 0.0
C220 C 0.55135 0.64547 0.91605 0.0
O221 O 0.54369 0.68021 0.89255 0.0
O222 O 0.52812 0.65387 0.87289 0.0
C223 C 0.48852 0.64084 0.87068 0.0
N224 N 0.49197 0.62955 0.88392 0.0
C225 C 0.46057 0.60708 0.88505 0.0
C226 C 0.45667 0.61842 0.87129 0.0
C227 C 0.47071 0.6354 0.86416 0.0
C228 C 0.47856 0.61325 0.89102 0.0
H229 H 0.49929 0.65388 0.86512 0.0
C230 C 0.53871 0.67091 0.87322 0.0
O231 O 0.55355 0.69521 0.94063 0.0
O232 O 0.52508 0.68581 0.93196 0.0
N233 N 0.50085 0.61079 0.91162 0.0
C234 C 0.50682 0.60185 0.9257 0.0
C235 C 0.49448 0.58466 0.93444 0.0
C236 C 0.47616 0.57682 0.92854 0.0
C237 C 0.47035 0.58622 0.91389 0.0
C238 C 0.48331 0.60319 0.9054 0.0
H239 H 0.52091 0.60774 0.93009 0.0
O240 O 0.52572 0.6579 0.9577 0.0
O241 O 0.51512 0.64775 0.9213 0.0
O242 O 0.55318 0.6598 0.92579 0.0
O243 O 0.53745 0.63454 0.90403 0.0
C244 C 0.45218 0.57955 0.90767 0.0
C245 C 0.44728 0.59002 0.89336 0.0
H246 H 0.44295 0.61428 0.86625 0.0
H247 H 0.4678 0.64425 0.85363 0.0
H248 H 0.49908 0.57746 0.94568 0.0
H249 H 0.46665 0.56361 0.93548 0.0
H250 H 0.44185 0.56651 0.91409 0.0
H251 H 0.43325 0.58487 0.889 0.0
Mn252 Mn 0.87087 0.53376 0.42523 0.0
Mn253 Mn 0.88399 0.51121 0.3882 0.0
C254 C 0.87517 0.51087 0.44047 0.0
C255 C 0.84785 0.53738 0.44224 0.0
C256 C 0.90957 0.54867 0.40766 0.0
O257 O 0.86639 0.54067 0.39158 0.0
O258 O 0.87288 0.5227 0.36937 0.0
C259 C 0.84782 0.48298 0.37226 0.0
N260 N 0.86423 0.48775 0.38177 0.0
C261 C 0.85759 0.45702 0.38195 0.0
C262 C 0.84071 0.45177 0.37179 0.0
C263 C 0.83573 0.46479 0.36717 0.0
C264 C 0.86889 0.47528 0.38709 0.0
H265 H 0.84401 0.49298 0.36863 0.0
C266 C 0.86724 0.53388 0.37147 0.0
O267 O 0.86426 0.5507 0.4408 0.0
O268 O 0.84477 0.52212 0.43335 0.0
N269 N 0.89492 0.49908 0.40338 0.0
C270 C 0.91129 0.50629 0.41432 0.0
C271 C 0.91811 0.49502 0.42073 0.0
C272 C 0.90828 0.47658 0.41523 0.0
C273 C 0.89151 0.4695 0.4038 0.0
C274 C 0.88527 0.48132 0.39823 0.0
H275 H 0.91915 0.52053 0.41794 0.0
O276 O 0.87503 0.52281 0.45468 0.0
O277 O 0.87219 0.51228 0.41784 0.0
O278 O 0.89816 0.55012 0.42086 0.0
O279 O 0.90541 0.53504 0.39421 0.0
C280 C 0.88078 0.4512 0.39758 0.0
C281 C 0.86369 0.4449 0.38708 0.0
H282 H 0.83144 0.43778 0.36759 0.0
H283 H 0.82267 0.46083 0.35953 0.0
H284 H 0.93106 0.50058 0.42953 0.0
H285 H 0.91371 0.46799 0.41989 0.0
H286 H 0.88541 0.44177 0.40114 0.0
H287 H 0.85539 0.43072 0.38295 0.0
Mn288 Mn 0.33986 0.86819 0.92568 0.0
Mn289 Mn 0.37581 0.88245 0.88883 0.0
C290 C 0.36676 0.87161 0.9404 0.0
C291 C 0.31314 0.84506 0.94222 0.0
C292 C 0.36501 0.90777 0.91144 0.0
O293 O 0.32846 0.86451 0.89229 0.0
O294 O 0.35351 0.87438 0.86994 0.0
C295 C 0.36549 0.84707 0.86712 0.0
N296 N 0.37772 0.86214 0.87904 0.0
C297 C 0.39977 0.85269 0.87782 0.0
C298 C 0.38744 0.83708 0.86547 0.0
C299 C 0.37018 0.8342 0.86025 0.0
C300 C 0.39419 0.86484 0.88465 0.0
H301 H 0.35229 0.84494 0.86282 0.0
C302 C 0.33656 0.86807 0.87204 0.0
O303 O 0.31645 0.86156 0.94156 0.0
O304 O 0.32516 0.84195 0.93278 0.0
N305 N 0.39864 0.89085 0.90391 0.0
C306 C 0.40888 0.90658 0.91598 0.0
C307 C 0.42662 0.91163 0.92231 0.0
C308 C 0.43377 0.9007 0.91562 0.0
C309 C 0.42301 0.88461 0.90308 0.0
C310 C 0.40539 0.88021 0.89745 0.0
H311 H 0.4036 0.91528 0.92058 0.0
O312 O 0.35481 0.87146 0.95487 0.0
O313 O 0.3625 0.86929 0.91765 0.0
O314 O 0.35112 0.89575 0.92258 0.0
O315 O 0.37507 0.90413 0.89845 0.0
C316 C 0.42911 0.87285 0.89571 0.0
C317 C 0.41742 0.85678 0.88342 0.0
H318 H 0.39109 0.82722 0.85989 0.0
H319 H 0.36058 0.82218 0.85074 0.0
H320 H 0.43485 0.92406 0.93197 0.0
H321 H 0.44757 0.90481 0.9202 0.0
H322 H 0.44275 0.87598 0.89954 0.0
H323 H 0.42221 0.84774 0.87815 0.0
Mn324 Mn 0.47208 0.33541 0.42897 0.0
Mn325 Mn 0.49529 0.37364 0.39647 0.0
C326 C 0.49461 0.36125 0.4474 0.0
C327 C 0.46838 0.30789 0.44246 0.0
C328 C 0.45722 0.35992 0.41495 0.0
O329 O 0.46621 0.32651 0.39405 0.0
O330 O 0.48463 0.35245 0.37481 0.0
C331 C 0.52449 0.36791 0.37832 0.0
N332 N 0.51912 0.37845 0.3898 0.0
C333 C 0.5497 0.40253 0.39393 0.0
C334 C 0.55556 0.39203 0.38185 0.0
C335 C 0.5429 0.3746 0.37413 0.0
C336 C 0.53119 0.39514 0.39755 0.0
H337 H 0.51479 0.35449 0.37248 0.0
C338 C 0.47353 0.3355 0.3749 0.0
O339 O 0.45496 0.31086 0.4417 0.0
O340 O 0.48376 0.32069 0.43472 0.0
N341 N 0.50661 0.39545 0.41475 0.0
C342 C 0.49885 0.40323 0.42778 0.0
C343 C 0.50969 0.42056 0.43729 0.0
C344 C 0.52834 0.42974 0.43317 0.0
C345 C 0.53603 0.4214 0.4199 0.0
C346 C 0.52454 0.40423 0.41057 0.0
H347 H 0.4845 0.39634 0.43073 0.0
O348 O 0.48222 0.34831 0.46013 0.0
O349 O 0.49366 0.35864 0.42421 0.0
O350 O 0.45561 0.34636 0.42659 0.0
O351 O 0.47116 0.37034 0.40258 0.0
C352 C 0.55468 0.42934 0.41586 0.0
C353 C 0.56152 0.41987 0.40299 0.0
H354 H 0.56975 0.39712 0.37866 0.0
H355 H 0.54733 0.36635 0.36499 0.0
H356 H 0.50367 0.42688 0.44767 0.0
H357 H 0.53665 0.44312 0.4405 0.0
H358 H 0.56391 0.44258 0.42296 0.0
H359 H 0.57591 0.42596 0.40042 0.0
Mn360 Mn 0.13879 0.47013 0.93321 0.0
Mn361 Mn 0.12558 0.49537 0.90226 0.0
C362 C 0.13643 0.49273 0.95285 0.0
C363 C 0.16188 0.46511 0.94592 0.0
C364 C 0.10014 0.45666 0.91772 0.0
O365 O 0.14154 0.46498 0.89786 0.0
O366 O 0.1369 0.48592 0.87979 0.0
C367 C 0.16094 0.52563 0.88725 0.0
N368 N 0.14479 0.51956 0.8984 0.0
C369 C 0.15151 0.54978 0.90702 0.0
C370 C 0.16814 0.55637 0.89536 0.0
C371 C 0.1729 0.54423 0.88554 0.0
C372 C 0.14013 0.53111 0.9081 0.0
H373 H 0.16467 0.51633 0.87983 0.0
C374 C 0.14143 0.47378 0.87932 0.0
O375 O 0.14529 0.45209 0.94489 0.0
O376 O 0.16508 0.48083 0.93881 0.0
N377 N 0.11452 0.50551 0.92189 0.0
C378 C 0.09867 0.49695 0.9342 0.0
C379 C 0.09226 0.50715 0.94591 0.0
C380 C 0.10213 0.52601 0.94469 0.0
C381 C 0.11841 0.53453 0.93193 0.0
C382 C 0.12405 0.52366 0.92045 0.0
H383 H 0.09094 0.48245 0.93506 0.0
O384 O 0.13643 0.47984 0.96503 0.0
O385 O 0.13808 0.49216 0.92964 0.0
O386 O 0.11136 0.45458 0.93045 0.0
O387 O 0.1045 0.4709 0.90554 0.0
C388 C 0.12942 0.55337 0.93053 0.0
C389 C 0.14598 0.56099 0.91813 0.0
H390 H 0.17744 0.5707 0.89412 0.0
H391 H 0.18578 0.54921 0.87671 0.0
H392 H 0.07972 0.50048 0.9558 0.0
H393 H 0.09713 0.53383 0.95373 0.0
H394 H 0.12544 0.56212 0.93932 0.0
H395 H 0.1545 0.57549 0.91759 0.0
Mn396 Mn 0.67111 0.13794 0.42785 0.0
Mn397 Mn 0.63373 0.12432 0.39409 0.0
C398 C 0.64501 0.13463 0.44534 0.0
C399 C 0.69839 0.16143 0.44265 0.0
C400 C 0.64591 0.09879 0.41284 0.0
O401 O 0.68083 0.14143 0.39334 0.0
O402 O 0.65533 0.13424 0.37322 0.0
C403 C 0.64163 0.16008 0.37636 0.0
N404 N 0.63029 0.14423 0.38748 0.0
C405 C 0.60723 0.15223 0.39082 0.0
C406 C 0.61854 0.16853 0.37907 0.0
C407 C 0.63587 0.17253 0.37199 0.0
C408 C 0.61377 0.14043 0.39489 0.0
H409 H 0.65495 0.1632 0.37091 0.0
C410 C 0.67223 0.13988 0.37387 0.0
O411 O 0.69535 0.14501 0.44165 0.0
O412 O 0.68586 0.1642 0.43439 0.0
N413 N 0.61156 0.1145 0.41152 0.0
C414 C 0.60274 0.09869 0.42389 0.0
C415 C 0.58549 0.09306 0.43314 0.0
C416 C 0.57731 0.1035 0.42908 0.0
C417 C 0.58653 0.11956 0.41593 0.0
C418 C 0.60377 0.1246 0.40742 0.0
H419 H 0.60883 0.09047 0.42671 0.0
O420 O 0.65755 0.13479 0.45855 0.0
O421 O 0.64825 0.13684 0.42235 0.0
O422 O 0.65968 0.11043 0.42456 0.0
O423 O 0.63586 0.10283 0.40047 0.0
C424 C 0.57933 0.13081 0.41101 0.0
C425 C 0.58975 0.14724 0.39875 0.0
H426 H 0.61412 0.17813 0.37557 0.0
H427 H 0.64475 0.18515 0.36309 0.0
H428 H 0.57845 0.08063 0.44322 0.0
H429 H 0.564 0.0991 0.4362 0.0
H430 H 0.56586 0.12708 0.41686 0.0
H431 H 0.58422 0.15597 0.39558 0.0
Mn432 Mn 0.6713 0.53709 0.92826 0.0
Mn433 Mn 0.63215 0.51376 0.89765 0.0
C434 C 0.64616 0.51421 0.9472 0.0
C435 C 0.69916 0.54117 0.94076 0.0
C436 C 0.6455 0.55127 0.91743 0.0
O437 O 0.6794 0.54313 0.89313 0.0
O438 O 0.65257 0.52634 0.87494 0.0
C439 C 0.63924 0.48661 0.87525 0.0
N440 N 0.62858 0.49067 0.88895 0.0
C441 C 0.6065 0.45934 0.89361 0.0
C442 C 0.61719 0.45482 0.87943 0.0
C443 C 0.63366 0.46851 0.87028 0.0
C444 C 0.61277 0.4776 0.89795 0.0
H445 H 0.6519 0.49711 0.86818 0.0
C446 C 0.66958 0.53723 0.87429 0.0
O447 O 0.69595 0.55444 0.94039 0.0
O448 O 0.68645 0.52576 0.93296 0.0
N449 N 0.61102 0.50083 0.91701 0.0
C450 C 0.60278 0.50744 0.93138 0.0
C451 C 0.58628 0.49547 0.9423 0.0
C452 C 0.57832 0.4769 0.93808 0.0
C453 C 0.58699 0.47044 0.9231 0.0
C454 C 0.60335 0.48301 0.91258 0.0
H455 H 0.60876 0.52172 0.93449 0.0
O456 O 0.65916 0.52671 0.95972 0.0
O457 O 0.64822 0.51534 0.92391 0.0
O458 O 0.65996 0.55334 0.927 0.0
O459 O 0.63438 0.53706 0.9061 0.0
C460 C 0.58023 0.452 0.91856 0.0
C461 C 0.59001 0.44645 0.9039 0.0
H462 H 0.61295 0.44088 0.8756 0.0
H463 H 0.64202 0.46513 0.85941 0.0
H464 H 0.57968 0.50056 0.95388 0.0
H465 H 0.56559 0.46771 0.94652 0.0
H466 H 0.56766 0.44196 0.92657 0.0
H467 H 0.58481 0.43222 0.90084 0.0
Mn468 Mn 0.13937 0.66891 0.42767 0.0
Mn469 Mn 0.12577 0.63116 0.39462 0.0
C470 C 0.13685 0.64327 0.44538 0.0
C471 C 0.16261 0.69655 0.44197 0.0
C472 C 0.09988 0.64233 0.41439 0.0
O473 O 0.14248 0.67839 0.39317 0.0
O474 O 0.13316 0.65231 0.37345 0.0
C475 C 0.16119 0.64127 0.37328 0.0
N476 N 0.1464 0.62944 0.38605 0.0
C477 C 0.1571 0.6084 0.38873 0.0
C478 C 0.17241 0.62031 0.37551 0.0
C479 C 0.17451 0.63686 0.36787 0.0
C480 C 0.14439 0.61362 0.39383 0.0
H481 H 0.16278 0.65394 0.36723 0.0
C482 C 0.13902 0.66925 0.37377 0.0
O483 O 0.14606 0.69315 0.4412 0.0
O484 O 0.16561 0.68414 0.43386 0.0
N485 N 0.11814 0.60934 0.41218 0.0
C486 C 0.10275 0.59953 0.42512 0.0
C487 C 0.09878 0.58272 0.43447 0.0
C488 C 0.11043 0.57599 0.42989 0.0
C489 C 0.12596 0.58614 0.41602 0.0
C490 C 0.12931 0.60287 0.40741 0.0
H491 H 0.09362 0.60452 0.42836 0.0
O492 O 0.13671 0.65572 0.45846 0.0
O493 O 0.13879 0.64627 0.42229 0.0
O494 O 0.11168 0.65691 0.42456 0.0
O495 O 0.10381 0.63178 0.40305 0.0
C496 C 0.13826 0.58034 0.4104 0.0
C497 C 0.15392 0.59154 0.39701 0.0
H498 H 0.18266 0.61691 0.37117 0.0
H499 H 0.18631 0.64615 0.35771 0.0
H500 H 0.08672 0.57493 0.44506 0.0
H501 H 0.10731 0.56302 0.4371 0.0
H502 H 0.13588 0.56732 0.41642 0.0
H503 H 0.16341 0.58704 0.39314 0.0
Mn504 Mn 0.47182 0.1371 0.92986 0.0
Mn505 Mn 0.49645 0.12308 0.89877 0.0
C506 C 0.49444 0.13456 0.94918 0.0
C507 C 0.46737 0.16058 0.9428 0.0
C508 C 0.45815 0.09791 0.91584 0.0
O509 O 0.46646 0.1399 0.89465 0.0
O510 O 0.48581 0.13318 0.87629 0.0
C511 C 0.52554 0.15825 0.88111 0.0
N512 N 0.52024 0.14256 0.89315 0.0
C513 C 0.55096 0.1503 0.90016 0.0
C514 C 0.55675 0.16648 0.88765 0.0
C515 C 0.54398 0.1705 0.87817 0.0
C516 C 0.53241 0.13861 0.90248 0.0
H517 H 0.51575 0.16137 0.87383 0.0
C518 C 0.47428 0.13851 0.87582 0.0
O519 O 0.45414 0.14408 0.94184 0.0
O520 O 0.48293 0.16344 0.93547 0.0
N521 N 0.50769 0.11305 0.91817 0.0
C522 C 0.49989 0.09748 0.93113 0.0
C523 C 0.51081 0.09174 0.94239 0.0
C524 C 0.5296 0.10197 0.94001 0.0
C525 C 0.53732 0.11793 0.92654 0.0
C526 C 0.52575 0.1229 0.91557 0.0
H527 H 0.48546 0.08947 0.93286 0.0
O528 O 0.48167 0.1347 0.96151 0.0
O529 O 0.49374 0.13613 0.92596 0.0
O530 O 0.45592 0.10956 0.92733 0.0
O531 O 0.47243 0.1019 0.904 0.0
C532 C 0.55604 0.12928 0.92395 0.0
C533 C 0.56285 0.14548 0.91083 0.0
H534 H 0.57096 0.176 0.88542 0.0
H535 H 0.54834 0.183 0.86862 0.0
H536 H 0.50476 0.07944 0.95281 0.0
H537 H 0.53797 0.0975 0.9487 0.0
H538 H 0.56531 0.12583 0.93234 0.0
H539 H 0.57727 0.15425 0.90932 0.0
Mn540 Mn 0.33678 0.46866 0.43091 0.0
Mn541 Mn 0.37588 0.493 0.40044 0.0
C542 C 0.3616 0.49179 0.4501 0.0
C543 C 0.30854 0.46375 0.44321 0.0
C544 C 0.36328 0.45542 0.41949 0.0
O545 O 0.32885 0.46269 0.39571 0.0
O546 O 0.35557 0.48036 0.37765 0.0
C547 C 0.36813 0.51993 0.37886 0.0
N548 N 0.37899 0.516 0.39231 0.0
C549 C 0.40071 0.5474 0.39733 0.0
C550 C 0.38981 0.5518 0.38342 0.0
C551 C 0.37342 0.538 0.37422 0.0
C552 C 0.39472 0.52916 0.40138 0.0
H553 H 0.35555 0.50935 0.37174 0.0
C554 C 0.33867 0.46905 0.37693 0.0
O555 O 0.31223 0.45081 0.4429 0.0
O556 O 0.32103 0.47935 0.43561 0.0
N557 N 0.39693 0.50602 0.41988 0.0
C558 C 0.40543 0.49951 0.43389 0.0
C559 C 0.42194 0.51157 0.4447 0.0
C560 C 0.42964 0.53015 0.44075 0.0
C561 C 0.42069 0.53652 0.42618 0.0
C562 C 0.40435 0.52386 0.41572 0.0
H563 H 0.39967 0.48523 0.43675 0.0
O564 O 0.34871 0.47905 0.46249 0.0
O565 O 0.3596 0.49076 0.42681 0.0
O566 O 0.34876 0.45295 0.42938 0.0
O567 O 0.37413 0.46982 0.40828 0.0
C568 C 0.42718 0.55495 0.42193 0.0
C569 C 0.41716 0.56039 0.40761 0.0
H570 H 0.39383 0.56572 0.37982 0.0
H571 H 0.36491 0.54129 0.36355 0.0
H572 H 0.42876 0.50655 0.45597 0.0
H573 H 0.4424 0.5394 0.44905 0.0
H574 H 0.43973 0.56506 0.42991 0.0
H575 H 0.42215 0.5746 0.40477 0.0
Mn576 Mn 0.87092 0.33726 0.93038 0.0
Mn577 Mn 0.88491 0.37469 0.89647 0.0
C578 C 0.87419 0.36332 0.94799 0.0
C579 C 0.84754 0.3099 0.94504 0.0
C580 C 0.91001 0.36198 0.91509 0.0
O581 O 0.86745 0.3276 0.89588 0.0
O582 O 0.87461 0.35304 0.87561 0.0
C583 C 0.84955 0.36776 0.87839 0.0
N584 N 0.86543 0.37877 0.88965 0.0
C585 C 0.85816 0.40237 0.89304 0.0
C586 C 0.84179 0.39134 0.88127 0.0
C587 C 0.83743 0.37393 0.87402 0.0
C588 C 0.8697 0.39549 0.89686 0.0
H589 H 0.84617 0.35437 0.87281 0.0
C590 C 0.86895 0.33614 0.87636 0.0
O591 O 0.86398 0.31305 0.94397 0.0
O592 O 0.84465 0.32242 0.93697 0.0
N593 N 0.89515 0.39688 0.91387 0.0
C594 C 0.91082 0.40525 0.92656 0.0
C595 C 0.91696 0.42266 0.93557 0.0
C596 C 0.90699 0.43131 0.93128 0.0
C597 C 0.89087 0.4224 0.91828 0.0
C598 C 0.88555 0.40516 0.90949 0.0
H599 H 0.91864 0.39875 0.92965 0.0
O600 O 0.87404 0.35073 0.96107 0.0
O601 O 0.87213 0.36023 0.92489 0.0
O602 O 0.89836 0.34849 0.92715 0.0
O603 O 0.90611 0.37209 0.90265 0.0
C604 C 0.87971 0.42981 0.91407 0.0
C605 C 0.86332 0.41976 0.90155 0.0
H606 H 0.83238 0.39603 0.87794 0.0
H607 H 0.82477 0.3653 0.86507 0.0
H608 H 0.92937 0.42943 0.94571 0.0
H609 H 0.91176 0.44473 0.93828 0.0
H610 H 0.88345 0.44309 0.92076 0.0
H611 H 0.8547 0.42547 0.89881 0.0
Mn612 Mn 0.53509 0.86865 0.42699 0.0
Mn613 Mn 0.51345 0.88269 0.38968 0.0
C614 C 0.51133 0.87183 0.4413 0.0
C615 C 0.53867 0.84548 0.44362 0.0
C616 C 0.54938 0.90821 0.41262 0.0
O617 O 0.54316 0.86512 0.39371 0.0
O618 O 0.5279 0.87474 0.37108 0.0
C619 C 0.48866 0.84726 0.36791 0.0
N620 N 0.49135 0.86232 0.37972 0.0
C621 C 0.45985 0.8528 0.37793 0.0
C622 C 0.45672 0.8372 0.36568 0.0
C623 C 0.47118 0.83436 0.3608 0.0
C624 C 0.4775 0.86498 0.38501 0.0
H625 H 0.49979 0.84517 0.36386 0.0
C626 C 0.53866 0.86861 0.37337 0.0
O627 O 0.55181 0.86202 0.44319 0.0
O628 O 0.52362 0.84238 0.43397 0.0
N629 N 0.49884 0.891 0.40446 0.0
C630 C 0.50418 0.90673 0.41648 0.0
C631 C 0.49142 0.91175 0.42245 0.0
C632 C 0.4734 0.9008 0.41547 0.0
C633 C 0.46822 0.88471 0.40301 0.0
C634 C 0.48152 0.88033 0.39774 0.0
H635 H 0.51812 0.91545 0.42128 0.0
O636 O 0.52305 0.87174 0.45597 0.0
O637 O 0.51352 0.8696 0.4186 0.0
O638 O 0.55128 0.89629 0.42399 0.0
O639 O 0.53574 0.90443 0.39944 0.0
C640 C 0.45045 0.87293 0.39536 0.0
C641 C 0.44621 0.85686 0.38316 0.0
H642 H 0.44328 0.82732 0.35991 0.0
H643 H 0.46887 0.82235 0.35137 0.0
H644 H 0.4955 0.92419 0.43206 0.0
H645 H 0.46366 0.9049 0.41976 0.0
H646 H 0.43989 0.87605 0.3989 0.0
H647 H 0.43245 0.84781 0.37769 0.0
Mn648 Mn 0.47236 0.33683 0.07757 0.0
Mn649 Mn 0.49647 0.37493 0.11001 0.0
C650 C 0.49477 0.36255 0.05882 0.0
C651 C 0.46813 0.30924 0.06343 0.0
C652 C 0.45825 0.36179 0.09274 0.0
O653 O 0.46693 0.32783 0.11246 0.0
O654 O 0.48559 0.35371 0.13161 0.0
C655 C 0.5253 0.3684 0.12747 0.0
N656 N 0.52017 0.37917 0.1161 0.0
C657 C 0.55093 0.40272 0.11139 0.0
C658 C 0.55655 0.39195 0.12325 0.0
C659 C 0.54368 0.37468 0.13123 0.0
C660 C 0.53244 0.39574 0.10819 0.0
H661 H 0.51542 0.35512 0.13361 0.0
C662 C 0.47437 0.33678 0.13157 0.0
O663 O 0.45483 0.31237 0.06488 0.0
O664 O 0.48367 0.32189 0.07091 0.0
N665 N 0.50801 0.39677 0.09181 0.0
C666 C 0.50042 0.40489 0.07919 0.0
C667 C 0.51146 0.42214 0.06959 0.0
C668 C 0.53016 0.4309 0.0732 0.0
C669 C 0.53767 0.42223 0.08611 0.0
C670 C 0.52598 0.40515 0.09553 0.0
H671 H 0.48603 0.39831 0.07663 0.0
O672 O 0.48206 0.34973 0.04633 0.0
O673 O 0.4942 0.3599 0.08199 0.0
O674 O 0.45618 0.34808 0.081 0.0
O675 O 0.47251 0.37217 0.10456 0.0
C676 C 0.55633 0.42975 0.08967 0.0
C677 C 0.56296 0.41996 0.1022 0.0
H678 H 0.57072 0.39673 0.12612 0.0
H679 H 0.54791 0.36625 0.14026 0.0
H680 H 0.50559 0.42872 0.05951 0.0
H681 H 0.53865 0.44421 0.06577 0.0
H682 H 0.5657 0.44291 0.08249 0.0
H683 H 0.57734 0.42574 0.10445 0.0
Mn684 Mn 0.13679 0.46855 0.57631 0.0
Mn685 Mn 0.1234 0.49285 0.60946 0.0
C686 C 0.13539 0.4924 0.55906 0.0
C687 C 0.15951 0.46334 0.56202 0.0
C688 C 0.09719 0.45683 0.58768 0.0
O689 O 0.13918 0.46145 0.61062 0.0
O690 O 0.12883 0.4774 0.63033 0.0
C691 C 0.15842 0.51586 0.63342 0.0
N692 N 0.14444 0.51424 0.61991 0.0
C693 C 0.15712 0.54635 0.61864 0.0
C694 C 0.17162 0.54838 0.63263 0.0
C695 C 0.17231 0.53307 0.63995 0.0
C696 C 0.14377 0.52888 0.61248 0.0
H697 H 0.15896 0.50413 0.63919 0.0
C698 C 0.13469 0.46632 0.62986 0.0
O699 O 0.14276 0.45062 0.56234 0.0
O700 O 0.16304 0.47881 0.57061 0.0
N701 N 0.11756 0.50862 0.59238 0.0
C702 C 0.10269 0.50435 0.57888 0.0
C703 C 0.09999 0.51815 0.57005 0.0
C704 C 0.11238 0.53617 0.57564 0.0
C705 C 0.12738 0.54022 0.59 0.0
C706 C 0.12939 0.5259 0.59821 0.0
H707 H 0.09303 0.49051 0.57475 0.0
O708 O 0.13496 0.47978 0.54575 0.0
O709 O 0.13693 0.49096 0.58218 0.0
O710 O 0.109 0.45349 0.57879 0.0
O711 O 0.10119 0.47136 0.59892 0.0
C712 C 0.14044 0.5579 0.59647 0.0
C713 C 0.15538 0.56098 0.61058 0.0
H714 H 0.18231 0.56163 0.63782 0.0
H715 H 0.18348 0.53452 0.65071 0.0
H716 H 0.08835 0.51491 0.55905 0.0
H717 H 0.11024 0.54677 0.5688 0.0
H718 H 0.13918 0.56925 0.59058 0.0
H719 H 0.16542 0.57464 0.6152 0.0
Mn720 Mn 0.67157 0.13666 0.07762 0.0
Mn721 Mn 0.63342 0.12188 0.11021 0.0
C722 C 0.64576 0.13333 0.05917 0.0
C723 C 0.69906 0.16041 0.06395 0.0
C724 C 0.64703 0.09737 0.09207 0.0
O725 O 0.68053 0.13984 0.11249 0.0
O726 O 0.65463 0.13232 0.13182 0.0
C727 C 0.6393 0.15683 0.12848 0.0
N728 N 0.62875 0.141 0.11682 0.0
C729 C 0.60483 0.14772 0.11254 0.0
C730 C 0.61537 0.16403 0.12471 0.0
C731 C 0.63271 0.16864 0.13261 0.0
C732 C 0.61211 0.13649 0.10899 0.0
H733 H 0.65263 0.1604 0.13456 0.0
C734 C 0.67157 0.13814 0.13168 0.0
O735 O 0.69611 0.14403 0.06485 0.0
O736 O 0.68628 0.16302 0.07165 0.0
N737 N 0.61162 0.11147 0.09194 0.0
C738 C 0.60378 0.09593 0.07892 0.0
C739 C 0.58652 0.08957 0.06926 0.0
C740 C 0.57746 0.09918 0.07325 0.0
C741 C 0.58585 0.1152 0.08655 0.0
C742 C 0.60296 0.12075 0.09599 0.0
H743 H 0.61059 0.08837 0.07607 0.0
O744 O 0.65866 0.13376 0.04647 0.0
O745 O 0.6484 0.1351 0.08237 0.0
O746 O 0.66059 0.10922 0.0803 0.0
O747 O 0.6366 0.10098 0.10425 0.0
C748 C 0.57803 0.12604 0.09048 0.0
C749 C 0.58755 0.14233 0.10337 0.0
H750 H 0.61036 0.17321 0.12785 0.0
H751 H 0.64096 0.18126 0.14187 0.0
H752 H 0.58017 0.07725 0.05887 0.0
H753 H 0.56414 0.09424 0.0658 0.0
H754 H 0.56484 0.12212 0.08329 0.0
H755 H 0.58155 0.15071 0.10589 0.0
Mn756 Mn 0.53725 0.66977 0.57632 0.0
Mn757 Mn 0.51464 0.63155 0.60911 0.0
C758 C 0.51418 0.64396 0.55861 0.0
C759 C 0.54074 0.69726 0.56276 0.0
C760 C 0.55162 0.64413 0.58784 0.0
O761 O 0.54396 0.67901 0.61093 0.0
O762 O 0.52788 0.65268 0.63043 0.0
C763 C 0.48831 0.63971 0.63181 0.0
N764 N 0.4919 0.62842 0.61878 0.0
C765 C 0.46052 0.60593 0.61722 0.0
C766 C 0.45648 0.61727 0.63075 0.0
C767 C 0.47043 0.63426 0.63799 0.0
C768 C 0.47857 0.61211 0.61158 0.0
H769 H 0.49902 0.65274 0.63746 0.0
C770 C 0.5386 0.6697 0.63025 0.0
O771 O 0.55414 0.69424 0.56291 0.0
O772 O 0.52557 0.68457 0.57118 0.0
N773 N 0.50107 0.60966 0.5915 0.0
C774 C 0.50718 0.60073 0.57764 0.0
C775 C 0.49493 0.58352 0.56887 0.0
C776 C 0.47656 0.57565 0.57451 0.0
C777 C 0.4706 0.58507 0.58887 0.0
C778 C 0.48347 0.60205 0.59742 0.0
H779 H 0.52131 0.60663 0.57348 0.0
O780 O 0.52643 0.65675 0.54555 0.0
O781 O 0.51557 0.64665 0.58183 0.0
O782 O 0.5537 0.65852 0.57794 0.0
O783 O 0.53757 0.63336 0.59974 0.0
C784 C 0.45238 0.57839 0.59476 0.0
C785 C 0.44733 0.58886 0.60882 0.0
H786 H 0.44271 0.61312 0.63553 0.0
H787 H 0.46742 0.64311 0.64835 0.0
H788 H 0.49964 0.57632 0.55781 0.0
H789 H 0.46714 0.56241 0.56759 0.0
H790 H 0.44211 0.56533 0.58829 0.0
H791 H 0.43325 0.58369 0.61294 0.0
Mn792 Mn 0.87146 0.53853 0.07543 0.0
Mn793 Mn 0.88683 0.51505 0.10649 0.0
C794 C 0.87436 0.51603 0.05635 0.0
C795 C 0.84755 0.5423 0.0627 0.0
C796 C 0.91096 0.55331 0.08861 0.0
O797 O 0.8689 0.5441 0.11066 0.0
O798 O 0.87661 0.52552 0.12911 0.0
C799 C 0.85231 0.48558 0.12527 0.0
N800 N 0.86785 0.4911 0.11275 0.0
C801 C 0.86069 0.46053 0.10596 0.0
C802 C 0.84467 0.45451 0.11896 0.0
C803 C 0.84043 0.46709 0.12858 0.0
C804 C 0.87201 0.47911 0.10331 0.0
H805 H 0.849 0.49522 0.13265 0.0
C806 C 0.87084 0.53671 0.12956 0.0
O807 O 0.86394 0.55574 0.06339 0.0
O808 O 0.84502 0.52691 0.07026 0.0
N809 N 0.897 0.50403 0.08689 0.0
C810 C 0.91233 0.51201 0.07342 0.0
C811 C 0.91819 0.50128 0.06191 0.0
C812 C 0.90835 0.48249 0.06456 0.0
C813 C 0.89264 0.47459 0.07856 0.0
C814 C 0.88753 0.48597 0.08975 0.0
H815 H 0.92003 0.52645 0.07146 0.0
O816 O 0.87378 0.5285 0.04387 0.0
O817 O 0.87307 0.51697 0.07958 0.0
O818 O 0.89891 0.55497 0.07731 0.0
O819 O 0.90757 0.53928 0.10064 0.0
C820 C 0.88167 0.45584 0.08146 0.0
C821 C 0.86568 0.44881 0.0951 0.0
H822 H 0.83543 0.44026 0.12146 0.0
H823 H 0.82804 0.46254 0.13851 0.0
H824 H 0.9303 0.50748 0.05108 0.0
H825 H 0.91291 0.47426 0.05565 0.0
H826 H 0.88524 0.4467 0.07292 0.0
H827 H 0.8572 0.43437 0.09685 0.0
Mn828 Mn 0.33735 0.8676 0.5804 0.0
Mn829 Mn 0.37276 0.88159 0.61818 0.0
C830 C 0.36447 0.87117 0.56634 0.0
C831 C 0.31078 0.84459 0.56328 0.0
C832 C 0.3621 0.90703 0.59572 0.0
O833 O 0.32548 0.86366 0.61352 0.0
O834 O 0.3502 0.8733 0.63656 0.0
C835 C 0.36228 0.84601 0.63931 0.0
N836 N 0.37464 0.86124 0.6278 0.0
C837 C 0.3968 0.85195 0.62942 0.0
C838 C 0.38434 0.83617 0.64136 0.0
C839 C 0.36696 0.83314 0.64618 0.0
C840 C 0.39123 0.86409 0.62258 0.0
H841 H 0.349 0.84377 0.64331 0.0
C842 C 0.3333 0.86704 0.63396 0.0
O843 O 0.31413 0.86111 0.56402 0.0
O844 O 0.3227 0.84141 0.57286 0.0
N845 N 0.3958 0.89024 0.60361 0.0
C846 C 0.40613 0.90609 0.59184 0.0
C847 C 0.42398 0.91129 0.58592 0.0
C848 C 0.43114 0.90039 0.5927 0.0
C849 C 0.42027 0.88416 0.60491 0.0
C850 C 0.40255 0.87961 0.61014 0.0
H851 H 0.40084 0.91476 0.5872 0.0
O852 O 0.35273 0.87112 0.55158 0.0
O853 O 0.35987 0.86868 0.58898 0.0
O854 O 0.34853 0.89514 0.58395 0.0
O855 O 0.37202 0.90332 0.60888 0.0
C856 C 0.42637 0.87241 0.61233 0.0
C857 C 0.41456 0.85619 0.62424 0.0
H858 H 0.38798 0.82631 0.64693 0.0
H859 H 0.35727 0.82099 0.65537 0.0
H860 H 0.43229 0.92383 0.57651 0.0
H861 H 0.44502 0.90462 0.58845 0.0
H862 H 0.44008 0.87566 0.60883 0.0
H863 H 0.41934 0.84716 0.62954 0.0
H864 H 0.30882 0.44463 0.14667 0.0
H865 H 0.29685 0.43748 0.188 0.0
H866 H 0.34096 0.488 0.21273 0.0
H867 H 0.35283 0.49522 0.17203 0.0
H868 H 0.31496 0.43393 0.22722 0.0
H869 H 0.29838 0.48698 0.24641 0.0
H870 H 0.30094 0.48095 0.21604 0.0
H871 H 0.32036 0.49652 0.23327 0.0
C872 C 0.31574 0.45433 0.16088 0.0
C873 C 0.33183 0.47046 0.15604 0.0
C874 C 0.3089 0.45023 0.18446 0.0
C875 C 0.31783 0.46235 0.20339 0.0
C876 C 0.33357 0.47863 0.19837 0.0
H877 H 0.3554 0.46657 0.3371 0.0
H878 H 0.34411 0.46 0.29605 0.0
C879 C 0.34046 0.48264 0.17504 0.0
C880 C 0.31224 0.45755 0.2289 0.0
H881 H 0.30845 0.47651 0.28104 0.0
C882 C 0.31293 0.44289 0.23892 0.0
C883 C 0.30923 0.46898 0.2442 0.0
C884 C 0.30698 0.48412 0.23435 0.0
C885 C 0.31271 0.4406 0.264 0.0
C886 C 0.31199 0.45339 0.27935 0.0
C887 C 0.30926 0.46683 0.26929 0.0
C888 C 0.31751 0.45515 0.305 0.0
C889 C 0.31436 0.42512 0.27388 0.0
C890 C 0.30633 0.45473 0.32382 0.0
C891 C 0.3128 0.45846 0.34761 0.0
C892 C 0.33066 0.46311 0.35268 0.0
C893 C 0.34161 0.46315 0.3338 0.0
C894 C 0.33511 0.4592 0.3103 0.0
H895 H 0.30832 0.41346 0.26134 0.0
H896 H 0.32881 0.4294 0.27598 0.0
H897 H 0.30772 0.42074 0.29175 0.0
H898 H 0.29277 0.45186 0.32003 0.0
H899 H 0.30411 0.45844 0.3618 0.0
H900 H 0.87047 0.30485 0.65023 0.0
H901 H 0.86602 0.29174 0.69097 0.0
H902 H 0.84305 0.32393 0.71414 0.0
H903 H 0.84758 0.33697 0.67422 0.0
H904 H 0.88272 0.31312 0.73159 0.0
H905 H 0.80945 0.27591 0.74591 0.0
H906 H 0.81936 0.28082 0.71613 0.0
H907 H 0.81614 0.29726 0.73222 0.0
C908 C 0.86396 0.30864 0.6639 0.0
C909 C 0.85934 0.32191 0.65907 0.0
C910 C 0.86148 0.3012 0.68713 0.0
C911 C 0.85392 0.30663 0.70552 0.0
C912 C 0.84848 0.31916 0.70018 0.0
H913 H 0.85885 0.34594 0.83542 0.0
H914 H 0.85371 0.33225 0.79571 0.0
C915 C 0.8512 0.32673 0.67731 0.0
C916 C 0.85394 0.30163 0.73114 0.0
H917 H 0.82781 0.29206 0.78144 0.0
C918 C 0.87063 0.30777 0.7425 0.0
C919 C 0.83818 0.29457 0.74539 0.0
C920 C 0.81976 0.28659 0.7342 0.0
C921 C 0.87217 0.30905 0.76774 0.0
C922 C 0.85663 0.304 0.78182 0.0
C923 C 0.83974 0.29603 0.77059 0.0
C924 C 0.85815 0.31065 0.80682 0.0
C925 C 0.89057 0.3175 0.77912 0.0
C926 C 0.86204 0.30279 0.82641 0.0
C927 C 0.86489 0.31057 0.84945 0.0
C928 C 0.86413 0.32643 0.853 0.0
C929 C 0.8597 0.33384 0.83335 0.0
C930 C 0.85668 0.32599 0.81061 0.0
H931 H 0.90124 0.31997 0.76581 0.0
H932 H 0.8938 0.33052 0.78755 0.0
H933 H 0.89069 0.30863 0.79358 0.0
H934 H 0.86322 0.29092 0.82378 0.0
H935 H 0.86832 0.30459 0.86422 0.0
H936 H 0.54787 0.88946 0.33374 0.0
H937 H 0.55593 0.88346 0.29417 0.0
H938 H 0.55407 0.83553 0.32156 0.0
H939 H 0.54599 0.84161 0.36183 0.0
H940 H 0.58522 0.87671 0.2781 0.0
H941 H 0.51544 0.8193 0.26524 0.0
H942 H 0.52018 0.8359 0.28833 0.0
H943 H 0.52821 0.82034 0.29159 0.0
C944 C 0.54942 0.87776 0.33151 0.0
C945 C 0.54615 0.86591 0.35079 0.0
C946 C 0.55411 0.8744 0.30889 0.0
C947 C 0.55547 0.859 0.30489 0.0
C948 C 0.55302 0.84746 0.32431 0.0
H949 H 0.54374 0.83967 0.1483 0.0
H950 H 0.55177 0.83392 0.18875 0.0
C951 C 0.5485 0.85098 0.34726 0.0
C952 C 0.55789 0.85479 0.27973 0.0
H953 H 0.53226 0.83325 0.23053 0.0
C954 C 0.57387 0.86676 0.26774 0.0
C955 C 0.54313 0.84173 0.26625 0.0
C956 C 0.52571 0.82852 0.27834 0.0
C957 C 0.57485 0.86717 0.24247 0.0
C958 C 0.55937 0.85553 0.22893 0.0
C959 C 0.54409 0.84222 0.24094 0.0
C960 C 0.55735 0.85957 0.20349 0.0
C961 C 0.59204 0.88093 0.23046 0.0
C962 C 0.55793 0.87586 0.19839 0.0
C963 C 0.55315 0.87899 0.17569 0.0
C964 C 0.54779 0.86598 0.15745 0.0
C965 C 0.54803 0.84999 0.16203 0.0
C966 C 0.55255 0.84669 0.18508 0.0
H967 H 0.60392 0.8838 0.24164 0.0
H968 H 0.59357 0.87634 0.21235 0.0
H969 H 0.59187 0.8937 0.22837 0.0
H970 H 0.56117 0.88582 0.21239 0.0
H971 H 0.55305 0.89142 0.17263 0.0
H972 H 0.70443 0.54851 0.85977 0.0
H973 H 0.71626 0.55547 0.81826 0.0
H974 H 0.66472 0.54602 0.79307 0.0
H975 H 0.65296 0.53911 0.83387 0.0
H976 H 0.70185 0.53116 0.77883 0.0
H977 H 0.69998 0.59321 0.75935 0.0
H978 H 0.70031 0.58577 0.78974 0.0
H979 H 0.67946 0.57668 0.77332 0.0
C980 C 0.69578 0.54825 0.84538 0.0
C981 C 0.67774 0.54318 0.85008 0.0
C982 C 0.70253 0.5522 0.82172 0.0
C983 C 0.69145 0.55156 0.80264 0.0
C984 C 0.67365 0.547 0.80753 0.0
H985 H 0.65872 0.51227 0.66911 0.0
H986 H 0.67024 0.51944 0.70995 0.0
C987 C 0.66688 0.54286 0.8309 0.0
C988 C 0.6974 0.55371 0.77712 0.0
H989 H 0.69459 0.57324 0.72498 0.0
C990 C 0.70087 0.54075 0.7671 0.0
C991 C 0.69647 0.5664 0.7618 0.0
C992 C 0.69405 0.58142 0.77167 0.0
C993 C 0.70144 0.53891 0.742 0.0
C994 C 0.69823 0.55018 0.72664 0.0
C995 C 0.69679 0.56441 0.7367 0.0
C996 C 0.69303 0.54543 0.70101 0.0
C997 C 0.70446 0.52425 0.73216 0.0
C998 C 0.70192 0.55774 0.68223 0.0
C999 C 0.69529 0.55364 0.65854 0.0
C1000 C 0.67945 0.53734 0.65346 0.0
C1001 C 0.6709 0.52497 0.67231 0.0
C1002 C 0.6776 0.52897 0.69572 0.0
H1003 H 0.71312 0.52164 0.74445 0.0
H1004 H 0.69132 0.5116 0.73068 0.0
H1005 H 0.71079 0.52776 0.71403 0.0
H1006 H 0.71373 0.57063 0.68598 0.0
H1007 H 0.70213 0.56347 0.64444 0.0
H1008 H 0.1222 0.65351 0.33204 0.0
H1009 H 0.12731 0.66677 0.2921 0.0
H1010 H 0.16663 0.71829 0.32096 0.0
H1011 H 0.16148 0.70499 0.3617 0.0
H1012 H 0.12655 0.70202 0.27759 0.0
H1013 H 0.19028 0.70083 0.26374 0.0
H1014 H 0.17382 0.6853 0.28483 0.0
H1015 H 0.18578 0.70889 0.29149 0.0
C1016 C 0.1319 0.6677 0.33008 0.0
C1017 C 0.14155 0.67817 0.35006 0.0
C1018 C 0.13473 0.67527 0.30721 0.0
C1019 C 0.14736 0.69345 0.30362 0.0
C1020 C 0.15682 0.7042 0.32347 0.0
H1021 H 0.16469 0.7054 0.14625 0.0
H1022 H 0.16969 0.71801 0.18739 0.0
C1023 C 0.15383 0.69661 0.34665 0.0
C1024 C 0.15075 0.70036 0.27861 0.0
H1025 H 0.17401 0.70001 0.22894 0.0
C1026 C 0.13732 0.70231 0.26699 0.0
C1027 C 0.16484 0.70082 0.26487 0.0
C1028 C 0.1796 0.69891 0.27672 0.0
C1029 C 0.13667 0.70293 0.24175 0.0
C1030 C 0.14956 0.70121 0.2279 0.0
C1031 C 0.1641 0.70127 0.23959 0.0
C1032 C 0.14596 0.69522 0.20243 0.0
C1033 C 0.1214 0.70405 0.23008 0.0
C1034 C 0.13106 0.67831 0.19737 0.0
C1035 C 0.12836 0.67108 0.17428 0.0
C1036 C 0.14046 0.6806 0.15558 0.0
C1037 C 0.1551 0.69785 0.16032 0.0
C1038 C 0.15797 0.70503 0.18375 0.0
H1039 H 0.11684 0.71158 0.24165 0.0
H1040 H 0.12537 0.71068 0.21217 0.0
H1041 H 0.10982 0.69025 0.22759 0.0
H1042 H 0.12183 0.67034 0.21157 0.0
H1043 H 0.11692 0.65779 0.17118 0.0
H1044 H 0.44385 0.13931 0.86148 0.0
H1045 H 0.43636 0.14409 0.82026 0.0
H1046 H 0.48757 0.1526 0.79513 0.0
H1047 H 0.49509 0.14787 0.83566 0.0
H1048 H 0.47594 0.17834 0.77764 0.0
H1049 H 0.42589 0.10555 0.76483 0.0
H1050 H 0.42475 0.11737 0.79105 0.0
H1051 H 0.4428 0.11268 0.78809 0.0
C1052 C 0.45357 0.14243 0.84718 0.0
C1053 C 0.47 0.14304 0.85183 0.0
C1054 C 0.44924 0.14508 0.82368 0.0
C1055 C 0.46139 0.14859 0.80468 0.0
C1056 C 0.47802 0.14991 0.80954 0.0
H1057 H 0.49607 0.15249 0.67036 0.0
H1058 H 0.48907 0.1578 0.71085 0.0
C1059 C 0.48225 0.14711 0.83276 0.0
C1060 C 0.45689 0.14994 0.77926 0.0
H1061 H 0.43785 0.12315 0.73006 0.0
C1062 C 0.46714 0.1664 0.76728 0.0
C1063 C 0.44532 0.13438 0.7658 0.0
C1064 C 0.43401 0.11642 0.77793 0.0
C1065 C 0.46732 0.16737 0.74202 0.0
C1066 C 0.45726 0.15144 0.72847 0.0
C1067 C 0.4456 0.13535 0.74049 0.0
C1068 C 0.46155 0.15041 0.70281 0.0
C1069 C 0.4792 0.18526 0.73002 0.0
C1070 C 0.44838 0.14445 0.68466 0.0
C1071 C 0.45243 0.1415 0.66113 0.0
C1072 C 0.46956 0.14403 0.65572 0.0
C1073 C 0.48275 0.15041 0.67388 0.0
C1074 C 0.4788 0.15359 0.69706 0.0
H1075 H 0.48062 0.19653 0.74144 0.0
H1076 H 0.49283 0.18706 0.7274 0.0
H1077 H 0.4738 0.18601 0.71214 0.0
H1078 H 0.4349 0.1417 0.68882 0.0
H1079 H 0.44197 0.13644 0.64755 0.0
H1080 H 0.54167 0.65423 0.67104 0.0
H1081 H 0.54912 0.66689 0.71137 0.0
H1082 H 0.55714 0.71753 0.68456 0.0
H1083 H 0.54965 0.70482 0.64347 0.0
H1084 H 0.58231 0.70114 0.72817 0.0
H1085 H 0.51658 0.69868 0.74012 0.0
H1086 H 0.51893 0.68478 0.71765 0.0
H1087 H 0.53009 0.70868 0.71356 0.0
C1088 C 0.54512 0.66812 0.67355 0.0
C1089 C 0.54491 0.67848 0.65405 0.0
C1090 C 0.54947 0.67535 0.69664 0.0
C1091 C 0.55358 0.69308 0.70096 0.0
C1092 C 0.55394 0.70377 0.68154 0.0
H1093 H 0.54645 0.70477 0.85846 0.0
H1094 H 0.5543 0.71709 0.8172 0.0
C1095 C 0.54974 0.69654 0.65813 0.0
C1096 C 0.55646 0.69947 0.72625 0.0
H1097 H 0.53199 0.69873 0.7752 0.0
C1098 C 0.57162 0.7013 0.73842 0.0
C1099 C 0.54255 0.69974 0.73957 0.0
C1100 C 0.52606 0.69789 0.72722 0.0
C1101 C 0.57244 0.7017 0.76369 0.0
C1102 C 0.55761 0.69993 0.77706 0.0
C1103 C 0.54333 0.70003 0.7649 0.0
C1104 C 0.55491 0.69401 0.80259 0.0
C1105 C 0.5886 0.70271 0.7759 0.0
C1106 C 0.55264 0.67704 0.80793 0.0
C1107 C 0.54797 0.66997 0.83109 0.0
C1108 C 0.54552 0.67972 0.8496 0.0
C1109 C 0.54839 0.69703 0.84456 0.0
C1110 C 0.55282 0.70404 0.82106 0.0
H1111 H 0.60085 0.71008 0.76458 0.0
H1112 H 0.59109 0.70943 0.79373 0.0
H1113 H 0.5862 0.68887 0.7787 0.0
H1114 H 0.55384 0.66892 0.7939 0.0
H1115 H 0.54592 0.65663 0.83442 0.0
H1116 H 0.87252 0.56704 0.35758 0.0
H1117 H 0.86813 0.57555 0.31672 0.0
H1118 H 0.84575 0.52042 0.29376 0.0
H1119 H 0.85018 0.51204 0.33381 0.0
H1120 H 0.88505 0.57117 0.27622 0.0
H1121 H 0.81178 0.53416 0.26178 0.0
H1122 H 0.82164 0.53915 0.29157 0.0
H1123 H 0.8188 0.5197 0.27529 0.0
C1124 C 0.86616 0.55671 0.34393 0.0
C1125 C 0.86167 0.53887 0.34887 0.0
C1126 C 0.86371 0.56158 0.32062 0.0
C1127 C 0.85633 0.54856 0.30225 0.0
C1128 C 0.85104 0.53064 0.30769 0.0
H1129 H 0.86291 0.51661 0.1703 0.0
H1130 H 0.85801 0.52424 0.21073 0.0
C1131 C 0.85371 0.52587 0.33064 0.0
C1132 C 0.85633 0.55353 0.2766 0.0
H1133 H 0.83031 0.53705 0.22619 0.0
C1134 C 0.87299 0.56435 0.26529 0.0
C1135 C 0.8406 0.54469 0.26231 0.0
C1136 C 0.82218 0.53394 0.27345 0.0
C1137 C 0.87455 0.56486 0.24004 0.0
C1138 C 0.85907 0.55434 0.22589 0.0
C1139 C 0.84219 0.54503 0.2371 0.0
C1140 C 0.8607 0.54979 0.20062 0.0
C1141 C 0.89293 0.57519 0.22866 0.0
C1142 C 0.86355 0.56157 0.18139 0.0
C1143 C 0.86628 0.55717 0.15794 0.0
C1144 C 0.8664 0.54106 0.15359 0.0
C1145 C 0.86307 0.5292 0.17294 0.0
C1146 C 0.8602 0.53349 0.19611 0.0
H1147 H 0.90349 0.58361 0.24197 0.0
H1148 H 0.8965 0.56563 0.22031 0.0
H1149 H 0.89279 0.58402 0.21413 0.0
H1150 H 0.86398 0.57423 0.18459 0.0
H1151 H 0.86884 0.5666 0.14344 0.0
H1152 H 0.30093 0.8379 0.64748 0.0
H1153 H 0.28733 0.83221 0.68806 0.0
H1154 H 0.32942 0.88453 0.71102 0.0
H1155 H 0.34293 0.89007 0.67113 0.0
H1156 H 0.30624 0.83182 0.72938 0.0
H1157 H 0.28495 0.88214 0.74124 0.0
H1158 H 0.28782 0.87483 0.71182 0.0
H1159 H 0.30686 0.89229 0.72778 0.0
C1160 C 0.30688 0.84831 0.66109 0.0
C1161 C 0.32294 0.86441 0.65629 0.0
C1162 C 0.29916 0.84505 0.68421 0.0
C1163 C 0.30719 0.85807 0.70248 0.0
C1164 C 0.32271 0.87446 0.69714 0.0
H1165 H 0.34861 0.88791 0.83149 0.0
H1166 H 0.33422 0.88164 0.79214 0.0
C1167 C 0.33052 0.87757 0.67437 0.0
C1168 C 0.30136 0.85409 0.72802 0.0
H1169 H 0.29735 0.87551 0.77741 0.0
C1170 C 0.30349 0.84083 0.7399 0.0
C1171 C 0.29766 0.86576 0.74172 0.0
C1172 C 0.294 0.87942 0.72989 0.0
C1173 C 0.30427 0.84045 0.76519 0.0
C1174 C 0.30278 0.85359 0.77877 0.0
C1175 C 0.2986 0.8655 0.76696 0.0
C1176 C 0.30981 0.85795 0.80371 0.0
C1177 C 0.30862 0.8273 0.77714 0.0
C1178 C 0.30063 0.84689 0.82348 0.0
C1179 C 0.30885 0.85057 0.8463 0.0
C1180 C 0.32641 0.86515 0.84936 0.0
C1181 C 0.33515 0.87648 0.82965 0.0
C1182 C 0.32691 0.87297 0.80716 0.0
H1183 H 0.30899 0.81768 0.76407 0.0
H1184 H 0.3219 0.83473 0.78622 0.0
H1185 H 0.29839 0.81956 0.79114 0.0
H1186 H 0.28739 0.83523 0.82113 0.0
H1187 H 0.30185 0.8416 0.86119 0.0
H1188 H 0.44222 0.30545 0.3599 0.0
H1189 H 0.43505 0.29313 0.31861 0.0
H1190 H 0.48835 0.33287 0.29553 0.0
H1191 H 0.49544 0.34521 0.336 0.0
H1192 H 0.43728 0.31489 0.27674 0.0
H1193 H 0.48117 0.28542 0.26593 0.0
H1194 H 0.47382 0.28871 0.2951 0.0
H1195 H 0.49273 0.30708 0.28019 0.0
C1196 C 0.45247 0.31127 0.34606 0.0
C1197 C 0.46938 0.32632 0.3512 0.0
C1198 C 0.44835 0.30427 0.32253 0.0
C1199 C 0.46127 0.31193 0.30411 0.0
C1200 C 0.4783 0.32651 0.30953 0.0
H1201 H 0.49514 0.34766 0.17171 0.0
H1202 H 0.48745 0.33514 0.21207 0.0
C1203 C 0.48228 0.33364 0.33271 0.0
C1204 C 0.45695 0.30637 0.27854 0.0
H1205 H 0.47591 0.29824 0.2296 0.0
C1206 C 0.44515 0.31053 0.2664 0.0
C1207 C 0.46718 0.30063 0.26513 0.0
C1208 C 0.4793 0.29502 0.27731 0.0
C1209 C 0.44488 0.31109 0.24107 0.0
C1210 C 0.4566 0.30725 0.22772 0.0
C1211 C 0.46698 0.30127 0.23987 0.0
C1212 C 0.46121 0.31316 0.20233 0.0
C1213 C 0.43343 0.31752 0.22882 0.0
C1214 C 0.4491 0.30469 0.18322 0.0
C1215 C 0.45354 0.31184 0.15979 0.0
C1216 C 0.47003 0.32763 0.15533 0.0
C1217 C 0.48225 0.33559 0.17447 0.0
C1218 C 0.47792 0.32841 0.1976 0.0
H1219 H 0.42528 0.32029 0.24185 0.0
H1220 H 0.44211 0.32999 0.21847 0.0
H1221 H 0.42418 0.30717 0.21586 0.0
H1222 H 0.43616 0.29283 0.18652 0.0
H1223 H 0.44384 0.30541 0.14543 0.0
H1224 H 0.10835 0.44856 0.66239 0.0
H1225 H 0.11222 0.44463 0.70522 0.0
H1226 H 0.16909 0.46635 0.69385 0.0
H1227 H 0.1651 0.46979 0.65059 0.0
H1228 H 0.15202 0.43791 0.73229 0.0
H1229 H 0.1383 0.49448 0.73986 0.0
H1230 H 0.12112 0.47512 0.72436 0.0
H1231 H 0.14325 0.48766 0.71146 0.0
C1232 C 0.12154 0.45181 0.6689 0.0
C1233 C 0.13643 0.45944 0.65336 0.0
C1234 C 0.12375 0.44962 0.69332 0.0
C1235 C 0.14098 0.45546 0.70272 0.0
C1236 C 0.15569 0.46172 0.6869 0.0
H1237 H 0.1646 0.49767 0.84697 0.0
H1238 H 0.16767 0.49222 0.80456 0.0
C1239 C 0.15341 0.46364 0.66225 0.0
C1240 C 0.14383 0.45778 0.72912 0.0
H1241 H 0.13984 0.48106 0.7762 0.0
C1242 C 0.14949 0.4474 0.74198 0.0
C1243 C 0.14082 0.47041 0.7416 0.0
C1244 C 0.1357 0.48269 0.72864 0.0
C1245 C 0.15177 0.44904 0.7672 0.0
C1246 C 0.14805 0.46119 0.77974 0.0
C1247 C 0.14269 0.47173 0.76667 0.0
C1248 C 0.14943 0.46346 0.80638 0.0
C1249 C 0.15834 0.43795 0.78009 0.0
C1250 C 0.1388 0.449 0.82188 0.0
C1251 C 0.13736 0.45209 0.84641 0.0
C1252 C 0.1462 0.46972 0.85554 0.0
C1253 C 0.15762 0.48397 0.84035 0.0
C1254 C 0.15936 0.48085 0.8161 0.0
H1255 H 0.16559 0.4336 0.76765 0.0
H1256 H 0.16742 0.44558 0.79525 0.0
H1257 H 0.14662 0.42569 0.78754 0.0
H1258 H 0.1307 0.43552 0.81479 0.0
H1259 H 0.12828 0.44093 0.85774 0.0
H1260 H 0.70207 0.13789 0.35985 0.0
H1261 H 0.7149 0.14281 0.31886 0.0
H1262 H 0.67646 0.15775 0.2945 0.0
H1263 H 0.66361 0.15269 0.33463 0.0
H1264 H 0.69357 0.1236 0.27692 0.0
H1265 H 0.72436 0.197 0.26516 0.0
H1266 H 0.72058 0.18652 0.29451 0.0
H1267 H 0.70262 0.18748 0.27907 0.0
C1268 C 0.69666 0.14258 0.34579 0.0
C1269 C 0.68181 0.14487 0.35046 0.0
C1270 C 0.70397 0.14535 0.32244 0.0
C1271 C 0.69681 0.15092 0.30374 0.0
C1272 C 0.68245 0.15382 0.30873 0.0
H1273 H 0.66062 0.1477 0.17206 0.0
H1274 H 0.67339 0.15273 0.21229 0.0
C1275 C 0.67502 0.15079 0.33172 0.0
C1276 C 0.70254 0.15191 0.2783 0.0
H1277 H 0.71109 0.17871 0.22896 0.0
C1278 C 0.69815 0.13579 0.26641 0.0
C1279 C 0.70858 0.16783 0.26466 0.0
C1280 C 0.71449 0.18572 0.27657 0.0
C1281 C 0.69758 0.13476 0.2411 0.0
C1282 C 0.70164 0.15029 0.22752 0.0
C1283 C 0.70791 0.1668 0.23941 0.0
C1284 C 0.69554 0.14882 0.20221 0.0
C1285 C 0.69089 0.11676 0.22908 0.0
C1286 C 0.704 0.14529 0.183 0.0
C1287 C 0.69671 0.14248 0.15965 0.0
C1288 C 0.68078 0.14294 0.1554 0.0
C1289 C 0.67279 0.14706 0.17466 0.0
C1290 C 0.68012 0.15002 0.19771 0.0
H1291 H 0.68837 0.10597 0.24221 0.0
H1292 H 0.6782 0.11289 0.21923 0.0
H1293 H 0.70094 0.1177 0.2157 0.0
H1294 H 0.71596 0.14437 0.18615 0.0
H1295 H 0.70316 0.13932 0.14518 0.0
H1296 H 0.15857 0.43548 0.96934 0.0
H1297 H 0.18235 0.43263 0.98983 0.0
H1298 H 0.22155 0.48613 0.96681 0.0
H1299 H 0.19793 0.48913 0.94639 0.0
H1300 H 0.23175 0.45812 0.96135 0.0
H1301 H 0.20743 0.46182 0.05307 0.0
H1302 H 0.19114 0.44573 0.03245 0.0
H1303 H 0.20095 0.46933 0.02648 0.0
C1304 C 0.17228 0.44656 0.96844 0.0
C1305 C 0.17635 0.46256 0.95633 0.0
C1306 C 0.18582 0.44494 0.98025 0.0
C1307 C 0.20365 0.45925 0.98005 0.0
C1308 C 0.20785 0.47496 0.96725 0.0
H1309 H 0.29818 0.48995 0.06485 0.0
H1310 H 0.27137 0.48667 0.04466 0.0
C1311 C 0.19433 0.47665 0.9556 0.0
C1312 C 0.21793 0.45816 0.99369 0.0
H1313 H 0.23312 0.45864 0.05078 0.0
C1314 C 0.23199 0.45807 0.98089 0.0
C1315 C 0.21827 0.45829 0.01918 0.0
C1316 C 0.20374 0.45892 0.03374 0.0
C1317 C 0.24645 0.45819 0.99294 0.0
C1318 C 0.2468 0.45836 0.01844 0.0
C1319 C 0.2327 0.45836 0.03124 0.0
C1320 C 0.26226 0.45962 0.03203 0.0
C1321 C 0.26155 0.45871 0.97837 0.0
C1322 C 0.26578 0.44531 0.03211 0.0
C1323 C 0.28105 0.44709 0.04379 0.0
C1324 C 0.2931 0.46325 0.05548 0.0
C1325 C 0.28921 0.47734 0.05596 0.0
C1326 C 0.27389 0.4755 0.04445 0.0
H1327 H 0.26064 0.46138 0.95898 0.0
H1328 H 0.27478 0.46923 0.98542 0.0
H1329 H 0.26101 0.44555 0.97992 0.0
H1330 H 0.25685 0.43288 0.02283 0.0
H1331 H 0.28367 0.43599 0.04308 0.0
H1332 H 0.72791 0.16059 0.46028 0.0
H1333 H 0.75393 0.18484 0.48143 0.0
H1334 H 0.73171 0.21972 0.47232 0.0
H1335 H 0.70586 0.19579 0.45109 0.0
H1336 H 0.77844 0.22467 0.46312 0.0
H1337 H 0.74064 0.21595 0.54825 0.0
H1338 H 0.73402 0.198 0.52658 0.0
H1339 H 0.72977 0.21607 0.52056 0.0
C1340 C 0.72865 0.17347 0.46261 0.0
C1341 C 0.71478 0.17623 0.45403 0.0
C1342 C 0.7435 0.18729 0.47469 0.0
C1343 C 0.74463 0.20399 0.47859 0.0
C1344 C 0.73101 0.20688 0.46963 0.0
H1345 H 0.81081 0.30263 0.55594 0.0
H1346 H 0.78721 0.27647 0.53475 0.0
C1347 C 0.71627 0.19318 0.45743 0.0
C1348 C 0.7598 0.21841 0.49237 0.0
H1349 H 0.76984 0.24128 0.54572 0.0
C1350 C 0.77667 0.22824 0.48127 0.0
C1351 C 0.75735 0.22307 0.51594 0.0
C1352 C 0.73952 0.2127 0.52872 0.0
C1353 C 0.79107 0.24302 0.49287 0.0
C1354 C 0.78862 0.24777 0.51648 0.0
C1355 C 0.77176 0.23767 0.52767 0.0
C1356 C 0.8031 0.26354 0.52959 0.0
C1357 C 0.80851 0.25381 0.47932 0.0
C1358 C 0.81984 0.26491 0.53415 0.0
C1359 C 0.83344 0.27996 0.54612 0.0
C1360 C 0.83048 0.29383 0.55409 0.0
C1361 C 0.81356 0.29221 0.55004 0.0
C1362 C 0.80003 0.27724 0.53792 0.0
H1363 H 0.80662 0.25152 0.45956 0.0
H1364 H 0.81447 0.26844 0.48286 0.0
H1365 H 0.81824 0.24967 0.4853 0.0
H1366 H 0.8224 0.25431 0.52852 0.0
H1367 H 0.84627 0.28072 0.54912 0.0
H1368 H 0.56739 0.84811 0.03793 0.0
H1369 H 0.5692 0.82414 0.0163 0.0
H1370 H 0.5166 0.78529 0.04266 0.0
H1371 H 0.51465 0.80912 0.06431 0.0
H1372 H 0.54396 0.77479 0.04623 0.0
H1373 H 0.53906 0.79846 0.95471 0.0
H1374 H 0.5559 0.815 0.97432 0.0
H1375 H 0.53252 0.8056 0.98162 0.0
C1376 C 0.55624 0.83445 0.03922 0.0
C1377 C 0.54085 0.83054 0.05278 0.0
C1378 C 0.55726 0.82079 0.02674 0.0
C1379 C 0.54294 0.80298 0.02765 0.0
C1380 C 0.52776 0.79896 0.04165 0.0
H1381 H 0.51529 0.70927 0.94044 0.0
H1382 H 0.51697 0.73526 0.96116 0.0
C1383 C 0.52668 0.81261 0.054 0.0
C1384 C 0.54368 0.78851 0.01392 0.0
H1385 H 0.54355 0.77348 0.9568 0.0
C1386 C 0.54395 0.77453 0.02668 0.0
C1387 C 0.54348 0.78812 0.98842 0.0
C1388 C 0.54259 0.8025 0.97385 0.0
C1389 C 0.54411 0.7602 0.01461 0.0
C1390 C 0.54409 0.75991 0.98911 0.0
C1391 C 0.54373 0.77384 0.97634 0.0
C1392 C 0.54368 0.74483 0.97544 0.0
C1393 C 0.54388 0.74525 0.0292 0.0
C1394 C 0.55832 0.74182 0.97614 0.0
C1395 C 0.55745 0.72703 0.96419 0.0
C1396 C 0.54189 0.71494 0.95138 0.0
C1397 C 0.52746 0.71829 0.95018 0.0
C1398 C 0.52839 0.73314 0.962 0.0
H1399 H 0.5405 0.74575 0.04842 0.0
H1400 H 0.534 0.73192 0.02166 0.0
H1401 H 0.55737 0.74648 0.02844 0.0
H1402 H 0.57034 0.75082 0.98615 0.0
H1403 H 0.56881 0.72484 0.96546 0.0
H1404 H 0.70783 0.51239 0.55546 0.0
H1405 H 0.73433 0.5143 0.53637 0.0
H1406 H 0.75765 0.57173 0.52887 0.0
H1407 H 0.7308 0.56983 0.54746 0.0
H1408 H 0.76066 0.55686 0.48773 0.0
H1409 H 0.78358 0.53116 0.56309 0.0
H1410 H 0.76061 0.51578 0.55533 0.0
H1411 H 0.76677 0.53772 0.56698 0.0
C1412 C 0.71867 0.52548 0.55003 0.0
C1413 C 0.71722 0.54098 0.55313 0.0
C1414 C 0.7339 0.52657 0.53922 0.0
C1415 C 0.74821 0.54321 0.53157 0.0
C1416 C 0.74686 0.55875 0.53477 0.0
H1417 H 0.84933 0.56817 0.45906 0.0
H1418 H 0.8257 0.5708 0.48047 0.0
C1419 C 0.73153 0.55765 0.54546 0.0
C1420 C 0.76406 0.54413 0.51916 0.0
H1421 H 0.79564 0.53109 0.52404 0.0
C1422 C 0.76846 0.55145 0.49582 0.0
C1423 C 0.77434 0.53713 0.52969 0.0
C1424 C 0.77121 0.53019 0.55525 0.0
C1425 C 0.78234 0.55133 0.48245 0.0
C1426 C 0.7921 0.54372 0.49268 0.0
C1427 C 0.78802 0.53678 0.51617 0.0
C1428 C 0.80626 0.54235 0.47903 0.0
C1429 C 0.78616 0.5588 0.45719 0.0
C1430 C 0.80315 0.5255 0.47116 0.0
C1431 C 0.81654 0.52396 0.45881 0.0
C1432 C 0.83341 0.53925 0.45431 0.0
C1433 C 0.83648 0.55615 0.46218 0.0
C1434 C 0.82299 0.55769 0.47437 0.0
H1435 H 0.77596 0.5622 0.45077 0.0
H1436 H 0.79957 0.57119 0.45669 0.0
H1437 H 0.78653 0.54895 0.44455 0.0
H1438 H 0.79034 0.5135 0.47464 0.0
H1439 H 0.81374 0.51074 0.4531 0.0
H1440 H 0.30534 0.81066 0.95163 0.0
H1441 H 0.27924 0.78714 0.97314 0.0
H1442 H 0.25799 0.82292 0.98143 0.0
H1443 H 0.28418 0.84667 0.96008 0.0
H1444 H 0.26755 0.7929 0.0238 0.0
H1445 H 0.21648 0.7729 0.9508 0.0
H1446 H 0.24023 0.78302 0.94435 0.0
H1447 H 0.23151 0.79651 0.95635 0.0
C1448 C 0.29507 0.81352 0.95786 0.0
C1449 C 0.29684 0.83054 0.95411 0.0
C1450 C 0.28019 0.80007 0.9702 0.0
C1451 C 0.26668 0.80329 0.97877 0.0
C1452 C 0.26824 0.82016 0.97481 0.0
H1453 H 0.16414 0.72872 0.04796 0.0
H1454 H 0.18913 0.75519 0.02881 0.0
C1455 C 0.28321 0.8337 0.96264 0.0
C1456 C 0.25127 0.78911 0.99248 0.0
H1457 H 0.20674 0.75756 0.98776 0.0
C1458 C 0.25422 0.78519 0.016 0.0
C1459 C 0.2339 0.77926 0.98231 0.0
C1460 C 0.23019 0.78298 0.95703 0.0
C1461 C 0.24025 0.77156 0.02964 0.0
C1462 C 0.22296 0.7612 0.01919 0.0
C1463 C 0.21996 0.76542 0.99578 0.0
C1464 C 0.20802 0.74554 0.03183 0.0
C1465 C 0.24412 0.7686 0.05524 0.0
C1466 C 0.21024 0.73124 0.03983 0.0
C1467 C 0.19606 0.71622 0.05098 0.0
C1468 C 0.17922 0.715 0.05404 0.0
C1469 C 0.17696 0.72928 0.04597 0.0
C1470 C 0.19122 0.7444 0.03497 0.0
H1471 H 0.25559 0.78099 0.06292 0.0
H1472 H 0.23221 0.76432 0.06702 0.0
H1473 H 0.24784 0.75793 0.05547 0.0
H1474 H 0.22286 0.73151 0.03704 0.0
H1475 H 0.19821 0.70538 0.05672 0.0
H1476 H 0.49437 0.19357 0.55382 0.0
H1477 H 0.49194 0.21727 0.5327 0.0
H1478 H 0.43457 0.18248 0.52677 0.0
H1479 H 0.43685 0.15852 0.54781 0.0
H1480 H 0.47458 0.21193 0.48331 0.0
H1481 H 0.44384 0.23267 0.5559 0.0
H1482 H 0.45682 0.22187 0.56246 0.0
H1483 H 0.43461 0.20899 0.55019 0.0
C1484 C 0.48118 0.19097 0.54825 0.0
C1485 C 0.46579 0.17414 0.55253 0.0
C1486 C 0.47985 0.20453 0.53613 0.0
C1487 C 0.46308 0.20165 0.52827 0.0
C1488 C 0.44761 0.18501 0.53286 0.0
H1489 H 0.4377 0.27793 0.45818 0.0
H1490 H 0.43528 0.25104 0.47733 0.0
C1491 C 0.44895 0.17134 0.54486 0.0
C1492 C 0.46202 0.21589 0.51444 0.0
H1493 H 0.44978 0.24801 0.5189 0.0
C1494 C 0.46909 0.21979 0.49101 0.0
C1495 C 0.45469 0.22596 0.52448 0.0
C1496 C 0.44709 0.22232 0.54968 0.0
C1497 C 0.46916 0.23361 0.47735 0.0
C1498 C 0.46245 0.24419 0.48769 0.0
C1499 C 0.45498 0.23997 0.51097 0.0
C1500 C 0.46374 0.26013 0.4751 0.0
C1501 C 0.47624 0.23656 0.45187 0.0
C1502 C 0.48053 0.27424 0.46755 0.0
C1503 C 0.48192 0.2895 0.45641 0.0
C1504 C 0.46658 0.29115 0.4529 0.0
C1505 C 0.44977 0.27704 0.46052 0.0
C1506 C 0.44837 0.26169 0.47152 0.0
H1507 H 0.47511 0.22409 0.44417 0.0
H1508 H 0.4689 0.24112 0.43997 0.0
H1509 H 0.49069 0.24702 0.45188 0.0
H1510 H 0.49266 0.27363 0.47068 0.0
H1511 H 0.49511 0.30019 0.45103 0.0
H1512 H 0.8132 0.51547 0.05395 0.0
H1513 H 0.78928 0.51771 0.03329 0.0
H1514 H 0.82387 0.57517 0.0271 0.0
H1515 H 0.84811 0.57295 0.04721 0.0
H1516 H 0.77143 0.53511 0.04391 0.0
H1517 H 0.80858 0.56173 0.95795 0.0
H1518 H 0.81648 0.55292 0.9815 0.0
H1519 H 0.81983 0.5753 0.98379 0.0
C1520 C 0.81573 0.52862 0.04829 0.0
C1521 C 0.83262 0.54403 0.05209 0.0
C1522 C 0.80202 0.52987 0.03644 0.0
C1523 C 0.80485 0.54655 0.02816 0.0
C1524 C 0.8215 0.56207 0.03271 0.0
H1525 H 0.72876 0.57187 0.95717 0.0
H1526 H 0.75502 0.5742 0.97818 0.0
C1527 C 0.8353 0.56081 0.04442 0.0
C1528 C 0.7903 0.5475 0.01479 0.0
H1529 H 0.77996 0.55943 0.96081 0.0
C1530 C 0.77334 0.54046 0.02576 0.0
C1531 C 0.79274 0.55445 0.99104 0.0
C1532 C 0.81033 0.56138 0.97775 0.0
C1533 C 0.75879 0.5401 0.01364 0.0
C1534 C 0.76122 0.54691 0.98992 0.0
C1535 C 0.77821 0.55427 0.97905 0.0
C1536 C 0.746 0.54579 0.97587 0.0
C1537 C 0.74085 0.53236 0.02621 0.0
C1538 C 0.73249 0.52911 0.96717 0.0
C1539 C 0.71759 0.52775 0.95502 0.0
C1540 C 0.71586 0.54305 0.95144 0.0
C1541 C 0.72968 0.55984 0.95963 0.0
C1542 C 0.74468 0.5612 0.97165 0.0
H1543 H 0.74192 0.53046 0.04582 0.0
H1544 H 0.73505 0.54127 0.02368 0.0
H1545 H 0.73137 0.51908 0.01818 0.0
H1546 H 0.73335 0.51708 0.97012 0.0
H1547 H 0.7072 0.51461 0.94898 0.0
H1548 H 0.16126 0.72588 0.45937 0.0
H1549 H 0.18571 0.75291 0.47842 0.0
H1550 H 0.22141 0.73164 0.46877 0.0
H1551 H 0.19735 0.70501 0.44929 0.0
H1552 H 0.2045 0.75616 0.51913 0.0
H1553 H 0.25184 0.78149 0.44228 0.0
H1554 H 0.22863 0.76416 0.43884 0.0
H1555 H 0.24513 0.75859 0.44927 0.0
C1556 C 0.17439 0.72709 0.46105 0.0
C1557 C 0.17737 0.71335 0.45262 0.0
C1558 C 0.18834 0.74252 0.47199 0.0
C1559 C 0.20554 0.74451 0.47464 0.0
C1560 C 0.20845 0.73072 0.46635 0.0
H1561 H 0.3027 0.81007 0.55405 0.0
H1562 H 0.27646 0.78657 0.53273 0.0
C1563 C 0.1946 0.7154 0.45532 0.0
C1564 C 0.22028 0.76054 0.487 0.0
H1565 H 0.26443 0.79327 0.48127 0.0
C1566 C 0.21751 0.76443 0.51071 0.0
C1567 C 0.23729 0.77143 0.47602 0.0
C1568 C 0.24085 0.76883 0.45011 0.0
C1569 C 0.23148 0.77841 0.52399 0.0
C1570 C 0.24862 0.78872 0.51332 0.0
C1571 C 0.25129 0.78519 0.48946 0.0
C1572 C 0.26413 0.8029 0.5269 0.0
C1573 C 0.22808 0.78178 0.5496 0.0
C1574 C 0.26586 0.81986 0.53067 0.0
C1575 C 0.28092 0.83339 0.54272 0.0
C1576 C 0.29445 0.83013 0.55133 0.0
C1577 C 0.29251 0.81302 0.54774 0.0
C1578 C 0.27755 0.79958 0.53553 0.0
H1579 H 0.21435 0.77179 0.55588 0.0
H1580 H 0.23811 0.78134 0.56181 0.0
H1581 H 0.22974 0.79543 0.55099 0.0
H1582 H 0.25566 0.82269 0.52402 0.0
H1583 H 0.282 0.84642 0.54517 0.0
H1584 H 0.4937 0.19517 0.95123 0.0
H1585 H 0.49094 0.21895 0.97139 0.0
H1586 H 0.43366 0.18352 0.97805 0.0
H1587 H 0.4364 0.15939 0.9584 0.0
H1588 H 0.47288 0.23602 0.96005 0.0
H1589 H 0.44714 0.19992 0.04692 0.0
H1590 H 0.45616 0.19198 0.02367 0.0
H1591 H 0.43363 0.18821 0.02122 0.0
C1592 C 0.48048 0.19241 0.9569 0.0
C1593 C 0.46527 0.17533 0.95332 0.0
C1594 C 0.47893 0.20604 0.96846 0.0
C1595 C 0.46215 0.20296 0.9767 0.0
C1596 C 0.44682 0.1861 0.97245 0.0
H1597 H 0.43711 0.27954 0.04785 0.0
H1598 H 0.43438 0.2531 0.02677 0.0
C1599 C 0.44838 0.17236 0.96101 0.0
C1600 C 0.46093 0.21753 0.98965 0.0
H1601 H 0.44938 0.22845 0.04352 0.0
C1602 C 0.46768 0.23431 0.97827 0.0
C1603 C 0.45417 0.21535 0.01349 0.0
C1604 C 0.44751 0.19796 0.02718 0.0
C1605 C 0.46801 0.24895 0.99008 0.0
C1606 C 0.46147 0.24682 0.01393 0.0
C1607 C 0.45432 0.22998 0.02518 0.0
C1608 C 0.46286 0.26224 0.0278 0.0
C1609 C 0.47549 0.26671 0.97708 0.0
C1610 C 0.47971 0.27591 0.03576 0.0
C1611 C 0.4813 0.2909 0.04793 0.0
C1612 C 0.46606 0.29259 0.05229 0.0
C1613 C 0.44911 0.27866 0.04475 0.0
C1614 C 0.44752 0.26356 0.03272 0.0
H1615 H 0.47692 0.26531 0.95742 0.0
H1616 H 0.46668 0.2726 0.9799 0.0
H1617 H 0.48896 0.27628 0.98451 0.0
H1618 H 0.49169 0.27506 0.03229 0.0
H1619 H 0.49456 0.30136 0.05346 0.0
H1620 H 0.19571 0.48667 0.56297 0.0
H1621 H 0.21934 0.48378 0.54241 0.0
H1622 H 0.17972 0.43168 0.51548 0.0
H1623 H 0.1559 0.43445 0.53607 0.0
H1624 H 0.22886 0.45579 0.54639 0.0
H1625 H 0.20669 0.46177 0.4543 0.0
H1626 H 0.1995 0.46849 0.481 0.0
H1627 H 0.18983 0.44508 0.47376 0.0
C1628 C 0.19199 0.47453 0.55281 0.0
C1629 C 0.17389 0.46082 0.55109 0.0
C1630 C 0.20554 0.4729 0.54108 0.0
C1631 C 0.20127 0.45762 0.52718 0.0
C1632 C 0.18328 0.44368 0.52587 0.0
H1633 H 0.2819 0.43414 0.46634 0.0
H1634 H 0.25503 0.43126 0.48615 0.0
C1635 C 0.1697 0.44525 0.53776 0.0
C1636 C 0.21572 0.45657 0.51377 0.0
H1637 H 0.23189 0.45779 0.45705 0.0
C1638 C 0.22946 0.45607 0.52686 0.0
C1639 C 0.21657 0.45715 0.48829 0.0
C1640 C 0.20247 0.45828 0.47339 0.0
C1641 C 0.24407 0.45622 0.51514 0.0
C1642 C 0.24491 0.45678 0.48966 0.0
C1643 C 0.23113 0.45721 0.47657 0.0
C1644 C 0.2605 0.45793 0.47639 0.0
C1645 C 0.2588 0.45633 0.53011 0.0
C1646 C 0.27221 0.47368 0.46375 0.0
C1647 C 0.28756 0.47538 0.45245 0.0
C1648 C 0.29143 0.46127 0.45335 0.0
C1649 C 0.27933 0.44526 0.46531 0.0
C1650 C 0.26402 0.44362 0.47675 0.0
H1651 H 0.25777 0.45914 0.54942 0.0
H1652 H 0.25786 0.44299 0.52882 0.0
H1653 H 0.27223 0.46659 0.52326 0.0
H1654 H 0.26971 0.48487 0.46317 0.0
H1655 H 0.29657 0.48788 0.44336 0.0
H1656 H 0.81317 0.3021 0.95436 0.0
H1657 H 0.78949 0.2758 0.97525 0.0
H1658 H 0.82479 0.25387 0.98213 0.0
H1659 H 0.84874 0.2803 0.96133 0.0
H1660 H 0.78564 0.22922 0.96444 0.0
H1661 H 0.79311 0.26584 0.05025 0.0
H1662 H 0.79236 0.27678 0.02297 0.0
H1663 H 0.81103 0.27333 0.02833 0.0
C1664 C 0.81591 0.29165 0.96016 0.0
C1665 C 0.83288 0.29333 0.95623 0.0
C1666 C 0.80237 0.27666 0.97217 0.0
C1667 C 0.80546 0.263 0.98041 0.0
C1668 C 0.82218 0.26433 0.97597 0.0
H1669 H 0.72922 0.15984 0.04875 0.0
H1670 H 0.756 0.18424 0.02936 0.0
C1671 C 0.83583 0.27943 0.96409 0.0
C1672 C 0.79123 0.24751 0.99395 0.0
H1673 H 0.76809 0.23644 0.04711 0.0
C1674 C 0.78187 0.23069 0.9826 0.0
C1675 C 0.78635 0.24956 0.01757 0.0
C1676 C 0.79627 0.2673 0.03068 0.0
C1677 C 0.76727 0.21595 0.99396 0.0
C1678 C 0.76224 0.21802 0.01758 0.0
C1679 C 0.77192 0.23481 0.02906 0.0
C1680 C 0.74643 0.20328 0.03026 0.0
C1681 C 0.75693 0.19856 0.98015 0.0
C1682 C 0.73244 0.20604 0.03813 0.0
C1683 C 0.71729 0.19224 0.04956 0.0
C1684 C 0.71575 0.17532 0.05334 0.0
C1685 C 0.72994 0.17267 0.04596 0.0
C1686 C 0.74519 0.18657 0.03468 0.0
H1687 H 0.75948 0.20061 0.96045 0.0
H1688 H 0.7612 0.18896 0.98628 0.0
H1689 H 0.74223 0.19236 0.98332 0.0
H1690 H 0.73309 0.21882 0.03506 0.0
H1691 H 0.70662 0.19475 0.055 0.0
H1692 H 0.51214 0.81091 0.45219 0.0
H1693 H 0.51463 0.78714 0.47294 0.0
H1694 H 0.57167 0.82288 0.48173 0.0
H1695 H 0.56917 0.84694 0.46157 0.0
H1696 H 0.53286 0.77036 0.46218 0.0
H1697 H 0.55749 0.80544 0.5498 0.0
H1698 H 0.54882 0.81368 0.52649 0.0
H1699 H 0.57145 0.81766 0.5247 0.0
C1700 C 0.52523 0.81375 0.45856 0.0
C1701 C 0.54044 0.83088 0.45533 0.0
C1702 C 0.52663 0.80012 0.47044 0.0
C1703 C 0.54328 0.80325 0.47935 0.0
C1704 C 0.55859 0.82023 0.47564 0.0
H1705 H 0.57094 0.72709 0.54544 0.0
H1706 H 0.57258 0.7534 0.52537 0.0
C1707 C 0.55717 0.83395 0.46392 0.0
C1708 C 0.54449 0.78859 0.49212 0.0
H1709 H 0.55656 0.77748 0.54545 0.0
C1710 C 0.53805 0.77197 0.48038 0.0
C1711 C 0.55124 0.7906 0.51594 0.0
C1712 C 0.55748 0.80774 0.53009 0.0
C1713 C 0.53815 0.75738 0.49175 0.0
C1714 C 0.54484 0.75941 0.51549 0.0
C1715 C 0.55154 0.77604 0.52717 0.0
C1716 C 0.54415 0.74405 0.52876 0.0
C1717 C 0.53102 0.73981 0.4784 0.0
C1718 C 0.5277 0.73028 0.53767 0.0
C1719 C 0.52674 0.71535 0.54928 0.0
C1720 C 0.54221 0.71383 0.5521 0.0
C1721 C 0.55878 0.72784 0.54356 0.0
C1722 C 0.55975 0.74287 0.53209 0.0
H1723 H 0.52883 0.74117 0.45896 0.0
H1724 H 0.54049 0.73459 0.48014 0.0
H1725 H 0.518 0.7297 0.48647 0.0
H1726 H 0.51553 0.73099 0.53538 0.0
H1727 H 0.51376 0.70483 0.55559 0.0
H1728 H 0.39012 0.45604 0.11835 0.0
H1729 H 0.3998 0.43383 0.11594 0.0
H1730 H 0.35981 0.40482 0.06146 0.0
H1731 H 0.34994 0.42716 0.06362 0.0
H1732 H 0.37864 0.39498 0.12257 0.0
H1733 H 0.40887 0.41539 0.03093 0.0
H1734 H 0.40388 0.42979 0.04916 0.0
H1735 H 0.38596 0.4102 0.03511 0.0
C1736 C 0.38327 0.44494 0.10587 0.0
C1737 C 0.36927 0.44349 0.09109 0.0
C1738 C 0.38882 0.43221 0.10458 0.0
C1739 C 0.38065 0.41778 0.08839 0.0
C1740 C 0.36642 0.41598 0.0739 0.0
H1741 H 0.42886 0.34904 0.0625 0.0
H1742 H 0.4066 0.35907 0.06051 0.0
C1743 C 0.36075 0.42872 0.07526 0.0
C1744 C 0.38752 0.40503 0.08667 0.0
H1745 H 0.41418 0.39484 0.05211 0.0
C1746 C 0.38615 0.3947 0.107 0.0
C1747 C 0.39719 0.40458 0.06628 0.0
C1748 C 0.39922 0.4156 0.04409 0.0
C1749 C 0.39488 0.38457 0.10792 0.0
C1750 C 0.40555 0.38508 0.08816 0.0
C1751 C 0.40602 0.39451 0.06725 0.0
C1752 C 0.41806 0.3779 0.09007 0.0
C1753 C 0.39301 0.37381 0.13031 0.0
C1754 C 0.43189 0.38523 0.10722 0.0
C1755 C 0.44459 0.37963 0.10835 0.0
C1756 C 0.44382 0.36657 0.09228 0.0
C1757 C 0.42978 0.35902 0.07526 0.0
C1758 C 0.41708 0.36476 0.07405 0.0
H1759 H 0.3802 0.36995 0.13989 0.0
H1760 H 0.39349 0.36143 0.12596 0.0
H1761 H 0.40424 0.38213 0.1428 0.0
H1762 H 0.43316 0.39565 0.11943 0.0
H1763 H 0.45518 0.38579 0.12168 0.0
H1764 H 0.06887 0.46222 0.59527 0.0
H1765 H 0.03693 0.44038 0.59329 0.0
H1766 H 0.04884 0.399 0.57287 0.0
H1767 H 0.08126 0.42099 0.57464 0.0
H1768 H 0.01668 0.41648 0.55099 0.0
H1769 H 0.01513 0.38123 0.63616 0.0
H1770 H 0.03283 0.40398 0.63018 0.0
H1771 H 0.03211 0.38563 0.6138 0.0
C1772 C 0.06485 0.44852 0.59023 0.0
C1773 C 0.07774 0.44339 0.58519 0.0
C1774 C 0.04651 0.43606 0.58907 0.0
C1775 C 0.04054 0.4181 0.58307 0.0
C1776 C 0.05323 0.41282 0.57765 0.0
H1777 H 0.92285 0.34824 0.56659 0.0
H1778 H 0.95503 0.3592 0.56102 0.0
C1779 C 0.07172 0.42541 0.5786 0.0
C1780 C 0.02094 0.40512 0.58314 0.0
H1781 H 0.98732 0.37433 0.61915 0.0
C1782 C 0.01022 0.40693 0.56554 0.0
C1783 C 0.01264 0.39287 0.60234 0.0
C1784 C 0.02366 0.39072 0.62183 0.0
C1785 C 0.99136 0.39734 0.56718 0.0
C1786 C 0.98304 0.3856 0.58689 0.0
C1787 C 0.99376 0.38326 0.60399 0.0
C1788 C 0.96345 0.37735 0.59147 0.0
C1789 C 0.98048 0.40062 0.5486 0.0
C1790 C 0.95752 0.38352 0.61086 0.0
C1791 C 0.9392 0.37734 0.6141 0.0
C1792 C 0.92636 0.36473 0.59808 0.0
C1793 C 0.93232 0.35795 0.57927 0.0
C1794 C 0.95072 0.36425 0.57597 0.0
H1795 H 0.98909 0.41185 0.53622 0.0
H1796 H 0.97262 0.38827 0.53768 0.0
H1797 H 0.9708 0.40376 0.55756 0.0
H1798 H 0.96714 0.39362 0.62304 0.0
H1799 H 0.93516 0.38282 0.62884 0.0
H1800 H 0.55464 0.93659 0.12198 0.0
H1801 H 0.57701 0.96823 0.11743 0.0
H1802 H 0.60223 0.95522 0.05976 0.0
H1803 H 0.57966 0.92317 0.06409 0.0
H1804 H 0.61615 0.98503 0.12013 0.0
H1805 H 0.59117 0.99416 0.03144 0.0
H1806 H 0.57737 0.97528 0.05081 0.0
H1807 H 0.59587 0.97603 0.03479 0.0
C1808 C 0.56491 0.94032 0.1083 0.0
C1809 C 0.56525 0.92724 0.09332 0.0
C1810 C 0.57775 0.95847 0.10579 0.0
C1811 C 0.59119 0.96408 0.08817 0.0
C1812 C 0.59184 0.95115 0.07334 0.0
H1813 H 0.65885 0.08096 0.05996 0.0
H1814 H 0.64903 0.04872 0.05742 0.0
C1815 C 0.57898 0.93285 0.07592 0.0
C1816 C 0.60416 0.98359 0.08552 0.0
H1817 H 0.61262 0.02018 0.0515 0.0
C1818 C 0.61566 0.9927 0.1049 0.0
C1819 C 0.60358 0.99355 0.06557 0.0
C1820 C 0.59132 0.98438 0.04443 0.0
C1821 C 0.62588 0.01156 0.10543 0.0
C1822 C 0.62431 0.02158 0.0863 0.0
C1823 C 0.61376 0.01246 0.06617 0.0
C1824 C 0.63143 0.04124 0.08841 0.0
C1825 C 0.63781 0.02063 0.12689 0.0
C1826 C 0.62474 0.04767 0.10656 0.0
C1827 C 0.63019 0.06591 0.10799 0.0
C1828 C 0.6425 0.07825 0.09125 0.0
C1829 C 0.64947 0.07185 0.07324 0.0
C1830 C 0.64384 0.05345 0.07172 0.0
H1831 H 0.64213 0.01174 0.13559 0.0
H1832 H 0.64995 0.03344 0.12164 0.0
H1833 H 0.6302 0.02369 0.14043 0.0
H1834 H 0.61489 0.03846 0.11935 0.0
H1835 H 0.62452 0.07029 0.1221 0.0
H1836 H 0.66284 0.58096 0.55953 0.0
H1837 H 0.65197 0.60239 0.55406 0.0
H1838 H 0.61034 0.57345 0.60663 0.0
H1839 H 0.62093 0.55221 0.61231 0.0
H1840 H 0.60046 0.58025 0.55525 0.0
H1841 H 0.65105 0.64048 0.60612 0.0
H1842 H 0.65799 0.62799 0.58701 0.0
H1843 H 0.64631 0.6182 0.61458 0.0
C1844 C 0.65154 0.57933 0.57019 0.0
C1845 C 0.64275 0.56475 0.58629 0.0
C1846 C 0.64536 0.59158 0.56703 0.0
C1847 C 0.63036 0.58947 0.57996 0.0
C1848 C 0.62194 0.57531 0.59649 0.0
H1849 H 0.55243 0.61604 0.60947 0.0
H1850 H 0.57376 0.60568 0.60353 0.0
C1851 C 0.62806 0.56315 0.59968 0.0
C1852 C 0.62238 0.60105 0.5755 0.0
H1853 H 0.62438 0.63998 0.59416 0.0
C1854 C 0.6059 0.5935 0.56324 0.0
C1855 C 0.62954 0.61833 0.58589 0.0
C1856 C 0.6472 0.62687 0.59919 0.0
C1857 C 0.5959 0.60235 0.56224 0.0
C1858 C 0.60242 0.61906 0.5741 0.0
C1859 C 0.61945 0.62718 0.58506 0.0
C1860 C 0.59046 0.62665 0.57834 0.0
C1861 C 0.57797 0.59335 0.54952 0.0
C1862 C 0.59303 0.64225 0.56653 0.0
C1863 C 0.58069 0.64833 0.56985 0.0
C1864 C 0.56569 0.63891 0.58512 0.0
C1865 C 0.56366 0.62364 0.59741 0.0
C1866 C 0.57587 0.61763 0.59406 0.0
H1867 H 0.57701 0.58321 0.53624 0.0
H1868 H 0.56709 0.58635 0.56301 0.0
H1869 H 0.57565 0.60342 0.54007 0.0
H1870 H 0.60428 0.64943 0.55436 0.0
H1871 H 0.5827 0.66013 0.56013 0.0
H1872 H 0.92634 0.58248 0.05783 0.0
H1873 H 0.95842 0.60509 0.05421 0.0
H1874 H 0.97072 0.57964 0.11228 0.0
H1875 H 0.93901 0.55721 0.11613 0.0
H1876 H 0.98803 0.61887 0.11475 0.0
H1877 H 0.99692 0.59322 0.02642 0.0
H1878 H 0.97904 0.5983 0.02952 0.0
H1879 H 0.97791 0.57969 0.04572 0.0
C1880 C 0.93587 0.5818 0.06997 0.0
C1881 C 0.93006 0.56793 0.08719 0.0
C1882 C 0.95419 0.59468 0.06777 0.0
C1883 C 0.96694 0.59392 0.08284 0.0
C1884 C 0.9611 0.58045 0.10045 0.0
H1885 H 0.07146 0.62394 0.1182 0.0
H1886 H 0.03999 0.61533 0.11434 0.0
C1887 C 0.94292 0.56758 0.10256 0.0
C1888 C 0.9865 0.60669 0.08025 0.0
H1889 H 0.02302 0.61434 0.04662 0.0
C1890 C 0.99567 0.61818 0.09961 0.0
C1891 C 0.99643 0.60586 0.06042 0.0
C1892 C 0.98719 0.59359 0.0393 0.0
C1893 C 0.01453 0.62809 0.10028 0.0
C1894 C 0.02449 0.62622 0.08131 0.0
C1895 C 0.01535 0.61573 0.06115 0.0
C1896 C 0.04399 0.63265 0.08386 0.0
C1897 C 0.02368 0.63994 0.12178 0.0
C1898 C 0.05677 0.64514 0.06775 0.0
C1899 C 0.07501 0.6502 0.06993 0.0
C1900 C 0.08063 0.64255 0.08797 0.0
C1901 C 0.06769 0.63011 0.10404 0.0
C1902 C 0.04965 0.62524 0.102 0.0
H1903 H 0.01498 0.64453 0.13038 0.0
H1904 H 0.02645 0.63215 0.13538 0.0
H1905 H 0.03666 0.6519 0.11661 0.0
H1906 H 0.05262 0.65087 0.05346 0.0
H1907 H 0.0846 0.65973 0.05718 0.0
H1908 H 0.45341 0.0696 0.62288 0.0
H1909 H 0.43146 0.03766 0.6198 0.0
H1910 H 0.40544 0.04834 0.56086 0.0
H1911 H 0.42755 0.08059 0.56366 0.0
H1912 H 0.39264 0.01934 0.62244 0.0
H1913 H 0.41809 0.01054 0.53395 0.0
H1914 H 0.43116 0.03002 0.5527 0.0
H1915 H 0.41213 0.02783 0.53639 0.0
C1916 C 0.44299 0.06527 0.60931 0.0
C1917 C 0.44235 0.07774 0.59343 0.0
C1918 C 0.43041 0.04696 0.60762 0.0
C1919 C 0.41695 0.0406 0.58995 0.0
C1920 C 0.41587 0.05296 0.57445 0.0
H1921 H 0.35035 0.9233 0.56318 0.0
H1922 H 0.3602 0.95553 0.5602 0.0
C1923 C 0.42846 0.0714 0.57619 0.0
C1924 C 0.40452 0.02092 0.58771 0.0
H1925 H 0.39663 0.98442 0.55382 0.0
C1926 C 0.39326 0.01172 0.60724 0.0
C1927 C 0.40527 0.011 0.56779 0.0
C1928 C 0.41735 0.02024 0.5465 0.0
C1929 C 0.38337 0.99284 0.60791 0.0
C1930 C 0.38503 0.9829 0.58873 0.0
C1931 C 0.3954 0.99208 0.56851 0.0
C1932 C 0.37813 0.96327 0.59084 0.0
C1933 C 0.37163 0.98368 0.62949 0.0
C1934 C 0.38506 0.95701 0.60887 0.0
C1935 C 0.37959 0.93877 0.61054 0.0
C1936 C 0.36703 0.92626 0.59417 0.0
C1937 C 0.35994 0.93252 0.57617 0.0
C1938 C 0.36558 0.95092 0.5744 0.0
H1939 H 0.36722 0.99244 0.63837 0.0
H1940 H 0.35954 0.9708 0.62434 0.0
H1941 H 0.37942 0.98074 0.64287 0.0
H1942 H 0.39503 0.96632 0.62145 0.0
H1943 H 0.38538 0.93453 0.62464 0.0
H1944 H 0.5542 0.61923 0.8923 0.0
H1945 H 0.57687 0.61045 0.89709 0.0
H1946 H 0.60415 0.65198 0.95037 0.0
H1947 H 0.58124 0.66102 0.94576 0.0
H1948 H 0.61618 0.63354 0.89135 0.0
H1949 H 0.59446 0.60313 0.98274 0.0
H1950 H 0.57955 0.60661 0.96339 0.0
H1951 H 0.59836 0.62551 0.97726 0.0
C1952 C 0.56498 0.62661 0.90507 0.0
C1953 C 0.5658 0.64084 0.91872 0.0
C1954 C 0.57798 0.62156 0.90772 0.0
C1955 C 0.59211 0.63048 0.92415 0.0
C1956 C 0.59324 0.64484 0.9377 0.0
H1957 H 0.65992 0.58059 0.94805 0.0
H1958 H 0.65097 0.60364 0.95168 0.0
C1959 C 0.58019 0.65002 0.93497 0.0
C1960 C 0.60531 0.62425 0.92682 0.0
H1961 H 0.61421 0.59669 0.96141 0.0
C1962 C 0.61611 0.62586 0.90692 0.0
C1963 C 0.60526 0.61431 0.94719 0.0
C1964 C 0.59379 0.61215 0.96893 0.0
C1965 C 0.62596 0.61684 0.90622 0.0
C1966 C 0.62475 0.60572 0.92576 0.0
C1967 C 0.61507 0.60521 0.94644 0.0
C1968 C 0.63098 0.59249 0.92341 0.0
C1969 C 0.63692 0.61861 0.88407 0.0
C1970 C 0.62259 0.57856 0.90654 0.0
C1971 C 0.62751 0.56542 0.90454 0.0
C1972 C 0.64102 0.56585 0.91939 0.0
C1973 C 0.64956 0.57992 0.93624 0.0
C1974 C 0.64445 0.59307 0.93838 0.0
H1975 H 0.64103 0.63145 0.87445 0.0
H1976 H 0.64914 0.61794 0.88877 0.0
H1977 H 0.62865 0.6074 0.87151 0.0
H1978 H 0.61195 0.57769 0.89509 0.0
H1979 H 0.62062 0.55484 0.89134 0.0
H1980 H 0.92608 0.57727 0.43915 0.0
H1981 H 0.95835 0.5991 0.44244 0.0
H1982 H 0.96897 0.57378 0.38252 0.0
H1983 H 0.93701 0.55215 0.37894 0.0
H1984 H 0.98598 0.59139 0.45126 0.0
H1985 H 0.99735 0.62693 0.36435 0.0
H1986 H 0.97517 0.61333 0.37711 0.0
H1987 H 0.98564 0.60297 0.36053 0.0
C1988 C 0.93525 0.57653 0.42643 0.0
C1989 C 0.92886 0.56294 0.40871 0.0
C1990 C 0.9537 0.58899 0.42839 0.0
C1991 C 0.96606 0.58826 0.41249 0.0
C1992 C 0.95968 0.57488 0.39465 0.0
H1993 H 0.0723 0.61569 0.38884 0.0
H1994 H 0.04044 0.60591 0.39082 0.0
C1995 C 0.94134 0.56242 0.39274 0.0
C1996 C 0.98576 0.60057 0.41523 0.0
H1997 H 0.02347 0.62813 0.38271 0.0
C1998 C 0.99419 0.59979 0.43653 0.0
C1999 C 0.99644 0.61161 0.39604 0.0
C2000 C 0.98817 0.61393 0.37332 0.0
C2001 C 0.01306 0.60869 0.43842 0.0
C2002 C 0.02371 0.61871 0.41858 0.0
C2003 C 0.01527 0.62037 0.39787 0.0
C2004 C 0.04335 0.62544 0.41765 0.0
C2005 C 0.02151 0.60639 0.46097 0.0
C2006 C 0.05567 0.63986 0.43201 0.0
C2007 C 0.07413 0.64563 0.4309 0.0
C2008 C 0.0805 0.63698 0.41549 0.0
C2009 C 0.068 0.62266 0.40104 0.0
C2010 C 0.04971 0.61704 0.40206 0.0
H2011 H 0.01131 0.59699 0.47402 0.0
H2012 H 0.03072 0.60125 0.45631 0.0
H2013 H 0.02965 0.61965 0.46989 0.0
H2014 H 0.05101 0.64661 0.44404 0.0
H2015 H 0.08335 0.65668 0.44226 0.0
H2016 H 0.4571 0.07018 0.89048 0.0
H2017 H 0.43624 0.03814 0.89503 0.0
H2018 H 0.40657 0.04905 0.94857 0.0
H2019 H 0.42758 0.08154 0.94423 0.0
H2020 H 0.4299 0.02034 0.94451 0.0
H2021 H 0.36862 0.01101 0.89685 0.0
H2022 H 0.39068 0.02926 0.88891 0.0
H2023 H 0.38076 0.02976 0.9171 0.0
C2024 C 0.44607 0.06593 0.9031 0.0
C2025 C 0.44413 0.07855 0.91709 0.0
C2026 C 0.43414 0.04754 0.90564 0.0
C2027 C 0.41989 0.04125 0.9221 0.0
C2028 C 0.41744 0.05369 0.93564 0.0
H2029 H 0.34965 0.92302 0.93988 0.0
H2030 H 0.3607 0.95529 0.946 0.0
C2031 C 0.42947 0.07223 0.93312 0.0
C2032 C 0.40858 0.02159 0.92586 0.0
H2033 H 0.3694 0.98481 0.90762 0.0
C2034 C 0.41651 0.01257 0.93693 0.0
C2035 C 0.3911 0.01154 0.91603 0.0
C2036 C 0.38215 0.02076 0.90399 0.0
C2037 C 0.40782 0.99373 0.93729 0.0
C2038 C 0.39088 0.98365 0.92599 0.0
C2039 C 0.38241 0.99261 0.91624 0.0
C2040 C 0.38313 0.96413 0.92144 0.0
C2041 C 0.41717 0.98472 0.94887 0.0
C2042 C 0.39185 0.95851 0.90524 0.0
C2043 C 0.38564 0.94026 0.90167 0.0
C2044 C 0.37048 0.92709 0.91422 0.0
C2045 C 0.36137 0.93276 0.92995 0.0
C2046 C 0.36764 0.95117 0.93347 0.0
H2047 H 0.42752 0.99373 0.96203 0.0
H2048 H 0.40735 0.97214 0.95821 0.0
H2049 H 0.42397 0.98114 0.9347 0.0
H2050 H 0.40371 0.96832 0.89559 0.0
H2051 H 0.39299 0.93654 0.8893 0.0
H2052 H 0.3882 0.45269 0.39228 0.0
H2053 H 0.39737 0.43015 0.39457 0.0
H2054 H 0.3591 0.403 0.45162 0.0
H2055 H 0.34964 0.42573 0.44946 0.0
H2056 H 0.39617 0.41041 0.46 0.0
H2057 H 0.36865 0.37663 0.37264 0.0
H2058 H 0.38082 0.40074 0.3704 0.0
H2059 H 0.36048 0.38976 0.38793 0.0
C2060 C 0.38159 0.44192 0.4053 0.0
C2061 C 0.36814 0.44106 0.4207 0.0
C2062 C 0.3868 0.42895 0.40644 0.0
C2063 C 0.37875 0.41477 0.42301 0.0
C2064 C 0.36535 0.41377 0.43854 0.0
H2065 H 0.42779 0.34593 0.44531 0.0
H2066 H 0.40548 0.35574 0.44929 0.0
C2067 C 0.35995 0.42674 0.43725 0.0
C2068 C 0.38526 0.40171 0.42445 0.0
H2069 H 0.39331 0.37405 0.38883 0.0
C2070 C 0.39517 0.40205 0.44475 0.0
C2071 C 0.3839 0.39082 0.40453 0.0
C2072 C 0.37273 0.38929 0.38272 0.0
C2073 C 0.40494 0.39289 0.44485 0.0
C2074 C 0.40455 0.38298 0.42422 0.0
C2075 C 0.39366 0.3817 0.40459 0.0
C2076 C 0.41711 0.37595 0.42132 0.0
C2077 C 0.41661 0.39489 0.46629 0.0
C2078 C 0.43072 0.38371 0.40389 0.0
C2079 C 0.44339 0.37816 0.40153 0.0
C2080 C 0.44273 0.36459 0.41648 0.0
C2081 C 0.42872 0.35641 0.4335 0.0
C2082 C 0.41603 0.36207 0.43591 0.0
H2083 H 0.41712 0.40483 0.47956 0.0
H2084 H 0.41121 0.38171 0.47549 0.0
H2085 H 0.43054 0.39916 0.46034 0.0
H2086 H 0.43179 0.39442 0.39241 0.0
H2087 H 0.45388 0.38475 0.38814 0.0
H2088 H 0.08287 0.42729 0.9478 0.0
H2089 H 0.05058 0.40514 0.94899 0.0
H2090 H 0.04164 0.43174 0.88915 0.0
H2091 H 0.07362 0.45374 0.8877 0.0
H2092 H 0.02245 0.413 0.95617 0.0
H2093 H 0.01454 0.3786 0.86895 0.0
H2094 H 0.03614 0.39189 0.88339 0.0
H2095 H 0.02645 0.40265 0.86604 0.0
C2096 C 0.07407 0.42826 0.93467 0.0
C2097 C 0.0809 0.44231 0.91762 0.0
C2098 C 0.05562 0.41562 0.93542 0.0
C2099 C 0.04376 0.41664 0.91893 0.0
C2100 C 0.05059 0.43046 0.90173 0.0
H2101 H 0.93751 0.38676 0.88734 0.0
H2102 H 0.9694 0.39668 0.89028 0.0
C2103 C 0.06892 0.44313 0.90105 0.0
C2104 C 0.02404 0.40415 0.92043 0.0
H2105 H 0.98768 0.37661 0.88575 0.0
C2106 C 0.01482 0.40468 0.94104 0.0
C2107 C 0.01415 0.39328 0.90068 0.0
C2108 C 0.02334 0.3914 0.87861 0.0
C2109 C 0.99591 0.39566 0.9417 0.0
C2110 C 0.98603 0.38569 0.92134 0.0
C2111 C 0.99527 0.38432 0.90131 0.0
C2112 C 0.96636 0.37852 0.91925 0.0
C2113 C 0.98666 0.39782 0.96353 0.0
C2114 C 0.95396 0.36474 0.93433 0.0
C2115 C 0.93553 0.35894 0.9327 0.0
C2116 C 0.92925 0.36689 0.91597 0.0
C2117 C 0.94177 0.38036 0.90054 0.0
C2118 C 0.96006 0.38605 0.90213 0.0
H2119 H 0.99634 0.40796 0.97639 0.0
H2120 H 0.97678 0.4019 0.958 0.0
H2121 H 0.9792 0.38474 0.97306 0.0
H2122 H 0.95853 0.35858 0.94748 0.0
H2123 H 0.92629 0.34853 0.94484 0.0
H2124 H 0.57971 0.92406 0.44163 0.0
H2125 H 0.60073 0.95648 0.44712 0.0
H2126 H 0.57101 0.96848 0.39501 0.0
H2127 H 0.5502 0.93659 0.38933 0.0
H2128 H 0.62174 0.98556 0.4081 0.0
H2129 H 0.57181 0.9948 0.4603 0.0
H2130 H 0.57064 0.97325 0.45746 0.0
H2131 H 0.56305 0.98172 0.43326 0.0
C2132 C 0.57775 0.9336 0.43121 0.0
C2133 C 0.56312 0.92761 0.41518 0.0
C2134 C 0.58977 0.9521 0.43437 0.0
C2135 C 0.58726 0.96483 0.42166 0.0
C2136 C 0.57306 0.95887 0.40518 0.0
H2137 H 0.61864 0.07077 0.38855 0.0
H2138 H 0.60733 0.03876 0.39378 0.0
C2139 C 0.56116 0.94055 0.40198 0.0
C2140 C 0.59887 0.98445 0.42573 0.0
H2141 H 0.59601 0.02122 0.44241 0.0
C2142 C 0.61636 0.9934 0.41615 0.0
C2143 C 0.59179 0.9946 0.43627 0.0
C2144 C 0.57334 0.98563 0.44762 0.0
C2145 C 0.62646 0.01234 0.41539 0.0
C2146 C 0.61883 0.02243 0.42448 0.0
C2147 C 0.6018 0.01344 0.43535 0.0
C2148 C 0.62716 0.04208 0.42036 0.0
C2149 C 0.64471 0.02148 0.40354 0.0
C2150 C 0.64228 0.05465 0.4334 0.0
C2151 C 0.64887 0.07317 0.43049 0.0
C2152 C 0.64038 0.07938 0.41453 0.0
C2153 C 0.62555 0.06662 0.40107 0.0
C2154 C 0.61902 0.04824 0.40401 0.0
H2155 H 0.64842 0.01169 0.39637 0.0
H2156 H 0.64491 0.03014 0.38853 0.0
H2157 H 0.65505 0.03031 0.41682 0.0
H2158 H 0.64867 0.05013 0.44626 0.0
H2159 H 0.66027 0.08257 0.44122 0.0
H2160 H 0.51322 0.62736 0.98532 0.0
H2161 H 0.48708 0.6031 0.00571 0.0
H2162 H 0.45251 0.60466 0.95033 0.0
H2163 H 0.4784 0.6307 0.93237 0.0
H2164 H 0.43501 0.59706 0.98606 0.0
H2165 H 0.47651 0.57186 0.01146 0.0
H2166 H 0.47695 0.57485 0.97929 0.0
H2167 H 0.46444 0.5528 0.99217 0.0
C2168 C 0.49999 0.62241 0.97756 0.0
C2169 C 0.49788 0.62996 0.95625 0.0
C2170 C 0.48504 0.60834 0.98903 0.0
C2171 C 0.46774 0.60106 0.97889 0.0
C2172 C 0.46563 0.60951 0.95839 0.0
H2173 H 0.38335 0.49341 0.02001 0.0
H2174 H 0.40714 0.51956 0.99878 0.0
C2175 C 0.48048 0.62413 0.94765 0.0
C2176 C 0.45179 0.58505 0.98975 0.0
H2177 H 0.43711 0.54326 0.01354 0.0
C2178 C 0.43552 0.58523 0.99172 0.0
C2179 C 0.45211 0.56938 0.99727 0.0
C2180 C 0.4684 0.56716 0.99469 0.0
C2181 C 0.41974 0.57038 1.00059 0.0
C2182 C 0.42037 0.55515 0.00911 0.0
C2183 C 0.43657 0.55494 0.00725 0.0
C2184 C 0.40459 0.5393 0.02024 0.0
C2185 C 0.40252 0.57108 0.99987 0.0
C2186 C 0.39484 0.54152 0.03897 0.0
C2187 C 0.38103 0.52657 0.05067 0.0
C2188 C 0.37728 0.50916 0.04466 0.0
C2189 C 0.38641 0.50679 0.02536 0.0
C2190 C 0.4 0.52173 0.0133 0.0
H2191 H 0.4028 0.57994 0.98508 0.0
H2192 H 0.39059 0.55752 0.99727 0.0
H2193 H 0.40099 0.57679 0.01705 0.0
H2194 H 0.39826 0.55481 0.04519 0.0
H2195 H 0.37358 0.52862 0.06488 0.0
H2196 H 0.89796 0.38744 0.53685 0.0
H2197 H 0.89831 0.41293 0.51642 0.0
H2198 H 0.84996 0.40198 0.55435 0.0
H2199 H 0.85004 0.37688 0.57537 0.0
H2200 H 0.87341 0.41094 0.48616 0.0
H2201 H 0.87839 0.45583 0.56165 0.0
H2202 H 0.88609 0.43985 0.56372 0.0
H2203 H 0.86242 0.43232 0.56551 0.0
C2204 C 0.88769 0.39081 0.5412 0.0
C2205 C 0.87426 0.38057 0.5581 0.0
C2206 C 0.88784 0.40532 0.52951 0.0
C2207 C 0.87434 0.40965 0.53407 0.0
C2208 C 0.86088 0.39938 0.55104 0.0
H2209 H 0.85161 0.47523 0.43341 0.0
H2210 H 0.85076 0.44979 0.45476 0.0
C2211 C 0.86089 0.38499 0.56301 0.0
C2212 C 0.87362 0.42388 0.51948 0.0
H2213 H 0.87397 0.46382 0.52309 0.0
C2214 C 0.87349 0.42249 0.49427 0.0
C2215 C 0.87382 0.43903 0.52994 0.0
C2216 C 0.87527 0.44202 0.55671 0.0
C2217 C 0.87392 0.43591 0.47933 0.0
C2218 C 0.87403 0.45101 0.48978 0.0
C2219 C 0.8738 0.45223 0.515 0.0
C2220 C 0.87515 0.46612 0.47515 0.0
C2221 C 0.87549 0.43438 0.45258 0.0
C2222 C 0.88893 0.48385 0.47969 0.0
C2223 C 0.88924 0.49837 0.46778 0.0
C2224 C 0.876 0.49544 0.45072 0.0
C2225 C 0.86233 0.47775 0.44589 0.0
C2226 C 0.86187 0.46321 0.45805 0.0
H2227 H 0.87838 0.42353 0.44768 0.0
H2228 H 0.86277 0.4315 0.44365 0.0
H2229 H 0.88651 0.44731 0.44568 0.0
H2230 H 0.89927 0.4865 0.49288 0.0
H2231 H 0.89973 0.51193 0.47208 0.0
H2232 H 0.39032 0.89501 0.97289 0.0
H2233 H 0.41448 0.89316 0.99374 0.0
H2234 H 0.40167 0.84509 0.95366 0.0
H2235 H 0.37797 0.84745 0.93212 0.0
H2236 H 0.41085 0.86725 0.02303 0.0
H2237 H 0.45523 0.87093 0.94758 0.0
H2238 H 0.43866 0.87779 0.94467 0.0
H2239 H 0.43185 0.85429 0.94449 0.0
C2240 C 0.39301 0.88433 0.96817 0.0
C2241 C 0.38268 0.87166 0.9505 0.0
C2242 C 0.40674 0.8832 0.98014 0.0
C2243 C 0.41015 0.86912 0.97513 0.0
C2244 C 0.39977 0.85641 0.9574 0.0
H2245 H 0.4771 0.84783 0.07674 0.0
H2246 H 0.45082 0.84548 0.05578 0.0
C2247 C 0.38619 0.85772 0.94512 0.0
C2248 C 0.42375 0.8673 0.98974 0.0
H2249 H 0.46324 0.86677 0.98629 0.0
C2250 C 0.42229 0.8671 0.01497 0.0
C2251 C 0.4386 0.86687 0.97933 0.0
C2252 C 0.44134 0.86755 0.95252 0.0
C2253 C 0.43556 0.86728 0.02998 0.0
C2254 C 0.45069 0.86744 0.01954 0.0
C2255 C 0.45175 0.86682 0.99434 0.0
C2256 C 0.4662 0.8694 0.03406 0.0
C2257 C 0.43374 0.86836 0.05678 0.0
C2258 C 0.48364 0.88345 0.02875 0.0
C2259 C 0.49861 0.88459 0.04041 0.0
C2260 C 0.49644 0.87197 0.05805 0.0
C2261 C 0.47903 0.85807 0.06376 0.0
C2262 C 0.46402 0.85676 0.05181 0.0
H2263 H 0.42313 0.87161 0.06169 0.0
H2264 H 0.43027 0.8553 0.0652 0.0
H2265 H 0.44668 0.87886 0.06429 0.0
H2266 H 0.48573 0.89334 0.0151 0.0
H2267 H 0.51194 0.89523 0.03542 0.0
H2268 H 0.49491 0.37933 0.48797 0.0
H2269 H 0.52115 0.40353 0.50839 0.0
H2270 H 0.5557 0.40081 0.45389 0.0
H2271 H 0.52978 0.37477 0.43624 0.0
H2272 H 0.57301 0.40854 0.4894 0.0
H2273 H 0.54448 0.45369 0.49431 0.0
H2274 H 0.53267 0.43508 0.51439 0.0
H2275 H 0.5315 0.43138 0.48235 0.0
C2276 C 0.50818 0.38401 0.48046 0.0
C2277 C 0.5103 0.37618 0.45943 0.0
C2278 C 0.52319 0.39804 0.49192 0.0
C2279 C 0.54052 0.40501 0.48198 0.0
C2280 C 0.54259 0.39624 0.4618 0.0
H2281 H 0.62682 0.51304 0.5181 0.0
H2282 H 0.60225 0.48656 0.49835 0.0
C2283 C 0.5277 0.38163 0.45119 0.0
C2284 C 0.55662 0.42102 0.49259 0.0
H2285 H 0.57226 0.46351 0.5145 0.0
C2286 C 0.57278 0.42061 0.49454 0.0
C2287 C 0.55665 0.43698 0.49956 0.0
C2288 C 0.54043 0.43935 0.4973 0.0
C2289 C 0.58881 0.43555 0.50258 0.0
C2290 C 0.58859 0.45115 0.51038 0.0
C2291 C 0.57249 0.45156 0.50872 0.0
C2292 C 0.60471 0.46714 0.52065 0.0
C2293 C 0.60586 0.43454 0.50169 0.0
C2294 C 0.61463 0.46518 0.53936 0.0
C2295 C 0.62886 0.48029 0.55019 0.0
C2296 C 0.6329 0.49763 0.54334 0.0
C2297 C 0.62358 0.49973 0.52406 0.0
C2298 C 0.60954 0.4846 0.51287 0.0
H2299 H 0.60517 0.42521 0.48729 0.0
H2300 H 0.61787 0.44793 0.49837 0.0
H2301 H 0.6076 0.42921 0.51908 0.0
H2302 H 0.61104 0.452 0.54623 0.0
H2303 H 0.63639 0.47841 0.56445 0.0
H2304 H 0.16133 0.52771 0.94564 0.0
H2305 H 0.16254 0.55407 0.96427 0.0
H2306 H 0.11746 0.51928 0.00966 0.0
H2307 H 0.11543 0.49292 0.98941 0.0
H2308 H 0.11163 0.54297 0.99375 0.0
H2309 H 0.18211 0.57968 0.02424 0.0
H2310 H 0.18136 0.57629 0.99235 0.0
H2311 H 0.17205 0.55716 0.01243 0.0
C2312 C 0.15157 0.52579 0.95941 0.0
C2313 C 0.13777 0.50846 0.96538 0.0
C2314 C 0.15253 0.54085 0.97051 0.0
C2315 C 0.14021 0.53881 0.98865 0.0
C2316 C 0.12705 0.52131 0.99559 0.0
H2317 H 0.15717 0.63104 0.07366 0.0
H2318 H 0.15708 0.60487 0.05643 0.0
C2319 C 0.12589 0.50625 0.9841 0.0
C2320 C 0.14016 0.55479 0.99911 0.0
H2321 H 0.16723 0.59694 0.02152 0.0
C2322 C 0.12377 0.55468 1.00015 0.0
C2323 C 0.15591 0.57008 0.00771 0.0
C2324 C 0.17378 0.57072 0.00936 0.0
C2325 C 0.12258 0.56925 0.00947 0.0
C2326 C 0.13849 0.58497 0.01708 0.0
C2327 C 0.15494 0.58508 0.01583 0.0
C2328 C 0.13847 0.60107 0.02745 0.0
C2329 C 0.10406 0.56712 0.01127 0.0
C2330 C 0.12856 0.60831 0.01686 0.0
C2331 C 0.12758 0.62244 0.02797 0.0
C2332 C 0.13708 0.63011 0.04935 0.0
C2333 C 0.14859 0.62436 0.05835 0.0
C2334 C 0.14888 0.60966 0.04801 0.0
H2335 H 0.09358 0.55278 0.01381 0.0
H2336 H 0.10298 0.57492 0.02637 0.0
H2337 H 0.10095 0.57173 0.9942 0.0
H2338 H 0.12141 0.60296 1.00011 0.0
H2339 H 0.11935 0.62734 0.0199 0.0
H2340 H 0.52869 0.15778 0.56587 0.0
H2341 H 0.55499 0.15975 0.54558 0.0
H2342 H 0.52037 0.11013 0.50804 0.0
H2343 H 0.49404 0.10865 0.52763 0.0
H2344 H 0.5695 0.13974 0.54655 0.0
H2345 H 0.54869 0.14045 0.45271 0.0
H2346 H 0.53687 0.14278 0.47808 0.0
H2347 H 0.5321 0.12081 0.46822 0.0
C2348 C 0.52679 0.14732 0.55327 0.0
C2349 C 0.5095 0.13289 0.54855 0.0
C2350 C 0.54177 0.14847 0.54163 0.0
C2351 C 0.53969 0.13525 0.52492 0.0
C2352 C 0.52233 0.12078 0.52028 0.0
H2353 H 0.62244 0.11163 0.47927 0.0
H2354 H 0.59725 0.11243 0.49905 0.0
C2355 C 0.50731 0.11982 0.53163 0.0
C2356 C 0.55572 0.13635 0.51291 0.0
H2357 H 0.57284 0.13451 0.45823 0.0
C2358 C 0.57009 0.13837 0.52728 0.0
C2359 C 0.55699 0.13548 0.48756 0.0
C2360 C 0.54293 0.13498 0.47075 0.0
C2361 C 0.58522 0.13863 0.51719 0.0
C2362 C 0.58599 0.13675 0.49198 0.0
C2363 C 0.57202 0.13551 0.47753 0.0
C2364 C 0.60125 0.13624 0.48018 0.0
C2365 C 0.60033 0.14117 0.5336 0.0
C2366 C 0.61164 0.14915 0.46271 0.0
C2367 C 0.62585 0.14856 0.45129 0.0
C2368 C 0.62966 0.13485 0.45678 0.0
C2369 C 0.61952 0.12215 0.47454 0.0
C2370 C 0.60526 0.12269 0.48592 0.0
H2371 H 0.59994 0.14728 0.5511 0.0
H2372 H 0.599 0.12787 0.53742 0.0
H2373 H 0.61363 0.14984 0.52503 0.0
H2374 H 0.6088 0.15973 0.45802 0.0
H2375 H 0.63391 0.15883 0.4382 0.0
H2376 H 0.53015 0.37584 0.06857 0.0
H2377 H 0.55585 0.40164 0.05004 0.0
H2378 H 0.52032 0.4046 0.99741 0.0
H2379 H 0.49442 0.38065 0.0187 0.0
H2380 H 0.57231 0.40908 0.01363 0.0
H2381 H 0.54439 0.45483 0.01138 0.0
H2382 H 0.53158 0.43261 0.02368 0.0
H2383 H 0.53188 0.43613 0.99167 0.0
C2384 C 0.52784 0.38271 0.05385 0.0
C2385 C 0.5103 0.37739 0.04639 0.0
C2386 C 0.54257 0.39718 0.04274 0.0
C2387 C 0.54017 0.40594 0.02283 0.0
C2388 C 0.52264 0.39912 0.01367 0.0
H2389 H 0.63474 0.47917 0.93732 0.0
H2390 H 0.60955 0.45266 0.95572 0.0
C2391 C 0.50782 0.38523 0.02563 0.0
C2392 C 0.5561 0.42182 0.01167 0.0
H2393 H 0.57158 0.46429 0.98979 0.0
C2394 C 0.57209 0.4212 0.00877 0.0
C2395 C 0.55614 0.43784 0.00505 0.0
C2396 C 0.54012 0.44043 0.00835 0.0
C2397 C 0.58799 0.43602 1.00012 0.0
C2398 C 0.58777 0.45169 0.99274 0.0
C2399 C 0.57181 0.45228 0.99529 0.0
C2400 C 0.60379 0.46767 0.98224 0.0
C2401 C 0.60494 0.4348 0.99995 0.0
C2402 C 0.60888 0.48509 0.99052 0.0
C2403 C 0.62278 0.50025 0.97925 0.0
C2404 C 0.63173 0.49828 0.95938 0.0
C2405 C 0.62746 0.48097 0.952 0.0
C2406 C 0.61334 0.4658 0.96294 0.0
H2407 H 0.60445 0.42531 0.01397 0.0
H2408 H 0.60625 0.42957 0.98223 0.0
H2409 H 0.61709 0.44811 1.00313 0.0
H2410 H 0.6019 0.48697 0.00551 0.0
H2411 H 0.62623 0.51353 0.98566 0.0
H2412 H 0.1143 0.62039 0.47938 0.0
H2413 H 0.11601 0.59576 0.49925 0.0
H2414 H 0.16414 0.60916 0.45891 0.0
H2415 H 0.16208 0.63347 0.43861 0.0
H2416 H 0.14181 0.57404 0.45841 0.0
H2417 H 0.14857 0.59776 0.55242 0.0
H2418 H 0.12877 0.59554 0.53832 0.0
H2419 H 0.15064 0.61181 0.52702 0.0
C2420 C 0.1252 0.618 0.47484 0.0
C2421 C 0.13776 0.62837 0.45707 0.0
C2422 C 0.1263 0.60408 0.48633 0.0
C2423 C 0.14036 0.60075 0.48086 0.0
C2424 C 0.15318 0.61146 0.46346 0.0
H2425 H 0.16094 0.52728 0.56656 0.0
H2426 H 0.16352 0.55403 0.54665 0.0
C2427 C 0.15194 0.62524 0.45178 0.0
C2428 C 0.14128 0.58563 0.4925 0.0
H2429 H 0.1413 0.56724 0.54695 0.0
C2430 C 0.14169 0.57257 0.47774 0.0
C2431 C 0.14166 0.58394 0.51783 0.0
C2432 C 0.14259 0.59812 0.53481 0.0
C2433 C 0.1418 0.55754 0.48749 0.0
C2434 C 0.14113 0.55531 0.5128 0.0
C2435 C 0.14142 0.56872 0.5276 0.0
C2436 C 0.1399 0.5391 0.52431 0.0
C2437 C 0.1429 0.54438 0.47051 0.0
C2438 C 0.12576 0.52183 0.51845 0.0
C2439 C 0.12438 0.50662 0.52968 0.0
C2440 C 0.13671 0.50846 0.5476 0.0
C2441 C 0.15098 0.52565 0.55327 0.0
C2442 C 0.15251 0.54087 0.54182 0.0
H2443 H 0.14915 0.55085 0.45306 0.0
H2444 H 0.1508 0.53863 0.47847 0.0
H2445 H 0.12912 0.53321 0.46665 0.0
H2446 H 0.11565 0.52012 0.50541 0.0
H2447 H 0.11341 0.49343 0.52485 0.0
H2448 H 0.63231 0.15509 0.07008 0.0
H2449 H 0.60641 0.1551 0.05217 0.0
H2450 H 0.60377 0.11772 0.99789 0.0
H2451 H 0.62777 0.11554 0.0186 0.0
H2452 H 0.59884 0.16471 0.01668 0.0
H2453 H 0.55355 0.09107 0.01133 0.0
H2454 H 0.5757 0.10031 0.02378 0.0
H2455 H 0.57238 0.09779 0.99167 0.0
C2456 C 0.62548 0.14614 0.05514 0.0
C2457 C 0.63089 0.13413 0.04705 0.0
C2458 C 0.61096 0.14649 0.04437 0.0
C2459 C 0.60225 0.13567 0.02416 0.0
C2460 C 0.60919 0.12523 0.01438 0.0
H2461 H 0.5295 0.15891 0.94114 0.0
H2462 H 0.5558 0.15985 0.95951 0.0
C2463 C 0.62311 0.12417 0.02601 0.0
C2464 C 0.58634 0.13583 0.01334 0.0
H2465 H 0.5441 0.10914 0.99062 0.0
C2466 C 0.58681 0.15243 0.01136 0.0
C2467 C 0.57043 0.11994 0.00615 0.0
C2468 C 0.56794 0.10131 0.00859 0.0
C2469 C 0.57196 0.15358 1.00309 0.0
C2470 C 0.55643 0.13783 0.995 0.0
C2471 C 0.55598 0.12128 0.99665 0.0
C2472 C 0.54051 0.13801 0.98456 0.0
C2473 C 0.57298 0.17166 0.0041 0.0
C2474 C 0.523 0.12521 0.99197 0.0
C2475 C 0.50796 0.12417 0.98061 0.0
C2476 C 0.51017 0.13582 0.96157 0.0
C2477 C 0.52755 0.14931 0.95515 0.0
C2478 C 0.54259 0.15012 0.9661 0.0
H2479 H 0.58216 0.18019 0.01869 0.0
H2480 H 0.5785 0.17886 0.98683 0.0
H2481 H 0.55957 0.17027 0.00722 0.0
H2482 H 0.52094 0.1158 0.00631 0.0
H2483 H 0.49461 0.11397 0.98628 0.0
H2484 H 0.47906 0.6303 0.57069 0.0
H2485 H 0.45291 0.60442 0.55297 0.0
H2486 H 0.487 0.60178 0.49772 0.0
H2487 H 0.51341 0.62592 0.51788 0.0
H2488 H 0.4354 0.59686 0.51712 0.0
H2489 H 0.46376 0.55156 0.51228 0.0
H2490 H 0.47671 0.57383 0.52434 0.0
H2491 H 0.47568 0.57022 0.4923 0.0
C2492 C 0.48098 0.62353 0.55548 0.0
C2493 C 0.49831 0.62902 0.54687 0.0
C2494 C 0.46597 0.60901 0.54488 0.0
C2495 C 0.46787 0.6003 0.5245 0.0
C2496 C 0.48512 0.60725 0.51431 0.0
H2497 H 0.37248 0.52682 0.44096 0.0
H2498 H 0.39755 0.55335 0.45952 0.0
C2499 C 0.50022 0.62124 0.52565 0.0
C2500 C 0.45172 0.58431 0.51394 0.0
H2501 H 0.43606 0.54184 0.49197 0.0
C2502 C 0.4356 0.58478 0.51191 0.0
C2503 C 0.45167 0.56834 0.50696 0.0
C2504 C 0.46785 0.56592 0.50932 0.0
C2505 C 0.4196 0.56992 0.5036 0.0
C2506 C 0.4198 0.5543 0.49582 0.0
C2507 C 0.43585 0.55381 0.49769 0.0
C2508 C 0.40371 0.53831 0.48549 0.0
C2509 C 0.40259 0.57101 0.50413 0.0
C2510 C 0.39885 0.52088 0.49344 0.0
C2511 C 0.38501 0.50572 0.48209 0.0
C2512 C 0.37588 0.50771 0.46246 0.0
C2513 C 0.37989 0.52502 0.45546 0.0
C2514 C 0.39394 0.5402 0.46649 0.0
H2515 H 0.40322 0.58041 0.51838 0.0
H2516 H 0.40099 0.57627 0.4866 0.0
H2517 H 0.39054 0.55765 0.50742 0.0
H2518 H 0.406 0.51899 0.50819 0.0
H2519 H 0.38176 0.49245 0.48821 0.0
H2520 H 0.85228 0.37665 0.93719 0.0
H2521 H 0.85258 0.40287 0.95462 0.0
H2522 H 0.89095 0.40648 0.00792 0.0
H2523 H 0.89274 0.3821 0.98767 0.0
H2524 H 0.84359 0.41102 0.99026 0.0
H2525 H 0.91724 0.45649 0.99303 0.0
H2526 H 0.90782 0.43419 0.98101 0.0
H2527 H 0.911 0.43794 0.01301 0.0
C2528 C 0.86149 0.38375 0.95179 0.0
C2529 C 0.87363 0.37846 0.95973 0.0
C2530 C 0.86133 0.39846 0.96229 0.0
C2531 C 0.87252 0.40753 0.98207 0.0
C2532 C 0.88315 0.40077 0.99172 0.0
H2533 H 0.85048 0.481 0.06547 0.0
H2534 H 0.84942 0.45456 0.04729 0.0
C2535 C 0.88398 0.38663 0.98036 0.0
C2536 C 0.87251 0.42359 0.99268 0.0
H2537 H 0.89952 0.46609 0.01449 0.0
C2538 C 0.85594 0.42312 0.99515 0.0
C2539 C 0.8885 0.43961 0.99931 0.0
C2540 C 0.9071 0.44213 0.99621 0.0
C2541 C 0.8549 0.43804 0.00344 0.0
C2542 C 0.87077 0.45366 0.01104 0.0
C2543 C 0.8873 0.45413 0.00886 0.0
C2544 C 0.87072 0.46966 0.02146 0.0
C2545 C 0.8368 0.43696 1.00302 0.0
C2546 C 0.8833 0.48712 0.01358 0.0
C2547 C 0.88442 0.50225 0.02478 0.0
C2548 C 0.87308 0.50019 0.04418 0.0
C2549 C 0.85984 0.48285 0.05116 0.0
C2550 C 0.85895 0.46773 0.04033 0.0
H2551 H 0.82802 0.42761 0.98874 0.0
H2552 H 0.82993 0.43163 0.02053 0.0
H2553 H 0.8381 0.45033 0.99982 0.0
H2554 H 0.89245 0.48906 0.99893 0.0
H2555 H 0.89441 0.51555 0.0187 0.0
H2556 H 0.47607 0.84758 0.43239 0.0
H2557 H 0.44971 0.84509 0.45328 0.0
H2558 H 0.48437 0.89305 0.49392 0.0
H2559 H 0.51068 0.89505 0.4737 0.0
H2560 H 0.46177 0.86684 0.52279 0.0
H2561 H 0.42186 0.87085 0.44656 0.0
H2562 H 0.42894 0.85445 0.44355 0.0
H2563 H 0.44539 0.87801 0.4442 0.0
C2564 C 0.47793 0.8578 0.44537 0.0
C2565 C 0.49531 0.87176 0.45109 0.0
C2566 C 0.46286 0.85641 0.45727 0.0
C2567 C 0.46493 0.86905 0.47497 0.0
C2568 C 0.48235 0.88315 0.48033 0.0
H2569 H 0.38847 0.89467 0.53428 0.0
H2570 H 0.41292 0.89288 0.51411 0.0
C2571 C 0.49738 0.88436 0.46872 0.0
C2572 C 0.44932 0.86712 0.48926 0.0
H2573 H 0.40933 0.8666 0.48504 0.0
C2574 C 0.45027 0.86673 0.51451 0.0
C2575 C 0.43416 0.86675 0.47856 0.0
C2576 C 0.43242 0.8676 0.45172 0.0
C2577 C 0.43698 0.86678 0.52926 0.0
C2578 C 0.42213 0.86701 0.51855 0.0
C2579 C 0.42077 0.8666 0.49332 0.0
C2580 C 0.40838 0.86882 0.53285 0.0
C2581 C 0.43958 0.86769 0.55611 0.0
C2582 C 0.39777 0.85606 0.5504 0.0
C2583 C 0.38399 0.85731 0.56225 0.0
C2584 C 0.38053 0.87126 0.55666 0.0
C2585 C 0.39111 0.88398 0.53918 0.0
C2586 C 0.40501 0.8829 0.5276 0.0
H2587 H 0.45337 0.87088 0.56128 0.0
H2588 H 0.43709 0.87817 0.56355 0.0
H2589 H 0.42986 0.85458 0.56432 0.0
H2590 H 0.39965 0.84476 0.5543 0.0
H2591 H 0.37559 0.84698 0.57509 0.0
loop_
_geom_bond_atom_site_label_1
_geom_bond_atom_site_label_2
_geom_bond_distance
_geom_bond_site_symmetry_2
_ccdc_geom_bond_type
Mn0 O5 2.095 . S
Mn0 O15 2.162 . S
Mn0 O16 2.297 . S
Mn0 O24 2.385 . S
Mn0 O25 2.209 . S
Mn0 O26 2.094 . S
Mn1 O6 2.121 . S
Mn1 N8 2.257 . S
Mn1 N17 2.282 . S
Mn1 O25 2.215 . S
Mn1 O27 2.117 . S
C2 O24 1.234 . S
C2 O25 1.283 . S
C3 O15 1.281 . S
C3 O16 1.236 . S
C4 O26 1.240 . S
C4 O27 1.264 . S
O5 Mn0 2.095 . S
O5 C14 1.250 . S
O6 Mn1 2.121 . S
O6 C14 1.258 . S
C7 N8 1.326 . S
C7 C11 1.460 . S
C7 H13 0.929 . S
N8 Mn1 2.257 . S
N8 C7 1.326 . S
N8 C12 1.362 . S
C9 C10 1.258 . S
C9 C12 1.431 . S
C9 C29 1.449 . S
C10 C9 1.258 . S
C10 C11 1.477 . S
C10 H30 0.931 . S
C11 C7 1.460 . S
C11 C10 1.477 . S
C11 H31 0.930 . S
C12 N8 1.362 . S
C12 C9 1.431 . S
C12 C22 1.476 . S
H13 C7 0.929 . S
C14 O5 1.250 . S
C14 O6 1.258 . S
O15 Mn0 2.162 . S
O15 C3 1.281 . S
O16 Mn0 2.297 . S
O16 C3 1.236 . S
N17 Mn1 2.282 . S
N17 C18 1.328 . S
N17 C22 1.318 . S
C18 N17 1.328 . S
C18 C19 1.457 . S
C18 H23 0.929 . S
C19 C18 1.457 . S
C19 C20 1.291 . S
C19 H32 0.931 . S
C20 C19 1.291 . S
C20 C21 1.373 . S
C20 H33 0.929 . S
C21 C20 1.373 . S
C21 C22 1.396 . S
C21 C28 1.403 . S
C22 C12 1.476 . S
C22 N17 1.318 . S
C22 C21 1.396 . S
H23 C18 0.929 . S
O24 Mn0 2.385 . S
O24 C2 1.234 . S
O25 Mn0 2.209 . S
O25 Mn1 2.215 . S
O25 C2 1.283 . S
O26 Mn0 2.094 . S
O26 C4 1.240 . S
O27 Mn1 2.117 . S
O27 C4 1.264 . S
C28 C21 1.403 . S
C28 C29 1.399 . S
C28 H34 0.929 . S
C29 C9 1.449 . S
C29 C28 1.399 . S
C29 H35 0.930 . S
H30 C10 0.931 . S
H31 C11 0.930 . S
H32 C19 0.931 . S
H33 C20 0.929 . S
H34 C28 0.929 . S
H35 C29 0.930 . S
Mn36 O41 2.095 . S
Mn36 O51 2.162 . S
Mn36 O52 2.297 . S
Mn36 O60 2.385 . S
Mn36 O61 2.209 . S
Mn36 O62 2.094 . S
Mn37 O42 2.121 . S
Mn37 N44 2.257 . S
Mn37 N53 2.282 . S
Mn37 O61 2.215 . S
Mn37 O63 2.117 . S
C38 O60 1.234 . S
C38 O61 1.283 . S
C39 O51 1.281 . S
C39 O52 1.236 . S
C40 O62 1.240 . S
C40 O63 1.264 . S
O41 Mn36 2.095 . S
O41 C50 1.250 . S
O42 Mn37 2.121 . S
O42 C50 1.258 . S
C43 N44 1.326 . S
C43 C47 1.460 . S
C43 H49 0.929 . S
N44 Mn37 2.257 . S
N44 C43 1.326 . S
N44 C48 1.362 . S
C45 C46 1.258 . S
C45 C48 1.431 . S
C45 C65 1.449 . S
C46 C45 1.258 . S
C46 C47 1.477 . S
C46 H66 0.931 . S
C47 C43 1.460 . S
C47 C46 1.477 . S
C47 H67 0.930 . S
C48 N44 1.362 . S
C48 C45 1.431 . S
C48 C58 1.476 . S
H49 C43 0.929 . S
C50 O41 1.250 . S
C50 O42 1.258 . S
O51 Mn36 2.162 . S
O51 C39 1.281 . S
O52 Mn36 2.297 . S
O52 C39 1.236 . S
N53 Mn37 2.282 . S
N53 C54 1.328 . S
N53 C58 1.318 . S
C54 N53 1.328 . S
C54 C55 1.457 . S
C54 H59 0.929 . S
C55 C54 1.457 . S
C55 C56 1.291 . S
C55 H68 0.931 . S
C56 C55 1.291 . S
C56 C57 1.373 . S
C56 H69 0.929 . S
C57 C56 1.373 . S
C57 C58 1.396 . S
C57 C64 1.403 . S
C58 C48 1.476 . S
C58 N53 1.318 . S
C58 C57 1.396 . S
H59 C54 0.929 . S
O60 Mn36 2.385 . S
O60 C38 1.234 . S
O61 Mn36 2.209 . S
O61 Mn37 2.215 . S
O61 C38 1.283 . S
O62 Mn36 2.094 . S
O62 C40 1.240 . S
O63 Mn37 2.117 . S
O63 C40 1.264 . S
C64 C57 1.403 . S
C64 C65 1.399 . S
C64 H70 0.929 . S
C65 C45 1.449 . S
C65 C64 1.399 . S
C65 H71 0.930 . S
H66 C46 0.931 . S
H67 C47 0.930 . S
H68 C55 0.931 . S
H69 C56 0.929 . S
H70 C64 0.929 . S
H71 C65 0.930 . S
Mn72 O77 2.095 . S
Mn72 O87 2.162 . S
Mn72 O88 2.297 . S
Mn72 O96 2.385 . S
Mn72 O97 2.209 . S
Mn72 O98 2.094 . S
Mn73 O78 2.121 . S
Mn73 N80 2.257 . S
Mn73 N89 2.282 . S
Mn73 O97 2.215 . S
Mn73 O99 2.117 . S
C74 O96 1.234 . S
C74 O97 1.283 . S
C75 O87 1.281 . S
C75 O88 1.236 . S
C76 O98 1.240 . S
C76 O99 1.264 . S
O77 Mn72 2.095 . S
O77 C86 1.250 . S
O78 Mn73 2.121 . S
O78 C86 1.258 . S
C79 N80 1.326 . S
C79 C83 1.460 . S
C79 H85 0.929 . S
N80 Mn73 2.257 . S
N80 C79 1.326 . S
N80 C84 1.362 . S
C81 C82 1.258 . S
C81 C84 1.431 . S
C81 C101 1.449 . S
C82 C81 1.258 . S
C82 C83 1.477 . S
C82 H102 0.931 . S
C83 C79 1.460 . S
C83 C82 1.477 . S
C83 H103 0.930 . S
C84 N80 1.362 . S
C84 C81 1.431 . S
C84 C94 1.476 . S
H85 C79 0.929 . S
C86 O77 1.250 . S
C86 O78 1.258 . S
O87 Mn72 2.162 . S
O87 C75 1.281 . S
O88 Mn72 2.297 . S
O88 C75 1.236 . S
N89 Mn73 2.282 . S
N89 C90 1.328 . S
N89 C94 1.318 . S
C90 N89 1.328 . S
C90 C91 1.457 . S
C90 H95 0.929 . S
C91 C90 1.457 . S
C91 C92 1.291 . S
C91 H104 0.931 . S
C92 C91 1.291 . S
C92 C93 1.373 . S
C92 H105 0.929 . S
C93 C92 1.373 . S
C93 C94 1.396 . S
C93 C100 1.403 . S
C94 C84 1.476 . S
C94 N89 1.318 . S
C94 C93 1.396 . S
H95 C90 0.929 . S
O96 Mn72 2.385 . S
O96 C74 1.234 . S
O97 Mn72 2.209 . S
O97 Mn73 2.215 . S
O97 C74 1.283 . S
O98 Mn72 2.094 . S
O98 C76 1.240 . S
O99 Mn73 2.117 . S
O99 C76 1.264 . S
C100 C93 1.403 . S
C100 C101 1.399 . S
C100 H106 0.929 . S
C101 C81 1.449 . S
C101 C100 1.399 . S
C101 H107 0.930 . S
H102 C82 0.931 . S
H103 C83 0.930 . S
H104 C91 0.931 . S
H105 C92 0.929 . S
H106 C100 0.929 . S
H107 C101 0.930 . S
Mn108 O113 2.095 . S
Mn108 O123 2.162 . S
Mn108 O124 2.297 . S
Mn108 O132 2.385 . S
Mn108 O133 2.209 . S
Mn108 O134 2.094 . S
Mn109 O114 2.121 . S
Mn109 N116 2.257 . S
Mn109 N125 2.282 . S
Mn109 O133 2.215 . S
Mn109 O135 2.117 . S
C110 O132 1.234 . S
C110 O133 1.283 . S
C111 O123 1.281 . S
C111 O124 1.236 . S
C112 O134 1.240 . S
C112 O135 1.264 . S
O113 Mn108 2.095 . S
O113 C122 1.250 . S
O114 Mn109 2.121 . S
O114 C122 1.258 . S
C115 N116 1.326 . S
C115 C119 1.460 . S
C115 H121 0.929 . S
N116 Mn109 2.257 . S
N116 C115 1.326 . S
N116 C120 1.362 . S
C117 C118 1.258 . S
C117 C120 1.431 . S
C117 C137 1.449 . S
C118 C117 1.258 . S
C118 C119 1.477 . S
C118 H138 0.931 . S
C119 C115 1.460 . S
C119 C118 1.477 . S
C119 H139 0.930 . S
C120 N116 1.362 . S
C120 C117 1.431 . S
C120 C130 1.476 . S
H121 C115 0.929 . S
C122 O113 1.250 . S
C122 O114 1.258 . S
O123 Mn108 2.162 . S
O123 C111 1.281 . S
O124 Mn108 2.297 . S
O124 C111 1.236 . S
N125 Mn109 2.282 . S
N125 C126 1.328 . S
N125 C130 1.318 . S
C126 N125 1.328 . S
C126 C127 1.457 . S
C126 H131 0.929 . S
C127 C126 1.457 . S
C127 C128 1.291 . S
C127 H140 0.931 . S
C128 C127 1.291 . S
C128 C129 1.373 . S
C128 H141 0.929 . S
C129 C128 1.373 . S
C129 C130 1.396 . S
C129 C136 1.403 . S
C130 C120 1.476 . S
C130 N125 1.318 . S
C130 C129 1.396 . S
H131 C126 0.929 . S
O132 Mn108 2.385 . S
O132 C110 1.234 . S
O133 Mn108 2.209 . S
O133 Mn109 2.215 . S
O133 C110 1.283 . S
O134 Mn108 2.094 . S
O134 C112 1.240 . S
O135 Mn109 2.117 . S
O135 C112 1.264 . S
C136 C129 1.403 . S
C136 C137 1.399 . S
C136 H142 0.929 . S
C137 C117 1.449 . S
C137 C136 1.399 . S
C137 H143 0.930 . S
H138 C118 0.931 . S
H139 C119 0.930 . S
H140 C127 0.931 . S
H141 C128 0.929 . S
H142 C136 0.929 . S
H143 C137 0.930 . S
Mn144 O149 2.095 . S
Mn144 O159 2.162 . S
Mn144 O160 2.297 . S
Mn144 O168 2.385 . S
Mn144 O169 2.209 . S
Mn144 O170 2.094 . S
Mn145 O150 2.121 . S
Mn145 N152 2.257 . S
Mn145 N161 2.282 . S
Mn145 O169 2.215 . S
Mn145 O171 2.117 . S
C146 O168 1.234 . S
C146 O169 1.283 . S
C147 O159 1.281 . S
C147 O160 1.236 . S
C148 O170 1.240 . S
C148 O171 1.264 . S
O149 Mn144 2.095 . S
O149 C158 1.250 . S
O150 Mn145 2.121 . S
O150 C158 1.258 . S
C151 N152 1.326 . S
C151 C155 1.460 . S
C151 H157 0.929 . S
N152 Mn145 2.257 . S
N152 C151 1.326 . S
N152 C156 1.362 . S
C153 C154 1.258 . S
C153 C156 1.431 . S
C153 C173 1.449 . S
C154 C153 1.258 . S
C154 C155 1.477 . S
C154 H174 0.931 . S
C155 C151 1.460 . S
C155 C154 1.477 . S
C155 H175 0.930 . S
C156 N152 1.362 . S
C156 C153 1.431 . S
C156 C166 1.476 . S
H157 C151 0.929 . S
C158 O149 1.250 . S
C158 O150 1.258 . S
O159 Mn144 2.162 . S
O159 C147 1.281 . S
O160 Mn144 2.297 . S
O160 C147 1.236 . S
N161 Mn145 2.282 . S
N161 C162 1.328 . S
N161 C166 1.318 . S
C162 N161 1.328 . S
C162 C163 1.457 . S
C162 H167 0.929 . S
C163 C162 1.457 . S
C163 C164 1.291 . S
C163 H176 0.931 . S
C164 C163 1.291 . S
C164 C165 1.373 . S
C164 H177 0.929 . S
C165 C164 1.373 . S
C165 C166 1.396 . S
C165 C172 1.403 . S
C166 C156 1.476 . S
C166 N161 1.318 . S
C166 C165 1.396 . S
H167 C162 0.929 . S
O168 Mn144 2.385 . S
O168 C146 1.234 . S
O169 Mn144 2.209 . S
O169 Mn145 2.215 . S
O169 C146 1.283 . S
O170 Mn144 2.094 . S
O170 C148 1.240 . S
O171 Mn145 2.117 . S
O171 C148 1.264 . S
C172 C165 1.403 . S
C172 C173 1.399 . S
C172 H178 0.929 . S
C173 C153 1.449 . S
C173 C172 1.399 . S
C173 H179 0.930 . S
H174 C154 0.931 . S
H175 C155 0.930 . S
H176 C163 0.931 . S
H177 C164 0.929 . S
H178 C172 0.929 . S
H179 C173 0.930 . S
Mn180 O185 2.095 . S
Mn180 O195 2.162 . S
Mn180 O196 2.297 . S
Mn180 O204 2.385 . S
Mn180 O205 2.209 . S
Mn180 O206 2.094 . S
Mn181 O186 2.121 . S
Mn181 N188 2.257 . S
Mn181 N197 2.282 . S
Mn181 O205 2.215 . S
Mn181 O207 2.117 . S
C182 O204 1.234 . S
C182 O205 1.283 . S
C183 O195 1.281 . S
C183 O196 1.236 . S
C184 O206 1.240 . S
C184 O207 1.264 . S
O185 Mn180 2.095 . S
O185 C194 1.250 . S
O186 Mn181 2.121 . S
O186 C194 1.258 . S
C187 N188 1.326 . S
C187 C191 1.460 . S
C187 H193 0.929 . S
N188 Mn181 2.257 . S
N188 C187 1.326 . S
N188 C192 1.362 . S
C189 C190 1.258 . S
C189 C192 1.431 . S
C189 C209 1.449 . S
C190 C189 1.258 . S
C190 C191 1.477 . S
C190 H210 0.931 . S
C191 C187 1.460 . S
C191 C190 1.477 . S
C191 H211 0.930 . S
C192 N188 1.362 . S
C192 C189 1.431 . S
C192 C202 1.476 . S
H193 C187 0.929 . S
C194 O185 1.250 . S
C194 O186 1.258 . S
O195 Mn180 2.162 . S
O195 C183 1.281 . S
O196 Mn180 2.297 . S
O196 C183 1.236 . S
N197 Mn181 2.282 . S
N197 C198 1.328 . S
N197 C202 1.318 . S
C198 N197 1.328 . S
C198 C199 1.457 . S
C198 H203 0.929 . S
C199 C198 1.457 . S
C199 C200 1.291 . S
C199 H212 0.931 . S
C200 C199 1.291 . S
C200 C201 1.373 . S
C200 H213 0.929 . S
C201 C200 1.373 . S
C201 C202 1.396 . S
C201 C208 1.403 . S
C202 C192 1.476 . S
C202 N197 1.318 . S
C202 C201 1.396 . S
H203 C198 0.929 . S
O204 Mn180 2.385 . S
O204 C182 1.234 . S
O205 Mn180 2.209 . S
O205 Mn181 2.215 . S
O205 C182 1.283 . S
O206 Mn180 2.094 . S
O206 C184 1.240 . S
O207 Mn181 2.117 . S
O207 C184 1.264 . S
C208 C201 1.403 . S
C208 C209 1.399 . S
C208 H214 0.929 . S
C209 C189 1.449 . S
C209 C208 1.399 . S
C209 H215 0.930 . S
H210 C190 0.931 . S
H211 C191 0.930 . S
H212 C199 0.931 . S
H213 C200 0.929 . S
H214 C208 0.929 . S
H215 C209 0.930 . S
Mn216 O221 2.095 . S
Mn216 O231 2.162 . S
Mn216 O232 2.297 . S
Mn216 O240 2.385 . S
Mn216 O241 2.209 . S
Mn216 O242 2.094 . S
Mn217 O222 2.121 . S
Mn217 N224 2.257 . S
Mn217 N233 2.282 . S
Mn217 O241 2.215 . S
Mn217 O243 2.117 . S
C218 O240 1.234 . S
C218 O241 1.283 . S
C219 O231 1.281 . S
C219 O232 1.236 . S
C220 O242 1.240 . S
C220 O243 1.264 . S
O221 Mn216 2.095 . S
O221 C230 1.250 . S
O222 Mn217 2.121 . S
O222 C230 1.258 . S
C223 N224 1.326 . S
C223 C227 1.460 . S
C223 H229 0.929 . S
N224 Mn217 2.257 . S
N224 C223 1.326 . S
N224 C228 1.362 . S
C225 C226 1.258 . S
C225 C228 1.431 . S
C225 C245 1.449 . S
C226 C225 1.258 . S
C226 C227 1.477 . S
C226 H246 0.931 . S
C227 C223 1.460 . S
C227 C226 1.477 . S
C227 H247 0.930 . S
C228 N224 1.362 . S
C228 C225 1.431 . S
C228 C238 1.476 . S
H229 C223 0.929 . S
C230 O221 1.250 . S
C230 O222 1.258 . S
O231 Mn216 2.162 . S
O231 C219 1.281 . S
O232 Mn216 2.297 . S
O232 C219 1.236 . S
N233 Mn217 2.282 . S
N233 C234 1.328 . S
N233 C238 1.318 . S
C234 N233 1.328 . S
C234 C235 1.457 . S
C234 H239 0.929 . S
C235 C234 1.457 . S
C235 C236 1.291 . S
C235 H248 0.931 . S
C236 C235 1.291 . S
C236 C237 1.373 . S
C236 H249 0.929 . S
C237 C236 1.373 . S
C237 C238 1.396 . S
C237 C244 1.403 . S
C238 C228 1.476 . S
C238 N233 1.318 . S
C238 C237 1.396 . S
H239 C234 0.929 . S
O240 Mn216 2.385 . S
O240 C218 1.234 . S
O241 Mn216 2.209 . S
O241 Mn217 2.215 . S
O241 C218 1.283 . S
O242 Mn216 2.094 . S
O242 C220 1.240 . S
O243 Mn217 2.117 . S
O243 C220 1.264 . S
C244 C237 1.403 . S
C244 C245 1.399 . S
C244 H250 0.929 . S
C245 C225 1.449 . S
C245 C244 1.399 . S
C245 H251 0.930 . S
H246 C226 0.931 . S
H247 C227 0.930 . S
H248 C235 0.931 . S
H249 C236 0.929 . S
H250 C244 0.929 . S
H251 C245 0.930 . S
Mn252 O257 2.095 . S
Mn252 O267 2.162 . S
Mn252 O268 2.297 . S
Mn252 O276 2.385 . S
Mn252 O277 2.209 . S
Mn252 O278 2.094 . S
Mn253 O258 2.121 . S
Mn253 N260 2.257 . S
Mn253 N269 2.282 . S
Mn253 O277 2.215 . S
Mn253 O279 2.117 . S
C254 O276 1.234 . S
C254 O277 1.283 . S
C255 O267 1.281 . S
C255 O268 1.236 . S
C256 O278 1.240 . S
C256 O279 1.264 . S
O257 Mn252 2.095 . S
O257 C266 1.250 . S
O258 Mn253 2.121 . S
O258 C266 1.258 . S
C259 N260 1.326 . S
C259 C263 1.460 . S
C259 H265 0.929 . S
N260 Mn253 2.257 . S
N260 C259 1.326 . S
N260 C264 1.362 . S
C261 C262 1.258 . S
C261 C264 1.431 . S
C261 C281 1.449 . S
C262 C261 1.258 . S
C262 C263 1.477 . S
C262 H282 0.931 . S
C263 C259 1.460 . S
C263 C262 1.477 . S
C263 H283 0.930 . S
C264 N260 1.362 . S
C264 C261 1.431 . S
C264 C274 1.476 . S
H265 C259 0.929 . S
C266 O257 1.250 . S
C266 O258 1.258 . S
O267 Mn252 2.162 . S
O267 C255 1.281 . S
O268 Mn252 2.297 . S
O268 C255 1.236 . S
N269 Mn253 2.282 . S
N269 C270 1.328 . S
N269 C274 1.318 . S
C270 N269 1.328 . S
C270 C271 1.457 . S
C270 H275 0.929 . S
C271 C270 1.457 . S
C271 C272 1.291 . S
C271 H284 0.931 . S
C272 C271 1.291 . S
C272 C273 1.373 . S
C272 H285 0.929 . S
C273 C272 1.373 . S
C273 C274 1.396 . S
C273 C280 1.403 . S
C274 C264 1.476 . S
C274 N269 1.318 . S
C274 C273 1.396 . S
H275 C270 0.929 . S
O276 Mn252 2.385 . S
O276 C254 1.234 . S
O277 Mn252 2.209 . S
O277 Mn253 2.215 . S
O277 C254 1.283 . S
O278 Mn252 2.094 . S
O278 C256 1.240 . S
O279 Mn253 2.117 . S
O279 C256 1.264 . S
C280 C273 1.403 . S
C280 C281 1.399 . S
C280 H286 0.929 . S
C281 C261 1.449 . S
C281 C280 1.399 . S
C281 H287 0.930 . S
H282 C262 0.931 . S
H283 C263 0.930 . S
H284 C271 0.931 . S
H285 C272 0.929 . S
H286 C280 0.929 . S
H287 C281 0.930 . S
Mn288 O293 2.095 . S
Mn288 O303 2.162 . S
Mn288 O304 2.297 . S
Mn288 O312 2.385 . S
Mn288 O313 2.209 . S
Mn288 O314 2.094 . S
Mn289 O294 2.121 . S
Mn289 N296 2.257 . S
Mn289 N305 2.282 . S
Mn289 O313 2.215 . S
Mn289 O315 2.117 . S
C290 O312 1.234 . S
C290 O313 1.283 . S
C291 O303 1.281 . S
C291 O304 1.236 . S
C292 O314 1.240 . S
C292 O315 1.264 . S
O293 Mn288 2.095 . S
O293 C302 1.250 . S
O294 Mn289 2.121 . S
O294 C302 1.258 . S
C295 N296 1.326 . S
C295 C299 1.460 . S
C295 H301 0.929 . S
N296 Mn289 2.257 . S
N296 C295 1.326 . S
N296 C300 1.362 . S
C297 C298 1.258 . S
C297 C300 1.431 . S
C297 C317 1.449 . S
C298 C297 1.258 . S
C298 C299 1.477 . S
C298 H318 0.931 . S
C299 C295 1.460 . S
C299 C298 1.477 . S
C299 H319 0.930 . S
C300 N296 1.362 . S
C300 C297 1.431 . S
C300 C310 1.476 . S
H301 C295 0.929 . S
C302 O293 1.250 . S
C302 O294 1.258 . S
O303 Mn288 2.162 . S
O303 C291 1.281 . S
O304 Mn288 2.297 . S
O304 C291 1.236 . S
N305 Mn289 2.282 . S
N305 C306 1.328 . S
N305 C310 1.318 . S
C306 N305 1.328 . S
C306 C307 1.457 . S
C306 H311 0.929 . S
C307 C306 1.457 . S
C307 C308 1.291 . S
C307 H320 0.931 . S
C308 C307 1.291 . S
C308 C309 1.373 . S
C308 H321 0.929 . S
C309 C308 1.373 . S
C309 C310 1.396 . S
C309 C316 1.403 . S
C310 C300 1.476 . S
C310 N305 1.318 . S
C310 C309 1.396 . S
H311 C306 0.929 . S
O312 Mn288 2.385 . S
O312 C290 1.234 . S
O313 Mn288 2.209 . S
O313 Mn289 2.215 . S
O313 C290 1.283 . S
O314 Mn288 2.094 . S
O314 C292 1.240 . S
O315 Mn289 2.117 . S
O315 C292 1.264 . S
C316 C309 1.403 . S
C316 C317 1.399 . S
C316 H322 0.929 . S
C317 C297 1.449 . S
C317 C316 1.399 . S
C317 H323 0.930 . S
H318 C298 0.931 . S
H319 C299 0.930 . S
H320 C307 0.931 . S
H321 C308 0.929 . S
H322 C316 0.929 . S
H323 C317 0.930 . S
Mn324 O329 2.095 . S
Mn324 O339 2.162 . S
Mn324 O340 2.297 . S
Mn324 O348 2.385 . S
Mn324 O349 2.209 . S
Mn324 O350 2.094 . S
Mn325 O330 2.121 . S
Mn325 N332 2.257 . S
Mn325 N341 2.282 . S
Mn325 O349 2.215 . S
Mn325 O351 2.117 . S
C326 O348 1.234 . S
C326 O349 1.283 . S
C327 O339 1.281 . S
C327 O340 1.236 . S
C328 O350 1.240 . S
C328 O351 1.264 . S
O329 Mn324 2.095 . S
O329 C338 1.250 . S
O330 Mn325 2.121 . S
O330 C338 1.258 . S
C331 N332 1.326 . S
C331 C335 1.460 . S
C331 H337 0.929 . S
N332 Mn325 2.257 . S
N332 C331 1.326 . S
N332 C336 1.362 . S
C333 C334 1.258 . S
C333 C336 1.431 . S
C333 C353 1.449 . S
C334 C333 1.258 . S
C334 C335 1.477 . S
C334 H354 0.931 . S
C335 C331 1.460 . S
C335 C334 1.477 . S
C335 H355 0.930 . S
C336 N332 1.362 . S
C336 C333 1.431 . S
C336 C346 1.476 . S
H337 C331 0.929 . S
C338 O329 1.250 . S
C338 O330 1.258 . S
O339 Mn324 2.162 . S
O339 C327 1.281 . S
O340 Mn324 2.297 . S
O340 C327 1.236 . S
N341 Mn325 2.282 . S
N341 C342 1.328 . S
N341 C346 1.318 . S
C342 N341 1.328 . S
C342 C343 1.457 . S
C342 H347 0.929 . S
C343 C342 1.457 . S
C343 C344 1.291 . S
C343 H356 0.931 . S
C344 C343 1.291 . S
C344 C345 1.373 . S
C344 H357 0.929 . S
C345 C344 1.373 . S
C345 C346 1.396 . S
C345 C352 1.403 . S
C346 C336 1.476 . S
C346 N341 1.318 . S
C346 C345 1.396 . S
H347 C342 0.929 . S
O348 Mn324 2.385 . S
O348 C326 1.234 . S
O349 Mn324 2.209 . S
O349 Mn325 2.215 . S
O349 C326 1.283 . S
O350 Mn324 2.094 . S
O350 C328 1.240 . S
O351 Mn325 2.117 . S
O351 C328 1.264 . S
C352 C345 1.403 . S
C352 C353 1.399 . S
C352 H358 0.929 . S
C353 C333 1.449 . S
C353 C352 1.399 . S
C353 H359 0.930 . S
H354 C334 0.931 . S
H355 C335 0.930 . S
H356 C343 0.931 . S
H357 C344 0.929 . S
H358 C352 0.929 . S
H359 C353 0.930 . S
Mn360 O365 2.095 . S
Mn360 O375 2.162 . S
Mn360 O376 2.297 . S
Mn360 O384 2.385 . S
Mn360 O385 2.209 . S
Mn360 O386 2.094 . S
Mn361 O366 2.121 . S
Mn361 N368 2.257 . S
Mn361 N377 2.282 . S
Mn361 O385 2.215 . S
Mn361 O387 2.117 . S
C362 O384 1.234 . S
C362 O385 1.283 . S
C363 O375 1.281 . S
C363 O376 1.236 . S
C364 O386 1.240 . S
C364 O387 1.264 . S
O365 Mn360 2.095 . S
O365 C374 1.250 . S
O366 Mn361 2.121 . S
O366 C374 1.258 . S
C367 N368 1.326 . S
C367 C371 1.460 . S
C367 H373 0.929 . S
N368 Mn361 2.257 . S
N368 C367 1.326 . S
N368 C372 1.362 . S
C369 C370 1.258 . S
C369 C372 1.431 . S
C369 C389 1.449 . S
C370 C369 1.258 . S
C370 C371 1.477 . S
C370 H390 0.931 . S
C371 C367 1.460 . S
C371 C370 1.477 . S
C371 H391 0.930 . S
C372 N368 1.362 . S
C372 C369 1.431 . S
C372 C382 1.476 . S
H373 C367 0.929 . S
C374 O365 1.250 . S
C374 O366 1.258 . S
O375 Mn360 2.162 . S
O375 C363 1.281 . S
O376 Mn360 2.297 . S
O376 C363 1.236 . S
N377 Mn361 2.282 . S
N377 C378 1.328 . S
N377 C382 1.318 . S
C378 N377 1.328 . S
C378 C379 1.457 . S
C378 H383 0.929 . S
C379 C378 1.457 . S
C379 C380 1.291 . S
C379 H392 0.931 . S
C380 C379 1.291 . S
C380 C381 1.373 . S
C380 H393 0.929 . S
C381 C380 1.373 . S
C381 C382 1.396 . S
C381 C388 1.403 . S
C382 C372 1.476 . S
C382 N377 1.318 . S
C382 C381 1.396 . S
H383 C378 0.929 . S
O384 Mn360 2.385 . S
O384 C362 1.234 . S
O385 Mn360 2.209 . S
O385 Mn361 2.215 . S
O385 C362 1.283 . S
O386 Mn360 2.094 . S
O386 C364 1.240 . S
O387 Mn361 2.117 . S
O387 C364 1.264 . S
C388 C381 1.403 . S
C388 C389 1.399 . S
C388 H394 0.929 . S
C389 C369 1.449 . S
C389 C388 1.399 . S
C389 H395 0.930 . S
H390 C370 0.931 . S
H391 C371 0.930 . S
H392 C379 0.931 . S
H393 C380 0.929 . S
H394 C388 0.929 . S
H395 C389 0.930 . S
Mn396 O401 2.095 . S
Mn396 O411 2.162 . S
Mn396 O412 2.297 . S
Mn396 O420 2.385 . S
Mn396 O421 2.209 . S
Mn396 O422 2.094 . S
Mn397 O402 2.121 . S
Mn397 N404 2.257 . S
Mn397 N413 2.282 . S
Mn397 O421 2.215 . S
Mn397 O423 2.117 . S
C398 O420 1.234 . S
C398 O421 1.283 . S
C399 O411 1.281 . S
C399 O412 1.236 . S
C400 O422 1.240 . S
C400 O423 1.264 . S
O401 Mn396 2.095 . S
O401 C410 1.250 . S
O402 Mn397 2.121 . S
O402 C410 1.258 . S
C403 N404 1.326 . S
C403 C407 1.460 . S
C403 H409 0.929 . S
N404 Mn397 2.257 . S
N404 C403 1.326 . S
N404 C408 1.362 . S
C405 C406 1.258 . S
C405 C408 1.431 . S
C405 C425 1.449 . S
C406 C405 1.258 . S
C406 C407 1.477 . S
C406 H426 0.931 . S
C407 C403 1.460 . S
C407 C406 1.477 . S
C407 H427 0.930 . S
C408 N404 1.362 . S
C408 C405 1.431 . S
C408 C418 1.476 . S
H409 C403 0.929 . S
C410 O401 1.250 . S
C410 O402 1.258 . S
O411 Mn396 2.162 . S
O411 C399 1.281 . S
O412 Mn396 2.297 . S
O412 C399 1.236 . S
N413 Mn397 2.282 . S
N413 C414 1.328 . S
N413 C418 1.318 . S
C414 N413 1.328 . S
C414 C415 1.457 . S
C414 H419 0.929 . S
C415 C414 1.457 . S
C415 C416 1.291 . S
C415 H428 0.931 . S
C416 C415 1.291 . S
C416 C417 1.373 . S
C416 H429 0.929 . S
C417 C416 1.373 . S
C417 C418 1.396 . S
C417 C424 1.403 . S
C418 C408 1.476 . S
C418 N413 1.318 . S
C418 C417 1.396 . S
H419 C414 0.929 . S
O420 Mn396 2.385 . S
O420 C398 1.234 . S
O421 Mn396 2.209 . S
O421 Mn397 2.215 . S
O421 C398 1.283 . S
O422 Mn396 2.094 . S
O422 C400 1.240 . S
O423 Mn397 2.117 . S
O423 C400 1.264 . S
C424 C417 1.403 . S
C424 C425 1.399 . S
C424 H430 0.929 . S
C425 C405 1.449 . S
C425 C424 1.399 . S
C425 H431 0.930 . S
H426 C406 0.931 . S
H427 C407 0.930 . S
H428 C415 0.931 . S
H429 C416 0.929 . S
H430 C424 0.929 . S
H431 C425 0.930 . S
Mn432 O437 2.095 . S
Mn432 O447 2.162 . S
Mn432 O448 2.297 . S
Mn432 O456 2.385 . S
Mn432 O457 2.209 . S
Mn432 O458 2.094 . S
Mn433 O438 2.121 . S
Mn433 N440 2.257 . S
Mn433 N449 2.282 . S
Mn433 O457 2.215 . S
Mn433 O459 2.117 . S
C434 O456 1.234 . S
C434 O457 1.283 . S
C435 O447 1.281 . S
C435 O448 1.236 . S
C436 O458 1.240 . S
C436 O459 1.264 . S
O437 Mn432 2.095 . S
O437 C446 1.250 . S
O438 Mn433 2.121 . S
O438 C446 1.258 . S
C439 N440 1.326 . S
C439 C443 1.460 . S
C439 H445 0.929 . S
N440 Mn433 2.257 . S
N440 C439 1.326 . S
N440 C444 1.362 . S
C441 C442 1.258 . S
C441 C444 1.431 . S
C441 C461 1.449 . S
C442 C441 1.258 . S
C442 C443 1.477 . S
C442 H462 0.931 . S
C443 C439 1.460 . S
C443 C442 1.477 . S
C443 H463 0.930 . S
C444 N440 1.362 . S
C444 C441 1.431 . S
C444 C454 1.476 . S
H445 C439 0.929 . S
C446 O437 1.250 . S
C446 O438 1.258 . S
O447 Mn432 2.162 . S
O447 C435 1.281 . S
O448 Mn432 2.297 . S
O448 C435 1.236 . S
N449 Mn433 2.282 . S
N449 C450 1.328 . S
N449 C454 1.318 . S
C450 N449 1.328 . S
C450 C451 1.457 . S
C450 H455 0.929 . S
C451 C450 1.457 . S
C451 C452 1.291 . S
C451 H464 0.931 . S
C452 C451 1.291 . S
C452 C453 1.373 . S
C452 H465 0.929 . S
C453 C452 1.373 . S
C453 C454 1.396 . S
C453 C460 1.403 . S
C454 C444 1.476 . S
C454 N449 1.318 . S
C454 C453 1.396 . S
H455 C450 0.929 . S
O456 Mn432 2.385 . S
O456 C434 1.234 . S
O457 Mn432 2.209 . S
O457 Mn433 2.215 . S
O457 C434 1.283 . S
O458 Mn432 2.094 . S
O458 C436 1.240 . S
O459 Mn433 2.117 . S
O459 C436 1.264 . S
C460 C453 1.403 . S
C460 C461 1.399 . S
C460 H466 0.929 . S
C461 C441 1.449 . S
C461 C460 1.399 . S
C461 H467 0.930 . S
H462 C442 0.931 . S
H463 C443 0.930 . S
H464 C451 0.931 . S
H465 C452 0.929 . S
H466 C460 0.929 . S
H467 C461 0.930 . S
Mn468 O473 2.095 . S
Mn468 O483 2.162 . S
Mn468 O484 2.297 . S
Mn468 O492 2.385 . S
Mn468 O493 2.209 . S
Mn468 O494 2.094 . S
Mn469 O474 2.121 . S
Mn469 N476 2.257 . S
Mn469 N485 2.282 . S
Mn469 O493 2.215 . S
Mn469 O495 2.117 . S
C470 O492 1.234 . S
C470 O493 1.283 . S
C471 O483 1.281 . S
C471 O484 1.236 . S
C472 O494 1.240 . S
C472 O495 1.264 . S
O473 Mn468 2.095 . S
O473 C482 1.250 . S
O474 Mn469 2.121 . S
O474 C482 1.258 . S
C475 N476 1.326 . S
C475 C479 1.460 . S
C475 H481 0.929 . S
N476 Mn469 2.257 . S
N476 C475 1.326 . S
N476 C480 1.362 . S
C477 C478 1.258 . S
C477 C480 1.431 . S
C477 C497 1.449 . S
C478 C477 1.258 . S
C478 C479 1.477 . S
C478 H498 0.931 . S
C479 C475 1.460 . S
C479 C478 1.477 . S
C479 H499 0.930 . S
C480 N476 1.362 . S
C480 C477 1.431 . S
C480 C490 1.476 . S
H481 C475 0.929 . S
C482 O473 1.250 . S
C482 O474 1.258 . S
O483 Mn468 2.162 . S
O483 C471 1.281 . S
O484 Mn468 2.297 . S
O484 C471 1.236 . S
N485 Mn469 2.282 . S
N485 C486 1.328 . S
N485 C490 1.318 . S
C486 N485 1.328 . S
C486 C487 1.457 . S
C486 H491 0.929 . S
C487 C486 1.457 . S
C487 C488 1.291 . S
C487 H500 0.931 . S
C488 C487 1.291 . S
C488 C489 1.373 . S
C488 H501 0.929 . S
C489 C488 1.373 . S
C489 C490 1.396 . S
C489 C496 1.403 . S
C490 C480 1.476 . S
C490 N485 1.318 . S
C490 C489 1.396 . S
H491 C486 0.929 . S
O492 Mn468 2.385 . S
O492 C470 1.234 . S
O493 Mn468 2.209 . S
O493 Mn469 2.215 . S
O493 C470 1.283 . S
O494 Mn468 2.094 . S
O494 C472 1.240 . S
O495 Mn469 2.117 . S
O495 C472 1.264 . S
C496 C489 1.403 . S
C496 C497 1.399 . S
C496 H502 0.929 . S
C497 C477 1.449 . S
C497 C496 1.399 . S
C497 H503 0.930 . S
H498 C478 0.931 . S
H499 C479 0.930 . S
H500 C487 0.931 . S
H501 C488 0.929 . S
H502 C496 0.929 . S
H503 C497 0.930 . S
Mn504 O509 2.095 . S
Mn504 O519 2.162 . S
Mn504 O520 2.297 . S
Mn504 O528 2.385 . S
Mn504 O529 2.209 . S
Mn504 O530 2.094 . S
Mn505 O510 2.121 . S
Mn505 N512 2.257 . S
Mn505 N521 2.282 . S
Mn505 O529 2.215 . S
Mn505 O531 2.117 . S
C506 O528 1.234 . S
C506 O529 1.283 . S
C507 O519 1.281 . S
C507 O520 1.236 . S
C508 O530 1.240 . S
C508 O531 1.264 . S
O509 Mn504 2.095 . S
O509 C518 1.250 . S
O510 Mn505 2.121 . S
O510 C518 1.258 . S
C511 N512 1.326 . S
C511 C515 1.460 . S
C511 H517 0.929 . S
N512 Mn505 2.257 . S
N512 C511 1.326 . S
N512 C516 1.362 . S
C513 C514 1.258 . S
C513 C516 1.431 . S
C513 C533 1.449 . S
C514 C513 1.258 . S
C514 C515 1.477 . S
C514 H534 0.931 . S
C515 C511 1.460 . S
C515 C514 1.477 . S
C515 H535 0.930 . S
C516 N512 1.362 . S
C516 C513 1.431 . S
C516 C526 1.476 . S
H517 C511 0.929 . S
C518 O509 1.250 . S
C518 O510 1.258 . S
O519 Mn504 2.162 . S
O519 C507 1.281 . S
O520 Mn504 2.297 . S
O520 C507 1.236 . S
N521 Mn505 2.282 . S
N521 C522 1.328 . S
N521 C526 1.318 . S
C522 N521 1.328 . S
C522 C523 1.457 . S
C522 H527 0.929 . S
C523 C522 1.457 . S
C523 C524 1.291 . S
C523 H536 0.931 . S
C524 C523 1.291 . S
C524 C525 1.373 . S
C524 H537 0.929 . S
C525 C524 1.373 . S
C525 C526 1.396 . S
C525 C532 1.403 . S
C526 C516 1.476 . S
C526 N521 1.318 . S
C526 C525 1.396 . S
H527 C522 0.929 . S
O528 Mn504 2.385 . S
O528 C506 1.234 . S
O529 Mn504 2.209 . S
O529 Mn505 2.215 . S
O529 C506 1.283 . S
O530 Mn504 2.094 . S
O530 C508 1.240 . S
O531 Mn505 2.117 . S
O531 C508 1.264 . S
C532 C525 1.403 . S
C532 C533 1.399 . S
C532 H538 0.929 . S
C533 C513 1.449 . S
C533 C532 1.399 . S
C533 H539 0.930 . S
H534 C514 0.931 . S
H535 C515 0.930 . S
H536 C523 0.931 . S
H537 C524 0.929 . S
H538 C532 0.929 . S
H539 C533 0.930 . S
Mn540 O545 2.095 . S
Mn540 O555 2.162 . S
Mn540 O556 2.297 . S
Mn540 O564 2.385 . S
Mn540 O565 2.209 . S
Mn540 O566 2.094 . S
Mn541 O546 2.121 . S
Mn541 N548 2.257 . S
Mn541 N557 2.282 . S
Mn541 O565 2.215 . S
Mn541 O567 2.117 . S
C542 O564 1.234 . S
C542 O565 1.283 . S
C543 O555 1.281 . S
C543 O556 1.236 . S
C544 O566 1.240 . S
C544 O567 1.264 . S
O545 Mn540 2.095 . S
O545 C554 1.250 . S
O546 Mn541 2.121 . S
O546 C554 1.258 . S
C547 N548 1.326 . S
C547 C551 1.460 . S
C547 H553 0.929 . S
N548 Mn541 2.257 . S
N548 C547 1.326 . S
N548 C552 1.362 . S
C549 C550 1.258 . S
C549 C552 1.431 . S
C549 C569 1.449 . S
C550 C549 1.258 . S
C550 C551 1.477 . S
C550 H570 0.931 . S
C551 C547 1.460 . S
C551 C550 1.477 . S
C551 H571 0.930 . S
C552 N548 1.362 . S
C552 C549 1.431 . S
C552 C562 1.476 . S
H553 C547 0.929 . S
C554 O545 1.250 . S
C554 O546 1.258 . S
O555 Mn540 2.162 . S
O555 C543 1.281 . S
O556 Mn540 2.297 . S
O556 C543 1.236 . S
N557 Mn541 2.282 . S
N557 C558 1.328 . S
N557 C562 1.318 . S
C558 N557 1.328 . S
C558 C559 1.457 . S
C558 H563 0.929 . S
C559 C558 1.457 . S
C559 C560 1.291 . S
C559 H572 0.931 . S
C560 C559 1.291 . S
C560 C561 1.373 . S
C560 H573 0.929 . S
C561 C560 1.373 . S
C561 C562 1.396 . S
C561 C568 1.403 . S
C562 C552 1.476 . S
C562 N557 1.318 . S
C562 C561 1.396 . S
H563 C558 0.929 . S
O564 Mn540 2.385 . S
O564 C542 1.234 . S
O565 Mn540 2.209 . S
O565 Mn541 2.215 . S
O565 C542 1.283 . S
O566 Mn540 2.094 . S
O566 C544 1.240 . S
O567 Mn541 2.117 . S
O567 C544 1.264 . S
C568 C561 1.403 . S
C568 C569 1.399 . S
C568 H574 0.929 . S
C569 C549 1.449 . S
C569 C568 1.399 . S
C569 H575 0.930 . S
H570 C550 0.931 . S
H571 C551 0.930 . S
H572 C559 0.931 . S
H573 C560 0.929 . S
H574 C568 0.929 . S
H575 C569 0.930 . S
Mn576 O581 2.095 . S
Mn576 O591 2.162 . S
Mn576 O592 2.297 . S
Mn576 O600 2.385 . S
Mn576 O601 2.209 . S
Mn576 O602 2.094 . S
Mn577 O582 2.121 . S
Mn577 N584 2.257 . S
Mn577 N593 2.282 . S
Mn577 O601 2.215 . S
Mn577 O603 2.117 . S
C578 O600 1.234 . S
C578 O601 1.283 . S
C579 O591 1.281 . S
C579 O592 1.236 . S
C580 O602 1.240 . S
C580 O603 1.264 . S
O581 Mn576 2.095 . S
O581 C590 1.250 . S
O582 Mn577 2.121 . S
O582 C590 1.258 . S
C583 N584 1.326 . S
C583 C587 1.460 . S
C583 H589 0.929 . S
N584 Mn577 2.257 . S
N584 C583 1.326 . S
N584 C588 1.362 . S
C585 C586 1.258 . S
C585 C588 1.431 . S
C585 C605 1.449 . S
C586 C585 1.258 . S
C586 C587 1.477 . S
C586 H606 0.931 . S
C587 C583 1.460 . S
C587 C586 1.477 . S
C587 H607 0.930 . S
C588 N584 1.362 . S
C588 C585 1.431 . S
C588 C598 1.476 . S
H589 C583 0.929 . S
C590 O581 1.250 . S
C590 O582 1.258 . S
O591 Mn576 2.162 . S
O591 C579 1.281 . S
O592 Mn576 2.297 . S
O592 C579 1.236 . S
N593 Mn577 2.282 . S
N593 C594 1.328 . S
N593 C598 1.318 . S
C594 N593 1.328 . S
C594 C595 1.457 . S
C594 H599 0.929 . S
C595 C594 1.457 . S
C595 C596 1.291 . S
C595 H608 0.931 . S
C596 C595 1.291 . S
C596 C597 1.373 . S
C596 H609 0.929 . S
C597 C596 1.373 . S
C597 C598 1.396 . S
C597 C604 1.403 . S
C598 C588 1.476 . S
C598 N593 1.318 . S
C598 C597 1.396 . S
H599 C594 0.929 . S
O600 Mn576 2.385 . S
O600 C578 1.234 . S
O601 Mn576 2.209 . S
O601 Mn577 2.215 . S
O601 C578 1.283 . S
O602 Mn576 2.094 . S
O602 C580 1.240 . S
O603 Mn577 2.117 . S
O603 C580 1.264 . S
C604 C597 1.403 . S
C604 C605 1.399 . S
C604 H610 0.929 . S
C605 C585 1.449 . S
C605 C604 1.399 . S
C605 H611 0.930 . S
H606 C586 0.931 . S
H607 C587 0.930 . S
H608 C595 0.931 . S
H609 C596 0.929 . S
H610 C604 0.929 . S
H611 C605 0.930 . S
Mn612 O617 2.095 . S
Mn612 O627 2.162 . S
Mn612 O628 2.297 . S
Mn612 O636 2.385 . S
Mn612 O637 2.209 . S
Mn612 O638 2.094 . S
Mn613 O618 2.121 . S
Mn613 N620 2.257 . S
Mn613 N629 2.282 . S
Mn613 O637 2.215 . S
Mn613 O639 2.117 . S
C614 O636 1.234 . S
C614 O637 1.283 . S
C615 O627 1.281 . S
C615 O628 1.236 . S
C616 O638 1.240 . S
C616 O639 1.264 . S
O617 Mn612 2.095 . S
O617 C626 1.250 . S
O618 Mn613 2.121 . S
O618 C626 1.258 . S
C619 N620 1.326 . S
C619 C623 1.460 . S
C619 H625 0.929 . S
N620 Mn613 2.257 . S
N620 C619 1.326 . S
N620 C624 1.362 . S
C621 C622 1.258 . S
C621 C624 1.431 . S
C621 C641 1.449 . S
C622 C621 1.258 . S
C622 C623 1.477 . S
C622 H642 0.931 . S
C623 C619 1.460 . S
C623 C622 1.477 . S
C623 H643 0.930 . S
C624 N620 1.362 . S
C624 C621 1.431 . S
C624 C634 1.476 . S
H625 C619 0.929 . S
C626 O617 1.250 . S
C626 O618 1.258 . S
O627 Mn612 2.162 . S
O627 C615 1.281 . S
O628 Mn612 2.297 . S
O628 C615 1.236 . S
N629 Mn613 2.282 . S
N629 C630 1.328 . S
N629 C634 1.318 . S
C630 N629 1.328 . S
C630 C631 1.457 . S
C630 H635 0.929 . S
C631 C630 1.457 . S
C631 C632 1.291 . S
C631 H644 0.931 . S
C632 C631 1.291 . S
C632 C633 1.373 . S
C632 H645 0.929 . S
C633 C632 1.373 . S
C633 C634 1.396 . S
C633 C640 1.403 . S
C634 C624 1.476 . S
C634 N629 1.318 . S
C634 C633 1.396 . S
H635 C630 0.929 . S
O636 Mn612 2.385 . S
O636 C614 1.234 . S
O637 Mn612 2.209 . S
O637 Mn613 2.215 . S
O637 C614 1.283 . S
O638 Mn612 2.094 . S
O638 C616 1.240 . S
O639 Mn613 2.117 . S
O639 C616 1.264 . S
C640 C633 1.403 . S
C640 C641 1.399 . S
C640 H646 0.929 . S
C641 C621 1.449 . S
C641 C640 1.399 . S
C641 H647 0.930 . S
H642 C622 0.931 . S
H643 C623 0.930 . S
H644 C631 0.931 . S
H645 C632 0.929 . S
H646 C640 0.929 . S
H647 C641 0.930 . S
Mn648 O653 2.095 . S
Mn648 O663 2.162 . S
Mn648 O664 2.297 . S
Mn648 O672 2.385 . S
Mn648 O673 2.209 . S
Mn648 O674 2.094 . S
Mn649 O654 2.121 . S
Mn649 N656 2.257 . S
Mn649 N665 2.282 . S
Mn649 O673 2.215 . S
Mn649 O675 2.117 . S
C650 O672 1.234 . S
C650 O673 1.283 . S
C651 O663 1.281 . S
C651 O664 1.236 . S
C652 O674 1.240 . S
C652 O675 1.264 . S
O653 Mn648 2.095 . S
O653 C662 1.250 . S
O654 Mn649 2.121 . S
O654 C662 1.258 . S
C655 N656 1.326 . S
C655 C659 1.460 . S
C655 H661 0.929 . S
N656 Mn649 2.257 . S
N656 C655 1.326 . S
N656 C660 1.362 . S
C657 C658 1.258 . S
C657 C660 1.431 . S
C657 C677 1.449 . S
C658 C657 1.258 . S
C658 C659 1.477 . S
C658 H678 0.931 . S
C659 C655 1.460 . S
C659 C658 1.477 . S
C659 H679 0.930 . S
C660 N656 1.362 . S
C660 C657 1.431 . S
C660 C670 1.476 . S
H661 C655 0.929 . S
C662 O653 1.250 . S
C662 O654 1.258 . S
O663 Mn648 2.162 . S
O663 C651 1.281 . S
O664 Mn648 2.297 . S
O664 C651 1.236 . S
N665 Mn649 2.282 . S
N665 C666 1.328 . S
N665 C670 1.318 . S
C666 N665 1.328 . S
C666 C667 1.457 . S
C666 H671 0.929 . S
C667 C666 1.457 . S
C667 C668 1.291 . S
C667 H680 0.931 . S
C668 C667 1.291 . S
C668 C669 1.373 . S
C668 H681 0.929 . S
C669 C668 1.373 . S
C669 C670 1.396 . S
C669 C676 1.403 . S
C670 C660 1.476 . S
C670 N665 1.318 . S
C670 C669 1.396 . S
H671 C666 0.929 . S
O672 Mn648 2.385 . S
O672 C650 1.234 . S
O673 Mn648 2.209 . S
O673 Mn649 2.215 . S
O673 C650 1.283 . S
O674 Mn648 2.094 . S
O674 C652 1.240 . S
O675 Mn649 2.117 . S
O675 C652 1.264 . S
C676 C669 1.403 . S
C676 C677 1.399 . S
C676 H682 0.929 . S
C677 C657 1.449 . S
C677 C676 1.399 . S
C677 H683 0.930 . S
H678 C658 0.931 . S
H679 C659 0.930 . S
H680 C667 0.931 . S
H681 C668 0.929 . S
H682 C676 0.929 . S
H683 C677 0.930 . S
Mn684 O689 2.095 . S
Mn684 O699 2.162 . S
Mn684 O700 2.297 . S
Mn684 O708 2.385 . S
Mn684 O709 2.209 . S
Mn684 O710 2.094 . S
Mn685 O690 2.121 . S
Mn685 N692 2.257 . S
Mn685 N701 2.282 . S
Mn685 O709 2.215 . S
Mn685 O711 2.117 . S
C686 O708 1.234 . S
C686 O709 1.283 . S
C687 O699 1.281 . S
C687 O700 1.236 . S
C688 O710 1.240 . S
C688 O711 1.264 . S
O689 Mn684 2.095 . S
O689 C698 1.250 . S
O690 Mn685 2.121 . S
O690 C698 1.258 . S
C691 N692 1.326 . S
C691 C695 1.460 . S
C691 H697 0.929 . S
N692 Mn685 2.257 . S
N692 C691 1.326 . S
N692 C696 1.362 . S
C693 C694 1.258 . S
C693 C696 1.431 . S
C693 C713 1.449 . S
C694 C693 1.258 . S
C694 C695 1.477 . S
C694 H714 0.931 . S
C695 C691 1.460 . S
C695 C694 1.477 . S
C695 H715 0.930 . S
C696 N692 1.362 . S
C696 C693 1.431 . S
C696 C706 1.476 . S
H697 C691 0.929 . S
C698 O689 1.250 . S
C698 O690 1.258 . S
O699 Mn684 2.162 . S
O699 C687 1.281 . S
O700 Mn684 2.297 . S
O700 C687 1.236 . S
N701 Mn685 2.282 . S
N701 C702 1.328 . S
N701 C706 1.318 . S
C702 N701 1.328 . S
C702 C703 1.457 . S
C702 H707 0.929 . S
C703 C702 1.457 . S
C703 C704 1.291 . S
C703 H716 0.931 . S
C704 C703 1.291 . S
C704 C705 1.373 . S
C704 H717 0.929 . S
C705 C704 1.373 . S
C705 C706 1.396 . S
C705 C712 1.403 . S
C706 C696 1.476 . S
C706 N701 1.318 . S
C706 C705 1.396 . S
H707 C702 0.929 . S
O708 Mn684 2.385 . S
O708 C686 1.234 . S
O709 Mn684 2.209 . S
O709 Mn685 2.215 . S
O709 C686 1.283 . S
O710 Mn684 2.094 . S
O710 C688 1.240 . S
O711 Mn685 2.117 . S
O711 C688 1.264 . S
C712 C705 1.403 . S
C712 C713 1.399 . S
C712 H718 0.929 . S
C713 C693 1.449 . S
C713 C712 1.399 . S
C713 H719 0.930 . S
H714 C694 0.931 . S
H715 C695 0.930 . S
H716 C703 0.931 . S
H717 C704 0.929 . S
H718 C712 0.929 . S
H719 C713 0.930 . S
Mn720 O725 2.095 . S
Mn720 O735 2.162 . S
Mn720 O736 2.297 . S
Mn720 O744 2.385 . S
Mn720 O745 2.209 . S
Mn720 O746 2.094 . S
Mn721 O726 2.121 . S
Mn721 N728 2.257 . S
Mn721 N737 2.282 . S
Mn721 O745 2.215 . S
Mn721 O747 2.117 . S
C722 O744 1.234 . S
C722 O745 1.283 . S
C723 O735 1.281 . S
C723 O736 1.236 . S
C724 O746 1.240 . S
C724 O747 1.264 . S
O725 Mn720 2.095 . S
O725 C734 1.250 . S
O726 Mn721 2.121 . S
O726 C734 1.258 . S
C727 N728 1.326 . S
C727 C731 1.460 . S
C727 H733 0.929 . S
N728 Mn721 2.257 . S
N728 C727 1.326 . S
N728 C732 1.362 . S
C729 C730 1.258 . S
C729 C732 1.431 . S
C729 C749 1.449 . S
C730 C729 1.258 . S
C730 C731 1.477 . S
C730 H750 0.931 . S
C731 C727 1.460 . S
C731 C730 1.477 . S
C731 H751 0.930 . S
C732 N728 1.362 . S
C732 C729 1.431 . S
C732 C742 1.476 . S
H733 C727 0.929 . S
C734 O725 1.250 . S
C734 O726 1.258 . S
O735 Mn720 2.162 . S
O735 C723 1.281 . S
O736 Mn720 2.297 . S
O736 C723 1.236 . S
N737 Mn721 2.282 . S
N737 C738 1.328 . S
N737 C742 1.318 . S
C738 N737 1.328 . S
C738 C739 1.457 . S
C738 H743 0.929 . S
C739 C738 1.457 . S
C739 C740 1.291 . S
C739 H752 0.931 . S
C740 C739 1.291 . S
C740 C741 1.373 . S
C740 H753 0.929 . S
C741 C740 1.373 . S
C741 C742 1.396 . S
C741 C748 1.403 . S
C742 C732 1.476 . S
C742 N737 1.318 . S
C742 C741 1.396 . S
H743 C738 0.929 . S
O744 Mn720 2.385 . S
O744 C722 1.234 . S
O745 Mn720 2.209 . S
O745 Mn721 2.215 . S
O745 C722 1.283 . S
O746 Mn720 2.094 . S
O746 C724 1.240 . S
O747 Mn721 2.117 . S
O747 C724 1.264 . S
C748 C741 1.403 . S
C748 C749 1.399 . S
C748 H754 0.929 . S
C749 C729 1.449 . S
C749 C748 1.399 . S
C749 H755 0.930 . S
H750 C730 0.931 . S
H751 C731 0.930 . S
H752 C739 0.931 . S
H753 C740 0.929 . S
H754 C748 0.929 . S
H755 C749 0.930 . S
Mn756 O761 2.095 . S
Mn756 O771 2.162 . S
Mn756 O772 2.297 . S
Mn756 O780 2.385 . S
Mn756 O781 2.209 . S
Mn756 O782 2.094 . S
Mn757 O762 2.121 . S
Mn757 N764 2.257 . S
Mn757 N773 2.282 . S
Mn757 O781 2.215 . S
Mn757 O783 2.117 . S
C758 O780 1.234 . S
C758 O781 1.283 . S
C759 O771 1.281 . S
C759 O772 1.236 . S
C760 O782 1.240 . S
C760 O783 1.264 . S
O761 Mn756 2.095 . S
O761 C770 1.250 . S
O762 Mn757 2.121 . S
O762 C770 1.258 . S
C763 N764 1.326 . S
C763 C767 1.460 . S
C763 H769 0.929 . S
N764 Mn757 2.257 . S
N764 C763 1.326 . S
N764 C768 1.362 . S
C765 C766 1.258 . S
C765 C768 1.431 . S
C765 C785 1.449 . S
C766 C765 1.258 . S
C766 C767 1.477 . S
C766 H786 0.931 . S
C767 C763 1.460 . S
C767 C766 1.477 . S
C767 H787 0.930 . S
C768 N764 1.362 . S
C768 C765 1.431 . S
C768 C778 1.476 . S
H769 C763 0.929 . S
C770 O761 1.250 . S
C770 O762 1.258 . S
O771 Mn756 2.162 . S
O771 C759 1.281 . S
O772 Mn756 2.297 . S
O772 C759 1.236 . S
N773 Mn757 2.282 . S
N773 C774 1.328 . S
N773 C778 1.318 . S
C774 N773 1.328 . S
C774 C775 1.457 . S
C774 H779 0.929 . S
C775 C774 1.457 . S
C775 C776 1.291 . S
C775 H788 0.931 . S
C776 C775 1.291 . S
C776 C777 1.373 . S
C776 H789 0.929 . S
C777 C776 1.373 . S
C777 C778 1.396 . S
C777 C784 1.403 . S
C778 C768 1.476 . S
C778 N773 1.318 . S
C778 C777 1.396 . S
H779 C774 0.929 . S
O780 Mn756 2.385 . S
O780 C758 1.234 . S
O781 Mn756 2.209 . S
O781 Mn757 2.215 . S
O781 C758 1.283 . S
O782 Mn756 2.094 . S
O782 C760 1.240 . S
O783 Mn757 2.117 . S
O783 C760 1.264 . S
C784 C777 1.403 . S
C784 C785 1.399 . S
C784 H790 0.929 . S
C785 C765 1.449 . S
C785 C784 1.399 . S
C785 H791 0.930 . S
H786 C766 0.931 . S
H787 C767 0.930 . S
H788 C775 0.931 . S
H789 C776 0.929 . S
H790 C784 0.929 . S
H791 C785 0.930 . S
Mn792 O797 2.095 . S
Mn792 O807 2.162 . S
Mn792 O808 2.297 . S
Mn792 O816 2.385 . S
Mn792 O817 2.209 . S
Mn792 O818 2.094 . S
Mn793 O798 2.121 . S
Mn793 N800 2.257 . S
Mn793 N809 2.282 . S
Mn793 O817 2.215 . S
Mn793 O819 2.117 . S
C794 O816 1.234 . S
C794 O817 1.283 . S
C795 O807 1.281 . S
C795 O808 1.236 . S
C796 O818 1.240 . S
C796 O819 1.264 . S
O797 Mn792 2.095 . S
O797 C806 1.250 . S
O798 Mn793 2.121 . S
O798 C806 1.258 . S
C799 N800 1.326 . S
C799 C803 1.460 . S
C799 H805 0.929 . S
N800 Mn793 2.257 . S
N800 C799 1.326 . S
N800 C804 1.362 . S
C801 C802 1.258 . S
C801 C804 1.431 . S
C801 C821 1.449 . S
C802 C801 1.258 . S
C802 C803 1.477 . S
C802 H822 0.931 . S
C803 C799 1.460 . S
C803 C802 1.477 . S
C803 H823 0.930 . S
C804 N800 1.362 . S
C804 C801 1.431 . S
C804 C814 1.476 . S
H805 C799 0.929 . S
C806 O797 1.250 . S
C806 O798 1.258 . S
O807 Mn792 2.162 . S
O807 C795 1.281 . S
O808 Mn792 2.297 . S
O808 C795 1.236 . S
N809 Mn793 2.282 . S
N809 C810 1.328 . S
N809 C814 1.318 . S
C810 N809 1.328 . S
C810 C811 1.457 . S
C810 H815 0.929 . S
C811 C810 1.457 . S
C811 C812 1.291 . S
C811 H824 0.931 . S
C812 C811 1.291 . S
C812 C813 1.373 . S
C812 H825 0.929 . S
C813 C812 1.373 . S
C813 C814 1.396 . S
C813 C820 1.403 . S
C814 C804 1.476 . S
C814 N809 1.318 . S
C814 C813 1.396 . S
H815 C810 0.929 . S
O816 Mn792 2.385 . S
O816 C794 1.234 . S
O817 Mn792 2.209 . S
O817 Mn793 2.215 . S
O817 C794 1.283 . S
O818 Mn792 2.094 . S
O818 C796 1.240 . S
O819 Mn793 2.117 . S
O819 C796 1.264 . S
C820 C813 1.403 . S
C820 C821 1.399 . S
C820 H826 0.929 . S
C821 C801 1.449 . S
C821 C820 1.399 . S
C821 H827 0.930 . S
H822 C802 0.931 . S
H823 C803 0.930 . S
H824 C811 0.931 . S
H825 C812 0.929 . S
H826 C820 0.929 . S
H827 C821 0.930 . S
Mn828 O833 2.095 . S
Mn828 O843 2.162 . S
Mn828 O844 2.297 . S
Mn828 O852 2.385 . S
Mn828 O853 2.209 . S
Mn828 O854 2.094 . S
Mn829 O834 2.121 . S
Mn829 N836 2.257 . S
Mn829 N845 2.282 . S
Mn829 O853 2.215 . S
Mn829 O855 2.117 . S
C830 O852 1.234 . S
C830 O853 1.283 . S
C831 O843 1.281 . S
C831 O844 1.236 . S
C832 O854 1.240 . S
C832 O855 1.264 . S
O833 Mn828 2.095 . S
O833 C842 1.250 . S
O834 Mn829 2.121 . S
O834 C842 1.258 . S
C835 N836 1.326 . S
C835 C839 1.460 . S
C835 H841 0.929 . S
N836 Mn829 2.257 . S
N836 C835 1.326 . S
N836 C840 1.362 . S
C837 C838 1.258 . S
C837 C840 1.431 . S
C837 C857 1.449 . S
C838 C837 1.258 . S
C838 C839 1.477 . S
C838 H858 0.931 . S
C839 C835 1.460 . S
C839 C838 1.477 . S
C839 H859 0.930 . S
C840 N836 1.362 . S
C840 C837 1.431 . S
C840 C850 1.476 . S
H841 C835 0.929 . S
C842 O833 1.250 . S
C842 O834 1.258 . S
O843 Mn828 2.162 . S
O843 C831 1.281 . S
O844 Mn828 2.297 . S
O844 C831 1.236 . S
N845 Mn829 2.282 . S
N845 C846 1.328 . S
N845 C850 1.318 . S
C846 N845 1.328 . S
C846 C847 1.457 . S
C846 H851 0.929 . S
C847 C846 1.457 . S
C847 C848 1.291 . S
C847 H860 0.931 . S
C848 C847 1.291 . S
C848 C849 1.373 . S
C848 H861 0.929 . S
C849 C848 1.373 . S
C849 C850 1.396 . S
C849 C856 1.403 . S
C850 C840 1.476 . S
C850 N845 1.318 . S
C850 C849 1.396 . S
H851 C846 0.929 . S
O852 Mn828 2.385 . S
O852 C830 1.234 . S
O853 Mn828 2.209 . S
O853 Mn829 2.215 . S
O853 C830 1.283 . S
O854 Mn828 2.094 . S
O854 C832 1.240 . S
O855 Mn829 2.117 . S
O855 C832 1.264 . S
C856 C849 1.403 . S
C856 C857 1.399 . S
C856 H862 0.929 . S
C857 C837 1.449 . S
C857 C856 1.399 . S
C857 H863 0.930 . S
H858 C838 0.931 . S
H859 C839 0.930 . S
H860 C847 0.931 . S
H861 C848 0.929 . S
H862 C856 0.929 . S
H863 C857 0.930 . S
H864 C872 0.929 . S
H865 C874 0.930 . S
H866 C876 0.930 . S
H867 C879 0.929 . S
H868 C882 0.930 . S
H869 C884 0.960 . S
H870 C884 0.960 . S
H871 C884 0.960 . S
C872 H864 0.929 . S
C872 C873 1.377 . S
C872 C874 1.384 . S
C873 C872 1.377 . S
C873 C879 1.390 . S
C874 H865 0.930 . S
C874 C872 1.384 . S
C874 C875 1.372 . S
C875 C874 1.372 . S
C875 C876 1.400 . S
C875 C880 1.490 . S
C876 H866 0.930 . S
C876 C875 1.400 . S
C876 C879 1.386 . S
H877 C893 0.930 . S
H878 C894 0.931 . S
C879 H867 0.929 . S
C879 C873 1.390 . S
C879 C876 1.386 . S
C880 C875 1.490 . S
C880 C882 1.395 . S
C880 C883 1.403 . S
H881 C887 0.930 . S
C882 H868 0.930 . S
C882 C880 1.395 . S
C882 C885 1.403 . S
C883 C880 1.403 . S
C883 C884 1.524 . S
C883 C887 1.400 . S
C884 H869 0.960 . S
C884 H870 0.960 . S
C884 H871 0.960 . S
C884 C883 1.524 . S
C885 C882 1.403 . S
C885 C886 1.392 . S
C885 C889 1.495 . S
C886 C885 1.392 . S
C886 C887 1.385 . S
C886 C888 1.478 . S
C887 H881 0.930 . S
C887 C883 1.400 . S
C887 C886 1.385 . S
C888 C886 1.478 . S
C888 C890 1.381 . S
C888 C894 1.383 . S
C889 C885 1.495 . S
C889 H895 0.959 . S
C889 H896 0.961 . S
C889 H897 0.960 . S
C890 C888 1.381 . S
C890 C891 1.394 . S
C890 H898 0.930 . S
C891 C890 1.394 . S
C891 C892 1.383 . S
C891 H899 0.929 . S
C892 C891 1.383 . S
C892 C893 1.377 . S
C893 H877 0.930 . S
C893 C892 1.377 . S
C893 C894 1.379 . S
C894 H878 0.931 . S
C894 C888 1.383 . S
C894 C893 1.379 . S
H895 C889 0.959 . S
H896 C889 0.961 . S
H897 C889 0.960 . S
H898 C890 0.930 . S
H899 C891 0.929 . S
H900 C908 0.929 . S
H901 C910 0.930 . S
H902 C912 0.930 . S
H903 C915 0.929 . S
H904 C918 0.930 . S
H905 C920 0.960 . S
H906 C920 0.960 . S
H907 C920 0.960 . S
C908 H900 0.929 . S
C908 C909 1.377 . S
C908 C910 1.384 . S
C909 C908 1.377 . S
C909 C915 1.390 . S
C910 H901 0.930 . S
C910 C908 1.384 . S
C910 C911 1.372 . S
C911 C910 1.372 . S
C911 C912 1.400 . S
C911 C916 1.490 . S
C912 H902 0.930 . S
C912 C911 1.400 . S
C912 C915 1.386 . S
H913 C929 0.930 . S
H914 C930 0.931 . S
C915 H903 0.929 . S
C915 C909 1.390 . S
C915 C912 1.386 . S
C916 C911 1.490 . S
C916 C918 1.395 . S
C916 C919 1.403 . S
H917 C923 0.930 . S
C918 H904 0.930 . S
C918 C916 1.395 . S
C918 C921 1.403 . S
C919 C916 1.403 . S
C919 C920 1.524 . S
C919 C923 1.400 . S
C920 H905 0.960 . S
C920 H906 0.960 . S
C920 H907 0.960 . S
C920 C919 1.524 . S
C921 C918 1.403 . S
C921 C922 1.392 . S
C921 C925 1.495 . S
C922 C921 1.392 . S
C922 C923 1.385 . S
C922 C924 1.478 . S
C923 H917 0.930 . S
C923 C919 1.400 . S
C923 C922 1.385 . S
C924 C922 1.478 . S
C924 C926 1.381 . S
C924 C930 1.383 . S
C925 C921 1.495 . S
C925 H931 0.959 . S
C925 H932 0.961 . S
C925 H933 0.960 . S
C926 C924 1.381 . S
C926 C927 1.394 . S
C926 H934 0.930 . S
C927 C926 1.394 . S
C927 C928 1.383 . S
C927 H935 0.929 . S
C928 C927 1.383 . S
C928 C929 1.377 . S
C929 H913 0.930 . S
C929 C928 1.377 . S
C929 C930 1.379 . S
C930 H914 0.931 . S
C930 C924 1.383 . S
C930 C929 1.379 . S
H931 C925 0.959 . S
H932 C925 0.961 . S
H933 C925 0.960 . S
H934 C926 0.930 . S
H935 C927 0.929 . S
H936 C944 0.929 . S
H937 C946 0.930 . S
H938 C948 0.930 . S
H939 C951 0.929 . S
H940 C954 0.930 . S
H941 C956 0.960 . S
H942 C956 0.960 . S
H943 C956 0.960 . S
C944 H936 0.929 . S
C944 C945 1.377 . S
C944 C946 1.384 . S
C945 C944 1.377 . S
C945 C951 1.390 . S
C946 H937 0.930 . S
C946 C944 1.384 . S
C946 C947 1.372 . S
C947 C946 1.372 . S
C947 C948 1.400 . S
C947 C952 1.490 . S
C948 H938 0.930 . S
C948 C947 1.400 . S
C948 C951 1.386 . S
H949 C965 0.930 . S
H950 C966 0.931 . S
C951 H939 0.929 . S
C951 C945 1.390 . S
C951 C948 1.386 . S
C952 C947 1.490 . S
C952 C954 1.395 . S
C952 C955 1.403 . S
H953 C959 0.930 . S
C954 H940 0.930 . S
C954 C952 1.395 . S
C954 C957 1.403 . S
C955 C952 1.403 . S
C955 C956 1.524 . S
C955 C959 1.400 . S
C956 H941 0.960 . S
C956 H942 0.960 . S
C956 H943 0.960 . S
C956 C955 1.524 . S
C957 C954 1.403 . S
C957 C958 1.392 . S
C957 C961 1.495 . S
C958 C957 1.392 . S
C958 C959 1.385 . S
C958 C960 1.478 . S
C959 H953 0.930 . S
C959 C955 1.400 . S
C959 C958 1.385 . S
C960 C958 1.478 . S
C960 C962 1.381 . S
C960 C966 1.383 . S
C961 C957 1.495 . S
C961 H967 0.959 . S
C961 H968 0.961 . S
C961 H969 0.960 . S
C962 C960 1.381 . S
C962 C963 1.394 . S
C962 H970 0.930 . S
C963 C962 1.394 . S
C963 C964 1.383 . S
C963 H971 0.929 . S
C964 C963 1.383 . S
C964 C965 1.377 . S
C965 H949 0.930 . S
C965 C964 1.377 . S
C965 C966 1.379 . S
C966 H950 0.931 . S
C966 C960 1.383 . S
C966 C965 1.379 . S
H967 C961 0.959 . S
H968 C961 0.961 . S
H969 C961 0.960 . S
H970 C962 0.930 . S
H971 C963 0.929 . S
H972 C980 0.929 . S
H973 C982 0.930 . S
H974 C984 0.930 . S
H975 C987 0.929 . S
H976 C990 0.930 . S
H977 C992 0.960 . S
H978 C992 0.960 . S
H979 C992 0.960 . S
C980 H972 0.929 . S
C980 C981 1.377 . S
C980 C982 1.384 . S
C981 C980 1.377 . S
C981 C987 1.390 . S
C982 H973 0.930 . S
C982 C980 1.384 . S
C982 C983 1.372 . S
C983 C982 1.372 . S
C983 C984 1.400 . S
C983 C988 1.490 . S
C984 H974 0.930 . S
C984 C983 1.400 . S
C984 C987 1.386 . S
H985 C1001 0.930 . S
H986 C1002 0.931 . S
C987 H975 0.929 . S
C987 C981 1.390 . S
C987 C984 1.386 . S
C988 C983 1.490 . S
C988 C990 1.395 . S
C988 C991 1.403 . S
H989 C995 0.930 . S
C990 H976 0.930 . S
C990 C988 1.395 . S
C990 C993 1.403 . S
C991 C988 1.403 . S
C991 C992 1.524 . S
C991 C995 1.400 . S
C992 H977 0.960 . S
C992 H978 0.960 . S
C992 H979 0.960 . S
C992 C991 1.524 . S
C993 C990 1.403 . S
C993 C994 1.392 . S
C993 C997 1.495 . S
C994 C993 1.392 . S
C994 C995 1.385 . S
C994 C996 1.478 . S
C995 H989 0.930 . S
C995 C991 1.400 . S
C995 C994 1.385 . S
C996 C994 1.478 . S
C996 C998 1.381 . S
C996 C1002 1.383 . S
C997 C993 1.495 . S
C997 H1003 0.959 . S
C997 H1004 0.961 . S
C997 H1005 0.960 . S
C998 C996 1.381 . S
C998 C999 1.394 . S
C998 H1006 0.930 . S
C999 C998 1.394 . S
C999 C1000 1.383 . S
C999 H1007 0.929 . S
C1000 C999 1.383 . S
C1000 C1001 1.377 . S
C1001 H985 0.930 . S
C1001 C1000 1.377 . S
C1001 C1002 1.379 . S
C1002 H986 0.931 . S
C1002 C996 1.383 . S
C1002 C1001 1.379 . S
H1003 C997 0.959 . S
H1004 C997 0.961 . S
H1005 C997 0.960 . S
H1006 C998 0.930 . S
H1007 C999 0.929 . S
H1008 C1016 0.929 . S
H1009 C1018 0.930 . S
H1010 C1020 0.930 . S
H1011 C1023 0.929 . S
H1012 C1026 0.930 . S
H1013 C1028 0.960 . S
H1014 C1028 0.960 . S
H1015 C1028 0.960 . S
C1016 H1008 0.929 . S
C1016 C1017 1.377 . S
C1016 C1018 1.384 . S
C1017 C1016 1.377 . S
C1017 C1023 1.390 . S
C1018 H1009 0.930 . S
C1018 C1016 1.384 . S
C1018 C1019 1.372 . S
C1019 C1018 1.372 . S
C1019 C1020 1.400 . S
C1019 C1024 1.490 . S
C1020 H1010 0.930 . S
C1020 C1019 1.400 . S
C1020 C1023 1.386 . S
H1021 C1037 0.930 . S
H1022 C1038 0.931 . S
C1023 H1011 0.929 . S
C1023 C1017 1.390 . S
C1023 C1020 1.386 . S
C1024 C1019 1.490 . S
C1024 C1026 1.395 . S
C1024 C1027 1.403 . S
H1025 C1031 0.930 . S
C1026 H1012 0.930 . S
C1026 C1024 1.395 . S
C1026 C1029 1.403 . S
C1027 C1024 1.403 . S
C1027 C1028 1.524 . S
C1027 C1031 1.400 . S
C1028 H1013 0.960 . S
C1028 H1014 0.960 . S
C1028 H1015 0.960 . S
C1028 C1027 1.524 . S
C1029 C1026 1.403 . S
C1029 C1030 1.392 . S
C1029 C1033 1.495 . S
C1030 C1029 1.392 . S
C1030 C1031 1.385 . S
C1030 C1032 1.478 . S
C1031 H1025 0.930 . S
C1031 C1027 1.400 . S
C1031 C1030 1.385 . S
C1032 C1030 1.478 . S
C1032 C1034 1.381 . S
C1032 C1038 1.383 . S
C1033 C1029 1.495 . S
C1033 H1039 0.959 . S
C1033 H1040 0.961 . S
C1033 H1041 0.960 . S
C1034 C1032 1.381 . S
C1034 C1035 1.394 . S
C1034 H1042 0.930 . S
C1035 C1034 1.394 . S
C1035 C1036 1.383 . S
C1035 H1043 0.929 . S
C1036 C1035 1.383 . S
C1036 C1037 1.377 . S
C1037 H1021 0.930 . S
C1037 C1036 1.377 . S
C1037 C1038 1.379 . S
C1038 H1022 0.931 . S
C1038 C1032 1.383 . S
C1038 C1037 1.379 . S
H1039 C1033 0.959 . S
H1040 C1033 0.961 . S
H1041 C1033 0.960 . S
H1042 C1034 0.930 . S
H1043 C1035 0.929 . S
H1044 C1052 0.929 . S
H1045 C1054 0.930 . S
H1046 C1056 0.930 . S
H1047 C1059 0.929 . S
H1048 C1062 0.930 . S
H1049 C1064 0.960 . S
H1050 C1064 0.960 . S
H1051 C1064 0.960 . S
C1052 H1044 0.929 . S
C1052 C1053 1.377 . S
C1052 C1054 1.384 . S
C1053 C1052 1.377 . S
C1053 C1059 1.390 . S
C1054 H1045 0.930 . S
C1054 C1052 1.384 . S
C1054 C1055 1.372 . S
C1055 C1054 1.372 . S
C1055 C1056 1.400 . S
C1055 C1060 1.490 . S
C1056 H1046 0.930 . S
C1056 C1055 1.400 . S
C1056 C1059 1.386 . S
H1057 C1073 0.930 . S
H1058 C1074 0.931 . S
C1059 H1047 0.929 . S
C1059 C1053 1.390 . S
C1059 C1056 1.386 . S
C1060 C1055 1.490 . S
C1060 C1062 1.395 . S
C1060 C1063 1.403 . S
H1061 C1067 0.930 . S
C1062 H1048 0.930 . S
C1062 C1060 1.395 . S
C1062 C1065 1.403 . S
C1063 C1060 1.403 . S
C1063 C1064 1.524 . S
C1063 C1067 1.400 . S
C1064 H1049 0.960 . S
C1064 H1050 0.960 . S
C1064 H1051 0.960 . S
C1064 C1063 1.524 . S
C1065 C1062 1.403 . S
C1065 C1066 1.392 . S
C1065 C1069 1.495 . S
C1066 C1065 1.392 . S
C1066 C1067 1.385 . S
C1066 C1068 1.478 . S
C1067 H1061 0.930 . S
C1067 C1063 1.400 . S
C1067 C1066 1.385 . S
C1068 C1066 1.478 . S
C1068 C1070 1.381 . S
C1068 C1074 1.383 . S
C1069 C1065 1.495 . S
C1069 H1075 0.959 . S
C1069 H1076 0.961 . S
C1069 H1077 0.960 . S
C1070 C1068 1.381 . S
C1070 C1071 1.394 . S
C1070 H1078 0.930 . S
C1071 C1070 1.394 . S
C1071 C1072 1.383 . S
C1071 H1079 0.929 . S
C1072 C1071 1.383 . S
C1072 C1073 1.377 . S
C1073 H1057 0.930 . S
C1073 C1072 1.377 . S
C1073 C1074 1.379 . S
C1074 H1058 0.931 . S
C1074 C1068 1.383 . S
C1074 C1073 1.379 . S
H1075 C1069 0.959 . S
H1076 C1069 0.961 . S
H1077 C1069 0.960 . S
H1078 C1070 0.930 . S
H1079 C1071 0.929 . S
H1080 C1088 0.929 . S
H1081 C1090 0.930 . S
H1082 C1092 0.930 . S
H1083 C1095 0.929 . S
H1084 C1098 0.930 . S
H1085 C1100 0.960 . S
H1086 C1100 0.960 . S
H1087 C1100 0.960 . S
C1088 H1080 0.929 . S
C1088 C1089 1.377 . S
C1088 C1090 1.384 . S
C1089 C1088 1.377 . S
C1089 C1095 1.390 . S
C1090 H1081 0.930 . S
C1090 C1088 1.384 . S
C1090 C1091 1.372 . S
C1091 C1090 1.372 . S
C1091 C1092 1.400 . S
C1091 C1096 1.490 . S
C1092 H1082 0.930 . S
C1092 C1091 1.400 . S
C1092 C1095 1.386 . S
H1093 C1109 0.930 . S
H1094 C1110 0.931 . S
C1095 H1083 0.929 . S
C1095 C1089 1.390 . S
C1095 C1092 1.386 . S
C1096 C1091 1.490 . S
C1096 C1098 1.395 . S
C1096 C1099 1.403 . S
H1097 C1103 0.930 . S
C1098 H1084 0.930 . S
C1098 C1096 1.395 . S
C1098 C1101 1.403 . S
C1099 C1096 1.403 . S
C1099 C1100 1.524 . S
C1099 C1103 1.400 . S
C1100 H1085 0.960 . S
C1100 H1086 0.960 . S
C1100 H1087 0.960 . S
C1100 C1099 1.524 . S
C1101 C1098 1.403 . S
C1101 C1102 1.392 . S
C1101 C1105 1.495 . S
C1102 C1101 1.392 . S
C1102 C1103 1.385 . S
C1102 C1104 1.478 . S
C1103 H1097 0.930 . S
C1103 C1099 1.400 . S
C1103 C1102 1.385 . S
C1104 C1102 1.478 . S
C1104 C1106 1.381 . S
C1104 C1110 1.383 . S
C1105 C1101 1.495 . S
C1105 H1111 0.959 . S
C1105 H1112 0.961 . S
C1105 H1113 0.960 . S
C1106 C1104 1.381 . S
C1106 C1107 1.394 . S
C1106 H1114 0.930 . S
C1107 C1106 1.394 . S
C1107 C1108 1.383 . S
C1107 H1115 0.929 . S
C1108 C1107 1.383 . S
C1108 C1109 1.377 . S
C1109 H1093 0.930 . S
C1109 C1108 1.377 . S
C1109 C1110 1.379 . S
C1110 H1094 0.931 . S
C1110 C1104 1.383 . S
C1110 C1109 1.379 . S
H1111 C1105 0.959 . S
H1112 C1105 0.961 . S
H1113 C1105 0.960 . S
H1114 C1106 0.930 . S
H1115 C1107 0.929 . S
H1116 C1124 0.929 . S
H1117 C1126 0.930 . S
H1118 C1128 0.930 . S
H1119 C1131 0.929 . S
H1120 C1134 0.930 . S
H1121 C1136 0.960 . S
H1122 C1136 0.960 . S
H1123 C1136 0.960 . S
C1124 H1116 0.929 . S
C1124 C1125 1.377 . S
C1124 C1126 1.384 . S
C1125 C1124 1.377 . S
C1125 C1131 1.390 . S
C1126 H1117 0.930 . S
C1126 C1124 1.384 . S
C1126 C1127 1.372 . S
C1127 C1126 1.372 . S
C1127 C1128 1.400 . S
C1127 C1132 1.490 . S
C1128 H1118 0.930 . S
C1128 C1127 1.400 . S
C1128 C1131 1.386 . S
H1129 C1145 0.930 . S
H1130 C1146 0.931 . S
C1131 H1119 0.929 . S
C1131 C1125 1.390 . S
C1131 C1128 1.386 . S
C1132 C1127 1.490 . S
C1132 C1134 1.395 . S
C1132 C1135 1.403 . S
H1133 C1139 0.930 . S
C1134 H1120 0.930 . S
C1134 C1132 1.395 . S
C1134 C1137 1.403 . S
C1135 C1132 1.403 . S
C1135 C1136 1.524 . S
C1135 C1139 1.400 . S
C1136 H1121 0.960 . S
C1136 H1122 0.960 . S
C1136 H1123 0.960 . S
C1136 C1135 1.524 . S
C1137 C1134 1.403 . S
C1137 C1138 1.392 . S
C1137 C1141 1.495 . S
C1138 C1137 1.392 . S
C1138 C1139 1.385 . S
C1138 C1140 1.478 . S
C1139 H1133 0.930 . S
C1139 C1135 1.400 . S
C1139 C1138 1.385 . S
C1140 C1138 1.478 . S
C1140 C1142 1.381 . S
C1140 C1146 1.383 . S
C1141 C1137 1.495 . S
C1141 H1147 0.959 . S
C1141 H1148 0.961 . S
C1141 H1149 0.960 . S
C1142 C1140 1.381 . S
C1142 C1143 1.394 . S
C1142 H1150 0.930 . S
C1143 C1142 1.394 . S
C1143 C1144 1.383 . S
C1143 H1151 0.929 . S
C1144 C1143 1.383 . S
C1144 C1145 1.377 . S
C1145 H1129 0.930 . S
C1145 C1144 1.377 . S
C1145 C1146 1.379 . S
C1146 H1130 0.931 . S
C1146 C1140 1.383 . S
C1146 C1145 1.379 . S
H1147 C1141 0.959 . S
H1148 C1141 0.961 . S
H1149 C1141 0.960 . S
H1150 C1142 0.930 . S
H1151 C1143 0.929 . S
H1152 C1160 0.929 . S
H1153 C1162 0.930 . S
H1154 C1164 0.930 . S
H1155 C1167 0.929 . S
H1156 C1170 0.930 . S
H1157 C1172 0.960 . S
H1158 C1172 0.960 . S
H1159 C1172 0.960 . S
C1160 H1152 0.929 . S
C1160 C1161 1.377 . S
C1160 C1162 1.384 . S
C1161 C1160 1.377 . S
C1161 C1167 1.390 . S
C1162 H1153 0.930 . S
C1162 C1160 1.384 . S
C1162 C1163 1.372 . S
C1163 C1162 1.372 . S
C1163 C1164 1.400 . S
C1163 C1168 1.490 . S
C1164 H1154 0.930 . S
C1164 C1163 1.400 . S
C1164 C1167 1.386 . S
H1165 C1181 0.930 . S
H1166 C1182 0.931 . S
C1167 H1155 0.929 . S
C1167 C1161 1.390 . S
C1167 C1164 1.386 . S
C1168 C1163 1.490 . S
C1168 C1170 1.395 . S
C1168 C1171 1.403 . S
H1169 C1175 0.930 . S
C1170 H1156 0.930 . S
C1170 C1168 1.395 . S
C1170 C1173 1.403 . S
C1171 C1168 1.403 . S
C1171 C1172 1.524 . S
C1171 C1175 1.400 . S
C1172 H1157 0.960 . S
C1172 H1158 0.960 . S
C1172 H1159 0.960 . S
C1172 C1171 1.524 . S
C1173 C1170 1.403 . S
C1173 C1174 1.392 . S
C1173 C1177 1.495 . S
C1174 C1173 1.392 . S
C1174 C1175 1.385 . S
C1174 C1176 1.478 . S
C1175 H1169 0.930 . S
C1175 C1171 1.400 . S
C1175 C1174 1.385 . S
C1176 C1174 1.478 . S
C1176 C1178 1.381 . S
C1176 C1182 1.383 . S
C1177 C1173 1.495 . S
C1177 H1183 0.959 . S
C1177 H1184 0.961 . S
C1177 H1185 0.960 . S
C1178 C1176 1.381 . S
C1178 C1179 1.394 . S
C1178 H1186 0.930 . S
C1179 C1178 1.394 . S
C1179 C1180 1.383 . S
C1179 H1187 0.929 . S
C1180 C1179 1.383 . S
C1180 C1181 1.377 . S
C1181 H1165 0.930 . S
C1181 C1180 1.377 . S
C1181 C1182 1.379 . S
C1182 H1166 0.931 . S
C1182 C1176 1.383 . S
C1182 C1181 1.379 . S
H1183 C1177 0.959 . S
H1184 C1177 0.961 . S
H1185 C1177 0.960 . S
H1186 C1178 0.930 . S
H1187 C1179 0.929 . S
H1188 C1196 0.929 . S
H1189 C1198 0.930 . S
H1190 C1200 0.930 . S
H1191 C1203 0.929 . S
H1192 C1206 0.930 . S
H1193 C1208 0.960 . S
H1194 C1208 0.960 . S
H1195 C1208 0.960 . S
C1196 H1188 0.929 . S
C1196 C1197 1.377 . S
C1196 C1198 1.384 . S
C1197 C1196 1.377 . S
C1197 C1203 1.390 . S
C1198 H1189 0.930 . S
C1198 C1196 1.384 . S
C1198 C1199 1.372 . S
C1199 C1198 1.372 . S
C1199 C1200 1.400 . S
C1199 C1204 1.490 . S
C1200 H1190 0.930 . S
C1200 C1199 1.400 . S
C1200 C1203 1.386 . S
H1201 C1217 0.930 . S
H1202 C1218 0.931 . S
C1203 H1191 0.929 . S
C1203 C1197 1.390 . S
C1203 C1200 1.386 . S
C1204 C1199 1.490 . S
C1204 C1206 1.395 . S
C1204 C1207 1.403 . S
H1205 C1211 0.930 . S
C1206 H1192 0.930 . S
C1206 C1204 1.395 . S
C1206 C1209 1.403 . S
C1207 C1204 1.403 . S
C1207 C1208 1.524 . S
C1207 C1211 1.400 . S
C1208 H1193 0.960 . S
C1208 H1194 0.960 . S
C1208 H1195 0.960 . S
C1208 C1207 1.524 . S
C1209 C1206 1.403 . S
C1209 C1210 1.392 . S
C1209 C1213 1.495 . S
C1210 C1209 1.392 . S
C1210 C1211 1.385 . S
C1210 C1212 1.478 . S
C1211 H1205 0.930 . S
C1211 C1207 1.400 . S
C1211 C1210 1.385 . S
C1212 C1210 1.478 . S
C1212 C1214 1.381 . S
C1212 C1218 1.383 . S
C1213 C1209 1.495 . S
C1213 H1219 0.959 . S
C1213 H1220 0.961 . S
C1213 H1221 0.960 . S
C1214 C1212 1.381 . S
C1214 C1215 1.394 . S
C1214 H1222 0.930 . S
C1215 C1214 1.394 . S
C1215 C1216 1.383 . S
C1215 H1223 0.929 . S
C1216 C1215 1.383 . S
C1216 C1217 1.377 . S
C1217 H1201 0.930 . S
C1217 C1216 1.377 . S
C1217 C1218 1.379 . S
C1218 H1202 0.931 . S
C1218 C1212 1.383 . S
C1218 C1217 1.379 . S
H1219 C1213 0.959 . S
H1220 C1213 0.961 . S
H1221 C1213 0.960 . S
H1222 C1214 0.930 . S
H1223 C1215 0.929 . S
H1224 C1232 0.929 . S
H1225 C1234 0.930 . S
H1226 C1236 0.930 . S
H1227 C1239 0.929 . S
H1228 C1242 0.930 . S
H1229 C1244 0.960 . S
H1230 C1244 0.960 . S
H1231 C1244 0.960 . S
C1232 H1224 0.929 . S
C1232 C1233 1.377 . S
C1232 C1234 1.384 . S
C1233 C1232 1.377 . S
C1233 C1239 1.390 . S
C1234 H1225 0.930 . S
C1234 C1232 1.384 . S
C1234 C1235 1.372 . S
C1235 C1234 1.372 . S
C1235 C1236 1.400 . S
C1235 C1240 1.490 . S
C1236 H1226 0.930 . S
C1236 C1235 1.400 . S
C1236 C1239 1.386 . S
H1237 C1253 0.930 . S
H1238 C1254 0.931 . S
C1239 H1227 0.929 . S
C1239 C1233 1.390 . S
C1239 C1236 1.386 . S
C1240 C1235 1.490 . S
C1240 C1242 1.395 . S
C1240 C1243 1.403 . S
H1241 C1247 0.930 . S
C1242 H1228 0.930 . S
C1242 C1240 1.395 . S
C1242 C1245 1.403 . S
C1243 C1240 1.403 . S
C1243 C1244 1.524 . S
C1243 C1247 1.400 . S
C1244 H1229 0.960 . S
C1244 H1230 0.960 . S
C1244 H1231 0.960 . S
C1244 C1243 1.524 . S
C1245 C1242 1.403 . S
C1245 C1246 1.392 . S
C1245 C1249 1.495 . S
C1246 C1245 1.392 . S
C1246 C1247 1.385 . S
C1246 C1248 1.478 . S
C1247 H1241 0.930 . S
C1247 C1243 1.400 . S
C1247 C1246 1.385 . S
C1248 C1246 1.478 . S
C1248 C1250 1.381 . S
C1248 C1254 1.383 . S
C1249 C1245 1.495 . S
C1249 H1255 0.959 . S
C1249 H1256 0.961 . S
C1249 H1257 0.960 . S
C1250 C1248 1.381 . S
C1250 C1251 1.394 . S
C1250 H1258 0.930 . S
C1251 C1250 1.394 . S
C1251 C1252 1.383 . S
C1251 H1259 0.929 . S
C1252 C1251 1.383 . S
C1252 C1253 1.377 . S
C1253 H1237 0.930 . S
C1253 C1252 1.377 . S
C1253 C1254 1.379 . S
C1254 H1238 0.931 . S
C1254 C1248 1.383 . S
C1254 C1253 1.379 . S
H1255 C1249 0.959 . S
H1256 C1249 0.961 . S
H1257 C1249 0.960 . S
H1258 C1250 0.930 . S
H1259 C1251 0.929 . S
H1260 C1268 0.929 . S
H1261 C1270 0.930 . S
H1262 C1272 0.930 . S
H1263 C1275 0.929 . S
H1264 C1278 0.930 . S
H1265 C1280 0.960 . S
H1266 C1280 0.960 . S
H1267 C1280 0.960 . S
C1268 H1260 0.929 . S
C1268 C1269 1.377 . S
C1268 C1270 1.384 . S
C1269 C1268 1.377 . S
C1269 C1275 1.390 . S
C1270 H1261 0.930 . S
C1270 C1268 1.384 . S
C1270 C1271 1.372 . S
C1271 C1270 1.372 . S
C1271 C1272 1.400 . S
C1271 C1276 1.490 . S
C1272 H1262 0.930 . S
C1272 C1271 1.400 . S
C1272 C1275 1.386 . S
H1273 C1289 0.930 . S
H1274 C1290 0.931 . S
C1275 H1263 0.929 . S
C1275 C1269 1.390 . S
C1275 C1272 1.386 . S
C1276 C1271 1.490 . S
C1276 C1278 1.395 . S
C1276 C1279 1.403 . S
H1277 C1283 0.930 . S
C1278 H1264 0.930 . S
C1278 C1276 1.395 . S
C1278 C1281 1.403 . S
C1279 C1276 1.403 . S
C1279 C1280 1.524 . S
C1279 C1283 1.400 . S
C1280 H1265 0.960 . S
C1280 H1266 0.960 . S
C1280 H1267 0.960 . S
C1280 C1279 1.524 . S
C1281 C1278 1.403 . S
C1281 C1282 1.392 . S
C1281 C1285 1.495 . S
C1282 C1281 1.392 . S
C1282 C1283 1.385 . S
C1282 C1284 1.478 . S
C1283 H1277 0.930 . S
C1283 C1279 1.400 . S
C1283 C1282 1.385 . S
C1284 C1282 1.478 . S
C1284 C1286 1.381 . S
C1284 C1290 1.383 . S
C1285 C1281 1.495 . S
C1285 H1291 0.959 . S
C1285 H1292 0.961 . S
C1285 H1293 0.960 . S
C1286 C1284 1.381 . S
C1286 C1287 1.394 . S
C1286 H1294 0.930 . S
C1287 C1286 1.394 . S
C1287 C1288 1.383 . S
C1287 H1295 0.929 . S
C1288 C1287 1.383 . S
C1288 C1289 1.377 . S
C1289 H1273 0.930 . S
C1289 C1288 1.377 . S
C1289 C1290 1.379 . S
C1290 H1274 0.931 . S
C1290 C1284 1.383 . S
C1290 C1289 1.379 . S
H1291 C1285 0.959 . S
H1292 C1285 0.961 . S
H1293 C1285 0.960 . S
H1294 C1286 0.930 . S
H1295 C1287 0.929 . S
H1296 C1304 0.929 . S
H1297 C1306 0.930 . S
H1298 C1308 0.930 . S
H1299 C1311 0.929 . S
H1300 C1314 0.930 . S
H1301 C1316 0.960 . S
H1302 C1316 0.960 . S
H1303 C1316 0.960 . S
C1304 H1296 0.929 . S
C1304 C1305 1.377 . S
C1304 C1306 1.384 . S
C1305 C1304 1.377 . S
C1305 C1311 1.390 . S
C1306 H1297 0.930 . S
C1306 C1304 1.384 . S
C1306 C1307 1.372 . S
C1307 C1306 1.372 . S
C1307 C1308 1.400 . S
C1307 C1312 1.490 . S
C1308 H1298 0.930 . S
C1308 C1307 1.400 . S
C1308 C1311 1.386 . S
H1309 C1325 0.930 . S
H1310 C1326 0.931 . S
C1311 H1299 0.929 . S
C1311 C1305 1.390 . S
C1311 C1308 1.386 . S
C1312 C1307 1.490 . S
C1312 C1314 1.395 . S
C1312 C1315 1.403 1_556 S
H1313 C1319 0.930 . S
C1314 H1300 0.930 . S
C1314 C1312 1.395 . S
C1314 C1317 1.403 . S
C1315 C1312 1.403 1_554 S
C1315 C1316 1.524 . S
C1315 C1319 1.400 . S
C1316 H1301 0.960 . S
C1316 H1302 0.960 . S
C1316 H1303 0.960 . S
C1316 C1315 1.524 . S
C1317 C1314 1.403 . S
C1317 C1318 1.392 1_556 S
C1317 C1321 1.495 . S
C1318 C1317 1.392 1_554 S
C1318 C1319 1.385 . S
C1318 C1320 1.478 . S
C1319 H1313 0.930 . S
C1319 C1315 1.400 . S
C1319 C1318 1.385 . S
C1320 C1318 1.478 . S
C1320 C1322 1.381 . S
C1320 C1326 1.383 . S
C1321 C1317 1.495 . S
C1321 H1327 0.959 . S
C1321 H1328 0.961 . S
C1321 H1329 0.960 . S
C1322 C1320 1.381 . S
C1322 C1323 1.394 . S
C1322 H1330 0.930 . S
C1323 C1322 1.394 . S
C1323 C1324 1.383 . S
C1323 H1331 0.929 . S
C1324 C1323 1.383 . S
C1324 C1325 1.377 . S
C1325 H1309 0.930 . S
C1325 C1324 1.377 . S
C1325 C1326 1.379 . S
C1326 H1310 0.931 . S
C1326 C1320 1.383 . S
C1326 C1325 1.379 . S
H1327 C1321 0.959 . S
H1328 C1321 0.961 . S
H1329 C1321 0.960 . S
H1330 C1322 0.930 . S
H1331 C1323 0.929 . S
H1332 C1340 0.929 . S
H1333 C1342 0.930 . S
H1334 C1344 0.930 . S
H1335 C1347 0.929 . S
H1336 C1350 0.930 . S
H1337 C1352 0.960 . S
H1338 C1352 0.960 . S
H1339 C1352 0.960 . S
C1340 H1332 0.929 . S
C1340 C1341 1.377 . S
C1340 C1342 1.384 . S
C1341 C1340 1.377 . S
C1341 C1347 1.390 . S
C1342 H1333 0.930 . S
C1342 C1340 1.384 . S
C1342 C1343 1.372 . S
C1343 C1342 1.372 . S
C1343 C1344 1.400 . S
C1343 C1348 1.490 . S
C1344 H1334 0.930 . S
C1344 C1343 1.400 . S
C1344 C1347 1.386 . S
H1345 C1361 0.930 . S
H1346 C1362 0.931 . S
C1347 H1335 0.929 . S
C1347 C1341 1.390 . S
C1347 C1344 1.386 . S
C1348 C1343 1.490 . S
C1348 C1350 1.395 . S
C1348 C1351 1.403 . S
H1349 C1355 0.930 . S
C1350 H1336 0.930 . S
C1350 C1348 1.395 . S
C1350 C1353 1.403 . S
C1351 C1348 1.403 . S
C1351 C1352 1.524 . S
C1351 C1355 1.400 . S
C1352 H1337 0.960 . S
C1352 H1338 0.960 . S
C1352 H1339 0.960 . S
C1352 C1351 1.524 . S
C1353 C1350 1.403 . S
C1353 C1354 1.392 . S
C1353 C1357 1.495 . S
C1354 C1353 1.392 . S
C1354 C1355 1.385 . S
C1354 C1356 1.478 . S
C1355 H1349 0.930 . S
C1355 C1351 1.400 . S
C1355 C1354 1.385 . S
C1356 C1354 1.478 . S
C1356 C1358 1.381 . S
C1356 C1362 1.383 . S
C1357 C1353 1.495 . S
C1357 H1363 0.959 . S
C1357 H1364 0.961 . S
C1357 H1365 0.960 . S
C1358 C1356 1.381 . S
C1358 C1359 1.394 . S
C1358 H1366 0.930 . S
C1359 C1358 1.394 . S
C1359 C1360 1.383 . S
C1359 H1367 0.929 . S
C1360 C1359 1.383 . S
C1360 C1361 1.377 . S
C1361 H1345 0.930 . S
C1361 C1360 1.377 . S
C1361 C1362 1.379 . S
C1362 H1346 0.931 . S
C1362 C1356 1.383 . S
C1362 C1361 1.379 . S
H1363 C1357 0.959 . S
H1364 C1357 0.961 . S
H1365 C1357 0.960 . S
H1366 C1358 0.930 . S
H1367 C1359 0.929 . S
H1368 C1376 0.929 . S
H1369 C1378 0.930 . S
H1370 C1380 0.930 . S
H1371 C1383 0.929 . S
H1372 C1386 0.930 . S
H1373 C1388 0.960 . S
H1374 C1388 0.960 . S
H1375 C1388 0.960 . S
C1376 H1368 0.929 . S
C1376 C1377 1.377 . S
C1376 C1378 1.384 . S
C1377 C1376 1.377 . S
C1377 C1383 1.390 . S
C1378 H1369 0.930 . S
C1378 C1376 1.384 . S
C1378 C1379 1.372 . S
C1379 C1378 1.372 . S
C1379 C1380 1.400 . S
C1379 C1384 1.490 . S
C1380 H1370 0.930 . S
C1380 C1379 1.400 . S
C1380 C1383 1.386 . S
H1381 C1397 0.930 . S
H1382 C1398 0.931 . S
C1383 H1371 0.929 . S
C1383 C1377 1.390 . S
C1383 C1380 1.386 . S
C1384 C1379 1.490 . S
C1384 C1386 1.395 . S
C1384 C1387 1.403 1_554 S
H1385 C1391 0.930 . S
C1386 H1372 0.930 . S
C1386 C1384 1.395 . S
C1386 C1389 1.403 . S
C1387 C1384 1.403 1_556 S
C1387 C1388 1.524 . S
C1387 C1391 1.400 . S
C1388 H1373 0.960 . S
C1388 H1374 0.960 . S
C1388 H1375 0.960 . S
C1388 C1387 1.524 . S
C1389 C1386 1.403 . S
C1389 C1390 1.392 1_554 S
C1389 C1393 1.495 . S
C1390 C1389 1.392 1_556 S
C1390 C1391 1.385 . S
C1390 C1392 1.478 . S
C1391 H1385 0.930 . S
C1391 C1387 1.400 . S
C1391 C1390 1.385 . S
C1392 C1390 1.478 . S
C1392 C1394 1.381 . S
C1392 C1398 1.383 . S
C1393 C1389 1.495 . S
C1393 H1399 0.959 . S
C1393 H1400 0.961 . S
C1393 H1401 0.960 . S
C1394 C1392 1.381 . S
C1394 C1395 1.394 . S
C1394 H1402 0.930 . S
C1395 C1394 1.394 . S
C1395 C1396 1.383 . S
C1395 H1403 0.929 . S
C1396 C1395 1.383 . S
C1396 C1397 1.377 . S
C1397 H1381 0.930 . S
C1397 C1396 1.377 . S
C1397 C1398 1.379 . S
C1398 H1382 0.931 . S
C1398 C1392 1.383 . S
C1398 C1397 1.379 . S
H1399 C1393 0.959 . S
H1400 C1393 0.961 . S
H1401 C1393 0.960 . S
H1402 C1394 0.930 . S
H1403 C1395 0.929 . S
H1404 C1412 0.929 . S
H1405 C1414 0.930 . S
H1406 C1416 0.930 . S
H1407 C1419 0.929 . S
H1408 C1422 0.930 . S
H1409 C1424 0.960 . S
H1410 C1424 0.960 . S
H1411 C1424 0.960 . S
C1412 H1404 0.929 . S
C1412 C1413 1.377 . S
C1412 C1414 1.384 . S
C1413 C1412 1.377 . S
C1413 C1419 1.390 . S
C1414 H1405 0.930 . S
C1414 C1412 1.384 . S
C1414 C1415 1.372 . S
C1415 C1414 1.372 . S
C1415 C1416 1.400 . S
C1415 C1420 1.490 . S
C1416 H1406 0.930 . S
C1416 C1415 1.400 . S
C1416 C1419 1.386 . S
H1417 C1433 0.930 . S
H1418 C1434 0.931 . S
C1419 H1407 0.929 . S
C1419 C1413 1.390 . S
C1419 C1416 1.386 . S
C1420 C1415 1.490 . S
C1420 C1422 1.395 . S
C1420 C1423 1.403 . S
H1421 C1427 0.930 . S
C1422 H1408 0.930 . S
C1422 C1420 1.395 . S
C1422 C1425 1.403 . S
C1423 C1420 1.403 . S
C1423 C1424 1.524 . S
C1423 C1427 1.400 . S
C1424 H1409 0.960 . S
C1424 H1410 0.960 . S
C1424 H1411 0.960 . S
C1424 C1423 1.524 . S
C1425 C1422 1.403 . S
C1425 C1426 1.392 . S
C1425 C1429 1.495 . S
C1426 C1425 1.392 . S
C1426 C1427 1.385 . S
C1426 C1428 1.478 . S
C1427 H1421 0.930 . S
C1427 C1423 1.400 . S
C1427 C1426 1.385 . S
C1428 C1426 1.478 . S
C1428 C1430 1.381 . S
C1428 C1434 1.383 . S
C1429 C1425 1.495 . S
C1429 H1435 0.959 . S
C1429 H1436 0.961 . S
C1429 H1437 0.960 . S
C1430 C1428 1.381 . S
C1430 C1431 1.394 . S
C1430 H1438 0.930 . S
C1431 C1430 1.394 . S
C1431 C1432 1.383 . S
C1431 H1439 0.929 . S
C1432 C1431 1.383 . S
C1432 C1433 1.377 . S
C1433 H1417 0.930 . S
C1433 C1432 1.377 . S
C1433 C1434 1.379 . S
C1434 H1418 0.931 . S
C1434 C1428 1.383 . S
C1434 C1433 1.379 . S
H1435 C1429 0.959 . S
H1436 C1429 0.961 . S
H1437 C1429 0.960 . S
H1438 C1430 0.930 . S
H1439 C1431 0.929 . S
H1440 C1448 0.929 . S
H1441 C1450 0.930 . S
H1442 C1452 0.930 . S
H1443 C1455 0.929 . S
H1444 C1458 0.930 . S
H1445 C1460 0.960 . S
H1446 C1460 0.960 . S
H1447 C1460 0.960 . S
C1448 H1440 0.929 . S
C1448 C1449 1.377 . S
C1448 C1450 1.384 . S
C1449 C1448 1.377 . S
C1449 C1455 1.390 . S
C1450 H1441 0.930 . S
C1450 C1448 1.384 . S
C1450 C1451 1.372 . S
C1451 C1450 1.372 . S
C1451 C1452 1.400 . S
C1451 C1456 1.490 . S
C1452 H1442 0.930 . S
C1452 C1451 1.400 . S
C1452 C1455 1.386 . S
H1453 C1469 0.930 . S
H1454 C1470 0.931 . S
C1455 H1443 0.929 . S
C1455 C1449 1.390 . S
C1455 C1452 1.386 . S
C1456 C1451 1.490 . S
C1456 C1458 1.395 1_556 S
C1456 C1459 1.403 . S
H1457 C1463 0.930 . S
C1458 H1444 0.930 . S
C1458 C1456 1.395 1_554 S
C1458 C1461 1.403 . S
C1459 C1456 1.403 . S
C1459 C1460 1.524 . S
C1459 C1463 1.400 . S
C1460 H1445 0.960 . S
C1460 H1446 0.960 . S
C1460 H1447 0.960 . S
C1460 C1459 1.524 . S
C1461 C1458 1.403 . S
C1461 C1462 1.392 . S
C1461 C1465 1.495 . S
C1462 C1461 1.392 . S
C1462 C1463 1.385 1_554 S
C1462 C1464 1.478 . S
C1463 H1457 0.930 . S
C1463 C1459 1.400 . S
C1463 C1462 1.385 1_556 S
C1464 C1462 1.478 . S
C1464 C1466 1.381 . S
C1464 C1470 1.383 . S
C1465 C1461 1.495 . S
C1465 H1471 0.959 . S
C1465 H1472 0.961 . S
C1465 H1473 0.960 . S
C1466 C1464 1.381 . S
C1466 C1467 1.394 . S
C1466 H1474 0.930 . S
C1467 C1466 1.394 . S
C1467 C1468 1.383 . S
C1467 H1475 0.929 . S
C1468 C1467 1.383 . S
C1468 C1469 1.377 . S
C1469 H1453 0.930 . S
C1469 C1468 1.377 . S
C1469 C1470 1.379 . S
C1470 H1454 0.931 . S
C1470 C1464 1.383 . S
C1470 C1469 1.379 . S
H1471 C1465 0.959 . S
H1472 C1465 0.961 . S
H1473 C1465 0.960 . S
H1474 C1466 0.930 . S
H1475 C1467 0.929 . S
H1476 C1484 0.929 . S
H1477 C1486 0.930 . S
H1478 C1488 0.930 . S
H1479 C1491 0.929 . S
H1480 C1494 0.930 . S
H1481 C1496 0.960 . S
H1482 C1496 0.960 . S
H1483 C1496 0.960 . S
C1484 H1476 0.929 . S
C1484 C1485 1.377 . S
C1484 C1486 1.384 . S
C1485 C1484 1.377 . S
C1485 C1491 1.390 . S
C1486 H1477 0.930 . S
C1486 C1484 1.384 . S
C1486 C1487 1.372 . S
C1487 C1486 1.372 . S
C1487 C1488 1.400 . S
C1487 C1492 1.490 . S
C1488 H1478 0.930 . S
C1488 C1487 1.400 . S
C1488 C1491 1.386 . S
H1489 C1505 0.930 . S
H1490 C1506 0.931 . S
C1491 H1479 0.929 . S
C1491 C1485 1.390 . S
C1491 C1488 1.386 . S
C1492 C1487 1.490 . S
C1492 C1494 1.395 . S
C1492 C1495 1.403 . S
H1493 C1499 0.930 . S
C1494 H1480 0.930 . S
C1494 C1492 1.395 . S
C1494 C1497 1.403 . S
C1495 C1492 1.403 . S
C1495 C1496 1.524 . S
C1495 C1499 1.400 . S
C1496 H1481 0.960 . S
C1496 H1482 0.960 . S
C1496 H1483 0.960 . S
C1496 C1495 1.524 . S
C1497 C1494 1.403 . S
C1497 C1498 1.392 . S
C1497 C1501 1.495 . S
C1498 C1497 1.392 . S
C1498 C1499 1.385 . S
C1498 C1500 1.478 . S
C1499 H1493 0.930 . S
C1499 C1495 1.400 . S
C1499 C1498 1.385 . S
C1500 C1498 1.478 . S
C1500 C1502 1.381 . S
C1500 C1506 1.383 . S
C1501 C1497 1.495 . S
C1501 H1507 0.959 . S
C1501 H1508 0.961 . S
C1501 H1509 0.960 . S
C1502 C1500 1.381 . S
C1502 C1503 1.394 . S
C1502 H1510 0.930 . S
C1503 C1502 1.394 . S
C1503 C1504 1.383 . S
C1503 H1511 0.929 . S
C1504 C1503 1.383 . S
C1504 C1505 1.377 . S
C1505 H1489 0.930 . S
C1505 C1504 1.377 . S
C1505 C1506 1.379 . S
C1506 H1490 0.931 . S
C1506 C1500 1.383 . S
C1506 C1505 1.379 . S
H1507 C1501 0.959 . S
H1508 C1501 0.961 . S
H1509 C1501 0.960 . S
H1510 C1502 0.930 . S
H1511 C1503 0.929 . S
H1512 C1520 0.929 . S
H1513 C1522 0.930 . S
H1514 C1524 0.930 . S
H1515 C1527 0.929 . S
H1516 C1530 0.930 . S
H1517 C1532 0.960 . S
H1518 C1532 0.960 . S
H1519 C1532 0.960 . S
C1520 H1512 0.929 . S
C1520 C1521 1.377 . S
C1520 C1522 1.384 . S
C1521 C1520 1.377 . S
C1521 C1527 1.390 . S
C1522 H1513 0.930 . S
C1522 C1520 1.384 . S
C1522 C1523 1.372 . S
C1523 C1522 1.372 . S
C1523 C1524 1.400 . S
C1523 C1528 1.490 . S
C1524 H1514 0.930 . S
C1524 C1523 1.400 . S
C1524 C1527 1.386 . S
H1525 C1541 0.930 . S
H1526 C1542 0.931 . S
C1527 H1515 0.929 . S
C1527 C1521 1.390 . S
C1527 C1524 1.386 . S
C1528 C1523 1.490 . S
C1528 C1530 1.395 . S
C1528 C1531 1.403 1_554 S
H1529 C1535 0.930 . S
C1530 H1516 0.930 . S
C1530 C1528 1.395 . S
C1530 C1533 1.403 . S
C1531 C1528 1.403 1_556 S
C1531 C1532 1.524 . S
C1531 C1535 1.400 . S
C1532 H1517 0.960 . S
C1532 H1518 0.960 . S
C1532 H1519 0.960 . S
C1532 C1531 1.524 . S
C1533 C1530 1.403 . S
C1533 C1534 1.392 1_554 S
C1533 C1537 1.495 . S
C1534 C1533 1.392 1_556 S
C1534 C1535 1.385 . S
C1534 C1536 1.478 . S
C1535 H1529 0.930 . S
C1535 C1531 1.400 . S
C1535 C1534 1.385 . S
C1536 C1534 1.478 . S
C1536 C1538 1.381 . S
C1536 C1542 1.383 . S
C1537 C1533 1.495 . S
C1537 H1543 0.959 . S
C1537 H1544 0.961 . S
C1537 H1545 0.960 . S
C1538 C1536 1.381 . S
C1538 C1539 1.394 . S
C1538 H1546 0.930 . S
C1539 C1538 1.394 . S
C1539 C1540 1.383 . S
C1539 H1547 0.929 . S
C1540 C1539 1.383 . S
C1540 C1541 1.377 . S
C1541 H1525 0.930 . S
C1541 C1540 1.377 . S
C1541 C1542 1.379 . S
C1542 H1526 0.931 . S
C1542 C1536 1.383 . S
C1542 C1541 1.379 . S
H1543 C1537 0.959 . S
H1544 C1537 0.961 . S
H1545 C1537 0.960 . S
H1546 C1538 0.930 . S
H1547 C1539 0.929 . S
H1548 C1556 0.929 . S
H1549 C1558 0.930 . S
H1550 C1560 0.930 . S
H1551 C1563 0.929 . S
H1552 C1566 0.930 . S
H1553 C1568 0.960 . S
H1554 C1568 0.960 . S
H1555 C1568 0.960 . S
C1556 H1548 0.929 . S
C1556 C1557 1.377 . S
C1556 C1558 1.384 . S
C1557 C1556 1.377 . S
C1557 C1563 1.390 . S
C1558 H1549 0.930 . S
C1558 C1556 1.384 . S
C1558 C1559 1.372 . S
C1559 C1558 1.372 . S
C1559 C1560 1.400 . S
C1559 C1564 1.490 . S
C1560 H1550 0.930 . S
C1560 C1559 1.400 . S
C1560 C1563 1.386 . S
H1561 C1577 0.930 . S
H1562 C1578 0.931 . S
C1563 H1551 0.929 . S
C1563 C1557 1.390 . S
C1563 C1560 1.386 . S
C1564 C1559 1.490 . S
C1564 C1566 1.395 . S
C1564 C1567 1.403 . S
H1565 C1571 0.930 . S
C1566 H1552 0.930 . S
C1566 C1564 1.395 . S
C1566 C1569 1.403 . S
C1567 C1564 1.403 . S
C1567 C1568 1.524 . S
C1567 C1571 1.400 . S
C1568 H1553 0.960 . S
C1568 H1554 0.960 . S
C1568 H1555 0.960 . S
C1568 C1567 1.524 . S
C1569 C1566 1.403 . S
C1569 C1570 1.392 . S
C1569 C1573 1.495 . S
C1570 C1569 1.392 . S
C1570 C1571 1.385 . S
C1570 C1572 1.478 . S
C1571 H1565 0.930 . S
C1571 C1567 1.400 . S
C1571 C1570 1.385 . S
C1572 C1570 1.478 . S
C1572 C1574 1.381 . S
C1572 C1578 1.383 . S
C1573 C1569 1.495 . S
C1573 H1579 0.959 . S
C1573 H1580 0.961 . S
C1573 H1581 0.960 . S
C1574 C1572 1.381 . S
C1574 C1575 1.394 . S
C1574 H1582 0.930 . S
C1575 C1574 1.394 . S
C1575 C1576 1.383 . S
C1575 H1583 0.929 . S
C1576 C1575 1.383 . S
C1576 C1577 1.377 . S
C1577 H1561 0.930 . S
C1577 C1576 1.377 . S
C1577 C1578 1.379 . S
C1578 H1562 0.931 . S
C1578 C1572 1.383 . S
C1578 C1577 1.379 . S
H1579 C1573 0.959 . S
H1580 C1573 0.961 . S
H1581 C1573 0.960 . S
H1582 C1574 0.930 . S
H1583 C1575 0.929 . S
H1584 C1592 0.929 . S
H1585 C1594 0.930 . S
H1586 C1596 0.930 . S
H1587 C1599 0.929 . S
H1588 C1602 0.930 . S
H1589 C1604 0.960 . S
H1590 C1604 0.960 . S
H1591 C1604 0.960 . S
C1592 H1584 0.929 . S
C1592 C1593 1.377 . S
C1592 C1594 1.384 . S
C1593 C1592 1.377 . S
C1593 C1599 1.390 . S
C1594 H1585 0.930 . S
C1594 C1592 1.384 . S
C1594 C1595 1.372 . S
C1595 C1594 1.372 . S
C1595 C1596 1.400 . S
C1595 C1600 1.490 . S
C1596 H1586 0.930 . S
C1596 C1595 1.400 . S
C1596 C1599 1.386 . S
H1597 C1613 0.930 . S
H1598 C1614 0.931 . S
C1599 H1587 0.929 . S
C1599 C1593 1.390 . S
C1599 C1596 1.386 . S
C1600 C1595 1.490 . S
C1600 C1602 1.395 . S
C1600 C1603 1.403 1_556 S
H1601 C1607 0.930 . S
C1602 H1588 0.930 . S
C1602 C1600 1.395 . S
C1602 C1605 1.403 . S
C1603 C1600 1.403 1_554 S
C1603 C1604 1.524 . S
C1603 C1607 1.400 . S
C1604 H1589 0.960 . S
C1604 H1590 0.960 . S
C1604 H1591 0.960 . S
C1604 C1603 1.524 . S
C1605 C1602 1.403 . S
C1605 C1606 1.392 1_556 S
C1605 C1609 1.495 . S
C1606 C1605 1.392 1_554 S
C1606 C1607 1.385 . S
C1606 C1608 1.478 . S
C1607 H1601 0.930 . S
C1607 C1603 1.400 . S
C1607 C1606 1.385 . S
C1608 C1606 1.478 . S
C1608 C1610 1.381 . S
C1608 C1614 1.383 . S
C1609 C1605 1.495 . S
C1609 H1615 0.959 . S
C1609 H1616 0.961 . S
C1609 H1617 0.960 . S
C1610 C1608 1.381 . S
C1610 C1611 1.394 . S
C1610 H1618 0.930 . S
C1611 C1610 1.394 . S
C1611 C1612 1.383 . S
C1611 H1619 0.929 . S
C1612 C1611 1.383 . S
C1612 C1613 1.377 . S
C1613 H1597 0.930 . S
C1613 C1612 1.377 . S
C1613 C1614 1.379 . S
C1614 H1598 0.931 . S
C1614 C1608 1.383 . S
C1614 C1613 1.379 . S
H1615 C1609 0.959 . S
H1616 C1609 0.961 . S
H1617 C1609 0.960 . S
H1618 C1610 0.930 . S
H1619 C1611 0.929 . S
H1620 C1628 0.929 . S
H1621 C1630 0.930 . S
H1622 C1632 0.930 . S
H1623 C1635 0.929 . S
H1624 C1638 0.930 . S
H1625 C1640 0.960 . S
H1626 C1640 0.960 . S
H1627 C1640 0.960 . S
C1628 H1620 0.929 . S
C1628 C1629 1.377 . S
C1628 C1630 1.384 . S
C1629 C1628 1.377 . S
C1629 C1635 1.390 . S
C1630 H1621 0.930 . S
C1630 C1628 1.384 . S
C1630 C1631 1.372 . S
C1631 C1630 1.372 . S
C1631 C1632 1.400 . S
C1631 C1636 1.490 . S
C1632 H1622 0.930 . S
C1632 C1631 1.400 . S
C1632 C1635 1.386 . S
H1633 C1649 0.930 . S
H1634 C1650 0.931 . S
C1635 H1623 0.929 . S
C1635 C1629 1.390 . S
C1635 C1632 1.386 . S
C1636 C1631 1.490 . S
C1636 C1638 1.395 . S
C1636 C1639 1.403 . S
H1637 C1643 0.930 . S
C1638 H1624 0.930 . S
C1638 C1636 1.395 . S
C1638 C1641 1.403 . S
C1639 C1636 1.403 . S
C1639 C1640 1.524 . S
C1639 C1643 1.400 . S
C1640 H1625 0.960 . S
C1640 H1626 0.960 . S
C1640 H1627 0.960 . S
C1640 C1639 1.524 . S
C1641 C1638 1.403 . S
C1641 C1642 1.392 . S
C1641 C1645 1.495 . S
C1642 C1641 1.392 . S
C1642 C1643 1.385 . S
C1642 C1644 1.478 . S
C1643 H1637 0.930 . S
C1643 C1639 1.400 . S
C1643 C1642 1.385 . S
C1644 C1642 1.478 . S
C1644 C1646 1.381 . S
C1644 C1650 1.383 . S
C1645 C1641 1.495 . S
C1645 H1651 0.959 . S
C1645 H1652 0.961 . S
C1645 H1653 0.960 . S
C1646 C1644 1.381 . S
C1646 C1647 1.394 . S
C1646 H1654 0.930 . S
C1647 C1646 1.394 . S
C1647 C1648 1.383 . S
C1647 H1655 0.929 . S
C1648 C1647 1.383 . S
C1648 C1649 1.377 . S
C1649 H1633 0.930 . S
C1649 C1648 1.377 . S
C1649 C1650 1.379 . S
C1650 H1634 0.931 . S
C1650 C1644 1.383 . S
C1650 C1649 1.379 . S
H1651 C1645 0.959 . S
H1652 C1645 0.961 . S
H1653 C1645 0.960 . S
H1654 C1646 0.930 . S
H1655 C1647 0.929 . S
H1656 C1664 0.929 . S
H1657 C1666 0.930 . S
H1658 C1668 0.930 1_554 S
H1659 C1671 0.929 . S
H1660 C1674 0.930 . S
H1661 C1676 0.960 . S
H1662 C1676 0.960 . S
H1663 C1676 0.960 . S
C1664 H1656 0.929 . S
C1664 C1665 1.377 . S
C1664 C1666 1.384 . S
C1665 C1664 1.377 . S
C1665 C1671 1.390 . S
C1666 H1657 0.930 . S
C1666 C1664 1.384 . S
C1666 C1667 1.372 . S
C1667 C1666 1.372 . S
C1667 C1668 1.400 . S
C1667 C1672 1.490 . S
C1668 H1658 0.930 1_556 S
C1668 C1667 1.400 . S
C1668 C1671 1.386 . S
H1669 C1685 0.930 . S
H1670 C1686 0.931 . S
C1671 H1659 0.929 . S
C1671 C1665 1.390 . S
C1671 C1668 1.386 . S
C1672 C1667 1.490 . S
C1672 C1674 1.395 . S
C1672 C1675 1.403 1_556 S
H1673 C1679 0.930 . S
C1674 H1660 0.930 . S
C1674 C1672 1.395 . S
C1674 C1677 1.403 . S
C1675 C1672 1.403 1_554 S
C1675 C1676 1.524 . S
C1675 C1679 1.400 . S
C1676 H1661 0.960 . S
C1676 H1662 0.960 . S
C1676 H1663 0.960 . S
C1676 C1675 1.524 . S
C1677 C1674 1.403 . S
C1677 C1678 1.392 1_556 S
C1677 C1681 1.495 . S
C1678 C1677 1.392 1_554 S
C1678 C1679 1.385 . S
C1678 C1680 1.478 . S
C1679 H1673 0.930 . S
C1679 C1675 1.400 . S
C1679 C1678 1.385 . S
C1680 C1678 1.478 . S
C1680 C1682 1.381 . S
C1680 C1686 1.383 . S
C1681 C1677 1.495 . S
C1681 H1687 0.959 . S
C1681 H1688 0.961 . S
C1681 H1689 0.960 . S
C1682 C1680 1.381 . S
C1682 C1683 1.394 . S
C1682 H1690 0.930 1_554 S
C1683 C1682 1.394 . S
C1683 C1684 1.383 . S
C1683 H1691 0.929 . S
C1684 C1683 1.383 . S
C1684 C1685 1.377 . S
C1685 H1669 0.930 . S
C1685 C1684 1.377 . S
C1685 C1686 1.379 . S
C1686 H1670 0.931 . S
C1686 C1680 1.383 . S
C1686 C1685 1.379 . S
H1687 C1681 0.959 . S
H1688 C1681 0.961 . S
H1689 C1681 0.960 . S
H1690 C1682 0.930 1_556 S
H1691 C1683 0.929 . S
H1692 C1700 0.929 . S
H1693 C1702 0.930 . S
H1694 C1704 0.930 . S
H1695 C1707 0.929 . S
H1696 C1710 0.930 . S
H1697 C1712 0.960 . S
H1698 C1712 0.960 . S
H1699 C1712 0.960 . S
C1700 H1692 0.929 . S
C1700 C1701 1.377 . S
C1700 C1702 1.384 . S
C1701 C1700 1.377 . S
C1701 C1707 1.390 . S
C1702 H1693 0.930 . S
C1702 C1700 1.384 . S
C1702 C1703 1.372 . S
C1703 C1702 1.372 . S
C1703 C1704 1.400 . S
C1703 C1708 1.490 . S
C1704 H1694 0.930 . S
C1704 C1703 1.400 . S
C1704 C1707 1.386 . S
H1705 C1721 0.930 . S
H1706 C1722 0.931 . S
C1707 H1695 0.929 . S
C1707 C1701 1.390 . S
C1707 C1704 1.386 . S
C1708 C1703 1.490 . S
C1708 C1710 1.395 . S
C1708 C1711 1.403 . S
H1709 C1715 0.930 . S
C1710 H1696 0.930 . S
C1710 C1708 1.395 . S
C1710 C1713 1.403 . S
C1711 C1708 1.403 . S
C1711 C1712 1.524 . S
C1711 C1715 1.400 . S
C1712 H1697 0.960 . S
C1712 H1698 0.960 . S
C1712 H1699 0.960 . S
C1712 C1711 1.524 . S
C1713 C1710 1.403 . S
C1713 C1714 1.392 . S
C1713 C1717 1.495 . S
C1714 C1713 1.392 . S
C1714 C1715 1.385 . S
C1714 C1716 1.478 . S
C1715 H1709 0.930 . S
C1715 C1711 1.400 . S
C1715 C1714 1.385 . S
C1716 C1714 1.478 . S
C1716 C1718 1.381 . S
C1716 C1722 1.383 . S
C1717 C1713 1.495 . S
C1717 H1723 0.959 . S
C1717 H1724 0.961 . S
C1717 H1725 0.960 . S
C1718 C1716 1.381 . S
C1718 C1719 1.394 . S
C1718 H1726 0.930 . S
C1719 C1718 1.394 . S
C1719 C1720 1.383 . S
C1719 H1727 0.929 . S
C1720 C1719 1.383 . S
C1720 C1721 1.377 . S
C1721 H1705 0.930 . S
C1721 C1720 1.377 . S
C1721 C1722 1.379 . S
C1722 H1706 0.931 . S
C1722 C1716 1.383 . S
C1722 C1721 1.379 . S
H1723 C1717 0.959 . S
H1724 C1717 0.961 . S
H1725 C1717 0.960 . S
H1726 C1718 0.930 . S
H1727 C1719 0.929 . S
H1728 C1736 0.929 . S
H1729 C1738 0.930 . S
H1730 C1740 0.930 . S
H1731 C1743 0.929 . S
H1732 C1746 0.930 . S
H1733 C1748 0.960 . S
H1734 C1748 0.960 . S
H1735 C1748 0.960 . S
C1736 H1728 0.929 . S
C1736 C1737 1.377 . S
C1736 C1738 1.384 . S
C1737 C1736 1.377 . S
C1737 C1743 1.390 . S
C1738 H1729 0.930 . S
C1738 C1736 1.384 . S
C1738 C1739 1.372 . S
C1739 C1738 1.372 . S
C1739 C1740 1.400 . S
C1739 C1744 1.490 . S
C1740 H1730 0.930 . S
C1740 C1739 1.400 . S
C1740 C1743 1.386 . S
H1741 C1757 0.930 . S
H1742 C1758 0.931 . S
C1743 H1731 0.929 . S
C1743 C1737 1.390 . S
C1743 C1740 1.386 . S
C1744 C1739 1.490 . S
C1744 C1746 1.395 . S
C1744 C1747 1.403 . S
H1745 C1751 0.930 . S
C1746 H1732 0.930 . S
C1746 C1744 1.395 . S
C1746 C1749 1.403 . S
C1747 C1744 1.403 . S
C1747 C1748 1.524 . S
C1747 C1751 1.400 . S
C1748 H1733 0.960 . S
C1748 H1734 0.960 . S
C1748 H1735 0.960 . S
C1748 C1747 1.524 . S
C1749 C1746 1.403 . S
C1749 C1750 1.392 . S
C1749 C1753 1.495 . S
C1750 C1749 1.392 . S
C1750 C1751 1.385 . S
C1750 C1752 1.478 . S
C1751 H1745 0.930 . S
C1751 C1747 1.400 . S
C1751 C1750 1.385 . S
C1752 C1750 1.478 . S
C1752 C1754 1.381 . S
C1752 C1758 1.383 . S
C1753 C1749 1.495 . S
C1753 H1759 0.959 . S
C1753 H1760 0.961 . S
C1753 H1761 0.960 . S
C1754 C1752 1.381 . S
C1754 C1755 1.394 . S
C1754 H1762 0.930 . S
C1755 C1754 1.394 . S
C1755 C1756 1.383 . S
C1755 H1763 0.929 . S
C1756 C1755 1.383 . S
C1756 C1757 1.377 . S
C1757 H1741 0.930 . S
C1757 C1756 1.377 . S
C1757 C1758 1.379 . S
C1758 H1742 0.931 . S
C1758 C1752 1.383 . S
C1758 C1757 1.379 . S
H1759 C1753 0.959 . S
H1760 C1753 0.961 . S
H1761 C1753 0.960 . S
H1762 C1754 0.930 . S
H1763 C1755 0.929 . S
H1764 C1772 0.929 . S
H1765 C1774 0.930 . S
H1766 C1776 0.930 . S
H1767 C1779 0.929 . S
H1768 C1782 0.930 . S
H1769 C1784 0.960 . S
H1770 C1784 0.960 . S
H1771 C1784 0.960 . S
C1772 H1764 0.929 . S
C1772 C1773 1.377 . S
C1772 C1774 1.384 . S
C1773 C1772 1.377 . S
C1773 C1779 1.390 . S
C1774 H1765 0.930 . S
C1774 C1772 1.384 . S
C1774 C1775 1.372 . S
C1775 C1774 1.372 . S
C1775 C1776 1.400 . S
C1775 C1780 1.490 . S
C1776 H1766 0.930 . S
C1776 C1775 1.400 . S
C1776 C1779 1.386 . S
H1777 C1793 0.930 . S
H1778 C1794 0.931 . S
C1779 H1767 0.929 . S
C1779 C1773 1.390 . S
C1779 C1776 1.386 . S
C1780 C1775 1.490 . S
C1780 C1782 1.395 . S
C1780 C1783 1.403 . S
H1781 C1787 0.930 . S
C1782 H1768 0.930 . S
C1782 C1780 1.395 . S
C1782 C1785 1.403 1_455 S
C1783 C1780 1.403 . S
C1783 C1784 1.524 . S
C1783 C1787 1.400 1_455 S
C1784 H1769 0.960 . S
C1784 H1770 0.960 . S
C1784 H1771 0.960 . S
C1784 C1783 1.524 . S
C1785 C1782 1.403 1_655 S
C1785 C1786 1.392 . S
C1785 C1789 1.495 . S
C1786 C1785 1.392 . S
C1786 C1787 1.385 . S
C1786 C1788 1.478 . S
C1787 H1781 0.930 . S
C1787 C1783 1.400 1_655 S
C1787 C1786 1.385 . S
C1788 C1786 1.478 . S
C1788 C1790 1.381 . S
C1788 C1794 1.383 . S
C1789 C1785 1.495 . S
C1789 H1795 0.959 . S
C1789 H1796 0.961 . S
C1789 H1797 0.960 . S
C1790 C1788 1.381 . S
C1790 C1791 1.394 . S
C1790 H1798 0.930 . S
C1791 C1790 1.394 . S
C1791 C1792 1.383 . S
C1791 H1799 0.929 . S
C1792 C1791 1.383 . S
C1792 C1793 1.377 . S
C1793 H1777 0.930 . S
C1793 C1792 1.377 . S
C1793 C1794 1.379 . S
C1794 H1778 0.931 . S
C1794 C1788 1.383 . S
C1794 C1793 1.379 . S
H1795 C1789 0.959 . S
H1796 C1789 0.961 . S
H1797 C1789 0.960 . S
H1798 C1790 0.930 . S
H1799 C1791 0.929 . S
H1800 C1808 0.929 . S
H1801 C1810 0.930 . S
H1802 C1812 0.930 . S
H1803 C1815 0.929 . S
H1804 C1818 0.930 . S
H1805 C1820 0.960 . S
H1806 C1820 0.960 . S
H1807 C1820 0.960 . S
C1808 H1800 0.929 . S
C1808 C1809 1.377 . S
C1808 C1810 1.384 . S
C1809 C1808 1.377 . S
C1809 C1815 1.390 . S
C1810 H1801 0.930 . S
C1810 C1808 1.384 . S
C1810 C1811 1.372 . S
C1811 C1810 1.372 . S
C1811 C1812 1.400 . S
C1811 C1816 1.490 . S
C1812 H1802 0.930 . S
C1812 C1811 1.400 . S
C1812 C1815 1.386 . S
H1813 C1829 0.930 . S
H1814 C1830 0.931 . S
C1815 H1803 0.929 . S
C1815 C1809 1.390 . S
C1815 C1812 1.386 . S
C1816 C1811 1.490 . S
C1816 C1818 1.395 . S
C1816 C1819 1.403 . S
H1817 C1823 0.930 . S
C1818 H1804 0.930 . S
C1818 C1816 1.395 . S
C1818 C1821 1.403 1_565 S
C1819 C1816 1.403 . S
C1819 C1820 1.524 . S
C1819 C1823 1.400 1_565 S
C1820 H1805 0.960 . S
C1820 H1806 0.960 . S
C1820 H1807 0.960 . S
C1820 C1819 1.524 . S
C1821 C1818 1.403 1_545 S
C1821 C1822 1.392 . S
C1821 C1825 1.495 . S
C1822 C1821 1.392 . S
C1822 C1823 1.385 . S
C1822 C1824 1.478 . S
C1823 H1817 0.930 . S
C1823 C1819 1.400 1_545 S
C1823 C1822 1.385 . S
C1824 C1822 1.478 . S
C1824 C1826 1.381 . S
C1824 C1830 1.383 . S
C1825 C1821 1.495 . S
C1825 H1831 0.959 . S
C1825 H1832 0.961 . S
C1825 H1833 0.960 . S
C1826 C1824 1.381 . S
C1826 C1827 1.394 . S
C1826 H1834 0.930 . S
C1827 C1826 1.394 . S
C1827 C1828 1.383 . S
C1827 H1835 0.929 . S
C1828 C1827 1.383 . S
C1828 C1829 1.377 . S
C1829 H1813 0.930 . S
C1829 C1828 1.377 . S
C1829 C1830 1.379 . S
C1830 H1814 0.931 . S
C1830 C1824 1.383 . S
C1830 C1829 1.379 . S
H1831 C1825 0.959 . S
H1832 C1825 0.961 . S
H1833 C1825 0.960 . S
H1834 C1826 0.930 . S
H1835 C1827 0.929 . S
H1836 C1844 0.929 . S
H1837 C1846 0.930 . S
H1838 C1848 0.930 . S
H1839 C1851 0.929 . S
H1840 C1854 0.930 . S
H1841 C1856 0.960 . S
H1842 C1856 0.960 . S
H1843 C1856 0.960 . S
C1844 H1836 0.929 . S
C1844 C1845 1.377 . S
C1844 C1846 1.384 . S
C1845 C1844 1.377 . S
C1845 C1851 1.390 . S
C1846 H1837 0.930 . S
C1846 C1844 1.384 . S
C1846 C1847 1.372 . S
C1847 C1846 1.372 . S
C1847 C1848 1.400 . S
C1847 C1852 1.490 . S
C1848 H1838 0.930 . S
C1848 C1847 1.400 . S
C1848 C1851 1.386 . S
H1849 C1865 0.930 . S
H1850 C1866 0.931 . S
C1851 H1839 0.929 . S
C1851 C1845 1.390 . S
C1851 C1848 1.386 . S
C1852 C1847 1.490 . S
C1852 C1854 1.395 . S
C1852 C1855 1.403 . S
H1853 C1859 0.930 . S
C1854 H1840 0.930 . S
C1854 C1852 1.395 . S
C1854 C1857 1.403 . S
C1855 C1852 1.403 . S
C1855 C1856 1.524 . S
C1855 C1859 1.400 . S
C1856 H1841 0.960 . S
C1856 H1842 0.960 . S
C1856 H1843 0.960 . S
C1856 C1855 1.524 . S
C1857 C1854 1.403 . S
C1857 C1858 1.392 . S
C1857 C1861 1.495 . S
C1858 C1857 1.392 . S
C1858 C1859 1.385 . S
C1858 C1860 1.478 . S
C1859 H1853 0.930 . S
C1859 C1855 1.400 . S
C1859 C1858 1.385 . S
C1860 C1858 1.478 . S
C1860 C1862 1.381 . S
C1860 C1866 1.383 . S
C1861 C1857 1.495 . S
C1861 H1867 0.959 . S
C1861 H1868 0.961 . S
C1861 H1869 0.960 . S
C1862 C1860 1.381 . S
C1862 C1863 1.394 . S
C1862 H1870 0.930 . S
C1863 C1862 1.394 . S
C1863 C1864 1.383 . S
C1863 H1871 0.929 . S
C1864 C1863 1.383 . S
C1864 C1865 1.377 . S
C1865 H1849 0.930 . S
C1865 C1864 1.377 . S
C1865 C1866 1.379 . S
C1866 H1850 0.931 . S
C1866 C1860 1.383 . S
C1866 C1865 1.379 . S
H1867 C1861 0.959 . S
H1868 C1861 0.961 . S
H1869 C1861 0.960 . S
H1870 C1862 0.930 . S
H1871 C1863 0.929 . S
H1872 C1880 0.929 . S
H1873 C1882 0.930 . S
H1874 C1884 0.930 . S
H1875 C1887 0.929 . S
H1876 C1890 0.930 . S
H1877 C1892 0.960 . S
H1878 C1892 0.960 . S
H1879 C1892 0.960 . S
C1880 H1872 0.929 . S
C1880 C1881 1.377 . S
C1880 C1882 1.384 . S
C1881 C1880 1.377 . S
C1881 C1887 1.390 . S
C1882 H1873 0.930 . S
C1882 C1880 1.384 . S
C1882 C1883 1.372 . S
C1883 C1882 1.372 . S
C1883 C1884 1.400 . S
C1883 C1888 1.490 . S
C1884 H1874 0.930 . S
C1884 C1883 1.400 . S
C1884 C1887 1.386 . S
H1885 C1901 0.930 . S
H1886 C1902 0.931 . S
C1887 H1875 0.929 . S
C1887 C1881 1.390 . S
C1887 C1884 1.386 . S
C1888 C1883 1.490 . S
C1888 C1890 1.395 . S
C1888 C1891 1.403 . S
H1889 C1895 0.930 . S
C1890 H1876 0.930 . S
C1890 C1888 1.395 . S
C1890 C1893 1.403 1_655 S
C1891 C1888 1.403 . S
C1891 C1892 1.524 . S
C1891 C1895 1.400 1_655 S
C1892 H1877 0.960 . S
C1892 H1878 0.960 . S
C1892 H1879 0.960 . S
C1892 C1891 1.524 . S
C1893 C1890 1.403 1_455 S
C1893 C1894 1.392 . S
C1893 C1897 1.495 . S
C1894 C1893 1.392 . S
C1894 C1895 1.385 . S
C1894 C1896 1.478 . S
C1895 H1889 0.930 . S
C1895 C1891 1.400 1_455 S
C1895 C1894 1.385 . S
C1896 C1894 1.478 . S
C1896 C1898 1.381 . S
C1896 C1902 1.383 . S
C1897 C1893 1.495 . S
C1897 H1903 0.959 . S
C1897 H1904 0.961 . S
C1897 H1905 0.960 . S
C1898 C1896 1.381 . S
C1898 C1899 1.394 . S
C1898 H1906 0.930 . S
C1899 C1898 1.394 . S
C1899 C1900 1.383 . S
C1899 H1907 0.929 . S
C1900 C1899 1.383 . S
C1900 C1901 1.377 . S
C1901 H1885 0.930 . S
C1901 C1900 1.377 . S
C1901 C1902 1.379 . S
C1902 H1886 0.931 . S
C1902 C1896 1.383 . S
C1902 C1901 1.379 . S
H1903 C1897 0.959 . S
H1904 C1897 0.961 . S
H1905 C1897 0.960 . S
H1906 C1898 0.930 . S
H1907 C1899 0.929 . S
H1908 C1916 0.929 . S
H1909 C1918 0.930 . S
H1910 C1920 0.930 . S
H1911 C1923 0.929 . S
H1912 C1926 0.930 . S
H1913 C1928 0.960 . S
H1914 C1928 0.960 . S
H1915 C1928 0.960 . S
C1916 H1908 0.929 . S
C1916 C1917 1.377 . S
C1916 C1918 1.384 . S
C1917 C1916 1.377 . S
C1917 C1923 1.390 . S
C1918 H1909 0.930 . S
C1918 C1916 1.384 . S
C1918 C1919 1.372 . S
C1919 C1918 1.372 . S
C1919 C1920 1.400 . S
C1919 C1924 1.490 . S
C1920 H1910 0.930 . S
C1920 C1919 1.400 . S
C1920 C1923 1.386 . S
H1921 C1937 0.930 . S
H1922 C1938 0.931 . S
C1923 H1911 0.929 . S
C1923 C1917 1.390 . S
C1923 C1920 1.386 . S
C1924 C1919 1.490 . S
C1924 C1926 1.395 . S
C1924 C1927 1.403 . S
H1925 C1931 0.930 . S
C1926 H1912 0.930 . S
C1926 C1924 1.395 . S
C1926 C1929 1.403 1_545 S
C1927 C1924 1.403 . S
C1927 C1928 1.524 . S
C1927 C1931 1.400 1_545 S
C1928 H1913 0.960 . S
C1928 H1914 0.960 . S
C1928 H1915 0.960 . S
C1928 C1927 1.524 . S
C1929 C1926 1.403 1_565 S
C1929 C1930 1.392 . S
C1929 C1933 1.495 . S
C1930 C1929 1.392 . S
C1930 C1931 1.385 . S
C1930 C1932 1.478 . S
C1931 H1925 0.930 . S
C1931 C1927 1.400 1_565 S
C1931 C1930 1.385 . S
C1932 C1930 1.478 . S
C1932 C1934 1.381 . S
C1932 C1938 1.383 . S
C1933 C1929 1.495 . S
C1933 H1939 0.959 . S
C1933 H1940 0.961 . S
C1933 H1941 0.960 . S
C1934 C1932 1.381 . S
C1934 C1935 1.394 . S
C1934 H1942 0.930 . S
C1935 C1934 1.394 . S
C1935 C1936 1.383 . S
C1935 H1943 0.929 . S
C1936 C1935 1.383 . S
C1936 C1937 1.377 . S
C1937 H1921 0.930 . S
C1937 C1936 1.377 . S
C1937 C1938 1.379 . S
C1938 H1922 0.931 . S
C1938 C1932 1.383 . S
C1938 C1937 1.379 . S
H1939 C1933 0.959 . S
H1940 C1933 0.961 . S
H1941 C1933 0.960 . S
H1942 C1934 0.930 . S
H1943 C1935 0.929 . S
H1944 C1952 0.929 . S
H1945 C1954 0.930 . S
H1946 C1956 0.930 . S
H1947 C1959 0.929 . S
H1948 C1962 0.930 . S
H1949 C1964 0.960 . S
H1950 C1964 0.960 . S
H1951 C1964 0.960 . S
C1952 H1944 0.929 . S
C1952 C1953 1.377 . S
C1952 C1954 1.384 . S
C1953 C1952 1.377 . S
C1953 C1959 1.390 . S
C1954 H1945 0.930 . S
C1954 C1952 1.384 . S
C1954 C1955 1.372 . S
C1955 C1954 1.372 . S
C1955 C1956 1.400 . S
C1955 C1960 1.490 . S
C1956 H1946 0.930 . S
C1956 C1955 1.400 . S
C1956 C1959 1.386 . S
H1957 C1973 0.930 . S
H1958 C1974 0.931 . S
C1959 H1947 0.929 . S
C1959 C1953 1.390 . S
C1959 C1956 1.386 . S
C1960 C1955 1.490 . S
C1960 C1962 1.395 . S
C1960 C1963 1.403 . S
H1961 C1967 0.930 . S
C1962 H1948 0.930 . S
C1962 C1960 1.395 . S
C1962 C1965 1.403 . S
C1963 C1960 1.403 . S
C1963 C1964 1.524 . S
C1963 C1967 1.400 . S
C1964 H1949 0.960 . S
C1964 H1950 0.960 . S
C1964 H1951 0.960 . S
C1964 C1963 1.524 . S
C1965 C1962 1.403 . S
C1965 C1966 1.392 . S
C1965 C1969 1.495 . S
C1966 C1965 1.392 . S
C1966 C1967 1.385 . S
C1966 C1968 1.478 . S
C1967 H1961 0.930 . S
C1967 C1963 1.400 . S
C1967 C1966 1.385 . S
C1968 C1966 1.478 . S
C1968 C1970 1.381 . S
C1968 C1974 1.383 . S
C1969 C1965 1.495 . S
C1969 H1975 0.959 . S
C1969 H1976 0.961 . S
C1969 H1977 0.960 . S
C1970 C1968 1.381 . S
C1970 C1971 1.394 . S
C1970 H1978 0.930 . S
C1971 C1970 1.394 . S
C1971 C1972 1.383 . S
C1971 H1979 0.929 . S
C1972 C1971 1.383 . S
C1972 C1973 1.377 . S
C1973 H1957 0.930 . S
C1973 C1972 1.377 . S
C1973 C1974 1.379 . S
C1974 H1958 0.931 . S
C1974 C1968 1.383 . S
C1974 C1973 1.379 . S
H1975 C1969 0.959 . S
H1976 C1969 0.961 . S
H1977 C1969 0.960 . S
H1978 C1970 0.930 . S
H1979 C1971 0.929 . S
H1980 C1988 0.929 . S
H1981 C1990 0.930 . S
H1982 C1992 0.930 . S
H1983 C1995 0.929 . S
H1984 C1998 0.930 . S
H1985 C2000 0.960 . S
H1986 C2000 0.960 . S
H1987 C2000 0.960 . S
C1988 H1980 0.929 . S
C1988 C1989 1.377 . S
C1988 C1990 1.384 . S
C1989 C1988 1.377 . S
C1989 C1995 1.390 . S
C1990 H1981 0.930 . S
C1990 C1988 1.384 . S
C1990 C1991 1.372 . S
C1991 C1990 1.372 . S
C1991 C1992 1.400 . S
C1991 C1996 1.490 . S
C1992 H1982 0.930 . S
C1992 C1991 1.400 . S
C1992 C1995 1.386 . S
H1993 C2009 0.930 . S
H1994 C2010 0.931 . S
C1995 H1983 0.929 . S
C1995 C1989 1.390 . S
C1995 C1992 1.386 . S
C1996 C1991 1.490 . S
C1996 C1998 1.395 . S
C1996 C1999 1.403 . S
H1997 C2003 0.930 . S
C1998 H1984 0.930 . S
C1998 C1996 1.395 . S
C1998 C2001 1.403 1_655 S
C1999 C1996 1.403 . S
C1999 C2000 1.524 . S
C1999 C2003 1.400 1_655 S
C2000 H1985 0.960 . S
C2000 H1986 0.960 . S
C2000 H1987 0.960 . S
C2000 C1999 1.524 . S
C2001 C1998 1.403 1_455 S
C2001 C2002 1.392 . S
C2001 C2005 1.495 . S
C2002 C2001 1.392 . S
C2002 C2003 1.385 . S
C2002 C2004 1.478 . S
C2003 H1997 0.930 . S
C2003 C1999 1.400 1_455 S
C2003 C2002 1.385 . S
C2004 C2002 1.478 . S
C2004 C2006 1.381 . S
C2004 C2010 1.383 . S
C2005 C2001 1.495 . S
C2005 H2011 0.959 . S
C2005 H2012 0.961 . S
C2005 H2013 0.960 . S
C2006 C2004 1.381 . S
C2006 C2007 1.394 . S
C2006 H2014 0.930 . S
C2007 C2006 1.394 . S
C2007 C2008 1.383 . S
C2007 H2015 0.929 . S
C2008 C2007 1.383 . S
C2008 C2009 1.377 . S
C2009 H1993 0.930 . S
C2009 C2008 1.377 . S
C2009 C2010 1.379 . S
C2010 H1994 0.931 . S
C2010 C2004 1.383 . S
C2010 C2009 1.379 . S
H2011 C2005 0.959 . S
H2012 C2005 0.961 . S
H2013 C2005 0.960 . S
H2014 C2006 0.930 . S
H2015 C2007 0.929 . S
H2016 C2024 0.929 . S
H2017 C2026 0.930 . S
H2018 C2028 0.930 . S
H2019 C2031 0.929 . S
H2020 C2034 0.930 . S
H2021 C2036 0.960 . S
H2022 C2036 0.960 . S
H2023 C2036 0.960 . S
C2024 H2016 0.929 . S
C2024 C2025 1.377 . S
C2024 C2026 1.384 . S
C2025 C2024 1.377 . S
C2025 C2031 1.390 . S
C2026 H2017 0.930 . S
C2026 C2024 1.384 . S
C2026 C2027 1.372 . S
C2027 C2026 1.372 . S
C2027 C2028 1.400 . S
C2027 C2032 1.490 . S
C2028 H2018 0.930 . S
C2028 C2027 1.400 . S
C2028 C2031 1.386 . S
H2029 C2045 0.930 . S
H2030 C2046 0.931 . S
C2031 H2019 0.929 . S
C2031 C2025 1.390 . S
C2031 C2028 1.386 . S
C2032 C2027 1.490 . S
C2032 C2034 1.395 . S
C2032 C2035 1.403 . S
H2033 C2039 0.930 . S
C2034 H2020 0.930 . S
C2034 C2032 1.395 . S
C2034 C2037 1.403 1_545 S
C2035 C2032 1.403 . S
C2035 C2036 1.524 . S
C2035 C2039 1.400 1_545 S
C2036 H2021 0.960 . S
C2036 H2022 0.960 . S
C2036 H2023 0.960 . S
C2036 C2035 1.524 . S
C2037 C2034 1.403 1_565 S
C2037 C2038 1.392 . S
C2037 C2041 1.495 . S
C2038 C2037 1.392 . S
C2038 C2039 1.385 . S
C2038 C2040 1.478 . S
C2039 H2033 0.930 . S
C2039 C2035 1.400 1_565 S
C2039 C2038 1.385 . S
C2040 C2038 1.478 . S
C2040 C2042 1.381 . S
C2040 C2046 1.383 . S
C2041 C2037 1.495 . S
C2041 H2047 0.959 . S
C2041 H2048 0.961 . S
C2041 H2049 0.960 . S
C2042 C2040 1.381 . S
C2042 C2043 1.394 . S
C2042 H2050 0.930 . S
C2043 C2042 1.394 . S
C2043 C2044 1.383 . S
C2043 H2051 0.929 . S
C2044 C2043 1.383 . S
C2044 C2045 1.377 . S
C2045 H2029 0.930 . S
C2045 C2044 1.377 . S
C2045 C2046 1.379 . S
C2046 H2030 0.931 . S
C2046 C2040 1.383 . S
C2046 C2045 1.379 . S
H2047 C2041 0.959 . S
H2048 C2041 0.961 . S
H2049 C2041 0.960 . S
H2050 C2042 0.930 . S
H2051 C2043 0.929 . S
H2052 C2060 0.929 . S
H2053 C2062 0.930 . S
H2054 C2064 0.930 . S
H2055 C2067 0.929 . S
H2056 C2070 0.930 . S
H2057 C2072 0.960 . S
H2058 C2072 0.960 . S
H2059 C2072 0.960 . S
C2060 H2052 0.929 . S
C2060 C2061 1.377 . S
C2060 C2062 1.384 . S
C2061 C2060 1.377 . S
C2061 C2067 1.390 . S
C2062 H2053 0.930 . S
C2062 C2060 1.384 . S
C2062 C2063 1.372 . S
C2063 C2062 1.372 . S
C2063 C2064 1.400 . S
C2063 C2068 1.490 . S
C2064 H2054 0.930 . S
C2064 C2063 1.400 . S
C2064 C2067 1.386 . S
H2065 C2081 0.930 . S
H2066 C2082 0.931 . S
C2067 H2055 0.929 . S
C2067 C2061 1.390 . S
C2067 C2064 1.386 . S
C2068 C2063 1.490 . S
C2068 C2070 1.395 . S
C2068 C2071 1.403 . S
H2069 C2075 0.930 . S
C2070 H2056 0.930 . S
C2070 C2068 1.395 . S
C2070 C2073 1.403 . S
C2071 C2068 1.403 . S
C2071 C2072 1.524 . S
C2071 C2075 1.400 . S
C2072 H2057 0.960 . S
C2072 H2058 0.960 . S
C2072 H2059 0.960 . S
C2072 C2071 1.524 . S
C2073 C2070 1.403 . S
C2073 C2074 1.392 . S
C2073 C2077 1.495 . S
C2074 C2073 1.392 . S
C2074 C2075 1.385 . S
C2074 C2076 1.478 . S
C2075 H2069 0.930 . S
C2075 C2071 1.400 . S
C2075 C2074 1.385 . S
C2076 C2074 1.478 . S
C2076 C2078 1.381 . S
C2076 C2082 1.383 . S
C2077 C2073 1.495 . S
C2077 H2083 0.959 . S
C2077 H2084 0.961 . S
C2077 H2085 0.960 . S
C2078 C2076 1.381 . S
C2078 C2079 1.394 . S
C2078 H2086 0.930 . S
C2079 C2078 1.394 . S
C2079 C2080 1.383 . S
C2079 H2087 0.929 . S
C2080 C2079 1.383 . S
C2080 C2081 1.377 . S
C2081 H2065 0.930 . S
C2081 C2080 1.377 . S
C2081 C2082 1.379 . S
C2082 H2066 0.931 . S
C2082 C2076 1.383 . S
C2082 C2081 1.379 . S
H2083 C2077 0.959 . S
H2084 C2077 0.961 . S
H2085 C2077 0.960 . S
H2086 C2078 0.930 . S
H2087 C2079 0.929 . S
H2088 C2096 0.929 . S
H2089 C2098 0.930 . S
H2090 C2100 0.930 . S
H2091 C2103 0.929 . S
H2092 C2106 0.930 . S
H2093 C2108 0.960 . S
H2094 C2108 0.960 . S
H2095 C2108 0.960 . S
C2096 H2088 0.929 . S
C2096 C2097 1.377 . S
C2096 C2098 1.384 . S
C2097 C2096 1.377 . S
C2097 C2103 1.390 . S
C2098 H2089 0.930 . S
C2098 C2096 1.384 . S
C2098 C2099 1.372 . S
C2099 C2098 1.372 . S
C2099 C2100 1.400 . S
C2099 C2104 1.490 . S
C2100 H2090 0.930 . S
C2100 C2099 1.400 . S
C2100 C2103 1.386 . S
H2101 C2117 0.930 . S
H2102 C2118 0.931 . S
C2103 H2091 0.929 . S
C2103 C2097 1.390 . S
C2103 C2100 1.386 . S
C2104 C2099 1.490 . S
C2104 C2106 1.395 . S
C2104 C2107 1.403 . S
H2105 C2111 0.930 . S
C2106 H2092 0.930 . S
C2106 C2104 1.395 . S
C2106 C2109 1.403 1_455 S
C2107 C2104 1.403 . S
C2107 C2108 1.524 . S
C2107 C2111 1.400 1_455 S
C2108 H2093 0.960 . S
C2108 H2094 0.960 . S
C2108 H2095 0.960 . S
C2108 C2107 1.524 . S
C2109 C2106 1.403 1_655 S
C2109 C2110 1.392 . S
C2109 C2113 1.495 . S
C2110 C2109 1.392 . S
C2110 C2111 1.385 . S
C2110 C2112 1.478 . S
C2111 H2105 0.930 . S
C2111 C2107 1.400 1_655 S
C2111 C2110 1.385 . S
C2112 C2110 1.478 . S
C2112 C2114 1.381 . S
C2112 C2118 1.383 . S
C2113 C2109 1.495 . S
C2113 H2119 0.959 . S
C2113 H2120 0.961 . S
C2113 H2121 0.960 . S
C2114 C2112 1.381 . S
C2114 C2115 1.394 . S
C2114 H2122 0.930 . S
C2115 C2114 1.394 . S
C2115 C2116 1.383 . S
C2115 H2123 0.929 . S
C2116 C2115 1.383 . S
C2116 C2117 1.377 . S
C2117 H2101 0.930 . S
C2117 C2116 1.377 . S
C2117 C2118 1.379 . S
C2118 H2102 0.931 . S
C2118 C2112 1.383 . S
C2118 C2117 1.379 . S
H2119 C2113 0.959 . S
H2120 C2113 0.961 . S
H2121 C2113 0.960 . S
H2122 C2114 0.930 . S
H2123 C2115 0.929 . S
H2124 C2132 0.929 . S
H2125 C2134 0.930 . S
H2126 C2136 0.930 . S
H2127 C2139 0.929 . S
H2128 C2142 0.930 . S
H2129 C2144 0.960 . S
H2130 C2144 0.960 . S
H2131 C2144 0.960 . S
C2132 H2124 0.929 . S
C2132 C2133 1.377 . S
C2132 C2134 1.384 . S
C2133 C2132 1.377 . S
C2133 C2139 1.390 . S
C2134 H2125 0.930 . S
C2134 C2132 1.384 . S
C2134 C2135 1.372 . S
C2135 C2134 1.372 . S
C2135 C2136 1.400 . S
C2135 C2140 1.490 . S
C2136 H2126 0.930 . S
C2136 C2135 1.400 . S
C2136 C2139 1.386 . S
H2137 C2153 0.930 . S
H2138 C2154 0.931 . S
C2139 H2127 0.929 . S
C2139 C2133 1.390 . S
C2139 C2136 1.386 . S
C2140 C2135 1.490 . S
C2140 C2142 1.395 . S
C2140 C2143 1.403 . S
H2141 C2147 0.930 . S
C2142 H2128 0.930 . S
C2142 C2140 1.395 . S
C2142 C2145 1.403 1_565 S
C2143 C2140 1.403 . S
C2143 C2144 1.524 . S
C2143 C2147 1.400 1_565 S
C2144 H2129 0.960 . S
C2144 H2130 0.960 . S
C2144 H2131 0.960 . S
C2144 C2143 1.524 . S
C2145 C2142 1.403 1_545 S
C2145 C2146 1.392 . S
C2145 C2149 1.495 . S
C2146 C2145 1.392 . S
C2146 C2147 1.385 . S
C2146 C2148 1.478 . S
C2147 H2141 0.930 . S
C2147 C2143 1.400 1_545 S
C2147 C2146 1.385 . S
C2148 C2146 1.478 . S
C2148 C2150 1.381 . S
C2148 C2154 1.383 . S
C2149 C2145 1.495 . S
C2149 H2155 0.959 . S
C2149 H2156 0.961 . S
C2149 H2157 0.960 . S
C2150 C2148 1.381 . S
C2150 C2151 1.394 . S
C2150 H2158 0.930 . S
C2151 C2150 1.394 . S
C2151 C2152 1.383 . S
C2151 H2159 0.929 . S
C2152 C2151 1.383 . S
C2152 C2153 1.377 . S
C2153 H2137 0.930 . S
C2153 C2152 1.377 . S
C2153 C2154 1.379 . S
C2154 H2138 0.931 . S
C2154 C2148 1.383 . S
C2154 C2153 1.379 . S
H2155 C2149 0.959 . S
H2156 C2149 0.961 . S
H2157 C2149 0.960 . S
H2158 C2150 0.930 . S
H2159 C2151 0.929 . S
H2160 C2168 0.929 . S
H2161 C2170 0.930 1_554 S
H2162 C2172 0.930 . S
H2163 C2175 0.929 . S
H2164 C2178 0.930 . S
H2165 C2180 0.960 . S
H2166 C2180 0.960 . S
H2167 C2180 0.960 . S
C2168 H2160 0.929 . S
C2168 C2169 1.377 . S
C2168 C2170 1.384 . S
C2169 C2168 1.377 . S
C2169 C2175 1.390 . S
C2170 H2161 0.930 1_556 S
C2170 C2168 1.384 . S
C2170 C2171 1.372 . S
C2171 C2170 1.372 . S
C2171 C2172 1.400 . S
C2171 C2176 1.490 . S
C2172 H2162 0.930 . S
C2172 C2171 1.400 . S
C2172 C2175 1.386 . S
H2173 C2189 0.930 . S
H2174 C2190 0.931 1_556 S
C2175 H2163 0.929 . S
C2175 C2169 1.390 . S
C2175 C2172 1.386 . S
C2176 C2171 1.490 . S
C2176 C2178 1.395 1_556 S
C2176 C2179 1.403 . S
H2177 C2183 0.930 . S
C2178 H2164 0.930 . S
C2178 C2176 1.395 1_554 S
C2178 C2181 1.403 . S
C2179 C2176 1.403 . S
C2179 C2180 1.524 . S
C2179 C2183 1.400 . S
C2180 H2165 0.960 . S
C2180 H2166 0.960 . S
C2180 H2167 0.960 . S
C2180 C2179 1.524 . S
C2181 C2178 1.403 . S
C2181 C2182 1.392 . S
C2181 C2185 1.495 . S
C2182 C2181 1.392 . S
C2182 C2183 1.385 1_554 S
C2182 C2184 1.478 . S
C2183 H2177 0.930 . S
C2183 C2179 1.400 . S
C2183 C2182 1.385 1_556 S
C2184 C2182 1.478 . S
C2184 C2186 1.381 . S
C2184 C2190 1.383 . S
C2185 C2181 1.495 . S
C2185 H2191 0.959 . S
C2185 H2192 0.961 . S
C2185 H2193 0.960 . S
C2186 C2184 1.381 . S
C2186 C2187 1.394 . S
C2186 H2194 0.930 . S
C2187 C2186 1.394 . S
C2187 C2188 1.383 . S
C2187 H2195 0.929 . S
C2188 C2187 1.383 . S
C2188 C2189 1.377 . S
C2189 H2173 0.930 . S
C2189 C2188 1.377 . S
C2189 C2190 1.379 . S
C2190 H2174 0.931 1_554 S
C2190 C2184 1.383 . S
C2190 C2189 1.379 . S
H2191 C2185 0.959 . S
H2192 C2185 0.961 . S
H2193 C2185 0.960 . S
H2194 C2186 0.930 . S
H2195 C2187 0.929 . S
H2196 C2204 0.929 . S
H2197 C2206 0.930 . S
H2198 C2208 0.930 . S
H2199 C2211 0.929 . S
H2200 C2214 0.930 . S
H2201 C2216 0.960 . S
H2202 C2216 0.960 . S
H2203 C2216 0.960 . S
C2204 H2196 0.929 . S
C2204 C2205 1.377 . S
C2204 C2206 1.384 . S
C2205 C2204 1.377 . S
C2205 C2211 1.390 . S
C2206 H2197 0.930 . S
C2206 C2204 1.384 . S
C2206 C2207 1.372 . S
C2207 C2206 1.372 . S
C2207 C2208 1.400 . S
C2207 C2212 1.490 . S
C2208 H2198 0.930 . S
C2208 C2207 1.400 . S
C2208 C2211 1.386 . S
H2209 C2225 0.930 . S
H2210 C2226 0.931 . S
C2211 H2199 0.929 . S
C2211 C2205 1.390 . S
C2211 C2208 1.386 . S
C2212 C2207 1.490 . S
C2212 C2214 1.395 . S
C2212 C2215 1.403 . S
H2213 C2219 0.930 . S
C2214 H2200 0.930 . S
C2214 C2212 1.395 . S
C2214 C2217 1.403 . S
C2215 C2212 1.403 . S
C2215 C2216 1.524 . S
C2215 C2219 1.400 . S
C2216 H2201 0.960 . S
C2216 H2202 0.960 . S
C2216 H2203 0.960 . S
C2216 C2215 1.524 . S
C2217 C2214 1.403 . S
C2217 C2218 1.392 . S
C2217 C2221 1.495 . S
C2218 C2217 1.392 . S
C2218 C2219 1.385 . S
C2218 C2220 1.478 . S
C2219 H2213 0.930 . S
C2219 C2215 1.400 . S
C2219 C2218 1.385 . S
C2220 C2218 1.478 . S
C2220 C2222 1.381 . S
C2220 C2226 1.383 . S
C2221 C2217 1.495 . S
C2221 H2227 0.959 . S
C2221 H2228 0.961 . S
C2221 H2229 0.960 . S
C2222 C2220 1.381 . S
C2222 C2223 1.394 . S
C2222 H2230 0.930 . S
C2223 C2222 1.394 . S
C2223 C2224 1.383 . S
C2223 H2231 0.929 . S
C2224 C2223 1.383 . S
C2224 C2225 1.377 . S
C2225 H2209 0.930 . S
C2225 C2224 1.377 . S
C2225 C2226 1.379 . S
C2226 H2210 0.931 . S
C2226 C2220 1.383 . S
C2226 C2225 1.379 . S
H2227 C2221 0.959 . S
H2228 C2221 0.961 . S
H2229 C2221 0.960 . S
H2230 C2222 0.930 . S
H2231 C2223 0.929 . S
H2232 C2240 0.929 . S
H2233 C2242 0.930 . S
H2234 C2244 0.930 . S
H2235 C2247 0.929 . S
H2236 C2250 0.930 . S
H2237 C2252 0.960 . S
H2238 C2252 0.960 . S
H2239 C2252 0.960 . S
C2240 H2232 0.929 . S
C2240 C2241 1.377 . S
C2240 C2242 1.384 . S
C2241 C2240 1.377 . S
C2241 C2247 1.390 . S
C2242 H2233 0.930 . S
C2242 C2240 1.384 . S
C2242 C2243 1.372 . S
C2243 C2242 1.372 . S
C2243 C2244 1.400 . S
C2243 C2248 1.490 . S
C2244 H2234 0.930 . S
C2244 C2243 1.400 . S
C2244 C2247 1.386 . S
H2245 C2261 0.930 . S
H2246 C2262 0.931 . S
C2247 H2235 0.929 . S
C2247 C2241 1.390 . S
C2247 C2244 1.386 . S
C2248 C2243 1.490 . S
C2248 C2250 1.395 1_556 S
C2248 C2251 1.403 . S
H2249 C2255 0.930 . S
C2250 H2236 0.930 . S
C2250 C2248 1.395 1_554 S
C2250 C2253 1.403 . S
C2251 C2248 1.403 . S
C2251 C2252 1.524 . S
C2251 C2255 1.400 . S
C2252 H2237 0.960 . S
C2252 H2238 0.960 . S
C2252 H2239 0.960 . S
C2252 C2251 1.524 . S
C2253 C2250 1.403 . S
C2253 C2254 1.392 . S
C2253 C2257 1.495 . S
C2254 C2253 1.392 . S
C2254 C2255 1.385 1_554 S
C2254 C2256 1.478 . S
C2255 H2249 0.930 . S
C2255 C2251 1.400 . S
C2255 C2254 1.385 1_556 S
C2256 C2254 1.478 . S
C2256 C2258 1.381 . S
C2256 C2262 1.383 . S
C2257 C2253 1.495 . S
C2257 H2263 0.959 . S
C2257 H2264 0.961 . S
C2257 H2265 0.960 . S
C2258 C2256 1.381 . S
C2258 C2259 1.394 . S
C2258 H2266 0.930 . S
C2259 C2258 1.394 . S
C2259 C2260 1.383 . S
C2259 H2267 0.929 . S
C2260 C2259 1.383 . S
C2260 C2261 1.377 . S
C2261 H2245 0.930 . S
C2261 C2260 1.377 . S
C2261 C2262 1.379 . S
C2262 H2246 0.931 . S
C2262 C2256 1.383 . S
C2262 C2261 1.379 . S
H2263 C2257 0.959 . S
H2264 C2257 0.961 . S
H2265 C2257 0.960 . S
H2266 C2258 0.930 . S
H2267 C2259 0.929 . S
H2268 C2276 0.929 . S
H2269 C2278 0.930 . S
H2270 C2280 0.930 . S
H2271 C2283 0.929 . S
H2272 C2286 0.930 . S
H2273 C2288 0.960 . S
H2274 C2288 0.960 . S
H2275 C2288 0.960 . S
C2276 H2268 0.929 . S
C2276 C2277 1.377 . S
C2276 C2278 1.384 . S
C2277 C2276 1.377 . S
C2277 C2283 1.390 . S
C2278 H2269 0.930 . S
C2278 C2276 1.384 . S
C2278 C2279 1.372 . S
C2279 C2278 1.372 . S
C2279 C2280 1.400 . S
C2279 C2284 1.490 . S
C2280 H2270 0.930 . S
C2280 C2279 1.400 . S
C2280 C2283 1.386 . S
H2281 C2297 0.930 . S
H2282 C2298 0.931 . S
C2283 H2271 0.929 . S
C2283 C2277 1.390 . S
C2283 C2280 1.386 . S
C2284 C2279 1.490 . S
C2284 C2286 1.395 . S
C2284 C2287 1.403 . S
H2285 C2291 0.930 . S
C2286 H2272 0.930 . S
C2286 C2284 1.395 . S
C2286 C2289 1.403 . S
C2287 C2284 1.403 . S
C2287 C2288 1.524 . S
C2287 C2291 1.400 . S
C2288 H2273 0.960 . S
C2288 H2274 0.960 . S
C2288 H2275 0.960 . S
C2288 C2287 1.524 . S
C2289 C2286 1.403 . S
C2289 C2290 1.392 . S
C2289 C2293 1.495 . S
C2290 C2289 1.392 . S
C2290 C2291 1.385 . S
C2290 C2292 1.478 . S
C2291 H2285 0.930 . S
C2291 C2287 1.400 . S
C2291 C2290 1.385 . S
C2292 C2290 1.478 . S
C2292 C2294 1.381 . S
C2292 C2298 1.383 . S
C2293 C2289 1.495 . S
C2293 H2299 0.959 . S
C2293 H2300 0.961 . S
C2293 H2301 0.960 . S
C2294 C2292 1.381 . S
C2294 C2295 1.394 . S
C2294 H2302 0.930 . S
C2295 C2294 1.394 . S
C2295 C2296 1.383 . S
C2295 H2303 0.929 . S
C2296 C2295 1.383 . S
C2296 C2297 1.377 . S
C2297 H2281 0.930 . S
C2297 C2296 1.377 . S
C2297 C2298 1.379 . S
C2298 H2282 0.931 . S
C2298 C2292 1.383 . S
C2298 C2297 1.379 . S
H2299 C2293 0.959 . S
H2300 C2293 0.961 . S
H2301 C2293 0.960 . S
H2302 C2294 0.930 . S
H2303 C2295 0.929 . S
H2304 C2312 0.929 . S
H2305 C2314 0.930 . S
H2306 C2316 0.930 1_554 S
H2307 C2319 0.929 . S
H2308 C2322 0.930 . S
H2309 C2324 0.960 . S
H2310 C2324 0.960 . S
H2311 C2324 0.960 . S
C2312 H2304 0.929 . S
C2312 C2313 1.377 . S
C2312 C2314 1.384 . S
C2313 C2312 1.377 . S
C2313 C2319 1.390 . S
C2314 H2305 0.930 . S
C2314 C2312 1.384 . S
C2314 C2315 1.372 . S
C2315 C2314 1.372 . S
C2315 C2316 1.400 . S
C2315 C2320 1.490 . S
C2316 H2306 0.930 1_556 S
C2316 C2315 1.400 . S
C2316 C2319 1.386 . S
H2317 C2333 0.930 . S
H2318 C2334 0.931 . S
C2319 H2307 0.929 . S
C2319 C2313 1.390 . S
C2319 C2316 1.386 . S
C2320 C2315 1.490 . S
C2320 C2322 1.395 . S
C2320 C2323 1.403 1_556 S
H2321 C2327 0.930 . S
C2322 H2308 0.930 . S
C2322 C2320 1.395 . S
C2322 C2325 1.403 . S
C2323 C2320 1.403 1_554 S
C2323 C2324 1.524 . S
C2323 C2327 1.400 . S
C2324 H2309 0.960 . S
C2324 H2310 0.960 . S
C2324 H2311 0.960 . S
C2324 C2323 1.524 . S
C2325 C2322 1.403 . S
C2325 C2326 1.392 1_556 S
C2325 C2329 1.495 . S
C2326 C2325 1.392 1_554 S
C2326 C2327 1.385 . S
C2326 C2328 1.478 . S
C2327 H2321 0.930 . S
C2327 C2323 1.400 . S
C2327 C2326 1.385 . S
C2328 C2326 1.478 . S
C2328 C2330 1.381 . S
C2328 C2334 1.383 . S
C2329 C2325 1.495 . S
C2329 H2335 0.959 . S
C2329 H2336 0.961 . S
C2329 H2337 0.960 . S
C2330 C2328 1.381 . S
C2330 C2331 1.394 . S
C2330 H2338 0.930 1_554 S
C2331 C2330 1.394 . S
C2331 C2332 1.383 . S
C2331 H2339 0.929 . S
C2332 C2331 1.383 . S
C2332 C2333 1.377 . S
C2333 H2317 0.930 . S
C2333 C2332 1.377 . S
C2333 C2334 1.379 . S
C2334 H2318 0.931 . S
C2334 C2328 1.383 . S
C2334 C2333 1.379 . S
H2335 C2329 0.959 . S
H2336 C2329 0.961 . S
H2337 C2329 0.960 . S
H2338 C2330 0.930 1_556 S
H2339 C2331 0.929 . S
H2340 C2348 0.929 . S
H2341 C2350 0.930 . S
H2342 C2352 0.930 . S
H2343 C2355 0.929 . S
H2344 C2358 0.930 . S
H2345 C2360 0.960 . S
H2346 C2360 0.960 . S
H2347 C2360 0.960 . S
C2348 H2340 0.929 . S
C2348 C2349 1.377 . S
C2348 C2350 1.384 . S
C2349 C2348 1.377 . S
C2349 C2355 1.390 . S
C2350 H2341 0.930 . S
C2350 C2348 1.384 . S
C2350 C2351 1.372 . S
C2351 C2350 1.372 . S
C2351 C2352 1.400 . S
C2351 C2356 1.490 . S
C2352 H2342 0.930 . S
C2352 C2351 1.400 . S
C2352 C2355 1.386 . S
H2353 C2369 0.930 . S
H2354 C2370 0.931 . S
C2355 H2343 0.929 . S
C2355 C2349 1.390 . S
C2355 C2352 1.386 . S
C2356 C2351 1.490 . S
C2356 C2358 1.395 . S
C2356 C2359 1.403 . S
H2357 C2363 0.930 . S
C2358 H2344 0.930 . S
C2358 C2356 1.395 . S
C2358 C2361 1.403 . S
C2359 C2356 1.403 . S
C2359 C2360 1.524 . S
C2359 C2363 1.400 . S
C2360 H2345 0.960 . S
C2360 H2346 0.960 . S
C2360 H2347 0.960 . S
C2360 C2359 1.524 . S
C2361 C2358 1.403 . S
C2361 C2362 1.392 . S
C2361 C2365 1.495 . S
C2362 C2361 1.392 . S
C2362 C2363 1.385 . S
C2362 C2364 1.478 . S
C2363 H2357 0.930 . S
C2363 C2359 1.400 . S
C2363 C2362 1.385 . S
C2364 C2362 1.478 . S
C2364 C2366 1.381 . S
C2364 C2370 1.383 . S
C2365 C2361 1.495 . S
C2365 H2371 0.959 . S
C2365 H2372 0.961 . S
C2365 H2373 0.960 . S
C2366 C2364 1.381 . S
C2366 C2367 1.394 . S
C2366 H2374 0.930 . S
C2367 C2366 1.394 . S
C2367 C2368 1.383 . S
C2367 H2375 0.929 . S
C2368 C2367 1.383 . S
C2368 C2369 1.377 . S
C2369 H2353 0.930 . S
C2369 C2368 1.377 . S
C2369 C2370 1.379 . S
C2370 H2354 0.931 . S
C2370 C2364 1.383 . S
C2370 C2369 1.379 . S
H2371 C2365 0.959 . S
H2372 C2365 0.961 . S
H2373 C2365 0.960 . S
H2374 C2366 0.930 . S
H2375 C2367 0.929 . S
H2376 C2384 0.929 . S
H2377 C2386 0.930 . S
H2378 C2388 0.930 1_556 S
H2379 C2391 0.929 . S
H2380 C2394 0.930 . S
H2381 C2396 0.960 . S
H2382 C2396 0.960 1_554 S
H2383 C2396 0.960 . S
C2384 H2376 0.929 . S
C2384 C2385 1.377 . S
C2384 C2386 1.384 . S
C2385 C2384 1.377 . S
C2385 C2391 1.390 . S
C2386 H2377 0.930 . S
C2386 C2384 1.384 . S
C2386 C2387 1.372 . S
C2387 C2386 1.372 . S
C2387 C2388 1.400 . S
C2387 C2392 1.490 . S
C2388 H2378 0.930 1_554 S
C2388 C2387 1.400 . S
C2388 C2391 1.386 . S
H2389 C2405 0.930 . S
H2390 C2406 0.931 . S
C2391 H2379 0.929 . S
C2391 C2385 1.390 . S
C2391 C2388 1.386 . S
C2392 C2387 1.490 . S
C2392 C2394 1.395 . S
C2392 C2395 1.403 1_554 S
H2393 C2399 0.930 . S
C2394 H2380 0.930 . S
C2394 C2392 1.395 . S
C2394 C2397 1.403 . S
C2395 C2392 1.403 1_556 S
C2395 C2396 1.524 . S
C2395 C2399 1.400 . S
C2396 H2381 0.960 . S
C2396 H2382 0.960 1_556 S
C2396 H2383 0.960 . S
C2396 C2395 1.524 . S
C2397 C2394 1.403 . S
C2397 C2398 1.392 1_554 S
C2397 C2401 1.495 . S
C2398 C2397 1.392 1_556 S
C2398 C2399 1.385 . S
C2398 C2400 1.478 . S
C2399 H2393 0.930 . S
C2399 C2395 1.400 . S
C2399 C2398 1.385 . S
C2400 C2398 1.478 . S
C2400 C2402 1.381 . S
C2400 C2406 1.383 . S
C2401 C2397 1.495 . S
C2401 H2407 0.959 . S
C2401 H2408 0.961 . S
C2401 H2409 0.960 . S
C2402 C2400 1.381 . S
C2402 C2403 1.394 . S
C2402 H2410 0.930 1_556 S
C2403 C2402 1.394 . S
C2403 C2404 1.383 . S
C2403 H2411 0.929 . S
C2404 C2403 1.383 . S
C2404 C2405 1.377 . S
C2405 H2389 0.930 . S
C2405 C2404 1.377 . S
C2405 C2406 1.379 . S
C2406 H2390 0.931 . S
C2406 C2400 1.383 . S
C2406 C2405 1.379 . S
H2407 C2401 0.959 . S
H2408 C2401 0.961 . S
H2409 C2401 0.960 . S
H2410 C2402 0.930 1_554 S
H2411 C2403 0.929 . S
H2412 C2420 0.929 . S
H2413 C2422 0.930 . S
H2414 C2424 0.930 . S
H2415 C2427 0.929 . S
H2416 C2430 0.930 . S
H2417 C2432 0.960 . S
H2418 C2432 0.960 . S
H2419 C2432 0.960 . S
C2420 H2412 0.929 . S
C2420 C2421 1.377 . S
C2420 C2422 1.384 . S
C2421 C2420 1.377 . S
C2421 C2427 1.390 . S
C2422 H2413 0.930 . S
C2422 C2420 1.384 . S
C2422 C2423 1.372 . S
C2423 C2422 1.372 . S
C2423 C2424 1.400 . S
C2423 C2428 1.490 . S
C2424 H2414 0.930 . S
C2424 C2423 1.400 . S
C2424 C2427 1.386 . S
H2425 C2441 0.930 . S
H2426 C2442 0.931 . S
C2427 H2415 0.929 . S
C2427 C2421 1.390 . S
C2427 C2424 1.386 . S
C2428 C2423 1.490 . S
C2428 C2430 1.395 . S
C2428 C2431 1.403 . S
H2429 C2435 0.930 . S
C2430 H2416 0.930 . S
C2430 C2428 1.395 . S
C2430 C2433 1.403 . S
C2431 C2428 1.403 . S
C2431 C2432 1.524 . S
C2431 C2435 1.400 . S
C2432 H2417 0.960 . S
C2432 H2418 0.960 . S
C2432 H2419 0.960 . S
C2432 C2431 1.524 . S
C2433 C2430 1.403 . S
C2433 C2434 1.392 . S
C2433 C2437 1.495 . S
C2434 C2433 1.392 . S
C2434 C2435 1.385 . S
C2434 C2436 1.478 . S
C2435 H2429 0.930 . S
C2435 C2431 1.400 . S
C2435 C2434 1.385 . S
C2436 C2434 1.478 . S
C2436 C2438 1.381 . S
C2436 C2442 1.383 . S
C2437 C2433 1.495 . S
C2437 H2443 0.959 . S
C2437 H2444 0.961 . S
C2437 H2445 0.960 . S
C2438 C2436 1.381 . S
C2438 C2439 1.394 . S
C2438 H2446 0.930 . S
C2439 C2438 1.394 . S
C2439 C2440 1.383 . S
C2439 H2447 0.929 . S
C2440 C2439 1.383 . S
C2440 C2441 1.377 . S
C2441 H2425 0.930 . S
C2441 C2440 1.377 . S
C2441 C2442 1.379 . S
C2442 H2426 0.931 . S
C2442 C2436 1.383 . S
C2442 C2441 1.379 . S
H2443 C2437 0.959 . S
H2444 C2437 0.961 . S
H2445 C2437 0.960 . S
H2446 C2438 0.930 . S
H2447 C2439 0.929 . S
H2448 C2456 0.929 . S
H2449 C2458 0.930 . S
H2450 C2460 0.930 . S
H2451 C2463 0.929 . S
H2452 C2466 0.930 . S
H2453 C2468 0.960 . S
H2454 C2468 0.960 . S
H2455 C2468 0.960 . S
C2456 H2448 0.929 . S
C2456 C2457 1.377 . S
C2456 C2458 1.384 . S
C2457 C2456 1.377 . S
C2457 C2463 1.390 . S
C2458 H2449 0.930 . S
C2458 C2456 1.384 . S
C2458 C2459 1.372 . S
C2459 C2458 1.372 . S
C2459 C2460 1.400 . S
C2459 C2464 1.490 . S
C2460 H2450 0.930 . S
C2460 C2459 1.400 . S
C2460 C2463 1.386 . S
H2461 C2477 0.930 . S
H2462 C2478 0.931 . S
C2463 H2451 0.929 . S
C2463 C2457 1.390 . S
C2463 C2460 1.386 . S
C2464 C2459 1.490 . S
C2464 C2466 1.395 1_554 S
C2464 C2467 1.403 . S
H2465 C2471 0.932 . S
C2466 H2452 0.930 . S
C2466 C2464 1.395 1_556 S
C2466 C2469 1.403 . S
C2467 C2464 1.403 . S
C2467 C2468 1.524 . S
C2467 C2471 1.416 . S
C2468 H2453 0.960 . S
C2468 H2454 0.960 . S
C2468 H2455 0.960 . S
C2468 C2467 1.524 . S
C2469 C2466 1.403 . S
C2469 C2470 1.392 . S
C2469 C2473 1.495 . S
C2470 C2469 1.392 . S
C2470 C2471 1.368 1_556 S
C2470 C2472 1.478 . S
C2471 H2465 0.932 . S
C2471 C2467 1.416 . S
C2471 C2470 1.368 1_554 S
C2472 C2470 1.478 . S
C2472 C2474 1.381 . S
C2472 C2478 1.383 . S
C2473 C2469 1.495 . S
C2473 H2479 0.959 . S
C2473 H2480 0.961 . S
C2473 H2481 0.960 . S
C2474 C2472 1.381 . S
C2474 C2475 1.394 . S
C2474 H2482 0.930 . S
C2475 C2474 1.394 . S
C2475 C2476 1.383 . S
C2475 H2483 0.929 . S
C2476 C2475 1.383 . S
C2476 C2477 1.377 . S
C2477 H2461 0.930 . S
C2477 C2476 1.377 . S
C2477 C2478 1.379 . S
C2478 H2462 0.931 . S
C2478 C2472 1.383 . S
C2478 C2477 1.379 . S
H2479 C2473 0.959 . S
H2480 C2473 0.961 . S
H2481 C2473 0.960 . S
H2482 C2474 0.930 . S
H2483 C2475 0.929 . S
H2484 C2492 0.929 . S
H2485 C2494 0.930 . S
H2486 C2496 0.930 . S
H2487 C2499 0.929 . S
H2488 C2502 0.930 . S
H2489 C2504 0.960 . S
H2490 C2504 0.960 . S
H2491 C2504 0.960 . S
C2492 H2484 0.929 . S
C2492 C2493 1.377 . S
C2492 C2494 1.384 . S
C2493 C2492 1.377 . S
C2493 C2499 1.390 . S
C2494 H2485 0.930 . S
C2494 C2492 1.384 . S
C2494 C2495 1.372 . S
C2495 C2494 1.372 . S
C2495 C2496 1.400 . S
C2495 C2500 1.490 . S
C2496 H2486 0.930 . S
C2496 C2495 1.400 . S
C2496 C2499 1.386 . S
H2497 C2513 0.930 . S
H2498 C2514 0.931 . S
C2499 H2487 0.929 . S
C2499 C2493 1.390 . S
C2499 C2496 1.386 . S
C2500 C2495 1.490 . S
C2500 C2502 1.395 . S
C2500 C2503 1.403 . S
H2501 C2507 0.930 . S
C2502 H2488 0.930 . S
C2502 C2500 1.395 . S
C2502 C2505 1.403 . S
C2503 C2500 1.403 . S
C2503 C2504 1.524 . S
C2503 C2507 1.400 . S
C2504 H2489 0.960 . S
C2504 H2490 0.960 . S
C2504 H2491 0.960 . S
C2504 C2503 1.524 . S
C2505 C2502 1.403 . S
C2505 C2506 1.392 . S
C2505 C2509 1.495 . S
C2506 C2505 1.392 . S
C2506 C2507 1.385 . S
C2506 C2508 1.478 . S
C2507 H2501 0.930 . S
C2507 C2503 1.400 . S
C2507 C2506 1.385 . S
C2508 C2506 1.478 . S
C2508 C2510 1.381 . S
C2508 C2514 1.383 . S
C2509 C2505 1.495 . S
C2509 H2515 0.959 . S
C2509 H2516 0.961 . S
C2509 H2517 0.960 . S
C2510 C2508 1.381 . S
C2510 C2511 1.394 . S
C2510 H2518 0.930 . S
C2511 C2510 1.394 . S
C2511 C2512 1.383 . S
C2511 H2519 0.929 . S
C2512 C2511 1.383 . S
C2512 C2513 1.377 . S
C2513 H2497 0.930 . S
C2513 C2512 1.377 . S
C2513 C2514 1.379 . S
C2514 H2498 0.931 . S
C2514 C2508 1.383 . S
C2514 C2513 1.379 . S
H2515 C2509 0.959 . S
H2516 C2509 0.961 . S
H2517 C2509 0.960 . S
H2518 C2510 0.930 . S
H2519 C2511 0.929 . S
H2520 C2528 0.929 . S
H2521 C2530 0.930 . S
H2522 C2532 0.930 1_554 S
H2523 C2535 0.929 . S
H2524 C2538 0.930 . S
H2525 C2540 0.960 . S
H2526 C2540 0.960 . S
H2527 C2540 0.960 . S
C2528 H2520 0.929 . S
C2528 C2529 1.377 . S
C2528 C2530 1.384 . S
C2529 C2528 1.377 . S
C2529 C2535 1.390 . S
C2530 H2521 0.930 . S
C2530 C2528 1.384 . S
C2530 C2531 1.372 . S
C2531 C2530 1.372 . S
C2531 C2532 1.400 . S
C2531 C2536 1.490 . S
C2532 H2522 0.930 1_556 S
C2532 C2531 1.400 . S
C2532 C2535 1.386 . S
H2533 C2549 0.930 . S
H2534 C2550 0.931 . S
C2535 H2523 0.929 . S
C2535 C2529 1.390 . S
C2535 C2532 1.386 . S
C2536 C2531 1.490 . S
C2536 C2538 1.395 . S
C2536 C2539 1.403 . S
H2537 C2543 0.930 . S
C2538 H2524 0.930 . S
C2538 C2536 1.395 . S
C2538 C2541 1.403 1_556 S
C2539 C2536 1.403 . S
C2539 C2540 1.524 . S
C2539 C2543 1.400 1_556 S
C2540 H2525 0.960 . S
C2540 H2526 0.960 . S
C2540 H2527 0.960 . S
C2540 C2539 1.524 . S
C2541 C2538 1.403 1_554 S
C2541 C2542 1.392 . S
C2541 C2545 1.495 . S
C2542 C2541 1.392 . S
C2542 C2543 1.385 . S
C2542 C2544 1.478 . S
C2543 H2537 0.930 . S
C2543 C2539 1.400 1_554 S
C2543 C2542 1.385 . S
C2544 C2542 1.478 . S
C2544 C2546 1.381 . S
C2544 C2550 1.383 . S
C2545 C2541 1.495 . S
C2545 H2551 0.975 . S
C2545 H2552 0.961 . S
C2545 H2553 0.960 1_554 S
C2546 C2544 1.381 . S
C2546 C2547 1.394 . S
C2546 H2554 0.930 1_554 S
C2547 C2546 1.394 . S
C2547 C2548 1.383 . S
C2547 H2555 0.929 . S
C2548 C2547 1.383 . S
C2548 C2549 1.377 . S
C2549 H2533 0.930 . S
C2549 C2548 1.377 . S
C2549 C2550 1.379 . S
C2550 H2534 0.931 . S
C2550 C2544 1.383 . S
C2550 C2549 1.379 . S
H2551 C2545 0.975 . S
H2552 C2545 0.961 . S
H2553 C2545 0.960 1_556 S
H2554 C2546 0.930 1_556 S
H2555 C2547 0.929 . S
H2556 C2564 0.929 . S
H2557 C2566 0.930 . S
H2558 C2568 0.930 . S
H2559 C2571 0.929 . S
H2560 C2574 0.930 . S
H2561 C2576 0.960 . S
H2562 C2576 0.960 . S
H2563 C2576 0.960 . S
C2564 H2556 0.929 . S
C2564 C2565 1.377 . S
C2564 C2566 1.384 . S
C2565 C2564 1.377 . S
C2565 C2571 1.390 . S
C2566 H2557 0.930 . S
C2566 C2564 1.384 . S
C2566 C2567 1.372 . S
C2567 C2566 1.372 . S
C2567 C2568 1.400 . S
C2567 C2572 1.490 . S
C2568 H2558 0.930 . S
C2568 C2567 1.400 . S
C2568 C2571 1.386 . S
H2569 C2585 0.930 . S
H2570 C2586 0.931 . S
C2571 H2559 0.929 . S
C2571 C2565 1.390 . S
C2571 C2568 1.386 . S
C2572 C2567 1.490 . S
C2572 C2574 1.395 . S
C2572 C2575 1.403 . S
H2573 C2579 0.930 . S
C2574 H2560 0.930 . S
C2574 C2572 1.395 . S
C2574 C2577 1.403 . S
C2575 C2572 1.403 . S
C2575 C2576 1.524 . S
C2575 C2579 1.400 . S
C2576 H2561 0.960 . S
C2576 H2562 0.960 . S
C2576 H2563 0.960 . S
C2576 C2575 1.524 . S
C2577 C2574 1.403 . S
C2577 C2578 1.392 . S
C2577 C2581 1.495 . S
C2578 C2577 1.392 . S
C2578 C2579 1.385 . S
C2578 C2580 1.478 . S
C2579 H2573 0.930 . S
C2579 C2575 1.400 . S
C2579 C2578 1.385 . S
C2580 C2578 1.478 . S
C2580 C2582 1.381 . S
C2580 C2586 1.383 . S
C2581 C2577 1.495 . S
C2581 H2587 0.959 . S
C2581 H2588 0.961 . S
C2581 H2589 0.960 . S
C2582 C2580 1.381 . S
C2582 C2583 1.394 . S
C2582 H2590 0.930 . S
C2583 C2582 1.394 . S
C2583 C2584 1.383 . S
C2583 H2591 0.929 . S
C2584 C2583 1.383 . S
C2584 C2585 1.377 . S
C2585 H2569 0.930 . S
C2585 C2584 1.377 . S
C2585 C2586 1.379 . S
C2586 H2570 0.931 . S
C2586 C2580 1.383 . S
C2586 C2585 1.379 . S
H2587 C2581 0.959 . S
H2588 C2581 0.961 . S
H2589 C2581 0.960 . S
H2590 C2582 0.930 . S
H2591 C2583 0.929 . S
C873 C14 1.367 . S
C892 C554 1.394 . S
C909 C50 1.370 . S
C928 C590 1.329 . S
C945 C626 1.362 . S
C964 C86 1.356 . S
C981 C446 1.371 . S
C1000 C122 1.378 . S
C1017 C482 1.360 . S
C1036 C158 1.381 . S
C1053 C518 1.364 . S
C1072 C194 1.399 . S
C1089 C770 1.360 . S
C1108 C230 1.376 . S
C1125 C266 1.374 . S
C1144 C806 1.337 . S
C1161 C842 1.371 . S
C1180 C302 1.381 . S
C1197 C338 1.372 . S
C1216 C662 1.331 . S
C1233 C698 1.361 . S
C1252 C374 1.395 . S
C1269 C410 1.373 . S
C1288 C734 1.335 . S
C1305 C363 1.227 . S
C1324 C3 1.222 . S
C1341 C399 1.226 . S
C1360 C39 1.224 . S
C1377 C75 1.227 . S
C1396 C219 1.222 . S
C1413 C111 1.227 . S
C1432 C255 1.226 . S
C1449 C291 1.227 . S
C1468 C147 1.226 . S
C1485 C183 1.227 . S
C1504 C327 1.224 . S
C1521 C795 1.227 . S
C1540 C435 1.222 . S
C1557 C471 1.227 . S
C1576 C831 1.227 . S
C1593 C507 1.227 . S
C1612 C651 1.222 . S
C1629 C687 1.227 . S
C1648 C543 1.222 . S
C1665 C579 1.227 . S
C1684 C723 1.223 . S
C1701 C615 1.226 . S
C1720 C759 1.223 . S
C1737 C4 1.329 . S
C1756 C652 1.329 . S
C1773 C688 1.328 . S
C1792 C40 1.336 . S
C1809 C76 1.328 . S
C1828 C724 1.345 . S
C1845 C112 1.333 . S
C1864 C760 1.310 . S
C1881 C796 1.334 . S
C1900 C148 1.340 . S
C1917 C184 1.328 . S
C1936 C832 1.346 . S
C1953 C220 1.332 . S
C1972 C436 1.311 . S
C1989 C256 1.335 . S
C2008 C472 1.336 . S
C2025 C508 1.335 . S
C2044 C292 1.310 . S
C2061 C544 1.330 . S
C2080 C328 1.320 . S
C2097 C364 1.336 . S
C2116 C580 1.319 . S
C2133 C616 1.330 . S
C2152 C400 1.349 . S
C2169 C218 1.472 . S
C2188 C2 1.483 . S
C2205 C38 1.474 . S
C2224 C254 1.479 . S
C2241 C290 1.473 . S
C2260 C74 1.481 . S
C2277 C326 1.472 . S
C2296 C110 1.481 . S
C2313 C362 1.477 . S
C2332 C146 1.460 . S
C2349 C182 1.474 . S
C2368 C398 1.472 . S
C2385 C650 1.474 . S
C2404 C434 1.476 . S
C2421 C470 1.473 . S
C2440 C686 1.460 . S
C2457 C722 1.476 . S
C2476 C506 1.483 . S
C2493 C758 1.473 . S
C2512 C542 1.468 . S
C2529 C578 1.475 . S
C2548 C794 1.481 . S
C2565 C614 1.477 . S
C2584 C830 1.483 . S
