# Generated by pormake.
# Topology afw, (4)-cn, num edge types: 1
# Building blocks:
#     Node 0, Type 0, BuildingBlock: ESEHIV_clean_sbu_0, # of connection points: 4
#     Node 1, Type 0, BuildingBlock: ESEHIV_clean_sbu_0, # of connection points: 4
#     Node 2, Type 0, BuildingBlock: ESEHIV_clean_sbu_0, # of connection points: 4
#     Node 3, Type 0, BuildingBlock: ESEHIV_clean_sbu_0, # of connection points: 4
#     Node 4, Type 0, BuildingBlock: ESEHIV_clean_sbu_0, # of connection points: 4
#     Node 5, Type 0, BuildingBlock: ESEHIV_clean_sbu_0, # of connection points: 4
#     Node 6, Type 0, BuildingBlock: ESEHIV_clean_sbu_0, # of connection points: 4
#     Node 7, Type 0, BuildingBlock: ESEHIV_clean_sbu_0, # of connection points: 4
#     Node 8, Type 0, BuildingBlock: ESEHIV_clean_sbu_0, # of connection points: 4
#     Edge 9, Type (0, 0), BuildingBlock: MIFKUJ_clean_linker_0, # of connection points: 2
#     Edge 10, Type (0, 0), BuildingBlock: MIFKUJ_clean_linker_0, # of connection points: 2
#     Edge 11, Type (0, 0), BuildingBlock: MIFKUJ_clean_linker_0, # of connection points: 2
#     Edge 12, Type (0, 0), BuildingBlock: MIFKUJ_clean_linker_0, # of connection points: 2
#     Edge 13, Type (0, 0), BuildingBlock: MIFKUJ_clean_linker_0, # of connection points: 2
#     Edge 14, Type (0, 0), BuildingBlock: MIFKUJ_clean_linker_0, # of connection points: 2
#     Edge 15, Type (0, 0), BuildingBlock: MIFKUJ_clean_linker_0, # of connection points: 2
#     Edge 16, Type (0, 0), BuildingBlock: MIFKUJ_clean_linker_0, # of connection points: 2
#     Edge 17, Type (0, 0), BuildingBlock: MIFKUJ_clean_linker_0, # of connection points: 2
#     Edge 18, Type (0, 0), BuildingBlock: MIFKUJ_clean_linker_0, # of connection points: 2
#     Edge 19, Type (0, 0), BuildingBlock: MIFKUJ_clean_linker_0, # of connection points: 2
#     Edge 20, Type (0, 0), BuildingBlock: MIFKUJ_clean_linker_0, # of connection points: 2
#     Edge 21, Type (0, 0), BuildingBlock: MIFKUJ_clean_linker_0, # of connection points: 2
#     Edge 22, Type (0, 0), BuildingBlock: MIFKUJ_clean_linker_0, # of connection points: 2
#     Edge 23, Type (0, 0), BuildingBlock: MIFKUJ_clean_linker_0, # of connection points: 2
#     Edge 24, Type (0, 0), BuildingBlock: MIFKUJ_clean_linker_0, # of connection points: 2
#     Edge 25, Type (0, 0), BuildingBlock: MIFKUJ_clean_linker_0, # of connection points: 2
#     Edge 26, Type (0, 0), BuildingBlock: MIFKUJ_clean_linker_0, # of connection points: 2
# Relax obj value: 0.051
# Max RMSD: 0.167
# Mean RMSD: 0.157
data_MOF--net-afw--node1-ESEHIV_clean_sbu_0--edge1-MIFKUJ_clean_linker_0
_symmetry_space_group_name_H-M    P1
_symmetry_Int_Tables_number       1
_symmetry_cell_setting            triclinic
loop_
_symmetry_equiv_pos_as_xyz
'x, y, z'
_cell_length_a     64.088347
_cell_length_b     68.569267
_cell_length_c     26.185905
_cell_angle_alpha  95.800069
_cell_angle_beta   90.646395
_cell_angle_gamma 118.63566
loop_
_atom_site_label
_atom_site_type_symbol
_atom_site_fract_x
_atom_site_fract_y
_atom_site_fract_z
_atom_type_partial_charge
Cu0 Cu 0.03044 0.19542 0.0649 0.0
N1 N 0.02731 0.17623 0.11374 0.0
N2 N 1.01471 0.14121 0.13216 0.0
C3 C 1.01017 0.15468 0.10521 0.0
C4 C 0.03546 0.15504 0.15992 0.0
C5 C 0.04319 0.17665 0.14852 0.0
O6 O 0.02677 0.17584 0.00201 0.0
C7 C 1.01108 0.22084 0.10982 0.0
O8 O 0.03092 0.22867 0.13886 0.0
H9 H 0.99619 0.14864 0.07474 0.0
H10 H 0.06013 0.19109 0.16131 0.0
N11 N 0.06017 0.22157 0.06742 0.0
N12 N 0.08689 0.25613 0.05112 0.0
C13 C 0.06379 0.23987 0.04571 0.0
C14 C 0.08173 0.22618 0.08705 0.0
C15 C 0.09816 0.24743 0.07734 0.0
C16 C 0.04551 0.17717 0.98261 0.0
O17 O 0.06294 0.19713 0.97679 0.0
H18 H 0.0496 0.24087 0.0255 0.0
H19 H 0.08545 0.2148 0.10596 0.0
O20 O 1.00616 0.20498 0.07372 0.0
H21 H 0.0452 0.14976 0.18396 0.0
H22 H 0.11699 0.25561 0.08864 0.0
Cu23 Cu 0.87722 0.8523 0.02564 0.0
N24 N 0.88513 0.87214 0.97587 0.0
N25 N 0.90169 0.90674 0.95268 0.0
C26 C 0.90241 0.89355 0.98656 0.0
C27 C 0.88318 0.89306 0.9186 0.0
C28 C 0.87312 0.87158 0.93268 0.0
O29 O 0.90551 0.8677 0.07462 0.0
C30 C 0.83271 0.85307 0.03478 0.0
O31 O 0.84273 0.87213 0.01517 0.0
H32 H 0.91373 0.89992 0.0217 0.0
H33 H 0.85692 0.85717 0.91561 0.0
N34 N 0.87233 0.82371 0.00122 0.0
N35 N 0.85834 0.78698 0.00407 0.0
C36 C 0.86531 0.80714 0.03138 0.0
C37 C 0.86976 0.81378 0.95285 0.0
C38 C 0.86119 0.7911 0.95449 0.0
C39 C 0.92341 0.86491 0.06399 0.0
O40 O 0.92015 0.84831 0.02927 0.0
H41 H 0.86378 0.80969 0.07235 0.0
H42 H 0.87267 0.82219 0.91873 0.0
O43 O 0.84576 0.84515 0.05013 0.0
H44 H 0.87653 0.89843 0.88779 0.0
H45 H 0.85671 0.77857 0.92161 0.0
Cu46 Cu 0.18774 0.01942 0.06472 0.0
N47 N 0.18847 0.99224 0.05971 0.0
N48 N 0.20286 0.96877 0.03602 0.0
C49 C 0.20618 0.98986 0.03773 0.0
C50 C 0.18211 0.95745 0.05827 0.0
C51 C 0.17328 0.97193 0.07277 0.0
O52 O 0.21938 0.04252 0.09336 0.0
C53 C 0.1619 0.01858 0.9716 0.0
O54 O 0.16181 0.02524 0.92636 0.0
H55 H 0.22127 1.00357 0.02331 0.0
H56 H 0.15674 0.96776 0.09046 0.0
N57 N 0.16472 0.02223 0.10365 0.0
N58 N 0.14014 0.03649 0.12103 0.0
C59 C 0.16047 0.03947 0.1 0.0
C60 C 0.14676 1.00787 0.1293 0.0
C61 C 0.13155 0.01662 0.14004 0.0
C62 C 0.22673 0.04137 0.13784 0.0
O63 O 0.21231 0.02519 0.16371 0.0
H64 H 0.17095 0.05283 0.07738 0.0
H65 H 0.14393 0.99157 0.1365 0.0
O66 O 0.18196 0.02439 0.99527 0.0
H67 H 0.17351 0.93982 0.06274 0.0
H68 H 0.11484 1.00833 0.15789 0.0
Cu69 Cu 0.7131 0.53122 0.3112 0.0
N70 N 0.68576 0.50383 0.28861 0.0
N71 N 0.66061 0.46706 0.26973 0.0
C72 C 0.6833 0.48301 0.28392 0.0
C73 C 0.64849 0.47838 0.26424 0.0
C74 C 0.66403 0.50097 0.27559 0.0
O75 O 0.7377 0.52448 0.33532 0.0
C76 C 0.68775 0.5407 0.39123 0.0
O77 O 0.67579 0.51883 0.39004 0.0
H78 H 0.69769 0.47954 0.29212 0.0
H79 H 0.65969 0.5144 0.27552 0.0
N80 N 0.72389 0.54709 0.2542 0.0
N81 N 0.73964 0.57449 0.20344 0.0
C82 C 0.73521 0.56943 0.25226 0.0
C83 C 0.72119 0.53776 0.20523 0.0
C84 C 0.73082 0.55453 0.17394 0.0
C85 C 0.73359 0.50992 0.36594 0.0
O86 O 0.71318 0.50125 0.38765 0.0
H87 H 0.73973 0.58166 0.2858 0.0
H88 H 0.71273 0.51994 0.19316 0.0
O89 O 0.70517 0.54925 0.36268 0.0
H90 H 0.62968 0.47091 0.25309 0.0
H91 H 0.73152 0.55214 0.13263 0.0
Cu92 Cu 0.51833 0.17856 0.33645 0.0
N93 N 0.53337 0.19568 0.28349 0.0
N94 N 0.55317 0.22796 0.24952 0.0
C95 C 0.53792 0.21705 0.28474 0.0
C96 C 0.55836 0.21265 0.22492 0.0
C97 C 0.54623 0.1928 0.24616 0.0
O98 O 0.54222 0.1948 0.3941 0.0
C99 C 0.47487 0.17125 0.29748 0.0
O100 O 0.48529 0.16992 0.25537 0.0
H101 H 0.53158 0.22487 0.31394 0.0
H102 H 0.54799 0.17794 0.2373 0.0
N103 N 0.51177 0.14859 0.32673 0.0
N104 N 0.49785 0.11341 0.34538 0.0
C105 C 0.50368 0.13471 0.36339 0.0
C106 C 0.51092 0.13564 0.28371 0.0
C107 C 0.50252 0.11399 0.29518 0.0
C108 C 0.55985 0.19094 0.39438 0.0
O109 O 0.55866 0.17434 0.36243 0.0
H110 H 0.50178 0.14019 0.40244 0.0
H111 H 0.51519 0.14129 0.24627 0.0
O112 O 0.48677 0.17638 0.34078 0.0
H113 H 0.57078 0.21574 0.19519 0.0
H114 H 0.49922 0.09966 0.26807 0.0
Cu115 Cu 0.87327 0.35537 0.39739 0.0
N116 N 0.89929 0.37368 0.44501 0.0
N117 N 0.93562 0.3921 0.48654 0.0
C118 C 0.92196 0.3772 0.44601 0.0
C119 C 0.9208 0.39789 0.51199 0.0
C120 C 0.89855 0.38654 0.48646 0.0
O121 O 0.882 0.33809 0.34647 0.0
C122 C 0.87144 0.39413 0.36766 0.0
O123 O 0.89431 0.40551 0.38161 0.0
H124 H 0.92839 0.36926 0.41731 0.0
H125 H 0.88286 0.38761 0.49721 0.0
N126 N 0.84815 0.33504 0.43217 0.0
N127 N 0.81124 0.31467 0.45711 0.0
C128 C 0.82535 0.33096 0.4288 0.0
C129 C 0.84856 0.32094 0.46383 0.0
C130 C 0.82583 0.30834 0.47919 0.0
C131 C 0.89915 0.34671 0.31743 0.0
O132 O 0.91105 0.36859 0.31872 0.0
H133 H 0.81915 0.33939 0.4049 0.0
H134 H 0.86424 0.31978 0.47453 0.0
O135 O 0.8605 0.37297 0.36807 0.0
H136 H 0.92555 0.40934 0.54704 0.0
H137 H 0.82051 0.29554 0.50475 0.0
Cu138 Cu 0.37014 0.87308 0.70908 0.0
N139 N 0.34461 0.84403 0.69311 0.0
N140 N 0.32187 0.80688 0.69091 0.0
C141 C 0.34276 0.82509 0.70833 0.0
C142 C 0.31021 0.8148 0.66339 0.0
C143 C 0.32426 0.83766 0.66487 0.0
O144 O 0.3978 0.86958 0.7267 0.0
C145 C 0.34623 0.87983 0.79488 0.0
O146 O 0.33946 0.85868 0.79836 0.0
H147 H 0.35628 0.82478 0.73267 0.0
H148 H 0.31994 0.84889 0.64674 0.0
N149 N 0.37675 0.88739 0.64924 0.0
N150 N 0.39129 0.91331 0.59461 0.0
C151 C 0.38779 0.90951 0.6444 0.0
C152 C 0.37309 0.87696 0.60106 0.0
C153 C 0.38197 0.89282 0.5674 0.0
C154 C 0.40095 0.86145 0.7659 0.0
O155 O 0.38665 0.85809 0.80349 0.0
H156 H 0.39388 0.92251 0.67676 0.0
H157 H 0.36497 0.85902 0.59122 0.0
O158 O 0.36081 0.8896 0.76134 0.0
H159 H 0.29282 0.80486 0.6433 0.0
H160 H 0.38167 0.8895 0.52603 0.0
Cu161 Cu 0.21537 0.51713 0.76228 0.0
N162 N 0.21542 0.54338 0.78941 0.0
N163 N 0.22425 0.57933 0.79801 0.0
C164 C 0.2312 0.5643 0.78048 0.0
C165 C 0.20334 0.56743 0.81899 0.0
C166 C 0.19797 0.54524 0.8137 0.0
O167 O 0.24676 0.52764 0.73453 0.0
C168 C 0.17873 0.4827 0.68714 0.0
O169 O 0.18972 0.47081 0.68954 0.0
H170 H 0.24668 0.5682 0.75863 0.0
H171 H 0.18192 0.5313 0.82446 0.0
N172 N 0.21213 0.49967 0.81552 0.0
N173 N 0.20052 0.47112 0.8627 0.0
C174 C 0.196 0.47815 0.81947 0.0
C175 C 0.22706 0.50649 0.8579 0.0
C176 C 0.22004 0.48897 0.8869 0.0
C177 C 0.26061 0.51944 0.74092 0.0
O178 O 0.25236 0.5002 0.75954 0.0
H179 H 0.18164 0.4677 0.79074 0.0
H180 H 0.24228 0.52301 0.86657 0.0
O181 O 0.18767 0.5021 0.71257 0.0
H182 H 0.1924 0.57418 0.83559 0.0
H183 H 0.22865 0.48937 0.92308 0.0
Cu184 Cu 0.55651 0.698 0.7348 0.0
N185 N 0.56238 0.68175 0.67967 0.0
N186 N 0.57592 0.66192 0.63093 0.0
C187 C 0.57993 0.67616 0.67428 0.0
C188 C 0.55534 0.65867 0.60818 0.0
C189 C 0.54715 0.67094 0.63805 0.0
O190 O 0.58452 0.71447 0.78384 0.0
C191 C 0.51682 0.65665 0.75748 0.0
O192 O 0.52886 0.64699 0.73801 0.0
H193 H 0.59473 0.6816 0.7024 0.0
H194 H 0.53072 0.67136 0.63093 0.0
N195 N 0.54995 0.71924 0.70931 0.0
N196 N 0.53364 0.74141 0.70082 0.0
C197 C 0.53561 0.72694 0.72953 0.0
C198 C 0.55739 0.72917 0.66643 0.0
C199 C 0.54738 0.74282 0.66107 0.0
C200 C 0.59478 0.70608 0.80895 0.0
O201 O 0.5856 0.68422 0.80495 0.0
H202 H 0.52636 0.72158 0.764 0.0
H203 H 0.56908 0.72649 0.64063 0.0
O204 O 0.5267 0.67797 0.76393 0.0
H205 H 0.54665 0.64791 0.57273 0.0
H206 H 0.55017 0.75309 0.63038 0.0
H207 H 0.16057 0.07963 0.10038 0.0
H208 H 0.1406 0.10031 0.07811 0.0
H209 H 0.07286 0.04515 0.1064 0.0
H210 H 0.09272 0.02372 0.12634 0.0
H211 H 0.068 0.05995 0.0219 0.0
H212 H 0.10084 0.09575 0.18982 0.0
H213 H 0.13159 0.11425 0.26176 0.0
H214 H 0.17326 0.16779 0.17329 0.0
H215 H 0.14291 0.14946 0.10052 0.0
H216 H 1.01608 0.13386 0.00319 0.0
H217 H 0.02824 0.10666 0.02495 0.0
H218 H 0.10068 0.15194 0.99628 0.0
H219 H 0.08888 0.17899 0.97355 0.0
H220 H 0.09836 0.1396 0.08985 0.0
H221 H 0.0621 0.10188 0.92105 0.0
H222 H 0.03063 0.08103 0.85142 0.0
H223 H 0.99333 0.02846 0.94532 0.0
H224 H 0.02375 0.04956 0.01673 0.0
C225 C 0.14143 0.07174 0.10191 0.0
C226 C 0.12838 0.04977 0.11477 0.0
C227 C 0.12998 0.08379 0.08969 0.0
C228 C 0.10516 0.07452 0.09108 0.0
C229 C 0.09204 0.05279 0.10514 0.0
C230 C 0.10351 0.04061 0.11714 0.0
C231 C 0.0931 0.08732 0.07585 0.0
C232 C 0.07427 0.07725 0.03749 0.0
C233 C 0.10138 0.10997 0.09577 0.0
C234 C 0.11965 0.12114 0.13957 0.0
C235 C 0.11663 0.1114 0.18557 0.0
C236 C 0.13398 0.12187 0.22652 0.0
C237 C 0.15438 0.14216 0.22207 0.0
C238 C 0.15745 0.15206 0.17668 0.0
C239 C 0.14016 0.14166 0.1356 0.0
C240 C 0.03453 0.13789 0.00062 0.0
C241 C 0.05151 0.15886 0.98723 0.0
C242 C 0.04143 0.12227 0.01323 0.0
C243 C 0.0654 0.12728 0.0133 0.0
C244 C 0.08209 0.14767 0.99719 0.0
C245 C 0.07524 0.16316 0.98397 0.0
C246 C 0.07376 0.11253 0.03439 0.0
C247 C 0.09183 0.12224 0.07444 0.0
C248 C 0.06435 0.08943 0.01659 0.0
C249 C 0.04513 0.07757 0.97474 0.0
C250 C 0.04689 0.08618 0.92749 0.0
C251 C 0.02921 0.07427 0.88759 0.0
C252 C 1.00992 0.05349 0.89403 0.0
C253 C 1.00818 0.04463 0.9405 0.0
C254 C 0.02554 0.05665 0.98085 0.0
H255 H 0.99635 0.04423 0.86297 0.0
H256 H 0.1678 0.15023 0.25381 0.0
H257 H 0.94841 0.93285 0.98052 0.0
H258 H 0.96905 0.97324 0.00785 0.0
H259 H 0.90401 0.97527 0.97482 0.0
H260 H 0.8838 0.93505 0.94498 0.0
H261 H 0.93888 1.0117 0.95244 0.0
H262 H 0.92455 0.97221 0.10102 0.0
H263 H 0.92668 0.94606 0.15631 0.0
H264 H 1.00312 0.98353 0.16588 0.0
H265 H 1.00145 1.0097 0.1099 0.0
H266 H 0.96821 0.11352 0.10249 0.0
H267 H 0.94959 0.07369 0.07137 0.0
H268 H 1.01583 0.07409 0.10547 0.0
H269 H 0.0343 0.11383 0.13819 0.0
H270 H 0.98156 0.03677 0.12544 0.0
H271 H 0.9951 0.07758 0.97991 0.0
H272 H 0.99249 0.10334 0.92434 0.0
H273 H 0.91627 0.06338 0.90984 0.0
H274 H 0.91854 0.03739 0.96546 0.0
C275 C 0.93874 0.94209 0.97809 0.0
C276 C 0.91454 0.93087 0.96055 0.0
C277 C 0.95044 0.96513 0.9943 0.0
C278 C 0.93797 0.97734 0.99503 0.0
C279 C 0.91407 0.96631 0.97502 0.0
C280 C 0.90251 0.94333 0.9577 0.0
C281 C 0.94944 1.00129 0.01835 0.0
C282 C 0.94791 0.0171 0.99059 0.0
C283 C 0.96182 1.00862 0.06768 0.0
C284 C 0.96287 0.99282 0.10102 0.0
C285 C 0.94181 0.97479 0.11467 0.0
C286 C 0.94294 0.95999 0.14619 0.0
C287 C 0.96502 0.96319 0.16478 0.0
C288 C 0.98603 0.98114 0.15167 0.0
C289 C 0.98501 0.99594 0.11999 0.0
C290 C 0.97875 0.10508 0.10385 0.0
C291 C 1.00287 0.11703 0.12211 0.0
C292 C 0.96813 0.08229 0.08561 0.0
C293 C 0.98148 0.07092 0.08414 0.0
C294 C 1.00512 0.08243 0.10566 0.0
C295 C 1.01567 0.10521 0.12474 0.0
C296 C 0.97088 0.04719 0.0597 0.0
C297 C 0.97256 0.03141 0.08726 0.0
C298 C 0.95851 0.03989 0.01028 0.0
C299 C 0.95706 0.05565 0.97727 0.0
C300 C 0.97782 0.07439 0.96521 0.0
C301 C 0.97639 0.08901 0.93361 0.0
C302 C 0.95421 0.08507 0.91376 0.0
C303 C 0.93345 0.06644 0.92531 0.0
C304 C 0.93482 0.05172 0.95677 0.0
H305 H 0.95312 0.09641 0.88932 0.0
H306 H 0.96585 0.9517 0.18912 0.0
H307 H 0.96334 0.86053 0.06296 0.0
H308 H 1.00447 0.89018 0.06413 0.0
H309 H 0.98176 0.9398 0.0948 0.0
H310 H 0.94034 0.91003 0.09511 0.0
H311 H 1.00867 0.94855 0.01561 0.0
H312 H 1.01749 0.9334 0.18457 0.0
H313 H 1.01403 0.91051 0.25405 0.0
H314 H 0.05806 0.88718 0.17658 0.0
H315 H 0.06152 0.90969 0.10623 0.0
H316 H 0.12842 0.0312 0.99212 0.0
H317 H 0.08931 1.0094 0.02454 0.0
H318 H 0.10283 0.95354 0.02747 0.0
H319 H 0.14276 0.97622 -0.0014 0.0
H320 H 0.07993 0.95246 0.10253 0.0
H321 H 0.06433 0.96299 0.92566 0.0
H322 H 0.06673 0.9859 0.85673 0.0
H323 H 0.03466 0.01795 0.95052 0.0
H324 H 0.03218 0.99533 0.02004 0.0
C325 C 0.9671 0.87774 0.07165 0.0
C326 C 0.9484 0.88281 0.07852 0.0
C327 C 0.99074 0.89475 0.07234 0.0
C328 C 0.9964 0.91737 0.07981 0.0
C329 C 0.97791 0.92252 0.08935 0.0
C330 C 0.95419 0.90544 0.08957 0.0
C331 C 1.02112 0.93527 0.0725 0.0
C332 C 0.02426 0.94964 0.03527 0.0
C333 C 0.04158 0.93667 0.09759 0.0
C334 C 0.03963 0.92314 0.13991 0.0
C335 C 0.02629 0.92327 0.18214 0.0
C336 C 0.02436 0.91038 0.22172 0.0
C337 C 0.03579 0.89737 0.21969 0.0
C338 C 0.04922 0.89726 0.1781 0.0
C339 C 0.0512 0.91011 0.13839 0.0
C340 C 0.12306 0.01432 0.00031 0.0
C341 C 0.13878 1.00553 0.994 0.0
C342 C 0.10048 1.00167 0.0183 0.0
C343 C 0.09244 0.97938 0.02762 0.0
C344 C 0.10832 0.97064 0.02109 0.0
C345 C 0.13125 0.98361 0.00472 0.0
C346 C 0.0676 0.96503 0.04351 0.0
C347 C 0.06441 0.95143 0.08278 0.0
C348 C 0.04703 0.96428 0.02016 0.0
C349 C 0.04828 0.97763 0.9781 0.0
C350 C 0.05785 0.97497 0.93155 0.0
C351 C 0.05922 0.9879 0.89241 0.0
C352 C 0.0509 1.00341 0.8993 0.0
C353 C 0.0411 1.00596 0.94525 0.0
C354 C 0.03968 0.99307 0.98449 0.0
H355 H 0.052 1.01343 0.86899 0.0
H356 H 0.03426 0.8874 0.25037 0.0
H357 H 0.88886 0.43829 0.35413 0.0
H358 H 0.86657 0.45875 0.34915 0.0
H359 H 0.80085 0.39792 0.35907 0.0
H360 H 0.82295 0.37724 0.36226 0.0
H361 H 0.7931 0.42097 0.29559 0.0
H362 H 0.83085 0.43868 0.46585 0.0
H363 H 0.86445 0.45181 0.53072 0.0
H364 H 0.89788 0.51632 0.47639 0.0
H365 H 0.86461 0.50347 0.41071 0.0
H366 H 0.72207 0.46867 0.3929 0.0
H367 H 0.74658 0.45014 0.38936 0.0
H368 H 0.80532 0.50921 0.34246 0.0
H369 H 0.78065 0.52777 0.34471 0.0
H370 H 0.81741 0.48842 0.42179 0.0
H371 H 0.77597 0.47044 0.25643 0.0
H372 H 0.7406 0.45667 0.19646 0.0
H373 H 0.71263 0.39117 0.24407 0.0
H374 H 0.74736 0.40477 0.3062 0.0
C375 C 0.86964 0.4292 0.35461 0.0
C376 C 0.85776 0.40612 0.35889 0.0
C377 C 0.85688 0.44097 0.35212 0.0
C378 C 0.83199 0.43005 0.35492 0.0
C379 C 0.82002 0.40682 0.35703 0.0
C380 C 0.83273 0.39499 0.35888 0.0
C381 C 0.81851 0.44289 0.35754 0.0
C382 C 0.79831 0.43556 0.32358 0.0
C383 C 0.82541 0.46223 0.39344 0.0
C384 C 0.84537 0.47003 0.43303 0.0
C385 C 0.84545 0.45561 0.46752 0.0
C386 C 0.86442 0.46301 0.50445 0.0
C387 C 0.88332 0.48486 0.50758 0.0
C388 C 0.88325 0.49939 0.47386 0.0
C389 C 0.86434 0.49206 0.4368 0.0
C390 C 0.74031 0.47789 0.38249 0.0
C391 C 0.74943 0.49977 0.36921 0.0
C392 C 0.75425 0.46719 0.38022 0.0
C393 C 0.77774 0.47824 0.36536 0.0
C394 C 0.78724 0.50038 0.35399 0.0
C395 C 0.77313 0.51096 0.35527 0.0
C396 C 0.79204 0.46637 0.3602 0.0
C397 C 0.81233 0.47387 0.3937 0.0
C398 C 0.78503 0.44705 0.32432 0.0
C399 C 0.76414 0.43875 0.28672 0.0
C400 C 0.76211 0.45319 0.25486 0.0
C401 C 0.74214 0.44541 0.22049 0.0
C402 C 0.72426 0.42311 0.21687 0.0
C403 C 0.72637 0.40851 0.24744 0.0
C404 C 0.74617 0.41626 0.28233 0.0
H405 H 0.70885 0.4171 0.19013 0.0
H406 H 0.89799 0.49056 0.5362 0.0
H407 H 0.53551 0.2561 0.27848 0.0
H408 H 0.5553 0.29662 0.27781 0.0
H409 H 0.61533 0.29473 0.2099 0.0
H410 H 0.59554 0.25404 0.21024 0.0
H411 H 0.62807 0.32852 0.29565 0.0
H412 H 0.57953 0.30246 0.13631 0.0
H413 H 0.54205 0.28058 0.082 0.0
H414 H 0.51046 0.31494 0.1691 0.0
H415 H 0.54766 0.33681 0.22442 0.0
H416 H 0.68377 0.44319 0.24519 0.0
H417 H 0.66704 0.40245 0.23813 0.0
H418 H 0.59893 0.39567 0.27796 0.0
H419 H 0.6154 0.43611 0.28446 0.0
H420 H 0.59194 0.36566 0.20238 0.0
H421 H 0.63943 0.39236 0.36121 0.0
H422 H 0.67566 0.41374 0.41938 0.0
H423 H 0.70753 0.37734 0.34249 0.0
H424 H 0.67195 0.35644 0.28224 0.0
C425 C 0.55294 0.26421 0.2635 0.0
C426 C 0.56406 0.2517 0.24517 0.0
C427 C 0.5642 0.28743 0.26291 0.0
C428 C 0.58687 0.29875 0.24404 0.0
C429 C 0.59791 0.28636 0.22498 0.0
C430 C 0.58651 0.26307 0.22498 0.0
C431 C 0.59899 0.32352 0.24452 0.0
C432 C 0.62047 0.33673 0.27461 0.0
C433 C 0.58865 0.33415 0.21822 0.0
C434 C 0.56632 0.32113 0.18477 0.0
C435 C 0.56453 0.30523 0.14413 0.0
C436 C 0.54335 0.29285 0.11312 0.0
C437 C 0.52387 0.29633 0.12217 0.0
C438 C 0.52555 0.31224 0.16217 0.0
C439 C 0.54669 0.32465 0.19332 0.0
C440 C 0.66526 0.43302 0.25264 0.0
C441 C 0.65092 0.44301 0.26518 0.0
C442 C 0.6557 0.40969 0.24863 0.0
C443 C 0.63169 0.39586 0.25784 0.0
C444 C 0.61743 0.40585 0.27031 0.0
C445 C 0.62689 0.42907 0.27389 0.0
C446 C 0.62111 0.37098 0.25403 0.0
C447 C 0.59982 0.35764 0.22327 0.0
C448 C 0.63152 0.3603 0.28043 0.0
C449 C 0.65312 0.37311 0.31639 0.0
C450 C 0.65431 0.38918 0.35599 0.0
C451 C 0.67477 0.40124 0.38938 0.0
C452 C 0.69398 0.39706 0.38433 0.0
C453 C 0.69273 0.38072 0.34607 0.0
C454 C 0.67246 0.36883 0.31211 0.0
H455 H 0.70979 0.40638 0.41026 0.0
H456 H 0.50748 0.28673 0.09812 0.0
H457 H 0.58047 0.23683 0.41338 0.0
H458 H 0.62285 0.26302 0.43738 0.0
H459 H 0.63495 0.2073 0.45528 0.0
H460 H 0.59295 0.18134 0.43165 0.0
H461 H 0.66099 0.24132 0.52775 0.0
H462 H 0.64446 0.23199 0.34215 0.0
H463 H 0.62857 0.23516 0.25893 0.0
H464 H 0.65845 0.30608 0.29971 0.0
H465 H 0.67427 0.3033 0.38343 0.0
H466 H 0.77975 0.2725 0.47524 0.0
H467 H 0.73669 0.25633 0.47872 0.0
H468 H 0.74156 0.31936 0.45164 0.0
H469 H 0.78474 0.33554 0.44735 0.0
H470 H 0.7067 0.2877 0.3937 0.0
H471 H 0.72847 0.29858 0.57198 0.0
H472 H 0.74849 0.2968 0.65092 0.0
H473 H 0.71027 0.22497 0.62553 0.0
H474 H 0.69025 0.22631 0.546 0.0
C475 C 0.59205 0.23028 0.42415 0.0
C476 C 0.58337 0.20703 0.4209 0.0
C477 C 0.61634 0.24523 0.43717 0.0
C478 C 0.63226 0.23715 0.44739 0.0
C479 C 0.62315 0.21401 0.44752 0.0
C480 C 0.59908 0.19915 0.43411 0.0
C481 C 0.65857 0.25223 0.45472 0.0
C482 C 0.67099 0.25146 0.4984 0.0
C483 C 0.67172 0.26611 0.41739 0.0
C484 C 0.66032 0.26739 0.36924 0.0
C485 C 0.64726 0.24818 0.33376 0.0
C486 C 0.63839 0.24993 0.28641 0.0
C487 C 0.64266 0.27083 0.27401 0.0
C488 C 0.65526 0.28993 0.30936 0.0
C489 C 0.66414 0.28827 0.35676 0.0
C490 C 0.77175 0.28305 0.47076 0.0
C491 C 0.7858 0.30536 0.46108 0.0
C492 C 0.74704 0.27378 0.47293 0.0
C493 C 0.73573 0.28667 0.46633 0.0
C494 C 0.74976 0.30902 0.45699 0.0
C495 C 0.77448 0.31825 0.45436 0.0
C496 C 0.7092 0.27637 0.46608 0.0
C497 C 0.69675 0.27802 0.42375 0.0
C498 C 0.69604 0.26348 0.50486 0.0
C499 C 0.70797 0.26256 0.5528 0.0
C500 C 0.72444 0.2824 0.58302 0.0
C501 C 0.73578 0.28147 0.62791 0.0
C502 C 0.73069 0.26079 0.64318 0.0
C503 C 0.71421 0.24098 0.61364 0.0
C504 C 0.70283 0.24182 0.56869 0.0
H505 H 0.73949 0.2601 0.67795 0.0
H506 H 0.6365 0.27228 0.23674 0.0
H507 H 0.41477 0.84507 0.84363 0.0
H508 H 0.43797 0.82511 0.83694 0.0
H509 H 0.44659 0.83496 0.67698 0.0
H510 H 0.42381 0.85514 0.68338 0.0
H511 H 0.42942 0.78998 0.69587 0.0
H512 H 0.49272 0.86399 0.75941 0.0
H513 H 0.51211 0.89845 0.82075 0.0
H514 H 0.51032 0.86001 0.94194 0.0
H515 H 0.49061 0.82527 0.88142 0.0
H516 H 0.51525 0.75641 0.62995 0.0
H517 H 0.49252 0.77632 0.64564 0.0
H518 H 0.49686 0.77184 0.80812 0.0
H519 H 0.52011 0.75231 0.79277 0.0
H520 H 0.50595 0.8128 0.79352 0.0
H521 H 0.44498 0.73955 0.73455 0.0
H522 H 0.42268 0.70364 0.67909 0.0
H523 H 0.41661 0.73803 0.55632 0.0
H524 H 0.43927 0.77423 0.6107 0.0
C525 C 0.42193 0.84331 0.80723 0.0
C526 C 0.41743 0.8518 0.76411 0.0
C527 C 0.43517 0.83186 0.80347 0.0
C528 C 0.44398 0.82848 0.7564 0.0
C529 C 0.43993 0.83731 0.71364 0.0
C530 C 0.427 0.849 0.71752 0.0
C531 C 0.45657 0.81496 0.75087 0.0
C532 C 0.44634 0.79511 0.71663 0.0
C533 C 0.47809 0.82114 0.77965 0.0
C534 C 0.48995 0.84201 0.81601 0.0
C535 C 0.49626 0.86286 0.79924 0.0
C536 C 0.50735 0.88245 0.83384 0.0
C537 C 0.51238 0.88141 0.88525 0.0
C538 C 0.50638 0.86079 0.90213 0.0
C539 C 0.49527 0.84115 0.86769 0.0
C540 C 0.51151 0.75972 0.66909 0.0
C541 C 0.51963 0.75272 0.71007 0.0
C542 C 0.49825 0.77094 0.67798 0.0
C543 C 0.49269 0.77545 0.72806 0.0
C544 C 0.5008 0.76854 0.7691 0.0
C545 C 0.51399 0.7572 0.76021 0.0
C546 C 0.47908 0.78795 0.73751 0.0
C547 C 0.48904 0.80758 0.77265 0.0
C548 C 0.45704 0.78135 0.71013 0.0
C549 C 0.44413 0.75967 0.67656 0.0
C550 C 0.4392 0.73951 0.69548 0.0
C551 C 0.42643 0.71908 0.66428 0.0
C552 C 0.41832 0.71856 0.61415 0.0
C553 C 0.42298 0.73847 0.59511 0.0
C554 C 0.4358 0.75895 0.62611 0.0
H555 H 0.40835 0.70272 0.59013 0.0
H556 H 0.52097 0.8966 0.91197 0.0
H557 H 0.34852 0.78847 0.72278 0.0
H558 H 0.33406 0.75046 0.74382 0.0
H559 H 0.26196 0.73477 0.70193 0.0
H560 H 0.27607 0.77299 0.68315 0.0
H561 H 0.26418 0.71992 0.79041 0.0
H562 H 0.29604 0.717 0.62301 0.0
H563 H 0.32802 0.72937 0.56273 0.0
H564 H 0.3707 0.71481 0.66361 0.0
H565 H 0.33905 0.70255 0.72471 0.0
H566 H 0.20213 0.60275 0.77533 0.0
H567 H 0.22079 0.64177 0.75873 0.0
H568 H 0.29031 0.64793 0.7872 0.0
H569 H 0.27147 0.6084 0.80141 0.0
H570 H 0.29255 0.66884 0.71126 0.0
H571 H 0.26354 0.67098 0.87667 0.0
H572 H 0.23454 0.66016 0.94348 0.0
H573 H 0.19064 0.67837 0.85671 0.0
H574 H 0.21923 0.68903 0.78901 0.0
C575 C 0.32956 0.77707 0.71831 0.0
C576 C 0.31351 0.78403 0.70124 0.0
C577 C 0.32134 0.75516 0.72984 0.0
C578 C 0.29692 0.73959 0.72392 0.0
C579 C 0.2809 0.74643 0.70667 0.0
C580 C 0.28906 0.76833 0.69547 0.0
C581 C 0.2878 0.71636 0.73709 0.0
C582 C 0.27016 0.70865 0.77258 0.0
C583 C 0.29641 0.70196 0.71581 0.0
C584 C 0.31526 0.70905 0.67863 0.0
C585 C 0.31229 0.71655 0.63245 0.0
C586 C 0.33035 0.72351 0.59812 0.0
C587 C 0.3514 0.72292 0.60939 0.0
C588 C 0.35439 0.71527 0.65493 0.0
C589 C 0.33639 0.70829 0.68938 0.0
C590 C 0.22138 0.6125 0.77852 0.0
C591 C 0.23535 0.60262 0.79017 0.0
C592 C 0.23208 0.63487 0.76917 0.0
C593 C 0.25705 0.64812 0.77281 0.0
C594 C 0.27104 0.63819 0.78425 0.0
C595 C 0.2603 0.61563 0.79251 0.0
C596 C 0.2684 0.67214 0.76368 0.0
C597 C 0.28655 0.68006 0.72924 0.0
C598 C 0.26068 0.68696 0.78686 0.0
C599 C 0.24345 0.68062 0.82756 0.0
C600 C 0.24763 0.67253 0.87167 0.0
C601 C 0.23127 0.66645 0.90972 0.0
C602 C 0.21074 0.66853 0.90429 0.0
C603 C 0.20654 0.67675 0.86084 0.0
C604 C 0.22283 0.68284 0.82264 0.0
H605 H 0.19809 0.66381 0.93379 0.0
H606 H 0.36537 0.72835 0.58281 0.0
H607 H 0.28605 0.56451 0.73435 0.0
H608 H 0.32926 0.58787 0.73784 0.0
H609 H 0.33774 0.52919 0.73961 0.0
H610 H 0.29447 0.50584 0.73834 0.0
H611 H 0.36764 0.55946 0.80767 0.0
H612 H 0.34802 0.56042 0.63093 0.0
H613 H 0.32726 0.56591 0.55843 0.0
H614 H 0.35548 0.63516 0.61757 0.0
H615 H 0.37616 0.63002 0.6908 0.0
H616 H 0.49054 0.611 0.75275 0.0
H617 H 0.44721 0.58821 0.75139 0.0
H618 H 0.44046 0.64807 0.77199 0.0
H619 H 0.48383 0.67102 0.77341 0.0
H620 H 0.41006 0.61791 0.69332 0.0
H621 H 0.4303 0.61653 0.86924 0.0
H622 H 0.45148 0.6107 0.94031 0.0
H623 H 0.42245 0.54148 0.88004 0.0
H624 H 0.40134 0.54696 0.80816 0.0
C625 C 0.29707 0.55649 0.73464 0.0
C626 C 0.2867 0.53323 0.73583 0.0
C627 C 0.32189 0.56992 0.73652 0.0
C628 C 0.33702 0.5604 0.73844 0.0
C629 C 0.32662 0.53707 0.73829 0.0
C630 C 0.3018 0.52367 0.73722 0.0
C631 C 0.3636 0.57477 0.74298 0.0
C632 C 0.37687 0.57197 0.78201 0.0
C633 C 0.37586 0.59164 0.71064 0.0
C634 C 0.36345 0.59477 0.66662 0.0
C635 C 0.34965 0.57678 0.62868 0.0
C636 C 0.33792 0.57983 0.58742 0.0
C637 C 0.34 0.60085 0.58347 0.0
C638 C 0.35386 0.61888 0.62072 0.0
C639 C 0.3656 0.61591 0.66208 0.0
C640 C 0.47991 0.61937 0.75779 0.0
C641 C 0.49078 0.6429 0.76335 0.0
C642 C 0.45507 0.60628 0.75702 0.0
C643 C 0.44047 0.61637 0.76167 0.0
C644 C 0.45129 0.63986 0.76825 0.0
C645 C 0.47615 0.65298 0.76944 0.0
C646 C 0.41393 0.60242 0.75763 0.0
C647 C 0.40073 0.60534 0.7188 0.0
C648 C 0.40175 0.58556 0.78985 0.0
C649 C 0.41442 0.58222 0.83303 0.0
C650 C 0.42859 0.60011 0.87089 0.0
C651 C 0.44055 0.59686 0.91137 0.0
C652 C 0.43836 0.57575 0.91461 0.0
C653 C 0.42415 0.55783 0.87744 0.0
C654 C 0.41217 0.56099 0.83685 0.0
H655 H 0.44764 0.57327 0.94599 0.0
H656 H 0.33091 0.60319 0.5515 0.0
H657 H 0.1342 0.28671 0.0504 0.0
H658 H 0.15141 0.32289 0.01817 0.0
H659 H 0.08122 0.31175 0.97432 0.0
H660 H 0.06359 0.27566 0.00726 0.0
H661 H 0.11276 0.32834 0.89779 0.0
H662 H 0.11026 0.34677 0.07816 0.0
H663 H 0.11745 0.34672 0.17083 0.0
H664 H 0.1929 0.3787 0.1548 0.0
H665 H 0.18615 0.37865 0.06182 0.0
H666 H 0.15327 0.44132 0.84649 0.0
H667 H 0.13204 0.40458 0.87763 0.0
H668 H 0.19828 0.41412 0.94641 0.0
H669 H 0.21929 0.45088 0.9165 0.0
H670 H 0.16609 0.39809 0.01116 0.0
H671 H 0.16897 0.37814 0.83055 0.0
H672 H 0.16219 0.378 0.73757 0.0
H673 H 0.08684 0.34875 0.75324 0.0
H674 H 0.0932 0.34897 0.84647 0.0
C675 C 0.12221 0.29178 0.0344 0.0
C676 C 0.09728 0.27781 0.03187 0.0
C677 C 0.1322 0.31263 0.01578 0.0
C678 C 0.11763 0.32014 0.99401 0.0
C679 C 0.09285 0.3063 0.99081 0.0
C680 C 0.08278 0.2855 0.00979 0.0
C681 C 0.12834 0.34247 0.97479 0.0
C682 C 0.12417 0.34365 0.9227 0.0
C683 C 0.14355 0.36242 0.00701 0.0
C684 C 0.14768 0.36251 0.06293 0.0
C685 C 0.12838 0.35362 0.09431 0.0
C686 C 0.13237 0.35364 0.14691 0.0
C687 C 0.15561 0.36265 0.16867 0.0
C688 C 0.17491 0.3717 0.13788 0.0
C689 C 0.17101 0.3717 0.08523 0.0
C690 C 0.16328 0.43547 0.86792 0.0
C691 C 0.18796 0.44908 0.87916 0.0
C692 C 0.15115 0.41443 0.88567 0.0
C693 C 0.16353 0.40635 0.91413 0.0
C694 C 0.18822 0.41991 0.92489 0.0
C695 C 0.20025 0.44099 0.90777 0.0
C696 C 0.15095 0.38404 0.93372 0.0
C697 C 0.15469 0.38284 0.98607 0.0
C698 C 0.13546 0.36408 0.90162 0.0
C699 C 0.13159 0.36379 0.84555 0.0
C700 C 0.15097 0.37182 0.81422 0.0
C701 C 0.1472 0.3717 0.76147 0.0
C702 C 0.1241 0.36343 0.73954 0.0
C703 C 0.10472 0.35518 0.7703 0.0
C704 C 0.10839 0.35528 0.82308 0.0
H705 H 0.12122 0.36337 0.69871 0.0
H706 H 0.15867 0.36266 0.20941 0.0
H707 H 0.79932 0.86402 0.00173 0.0
H708 H 0.75764 0.83859 0.97305 0.0
H709 H 0.76453 0.78308 0.01822 0.0
H710 H 0.80637 0.80841 0.04661 0.0
H711 H 0.74476 0.77333 0.92246 0.0
H712 H 0.73036 0.80259 0.08343 0.0
H713 H 0.73376 0.83171 0.15165 0.0
H714 H 0.7032 0.85672 0.04633 0.0
H715 H 0.69992 0.82794 0.97722 0.0
H716 H 0.62247 0.6939 0.86422 0.0
H717 H 0.66115 0.71826 0.91098 0.0
H718 H 0.65834 0.77632 0.86989 0.0
H719 H 0.61948 0.75208 0.82363 0.0
H720 H 0.67548 0.78369 0.96779 0.0
H721 H 0.69203 0.75604 0.80604 0.0
H722 H 0.68878 0.7272 0.73718 0.0
H723 H 0.71569 0.69957 0.84373 0.0
H724 H 0.71878 0.72807 0.91345 0.0
C725 C 0.79189 0.84648 0.00665 0.0
C726 C 0.80634 0.83836 0.02664 0.0
C727 C 0.76794 0.8319 0.99021 0.0
C728 C 0.75775 0.80881 0.99342 0.0
C729 C 0.77189 0.80078 0.01517 0.0
C730 C 0.79583 0.81537 0.03183 0.0
C731 C 0.73298 0.79295 0.97088 0.0
C732 C 0.72956 0.77538 0.93317 0.0
C733 C 0.71312 0.79586 0.98357 0.0
C734 C 0.7151 0.81322 0.025 0.0
C735 C 0.72455 0.81442 0.07468 0.0
C736 C 0.72642 0.83084 0.11354 0.0
C737 C 0.71875 0.84609 0.1033 0.0
C738 C 0.70916 0.84491 0.05419 0.0
C739 C 0.70726 0.82853 0.01517 0.0
C740 C 0.62997 0.71185 0.86531 0.0
C741 C 0.6178 0.72095 0.8398 0.0
C742 C 0.65221 0.7258 0.89195 0.0
C743 C 0.66296 0.74921 0.89352 0.0
C744 C 0.65054 0.75835 0.86929 0.0
C745 C 0.62829 0.74442 0.84266 0.0
C746 C 0.68731 0.76413 0.91935 0.0
C747 C 0.69066 0.78155 0.95746 0.0
C748 C 0.70716 0.76114 0.90696 0.0
C749 C 0.70538 0.74403 0.86509 0.0
C750 C 0.69707 0.7437 0.81489 0.0
C751 C 0.69529 0.72743 0.77569 0.0
C752 C 0.70195 0.71152 0.78611 0.0
C753 C 0.71049 0.71188 0.83574 0.0
C754 C 0.71227 0.72809 0.8751 0.0
H755 H 0.70057 0.69894 0.7557 0.0
H756 H 0.72021 0.85879 0.13345 0.0
H757 H 0.31606 0.86391 0.87157 0.0
H758 H 0.29344 0.88003 0.91527 0.0
H759 H 0.32647 0.93696 0.83047 0.0
H760 H 0.34955 0.92101 0.78689 0.0
H761 H 0.32208 0.94998 0.92892 0.0
H762 H 0.27019 0.89413 0.79421 0.0
H763 H 0.24973 0.85663 0.74447 0.0
H764 H 0.21501 0.8283 0.87842 0.0
H765 H 0.23554 0.86561 0.92919 0.0
H766 H 0.23643 0.98716 0.96676 0.0
H767 H 0.26208 0.97307 0.9302 0.0
H768 H 0.22963 0.91656 0.01632 0.0
H769 H 0.20398 0.93071 0.05388 0.0
H770 H 0.23402 0.90354 0.91798 0.0
H771 H 0.28551 0.95978 0.05231 0.0
H772 H 0.30594 0.99739 0.10152 0.0
H773 H 0.34126 0.0252 0.96768 0.0
H774 H 0.32077 0.98778 0.91743 0.0
C775 C 0.31875 0.87997 0.86244 0.0
C776 C 0.33457 0.89106 0.82532 0.0
C777 C 0.30566 0.88914 0.88737 0.0
C778 C 0.30781 0.90954 0.87555 0.0
C779 C 0.32436 0.92115 0.84015 0.0
C780 C 0.33756 0.912 0.81522 0.0
C781 C 0.29226 0.91828 0.89894 0.0
C782 C 0.30282 0.93992 0.92592 0.0
C783 C 0.26708 0.90506 0.89612 0.0
C784 C 0.25458 0.88263 0.86562 0.0
C785 C 0.25832 0.87988 0.81316 0.0
C786 C 0.2467 0.85866 0.78476 0.0
C787 C 0.23113 0.84009 0.8083 0.0
C788 C 0.2271 0.8427 0.86026 0.0
C789 C 0.23871 0.86388 0.88885 0.0
C790 C 0.23482 0.97189 0.97871 0.0
C791 C 0.21804 0.96025 0.01388 0.0
C792 C 0.24958 0.9638 0.95751 0.0
C793 C 0.24808 0.94386 0.97085 0.0
C794 C 0.23119 0.932 0.00537 0.0
C795 C 0.21644 0.94012 0.02676 0.0
C796 C 0.26383 0.93522 0.94809 0.0
C797 C 0.25329 0.9136 0.9211 0.0
C798 C 0.289 0.94848 0.95083 0.0
C799 C 0.30142 0.971 0.98097 0.0
C800 C 0.29749 0.97394 0.03325 0.0
C801 C 0.3091 0.99522 0.06135 0.0
C802 C 0.32484 0.01368 0.03771 0.0
C803 C 0.32904 1.01089 0.98593 0.0
C804 C 0.31745 0.98964 0.95763 0.0
H805 H 0.33382 0.03014 0.05953 0.0
H806 H 0.22215 0.82367 0.78626 0.0
H807 H 0.44119 0.15136 0.36707 0.0
H808 H 0.39764 0.13223 0.34974 0.0
H809 H 0.4067 0.15418 0.19898 0.0
H810 H 0.44984 0.17322 0.21609 0.0
H811 H 0.36867 0.1552 0.24063 0.0
H812 H 0.39965 0.10314 0.216 0.0
H813 H 0.4215 0.08429 0.2443 0.0
H814 H 0.37323 0.05843 0.36295 0.0
H815 H 0.35131 0.07744 0.33582 0.0
H816 H 0.26321 0.07455 0.09223 0.0
H817 H 0.30424 0.09916 0.12771 0.0
H818 H 0.28726 0.06867 0.26845 0.0
H819 H 0.24647 0.0438 0.23295 0.0
H820 H 0.32825 0.0728 0.24073 0.0
H821 H 0.29494 0.12209 0.26065 0.0
H822 H 0.27346 0.14141 0.23331 0.0
H823 H 0.32583 0.17272 0.12512 0.0
H824 H 0.34746 0.15333 0.15131 0.0
C825 C 0.43383 0.1526 0.33087 0.0
C826 C 0.44894 0.16372 0.29288 0.0
C827 C 0.40895 0.1415 0.32078 0.0
C828 C 0.39885 0.14145 0.27266 0.0
C829 C 0.41397 0.15387 0.23627 0.0
C830 C 0.43869 0.16474 0.24612 0.0
C831 C 0.37284 0.12719 0.25803 0.0
C832 C 0.35985 0.13717 0.24047 0.0
C833 C 0.36113 0.10368 0.25857 0.0
C834 C 0.37401 0.09191 0.27428 0.0
C835 C 0.39379 0.09355 0.24833 0.0
C836 C 0.40618 0.08283 0.26414 0.0
C837 C 0.39881 0.07023 0.30551 0.0
C838 C 0.37896 0.06824 0.331 0.0
C839 C 0.36654 0.07897 0.31542 0.0
C840 C 0.26816 0.07318 0.13085 0.0
C841 C 0.25145 0.05719 0.15969 0.0
C842 C 0.29165 0.08734 0.15124 0.0
C843 C 0.29892 0.08601 0.20114 0.0
C844 C 0.28221 0.07009 0.22994 0.0
C845 C 0.25879 0.0559 0.20956 0.0
C846 C 0.32402 0.10077 0.22283 0.0
C847 C 0.3369 0.09085 0.2415 0.0
C848 C 0.3356 0.12434 0.22338 0.0
C849 C 0.3227 0.1361 0.20765 0.0
C850 C 0.30178 0.13297 0.23076 0.0
C851 C 0.2896 0.14395 0.21551 0.0
C852 C 0.29825 0.15825 0.17742 0.0
C853 C 0.31914 0.16162 0.15458 0.0
C854 C 0.33138 0.15066 0.16965 0.0
H855 H 0.28879 0.16674 0.16567 0.0
H856 H 0.40844 0.06197 0.31775 0.0
H857 H 0.96254 0.20169 0.11732 0.0
H858 H 0.9402 0.2212 0.14571 0.0
H859 H 1.00432 0.28472 0.14776 0.0
H860 H 0.02664 0.26522 0.12266 0.0
H861 H 0.98609 0.28633 0.23 0.0
H862 H 0.95262 0.26281 0.05548 0.0
H863 H 0.93202 0.23609 0.97803 0.0
H864 H 0.86998 0.20118 0.06144 0.0
H865 H 0.89033 0.22754 0.1396 0.0
H866 H 0.93853 0.3601 0.26138 0.0
H867 H 0.95395 0.33686 0.21797 0.0
H868 H 0.89384 0.27761 0.26023 0.0
H869 H 0.8782 0.30076 0.30387 0.0
H870 H 0.90761 0.27222 0.15749 0.0
H871 H 0.94335 0.2989 0.33198 0.0
H872 H 0.9648 0.32864 0.40409 0.0
H873 H 0.02451 0.36051 0.31233 0.0
H874 H 1.00329 0.33126 0.23963 0.0
C875 C 0.97164 0.21982 0.123 0.0
C876 C 0.99628 0.23197 0.11786 0.0
C877 C 0.95888 0.23102 0.13915 0.0
C878 C 0.97045 0.2546 0.14899 0.0
C879 C 0.99488 0.2666 0.14118 0.0
C880 C 1.00765 0.25544 0.12645 0.0
C881 C 0.9579 0.26694 0.1707 0.0
C882 C 0.96908 0.28333 0.21338 0.0
C883 C 0.93535 0.26289 0.15041 0.0
C884 C 0.9231 0.24699 0.10353 0.0
C885 C 0.93466 0.24932 0.05742 0.0
C886 C 0.92301 0.23427 0.01337 0.0
C887 C 0.89973 0.21691 0.01486 0.0
C888 C 0.88803 0.21461 0.06037 0.0
C889 C 0.8996 0.22961 0.10454 0.0
C890 C 0.92838 0.34211 0.26098 0.0
C891 C 0.90719 0.33236 0.28658 0.0
C892 C 0.93725 0.32883 0.23612 0.0
C893 C 0.92518 0.30549 0.23622 0.0
C894 C 0.90346 0.29557 0.25962 0.0
C895 C 0.89461 0.30887 0.28477 0.0
C896 C 0.9362 0.29176 0.21541 0.0
C897 C 0.92465 0.27508 0.17357 0.0
C898 C 0.95864 0.29577 0.23573 0.0
C899 C 0.97166 0.31297 0.28023 0.0
C900 C 0.96102 0.31233 0.32717 0.0
C901 C 0.97314 0.32911 0.36819 0.0
C902 C 0.99601 0.34652 0.36287 0.0
C903 C 1.00682 0.34709 0.31658 0.0
C904 C 0.99476 0.3304 0.27545 0.0
H905 H 1.00534 0.35952 0.39462 0.0
H906 H 0.89075 0.20527 0.98071 0.0
H907 H 0.77267 0.61392 0.2567 0.0
H908 H 0.79338 0.65046 0.22466 0.0
H909 H 0.75366 0.62132 0.07786 0.0
H910 H 0.73307 0.58492 0.10949 0.0
H911 H 0.79883 0.647 0.06322 0.0
H912 H 0.74157 0.65551 0.16696 0.0
H913 H 0.72102 0.65528 0.24614 0.0
H914 H 0.78711 0.70558 0.32474 0.0
H915 H 0.80812 0.7059 0.24617 0.0
H916 H 0.82557 0.74664 0.95429 0.0
H917 H 0.806 0.71087 0.98957 0.0
H918 H 0.84686 0.74269 0.13427 0.0
H919 H 0.8663 0.77854 0.09927 0.0
H920 H 0.80221 0.716 0.15168 0.0
H921 H 0.85937 0.70793 0.04764 0.0
H922 H 0.87992 0.70822 0.96842 0.0
H923 H 0.81408 0.65708 0.89056 0.0
H924 H 0.79307 0.65669 0.96915 0.0
C925 C 0.76816 0.61535 0.21781 0.0
C926 C 0.75123 0.59637 0.18569 0.0
C927 C 0.78004 0.63628 0.19945 0.0
C928 C 0.77505 0.63878 0.14878 0.0
C929 C 0.75799 0.6199 0.11694 0.0
C930 C 0.74623 0.59901 0.13512 0.0
C931 C 0.78784 0.66086 0.12826 0.0
C932 C 0.79929 0.66202 0.08231 0.0
C933 C 0.78907 0.68067 0.15363 0.0
C934 C 0.77645 0.68056 0.20084 0.0
C935 C 0.75175 0.6664 0.20124 0.0
C936 C 0.74001 0.66627 0.24599 0.0
C937 C 0.75276 0.68036 0.29048 0.0
C938 C 0.77726 0.69465 0.29027 0.0
C939 C 0.78909 0.69482 0.24563 0.0
C940 C 0.83065 0.74599 0.99337 0.0
C941 C 0.84761 0.76553 0.02383 0.0
C942 C 0.81939 0.72548 0.01361 0.0
C943 C 0.82507 0.72391 0.06457 0.0
C944 C 0.84207 0.74339 0.09495 0.0
C945 C 0.85319 0.76391 0.07486 0.0
C946 C 0.81306 0.7021 0.08646 0.0
C947 C 0.80178 0.701 0.13267 0.0
C948 C 0.81199 0.68231 0.06135 0.0
C949 C 0.82461 0.68242 0.01415 0.0
C950 C 0.84925 0.69685 0.01352 0.0
C951 C 0.86098 0.69702 0.96875 0.0
C952 C 0.8483 0.68272 0.92445 0.0
C953 C 0.82387 0.66817 0.92488 0.0
C954 C 0.81205 0.66795 0.96954 0.0
H955 H 0.85742 0.68288 0.88983 0.0
H956 H 0.74364 0.68024 0.32509 0.0
H957 H 0.14942 0.50135 0.68332 0.0
H958 H 0.10887 0.48429 0.64419 0.0
H959 H 0.11262 0.42471 0.58924 0.0
H960 H 0.15342 0.4417 0.62849 0.0
H961 H 0.09042 0.4374 0.51607 0.0
H962 H 0.08377 0.42407 0.69266 0.0
H963 H 0.0921 0.43456 0.78645 0.0
H964 H 0.06207 0.47853 0.78193 0.0
H965 H 0.05389 0.46856 0.68793 0.0
H966 H 0.96243 0.37157 0.46344 0.0
H967 H 1.00432 0.38535 0.4915 0.0
H968 H 1.00767 0.4455 0.56871 0.0
H969 H 0.96617 0.43194 0.54096 0.0
H970 H 0.02639 0.42951 0.63052 0.0
H971 H 0.0324 0.44241 0.45328 0.0
H972 H 0.02568 0.43311 0.35908 0.0
H973 H 0.05854 0.39144 0.36328 0.0
H974 H 0.06443 0.39962 0.45765 0.0
C975 C 0.14179 0.48468 0.66259 0.0
C976 C 0.15476 0.47288 0.65938 0.0
C977 C 0.1185 0.47491 0.64033 0.0
C978 C 0.10753 0.45309 0.61426 0.0
C979 C 0.12067 0.44154 0.60925 0.0
C980 C 0.144 0.45128 0.63183 0.0
C981 C 0.08209 0.44222 0.59403 0.0
C982 C 0.0763 0.4353 0.54109 0.0
C983 C 0.06373 0.43985 0.62657 0.0
C984 C 0.0684 0.44571 0.68318 0.0
C985 C 0.0791 0.4361 0.71161 0.0
C986 C 0.08377 0.44193 0.76482 0.0
C987 C 0.07766 0.45723 0.79012 0.0
C988 C 0.06681 0.46669 0.76227 0.0
C989 C 0.06213 0.46094 0.70903 0.0
C990 C 0.97216 0.38783 0.48593 0.0
C991 C 0.96071 0.40049 0.50034 0.0
C992 C 0.99617 0.39571 0.50201 0.0
C993 C 1.0093 0.41653 0.53241 0.0
C994 C 0.99798 0.42931 0.54581 0.0
C995 C 0.9741 0.42146 0.52997 0.0
C996 C 0.03455 0.42493 0.55205 0.0
C997 C 0.04036 0.4314 0.60521 0.0
C998 C 0.05286 0.42687 0.51952 0.0
C999 C 0.0485 0.42134 0.46279 0.0
C1000 C 0.03775 0.4309 0.43427 0.0
C1001 C 0.03408 0.42582 0.38077 0.0
C1002 C 0.04147 0.41153 0.3552 0.0
C1003 C 0.05257 0.40231 0.3831 0.0
C1004 C 0.05597 0.40707 0.43663 0.0
H1005 H 0.03872 0.4077 0.31376 0.0
H1006 H 0.0813 0.46173 0.83131 0.0
H1007 H 0.71079 0.58663 0.41595 0.0
H1008 H 0.69501 0.6095 0.4612 0.0
H1009 H 0.62935 0.54973 0.47783 0.0
H1010 H 0.64503 0.52685 0.43399 0.0
H1011 H 0.62438 0.58466 0.43408 0.0
H1012 H 0.66427 0.57399 0.57866 0.0
H1013 H 0.69909 0.57668 0.62649 0.0
H1014 H 0.73552 0.64809 0.6277 0.0
H1015 H 0.70101 0.64578 0.57918 0.0
H1016 H 0.55824 0.61868 0.59222 0.0
H1017 H 0.58022 0.60031 0.55612 0.0
H1018 H 0.64624 0.66204 0.59128 0.0
H1019 H 0.62405 0.68018 0.63001 0.0
H1020 H 0.65455 0.62965 0.60514 0.0
H1021 H 0.61674 0.64247 0.46531 0.0
H1022 H 0.58398 0.64201 0.41399 0.0
H1023 H 0.54669 0.57014 0.39711 0.0
H1024 H 0.57909 0.57018 0.44895 0.0
C1025 C 0.69309 0.57836 0.42974 0.0
C1026 C 0.67922 0.55486 0.42131 0.0
C1027 C 0.68411 0.59145 0.45564 0.0
C1028 C 0.66097 0.58133 0.47292 0.0
C1029 C 0.64723 0.55792 0.46488 0.0
C1030 C 0.6563 0.54485 0.4399 0.0
C1031 C 0.65047 0.59494 0.49748 0.0
C1032 C 0.63083 0.59434 0.4717 0.0
C1033 C 0.65947 0.60832 0.5456 0.0
C1034 C 0.68018 0.60968 0.57473 0.0
C1035 C 0.6798 0.59024 0.58864 0.0
C1036 C 0.69946 0.5917 0.61599 0.0
C1037 C 0.71954 0.61253 0.62997 0.0
C1038 C 0.71997 0.63196 0.61675 0.0
C1039 C 0.70037 0.63059 0.58935 0.0
C1040 C 0.57745 0.6283 0.59243 0.0
C1041 C 0.5894 0.65093 0.61334 0.0
C1042 C 0.59006 0.61783 0.57146 0.0
C1043 C 0.61494 0.62988 0.56919 0.0
C1044 C 0.62706 0.65234 0.59196 0.0
C1045 C 0.61441 0.66272 0.61411 0.0
C1046 C 0.62795 0.61899 0.54227 0.0
C1047 C 0.64812 0.62014 0.56737 0.0
C1048 C 0.61977 0.60647 0.49281 0.0
C1049 C 0.60028 0.60634 0.46137 0.0
C1050 C 0.60149 0.62657 0.45093 0.0
C1051 C 0.58299 0.62638 0.42171 0.0
C1052 C 0.56324 0.60606 0.40239 0.0
C1053 C 0.56199 0.58587 0.41214 0.0
C1054 C 0.58043 0.58597 0.44139 0.0
H1055 H 0.54894 0.60595 0.37979 0.0
H1056 H 0.73474 0.61363 0.65117 0.0
H1057 H 0.39269 0.95245 0.63177 0.0
H1058 H 0.41165 0.9879 0.59403 0.0
H1059 H 0.43593 0.95767 0.47329 0.0
H1060 H 0.41724 0.92245 0.51087 0.0
H1061 H 0.47094 0.9999 0.51173 0.0
H1062 H 0.38816 0.96388 0.45026 0.0
H1063 H 0.34487 0.94631 0.45953 0.0
H1064 H 0.35381 1.00673 0.54625 0.0
H1065 H 0.39724 0.02456 0.5381 0.0
H1066 H 0.49991 0.07476 0.32383 0.0
H1067 H 0.48243 0.04196 0.37041 0.0
H1068 H 0.45544 0.07507 0.47747 0.0
H1069 H 0.47222 0.10764 0.43014 0.0
H1070 H 0.42237 0.03284 0.45163 0.0
H1071 H 0.50443 0.06978 0.51068 0.0
H1072 H 0.54788 0.08782 0.50332 0.0
H1073 H 0.54084 0.02668 0.4247 0.0
H1074 H 0.49728 1.00835 0.43094 0.0
C1075 C 0.40225 0.95346 0.59745 0.0
C1076 C 0.40327 0.93455 0.57413 0.0
C1077 C 0.41295 0.97367 0.57571 0.0
C1078 C 0.42506 0.97542 0.53048 0.0
C1079 C 0.42665 0.95675 0.50805 0.0
C1080 C 0.41577 0.93654 0.52939 0.0
C1081 C 0.43579 0.99649 0.50574 0.0
C1082 C 0.46028 1.00699 0.49817 0.0
C1083 C 0.42206 1.00614 0.48921 0.0
C1084 C 0.39597 0.99545 0.49409 0.0
C1085 C 0.38092 0.97335 0.4717 0.0
C1086 C 0.35635 0.96336 0.47668 0.0
C1087 C 0.3466 0.97537 0.50361 0.0
C1088 C 0.3614 0.99743 0.5255 0.0
C1089 C 0.38599 1.00749 0.52069 0.0
C1090 C 0.49015 0.07506 0.35706 0.0
C1091 C 0.48767 0.09401 0.37322 0.0
C1092 C 0.48032 0.05632 0.38404 0.0
C1093 C 0.46786 0.05608 0.42804 0.0
C1094 C 0.46507 0.07484 0.44388 0.0
C1095 C 0.4749 0.09359 0.41695 0.0
C1096 C 0.45753 0.03618 0.4571 0.0
C1097 C 0.43311 0.02588 0.46547 0.0
C1098 C 0.47137 0.0268 0.47471 0.0
C1099 C 0.49756 0.03775 0.47084 0.0
C1100 C 0.51212 0.06023 0.49144 0.0
C1101 C 0.53677 0.0705 0.48754 0.0
C1102 C 0.5471 0.05842 0.46344 0.0
C1103 C 0.5328 0.03602 0.4433 0.0
C1104 C 0.50813 0.02568 0.44704 0.0
H1105 H 0.56619 0.0664 0.46048 0.0
H1106 H 0.32758 0.96761 0.5074 0.0
loop_
_geom_bond_atom_site_label_1
_geom_bond_atom_site_label_2
_geom_bond_distance
_geom_bond_site_symmetry_2
_ccdc_geom_bond_type
Cu0 N1 1.999 1_455 S
Cu0 O6 1.974 . S
Cu0 N11 1.985 . S
Cu0 O20 1.959 1_455 S
N1 Cu0 1.999 1_655 S
N1 C3 1.263 . S
N1 C5 1.389 . S
N2 C3 1.358 . S
N2 C4 1.400 . S
C3 N1 1.263 . S
C3 N2 1.358 . S
C3 H9 0.930 . S
C4 N2 1.400 . S
C4 C5 1.351 . S
C4 H21 0.930 . S
C5 N1 1.389 . S
C5 C4 1.351 . S
C5 H10 0.930 . S
O6 Cu0 1.974 . S
O6 C16 1.282 . S
C7 O8 1.261 . S
C7 O20 1.251 . S
O8 C7 1.261 . S
H9 C3 0.930 . S
H10 C5 0.930 . S
N11 Cu0 1.985 . S
N11 C13 1.335 . S
N11 C14 1.390 . S
N12 C13 1.345 . S
N12 C15 1.336 . S
C13 N11 1.335 . S
C13 N12 1.345 . S
C13 H18 0.930 . S
C14 N11 1.390 . S
C14 C15 1.346 . S
C14 H19 0.930 . S
C15 N12 1.336 . S
C15 C14 1.346 . S
C15 H22 0.929 . S
C16 O6 1.282 . S
C16 O17 1.216 . S
O17 C16 1.216 . S
H18 C13 0.930 . S
H19 C14 0.930 . S
O20 Cu0 1.959 1_655 S
O20 C7 1.251 . S
H21 C4 0.930 . S
H22 C15 0.929 . S
Cu23 N24 1.999 . S
Cu23 O29 1.974 . S
Cu23 N34 1.985 . S
Cu23 O43 1.959 . S
N24 Cu23 1.999 . S
N24 C26 1.263 . S
N24 C28 1.389 . S
N25 C26 1.358 . S
N25 C27 1.400 . S
C26 N24 1.263 . S
C26 N25 1.358 . S
C26 H32 0.930 . S
C27 N25 1.400 . S
C27 C28 1.351 . S
C27 H44 0.930 . S
C28 N24 1.389 . S
C28 C27 1.351 . S
C28 H33 0.930 . S
O29 Cu23 1.974 . S
O29 C39 1.282 . S
C30 O31 1.261 1_554 S
C30 O43 1.251 . S
O31 C30 1.261 1_556 S
H32 C26 0.930 . S
H33 C28 0.930 . S
N34 Cu23 1.985 . S
N34 C36 1.335 . S
N34 C37 1.390 . S
N35 C36 1.345 . S
N35 C38 1.336 . S
C36 N34 1.335 . S
C36 N35 1.345 . S
C36 H41 0.930 . S
C37 N34 1.390 . S
C37 C38 1.346 . S
C37 H42 0.930 . S
C38 N35 1.336 . S
C38 C37 1.346 . S
C38 H45 0.929 . S
C39 O29 1.282 . S
C39 O40 1.216 . S
O40 C39 1.216 . S
H41 C36 0.930 . S
H42 C37 0.930 . S
O43 Cu23 1.959 . S
O43 C30 1.251 . S
H44 C27 0.930 . S
H45 C38 0.929 . S
Cu46 N47 1.999 1_545 S
Cu46 O52 1.974 . S
Cu46 N57 1.985 . S
Cu46 O66 1.959 1_545 S
N47 Cu46 1.999 1_565 S
N47 C49 1.263 . S
N47 C51 1.389 1_554 S
N48 C49 1.358 . S
N48 C50 1.400 1_554 S
C49 N47 1.263 . S
C49 N48 1.358 . S
C49 H55 0.930 . S
C50 N48 1.400 1_556 S
C50 C51 1.351 . S
C50 H67 0.930 . S
C51 N47 1.389 1_556 S
C51 C50 1.351 . S
C51 H56 0.930 . S
O52 Cu46 1.974 . S
O52 C62 1.282 . S
C53 O54 1.261 . S
C53 O66 1.251 . S
O54 C53 1.261 . S
H55 C49 0.930 . S
H56 C51 0.930 . S
N57 Cu46 1.985 . S
N57 C59 1.335 . S
N57 C60 1.390 . S
N58 C59 1.345 . S
N58 C61 1.336 . S
C59 N57 1.335 . S
C59 N58 1.345 . S
C59 H64 0.930 . S
C60 N57 1.390 . S
C60 C61 1.346 . S
C60 H65 0.930 . S
C61 N58 1.336 . S
C61 C60 1.346 . S
C61 H68 0.929 . S
C62 O52 1.282 . S
C62 O63 1.216 . S
O63 C62 1.216 . S
H64 C59 0.930 . S
H65 C60 0.930 . S
O66 Cu46 1.959 1_565 S
O66 C53 1.251 . S
H67 C50 0.930 . S
H68 C61 0.929 . S
Cu69 N70 1.999 . S
Cu69 O75 1.974 . S
Cu69 N80 1.985 . S
Cu69 O89 1.959 . S
N70 Cu69 1.999 . S
N70 C72 1.263 . S
N70 C74 1.389 . S
N71 C72 1.358 . S
N71 C73 1.400 . S
C72 N70 1.263 . S
C72 N71 1.358 . S
C72 H78 0.930 . S
C73 N71 1.400 . S
C73 C74 1.351 . S
C73 H90 0.930 . S
C74 N70 1.389 . S
C74 C73 1.351 . S
C74 H79 0.930 . S
O75 Cu69 1.974 . S
O75 C85 1.282 . S
C76 O77 1.261 . S
C76 O89 1.251 . S
O77 C76 1.261 . S
H78 C72 0.930 . S
H79 C74 0.930 . S
N80 Cu69 1.985 . S
N80 C82 1.335 . S
N80 C83 1.390 . S
N81 C82 1.345 . S
N81 C84 1.336 . S
C82 N80 1.335 . S
C82 N81 1.345 . S
C82 H87 0.930 . S
C83 N80 1.390 . S
C83 C84 1.346 . S
C83 H88 0.930 . S
C84 N81 1.336 . S
C84 C83 1.346 . S
C84 H91 0.929 . S
C85 O75 1.282 . S
C85 O86 1.216 . S
O86 C85 1.216 . S
H87 C82 0.930 . S
H88 C83 0.930 . S
O89 Cu69 1.959 . S
O89 C76 1.251 . S
H90 C73 0.930 . S
H91 C84 0.929 . S
Cu92 N93 1.999 . S
Cu92 O98 1.974 . S
Cu92 N103 1.985 . S
Cu92 O112 1.959 . S
N93 Cu92 1.999 . S
N93 C95 1.263 . S
N93 C97 1.389 . S
N94 C95 1.358 . S
N94 C96 1.400 . S
C95 N93 1.263 . S
C95 N94 1.358 . S
C95 H101 0.930 . S
C96 N94 1.400 . S
C96 C97 1.351 . S
C96 H113 0.930 . S
C97 N93 1.389 . S
C97 C96 1.351 . S
C97 H102 0.930 . S
O98 Cu92 1.974 . S
O98 C108 1.282 . S
C99 O100 1.261 . S
C99 O112 1.251 . S
O100 C99 1.261 . S
H101 C95 0.930 . S
H102 C97 0.930 . S
N103 Cu92 1.985 . S
N103 C105 1.335 . S
N103 C106 1.390 . S
N104 C105 1.345 . S
N104 C107 1.336 . S
C105 N103 1.335 . S
C105 N104 1.345 . S
C105 H110 0.930 . S
C106 N103 1.390 . S
C106 C107 1.346 . S
C106 H111 0.930 . S
C107 N104 1.336 . S
C107 C106 1.346 . S
C107 H114 0.929 . S
C108 O98 1.282 . S
C108 O109 1.216 . S
O109 C108 1.216 . S
H110 C105 0.930 . S
H111 C106 0.930 . S
O112 Cu92 1.959 . S
O112 C99 1.251 . S
H113 C96 0.930 . S
H114 C107 0.929 . S
Cu115 N116 1.999 . S
Cu115 O121 1.974 . S
Cu115 N126 1.985 . S
Cu115 O135 1.959 . S
N116 Cu115 1.999 . S
N116 C118 1.263 . S
N116 C120 1.389 . S
N117 C118 1.358 . S
N117 C119 1.400 . S
C118 N116 1.263 . S
C118 N117 1.358 . S
C118 H124 0.930 . S
C119 N117 1.400 . S
C119 C120 1.351 . S
C119 H136 0.930 . S
C120 N116 1.389 . S
C120 C119 1.351 . S
C120 H125 0.930 . S
O121 Cu115 1.974 . S
O121 C131 1.282 . S
C122 O123 1.261 . S
C122 O135 1.251 . S
O123 C122 1.261 . S
H124 C118 0.930 . S
H125 C120 0.930 . S
N126 Cu115 1.985 . S
N126 C128 1.335 . S
N126 C129 1.390 . S
N127 C128 1.345 . S
N127 C130 1.336 . S
C128 N126 1.335 . S
C128 N127 1.345 . S
C128 H133 0.930 . S
C129 N126 1.390 . S
C129 C130 1.346 . S
C129 H134 0.930 . S
C130 N127 1.336 . S
C130 C129 1.346 . S
C130 H137 0.929 . S
C131 O121 1.282 . S
C131 O132 1.216 . S
O132 C131 1.216 . S
H133 C128 0.930 . S
H134 C129 0.930 . S
O135 Cu115 1.959 . S
O135 C122 1.251 . S
H136 C119 0.930 . S
H137 C130 0.929 . S
Cu138 N139 1.999 . S
Cu138 O144 1.974 . S
Cu138 N149 1.985 . S
Cu138 O158 1.959 . S
N139 Cu138 1.999 . S
N139 C141 1.263 . S
N139 C143 1.389 . S
N140 C141 1.358 . S
N140 C142 1.400 . S
C141 N139 1.263 . S
C141 N140 1.358 . S
C141 H147 0.930 . S
C142 N140 1.400 . S
C142 C143 1.351 . S
C142 H159 0.930 . S
C143 N139 1.389 . S
C143 C142 1.351 . S
C143 H148 0.930 . S
O144 Cu138 1.974 . S
O144 C154 1.282 . S
C145 O146 1.261 . S
C145 O158 1.251 . S
O146 C145 1.261 . S
H147 C141 0.930 . S
H148 C143 0.930 . S
N149 Cu138 1.985 . S
N149 C151 1.335 . S
N149 C152 1.390 . S
N150 C151 1.345 . S
N150 C153 1.336 . S
C151 N149 1.335 . S
C151 N150 1.345 . S
C151 H156 0.930 . S
C152 N149 1.390 . S
C152 C153 1.346 . S
C152 H157 0.930 . S
C153 N150 1.336 . S
C153 C152 1.346 . S
C153 H160 0.929 . S
C154 O144 1.282 . S
C154 O155 1.216 . S
O155 C154 1.216 . S
H156 C151 0.930 . S
H157 C152 0.930 . S
O158 Cu138 1.959 . S
O158 C145 1.251 . S
H159 C142 0.930 . S
H160 C153 0.929 . S
Cu161 N162 1.999 . S
Cu161 O167 1.974 . S
Cu161 N172 1.985 . S
Cu161 O181 1.959 . S
N162 Cu161 1.999 . S
N162 C164 1.263 . S
N162 C166 1.389 . S
N163 C164 1.358 . S
N163 C165 1.400 . S
C164 N162 1.263 . S
C164 N163 1.358 . S
C164 H170 0.930 . S
C165 N163 1.400 . S
C165 C166 1.351 . S
C165 H182 0.930 . S
C166 N162 1.389 . S
C166 C165 1.351 . S
C166 H171 0.930 . S
O167 Cu161 1.974 . S
O167 C177 1.282 . S
C168 O169 1.261 . S
C168 O181 1.251 . S
O169 C168 1.261 . S
H170 C164 0.930 . S
H171 C166 0.930 . S
N172 Cu161 1.985 . S
N172 C174 1.335 . S
N172 C175 1.390 . S
N173 C174 1.345 . S
N173 C176 1.336 . S
C174 N172 1.335 . S
C174 N173 1.345 . S
C174 H179 0.930 . S
C175 N172 1.390 . S
C175 C176 1.346 . S
C175 H180 0.930 . S
C176 N173 1.336 . S
C176 C175 1.346 . S
C176 H183 0.929 . S
C177 O167 1.282 . S
C177 O178 1.216 . S
O178 C177 1.216 . S
H179 C174 0.930 . S
H180 C175 0.930 . S
O181 Cu161 1.959 . S
O181 C168 1.251 . S
H182 C165 0.930 . S
H183 C176 0.929 . S
Cu184 N185 1.999 . S
Cu184 O190 1.974 . S
Cu184 N195 1.985 . S
Cu184 O204 1.959 . S
N185 Cu184 1.999 . S
N185 C187 1.263 . S
N185 C189 1.389 . S
N186 C187 1.358 . S
N186 C188 1.400 . S
C187 N185 1.263 . S
C187 N186 1.358 . S
C187 H193 0.930 . S
C188 N186 1.400 . S
C188 C189 1.351 . S
C188 H205 0.930 . S
C189 N185 1.389 . S
C189 C188 1.351 . S
C189 H194 0.930 . S
O190 Cu184 1.974 . S
O190 C200 1.282 . S
C191 O192 1.261 . S
C191 O204 1.251 . S
O192 C191 1.261 . S
H193 C187 0.930 . S
H194 C189 0.930 . S
N195 Cu184 1.985 . S
N195 C197 1.335 . S
N195 C198 1.390 . S
N196 C197 1.345 . S
N196 C199 1.336 . S
C197 N195 1.335 . S
C197 N196 1.345 . S
C197 H202 0.930 . S
C198 N195 1.390 . S
C198 C199 1.346 . S
C198 H203 0.930 . S
C199 N196 1.336 . S
C199 C198 1.346 . S
C199 H206 0.929 . S
C200 O190 1.282 . S
C200 O201 1.216 . S
O201 C200 1.216 . S
H202 C197 0.930 . S
H203 C198 0.930 . S
O204 Cu184 1.959 . S
O204 C191 1.251 . S
H205 C188 0.930 . S
H206 C199 0.929 . S
H207 C225 0.951 . S
H208 C227 0.951 . S
H209 C229 0.950 . S
H210 C230 0.950 . S
H211 C232 0.950 . S
H212 C235 0.950 . S
H213 C236 0.950 . S
H214 C238 0.950 . S
H215 C239 0.950 . S
H216 C240 0.951 . S
H217 C242 0.951 . S
H218 C244 0.950 . S
H219 C245 0.950 . S
H220 C247 0.950 . S
H221 C250 0.950 . S
H222 C251 0.950 . S
H223 C253 0.950 . S
H224 C254 0.950 . S
C225 H207 0.951 . S
C225 C226 1.366 . S
C225 C227 1.388 . S
C226 C225 1.366 . S
C226 C230 1.385 . S
C227 H208 0.951 . S
C227 C225 1.388 . S
C227 C228 1.366 . S
C228 C227 1.366 . S
C228 C229 1.414 . S
C228 C231 1.499 . S
C229 H209 0.950 . S
C229 C228 1.414 . S
C229 C230 1.374 . S
C230 H210 0.950 . S
C230 C226 1.385 . S
C230 C229 1.374 . S
C231 C228 1.499 . S
C231 C232 1.373 . S
C231 C233 1.389 . S
C232 H211 0.950 . S
C232 C231 1.373 . S
C232 C248 1.377 . S
C233 C231 1.389 . S
C233 C234 1.524 . S
C233 C247 1.377 . S
C234 C233 1.524 . S
C234 C235 1.397 . S
C234 C239 1.363 . S
C235 H212 0.950 . S
C235 C234 1.397 . S
C235 C236 1.334 . S
C236 H213 0.950 . S
C236 C235 1.334 . S
C236 C237 1.287 . S
C237 C236 1.287 . S
C237 C238 1.524 . S
C237 H256 0.913 . S
C238 H214 0.950 . S
C238 C237 1.524 . S
C238 C239 1.415 . S
C239 H215 0.950 . S
C239 C234 1.363 . S
C239 C238 1.415 . S
C240 H216 0.951 . S
C240 C241 1.366 . S
C240 C242 1.388 . S
C241 C240 1.366 . S
C241 C245 1.385 . S
C242 H217 0.951 . S
C242 C240 1.388 . S
C242 C243 1.366 . S
C243 C242 1.366 . S
C243 C244 1.414 . S
C243 C246 1.499 . S
C244 H218 0.950 . S
C244 C243 1.414 . S
C244 C245 1.374 . S
C245 H219 0.950 . S
C245 C241 1.385 . S
C245 C244 1.374 . S
C246 C243 1.499 . S
C246 C247 1.373 . S
C246 C248 1.389 . S
C247 H220 0.950 . S
C247 C233 1.377 . S
C247 C246 1.373 . S
C248 C232 1.377 . S
C248 C246 1.389 . S
C248 C249 1.524 1_554 S
C249 C248 1.524 1_556 S
C249 C250 1.397 . S
C249 C254 1.363 1_556 S
C250 H221 0.950 . S
C250 C249 1.397 . S
C250 C251 1.334 . S
C251 H222 0.950 . S
C251 C250 1.334 . S
C251 C252 1.287 . S
C252 C251 1.287 . S
C252 C253 1.524 . S
C252 H255 0.999 . S
C253 H223 0.950 . S
C253 C252 1.524 . S
C253 C254 1.415 1_556 S
C254 H224 0.950 . S
C254 C249 1.363 1_554 S
C254 C253 1.415 1_554 S
H255 C252 0.999 . S
H256 C237 0.913 . S
H257 C275 0.951 . S
H258 C277 0.951 . S
H259 C279 0.950 1_556 S
H260 C280 0.950 . S
H261 C282 0.969 1_556 S
H262 C285 0.950 . S
H263 C286 0.950 . S
H264 C288 0.950 . S
H265 C289 0.950 1_545 S
H266 C290 0.951 . S
H267 C292 0.951 . S
H268 C294 0.950 . S
H269 C295 0.950 . S
H270 C297 0.950 . S
H271 C300 0.950 1_554 S
H272 C301 0.950 . S
H273 C303 0.950 . S
H274 C304 0.950 . S
C275 H257 0.951 . S
C275 C276 1.366 . S
C275 C277 1.388 . S
C276 C275 1.366 . S
C276 C280 1.385 1_554 S
C277 H258 0.951 . S
C277 C275 1.388 . S
C277 C278 1.366 . S
C278 C277 1.366 . S
C278 C279 1.414 . S
C278 C281 1.499 . S
C279 H259 0.950 1_554 S
C279 C278 1.414 . S
C279 C280 1.374 1_554 S
C280 H260 0.950 . S
C280 C276 1.385 1_556 S
C280 C279 1.374 1_556 S
C281 C278 1.499 . S
C281 C282 1.390 . S
C281 C283 1.361 1_565 S
C282 H261 0.969 1_554 S
C282 C281 1.390 . S
C282 C298 1.342 1_565 S
C283 C281 1.361 1_545 S
C283 C284 1.507 1_545 S
C283 C297 1.428 . S
C284 C283 1.507 1_565 S
C284 C285 1.397 . S
C284 C289 1.363 . S
C285 H262 0.950 . S
C285 C284 1.397 . S
C285 C286 1.334 . S
C286 H263 0.950 . S
C286 C285 1.334 . S
C286 C287 1.287 . S
C287 C286 1.287 . S
C287 C288 1.524 . S
C287 H306 0.913 . S
C288 H264 0.950 . S
C288 C287 1.524 . S
C288 C289 1.415 . S
C289 H265 0.950 1_565 S
C289 C284 1.363 . S
C289 C288 1.415 . S
C290 H266 0.951 . S
C290 C291 1.366 . S
C290 C292 1.388 . S
C291 C290 1.366 . S
C291 C295 1.385 . S
C292 H267 0.951 . S
C292 C290 1.388 . S
C292 C293 1.366 . S
C293 C292 1.366 . S
C293 C294 1.414 . S
C293 C296 1.499 . S
C294 H268 0.950 . S
C294 C293 1.414 . S
C294 C295 1.374 . S
C295 H269 0.950 . S
C295 C291 1.385 . S
C295 C294 1.374 . S
C296 C293 1.499 . S
C296 C297 1.373 . S
C296 C298 1.389 . S
C297 H270 0.950 . S
C297 C283 1.428 . S
C297 C296 1.373 . S
C298 C282 1.342 1_545 S
C298 C296 1.389 . S
C298 C299 1.524 1_554 S
C299 C298 1.524 1_556 S
C299 C300 1.397 . S
C299 C304 1.363 . S
C300 H271 0.950 1_556 S
C300 C299 1.397 . S
C300 C301 1.334 . S
C301 H272 0.950 . S
C301 C300 1.334 . S
C301 C302 1.287 . S
C302 C301 1.287 . S
C302 C303 1.524 . S
C302 H305 0.999 . S
C303 H273 0.950 . S
C303 C302 1.524 . S
C303 C304 1.415 . S
C304 H274 0.950 . S
C304 C299 1.363 . S
C304 C303 1.415 . S
H305 C302 0.999 . S
H306 C287 0.913 . S
H307 C325 0.951 . S
H308 C327 0.951 . S
H309 C329 0.950 . S
H310 C330 0.950 . S
H311 C332 0.978 . S
H312 C335 0.950 . S
H313 C336 0.950 . S
H314 C338 0.950 . S
H315 C339 0.950 . S
H316 C340 0.951 . S
H317 C342 0.951 . S
H318 C344 0.950 . S
H319 C345 0.950 . S
H320 C347 0.950 . S
H321 C350 0.950 . S
H322 C351 0.950 . S
H323 C353 0.950 . S
H324 C354 0.950 1_554 S
C325 H307 0.951 . S
C325 C326 1.366 . S
C325 C327 1.388 . S
C326 C325 1.366 . S
C326 C330 1.385 . S
C327 H308 0.951 . S
C327 C325 1.388 . S
C327 C328 1.366 . S
C328 C327 1.366 . S
C328 C329 1.414 . S
C328 C331 1.499 . S
C329 H309 0.950 . S
C329 C328 1.414 . S
C329 C330 1.374 . S
C330 H310 0.950 . S
C330 C326 1.385 . S
C330 C329 1.374 . S
C331 C328 1.499 . S
C331 C332 1.374 . S
C331 C333 1.389 1_655 S
C332 H311 0.978 . S
C332 C331 1.374 . S
C332 C348 1.349 1_655 S
C333 C331 1.389 1_455 S
C333 C334 1.524 . S
C333 C347 1.377 . S
C334 C333 1.524 . S
C334 C335 1.395 1_455 S
C334 C339 1.365 . S
C335 H312 0.950 . S
C335 C334 1.395 1_655 S
C335 C336 1.334 . S
C336 H313 0.950 . S
C336 C335 1.334 . S
C336 C337 1.287 . S
C337 C336 1.287 . S
C337 C338 1.524 1_655 S
C337 H356 0.913 . S
C338 H314 0.950 . S
C338 C337 1.524 1_455 S
C338 C339 1.415 . S
C339 H315 0.950 . S
C339 C334 1.365 . S
C339 C338 1.415 . S
C340 H316 0.951 . S
C340 C341 1.366 . S
C340 C342 1.388 . S
C341 C340 1.366 . S
C341 C345 1.385 . S
C342 H317 0.951 . S
C342 C340 1.388 . S
C342 C343 1.366 . S
C343 C342 1.366 . S
C343 C344 1.414 . S
C343 C346 1.499 . S
C344 H318 0.950 . S
C344 C343 1.414 . S
C344 C345 1.374 . S
C345 H319 0.950 . S
C345 C341 1.385 . S
C345 C344 1.374 . S
C346 C343 1.499 . S
C346 C347 1.373 . S
C346 C348 1.389 . S
C347 H320 0.950 . S
C347 C333 1.377 . S
C347 C346 1.373 . S
C348 C332 1.349 1_455 S
C348 C346 1.389 . S
C348 C349 1.524 1_554 S
C349 C348 1.524 1_556 S
C349 C350 1.397 . S
C349 C354 1.363 . S
C350 H321 0.950 . S
C350 C349 1.397 . S
C350 C351 1.334 . S
C351 H322 0.950 . S
C351 C350 1.334 . S
C351 C352 1.287 . S
C352 C351 1.287 . S
C352 C353 1.524 . S
C352 H355 0.999 . S
C353 H323 0.950 . S
C353 C352 1.524 . S
C353 C354 1.415 . S
C354 H324 0.950 1_556 S
C354 C349 1.363 . S
C354 C353 1.415 . S
H355 C352 0.999 . S
H356 C337 0.913 . S
H357 C375 0.951 . S
H358 C377 0.951 . S
H359 C379 0.950 . S
H360 C380 0.950 . S
H361 C382 0.950 . S
H362 C385 0.950 . S
H363 C386 0.950 . S
H364 C388 0.950 . S
H365 C389 0.950 . S
H366 C390 0.951 . S
H367 C392 0.951 . S
H368 C394 0.950 . S
H369 C395 0.950 . S
H370 C397 0.950 . S
H371 C400 0.950 . S
H372 C401 0.950 . S
H373 C403 0.950 . S
H374 C404 0.950 . S
C375 H357 0.951 . S
C375 C376 1.366 . S
C375 C377 1.388 . S
C376 C375 1.366 . S
C376 C380 1.385 . S
C377 H358 0.951 . S
C377 C375 1.388 . S
C377 C378 1.366 . S
C378 C377 1.366 . S
C378 C379 1.414 . S
C378 C381 1.499 . S
C379 H359 0.950 . S
C379 C378 1.414 . S
C379 C380 1.374 . S
C380 H360 0.950 . S
C380 C376 1.385 . S
C380 C379 1.374 . S
C381 C378 1.499 . S
C381 C382 1.373 . S
C381 C383 1.389 . S
C382 H361 0.950 . S
C382 C381 1.373 . S
C382 C398 1.377 . S
C383 C381 1.389 . S
C383 C384 1.524 . S
C383 C397 1.377 . S
C384 C383 1.524 . S
C384 C385 1.397 . S
C384 C389 1.363 . S
C385 H362 0.950 . S
C385 C384 1.397 . S
C385 C386 1.334 . S
C386 H363 0.950 . S
C386 C385 1.334 . S
C386 C387 1.287 . S
C387 C386 1.287 . S
C387 C388 1.524 . S
C387 H406 0.913 . S
C388 H364 0.950 . S
C388 C387 1.524 . S
C388 C389 1.415 . S
C389 H365 0.950 . S
C389 C384 1.363 . S
C389 C388 1.415 . S
C390 H366 0.951 . S
C390 C391 1.366 . S
C390 C392 1.388 . S
C391 C390 1.366 . S
C391 C395 1.385 . S
C392 H367 0.951 . S
C392 C390 1.388 . S
C392 C393 1.366 . S
C393 C392 1.366 . S
C393 C394 1.414 . S
C393 C396 1.499 . S
C394 H368 0.950 . S
C394 C393 1.414 . S
C394 C395 1.374 . S
C395 H369 0.950 . S
C395 C391 1.385 . S
C395 C394 1.374 . S
C396 C393 1.499 . S
C396 C397 1.373 . S
C396 C398 1.389 . S
C397 H370 0.950 . S
C397 C383 1.377 . S
C397 C396 1.373 . S
C398 C382 1.377 . S
C398 C396 1.389 . S
C398 C399 1.524 . S
C399 C398 1.524 . S
C399 C400 1.397 . S
C399 C404 1.363 . S
C400 H371 0.950 . S
C400 C399 1.397 . S
C400 C401 1.334 . S
C401 H372 0.950 . S
C401 C400 1.334 . S
C401 C402 1.287 . S
C402 C401 1.287 . S
C402 C403 1.524 . S
C402 H405 0.999 . S
C403 H373 0.950 . S
C403 C402 1.524 . S
C403 C404 1.415 . S
C404 H374 0.950 . S
C404 C399 1.363 . S
C404 C403 1.415 . S
H405 C402 0.999 . S
H406 C387 0.913 . S
H407 C425 0.951 . S
H408 C427 0.951 . S
H409 C429 0.950 . S
H410 C430 0.950 . S
H411 C432 0.950 . S
H412 C435 0.950 . S
H413 C436 0.950 . S
H414 C438 0.950 . S
H415 C439 0.950 . S
H416 C440 0.951 . S
H417 C442 0.951 . S
H418 C444 0.950 . S
H419 C445 0.950 . S
H420 C447 0.950 . S
H421 C450 0.950 . S
H422 C451 0.950 . S
H423 C453 0.950 . S
H424 C454 0.950 . S
C425 H407 0.951 . S
C425 C426 1.366 . S
C425 C427 1.388 . S
C426 C425 1.366 . S
C426 C430 1.385 . S
C427 H408 0.951 . S
C427 C425 1.388 . S
C427 C428 1.366 . S
C428 C427 1.366 . S
C428 C429 1.414 . S
C428 C431 1.499 . S
C429 H409 0.950 . S
C429 C428 1.414 . S
C429 C430 1.374 . S
C430 H410 0.950 . S
C430 C426 1.385 . S
C430 C429 1.374 . S
C431 C428 1.499 . S
C431 C432 1.373 . S
C431 C433 1.389 . S
C432 H411 0.950 . S
C432 C431 1.373 . S
C432 C448 1.377 . S
C433 C431 1.389 . S
C433 C434 1.524 . S
C433 C447 1.377 . S
C434 C433 1.524 . S
C434 C435 1.397 . S
C434 C439 1.363 . S
C435 H412 0.950 . S
C435 C434 1.397 . S
C435 C436 1.334 . S
C436 H413 0.950 . S
C436 C435 1.334 . S
C436 C437 1.287 . S
C437 C436 1.287 . S
C437 C438 1.524 . S
C437 H456 0.913 . S
C438 H414 0.950 . S
C438 C437 1.524 . S
C438 C439 1.415 . S
C439 H415 0.950 . S
C439 C434 1.363 . S
C439 C438 1.415 . S
C440 H416 0.951 . S
C440 C441 1.366 . S
C440 C442 1.388 . S
C441 C440 1.366 . S
C441 C445 1.385 . S
C442 H417 0.951 . S
C442 C440 1.388 . S
C442 C443 1.366 . S
C443 C442 1.366 . S
C443 C444 1.414 . S
C443 C446 1.499 . S
C444 H418 0.950 . S
C444 C443 1.414 . S
C444 C445 1.374 . S
C445 H419 0.950 . S
C445 C441 1.385 . S
C445 C444 1.374 . S
C446 C443 1.499 . S
C446 C447 1.373 . S
C446 C448 1.389 . S
C447 H420 0.950 . S
C447 C433 1.377 . S
C447 C446 1.373 . S
C448 C432 1.377 . S
C448 C446 1.389 . S
C448 C449 1.524 . S
C449 C448 1.524 . S
C449 C450 1.397 . S
C449 C454 1.363 . S
C450 H421 0.950 . S
C450 C449 1.397 . S
C450 C451 1.334 . S
C451 H422 0.950 . S
C451 C450 1.334 . S
C451 C452 1.287 . S
C452 C451 1.287 . S
C452 C453 1.524 . S
C452 H455 0.999 . S
C453 H423 0.950 . S
C453 C452 1.524 . S
C453 C454 1.415 . S
C454 H424 0.950 . S
C454 C449 1.363 . S
C454 C453 1.415 . S
H455 C452 0.999 . S
H456 C437 0.913 . S
H457 C475 0.951 . S
H458 C477 0.951 . S
H459 C479 0.950 . S
H460 C480 0.950 . S
H461 C482 0.950 . S
H462 C485 0.950 . S
H463 C486 0.950 . S
H464 C488 0.950 . S
H465 C489 0.950 . S
H466 C490 0.951 . S
H467 C492 0.951 . S
H468 C494 0.950 . S
H469 C495 0.950 . S
H470 C497 0.950 . S
H471 C500 0.950 . S
H472 C501 0.950 . S
H473 C503 0.950 . S
H474 C504 0.950 . S
C475 H457 0.951 . S
C475 C476 1.366 . S
C475 C477 1.388 . S
C476 C475 1.366 . S
C476 C480 1.385 . S
C477 H458 0.951 . S
C477 C475 1.388 . S
C477 C478 1.366 . S
C478 C477 1.366 . S
C478 C479 1.414 . S
C478 C481 1.499 . S
C479 H459 0.950 . S
C479 C478 1.414 . S
C479 C480 1.374 . S
C480 H460 0.950 . S
C480 C476 1.385 . S
C480 C479 1.374 . S
C481 C478 1.499 . S
C481 C482 1.373 . S
C481 C483 1.389 . S
C482 H461 0.950 . S
C482 C481 1.373 . S
C482 C498 1.377 . S
C483 C481 1.389 . S
C483 C484 1.524 . S
C483 C497 1.377 . S
C484 C483 1.524 . S
C484 C485 1.397 . S
C484 C489 1.363 . S
C485 H462 0.950 . S
C485 C484 1.397 . S
C485 C486 1.334 . S
C486 H463 0.950 . S
C486 C485 1.334 . S
C486 C487 1.287 . S
C487 C486 1.287 . S
C487 C488 1.524 . S
C487 H506 0.913 . S
C488 H464 0.950 . S
C488 C487 1.524 . S
C488 C489 1.415 . S
C489 H465 0.950 . S
C489 C484 1.363 . S
C489 C488 1.415 . S
C490 H466 0.951 . S
C490 C491 1.366 . S
C490 C492 1.388 . S
C491 C490 1.366 . S
C491 C495 1.385 . S
C492 H467 0.951 . S
C492 C490 1.388 . S
C492 C493 1.366 . S
C493 C492 1.366 . S
C493 C494 1.414 . S
C493 C496 1.499 . S
C494 H468 0.950 . S
C494 C493 1.414 . S
C494 C495 1.374 . S
C495 H469 0.950 . S
C495 C491 1.385 . S
C495 C494 1.374 . S
C496 C493 1.499 . S
C496 C497 1.373 . S
C496 C498 1.389 . S
C497 H470 0.950 . S
C497 C483 1.377 . S
C497 C496 1.373 . S
C498 C482 1.377 . S
C498 C496 1.389 . S
C498 C499 1.524 . S
C499 C498 1.524 . S
C499 C500 1.397 . S
C499 C504 1.363 . S
C500 H471 0.950 . S
C500 C499 1.397 . S
C500 C501 1.334 . S
C501 H472 0.950 . S
C501 C500 1.334 . S
C501 C502 1.287 . S
C502 C501 1.287 . S
C502 C503 1.524 . S
C502 H505 0.999 . S
C503 H473 0.950 . S
C503 C502 1.524 . S
C503 C504 1.415 . S
C504 H474 0.950 . S
C504 C499 1.363 . S
C504 C503 1.415 . S
H505 C502 0.999 . S
H506 C487 0.913 . S
H507 C525 0.951 . S
H508 C527 0.951 . S
H509 C529 0.950 . S
H510 C530 0.950 . S
H511 C532 0.950 . S
H512 C535 0.950 . S
H513 C536 0.950 . S
H514 C538 0.950 . S
H515 C539 0.950 . S
H516 C540 0.951 . S
H517 C542 0.951 . S
H518 C544 0.950 . S
H519 C545 0.950 . S
H520 C547 0.950 . S
H521 C550 0.950 . S
H522 C551 0.950 . S
H523 C553 0.950 . S
H524 C554 0.950 . S
C525 H507 0.951 . S
C525 C526 1.366 . S
C525 C527 1.388 . S
C526 C525 1.366 . S
C526 C530 1.385 . S
C527 H508 0.951 . S
C527 C525 1.388 . S
C527 C528 1.366 . S
C528 C527 1.366 . S
C528 C529 1.414 . S
C528 C531 1.499 . S
C529 H509 0.950 . S
C529 C528 1.414 . S
C529 C530 1.374 . S
C530 H510 0.950 . S
C530 C526 1.385 . S
C530 C529 1.374 . S
C531 C528 1.499 . S
C531 C532 1.373 . S
C531 C533 1.389 . S
C532 H511 0.950 . S
C532 C531 1.373 . S
C532 C548 1.377 . S
C533 C531 1.389 . S
C533 C534 1.524 . S
C533 C547 1.377 . S
C534 C533 1.524 . S
C534 C535 1.397 . S
C534 C539 1.363 . S
C535 H512 0.950 . S
C535 C534 1.397 . S
C535 C536 1.334 . S
C536 H513 0.950 . S
C536 C535 1.334 . S
C536 C537 1.287 . S
C537 C536 1.287 . S
C537 C538 1.524 . S
C537 H556 0.913 . S
C538 H514 0.950 . S
C538 C537 1.524 . S
C538 C539 1.415 . S
C539 H515 0.950 . S
C539 C534 1.363 . S
C539 C538 1.415 . S
C540 H516 0.951 . S
C540 C541 1.366 . S
C540 C542 1.388 . S
C541 C540 1.366 . S
C541 C545 1.385 . S
C542 H517 0.951 . S
C542 C540 1.388 . S
C542 C543 1.366 . S
C543 C542 1.366 . S
C543 C544 1.414 . S
C543 C546 1.499 . S
C544 H518 0.950 . S
C544 C543 1.414 . S
C544 C545 1.374 . S
C545 H519 0.950 . S
C545 C541 1.385 . S
C545 C544 1.374 . S
C546 C543 1.499 . S
C546 C547 1.373 . S
C546 C548 1.389 . S
C547 H520 0.950 . S
C547 C533 1.377 . S
C547 C546 1.373 . S
C548 C532 1.377 . S
C548 C546 1.389 . S
C548 C549 1.524 . S
C549 C548 1.524 . S
C549 C550 1.397 . S
C549 C554 1.363 . S
C550 H521 0.950 . S
C550 C549 1.397 . S
C550 C551 1.334 . S
C551 H522 0.950 . S
C551 C550 1.334 . S
C551 C552 1.287 . S
C552 C551 1.287 . S
C552 C553 1.524 . S
C552 H555 0.999 . S
C553 H523 0.950 . S
C553 C552 1.524 . S
C553 C554 1.415 . S
C554 H524 0.950 . S
C554 C549 1.363 . S
C554 C553 1.415 . S
H555 C552 0.999 . S
H556 C537 0.913 . S
H557 C575 0.951 . S
H558 C577 0.951 . S
H559 C579 0.950 . S
H560 C580 0.950 . S
H561 C582 0.950 . S
H562 C585 0.950 . S
H563 C586 0.950 . S
H564 C588 0.950 . S
H565 C589 0.950 . S
H566 C590 0.951 . S
H567 C592 0.951 . S
H568 C594 0.950 . S
H569 C595 0.950 . S
H570 C597 0.950 . S
H571 C600 0.950 . S
H572 C601 0.950 . S
H573 C603 0.950 . S
H574 C604 0.950 . S
C575 H557 0.951 . S
C575 C576 1.366 . S
C575 C577 1.388 . S
C576 C575 1.366 . S
C576 C580 1.385 . S
C577 H558 0.951 . S
C577 C575 1.388 . S
C577 C578 1.366 . S
C578 C577 1.366 . S
C578 C579 1.414 . S
C578 C581 1.499 . S
C579 H559 0.950 . S
C579 C578 1.414 . S
C579 C580 1.374 . S
C580 H560 0.950 . S
C580 C576 1.385 . S
C580 C579 1.374 . S
C581 C578 1.499 . S
C581 C582 1.373 . S
C581 C583 1.389 . S
C582 H561 0.950 . S
C582 C581 1.373 . S
C582 C598 1.377 . S
C583 C581 1.389 . S
C583 C584 1.524 . S
C583 C597 1.377 . S
C584 C583 1.524 . S
C584 C585 1.397 . S
C584 C589 1.363 . S
C585 H562 0.950 . S
C585 C584 1.397 . S
C585 C586 1.334 . S
C586 H563 0.950 . S
C586 C585 1.334 . S
C586 C587 1.287 . S
C587 C586 1.287 . S
C587 C588 1.524 . S
C587 H606 0.913 . S
C588 H564 0.950 . S
C588 C587 1.524 . S
C588 C589 1.415 . S
C589 H565 0.950 . S
C589 C584 1.363 . S
C589 C588 1.415 . S
C590 H566 0.951 . S
C590 C591 1.366 . S
C590 C592 1.388 . S
C591 C590 1.366 . S
C591 C595 1.385 . S
C592 H567 0.951 . S
C592 C590 1.388 . S
C592 C593 1.366 . S
C593 C592 1.366 . S
C593 C594 1.414 . S
C593 C596 1.499 . S
C594 H568 0.950 . S
C594 C593 1.414 . S
C594 C595 1.374 . S
C595 H569 0.950 . S
C595 C591 1.385 . S
C595 C594 1.374 . S
C596 C593 1.499 . S
C596 C597 1.373 . S
C596 C598 1.389 . S
C597 H570 0.950 . S
C597 C583 1.377 . S
C597 C596 1.373 . S
C598 C582 1.377 . S
C598 C596 1.389 . S
C598 C599 1.524 . S
C599 C598 1.524 . S
C599 C600 1.397 . S
C599 C604 1.363 . S
C600 H571 0.950 . S
C600 C599 1.397 . S
C600 C601 1.334 . S
C601 H572 0.950 . S
C601 C600 1.334 . S
C601 C602 1.287 . S
C602 C601 1.287 . S
C602 C603 1.524 . S
C602 H605 0.999 . S
C603 H573 0.950 . S
C603 C602 1.524 . S
C603 C604 1.415 . S
C604 H574 0.950 . S
C604 C599 1.363 . S
C604 C603 1.415 . S
H605 C602 0.999 . S
H606 C587 0.913 . S
H607 C625 0.951 . S
H608 C627 0.951 . S
H609 C629 0.950 . S
H610 C630 0.950 . S
H611 C632 0.950 . S
H612 C635 0.950 . S
H613 C636 0.950 . S
H614 C638 0.950 . S
H615 C639 0.950 . S
H616 C640 0.951 . S
H617 C642 0.951 . S
H618 C644 0.950 . S
H619 C645 0.950 . S
H620 C647 0.950 . S
H621 C650 0.950 . S
H622 C651 0.950 . S
H623 C653 0.950 . S
H624 C654 0.950 . S
C625 H607 0.951 . S
C625 C626 1.366 . S
C625 C627 1.388 . S
C626 C625 1.366 . S
C626 C630 1.385 . S
C627 H608 0.951 . S
C627 C625 1.388 . S
C627 C628 1.366 . S
C628 C627 1.366 . S
C628 C629 1.414 . S
C628 C631 1.499 . S
C629 H609 0.950 . S
C629 C628 1.414 . S
C629 C630 1.374 . S
C630 H610 0.950 . S
C630 C626 1.385 . S
C630 C629 1.374 . S
C631 C628 1.499 . S
C631 C632 1.373 . S
C631 C633 1.389 . S
C632 H611 0.950 . S
C632 C631 1.373 . S
C632 C648 1.377 . S
C633 C631 1.389 . S
C633 C634 1.524 . S
C633 C647 1.377 . S
C634 C633 1.524 . S
C634 C635 1.397 . S
C634 C639 1.363 . S
C635 H612 0.950 . S
C635 C634 1.397 . S
C635 C636 1.334 . S
C636 H613 0.950 . S
C636 C635 1.334 . S
C636 C637 1.287 . S
C637 C636 1.287 . S
C637 C638 1.524 . S
C637 H656 0.913 . S
C638 H614 0.950 . S
C638 C637 1.524 . S
C638 C639 1.415 . S
C639 H615 0.950 . S
C639 C634 1.363 . S
C639 C638 1.415 . S
C640 H616 0.951 . S
C640 C641 1.366 . S
C640 C642 1.388 . S
C641 C640 1.366 . S
C641 C645 1.385 . S
C642 H617 0.951 . S
C642 C640 1.388 . S
C642 C643 1.366 . S
C643 C642 1.366 . S
C643 C644 1.414 . S
C643 C646 1.499 . S
C644 H618 0.950 . S
C644 C643 1.414 . S
C644 C645 1.374 . S
C645 H619 0.950 . S
C645 C641 1.385 . S
C645 C644 1.374 . S
C646 C643 1.499 . S
C646 C647 1.373 . S
C646 C648 1.389 . S
C647 H620 0.950 . S
C647 C633 1.377 . S
C647 C646 1.373 . S
C648 C632 1.377 . S
C648 C646 1.389 . S
C648 C649 1.524 . S
C649 C648 1.524 . S
C649 C650 1.397 . S
C649 C654 1.363 . S
C650 H621 0.950 . S
C650 C649 1.397 . S
C650 C651 1.334 . S
C651 H622 0.950 . S
C651 C650 1.334 . S
C651 C652 1.287 . S
C652 C651 1.287 . S
C652 C653 1.524 . S
C652 H655 0.999 . S
C653 H623 0.950 . S
C653 C652 1.524 . S
C653 C654 1.415 . S
C654 H624 0.950 . S
C654 C649 1.363 . S
C654 C653 1.415 . S
H655 C652 0.999 . S
H656 C637 0.913 . S
H657 C675 0.951 . S
H658 C677 0.951 . S
H659 C679 0.950 . S
H660 C680 0.950 1_554 S
H661 C682 0.950 . S
H662 C685 0.950 . S
H663 C686 0.950 . S
H664 C688 0.950 . S
H665 C689 0.950 . S
H666 C690 0.951 . S
H667 C692 0.951 . S
H668 C694 0.950 . S
H669 C695 0.950 . S
H670 C697 0.950 . S
H671 C700 0.950 . S
H672 C701 0.950 . S
H673 C703 0.950 . S
H674 C704 0.950 . S
C675 H657 0.951 . S
C675 C676 1.366 . S
C675 C677 1.388 . S
C676 C675 1.366 . S
C676 C680 1.385 . S
C677 H658 0.951 . S
C677 C675 1.388 . S
C677 C678 1.366 . S
C678 C677 1.366 . S
C678 C679 1.414 . S
C678 C681 1.499 . S
C679 H659 0.950 . S
C679 C678 1.414 . S
C679 C680 1.374 . S
C680 H660 0.950 1_556 S
C680 C676 1.385 . S
C680 C679 1.374 . S
C681 C678 1.499 . S
C681 C682 1.373 . S
C681 C683 1.389 . S
C682 H661 0.950 . S
C682 C681 1.373 . S
C682 C698 1.377 . S
C683 C681 1.389 . S
C683 C684 1.524 . S
C683 C697 1.377 . S
C684 C683 1.524 . S
C684 C685 1.397 1_556 S
C684 C689 1.363 . S
C685 H662 0.950 . S
C685 C684 1.397 1_554 S
C685 C686 1.334 . S
C686 H663 0.950 . S
C686 C685 1.334 . S
C686 C687 1.287 . S
C687 C686 1.287 . S
C687 C688 1.524 1_554 S
C687 H706 0.913 . S
C688 H664 0.950 . S
C688 C687 1.524 1_556 S
C688 C689 1.415 . S
C689 H665 0.950 . S
C689 C684 1.363 . S
C689 C688 1.415 . S
C690 H666 0.951 . S
C690 C691 1.366 . S
C690 C692 1.388 . S
C691 C690 1.366 . S
C691 C695 1.385 . S
C692 H667 0.951 . S
C692 C690 1.388 . S
C692 C693 1.366 . S
C693 C692 1.366 . S
C693 C694 1.414 . S
C693 C696 1.499 . S
C694 H668 0.950 . S
C694 C693 1.414 . S
C694 C695 1.374 . S
C695 H669 0.950 . S
C695 C691 1.385 . S
C695 C694 1.374 . S
C696 C693 1.499 . S
C696 C697 1.373 . S
C696 C698 1.389 . S
C697 H670 0.950 . S
C697 C683 1.377 . S
C697 C696 1.373 . S
C698 C682 1.377 . S
C698 C696 1.389 . S
C698 C699 1.524 . S
C699 C698 1.524 . S
C699 C700 1.397 . S
C699 C704 1.363 . S
C700 H671 0.950 . S
C700 C699 1.397 . S
C700 C701 1.334 . S
C701 H672 0.950 . S
C701 C700 1.334 . S
C701 C702 1.287 . S
C702 C701 1.287 . S
C702 C703 1.524 . S
C702 H705 0.999 . S
C703 H673 0.950 . S
C703 C702 1.524 . S
C703 C704 1.415 . S
C704 H674 0.950 . S
C704 C699 1.363 . S
C704 C703 1.415 . S
H705 C702 0.999 . S
H706 C687 0.913 . S
H707 C725 0.951 . S
H708 C727 0.951 . S
H709 C729 0.950 . S
H710 C730 0.950 . S
H711 C732 0.950 . S
H712 C735 0.950 . S
H713 C736 0.950 . S
H714 C738 0.950 . S
H715 C739 0.950 . S
H716 C740 0.951 . S
H717 C742 0.951 . S
H718 C744 0.950 . S
H719 C745 0.950 . S
H720 C747 0.950 . S
H721 C750 0.950 . S
H722 C751 0.950 . S
H723 C753 0.950 . S
H724 C754 0.950 . S
C725 H707 0.951 . S
C725 C726 1.366 1_554 S
C725 C727 1.388 1_554 S
C726 C725 1.366 1_556 S
C726 C730 1.385 . S
C727 H708 0.951 . S
C727 C725 1.388 1_556 S
C727 C728 1.366 . S
C728 C727 1.366 . S
C728 C729 1.414 . S
C728 C731 1.499 . S
C729 H709 0.950 . S
C729 C728 1.414 . S
C729 C730 1.374 . S
C730 H710 0.950 . S
C730 C726 1.385 . S
C730 C729 1.374 . S
C731 C728 1.499 . S
C731 C732 1.373 . S
C731 C733 1.389 . S
C732 H711 0.950 . S
C732 C731 1.373 . S
C732 C748 1.377 . S
C733 C731 1.389 . S
C733 C734 1.524 1_556 S
C733 C747 1.377 . S
C734 C733 1.524 1_554 S
C734 C735 1.397 . S
C734 C739 1.363 . S
C735 H712 0.950 . S
C735 C734 1.397 . S
C735 C736 1.334 . S
C736 H713 0.950 . S
C736 C735 1.334 . S
C736 C737 1.287 . S
C737 C736 1.287 . S
C737 C738 1.524 . S
C737 H756 0.913 . S
C738 H714 0.950 . S
C738 C737 1.524 . S
C738 C739 1.415 . S
C739 H715 0.950 . S
C739 C734 1.363 . S
C739 C738 1.415 . S
C740 H716 0.951 . S
C740 C741 1.366 . S
C740 C742 1.388 . S
C741 C740 1.366 . S
C741 C745 1.385 . S
C742 H717 0.951 . S
C742 C740 1.388 . S
C742 C743 1.366 . S
C743 C742 1.366 . S
C743 C744 1.414 . S
C743 C746 1.499 . S
C744 H718 0.950 . S
C744 C743 1.414 . S
C744 C745 1.374 . S
C745 H719 0.950 . S
C745 C741 1.385 . S
C745 C744 1.374 . S
C746 C743 1.499 . S
C746 C747 1.373 . S
C746 C748 1.389 . S
C747 H720 0.950 . S
C747 C733 1.377 . S
C747 C746 1.373 . S
C748 C732 1.377 . S
C748 C746 1.389 . S
C748 C749 1.524 . S
C749 C748 1.524 . S
C749 C750 1.397 . S
C749 C754 1.363 . S
C750 H721 0.950 . S
C750 C749 1.397 . S
C750 C751 1.334 . S
C751 H722 0.950 . S
C751 C750 1.334 . S
C751 C752 1.287 . S
C752 C751 1.287 . S
C752 C753 1.524 . S
C752 H755 0.999 . S
C753 H723 0.950 . S
C753 C752 1.524 . S
C753 C754 1.415 . S
C754 H724 0.950 . S
C754 C749 1.363 . S
C754 C753 1.415 . S
H755 C752 0.999 . S
H756 C737 0.913 . S
H757 C775 0.951 . S
H758 C777 0.951 . S
H759 C779 0.950 . S
H760 C780 0.950 . S
H761 C782 0.950 . S
H762 C785 0.950 . S
H763 C786 0.950 . S
H764 C788 0.950 . S
H765 C789 0.950 . S
H766 C790 0.951 . S
H767 C792 0.951 . S
H768 C794 0.950 . S
H769 C795 0.950 . S
H770 C797 0.950 . S
H771 C800 0.950 . S
H772 C801 0.950 1_554 S
H773 C803 0.950 . S
H774 C804 0.950 . S
C775 H757 0.951 . S
C775 C776 1.366 . S
C775 C777 1.388 . S
C776 C775 1.366 . S
C776 C780 1.385 . S
C777 H758 0.951 . S
C777 C775 1.388 . S
C777 C778 1.366 . S
C778 C777 1.366 . S
C778 C779 1.414 . S
C778 C781 1.499 . S
C779 H759 0.950 . S
C779 C778 1.414 . S
C779 C780 1.374 . S
C780 H760 0.950 . S
C780 C776 1.385 . S
C780 C779 1.374 . S
C781 C778 1.499 . S
C781 C782 1.373 . S
C781 C783 1.389 . S
C782 H761 0.950 . S
C782 C781 1.373 . S
C782 C798 1.377 . S
C783 C781 1.389 . S
C783 C784 1.524 . S
C783 C797 1.377 . S
C784 C783 1.524 . S
C784 C785 1.397 . S
C784 C789 1.363 . S
C785 H762 0.950 . S
C785 C784 1.397 . S
C785 C786 1.334 . S
C786 H763 0.950 . S
C786 C785 1.334 . S
C786 C787 1.287 . S
C787 C786 1.287 . S
C787 C788 1.524 . S
C787 H806 0.913 . S
C788 H764 0.950 . S
C788 C787 1.524 . S
C788 C789 1.415 . S
C789 H765 0.950 . S
C789 C784 1.363 . S
C789 C788 1.415 . S
C790 H766 0.951 . S
C790 C791 1.366 . S
C790 C792 1.388 . S
C791 C790 1.366 . S
C791 C795 1.385 1_556 S
C792 H767 0.951 . S
C792 C790 1.388 . S
C792 C793 1.366 . S
C793 C792 1.366 . S
C793 C794 1.414 . S
C793 C796 1.499 . S
C794 H768 0.950 . S
C794 C793 1.414 . S
C794 C795 1.374 1_556 S
C795 H769 0.950 . S
C795 C791 1.385 1_554 S
C795 C794 1.374 1_554 S
C796 C793 1.499 . S
C796 C797 1.373 . S
C796 C798 1.389 . S
C797 H770 0.950 . S
C797 C783 1.377 . S
C797 C796 1.373 . S
C798 C782 1.377 . S
C798 C796 1.389 . S
C798 C799 1.524 . S
C799 C798 1.524 . S
C799 C800 1.397 . S
C799 C804 1.363 . S
C800 H771 0.950 . S
C800 C799 1.397 . S
C800 C801 1.334 . S
C801 H772 0.950 1_556 S
C801 C800 1.334 . S
C801 C802 1.287 1_565 S
C802 C801 1.287 1_545 S
C802 C803 1.524 . S
C802 H805 0.999 . S
C803 H773 0.950 . S
C803 C802 1.524 . S
C803 C804 1.415 1_545 S
C804 H774 0.950 . S
C804 C799 1.363 . S
C804 C803 1.415 1_565 S
H805 C802 0.999 . S
H806 C787 0.913 . S
H807 C825 0.951 . S
H808 C827 0.951 . S
H809 C829 0.950 . S
H810 C830 0.950 . S
H811 C832 0.950 . S
H812 C835 0.950 . S
H813 C836 0.950 . S
H814 C838 0.950 . S
H815 C839 0.950 . S
H816 C840 0.951 . S
H817 C842 0.951 . S
H818 C844 0.950 . S
H819 C845 0.950 . S
H820 C847 0.950 . S
H821 C850 0.950 . S
H822 C851 0.950 . S
H823 C853 0.950 . S
H824 C854 0.950 . S
C825 H807 0.951 . S
C825 C826 1.366 . S
C825 C827 1.388 . S
C826 C825 1.366 . S
C826 C830 1.385 . S
C827 H808 0.951 . S
C827 C825 1.388 . S
C827 C828 1.366 . S
C828 C827 1.366 . S
C828 C829 1.414 . S
C828 C831 1.499 . S
C829 H809 0.950 . S
C829 C828 1.414 . S
C829 C830 1.374 . S
C830 H810 0.950 . S
C830 C826 1.385 . S
C830 C829 1.374 . S
C831 C828 1.499 . S
C831 C832 1.373 . S
C831 C833 1.389 . S
C832 H811 0.950 . S
C832 C831 1.373 . S
C832 C848 1.377 . S
C833 C831 1.389 . S
C833 C834 1.524 . S
C833 C847 1.377 . S
C834 C833 1.524 . S
C834 C835 1.397 . S
C834 C839 1.363 . S
C835 H812 0.950 . S
C835 C834 1.397 . S
C835 C836 1.334 . S
C836 H813 0.950 . S
C836 C835 1.334 . S
C836 C837 1.287 . S
C837 C836 1.287 . S
C837 C838 1.524 . S
C837 H856 0.913 . S
C838 H814 0.950 . S
C838 C837 1.524 . S
C838 C839 1.415 . S
C839 H815 0.950 . S
C839 C834 1.363 . S
C839 C838 1.415 . S
C840 H816 0.951 . S
C840 C841 1.366 . S
C840 C842 1.388 . S
C841 C840 1.366 . S
C841 C845 1.385 . S
C842 H817 0.951 . S
C842 C840 1.388 . S
C842 C843 1.366 . S
C843 C842 1.366 . S
C843 C844 1.414 . S
C843 C846 1.499 . S
C844 H818 0.950 . S
C844 C843 1.414 . S
C844 C845 1.374 . S
C845 H819 0.950 . S
C845 C841 1.385 . S
C845 C844 1.374 . S
C846 C843 1.499 . S
C846 C847 1.373 . S
C846 C848 1.389 . S
C847 H820 0.950 . S
C847 C833 1.377 . S
C847 C846 1.373 . S
C848 C832 1.377 . S
C848 C846 1.389 . S
C848 C849 1.524 . S
C849 C848 1.524 . S
C849 C850 1.397 . S
C849 C854 1.363 . S
C850 H821 0.950 . S
C850 C849 1.397 . S
C850 C851 1.334 . S
C851 H822 0.950 . S
C851 C850 1.334 . S
C851 C852 1.287 . S
C852 C851 1.287 . S
C852 C853 1.524 . S
C852 H855 0.999 . S
C853 H823 0.950 . S
C853 C852 1.524 . S
C853 C854 1.415 . S
C854 H824 0.950 . S
C854 C849 1.363 . S
C854 C853 1.415 . S
H855 C852 0.999 . S
H856 C837 0.913 . S
H857 C875 0.951 . S
H858 C877 0.951 . S
H859 C879 0.950 . S
H860 C880 0.950 1_455 S
H861 C882 0.950 . S
H862 C885 0.950 . S
H863 C886 0.950 1_556 S
H864 C888 0.950 . S
H865 C889 0.950 . S
H866 C890 0.951 . S
H867 C892 0.951 . S
H868 C894 0.950 . S
H869 C895 0.950 . S
H870 C897 0.950 . S
H871 C900 0.950 . S
H872 C901 0.950 . S
H873 C903 0.946 . S
H874 C904 0.950 . S
C875 H857 0.951 . S
C875 C876 1.366 . S
C875 C877 1.388 . S
C876 C875 1.366 . S
C876 C880 1.385 . S
C877 H858 0.951 . S
C877 C875 1.388 . S
C877 C878 1.366 . S
C878 C877 1.366 . S
C878 C879 1.414 . S
C878 C881 1.499 . S
C879 H859 0.950 . S
C879 C878 1.414 . S
C879 C880 1.374 . S
C880 H860 0.950 1_655 S
C880 C876 1.385 . S
C880 C879 1.374 . S
C881 C878 1.499 . S
C881 C882 1.373 . S
C881 C883 1.389 . S
C882 H861 0.950 . S
C882 C881 1.373 . S
C882 C898 1.377 . S
C883 C881 1.389 . S
C883 C884 1.524 . S
C883 C897 1.377 . S
C884 C883 1.524 . S
C884 C885 1.397 . S
C884 C889 1.363 . S
C885 H862 0.950 . S
C885 C884 1.397 . S
C885 C886 1.334 . S
C886 H863 0.950 1_554 S
C886 C885 1.334 . S
C886 C887 1.287 . S
C887 C886 1.287 . S
C887 C888 1.524 . S
C887 H906 0.913 1_554 S
C888 H864 0.950 . S
C888 C887 1.524 . S
C888 C889 1.415 . S
C889 H865 0.950 . S
C889 C884 1.363 . S
C889 C888 1.415 . S
C890 H866 0.951 . S
C890 C891 1.366 . S
C890 C892 1.388 . S
C891 C890 1.366 . S
C891 C895 1.385 . S
C892 H867 0.951 . S
C892 C890 1.388 . S
C892 C893 1.366 . S
C893 C892 1.366 . S
C893 C894 1.414 . S
C893 C896 1.499 . S
C894 H868 0.950 . S
C894 C893 1.414 . S
C894 C895 1.374 . S
C895 H869 0.950 . S
C895 C891 1.385 . S
C895 C894 1.374 . S
C896 C893 1.499 . S
C896 C897 1.373 . S
C896 C898 1.389 . S
C897 H870 0.950 . S
C897 C883 1.377 . S
C897 C896 1.373 . S
C898 C882 1.377 . S
C898 C896 1.389 . S
C898 C899 1.524 . S
C899 C898 1.524 . S
C899 C900 1.397 . S
C899 C904 1.363 . S
C900 H871 0.950 . S
C900 C899 1.397 . S
C900 C901 1.334 . S
C901 H872 0.950 . S
C901 C900 1.334 . S
C901 C902 1.287 . S
C902 C901 1.287 . S
C902 C903 1.524 . S
C902 H905 0.999 . S
C903 H873 0.946 . S
C903 C902 1.524 . S
C903 C904 1.415 . S
C904 H874 0.950 . S
C904 C899 1.363 . S
C904 C903 1.415 . S
H905 C902 0.999 . S
H906 C887 0.913 1_556 S
H907 C925 0.951 . S
H908 C927 0.951 . S
H909 C929 0.950 . S
H910 C930 0.950 . S
H911 C932 0.950 . S
H912 C935 0.950 . S
H913 C936 0.950 . S
H914 C938 0.950 . S
H915 C939 0.950 . S
H916 C940 0.951 . S
H917 C942 0.951 . S
H918 C944 0.950 . S
H919 C945 0.950 . S
H920 C947 0.950 . S
H921 C950 0.950 . S
H922 C951 0.950 . S
H923 C953 0.950 1_556 S
H924 C954 0.950 . S
C925 H907 0.951 . S
C925 C926 1.366 . S
C925 C927 1.388 . S
C926 C925 1.366 . S
C926 C930 1.385 . S
C927 H908 0.951 . S
C927 C925 1.388 . S
C927 C928 1.366 . S
C928 C927 1.366 . S
C928 C929 1.414 . S
C928 C931 1.499 . S
C929 H909 0.950 . S
C929 C928 1.414 . S
C929 C930 1.374 . S
C930 H910 0.950 . S
C930 C926 1.385 . S
C930 C929 1.374 . S
C931 C928 1.499 . S
C931 C932 1.373 . S
C931 C933 1.389 . S
C932 H911 0.950 . S
C932 C931 1.373 . S
C932 C948 1.377 . S
C933 C931 1.389 . S
C933 C934 1.524 . S
C933 C947 1.377 . S
C934 C933 1.524 . S
C934 C935 1.397 . S
C934 C939 1.363 . S
C935 H912 0.950 . S
C935 C934 1.397 . S
C935 C936 1.334 . S
C936 H913 0.950 . S
C936 C935 1.334 . S
C936 C937 1.287 . S
C937 C936 1.287 . S
C937 C938 1.524 . S
C937 H956 0.913 . S
C938 H914 0.950 . S
C938 C937 1.524 . S
C938 C939 1.415 . S
C939 H915 0.950 . S
C939 C934 1.363 . S
C939 C938 1.415 . S
C940 H916 0.951 . S
C940 C941 1.366 . S
C940 C942 1.388 . S
C941 C940 1.366 . S
C941 C945 1.385 . S
C942 H917 0.951 . S
C942 C940 1.388 . S
C942 C943 1.366 . S
C943 C942 1.366 . S
C943 C944 1.414 . S
C943 C946 1.499 . S
C944 H918 0.950 . S
C944 C943 1.414 . S
C944 C945 1.374 . S
C945 H919 0.950 . S
C945 C941 1.385 . S
C945 C944 1.374 . S
C946 C943 1.499 . S
C946 C947 1.373 . S
C946 C948 1.389 . S
C947 H920 0.950 . S
C947 C933 1.377 . S
C947 C946 1.373 . S
C948 C932 1.377 . S
C948 C946 1.389 . S
C948 C949 1.524 . S
C949 C948 1.524 . S
C949 C950 1.397 . S
C949 C954 1.363 . S
C950 H921 0.950 . S
C950 C949 1.397 . S
C950 C951 1.334 . S
C951 H922 0.950 . S
C951 C950 1.334 . S
C951 C952 1.287 . S
C952 C951 1.287 . S
C952 C953 1.524 . S
C952 H955 0.999 1_554 S
C953 H923 0.950 1_554 S
C953 C952 1.524 . S
C953 C954 1.415 . S
C954 H924 0.950 . S
C954 C949 1.363 . S
C954 C953 1.415 . S
H955 C952 0.999 1_556 S
H956 C937 0.913 . S
H957 C975 0.951 . S
H958 C977 0.951 . S
H959 C979 0.950 . S
H960 C980 0.950 . S
H961 C982 0.950 . S
H962 C985 0.950 . S
H963 C986 0.950 . S
H964 C988 0.950 . S
H965 C989 0.950 . S
H966 C990 0.951 . S
H967 C992 0.951 . S
H968 C994 0.950 . S
H969 C995 0.950 . S
H970 C997 0.950 1_655 S
H971 C1000 0.950 . S
H972 C1001 0.950 . S
H973 C1003 0.950 . S
H974 C1004 0.950 . S
C975 H957 0.951 . S
C975 C976 1.366 . S
C975 C977 1.388 . S
C976 C975 1.366 . S
C976 C980 1.385 . S
C977 H958 0.951 . S
C977 C975 1.388 . S
C977 C978 1.366 . S
C978 C977 1.366 . S
C978 C979 1.414 . S
C978 C981 1.499 . S
C979 H959 0.950 . S
C979 C978 1.414 . S
C979 C980 1.374 . S
C980 H960 0.950 . S
C980 C976 1.385 . S
C980 C979 1.374 . S
C981 C978 1.499 . S
C981 C982 1.373 . S
C981 C983 1.389 . S
C982 H961 0.950 . S
C982 C981 1.373 . S
C982 C998 1.377 . S
C983 C981 1.389 . S
C983 C984 1.524 . S
C983 C997 1.377 . S
C984 C983 1.524 . S
C984 C985 1.397 . S
C984 C989 1.363 . S
C985 H962 0.950 . S
C985 C984 1.397 . S
C985 C986 1.334 . S
C986 H963 0.950 . S
C986 C985 1.334 . S
C986 C987 1.287 . S
C987 C986 1.287 . S
C987 C988 1.524 . S
C987 H1006 0.913 . S
C988 H964 0.950 . S
C988 C987 1.524 . S
C988 C989 1.415 . S
C989 H965 0.950 . S
C989 C984 1.363 . S
C989 C988 1.415 . S
C990 H966 0.951 . S
C990 C991 1.366 . S
C990 C992 1.388 . S
C991 C990 1.366 . S
C991 C995 1.385 . S
C992 H967 0.951 . S
C992 C990 1.388 . S
C992 C993 1.366 . S
C993 C992 1.366 . S
C993 C994 1.414 . S
C993 C996 1.499 1_655 S
C994 H968 0.950 . S
C994 C993 1.414 . S
C994 C995 1.374 . S
C995 H969 0.950 . S
C995 C991 1.385 . S
C995 C994 1.374 . S
C996 C993 1.499 1_455 S
C996 C997 1.373 . S
C996 C998 1.389 . S
C997 H970 0.950 1_455 S
C997 C983 1.377 . S
C997 C996 1.373 . S
C998 C982 1.377 . S
C998 C996 1.389 . S
C998 C999 1.524 . S
C999 C998 1.524 . S
C999 C1000 1.397 . S
C999 C1004 1.363 . S
C1000 H971 0.950 . S
C1000 C999 1.397 . S
C1000 C1001 1.334 . S
C1001 H972 0.950 . S
C1001 C1000 1.334 . S
C1001 C1002 1.287 . S
C1002 C1001 1.287 . S
C1002 C1003 1.524 . S
C1002 H1005 0.999 . S
C1003 H973 0.950 . S
C1003 C1002 1.524 . S
C1003 C1004 1.415 . S
C1004 H974 0.950 . S
C1004 C999 1.363 . S
C1004 C1003 1.415 . S
H1005 C1002 0.999 . S
H1006 C987 0.913 . S
H1007 C1025 0.951 . S
H1008 C1027 0.951 . S
H1009 C1029 0.950 . S
H1010 C1030 0.950 . S
H1011 C1032 0.950 . S
H1012 C1035 0.950 . S
H1013 C1036 0.950 . S
H1014 C1038 0.950 . S
H1015 C1039 0.950 . S
H1016 C1040 0.951 . S
H1017 C1042 0.951 . S
H1018 C1044 0.950 . S
H1019 C1045 0.950 . S
H1020 C1047 0.950 . S
H1021 C1050 0.950 . S
H1022 C1051 0.950 . S
H1023 C1053 0.950 . S
H1024 C1054 0.950 . S
C1025 H1007 0.951 . S
C1025 C1026 1.366 . S
C1025 C1027 1.388 . S
C1026 C1025 1.366 . S
C1026 C1030 1.385 . S
C1027 H1008 0.951 . S
C1027 C1025 1.388 . S
C1027 C1028 1.366 . S
C1028 C1027 1.366 . S
C1028 C1029 1.414 . S
C1028 C1031 1.499 . S
C1029 H1009 0.950 . S
C1029 C1028 1.414 . S
C1029 C1030 1.374 . S
C1030 H1010 0.950 . S
C1030 C1026 1.385 . S
C1030 C1029 1.374 . S
C1031 C1028 1.499 . S
C1031 C1032 1.373 . S
C1031 C1033 1.389 . S
C1032 H1011 0.950 . S
C1032 C1031 1.373 . S
C1032 C1048 1.377 . S
C1033 C1031 1.389 . S
C1033 C1034 1.524 . S
C1033 C1047 1.377 . S
C1034 C1033 1.524 . S
C1034 C1035 1.397 . S
C1034 C1039 1.363 . S
C1035 H1012 0.950 . S
C1035 C1034 1.397 . S
C1035 C1036 1.334 . S
C1036 H1013 0.950 . S
C1036 C1035 1.334 . S
C1036 C1037 1.287 . S
C1037 C1036 1.287 . S
C1037 C1038 1.524 . S
C1037 H1056 0.913 . S
C1038 H1014 0.950 . S
C1038 C1037 1.524 . S
C1038 C1039 1.415 . S
C1039 H1015 0.950 . S
C1039 C1034 1.363 . S
C1039 C1038 1.415 . S
C1040 H1016 0.951 . S
C1040 C1041 1.366 . S
C1040 C1042 1.388 . S
C1041 C1040 1.366 . S
C1041 C1045 1.385 . S
C1042 H1017 0.951 . S
C1042 C1040 1.388 . S
C1042 C1043 1.366 . S
C1043 C1042 1.366 . S
C1043 C1044 1.414 . S
C1043 C1046 1.499 . S
C1044 H1018 0.950 . S
C1044 C1043 1.414 . S
C1044 C1045 1.374 . S
C1045 H1019 0.950 . S
C1045 C1041 1.385 . S
C1045 C1044 1.374 . S
C1046 C1043 1.499 . S
C1046 C1047 1.373 . S
C1046 C1048 1.389 . S
C1047 H1020 0.950 . S
C1047 C1033 1.377 . S
C1047 C1046 1.373 . S
C1048 C1032 1.377 . S
C1048 C1046 1.389 . S
C1048 C1049 1.524 . S
C1049 C1048 1.524 . S
C1049 C1050 1.397 . S
C1049 C1054 1.363 . S
C1050 H1021 0.950 . S
C1050 C1049 1.397 . S
C1050 C1051 1.334 . S
C1051 H1022 0.950 . S
C1051 C1050 1.334 . S
C1051 C1052 1.287 . S
C1052 C1051 1.287 . S
C1052 C1053 1.524 . S
C1052 H1055 0.999 . S
C1053 H1023 0.950 . S
C1053 C1052 1.524 . S
C1053 C1054 1.415 . S
C1054 H1024 0.950 . S
C1054 C1049 1.363 . S
C1054 C1053 1.415 . S
H1055 C1052 0.999 . S
H1056 C1037 0.913 . S
H1057 C1075 0.951 . S
H1058 C1077 0.951 . S
H1059 C1079 0.950 . S
H1060 C1080 0.950 . S
H1061 C1082 0.950 . S
H1062 C1085 0.950 . S
H1063 C1086 0.950 . S
H1064 C1088 0.950 . S
H1065 C1089 0.950 . S
H1066 C1090 0.951 . S
H1067 C1092 0.951 . S
H1068 C1094 0.950 . S
H1069 C1095 0.950 . S
H1070 C1097 0.950 . S
H1071 C1100 0.950 . S
H1072 C1101 0.950 . S
H1073 C1103 0.950 . S
H1074 C1104 0.950 . S
C1075 H1057 0.951 . S
C1075 C1076 1.366 . S
C1075 C1077 1.388 . S
C1076 C1075 1.366 . S
C1076 C1080 1.385 . S
C1077 H1058 0.951 . S
C1077 C1075 1.388 . S
C1077 C1078 1.366 . S
C1078 C1077 1.366 . S
C1078 C1079 1.414 . S
C1078 C1081 1.499 . S
C1079 H1059 0.950 . S
C1079 C1078 1.414 . S
C1079 C1080 1.374 . S
C1080 H1060 0.950 . S
C1080 C1076 1.385 . S
C1080 C1079 1.374 . S
C1081 C1078 1.499 . S
C1081 C1082 1.373 1_565 S
C1081 C1083 1.389 . S
C1082 H1061 0.950 . S
C1082 C1081 1.373 1_545 S
C1082 C1098 1.377 . S
C1083 C1081 1.389 . S
C1083 C1084 1.524 . S
C1083 C1097 1.377 1_565 S
C1084 C1083 1.524 . S
C1084 C1085 1.397 . S
C1084 C1089 1.363 . S
C1085 H1062 0.950 . S
C1085 C1084 1.397 . S
C1085 C1086 1.334 . S
C1086 H1063 0.950 . S
C1086 C1085 1.334 . S
C1086 C1087 1.287 . S
C1087 C1086 1.287 . S
C1087 C1088 1.524 . S
C1087 H1106 0.913 . S
C1088 H1064 0.950 . S
C1088 C1087 1.524 . S
C1088 C1089 1.415 . S
C1089 H1065 0.950 . S
C1089 C1084 1.363 . S
C1089 C1088 1.415 . S
C1090 H1066 0.951 . S
C1090 C1091 1.366 . S
C1090 C1092 1.388 . S
C1091 C1090 1.366 . S
C1091 C1095 1.385 . S
C1092 H1067 0.951 . S
C1092 C1090 1.388 . S
C1092 C1093 1.366 . S
C1093 C1092 1.366 . S
C1093 C1094 1.414 . S
C1093 C1096 1.499 . S
C1094 H1068 0.950 . S
C1094 C1093 1.414 . S
C1094 C1095 1.374 . S
C1095 H1069 0.950 . S
C1095 C1091 1.385 . S
C1095 C1094 1.374 . S
C1096 C1093 1.499 . S
C1096 C1097 1.373 . S
C1096 C1098 1.389 . S
C1097 H1070 0.950 . S
C1097 C1083 1.377 1_545 S
C1097 C1096 1.373 . S
C1098 C1082 1.377 . S
C1098 C1096 1.389 . S
C1098 C1099 1.524 . S
C1099 C1098 1.524 . S
C1099 C1100 1.397 . S
C1099 C1104 1.363 . S
C1100 H1071 0.950 . S
C1100 C1099 1.397 . S
C1100 C1101 1.334 . S
C1101 H1072 0.950 . S
C1101 C1100 1.334 . S
C1101 C1102 1.287 . S
C1102 C1101 1.287 . S
C1102 C1103 1.524 . S
C1102 H1105 0.999 . S
C1103 H1073 0.950 . S
C1103 C1102 1.524 . S
C1103 C1104 1.415 . S
C1104 H1074 0.950 . S
C1104 C1099 1.363 . S
C1104 C1103 1.415 . S
H1105 C1102 0.999 . S
H1106 C1087 0.913 . S
C226 N58 1.258 . S
C241 C16 1.241 . S
C276 N25 1.174 . S
C291 N2 1.181 . S
C326 C39 1.441 . S
C341 C53 1.463 . S
C376 C122 1.514 . S
C391 C85 1.487 . S
C426 N94 1.099 . S
C441 N71 1.091 . S
C476 C108 1.271 . S
C491 N127 1.291 . S
C526 C154 1.296 . S
C541 N196 1.319 . S
C576 N140 1.016 . S
C591 N163 1.010 . S
C626 C177 1.503 . S
C641 C191 1.531 . S
C676 N12 1.521 1_556 S
C691 N173 1.536 . S
C726 C30 1.571 1_556 S
C741 C200 1.543 . S
C776 C145 1.520 . S
C791 N48 1.446 1_556 S
C826 C99 1.491 . S
C841 C62 1.469 . S
C876 C7 1.537 . S
C891 C131 1.513 . S
C926 N81 1.566 . S
C941 N35 1.561 . S
C976 C168 1.564 . S
C991 N117 1.481 . S
C1026 C76 1.588 . S
C1041 N186 1.507 . S
C1076 N150 1.481 . S
C1091 N104 1.475 . S
