# Generated by pormake.
# Topology uoe, (4)-cn, num edge types: 1
# Building blocks:
#     Node 0, Type 0, BuildingBlock: MUDLON_clean_sbu_0, # of connection points: 4
#     Node 1, Type 0, BuildingBlock: MUDLON_clean_sbu_0, # of connection points: 4
#     Node 2, Type 0, BuildingBlock: MUDLON_clean_sbu_0, # of connection points: 4
#     Node 3, Type 0, BuildingBlock: MUDLON_clean_sbu_0, # of connection points: 4
#     Node 4, Type 0, BuildingBlock: MUDLON_clean_sbu_0, # of connection points: 4
#     Node 5, Type 0, BuildingBlock: MUDLON_clean_sbu_0, # of connection points: 4
#     Node 6, Type 0, BuildingBlock: MUDLON_clean_sbu_0, # of connection points: 4
#     Node 7, Type 0, BuildingBlock: MUDLON_clean_sbu_0, # of connection points: 4
#     Node 8, Type 0, BuildingBlock: MUDLON_clean_sbu_0, # of connection points: 4
#     Node 9, Type 0, BuildingBlock: MUDLON_clean_sbu_0, # of connection points: 4
#     Node 10, Type 0, BuildingBlock: MUDLON_clean_sbu_0, # of connection points: 4
#     Node 11, Type 0, BuildingBlock: MUDLON_clean_sbu_0, # of connection points: 4
#     Node 12, Type 0, BuildingBlock: MUDLON_clean_sbu_0, # of connection points: 4
#     Node 13, Type 0, BuildingBlock: MUDLON_clean_sbu_0, # of connection points: 4
#     Node 14, Type 0, BuildingBlock: MUDLON_clean_sbu_0, # of connection points: 4
#     Node 15, Type 0, BuildingBlock: MUDLON_clean_sbu_0, # of connection points: 4
#     Node 16, Type 0, BuildingBlock: MUDLON_clean_sbu_0, # of connection points: 4
#     Node 17, Type 0, BuildingBlock: MUDLON_clean_sbu_0, # of connection points: 4
#     Node 18, Type 0, BuildingBlock: MUDLON_clean_sbu_0, # of connection points: 4
#     Node 19, Type 0, BuildingBlock: MUDLON_clean_sbu_0, # of connection points: 4
#     Node 20, Type 0, BuildingBlock: MUDLON_clean_sbu_0, # of connection points: 4
#     Node 21, Type 0, BuildingBlock: MUDLON_clean_sbu_0, # of connection points: 4
#     Node 22, Type 0, BuildingBlock: MUDLON_clean_sbu_0, # of connection points: 4
#     Node 23, Type 0, BuildingBlock: MUDLON_clean_sbu_0, # of connection points: 4
#     Node 24, Type 0, BuildingBlock: MUDLON_clean_sbu_0, # of connection points: 4
#     Node 25, Type 0, BuildingBlock: MUDLON_clean_sbu_0, # of connection points: 4
#     Node 26, Type 0, BuildingBlock: MUDLON_clean_sbu_0, # of connection points: 4
#     Node 27, Type 0, BuildingBlock: MUDLON_clean_sbu_0, # of connection points: 4
#     Node 28, Type 0, BuildingBlock: MUDLON_clean_sbu_0, # of connection points: 4
#     Node 29, Type 0, BuildingBlock: MUDLON_clean_sbu_0, # of connection points: 4
#     Node 30, Type 0, BuildingBlock: MUDLON_clean_sbu_0, # of connection points: 4
#     Node 31, Type 0, BuildingBlock: MUDLON_clean_sbu_0, # of connection points: 4
#     Edge 32, Type (0, 0), None
#     Edge 33, Type (0, 0), None
#     Edge 34, Type (0, 0), None
#     Edge 35, Type (0, 0), None
#     Edge 36, Type (0, 0), None
#     Edge 37, Type (0, 0), None
#     Edge 38, Type (0, 0), None
#     Edge 39, Type (0, 0), None
#     Edge 40, Type (0, 0), None
#     Edge 41, Type (0, 0), None
#     Edge 42, Type (0, 0), None
#     Edge 43, Type (0, 0), None
#     Edge 44, Type (0, 0), None
#     Edge 45, Type (0, 0), None
#     Edge 46, Type (0, 0), None
#     Edge 47, Type (0, 0), None
#     Edge 48, Type (0, 0), None
#     Edge 49, Type (0, 0), None
#     Edge 50, Type (0, 0), None
#     Edge 51, Type (0, 0), None
#     Edge 52, Type (0, 0), None
#     Edge 53, Type (0, 0), None
#     Edge 54, Type (0, 0), None
#     Edge 55, Type (0, 0), None
#     Edge 56, Type (0, 0), None
#     Edge 57, Type (0, 0), None
#     Edge 58, Type (0, 0), None
#     Edge 59, Type (0, 0), None
#     Edge 60, Type (0, 0), None
#     Edge 61, Type (0, 0), None
#     Edge 62, Type (0, 0), None
#     Edge 63, Type (0, 0), None
#     Edge 64, Type (0, 0), None
#     Edge 65, Type (0, 0), None
#     Edge 66, Type (0, 0), None
#     Edge 67, Type (0, 0), None
#     Edge 68, Type (0, 0), None
#     Edge 69, Type (0, 0), None
#     Edge 70, Type (0, 0), None
#     Edge 71, Type (0, 0), None
#     Edge 72, Type (0, 0), None
#     Edge 73, Type (0, 0), None
#     Edge 74, Type (0, 0), None
#     Edge 75, Type (0, 0), None
#     Edge 76, Type (0, 0), None
#     Edge 77, Type (0, 0), None
#     Edge 78, Type (0, 0), None
#     Edge 79, Type (0, 0), None
#     Edge 80, Type (0, 0), None
#     Edge 81, Type (0, 0), None
#     Edge 82, Type (0, 0), None
#     Edge 83, Type (0, 0), None
#     Edge 84, Type (0, 0), None
#     Edge 85, Type (0, 0), None
#     Edge 86, Type (0, 0), None
#     Edge 87, Type (0, 0), None
#     Edge 88, Type (0, 0), None
#     Edge 89, Type (0, 0), None
#     Edge 90, Type (0, 0), None
#     Edge 91, Type (0, 0), None
#     Edge 92, Type (0, 0), None
#     Edge 93, Type (0, 0), None
#     Edge 94, Type (0, 0), None
#     Edge 95, Type (0, 0), None
# Relax obj value: 0.166
# Max RMSD: 0.256
# Mean RMSD: 0.256
data_MOF--net-uoe--node1-MUDLON_clean_sbu_0--edge1-none
_symmetry_space_group_name_H-M    P1
_symmetry_Int_Tables_number       1
_symmetry_cell_setting            triclinic
loop_
_symmetry_equiv_pos_as_xyz
'x, y, z'
_cell_length_a     36.813453
_cell_length_b     37.771679
_cell_length_c     13.579536
_cell_angle_alpha  90.00032
_cell_angle_beta   90.000514
_cell_angle_gamma 90.079467
loop_
_atom_site_label
_atom_site_type_symbol
_atom_site_fract_x
_atom_site_fract_y
_atom_site_fract_z
_atom_type_partial_charge
Mg0 Mg 0.08127 0.44412 0.09345 0.0
C1 C 0.10808 0.46706 0.29393 0.0
O2 O 0.13354 0.44333 0.28085 0.0
C3 C 0.11171 0.46636 0.8944 0.0
O4 O 0.12221 0.43317 0.89053 0.0
C5 C 0.11978 0.37741 0.1819 0.0
O6 O 0.09195 0.37488 0.24197 0.0
O7 O 0.11911 0.39982 0.11162 0.0
O8 O 0.0856 0.47403 0.2261 0.0
O9 O 0.02256 0.43852 0.08284 0.0
C10 C 0.00645 0.46843 0.08608 0.0
O11 O 0.02593 0.49749 0.0925 0.0
O12 O 0.09599 0.47788 0.97109 0.0
Mg13 Mg 0.80534 0.82469 0.33305 0.0
C14 C 0.76485 0.75687 0.33048 0.0
O15 O 0.73839 0.78011 0.32748 0.0
C16 C 0.85832 0.86936 0.44771 0.0
O17 O 0.8271 0.88354 0.47236 0.0
C18 C 0.76629 0.84377 0.13245 0.0
O19 O 0.73585 0.84219 0.18265 0.0
O20 O 0.79651 0.84 0.17719 0.0
O21 O 0.79774 0.76759 0.33258 0.0
O22 O 0.7668 0.83787 0.44916 0.0
C23 C 0.77715 0.82955 0.53589 0.0
O24 O 0.80944 0.81564 0.54904 0.0
O25 O 0.8587 0.84397 0.3857 0.0
Mg26 Mg 0.3887 0.51473 0.57933 0.0
C27 C 0.3923 0.49732 0.7823 0.0
O28 O 0.4154 0.52347 0.77078 0.0
C29 C 0.38456 0.49972 0.36624 0.0
O30 O 0.40086 0.53068 0.36742 0.0
C31 C 0.36123 0.58575 0.67289 0.0
O32 O 0.39341 0.58976 0.71286 0.0
O33 O 0.3557 0.56148 0.60931 0.0
O34 O 0.37602 0.48472 0.70784 0.0
O35 O 0.44783 0.51631 0.5785 0.0
C36 C 0.46363 0.48629 0.58324 0.0
O37 O 0.44397 0.4573 0.58798 0.0
O38 O 0.37349 0.48647 0.44676 0.0
Mg39 Mg 0.69084 0.15061 0.8332 0.0
C40 C 0.73109 0.2183 0.82894 0.0
O41 O 0.75739 0.19488 0.82663 0.0
C42 C 0.63795 0.10576 0.94793 0.0
O43 O 0.66921 0.09177 0.97311 0.0
C44 C 0.73017 0.1314 0.63287 0.0
O45 O 0.76056 0.13302 0.68326 0.0
O46 O 0.6999 0.13516 0.67743 0.0
O47 O 0.69815 0.20776 0.83152 0.0
O48 O 0.72947 0.1377 0.94956 0.0
C49 C 0.71923 0.14587 0.03649 0.0
O50 O 0.68686 0.15955 0.05017 0.0
O51 O 0.63754 0.13109 0.88572 0.0
Mg52 Mg 0.10441 0.50184 0.59096 0.0
C53 C 0.1029 0.48334 0.38935 0.0
O54 O 0.0789 0.50875 0.3989 0.0
C55 C 0.11137 0.48806 0.80498 0.0
O56 O 0.09456 0.51871 0.80536 0.0
C57 C 0.1264 0.57426 0.49525 0.0
O58 O 0.09332 0.57653 0.45986 0.0
O59 O 0.1345 0.55018 0.55729 0.0
O60 O 0.11897 0.47152 0.46495 0.0
O61 O 0.04524 0.50116 0.59105 0.0
C62 C 0.02963 0.47103 0.58524 0.0
O63 O 0.04939 0.44218 0.5798 0.0
O64 O 0.12149 0.4749 0.72355 0.0
Mg65 Mg 0.72465 0.82762 0.82357 0.0
C66 C 0.75885 0.75651 0.82903 0.0
O67 O 0.78753 0.7772 0.82833 0.0
C68 C 0.67502 0.87634 0.71144 0.0
O69 O 0.70699 0.89 0.69147 0.0
C70 C 0.76528 0.84334 0.02325 0.0
O71 O 0.79513 0.83692 0.97352 0.0
O72 O 0.73483 0.84356 0.97837 0.0
O73 O 0.72717 0.77018 0.82773 0.0
O74 O 0.76363 0.83737 0.706 0.0
C75 C 0.7521 0.83103 0.61906 0.0
O76 O 0.71829 0.82104 0.6058 0.0
O77 O 0.67299 0.84987 0.76959 0.0
Mg78 Mg 0.41771 0.45821 0.0761 0.0
C79 C 0.38849 0.48107 0.87838 0.0
O80 O 0.36367 0.45678 0.89363 0.0
C81 C 0.38552 0.4782 0.2764 0.0
O82 O 0.37524 0.44491 0.27853 0.0
C83 C 0.38409 0.39039 0.98269 0.0
O84 O 0.41233 0.39071 0.92363 0.0
O85 O 0.38265 0.41197 0.05484 0.0
O86 O 0.4116 0.48851 0.94437 0.0
O87 O 0.4765 0.45398 0.08532 0.0
C88 C 0.49273 0.48386 0.08202 0.0
O89 O 0.47342 0.51299 0.07586 0.0
O90 O 0.40175 0.49028 0.20104 0.0
Mg91 Mg 0.77223 0.14745 0.32411 0.0
C92 C 0.73884 0.21861 0.32978 0.0
O93 O 0.71016 0.19793 0.3287 0.0
C94 C 0.82147 0.09851 0.2115 0.0
O95 O 0.78941 0.08516 0.19097 0.0
C96 C 0.73129 0.1318 0.52365 0.0
O97 O 0.70147 0.13816 0.47368 0.0
O98 O 0.76178 0.13161 0.47897 0.0
O99 O 0.77049 0.20491 0.32861 0.0
O100 O 0.73304 0.13811 0.20653 0.0
C101 C 0.74443 0.14437 0.1194 0.0
O102 O 0.77829 0.15409 0.10561 0.0
O103 O 0.82367 0.12482 0.27014 0.0
Mg104 Mg 0.89203 0.50212 0.09069 0.0
C105 C 0.96665 0.47111 0.08506 0.0
O106 O 0.94673 0.44231 0.07968 0.0
C107 C 0.87012 0.57458 0.9952 0.0
O108 O 0.90314 0.57687 0.95935 0.0
C109 C 0.885 0.48829 0.30464 0.0
O110 O 0.90192 0.51893 0.30505 0.0
O111 O 0.87484 0.47514 0.22319 0.0
O112 O 0.9512 0.50129 0.09077 0.0
O113 O 0.87729 0.47188 0.9646 0.0
C114 C 0.8934 0.48371 0.88901 0.0
O115 O 0.91752 0.50907 0.8986 0.0
O116 O 0.86207 0.5505 0.05734 0.0
Mg117 Mg 0.22419 0.14728 0.82403 0.0
C118 C 0.252 0.14432 0.61935 0.0
O119 O 0.21814 0.15394 0.60557 0.0
C120 C 0.26512 0.13181 0.02358 0.0
O121 O 0.29493 0.13833 0.97362 0.0
C122 C 0.17503 0.0982 0.7113 0.0
O123 O 0.2071 0.08493 0.69092 0.0
O124 O 0.17279 0.1245 0.76994 0.0
O125 O 0.2634 0.13809 0.70647 0.0
O126 O 0.22581 0.20474 0.82846 0.0
C127 C 0.25742 0.21859 0.82948 0.0
O128 O 0.28615 0.19805 0.82836 0.0
O129 O 0.23464 0.13148 0.97888 0.0
Mg130 Mg 0.57831 0.45794 0.57589 0.0
C131 C 0.50342 0.48381 0.58211 0.0
O132 O 0.5229 0.51288 0.57597 0.0
C133 C 0.61182 0.39003 0.48286 0.0
O134 O 0.58363 0.39028 0.42363 0.0
C135 C 0.61062 0.47796 0.77606 0.0
O136 O 0.62076 0.44465 0.77819 0.0
O137 O 0.59443 0.49006 0.70069 0.0
O138 O 0.51949 0.45388 0.58528 0.0
O139 O 0.58453 0.48817 0.44404 0.0
C140 C 0.6076 0.48068 0.37801 0.0
O141 O 0.6323 0.45635 0.39325 0.0
O142 O 0.61323 0.41167 0.5549 0.0
Mg143 Mg 0.27132 0.82779 0.32358 0.0
C144 C 0.24384 0.83106 0.11911 0.0
O145 O 0.27765 0.82117 0.10588 0.0
C146 C 0.23069 0.84332 0.52328 0.0
O147 O 0.20085 0.83674 0.47355 0.0
C148 C 0.32087 0.87664 0.2113 0.0
O149 O 0.2889 0.89022 0.19144 0.0
O150 O 0.32293 0.85019 0.26947 0.0
O151 O 0.2323 0.83738 0.20604 0.0
O152 O 0.26891 0.77034 0.32769 0.0
C153 C 0.23726 0.75653 0.32888 0.0
O154 O 0.20854 0.77709 0.32815 0.0
O155 O 0.26113 0.84369 0.47838 0.0
Mg156 Mg 0.91488 0.44438 0.59326 0.0
C157 C 0.98982 0.46847 0.58615 0.0
O158 O 0.9705 0.49758 0.59256 0.0
C159 C 0.87621 0.37777 0.68211 0.0
O160 O 0.90407 0.37532 0.74208 0.0
C161 C 0.88457 0.46658 0.39407 0.0
O162 O 0.87394 0.43341 0.39019 0.0
O163 O 0.90032 0.4781 0.47077 0.0
O164 O 0.97354 0.4386 0.5828 0.0
O165 O 0.91068 0.47435 0.72579 0.0
C166 C 0.88812 0.46747 0.79357 0.0
O167 O 0.86253 0.44379 0.78046 0.0
O168 O 0.87689 0.40012 0.61167 0.0
Mg169 Mg 0.30556 0.15077 0.33313 0.0
C170 C 0.2772 0.14592 0.53643 0.0
O171 O 0.30956 0.15971 0.5501 0.0
C172 C 0.26625 0.1314 0.1328 0.0
O173 O 0.23585 0.13286 0.18318 0.0
C174 C 0.35849 0.10606 0.4478 0.0
O175 O 0.32725 0.092 0.47305 0.0
O176 O 0.35889 0.1314 0.38561 0.0
O177 O 0.26695 0.13772 0.44949 0.0
O178 O 0.29812 0.20791 0.33139 0.0
C179 C 0.26516 0.21829 0.32866 0.0
O180 O 0.23891 0.19475 0.3263 0.0
O181 O 0.2965 0.1353 0.17735 0.0
Mg182 Mg 0.60761 0.51444 0.07904 0.0
C183 C 0.53254 0.48623 0.08304 0.0
O184 O 0.55203 0.45719 0.08783 0.0
C185 C 0.63521 0.5854 0.17283 0.0
O186 O 0.60297 0.58942 0.21242 0.0
C187 C 0.61168 0.49949 0.86589 0.0
O188 O 0.5955 0.53046 0.86708 0.0
O189 O 0.6227 0.48622 0.9464 0.0
O190 O 0.5485 0.51621 0.0782 0.0
O191 O 0.62011 0.48436 0.20749 0.0
C192 C 0.60386 0.49695 0.28195 0.0
O193 O 0.58088 0.52314 0.27047 0.0
O194 O 0.64077 0.56114 0.10931 0.0
Mg195 Mg 0.19064 0.8245 0.83307 0.0
C196 C 0.2188 0.82949 0.03593 0.0
O197 O 0.18651 0.81547 0.04907 0.0
C198 C 0.22968 0.84376 0.63248 0.0
O199 O 0.26013 0.84234 0.68268 0.0
C200 C 0.13762 0.86905 0.94763 0.0
O201 O 0.16883 0.8833 0.97236 0.0
O202 O 0.13725 0.84365 0.88565 0.0
O203 O 0.22915 0.83783 0.94921 0.0
O204 O 0.19836 0.76743 0.83255 0.0
C205 C 0.23127 0.75686 0.83034 0.0
O206 O 0.25769 0.78022 0.82729 0.0
O207 O 0.19947 0.83984 0.67722 0.0
Mg208 Mg 0.61127 0.9636 0.5806 0.0
C209 C 0.60451 0.98061 0.78462 0.0
O210 O 0.58223 0.95391 0.77114 0.0
C211 C 0.6115 0.97948 0.36824 0.0
O212 O 0.5948 0.94876 0.37205 0.0
C213 C 0.64246 0.8941 0.67292 0.0
O214 O 0.61104 0.88994 0.71705 0.0
O215 O 0.64656 0.91815 0.60792 0.0
O216 O 0.62153 -0.00653 0.7116 0.0
O217 O 0.55227 0.95978 0.57818 0.0
C218 C 0.53615 -0.01034 0.58165 0.0
O219 O 0.55556 0.01882 0.5858 0.0
O220 O 0.62452 -0.00747 0.447 0.0
Mg221 Mg 0.29647 0.32832 0.8345 0.0
C222 C 0.26208 0.25713 0.83146 0.0
O223 O 0.2334 0.27773 0.83295 0.0
C224 C 0.35007 0.37327 0.95094 0.0
O225 O 0.31924 0.38612 0.98352 0.0
C226 C 0.25484 0.34279 0.63461 0.0
O227 O 0.22515 0.33645 0.68523 0.0
O228 O 0.28544 0.34338 0.67891 0.0
O229 O 0.29374 0.27089 0.83156 0.0
O230 O 0.25729 0.33869 0.95192 0.0
C231 C 0.26763 0.33105 0.03914 0.0
O232 O 0.30071 0.3192 0.05371 0.0
O233 O 0.34953 0.34928 0.88474 0.0
Mg234 Mg 0.8849 0.01095 0.08159 0.0
C235 C 0.89174 -0.00587 0.28581 0.0
O236 O 0.91421 0.02066 0.272 0.0
C237 C 0.88461 -0.00495 0.86936 0.0
O238 O 0.90115 0.02585 0.87318 0.0
C239 C 0.85393 0.08053 0.17322 0.0
O240 O 0.88533 0.08448 0.21757 0.0
O241 O 0.84974 0.05651 0.10819 0.0
O242 O 0.87459 0.9813 0.21298 0.0
O243 O 0.94388 0.0148 0.07909 0.0
C244 C 0.96001 0.98493 0.08284 0.0
O245 O 0.94063 0.95577 0.08729 0.0
O246 O 0.87169 0.98192 0.94815 0.0
Mg247 Mg 0.20034 0.64649 0.33689 0.0
C248 C 0.23266 0.71798 0.33083 0.0
O249 O 0.26146 0.69753 0.33043 0.0
C250 C 0.15625 0.59421 0.44947 0.0
O251 O 0.18952 0.58235 0.46022 0.0
C252 C 0.24062 0.63135 0.13669 0.0
O253 O 0.27054 0.63782 0.18617 0.0
O254 O 0.21026 0.63088 0.1819 0.0
O255 O 0.20109 0.704 0.333 0.0
O256 O 0.24006 0.6383 0.45327 0.0
C257 C 0.22809 0.64437 0.53991 0.0
O258 O 0.19398 0.6534 0.55235 0.0
O259 O 0.15079 0.62126 0.39517 0.0
Mg260 Mg 0.57487 0.01903 0.07704 0.0
C261 C 0.6066 -0.00295 0.88103 0.0
O262 O 0.63019 0.02234 0.89789 0.0
C263 C 0.60938 0.00068 0.27778 0.0
O264 O 0.62071 0.03366 0.277 0.0
C265 C 0.60454 0.08841 0.98297 0.0
O266 O 0.57582 0.08723 0.92575 0.0
O267 O 0.60743 0.06678 0.05468 0.0
O268 O 0.58321 -0.0113 0.94562 0.0
O269 O 0.51599 0.02177 0.08413 0.0
C270 C 0.4998 -0.00812 0.0804 0.0
O271 O 0.51909 0.96274 0.07452 0.0
O272 O 0.59173 -0.01149 0.20477 0.0
Mg273 Mg 0.21364 0.32311 0.32534 0.0
C274 C 0.25613 0.25612 0.32836 0.0
O275 O 0.28227 0.27978 0.32959 0.0
C276 C 0.15539 0.36309 0.21153 0.0
O277 O 0.18475 0.37901 0.17911 0.0
C278 C 0.25344 0.34284 0.52529 0.0
O279 O 0.28373 0.34124 0.47445 0.0
O280 O 0.22306 0.33889 0.48116 0.0
O281 O 0.22309 0.26628 0.32682 0.0
O282 O 0.25129 0.33793 0.20793 0.0
C283 C 0.24168 0.32967 0.12051 0.0
O284 O 0.20994 0.31471 0.10566 0.0
O285 O 0.15848 0.33883 0.27644 0.0
Mg286 Mg 0.92136 0.95569 0.57814 0.0
C287 C 0.88959 0.97782 0.38239 0.0
O288 O 0.86578 0.95277 0.39967 0.0
C289 C 0.88682 0.97387 0.77888 0.0
O290 O 0.87567 0.94083 0.77809 0.0
C291 C 0.89175 0.88651 0.48327 0.0
O292 O 0.92048 0.88782 0.42613 0.0
O293 O 0.88885 0.90797 0.55537 0.0
O294 O 0.91313 -0.01398 0.44671 0.0
O295 O 0.98022 0.95286 0.58547 0.0
C296 C 0.99643 0.98272 0.58156 0.0
O297 O 0.97717 0.01188 0.57542 0.0
O298 O 0.9044 -0.01386 0.70587 0.0
Mg299 Mg 0.27987 0.65118 0.82706 0.0
C300 C 0.23995 0.71897 0.8312 0.0
O301 O 0.21351 0.69564 0.8345 0.0
C302 C 0.32935 0.6032 0.71631 0.0
O303 O 0.29741 0.58834 0.70424 0.0
C304 C 0.24143 0.63121 0.02753 0.0
O305 O 0.21089 0.63278 0.97777 0.0
O306 O 0.27154 0.63532 0.98251 0.0
O307 O 0.27284 0.70833 0.82842 0.0
O308 O 0.24132 0.63858 0.71082 0.0
C309 C 0.25262 0.64568 0.62411 0.0
O310 O 0.28562 0.65811 0.61157 0.0
O311 O 0.33193 0.63069 0.77048 0.0
Mg312 Mg 0.42143 0.01931 0.5766 0.0
C313 C 0.49635 -0.00805 0.5805 0.0
O314 O 0.47689 0.96286 0.57469 0.0
C315 C 0.39191 0.08876 0.48266 0.0
O316 O 0.42058 0.08761 0.42526 0.0
C317 C 0.3868 0.00098 0.77726 0.0
O318 O 0.37568 0.03399 0.77655 0.0
O319 O 0.40438 -0.01122 0.70421 0.0
O320 O 0.48034 0.02188 0.58396 0.0
O321 O 0.41299 -0.01096 0.44509 0.0
C322 C 0.38963 -0.00259 0.38051 0.0
O323 O 0.36612 0.02271 0.3974 0.0
O324 O 0.38904 0.06711 0.55437 0.0
Mg325 Mg 0.71648 0.65098 0.32746 0.0
C326 C 0.74377 0.64561 0.12455 0.0
O327 O 0.71078 0.65794 0.11201 0.0
C328 C 0.75492 0.63119 0.52795 0.0
O329 O 0.78545 0.6329 0.47819 0.0
C330 C 0.66706 0.60289 0.21654 0.0
O331 O 0.699 0.5881 0.20462 0.0
O332 O 0.66445 0.63037 0.27073 0.0
O333 O 0.75506 0.63853 0.21127 0.0
O334 O 0.72339 0.70815 0.32876 0.0
C335 C 0.75625 0.71894 0.33144 0.0
O336 O 0.78274 0.69574 0.33471 0.0
O337 O 0.7248 0.63515 0.48292 0.0
Mg338 Mg 0.07472 0.9554 0.07771 0.0
C339 C -0.00019 0.98267 0.08166 0.0
O340 O 0.01924 0.01177 0.07559 0.0
C341 C 0.10418 0.88615 0.983 0.0
O342 O 0.0755 0.88744 0.92566 0.0
C343 C 0.10939 0.97356 0.27836 0.0
O344 O 0.12033 0.94049 0.27762 0.0
O345 O 0.09189 -0.01414 0.2053 0.0
O346 O 0.01584 0.95276 0.0853 0.0
O347 O 0.08306 -0.01433 0.94617 0.0
C348 C 0.10658 0.97745 0.88187 0.0
O349 O 0.1303 0.95238 0.89919 0.0
O350 O 0.10706 0.90763 0.05508 0.0
Mg351 Mg 0.78239 0.32334 0.82597 0.0
C352 C 0.75429 0.32976 0.62119 0.0
O353 O 0.78602 0.31485 0.60636 0.0
C354 C 0.74259 0.34287 0.02594 0.0
O355 O 0.7123 0.34112 0.9751 0.0
C356 C 0.84061 0.36342 0.71194 0.0
O357 O 0.81125 0.37925 0.67949 0.0
O358 O 0.83753 0.3392 0.77698 0.0
O359 O 0.74471 0.33802 0.7086 0.0
O360 O 0.77306 0.26648 0.82737 0.0
C361 C 0.74004 0.25617 0.82875 0.0
O362 O 0.71384 0.27971 0.82992 0.0
O363 O 0.77296 0.33908 0.98181 0.0
Mg364 Mg 0.38473 0.9639 0.08011 0.0
C365 C 0.46 -0.01028 0.08137 0.0
O366 O 0.44076 0.01894 0.08559 0.0
C367 C 0.35342 0.89444 0.17254 0.0
O368 O 0.38488 0.89028 0.21633 0.0
C369 C 0.38457 0.97976 0.86769 0.0
O370 O 0.40111 0.949 0.87145 0.0
O371 O 0.37164 -0.00717 0.94647 0.0
O372 O 0.4437 0.95989 0.07772 0.0
O373 O 0.37465 -0.00619 0.2111 0.0
C374 C 0.39164 0.98095 0.28411 0.0
O375 O 0.41381 0.95422 0.27066 0.0
O376 O 0.34929 0.9185 0.10761 0.0
Mg377 Mg 0.79602 0.64663 0.83728 0.0
C378 C 0.76831 0.64437 0.04036 0.0
O379 O 0.80241 0.65351 0.05281 0.0
C380 C 0.75572 0.63131 0.63711 0.0
O381 O 0.72579 0.63764 0.68659 0.0
C382 C 0.84022 0.59449 0.94972 0.0
O383 O 0.80696 0.58253 0.96067 0.0
O384 O 0.84562 0.62156 0.8954 0.0
O385 O 0.75634 0.63828 0.95372 0.0
O386 O 0.79513 0.70414 0.83334 0.0
C387 C 0.76354 0.71798 0.83109 0.0
O388 O 0.73478 0.69739 0.83068 0.0
O389 O 0.78609 0.63099 0.68231 0.0
Mg390 Mg 0.11149 0.01062 0.5811 0.0
C391 C 0.03623 0.98485 0.58256 0.0
O392 O 0.05544 0.95562 0.5871 0.0
C393 C 0.14259 0.08016 0.67279 0.0
O394 O 0.11113 0.08414 0.71676 0.0
C395 C 0.11172 -0.00525 0.36881 0.0
O396 O 0.09535 0.0256 0.37258 0.0
O397 O 0.12455 0.98159 0.44762 0.0
O398 O 0.05255 0.01466 0.57863 0.0
O399 O 0.12163 0.98093 0.71248 0.0
C400 C 0.10451 -0.00623 0.7853 0.0
O401 O 0.08217 0.02034 0.77151 0.0
O402 O 0.14681 0.05613 0.60786 0.0
Mg403 Mg 0.69954 0.32816 0.33513 0.0
C404 C 0.72834 0.33105 0.53983 0.0
O405 O 0.69527 0.31911 0.55442 0.0
C406 C 0.74118 0.34283 0.13527 0.0
O407 O 0.77089 0.33665 0.18589 0.0
C408 C 0.64585 0.37296 0.45137 0.0
O409 O 0.67667 0.38592 0.48403 0.0
O410 O 0.64643 0.34896 0.38523 0.0
O411 O 0.73868 0.3387 0.45259 0.0
O412 O 0.7024 0.27073 0.33211 0.0
C413 C 0.73409 0.25713 0.33188 0.0
O414 O 0.76273 0.27787 0.33333 0.0
O415 O 0.71058 0.34327 0.17954 0.0
loop_
_geom_bond_atom_site_label_1
_geom_bond_atom_site_label_2
_geom_bond_distance
_geom_bond_site_symmetry_2
_ccdc_geom_bond_type
Mg0 O7 2.141 . S
Mg0 O8 2.048 . S
Mg0 O9 2.048 . S
Mg0 O12 2.141 1_554 S
C1 O2 1.313 . S
C1 O8 1.195 . S
O2 C1 1.313 . S
C3 O4 1.245 . S
C3 O12 1.289 . S
O4 C3 1.245 . S
C5 O6 1.245 . S
C5 O7 1.289 . S
O6 C5 1.245 . S
O7 Mg0 2.141 . S
O7 C5 1.289 . S
O8 Mg0 2.048 . S
O8 C1 1.195 . S
O9 Mg0 2.048 . S
O9 C10 1.195 . S
C10 O9 1.195 . S
C10 O11 1.313 . S
O11 C10 1.313 . S
O12 Mg0 2.141 1_556 S
O12 C3 1.289 . S
Mg13 O20 2.141 . S
Mg13 O21 2.048 . S
Mg13 O22 2.048 . S
Mg13 O25 2.141 . S
C14 O15 1.313 . S
C14 O21 1.195 . S
O15 C14 1.313 . S
C16 O17 1.245 . S
C16 O25 1.289 . S
O17 C16 1.245 . S
C18 O19 1.245 . S
C18 O20 1.289 . S
O19 C18 1.245 . S
O20 Mg13 2.141 . S
O20 C18 1.289 . S
O21 Mg13 2.048 . S
O21 C14 1.195 . S
O22 Mg13 2.048 . S
O22 C23 1.195 . S
C23 O22 1.195 . S
C23 O24 1.313 . S
O24 C23 1.313 . S
O25 Mg13 2.141 . S
O25 C16 1.289 . S
Mg26 O33 2.141 . S
Mg26 O34 2.048 . S
Mg26 O35 2.048 . S
Mg26 O38 2.141 . S
C27 O28 1.313 . S
C27 O34 1.195 . S
O28 C27 1.313 . S
C29 O30 1.245 . S
C29 O38 1.289 . S
O30 C29 1.245 . S
C31 O32 1.245 . S
C31 O33 1.289 . S
O32 C31 1.245 . S
O33 Mg26 2.141 . S
O33 C31 1.289 . S
O34 Mg26 2.048 . S
O34 C27 1.195 . S
O35 Mg26 2.048 . S
O35 C36 1.195 . S
C36 O35 1.195 . S
C36 O37 1.313 . S
O37 C36 1.313 . S
O38 Mg26 2.141 . S
O38 C29 1.289 . S
Mg39 O46 2.141 . S
Mg39 O47 2.048 . S
Mg39 O48 2.048 . S
Mg39 O51 2.141 . S
C40 O41 1.313 . S
C40 O47 1.195 . S
O41 C40 1.313 . S
C42 O43 1.245 . S
C42 O51 1.289 . S
O43 C42 1.245 . S
C44 O45 1.245 . S
C44 O46 1.289 . S
O45 C44 1.245 . S
O46 Mg39 2.141 . S
O46 C44 1.289 . S
O47 Mg39 2.048 . S
O47 C40 1.195 . S
O48 Mg39 2.048 . S
O48 C49 1.195 1_556 S
C49 O48 1.195 1_554 S
C49 O50 1.313 . S
O50 C49 1.313 . S
O51 Mg39 2.141 . S
O51 C42 1.289 . S
Mg52 O59 2.141 . S
Mg52 O60 2.048 . S
Mg52 O61 2.048 . S
Mg52 O64 2.141 . S
C53 O54 1.313 . S
C53 O60 1.195 . S
O54 C53 1.313 . S
C55 O56 1.245 . S
C55 O64 1.289 . S
O56 C55 1.245 . S
C57 O58 1.245 . S
C57 O59 1.289 . S
O58 C57 1.245 . S
O59 Mg52 2.141 . S
O59 C57 1.289 . S
O60 Mg52 2.048 . S
O60 C53 1.195 . S
O61 Mg52 2.048 . S
O61 C62 1.195 . S
C62 O61 1.195 . S
C62 O63 1.313 . S
O63 C62 1.313 . S
O64 Mg52 2.141 . S
O64 C55 1.289 . S
Mg65 O72 2.141 . S
Mg65 O73 2.048 . S
Mg65 O74 2.048 . S
Mg65 O77 2.141 . S
C66 O67 1.313 . S
C66 O73 1.195 . S
O67 C66 1.313 . S
C68 O69 1.245 . S
C68 O77 1.289 . S
O69 C68 1.245 . S
C70 O71 1.245 1_554 S
C70 O72 1.289 1_554 S
O71 C70 1.245 1_556 S
O72 Mg65 2.141 . S
O72 C70 1.289 1_556 S
O73 Mg65 2.048 . S
O73 C66 1.195 . S
O74 Mg65 2.048 . S
O74 C75 1.195 . S
C75 O74 1.195 . S
C75 O76 1.313 . S
O76 C75 1.313 . S
O77 Mg65 2.141 . S
O77 C68 1.289 . S
Mg78 O85 2.141 . S
Mg78 O86 2.048 1_554 S
Mg78 O87 2.048 . S
Mg78 O90 2.141 . S
C79 O80 1.313 . S
C79 O86 1.195 . S
O80 C79 1.313 . S
C81 O82 1.245 . S
C81 O90 1.289 . S
O82 C81 1.245 . S
C83 O84 1.245 . S
C83 O85 1.289 . S
O84 C83 1.245 . S
O85 Mg78 2.141 . S
O85 C83 1.289 . S
O86 Mg78 2.048 1_556 S
O86 C79 1.195 . S
O87 Mg78 2.048 . S
O87 C88 1.195 . S
C88 O87 1.195 . S
C88 O89 1.313 . S
O89 C88 1.313 . S
O90 Mg78 2.141 . S
O90 C81 1.289 . S
Mg91 O98 2.141 . S
Mg91 O99 2.048 . S
Mg91 O100 2.048 . S
Mg91 O103 2.141 . S
C92 O93 1.313 . S
C92 O99 1.195 . S
O93 C92 1.313 . S
C94 O95 1.245 . S
C94 O103 1.289 . S
O95 C94 1.245 . S
C96 O97 1.245 . S
C96 O98 1.289 . S
O97 C96 1.245 . S
O98 Mg91 2.141 . S
O98 C96 1.289 . S
O99 Mg91 2.048 . S
O99 C92 1.195 . S
O100 Mg91 2.048 . S
O100 C101 1.195 . S
C101 O100 1.195 . S
C101 O102 1.313 . S
O102 C101 1.313 . S
O103 Mg91 2.141 . S
O103 C94 1.289 . S
Mg104 O111 2.141 . S
Mg104 O112 2.048 . S
Mg104 O113 2.048 1_554 S
Mg104 O116 2.141 . S
C105 O106 1.313 . S
C105 O112 1.195 . S
O106 C105 1.313 . S
C107 O108 1.245 . S
C107 O116 1.289 . S
O108 C107 1.245 . S
C109 O110 1.245 . S
C109 O111 1.289 . S
O110 C109 1.245 . S
O111 Mg104 2.141 . S
O111 C109 1.289 . S
O112 Mg104 2.048 . S
O112 C105 1.195 . S
O113 Mg104 2.048 1_556 S
O113 C114 1.195 . S
C114 O113 1.195 . S
C114 O115 1.313 . S
O115 C114 1.313 . S
O116 Mg104 2.141 . S
O116 C107 1.289 . S
Mg117 O124 2.141 . S
Mg117 O125 2.048 . S
Mg117 O126 2.048 . S
Mg117 O129 2.141 . S
C118 O119 1.313 . S
C118 O125 1.195 . S
O119 C118 1.313 . S
C120 O121 1.245 1_554 S
C120 O129 1.289 1_554 S
O121 C120 1.245 1_556 S
C122 O123 1.245 . S
C122 O124 1.289 . S
O123 C122 1.245 . S
O124 Mg117 2.141 . S
O124 C122 1.289 . S
O125 Mg117 2.048 . S
O125 C118 1.195 . S
O126 Mg117 2.048 . S
O126 C127 1.195 . S
C127 O126 1.195 . S
C127 O128 1.313 . S
O128 C127 1.313 . S
O129 Mg117 2.141 . S
O129 C120 1.289 1_556 S
Mg130 O137 2.141 . S
Mg130 O138 2.048 . S
Mg130 O139 2.048 . S
Mg130 O142 2.141 . S
C131 O132 1.313 . S
C131 O138 1.195 . S
O132 C131 1.313 . S
C133 O134 1.245 . S
C133 O142 1.289 . S
O134 C133 1.245 . S
C135 O136 1.245 . S
C135 O137 1.289 . S
O136 C135 1.245 . S
O137 Mg130 2.141 . S
O137 C135 1.289 . S
O138 Mg130 2.048 . S
O138 C131 1.195 . S
O139 Mg130 2.048 . S
O139 C140 1.195 . S
C140 O139 1.195 . S
C140 O141 1.313 . S
O141 C140 1.313 . S
O142 Mg130 2.141 . S
O142 C133 1.289 . S
Mg143 O150 2.141 . S
Mg143 O151 2.048 . S
Mg143 O152 2.048 . S
Mg143 O155 2.141 . S
C144 O145 1.313 . S
C144 O151 1.195 . S
O145 C144 1.313 . S
C146 O147 1.245 . S
C146 O155 1.289 . S
O147 C146 1.245 . S
C148 O149 1.245 . S
C148 O150 1.289 . S
O149 C148 1.245 . S
O150 Mg143 2.141 . S
O150 C148 1.289 . S
O151 Mg143 2.048 . S
O151 C144 1.195 . S
O152 Mg143 2.048 . S
O152 C153 1.195 . S
C153 O152 1.195 . S
C153 O154 1.313 . S
O154 C153 1.313 . S
O155 Mg143 2.141 . S
O155 C146 1.289 . S
Mg156 O163 2.141 . S
Mg156 O164 2.048 . S
Mg156 O165 2.048 . S
Mg156 O168 2.141 . S
C157 O158 1.313 . S
C157 O164 1.195 . S
O158 C157 1.313 . S
C159 O160 1.245 . S
C159 O168 1.289 . S
O160 C159 1.245 . S
C161 O162 1.245 . S
C161 O163 1.289 . S
O162 C161 1.245 . S
O163 Mg156 2.141 . S
O163 C161 1.289 . S
O164 Mg156 2.048 . S
O164 C157 1.195 . S
O165 Mg156 2.048 . S
O165 C166 1.195 . S
C166 O165 1.195 . S
C166 O167 1.313 . S
O167 C166 1.313 . S
O168 Mg156 2.141 . S
O168 C159 1.289 . S
Mg169 O176 2.141 . S
Mg169 O177 2.048 . S
Mg169 O178 2.048 . S
Mg169 O181 2.141 . S
C170 O171 1.313 . S
C170 O177 1.195 . S
O171 C170 1.313 . S
C172 O173 1.245 . S
C172 O181 1.289 . S
O173 C172 1.245 . S
C174 O175 1.245 . S
C174 O176 1.289 . S
O175 C174 1.245 . S
O176 Mg169 2.141 . S
O176 C174 1.289 . S
O177 Mg169 2.048 . S
O177 C170 1.195 . S
O178 Mg169 2.048 . S
O178 C179 1.195 . S
C179 O178 1.195 . S
C179 O180 1.313 . S
O180 C179 1.313 . S
O181 Mg169 2.141 . S
O181 C172 1.289 . S
Mg182 O189 2.141 1_554 S
Mg182 O190 2.048 . S
Mg182 O191 2.048 . S
Mg182 O194 2.141 . S
C183 O184 1.313 . S
C183 O190 1.195 . S
O184 C183 1.313 . S
C185 O186 1.245 . S
C185 O194 1.289 . S
O186 C185 1.245 . S
C187 O188 1.245 . S
C187 O189 1.289 . S
O188 C187 1.245 . S
O189 Mg182 2.141 1_556 S
O189 C187 1.289 . S
O190 Mg182 2.048 . S
O190 C183 1.195 . S
O191 Mg182 2.048 . S
O191 C192 1.195 . S
C192 O191 1.195 . S
C192 O193 1.313 . S
O193 C192 1.313 . S
O194 Mg182 2.141 . S
O194 C185 1.289 . S
Mg195 O202 2.141 . S
Mg195 O203 2.048 . S
Mg195 O204 2.048 . S
Mg195 O207 2.141 . S
C196 O197 1.313 . S
C196 O203 1.195 1_554 S
O197 C196 1.313 . S
C198 O199 1.245 . S
C198 O207 1.289 . S
O199 C198 1.245 . S
C200 O201 1.245 . S
C200 O202 1.289 . S
O201 C200 1.245 . S
O202 Mg195 2.141 . S
O202 C200 1.289 . S
O203 Mg195 2.048 . S
O203 C196 1.195 1_556 S
O204 Mg195 2.048 . S
O204 C205 1.195 . S
C205 O204 1.195 . S
C205 O206 1.313 . S
O206 C205 1.313 . S
O207 Mg195 2.141 . S
O207 C198 1.289 . S
Mg208 O215 2.141 1_545 S
Mg208 O216 2.048 . S
Mg208 O217 2.048 . S
Mg208 O220 2.141 . S
C209 O210 1.313 . S
C209 O216 1.195 1_565 S
O210 C209 1.313 . S
C211 O212 1.245 . S
C211 O220 1.289 1_565 S
O212 C211 1.245 . S
C213 O214 1.245 . S
C213 O215 1.289 . S
O214 C213 1.245 . S
O215 Mg208 2.141 1_565 S
O215 C213 1.289 . S
O216 Mg208 2.048 . S
O216 C209 1.195 1_545 S
O217 Mg208 2.048 . S
O217 C218 1.195 . S
C218 O217 1.195 . S
C218 O219 1.313 1_545 S
O219 C218 1.313 1_565 S
O220 Mg208 2.141 . S
O220 C211 1.289 1_545 S
Mg221 O228 2.141 . S
Mg221 O229 2.048 . S
Mg221 O230 2.048 . S
Mg221 O233 2.141 . S
C222 O223 1.313 . S
C222 O229 1.195 . S
O223 C222 1.313 . S
C224 O225 1.245 . S
C224 O233 1.289 . S
O225 C224 1.245 . S
C226 O227 1.245 . S
C226 O228 1.289 . S
O227 C226 1.245 . S
O228 Mg221 2.141 . S
O228 C226 1.289 . S
O229 Mg221 2.048 . S
O229 C222 1.195 . S
O230 Mg221 2.048 . S
O230 C231 1.195 1_556 S
C231 O230 1.195 1_554 S
C231 O232 1.313 . S
O232 C231 1.313 . S
O233 Mg221 2.141 . S
O233 C224 1.289 . S
Mg234 O241 2.141 1_565 S
Mg234 O242 2.048 . S
Mg234 O243 2.048 . S
Mg234 O246 2.141 1_554 S
C235 O236 1.313 . S
C235 O242 1.195 1_545 S
O236 C235 1.313 . S
C237 O238 1.245 . S
C237 O246 1.289 1_545 S
O238 C237 1.245 . S
C239 O240 1.245 . S
C239 O241 1.289 . S
O240 C239 1.245 . S
O241 Mg234 2.141 1_545 S
O241 C239 1.289 . S
O242 Mg234 2.048 . S
O242 C235 1.195 1_565 S
O243 Mg234 2.048 . S
O243 C244 1.195 . S
C244 O243 1.195 . S
C244 O245 1.313 1_565 S
O245 C244 1.313 1_545 S
O246 Mg234 2.141 1_556 S
O246 C237 1.289 1_565 S
Mg247 O254 2.141 . S
Mg247 O255 2.048 . S
Mg247 O256 2.048 . S
Mg247 O259 2.141 . S
C248 O249 1.313 . S
C248 O255 1.195 . S
O249 C248 1.313 . S
C250 O251 1.245 . S
C250 O259 1.289 . S
O251 C250 1.245 . S
C252 O253 1.245 . S
C252 O254 1.289 . S
O253 C252 1.245 . S
O254 Mg247 2.141 . S
O254 C252 1.289 . S
O255 Mg247 2.048 . S
O255 C248 1.195 . S
O256 Mg247 2.048 . S
O256 C257 1.195 . S
C257 O256 1.195 . S
C257 O258 1.313 . S
O258 C257 1.313 . S
O259 Mg247 2.141 . S
O259 C250 1.289 . S
Mg260 O267 2.141 1_565 S
Mg260 O268 2.048 1_554 S
Mg260 O269 2.048 . S
Mg260 O272 2.141 . S
C261 O262 1.313 . S
C261 O268 1.195 1_545 S
O262 C261 1.313 . S
C263 O264 1.245 . S
C263 O272 1.289 1_545 S
O264 C263 1.245 . S
C265 O266 1.245 . S
C265 O267 1.289 . S
O266 C265 1.245 . S
O267 Mg260 2.141 1_545 S
O267 C265 1.289 . S
O268 Mg260 2.048 1_556 S
O268 C261 1.195 1_565 S
O269 Mg260 2.048 . S
O269 C270 1.195 . S
C270 O269 1.195 . S
C270 O271 1.313 1_565 S
O271 C270 1.313 1_545 S
O272 Mg260 2.141 . S
O272 C263 1.289 1_565 S
Mg273 O280 2.141 . S
Mg273 O281 2.048 . S
Mg273 O282 2.048 . S
Mg273 O285 2.141 . S
C274 O275 1.313 . S
C274 O281 1.195 . S
O275 C274 1.313 . S
C276 O277 1.245 . S
C276 O285 1.289 . S
O277 C276 1.245 . S
C278 O279 1.245 . S
C278 O280 1.289 . S
O279 C278 1.245 . S
O280 Mg273 2.141 . S
O280 C278 1.289 . S
O281 Mg273 2.048 . S
O281 C274 1.195 . S
O282 Mg273 2.048 . S
O282 C283 1.195 . S
C283 O282 1.195 . S
C283 O284 1.313 . S
O284 C283 1.313 . S
O285 Mg273 2.141 . S
O285 C276 1.289 . S
Mg286 O293 2.141 1_545 S
Mg286 O294 2.048 . S
Mg286 O295 2.048 . S
Mg286 O298 2.141 . S
C287 O288 1.313 . S
C287 O294 1.195 1_565 S
O288 C287 1.313 . S
C289 O290 1.245 . S
C289 O298 1.289 1_565 S
O290 C289 1.245 . S
C291 O292 1.245 . S
C291 O293 1.289 . S
O292 C291 1.245 . S
O293 Mg286 2.141 1_565 S
O293 C291 1.289 . S
O294 Mg286 2.048 . S
O294 C287 1.195 1_545 S
O295 Mg286 2.048 . S
O295 C296 1.195 . S
C296 O295 1.195 . S
C296 O297 1.313 1_545 S
O297 C296 1.313 1_565 S
O298 Mg286 2.141 . S
O298 C289 1.289 1_545 S
Mg299 O306 2.141 . S
Mg299 O307 2.048 . S
Mg299 O308 2.048 . S
Mg299 O311 2.141 . S
C300 O301 1.313 . S
C300 O307 1.195 . S
O301 C300 1.313 . S
C302 O303 1.245 . S
C302 O311 1.289 . S
O303 C302 1.245 . S
C304 O305 1.245 1_554 S
C304 O306 1.289 1_554 S
O305 C304 1.245 1_556 S
O306 Mg299 2.141 . S
O306 C304 1.289 1_556 S
O307 Mg299 2.048 . S
O307 C300 1.195 . S
O308 Mg299 2.048 . S
O308 C309 1.195 . S
C309 O308 1.195 . S
C309 O310 1.313 . S
O310 C309 1.313 . S
O311 Mg299 2.141 . S
O311 C302 1.289 . S
Mg312 O319 2.141 . S
Mg312 O320 2.048 . S
Mg312 O321 2.048 . S
Mg312 O324 2.141 1_565 S
C313 O314 1.313 1_565 S
C313 O320 1.195 . S
O314 C313 1.313 1_545 S
C315 O316 1.245 . S
C315 O324 1.289 . S
O316 C315 1.245 . S
C317 O318 1.245 . S
C317 O319 1.289 1_545 S
O318 C317 1.245 . S
O319 Mg312 2.141 . S
O319 C317 1.289 1_565 S
O320 Mg312 2.048 . S
O320 C313 1.195 . S
O321 Mg312 2.048 . S
O321 C322 1.195 1_565 S
C322 O321 1.195 1_545 S
C322 O323 1.313 . S
O323 C322 1.313 . S
O324 Mg312 2.141 1_545 S
O324 C315 1.289 . S
Mg325 O332 2.141 . S
Mg325 O333 2.048 . S
Mg325 O334 2.048 . S
Mg325 O337 2.141 . S
C326 O327 1.313 . S
C326 O333 1.195 . S
O327 C326 1.313 . S
C328 O329 1.245 . S
C328 O337 1.289 . S
O329 C328 1.245 . S
C330 O331 1.245 . S
C330 O332 1.289 . S
O331 C330 1.245 . S
O332 Mg325 2.141 . S
O332 C330 1.289 . S
O333 Mg325 2.048 . S
O333 C326 1.195 . S
O334 Mg325 2.048 . S
O334 C335 1.195 . S
C335 O334 1.195 . S
C335 O336 1.313 . S
O336 C335 1.313 . S
O337 Mg325 2.141 . S
O337 C328 1.289 . S
Mg338 O345 2.141 . S
Mg338 O346 2.048 . S
Mg338 O347 2.048 1_554 S
Mg338 O350 2.141 1_545 S
C339 O340 1.313 1_545 S
C339 O346 1.195 . S
O340 C339 1.313 1_565 S
C341 O342 1.245 . S
C341 O350 1.289 . S
O342 C341 1.245 . S
C343 O344 1.245 . S
C343 O345 1.289 1_565 S
O344 C343 1.245 . S
O345 Mg338 2.141 . S
O345 C343 1.289 1_545 S
O346 Mg338 2.048 . S
O346 C339 1.195 . S
O347 Mg338 2.048 1_556 S
O347 C348 1.195 1_545 S
C348 O347 1.195 1_565 S
C348 O349 1.313 . S
O349 C348 1.313 . S
O350 Mg338 2.141 1_565 S
O350 C341 1.289 . S
Mg351 O358 2.141 . S
Mg351 O359 2.048 . S
Mg351 O360 2.048 . S
Mg351 O363 2.141 . S
C352 O353 1.313 . S
C352 O359 1.195 . S
O353 C352 1.313 . S
C354 O355 1.245 1_554 S
C354 O363 1.289 1_554 S
O355 C354 1.245 1_556 S
C356 O357 1.245 . S
C356 O358 1.289 . S
O357 C356 1.245 . S
O358 Mg351 2.141 . S
O358 C356 1.289 . S
O359 Mg351 2.048 . S
O359 C352 1.195 . S
O360 Mg351 2.048 . S
O360 C361 1.195 . S
C361 O360 1.195 . S
C361 O362 1.313 . S
O362 C361 1.313 . S
O363 Mg351 2.141 . S
O363 C354 1.289 1_556 S
Mg364 O371 2.141 1_554 S
Mg364 O372 2.048 . S
Mg364 O373 2.048 . S
Mg364 O376 2.141 1_545 S
C365 O366 1.313 1_545 S
C365 O372 1.195 . S
O366 C365 1.313 1_565 S
C367 O368 1.245 . S
C367 O376 1.289 . S
O368 C367 1.245 . S
C369 O370 1.245 . S
C369 O371 1.289 1_565 S
O370 C369 1.245 . S
O371 Mg364 2.141 1_556 S
O371 C369 1.289 1_545 S
O372 Mg364 2.048 . S
O372 C365 1.195 . S
O373 Mg364 2.048 . S
O373 C374 1.195 1_545 S
C374 O373 1.195 1_565 S
C374 O375 1.313 . S
O375 C374 1.313 . S
O376 Mg364 2.141 1_565 S
O376 C367 1.289 . S
Mg377 O384 2.141 . S
Mg377 O385 2.048 . S
Mg377 O386 2.048 . S
Mg377 O389 2.141 . S
C378 O379 1.313 . S
C378 O385 1.195 1_554 S
O379 C378 1.313 . S
C380 O381 1.245 . S
C380 O389 1.289 . S
O381 C380 1.245 . S
C382 O383 1.245 . S
C382 O384 1.289 . S
O383 C382 1.245 . S
O384 Mg377 2.141 . S
O384 C382 1.289 . S
O385 Mg377 2.048 . S
O385 C378 1.195 1_556 S
O386 Mg377 2.048 . S
O386 C387 1.195 . S
C387 O386 1.195 . S
C387 O388 1.313 . S
O388 C387 1.313 . S
O389 Mg377 2.141 . S
O389 C380 1.289 . S
Mg390 O397 2.141 . S
Mg390 O398 2.048 . S
Mg390 O399 2.048 . S
Mg390 O402 2.141 1_565 S
C391 O392 1.313 1_565 S
C391 O398 1.195 . S
O392 C391 1.313 1_545 S
C393 O394 1.245 . S
C393 O402 1.289 . S
O394 C393 1.245 . S
C395 O396 1.245 . S
C395 O397 1.289 1_545 S
O396 C395 1.245 . S
O397 Mg390 2.141 . S
O397 C395 1.289 1_565 S
O398 Mg390 2.048 . S
O398 C391 1.195 . S
O399 Mg390 2.048 . S
O399 C400 1.195 1_565 S
C400 O399 1.195 1_545 S
C400 O401 1.313 . S
O401 C400 1.313 . S
O402 Mg390 2.141 1_545 S
O402 C393 1.289 . S
Mg403 O410 2.141 . S
Mg403 O411 2.048 . S
Mg403 O412 2.048 . S
Mg403 O415 2.141 . S
C404 O405 1.313 . S
C404 O411 1.195 . S
O405 C404 1.313 . S
C406 O407 1.245 . S
C406 O415 1.289 . S
O407 C406 1.245 . S
C408 O409 1.245 . S
C408 O410 1.289 . S
O409 C408 1.245 . S
O410 Mg403 2.141 . S
O410 C408 1.289 . S
O411 Mg403 2.048 . S
O411 C404 1.195 . S
O412 Mg403 2.048 . S
O412 C413 1.195 . S
C413 O412 1.195 . S
C413 O414 1.313 . S
O414 C413 1.313 . S
O415 Mg403 2.141 . S
O415 C406 1.289 . S
C105 C10 2.506 1_655 S
C14 C335 2.971 . S
C36 C131 2.506 . S
C40 C361 2.971 . S
C62 C157 2.506 1_455 S
C387 C66 2.971 . S
C183 C88 2.506 . S
C413 C92 2.971 . S
C222 C127 2.971 . S
C153 C248 2.971 . S
C179 C274 2.971 . S
C300 C205 2.971 . S
C313 C218 2.506 1_565 S
C244 C339 2.506 1_665 S
C270 C365 2.506 1_565 S
C391 C296 2.506 1_465 S
C3 C55 2.193 . S
C70 C18 1.793 . S
C81 C29 2.193 . S
C44 C96 1.793 . S
C109 C161 2.193 . S
C120 C172 1.793 . S
C187 C135 2.193 . S
C198 C146 1.793 . S
C263 C211 2.193 1_545 S
C278 C226 1.793 . S
C237 C289 2.193 1_545 S
C304 C252 1.793 . S
C369 C317 2.193 1_565 S
C328 C380 1.793 . S
C395 C343 2.193 1_545 S
C406 C354 1.793 . S
C53 C1 0.801 . S
C75 C23 0.577 . S
C27 C79 0.802 . S
C101 C49 0.577 . S
C166 C114 0.802 . S
C118 C170 0.577 . S
C192 C140 0.801 . S
C196 C144 0.577 . S
C209 C261 0.801 1_565 S
C283 C231 0.577 . S
C287 C235 0.802 1_565 S
C309 C257 0.577 . S
C374 C322 0.802 1_565 S
C326 C378 0.577 . S
C348 C400 0.801 1_565 S
C352 C404 0.577 . S
C5 C276 2.532 . S
C291 C16 2.532 . S
C31 C302 2.532 . S
C42 C265 2.532 1_556 S
C250 C57 2.532 . S
C213 C68 2.532 . S
C224 C83 2.532 1_556 S
C94 C239 2.532 . S
C107 C382 2.532 1_554 S
C393 C122 2.532 . S
C408 C133 2.532 . S
C367 C148 2.532 . S
C356 C159 2.532 . S
C315 C174 2.532 . S
C185 C330 2.532 . S
C200 C341 2.532 1_556 S
