# Generated by pormake.
# Topology rac, (4)-cn, num edge types: 1
# Building blocks:
#     Node 0, Type 0, BuildingBlock: CEKHIL_clean_sbu_0, # of connection points: 4
#     Node 1, Type 0, BuildingBlock: CEKHIL_clean_sbu_0, # of connection points: 4
#     Node 2, Type 0, BuildingBlock: CEKHIL_clean_sbu_0, # of connection points: 4
#     Node 3, Type 0, BuildingBlock: CEKHIL_clean_sbu_0, # of connection points: 4
#     Node 4, Type 0, BuildingBlock: CEKHIL_clean_sbu_0, # of connection points: 4
#     Node 5, Type 0, BuildingBlock: CEKHIL_clean_sbu_0, # of connection points: 4
#     Node 6, Type 0, BuildingBlock: CEKHIL_clean_sbu_0, # of connection points: 4
#     Node 7, Type 0, BuildingBlock: CEKHIL_clean_sbu_0, # of connection points: 4
#     Edge 8, Type (0, 0), BuildingBlock: FUNLAD_clean_linker_0, # of connection points: 2
#     Edge 9, Type (0, 0), BuildingBlock: FUNLAD_clean_linker_0, # of connection points: 2
#     Edge 10, Type (0, 0), BuildingBlock: FUNLAD_clean_linker_0, # of connection points: 2
#     Edge 11, Type (0, 0), BuildingBlock: FUNLAD_clean_linker_0, # of connection points: 2
#     Edge 12, Type (0, 0), BuildingBlock: FUNLAD_clean_linker_0, # of connection points: 2
#     Edge 13, Type (0, 0), BuildingBlock: FUNLAD_clean_linker_0, # of connection points: 2
#     Edge 14, Type (0, 0), BuildingBlock: FUNLAD_clean_linker_0, # of connection points: 2
#     Edge 15, Type (0, 0), BuildingBlock: FUNLAD_clean_linker_0, # of connection points: 2
#     Edge 16, Type (0, 0), BuildingBlock: FUNLAD_clean_linker_0, # of connection points: 2
#     Edge 17, Type (0, 0), BuildingBlock: FUNLAD_clean_linker_0, # of connection points: 2
#     Edge 18, Type (0, 0), BuildingBlock: FUNLAD_clean_linker_0, # of connection points: 2
#     Edge 19, Type (0, 0), BuildingBlock: FUNLAD_clean_linker_0, # of connection points: 2
#     Edge 20, Type (0, 0), BuildingBlock: FUNLAD_clean_linker_0, # of connection points: 2
#     Edge 21, Type (0, 0), BuildingBlock: FUNLAD_clean_linker_0, # of connection points: 2
#     Edge 22, Type (0, 0), BuildingBlock: FUNLAD_clean_linker_0, # of connection points: 2
#     Edge 23, Type (0, 0), BuildingBlock: FUNLAD_clean_linker_0, # of connection points: 2
# Relax obj value: 0.231
# Max RMSD: 0.070
# Mean RMSD: 0.070
data_MOF--net-rac--node1-CEKHIL_clean_sbu_0--edge1-FUNLAD_clean_linker_0
_symmetry_space_group_name_H-M    P1
_symmetry_Int_Tables_number       1
_symmetry_cell_setting            triclinic
loop_
_symmetry_equiv_pos_as_xyz
'x, y, z'
_cell_length_a     47.730621
_cell_length_b     24.572606
_cell_length_c     41.558961
_cell_angle_alpha  89.996131
_cell_angle_beta   90.010992
_cell_angle_gamma 89.970408
loop_
_atom_site_label
_atom_site_type_symbol
_atom_site_fract_x
_atom_site_fract_y
_atom_site_fract_z
_atom_type_partial_charge
Co0 Co 0.3557 0.3113 0.05138 0.0
O1 O 0.37784 0.37639 0.05284 0.0
O2 O 0.38728 0.30698 0.02111 0.0
C3 C 0.35345 0.30206 0.10535 0.0
O4 O 0.33616 0.23674 0.04528 0.0
Co5 Co 0.29608 0.31723 0.08142 0.0
O6 O 0.29941 0.23722 0.07942 0.0
C7 C 0.30566 0.36065 0.0161 0.0
C8 C 0.39409 0.35546 0.03132 0.0
C9 C 0.31563 0.21255 0.05991 0.0
O10 O 0.33127 0.34457 0.01714 0.0
O11 O 0.28865 0.35602 0.03978 0.0
O12 O 0.37485 0.28358 0.08947 0.0
O13 O 0.3355 0.32928 0.08857 0.0
Co14 Co 0.14804 0.68507 0.04647 0.0
O15 O 0.12714 0.61857 0.05048 0.0
O16 O 0.11547 0.68519 0.01762 0.0
C17 C 0.15228 0.69872 0.09996 0.0
O18 O 0.1656 0.76059 0.03761 0.0
Co19 Co 0.20902 0.68506 0.07351 0.0
O20 O 0.20698 0.76362 0.06417 0.0
C21 C 0.19752 0.63555 0.01022 0.0
C22 C 0.10989 0.63697 0.02914 0.0
C23 C 0.188 0.78577 0.04708 0.0
O24 O 0.17183 0.65105 0.01185 0.0
O25 O 0.21519 0.64231 0.03306 0.0
O26 O 0.12985 0.71417 0.08481 0.0
O27 O 0.17005 0.67147 0.08297 0.0
Co28 Co 0.37275 0.21997 0.45169 0.0
O29 O 0.39539 0.15674 0.44377 0.0
O30 O 0.40308 0.21445 0.48338 0.0
C31 C 0.37156 0.24646 0.39964 0.0
O32 O 0.35267 0.29055 0.46579 0.0
Co33 Co 0.31381 0.22441 0.4188 0.0
O34 O 0.31451 0.3004 0.43401 0.0
C35 C 0.32174 0.16149 0.47886 0.0
C36 C 0.41051 0.17013 0.4683 0.0
C37 C 0.3311 0.31767 0.45571 0.0
O38 O 0.34751 0.1763 0.48055 0.0
O39 O 0.3055 0.17395 0.45545 0.0
O40 O 0.39262 0.25974 0.41782 0.0
O41 O 0.35346 0.21447 0.41269 0.0
Co42 Co 0.14275 0.794 0.44588 0.0
O43 O 0.12292 0.86031 0.4372 0.0
O44 O 0.11231 0.80496 0.47707 0.0
C45 C 0.14304 0.76622 0.39405 0.0
O46 O 0.15997 0.72115 0.46076 0.0
Co47 Co 0.20144 0.78015 0.41358 0.0
O48 O 0.19703 0.70431 0.42834 0.0
C49 C 0.19579 0.84495 0.47329 0.0
C50 C 0.107 0.85001 0.46155 0.0
C51 C 0.18009 0.6903 0.45049 0.0
O52 O 0.16948 0.83421 0.47468 0.0
O53 O 0.21165 0.8297 0.45011 0.0
O54 O 0.12151 0.75655 0.41226 0.0
O55 O 0.16235 0.79575 0.40692 0.0
Co56 Co 0.63253 0.71124 0.9488 0.0
O57 O 0.61178 0.64453 0.94481 0.0
O58 O 0.60342 0.70637 0.98197 0.0
C59 C 0.63034 0.7296 0.89559 0.0
O60 O 0.65084 0.78562 0.95919 0.0
Co61 Co 0.68917 0.72432 0.91271 0.0
O62 O 0.68221 0.80251 0.92002 0.0
C63 C 0.68704 0.66853 0.97612 0.0
C64 C 0.59682 0.65965 0.96911 0.0
C65 C 0.66823 0.81758 0.94449 0.0
O66 O 0.66036 0.67457 0.9779 0.0
O67 O 0.70191 0.68424 0.9522 0.0
O68 O 0.60993 0.74356 0.91452 0.0
O69 O 0.6505 0.70295 0.90898 0.0
Co70 Co 0.86965 0.28764 0.94806 0.0
O71 O 0.89796 0.34112 0.93968 0.0
O72 O 0.89915 0.28514 0.98107 0.0
C73 C 0.86701 0.25865 0.8966 0.0
O74 O 0.8424 0.22665 0.96215 0.0
Co75 Co 0.81261 0.30904 0.91259 0.0
O76 O 0.80301 0.23813 0.93237 0.0
C77 C 0.82983 0.37724 0.96691 0.0
C78 C 0.91077 0.3253 0.96537 0.0
C79 C 0.81742 0.21222 0.95323 0.0
O80 O 0.84851 0.34212 0.97474 0.0
O81 O 0.81567 0.37511 0.9408 0.0
O82 O 0.88628 0.23924 0.91551 0.0
O83 O 0.85229 0.29747 0.9086 0.0
Co84 Co 0.63563 0.78054 0.54883 0.0
O85 O 0.61297 0.84365 0.55718 0.0
O86 O 0.60617 0.7882 0.51624 0.0
C87 C 0.63538 0.75187 0.60038 0.0
O88 O 0.65613 0.71086 0.53378 0.0
Co89 Co 0.69363 0.77064 0.58301 0.0
O90 O 0.68941 0.69334 0.57084 0.0
C91 C 0.68765 0.83853 0.52439 0.0
C92 C 0.59849 0.83181 0.53187 0.0
C93 C 0.67518 0.67973 0.54623 0.0
O94 O 0.66172 0.82532 0.52179 0.0
O95 O 0.70337 0.82305 0.54768 0.0
O96 O 0.61468 0.73969 0.58141 0.0
O97 O 0.65414 0.78359 0.58835 0.0
Co98 Co 0.87255 0.21475 0.54965 0.0
O99 O 0.89207 0.14781 0.55748 0.0
O100 O 0.90226 0.20336 0.51757 0.0
C101 C 0.87379 0.24014 0.60183 0.0
O102 O 0.85521 0.28792 0.53525 0.0
Co103 Co 0.81518 0.23411 0.58329 0.0
O104 O 0.82403 0.3109 0.57346 0.0
C105 C 0.81831 0.16781 0.52363 0.0
C106 C 0.90759 0.15803 0.53279 0.0
C107 C 0.83807 0.32227 0.54834 0.0
O108 O 0.84486 0.17567 0.52167 0.0
O109 O 0.80318 0.18569 0.54684 0.0
O110 O 0.89486 0.2505 0.58303 0.0
O111 O 0.85365 0.21273 0.58902 0.0
C112 C 0.29256 0.12561 0.07552 0.0
C113 C 0.30744 0.15558 0.05224 0.0
C114 C 0.27842 0.07785 0.06734 0.0
C115 C 0.27867 0.05849 0.03553 0.0
C116 C 0.29536 0.08589 0.01273 0.0
C117 C 0.30951 0.13426 0.02094 0.0
C118 C 0.26208 0.00931 0.02617 0.0
C119 C 0.23718 0.99692 0.04009 0.0
C120 C 0.221 0.94516 0.03544 0.0
C121 C 0.19664 0.93683 0.05402 0.0
C122 C 0.18341 0.88586 0.055 0.0
C123 C 0.19408 0.8422 0.03711 0.0
H124 H 0.24866 0.90632 0.00065 0.0
C125 C 0.21704 0.85141 0.01664 0.0
C126 C 0.2303 0.90227 0.01563 0.0
H127 H 0.22606 0.81794 0.00317 0.0
H128 H 0.29084 0.14039 0.10001 0.0
H129 H 0.26698 0.05658 0.08598 0.0
H130 H 0.29646 0.0712 0.98819 0.0
H131 H 0.32062 0.15647 0.0024 0.0
H132 H 0.27071 0.98368 0.00742 0.0
H133 H 0.22849 0.02567 0.05728 0.0
H134 H 0.18879 0.9689 0.06948 0.0
H135 H 0.16629 0.87947 0.07169 0.0
C136 C 0.21004 0.6444 0.49046 0.0
C137 C 0.18821 0.64049 0.46786 0.0
C138 C 0.22633 0.59882 0.49822 0.0
C139 C 0.22096 0.5483 0.48361 0.0
C140 C 0.19752 0.54342 0.46327 0.0
C141 C 0.18158 0.58933 0.455 0.0
C142 C 0.24032 0.50109 0.48744 0.0
C143 C 0.26852 0.50666 0.48864 0.0
C144 C 0.28802 0.45938 0.48609 0.0
C145 C 0.31295 0.46464 0.46824 0.0
C146 C 0.32934 0.41876 0.461 0.0
C147 C 0.32148 0.36722 0.47234 0.0
H148 H 0.26276 0.40314 0.5139 0.0
C149 C 0.29797 0.36285 0.49254 0.0
C150 C 0.28139 0.40839 0.49936 0.0
H151 H 0.29116 0.32328 0.50101 0.0
H152 H 0.21602 0.68372 0.50006 0.0
H153 H 0.24382 0.60371 0.51456 0.0
H154 H 0.19279 0.50485 0.45187 0.0
H155 H 0.16545 0.58559 0.43679 0.0
H156 H 0.23135 0.46066 0.48508 0.0
H157 H 0.27759 0.54716 0.48742 0.0
H158 H 0.31867 0.50357 0.45793 0.0
H159 H 0.34688 0.42293 0.44464 0.0
C160 C 0.68001 0.9162 0.94198 0.0
C161 C 0.6787 0.86783 0.95995 0.0
C162 C 0.69867 0.95784 0.95057 0.0
C163 C 0.71702 0.95134 0.97685 0.0
C164 C 0.71466 0.90412 0.99574 0.0
C165 C 0.69543 0.86311 0.98764 0.0
C166 C 0.74075 0.98994 0.98242 0.0
C167 C 0.7384 0.04391 0.97741 0.0
C168 C 0.76221 0.08324 0.97891 0.0
C169 C 0.75642 0.13718 0.98766 0.0
C170 C 0.77624 0.17818 0.98288 0.0
C171 C 0.80235 0.16658 0.96881 0.0
H172 H 0.79424 0.02947 0.95983 0.0
C173 C 0.80912 0.11207 0.9621 0.0
C174 C 0.78924 0.07054 0.96732 0.0
H175 H 0.82875 0.10218 0.95039 0.0
H176 H 0.66807 0.92013 0.91993 0.0
H177 H 0.70023 0.99314 0.93508 0.0
H178 H 0.72863 0.8978 0.01596 0.0
H179 H 0.69561 0.8255 0.00127 0.0
H180 H 0.76058 0.97339 0.99075 0.0
H181 H 0.71783 0.06059 0.97196 0.0
H182 H 0.73584 0.14825 0.99655 0.0
H183 H 0.77028 0.21993 0.98778 0.0
C184 C 0.68888 0.58225 0.54224 0.0
C185 C 0.68727 0.63395 0.52788 0.0
C186 C 0.70989 0.54532 0.53315 0.0
C187 C 0.73023 0.56019 0.51025 0.0
C188 C 0.72737 0.6103 0.49434 0.0
C189 C 0.70582 0.64644 0.50268 0.0
C190 C 0.75685 0.52889 0.50712 0.0
C191 C 0.75786 0.47415 0.50684 0.0
C192 C 0.78438 0.44277 0.51083 0.0
C193 C 0.78777 0.39307 0.49462 0.0
C194 C 0.80905 0.35672 0.50359 0.0
C195 C 0.8267 0.36854 0.52976 0.0
H196 H 0.80163 0.49471 0.54804 0.0
C197 C 0.82464 0.41995 0.5444 0.0
C198 C 0.80396 0.45711 0.5347 0.0
H199 H 0.83736 0.42943 0.56527 0.0
H200 H 0.67549 0.57232 0.56245 0.0
H201 H 0.71179 0.50741 0.54627 0.0
H202 H 0.74288 0.62297 0.47684 0.0
H203 H 0.70567 0.68665 0.49196 0.0
H204 H 0.77631 0.55181 0.50633 0.0
H205 H 0.73844 0.45127 0.50492 0.0
H206 H 0.77286 0.38083 0.47635 0.0
H207 H 0.80953 0.31678 0.49255 0.0
C208 C 0.37318 0.27284 0.15819 0.0
C209 C 0.3511 0.29608 0.14056 0.0
C210 C 0.3719 0.27011 0.1917 0.0
C211 C 0.34849 0.29066 0.2083 0.0
C212 C 0.32604 0.31227 0.19059 0.0
C213 C 0.3274 0.31536 0.15703 0.0
C214 C 0.34649 0.28809 0.2439 0.0
C215 C 0.36918 0.28966 0.26319 0.0
C216 C 0.36792 0.28309 0.2987 0.0
C217 C 0.39072 0.30074 0.31737 0.0
C218 C 0.39149 0.2908 0.35049 0.0
C219 C 0.36955 0.2625 0.36551 0.0
H220 H 0.32799 0.24041 0.30049 0.0
C221 C 0.34642 0.24604 0.34704 0.0
C222 C 0.34561 0.25602 0.31399 0.0
H223 H 0.32924 0.22389 0.35793 0.0
H224 H 0.39163 0.25725 0.14613 0.0
H225 H 0.38916 0.25131 0.20444 0.0
H226 H 0.30759 0.32761 0.20278 0.0
H227 H 0.31001 0.33322 0.14403 0.0
H228 H 0.32565 0.28668 0.25431 0.0
H229 H 0.38969 0.29659 0.25264 0.0
H230 H 0.40826 0.32138 0.30621 0.0
H231 H 0.40963 0.30383 0.36411 0.0
C232 C 0.16718 0.76436 0.3408 0.0
C233 C 0.1442 0.74954 0.35998 0.0
C234 C 0.16712 0.75383 0.30778 0.0
C235 C 0.14409 0.72777 0.29327 0.0
C236 C 0.12148 0.71167 0.3127 0.0
C237 C 0.12155 0.72225 0.34574 0.0
C238 C 0.14189 0.72041 0.25786 0.0
C239 C 0.16397 0.72161 0.23766 0.0
C240 C 0.16087 0.71735 0.20222 0.0
C241 C 0.18284 0.69521 0.18397 0.0
C242 C 0.18033 0.68995 0.15059 0.0
C243 C 0.15591 0.70749 0.13483 0.0
H244 H 0.11985 0.75562 0.19935 0.0
C245 C 0.13434 0.73144 0.15292 0.0
C246 C 0.13678 0.73641 0.18626 0.0
H247 H 0.11536 0.74579 0.14139 0.0
H248 H 0.18489 0.78572 0.35109 0.0
H249 H 0.18467 0.76821 0.29372 0.0
H250 H 0.10341 0.69176 0.30218 0.0
H251 H 0.10351 0.71042 0.35992 0.0
H252 H 0.1211 0.71297 0.24817 0.0
H253 H 0.18511 0.72364 0.24719 0.0
H254 H 0.20178 0.681 0.19564 0.0
H255 H 0.19736 0.6716 0.13722 0.0
C256 C 0.65275 0.72513 0.84152 0.0
C257 C 0.6292 0.73724 0.8604 0.0
C258 C 0.65112 0.72654 0.80801 0.0
C259 C 0.62568 0.73935 0.79256 0.0
C260 C 0.60245 0.75363 0.81155 0.0
C261 C 0.60417 0.7526 0.84516 0.0
C262 C 0.62266 0.73934 0.75689 0.0
C263 C 0.64072 0.71437 0.73681 0.0
C264 C 0.63866 0.71905 0.70139 0.0
C265 C 0.66341 0.72436 0.68352 0.0
C266 C 0.66231 0.73331 0.65041 0.0
C267 C 0.63644 0.73544 0.63441 0.0
H268 H 0.59334 0.71375 0.69838 0.0
C269 C 0.61168 0.7268 0.6519 0.0
C270 C 0.61274 0.71915 0.68526 0.0
H271 H 0.59147 0.72832 0.64006 0.0
H272 H 0.67245 0.71385 0.85263 0.0
H273 H 0.66996 0.71765 0.7946 0.0
H274 H 0.58272 0.76453 0.80038 0.0
H275 H 0.58566 0.76222 0.85913 0.0
H276 H 0.6049 0.76119 0.74681 0.0
H277 H 0.65875 0.69266 0.74614 0.0
H278 H 0.68362 0.72378 0.69541 0.0
H279 H 0.68172 0.73955 0.63742 0.0
C280 C 0.84985 0.24475 0.65491 0.0
C281 C 0.8744 0.25076 0.63672 0.0
C282 C 0.85076 0.2468 0.68843 0.0
C283 C 0.87645 0.254 0.70458 0.0
C284 C 0.90075 0.263 0.68623 0.0
C285 C 0.89976 0.26145 0.65259 0.0
C286 C 0.8788 0.25243 0.74029 0.0
C287 C 0.859 0.23125 0.75973 0.0
C288 C 0.86123 0.23294 0.7952 0.0
C289 C 0.83714 0.24441 0.81325 0.0
C290 C 0.83886 0.25068 0.84656 0.0
C291 C 0.86456 0.24387 0.86245 0.0
H292 H 0.90555 0.21369 0.79788 0.0
C293 C 0.88836 0.2289 0.8447 0.0
C294 C 0.88679 0.22397 0.81121 0.0
H295 H 0.90843 0.22361 0.85648 0.0
H296 H 0.82991 0.2373 0.64325 0.0
H297 H 0.83124 0.24233 0.7013 0.0
H298 H 0.92075 0.26962 0.69795 0.0
H299 H 0.91903 0.26631 0.63913 0.0
H300 H 0.89773 0.26913 0.75097 0.0
H301 H 0.83976 0.21481 0.7499 0.0
H302 H 0.81717 0.2508 0.80142 0.0
H303 H 0.8202 0.26202 0.8598 0.0
C304 C 0.42263 0.44062 0.03088 0.0
C305 C 0.41903 0.38667 0.0202 0.0
C306 C 0.44618 0.47095 0.02218 0.0
C307 C 0.46719 0.44816 0.00265 0.0
C308 C 0.46335 0.39452 0.99133 0.0
C309 C 0.43957 0.36401 6e-05 0.0
C310 C 0.49265 0.47971 0.99268 0.0
C311 C 0.50235 0.52435 0.00841 0.0
C312 C 0.52718 0.55776 -0.00165 0.0
C313 C 0.53192 0.60843 0.01338 0.0
C314 C 0.55462 0.64159 0.00446 0.0
C315 C 0.57323 0.62476 0.98028 0.0
H316 H 0.54419 0.50178 0.96272 0.0
C317 C 0.56881 0.57373 0.96568 0.0
C318 C 0.54625 0.54067 0.97458 0.0
H319 H 0.58284 0.55909 0.94711 0.0
H320 H 0.40711 0.45987 0.04611 0.0
H321 H 0.44743 0.51255 0.03051 0.0
H322 H 0.47894 0.37594 0.9759 0.0
H323 H 0.43745 0.32269 0.99134 0.0
H324 H 0.50358 0.46489 0.97159 0.0
H325 H 0.49154 0.53798 0.0299 0.0
H326 H 0.51779 0.62279 0.03194 0.0
H327 H 0.55739 0.68054 0.01622 0.0
C328 C 0.08263 0.55008 0.0314 0.0
C329 C 0.08536 0.60336 0.01928 0.0
C330 C 0.05975 0.51737 0.02312 0.0
C331 C 0.03863 0.53711 0.00259 0.0
C332 C 0.04148 0.5903 0.9902 0.0
C333 C 0.06454 0.62309 -0.00155 0.0
C334 C 0.01408 0.503 0.99246 0.0
C335 C 0.00599 0.45609 0.00702 0.0
C336 C 0.98205 0.42137 0.99579 0.0
C337 C 0.96992 0.38318 0.01698 0.0
C338 C 0.94728 0.35035 0.00722 0.0
C339 C 0.93638 0.35494 0.97595 0.0
H340 H 0.9809 0.45111 0.94652 0.0
C341 C 0.94915 0.3918 0.95453 0.0
C342 C 0.97167 0.42425 0.96418 0.0
H343 H 0.94159 0.39603 0.93008 0.0
H344 H 0.09837 0.53315 0.0473 0.0
H345 H 0.05917 0.47642 0.03255 0.0
H346 H 0.02577 0.60667 0.97407 0.0
H347 H 0.06598 0.66383 0.98865 0.0
H348 H 1.00188 0.51836 0.9724 0.0
H349 H 0.01664 0.44283 0.02869 0.0
H350 H 0.97768 0.3793 0.04136 0.0
H351 H 0.93795 0.32247 0.02431 0.0
C352 C 0.56746 0.91227 0.54155 0.0
C353 C 0.57489 0.86779 0.52194 0.0
C354 C 0.54581 0.94768 0.53281 0.0
C355 C 0.53095 0.94002 0.50392 0.0
C356 C 0.53814 0.89506 0.48448 0.0
C357 C 0.55988 0.85941 0.49331 0.0
C358 C 0.50742 0.97669 0.49368 0.0
C359 C 0.5025 0.02703 0.50593 0.0
C360 C 0.47891 0.06358 0.49572 0.0
C361 C 0.47172 0.10865 0.51508 0.0
C362 C 0.44976 0.14392 0.50638 0.0
C363 C 0.43452 0.13498 0.47797 0.0
H364 H 0.46899 0.02286 0.45061 0.0
C365 C 0.44201 0.09052 0.45838 0.0
C366 C 0.46389 0.05554 0.46698 0.0
H367 H 0.43097 0.08257 0.43611 0.0
H368 H 0.57835 0.91984 0.56397 0.0
H369 H 0.54069 0.98034 0.5492 0.0
H370 H 0.52699 0.88761 0.46221 0.0
H371 H 0.565 0.82558 0.47768 0.0
H372 H 0.49376 0.96086 0.47509 0.0
H373 H 0.51617 0.04285 0.52452 0.0
H374 H 0.483 0.11642 0.53723 0.0
H375 H 0.4446 0.17776 0.52198 0.0
C376 C 0.95045 0.13038 0.50036 0.0
C377 C 0.92983 0.11851 0.52345 0.0
C378 C 0.97167 0.09227 0.49335 0.0
C379 C 0.97257 0.04144 0.50929 0.0
C380 C 0.95155 0.02962 0.53176 0.0
C381 C 0.93066 0.06751 0.53887 0.0
C382 C 0.99433 0.99878 0.50304 0.0
C383 C 0.01974 0.00881 0.49017 0.0
C384 C 0.04151 0.96613 0.48401 0.0
C385 C 0.06243 0.97767 0.46136 0.0
C386 C 0.08341 0.93985 0.45449 0.0
C387 C 0.08446 0.88925 0.47034 0.0
H388 H 0.02733 0.90553 0.51861 0.0
C389 C 0.06389 0.87763 0.49355 0.0
C390 C 0.04256 0.91564 0.50031 0.0
H391 H 0.06417 0.8392 0.50631 0.0
H392 H 0.95033 0.16913 0.48794 0.0
H393 H 0.98698 0.10265 0.47519 0.0
H394 H 0.9514 0.9909 0.54426 0.0
H395 H 0.91507 0.05654 0.55666 0.0
H396 H 0.98916 0.95745 0.51008 0.0
H397 H 0.02492 0.05011 0.4831 0.0
H398 H 0.06244 0.01612 0.44858 0.0
H399 H 0.09894 0.95061 0.43659 0.0
C400 C 0.2358 0.60722 0.97298 0.0
C401 C 0.2072 0.60761 0.9808 0.0
C402 C 0.24564 0.57589 0.9474 0.0
C403 C 0.22708 0.54325 0.92939 0.0
C404 C 0.19822 0.54685 0.93581 0.0
C405 C 0.18833 0.57896 0.96117 0.0
C406 C 0.2374 0.49908 0.90783 0.0
C407 C 0.26453 0.48459 0.90839 0.0
C408 C 0.27476 0.44404 0.93236 0.0
C409 C 0.30373 0.43926 0.93772 0.0
C410 C 0.31393 0.41038 0.96426 0.0
C411 C 0.29529 0.38624 0.98619 0.0
H412 H 0.23379 0.41846 0.94997 0.0
C413 C 0.26643 0.38822 0.97984 0.0
C414 C 0.25626 0.41632 0.95312 0.0
H415 H 0.25156 0.36907 0.99595 0.0
H416 H 0.25077 0.62994 0.98724 0.0
H417 H 0.26799 0.5751 0.94319 0.0
H418 H 0.18341 0.52244 0.92233 0.0
H419 H 0.1661 0.57895 0.96646 0.0
H420 H 0.22234 0.46652 0.90402 0.0
H421 H 0.27965 0.51613 0.90251 0.0
H422 H 0.31849 0.46006 0.9222 0.0
H423 H 0.33633 0.40914 0.96838 0.0
C424 C 0.28111 0.12772 0.51049 0.0
C425 C 0.31009 0.12788 0.50499 0.0
C426 C 0.26926 0.09085 0.53195 0.0
C427 C 0.28619 0.05261 0.54819 0.0
C428 C 0.31543 0.05612 0.54473 0.0
C429 C 0.32733 0.09364 0.52343 0.0
C430 C 0.27413 1.00225 0.56246 0.0
C431 C 0.24635 0.99297 0.56258 0.0
C432 C 0.23386 0.9455 0.54559 0.0
C433 C 0.20454 0.94245 0.54311 0.0
C434 C 0.19196 0.90814 0.5205 0.0
C435 C 0.20854 0.87654 0.49973 0.0
H436 H 0.27288 0.91094 0.5272 0.0
C437 C 0.23772 0.87648 0.50381 0.0
C438 C 0.25026 0.9103 0.52651 0.0
H439 H 0.25105 0.8516 0.48868 0.0
H440 H 0.26737 0.15468 0.49718 0.0
H441 H 0.24668 0.09026 0.53361 0.0
H442 H 0.32902 0.0273 0.55682 0.0
H443 H 0.34983 0.09343 0.51994 0.0
H444 H 0.28827 0.96769 0.56379 0.0
H445 H 0.23229 0.02701 0.56672 0.0
H446 H 0.19134 0.96911 0.55732 0.0
H447 H 0.16935 0.90853 0.51821 0.0
C448 C 0.69369 0.5895 0.01277 0.0
C449 C 0.70174 0.64154 0.00265 0.0
C450 C 0.71171 0.55878 0.03211 0.0
C451 C 0.73781 0.57997 0.04167 0.0
C452 C 0.74367 0.63512 0.03533 0.0
C453 C 0.72606 0.66519 0.01532 0.0
C454 C 0.76006 0.54084 0.05138 0.0
C455 C 0.78713 0.54972 0.04375 0.0
C456 C 0.80357 0.50614 0.02821 0.0
C457 C 0.81531 0.51746 -0.00202 0.0
C458 C 0.82484 0.47536 0.97843 0.0
C459 C 0.8237 0.42154 0.98932 0.0
H460 H 0.79512 0.44289 0.06326 0.0
C461 C 0.81432 0.41037 0.02064 0.0
C462 C 0.80394 0.45248 0.03993 0.0
H463 H 0.81338 0.36885 0.02935 0.0
H464 H 0.67476 0.57089 0.00351 0.0
H465 H 0.70637 0.51674 0.03704 0.0
H466 H 0.76271 0.65419 0.04377 0.0
H467 H 0.73213 0.70608 0.00845 0.0
H468 H 0.75331 0.49911 0.05536 0.0
H469 H 0.79425 0.59068 0.03862 0.0
H470 H 0.81513 0.5585 0.98841 0.0
H471 H 0.83221 0.48459 0.95438 0.0
C472 C 0.68299 0.90769 0.48037 0.0
C473 C 0.69999 0.87422 0.49963 0.0
C474 C 0.69509 0.94657 0.46014 0.0
C475 C 0.72434 0.95225 0.45849 0.0
C476 C 0.74125 0.91541 0.47583 0.0
C477 C 0.72918 0.87705 0.49619 0.0
C478 C 0.7361 0.00329 0.44488 0.0
C479 C 0.76387 0.0121 0.44314 0.0
C480 C 0.77718 0.06176 0.45674 0.0
C481 C 0.76171 0.10028 0.47457 0.0
C482 C 0.77526 0.13637 0.49519 0.0
C483 C 0.80452 0.13522 0.49835 0.0
H484 H 0.81908 0.03501 0.44445 0.0
C485 C 0.82016 0.10056 0.47835 0.0
C486 C 0.80658 0.06407 0.45782 0.0
H487 H 0.84281 0.09925 0.47992 0.0
H488 H 0.66037 0.90605 0.48229 0.0
H489 H 0.68153 0.9745 0.44729 0.0
H490 H 0.76384 0.91827 0.47587 0.0
H491 H 0.74283 0.85103 0.51024 0.0
H492 H 0.72184 0.03767 0.44383 0.0
H493 H 0.77767 0.9775 0.43946 0.0
H494 H 0.73909 0.10061 0.47474 0.0
H495 H 0.76265 0.16359 0.50971 0.0
loop_
_geom_bond_atom_site_label_1
_geom_bond_atom_site_label_2
_geom_bond_distance
_geom_bond_site_symmetry_2
_ccdc_geom_bond_type
Co0 O1 2.216 . S
Co0 O2 2.091 . S
Co0 O4 2.004 . S
Co0 O10 2.021 . S
Co0 O12 2.137 . S
Co0 O13 2.244 . S
O1 Co0 2.216 . S
O1 C8 1.247 . S
O2 Co0 2.091 . S
O2 C8 1.261 . S
C3 O12 1.247 . S
C3 O13 1.272 . S
O4 Co0 2.004 . S
O4 C9 1.259 . S
Co5 O6 2.061 . S
Co5 O11 2.052 . S
Co5 O13 2.135 . S
O6 Co5 2.061 . S
O6 C9 1.235 . S
C7 O10 1.238 . S
C7 O11 1.241 . S
C8 O1 1.247 . S
C8 O2 1.261 . S
C9 O4 1.259 . S
C9 O6 1.235 . S
O10 Co0 2.021 . S
O10 C7 1.238 . S
O11 Co5 2.052 . S
O11 C7 1.241 . S
O12 Co0 2.137 . S
O12 C3 1.247 . S
O13 Co0 2.244 . S
O13 C3 1.272 . S
O13 Co5 2.135 . S
Co14 O15 2.216 . S
Co14 O16 2.091 . S
Co14 O18 2.004 . S
Co14 O24 2.021 . S
Co14 O26 2.137 . S
Co14 O27 2.244 . S
O15 Co14 2.216 . S
O15 C22 1.247 . S
O16 Co14 2.091 . S
O16 C22 1.261 . S
C17 O26 1.247 . S
C17 O27 1.272 . S
O18 Co14 2.004 . S
O18 C23 1.259 . S
Co19 O20 2.061 . S
Co19 O25 2.052 . S
Co19 O27 2.135 . S
O20 Co19 2.061 . S
O20 C23 1.235 . S
C21 O24 1.238 . S
C21 O25 1.241 . S
C22 O15 1.247 . S
C22 O16 1.261 . S
C23 O18 1.259 . S
C23 O20 1.235 . S
O24 Co14 2.021 . S
O24 C21 1.238 . S
O25 Co19 2.052 . S
O25 C21 1.241 . S
O26 Co14 2.137 . S
O26 C17 1.247 . S
O27 Co14 2.244 . S
O27 C17 1.272 . S
O27 Co19 2.135 . S
Co28 O29 2.216 . S
Co28 O30 2.091 . S
Co28 O32 2.004 . S
Co28 O38 2.021 . S
Co28 O40 2.137 . S
Co28 O41 2.244 . S
O29 Co28 2.216 . S
O29 C36 1.247 . S
O30 Co28 2.091 . S
O30 C36 1.261 . S
C31 O40 1.247 . S
C31 O41 1.272 . S
O32 Co28 2.004 . S
O32 C37 1.259 . S
Co33 O34 2.061 . S
Co33 O39 2.052 . S
Co33 O41 2.135 . S
O34 Co33 2.061 . S
O34 C37 1.235 . S
C35 O38 1.238 . S
C35 O39 1.241 . S
C36 O29 1.247 . S
C36 O30 1.261 . S
C37 O32 1.259 . S
C37 O34 1.235 . S
O38 Co28 2.021 . S
O38 C35 1.238 . S
O39 Co33 2.052 . S
O39 C35 1.241 . S
O40 Co28 2.137 . S
O40 C31 1.247 . S
O41 Co28 2.244 . S
O41 C31 1.272 . S
O41 Co33 2.135 . S
Co42 O43 2.216 . S
Co42 O44 2.091 . S
Co42 O46 2.004 . S
Co42 O52 2.021 . S
Co42 O54 2.137 . S
Co42 O55 2.244 . S
O43 Co42 2.216 . S
O43 C50 1.247 . S
O44 Co42 2.091 . S
O44 C50 1.261 . S
C45 O54 1.247 . S
C45 O55 1.272 . S
O46 Co42 2.004 . S
O46 C51 1.259 . S
Co47 O48 2.061 . S
Co47 O53 2.052 . S
Co47 O55 2.135 . S
O48 Co47 2.061 . S
O48 C51 1.235 . S
C49 O52 1.238 . S
C49 O53 1.241 . S
C50 O43 1.247 . S
C50 O44 1.261 . S
C51 O46 1.259 . S
C51 O48 1.235 . S
O52 Co42 2.021 . S
O52 C49 1.238 . S
O53 Co47 2.052 . S
O53 C49 1.241 . S
O54 Co42 2.137 . S
O54 C45 1.247 . S
O55 Co42 2.244 . S
O55 C45 1.272 . S
O55 Co47 2.135 . S
Co56 O57 2.216 . S
Co56 O58 2.091 . S
Co56 O60 2.004 . S
Co56 O66 2.021 . S
Co56 O68 2.137 . S
Co56 O69 2.244 . S
O57 Co56 2.216 . S
O57 C64 1.247 . S
O58 Co56 2.091 . S
O58 C64 1.261 . S
C59 O68 1.247 . S
C59 O69 1.272 . S
O60 Co56 2.004 . S
O60 C65 1.259 . S
Co61 O62 2.061 . S
Co61 O67 2.052 . S
Co61 O69 2.135 . S
O62 Co61 2.061 . S
O62 C65 1.235 . S
C63 O66 1.238 . S
C63 O67 1.241 . S
C64 O57 1.247 . S
C64 O58 1.261 . S
C65 O60 1.259 . S
C65 O62 1.235 . S
O66 Co56 2.021 . S
O66 C63 1.238 . S
O67 Co61 2.052 . S
O67 C63 1.241 . S
O68 Co56 2.137 . S
O68 C59 1.247 . S
O69 Co56 2.244 . S
O69 C59 1.272 . S
O69 Co61 2.135 . S
Co70 O71 2.216 . S
Co70 O72 2.091 . S
Co70 O74 2.004 . S
Co70 O80 2.021 . S
Co70 O82 2.137 . S
Co70 O83 2.244 . S
O71 Co70 2.216 . S
O71 C78 1.247 . S
O72 Co70 2.091 . S
O72 C78 1.261 . S
C73 O82 1.247 . S
C73 O83 1.272 . S
O74 Co70 2.004 . S
O74 C79 1.259 . S
Co75 O76 2.061 . S
Co75 O81 2.052 . S
Co75 O83 2.135 . S
O76 Co75 2.061 . S
O76 C79 1.235 . S
C77 O80 1.238 . S
C77 O81 1.241 . S
C78 O71 1.247 . S
C78 O72 1.261 . S
C79 O74 1.259 . S
C79 O76 1.235 . S
O80 Co70 2.021 . S
O80 C77 1.238 . S
O81 Co75 2.052 . S
O81 C77 1.241 . S
O82 Co70 2.137 . S
O82 C73 1.247 . S
O83 Co70 2.244 . S
O83 C73 1.272 . S
O83 Co75 2.135 . S
Co84 O85 2.216 . S
Co84 O86 2.091 . S
Co84 O88 2.004 . S
Co84 O94 2.021 . S
Co84 O96 2.137 . S
Co84 O97 2.244 . S
O85 Co84 2.216 . S
O85 C92 1.247 . S
O86 Co84 2.091 . S
O86 C92 1.261 . S
C87 O96 1.247 . S
C87 O97 1.272 . S
O88 Co84 2.004 . S
O88 C93 1.259 . S
Co89 O90 2.061 . S
Co89 O95 2.052 . S
Co89 O97 2.135 . S
O90 Co89 2.061 . S
O90 C93 1.235 . S
C91 O94 1.238 . S
C91 O95 1.241 . S
C92 O85 1.247 . S
C92 O86 1.261 . S
C93 O88 1.259 . S
C93 O90 1.235 . S
O94 Co84 2.021 . S
O94 C91 1.238 . S
O95 Co89 2.052 . S
O95 C91 1.241 . S
O96 Co84 2.137 . S
O96 C87 1.247 . S
O97 Co84 2.244 . S
O97 C87 1.272 . S
O97 Co89 2.135 . S
Co98 O99 2.216 . S
Co98 O100 2.091 . S
Co98 O102 2.004 . S
Co98 O108 2.021 . S
Co98 O110 2.137 . S
Co98 O111 2.244 . S
O99 Co98 2.216 . S
O99 C106 1.247 . S
O100 Co98 2.091 . S
O100 C106 1.261 . S
C101 O110 1.247 . S
C101 O111 1.272 . S
O102 Co98 2.004 . S
O102 C107 1.259 . S
Co103 O104 2.061 . S
Co103 O109 2.052 . S
Co103 O111 2.135 . S
O104 Co103 2.061 . S
O104 C107 1.235 . S
C105 O108 1.238 . S
C105 O109 1.241 . S
C106 O99 1.247 . S
C106 O100 1.261 . S
C107 O102 1.259 . S
C107 O104 1.235 . S
O108 Co98 2.021 . S
O108 C105 1.238 . S
O109 Co103 2.052 . S
O109 C105 1.241 . S
O110 Co98 2.137 . S
O110 C101 1.247 . S
O111 Co98 2.244 . S
O111 C101 1.272 . S
O111 Co103 2.135 . S
C112 C113 1.386 . S
C112 C114 1.383 . S
C112 H128 0.951 . S
C113 C112 1.386 . S
C113 C117 1.383 1_554 S
C114 C112 1.383 . S
C114 C115 1.402 . S
C114 H129 0.951 . S
C115 C114 1.402 . S
C115 C116 1.375 1_554 S
C115 C118 1.481 . S
C116 C115 1.375 1_556 S
C116 C117 1.367 . S
C116 H130 0.951 . S
C117 C113 1.383 1_556 S
C117 C116 1.367 . S
C117 H131 0.950 . S
C118 C115 1.481 . S
C118 C119 1.297 . S
C118 H132 0.950 1_554 S
C119 C118 1.297 . S
C119 C120 1.479 1_545 S
C119 H133 0.950 . S
C120 C119 1.479 1_565 S
C120 C121 1.375 . S
C120 C126 1.404 1_554 S
C121 C120 1.375 . S
C121 C122 1.369 . S
C121 H134 0.950 . S
C122 C121 1.369 . S
C122 C123 1.392 . S
C122 H135 0.951 . S
C123 C122 1.392 . S
C123 C125 1.384 1_554 S
H124 C126 0.949 . S
C125 C123 1.384 1_556 S
C125 C126 1.385 . S
C125 H127 0.950 . S
C126 C120 1.404 1_556 S
C126 H124 0.949 . S
C126 C125 1.385 . S
H127 C125 0.950 . S
H128 C112 0.951 . S
H129 C114 0.951 . S
H130 C116 0.951 . S
H131 C117 0.950 . S
H132 C118 0.950 1_556 S
H133 C119 0.950 . S
H134 C121 0.950 . S
H135 C122 0.951 . S
C136 C137 1.386 . S
C136 C138 1.383 . S
C136 H152 0.951 . S
C137 C136 1.386 . S
C137 C141 1.383 . S
C138 C136 1.383 . S
C138 C139 1.402 . S
C138 H153 0.951 . S
C139 C138 1.402 . S
C139 C140 1.375 . S
C139 C142 1.481 . S
C140 C139 1.375 . S
C140 C141 1.367 . S
C140 H154 0.951 . S
C141 C137 1.383 . S
C141 C140 1.367 . S
C141 H155 0.950 . S
C142 C139 1.481 . S
C142 C143 1.297 . S
C142 H156 0.950 . S
C143 C142 1.297 . S
C143 C144 1.479 . S
C143 H157 0.950 . S
C144 C143 1.479 . S
C144 C145 1.375 . S
C144 C150 1.404 . S
C145 C144 1.375 . S
C145 C146 1.369 . S
C145 H158 0.950 . S
C146 C145 1.369 . S
C146 C147 1.392 . S
C146 H159 0.951 . S
C147 C146 1.392 . S
C147 C149 1.384 . S
H148 C150 0.949 . S
C149 C147 1.384 . S
C149 C150 1.385 . S
C149 H151 0.950 . S
C150 C144 1.404 . S
C150 H148 0.949 . S
C150 C149 1.385 . S
H151 C149 0.950 . S
H152 C136 0.951 . S
H153 C138 0.951 . S
H154 C140 0.951 . S
H155 C141 0.950 . S
H156 C142 0.950 . S
H157 C143 0.950 . S
H158 C145 0.950 . S
H159 C146 0.951 . S
C160 C161 1.386 . S
C160 C162 1.383 . S
C160 H176 0.951 . S
C161 C160 1.386 . S
C161 C165 1.383 . S
C162 C160 1.383 . S
C162 C163 1.402 . S
C162 H177 0.951 . S
C163 C162 1.402 . S
C163 C164 1.375 . S
C163 C166 1.481 . S
C164 C163 1.375 . S
C164 C165 1.367 . S
C164 H178 0.951 . S
C165 C161 1.383 . S
C165 C164 1.367 . S
C165 H179 0.950 . S
C166 C163 1.481 . S
C166 C167 1.297 1_565 S
C166 H180 0.950 . S
C167 C166 1.297 1_545 S
C167 C168 1.479 . S
C167 H181 0.950 . S
C168 C167 1.479 . S
C168 C169 1.375 . S
C168 C174 1.404 . S
C169 C168 1.375 . S
C169 C170 1.369 . S
C169 H182 0.950 . S
C170 C169 1.369 . S
C170 C171 1.392 . S
C170 H183 0.951 . S
C171 C170 1.392 . S
C171 C173 1.384 . S
H172 C174 0.949 . S
C173 C171 1.384 . S
C173 C174 1.385 . S
C173 H175 0.950 . S
C174 C168 1.404 . S
C174 H172 0.949 . S
C174 C173 1.385 . S
H175 C173 0.950 . S
H176 C160 0.951 . S
H177 C162 0.951 . S
H178 C164 0.951 . S
H179 C165 0.950 . S
H180 C166 0.950 . S
H181 C167 0.950 . S
H182 C169 0.950 . S
H183 C170 0.951 . S
C184 C185 1.386 . S
C184 C186 1.383 . S
C184 H200 0.951 . S
C185 C184 1.386 . S
C185 C189 1.383 . S
C186 C184 1.383 . S
C186 C187 1.402 . S
C186 H201 0.951 . S
C187 C186 1.402 . S
C187 C188 1.375 . S
C187 C190 1.481 . S
C188 C187 1.375 . S
C188 C189 1.367 . S
C188 H202 0.951 . S
C189 C185 1.383 . S
C189 C188 1.367 . S
C189 H203 0.950 . S
C190 C187 1.481 . S
C190 C191 1.297 . S
C190 H204 0.950 . S
C191 C190 1.297 . S
C191 C192 1.479 . S
C191 H205 0.950 . S
C192 C191 1.479 . S
C192 C193 1.375 . S
C192 C198 1.404 . S
C193 C192 1.375 . S
C193 C194 1.369 . S
C193 H206 0.950 . S
C194 C193 1.369 . S
C194 C195 1.392 . S
C194 H207 0.951 . S
C195 C194 1.392 . S
C195 C197 1.384 . S
H196 C198 0.949 . S
C197 C195 1.384 . S
C197 C198 1.385 . S
C197 H199 0.950 . S
C198 C192 1.404 . S
C198 H196 0.949 . S
C198 C197 1.385 . S
H199 C197 0.950 . S
H200 C184 0.951 . S
H201 C186 0.951 . S
H202 C188 0.951 . S
H203 C189 0.950 . S
H204 C190 0.950 . S
H205 C191 0.950 . S
H206 C193 0.950 . S
H207 C194 0.951 . S
C208 C209 1.386 . S
C208 C210 1.383 . S
C208 H224 0.951 . S
C209 C208 1.386 . S
C209 C213 1.383 . S
C210 C208 1.383 . S
C210 C211 1.402 . S
C210 H225 0.951 . S
C211 C210 1.402 . S
C211 C212 1.375 . S
C211 C214 1.481 . S
C212 C211 1.375 . S
C212 C213 1.367 . S
C212 H226 0.951 . S
C213 C209 1.383 . S
C213 C212 1.367 . S
C213 H227 0.950 . S
C214 C211 1.481 . S
C214 C215 1.297 . S
C214 H228 0.950 . S
C215 C214 1.297 . S
C215 C216 1.479 . S
C215 H229 0.950 . S
C216 C215 1.479 . S
C216 C217 1.375 . S
C216 C222 1.404 . S
C217 C216 1.375 . S
C217 C218 1.369 . S
C217 H230 0.950 . S
C218 C217 1.369 . S
C218 C219 1.392 . S
C218 H231 0.951 . S
C219 C218 1.392 . S
C219 C221 1.384 . S
H220 C222 0.949 . S
C221 C219 1.384 . S
C221 C222 1.385 . S
C221 H223 0.950 . S
C222 C216 1.404 . S
C222 H220 0.949 . S
C222 C221 1.385 . S
H223 C221 0.950 . S
H224 C208 0.951 . S
H225 C210 0.951 . S
H226 C212 0.951 . S
H227 C213 0.950 . S
H228 C214 0.950 . S
H229 C215 0.950 . S
H230 C217 0.950 . S
H231 C218 0.951 . S
C232 C233 1.386 . S
C232 C234 1.383 . S
C232 H248 0.951 . S
C233 C232 1.386 . S
C233 C237 1.383 . S
C234 C232 1.383 . S
C234 C235 1.402 . S
C234 H249 0.951 . S
C235 C234 1.402 . S
C235 C236 1.375 . S
C235 C238 1.481 . S
C236 C235 1.375 . S
C236 C237 1.367 . S
C236 H250 0.951 . S
C237 C233 1.383 . S
C237 C236 1.367 . S
C237 H251 0.950 . S
C238 C235 1.481 . S
C238 C239 1.297 . S
C238 H252 0.950 . S
C239 C238 1.297 . S
C239 C240 1.479 . S
C239 H253 0.950 . S
C240 C239 1.479 . S
C240 C241 1.375 . S
C240 C246 1.404 . S
C241 C240 1.375 . S
C241 C242 1.369 . S
C241 H254 0.950 . S
C242 C241 1.369 . S
C242 C243 1.392 . S
C242 H255 0.951 . S
C243 C242 1.392 . S
C243 C245 1.384 . S
H244 C246 0.949 . S
C245 C243 1.384 . S
C245 C246 1.385 . S
C245 H247 0.950 . S
C246 C240 1.404 . S
C246 H244 0.949 . S
C246 C245 1.385 . S
H247 C245 0.950 . S
H248 C232 0.951 . S
H249 C234 0.951 . S
H250 C236 0.951 . S
H251 C237 0.950 . S
H252 C238 0.950 . S
H253 C239 0.950 . S
H254 C241 0.950 . S
H255 C242 0.951 . S
C256 C257 1.386 . S
C256 C258 1.383 . S
C256 H272 0.951 . S
C257 C256 1.386 . S
C257 C261 1.383 . S
C258 C256 1.383 . S
C258 C259 1.402 . S
C258 H273 0.951 . S
C259 C258 1.402 . S
C259 C260 1.375 . S
C259 C262 1.481 . S
C260 C259 1.375 . S
C260 C261 1.367 . S
C260 H274 0.951 . S
C261 C257 1.383 . S
C261 C260 1.367 . S
C261 H275 0.950 . S
C262 C259 1.481 . S
C262 C263 1.297 . S
C262 H276 0.950 . S
C263 C262 1.297 . S
C263 C264 1.479 . S
C263 H277 0.950 . S
C264 C263 1.479 . S
C264 C265 1.375 . S
C264 C270 1.404 . S
C265 C264 1.375 . S
C265 C266 1.369 . S
C265 H278 0.950 . S
C266 C265 1.369 . S
C266 C267 1.392 . S
C266 H279 0.951 . S
C267 C266 1.392 . S
C267 C269 1.384 . S
H268 C270 0.949 . S
C269 C267 1.384 . S
C269 C270 1.385 . S
C269 H271 0.950 . S
C270 C264 1.404 . S
C270 H268 0.949 . S
C270 C269 1.385 . S
H271 C269 0.950 . S
H272 C256 0.951 . S
H273 C258 0.951 . S
H274 C260 0.951 . S
H275 C261 0.950 . S
H276 C262 0.950 . S
H277 C263 0.950 . S
H278 C265 0.950 . S
H279 C266 0.951 . S
C280 C281 1.386 . S
C280 C282 1.383 . S
C280 H296 0.951 . S
C281 C280 1.386 . S
C281 C285 1.383 . S
C282 C280 1.383 . S
C282 C283 1.402 . S
C282 H297 0.951 . S
C283 C282 1.402 . S
C283 C284 1.375 . S
C283 C286 1.481 . S
C284 C283 1.375 . S
C284 C285 1.367 . S
C284 H298 0.951 . S
C285 C281 1.383 . S
C285 C284 1.367 . S
C285 H299 0.950 . S
C286 C283 1.481 . S
C286 C287 1.297 . S
C286 H300 0.950 . S
C287 C286 1.297 . S
C287 C288 1.479 . S
C287 H301 0.950 . S
C288 C287 1.479 . S
C288 C289 1.375 . S
C288 C294 1.404 . S
C289 C288 1.375 . S
C289 C290 1.369 . S
C289 H302 0.950 . S
C290 C289 1.369 . S
C290 C291 1.392 . S
C290 H303 0.951 . S
C291 C290 1.392 . S
C291 C293 1.384 . S
H292 C294 0.949 . S
C293 C291 1.384 . S
C293 C294 1.385 . S
C293 H295 0.950 . S
C294 C288 1.404 . S
C294 H292 0.949 . S
C294 C293 1.385 . S
H295 C293 0.950 . S
H296 C280 0.951 . S
H297 C282 0.951 . S
H298 C284 0.951 . S
H299 C285 0.950 . S
H300 C286 0.950 . S
H301 C287 0.950 . S
H302 C289 0.950 . S
H303 C290 0.951 . S
C304 C305 1.386 . S
C304 C306 1.383 . S
C304 H320 0.951 . S
C305 C304 1.386 . S
C305 C309 1.383 1_554 S
C306 C304 1.383 . S
C306 C307 1.420 . S
C306 H321 0.951 . S
C307 C306 1.420 . S
C307 C308 1.360 1_554 S
C307 C310 1.477 1_554 S
C308 C307 1.360 1_556 S
C308 C309 1.367 . S
C308 H322 0.951 . S
C309 C305 1.383 1_556 S
C309 C308 1.367 . S
C309 H323 0.950 . S
C310 C307 1.477 1_556 S
C310 C311 1.297 1_556 S
C310 H324 0.950 . S
C311 C310 1.297 1_554 S
C311 C312 1.479 . S
C311 H325 0.950 . S
C312 C311 1.479 . S
C312 C313 1.375 . S
C312 C318 1.404 1_554 S
C313 C312 1.375 . S
C313 C314 1.369 . S
C313 H326 0.950 . S
C314 C313 1.369 . S
C314 C315 1.392 1_554 S
C314 H327 0.951 . S
C315 C314 1.392 1_556 S
C315 C317 1.384 . S
H316 C318 0.949 . S
C317 C315 1.384 . S
C317 C318 1.385 . S
C317 H319 0.950 . S
C318 C312 1.404 1_556 S
C318 H316 0.949 . S
C318 C317 1.385 . S
H319 C317 0.950 . S
H320 C304 0.951 . S
H321 C306 0.951 . S
H322 C308 0.951 . S
H323 C309 0.950 . S
H324 C310 0.950 . S
H325 C311 0.950 . S
H326 C313 0.950 . S
H327 C314 0.951 . S
C328 C329 1.386 1_556 S
C328 C330 1.384 . S
C328 H344 0.951 . S
C329 C328 1.386 1_554 S
C329 C333 1.383 . S
C330 C328 1.384 . S
C330 C331 1.386 1_556 S
C330 H345 0.966 . S
C331 C330 1.386 1_554 S
C331 C332 1.375 . S
C331 C334 1.503 . S
C332 C331 1.375 . S
C332 C333 1.367 . S
C332 H346 0.951 . S
C333 C329 1.383 . S
C333 C332 1.367 . S
C333 H347 0.950 . S
C334 C331 1.503 . S
C334 C335 1.300 . S
C334 H348 0.924 1_455 S
C335 C334 1.300 . S
C335 C336 1.479 1_455 S
C335 H349 0.939 1_554 S
C336 C335 1.479 1_655 S
C336 C337 1.375 1_554 S
C336 C342 1.404 . S
C337 C336 1.375 1_556 S
C337 C338 1.369 . S
C337 H350 0.950 1_655 S
C338 C337 1.369 . S
C338 C339 1.392 . S
C338 H351 0.951 . S
C339 C338 1.392 . S
C339 C341 1.384 1_556 S
H340 C342 0.949 . S
C341 C339 1.384 1_554 S
C341 C342 1.385 . S
C341 H343 0.950 . S
C342 C336 1.404 . S
C342 H340 0.949 . S
C342 C341 1.385 . S
H343 C341 0.950 . S
H344 C328 0.951 . S
H345 C330 0.966 . S
H346 C332 0.951 . S
H347 C333 0.950 . S
H348 C334 0.924 1_655 S
H349 C335 0.939 1_556 S
H350 C337 0.950 1_455 S
H351 C338 0.951 . S
C352 C353 1.386 . S
C352 C354 1.383 . S
C352 H368 0.951 . S
C353 C352 1.386 . S
C353 C357 1.383 . S
C354 C352 1.383 . S
C354 C355 1.402 . S
C354 H369 0.951 . S
C355 C354 1.402 . S
C355 C356 1.375 . S
C355 C358 1.481 1_565 S
C356 C355 1.375 . S
C356 C357 1.367 . S
C356 H370 0.951 . S
C357 C353 1.383 . S
C357 C356 1.367 . S
C357 H371 0.950 . S
C358 C355 1.481 1_545 S
C358 C359 1.297 . S
C358 H372 0.950 . S
C359 C358 1.297 . S
C359 C360 1.479 . S
C359 H373 0.950 . S
C360 C359 1.479 . S
C360 C361 1.375 . S
C360 C366 1.404 . S
C361 C360 1.375 . S
C361 C362 1.369 . S
C361 H374 0.950 . S
C362 C361 1.369 . S
C362 C363 1.392 . S
C362 H375 0.951 . S
C363 C362 1.392 . S
C363 C365 1.384 . S
H364 C366 0.949 . S
C365 C363 1.384 . S
C365 C366 1.385 . S
C365 H367 0.950 . S
C366 C360 1.404 . S
C366 H364 0.949 . S
C366 C365 1.385 . S
H367 C365 0.950 . S
H368 C352 0.951 . S
H369 C354 0.951 . S
H370 C356 0.951 . S
H371 C357 0.950 . S
H372 C358 0.950 . S
H373 C359 0.950 . S
H374 C361 0.950 . S
H375 C362 0.951 . S
C376 C377 1.386 . S
C376 C378 1.383 . S
C376 H392 0.951 . S
C377 C376 1.386 . S
C377 C381 1.383 . S
C378 C376 1.383 . S
C378 C379 1.402 . S
C378 H393 0.951 . S
C379 C378 1.402 . S
C379 C380 1.375 . S
C379 C382 1.481 . S
C380 C379 1.375 . S
C380 C381 1.367 . S
C380 H394 0.951 . S
C381 C377 1.383 . S
C381 C380 1.367 . S
C381 H395 0.950 . S
C382 C379 1.481 . S
C382 C383 1.297 1_655 S
C382 H396 0.950 1_545 S
C383 C382 1.297 1_455 S
C383 C384 1.479 1_545 S
C383 H397 0.950 . S
C384 C383 1.479 1_565 S
C384 C385 1.375 . S
C384 C390 1.404 . S
C385 C384 1.375 . S
C385 C386 1.369 . S
C385 H398 0.950 . S
C386 C385 1.369 . S
C386 C387 1.392 . S
C386 H399 0.951 . S
C387 C386 1.392 . S
C387 C389 1.384 . S
H388 C390 0.949 . S
C389 C387 1.384 . S
C389 C390 1.385 . S
C389 H391 0.950 . S
C390 C384 1.404 . S
C390 H388 0.949 . S
C390 C389 1.385 . S
H391 C389 0.950 . S
H392 C376 0.951 . S
H393 C378 0.951 . S
H394 C380 0.951 . S
H395 C381 0.950 . S
H396 C382 0.950 1_565 S
H397 C383 0.950 . S
H398 C385 0.950 . S
H399 C386 0.951 . S
C400 C401 1.386 . S
C400 C402 1.383 . S
C400 H416 0.951 . S
C401 C400 1.386 . S
C401 C405 1.383 1_554 S
C402 C400 1.383 . S
C402 C403 1.402 . S
C402 H417 0.951 . S
C403 C402 1.402 . S
C403 C404 1.375 1_554 S
C403 C406 1.481 . S
C404 C403 1.375 1_556 S
C404 C405 1.367 . S
C404 H418 0.951 . S
C405 C401 1.383 1_556 S
C405 C404 1.367 . S
C405 H419 0.950 . S
C406 C403 1.481 . S
C406 C407 1.297 . S
C406 H420 0.950 1_554 S
C407 C406 1.297 . S
C407 C408 1.479 . S
C407 H421 0.950 . S
C408 C407 1.479 . S
C408 C409 1.375 . S
C408 C414 1.404 . S
C409 C408 1.375 . S
C409 C410 1.369 . S
C409 H422 0.950 . S
C410 C409 1.369 . S
C410 C411 1.392 . S
C410 H423 0.951 . S
C411 C410 1.392 . S
C411 C413 1.370 1_554 S
H412 C414 0.949 1_556 S
C413 C411 1.370 1_556 S
C413 C414 1.382 1_556 S
C413 H415 0.968 . S
C414 C408 1.404 . S
C414 H412 0.949 1_554 S
C414 C413 1.382 1_554 S
H415 C413 0.968 . S
H416 C400 0.951 . S
H417 C402 0.951 . S
H418 C404 0.951 . S
H419 C405 0.950 . S
H420 C406 0.950 1_556 S
H421 C407 0.950 . S
H422 C409 0.950 . S
H423 C410 0.951 . S
C424 C425 1.386 . S
C424 C426 1.383 . S
C424 H440 0.951 . S
C425 C424 1.386 . S
C425 C429 1.383 . S
C426 C424 1.383 . S
C426 C427 1.402 . S
C426 H441 0.951 . S
C427 C426 1.402 . S
C427 C428 1.375 . S
C427 C430 1.481 . S
C428 C427 1.375 . S
C428 C429 1.367 . S
C428 H442 0.951 . S
C429 C425 1.383 . S
C429 C428 1.367 . S
C429 H443 0.950 . S
C430 C427 1.481 . S
C430 C431 1.297 . S
C430 H444 0.950 1_545 S
C431 C430 1.297 . S
C431 C432 1.479 1_545 S
C431 H445 0.950 . S
C432 C431 1.479 1_565 S
C432 C433 1.375 . S
C432 C438 1.404 . S
C433 C432 1.375 . S
C433 C434 1.369 . S
C433 H446 0.950 . S
C434 C433 1.369 . S
C434 C435 1.392 . S
C434 H447 0.951 . S
C435 C434 1.392 . S
C435 C437 1.384 . S
H436 C438 0.949 . S
C437 C435 1.384 . S
C437 C438 1.385 . S
C437 H439 0.950 . S
C438 C432 1.404 . S
C438 H436 0.949 . S
C438 C437 1.385 . S
H439 C437 0.950 . S
H440 C424 0.951 . S
H441 C426 0.951 . S
H442 C428 0.951 . S
H443 C429 0.950 . S
H444 C430 0.950 1_565 S
H445 C431 0.950 . S
H446 C433 0.950 . S
H447 C434 0.951 . S
C448 C449 1.386 . S
C448 C450 1.383 . S
C448 H464 0.951 . S
C449 C448 1.386 . S
C449 C453 1.383 1_556 S
C450 C448 1.383 . S
C450 C451 1.402 . S
C450 H465 0.951 . S
C451 C450 1.402 . S
C451 C452 1.375 1_556 S
C451 C454 1.481 . S
C452 C451 1.375 1_554 S
C452 C453 1.367 . S
C452 H466 0.951 . S
C453 C449 1.383 1_554 S
C453 C452 1.367 . S
C453 H467 0.950 . S
C454 C451 1.481 . S
C454 C455 1.297 . S
C454 H468 0.950 1_556 S
C455 C454 1.297 . S
C455 C456 1.479 . S
C455 H469 0.950 . S
C456 C455 1.479 . S
C456 C457 1.375 . S
C456 C462 1.404 1_556 S
C457 C456 1.375 . S
C457 C458 1.369 . S
C457 H470 0.950 . S
C458 C457 1.369 . S
C458 C459 1.392 . S
C458 H471 0.951 . S
C459 C458 1.392 . S
C459 C461 1.384 1_556 S
H460 C462 0.949 . S
C461 C459 1.384 1_554 S
C461 C462 1.385 . S
C461 H463 0.950 . S
C462 C456 1.404 1_554 S
C462 H460 0.949 . S
C462 C461 1.385 . S
H463 C461 0.950 . S
H464 C448 0.951 . S
H465 C450 0.951 . S
H466 C452 0.951 . S
H467 C453 0.950 . S
H468 C454 0.950 1_554 S
H469 C455 0.950 . S
H470 C457 0.950 . S
H471 C458 0.951 . S
C472 C473 1.386 . S
C472 C474 1.383 . S
C472 H488 0.951 . S
C473 C472 1.386 . S
C473 C477 1.383 . S
C474 C472 1.383 . S
C474 C475 1.402 . S
C474 H489 0.951 . S
C475 C474 1.402 . S
C475 C476 1.375 . S
C475 C478 1.481 . S
C476 C475 1.375 . S
C476 C477 1.367 . S
C476 H490 0.951 . S
C477 C473 1.383 . S
C477 C476 1.367 . S
C477 H491 0.950 . S
C478 C475 1.481 . S
C478 C479 1.297 1_565 S
C478 H492 0.950 . S
C479 C478 1.297 1_545 S
C479 C480 1.479 . S
C479 H493 0.949 1_545 S
C480 C479 1.479 . S
C480 C481 1.375 . S
C480 C486 1.404 . S
C481 C480 1.375 . S
C481 C482 1.369 . S
C481 H494 0.950 . S
C482 C481 1.369 . S
C482 C483 1.392 . S
C482 H495 0.951 . S
C483 C482 1.392 . S
C483 C485 1.384 . S
H484 C486 0.949 . S
C485 C483 1.384 . S
C485 C486 1.385 . S
C485 H487 0.950 . S
C486 C480 1.404 . S
C486 H484 0.949 . S
C486 C485 1.385 . S
H487 C485 0.950 . S
H488 C472 0.951 . S
H489 C474 0.951 . S
H490 C476 0.951 . S
H491 C477 0.950 . S
H492 C478 0.950 . S
H493 C479 0.949 1_565 S
H494 C481 0.950 . S
H495 C482 0.951 . S
C113 C9 1.536 . S
C123 C23 1.556 . S
C137 C51 1.564 . S
C147 C37 1.576 . S
C161 C65 1.531 . S
C171 C79 1.562 . S
C185 C93 1.551 . S
C195 C107 1.529 . S
C209 C3 1.638 . S
C219 C31 1.656 . S
C233 C45 1.647 . S
C243 C17 1.643 . S
C257 C59 1.657 . S
C267 C87 1.659 . S
C281 C101 1.638 . S
C291 C73 1.641 . S
C305 C8 1.399 . S
C315 C64 1.369 . S
C329 C22 1.369 . S
C339 C78 1.410 . S
C353 C92 1.374 . S
C363 C36 1.408 . S
C377 C106 1.364 . S
C387 C50 1.364 . S
C401 C21 0.909 . S
C411 C7 0.776 . S
C425 C35 0.830 . S
C435 C49 0.831 . S
C449 C63 0.880 . S
C459 C77 0.887 . S
C473 C91 0.865 . S
C483 C105 0.862 . S
