# Generated by pormake.
# Topology can, (4)-cn, num edge types: 1
# Building blocks:
#     Node 0, Type 0, BuildingBlock: UXUYUI_clean_sbu_0, # of connection points: 4
#     Node 1, Type 0, BuildingBlock: UXUYUI_clean_sbu_0, # of connection points: 4
#     Node 2, Type 0, BuildingBlock: UXUYUI_clean_sbu_0, # of connection points: 4
#     Node 3, Type 0, BuildingBlock: UXUYUI_clean_sbu_0, # of connection points: 4
#     Node 4, Type 0, BuildingBlock: UXUYUI_clean_sbu_0, # of connection points: 4
#     Node 5, Type 0, BuildingBlock: UXUYUI_clean_sbu_0, # of connection points: 4
#     Node 6, Type 0, BuildingBlock: UXUYUI_clean_sbu_0, # of connection points: 4
#     Node 7, Type 0, BuildingBlock: UXUYUI_clean_sbu_0, # of connection points: 4
#     Node 8, Type 0, BuildingBlock: UXUYUI_clean_sbu_0, # of connection points: 4
#     Node 9, Type 0, BuildingBlock: UXUYUI_clean_sbu_0, # of connection points: 4
#     Node 10, Type 0, BuildingBlock: UXUYUI_clean_sbu_0, # of connection points: 4
#     Node 11, Type 0, BuildingBlock: UXUYUI_clean_sbu_0, # of connection points: 4
#     Edge 12, Type (0, 0), BuildingBlock: UVAHIK_clean_linker_0, # of connection points: 2
#     Edge 13, Type (0, 0), BuildingBlock: UVAHIK_clean_linker_0, # of connection points: 2
#     Edge 14, Type (0, 0), BuildingBlock: UVAHIK_clean_linker_0, # of connection points: 2
#     Edge 15, Type (0, 0), BuildingBlock: UVAHIK_clean_linker_0, # of connection points: 2
#     Edge 16, Type (0, 0), BuildingBlock: UVAHIK_clean_linker_0, # of connection points: 2
#     Edge 17, Type (0, 0), BuildingBlock: UVAHIK_clean_linker_0, # of connection points: 2
#     Edge 18, Type (0, 0), BuildingBlock: UVAHIK_clean_linker_0, # of connection points: 2
#     Edge 19, Type (0, 0), BuildingBlock: UVAHIK_clean_linker_0, # of connection points: 2
#     Edge 20, Type (0, 0), BuildingBlock: UVAHIK_clean_linker_0, # of connection points: 2
#     Edge 21, Type (0, 0), BuildingBlock: UVAHIK_clean_linker_0, # of connection points: 2
#     Edge 22, Type (0, 0), BuildingBlock: UVAHIK_clean_linker_0, # of connection points: 2
#     Edge 23, Type (0, 0), BuildingBlock: UVAHIK_clean_linker_0, # of connection points: 2
#     Edge 24, Type (0, 0), BuildingBlock: UVAHIK_clean_linker_0, # of connection points: 2
#     Edge 25, Type (0, 0), BuildingBlock: UVAHIK_clean_linker_0, # of connection points: 2
#     Edge 26, Type (0, 0), BuildingBlock: UVAHIK_clean_linker_0, # of connection points: 2
#     Edge 27, Type (0, 0), BuildingBlock: UVAHIK_clean_linker_0, # of connection points: 2
#     Edge 28, Type (0, 0), BuildingBlock: UVAHIK_clean_linker_0, # of connection points: 2
#     Edge 29, Type (0, 0), BuildingBlock: UVAHIK_clean_linker_0, # of connection points: 2
#     Edge 30, Type (0, 0), BuildingBlock: UVAHIK_clean_linker_0, # of connection points: 2
#     Edge 31, Type (0, 0), BuildingBlock: UVAHIK_clean_linker_0, # of connection points: 2
#     Edge 32, Type (0, 0), BuildingBlock: UVAHIK_clean_linker_0, # of connection points: 2
#     Edge 33, Type (0, 0), BuildingBlock: UVAHIK_clean_linker_0, # of connection points: 2
#     Edge 34, Type (0, 0), BuildingBlock: UVAHIK_clean_linker_0, # of connection points: 2
#     Edge 35, Type (0, 0), BuildingBlock: UVAHIK_clean_linker_0, # of connection points: 2
# Relax obj value: 0.136
# Max RMSD: 0.111
# Mean RMSD: 0.111
data_MOF--net-can--node1-UXUYUI_clean_sbu_0--edge1-UVAHIK_clean_linker_0
_symmetry_space_group_name_H-M    P1
_symmetry_Int_Tables_number       1
_symmetry_cell_setting            triclinic
loop_
_symmetry_equiv_pos_as_xyz
'x, y, z'
_cell_length_a     103.29042
_cell_length_b     103.23651
_cell_length_c     45.232702
_cell_angle_alpha  90.010835
_cell_angle_beta   89.980141
_cell_angle_gamma 120.00222
loop_
_atom_site_label
_atom_site_type_symbol
_atom_site_fract_x
_atom_site_fract_y
_atom_site_fract_z
_atom_type_partial_charge
Li0 Li 0.07527 0.4225 0.25793 0.0
Li1 Li 0.0637 0.39735 0.28179 0.0
Li2 Li 0.08747 0.40789 0.25245 0.0
Li3 Li 0.06379 0.39957 0.22817 0.0
C4 C 0.08916 0.42652 0.31037 0.0
N5 N 0.10008 0.44931 0.3516 0.0
C6 C 0.08165 0.42458 0.33715 0.0
C7 C 0.1023 0.43998 0.30467 0.0
C8 C 0.08734 0.43625 0.35769 0.0
C9 C 0.10761 0.45139 0.32575 0.0
C10 C 0.04157 0.40429 0.24388 0.0
C11 C 0.01644 0.38818 0.22633 0.0
N12 N 0.0167 0.40011 0.21297 0.0
C13 C 0.04154 0.41641 0.23019 0.0
C14 C 0.02888 0.39008 0.24216 0.0
C15 C 0.02887 0.41406 0.21461 0.0
C16 C 0.08375 0.45119 0.23673 0.0
N17 N 0.07822 0.44219 0.26081 0.0
C18 C 0.07642 0.46127 0.28727 0.0
C19 C 0.07432 0.44684 0.28565 0.0
C20 C 0.08213 0.47089 0.26271 0.0
C21 C 0.08572 0.46558 0.23712 0.0
H22 H 0.08636 0.44708 0.21695 0.0
H23 H 0.06955 0.43932 0.30421 0.0
C24 C 0.05888 0.37869 0.33092 0.0
N25 N 0.05342 0.38622 0.31553 0.0
C26 C 0.05163 0.37083 0.35651 0.0
C27 C 0.03324 0.37855 0.34959 0.0
C28 C 0.04085 0.38625 0.32418 0.0
C29 C 0.03867 0.37077 0.36623 0.0
H30 H 0.06892 0.37889 0.32338 0.0
H31 H 0.03686 0.39245 0.31154 0.0
C32 C 0.09462 0.4234 0.2027 0.0
N33 N 0.11904 0.43332 0.16571 0.0
C34 C 0.09347 0.41578 0.17642 0.0
C35 C 0.10813 0.43614 0.21006 0.0
C36 C 0.10596 0.42096 0.15803 0.0
C37 C 0.12037 0.44094 0.19111 0.0
C38 C 0.06225 0.37228 0.24753 0.0
C39 C 0.06922 0.3653 0.23357 0.0
C40 C 0.0475 0.36367 0.25737 0.0
C41 C 0.06125 0.34982 0.22942 0.0
C42 C 0.03992 0.34821 0.25284 0.0
N43 N 0.04689 0.34167 0.23905 0.0
C44 C 0.11624 0.41512 0.27203 0.0
C45 C 0.10896 0.40223 0.2263 0.0
C46 C 0.12996 0.41558 0.27082 0.0
N47 N 0.10612 0.40857 0.2499 0.0
C48 C 0.12258 0.40254 0.22403 0.0
C49 C 0.1333 0.40924 0.24655 0.0
H50 H 0.11359 0.41983 0.29082 0.0
H51 H 0.10063 0.39692 0.2092 0.0
C52 C 0.05256 0.40221 0.17454 0.0
N53 N 0.05293 0.39174 0.19214 0.0
C54 C 0.04509 0.39818 0.14752 0.0
C55 C 0.03883 0.37264 0.15662 0.0
C56 C 0.04627 0.37715 0.1837 0.0
C57 C 0.03814 0.38322 0.13809 0.0
H58 H 0.05811 0.41377 0.18159 0.0
H59 H 0.04679 0.36898 0.19762 0.0
O60 O 0.08373 0.41525 0.28994 0.0
O61 O 0.05399 0.40631 0.25871 0.0
O62 O 0.08257 0.41842 0.22117 0.0
O63 O 0.06997 0.38741 0.252 0.0
H64 H 0.07149 0.41422 0.34197 0.0
H65 H 0.10826 0.44164 0.28409 0.0
H66 H 0.08161 0.43494 0.37846 0.0
H67 H 0.11771 0.46191 0.32156 0.0
H68 H 0.00658 0.37723 0.22465 0.0
H69 H 0.05124 0.42749 0.23129 0.0
H70 H 0.02866 0.38059 0.25276 0.0
H71 H 0.02873 0.42332 0.20373 0.0
H72 H 0.07361 0.46481 0.30762 0.0
H73 H 0.08973 0.47231 0.21729 0.0
H74 H 0.05611 0.36487 0.36852 0.0
H75 H 0.02345 0.37901 0.35652 0.0
H76 H 0.0831 0.40588 0.17044 0.0
H77 H 0.10918 0.44219 0.23027 0.0
H78 H 0.10527 0.41513 0.1377 0.0
H79 H 0.13093 0.45073 0.1966 0.0
H80 H 0.08065 0.37178 0.226 0.0
H81 H 0.04193 0.36884 0.26824 0.0
H82 H 0.06649 0.34428 0.21857 0.0
H83 H 0.02848 0.34143 0.26026 0.0
H84 H 0.13773 0.42059 0.28898 0.0
H85 H 0.1247 0.39765 0.20477 0.0
H86 H 0.0447 0.40672 0.13432 0.0
H87 H 0.03388 0.36103 0.15012 0.0
Li88 Li 0.65159 0.07533 0.74645 0.0
Li89 Li 0.66487 0.06411 0.77461 0.0
Li90 Li 0.67929 0.08867 0.74601 0.0
Li91 Li 0.66475 0.06528 0.72215 0.0
C92 C 0.6629 0.08893 0.80598 0.0
N93 N 0.6574 0.09925 0.8582 0.0
C94 C 0.65362 0.07882 0.8275 0.0
C95 C 0.66949 0.1043 0.81116 0.0
C96 C 0.65095 0.08426 0.85371 0.0
C97 C 0.66653 0.10929 0.83765 0.0
C98 C 0.63859 0.04185 0.7321 0.0
C99 C 0.6302 0.0161 0.71991 0.0
N100 N 0.62202 0.01693 0.6972 0.0
C101 C 0.63004 0.04242 0.70873 0.0
C102 C 0.63865 0.02857 0.73781 0.0
C103 C 0.62177 0.02972 0.6913 0.0
C104 C 0.62894 0.0789 0.71949 0.0
N105 N 0.6343 0.07763 0.74615 0.0
C106 C 0.61452 0.07881 0.77117 0.0
C107 C 0.62733 0.0775 0.77174 0.0
C108 C 0.6087 0.08006 0.74395 0.0
C109 C 0.61611 0.08013 0.71787 0.0
H110 H 0.63456 0.07881 0.69939 0.0
H111 H 0.63152 0.07613 0.7926 0.0
C112 C 0.67747 0.06153 0.8275 0.0
N113 N 0.66525 0.05444 0.80978 0.0
C114 C 0.67787 0.05525 0.85458 0.0
C115 C 0.65327 0.03434 0.84421 0.0
C116 C 0.65326 0.04112 0.81756 0.0
C117 C 0.66564 0.04149 0.86319 0.0
H118 H 0.68677 0.07221 0.82077 0.0
H119 H 0.64352 0.03596 0.80344 0.0
C120 C 0.666 0.09746 0.70429 0.0
N121 N 0.66749 0.1241 0.68887 0.0
C122 C 0.66796 0.10205 0.67474 0.0
C123 C 0.66483 0.10648 0.72596 0.0
C124 C 0.66869 0.11554 0.6674 0.0
C125 C 0.66559 0.11988 0.71775 0.0
C126 C 0.69118 0.06726 0.73322 0.0
C127 C 0.69863 0.07506 0.70772 0.0
C128 C 0.69283 0.05535 0.74313 0.0
C129 C 0.70747 0.07063 0.6922 0.0
C130 C 0.70179 0.05128 0.72701 0.0
N131 N 0.70885 0.05893 0.70207 0.0
C132 C 0.7041 0.11263 0.77333 0.0
C133 C 0.703 0.11505 0.72141 0.0
C134 C 0.71749 0.12624 0.77481 0.0
N135 N 0.69715 0.1074 0.74693 0.0
C136 C 0.71631 0.12874 0.72187 0.0
C137 C 0.72379 0.1345 0.74882 0.0
H138 H 0.69929 0.10613 0.79319 0.0
H139 H 0.69741 0.11049 0.70063 0.0
C140 C 0.6623 0.05956 0.66129 0.0
N141 N 0.66427 0.05437 0.68749 0.0
C142 C 0.66139 0.05208 0.63505 0.0
C143 C 0.66443 0.03388 0.66317 0.0
C144 C 0.6654 0.0418 0.68889 0.0
C145 C 0.66239 0.03902 0.63581 0.0
H146 H 0.66117 0.06941 0.66083 0.0
H147 H 0.66682 0.03778 0.71001 0.0
O148 O 0.6659 0.08383 0.78039 0.0
O149 O 0.64697 0.05428 0.74905 0.0
O150 O 0.66548 0.08433 0.71173 0.0
O151 O 0.68237 0.07131 0.74857 0.0
H152 H 0.64834 0.0669 0.82383 0.0
H153 H 0.67683 0.11232 0.79493 0.0
H154 H 0.64372 0.07655 0.87046 0.0
H155 H 0.67152 0.12115 0.84189 0.0
H156 H 0.63024 0.00579 0.72394 0.0
H157 H 0.62996 0.05262 0.70385 0.0
H158 H 0.6454 0.02798 0.75545 0.0
H159 H 0.61519 0.03004 0.67302 0.0
H160 H 0.609 0.07845 0.79177 0.0
H161 H 0.61204 0.08116 0.69643 0.0
H162 H 0.68759 0.06109 0.86868 0.0
H163 H 0.64352 0.02386 0.85038 0.0
H164 H 0.66903 0.09533 0.65762 0.0
H165 H 0.66324 0.10315 0.74884 0.0
H166 H 0.67023 0.11922 0.64462 0.0
H167 H 0.66465 0.12692 0.73433 0.0
H168 H 0.69744 0.08431 0.69982 0.0
H169 H 0.68715 0.04925 0.76292 0.0
H170 H 0.71322 0.07648 0.67228 0.0
H171 H 0.70312 0.04203 0.73429 0.0
H172 H 0.72298 0.13009 0.79599 0.0
H173 H 0.72065 0.13477 0.70132 0.0
H174 H 0.65954 0.05627 0.61447 0.0
H175 H 0.6653 0.02387 0.66466 0.0
Li176 Li 0.59387 0.66342 0.27771 0.0
Li177 Li 0.57003 0.65362 0.24959 0.0
Li178 Li 0.59408 0.66388 0.22336 0.0
Li179 Li 0.58713 0.68011 0.24864 0.0
C180 C 0.58836 0.63602 0.24309 0.0
N181 N 0.59628 0.61489 0.22895 0.0
C182 C 0.5774 0.62161 0.23477 0.0
C183 C 0.60333 0.63971 0.24417 0.0
C184 C 0.58163 0.61106 0.22779 0.0
C185 C 0.60713 0.62888 0.23686 0.0
C186 C 0.56476 0.66159 0.30167 0.0
C187 C 0.5399 0.65686 0.31238 0.0
N188 N 0.53933 0.64864 0.33634 0.0
C189 C 0.56399 0.65318 0.32651 0.0
C190 C 0.55268 0.66355 0.29463 0.0
C191 C 0.55102 0.64669 0.34372 0.0
C192 C 0.61208 0.67288 0.32871 0.0
N193 N 0.6027 0.66085 0.31204 0.0
C194 C 0.60598 0.64438 0.34411 0.0
C195 C 0.59943 0.64678 0.31936 0.0
C196 C 0.61591 0.65659 0.36159 0.0
C197 C 0.61887 0.67099 0.35377 0.0
H198 H 0.61441 0.68393 0.32231 0.0
H199 H 0.59169 0.63739 0.30603 0.0
C200 C 0.54049 0.63713 0.22733 0.0
N201 N 0.54983 0.6379 0.24929 0.0
C202 C 0.52582 0.6252 0.22624 0.0
C203 C 0.53064 0.61518 0.27052 0.0
C204 C 0.54526 0.6272 0.27055 0.0
C205 C 0.52075 0.61403 0.24802 0.0
H206 H 0.5445 0.64565 0.21039 0.0
H207 H 0.55306 0.6279 0.28729 0.0
C208 C 0.62149 0.68787 0.24467 0.0
N209 N 0.65176 0.70319 0.2323 0.0
C210 C 0.62733 0.69966 0.22438 0.0
C211 C 0.63107 0.68391 0.25874 0.0
C212 C 0.64266 0.70726 0.21841 0.0
C213 C 0.64632 0.69177 0.25215 0.0
C214 C 0.57378 0.67516 0.19605 0.0
C215 C 0.58228 0.68126 0.17045 0.0
C216 C 0.56218 0.67795 0.20269 0.0
C217 C 0.57909 0.69017 0.15203 0.0
C218 C 0.55937 0.68695 0.18375 0.0
N219 N 0.56782 0.69283 0.15902 0.0
C220 C 0.59222 0.65173 0.16832 0.0
C221 C 0.61738 0.66575 0.18437 0.0
C222 C 0.59669 0.6483 0.14177 0.0
N223 N 0.60254 0.66043 0.18883 0.0
C224 C 0.62237 0.66266 0.15801 0.0
C225 C 0.61195 0.65385 0.13628 0.0
H226 H 0.58048 0.64752 0.1726 0.0
H227 H 0.6254 0.67226 0.20116 0.0
C228 C 0.5832 0.70311 0.27246 0.0
N229 N 0.58861 0.69923 0.24874 0.0
C230 C 0.58384 0.71694 0.27319 0.0
C231 C 0.59566 0.72253 0.22513 0.0
C232 C 0.59493 0.70868 0.22547 0.0
C233 C 0.59005 0.72679 0.24918 0.0
H234 H 0.57834 0.69545 0.29079 0.0
H235 H 0.59929 0.70543 0.20702 0.0
O236 O 0.58437 0.64636 0.25071 0.0
O237 O 0.57726 0.66781 0.28426 0.0
O238 O 0.60656 0.68051 0.2513 0.0
O239 O 0.57678 0.66648 0.21445 0.0
H240 H 0.56575 0.61858 0.23398 0.0
H241 H 0.61192 0.65081 0.25057 0.0
H242 H 0.57327 0.59983 0.2215 0.0
H243 H 0.61868 0.63158 0.23755 0.0
H244 H 0.53042 0.65821 0.30709 0.0
H245 H 0.57325 0.65157 0.33229 0.0
H246 H 0.55313 0.67008 0.27556 0.0
H247 H 0.55022 0.64008 0.36292 0.0
H248 H 0.60316 0.63307 0.34973 0.0
H249 H 0.6265 0.6807 0.36662 0.0
H250 H 0.51852 0.6247 0.20854 0.0
H251 H 0.52724 0.60665 0.28741 0.0
H252 H 0.62013 0.70287 0.21323 0.0
H253 H 0.62681 0.67483 0.27449 0.0
H254 H 0.64732 0.71639 0.20272 0.0
H255 H 0.65384 0.68879 0.26282 0.0
H256 H 0.59135 0.6793 0.16503 0.0
H257 H 0.55549 0.67332 0.2224 0.0
H258 H 0.58563 0.69503 0.13223 0.0
H259 H 0.55049 0.68928 0.18872 0.0
H260 H 0.58829 0.64155 0.12554 0.0
H261 H 0.63422 0.66694 0.15487 0.0
H262 H 0.57932 0.7198 0.29209 0.0
H263 H 0.60071 0.72989 0.20636 0.0
Li264 Li 0.91797 0.57186 0.74766 0.0
Li265 Li 0.93066 0.59564 0.77515 0.0
Li266 Li 0.90753 0.58818 0.74591 0.0
Li267 Li 0.93115 0.59655 0.72064 0.0
C268 C 0.9032 0.5663 0.79972 0.0
N269 N 0.88931 0.54172 0.83661 0.0
C270 C 0.90911 0.56666 0.82771 0.0
C271 C 0.89013 0.5535 0.79065 0.0
C272 C 0.90195 0.55411 0.846 0.0
C273 C 0.8833 0.54117 0.80957 0.0
C274 C 0.95352 0.58987 0.75312 0.0
C275 C 0.9803 0.60593 0.75132 0.0
N276 N 0.98202 0.59497 0.76416 0.0
C277 C 0.95556 0.57869 0.7659 0.0
C278 C 0.966 0.60354 0.74544 0.0
C279 C 0.97005 0.58152 0.77147 0.0
C280 C 0.91056 0.54499 0.71918 0.0
N281 N 0.91418 0.55184 0.74602 0.0
C282 C 0.91333 0.53039 0.76809 0.0
C283 C 0.91572 0.54492 0.77024 0.0
C284 C 0.90972 0.52313 0.74059 0.0
C285 C 0.90834 0.53058 0.71591 0.0
H286 H 0.90964 0.55084 0.70019 0.0
H287 H 0.91907 0.55075 0.79112 0.0
C288 C 0.94034 0.61645 0.82231 0.0
N289 N 0.94119 0.60478 0.81053 0.0
C290 C 0.94744 0.62281 0.84906 0.0
C291 C 0.95608 0.60496 0.85103 0.0
C292 C 0.94882 0.59897 0.82433 0.0
C293 C 0.95533 0.61696 0.8639 0.0
H294 H 0.93393 0.62066 0.81115 0.0
H295 H 0.94893 0.5894 0.81508 0.0
C296 C 0.8997 0.57467 0.69398 0.0
N297 N 0.87532 0.56736 0.6582 0.0
C298 C 0.90094 0.58394 0.67036 0.0
C299 C 0.88613 0.56157 0.69916 0.0
C300 C 0.88847 0.58008 0.65258 0.0
C301 C 0.87391 0.55811 0.68091 0.0
C302 C 0.93511 0.62324 0.74446 0.0
C303 C 0.92944 0.63191 0.73262 0.0
C304 C 0.95017 0.63007 0.75249 0.0
C305 C 0.93902 0.64724 0.72852 0.0
C306 C 0.95939 0.64543 0.74807 0.0
N307 N 0.95368 0.65363 0.73624 0.0
C308 C 0.8784 0.58032 0.76401 0.0
C309 C 0.88771 0.59723 0.72369 0.0
C310 C 0.86481 0.58012 0.76286 0.0
N311 N 0.88943 0.58867 0.74441 0.0
C312 C 0.87431 0.5974 0.72179 0.0
C313 C 0.86263 0.58869 0.74146 0.0
H314 H 0.88014 0.57385 0.78061 0.0
H315 H 0.8967 0.60379 0.70843 0.0
C316 C 0.95084 0.59962 0.67612 0.0
N317 N 0.94278 0.60576 0.68651 0.0
C318 C 0.95913 0.60496 0.65021 0.0
C319 C 0.95053 0.62278 0.6458 0.0
C320 C 0.94244 0.61712 0.67199 0.0
C321 C 0.95891 0.61659 0.63447 0.0
H322 H 0.95066 0.5904 0.68783 0.0
H323 H 0.93558 0.6215 0.6802 0.0
O324 O 0.91011 0.57848 0.78148 0.0
O325 O 0.93938 0.58722 0.74733 0.0
O326 O 0.9117 0.57841 0.71198 0.0
O327 O 0.92588 0.60819 0.74844 0.0
H328 H 0.9191 0.57652 0.83527 0.0
H329 H 0.88536 0.55304 0.76915 0.0
H330 H 0.90643 0.55422 0.86766 0.0
H331 H 0.87323 0.53116 0.80274 0.0
H332 H 0.99005 0.61647 0.74554 0.0
H333 H 0.94607 0.568 0.77171 0.0
H334 H 0.96469 0.61216 0.73465 0.0
H335 H 0.97178 0.57301 0.78159 0.0
H336 H 0.91473 0.52506 0.78749 0.0
H337 H 0.90558 0.5253 0.69435 0.0
H338 H 0.94641 0.63191 0.85842 0.0
H339 H 0.96213 0.60017 0.86157 0.0
H340 H 0.91137 0.5941 0.66601 0.0
H341 H 0.88503 0.55418 0.71712 0.0
H342 H 0.88924 0.58721 0.63435 0.0
H343 H 0.86331 0.54805 0.68478 0.0
H344 H 0.91779 0.62685 0.72654 0.0
H345 H 0.95466 0.62363 0.76233 0.0
H346 H 0.9348 0.65406 0.71922 0.0
H347 H 0.97107 0.65085 0.75416 0.0
H348 H 0.85618 0.57346 0.77878 0.0
H349 H 0.87303 0.60409 0.70484 0.0
H350 H 0.96558 0.59997 0.64254 0.0
H351 H 0.94985 0.63158 0.63413 0.0
Li352 Li 0.33247 0.93387 0.27972 0.0
Li353 Li 0.34512 0.92225 0.25348 0.0
Li354 Li 0.33413 0.93409 0.22494 0.0
Li355 Li 0.31878 0.91046 0.25173 0.0
C356 C 0.35711 0.95891 0.25577 0.0
N357 N 0.36991 0.98959 0.26011 0.0
C358 C 0.37249 0.96784 0.26036 0.0
C359 C 0.34824 0.96556 0.25342 0.0
C360 C 0.37875 0.98334 0.26248 0.0
C361 C 0.35492 0.98109 0.25566 0.0
C362 C 0.32228 0.90228 0.30455 0.0
C363 C 0.31013 0.87575 0.314 0.0
N364 N 0.30292 0.87751 0.33747 0.0
C365 C 0.31482 0.90384 0.32888 0.0
C366 C 0.32001 0.88814 0.29717 0.0
C367 C 0.30506 0.89118 0.34521 0.0
C368 C 0.31926 0.94319 0.32331 0.0
N369 N 0.33238 0.94477 0.3133 0.0
C370 C 0.34592 0.96215 0.35176 0.0
C371 C 0.34556 0.95391 0.32704 0.0
C372 C 0.33255 0.96074 0.3627 0.0
C373 C 0.31907 0.95107 0.34828 0.0
H374 H 0.30893 0.93569 0.31208 0.0
H375 H 0.35578 0.95475 0.31886 0.0
C376 C 0.374 0.92852 0.23789 0.0
N377 N 0.362 0.91956 0.25505 0.0
C378 C 0.38652 0.92671 0.23768 0.0
C379 C 0.37421 0.90671 0.27328 0.0
C380 C 0.3619 0.90886 0.2727 0.0
C381 C 0.38672 0.91568 0.25554 0.0
H382 H 0.37378 0.93702 0.22426 0.0
H383 H 0.35226 0.90198 0.28628 0.0
C384 C 0.30488 0.92975 0.23982 0.0
N385 N 0.28128 0.93232 0.21794 0.0
C386 C 0.29452 0.91889 0.22065 0.0
C387 C 0.30313 0.94183 0.24811 0.0
C388 C 0.2827 0.92041 0.20975 0.0
C389 C 0.29116 0.94296 0.23674 0.0
C390 C 0.3405 0.90993 0.20166 0.0
C391 C 0.34967 0.91898 0.17881 0.0
C392 C 0.34024 0.89659 0.20847 0.0
C393 C 0.35856 0.91461 0.16333 0.0
C394 C 0.34932 0.89262 0.19251 0.0
N395 N 0.35822 0.90164 0.17047 0.0
C396 C 0.34916 0.95729 0.18241 0.0
C397 C 0.32403 0.93965 0.17076 0.0
C398 C 0.3507 0.96499 0.15611 0.0
N399 N 0.33589 0.94502 0.18951 0.0
C400 C 0.32507 0.94697 0.14418 0.0
C401 C 0.33855 0.95985 0.1366 0.0
H402 H 0.35872 0.96094 0.1967 0.0
H403 H 0.31386 0.92948 0.17604 0.0
C404 C 0.2893 0.89018 0.26962 0.0
N405 N 0.30041 0.89212 0.25086 0.0
C406 C 0.27573 0.87673 0.26972 0.0
C407 C 0.28522 0.86767 0.23081 0.0
C408 C 0.29861 0.88129 0.23149 0.0
C409 C 0.27358 0.86524 0.25017 0.0
H410 H 0.29104 0.89908 0.2846 0.0
H411 H 0.30754 0.88325 0.21647 0.0
O412 O 0.35081 0.94371 0.25409 0.0
O413 O 0.33167 0.91451 0.28797 0.0
O414 O 0.31638 0.92832 0.25124 0.0
O415 O 0.33199 0.91421 0.21755 0.0
H416 H 0.37949 0.96284 0.26232 0.0
H417 H 0.33635 0.95881 0.24977 0.0
H418 H 0.39064 0.9904 0.26604 0.0
H419 H 0.34818 0.98639 0.25385 0.0
H420 H 0.30815 0.86473 0.30834 0.0
H421 H 0.3165 0.91469 0.33504 0.0
H422 H 0.32559 0.88669 0.2783 0.0
H423 H 0.29917 0.89222 0.36401 0.0
H424 H 0.3565 0.96931 0.36259 0.0
H425 H 0.30854 0.94969 0.35611 0.0
H426 H 0.39601 0.93402 0.22402 0.0
H427 H 0.37386 0.89801 0.28721 0.0
H428 H 0.2957 0.90949 0.21384 0.0
H429 H 0.31089 0.95024 0.26326 0.0
H430 H 0.27466 0.91214 0.19474 0.0
H431 H 0.2897 0.95227 0.24292 0.0
H432 H 0.35004 0.92934 0.17324 0.0
H433 H 0.3333 0.8895 0.22622 0.0
H434 H 0.36577 0.92154 0.1457 0.0
H435 H 0.34933 0.8824 0.19773 0.0
H436 H 0.36143 0.97461 0.15073 0.0
H437 H 0.31545 0.94257 0.12969 0.0
H438 H 0.26709 0.87529 0.28518 0.0
H439 H 0.28394 0.85922 0.21502 0.0
Li440 Li 0.41965 0.34395 0.75449 0.0
Li441 Li 0.39408 0.33068 0.77755 0.0
Li442 Li 0.40497 0.31728 0.74914 0.0
Li443 Li 0.39739 0.33264 0.72431 0.0
C444 C 0.42291 0.33523 0.80773 0.0
N445 N 0.4452 0.34905 0.84959 0.0
C446 C 0.42086 0.34243 0.83195 0.0
C447 C 0.43626 0.33499 0.80491 0.0
C448 C 0.43226 0.34936 0.85286 0.0
C449 C 0.44741 0.34207 0.82626 0.0
C450 C 0.40285 0.35981 0.73706 0.0
C451 C 0.3891 0.37127 0.71825 0.0
N452 N 0.40101 0.38048 0.70109 0.0
C453 C 0.41495 0.36939 0.71922 0.0
C454 C 0.3898 0.36075 0.73657 0.0
C455 C 0.4138 0.37976 0.70121 0.0
C456 C 0.44994 0.36306 0.73888 0.0
N457 N 0.43922 0.36076 0.759 0.0
C458 C 0.4561 0.38323 0.78451 0.0
C459 C 0.44197 0.3706 0.78135 0.0
C460 C 0.46745 0.3859 0.76412 0.0
C461 C 0.4642 0.37558 0.74108 0.0
H462 H 0.44734 0.35539 0.72068 0.0
H463 H 0.43312 0.36871 0.79656 0.0
C464 C 0.37932 0.31836 0.83073 0.0
N465 N 0.38249 0.32945 0.81092 0.0
C466 C 0.3717 0.31747 0.85682 0.0
C467 C 0.37026 0.3391 0.84101 0.0
C468 C 0.37813 0.33971 0.81545 0.0
C469 C 0.36715 0.32799 0.86222 0.0
H470 H 0.38305 0.31042 0.82653 0.0
H471 H 0.38105 0.34857 0.79962 0.0
C472 C 0.4217 0.32478 0.70248 0.0
N473 N 0.43261 0.30897 0.67218 0.0
C474 C 0.41503 0.31753 0.67598 0.0
C475 C 0.43394 0.324 0.71351 0.0
C476 C 0.42072 0.30961 0.66099 0.0
C477 C 0.43927 0.31593 0.69791 0.0
C478 C 0.37101 0.30748 0.73402 0.0
C479 C 0.36959 0.30091 0.7063 0.0
C480 C 0.35851 0.30683 0.74744 0.0
C481 C 0.35567 0.29391 0.6923 0.0
C482 C 0.34477 0.2997 0.73274 0.0
N483 N 0.34366 0.29346 0.70569 0.0
C484 C 0.41158 0.29594 0.77259 0.0
C485 C 0.40001 0.28961 0.72548 0.0
C486 C 0.41247 0.28289 0.77311 0.0
N487 N 0.40557 0.29911 0.74887 0.0
C488 C 0.40088 0.27656 0.72484 0.0
C489 C 0.4072 0.2731 0.74887 0.0
H490 H 0.41568 0.30353 0.79115 0.0
H491 H 0.39498 0.29218 0.70719 0.0
C492 C 0.39894 0.34146 0.66539 0.0
N493 N 0.38941 0.33601 0.68873 0.0
C494 C 0.39444 0.34495 0.63898 0.0
C495 C 0.37049 0.33764 0.66126 0.0
C496 C 0.37546 0.33426 0.68728 0.0
C497 C 0.38004 0.34308 0.63665 0.0
H498 H 0.41017 0.34333 0.66744 0.0
H499 H 0.36832 0.33062 0.70651 0.0
O500 O 0.41194 0.32853 0.78681 0.0
O501 O 0.40362 0.34929 0.75418 0.0
O502 O 0.41621 0.33247 0.71769 0.0
O503 O 0.3845 0.31434 0.74821 0.0
H504 H 0.41066 0.34284 0.83444 0.0
H505 H 0.43804 0.32945 0.78638 0.0
H506 H 0.43085 0.35503 0.87164 0.0
H507 H 0.45782 0.34202 0.82427 0.0
H508 H 0.37904 0.37204 0.7175 0.0
H509 H 0.42504 0.36869 0.71891 0.0
H510 H 0.38019 0.35321 0.74963 0.0
H511 H 0.42306 0.38719 0.6872 0.0
H512 H 0.4581 0.39083 0.8027 0.0
H513 H 0.47246 0.37736 0.72441 0.0
H514 H 0.36948 0.30875 0.87271 0.0
H515 H 0.36713 0.34754 0.84466 0.0
H516 H 0.40539 0.31774 0.66731 0.0
H517 H 0.43918 0.32943 0.73404 0.0
H518 H 0.41562 0.30389 0.64055 0.0
H519 H 0.44868 0.31518 0.70629 0.0
H520 H 0.37918 0.30148 0.69545 0.0
H521 H 0.35941 0.31181 0.76894 0.0
H522 H 0.35444 0.2889 0.67073 0.0
H523 H 0.33501 0.29914 0.74281 0.0
H524 H 0.41741 0.28058 0.79204 0.0
H525 H 0.39649 0.26915 0.70596 0.0
H526 H 0.40217 0.34905 0.62057 0.0
H527 H 0.35943 0.33637 0.66069 0.0
Li528 Li 0.59791 0.93483 0.27337 0.0
Li529 Li 0.59056 0.91162 0.24762 0.0
Li530 Li 0.5977 0.9356 0.22034 0.0
Li531 Li 0.57399 0.92247 0.24688 0.0
C532 C 0.62329 0.93646 0.26078 0.0
N533 N 0.64951 0.94895 0.29297 0.0
C534 C 0.6265 0.92745 0.27886 0.0
C535 C 0.63347 0.95178 0.25878 0.0
C536 C 0.63981 0.93399 0.29502 0.0
C537 C 0.64664 0.9579 0.27532 0.0
C538 C 0.56835 0.90178 0.29116 0.0
C539 C 0.54726 0.87732 0.28135 0.0
N540 N 0.54415 0.87544 0.31078 0.0
C541 C 0.56494 0.89962 0.32128 0.0
C542 C 0.55945 0.89055 0.27099 0.0
C543 C 0.55266 0.88621 0.33077 0.0
C544 C 0.61152 0.95986 0.31189 0.0
N545 N 0.60742 0.94523 0.3086 0.0
C546 C 0.61642 0.94462 0.35695 0.0
C547 C 0.60964 0.93752 0.33048 0.0
C548 C 0.62082 0.95977 0.36098 0.0
C549 C 0.61831 0.9674 0.33798 0.0
H550 H 0.60933 0.96564 0.29448 0.0
H551 H 0.6061 0.92582 0.32732 0.0
C552 C 0.59454 0.88912 0.22168 0.0
N553 N 0.59171 0.89391 0.24756 0.0
C554 C 0.5954 0.87606 0.22088 0.0
C555 C 0.59062 0.87325 0.2735 0.0
C556 C 0.58998 0.88642 0.2733 0.0
C557 C 0.59332 0.86787 0.24702 0.0
H558 H 0.59616 0.8955 0.20167 0.0
H559 H 0.58807 0.89066 0.2937 0.0
C560 C 0.59089 0.95693 0.23603 0.0
N561 N 0.59473 0.98293 0.21043 0.0
C562 C 0.5786 0.9575 0.22467 0.0
C563 C 0.60513 0.9696 0.2344 0.0
C564 C 0.58077 0.97075 0.21183 0.0
C565 C 0.60684 0.98262 0.22135 0.0
C566 C 0.57131 0.90979 0.18943 0.0
C567 C 0.56695 0.91899 0.17516 0.0
C568 C 0.56572 0.89508 0.17971 0.0
C569 C 0.55718 0.91338 0.15113 0.0
C570 C 0.55596 0.88988 0.15562 0.0
N571 N 0.55194 0.89906 0.14193 0.0
C572 C 0.62096 0.94769 0.17819 0.0
C573 C 0.60214 0.95399 0.16955 0.0
C574 C 0.6291 0.95619 0.15378 0.0
N575 N 0.60781 0.94687 0.18577 0.0
C576 C 0.61005 0.96285 0.1455 0.0
C577 C 0.62371 0.96405 0.1375 0.0
H578 H 0.62517 0.94181 0.19123 0.0
H579 H 0.59159 0.95302 0.17539 0.0
C580 C 0.55131 0.92647 0.26897 0.0
N581 N 0.55379 0.91811 0.24902 0.0
C582 C 0.53714 0.92488 0.27176 0.0
C583 C 0.52815 0.90568 0.23418 0.0
C584 C 0.54249 0.90756 0.23231 0.0
C585 C 0.52537 0.91458 0.25382 0.0
H586 H 0.56045 0.93456 0.2824 0.0
H587 H 0.54455 0.90065 0.21734 0.0
O588 O 0.61016 0.93033 0.24538 0.0
O589 O 0.58029 0.91489 0.28162 0.0
O590 O 0.58898 0.94406 0.24878 0.0
O591 O 0.58075 0.91497 0.21317 0.0
H592 H 0.61873 0.91557 0.28064 0.0
H593 H 0.63117 0.95887 0.24474 0.0
H594 H 0.6424 0.92718 0.30927 0.0
H595 H 0.65459 0.96975 0.27415 0.0
H596 H 0.54029 0.86854 0.26599 0.0
H597 H 0.57172 0.90822 0.33715 0.0
H598 H 0.56192 0.89202 0.24761 0.0
H599 H 0.54989 0.88438 0.35403 0.0
H600 H 0.61822 0.93834 0.37401 0.0
H601 H 0.62122 0.97899 0.34037 0.0
H602 H 0.5978 0.8725 0.20008 0.0
H603 H 0.5888 0.86727 0.29413 0.0
H604 H 0.56752 0.9478 0.2254 0.0
H605 H 0.6148 0.96933 0.24276 0.0
H606 H 0.57137 0.97133 0.20286 0.0
H607 H 0.6178 0.99248 0.2198 0.0
H608 H 0.57074 0.93019 0.18305 0.0
H609 H 0.56881 0.88773 0.19078 0.0
H610 H 0.55367 0.92037 0.13993 0.0
H611 H 0.55155 0.87852 0.14788 0.0
H612 H 0.63959 0.95685 0.14805 0.0
H613 H 0.60547 0.96862 0.1331 0.0
H614 H 0.53547 0.93171 0.28777 0.0
H615 H 0.51945 0.8976 0.21989 0.0
Li616 Li 0.66233 0.59629 0.77333 0.0
Li617 Li 0.67804 0.5883 0.75017 0.0
Li618 Li 0.66217 0.59512 0.72134 0.0
Li619 Li 0.65017 0.57181 0.74915 0.0
C620 C 0.6874 0.62164 0.76 0.0
N621 N 0.70329 0.6491 0.78761 0.0
C622 C 0.70143 0.62608 0.77225 0.0
C623 C 0.6815 0.6312 0.76159 0.0
C624 C 0.70928 0.64 0.78616 0.0
C625 C 0.68969 0.64502 0.77572 0.0
C626 C 0.668 0.58037 0.81276 0.0
C627 C 0.66104 0.57547 0.8642 0.0
N628 N 0.67549 0.58494 0.87203 0.0
C629 C 0.68278 0.59006 0.82135 0.0
C630 C 0.65704 0.57299 0.83436 0.0
C631 C 0.68634 0.59221 0.8514 0.0
C632 C 0.64529 0.60199 0.81315 0.0
N633 N 0.65965 0.60571 0.80744 0.0
C634 C 0.66787 0.61982 0.8523 0.0
C635 C 0.67091 0.6145 0.82635 0.0
C636 C 0.65308 0.61589 0.85898 0.0
C637 C 0.64173 0.607 0.83885 0.0
H638 H 0.63649 0.59481 0.79806 0.0
H639 H 0.68221 0.61707 0.82182 0.0
C640 C 0.70692 0.59755 0.73013 0.0
N641 N 0.69624 0.58814 0.74934 0.0
C642 C 0.72047 0.59771 0.72804 0.0
C643 C 0.71164 0.57832 0.7653 0.0
C644 C 0.69826 0.57853 0.76662 0.0
C645 C 0.72298 0.58802 0.74583 0.0
H646 H 0.70485 0.6049 0.71637 0.0
H647 H 0.68946 0.57103 0.78142 0.0
C648 C 0.63523 0.58981 0.73048 0.0
N649 N 0.61707 0.59509 0.69356 0.0
C650 C 0.62524 0.57858 0.71144 0.0
C651 C 0.63589 0.60366 0.73096 0.0
C652 C 0.61617 0.58148 0.6929 0.0
C653 C 0.62665 0.60613 0.71206 0.0
C654 C 0.66709 0.56617 0.707 0.0
C655 C 0.6703 0.56508 0.67741 0.0
C656 C 0.66677 0.55593 0.72764 0.0
C657 C 0.67307 0.55368 0.66889 0.0
C658 C 0.66961 0.5447 0.71825 0.0
N659 N 0.67267 0.54381 0.68932 0.0
C660 C 0.66671 0.61848 0.68187 0.0
C661 C 0.65375 0.59388 0.66231 0.0
C662 C 0.66537 0.62438 0.65504 0.0
N663 N 0.66084 0.60348 0.68499 0.0
C664 C 0.65216 0.59928 0.63511 0.0
C665 C 0.65798 0.61472 0.63124 0.0
H666 H 0.67242 0.62586 0.70017 0.0
H667 H 0.64919 0.582 0.66552 0.0
C668 C 0.62449 0.54899 0.77489 0.0
N669 N 0.63337 0.55214 0.75071 0.0
C670 C 0.61155 0.53509 0.77775 0.0
C671 C 0.61693 0.52797 0.73041 0.0
C672 C 0.62977 0.54205 0.72842 0.0
C673 C 0.60761 0.52436 0.75531 0.0
H674 H 0.62735 0.55741 0.79172 0.0
H675 H 0.63665 0.545 0.70883 0.0
O676 O 0.67964 0.60812 0.74602 0.0
O677 O 0.66427 0.57828 0.78341 0.0
O678 O 0.64452 0.58734 0.74814 0.0
O679 O 0.6646 0.57743 0.7157 0.0
H680 H 0.70621 0.61886 0.77115 0.0
H681 H 0.67062 0.62791 0.75243 0.0
H682 H 0.72013 0.64356 0.79582 0.0
H683 H 0.6852 0.65249 0.7773 0.0
H684 H 0.65266 0.56986 0.88113 0.0
H685 H 0.69137 0.5961 0.80504 0.0
H686 H 0.64556 0.56546 0.82824 0.0
H687 H 0.69772 0.59975 0.85831 0.0
H688 H 0.67692 0.62648 0.86744 0.0
H689 H 0.63019 0.60382 0.84304 0.0
H690 H 0.72879 0.60519 0.71239 0.0
H691 H 0.71316 0.57077 0.77959 0.0
H692 H 0.62464 0.56782 0.71071 0.0
H693 H 0.64354 0.61244 0.74564 0.0
H694 H 0.60846 0.57294 0.67789 0.0
H695 H 0.62711 0.61683 0.71206 0.0
H696 H 0.67067 0.57298 0.66121 0.0
H697 H 0.66432 0.55662 0.75064 0.0
H698 H 0.67556 0.55268 0.64605 0.0
H699 H 0.66939 0.5367 0.73397 0.0
H700 H 0.67017 0.63636 0.65287 0.0
H701 H 0.6462 0.59143 0.61749 0.0
H702 H 0.6047 0.53278 0.79733 0.0
H703 H 0.61413 0.52013 0.71232 0.0
Li704 Li 0.08976 0.67977 0.245 0.0
Li705 Li 0.06701 0.66559 0.2725 0.0
Li706 Li 0.0785 0.65305 0.2464 0.0
Li707 Li 0.06555 0.66408 0.21881 0.0
C708 C 0.0988 0.67571 0.29641 0.0
N709 N 0.12412 0.69437 0.32857 0.0
C710 C 0.09801 0.68422 0.31965 0.0
C711 C 0.11243 0.6766 0.28965 0.0
C712 C 0.11095 0.69359 0.33564 0.0
C713 C 0.12512 0.68614 0.30612 0.0
C714 C 0.06305 0.68856 0.24523 0.0
C715 C 0.03933 0.68738 0.23801 0.0
N716 N 0.04562 0.70195 0.2463 0.0
C717 C 0.06929 0.70355 0.25348 0.0
C718 C 0.04796 0.68042 0.23728 0.0
C719 C 0.06029 0.71011 0.25398 0.0
C720 C 0.11889 0.70033 0.22431 0.0
N721 N 0.10802 0.6982 0.24389 0.0
C722 C 0.12322 0.7227 0.26376 0.0
C723 C 0.10988 0.70905 0.26329 0.0
C724 C 0.13472 0.72521 0.24396 0.0
C725 C 0.13243 0.71382 0.22401 0.0
H726 H 0.11704 0.69157 0.2089 0.0
H727 H 0.10105 0.70701 0.27866 0.0
C728 C 0.05827 0.65577 0.32947 0.0
N729 N 0.05675 0.66434 0.30848 0.0
C730 C 0.05058 0.65286 0.35615 0.0
C731 C 0.04032 0.66817 0.33985 0.0
C732 C 0.04815 0.6707 0.3133 0.0
C733 C 0.04133 0.65896 0.36146 0.0
H734 H 0.06529 0.65097 0.3252 0.0
H735 H 0.04711 0.67753 0.29659 0.0
C736 C 0.09072 0.65937 0.19249 0.0
N737 N 0.10076 0.64472 0.15615 0.0
C738 C 0.08257 0.65185 0.16733 0.0
C739 C 0.10403 0.65955 0.19905 0.0
C740 C 0.08783 0.64449 0.14925 0.0
C741 C 0.10889 0.65203 0.18045 0.0
C742 C 0.04564 0.63739 0.26481 0.0
C743 C 0.04742 0.62719 0.28222 0.0
C744 C 0.03232 0.63777 0.26652 0.0
C745 C 0.03592 0.61767 0.30127 0.0
C746 C 0.02109 0.62809 0.28589 0.0
N747 N 0.02311 0.61834 0.30273 0.0
C748 C 0.08912 0.63504 0.27135 0.0
C749 C 0.0764 0.62616 0.2257 0.0
C750 C 0.091 0.6226 0.27371 0.0
N751 N 0.08193 0.63658 0.2476 0.0
C752 C 0.07836 0.61374 0.22681 0.0
C753 C 0.08561 0.61182 0.25119 0.0
H754 H 0.09309 0.6433 0.28879 0.0
H755 H 0.07029 0.6274 0.20758 0.0
C756 C 0.05947 0.67261 0.16339 0.0
N757 N 0.054 0.662 0.18489 0.0
C758 C 0.051 0.67085 0.13805 0.0
C759 C 0.03138 0.64748 0.15799 0.0
C760 C 0.04029 0.6496 0.18268 0.0
C761 C 0.03676 0.6581 0.13505 0.0
H762 H 0.07048 0.68232 0.16579 0.0
H763 H 0.03626 0.64136 0.20014 0.0
O764 O 0.08633 0.66669 0.28013 0.0
O765 O 0.07181 0.68208 0.24413 0.0
O766 O 0.08569 0.66654 0.21058 0.0
O767 O 0.05697 0.64711 0.24663 0.0
H768 H 0.08758 0.68374 0.32506 0.0
H769 H 0.11322 0.6701 0.27172 0.0
H770 H 0.11053 0.7003 0.35358 0.0
H771 H 0.13576 0.68701 0.30102 0.0
H772 H 0.02763 0.68118 0.23205 0.0
H773 H 0.08097 0.71009 0.25938 0.0
H774 H 0.04291 0.66884 0.23095 0.0
H775 H 0.06498 0.7217 0.26039 0.0
H776 H 0.12459 0.7311 0.27976 0.0
H777 H 0.14094 0.71538 0.20811 0.0
H778 H 0.05184 0.64588 0.37245 0.0
H779 H 0.03325 0.67303 0.3431 0.0
H780 H 0.07225 0.65159 0.1619 0.0
H781 H 0.11044 0.66527 0.21848 0.0
H782 H 0.08161 0.63857 0.12977 0.0
H783 H 0.11912 0.65198 0.18537 0.0
H784 H 0.05764 0.62674 0.2814 0.0
H785 H 0.03068 0.64553 0.25327 0.0
H786 H 0.0372 0.60981 0.315 0.0
H787 H 0.01078 0.62836 0.28757 0.0
H788 H 0.09658 0.62138 0.2929 0.0
H789 H 0.07385 0.60549 0.20929 0.0
H790 H 0.0557 0.67922 0.1208 0.0
H791 H 0.02038 0.63763 0.15699 0.0
Li792 Li 0.40709 0.08843 0.74856 0.0
Li793 Li 0.39852 0.06496 0.77296 0.0
Li794 Li 0.4214 0.07519 0.74629 0.0
Li795 Li 0.3964 0.06377 0.72013 0.0
C796 C 0.42879 0.09699 0.79179 0.0
N797 N 0.45224 0.12366 0.81231 0.0
C798 C 0.42934 0.101 0.82148 0.0
C799 C 0.44015 0.10656 0.77255 0.0
C800 C 0.44128 0.11453 0.83143 0.0
C801 C 0.45192 0.11998 0.78334 0.0
C802 C 0.3739 0.06763 0.76288 0.0
C803 C 0.34712 0.05331 0.76839 0.0
N804 N 0.34823 0.06079 0.7939 0.0
C805 C 0.37479 0.07525 0.78901 0.0
C806 C 0.35997 0.05663 0.75234 0.0
C807 C 0.36167 0.07159 0.80444 0.0
C808 C 0.40757 0.11329 0.72214 0.0
N809 N 0.40812 0.10724 0.74845 0.0
C810 C 0.40968 0.12805 0.77464 0.0
C811 C 0.40904 0.11423 0.77445 0.0
C812 C 0.40915 0.13463 0.74781 0.0
C813 C 0.40808 0.12705 0.72128 0.0
H814 H 0.40661 0.10734 0.70182 0.0
H815 H 0.4092 0.10906 0.79509 0.0
C816 C 0.39769 0.05793 0.83282 0.0
N817 N 0.38902 0.05415 0.8082 0.0
C818 C 0.39184 0.05033 0.85931 0.0
C819 C 0.36824 0.03493 0.83462 0.0
C820 C 0.37456 0.04284 0.80856 0.0
C821 C 0.37692 0.03865 0.86046 0.0
H822 H 0.40926 0.06668 0.83171 0.0
H823 H 0.36801 0.03975 0.78853 0.0
C824 C 0.42391 0.08923 0.68876 0.0
N825 N 0.44183 0.10082 0.63933 0.0
C826 C 0.42245 0.07989 0.66508 0.0
C827 C 0.4343 0.10452 0.68705 0.0
C828 C 0.43166 0.08594 0.64035 0.0
C829 C 0.44331 0.11014 0.66195 0.0
C830 C 0.40137 0.04181 0.7619 0.0
C831 C 0.4117 0.0421 0.7822 0.0
C832 C 0.38725 0.02902 0.75959 0.0
C833 C 0.40771 0.0296 0.8 0.0
C834 C 0.38369 0.01674 0.77776 0.0
N835 N 0.39391 0.01729 0.79744 0.0
C836 C 0.44884 0.07987 0.76994 0.0
C837 C 0.44626 0.07555 0.71831 0.0
C838 C 0.46289 0.08103 0.76952 0.0
N839 N 0.44089 0.07732 0.74451 0.0
C840 C 0.46029 0.0767 0.71682 0.0
C841 C 0.46881 0.07943 0.74269 0.0
H842 H 0.44415 0.08076 0.7907 0.0
H843 H 0.43958 0.07301 0.69858 0.0
C844 C 0.38027 0.06032 0.66786 0.0
N845 N 0.3855 0.05352 0.68613 0.0
C846 C 0.37257 0.05315 0.64207 0.0
C847 C 0.37556 0.03204 0.65486 0.0
C848 C 0.38339 0.0397 0.6801 0.0
C849 C 0.37012 0.03881 0.63543 0.0
H850 H 0.38224 0.07138 0.6732 0.0
H851 H 0.38799 0.03473 0.69466 0.0
O852 O 0.41693 0.08396 0.78163 0.0
O853 O 0.38658 0.07095 0.74756 0.0
O854 O 0.41486 0.08352 0.71302 0.0
O855 O 0.40496 0.05409 0.74484 0.0
H856 H 0.42053 0.09383 0.83663 0.0
H857 H 0.43992 0.10362 0.7496 0.0
H858 H 0.44181 0.11779 0.85432 0.0
H859 H 0.46081 0.12747 0.76867 0.0
H860 H 0.33626 0.04478 0.76059 0.0
H861 H 0.3855 0.08375 0.79748 0.0
H862 H 0.35914 0.05067 0.73208 0.0
H863 H 0.36219 0.07732 0.82481 0.0
H864 H 0.41068 0.13353 0.79561 0.0
H865 H 0.40737 0.13155 0.70012 0.0
H866 H 0.39904 0.05335 0.87851 0.0
H867 H 0.35668 0.02602 0.83452 0.0
H868 H 0.41443 0.06804 0.66593 0.0
H869 H 0.43535 0.11201 0.70479 0.0
H870 H 0.43073 0.07882 0.62199 0.0
H871 H 0.45145 0.12194 0.6604 0.0
H872 H 0.42263 0.05193 0.78443 0.0
H873 H 0.379 0.02869 0.7444 0.0
H874 H 0.41558 0.0297 0.81591 0.0
H875 H 0.37277 0.00682 0.77638 0.0
H876 H 0.46887 0.08278 0.79014 0.0
H877 H 0.4644 0.07545 0.6956 0.0
H878 H 0.36854 0.05871 0.62755 0.0
H879 H 0.37412 0.02111 0.65016 0.0
Li880 Li 0.33354 0.40043 0.26919 0.0
Li881 Li 0.31692 0.40728 0.24385 0.0
Li882 Li 0.33224 0.39842 0.2162 0.0
Li883 Li 0.34427 0.42358 0.23817 0.0
C884 C 0.30858 0.37486 0.26181 0.0
N885 N 0.29479 0.34989 0.29763 0.0
C886 C 0.29628 0.37226 0.27904 0.0
C887 C 0.31378 0.3647 0.26252 0.0
C888 C 0.28947 0.35958 0.29706 0.0
C889 C 0.30669 0.35217 0.28087 0.0
C890 C 0.33054 0.42925 0.28997 0.0
C891 C 0.33036 0.45252 0.29116 0.0
N892 N 0.32766 0.45081 0.32074 0.0
C893 C 0.3279 0.42779 0.32043 0.0
C894 C 0.33188 0.44176 0.27524 0.0
C895 C 0.32642 0.43878 0.33557 0.0
C896 C 0.34872 0.3913 0.30803 0.0
N897 N 0.3363 0.39253 0.30501 0.0
C898 C 0.32863 0.38375 0.35435 0.0
C899 C 0.3263 0.3889 0.32744 0.0
C900 C 0.34148 0.38255 0.35824 0.0
C901 C 0.35154 0.38629 0.33457 0.0
H902 H 0.35659 0.39445 0.29002 0.0
H903 H 0.31665 0.39025 0.32459 0.0
C904 C 0.29038 0.40353 0.21947 0.0
N905 N 0.29838 0.40686 0.24495 0.0
C906 C 0.27684 0.40347 0.2187 0.0
C907 C 0.27993 0.41 0.27059 0.0
C908 C 0.29334 0.40982 0.27039 0.0
C909 C 0.27155 0.40688 0.24445 0.0
H910 H 0.29463 0.40109 0.19964 0.0
H911 H 0.29968 0.412 0.29055 0.0
C912 C 0.36084 0.40584 0.22742 0.0
N913 N 0.38147 0.40072 0.19869 0.0
C914 C 0.37309 0.41758 0.2131 0.0
C915 C 0.35917 0.39154 0.22741 0.0
C916 C 0.38338 0.41475 0.19864 0.0
C917 C 0.36969 0.38917 0.21266 0.0
C918 C 0.32859 0.4246 0.18578 0.0
C919 C 0.33444 0.42506 0.15768 0.0
C920 C 0.32236 0.4336 0.19193 0.0
C921 C 0.3342 0.43473 0.13635 0.0
C922 C 0.32232 0.44312 0.17001 0.0
N923 N 0.32821 0.44349 0.14292 0.0
C924 C 0.32072 0.37304 0.17903 0.0
C925 C 0.34384 0.3935 0.16335 0.0
C926 C 0.32052 0.36455 0.15477 0.0
N927 N 0.33232 0.38719 0.1829 0.0
C928 C 0.34426 0.38533 0.1392 0.0
C929 C 0.33249 0.37069 0.13472 0.0
H930 H 0.31161 0.36836 0.19474 0.0
H931 H 0.35273 0.40488 0.16647 0.0
C932 C 0.36832 0.44911 0.26135 0.0
N933 N 0.36025 0.4437 0.2361 0.0
C934 C 0.38031 0.46373 0.26247 0.0
C935 C 0.37553 0.46698 0.21149 0.0
C936 C 0.36366 0.45226 0.21133 0.0
C937 C 0.38406 0.47292 0.23731 0.0
H938 H 0.36542 0.442 0.28063 0.0
H939 H 0.35726 0.44772 0.19139 0.0
O940 O 0.31552 0.38732 0.24438 0.0
O941 O 0.33198 0.41856 0.27486 0.0
O942 O 0.35062 0.40839 0.24156 0.0
O943 O 0.32869 0.41513 0.20686 0.0
H944 H 0.2921 0.38001 0.27868 0.0
H945 H 0.32324 0.36653 0.24918 0.0
H946 H 0.27999 0.35745 0.31066 0.0
H947 H 0.31065 0.34426 0.28179 0.0
H948 H 0.33137 0.46225 0.28001 0.0
H949 H 0.32695 0.41824 0.33223 0.0
H950 H 0.33424 0.44325 0.25185 0.0
H951 H 0.32431 0.43775 0.35912 0.0
H952 H 0.3207 0.38116 0.37218 0.0
H953 H 0.36152 0.38541 0.33659 0.0
H954 H 0.27074 0.40107 0.19808 0.0
H955 H 0.27607 0.41241 0.29102 0.0
H956 H 0.37458 0.42872 0.21298 0.0
H957 H 0.34978 0.38235 0.23844 0.0
H958 H 0.39287 0.4237 0.18734 0.0
H959 H 0.36848 0.37814 0.21229 0.0
H960 H 0.3392 0.4181 0.15241 0.0
H961 H 0.31747 0.43319 0.21327 0.0
H962 H 0.33877 0.43525 0.11457 0.0
H963 H 0.31756 0.45016 0.17451 0.0
H964 H 0.31124 0.35329 0.15188 0.0
H965 H 0.35355 0.39049 0.12387 0.0
H966 H 0.38672 0.4677 0.2827 0.0
H967 H 0.37792 0.47367 0.19165 0.0
Li968 Li 0.90922 0.31838 0.74637 0.0
Li969 Li 0.93242 0.33522 0.77254 0.0
Li970 Li 0.92042 0.34504 0.73976 0.0
Li971 Li 0.93302 0.332 0.72027 0.0
C972 C 0.90066 0.32651 0.79486 0.0
N973 N 0.87604 0.3109 0.83096 0.0
C974 C 0.90213 0.32091 0.82201 0.0
C975 C 0.88671 0.32429 0.78617 0.0
C976 C 0.88954 0.31303 0.83994 0.0
C977 C 0.87439 0.31632 0.80469 0.0
C978 C 0.93222 0.30771 0.73977 0.0
C979 C 0.95236 0.30337 0.7267 0.0
N980 N 0.94238 0.29033 0.71336 0.0
C981 C 0.92214 0.29426 0.72604 0.0
C982 C 0.94744 0.31229 0.74026 0.0
C983 C 0.9275 0.28563 0.71279 0.0
C984 C 0.8814 0.29606 0.72488 0.0
N985 N 0.89089 0.30002 0.74825 0.0
C986 C 0.87407 0.27756 0.77387 0.0
C987 C 0.88762 0.29102 0.77232 0.0
C988 C 0.86402 0.27323 0.75009 0.0
C989 C 0.86784 0.28263 0.72531 0.0
H990 H 0.8844 0.30328 0.7058 0.0
H991 H 0.89556 0.29429 0.79027 0.0
C992 C 0.94468 0.35043 0.82564 0.0
N993 N 0.94284 0.33873 0.8088 0.0
C994 C 0.95274 0.35384 0.85197 0.0
C995 C 0.95618 0.33258 0.84394 0.0
C996 C 0.94825 0.32973 0.81747 0.0
C997 C 0.95863 0.34487 0.86132 0.0
H998 H 0.93997 0.35719 0.81844 0.0
H999 H 0.94644 0.32038 0.80381 0.0
C1000 C 0.90799 0.33452 0.68716 0.0
N1001 N 0.89757 0.34594 0.64398 0.0
C1002 C 0.91626 0.34061 0.66131 0.0
C1003 C 0.89438 0.33416 0.69096 0.0
C1004 C 0.9108 0.34633 0.63975 0.0
C1005 C 0.88932 0.34002 0.66891 0.0
C1006 C 0.95395 0.36207 0.75621 0.0
C1007 C 0.95389 0.3749 0.76585 0.0
C1008 C 0.96628 0.36036 0.76228 0.0
C1009 C 0.96613 0.38576 0.7817 0.0
C1010 C 0.97829 0.37145 0.77825 0.0
N1011 N 0.97797 0.38381 0.78755 0.0
C1012 C 0.90953 0.36393 0.7568 0.0
C1013 C 0.92154 0.36992 0.71012 0.0
C1014 C 0.90704 0.376 0.75488 0.0
N1015 N 0.91662 0.36112 0.73458 0.0
C1016 C 0.91904 0.38195 0.707 0.0
C1017 C 0.91179 0.38523 0.7297 0.0
H1018 H 0.90609 0.357 0.77636 0.0
H1019 H 0.92752 0.36769 0.69313 0.0
C1020 C 0.93745 0.31978 0.66804 0.0
N1021 N 0.94427 0.33106 0.68799 0.0
C1022 C 0.94528 0.31921 0.64338 0.0
C1023 C 0.96701 0.34185 0.6604 0.0
C1024 C 0.95876 0.34197 0.68472 0.0
C1025 C 0.96024 0.33044 0.63917 0.0
H1026 H 0.92584 0.31135 0.67109 0.0
H1027 H 0.96383 0.35093 0.70066 0.0
O1028 O 0.91281 0.33408 0.77683 0.0
O1029 O 0.92722 0.31643 0.75243 0.0
O1030 O 0.91316 0.32891 0.70859 0.0
O1031 O 0.94197 0.35121 0.74105 0.0
H1032 H 0.91285 0.32252 0.82906 0.0
H1033 H 0.88541 0.32857 0.76523 0.0
H1034 H 0.89049 0.30857 0.86095 0.0
H1035 H 0.8635 0.31443 0.79816 0.0
H1036 H 0.96413 0.30682 0.72672 0.0
H1037 H 0.91032 0.29057 0.72541 0.0
H1038 H 0.95539 0.32271 0.75068 0.0
H1039 H 0.91985 0.27522 0.70197 0.0
H1040 H 0.8716 0.2705 0.79317 0.0
H1041 H 0.86035 0.27968 0.70658 0.0
H1042 H 0.95423 0.36328 0.86504 0.0
H1043 H 0.96057 0.32543 0.85051 0.0
H1044 H 0.92684 0.34104 0.65802 0.0
H1045 H 0.88785 0.3295 0.71085 0.0
H1046 H 0.91711 0.35113 0.61969 0.0
H1047 H 0.87885 0.33989 0.67163 0.0
H1048 H 0.94445 0.37643 0.76136 0.0
H1049 H 0.96648 0.35045 0.75513 0.0
H1050 H 0.96621 0.39572 0.78942 0.0
H1051 H 0.98785 0.37021 0.78332 0.0
H1052 H 0.90179 0.37825 0.77335 0.0
H1053 H 0.9228 0.3886 0.68703 0.0
H1054 H 0.93965 0.31015 0.62769 0.0
H1055 H 0.97841 0.35089 0.65776 0.0
C1056 C 0.01717 0.36484 0.1056 0.0
C1057 C 0.03033 0.37874 0.10907 0.0
C1058 C 0.00973 0.3608 0.07844 0.0
C1059 C 0.00388 0.37688 0.01171 0.0
H1060 H 0.99158 0.33833 0.9758 0.0
C1061 C 0.97885 0.36302 0.89469 0.0
C1062 C 0.96728 0.34839 0.8891 0.0
C1063 C 0.98686 0.36647 0.92114 0.0
C1064 C 0.99473 0.34906 0.9857 0.0
H1065 H 0.04617 0.39908 0.08619 0.0
H1066 H 0.03288 0.39219 0.0392 0.0
H1067 H 0.00473 0.34468 0.02309 0.0
H1068 H 0.95493 0.32589 0.90661 0.0
H1069 H 0.96856 0.33196 0.95331 0.0
H1070 H 0.99357 0.3812 0.97506 0.0
C1071 C 0.02834 0.38448 0.05762 0.0
C1072 C 0.00231 0.3527 0.01271 0.0
C1073 C 0.0359 0.38844 0.08461 0.0
C1074 C 0.96391 0.33723 0.91034 0.0
C1075 C 0.97177 0.34072 0.93702 0.0
C1076 C 0.99612 0.37318 0.98495 0.0
C1077 C 0.01518 0.37065 0.05431 0.0
C1078 C 0.00702 0.36667 0.02586 0.0
C1079 C 0.98332 0.35541 0.94282 0.0
C1080 C 0.99151 0.35925 0.97147 0.0
H1081 H 0.01241 0.35717 0.12401 0.0
H1082 H -0.00049 0.35012 0.0765 0.0
H1083 H 0.00721 0.38766 0.02162 0.0
H1084 H 0.9818 0.37177 0.87845 0.0
H1085 H 0.9959 0.37781 0.92447 0.0
C1086 C 0.63924 0.98244 0.38944 0.0
C1087 C 0.62753 0.9675 0.3893 0.0
C1088 C 0.64486 0.99004 0.41608 0.0
C1089 C 0.64639 0.98478 0.49661 0.0
H1090 H 0.65115 0.02444 0.50126 0.0
C1091 C 0.6515 0.01501 0.60728 0.0
C1092 C 0.66081 0.03062 0.6082 0.0
C1093 C 0.64904 0.00726 0.58064 0.0
C1094 C 0.65014 0.01349 0.50026 0.0
H1095 H 0.61274 0.94875 0.41714 0.0
H1096 H 0.62261 0.96201 0.46364 0.0
H1097 H 0.64411 0.01098 0.45456 0.0
H1098 H 0.67546 0.05026 0.58237 0.0
H1099 H 0.67134 0.03673 0.53594 0.0
H1100 H 0.65229 0.98725 0.54249 0.0
C1101 C 0.62754 0.96779 0.44312 0.0
C1102 C 0.64609 0.00577 0.47346 0.0
C1103 C 0.62189 0.96019 0.41646 0.0
C1104 C 0.66803 0.03826 0.58219 0.0
C1105 C 0.66564 0.03051 0.55562 0.0
C1106 C 0.65051 0.99253 0.52346 0.0
C1107 C 0.63892 0.98286 0.4432 0.0
C1108 C 0.64404 0.99129 0.47138 0.0
C1109 C 0.6559 0.01496 0.5544 0.0
C1110 C 0.65232 0.00694 0.52564 0.0
H1111 H 0.64403 0.9883 0.36891 0.0
H1112 H 0.65381 0.00158 0.41546 0.0
H1113 H 0.64506 0.97369 0.49559 0.0
H1114 H 0.64566 0.00886 0.62692 0.0
H1115 H 0.64133 0.99532 0.58043 0.0
C1116 C 0.62938 0.66161 0.09279 0.0
C1117 C 0.61692 0.65044 0.10803 0.0
C1118 C 0.63373 0.65845 0.06571 0.0
C1119 C 0.61899 0.63191 0.00346 0.0
H1120 H 0.66075 0.64641 0.98565 0.0
C1121 C 0.63692 0.61017 0.90378 0.0
C1122 C 0.64936 0.62049 0.88731 0.0
C1123 C 0.63331 0.61437 0.93046 0.0
C1124 C 0.64906 0.64244 0.99014 0.0
H1125 H 0.59956 0.6271 0.10731 0.0
H1126 H 0.60716 0.62158 0.06016 0.0
H1127 H 0.65386 0.65274 0.0329 0.0
H1128 H 0.66779 0.64333 0.88585 0.0
H1129 H 0.6614 0.65075 0.93249 0.0
H1130 H 0.61413 0.62162 0.96083 0.0
C1131 C 0.61339 0.63285 0.06882 0.0
C1132 C 0.64512 0.64606 0.01721 0.0
C1133 C 0.60904 0.63601 0.09584 0.0
C1134 C 0.6582 0.63511 0.89821 0.0
C1135 C 0.65455 0.63934 0.92491 0.0
C1136 C 0.62292 0.62833 0.97643 0.0
C1137 C 0.62571 0.64406 0.05334 0.0
C1138 C 0.63002 0.6407 0.02426 0.0
C1139 C 0.64202 0.62902 0.94128 0.0
C1140 C 0.63798 0.63342 0.96956 0.0
H1141 H 0.63556 0.67288 0.10147 0.0
H1142 H 0.64317 0.66736 0.05415 0.0
H1143 H 0.60728 0.62787 0.00799 0.0
H1144 H 0.63007 0.59874 0.89626 0.0
H1145 H 0.62377 0.60606 0.94282 0.0
C1146 C 0.02496 0.64063 0.39974 0.0
C1147 C 0.03256 0.65539 0.38916 0.0
C1148 C 0.01702 0.63719 0.42623 0.0
C1149 C -0.00023 0.65111 0.47979 0.0
H1150 H 0.00221 0.6225 0.53165 0.0
C1151 C 0.97487 0.6371 0.59862 0.0
C1152 C 0.96707 0.62182 0.60599 0.0
C1153 C 0.98291 0.64192 0.57214 0.0
C1154 C 0.00134 0.63043 0.5173 0.0
H1155 H 0.03767 0.67811 0.39777 0.0
H1156 H 0.02388 0.67214 0.44443 0.0
H1157 H 0.01626 0.62966 0.4856 0.0
H1158 H 0.96103 0.59957 0.59064 0.0
H1159 H 0.97519 0.608 0.54485 0.0
H1160 H 0.98487 0.65187 0.51187 0.0
C1161 C 0.02392 0.66319 0.43201 0.0
C1162 C 0.00936 0.63451 0.49088 0.0
C1163 C 0.03183 0.66662 0.40536 0.0
C1164 C 0.96722 0.61146 0.58603 0.0
C1165 C 0.9753 0.61627 0.55975 0.0
C1166 C 0.99179 0.64707 0.50639 0.0
C1167 C 0.01654 0.64845 0.44287 0.0
C1168 C 0.00851 0.64474 0.4716 0.0
C1169 C 0.98335 0.63155 0.55266 0.0
C1170 C 0.99235 0.63653 0.52519 0.0
H1171 H 0.02508 0.63169 0.3874 0.0
H1172 H 0.01116 0.62566 0.43358 0.0
H1173 H -0.00121 0.65893 0.46531 0.0
H1174 H 0.97505 0.64537 0.61362 0.0
H1175 H 0.98908 0.65378 0.56727 0.0
C1176 C 0.36152 0.01454 0.88783 0.0
C1177 C 0.37064 0.03019 0.88829 0.0
C1178 C 0.35626 0.00651 0.91418 0.0
C1179 C 0.35053 0.01065 0.99377 0.0
H1180 H 0.3531 0.9746 0.0019 0.0
C1181 C 0.34799 0.98326 0.10646 0.0
C1182 C 0.34016 0.96755 0.108 0.0
C1183 C 0.35016 0.99051 0.07932 0.0
C1184 C 0.35209 0.98452 -0.00015 0.0
H1185 H 0.38097 0.04972 0.91671 0.0
H1186 H 0.37208 0.0357 0.96268 0.0
H1187 H 0.35961 0.98795 0.95499 0.0
H1188 H 0.32832 0.94716 0.08231 0.0
H1189 H 0.33194 0.95983 0.03497 0.0
H1190 H 0.34328 0.00732 0.03889 0.0
C1191 C 0.36887 0.02963 0.94196 0.0
C1192 C 0.35582 0.99217 0.97295 0.0
C1193 C 0.37412 0.03765 0.91563 0.0
C1194 C 0.33429 0.95927 0.08189 0.0
C1195 C 0.3365 0.96652 0.05474 0.0
C1196 C 0.34683 0.003 0.02071 0.0
C1197 C 0.36001 0.01395 0.94156 0.0
C1198 C 0.35521 0.0054 0.96967 0.0
C1199 C 0.34458 0.98222 0.05312 0.0
C1200 C 0.3477 0.98992 0.02411 0.0
H1201 H 0.35875 0.00844 0.86716 0.0
H1202 H 0.34932 0.99446 0.91311 0.0
H1203 H 0.34973 0.02068 0.99182 0.0
H1204 H 0.35251 0.98995 0.12624 0.0
H1205 H 0.35655 0.00262 0.07877 0.0
C1206 C 0.33342 0.36595 0.40306 0.0
C1207 C 0.34472 0.37798 0.38711 0.0
C1208 C 0.33662 0.36167 0.43019 0.0
C1209 C 0.36839 0.36512 0.47435 0.0
H1210 H 0.34064 0.35373 0.54002 0.0
C1211 C 0.38525 0.35971 0.5926 0.0
C1212 C 0.37518 0.347 0.60881 0.0
C1213 C 0.38096 0.36312 0.5658 0.0
C1214 C 0.34842 0.35675 0.52178 0.0
H1215 H 0.36808 0.39525 0.38747 0.0
H1216 H 0.37363 0.38792 0.43479 0.0
H1217 H 0.3342 0.36031 0.49253 0.0
H1218 H 0.35261 0.32803 0.60973 0.0
H1219 H 0.34507 0.33411 0.56292 0.0
H1220 H 0.38269 0.36176 0.50366 0.0
C1221 C 0.36239 0.38152 0.42609 0.0
C1222 C 0.34473 0.36049 0.49457 0.0
C1223 C 0.35921 0.38574 0.39897 0.0
C1224 C 0.36059 0.33798 0.59792 0.0
C1225 C 0.35627 0.34144 0.57112 0.0
C1226 C 0.3721 0.36147 0.50153 0.0
C1227 C 0.35117 0.36938 0.44196 0.0
C1228 C 0.35474 0.36484 0.47061 0.0
C1229 C 0.36648 0.35395 0.55463 0.0
C1230 C 0.36222 0.35737 0.5256 0.0
H1231 H 0.32217 0.35969 0.39432 0.0
H1232 H 0.32776 0.35216 0.44168 0.0
H1233 H 0.37621 0.36809 0.4562 0.0
H1234 H 0.39646 0.3671 0.60068 0.0
H1235 H 0.38898 0.373 0.55385 0.0
C1236 C 0.97021 0.63838 0.89872 0.0
C1237 C 0.96236 0.62291 0.89309 0.0
C1238 C 0.9772 0.64385 0.92604 0.0
C1239 C 0.97784 0.63188 0.00323 0.0
H1240 H 0.01861 0.66506 0.0038 0.0
C1241 C 0.01889 0.6411 0.0965 0.0
C1242 C 0.02764 0.65562 0.10797 0.0
C1243 C 0.01013 0.6386 0.0714 0.0
C1244 C 0.00715 0.65593 0.00402 0.0
H1245 H 0.9552 0.60105 0.91205 0.0
H1246 H 0.96766 0.61054 0.9591 0.0
H1247 H 0.00441 0.65795 0.95764 0.0
H1248 H 0.03403 0.67893 0.10172 0.0
H1249 H 0.01898 0.67452 0.05711 0.0
H1250 H 0.98082 0.62947 0.04931 0.0
C1251 C 0.96833 0.61848 0.94268 0.0
C1252 C -0.001 0.65188 0.97763 0.0
C1253 C 0.96137 0.61304 0.9155 0.0
C1254 C 0.02757 0.66763 0.09333 0.0
C1255 C 0.01891 0.66512 0.0679 0.0
C1256 C 0.98601 0.63585 0.02947 0.0
C1257 C 0.9764 0.63394 0.94826 0.0
C1258 C 0.98438 0.63955 0.97681 0.0
C1259 C 0.01003 0.65056 0.05688 0.0
C1260 C 0.00086 0.64767 0.02995 0.0
H1261 H 0.97122 0.64626 0.88183 0.0
H1262 H 0.98324 0.65581 0.92974 0.0
H1263 H 0.96648 0.62256 0.00351 0.0
H1264 H 0.01894 0.63163 0.10665 0.0
H1265 H 0.00363 0.62729 0.06299 0.0
C1266 C 0.34337 0.98422 0.39271 0.0
C1267 C 0.33273 0.96899 0.38961 0.0
C1268 C 0.34437 0.99174 0.41903 0.0
C1269 C 0.3382 0.9847 0.49762 0.0
H1270 H 0.34462 0.02502 0.50129 0.0
C1271 C 0.35121 0.01603 0.60828 0.0
C1272 C 0.3625 0.03112 0.60778 0.0
C1273 C 0.34493 0.00839 0.58194 0.0
C1274 C 0.34296 0.01381 0.50065 0.0
H1275 H 0.31456 0.94974 0.41121 0.0
H1276 H 0.31643 0.96288 0.45748 0.0
H1277 H 0.33849 0.01178 0.45407 0.0
H1278 H 0.37588 0.05017 0.57957 0.0
H1279 H 0.36531 0.03679 0.53351 0.0
H1280 H 0.34338 0.98685 0.54364 0.0
C1281 C 0.32394 0.96898 0.43947 0.0
C1282 C 0.33937 0.00621 0.47363 0.0
C1283 C 0.32281 0.96151 0.41299 0.0
C1284 C 0.36709 0.03857 0.58055 0.0
C1285 C 0.36096 0.03089 0.55416 0.0
C1286 C 0.34195 0.99233 0.52453 0.0
C1287 C 0.33487 0.98411 0.44286 0.0
C1288 C 0.33716 0.99166 0.47181 0.0
C1289 C 0.34998 0.01562 0.55449 0.0
C1290 C 0.3446 0.00707 0.52634 0.0
H1291 H 0.35107 0.99027 0.37491 0.0
H1292 H 0.35298 0.00337 0.42113 0.0
H1293 H 0.33676 0.97356 0.49678 0.0
H1294 H 0.34735 0.0101 0.62906 0.0
H1295 H 0.33626 0.99675 0.58311 0.0
C1296 C 0.36666 0.32757 0.9174 0.0
C1297 C 0.36005 0.32801 0.89061 0.0
C1298 C 0.36085 0.32902 0.94428 0.0
C1299 C 0.33752 0.34384 0.97469 0.0
H1300 H 0.34239 0.3268 0.04737 0.0
C1301 C 0.32067 0.35584 0.08893 0.0
C1302 C 0.3327 0.36206 0.10886 0.0
C1303 C 0.32156 0.34896 0.06297 0.0
C1304 C 0.34089 0.33155 0.02718 0.0
H1305 H 0.34179 0.32953 0.87078 0.0
H1306 H 0.33124 0.33149 0.91775 0.0
H1307 H 0.34788 0.3192 4e-05 0.0
H1308 H 0.35472 0.3654 0.11827 0.0
H1309 H 0.35615 0.35308 0.07317 0.0
H1310 H 0.3305 0.35613 0.00205 0.0
C1311 C 0.3412 0.33053 0.9181 0.0
C1312 C 0.34413 0.3273 8e-05 0.0
C1313 C 0.34717 0.32933 0.89118 0.0
C1314 C 0.34534 0.36073 0.10312 0.0
C1315 C 0.34611 0.35362 0.07749 0.0
C1316 C 0.33405 0.34787 0.00175 0.0
C1317 C 0.34815 0.33072 0.945 0.0
C1318 C 0.34288 0.3337 0.97351 0.0
C1319 C 0.33436 0.34793 0.05691 0.0
C1320 C 0.33606 0.34205 0.02826 0.0
H1321 H 0.37671 0.32674 0.91753 0.0
H1322 H 0.36672 0.3294 0.96437 0.0
H1323 H 0.33663 0.34921 0.95487 0.0
H1324 H 0.31084 0.35681 0.09288 0.0
H1325 H 0.31236 0.34464 0.04742 0.0
C1326 C 0.98376 0.33522 0.61332 0.0
C1327 C 0.9685 0.3308 0.61202 0.0
C1328 C 0.99185 0.33692 0.58743 0.0
C1329 C 0.98794 0.3282 0.5072 0.0
H1330 H 0.02563 0.36544 0.50144 0.0
C1331 C 0.01545 0.3553 0.39613 0.0
C1332 C 0.03113 0.36315 0.39413 0.0
C1333 C 0.00837 0.34921 0.42303 0.0
C1334 C 0.01528 0.35485 0.5028 0.0
H1335 H 0.94969 0.32432 0.5825 0.0
H1336 H 0.96377 0.32726 0.53742 0.0
H1337 H 0.0122 0.35843 0.54818 0.0
H1338 H 0.05166 0.37036 0.41868 0.0
H1339 H 0.03928 0.35948 0.46551 0.0
H1340 H 0.99088 0.32483 0.46152 0.0
C1341 C 0.96946 0.32924 0.55846 0.0
C1342 C 0.00757 0.35083 0.52963 0.0
C1343 C 0.96138 0.32756 0.58433 0.0
C1344 C 0.03956 0.3643 0.41941 0.0
C1345 C 0.03247 0.3582 0.44632 0.0
C1346 C 0.99567 0.33222 0.48033 0.0
C1347 C 0.98484 0.33422 0.55968 0.0
C1348 C 0.99369 0.33759 0.53201 0.0
C1349 C 0.0168 0.35083 0.44856 0.0
C1350 C 0.0093 0.34572 0.4777 0.0
H1351 H 0.98951 0.33755 0.63435 0.0
H1352 H 0.00364 0.34055 0.58911 0.0
H1353 H 0.97737 0.31782 0.50846 0.0
H1354 H 0.00863 0.35404 0.37696 0.0
H1355 H 0.99628 0.34372 0.42401 0.0
C1356 C 0.66883 0.04375 0.9181 0.0
C1357 C 0.66536 0.03495 0.89247 0.0
C1358 C 0.66715 0.03728 0.94599 0.0
C1359 C 0.66388 0.00486 0.98603 0.0
H1360 H 0.63821 0.01135 0.03914 0.0
C1361 C 0.63545 0.96728 0.08772 0.0
C1362 C 0.63212 0.97349 0.1121 0.0
C1363 C 0.64184 0.97585 0.06229 0.0
C1364 C 0.64568 0.00964 0.02502 0.0
H1365 H 0.65812 0.0127 0.87569 0.0
H1366 H 0.65535 0.00139 0.92454 0.0
H1367 H 0.64566 0.02461 0.99236 0.0
H1368 H 0.63359 0.9936 0.13009 0.0
H1369 H 0.6454 0.00882 0.08641 0.0
H1370 H 0.66403 0.98996 0.01875 0.0
C1371 C 0.65931 0.01327 0.92303 0.0
C1372 C 0.64989 0.01722 -0.00191 0.0
C1373 C 0.66078 0.01969 0.89515 0.0
C1374 C 0.63594 0.98856 0.11133 0.0
C1375 C 0.64258 0.99721 0.0862 0.0
C1376 C 0.65986 0.99743 0.01325 0.0
C1377 C 0.66217 0.02194 0.9487 0.0
C1378 C 0.65885 0.01476 0.97818 0.0
C1379 C 0.64522 0.99087 0.06099 0.0
C1380 C 0.65053 -0.00044 0.03295 0.0
H1381 H 0.67229 0.05552 0.91664 0.0
H1382 H 0.66948 0.0442 0.96547 0.0
H1383 H 0.67089 0.00286 0.97109 0.0
H1384 H 0.6325 0.95563 0.08785 0.0
H1385 H 0.64352 0.97049 0.04328 0.0
C1386 C 0.62371 0.66143 0.4148 0.0
C1387 C 0.62291 0.65417 0.38801 0.0
C1388 C 0.62941 0.65835 0.44017 0.0
C1389 C 0.63496 0.62876 0.4722 0.0
H1390 H 0.65894 0.65914 0.52999 0.0
C1391 C 0.65786 0.61481 0.57581 0.0
C1392 C 0.65615 0.62065 0.60265 0.0
C1393 C 0.65541 0.61985 0.54891 0.0
C1394 C 0.65218 0.65053 0.51411 0.0
H1395 H 0.62815 0.63861 0.36639 0.0
H1396 H 0.63817 0.63329 0.4106 0.0
H1397 H 0.65191 0.66638 0.48394 0.0
H1398 H 0.6507 0.63651 0.62228 0.0
H1399 H 0.64641 0.64531 0.57528 0.0
H1400 H 0.63505 0.61289 0.5024 0.0
C1401 C 0.6341 0.64111 0.41218 0.0
C1402 C 0.64815 0.65467 0.48777 0.0
C1403 C 0.62837 0.64415 0.38687 0.0
C1404 C 0.65228 0.63191 0.60197 0.0
C1405 C 0.64983 0.63696 0.57505 0.0
C1406 C 0.63901 0.62463 0.49846 0.0
C1407 C 0.63446 0.64798 0.43923 0.0
C1408 C 0.63941 0.64381 0.46662 0.0
C1409 C 0.65119 0.63085 0.54825 0.0
C1410 C 0.64757 0.63545 0.51979 0.0
H1411 H 0.61946 0.6691 0.41641 0.0
H1412 H 0.62937 0.6637 0.46074 0.0
H1413 H 0.62799 0.62007 0.45662 0.0
H1414 H 0.6611 0.60632 0.57559 0.0
H1415 H 0.65679 0.61511 0.5286 0.0
C1416 C 0.09372 0.59447 0.23096 0.0
C1417 C 0.08698 0.59829 0.25363 0.0
C1418 C 0.09459 0.58141 0.23292 0.0
C1419 C 0.08962 0.55138 0.28605 0.0
H1420 H 0.08605 0.52961 0.21378 0.0
C1421 C 0.07403 0.48905 0.27961 0.0
C1422 C 0.08398 0.48618 0.2634 0.0
C1423 C 0.07553 0.50327 0.27954 0.0
C1424 C 0.08716 0.53566 0.23408 0.0
H1425 H 0.07575 0.59158 0.29591 0.0
H1426 H 0.07655 0.56843 0.29883 0.0
H1427 H 0.08627 0.55329 0.2113 0.0
H1428 H 0.10364 0.49641 0.23509 0.0
H1429 H 0.10566 0.52097 0.23387 0.0
H1430 H 0.0897 0.53316 0.30873 0.0
C1431 C 0.08171 0.57568 0.28 0.0
C1432 C 0.0874 0.5493 0.23273 0.0
C1433 C 0.08115 0.5889 0.27831 0.0
C1434 C 0.09552 0.498 0.24728 0.0
C1435 C 0.0968 0.51213 0.24673 0.0
C1436 C 0.08905 0.53758 0.2874 0.0
C1437 C 0.08842 0.57171 0.2573 0.0
C1438 C 0.08861 0.55736 0.25871 0.0
C1439 C 0.0868 0.51485 0.26281 0.0
C1440 C 0.08781 0.52963 0.26143 0.0
H1441 H 0.0984 0.60164 0.21182 0.0
H1442 H 0.10015 0.57898 0.2153 0.0
H1443 H 0.0909 0.55735 0.3065 0.0
H1444 H 0.06482 0.48024 0.29182 0.0
H1445 H 0.0676 0.50511 0.29188 0.0
C1446 C 0.49547 0.09042 0.75963 0.0
C1447 C 0.48357 0.08017 0.74183 0.0
C1448 C 0.5092 0.09083 0.75932 0.0
C1449 C 0.52619 0.06777 0.73947 0.0
H1450 H 0.56343 0.10551 0.74451 0.0
C1451 C 0.58353 0.07215 0.72214 0.0
C1452 C 0.59474 0.0808 0.74276 0.0
C1453 C 0.57015 0.07243 0.72159 0.0
C1454 C 0.55311 0.09489 0.74332 0.0
H1455 H 0.47685 0.0623 0.70973 0.0
H1456 H 0.5009 0.06338 0.70844 0.0
H1457 H 0.53973 0.10537 0.74406 0.0
H1458 H 0.60086 0.09679 0.77854 0.0
H1459 H 0.57744 0.09728 0.7776 0.0
H1460 H 0.5396 0.05732 0.73843 0.0
C1461 C 0.49955 0.07093 0.72305 0.0
C1462 C 0.53952 0.09479 0.74313 0.0
C1463 C 0.48581 0.07047 0.72347 0.0
C1464 C 0.59237 0.08992 0.76256 0.0
C1465 C 0.57903 0.09029 0.76185 0.0
C1466 C 0.53976 0.06788 0.73946 0.0
C1467 C 0.5114 0.08105 0.74111 0.0
C1468 C 0.52589 0.08123 0.7412 0.0
C1469 C 0.56774 0.08146 0.74151 0.0
C1470 C 0.55336 0.08143 0.74139 0.0
H1471 H 0.4942 0.09818 0.77377 0.0
H1472 H 0.51802 0.09867 0.77373 0.0
H1473 H 0.51591 0.0571 0.73856 0.0
H1474 H 0.58497 0.06492 0.70677 0.0
H1475 H 0.5617 0.06561 0.7055 0.0
C1476 C 0.49984 0.59316 0.21992 0.0
C1477 C 0.50547 0.60089 0.24665 0.0
C1478 C 0.48582 0.58019 0.21897 0.0
C1479 C 0.45836 0.55027 0.26775 0.0
H1480 H 0.43274 0.53995 0.19883 0.0
C1481 C 0.40001 0.49737 0.26342 0.0
C1482 C 0.39694 0.48847 0.23795 0.0
C1483 C 0.41249 0.51173 0.2645 0.0
C1484 C 0.43982 0.54268 0.21817 0.0
H1485 H 0.50064 0.60148 0.29308 0.0
H1486 H 0.47601 0.57903 0.29137 0.0
H1487 H 0.45577 0.56412 0.20092 0.0
H1488 H 0.40458 0.48784 0.19354 0.0
H1489 H 0.42621 0.51301 0.19534 0.0
H1490 H 0.44236 0.52883 0.28499 0.0
C1491 C 0.48256 0.58273 0.27126 0.0
C1492 C 0.45303 0.5565 0.21936 0.0
C1493 C 0.49664 0.59562 0.27225 0.0
C1494 C 0.40647 0.49444 0.21336 0.0
C1495 C 0.41888 0.50886 0.21438 0.0
C1496 C 0.4451 0.53652 0.26666 0.0
C1497 C 0.47706 0.57472 0.2447 0.0
C1498 C 0.46256 0.56041 0.24404 0.0
C1499 C 0.4221 0.51758 0.24007 0.0
C1500 C 0.43577 0.53252 0.24174 0.0
H1501 H 0.50648 0.59687 0.19992 0.0
H1502 H 0.48209 0.57421 0.19824 0.0
H1503 H 0.46553 0.55275 0.28688 0.0
H1504 H 0.39275 0.49325 0.28255 0.0
H1505 H 0.41459 0.51829 0.28446 0.0
C1506 C 0.91609 0.50545 0.71569 0.0
C1507 C 0.90802 0.50811 0.73745 0.0
C1508 C 0.91507 0.49148 0.71347 0.0
C1509 C 0.90355 0.45674 0.75677 0.0
H1510 H 0.90813 0.44191 0.68096 0.0
C1511 C 0.89712 0.39819 0.74061 0.0
C1512 C 0.90969 0.39848 0.72774 0.0
C1513 C 0.89567 0.41093 0.74048 0.0
C1514 C 0.90683 0.44595 0.70224 0.0
H1515 H 0.89221 0.49823 0.7734 0.0
H1516 H 0.88987 0.47359 0.76886 0.0
H1517 H 0.90736 0.46513 0.68315 0.0
H1518 H 0.93046 0.41255 0.70421 0.0
H1519 H 0.92751 0.43451 0.70297 0.0
H1520 H 0.90269 0.43728 0.77559 0.0
C1521 C 0.89741 0.48239 0.75406 0.0
C1522 C 0.90649 0.4593 0.70359 0.0
C1523 C 0.89865 0.49646 0.7566 0.0
C1524 C 0.92049 0.41173 0.71388 0.0
C1525 C 0.91887 0.42438 0.71328 0.0
C1526 C 0.90361 0.44326 0.75531 0.0
C1527 C 0.90574 0.47975 0.73268 0.0
C1528 C 0.90508 0.46501 0.73094 0.0
C1529 C 0.90656 0.42414 0.72694 0.0
C1530 C 0.90546 0.43787 0.72809 0.0
H1531 H 0.92354 0.51433 0.70089 0.0
H1532 H 0.92191 0.49004 0.69715 0.0
H1533 H 0.90273 0.46086 0.77829 0.0
H1534 H 0.88839 0.38813 0.75089 0.0
H1535 H 0.886 0.41047 0.75092 0.0
C1536 C 0.40751 0.91432 0.22966 0.0
C1537 C 0.40001 0.91373 0.25601 0.0
C1538 C 0.42032 0.91299 0.23024 0.0
C1539 C 0.451 0.9188 0.27931 0.0
H1540 H 0.45838 0.89602 0.2202 0.0
C1541 C 0.50935 0.92639 0.2589 0.0
C1542 C 0.51045 0.91345 0.2551 0.0
C1543 C 0.49542 0.92548 0.26 0.0
C1544 C 0.45641 0.90232 0.23699 0.0
H1545 H 0.40001 0.91116 0.3036 0.0
H1546 H 0.42232 0.90871 0.30456 0.0
H1547 H 0.43455 0.89571 0.22035 0.0
H1548 H 0.49763 0.88935 0.24963 0.0
H1549 H 0.47326 0.88782 0.25103 0.0
H1550 H 0.47286 0.92548 0.29587 0.0
C1551 C 0.41832 0.91029 0.28349 0.0
C1552 C 0.44284 0.90226 0.23691 0.0
C1553 C 0.40548 0.91155 0.2829 0.0
C1554 C 0.49722 0.89956 0.25221 0.0
C1555 C 0.48326 0.89867 0.25308 0.0
C1556 C 0.46459 0.91895 0.27926 0.0
C1557 C 0.42595 0.91111 0.25719 0.0
C1558 C 0.44004 0.91058 0.25796 0.0
C1559 C 0.48223 0.91162 0.25709 0.0
C1560 C 0.46749 0.91081 0.25796 0.0
H1561 H 0.40347 0.91582 0.20857 0.0
H1562 H 0.42602 0.9138 0.20963 0.0
H1563 H 0.44923 0.92544 0.29565 0.0
H1564 H 0.51928 0.93732 0.26053 0.0
H1565 H 0.49498 0.93569 0.26259 0.0
C1566 C 0.58042 0.50881 0.7679 0.0
C1567 C 0.59366 0.50967 0.75758 0.0
C1568 C 0.56725 0.49503 0.77005 0.0
C1569 C 0.54896 0.4563 0.74179 0.0
H1570 H 0.52216 0.44855 0.80796 0.0
C1571 C 0.49545 0.39911 0.75934 0.0
C1572 C 0.48241 0.3996 0.76613 0.0
C1573 C 0.50944 0.41214 0.75985 0.0
C1574 C 0.52949 0.45059 0.78927 0.0
H1575 H 0.6035 0.49671 0.74172 0.0
H1576 H 0.5805 0.47258 0.74566 0.0
H1577 H 0.54589 0.47201 0.80584 0.0
H1578 H 0.47392 0.41425 0.77884 0.0
H1579 H 0.49832 0.4369 0.78008 0.0
H1580 H 0.53251 0.43486 0.72524 0.0
C1581 C 0.58026 0.4826 0.75168 0.0
C1582 C 0.54308 0.46404 0.78801 0.0
C1583 C 0.59343 0.49642 0.74943 0.0
C1584 C 0.48374 0.41339 0.77398 0.0
C1585 C 0.49772 0.4264 0.77463 0.0
C1586 C 0.5354 0.44282 0.74313 0.0
C1587 C 0.56701 0.48175 0.76203 0.0
C1588 C 0.5529 0.46713 0.76408 0.0
C1589 C 0.51071 0.42593 0.76732 0.0
C1590 C 0.52545 0.43989 0.76673 0.0
H1591 H 0.58016 0.51884 0.77386 0.0
H1592 H 0.55719 0.49482 0.77753 0.0
H1593 H 0.55617 0.45839 0.72286 0.0
H1594 H 0.49487 0.38863 0.75369 0.0
H1595 H 0.51927 0.4114 0.7545 0.0
C1596 C 0.14834 0.39696 0.23392 0.0
C1597 C 0.14774 0.40938 0.24504 0.0
C1598 C 0.16187 0.39698 0.23301 0.0
C1599 C 0.19863 0.41388 0.26823 0.0
H1600 H 0.21018 0.40032 0.19835 0.0
C1601 C 0.25664 0.41911 0.25769 0.0
C1602 C 0.25743 0.4073 0.24404 0.0
C1603 C 0.24336 0.41956 0.25726 0.0
C1604 C 0.20704 0.40396 0.21819 0.0
H1605 H 0.16103 0.4317 0.2633 0.0
H1606 H 0.18458 0.43158 0.26222 0.0
H1607 H 0.18675 0.4007 0.19853 0.0
H1608 H 0.24491 0.38662 0.21957 0.0
H1609 H 0.22161 0.38723 0.21928 0.0
H1610 H 0.2187 0.41688 0.28816 0.0
C1611 C 0.17452 0.4218 0.25441 0.0
C1612 C 0.19364 0.40422 0.21823 0.0
C1613 C 0.16102 0.42184 0.2551 0.0
C1614 C 0.24466 0.39594 0.22997 0.0
C1615 C 0.23134 0.39633 0.22974 0.0
C1616 C 0.21196 0.41351 0.26829 0.0
C1617 C 0.17507 0.40936 0.24343 0.0
C1618 C 0.18932 0.4092 0.24324 0.0
C1619 C 0.23053 0.40816 0.24337 0.0
C1620 C 0.21634 0.40856 0.24326 0.0
H1621 H 0.13831 0.38707 0.22646 0.0
H1622 H 0.16194 0.38717 0.22476 0.0
H1623 H 0.19547 0.41758 0.28796 0.0
H1624 H 0.26638 0.42813 0.26832 0.0
H1625 H 0.24323 0.42898 0.2675 0.0
C1626 C 0.84046 0.25485 0.77603 0.0
C1627 C 0.84966 0.25893 0.7509 0.0
C1628 C 0.82673 0.24152 0.77639 0.0
C1629 C 0.79853 0.21294 0.72609 0.0
H1630 H 0.78468 0.18897 0.79742 0.0
C1631 C 0.74875 0.15266 0.72697 0.0
C1632 C 0.73816 0.14891 0.74969 0.0
C1633 C 0.76221 0.16623 0.72759 0.0
C1634 C 0.78836 0.19563 0.77743 0.0
H1635 H 0.85198 0.25212 0.70683 0.0
H1636 H 0.82823 0.22872 0.70764 0.0
H1637 H 0.8086 0.21231 0.79768 0.0
H1638 H 0.73344 0.15659 0.79082 0.0
H1639 H 0.75711 0.18019 0.79209 0.0
H1640 H 0.7784 0.19608 0.70574 0.0
C1641 C 0.83135 0.23597 0.72678 0.0
C1642 C 0.80204 0.20902 0.77757 0.0
C1643 C 0.84499 0.24935 0.72632 0.0
C1644 C 0.74143 0.15901 0.77318 0.0
C1645 C 0.75496 0.17255 0.7739 0.0
C1646 C 0.78493 0.19951 0.7259 0.0
C1647 C 0.82199 0.23193 0.75172 0.0
C1648 C 0.80732 0.21781 0.75185 0.0
C1649 C 0.76545 0.17631 0.75104 0.0
C1650 C 0.77974 0.1907 0.75153 0.0
H1651 H 0.84374 0.26213 0.79516 0.0
H1652 H 0.81971 0.23888 0.79581 0.0
H1653 H 0.80208 0.21958 0.70606 0.0
H1654 H 0.74676 0.14502 0.70886 0.0
H1655 H 0.7702 0.16875 0.7099 0.0
C1656 C 0.5865 0.74631 0.22374 0.0
C1657 C 0.59063 0.74141 0.24911 0.0
C1658 C 0.58711 0.76013 0.22354 0.0
C1659 C 0.5886 0.78928 0.27348 0.0
H1660 H 0.60156 0.81363 0.20252 0.0
C1661 C 0.60021 0.85006 0.27046 0.0
C1662 C 0.59384 0.85373 0.24672 0.0
C1663 C 0.60022 0.83654 0.27066 0.0
C1664 C 0.59783 0.8069 0.22241 0.0
H1665 H 0.59883 0.74716 0.29403 0.0
H1666 H 0.60017 0.77144 0.29358 0.0
H1667 H 0.6009 0.78968 0.20328 0.0
H1668 H 0.58251 0.84601 0.20453 0.0
H1669 H 0.58284 0.82256 0.20468 0.0
H1670 H 0.58573 0.80665 0.29267 0.0
C1671 C 0.59614 0.76448 0.27402 0.0
C1672 C 0.5974 0.79316 0.22285 0.0
C1673 C 0.59541 0.7506 0.27429 0.0
C1674 C 0.58772 0.84366 0.22295 0.0
C1675 C 0.58786 0.83021 0.22305 0.0
C1676 C 0.58915 0.80308 0.27311 0.0
C1677 C 0.59199 0.76941 0.24864 0.0
C1678 C 0.5927 0.78415 0.24834 0.0
C1679 C 0.594 0.82647 0.24701 0.0
C1680 C 0.59371 0.81198 0.24754 0.0
H1681 H 0.58258 0.73936 0.20416 0.0
H1682 H 0.58356 0.76344 0.20382 0.0
H1683 H 0.58469 0.78253 0.29332 0.0
H1684 H 0.60528 0.85767 0.28886 0.0
H1685 H 0.60521 0.83402 0.28923 0.0
C1686 C 0.84797 0.60192 0.73606 0.0
C1687 C 0.84823 0.58855 0.73988 0.0
C1688 C 0.83439 0.60181 0.73559 0.0
C1689 C 0.79508 0.57904 0.7593 0.0
H1690 H 0.78856 0.60429 0.70499 0.0
C1691 C 0.73752 0.57452 0.74519 0.0
C1692 C 0.73733 0.58803 0.74407 0.0
C1693 C 0.75104 0.57454 0.74389 0.0
C1694 C 0.79028 0.59728 0.72045 0.0
H1695 H 0.8345 0.56453 0.7452 0.0
H1696 H 0.8108 0.5643 0.74412 0.0
H1697 H 0.81222 0.60436 0.70381 0.0
H1698 H 0.75119 0.61216 0.74092 0.0
H1699 H 0.77478 0.61216 0.73845 0.0
H1700 H 0.77313 0.57193 0.77588 0.0
C1701 C 0.82108 0.57492 0.74214 0.0
C1702 C 0.80383 0.59732 0.7198 0.0
C1703 C 0.83465 0.57504 0.74272 0.0
C1704 C 0.75094 0.60155 0.74139 0.0
C1705 C 0.76445 0.60156 0.74 0.0
C1706 C 0.78153 0.57896 0.75988 0.0
C1707 C 0.8208 0.58831 0.73882 0.0
C1708 C 0.80638 0.58821 0.73924 0.0
C1709 C 0.76464 0.58806 0.74136 0.0
C1710 C 0.77899 0.58808 0.74049 0.0
H1711 H 0.85827 0.61252 0.73415 0.0
H1712 H 0.83456 0.61234 0.73337 0.0
H1713 H 0.79679 0.57209 0.77493 0.0
H1714 H 0.72722 0.5639 0.74673 0.0
H1715 H 0.75082 0.56395 0.74455 0.0
C1716 C 0.25922 0.83724 0.24699 0.0
C1717 C 0.25927 0.85083 0.24985 0.0
C1718 C 0.24576 0.82367 0.24636 0.0
C1719 C 0.20604 0.8063 0.26716 0.0
H1720 H 0.20093 0.77586 0.2106 0.0
C1721 C 0.14906 0.7532 0.24735 0.0
C1722 C 0.14902 0.73963 0.24417 0.0
C1723 C 0.16252 0.76678 0.2479 0.0
C1724 C 0.20225 0.78418 0.22674 0.0
H1725 H 0.24522 0.86082 0.25402 0.0
H1726 H 0.2217 0.83711 0.253 0.0
H1727 H 0.22444 0.79956 0.21203 0.0
H1728 H 0.16306 0.72966 0.23939 0.0
H1729 H 0.18658 0.75338 0.24039 0.0
H1730 H 0.18386 0.79092 0.28191 0.0
C1731 C 0.23209 0.83695 0.25162 0.0
C1732 C 0.21571 0.79776 0.22755 0.0
C1733 C 0.24556 0.85053 0.25222 0.0
C1734 C 0.16272 0.73994 0.24144 0.0
C1735 C 0.17619 0.75352 0.24201 0.0
C1736 C 0.19258 0.79273 0.26636 0.0
C1737 C 0.23205 0.82338 0.24862 0.0
C1738 C 0.21775 0.80896 0.24777 0.0
C1739 C 0.17623 0.76709 0.24531 0.0
C1740 C 0.19054 0.78151 0.24614 0.0
H1741 H 0.26961 0.83708 0.2456 0.0
H1742 H 0.2461 0.81339 0.2445 0.0
H1743 H 0.20736 0.81464 0.28328 0.0
H1744 H 0.13868 0.75334 0.24904 0.0
H1745 H 0.16217 0.77705 0.24998 0.0
C1746 C 0.41378 0.25553 0.72395 0.0
C1747 C 0.40814 0.25928 0.74874 0.0
C1748 C 0.41459 0.24242 0.72374 0.0
C1749 C 0.41349 0.21325 0.77364 0.0
H1750 H 0.40472 0.19036 0.70105 0.0
C1751 C 0.40204 0.15259 0.76966 0.0
C1752 C 0.4095 0.14921 0.74759 0.0
C1753 C 0.40244 0.1663 0.76966 0.0
C1754 C 0.40732 0.19672 0.72139 0.0
H1755 H 0.39874 0.25225 0.79253 0.0
H1756 H 0.3997 0.22914 0.79194 0.0
H1757 H 0.4042 0.21371 0.7014 0.0
H1758 H 0.42332 0.15773 0.7083 0.0
H1759 H 0.42368 0.18156 0.70797 0.0
H1760 H 0.41618 0.19595 0.79373 0.0
C1761 C 0.40392 0.23648 0.77296 0.0
C1762 C 0.40709 0.21013 0.72162 0.0
C1763 C 0.4033 0.24969 0.77329 0.0
C1764 C 0.41726 0.15985 0.72537 0.0
C1765 C 0.41753 0.17352 0.72521 0.0
C1766 C 0.41355 0.19975 0.77348 0.0
C1767 C 0.40959 0.23268 0.74819 0.0
C1768 C 0.41013 0.21855 0.74777 0.0
C1769 C 0.41016 0.17688 0.74742 0.0
C1770 C 0.41043 0.19135 0.74738 0.0
H1771 H 0.41775 0.26285 0.70487 0.0
H1772 H 0.41927 0.24002 0.70452 0.0
H1773 H 0.41619 0.21957 0.79404 0.0
H1774 H 0.3957 0.14455 0.78677 0.0
H1775 H 0.39649 0.16853 0.78679 0.0
loop_
_geom_bond_atom_site_label_1
_geom_bond_atom_site_label_2
_geom_bond_distance
_geom_bond_site_symmetry_2
_ccdc_geom_bond_type
Li0 N17 1.990 . S
Li0 O60 1.956 . S
Li0 O61 1.970 . S
Li0 O62 1.961 . S
Li1 N25 1.990 . S
Li1 O60 1.970 . S
Li1 O61 1.956 . S
Li1 O63 1.961 . S
Li2 N47 1.990 . S
Li2 O60 1.961 . S
Li2 O62 1.956 . S
Li2 O63 1.970 . S
Li3 N53 1.990 . S
Li3 O61 1.961 . S
Li3 O62 1.970 . S
Li3 O63 1.956 . S
C4 C6 1.348 . S
C4 C7 1.356 . S
C4 O60 1.325 . S
N5 C8 1.314 . S
N5 C9 1.279 . S
C6 C4 1.348 . S
C6 C8 1.353 . S
C6 H64 0.929 . S
C7 C4 1.356 . S
C7 C9 1.358 . S
C7 H65 0.930 . S
C8 N5 1.314 . S
C8 C6 1.353 . S
C8 H66 0.930 . S
C9 N5 1.279 . S
C9 C7 1.358 . S
C9 H67 0.930 . S
C10 C13 1.348 . S
C10 C14 1.356 . S
C10 O61 1.325 . S
C11 N12 1.279 . S
C11 C14 1.358 . S
C11 H68 0.930 . S
N12 C11 1.279 . S
N12 C15 1.314 . S
C13 C10 1.348 . S
C13 C15 1.353 . S
C13 H69 0.929 . S
C14 C10 1.356 . S
C14 C11 1.358 . S
C14 H70 0.930 . S
C15 N12 1.314 . S
C15 C13 1.353 . S
C15 H71 0.930 . S
C16 N17 1.314 . S
C16 C21 1.353 . S
C16 H22 0.930 . S
N17 Li0 1.990 . S
N17 C16 1.314 . S
N17 C19 1.279 . S
C18 C19 1.358 . S
C18 C20 1.356 . S
C18 H72 0.930 . S
C19 N17 1.279 . S
C19 C18 1.358 . S
C19 H23 0.930 . S
C20 C18 1.356 . S
C20 C21 1.348 . S
C21 C16 1.353 . S
C21 C20 1.348 . S
C21 H73 0.929 . S
H22 C16 0.930 . S
H23 C19 0.930 . S
C24 N25 1.314 . S
C24 C26 1.353 . S
C24 H30 0.930 . S
N25 Li1 1.990 . S
N25 C24 1.314 . S
N25 C28 1.279 . S
C26 C24 1.353 . S
C26 C29 1.348 . S
C26 H74 0.929 . S
C27 C28 1.358 . S
C27 C29 1.356 . S
C27 H75 0.930 . S
C28 N25 1.279 . S
C28 C27 1.358 . S
C28 H31 0.930 . S
C29 C26 1.348 . S
C29 C27 1.356 . S
H30 C24 0.930 . S
H31 C28 0.930 . S
C32 C34 1.348 . S
C32 C35 1.356 . S
C32 O62 1.325 . S
N33 C36 1.314 . S
N33 C37 1.279 . S
C34 C32 1.348 . S
C34 C36 1.353 . S
C34 H76 0.929 . S
C35 C32 1.356 . S
C35 C37 1.358 . S
C35 H77 0.930 . S
C36 N33 1.314 . S
C36 C34 1.353 . S
C36 H78 0.930 . S
C37 N33 1.279 . S
C37 C35 1.358 . S
C37 H79 0.930 . S
C38 C39 1.348 . S
C38 C40 1.356 . S
C38 O63 1.325 . S
C39 C38 1.348 . S
C39 C41 1.353 . S
C39 H80 0.929 . S
C40 C38 1.356 . S
C40 C42 1.358 . S
C40 H81 0.930 . S
C41 C39 1.353 . S
C41 N43 1.314 . S
C41 H82 0.930 . S
C42 C40 1.358 . S
C42 N43 1.279 . S
C42 H83 0.930 . S
N43 C41 1.314 . S
N43 C42 1.279 . S
C44 C46 1.353 . S
C44 N47 1.314 . S
C44 H50 0.930 . S
C45 N47 1.279 . S
C45 C48 1.358 . S
C45 H51 0.930 . S
C46 C44 1.353 . S
C46 C49 1.348 . S
C46 H84 0.929 . S
N47 Li2 1.990 . S
N47 C44 1.314 . S
N47 C45 1.279 . S
C48 C45 1.358 . S
C48 C49 1.356 . S
C48 H85 0.930 . S
C49 C46 1.348 . S
C49 C48 1.356 . S
H50 C44 0.930 . S
H51 C45 0.930 . S
C52 N53 1.314 . S
C52 C54 1.353 . S
C52 H58 0.930 . S
N53 Li3 1.990 . S
N53 C52 1.314 . S
N53 C56 1.279 . S
C54 C52 1.353 . S
C54 C57 1.348 . S
C54 H86 0.929 . S
C55 C56 1.358 . S
C55 C57 1.356 . S
C55 H87 0.930 . S
C56 N53 1.279 . S
C56 C55 1.358 . S
C56 H59 0.930 . S
C57 C54 1.348 . S
C57 C55 1.356 . S
H58 C52 0.930 . S
H59 C56 0.930 . S
O60 Li0 1.956 . S
O60 Li1 1.970 . S
O60 Li2 1.961 . S
O60 C4 1.325 . S
O61 Li0 1.970 . S
O61 Li1 1.956 . S
O61 Li3 1.961 . S
O61 C10 1.325 . S
O62 Li0 1.961 . S
O62 Li2 1.956 . S
O62 Li3 1.970 . S
O62 C32 1.325 . S
O63 Li1 1.961 . S
O63 Li2 1.970 . S
O63 Li3 1.956 . S
O63 C38 1.325 . S
H64 C6 0.929 . S
H65 C7 0.930 . S
H66 C8 0.930 . S
H67 C9 0.930 . S
H68 C11 0.930 . S
H69 C13 0.929 . S
H70 C14 0.930 . S
H71 C15 0.930 . S
H72 C18 0.930 . S
H73 C21 0.929 . S
H74 C26 0.929 . S
H75 C27 0.930 . S
H76 C34 0.929 . S
H77 C35 0.930 . S
H78 C36 0.930 . S
H79 C37 0.930 . S
H80 C39 0.929 . S
H81 C40 0.930 . S
H82 C41 0.930 . S
H83 C42 0.930 . S
H84 C46 0.929 . S
H85 C48 0.930 . S
H86 C54 0.929 . S
H87 C55 0.930 . S
Li88 N105 1.990 . S
Li88 O148 1.956 . S
Li88 O149 1.970 . S
Li88 O150 1.961 . S
Li89 N113 1.990 . S
Li89 O148 1.970 . S
Li89 O149 1.956 . S
Li89 O151 1.961 . S
Li90 N135 1.990 . S
Li90 O148 1.961 . S
Li90 O150 1.956 . S
Li90 O151 1.970 . S
Li91 N141 1.990 . S
Li91 O149 1.961 . S
Li91 O150 1.970 . S
Li91 O151 1.956 . S
C92 C94 1.348 . S
C92 C95 1.356 . S
C92 O148 1.325 . S
N93 C96 1.314 . S
N93 C97 1.279 . S
C94 C92 1.348 . S
C94 C96 1.353 . S
C94 H152 0.929 . S
C95 C92 1.356 . S
C95 C97 1.358 . S
C95 H153 0.930 . S
C96 N93 1.314 . S
C96 C94 1.353 . S
C96 H154 0.930 . S
C97 N93 1.279 . S
C97 C95 1.358 . S
C97 H155 0.930 . S
C98 C101 1.348 . S
C98 C102 1.356 . S
C98 O149 1.325 . S
C99 N100 1.279 . S
C99 C102 1.358 . S
C99 H156 0.930 . S
N100 C99 1.279 . S
N100 C103 1.314 . S
C101 C98 1.348 . S
C101 C103 1.353 . S
C101 H157 0.929 . S
C102 C98 1.356 . S
C102 C99 1.358 . S
C102 H158 0.930 . S
C103 N100 1.314 . S
C103 C101 1.353 . S
C103 H159 0.930 . S
C104 N105 1.314 . S
C104 C109 1.353 . S
C104 H110 0.930 . S
N105 Li88 1.990 . S
N105 C104 1.314 . S
N105 C107 1.279 . S
C106 C107 1.358 . S
C106 C108 1.356 . S
C106 H160 0.930 . S
C107 N105 1.279 . S
C107 C106 1.358 . S
C107 H111 0.930 . S
C108 C106 1.356 . S
C108 C109 1.348 . S
C109 C104 1.353 . S
C109 C108 1.348 . S
C109 H161 0.929 . S
H110 C104 0.930 . S
H111 C107 0.930 . S
C112 N113 1.314 . S
C112 C114 1.353 . S
C112 H118 0.930 . S
N113 Li89 1.990 . S
N113 C112 1.314 . S
N113 C116 1.279 . S
C114 C112 1.353 . S
C114 C117 1.348 . S
C114 H162 0.929 . S
C115 C116 1.358 . S
C115 C117 1.356 . S
C115 H163 0.930 . S
C116 N113 1.279 . S
C116 C115 1.358 . S
C116 H119 0.930 . S
C117 C114 1.348 . S
C117 C115 1.356 . S
H118 C112 0.930 . S
H119 C116 0.930 . S
C120 C122 1.348 . S
C120 C123 1.356 . S
C120 O150 1.325 . S
N121 C124 1.314 . S
N121 C125 1.279 . S
C122 C120 1.348 . S
C122 C124 1.353 . S
C122 H164 0.929 . S
C123 C120 1.356 . S
C123 C125 1.358 . S
C123 H165 0.930 . S
C124 N121 1.314 . S
C124 C122 1.353 . S
C124 H166 0.930 . S
C125 N121 1.279 . S
C125 C123 1.358 . S
C125 H167 0.930 . S
C126 C127 1.348 . S
C126 C128 1.356 . S
C126 O151 1.325 . S
C127 C126 1.348 . S
C127 C129 1.353 . S
C127 H168 0.929 . S
C128 C126 1.356 . S
C128 C130 1.358 . S
C128 H169 0.930 . S
C129 C127 1.353 . S
C129 N131 1.314 . S
C129 H170 0.930 . S
C130 C128 1.358 . S
C130 N131 1.279 . S
C130 H171 0.930 . S
N131 C129 1.314 . S
N131 C130 1.279 . S
C132 C134 1.353 . S
C132 N135 1.314 . S
C132 H138 0.930 . S
C133 N135 1.279 . S
C133 C136 1.358 . S
C133 H139 0.930 . S
C134 C132 1.353 . S
C134 C137 1.348 . S
C134 H172 0.929 . S
N135 Li90 1.990 . S
N135 C132 1.314 . S
N135 C133 1.279 . S
C136 C133 1.358 . S
C136 C137 1.356 . S
C136 H173 0.930 . S
C137 C134 1.348 . S
C137 C136 1.356 . S
H138 C132 0.930 . S
H139 C133 0.930 . S
C140 N141 1.314 . S
C140 C142 1.353 . S
C140 H146 0.930 . S
N141 Li91 1.990 . S
N141 C140 1.314 . S
N141 C144 1.279 . S
C142 C140 1.353 . S
C142 C145 1.348 . S
C142 H174 0.929 . S
C143 C144 1.358 . S
C143 C145 1.356 . S
C143 H175 0.930 . S
C144 N141 1.279 . S
C144 C143 1.358 . S
C144 H147 0.930 . S
C145 C142 1.348 . S
C145 C143 1.356 . S
H146 C140 0.930 . S
H147 C144 0.930 . S
O148 Li88 1.956 . S
O148 Li89 1.970 . S
O148 Li90 1.961 . S
O148 C92 1.325 . S
O149 Li88 1.970 . S
O149 Li89 1.956 . S
O149 Li91 1.961 . S
O149 C98 1.325 . S
O150 Li88 1.961 . S
O150 Li90 1.956 . S
O150 Li91 1.970 . S
O150 C120 1.325 . S
O151 Li89 1.961 . S
O151 Li90 1.970 . S
O151 Li91 1.956 . S
O151 C126 1.325 . S
H152 C94 0.929 . S
H153 C95 0.930 . S
H154 C96 0.930 . S
H155 C97 0.930 . S
H156 C99 0.930 . S
H157 C101 0.929 . S
H158 C102 0.930 . S
H159 C103 0.930 . S
H160 C106 0.930 . S
H161 C109 0.929 . S
H162 C114 0.929 . S
H163 C115 0.930 . S
H164 C122 0.929 . S
H165 C123 0.930 . S
H166 C124 0.930 . S
H167 C125 0.930 . S
H168 C127 0.929 . S
H169 C128 0.930 . S
H170 C129 0.930 . S
H171 C130 0.930 . S
H172 C134 0.929 . S
H173 C136 0.930 . S
H174 C142 0.929 . S
H175 C143 0.930 . S
Li176 N193 1.990 . S
Li176 O236 1.956 . S
Li176 O237 1.970 . S
Li176 O238 1.961 . S
Li177 N201 1.990 . S
Li177 O236 1.970 . S
Li177 O237 1.956 . S
Li177 O239 1.961 . S
Li178 N223 1.990 . S
Li178 O236 1.961 . S
Li178 O238 1.956 . S
Li178 O239 1.970 . S
Li179 N229 1.990 . S
Li179 O237 1.961 . S
Li179 O238 1.970 . S
Li179 O239 1.956 . S
C180 C182 1.348 . S
C180 C183 1.356 . S
C180 O236 1.325 . S
N181 C184 1.314 . S
N181 C185 1.279 . S
C182 C180 1.348 . S
C182 C184 1.353 . S
C182 H240 0.929 . S
C183 C180 1.356 . S
C183 C185 1.358 . S
C183 H241 0.930 . S
C184 N181 1.314 . S
C184 C182 1.353 . S
C184 H242 0.930 . S
C185 N181 1.279 . S
C185 C183 1.358 . S
C185 H243 0.930 . S
C186 C189 1.348 . S
C186 C190 1.356 . S
C186 O237 1.325 . S
C187 N188 1.279 . S
C187 C190 1.358 . S
C187 H244 0.930 . S
N188 C187 1.279 . S
N188 C191 1.314 . S
C189 C186 1.348 . S
C189 C191 1.353 . S
C189 H245 0.929 . S
C190 C186 1.356 . S
C190 C187 1.358 . S
C190 H246 0.930 . S
C191 N188 1.314 . S
C191 C189 1.353 . S
C191 H247 0.930 . S
C192 N193 1.314 . S
C192 C197 1.353 . S
C192 H198 0.930 . S
N193 Li176 1.990 . S
N193 C192 1.314 . S
N193 C195 1.279 . S
C194 C195 1.358 . S
C194 C196 1.356 . S
C194 H248 0.930 . S
C195 N193 1.279 . S
C195 C194 1.358 . S
C195 H199 0.930 . S
C196 C194 1.356 . S
C196 C197 1.348 . S
C197 C192 1.353 . S
C197 C196 1.348 . S
C197 H249 0.929 . S
H198 C192 0.930 . S
H199 C195 0.930 . S
C200 N201 1.314 . S
C200 C202 1.353 . S
C200 H206 0.930 . S
N201 Li177 1.990 . S
N201 C200 1.314 . S
N201 C204 1.279 . S
C202 C200 1.353 . S
C202 C205 1.348 . S
C202 H250 0.929 . S
C203 C204 1.358 . S
C203 C205 1.356 . S
C203 H251 0.930 . S
C204 N201 1.279 . S
C204 C203 1.358 . S
C204 H207 0.930 . S
C205 C202 1.348 . S
C205 C203 1.356 . S
H206 C200 0.930 . S
H207 C204 0.930 . S
C208 C210 1.348 . S
C208 C211 1.356 . S
C208 O238 1.325 . S
N209 C212 1.314 . S
N209 C213 1.279 . S
C210 C208 1.348 . S
C210 C212 1.353 . S
C210 H252 0.929 . S
C211 C208 1.356 . S
C211 C213 1.358 . S
C211 H253 0.930 . S
C212 N209 1.314 . S
C212 C210 1.353 . S
C212 H254 0.930 . S
C213 N209 1.279 . S
C213 C211 1.358 . S
C213 H255 0.930 . S
C214 C215 1.348 . S
C214 C216 1.356 . S
C214 O239 1.325 . S
C215 C214 1.348 . S
C215 C217 1.353 . S
C215 H256 0.929 . S
C216 C214 1.356 . S
C216 C218 1.358 . S
C216 H257 0.930 . S
C217 C215 1.353 . S
C217 N219 1.314 . S
C217 H258 0.930 . S
C218 C216 1.358 . S
C218 N219 1.279 . S
C218 H259 0.930 . S
N219 C217 1.314 . S
N219 C218 1.279 . S
C220 C222 1.353 . S
C220 N223 1.314 . S
C220 H226 0.930 . S
C221 N223 1.279 . S
C221 C224 1.358 . S
C221 H227 0.930 . S
C222 C220 1.353 . S
C222 C225 1.348 . S
C222 H260 0.929 . S
N223 Li178 1.990 . S
N223 C220 1.314 . S
N223 C221 1.279 . S
C224 C221 1.358 . S
C224 C225 1.356 . S
C224 H261 0.930 . S
C225 C222 1.348 . S
C225 C224 1.356 . S
H226 C220 0.930 . S
H227 C221 0.930 . S
C228 N229 1.314 . S
C228 C230 1.353 . S
C228 H234 0.930 . S
N229 Li179 1.990 . S
N229 C228 1.314 . S
N229 C232 1.279 . S
C230 C228 1.353 . S
C230 C233 1.348 . S
C230 H262 0.929 . S
C231 C232 1.358 . S
C231 C233 1.356 . S
C231 H263 0.930 . S
C232 N229 1.279 . S
C232 C231 1.358 . S
C232 H235 0.930 . S
C233 C230 1.348 . S
C233 C231 1.356 . S
H234 C228 0.930 . S
H235 C232 0.930 . S
O236 Li176 1.956 . S
O236 Li177 1.970 . S
O236 Li178 1.961 . S
O236 C180 1.325 . S
O237 Li176 1.970 . S
O237 Li177 1.956 . S
O237 Li179 1.961 . S
O237 C186 1.325 . S
O238 Li176 1.961 . S
O238 Li178 1.956 . S
O238 Li179 1.970 . S
O238 C208 1.325 . S
O239 Li177 1.961 . S
O239 Li178 1.970 . S
O239 Li179 1.956 . S
O239 C214 1.325 . S
H240 C182 0.929 . S
H241 C183 0.930 . S
H242 C184 0.930 . S
H243 C185 0.930 . S
H244 C187 0.930 . S
H245 C189 0.929 . S
H246 C190 0.930 . S
H247 C191 0.930 . S
H248 C194 0.930 . S
H249 C197 0.929 . S
H250 C202 0.929 . S
H251 C203 0.930 . S
H252 C210 0.929 . S
H253 C211 0.930 . S
H254 C212 0.930 . S
H255 C213 0.930 . S
H256 C215 0.929 . S
H257 C216 0.930 . S
H258 C217 0.930 . S
H259 C218 0.930 . S
H260 C222 0.929 . S
H261 C224 0.930 . S
H262 C230 0.929 . S
H263 C231 0.930 . S
Li264 N281 1.990 . S
Li264 O324 1.956 . S
Li264 O325 1.970 . S
Li264 O326 1.961 . S
Li265 N289 1.990 . S
Li265 O324 1.970 . S
Li265 O325 1.956 . S
Li265 O327 1.961 . S
Li266 N311 1.990 . S
Li266 O324 1.961 . S
Li266 O326 1.956 . S
Li266 O327 1.970 . S
Li267 N317 1.990 . S
Li267 O325 1.961 . S
Li267 O326 1.970 . S
Li267 O327 1.956 . S
C268 C270 1.348 . S
C268 C271 1.356 . S
C268 O324 1.325 . S
N269 C272 1.314 . S
N269 C273 1.279 . S
C270 C268 1.348 . S
C270 C272 1.353 . S
C270 H328 0.929 . S
C271 C268 1.356 . S
C271 C273 1.358 . S
C271 H329 0.930 . S
C272 N269 1.314 . S
C272 C270 1.353 . S
C272 H330 0.930 . S
C273 N269 1.279 . S
C273 C271 1.358 . S
C273 H331 0.930 . S
C274 C277 1.348 . S
C274 C278 1.356 . S
C274 O325 1.325 . S
C275 N276 1.279 . S
C275 C278 1.358 . S
C275 H332 0.930 . S
N276 C275 1.279 . S
N276 C279 1.314 . S
C277 C274 1.348 . S
C277 C279 1.353 . S
C277 H333 0.929 . S
C278 C274 1.356 . S
C278 C275 1.358 . S
C278 H334 0.930 . S
C279 N276 1.314 . S
C279 C277 1.353 . S
C279 H335 0.930 . S
C280 N281 1.314 . S
C280 C285 1.353 . S
C280 H286 0.930 . S
N281 Li264 1.990 . S
N281 C280 1.314 . S
N281 C283 1.279 . S
C282 C283 1.358 . S
C282 C284 1.356 . S
C282 H336 0.930 . S
C283 N281 1.279 . S
C283 C282 1.358 . S
C283 H287 0.930 . S
C284 C282 1.356 . S
C284 C285 1.348 . S
C285 C280 1.353 . S
C285 C284 1.348 . S
C285 H337 0.929 . S
H286 C280 0.930 . S
H287 C283 0.930 . S
C288 N289 1.314 . S
C288 C290 1.353 . S
C288 H294 0.930 . S
N289 Li265 1.990 . S
N289 C288 1.314 . S
N289 C292 1.279 . S
C290 C288 1.353 . S
C290 C293 1.348 . S
C290 H338 0.929 . S
C291 C292 1.358 . S
C291 C293 1.356 . S
C291 H339 0.930 . S
C292 N289 1.279 . S
C292 C291 1.358 . S
C292 H295 0.930 . S
C293 C290 1.348 . S
C293 C291 1.356 . S
H294 C288 0.930 . S
H295 C292 0.930 . S
C296 C298 1.348 . S
C296 C299 1.356 . S
C296 O326 1.325 . S
N297 C300 1.314 . S
N297 C301 1.279 . S
C298 C296 1.348 . S
C298 C300 1.353 . S
C298 H340 0.929 . S
C299 C296 1.356 . S
C299 C301 1.358 . S
C299 H341 0.930 . S
C300 N297 1.314 . S
C300 C298 1.353 . S
C300 H342 0.930 . S
C301 N297 1.279 . S
C301 C299 1.358 . S
C301 H343 0.930 . S
C302 C303 1.348 . S
C302 C304 1.356 . S
C302 O327 1.325 . S
C303 C302 1.348 . S
C303 C305 1.353 . S
C303 H344 0.929 . S
C304 C302 1.356 . S
C304 C306 1.358 . S
C304 H345 0.930 . S
C305 C303 1.353 . S
C305 N307 1.314 . S
C305 H346 0.930 . S
C306 C304 1.358 . S
C306 N307 1.279 . S
C306 H347 0.930 . S
N307 C305 1.314 . S
N307 C306 1.279 . S
C308 C310 1.353 . S
C308 N311 1.314 . S
C308 H314 0.930 . S
C309 N311 1.279 . S
C309 C312 1.358 . S
C309 H315 0.930 . S
C310 C308 1.353 . S
C310 C313 1.348 . S
C310 H348 0.929 . S
N311 Li266 1.990 . S
N311 C308 1.314 . S
N311 C309 1.279 . S
C312 C309 1.358 . S
C312 C313 1.356 . S
C312 H349 0.930 . S
C313 C310 1.348 . S
C313 C312 1.356 . S
H314 C308 0.930 . S
H315 C309 0.930 . S
C316 N317 1.314 . S
C316 C318 1.353 . S
C316 H322 0.930 . S
N317 Li267 1.990 . S
N317 C316 1.314 . S
N317 C320 1.279 . S
C318 C316 1.353 . S
C318 C321 1.348 . S
C318 H350 0.929 . S
C319 C320 1.358 . S
C319 C321 1.356 . S
C319 H351 0.930 . S
C320 N317 1.279 . S
C320 C319 1.358 . S
C320 H323 0.930 . S
C321 C318 1.348 . S
C321 C319 1.356 . S
H322 C316 0.930 . S
H323 C320 0.930 . S
O324 Li264 1.956 . S
O324 Li265 1.970 . S
O324 Li266 1.961 . S
O324 C268 1.325 . S
O325 Li264 1.970 . S
O325 Li265 1.956 . S
O325 Li267 1.961 . S
O325 C274 1.325 . S
O326 Li264 1.961 . S
O326 Li266 1.956 . S
O326 Li267 1.970 . S
O326 C296 1.325 . S
O327 Li265 1.961 . S
O327 Li266 1.970 . S
O327 Li267 1.956 . S
O327 C302 1.325 . S
H328 C270 0.929 . S
H329 C271 0.930 . S
H330 C272 0.930 . S
H331 C273 0.930 . S
H332 C275 0.930 . S
H333 C277 0.929 . S
H334 C278 0.930 . S
H335 C279 0.930 . S
H336 C282 0.930 . S
H337 C285 0.929 . S
H338 C290 0.929 . S
H339 C291 0.930 . S
H340 C298 0.929 . S
H341 C299 0.930 . S
H342 C300 0.930 . S
H343 C301 0.930 . S
H344 C303 0.929 . S
H345 C304 0.930 . S
H346 C305 0.930 . S
H347 C306 0.930 . S
H348 C310 0.929 . S
H349 C312 0.930 . S
H350 C318 0.929 . S
H351 C319 0.930 . S
Li352 N369 1.990 . S
Li352 O412 1.956 . S
Li352 O413 1.970 . S
Li352 O414 1.961 . S
Li353 N377 1.990 . S
Li353 O412 1.970 . S
Li353 O413 1.956 . S
Li353 O415 1.961 . S
Li354 N399 1.990 . S
Li354 O412 1.961 . S
Li354 O414 1.956 . S
Li354 O415 1.970 . S
Li355 N405 1.990 . S
Li355 O413 1.961 . S
Li355 O414 1.970 . S
Li355 O415 1.956 . S
C356 C358 1.348 . S
C356 C359 1.356 . S
C356 O412 1.325 . S
N357 C360 1.314 . S
N357 C361 1.279 . S
C358 C356 1.348 . S
C358 C360 1.353 . S
C358 H416 0.929 . S
C359 C356 1.356 . S
C359 C361 1.358 . S
C359 H417 0.930 . S
C360 N357 1.314 . S
C360 C358 1.353 . S
C360 H418 0.930 . S
C361 N357 1.279 . S
C361 C359 1.358 . S
C361 H419 0.930 . S
C362 C365 1.348 . S
C362 C366 1.356 . S
C362 O413 1.325 . S
C363 N364 1.279 . S
C363 C366 1.358 . S
C363 H420 0.930 . S
N364 C363 1.279 . S
N364 C367 1.314 . S
C365 C362 1.348 . S
C365 C367 1.353 . S
C365 H421 0.929 . S
C366 C362 1.356 . S
C366 C363 1.358 . S
C366 H422 0.930 . S
C367 N364 1.314 . S
C367 C365 1.353 . S
C367 H423 0.930 . S
C368 N369 1.314 . S
C368 C373 1.353 . S
C368 H374 0.930 . S
N369 Li352 1.990 . S
N369 C368 1.314 . S
N369 C371 1.279 . S
C370 C371 1.358 . S
C370 C372 1.356 . S
C370 H424 0.930 . S
C371 N369 1.279 . S
C371 C370 1.358 . S
C371 H375 0.930 . S
C372 C370 1.356 . S
C372 C373 1.348 . S
C373 C368 1.353 . S
C373 C372 1.348 . S
C373 H425 0.929 . S
H374 C368 0.930 . S
H375 C371 0.930 . S
C376 N377 1.314 . S
C376 C378 1.353 . S
C376 H382 0.930 . S
N377 Li353 1.990 . S
N377 C376 1.314 . S
N377 C380 1.279 . S
C378 C376 1.353 . S
C378 C381 1.348 . S
C378 H426 0.929 . S
C379 C380 1.358 . S
C379 C381 1.356 . S
C379 H427 0.930 . S
C380 N377 1.279 . S
C380 C379 1.358 . S
C380 H383 0.930 . S
C381 C378 1.348 . S
C381 C379 1.356 . S
H382 C376 0.930 . S
H383 C380 0.930 . S
C384 C386 1.348 . S
C384 C387 1.356 . S
C384 O414 1.325 . S
N385 C388 1.314 . S
N385 C389 1.279 . S
C386 C384 1.348 . S
C386 C388 1.353 . S
C386 H428 0.929 . S
C387 C384 1.356 . S
C387 C389 1.358 . S
C387 H429 0.930 . S
C388 N385 1.314 . S
C388 C386 1.353 . S
C388 H430 0.930 . S
C389 N385 1.279 . S
C389 C387 1.358 . S
C389 H431 0.930 . S
C390 C391 1.348 . S
C390 C392 1.356 . S
C390 O415 1.325 . S
C391 C390 1.348 . S
C391 C393 1.353 . S
C391 H432 0.929 . S
C392 C390 1.356 . S
C392 C394 1.358 . S
C392 H433 0.930 . S
C393 C391 1.353 . S
C393 N395 1.314 . S
C393 H434 0.930 . S
C394 C392 1.358 . S
C394 N395 1.279 . S
C394 H435 0.930 . S
N395 C393 1.314 . S
N395 C394 1.279 . S
C396 C398 1.353 . S
C396 N399 1.314 . S
C396 H402 0.930 . S
C397 N399 1.279 . S
C397 C400 1.358 . S
C397 H403 0.930 . S
C398 C396 1.353 . S
C398 C401 1.348 . S
C398 H436 0.929 . S
N399 Li354 1.990 . S
N399 C396 1.314 . S
N399 C397 1.279 . S
C400 C397 1.358 . S
C400 C401 1.356 . S
C400 H437 0.930 . S
C401 C398 1.348 . S
C401 C400 1.356 . S
H402 C396 0.930 . S
H403 C397 0.930 . S
C404 N405 1.314 . S
C404 C406 1.353 . S
C404 H410 0.930 . S
N405 Li355 1.990 . S
N405 C404 1.314 . S
N405 C408 1.279 . S
C406 C404 1.353 . S
C406 C409 1.348 . S
C406 H438 0.929 . S
C407 C408 1.358 . S
C407 C409 1.356 . S
C407 H439 0.930 . S
C408 N405 1.279 . S
C408 C407 1.358 . S
C408 H411 0.930 . S
C409 C406 1.348 . S
C409 C407 1.356 . S
H410 C404 0.930 . S
H411 C408 0.930 . S
O412 Li352 1.956 . S
O412 Li353 1.970 . S
O412 Li354 1.961 . S
O412 C356 1.325 . S
O413 Li352 1.970 . S
O413 Li353 1.956 . S
O413 Li355 1.961 . S
O413 C362 1.325 . S
O414 Li352 1.961 . S
O414 Li354 1.956 . S
O414 Li355 1.970 . S
O414 C384 1.325 . S
O415 Li353 1.961 . S
O415 Li354 1.970 . S
O415 Li355 1.956 . S
O415 C390 1.325 . S
H416 C358 0.929 . S
H417 C359 0.930 . S
H418 C360 0.930 . S
H419 C361 0.930 . S
H420 C363 0.930 . S
H421 C365 0.929 . S
H422 C366 0.930 . S
H423 C367 0.930 . S
H424 C370 0.930 . S
H425 C373 0.929 . S
H426 C378 0.929 . S
H427 C379 0.930 . S
H428 C386 0.929 . S
H429 C387 0.930 . S
H430 C388 0.930 . S
H431 C389 0.930 . S
H432 C391 0.929 . S
H433 C392 0.930 . S
H434 C393 0.930 . S
H435 C394 0.930 . S
H436 C398 0.929 . S
H437 C400 0.930 . S
H438 C406 0.929 . S
H439 C407 0.930 . S
Li440 N457 1.990 . S
Li440 O500 1.956 . S
Li440 O501 1.970 . S
Li440 O502 1.961 . S
Li441 N465 1.990 . S
Li441 O500 1.970 . S
Li441 O501 1.956 . S
Li441 O503 1.961 . S
Li442 N487 1.990 . S
Li442 O500 1.961 . S
Li442 O502 1.956 . S
Li442 O503 1.970 . S
Li443 N493 1.990 . S
Li443 O501 1.961 . S
Li443 O502 1.970 . S
Li443 O503 1.956 . S
C444 C446 1.348 . S
C444 C447 1.356 . S
C444 O500 1.325 . S
N445 C448 1.314 . S
N445 C449 1.279 . S
C446 C444 1.348 . S
C446 C448 1.353 . S
C446 H504 0.929 . S
C447 C444 1.356 . S
C447 C449 1.358 . S
C447 H505 0.930 . S
C448 N445 1.314 . S
C448 C446 1.353 . S
C448 H506 0.930 . S
C449 N445 1.279 . S
C449 C447 1.358 . S
C449 H507 0.930 . S
C450 C453 1.348 . S
C450 C454 1.356 . S
C450 O501 1.325 . S
C451 N452 1.279 . S
C451 C454 1.358 . S
C451 H508 0.930 . S
N452 C451 1.279 . S
N452 C455 1.314 . S
C453 C450 1.348 . S
C453 C455 1.353 . S
C453 H509 0.929 . S
C454 C450 1.356 . S
C454 C451 1.358 . S
C454 H510 0.930 . S
C455 N452 1.314 . S
C455 C453 1.353 . S
C455 H511 0.930 . S
C456 N457 1.314 . S
C456 C461 1.353 . S
C456 H462 0.930 . S
N457 Li440 1.990 . S
N457 C456 1.314 . S
N457 C459 1.279 . S
C458 C459 1.358 . S
C458 C460 1.356 . S
C458 H512 0.930 . S
C459 N457 1.279 . S
C459 C458 1.358 . S
C459 H463 0.930 . S
C460 C458 1.356 . S
C460 C461 1.348 . S
C461 C456 1.353 . S
C461 C460 1.348 . S
C461 H513 0.929 . S
H462 C456 0.930 . S
H463 C459 0.930 . S
C464 N465 1.314 . S
C464 C466 1.353 . S
C464 H470 0.930 . S
N465 Li441 1.990 . S
N465 C464 1.314 . S
N465 C468 1.279 . S
C466 C464 1.353 . S
C466 C469 1.348 . S
C466 H514 0.929 . S
C467 C468 1.358 . S
C467 C469 1.356 . S
C467 H515 0.930 . S
C468 N465 1.279 . S
C468 C467 1.358 . S
C468 H471 0.930 . S
C469 C466 1.348 . S
C469 C467 1.356 . S
H470 C464 0.930 . S
H471 C468 0.930 . S
C472 C474 1.348 . S
C472 C475 1.356 . S
C472 O502 1.325 . S
N473 C476 1.314 . S
N473 C477 1.279 . S
C474 C472 1.348 . S
C474 C476 1.353 . S
C474 H516 0.929 . S
C475 C472 1.356 . S
C475 C477 1.358 . S
C475 H517 0.930 . S
C476 N473 1.314 . S
C476 C474 1.353 . S
C476 H518 0.930 . S
C477 N473 1.279 . S
C477 C475 1.358 . S
C477 H519 0.930 . S
C478 C479 1.348 . S
C478 C480 1.356 . S
C478 O503 1.325 . S
C479 C478 1.348 . S
C479 C481 1.353 . S
C479 H520 0.929 . S
C480 C478 1.356 . S
C480 C482 1.358 . S
C480 H521 0.930 . S
C481 C479 1.353 . S
C481 N483 1.314 . S
C481 H522 0.930 . S
C482 C480 1.358 . S
C482 N483 1.279 . S
C482 H523 0.930 . S
N483 C481 1.314 . S
N483 C482 1.279 . S
C484 C486 1.353 . S
C484 N487 1.314 . S
C484 H490 0.930 . S
C485 N487 1.279 . S
C485 C488 1.358 . S
C485 H491 0.930 . S
C486 C484 1.353 . S
C486 C489 1.348 . S
C486 H524 0.929 . S
N487 Li442 1.990 . S
N487 C484 1.314 . S
N487 C485 1.279 . S
C488 C485 1.358 . S
C488 C489 1.356 . S
C488 H525 0.930 . S
C489 C486 1.348 . S
C489 C488 1.356 . S
H490 C484 0.930 . S
H491 C485 0.930 . S
C492 N493 1.314 . S
C492 C494 1.353 . S
C492 H498 0.930 . S
N493 Li443 1.990 . S
N493 C492 1.314 . S
N493 C496 1.279 . S
C494 C492 1.353 . S
C494 C497 1.348 . S
C494 H526 0.929 . S
C495 C496 1.358 . S
C495 C497 1.356 . S
C495 H527 0.930 . S
C496 N493 1.279 . S
C496 C495 1.358 . S
C496 H499 0.930 . S
C497 C494 1.348 . S
C497 C495 1.356 . S
H498 C492 0.930 . S
H499 C496 0.930 . S
O500 Li440 1.956 . S
O500 Li441 1.970 . S
O500 Li442 1.961 . S
O500 C444 1.325 . S
O501 Li440 1.970 . S
O501 Li441 1.956 . S
O501 Li443 1.961 . S
O501 C450 1.325 . S
O502 Li440 1.961 . S
O502 Li442 1.956 . S
O502 Li443 1.970 . S
O502 C472 1.325 . S
O503 Li441 1.961 . S
O503 Li442 1.970 . S
O503 Li443 1.956 . S
O503 C478 1.325 . S
H504 C446 0.929 . S
H505 C447 0.930 . S
H506 C448 0.930 . S
H507 C449 0.930 . S
H508 C451 0.930 . S
H509 C453 0.929 . S
H510 C454 0.930 . S
H511 C455 0.930 . S
H512 C458 0.930 . S
H513 C461 0.929 . S
H514 C466 0.929 . S
H515 C467 0.930 . S
H516 C474 0.929 . S
H517 C475 0.930 . S
H518 C476 0.930 . S
H519 C477 0.930 . S
H520 C479 0.929 . S
H521 C480 0.930 . S
H522 C481 0.930 . S
H523 C482 0.930 . S
H524 C486 0.929 . S
H525 C488 0.930 . S
H526 C494 0.929 . S
H527 C495 0.930 . S
Li528 N545 1.990 . S
Li528 O588 1.956 . S
Li528 O589 1.970 . S
Li528 O590 1.961 . S
Li529 N553 1.990 . S
Li529 O588 1.970 . S
Li529 O589 1.956 . S
Li529 O591 1.961 . S
Li530 N575 1.990 . S
Li530 O588 1.961 . S
Li530 O590 1.956 . S
Li530 O591 1.970 . S
Li531 N581 1.990 . S
Li531 O589 1.961 . S
Li531 O590 1.970 . S
Li531 O591 1.956 . S
C532 C534 1.348 . S
C532 C535 1.356 . S
C532 O588 1.325 . S
N533 C536 1.314 . S
N533 C537 1.279 . S
C534 C532 1.348 . S
C534 C536 1.353 . S
C534 H592 0.929 . S
C535 C532 1.356 . S
C535 C537 1.358 . S
C535 H593 0.930 . S
C536 N533 1.314 . S
C536 C534 1.353 . S
C536 H594 0.930 . S
C537 N533 1.279 . S
C537 C535 1.358 . S
C537 H595 0.930 . S
C538 C541 1.348 . S
C538 C542 1.356 . S
C538 O589 1.325 . S
C539 N540 1.279 . S
C539 C542 1.358 . S
C539 H596 0.930 . S
N540 C539 1.279 . S
N540 C543 1.314 . S
C541 C538 1.348 . S
C541 C543 1.353 . S
C541 H597 0.929 . S
C542 C538 1.356 . S
C542 C539 1.358 . S
C542 H598 0.930 . S
C543 N540 1.314 . S
C543 C541 1.353 . S
C543 H599 0.930 . S
C544 N545 1.314 . S
C544 C549 1.353 . S
C544 H550 0.930 . S
N545 Li528 1.990 . S
N545 C544 1.314 . S
N545 C547 1.279 . S
C546 C547 1.358 . S
C546 C548 1.356 . S
C546 H600 0.930 . S
C547 N545 1.279 . S
C547 C546 1.358 . S
C547 H551 0.930 . S
C548 C546 1.356 . S
C548 C549 1.348 . S
C549 C544 1.353 . S
C549 C548 1.348 . S
C549 H601 0.929 . S
H550 C544 0.930 . S
H551 C547 0.930 . S
C552 N553 1.314 . S
C552 C554 1.353 . S
C552 H558 0.930 . S
N553 Li529 1.990 . S
N553 C552 1.314 . S
N553 C556 1.279 . S
C554 C552 1.353 . S
C554 C557 1.348 . S
C554 H602 0.929 . S
C555 C556 1.358 . S
C555 C557 1.356 . S
C555 H603 0.930 . S
C556 N553 1.279 . S
C556 C555 1.358 . S
C556 H559 0.930 . S
C557 C554 1.348 . S
C557 C555 1.356 . S
H558 C552 0.930 . S
H559 C556 0.930 . S
C560 C562 1.348 . S
C560 C563 1.356 . S
C560 O590 1.325 . S
N561 C564 1.314 . S
N561 C565 1.279 . S
C562 C560 1.348 . S
C562 C564 1.353 . S
C562 H604 0.929 . S
C563 C560 1.356 . S
C563 C565 1.358 . S
C563 H605 0.930 . S
C564 N561 1.314 . S
C564 C562 1.353 . S
C564 H606 0.930 . S
C565 N561 1.279 . S
C565 C563 1.358 . S
C565 H607 0.930 . S
C566 C567 1.348 . S
C566 C568 1.356 . S
C566 O591 1.325 . S
C567 C566 1.348 . S
C567 C569 1.353 . S
C567 H608 0.929 . S
C568 C566 1.356 . S
C568 C570 1.358 . S
C568 H609 0.930 . S
C569 C567 1.353 . S
C569 N571 1.314 . S
C569 H610 0.930 . S
C570 C568 1.358 . S
C570 N571 1.279 . S
C570 H611 0.930 . S
N571 C569 1.314 . S
N571 C570 1.279 . S
C572 C574 1.353 . S
C572 N575 1.314 . S
C572 H578 0.930 . S
C573 N575 1.279 . S
C573 C576 1.358 . S
C573 H579 0.930 . S
C574 C572 1.353 . S
C574 C577 1.348 . S
C574 H612 0.929 . S
N575 Li530 1.990 . S
N575 C572 1.314 . S
N575 C573 1.279 . S
C576 C573 1.358 . S
C576 C577 1.356 . S
C576 H613 0.930 . S
C577 C574 1.348 . S
C577 C576 1.356 . S
H578 C572 0.930 . S
H579 C573 0.930 . S
C580 N581 1.314 . S
C580 C582 1.353 . S
C580 H586 0.930 . S
N581 Li531 1.990 . S
N581 C580 1.314 . S
N581 C584 1.279 . S
C582 C580 1.353 . S
C582 C585 1.348 . S
C582 H614 0.929 . S
C583 C584 1.358 . S
C583 C585 1.356 . S
C583 H615 0.930 . S
C584 N581 1.279 . S
C584 C583 1.358 . S
C584 H587 0.930 . S
C585 C582 1.348 . S
C585 C583 1.356 . S
H586 C580 0.930 . S
H587 C584 0.930 . S
O588 Li528 1.956 . S
O588 Li529 1.970 . S
O588 Li530 1.961 . S
O588 C532 1.325 . S
O589 Li528 1.970 . S
O589 Li529 1.956 . S
O589 Li531 1.961 . S
O589 C538 1.325 . S
O590 Li528 1.961 . S
O590 Li530 1.956 . S
O590 Li531 1.970 . S
O590 C560 1.325 . S
O591 Li529 1.961 . S
O591 Li530 1.970 . S
O591 Li531 1.956 . S
O591 C566 1.325 . S
H592 C534 0.929 . S
H593 C535 0.930 . S
H594 C536 0.930 . S
H595 C537 0.930 . S
H596 C539 0.930 . S
H597 C541 0.929 . S
H598 C542 0.930 . S
H599 C543 0.930 . S
H600 C546 0.930 . S
H601 C549 0.929 . S
H602 C554 0.929 . S
H603 C555 0.930 . S
H604 C562 0.929 . S
H605 C563 0.930 . S
H606 C564 0.930 . S
H607 C565 0.930 . S
H608 C567 0.929 . S
H609 C568 0.930 . S
H610 C569 0.930 . S
H611 C570 0.930 . S
H612 C574 0.929 . S
H613 C576 0.930 . S
H614 C582 0.929 . S
H615 C583 0.930 . S
Li616 N633 1.990 . S
Li616 O676 1.956 . S
Li616 O677 1.970 . S
Li616 O678 1.961 . S
Li617 N641 1.990 . S
Li617 O676 1.970 . S
Li617 O677 1.956 . S
Li617 O679 1.961 . S
Li618 N663 1.990 . S
Li618 O676 1.961 . S
Li618 O678 1.956 . S
Li618 O679 1.970 . S
Li619 N669 1.990 . S
Li619 O677 1.961 . S
Li619 O678 1.970 . S
Li619 O679 1.956 . S
C620 C622 1.348 . S
C620 C623 1.356 . S
C620 O676 1.325 . S
N621 C624 1.314 . S
N621 C625 1.279 . S
C622 C620 1.348 . S
C622 C624 1.353 . S
C622 H680 0.929 . S
C623 C620 1.356 . S
C623 C625 1.358 . S
C623 H681 0.930 . S
C624 N621 1.314 . S
C624 C622 1.353 . S
C624 H682 0.930 . S
C625 N621 1.279 . S
C625 C623 1.358 . S
C625 H683 0.930 . S
C626 C629 1.348 . S
C626 C630 1.356 . S
C626 O677 1.325 . S
C627 N628 1.279 . S
C627 C630 1.358 . S
C627 H684 0.930 . S
N628 C627 1.279 . S
N628 C631 1.314 . S
C629 C626 1.348 . S
C629 C631 1.353 . S
C629 H685 0.929 . S
C630 C626 1.356 . S
C630 C627 1.358 . S
C630 H686 0.930 . S
C631 N628 1.314 . S
C631 C629 1.353 . S
C631 H687 0.930 . S
C632 N633 1.314 . S
C632 C637 1.353 . S
C632 H638 0.930 . S
N633 Li616 1.990 . S
N633 C632 1.314 . S
N633 C635 1.279 . S
C634 C635 1.358 . S
C634 C636 1.356 . S
C634 H688 0.930 . S
C635 N633 1.279 . S
C635 C634 1.358 . S
C635 H639 0.930 . S
C636 C634 1.356 . S
C636 C637 1.348 . S
C637 C632 1.353 . S
C637 C636 1.348 . S
C637 H689 0.929 . S
H638 C632 0.930 . S
H639 C635 0.930 . S
C640 N641 1.314 . S
C640 C642 1.353 . S
C640 H646 0.930 . S
N641 Li617 1.990 . S
N641 C640 1.314 . S
N641 C644 1.279 . S
C642 C640 1.353 . S
C642 C645 1.348 . S
C642 H690 0.929 . S
C643 C644 1.358 . S
C643 C645 1.356 . S
C643 H691 0.930 . S
C644 N641 1.279 . S
C644 C643 1.358 . S
C644 H647 0.930 . S
C645 C642 1.348 . S
C645 C643 1.356 . S
H646 C640 0.930 . S
H647 C644 0.930 . S
C648 C650 1.348 . S
C648 C651 1.356 . S
C648 O678 1.325 . S
N649 C652 1.314 . S
N649 C653 1.279 . S
C650 C648 1.348 . S
C650 C652 1.353 . S
C650 H692 0.929 . S
C651 C648 1.356 . S
C651 C653 1.358 . S
C651 H693 0.930 . S
C652 N649 1.314 . S
C652 C650 1.353 . S
C652 H694 0.930 . S
C653 N649 1.279 . S
C653 C651 1.358 . S
C653 H695 0.930 . S
C654 C655 1.348 . S
C654 C656 1.356 . S
C654 O679 1.325 . S
C655 C654 1.348 . S
C655 C657 1.353 . S
C655 H696 0.929 . S
C656 C654 1.356 . S
C656 C658 1.358 . S
C656 H697 0.930 . S
C657 C655 1.353 . S
C657 N659 1.314 . S
C657 H698 0.930 . S
C658 C656 1.358 . S
C658 N659 1.279 . S
C658 H699 0.930 . S
N659 C657 1.314 . S
N659 C658 1.279 . S
C660 C662 1.353 . S
C660 N663 1.314 . S
C660 H666 0.930 . S
C661 N663 1.279 . S
C661 C664 1.358 . S
C661 H667 0.930 . S
C662 C660 1.353 . S
C662 C665 1.348 . S
C662 H700 0.929 . S
N663 Li618 1.990 . S
N663 C660 1.314 . S
N663 C661 1.279 . S
C664 C661 1.358 . S
C664 C665 1.356 . S
C664 H701 0.930 . S
C665 C662 1.348 . S
C665 C664 1.356 . S
H666 C660 0.930 . S
H667 C661 0.930 . S
C668 N669 1.314 . S
C668 C670 1.353 . S
C668 H674 0.930 . S
N669 Li619 1.990 . S
N669 C668 1.314 . S
N669 C672 1.279 . S
C670 C668 1.353 . S
C670 C673 1.348 . S
C670 H702 0.929 . S
C671 C672 1.358 . S
C671 C673 1.356 . S
C671 H703 0.930 . S
C672 N669 1.279 . S
C672 C671 1.358 . S
C672 H675 0.930 . S
C673 C670 1.348 . S
C673 C671 1.356 . S
H674 C668 0.930 . S
H675 C672 0.930 . S
O676 Li616 1.956 . S
O676 Li617 1.970 . S
O676 Li618 1.961 . S
O676 C620 1.325 . S
O677 Li616 1.970 . S
O677 Li617 1.956 . S
O677 Li619 1.961 . S
O677 C626 1.325 . S
O678 Li616 1.961 . S
O678 Li618 1.956 . S
O678 Li619 1.970 . S
O678 C648 1.325 . S
O679 Li617 1.961 . S
O679 Li618 1.970 . S
O679 Li619 1.956 . S
O679 C654 1.325 . S
H680 C622 0.929 . S
H681 C623 0.930 . S
H682 C624 0.930 . S
H683 C625 0.930 . S
H684 C627 0.930 . S
H685 C629 0.929 . S
H686 C630 0.930 . S
H687 C631 0.930 . S
H688 C634 0.930 . S
H689 C637 0.929 . S
H690 C642 0.929 . S
H691 C643 0.930 . S
H692 C650 0.929 . S
H693 C651 0.930 . S
H694 C652 0.930 . S
H695 C653 0.930 . S
H696 C655 0.929 . S
H697 C656 0.930 . S
H698 C657 0.930 . S
H699 C658 0.930 . S
H700 C662 0.929 . S
H701 C664 0.930 . S
H702 C670 0.929 . S
H703 C671 0.930 . S
Li704 N721 1.990 . S
Li704 O764 1.956 . S
Li704 O765 1.970 . S
Li704 O766 1.961 . S
Li705 N729 1.990 . S
Li705 O764 1.970 . S
Li705 O765 1.956 . S
Li705 O767 1.961 . S
Li706 N751 1.990 . S
Li706 O764 1.961 . S
Li706 O766 1.956 . S
Li706 O767 1.970 . S
Li707 N757 1.990 . S
Li707 O765 1.961 . S
Li707 O766 1.970 . S
Li707 O767 1.956 . S
C708 C710 1.348 . S
C708 C711 1.356 . S
C708 O764 1.325 . S
N709 C712 1.314 . S
N709 C713 1.279 . S
C710 C708 1.348 . S
C710 C712 1.353 . S
C710 H768 0.929 . S
C711 C708 1.356 . S
C711 C713 1.358 . S
C711 H769 0.930 . S
C712 N709 1.314 . S
C712 C710 1.353 . S
C712 H770 0.930 . S
C713 N709 1.279 . S
C713 C711 1.358 . S
C713 H771 0.930 . S
C714 C717 1.348 . S
C714 C718 1.356 . S
C714 O765 1.325 . S
C715 N716 1.279 . S
C715 C718 1.358 . S
C715 H772 0.930 . S
N716 C715 1.279 . S
N716 C719 1.314 . S
C717 C714 1.348 . S
C717 C719 1.353 . S
C717 H773 0.929 . S
C718 C714 1.356 . S
C718 C715 1.358 . S
C718 H774 0.930 . S
C719 N716 1.314 . S
C719 C717 1.353 . S
C719 H775 0.930 . S
C720 N721 1.314 . S
C720 C725 1.353 . S
C720 H726 0.930 . S
N721 Li704 1.990 . S
N721 C720 1.314 . S
N721 C723 1.279 . S
C722 C723 1.358 . S
C722 C724 1.356 . S
C722 H776 0.930 . S
C723 N721 1.279 . S
C723 C722 1.358 . S
C723 H727 0.930 . S
C724 C722 1.356 . S
C724 C725 1.348 . S
C725 C720 1.353 . S
C725 C724 1.348 . S
C725 H777 0.929 . S
H726 C720 0.930 . S
H727 C723 0.930 . S
C728 N729 1.314 . S
C728 C730 1.353 . S
C728 H734 0.930 . S
N729 Li705 1.990 . S
N729 C728 1.314 . S
N729 C732 1.279 . S
C730 C728 1.353 . S
C730 C733 1.348 . S
C730 H778 0.929 . S
C731 C732 1.358 . S
C731 C733 1.356 . S
C731 H779 0.930 . S
C732 N729 1.279 . S
C732 C731 1.358 . S
C732 H735 0.930 . S
C733 C730 1.348 . S
C733 C731 1.356 . S
H734 C728 0.930 . S
H735 C732 0.930 . S
C736 C738 1.348 . S
C736 C739 1.356 . S
C736 O766 1.325 . S
N737 C740 1.314 . S
N737 C741 1.279 . S
C738 C736 1.348 . S
C738 C740 1.353 . S
C738 H780 0.929 . S
C739 C736 1.356 . S
C739 C741 1.358 . S
C739 H781 0.930 . S
C740 N737 1.314 . S
C740 C738 1.353 . S
C740 H782 0.930 . S
C741 N737 1.279 . S
C741 C739 1.358 . S
C741 H783 0.930 . S
C742 C743 1.348 . S
C742 C744 1.356 . S
C742 O767 1.325 . S
C743 C742 1.348 . S
C743 C745 1.353 . S
C743 H784 0.929 . S
C744 C742 1.356 . S
C744 C746 1.358 . S
C744 H785 0.930 . S
C745 C743 1.353 . S
C745 N747 1.314 . S
C745 H786 0.930 . S
C746 C744 1.358 . S
C746 N747 1.279 . S
C746 H787 0.930 . S
N747 C745 1.314 . S
N747 C746 1.279 . S
C748 C750 1.353 . S
C748 N751 1.314 . S
C748 H754 0.930 . S
C749 N751 1.279 . S
C749 C752 1.358 . S
C749 H755 0.930 . S
C750 C748 1.353 . S
C750 C753 1.348 . S
C750 H788 0.929 . S
N751 Li706 1.990 . S
N751 C748 1.314 . S
N751 C749 1.279 . S
C752 C749 1.358 . S
C752 C753 1.356 . S
C752 H789 0.930 . S
C753 C750 1.348 . S
C753 C752 1.356 . S
H754 C748 0.930 . S
H755 C749 0.930 . S
C756 N757 1.314 . S
C756 C758 1.353 . S
C756 H762 0.930 . S
N757 Li707 1.990 . S
N757 C756 1.314 . S
N757 C760 1.279 . S
C758 C756 1.353 . S
C758 C761 1.348 . S
C758 H790 0.929 . S
C759 C760 1.358 . S
C759 C761 1.356 . S
C759 H791 0.930 . S
C760 N757 1.279 . S
C760 C759 1.358 . S
C760 H763 0.930 . S
C761 C758 1.348 . S
C761 C759 1.356 . S
H762 C756 0.930 . S
H763 C760 0.930 . S
O764 Li704 1.956 . S
O764 Li705 1.970 . S
O764 Li706 1.961 . S
O764 C708 1.325 . S
O765 Li704 1.970 . S
O765 Li705 1.956 . S
O765 Li707 1.961 . S
O765 C714 1.325 . S
O766 Li704 1.961 . S
O766 Li706 1.956 . S
O766 Li707 1.970 . S
O766 C736 1.325 . S
O767 Li705 1.961 . S
O767 Li706 1.970 . S
O767 Li707 1.956 . S
O767 C742 1.325 . S
H768 C710 0.929 . S
H769 C711 0.930 . S
H770 C712 0.930 . S
H771 C713 0.930 . S
H772 C715 0.930 . S
H773 C717 0.929 . S
H774 C718 0.930 . S
H775 C719 0.930 . S
H776 C722 0.930 . S
H777 C725 0.929 . S
H778 C730 0.929 . S
H779 C731 0.930 . S
H780 C738 0.929 . S
H781 C739 0.930 . S
H782 C740 0.930 . S
H783 C741 0.930 . S
H784 C743 0.929 . S
H785 C744 0.930 . S
H786 C745 0.930 . S
H787 C746 0.930 . S
H788 C750 0.929 . S
H789 C752 0.930 . S
H790 C758 0.929 . S
H791 C759 0.930 . S
Li792 N809 1.990 . S
Li792 O852 1.956 . S
Li792 O853 1.970 . S
Li792 O854 1.961 . S
Li793 N817 1.990 . S
Li793 O852 1.970 . S
Li793 O853 1.956 . S
Li793 O855 1.961 . S
Li794 N839 1.990 . S
Li794 O852 1.961 . S
Li794 O854 1.956 . S
Li794 O855 1.970 . S
Li795 N845 1.990 . S
Li795 O853 1.961 . S
Li795 O854 1.970 . S
Li795 O855 1.956 . S
C796 C798 1.348 . S
C796 C799 1.356 . S
C796 O852 1.325 . S
N797 C800 1.314 . S
N797 C801 1.279 . S
C798 C796 1.348 . S
C798 C800 1.353 . S
C798 H856 0.929 . S
C799 C796 1.356 . S
C799 C801 1.358 . S
C799 H857 0.930 . S
C800 N797 1.314 . S
C800 C798 1.353 . S
C800 H858 0.930 . S
C801 N797 1.279 . S
C801 C799 1.358 . S
C801 H859 0.930 . S
C802 C805 1.348 . S
C802 C806 1.356 . S
C802 O853 1.325 . S
C803 N804 1.279 . S
C803 C806 1.358 . S
C803 H860 0.930 . S
N804 C803 1.279 . S
N804 C807 1.314 . S
C805 C802 1.348 . S
C805 C807 1.353 . S
C805 H861 0.929 . S
C806 C802 1.356 . S
C806 C803 1.358 . S
C806 H862 0.930 . S
C807 N804 1.314 . S
C807 C805 1.353 . S
C807 H863 0.930 . S
C808 N809 1.314 . S
C808 C813 1.353 . S
C808 H814 0.930 . S
N809 Li792 1.990 . S
N809 C808 1.314 . S
N809 C811 1.279 . S
C810 C811 1.358 . S
C810 C812 1.356 . S
C810 H864 0.930 . S
C811 N809 1.279 . S
C811 C810 1.358 . S
C811 H815 0.930 . S
C812 C810 1.356 . S
C812 C813 1.348 . S
C813 C808 1.353 . S
C813 C812 1.348 . S
C813 H865 0.929 . S
H814 C808 0.930 . S
H815 C811 0.930 . S
C816 N817 1.314 . S
C816 C818 1.353 . S
C816 H822 0.930 . S
N817 Li793 1.990 . S
N817 C816 1.314 . S
N817 C820 1.279 . S
C818 C816 1.353 . S
C818 C821 1.348 . S
C818 H866 0.929 . S
C819 C820 1.358 . S
C819 C821 1.356 . S
C819 H867 0.930 . S
C820 N817 1.279 . S
C820 C819 1.358 . S
C820 H823 0.930 . S
C821 C818 1.348 . S
C821 C819 1.356 . S
H822 C816 0.930 . S
H823 C820 0.930 . S
C824 C826 1.348 . S
C824 C827 1.356 . S
C824 O854 1.325 . S
N825 C828 1.314 . S
N825 C829 1.279 . S
C826 C824 1.348 . S
C826 C828 1.353 . S
C826 H868 0.929 . S
C827 C824 1.356 . S
C827 C829 1.358 . S
C827 H869 0.930 . S
C828 N825 1.314 . S
C828 C826 1.353 . S
C828 H870 0.930 . S
C829 N825 1.279 . S
C829 C827 1.358 . S
C829 H871 0.930 . S
C830 C831 1.348 . S
C830 C832 1.356 . S
C830 O855 1.325 . S
C831 C830 1.348 . S
C831 C833 1.353 . S
C831 H872 0.929 . S
C832 C830 1.356 . S
C832 C834 1.358 . S
C832 H873 0.930 . S
C833 C831 1.353 . S
C833 N835 1.314 . S
C833 H874 0.930 . S
C834 C832 1.358 . S
C834 N835 1.279 . S
C834 H875 0.930 . S
N835 C833 1.314 . S
N835 C834 1.279 . S
C836 C838 1.353 . S
C836 N839 1.314 . S
C836 H842 0.930 . S
C837 N839 1.279 . S
C837 C840 1.358 . S
C837 H843 0.930 . S
C838 C836 1.353 . S
C838 C841 1.348 . S
C838 H876 0.929 . S
N839 Li794 1.990 . S
N839 C836 1.314 . S
N839 C837 1.279 . S
C840 C837 1.358 . S
C840 C841 1.356 . S
C840 H877 0.930 . S
C841 C838 1.348 . S
C841 C840 1.356 . S
H842 C836 0.930 . S
H843 C837 0.930 . S
C844 N845 1.314 . S
C844 C846 1.353 . S
C844 H850 0.930 . S
N845 Li795 1.990 . S
N845 C844 1.314 . S
N845 C848 1.279 . S
C846 C844 1.353 . S
C846 C849 1.348 . S
C846 H878 0.929 . S
C847 C848 1.358 . S
C847 C849 1.356 . S
C847 H879 0.930 . S
C848 N845 1.279 . S
C848 C847 1.358 . S
C848 H851 0.930 . S
C849 C846 1.348 . S
C849 C847 1.356 . S
H850 C844 0.930 . S
H851 C848 0.930 . S
O852 Li792 1.956 . S
O852 Li793 1.970 . S
O852 Li794 1.961 . S
O852 C796 1.325 . S
O853 Li792 1.970 . S
O853 Li793 1.956 . S
O853 Li795 1.961 . S
O853 C802 1.325 . S
O854 Li792 1.961 . S
O854 Li794 1.956 . S
O854 Li795 1.970 . S
O854 C824 1.325 . S
O855 Li793 1.961 . S
O855 Li794 1.970 . S
O855 Li795 1.956 . S
O855 C830 1.325 . S
H856 C798 0.929 . S
H857 C799 0.930 . S
H858 C800 0.930 . S
H859 C801 0.930 . S
H860 C803 0.930 . S
H861 C805 0.929 . S
H862 C806 0.930 . S
H863 C807 0.930 . S
H864 C810 0.930 . S
H865 C813 0.929 . S
H866 C818 0.929 . S
H867 C819 0.930 . S
H868 C826 0.929 . S
H869 C827 0.930 . S
H870 C828 0.930 . S
H871 C829 0.930 . S
H872 C831 0.929 . S
H873 C832 0.930 . S
H874 C833 0.930 . S
H875 C834 0.930 . S
H876 C838 0.929 . S
H877 C840 0.930 . S
H878 C846 0.929 . S
H879 C847 0.930 . S
Li880 N897 1.990 . S
Li880 O940 1.956 . S
Li880 O941 1.970 . S
Li880 O942 1.961 . S
Li881 N905 1.990 . S
Li881 O940 1.970 . S
Li881 O941 1.956 . S
Li881 O943 1.961 . S
Li882 N927 1.990 . S
Li882 O940 1.961 . S
Li882 O942 1.956 . S
Li882 O943 1.970 . S
Li883 N933 1.990 . S
Li883 O941 1.961 . S
Li883 O942 1.970 . S
Li883 O943 1.956 . S
C884 C886 1.348 . S
C884 C887 1.356 . S
C884 O940 1.325 . S
N885 C888 1.314 . S
N885 C889 1.279 . S
C886 C884 1.348 . S
C886 C888 1.353 . S
C886 H944 0.929 . S
C887 C884 1.356 . S
C887 C889 1.358 . S
C887 H945 0.930 . S
C888 N885 1.314 . S
C888 C886 1.353 . S
C888 H946 0.930 . S
C889 N885 1.279 . S
C889 C887 1.358 . S
C889 H947 0.930 . S
C890 C893 1.348 . S
C890 C894 1.356 . S
C890 O941 1.325 . S
C891 N892 1.279 . S
C891 C894 1.358 . S
C891 H948 0.930 . S
N892 C891 1.279 . S
N892 C895 1.314 . S
C893 C890 1.348 . S
C893 C895 1.353 . S
C893 H949 0.929 . S
C894 C890 1.356 . S
C894 C891 1.358 . S
C894 H950 0.930 . S
C895 N892 1.314 . S
C895 C893 1.353 . S
C895 H951 0.930 . S
C896 N897 1.314 . S
C896 C901 1.353 . S
C896 H902 0.930 . S
N897 Li880 1.990 . S
N897 C896 1.314 . S
N897 C899 1.279 . S
C898 C899 1.358 . S
C898 C900 1.356 . S
C898 H952 0.930 . S
C899 N897 1.279 . S
C899 C898 1.358 . S
C899 H903 0.930 . S
C900 C898 1.356 . S
C900 C901 1.348 . S
C901 C896 1.353 . S
C901 C900 1.348 . S
C901 H953 0.929 . S
H902 C896 0.930 . S
H903 C899 0.930 . S
C904 N905 1.314 . S
C904 C906 1.353 . S
C904 H910 0.930 . S
N905 Li881 1.990 . S
N905 C904 1.314 . S
N905 C908 1.279 . S
C906 C904 1.353 . S
C906 C909 1.348 . S
C906 H954 0.929 . S
C907 C908 1.358 . S
C907 C909 1.356 . S
C907 H955 0.930 . S
C908 N905 1.279 . S
C908 C907 1.358 . S
C908 H911 0.930 . S
C909 C906 1.348 . S
C909 C907 1.356 . S
H910 C904 0.930 . S
H911 C908 0.930 . S
C912 C914 1.348 . S
C912 C915 1.356 . S
C912 O942 1.325 . S
N913 C916 1.314 . S
N913 C917 1.279 . S
C914 C912 1.348 . S
C914 C916 1.353 . S
C914 H956 0.929 . S
C915 C912 1.356 . S
C915 C917 1.358 . S
C915 H957 0.930 . S
C916 N913 1.314 . S
C916 C914 1.353 . S
C916 H958 0.930 . S
C917 N913 1.279 . S
C917 C915 1.358 . S
C917 H959 0.930 . S
C918 C919 1.348 . S
C918 C920 1.356 . S
C918 O943 1.325 . S
C919 C918 1.348 . S
C919 C921 1.353 . S
C919 H960 0.929 . S
C920 C918 1.356 . S
C920 C922 1.358 . S
C920 H961 0.930 . S
C921 C919 1.353 . S
C921 N923 1.314 . S
C921 H962 0.930 . S
C922 C920 1.358 . S
C922 N923 1.279 . S
C922 H963 0.930 . S
N923 C921 1.314 . S
N923 C922 1.279 . S
C924 C926 1.353 . S
C924 N927 1.314 . S
C924 H930 0.930 . S
C925 N927 1.279 . S
C925 C928 1.358 . S
C925 H931 0.930 . S
C926 C924 1.353 . S
C926 C929 1.348 . S
C926 H964 0.929 . S
N927 Li882 1.990 . S
N927 C924 1.314 . S
N927 C925 1.279 . S
C928 C925 1.358 . S
C928 C929 1.356 . S
C928 H965 0.930 . S
C929 C926 1.348 . S
C929 C928 1.356 . S
H930 C924 0.930 . S
H931 C925 0.930 . S
C932 N933 1.314 . S
C932 C934 1.353 . S
C932 H938 0.930 . S
N933 Li883 1.990 . S
N933 C932 1.314 . S
N933 C936 1.279 . S
C934 C932 1.353 . S
C934 C937 1.348 . S
C934 H966 0.929 . S
C935 C936 1.358 . S
C935 C937 1.356 . S
C935 H967 0.930 . S
C936 N933 1.279 . S
C936 C935 1.358 . S
C936 H939 0.930 . S
C937 C934 1.348 . S
C937 C935 1.356 . S
H938 C932 0.930 . S
H939 C936 0.930 . S
O940 Li880 1.956 . S
O940 Li881 1.970 . S
O940 Li882 1.961 . S
O940 C884 1.325 . S
O941 Li880 1.970 . S
O941 Li881 1.956 . S
O941 Li883 1.961 . S
O941 C890 1.325 . S
O942 Li880 1.961 . S
O942 Li882 1.956 . S
O942 Li883 1.970 . S
O942 C912 1.325 . S
O943 Li881 1.961 . S
O943 Li882 1.970 . S
O943 Li883 1.956 . S
O943 C918 1.325 . S
H944 C886 0.929 . S
H945 C887 0.930 . S
H946 C888 0.930 . S
H947 C889 0.930 . S
H948 C891 0.930 . S
H949 C893 0.929 . S
H950 C894 0.930 . S
H951 C895 0.930 . S
H952 C898 0.930 . S
H953 C901 0.929 . S
H954 C906 0.929 . S
H955 C907 0.930 . S
H956 C914 0.929 . S
H957 C915 0.930 . S
H958 C916 0.930 . S
H959 C917 0.930 . S
H960 C919 0.929 . S
H961 C920 0.930 . S
H962 C921 0.930 . S
H963 C922 0.930 . S
H964 C926 0.929 . S
H965 C928 0.930 . S
H966 C934 0.929 . S
H967 C935 0.930 . S
Li968 N985 1.990 . S
Li968 O1028 1.956 . S
Li968 O1029 1.970 . S
Li968 O1030 1.961 . S
Li969 N993 1.990 . S
Li969 O1028 1.970 . S
Li969 O1029 1.956 . S
Li969 O1031 1.961 . S
Li970 N1015 1.990 . S
Li970 O1028 1.961 . S
Li970 O1030 1.956 . S
Li970 O1031 1.970 . S
Li971 N1021 1.990 . S
Li971 O1029 1.961 . S
Li971 O1030 1.970 . S
Li971 O1031 1.956 . S
C972 C974 1.348 . S
C972 C975 1.356 . S
C972 O1028 1.325 . S
N973 C976 1.314 . S
N973 C977 1.279 . S
C974 C972 1.348 . S
C974 C976 1.353 . S
C974 H1032 0.929 . S
C975 C972 1.356 . S
C975 C977 1.358 . S
C975 H1033 0.930 . S
C976 N973 1.314 . S
C976 C974 1.353 . S
C976 H1034 0.930 . S
C977 N973 1.279 . S
C977 C975 1.358 . S
C977 H1035 0.930 . S
C978 C981 1.348 . S
C978 C982 1.356 . S
C978 O1029 1.325 . S
C979 N980 1.279 . S
C979 C982 1.358 . S
C979 H1036 0.930 . S
N980 C979 1.279 . S
N980 C983 1.314 . S
C981 C978 1.348 . S
C981 C983 1.353 . S
C981 H1037 0.929 . S
C982 C978 1.356 . S
C982 C979 1.358 . S
C982 H1038 0.930 . S
C983 N980 1.314 . S
C983 C981 1.353 . S
C983 H1039 0.930 . S
C984 N985 1.314 . S
C984 C989 1.353 . S
C984 H990 0.930 . S
N985 Li968 1.990 . S
N985 C984 1.314 . S
N985 C987 1.279 . S
C986 C987 1.358 . S
C986 C988 1.356 . S
C986 H1040 0.930 . S
C987 N985 1.279 . S
C987 C986 1.358 . S
C987 H991 0.930 . S
C988 C986 1.356 . S
C988 C989 1.348 . S
C989 C984 1.353 . S
C989 C988 1.348 . S
C989 H1041 0.929 . S
H990 C984 0.930 . S
H991 C987 0.930 . S
C992 N993 1.314 . S
C992 C994 1.353 . S
C992 H998 0.930 . S
N993 Li969 1.990 . S
N993 C992 1.314 . S
N993 C996 1.279 . S
C994 C992 1.353 . S
C994 C997 1.348 . S
C994 H1042 0.929 . S
C995 C996 1.358 . S
C995 C997 1.356 . S
C995 H1043 0.930 . S
C996 N993 1.279 . S
C996 C995 1.358 . S
C996 H999 0.930 . S
C997 C994 1.348 . S
C997 C995 1.356 . S
H998 C992 0.930 . S
H999 C996 0.930 . S
C1000 C1002 1.348 . S
C1000 C1003 1.356 . S
C1000 O1030 1.325 . S
N1001 C1004 1.314 . S
N1001 C1005 1.279 . S
C1002 C1000 1.348 . S
C1002 C1004 1.353 . S
C1002 H1044 0.929 . S
C1003 C1000 1.356 . S
C1003 C1005 1.358 . S
C1003 H1045 0.930 . S
C1004 N1001 1.314 . S
C1004 C1002 1.353 . S
C1004 H1046 0.930 . S
C1005 N1001 1.279 . S
C1005 C1003 1.358 . S
C1005 H1047 0.930 . S
C1006 C1007 1.348 . S
C1006 C1008 1.356 . S
C1006 O1031 1.325 . S
C1007 C1006 1.348 . S
C1007 C1009 1.353 . S
C1007 H1048 0.929 . S
C1008 C1006 1.356 . S
C1008 C1010 1.358 . S
C1008 H1049 0.930 . S
C1009 C1007 1.353 . S
C1009 N1011 1.314 . S
C1009 H1050 0.930 . S
C1010 C1008 1.358 . S
C1010 N1011 1.279 . S
C1010 H1051 0.930 . S
N1011 C1009 1.314 . S
N1011 C1010 1.279 . S
C1012 C1014 1.353 . S
C1012 N1015 1.314 . S
C1012 H1018 0.930 . S
C1013 N1015 1.279 . S
C1013 C1016 1.358 . S
C1013 H1019 0.930 . S
C1014 C1012 1.353 . S
C1014 C1017 1.348 . S
C1014 H1052 0.929 . S
N1015 Li970 1.990 . S
N1015 C1012 1.314 . S
N1015 C1013 1.279 . S
C1016 C1013 1.358 . S
C1016 C1017 1.356 . S
C1016 H1053 0.930 . S
C1017 C1014 1.348 . S
C1017 C1016 1.356 . S
H1018 C1012 0.930 . S
H1019 C1013 0.930 . S
C1020 N1021 1.314 . S
C1020 C1022 1.353 . S
C1020 H1026 0.930 . S
N1021 Li971 1.990 . S
N1021 C1020 1.314 . S
N1021 C1024 1.279 . S
C1022 C1020 1.353 . S
C1022 C1025 1.348 . S
C1022 H1054 0.929 . S
C1023 C1024 1.358 . S
C1023 C1025 1.356 . S
C1023 H1055 0.930 . S
C1024 N1021 1.279 . S
C1024 C1023 1.358 . S
C1024 H1027 0.930 . S
C1025 C1022 1.348 . S
C1025 C1023 1.356 . S
H1026 C1020 0.930 . S
H1027 C1024 0.930 . S
O1028 Li968 1.956 . S
O1028 Li969 1.970 . S
O1028 Li970 1.961 . S
O1028 C972 1.325 . S
O1029 Li968 1.970 . S
O1029 Li969 1.956 . S
O1029 Li971 1.961 . S
O1029 C978 1.325 . S
O1030 Li968 1.961 . S
O1030 Li970 1.956 . S
O1030 Li971 1.970 . S
O1030 C1000 1.325 . S
O1031 Li969 1.961 . S
O1031 Li970 1.970 . S
O1031 Li971 1.956 . S
O1031 C1006 1.325 . S
H1032 C974 0.929 . S
H1033 C975 0.930 . S
H1034 C976 0.930 . S
H1035 C977 0.930 . S
H1036 C979 0.930 . S
H1037 C981 0.929 . S
H1038 C982 0.930 . S
H1039 C983 0.930 . S
H1040 C986 0.930 . S
H1041 C989 0.929 . S
H1042 C994 0.929 . S
H1043 C995 0.930 . S
H1044 C1002 0.929 . S
H1045 C1003 0.930 . S
H1046 C1004 0.930 . S
H1047 C1005 0.930 . S
H1048 C1007 0.929 . S
H1049 C1008 0.930 . S
H1050 C1009 0.930 . S
H1051 C1010 0.930 . S
H1052 C1014 0.929 . S
H1053 C1016 0.930 . S
H1054 C1022 0.929 . S
H1055 C1023 0.930 . S
C1056 C1057 1.349 . S
C1056 C1058 1.327 . S
C1056 H1081 0.950 . S
C1057 C1056 1.349 . S
C1057 C1073 1.349 . S
C1058 C1056 1.327 . S
C1058 C1077 1.429 . S
C1058 H1082 0.950 . S
C1059 C1076 1.574 1_554 S
C1059 C1078 1.368 . S
C1059 H1083 0.949 . S
H1060 C1064 0.949 . S
C1061 C1062 1.349 . S
C1061 C1063 1.327 . S
C1061 H1084 0.950 . S
C1062 C1061 1.349 . S
C1062 C1074 1.349 . S
C1063 C1061 1.327 . S
C1063 C1079 1.429 . S
C1063 H1085 0.950 . S
C1064 H1060 0.949 . S
C1064 C1072 1.574 1_556 S
C1064 C1080 1.368 . S
H1065 C1073 0.950 . S
H1066 C1071 0.950 . S
H1067 C1072 0.949 . S
H1068 C1074 0.950 . S
H1069 C1075 0.950 . S
H1070 C1076 0.949 . S
C1071 H1066 0.950 . S
C1071 C1073 1.327 . S
C1071 C1077 1.429 . S
C1072 C1064 1.574 1_554 S
C1072 H1067 0.949 . S
C1072 C1078 1.368 1_655 S
C1073 C1057 1.349 . S
C1073 H1065 0.950 . S
C1073 C1071 1.327 . S
C1074 C1062 1.349 . S
C1074 H1068 0.950 . S
C1074 C1075 1.327 . S
C1075 H1069 0.950 . S
C1075 C1074 1.327 . S
C1075 C1079 1.429 . S
C1076 C1059 1.574 1_556 S
C1076 H1070 0.949 . S
C1076 C1080 1.368 1_455 S
C1077 C1058 1.429 . S
C1077 C1071 1.429 . S
C1077 C1078 1.523 . S
C1078 C1059 1.368 . S
C1078 C1072 1.368 1_455 S
C1078 C1077 1.523 . S
C1079 C1063 1.429 . S
C1079 C1075 1.429 . S
C1079 C1080 1.523 . S
C1080 C1064 1.368 . S
C1080 C1076 1.368 1_655 S
C1080 C1079 1.523 . S
H1081 C1056 0.950 . S
H1082 C1058 0.950 . S
H1083 C1059 0.949 . S
H1084 C1061 0.950 . S
H1085 C1063 0.950 . S
C1086 C1087 1.349 . S
C1086 C1088 1.327 . S
C1086 H1111 0.950 . S
C1087 C1086 1.349 . S
C1087 C1103 1.349 . S
C1088 C1086 1.327 . S
C1088 C1107 1.429 . S
C1088 H1112 0.950 . S
C1089 C1106 1.574 . S
C1089 C1108 1.368 . S
C1089 H1113 0.949 . S
H1090 C1094 0.949 . S
C1091 C1092 1.349 . S
C1091 C1093 1.327 . S
C1091 H1114 0.950 . S
C1092 C1091 1.349 . S
C1092 C1104 1.349 . S
C1093 C1091 1.327 . S
C1093 C1109 1.429 . S
C1093 H1115 0.950 . S
C1094 H1090 0.949 . S
C1094 C1102 1.574 . S
C1094 C1110 1.368 . S
H1095 C1103 0.950 . S
H1096 C1101 0.950 . S
H1097 C1102 0.949 . S
H1098 C1104 0.950 . S
H1099 C1105 0.950 . S
H1100 C1106 0.949 . S
C1101 H1096 0.950 . S
C1101 C1103 1.327 . S
C1101 C1107 1.429 . S
C1102 C1094 1.574 . S
C1102 H1097 0.949 . S
C1102 C1108 1.368 1_545 S
C1103 C1087 1.349 . S
C1103 H1095 0.950 . S
C1103 C1101 1.327 . S
C1104 C1092 1.349 . S
C1104 H1098 0.950 . S
C1104 C1105 1.327 . S
C1105 H1099 0.950 . S
C1105 C1104 1.327 . S
C1105 C1109 1.429 . S
C1106 C1089 1.574 . S
C1106 H1100 0.949 . S
C1106 C1110 1.368 1_565 S
C1107 C1088 1.429 . S
C1107 C1101 1.429 . S
C1107 C1108 1.523 . S
C1108 C1089 1.368 . S
C1108 C1102 1.368 1_565 S
C1108 C1107 1.523 . S
C1109 C1093 1.429 . S
C1109 C1105 1.429 . S
C1109 C1110 1.523 . S
C1110 C1094 1.368 . S
C1110 C1106 1.368 1_545 S
C1110 C1109 1.523 . S
H1111 C1086 0.950 . S
H1112 C1088 0.950 . S
H1113 C1089 0.949 . S
H1114 C1091 0.950 . S
H1115 C1093 0.950 . S
C1116 C1117 1.349 . S
C1116 C1118 1.327 . S
C1116 H1141 0.950 . S
C1117 C1116 1.349 . S
C1117 C1133 1.349 . S
C1118 C1116 1.327 . S
C1118 C1137 1.429 . S
C1118 H1142 0.950 . S
C1119 C1136 1.574 1_554 S
C1119 C1138 1.368 . S
C1119 H1143 0.949 . S
H1120 C1124 0.949 . S
C1121 C1122 1.349 . S
C1121 C1123 1.327 . S
C1121 H1144 0.950 . S
C1122 C1121 1.349 . S
C1122 C1134 1.349 . S
C1123 C1121 1.327 . S
C1123 C1139 1.429 . S
C1123 H1145 0.950 . S
C1124 H1120 0.949 . S
C1124 C1132 1.574 1_556 S
C1124 C1140 1.368 . S
H1125 C1133 0.950 . S
H1126 C1131 0.950 . S
H1127 C1132 0.949 . S
H1128 C1134 0.950 . S
H1129 C1135 0.950 . S
H1130 C1136 0.949 . S
C1131 H1126 0.950 . S
C1131 C1133 1.327 . S
C1131 C1137 1.429 . S
C1132 C1124 1.574 1_554 S
C1132 H1127 0.949 . S
C1132 C1138 1.368 . S
C1133 C1117 1.349 . S
C1133 H1125 0.950 . S
C1133 C1131 1.327 . S
C1134 C1122 1.349 . S
C1134 H1128 0.950 . S
C1134 C1135 1.327 . S
C1135 H1129 0.950 . S
C1135 C1134 1.327 . S
C1135 C1139 1.429 . S
C1136 C1119 1.574 1_556 S
C1136 H1130 0.949 . S
C1136 C1140 1.368 . S
C1137 C1118 1.429 . S
C1137 C1131 1.429 . S
C1137 C1138 1.523 . S
C1138 C1119 1.368 . S
C1138 C1132 1.368 . S
C1138 C1137 1.523 . S
C1139 C1123 1.429 . S
C1139 C1135 1.429 . S
C1139 C1140 1.523 . S
C1140 C1124 1.368 . S
C1140 C1136 1.368 . S
C1140 C1139 1.523 . S
H1141 C1116 0.950 . S
H1142 C1118 0.950 . S
H1143 C1119 0.949 . S
H1144 C1121 0.950 . S
H1145 C1123 0.950 . S
C1146 C1147 1.349 . S
C1146 C1148 1.327 . S
C1146 H1171 0.950 . S
C1147 C1146 1.349 . S
C1147 C1163 1.349 . S
C1148 C1146 1.327 . S
C1148 C1167 1.429 . S
C1148 H1172 0.950 . S
C1149 C1166 1.574 1_455 S
C1149 C1168 1.368 . S
C1149 H1173 0.949 . S
H1150 C1154 0.949 . S
C1151 C1152 1.349 . S
C1151 C1153 1.327 . S
C1151 H1174 0.950 . S
C1152 C1151 1.349 . S
C1152 C1164 1.349 . S
C1153 C1151 1.327 . S
C1153 C1169 1.429 . S
C1153 H1175 0.950 . S
C1154 H1150 0.949 . S
C1154 C1162 1.574 1_655 S
C1154 C1170 1.368 . S
H1155 C1163 0.950 . S
H1156 C1161 0.950 . S
H1157 C1162 0.949 . S
H1158 C1164 0.950 . S
H1159 C1165 0.950 . S
H1160 C1166 0.949 . S
C1161 H1156 0.950 . S
C1161 C1163 1.327 . S
C1161 C1167 1.429 . S
C1162 C1154 1.574 1_455 S
C1162 H1157 0.949 . S
C1162 C1168 1.368 . S
C1163 C1147 1.349 . S
C1163 H1155 0.950 . S
C1163 C1161 1.327 . S
C1164 C1152 1.349 . S
C1164 H1158 0.950 . S
C1164 C1165 1.327 . S
C1165 H1159 0.950 . S
C1165 C1164 1.327 . S
C1165 C1169 1.429 . S
C1166 C1149 1.574 1_655 S
C1166 H1160 0.949 . S
C1166 C1170 1.368 . S
C1167 C1148 1.429 . S
C1167 C1161 1.429 . S
C1167 C1168 1.523 . S
C1168 C1149 1.368 . S
C1168 C1162 1.368 . S
C1168 C1167 1.523 . S
C1169 C1153 1.429 . S
C1169 C1165 1.429 . S
C1169 C1170 1.523 . S
C1170 C1154 1.368 . S
C1170 C1166 1.368 . S
C1170 C1169 1.523 . S
H1171 C1146 0.950 . S
H1172 C1148 0.950 . S
H1173 C1149 0.949 . S
H1174 C1151 0.950 . S
H1175 C1153 0.950 . S
C1176 C1177 1.349 . S
C1176 C1178 1.327 . S
C1176 H1201 0.950 . S
C1177 C1176 1.349 . S
C1177 C1193 1.349 . S
C1178 C1176 1.327 . S
C1178 C1197 1.429 . S
C1178 H1202 0.936 1_545 S
C1179 C1196 1.574 1_556 S
C1179 C1198 1.368 . S
C1179 H1203 0.949 . S
H1180 C1184 0.949 . S
C1181 C1182 1.349 . S
C1181 C1183 1.327 . S
C1181 H1204 0.950 . S
C1182 C1181 1.349 . S
C1182 C1194 1.349 . S
C1183 C1181 1.327 . S
C1183 C1199 1.429 . S
C1183 H1205 0.936 1_565 S
C1184 H1180 0.949 . S
C1184 C1192 1.574 1_554 S
C1184 C1200 1.368 . S
H1185 C1193 0.950 . S
H1186 C1191 0.950 . S
H1187 C1192 0.949 . S
H1188 C1194 0.950 . S
H1189 C1195 0.950 . S
H1190 C1196 0.949 . S
C1191 H1186 0.950 . S
C1191 C1193 1.327 . S
C1191 C1197 1.429 . S
C1192 C1184 1.574 1_556 S
C1192 H1187 0.949 . S
C1192 C1198 1.368 1_565 S
C1193 C1177 1.349 . S
C1193 H1185 0.950 . S
C1193 C1191 1.327 . S
C1194 C1182 1.349 . S
C1194 H1188 0.950 . S
C1194 C1195 1.327 . S
C1195 H1189 0.950 . S
C1195 C1194 1.327 . S
C1195 C1199 1.429 . S
C1196 C1179 1.574 1_554 S
C1196 H1190 0.949 . S
C1196 C1200 1.368 1_545 S
C1197 C1178 1.429 . S
C1197 C1191 1.429 . S
C1197 C1198 1.523 . S
C1198 C1179 1.368 . S
C1198 C1192 1.368 1_545 S
C1198 C1197 1.523 . S
C1199 C1183 1.429 . S
C1199 C1195 1.429 . S
C1199 C1200 1.523 . S
C1200 C1184 1.368 . S
C1200 C1196 1.368 1_565 S
C1200 C1199 1.523 . S
H1201 C1176 0.950 . S
H1202 C1178 0.936 1_565 S
H1203 C1179 0.949 . S
H1204 C1181 0.950 . S
H1205 C1183 0.936 1_545 S
C1206 C1207 1.349 . S
C1206 C1208 1.327 . S
C1206 H1231 0.950 . S
C1207 C1206 1.349 . S
C1207 C1223 1.349 . S
C1208 C1206 1.327 . S
C1208 C1227 1.429 . S
C1208 H1232 0.950 . S
C1209 C1226 1.574 . S
C1209 C1228 1.368 . S
C1209 H1233 0.949 . S
H1210 C1214 0.949 . S
C1211 C1212 1.349 . S
C1211 C1213 1.327 . S
C1211 H1234 0.950 . S
C1212 C1211 1.349 . S
C1212 C1224 1.349 . S
C1213 C1211 1.327 . S
C1213 C1229 1.429 . S
C1213 H1235 0.950 . S
C1214 H1210 0.949 . S
C1214 C1222 1.574 . S
C1214 C1230 1.368 . S
H1215 C1223 0.950 . S
H1216 C1221 0.950 . S
H1217 C1222 0.949 . S
H1218 C1224 0.950 . S
H1219 C1225 0.950 . S
H1220 C1226 0.949 . S
C1221 H1216 0.950 . S
C1221 C1223 1.327 . S
C1221 C1227 1.429 . S
C1222 C1214 1.574 . S
C1222 H1217 0.949 . S
C1222 C1228 1.368 . S
C1223 C1207 1.349 . S
C1223 H1215 0.950 . S
C1223 C1221 1.327 . S
C1224 C1212 1.349 . S
C1224 H1218 0.950 . S
C1224 C1225 1.327 . S
C1225 H1219 0.950 . S
C1225 C1224 1.327 . S
C1225 C1229 1.429 . S
C1226 C1209 1.574 . S
C1226 H1220 0.949 . S
C1226 C1230 1.368 . S
C1227 C1208 1.429 . S
C1227 C1221 1.429 . S
C1227 C1228 1.523 . S
C1228 C1209 1.368 . S
C1228 C1222 1.368 . S
C1228 C1227 1.523 . S
C1229 C1213 1.429 . S
C1229 C1225 1.429 . S
C1229 C1230 1.523 . S
C1230 C1214 1.368 . S
C1230 C1226 1.368 . S
C1230 C1229 1.523 . S
H1231 C1206 0.950 . S
H1232 C1208 0.950 . S
H1233 C1209 0.949 . S
H1234 C1211 0.950 . S
H1235 C1213 0.950 . S
C1236 C1237 1.349 . S
C1236 C1238 1.327 . S
C1236 H1261 0.950 . S
C1237 C1236 1.349 . S
C1237 C1253 1.349 . S
C1238 C1236 1.327 . S
C1238 C1257 1.429 . S
C1238 H1262 0.950 . S
C1239 C1256 1.574 1_656 S
C1239 C1258 1.368 . S
C1239 H1263 0.949 . S
H1240 C1244 0.949 . S
C1241 C1242 1.349 . S
C1241 C1243 1.327 . S
C1241 H1264 0.950 . S
C1242 C1241 1.349 . S
C1242 C1254 1.349 . S
C1243 C1241 1.327 . S
C1243 C1259 1.429 . S
C1243 H1265 0.950 . S
C1244 H1240 0.949 . S
C1244 C1252 1.574 1_454 S
C1244 C1260 1.368 . S
H1245 C1253 0.950 . S
H1246 C1251 0.950 . S
H1247 C1252 0.949 . S
H1248 C1254 0.950 . S
H1249 C1255 0.950 . S
H1250 C1256 0.949 . S
C1251 H1246 0.950 . S
C1251 C1253 1.327 . S
C1251 C1257 1.429 . S
C1252 C1244 1.574 1_656 S
C1252 H1247 0.949 . S
C1252 C1258 1.368 . S
C1253 C1237 1.349 . S
C1253 H1245 0.950 . S
C1253 C1251 1.327 . S
C1254 C1242 1.349 . S
C1254 H1248 0.950 . S
C1254 C1255 1.327 . S
C1255 H1249 0.950 . S
C1255 C1254 1.327 . S
C1255 C1259 1.429 . S
C1256 C1239 1.574 1_454 S
C1256 H1250 0.949 . S
C1256 C1260 1.368 . S
C1257 C1238 1.429 . S
C1257 C1251 1.429 . S
C1257 C1258 1.523 . S
C1258 C1239 1.368 . S
C1258 C1252 1.368 . S
C1258 C1257 1.523 . S
C1259 C1243 1.429 . S
C1259 C1255 1.429 . S
C1259 C1260 1.523 . S
C1260 C1244 1.368 . S
C1260 C1256 1.368 . S
C1260 C1259 1.523 . S
H1261 C1236 0.950 . S
H1262 C1238 0.950 . S
H1263 C1239 0.949 . S
H1264 C1241 0.950 . S
H1265 C1243 0.950 . S
C1266 C1267 1.349 . S
C1266 C1268 1.327 . S
C1266 H1291 0.950 . S
C1267 C1266 1.349 . S
C1267 C1283 1.349 . S
C1268 C1266 1.327 . S
C1268 C1287 1.429 . S
C1268 H1292 0.950 . S
C1269 C1286 1.574 . S
C1269 C1288 1.368 . S
C1269 H1293 0.949 . S
H1270 C1274 0.949 . S
C1271 C1272 1.349 . S
C1271 C1273 1.327 . S
C1271 H1294 0.950 . S
C1272 C1271 1.349 . S
C1272 C1284 1.349 . S
C1273 C1271 1.327 . S
C1273 C1289 1.429 . S
C1273 H1295 0.950 . S
C1274 H1270 0.949 . S
C1274 C1282 1.574 . S
C1274 C1290 1.368 . S
H1275 C1283 0.950 . S
H1276 C1281 0.950 . S
H1277 C1282 0.949 . S
H1278 C1284 0.950 . S
H1279 C1285 0.950 . S
H1280 C1286 0.949 . S
C1281 H1276 0.950 . S
C1281 C1283 1.327 . S
C1281 C1287 1.429 . S
C1282 C1274 1.574 . S
C1282 H1277 0.949 . S
C1282 C1288 1.368 1_545 S
C1283 C1267 1.349 . S
C1283 H1275 0.950 . S
C1283 C1281 1.327 . S
C1284 C1272 1.349 . S
C1284 H1278 0.950 . S
C1284 C1285 1.327 . S
C1285 H1279 0.950 . S
C1285 C1284 1.327 . S
C1285 C1289 1.429 . S
C1286 C1269 1.574 . S
C1286 H1280 0.949 . S
C1286 C1290 1.368 1_565 S
C1287 C1268 1.429 . S
C1287 C1281 1.429 . S
C1287 C1288 1.523 . S
C1288 C1269 1.368 . S
C1288 C1282 1.368 1_565 S
C1288 C1287 1.523 . S
C1289 C1273 1.429 . S
C1289 C1285 1.429 . S
C1289 C1290 1.523 . S
C1290 C1274 1.368 . S
C1290 C1286 1.368 1_545 S
C1290 C1289 1.523 . S
H1291 C1266 0.950 . S
H1292 C1268 0.950 . S
H1293 C1269 0.949 . S
H1294 C1271 0.950 . S
H1295 C1273 0.950 . S
C1296 C1297 1.349 . S
C1296 C1298 1.327 . S
C1296 H1321 0.950 . S
C1297 C1296 1.349 . S
C1297 C1313 1.349 . S
C1298 C1296 1.327 . S
C1298 C1317 1.429 . S
C1298 H1322 0.950 . S
C1299 C1316 1.574 1_556 S
C1299 C1318 1.368 . S
C1299 H1323 0.949 . S
H1300 C1304 0.949 . S
C1301 C1302 1.349 . S
C1301 C1303 1.327 . S
C1301 H1324 0.950 . S
C1302 C1301 1.349 . S
C1302 C1314 1.349 . S
C1303 C1301 1.327 . S
C1303 C1319 1.429 . S
C1303 H1325 0.950 . S
C1304 H1300 0.949 . S
C1304 C1312 1.574 1_554 S
C1304 C1320 1.368 . S
H1305 C1313 0.950 . S
H1306 C1311 0.950 . S
H1307 C1312 0.949 . S
H1308 C1314 0.950 . S
H1309 C1315 0.950 . S
H1310 C1316 0.949 . S
C1311 H1306 0.950 . S
C1311 C1313 1.327 . S
C1311 C1317 1.429 . S
C1312 C1304 1.574 1_556 S
C1312 H1307 0.949 . S
C1312 C1318 1.368 . S
C1313 C1297 1.349 . S
C1313 H1305 0.950 . S
C1313 C1311 1.327 . S
C1314 C1302 1.349 . S
C1314 H1308 0.950 . S
C1314 C1315 1.327 . S
C1315 H1309 0.950 . S
C1315 C1314 1.327 . S
C1315 C1319 1.429 . S
C1316 C1299 1.574 1_554 S
C1316 H1310 0.949 . S
C1316 C1320 1.368 . S
C1317 C1298 1.429 . S
C1317 C1311 1.429 . S
C1317 C1318 1.523 . S
C1318 C1299 1.368 . S
C1318 C1312 1.368 . S
C1318 C1317 1.523 . S
C1319 C1303 1.429 . S
C1319 C1315 1.429 . S
C1319 C1320 1.523 . S
C1320 C1304 1.368 . S
C1320 C1316 1.368 . S
C1320 C1319 1.523 . S
H1321 C1296 0.950 . S
H1322 C1298 0.950 . S
H1323 C1299 0.949 . S
H1324 C1301 0.950 . S
H1325 C1303 0.950 . S
C1326 C1327 1.349 . S
C1326 C1328 1.327 . S
C1326 H1351 0.950 . S
C1327 C1326 1.349 . S
C1327 C1343 1.349 . S
C1328 C1326 1.327 . S
C1328 C1347 1.429 . S
C1328 H1352 0.956 1_655 S
C1329 C1346 1.574 . S
C1329 C1348 1.368 . S
C1329 H1353 0.949 . S
H1330 C1334 0.949 . S
C1331 C1332 1.349 . S
C1331 C1333 1.327 . S
C1331 H1354 0.950 . S
C1332 C1331 1.349 . S
C1332 C1344 1.349 . S
C1333 C1331 1.327 . S
C1333 C1349 1.429 . S
C1333 H1355 0.956 1_455 S
C1334 H1330 0.949 . S
C1334 C1342 1.574 . S
C1334 C1350 1.368 . S
H1335 C1343 0.950 . S
H1336 C1341 0.950 . S
H1337 C1342 0.949 . S
H1338 C1344 0.950 . S
H1339 C1345 0.950 . S
H1340 C1346 0.949 . S
C1341 H1336 0.950 . S
C1341 C1343 1.327 . S
C1341 C1347 1.429 . S
C1342 C1334 1.574 . S
C1342 H1337 0.949 . S
C1342 C1348 1.368 1_455 S
C1343 C1327 1.349 . S
C1343 H1335 0.950 . S
C1343 C1341 1.327 . S
C1344 C1332 1.349 . S
C1344 H1338 0.950 . S
C1344 C1345 1.327 . S
C1345 H1339 0.950 . S
C1345 C1344 1.327 . S
C1345 C1349 1.429 . S
C1346 C1329 1.574 . S
C1346 H1340 0.949 . S
C1346 C1350 1.368 1_655 S
C1347 C1328 1.429 . S
C1347 C1341 1.429 . S
C1347 C1348 1.523 . S
C1348 C1329 1.368 . S
C1348 C1342 1.368 1_655 S
C1348 C1347 1.523 . S
C1349 C1333 1.429 . S
C1349 C1345 1.429 . S
C1349 C1350 1.523 . S
C1350 C1334 1.368 . S
C1350 C1346 1.368 1_455 S
C1350 C1349 1.523 . S
H1351 C1326 0.950 . S
H1352 C1328 0.956 1_455 S
H1353 C1329 0.949 . S
H1354 C1331 0.950 . S
H1355 C1333 0.956 1_655 S
C1356 C1357 1.349 . S
C1356 C1358 1.327 . S
C1356 H1381 0.950 . S
C1357 C1356 1.349 . S
C1357 C1373 1.349 . S
C1358 C1356 1.327 . S
C1358 C1377 1.429 . S
C1358 H1382 0.950 . S
C1359 C1376 1.574 1_556 S
C1359 C1378 1.368 1_565 S
C1359 H1383 0.949 . S
H1360 C1364 0.949 . S
C1361 C1362 1.349 . S
C1361 C1363 1.327 . S
C1361 H1384 0.950 . S
C1362 C1361 1.349 . S
C1362 C1374 1.349 . S
C1363 C1361 1.327 . S
C1363 C1379 1.429 . S
C1363 H1385 0.950 . S
C1364 H1360 0.949 . S
C1364 C1372 1.574 1_554 S
C1364 C1380 1.368 1_545 S
H1365 C1373 0.950 . S
H1366 C1371 0.950 . S
H1367 C1372 0.949 . S
H1368 C1374 0.950 . S
H1369 C1375 0.950 . S
H1370 C1376 0.949 . S
C1371 H1366 0.950 . S
C1371 C1373 1.327 . S
C1371 C1377 1.429 . S
C1372 C1364 1.574 1_556 S
C1372 H1367 0.949 . S
C1372 C1378 1.368 . S
C1373 C1357 1.349 . S
C1373 H1365 0.950 . S
C1373 C1371 1.327 . S
C1374 C1362 1.349 . S
C1374 H1368 0.950 . S
C1374 C1375 1.327 . S
C1375 H1369 0.950 . S
C1375 C1374 1.327 . S
C1375 C1379 1.429 . S
C1376 C1359 1.574 1_554 S
C1376 H1370 0.949 . S
C1376 C1380 1.368 . S
C1377 C1358 1.429 . S
C1377 C1371 1.429 . S
C1377 C1378 1.523 . S
C1378 C1359 1.368 1_545 S
C1378 C1372 1.368 . S
C1378 C1377 1.523 . S
C1379 C1363 1.429 . S
C1379 C1375 1.429 . S
C1379 C1380 1.523 . S
C1380 C1364 1.368 1_565 S
C1380 C1376 1.368 . S
C1380 C1379 1.523 . S
H1381 C1356 0.950 . S
H1382 C1358 0.950 . S
H1383 C1359 0.949 . S
H1384 C1361 0.950 . S
H1385 C1363 0.950 . S
C1386 C1387 1.349 . S
C1386 C1388 1.327 . S
C1386 H1411 0.950 . S
C1387 C1386 1.349 . S
C1387 C1403 1.349 . S
C1388 C1386 1.327 . S
C1388 C1407 1.429 . S
C1388 H1412 0.950 . S
C1389 C1406 1.574 . S
C1389 C1408 1.368 . S
C1389 H1413 0.949 . S
H1390 C1394 0.949 . S
C1391 C1392 1.349 . S
C1391 C1393 1.327 . S
C1391 H1414 0.950 . S
C1392 C1391 1.349 . S
C1392 C1404 1.349 . S
C1393 C1391 1.327 . S
C1393 C1409 1.429 . S
C1393 H1415 0.950 . S
C1394 H1390 0.949 . S
C1394 C1402 1.574 . S
C1394 C1410 1.368 . S
H1395 C1403 0.950 . S
H1396 C1401 0.950 . S
H1397 C1402 0.949 . S
H1398 C1404 0.950 . S
H1399 C1405 0.950 . S
H1400 C1406 0.949 . S
C1401 H1396 0.950 . S
C1401 C1403 1.327 . S
C1401 C1407 1.429 . S
C1402 C1394 1.574 . S
C1402 H1397 0.949 . S
C1402 C1408 1.368 . S
C1403 C1387 1.349 . S
C1403 H1395 0.950 . S
C1403 C1401 1.327 . S
C1404 C1392 1.349 . S
C1404 H1398 0.950 . S
C1404 C1405 1.327 . S
C1405 H1399 0.950 . S
C1405 C1404 1.327 . S
C1405 C1409 1.429 . S
C1406 C1389 1.574 . S
C1406 H1400 0.949 . S
C1406 C1410 1.368 . S
C1407 C1388 1.429 . S
C1407 C1401 1.429 . S
C1407 C1408 1.523 . S
C1408 C1389 1.368 . S
C1408 C1402 1.368 . S
C1408 C1407 1.523 . S
C1409 C1393 1.429 . S
C1409 C1405 1.429 . S
C1409 C1410 1.523 . S
C1410 C1394 1.368 . S
C1410 C1406 1.368 . S
C1410 C1409 1.523 . S
H1411 C1386 0.950 . S
H1412 C1388 0.950 . S
H1413 C1389 0.949 . S
H1414 C1391 0.950 . S
H1415 C1393 0.950 . S
C1416 C1417 1.349 . S
C1416 C1418 1.327 . S
C1416 H1441 0.950 . S
C1417 C1416 1.349 . S
C1417 C1433 1.349 . S
C1418 C1416 1.327 . S
C1418 C1437 1.429 . S
C1418 H1442 0.950 . S
C1419 C1436 1.574 . S
C1419 C1438 1.368 . S
C1419 H1443 0.949 . S
H1420 C1424 0.949 . S
C1421 C1422 1.349 . S
C1421 C1423 1.327 . S
C1421 H1444 0.950 . S
C1422 C1421 1.349 . S
C1422 C1434 1.349 . S
C1423 C1421 1.327 . S
C1423 C1439 1.429 . S
C1423 H1445 0.950 . S
C1424 H1420 0.949 . S
C1424 C1432 1.574 . S
C1424 C1440 1.368 . S
H1425 C1433 0.950 . S
H1426 C1431 0.950 . S
H1427 C1432 0.949 . S
H1428 C1434 0.950 . S
H1429 C1435 0.950 . S
H1430 C1436 0.949 . S
C1431 H1426 0.950 . S
C1431 C1433 1.327 . S
C1431 C1437 1.429 . S
C1432 C1424 1.574 . S
C1432 H1427 0.949 . S
C1432 C1438 1.368 . S
C1433 C1417 1.349 . S
C1433 H1425 0.950 . S
C1433 C1431 1.327 . S
C1434 C1422 1.349 . S
C1434 H1428 0.950 . S
C1434 C1435 1.327 . S
C1435 H1429 0.950 . S
C1435 C1434 1.327 . S
C1435 C1439 1.429 . S
C1436 C1419 1.574 . S
C1436 H1430 0.949 . S
C1436 C1440 1.368 . S
C1437 C1418 1.429 . S
C1437 C1431 1.429 . S
C1437 C1438 1.523 . S
C1438 C1419 1.368 . S
C1438 C1432 1.368 . S
C1438 C1437 1.523 . S
C1439 C1423 1.429 . S
C1439 C1435 1.429 . S
C1439 C1440 1.523 . S
C1440 C1424 1.368 . S
C1440 C1436 1.368 . S
C1440 C1439 1.523 . S
H1441 C1416 0.950 . S
H1442 C1418 0.950 . S
H1443 C1419 0.949 . S
H1444 C1421 0.950 . S
H1445 C1423 0.950 . S
C1446 C1447 1.349 . S
C1446 C1448 1.327 . S
C1446 H1471 0.950 . S
C1447 C1446 1.349 . S
C1447 C1463 1.349 . S
C1448 C1446 1.327 . S
C1448 C1467 1.429 . S
C1448 H1472 0.950 . S
C1449 C1466 1.574 . S
C1449 C1468 1.368 . S
C1449 H1473 0.949 . S
H1450 C1454 0.949 . S
C1451 C1452 1.349 . S
C1451 C1453 1.327 . S
C1451 H1474 0.950 . S
C1452 C1451 1.349 . S
C1452 C1464 1.349 . S
C1453 C1451 1.327 . S
C1453 C1469 1.429 . S
C1453 H1475 0.950 . S
C1454 H1450 0.949 . S
C1454 C1462 1.574 . S
C1454 C1470 1.368 . S
H1455 C1463 0.950 . S
H1456 C1461 0.950 . S
H1457 C1462 0.949 . S
H1458 C1464 0.950 . S
H1459 C1465 0.950 . S
H1460 C1466 0.949 . S
C1461 H1456 0.950 . S
C1461 C1463 1.327 . S
C1461 C1467 1.429 . S
C1462 C1454 1.574 . S
C1462 H1457 0.949 . S
C1462 C1468 1.368 . S
C1463 C1447 1.349 . S
C1463 H1455 0.950 . S
C1463 C1461 1.327 . S
C1464 C1452 1.349 . S
C1464 H1458 0.950 . S
C1464 C1465 1.327 . S
C1465 H1459 0.950 . S
C1465 C1464 1.327 . S
C1465 C1469 1.429 . S
C1466 C1449 1.574 . S
C1466 H1460 0.949 . S
C1466 C1470 1.368 . S
C1467 C1448 1.429 . S
C1467 C1461 1.429 . S
C1467 C1468 1.523 . S
C1468 C1449 1.368 . S
C1468 C1462 1.368 . S
C1468 C1467 1.523 . S
C1469 C1453 1.429 . S
C1469 C1465 1.429 . S
C1469 C1470 1.523 . S
C1470 C1454 1.368 . S
C1470 C1466 1.368 . S
C1470 C1469 1.523 . S
H1471 C1446 0.950 . S
H1472 C1448 0.950 . S
H1473 C1449 0.949 . S
H1474 C1451 0.950 . S
H1475 C1453 0.950 . S
C1476 C1477 1.349 . S
C1476 C1478 1.327 . S
C1476 H1501 0.950 . S
C1477 C1476 1.349 . S
C1477 C1493 1.349 . S
C1478 C1476 1.327 . S
C1478 C1497 1.429 . S
C1478 H1502 0.950 . S
C1479 C1496 1.574 . S
C1479 C1498 1.368 . S
C1479 H1503 0.949 . S
H1480 C1484 0.949 . S
C1481 C1482 1.349 . S
C1481 C1483 1.327 . S
C1481 H1504 0.950 . S
C1482 C1481 1.349 . S
C1482 C1494 1.349 . S
C1483 C1481 1.327 . S
C1483 C1499 1.429 . S
C1483 H1505 0.950 . S
C1484 H1480 0.949 . S
C1484 C1492 1.574 . S
C1484 C1500 1.368 . S
H1485 C1493 0.950 . S
H1486 C1491 0.950 . S
H1487 C1492 0.949 . S
H1488 C1494 0.950 . S
H1489 C1495 0.950 . S
H1490 C1496 0.949 . S
C1491 H1486 0.950 . S
C1491 C1493 1.327 . S
C1491 C1497 1.429 . S
C1492 C1484 1.574 . S
C1492 H1487 0.949 . S
C1492 C1498 1.368 . S
C1493 C1477 1.349 . S
C1493 H1485 0.950 . S
C1493 C1491 1.327 . S
C1494 C1482 1.349 . S
C1494 H1488 0.950 . S
C1494 C1495 1.327 . S
C1495 H1489 0.950 . S
C1495 C1494 1.327 . S
C1495 C1499 1.429 . S
C1496 C1479 1.574 . S
C1496 H1490 0.949 . S
C1496 C1500 1.368 . S
C1497 C1478 1.429 . S
C1497 C1491 1.429 . S
C1497 C1498 1.523 . S
C1498 C1479 1.368 . S
C1498 C1492 1.368 . S
C1498 C1497 1.523 . S
C1499 C1483 1.429 . S
C1499 C1495 1.429 . S
C1499 C1500 1.523 . S
C1500 C1484 1.368 . S
C1500 C1496 1.368 . S
C1500 C1499 1.523 . S
H1501 C1476 0.950 . S
H1502 C1478 0.950 . S
H1503 C1479 0.949 . S
H1504 C1481 0.950 . S
H1505 C1483 0.950 . S
C1506 C1507 1.349 . S
C1506 C1508 1.327 . S
C1506 H1531 0.950 . S
C1507 C1506 1.349 . S
C1507 C1523 1.349 . S
C1508 C1506 1.327 . S
C1508 C1527 1.429 . S
C1508 H1532 0.950 . S
C1509 C1526 1.574 . S
C1509 C1528 1.368 . S
C1509 H1533 0.949 . S
H1510 C1514 0.949 . S
C1511 C1512 1.349 . S
C1511 C1513 1.327 . S
C1511 H1534 0.950 . S
C1512 C1511 1.349 . S
C1512 C1524 1.349 . S
C1513 C1511 1.327 . S
C1513 C1529 1.429 . S
C1513 H1535 0.950 . S
C1514 H1510 0.949 . S
C1514 C1522 1.574 . S
C1514 C1530 1.368 . S
H1515 C1523 0.950 . S
H1516 C1521 0.950 . S
H1517 C1522 0.949 . S
H1518 C1524 0.950 . S
H1519 C1525 0.950 . S
H1520 C1526 0.949 . S
C1521 H1516 0.950 . S
C1521 C1523 1.327 . S
C1521 C1527 1.429 . S
C1522 C1514 1.574 . S
C1522 H1517 0.949 . S
C1522 C1528 1.368 . S
C1523 C1507 1.349 . S
C1523 H1515 0.950 . S
C1523 C1521 1.327 . S
C1524 C1512 1.349 . S
C1524 H1518 0.950 . S
C1524 C1525 1.327 . S
C1525 H1519 0.950 . S
C1525 C1524 1.327 . S
C1525 C1529 1.429 . S
C1526 C1509 1.574 . S
C1526 H1520 0.949 . S
C1526 C1530 1.368 . S
C1527 C1508 1.429 . S
C1527 C1521 1.429 . S
C1527 C1528 1.523 . S
C1528 C1509 1.368 . S
C1528 C1522 1.368 . S
C1528 C1527 1.523 . S
C1529 C1513 1.429 . S
C1529 C1525 1.429 . S
C1529 C1530 1.523 . S
C1530 C1514 1.368 . S
C1530 C1526 1.368 . S
C1530 C1529 1.523 . S
H1531 C1506 0.950 . S
H1532 C1508 0.950 . S
H1533 C1509 0.949 . S
H1534 C1511 0.950 . S
H1535 C1513 0.950 . S
C1536 C1537 1.349 . S
C1536 C1538 1.327 . S
C1536 H1561 0.950 . S
C1537 C1536 1.349 . S
C1537 C1553 1.349 . S
C1538 C1536 1.327 . S
C1538 C1557 1.429 . S
C1538 H1562 0.950 . S
C1539 C1556 1.574 . S
C1539 C1558 1.368 . S
C1539 H1563 0.949 . S
H1540 C1544 0.949 . S
C1541 C1542 1.349 . S
C1541 C1543 1.327 . S
C1541 H1564 0.950 . S
C1542 C1541 1.349 . S
C1542 C1554 1.349 . S
C1543 C1541 1.327 . S
C1543 C1559 1.429 . S
C1543 H1565 0.950 . S
C1544 H1540 0.949 . S
C1544 C1552 1.574 . S
C1544 C1560 1.368 . S
H1545 C1553 0.950 . S
H1546 C1551 0.950 . S
H1547 C1552 0.949 . S
H1548 C1554 0.950 . S
H1549 C1555 0.950 . S
H1550 C1556 0.949 . S
C1551 H1546 0.950 . S
C1551 C1553 1.327 . S
C1551 C1557 1.429 . S
C1552 C1544 1.574 . S
C1552 H1547 0.949 . S
C1552 C1558 1.368 . S
C1553 C1537 1.349 . S
C1553 H1545 0.950 . S
C1553 C1551 1.327 . S
C1554 C1542 1.349 . S
C1554 H1548 0.950 . S
C1554 C1555 1.327 . S
C1555 H1549 0.950 . S
C1555 C1554 1.327 . S
C1555 C1559 1.429 . S
C1556 C1539 1.574 . S
C1556 H1550 0.949 . S
C1556 C1560 1.368 . S
C1557 C1538 1.429 . S
C1557 C1551 1.429 . S
C1557 C1558 1.523 . S
C1558 C1539 1.368 . S
C1558 C1552 1.368 . S
C1558 C1557 1.523 . S
C1559 C1543 1.429 . S
C1559 C1555 1.429 . S
C1559 C1560 1.523 . S
C1560 C1544 1.368 . S
C1560 C1556 1.368 . S
C1560 C1559 1.523 . S
H1561 C1536 0.950 . S
H1562 C1538 0.950 . S
H1563 C1539 0.949 . S
H1564 C1541 0.950 . S
H1565 C1543 0.950 . S
C1566 C1567 1.349 . S
C1566 C1568 1.327 . S
C1566 H1591 0.950 . S
C1567 C1566 1.349 . S
C1567 C1583 1.349 . S
C1568 C1566 1.327 . S
C1568 C1587 1.429 . S
C1568 H1592 0.950 . S
C1569 C1586 1.574 . S
C1569 C1588 1.368 . S
C1569 H1593 0.949 . S
H1570 C1574 0.949 . S
C1571 C1572 1.349 . S
C1571 C1573 1.327 . S
C1571 H1594 0.950 . S
C1572 C1571 1.349 . S
C1572 C1584 1.349 . S
C1573 C1571 1.327 . S
C1573 C1589 1.429 . S
C1573 H1595 0.950 . S
C1574 H1570 0.949 . S
C1574 C1582 1.574 . S
C1574 C1590 1.368 . S
H1575 C1583 0.950 . S
H1576 C1581 0.950 . S
H1577 C1582 0.949 . S
H1578 C1584 0.950 . S
H1579 C1585 0.950 . S
H1580 C1586 0.949 . S
C1581 H1576 0.950 . S
C1581 C1583 1.327 . S
C1581 C1587 1.429 . S
C1582 C1574 1.574 . S
C1582 H1577 0.949 . S
C1582 C1588 1.368 . S
C1583 C1567 1.349 . S
C1583 H1575 0.950 . S
C1583 C1581 1.327 . S
C1584 C1572 1.349 . S
C1584 H1578 0.950 . S
C1584 C1585 1.327 . S
C1585 H1579 0.950 . S
C1585 C1584 1.327 . S
C1585 C1589 1.429 . S
C1586 C1569 1.574 . S
C1586 H1580 0.949 . S
C1586 C1590 1.368 . S
C1587 C1568 1.429 . S
C1587 C1581 1.429 . S
C1587 C1588 1.523 . S
C1588 C1569 1.368 . S
C1588 C1582 1.368 . S
C1588 C1587 1.523 . S
C1589 C1573 1.429 . S
C1589 C1585 1.429 . S
C1589 C1590 1.523 . S
C1590 C1574 1.368 . S
C1590 C1586 1.368 . S
C1590 C1589 1.523 . S
H1591 C1566 0.950 . S
H1592 C1568 0.950 . S
H1593 C1569 0.949 . S
H1594 C1571 0.950 . S
H1595 C1573 0.950 . S
C1596 C1597 1.349 . S
C1596 C1598 1.327 . S
C1596 H1621 0.950 . S
C1597 C1596 1.349 . S
C1597 C1613 1.349 . S
C1598 C1596 1.327 . S
C1598 C1617 1.429 . S
C1598 H1622 0.950 . S
C1599 C1616 1.574 . S
C1599 C1618 1.368 . S
C1599 H1623 0.949 . S
H1600 C1604 0.949 . S
C1601 C1602 1.349 . S
C1601 C1603 1.327 . S
C1601 H1624 0.950 . S
C1602 C1601 1.349 . S
C1602 C1614 1.349 . S
C1603 C1601 1.327 . S
C1603 C1619 1.429 . S
C1603 H1625 0.950 . S
C1604 H1600 0.949 . S
C1604 C1612 1.574 . S
C1604 C1620 1.368 . S
H1605 C1613 0.950 . S
H1606 C1611 0.950 . S
H1607 C1612 0.949 . S
H1608 C1614 0.950 . S
H1609 C1615 0.950 . S
H1610 C1616 0.949 . S
C1611 H1606 0.950 . S
C1611 C1613 1.327 . S
C1611 C1617 1.429 . S
C1612 C1604 1.574 . S
C1612 H1607 0.949 . S
C1612 C1618 1.368 . S
C1613 C1597 1.349 . S
C1613 H1605 0.950 . S
C1613 C1611 1.327 . S
C1614 C1602 1.349 . S
C1614 H1608 0.950 . S
C1614 C1615 1.327 . S
C1615 H1609 0.950 . S
C1615 C1614 1.327 . S
C1615 C1619 1.429 . S
C1616 C1599 1.574 . S
C1616 H1610 0.949 . S
C1616 C1620 1.368 . S
C1617 C1598 1.429 . S
C1617 C1611 1.429 . S
C1617 C1618 1.523 . S
C1618 C1599 1.368 . S
C1618 C1612 1.368 . S
C1618 C1617 1.523 . S
C1619 C1603 1.429 . S
C1619 C1615 1.429 . S
C1619 C1620 1.523 . S
C1620 C1604 1.368 . S
C1620 C1616 1.368 . S
C1620 C1619 1.523 . S
H1621 C1596 0.950 . S
H1622 C1598 0.950 . S
H1623 C1599 0.949 . S
H1624 C1601 0.950 . S
H1625 C1603 0.950 . S
C1626 C1627 1.349 . S
C1626 C1628 1.327 . S
C1626 H1651 0.950 . S
C1627 C1626 1.349 . S
C1627 C1643 1.349 . S
C1628 C1626 1.327 . S
C1628 C1647 1.429 . S
C1628 H1652 0.950 . S
C1629 C1646 1.574 . S
C1629 C1648 1.368 . S
C1629 H1653 0.949 . S
H1630 C1634 0.949 . S
C1631 C1632 1.349 . S
C1631 C1633 1.327 . S
C1631 H1654 0.950 . S
C1632 C1631 1.349 . S
C1632 C1644 1.349 . S
C1633 C1631 1.327 . S
C1633 C1649 1.429 . S
C1633 H1655 0.950 . S
C1634 H1630 0.949 . S
C1634 C1642 1.574 . S
C1634 C1650 1.368 . S
H1635 C1643 0.950 . S
H1636 C1641 0.950 . S
H1637 C1642 0.949 . S
H1638 C1644 0.950 . S
H1639 C1645 0.950 . S
H1640 C1646 0.949 . S
C1641 H1636 0.950 . S
C1641 C1643 1.327 . S
C1641 C1647 1.429 . S
C1642 C1634 1.574 . S
C1642 H1637 0.949 . S
C1642 C1648 1.368 . S
C1643 C1627 1.349 . S
C1643 H1635 0.950 . S
C1643 C1641 1.327 . S
C1644 C1632 1.349 . S
C1644 H1638 0.950 . S
C1644 C1645 1.327 . S
C1645 H1639 0.950 . S
C1645 C1644 1.327 . S
C1645 C1649 1.429 . S
C1646 C1629 1.574 . S
C1646 H1640 0.949 . S
C1646 C1650 1.368 . S
C1647 C1628 1.429 . S
C1647 C1641 1.429 . S
C1647 C1648 1.523 . S
C1648 C1629 1.368 . S
C1648 C1642 1.368 . S
C1648 C1647 1.523 . S
C1649 C1633 1.429 . S
C1649 C1645 1.429 . S
C1649 C1650 1.523 . S
C1650 C1634 1.368 . S
C1650 C1646 1.368 . S
C1650 C1649 1.523 . S
H1651 C1626 0.950 . S
H1652 C1628 0.950 . S
H1653 C1629 0.949 . S
H1654 C1631 0.950 . S
H1655 C1633 0.950 . S
C1656 C1657 1.349 . S
C1656 C1658 1.327 . S
C1656 H1681 0.950 . S
C1657 C1656 1.349 . S
C1657 C1673 1.349 . S
C1658 C1656 1.327 . S
C1658 C1677 1.429 . S
C1658 H1682 0.950 . S
C1659 C1676 1.574 . S
C1659 C1678 1.368 . S
C1659 H1683 0.949 . S
H1660 C1664 0.949 . S
C1661 C1662 1.349 . S
C1661 C1663 1.327 . S
C1661 H1684 0.950 . S
C1662 C1661 1.349 . S
C1662 C1674 1.349 . S
C1663 C1661 1.327 . S
C1663 C1679 1.429 . S
C1663 H1685 0.950 . S
C1664 H1660 0.949 . S
C1664 C1672 1.574 . S
C1664 C1680 1.368 . S
H1665 C1673 0.950 . S
H1666 C1671 0.950 . S
H1667 C1672 0.949 . S
H1668 C1674 0.950 . S
H1669 C1675 0.950 . S
H1670 C1676 0.949 . S
C1671 H1666 0.950 . S
C1671 C1673 1.327 . S
C1671 C1677 1.429 . S
C1672 C1664 1.574 . S
C1672 H1667 0.949 . S
C1672 C1678 1.368 . S
C1673 C1657 1.349 . S
C1673 H1665 0.950 . S
C1673 C1671 1.327 . S
C1674 C1662 1.349 . S
C1674 H1668 0.950 . S
C1674 C1675 1.327 . S
C1675 H1669 0.950 . S
C1675 C1674 1.327 . S
C1675 C1679 1.429 . S
C1676 C1659 1.574 . S
C1676 H1670 0.949 . S
C1676 C1680 1.368 . S
C1677 C1658 1.429 . S
C1677 C1671 1.429 . S
C1677 C1678 1.523 . S
C1678 C1659 1.368 . S
C1678 C1672 1.368 . S
C1678 C1677 1.523 . S
C1679 C1663 1.429 . S
C1679 C1675 1.429 . S
C1679 C1680 1.523 . S
C1680 C1664 1.368 . S
C1680 C1676 1.368 . S
C1680 C1679 1.523 . S
H1681 C1656 0.950 . S
H1682 C1658 0.950 . S
H1683 C1659 0.949 . S
H1684 C1661 0.950 . S
H1685 C1663 0.950 . S
C1686 C1687 1.349 . S
C1686 C1688 1.327 . S
C1686 H1711 0.950 . S
C1687 C1686 1.349 . S
C1687 C1703 1.349 . S
C1688 C1686 1.327 . S
C1688 C1707 1.429 . S
C1688 H1712 0.950 . S
C1689 C1706 1.574 . S
C1689 C1708 1.368 . S
C1689 H1713 0.949 . S
H1690 C1694 0.949 . S
C1691 C1692 1.349 . S
C1691 C1693 1.327 . S
C1691 H1714 0.950 . S
C1692 C1691 1.349 . S
C1692 C1704 1.349 . S
C1693 C1691 1.327 . S
C1693 C1709 1.429 . S
C1693 H1715 0.950 . S
C1694 H1690 0.949 . S
C1694 C1702 1.574 . S
C1694 C1710 1.368 . S
H1695 C1703 0.950 . S
H1696 C1701 0.950 . S
H1697 C1702 0.949 . S
H1698 C1704 0.950 . S
H1699 C1705 0.950 . S
H1700 C1706 0.949 . S
C1701 H1696 0.950 . S
C1701 C1703 1.327 . S
C1701 C1707 1.429 . S
C1702 C1694 1.574 . S
C1702 H1697 0.949 . S
C1702 C1708 1.368 . S
C1703 C1687 1.349 . S
C1703 H1695 0.950 . S
C1703 C1701 1.327 . S
C1704 C1692 1.349 . S
C1704 H1698 0.950 . S
C1704 C1705 1.327 . S
C1705 H1699 0.950 . S
C1705 C1704 1.327 . S
C1705 C1709 1.429 . S
C1706 C1689 1.574 . S
C1706 H1700 0.949 . S
C1706 C1710 1.368 . S
C1707 C1688 1.429 . S
C1707 C1701 1.429 . S
C1707 C1708 1.523 . S
C1708 C1689 1.368 . S
C1708 C1702 1.368 . S
C1708 C1707 1.523 . S
C1709 C1693 1.429 . S
C1709 C1705 1.429 . S
C1709 C1710 1.523 . S
C1710 C1694 1.368 . S
C1710 C1706 1.368 . S
C1710 C1709 1.523 . S
H1711 C1686 0.950 . S
H1712 C1688 0.950 . S
H1713 C1689 0.949 . S
H1714 C1691 0.950 . S
H1715 C1693 0.950 . S
C1716 C1717 1.349 . S
C1716 C1718 1.327 . S
C1716 H1741 0.950 . S
C1717 C1716 1.349 . S
C1717 C1733 1.349 . S
C1718 C1716 1.327 . S
C1718 C1737 1.429 . S
C1718 H1742 0.950 . S
C1719 C1736 1.574 . S
C1719 C1738 1.368 . S
C1719 H1743 0.949 . S
H1720 C1724 0.949 . S
C1721 C1722 1.349 . S
C1721 C1723 1.327 . S
C1721 H1744 0.950 . S
C1722 C1721 1.349 . S
C1722 C1734 1.349 . S
C1723 C1721 1.327 . S
C1723 C1739 1.429 . S
C1723 H1745 0.950 . S
C1724 H1720 0.949 . S
C1724 C1732 1.574 . S
C1724 C1740 1.368 . S
H1725 C1733 0.950 . S
H1726 C1731 0.950 . S
H1727 C1732 0.949 . S
H1728 C1734 0.950 . S
H1729 C1735 0.950 . S
H1730 C1736 0.949 . S
C1731 H1726 0.950 . S
C1731 C1733 1.327 . S
C1731 C1737 1.429 . S
C1732 C1724 1.574 . S
C1732 H1727 0.949 . S
C1732 C1738 1.368 . S
C1733 C1717 1.349 . S
C1733 H1725 0.950 . S
C1733 C1731 1.327 . S
C1734 C1722 1.349 . S
C1734 H1728 0.950 . S
C1734 C1735 1.327 . S
C1735 H1729 0.950 . S
C1735 C1734 1.327 . S
C1735 C1739 1.429 . S
C1736 C1719 1.574 . S
C1736 H1730 0.949 . S
C1736 C1740 1.368 . S
C1737 C1718 1.429 . S
C1737 C1731 1.429 . S
C1737 C1738 1.523 . S
C1738 C1719 1.368 . S
C1738 C1732 1.368 . S
C1738 C1737 1.523 . S
C1739 C1723 1.429 . S
C1739 C1735 1.429 . S
C1739 C1740 1.523 . S
C1740 C1724 1.368 . S
C1740 C1736 1.368 . S
C1740 C1739 1.523 . S
H1741 C1716 0.950 . S
H1742 C1718 0.950 . S
H1743 C1719 0.949 . S
H1744 C1721 0.950 . S
H1745 C1723 0.950 . S
C1746 C1747 1.349 . S
C1746 C1748 1.327 . S
C1746 H1771 0.950 . S
C1747 C1746 1.349 . S
C1747 C1763 1.349 . S
C1748 C1746 1.327 . S
C1748 C1767 1.429 . S
C1748 H1772 0.950 . S
C1749 C1766 1.574 . S
C1749 C1768 1.368 . S
C1749 H1773 0.949 . S
H1750 C1754 0.949 . S
C1751 C1752 1.349 . S
C1751 C1753 1.327 . S
C1751 H1774 0.950 . S
C1752 C1751 1.349 . S
C1752 C1764 1.349 . S
C1753 C1751 1.327 . S
C1753 C1769 1.429 . S
C1753 H1775 0.950 . S
C1754 H1750 0.949 . S
C1754 C1762 1.574 . S
C1754 C1770 1.368 . S
H1755 C1763 0.950 . S
H1756 C1761 0.950 . S
H1757 C1762 0.949 . S
H1758 C1764 0.950 . S
H1759 C1765 0.950 . S
H1760 C1766 0.949 . S
C1761 H1756 0.950 . S
C1761 C1763 1.327 . S
C1761 C1767 1.429 . S
C1762 C1754 1.574 . S
C1762 H1757 0.949 . S
C1762 C1768 1.368 . S
C1763 C1747 1.349 . S
C1763 H1755 0.950 . S
C1763 C1761 1.327 . S
C1764 C1752 1.349 . S
C1764 H1758 0.950 . S
C1764 C1765 1.327 . S
C1765 H1759 0.950 . S
C1765 C1764 1.327 . S
C1765 C1769 1.429 . S
C1766 C1749 1.574 . S
C1766 H1760 0.949 . S
C1766 C1770 1.368 . S
C1767 C1748 1.429 . S
C1767 C1761 1.429 . S
C1767 C1768 1.523 . S
C1768 C1749 1.368 . S
C1768 C1762 1.368 . S
C1768 C1767 1.523 . S
C1769 C1753 1.429 . S
C1769 C1765 1.429 . S
C1769 C1770 1.523 . S
C1770 C1754 1.368 . S
C1770 C1766 1.368 . S
C1770 C1769 1.523 . S
H1771 C1746 0.950 . S
H1772 C1748 0.950 . S
H1773 C1749 0.949 . S
H1774 C1751 0.950 . S
H1775 C1753 0.950 . S
C1057 C57 1.407 . S
C1062 C997 1.407 . S
C1087 C548 1.407 . S
C1092 C145 1.407 . S
C1117 C225 1.407 . S
C1122 C636 1.407 . S
C1147 C733 1.407 . S
C1152 C321 1.407 . S
C1177 C821 1.407 . S
C1182 C401 1.407 . S
C1207 C900 1.407 . S
C1212 C497 1.407 . S
C1237 C293 1.408 . S
C1242 C761 1.408 . S
C1267 C372 1.408 . S
C1272 C849 1.408 . S
C1297 C469 1.408 . S
C1302 C929 1.408 . S
C1327 C1025 1.408 . S
C1332 C29 1.408 . S
C1357 C117 1.408 . S
C1362 C577 1.408 . S
C1387 C196 1.408 . S
C1392 C665 1.408 . S
C1417 C753 1.420 . S
C1422 C20 1.421 . S
C1447 C841 1.421 . S
C1452 C108 1.421 . S
C1477 C205 1.420 . S
C1482 C937 1.420 . S
C1507 C284 1.421 . S
C1512 C1017 1.421 . S
C1537 C381 1.421 . S
C1542 C585 1.421 . S
C1567 C673 1.420 . S
C1572 C460 1.420 . S
C1597 C49 0.944 . S
C1602 C909 0.944 . S
C1627 C988 0.943 . S
C1632 C137 0.943 . S
C1657 C233 0.944 . S
C1662 C557 0.944 . S
C1687 C313 0.943 . S
C1692 C645 0.943 . S
C1717 C409 0.943 . S
C1722 C724 0.943 . S
C1747 C489 0.944 . S
C1752 C812 0.944 . S
