# Generated by pormake.
# Topology reo, (8)-cn, num edge types: 1
# Building blocks:
#     Node 0, Type 0, BuildingBlock: EBIMEJ_clean_sbu_0, # of connection points: 8
#     Node 1, Type 0, BuildingBlock: EBIMEJ_clean_sbu_0, # of connection points: 8
#     Node 2, Type 0, BuildingBlock: EBIMEJ_clean_sbu_0, # of connection points: 8
#     Edge 3, Type (0, 0), BuildingBlock: FUNLAD_clean_linker_0, # of connection points: 2
#     Edge 4, Type (0, 0), BuildingBlock: FUNLAD_clean_linker_0, # of connection points: 2
#     Edge 5, Type (0, 0), BuildingBlock: FUNLAD_clean_linker_0, # of connection points: 2
#     Edge 6, Type (0, 0), BuildingBlock: FUNLAD_clean_linker_0, # of connection points: 2
#     Edge 7, Type (0, 0), BuildingBlock: FUNLAD_clean_linker_0, # of connection points: 2
#     Edge 8, Type (0, 0), BuildingBlock: FUNLAD_clean_linker_0, # of connection points: 2
#     Edge 9, Type (0, 0), BuildingBlock: FUNLAD_clean_linker_0, # of connection points: 2
#     Edge 10, Type (0, 0), BuildingBlock: FUNLAD_clean_linker_0, # of connection points: 2
#     Edge 11, Type (0, 0), BuildingBlock: FUNLAD_clean_linker_0, # of connection points: 2
#     Edge 12, Type (0, 0), BuildingBlock: FUNLAD_clean_linker_0, # of connection points: 2
#     Edge 13, Type (0, 0), BuildingBlock: FUNLAD_clean_linker_0, # of connection points: 2
#     Edge 14, Type (0, 0), BuildingBlock: FUNLAD_clean_linker_0, # of connection points: 2
# Relax obj value: 0.147
# Max RMSD: 0.257
# Mean RMSD: 0.249
data_MOF--net-reo--node1-EBIMEJ_clean_sbu_0--edge1-FUNLAD_clean_linker_0
_symmetry_space_group_name_H-M    P1
_symmetry_Int_Tables_number       1
_symmetry_cell_setting            triclinic
loop_
_symmetry_equiv_pos_as_xyz
'x, y, z'
_cell_length_a     27.610105
_cell_length_b     28.099726
_cell_length_c     28.216362
_cell_angle_alpha  91.738255
_cell_angle_beta   91.49055
_cell_angle_gamma 100.25666
loop_
_atom_site_label
_atom_site_type_symbol
_atom_site_fract_x
_atom_site_fract_y
_atom_site_fract_z
_atom_type_partial_charge
Co0 Co 1.00076 1.01376 0.40358 0.0
Co1 Co 1.00781 0.07269 0.50305 0.0
Co2 Co 0.01033 0.96489 0.50097 0.0
H3 H 0.9971 0.99635 0.45979 0.0
O4 O 0.97581 1.01426 0.46689 0.0
H5 H 0.01856 0.04074 0.54515 0.0
O6 O 0.04019 0.02305 0.5387 0.0
Co7 Co 0.01247 0.02209 0.60104 0.0
O8 O 0.02198 0.09485 0.61539 0.0
O9 O 0.03808 0.12939 0.54524 0.0
O10 O 0.99739 0.94927 0.6095 0.0
O11 O 0.03321 0.91988 0.54741 0.0
O12 O 0.97232 0.03631 0.34207 0.0
O13 O 0.93188 0.98122 0.38015 0.0
O14 O 0.94186 1.00571 0.57963 0.0
O15 O 0.94385 0.07085 0.53696 0.0
C16 C 0.99332 0.90585 0.41273 0.0
C17 C 1.00617 0.12131 0.41396 0.0
C18 C 0.06525 0.02313 0.6728 0.0
C19 C 0.0966 1.00473 0.44134 0.0
C20 C 0.03585 0.13202 0.5906 0.0
C21 C 0.01651 0.91578 0.58954 0.0
C22 C 0.9324 1.00724 0.34481 0.0
C23 C 0.92033 0.03734 0.56154 0.0
O24 O 1.00694 0.94381 0.38903 0.0
O25 O 0.9834 0.9081 0.45688 0.0
O26 O 0.98761 0.11818 0.45535 0.0
O27 O 0.02168 0.08571 0.39375 0.0
O28 O 0.02339 0.9971 0.66744 0.0
O29 O 0.0763 0.04921 0.63803 0.0
O30 O 0.07255 0.03204 0.41929 0.0
O31 O 0.07553 0.97179 0.46811 0.0
Co32 Co 0.60125 0.0425 0.96085 0.0
Co33 Co 0.49609 0.0711 0.99343 0.0
Co34 Co 0.51807 0.97061 0.00996 0.0
H35 H 0.54817 1.01093 0.97999 0.0
O36 O 0.52976 0.02373 0.96089 0.0
H37 H 0.4666 0.03118 0.02443 0.0
O38 O 0.48546 1.01842 0.04306 0.0
Co39 Co 0.41431 1.0 0.04594 0.0
O40 O 0.38778 0.06222 0.03912 0.0
O41 O 0.45566 0.1159 0.02437 0.0
O42 O 0.41159 0.92762 0.04678 0.0
O43 O 0.4905 0.9171 0.05189 0.0
O44 O 0.66681 0.03619 0.93066 0.0
O45 O 0.60973 0.05494 0.88984 0.0
O46 O 0.39621 0.9824 0.97795 0.0
O47 O 0.44037 0.04754 0.94661 0.0
C48 C 0.60414 0.93613 0.96994 0.0
C49 C 0.56869 0.13927 0.94518 0.0
C50 C 0.37273 0.99332 0.12278 0.0
C51 C 0.60322 0.03329 0.06301 0.0
C52 C 0.41004 0.10569 0.03475 0.0
C53 C 0.4442 0.9017 0.05542 0.0
C54 C 0.65292 0.04667 0.89016 0.0
C55 C 0.40701 1.00959 0.94324 0.0
O56 O 0.62691 0.97973 0.96798 0.0
O57 O 0.55806 0.92585 0.97851 0.0
O58 O 0.52264 0.124 0.95053 0.0
O59 O 0.60185 0.11408 0.95422 0.0
O60 O 0.35749 1.01297 0.08735 0.0
O61 O 0.41154 0.97763 0.11465 0.0
O62 O 0.61226 0.06234 0.02947 0.0
O63 O 0.57355 0.99295 0.05729 0.0
Co64 Co 0.97662 0.61229 0.99968 0.0
Co65 Co 0.99094 0.51199 0.05316 0.0
Co66 Co 0.02051 0.52607 0.95042 0.0
H67 H 0.99165 0.55893 0.98121 0.0
O68 O 0.96817 0.54191 0.99607 0.0
H69 H 0.01899 0.47865 0.0221 0.0
O70 O 0.04269 0.49553 0.00734 0.0
Co71 Co 0.03312 0.42503 1.00356 0.0
O72 O 0.01935 0.40525 0.07098 0.0
O73 O 0.01106 0.47485 0.10853 0.0
O74 O 0.03866 0.41788 0.9323 0.0
O75 O 0.06247 0.4937 0.9072 0.0
O76 O 0.94831 0.67161 0.9774 0.0
O77 O 0.90504 0.61857 0.01475 0.0
O78 O 0.96226 0.41437 0.9814 0.0
O79 O 0.9328 0.45897 0.03682 0.0
C80 C 0.99077 0.60598 0.89376 0.0
C81 C 0.96172 0.59239 0.10351 0.0
C82 C 0.10295 0.37946 0.00906 0.0
C83 C 0.0838 0.61213 1.00116 0.0
C84 C 0.01583 0.43014 0.10899 0.0
C85 C 0.05761 0.4475 0.90144 0.0
C86 C 0.90693 0.65814 0.99486 0.0
C87 C 0.92631 0.42762 1.00227 0.0
O88 O 0.98439 0.6304 0.93123 0.0
O89 O 1.00036 0.56289 0.89471 0.0
O90 O 0.95094 0.54613 0.09705 0.0
O91 O 0.98147 0.61978 0.07126 0.0
O92 O 0.05995 0.36341 0.02162 0.0
O93 O 0.10627 0.42132 0.9938 0.0
O94 O 0.04753 0.62531 0.02147 0.0
O95 O 0.0779 0.57972 0.96756 0.0
C96 C 0.03629 0.36181 0.15595 0.0
C97 C 0.01601 0.40432 0.15446 0.0
C98 C 0.03229 0.33347 0.196 0.0
C99 C 1.00804 0.34674 0.2363 0.0
C100 C 0.98826 0.38963 0.23521 0.0
C101 C 0.9926 0.4184 0.19494 0.0
C102 C 1.00041 0.3147 0.27814 0.0
C103 C 0.03176 0.28461 0.28965 0.0
C104 C 0.0247 0.24667 0.32642 0.0
C105 C 0.06044 0.21698 0.3298 0.0
C106 C 0.0548 0.17798 0.35976 0.0
C107 C 0.01338 0.16731 0.38803 0.0
H108 H 0.95522 0.2591 0.35472 0.0
C109 C 0.97832 0.19804 0.38675 0.0
C110 C 0.9837 0.23725 0.35594 0.0
H111 H 0.94582 0.19052 0.40786 0.0
H112 H 0.05452 0.34961 0.12553 0.0
H113 H 0.04673 0.30013 0.19426 0.0
H114 H 0.96892 0.40063 0.26541 0.0
H115 H 0.97607 0.45058 0.19486 0.0
H116 H 0.96819 0.3158 0.29903 0.0
H117 H 0.06515 0.28685 0.2697 0.0
H118 H 0.09253 0.22301 0.30796 0.0
H119 H 0.08272 0.15531 0.36001 0.0
C120 C 0.88857 0.04417 0.28142 0.0
C121 C 0.8892 1.00708 0.31345 0.0
C122 C 0.84582 0.04641 0.2548 0.0
C123 C 0.80311 1.01148 0.25988 0.0
C124 C 0.80446 0.97346 0.29062 0.0
C125 C 0.84704 0.97147 0.31753 0.0
C126 C 0.75742 1.01225 0.23187 0.0
C127 C 0.74418 0.05335 0.21727 0.0
C128 C 0.7024 0.05266 0.18336 0.0
C129 C 0.70627 0.088 0.14904 0.0
C130 C 0.6721 0.0834 0.11121 0.0
C131 C 0.6333 0.04341 0.10732 0.0
H132 H 0.65578 0.98874 0.20929 0.0
C133 C 0.6268 1.01067 0.14423 0.0
C134 C 0.66098 1.01534 0.18206 0.0
H135 H 0.59659 0.98017 0.1429 0.0
H136 H 0.92077 0.07192 0.27755 0.0
H137 H 0.8466 0.07514 0.22999 0.0
H138 H 0.77223 0.94572 0.29444 0.0
H139 H 0.84676 0.94238 0.34192 0.0
H140 H 0.73465 0.97746 0.22232 0.0
H141 H 0.76714 0.0881 0.22662 0.0
H142 H 0.73748 0.11754 0.14982 0.0
H143 H 0.67774 0.10978 0.08376 0.0
C144 C 0.95671 0.8179 0.39294 0.0
C145 C 0.99379 0.85868 0.38797 0.0
C146 C 0.95561 0.77592 0.36391 0.0
C147 C 0.99224 0.77403 0.33026 0.0
C148 C 0.03052 0.81405 0.32772 0.0
C149 C 0.03106 0.85577 0.35573 0.0
C150 C 0.99143 0.73379 0.29425 0.0
C151 C 0.9536 0.69709 0.2835 0.0
C152 C 0.9529 0.66867 0.2378 0.0
C153 C 0.93681 0.61816 0.23431 0.0
C154 C 0.93858 0.59242 0.19076 0.0
C155 C 0.95555 0.61714 0.14999 0.0
H156 H 0.9789 0.73211 0.19743 0.0
C157 C 0.96926 0.66792 0.15371 0.0
C158 C 0.96797 0.69308 0.19662 0.0
H159 H 0.9819 0.68888 0.12339 0.0
H160 H 0.92756 0.81925 0.41762 0.0
H161 H 0.92569 0.74577 0.36732 0.0
H162 H 0.05942 0.81393 0.30247 0.0
H163 H 0.06046 0.88636 0.35145 0.0
H164 H 0.02312 0.73723 0.27163 0.0
H165 H 0.92194 0.68986 0.30583 0.0
H166 H 0.92414 0.59857 0.26542 0.0
H167 H 0.9274 0.55345 0.1892 0.0
C168 C 0.3114 1.01624 0.17848 0.0
C169 C 0.34795 0.98889 0.16842 0.0
C170 C 0.28812 1.01226 0.22187 0.0
C171 C 0.30072 0.9805 0.25588 0.0
C172 C 0.33648 0.9524 0.24532 0.0
C173 C 0.36039 0.957 0.20219 0.0
C174 C 0.27492 0.97437 0.30131 0.0
C175 C 0.26023 1.01176 0.32424 0.0
C176 C 0.2265 1.00732 0.36476 0.0
C177 C 0.21622 0.05019 0.38582 0.0
C178 C 0.17663 0.04897 0.41569 0.0
C179 C 0.14689 1.00476 0.42562 0.0
H180 H 0.20564 0.92865 0.36302 0.0
C181 C 0.16008 0.96148 0.40887 0.0
C182 C 0.19941 0.96265 0.37835 0.0
H183 H 0.13708 0.92698 0.4154 0.0
H184 H 0.30088 0.0408 0.15287 0.0
H185 H 0.25952 0.03329 0.22828 0.0
H186 H 0.34622 0.92718 0.27064 0.0
H187 H 0.38819 0.93518 0.19504 0.0
H188 H 0.26819 0.93847 0.31556 0.0
H189 H 0.27141 0.04781 0.31081 0.0
H190 H 0.23655 0.08507 0.37639 0.0
H191 H 0.16692 0.08284 0.42806 0.0
C192 C 0.99816 0.8687 0.663 0.0
C193 C 0.01797 0.8715 0.61739 0.0
C194 C 0.99885 0.82839 0.69052 0.0
C195 C 0.01896 0.78885 0.67342 0.0
C196 C 0.03982 0.79173 0.62829 0.0
C197 C 0.03906 0.83245 0.60039 0.0
C198 C 0.02012 0.74571 0.70329 0.0
C199 C 0.98508 0.73134 0.73516 0.0
C200 C 0.98556 0.69335 0.77134 0.0
C201 C 0.94822 0.68828 0.80473 0.0
C202 C 0.94877 0.65765 0.84269 0.0
C203 C 0.98623 0.63025 0.84822 0.0
H204 H 0.05167 0.66682 0.75079 0.0
C205 C 0.02236 0.63287 0.81365 0.0
C206 C 0.02227 0.6644 0.77565 0.0
H207 H 0.0521 0.61268 0.81744 0.0
H208 H 0.98206 0.89798 0.67802 0.0
H209 H 0.98432 0.82894 0.72575 0.0
H210 H 0.05635 0.76223 0.61441 0.0
H211 H 0.05507 0.83338 0.56573 0.0
H212 H 0.0504 0.72628 0.699 0.0
H213 H 0.9539 0.75007 0.73617 0.0
H214 H 0.91925 0.70966 0.80264 0.0
H215 H 0.92052 0.65659 0.86881 0.0
C216 C 0.33351 0.96325 0.89858 0.0
C217 C 0.37509 1.00044 0.9 0.0
C218 C 0.29788 0.96041 0.86227 0.0
C219 C 0.30332 0.99467 0.82672 0.0
C220 C 0.34704 0.02869 0.82546 0.0
C221 C 0.3826 0.0318 0.86199 0.0
C222 C 0.26275 0.99847 0.79282 0.0
C223 C 0.21523 0.98917 0.80492 0.0
C224 C 0.17541 1.00059 0.77377 0.0
C225 C 0.1286 0.97133 0.77364 0.0
C226 C 0.0914 0.97999 0.74229 0.0
C227 C 0.10063 1.01841 0.7112 0.0
H228 H 0.21839 0.06551 0.74574 0.0
C229 C 0.14637 0.04956 0.71366 0.0
C230 C 0.18343 0.04086 0.74478 0.0
H231 H 0.15407 0.0799 0.69053 0.0
H232 H 0.32708 0.93776 0.92676 0.0
H233 H 0.26544 0.93243 0.86301 0.0
H234 H 0.35232 0.05488 0.7978 0.0
H235 H 0.41465 0.06031 0.8616 0.0
H236 H 0.27259 1.01384 0.75877 0.0
H237 H 0.20496 0.97366 0.83879 0.0
H238 H 0.12139 0.94074 0.7965 0.0
H239 H 0.05625 0.95556 0.74106 0.0
C240 C 0.05272 0.42849 0.81357 0.0
C241 C 0.0746 0.42477 0.85856 0.0
C242 C 0.05675 0.39444 0.7768 0.0
C243 C 0.0828 0.35637 0.78481 0.0
C244 C 0.10751 0.35542 0.8288 0.0
C245 C 0.10348 0.38905 0.86507 0.0
C246 C 0.08069 0.31348 0.75179 0.0
C247 C 0.06906 0.31133 0.70483 0.0
C248 C 0.06501 0.26588 0.67422 0.0
C249 C 0.04597 0.26505 0.62727 0.0
C250 C 0.03852 0.22227 0.59874 0.0
C251 C 0.04943 0.17924 0.61686 0.0
H252 H 0.0951 0.22112 0.72561 0.0
C253 C 0.07026 0.18046 0.66285 0.0
C254 C 0.07852 0.22304 0.69087 0.0
H255 H 0.07984 0.14805 0.67758 0.0
H256 H 0.02929 0.45504 0.80804 0.0
H257 H 0.03669 0.39614 0.74363 0.0
H258 H 0.12783 0.3267 0.8362 0.0
H259 H 0.12014 0.3849 0.89954 0.0
H260 H 0.08858 0.28157 0.76865 0.0
H261 H 0.06127 0.34358 0.68818 0.0
H262 H 0.03567 0.2973 0.61295 0.0
H263 H 0.02233 0.22238 0.56337 0.0
C264 C 0.66565 0.061 0.80402 0.0
C265 C 0.68263 0.04628 0.8476 0.0
C266 C 0.6927 0.05817 0.76313 0.0
C267 C 0.73721 0.04041 0.76521 0.0
C268 C 0.75421 0.02609 0.80895 0.0
C269 C 0.7274 0.02929 0.84981 0.0
C270 C 0.76569 0.03375 0.72244 0.0
C271 C 0.76414 0.05882 0.6826 0.0
C272 C 0.79625 0.05181 0.64265 0.0
C273 C 0.82091 0.09207 0.61931 0.0
C274 C 0.85863 0.08693 0.58833 0.0
C275 C 0.87176 0.04134 0.58025 0.0
H276 H 0.78596 0.97368 0.64644 0.0
C277 C 0.84316 1.00046 0.59947 0.0
C278 C 0.80573 1.00561 0.63032 0.0
H279 H 0.852 0.96476 0.59329 0.0
H280 H 0.63109 0.07406 0.80138 0.0
H281 H 0.67789 0.06853 0.7299 0.0
H282 H 0.78827 1.01207 0.8115 0.0
H283 H 0.74129 1.01756 0.88292 0.0
H284 H 0.79121 1.00849 0.72491 0.0
H285 H 0.74301 0.08786 0.68101 0.0
H286 H 0.81362 0.12794 0.62778 0.0
H287 H 0.8801 0.11909 0.57407 0.0
C288 C 0.13939 0.30746 0.03269 0.0
C289 C 0.14431 0.35211 0.01057 0.0
C290 C 0.17828 0.28142 0.03345 0.0
C291 C 0.22319 0.29948 0.01208 0.0
C292 C 0.22768 0.34388 0.98947 0.0
C293 C 0.18892 0.37006 0.98903 0.0
C294 C 0.26511 0.27215 0.01085 0.0
C295 C 0.27235 0.23964 0.04344 0.0
C296 C 0.31145 0.20888 0.04213 0.0
C297 C 0.30587 0.16858 0.07102 0.0
C298 C 0.33925 0.13668 0.0699 0.0
C299 C 0.37987 0.1443 0.04032 0.0
H300 H 0.35959 0.24876 0.99134 0.0
C301 C 0.38713 0.18576 0.0128 0.0
C302 C 0.35313 0.21769 0.01349 0.0
H303 H 0.41787 0.19243 0.98935 0.0
H304 H 0.10534 0.29249 0.04927 0.0
H305 H 0.17238 0.24667 0.04987 0.0
H306 H 0.26141 0.35852 0.97219 0.0
H307 H 0.19375 0.40418 0.97133 0.0
H308 H 0.29051 0.27947 0.9822 0.0
H309 H 0.24719 0.23379 0.07248 0.0
H310 H 0.27462 0.16081 0.09376 0.0
H311 H 0.33258 0.10528 0.09172 0.0
C312 C 0.17643 0.62715 0.99467 0.0
C313 C 0.13412 0.63516 0.0182 0.0
C314 C 0.22348 0.64983 0.01144 0.0
C315 C 0.22901 0.68071 0.05229 0.0
C316 C 0.18677 0.68748 0.07627 0.0
C317 C 0.14007 0.66537 0.0594 0.0
C318 C 0.27727 0.70837 0.07056 0.0
C319 C 0.31629 0.72223 0.04323 0.0
C320 C 0.35792 0.76229 0.05729 0.0
C321 C 0.39959 0.77032 0.02891 0.0
C322 C 0.43305 0.8142 0.03283 0.0
C323 C 0.42494 0.85082 0.06494 0.0
H324 H 0.32194 0.79365 0.11554 0.0
C325 C 0.38651 0.84095 0.0967 0.0
C326 C 0.35335 0.79725 0.09305 0.0
H327 H 0.3792 0.869 0.12133 0.0
H328 H 0.17321 0.60368 0.96316 0.0
H329 H 0.25518 0.64283 0.9925 0.0
H330 H 0.18976 0.71101 0.10777 0.0
H331 H 0.10854 0.67214 0.07888 0.0
H332 H 0.27837 0.72204 0.10699 0.0
H333 H 0.31556 0.70781 0.00705 0.0
H334 H 0.40421 0.74419 1.00112 0.0
H335 H 0.46196 0.82135 0.00739 0.0
C336 C 0.62651 0.20041 0.90433 0.0
C337 C 0.5872 0.19018 0.93507 0.0
C338 C 0.65889 0.2446 0.90832 0.0
C339 C 0.65258 0.27963 0.94338 0.0
C340 C 0.61006 0.2712 0.97053 0.0
C341 C 0.57736 0.22688 0.96621 0.0
C342 C 0.69347 0.31999 0.95834 0.0
C343 C 0.73224 0.33527 0.93114 0.0
C344 C 0.78052 0.36264 0.9498 0.0
C345 C 0.82236 0.35862 0.92389 0.0
C346 C 0.86925 0.37971 0.94113 0.0
C347 C 0.87578 0.4061 0.98468 0.0
H348 H 0.75533 0.39495 0.01357 0.0
C349 C 0.83388 0.41171 0.0101 0.0
C350 C 0.78664 0.39004 0.99295 0.0
H351 H 0.83758 0.43227 0.0435 0.0
H352 H 0.63514 0.17233 0.88046 0.0
H353 H 0.69118 0.2486 0.88695 0.0
H354 H 0.60418 0.29739 0.99778 0.0
H355 H 0.54771 0.21951 0.99085 0.0
H356 H 0.69392 0.33323 0.9949 0.0
H357 H 0.73084 0.3228 0.89428 0.0
H358 H 0.81896 0.33789 0.89057 0.0
H359 H 0.90048 0.37509 0.92012 0.0
C360 C 0.86982 0.72816 0.96705 0.0
C361 C 0.86575 0.68569 0.99276 0.0
C362 C 0.83139 0.75473 0.96578 0.0
C363 C 0.78761 0.73929 0.99007 0.0
C364 C 0.78387 0.69689 0.01598 0.0
C365 C 0.82228 0.67026 0.01711 0.0
C366 C 0.74632 0.76749 0.99115 0.0
C367 C 0.73921 0.79978 0.95829 0.0
C368 C 0.7012 0.83164 0.96042 0.0
C369 C 0.70917 0.87402 0.9345 0.0
C370 C 0.67646 0.90655 0.93637 0.0
C371 C 0.63415 0.89748 0.96369 0.0
H372 H 0.64981 0.78876 0.00645 0.0
C373 C 0.62467 0.8541 0.9882 0.0
C374 C 0.65801 0.82153 0.98681 0.0
H375 H 0.59254 0.84621 0.00979 0.0
H376 H 0.90297 0.74116 0.94814 0.0
H377 H 0.83694 0.78791 0.94663 0.0
H378 H 0.75104 0.68424 0.03549 0.0
H379 H 0.8181 0.6378 0.03748 0.0
H380 H 0.72145 0.7615 0.0204 0.0
H381 H 0.76382 0.80506 0.92882 0.0
H382 H 0.7417 0.88281 0.91355 0.0
H383 H 0.68487 0.93946 0.91685 0.0
loop_
_geom_bond_atom_site_label_1
_geom_bond_atom_site_label_2
_geom_bond_distance
_geom_bond_site_symmetry_2
_ccdc_geom_bond_type
Co0 H3 2.400 . S
Co0 O4 2.009 . S
Co0 O12 2.113 1_565 S
Co0 O13 2.315 . S
Co0 O24 2.053 . S
Co0 O27 2.094 1_565 S
Co0 O30 2.122 1_665 S
Co1 O4 2.126 1_545 S
Co1 H5 2.388 1_655 S
Co1 O6 2.053 1_655 S
Co1 O9 2.047 1_655 S
Co1 O15 2.113 . S
Co1 O26 2.063 . S
Co2 H3 2.388 1_455 S
Co2 O4 2.053 1_455 S
Co2 O6 2.126 1_565 S
Co2 O11 2.063 . S
Co2 O25 2.047 1_455 S
Co2 O31 2.113 . S
H3 Co0 2.400 . S
H3 Co2 2.388 1_655 S
H3 O4 0.760 . S
O4 Co0 2.009 . S
O4 Co1 2.126 1_565 S
O4 Co2 2.053 1_655 S
O4 H3 0.760 . S
H5 Co1 2.388 1_455 S
H5 O6 0.760 . S
H5 Co7 2.400 . S
O6 Co1 2.053 1_455 S
O6 Co2 2.126 1_545 S
O6 H5 0.760 . S
O6 Co7 2.009 . S
Co7 H5 2.400 . S
Co7 O6 2.009 . S
Co7 O8 2.053 . S
Co7 O10 2.094 1_545 S
Co7 O14 2.122 1_445 S
Co7 O28 2.114 1_545 S
Co7 O29 2.315 . S
O8 Co7 2.053 . S
O8 C20 1.259 . S
O9 Co1 2.047 1_455 S
O9 C20 1.257 . S
O10 Co7 2.094 1_565 S
O10 C21 1.253 . S
O11 Co2 2.063 . S
O11 C21 1.268 . S
O12 Co0 2.113 1_545 S
O12 C22 1.285 1_545 S
O13 Co0 2.315 . S
O13 C22 1.253 . S
O14 Co7 2.122 1_665 S
O14 C23 1.272 1_565 S
O15 Co1 2.113 . S
O15 C23 1.245 . S
C16 O24 1.259 . S
C16 O25 1.257 . S
C17 O26 1.268 . S
C17 O27 1.253 . S
C18 O28 1.285 1_545 S
C18 O29 1.254 . S
C19 O30 1.272 1_565 S
C19 O31 1.245 . S
C20 O8 1.259 . S
C20 O9 1.257 . S
C21 O10 1.253 . S
C21 O11 1.268 . S
C22 O12 1.285 1_565 S
C22 O13 1.253 . S
C23 O14 1.272 1_545 S
C23 O15 1.245 . S
O24 Co0 2.053 . S
O24 C16 1.259 . S
O25 Co2 2.047 1_655 S
O25 C16 1.257 . S
O26 Co1 2.063 . S
O26 C17 1.268 . S
O27 Co0 2.094 1_545 S
O27 C17 1.253 . S
O28 Co7 2.114 1_565 S
O28 C18 1.285 1_565 S
O29 Co7 2.315 . S
O29 C18 1.254 . S
O30 Co0 2.122 1_445 S
O30 C19 1.272 1_545 S
O31 Co2 2.113 . S
O31 C19 1.245 . S
Co32 H35 2.400 1_545 S
Co32 O36 2.011 1_545 S
Co32 O44 2.115 . S
Co32 O45 2.315 . S
Co32 O56 2.053 1_545 S
Co32 O59 2.094 . S
Co32 O62 2.122 1_556 S
Co33 O36 2.110 1_545 S
Co33 H37 2.388 1_556 S
Co33 O38 2.070 1_556 S
Co33 O41 2.047 1_556 S
Co33 O47 2.113 . S
Co33 O58 2.063 . S
Co34 H35 2.388 1_554 S
Co34 O36 2.066 1_554 S
Co34 O38 2.105 1_565 S
Co34 O43 2.063 . S
Co34 O57 2.047 1_554 S
Co34 O63 2.113 . S
H35 Co32 2.400 1_565 S
H35 Co34 2.388 1_556 S
H35 O36 0.762 . S
O36 Co32 2.011 1_565 S
O36 Co33 2.110 1_565 S
O36 Co34 2.066 1_556 S
O36 H35 0.762 . S
H37 Co33 2.388 1_554 S
H37 O38 0.762 . S
H37 Co39 2.400 1_545 S
O38 Co33 2.070 1_554 S
O38 Co34 2.105 1_545 S
O38 H37 0.762 . S
O38 Co39 2.012 1_545 S
Co39 H37 2.400 1_565 S
Co39 O38 2.012 1_565 S
Co39 O40 2.053 1_565 S
Co39 O42 2.094 . S
Co39 O46 2.122 1_554 S
Co39 O60 2.115 . S
Co39 O61 2.315 . S
O40 Co39 2.053 1_545 S
O40 C52 1.259 . S
O41 Co33 2.047 1_554 S
O41 C52 1.257 . S
O42 Co39 2.094 . S
O42 C53 1.253 . S
O43 Co34 2.063 . S
O43 C53 1.268 . S
O44 Co32 2.115 . S
O44 C54 1.281 . S
O45 Co32 2.315 . S
O45 C54 1.252 . S
O46 Co39 2.122 1_556 S
O46 C55 1.272 1_565 S
O47 Co33 2.113 . S
O47 C55 1.245 . S
C48 O56 1.259 . S
C48 O57 1.257 . S
C49 O58 1.268 . S
C49 O59 1.253 . S
C50 O60 1.281 . S
C50 O61 1.252 . S
C51 O62 1.272 1_565 S
C51 O63 1.245 . S
C52 O40 1.259 . S
C52 O41 1.257 . S
C53 O42 1.253 . S
C53 O43 1.268 . S
C54 O44 1.281 . S
C54 O45 1.252 . S
C55 O46 1.272 1_545 S
C55 O47 1.245 . S
O56 Co32 2.053 1_565 S
O56 C48 1.259 . S
O57 Co34 2.047 1_556 S
O57 C48 1.257 . S
O58 Co33 2.063 . S
O58 C49 1.268 . S
O59 Co32 2.094 . S
O59 C49 1.253 . S
O60 Co39 2.115 . S
O60 C50 1.281 . S
O61 Co39 2.315 . S
O61 C50 1.252 . S
O62 Co32 2.122 1_554 S
O62 C51 1.272 1_545 S
O63 Co34 2.113 . S
O63 C51 1.245 . S
Co64 H67 2.399 1_554 S
Co64 O68 2.009 1_554 S
Co64 O76 2.116 . S
Co64 O77 2.317 . S
Co64 O88 2.032 1_554 S
Co64 O91 2.114 . S
Co64 O94 2.123 1_655 S
Co65 O68 2.126 1_554 S
Co65 H69 2.388 1_655 S
Co65 O70 2.053 1_655 S
Co65 O73 2.047 1_655 S
Co65 O79 2.113 . S
Co65 O90 2.063 . S
Co66 H67 2.388 1_455 S
Co66 O68 2.053 1_455 S
Co66 O70 2.126 1_556 S
Co66 O75 2.063 . S
Co66 O89 2.047 1_455 S
Co66 O95 2.113 . S
H67 Co64 2.399 1_556 S
H67 Co66 2.388 1_655 S
H67 O68 0.760 . S
O68 Co64 2.009 1_556 S
O68 Co65 2.126 1_556 S
O68 Co66 2.053 1_655 S
O68 H67 0.760 . S
H69 Co65 2.388 1_455 S
H69 O70 0.760 . S
H69 Co71 2.400 1_554 S
O70 Co65 2.053 1_455 S
O70 Co66 2.126 1_554 S
O70 H69 0.760 . S
O70 Co71 2.009 1_554 S
Co71 H69 2.400 1_556 S
Co71 O70 2.009 1_556 S
Co71 O72 2.038 1_556 S
Co71 O74 2.109 . S
Co71 O78 2.123 1_455 S
Co71 O92 2.116 . S
Co71 O93 2.316 . S
O72 Co71 2.038 1_554 S
O72 C84 1.259 . S
O73 Co65 2.047 1_455 S
O73 C84 1.257 . S
O74 Co71 2.109 . S
O74 C85 1.253 . S
O75 Co66 2.063 . S
O75 C85 1.268 . S
O76 Co64 2.116 . S
O76 C86 1.281 . S
O77 Co64 2.317 . S
O77 C86 1.252 . S
O78 Co71 2.123 1_655 S
O78 C87 1.272 1_556 S
O79 Co65 2.113 . S
O79 C87 1.245 . S
C80 O88 1.259 . S
C80 O89 1.257 . S
C81 O90 1.268 . S
C81 O91 1.253 . S
C82 O92 1.281 . S
C82 O93 1.252 . S
C83 O94 1.272 1_556 S
C83 O95 1.245 . S
C84 O72 1.259 . S
C84 O73 1.257 . S
C85 O74 1.253 . S
C85 O75 1.268 . S
C86 O76 1.281 . S
C86 O77 1.252 . S
C87 O78 1.272 1_554 S
C87 O79 1.245 . S
O88 Co64 2.032 1_556 S
O88 C80 1.259 . S
O89 Co66 2.047 1_655 S
O89 C80 1.257 . S
O90 Co65 2.063 . S
O90 C81 1.268 . S
O91 Co64 2.114 . S
O91 C81 1.253 . S
O92 Co71 2.116 . S
O92 C82 1.281 . S
O93 Co71 2.316 . S
O93 C82 1.252 . S
O94 Co64 2.123 1_455 S
O94 C83 1.272 1_554 S
O95 Co66 2.113 . S
O95 C83 1.245 . S
C96 C97 1.386 . S
C96 C98 1.383 . S
C96 H112 0.951 . S
C97 C96 1.386 . S
C97 C101 1.383 1_455 S
C98 C96 1.383 . S
C98 C99 1.402 1_455 S
C98 H113 0.951 . S
C99 C98 1.402 1_655 S
C99 C100 1.375 . S
C99 C102 1.481 . S
C100 C99 1.375 . S
C100 C101 1.367 . S
C100 H114 0.951 . S
C101 C97 1.383 1_655 S
C101 C100 1.367 . S
C101 H115 0.950 . S
C102 C99 1.481 . S
C102 C103 1.297 . S
C102 H116 0.950 . S
C103 C102 1.297 . S
C103 C104 1.479 . S
C103 H117 0.950 1_655 S
C104 C103 1.479 . S
C104 C105 1.375 1_655 S
C104 C110 1.404 . S
C105 C104 1.375 1_455 S
C105 C106 1.369 . S
C105 H118 0.950 . S
C106 C105 1.369 . S
C106 C107 1.392 1_455 S
C106 H119 0.951 . S
C107 C106 1.392 1_655 S
C107 C109 1.384 . S
H108 C110 0.949 . S
C109 C107 1.384 . S
C109 C110 1.385 . S
C109 H111 0.950 . S
C110 C104 1.404 . S
C110 H108 0.949 . S
C110 C109 1.385 . S
H111 C109 0.950 . S
H112 C96 0.951 . S
H113 C98 0.951 . S
H114 C100 0.951 . S
H115 C101 0.950 . S
H116 C102 0.950 . S
H117 C103 0.950 1_455 S
H118 C105 0.950 . S
H119 C106 0.951 . S
C120 C121 1.386 . S
C120 C122 1.383 . S
C120 H136 0.951 . S
C121 C120 1.386 . S
C121 C125 1.383 1_545 S
C122 C120 1.383 . S
C122 C123 1.402 1_545 S
C122 H137 0.951 . S
C123 C122 1.402 1_565 S
C123 C124 1.375 . S
C123 C126 1.481 . S
C124 C123 1.375 . S
C124 C125 1.367 . S
C124 H138 0.951 . S
C125 C121 1.383 1_565 S
C125 C124 1.367 . S
C125 H139 0.950 . S
C126 C123 1.481 . S
C126 C127 1.297 . S
C126 H140 0.950 . S
C127 C126 1.297 . S
C127 C128 1.479 . S
C127 H141 0.950 1_565 S
C128 C127 1.479 . S
C128 C129 1.375 1_565 S
C128 C134 1.404 . S
C129 C128 1.375 1_545 S
C129 C130 1.369 . S
C129 H142 0.950 . S
C130 C129 1.369 . S
C130 C131 1.392 1_545 S
C130 H143 0.951 . S
C131 C130 1.392 1_565 S
C131 C133 1.384 . S
H132 C134 0.949 . S
C133 C131 1.384 . S
C133 C134 1.385 . S
C133 H135 0.950 . S
C134 C128 1.404 . S
C134 H132 0.949 . S
C134 C133 1.385 . S
H135 C133 0.950 . S
H136 C120 0.951 . S
H137 C122 0.951 . S
H138 C124 0.951 . S
H139 C125 0.950 . S
H140 C126 0.950 . S
H141 C127 0.950 1_545 S
H142 C129 0.950 . S
H143 C130 0.951 . S
C144 C145 1.386 . S
C144 C146 1.383 . S
C144 H160 0.951 . S
C145 C144 1.386 . S
C145 C149 1.374 1_655 S
C146 C144 1.383 . S
C146 C147 1.402 . S
C146 H161 0.951 . S
C147 C146 1.402 . S
C147 C148 1.369 1_655 S
C147 C150 1.481 . S
C148 C147 1.369 1_455 S
C148 C149 1.367 . S
C148 H162 0.959 . S
C149 C145 1.374 1_455 S
C149 C148 1.367 . S
C149 H163 0.956 . S
C150 C147 1.481 . S
C150 C151 1.297 . S
C150 H164 0.950 . S
C151 C150 1.297 . S
C151 C152 1.479 . S
C151 H165 0.950 . S
C152 C151 1.479 . S
C152 C153 1.375 . S
C152 C158 1.404 . S
C153 C152 1.375 . S
C153 C154 1.369 . S
C153 H166 0.950 . S
C154 C153 1.369 . S
C154 C155 1.392 . S
C154 H167 0.951 . S
C155 C154 1.392 . S
C155 C157 1.384 . S
H156 C158 0.949 . S
C157 C155 1.384 . S
C157 C158 1.385 . S
C157 H159 0.961 . S
C158 C152 1.404 . S
C158 H156 0.949 . S
C158 C157 1.385 . S
H159 C157 0.961 . S
H160 C144 0.951 . S
H161 C146 0.951 . S
H162 C148 0.959 . S
H163 C149 0.956 . S
H164 C150 0.950 . S
H165 C151 0.950 . S
H166 C153 0.950 . S
H167 C154 0.951 . S
C168 C169 1.386 1_545 S
C168 C170 1.383 . S
C168 H184 0.951 . S
C169 C168 1.386 1_565 S
C169 C173 1.383 . S
C170 C168 1.383 . S
C170 C171 1.402 1_545 S
C170 H185 0.951 . S
C171 C170 1.402 1_565 S
C171 C172 1.375 . S
C171 C174 1.481 . S
C172 C171 1.375 . S
C172 C173 1.367 . S
C172 H186 0.951 . S
C173 C169 1.383 . S
C173 C172 1.367 . S
C173 H187 0.950 . S
C174 C171 1.481 . S
C174 C175 1.297 . S
C174 H188 0.950 . S
C175 C174 1.297 . S
C175 C176 1.479 . S
C175 H189 0.950 1_565 S
C176 C175 1.479 . S
C176 C177 1.375 1_565 S
C176 C182 1.404 . S
C177 C176 1.375 1_545 S
C177 C178 1.369 . S
C177 H190 0.950 . S
C178 C177 1.369 . S
C178 C179 1.392 1_545 S
C178 H191 0.951 . S
C179 C178 1.392 1_565 S
C179 C181 1.384 . S
H180 C182 0.949 . S
C181 C179 1.384 . S
C181 C182 1.385 . S
C181 H183 0.950 . S
C182 C176 1.404 . S
C182 H180 0.949 . S
C182 C181 1.385 . S
H183 C181 0.950 . S
H184 C168 0.951 . S
H185 C170 0.951 . S
H186 C172 0.951 . S
H187 C173 0.950 . S
H188 C174 0.950 . S
H189 C175 0.950 1_545 S
H190 C177 0.950 . S
H191 C178 0.951 . S
C192 C193 1.386 . S
C192 C194 1.382 . S
C192 H208 0.951 1_455 S
C193 C192 1.386 . S
C193 C197 1.383 . S
C194 C192 1.382 . S
C194 C195 1.420 . S
C194 H209 0.934 1_455 S
C195 C194 1.420 . S
C195 C196 1.375 . S
C195 C198 1.481 . S
C196 C195 1.375 . S
C196 C197 1.367 . S
C196 H210 0.951 . S
C197 C193 1.383 . S
C197 C196 1.367 . S
C197 H211 0.950 . S
C198 C195 1.481 . S
C198 C199 1.297 1_455 S
C198 H212 0.950 . S
C199 C198 1.297 1_655 S
C199 C200 1.479 . S
C199 H213 0.950 . S
C200 C199 1.479 . S
C200 C201 1.375 . S
C200 C206 1.404 1_655 S
C201 C200 1.375 . S
C201 C202 1.369 . S
C201 H214 0.950 . S
C202 C201 1.369 . S
C202 C203 1.392 . S
C202 H215 0.951 . S
C203 C202 1.392 . S
C203 C205 1.384 1_655 S
H204 C206 0.949 . S
C205 C203 1.384 1_455 S
C205 C206 1.385 . S
C205 H207 0.950 . S
C206 C200 1.404 1_455 S
C206 H204 0.949 . S
C206 C205 1.385 . S
H207 C205 0.950 . S
H208 C192 0.951 1_655 S
H209 C194 0.934 1_655 S
H210 C196 0.951 . S
H211 C197 0.950 . S
H212 C198 0.950 . S
H213 C199 0.950 . S
H214 C201 0.950 . S
H215 C202 0.951 . S
C216 C217 1.386 1_565 S
C216 C218 1.383 . S
C216 H232 0.951 . S
C217 C216 1.386 1_545 S
C217 C221 1.383 . S
C218 C216 1.383 . S
C218 C219 1.402 1_565 S
C218 H233 0.951 . S
C219 C218 1.402 1_545 S
C219 C220 1.375 . S
C219 C222 1.481 . S
C220 C219 1.375 . S
C220 C221 1.367 . S
C220 H234 0.951 . S
C221 C217 1.383 . S
C221 C220 1.367 . S
C221 H235 0.950 . S
C222 C219 1.481 . S
C222 C223 1.297 . S
C222 H236 0.950 . S
C223 C222 1.297 . S
C223 C224 1.479 . S
C223 H237 0.950 1_545 S
C224 C223 1.479 . S
C224 C225 1.375 1_545 S
C224 C230 1.404 . S
C225 C224 1.375 1_565 S
C225 C226 1.369 . S
C225 H238 0.950 . S
C226 C225 1.369 . S
C226 C227 1.403 . S
C226 H239 0.951 . S
C227 C226 1.403 . S
C227 C229 1.374 1_565 S
H228 C230 0.949 . S
C229 C227 1.374 1_545 S
C229 C230 1.385 . S
C229 H231 0.950 . S
C230 C224 1.404 . S
C230 H228 0.949 . S
C230 C229 1.385 . S
H231 C229 0.950 . S
H232 C216 0.951 . S
H233 C218 0.951 . S
H234 C220 0.951 . S
H235 C221 0.950 . S
H236 C222 0.950 . S
H237 C223 0.950 1_565 S
H238 C225 0.950 . S
H239 C226 0.951 . S
C240 C241 1.386 . S
C240 C242 1.383 . S
C240 H256 0.951 . S
C241 C240 1.386 . S
C241 C245 1.383 . S
C242 C240 1.383 . S
C242 C243 1.402 . S
C242 H257 0.951 . S
C243 C242 1.402 . S
C243 C244 1.375 . S
C243 C246 1.481 . S
C244 C243 1.375 . S
C244 C245 1.367 . S
C244 H258 0.951 . S
C245 C241 1.383 . S
C245 C244 1.367 . S
C245 H259 0.950 . S
C246 C243 1.481 . S
C246 C247 1.297 . S
C246 H260 0.950 . S
C247 C246 1.297 . S
C247 C248 1.479 . S
C247 H261 0.950 . S
C248 C247 1.479 . S
C248 C249 1.375 . S
C248 C254 1.404 . S
C249 C248 1.375 . S
C249 C250 1.369 . S
C249 H262 0.950 . S
C250 C249 1.369 . S
C250 C251 1.392 . S
C250 H263 0.951 . S
C251 C250 1.392 . S
C251 C253 1.384 . S
H252 C254 0.949 . S
C253 C251 1.384 . S
C253 C254 1.385 . S
C253 H255 0.950 . S
C254 C248 1.404 . S
C254 H252 0.949 . S
C254 C253 1.385 . S
H255 C253 0.950 . S
H256 C240 0.951 . S
H257 C242 0.951 . S
H258 C244 0.951 . S
H259 C245 0.950 . S
H260 C246 0.950 . S
H261 C247 0.950 . S
H262 C249 0.950 . S
H263 C250 0.951 . S
C264 C265 1.386 . S
C264 C266 1.383 . S
C264 H280 0.951 . S
C265 C264 1.386 . S
C265 C269 1.383 . S
C266 C264 1.383 . S
C266 C267 1.402 . S
C266 H281 0.951 . S
C267 C266 1.402 . S
C267 C268 1.375 . S
C267 C270 1.481 . S
C268 C267 1.375 . S
C268 C269 1.367 . S
C268 H282 0.951 1_545 S
C269 C265 1.383 . S
C269 C268 1.367 . S
C269 H283 0.950 1_545 S
C270 C267 1.481 . S
C270 C271 1.297 . S
C270 H284 0.950 . S
C271 C270 1.297 . S
C271 C272 1.479 . S
C271 H285 0.950 . S
C272 C271 1.479 . S
C272 C273 1.375 . S
C272 C278 1.404 . S
C273 C272 1.375 . S
C273 C274 1.369 . S
C273 H286 0.950 . S
C274 C273 1.369 . S
C274 C275 1.392 . S
C274 H287 0.951 . S
C275 C274 1.392 . S
C275 C277 1.384 . S
H276 C278 0.949 . S
C277 C275 1.384 . S
C277 C278 1.385 . S
C277 H279 0.950 1_545 S
C278 C272 1.404 . S
C278 H276 0.949 . S
C278 C277 1.385 . S
H279 C277 0.950 1_565 S
H280 C264 0.951 . S
H281 C266 0.951 . S
H282 C268 0.951 1_565 S
H283 C269 0.950 1_565 S
H284 C270 0.950 . S
H285 C271 0.950 . S
H286 C273 0.950 . S
H287 C274 0.951 . S
C288 C289 1.386 1_554 S
C288 C290 1.383 . S
C288 H304 0.951 . S
C289 C288 1.386 1_556 S
C289 C293 1.383 . S
C290 C288 1.383 . S
C290 C291 1.402 1_554 S
C290 H305 0.951 . S
C291 C290 1.402 1_556 S
C291 C292 1.375 . S
C291 C294 1.481 . S
C292 C291 1.375 . S
C292 C293 1.367 . S
C292 H306 0.951 . S
C293 C289 1.383 . S
C293 C292 1.367 . S
C293 H307 0.950 . S
C294 C291 1.481 . S
C294 C295 1.297 . S
C294 H308 0.950 . S
C295 C294 1.297 . S
C295 C296 1.480 1_556 S
C295 H309 0.950 1_556 S
C296 C295 1.480 1_554 S
C296 C297 1.375 . S
C296 C302 1.405 1_554 S
C297 C296 1.375 . S
C297 C298 1.369 . S
C297 H310 0.950 . S
C298 C297 1.369 . S
C298 C299 1.392 . S
C298 H311 0.951 . S
C299 C298 1.392 . S
C299 C301 1.384 1_554 S
H300 C302 0.949 . S
C301 C299 1.384 1_556 S
C301 C302 1.385 . S
C301 H303 0.950 . S
C302 C296 1.405 1_556 S
C302 H300 0.949 . S
C302 C301 1.385 . S
H303 C301 0.950 . S
H304 C288 0.951 . S
H305 C290 0.951 . S
H306 C292 0.951 . S
H307 C293 0.950 . S
H308 C294 0.950 . S
H309 C295 0.950 1_554 S
H310 C297 0.950 . S
H311 C298 0.951 . S
C312 C313 1.386 . S
C312 C314 1.383 . S
C312 H328 0.951 . S
C313 C312 1.386 . S
C313 C317 1.383 . S
C314 C312 1.383 . S
C314 C315 1.402 . S
C314 H329 0.951 . S
C315 C314 1.402 . S
C315 C316 1.375 . S
C315 C318 1.481 . S
C316 C315 1.375 . S
C316 C317 1.367 . S
C316 H330 0.951 . S
C317 C313 1.383 . S
C317 C316 1.367 . S
C317 H331 0.950 . S
C318 C315 1.481 . S
C318 C319 1.297 1_556 S
C318 H332 0.950 1_556 S
C319 C318 1.297 1_554 S
C319 C320 1.482 . S
C319 H333 0.948 1_554 S
C320 C319 1.482 . S
C320 C321 1.375 . S
C320 C326 1.404 . S
C321 C320 1.375 . S
C321 C322 1.369 . S
C321 H334 0.950 . S
C322 C321 1.369 . S
C322 C323 1.392 . S
C322 H335 0.951 . S
C323 C322 1.392 . S
C323 C325 1.384 . S
H324 C326 0.949 . S
C325 C323 1.384 . S
C325 C326 1.385 . S
C325 H327 0.950 . S
C326 C320 1.404 . S
C326 H324 0.949 . S
C326 C325 1.385 . S
H327 C325 0.950 . S
H328 C312 0.951 . S
H329 C314 0.951 . S
H330 C316 0.951 . S
H331 C317 0.950 . S
H332 C318 0.950 1_554 S
H333 C319 0.948 1_556 S
H334 C321 0.950 . S
H335 C322 0.951 . S
C336 C337 1.386 . S
C336 C338 1.383 . S
C336 H352 0.951 . S
C337 C336 1.386 . S
C337 C341 1.393 . S
C338 C336 1.383 . S
C338 C339 1.402 . S
C338 H353 0.951 . S
C339 C338 1.402 . S
C339 C340 1.375 1_556 S
C339 C342 1.481 1_556 S
C340 C339 1.375 1_554 S
C340 C341 1.364 1_554 S
C340 H354 0.951 . S
C341 C337 1.393 . S
C341 C340 1.364 1_556 S
C341 H355 0.942 1_556 S
C342 C339 1.481 1_554 S
C342 C343 1.297 1_554 S
C342 H356 0.950 . S
C343 C342 1.297 1_556 S
C343 C344 1.479 . S
C343 H357 0.950 . S
C344 C343 1.479 . S
C344 C345 1.375 . S
C344 C350 1.404 1_556 S
C345 C344 1.375 . S
C345 C346 1.369 . S
C345 H358 0.950 . S
C346 C345 1.369 . S
C346 C347 1.392 1_556 S
C346 H359 0.951 . S
C347 C346 1.392 1_554 S
C347 C349 1.384 . S
H348 C350 0.949 . S
C349 C347 1.384 . S
C349 C350 1.385 . S
C349 H351 0.950 . S
C350 C344 1.404 1_554 S
C350 H348 0.949 . S
C350 C349 1.385 . S
H351 C349 0.950 . S
H352 C336 0.951 . S
H353 C338 0.951 . S
H354 C340 0.951 . S
H355 C341 0.942 1_554 S
H356 C342 0.950 . S
H357 C343 0.950 . S
H358 C345 0.950 . S
H359 C346 0.951 . S
C360 C361 1.386 1_556 S
C360 C362 1.383 . S
C360 H376 0.951 . S
C361 C360 1.386 1_554 S
C361 C365 1.383 . S
C362 C360 1.383 . S
C362 C363 1.402 1_556 S
C362 H377 0.951 . S
C363 C362 1.402 1_554 S
C363 C364 1.375 . S
C363 C366 1.481 . S
C364 C363 1.375 . S
C364 C365 1.367 . S
C364 H378 0.951 . S
C365 C361 1.383 . S
C365 C364 1.367 . S
C365 H379 0.950 . S
C366 C363 1.481 . S
C366 C367 1.297 1_554 S
C366 H380 0.950 . S
C367 C366 1.297 1_556 S
C367 C368 1.479 . S
C367 H381 0.950 . S
C368 C367 1.479 . S
C368 C369 1.375 . S
C368 C374 1.402 1_556 S
C369 C368 1.375 . S
C369 C370 1.369 . S
C369 H382 0.950 . S
C370 C369 1.369 . S
C370 C371 1.392 . S
C370 H383 0.951 . S
C371 C370 1.392 . S
C371 C373 1.384 1_556 S
H372 C374 0.950 . S
C373 C371 1.384 1_554 S
C373 C374 1.385 . S
C373 H375 0.950 . S
C374 C368 1.402 1_554 S
C374 H372 0.950 . S
C374 C373 1.385 . S
H375 C373 0.950 . S
H376 C360 0.951 . S
H377 C362 0.951 . S
H378 C364 0.951 . S
H379 C365 0.950 . S
H380 C366 0.950 . S
H381 C367 0.950 . S
H382 C369 0.950 . S
H383 C370 0.951 . S
C97 C84 2.109 . S
C107 C17 2.041 . S
C121 C22 0.903 1_545 S
C131 C51 0.854 . S
C145 C16 1.526 . S
C155 C81 1.495 . S
C169 C50 1.528 . S
C179 C19 1.384 . S
C193 C21 2.060 . S
C203 C80 2.120 . S
C217 C55 0.930 . S
C227 C18 0.932 1_565 S
C241 C85 1.493 . S
C251 C20 1.535 . S
C265 C54 1.519 . S
C275 C23 1.421 . S
C289 C82 2.063 . S
C299 C52 1.994 . S
C313 C83 0.908 . S
C323 C53 0.833 . S
C337 C49 0.880 . S
C347 C87 0.988 . S
C361 C86 2.039 . S
C371 C48 2.062 . S
