# Generated by pormake.
# Topology uky, (4)-cn, num edge types: 1
# Building blocks:
#     Node 0, Type 0, BuildingBlock: QUQFOY_clean_sbu_1, # of connection points: 4
#     Node 1, Type 0, BuildingBlock: QUQFOY_clean_sbu_1, # of connection points: 4
#     Node 2, Type 0, BuildingBlock: QUQFOY_clean_sbu_1, # of connection points: 4
#     Node 3, Type 0, BuildingBlock: QUQFOY_clean_sbu_1, # of connection points: 4
#     Node 4, Type 0, BuildingBlock: QUQFOY_clean_sbu_1, # of connection points: 4
#     Node 5, Type 0, BuildingBlock: QUQFOY_clean_sbu_1, # of connection points: 4
#     Node 6, Type 0, BuildingBlock: QUQFOY_clean_sbu_1, # of connection points: 4
#     Node 7, Type 0, BuildingBlock: QUQFOY_clean_sbu_1, # of connection points: 4
#     Node 8, Type 0, BuildingBlock: QUQFOY_clean_sbu_1, # of connection points: 4
#     Node 9, Type 0, BuildingBlock: QUQFOY_clean_sbu_1, # of connection points: 4
#     Node 10, Type 0, BuildingBlock: QUQFOY_clean_sbu_1, # of connection points: 4
#     Node 11, Type 0, BuildingBlock: QUQFOY_clean_sbu_1, # of connection points: 4
#     Node 12, Type 0, BuildingBlock: QUQFOY_clean_sbu_1, # of connection points: 4
#     Node 13, Type 0, BuildingBlock: QUQFOY_clean_sbu_1, # of connection points: 4
#     Node 14, Type 0, BuildingBlock: QUQFOY_clean_sbu_1, # of connection points: 4
#     Node 15, Type 0, BuildingBlock: QUQFOY_clean_sbu_1, # of connection points: 4
#     Node 16, Type 0, BuildingBlock: QUQFOY_clean_sbu_1, # of connection points: 4
#     Node 17, Type 0, BuildingBlock: QUQFOY_clean_sbu_1, # of connection points: 4
#     Node 18, Type 0, BuildingBlock: QUQFOY_clean_sbu_1, # of connection points: 4
#     Node 19, Type 0, BuildingBlock: QUQFOY_clean_sbu_1, # of connection points: 4
#     Node 20, Type 0, BuildingBlock: QUQFOY_clean_sbu_1, # of connection points: 4
#     Node 21, Type 0, BuildingBlock: QUQFOY_clean_sbu_1, # of connection points: 4
#     Node 22, Type 0, BuildingBlock: QUQFOY_clean_sbu_1, # of connection points: 4
#     Node 23, Type 0, BuildingBlock: QUQFOY_clean_sbu_1, # of connection points: 4
#     Node 24, Type 0, BuildingBlock: QUQFOY_clean_sbu_1, # of connection points: 4
#     Node 25, Type 0, BuildingBlock: QUQFOY_clean_sbu_1, # of connection points: 4
#     Node 26, Type 0, BuildingBlock: QUQFOY_clean_sbu_1, # of connection points: 4
#     Node 27, Type 0, BuildingBlock: QUQFOY_clean_sbu_1, # of connection points: 4
#     Node 28, Type 0, BuildingBlock: QUQFOY_clean_sbu_1, # of connection points: 4
#     Node 29, Type 0, BuildingBlock: QUQFOY_clean_sbu_1, # of connection points: 4
#     Node 30, Type 0, BuildingBlock: QUQFOY_clean_sbu_1, # of connection points: 4
#     Node 31, Type 0, BuildingBlock: QUQFOY_clean_sbu_1, # of connection points: 4
#     Node 32, Type 0, BuildingBlock: QUQFOY_clean_sbu_1, # of connection points: 4
#     Node 33, Type 0, BuildingBlock: QUQFOY_clean_sbu_1, # of connection points: 4
#     Node 34, Type 0, BuildingBlock: QUQFOY_clean_sbu_1, # of connection points: 4
#     Node 35, Type 0, BuildingBlock: QUQFOY_clean_sbu_1, # of connection points: 4
#     Node 36, Type 0, BuildingBlock: QUQFOY_clean_sbu_1, # of connection points: 4
#     Node 37, Type 0, BuildingBlock: QUQFOY_clean_sbu_1, # of connection points: 4
#     Node 38, Type 0, BuildingBlock: QUQFOY_clean_sbu_1, # of connection points: 4
#     Node 39, Type 0, BuildingBlock: QUQFOY_clean_sbu_1, # of connection points: 4
#     Node 40, Type 0, BuildingBlock: QUQFOY_clean_sbu_1, # of connection points: 4
#     Node 41, Type 0, BuildingBlock: QUQFOY_clean_sbu_1, # of connection points: 4
#     Node 42, Type 0, BuildingBlock: QUQFOY_clean_sbu_1, # of connection points: 4
#     Node 43, Type 0, BuildingBlock: QUQFOY_clean_sbu_1, # of connection points: 4
#     Node 44, Type 0, BuildingBlock: QUQFOY_clean_sbu_1, # of connection points: 4
#     Node 45, Type 0, BuildingBlock: QUQFOY_clean_sbu_1, # of connection points: 4
#     Node 46, Type 0, BuildingBlock: QUQFOY_clean_sbu_1, # of connection points: 4
#     Node 47, Type 0, BuildingBlock: QUQFOY_clean_sbu_1, # of connection points: 4
#     Edge 48, Type (0, 0), BuildingBlock: OJICUG_clean_linker_0, # of connection points: 2
#     Edge 49, Type (0, 0), BuildingBlock: OJICUG_clean_linker_0, # of connection points: 2
#     Edge 50, Type (0, 0), BuildingBlock: OJICUG_clean_linker_0, # of connection points: 2
#     Edge 51, Type (0, 0), BuildingBlock: OJICUG_clean_linker_0, # of connection points: 2
#     Edge 52, Type (0, 0), BuildingBlock: OJICUG_clean_linker_0, # of connection points: 2
#     Edge 53, Type (0, 0), BuildingBlock: OJICUG_clean_linker_0, # of connection points: 2
#     Edge 54, Type (0, 0), BuildingBlock: OJICUG_clean_linker_0, # of connection points: 2
#     Edge 55, Type (0, 0), BuildingBlock: OJICUG_clean_linker_0, # of connection points: 2
#     Edge 56, Type (0, 0), BuildingBlock: OJICUG_clean_linker_0, # of connection points: 2
#     Edge 57, Type (0, 0), BuildingBlock: OJICUG_clean_linker_0, # of connection points: 2
#     Edge 58, Type (0, 0), BuildingBlock: OJICUG_clean_linker_0, # of connection points: 2
#     Edge 59, Type (0, 0), BuildingBlock: OJICUG_clean_linker_0, # of connection points: 2
#     Edge 60, Type (0, 0), BuildingBlock: OJICUG_clean_linker_0, # of connection points: 2
#     Edge 61, Type (0, 0), BuildingBlock: OJICUG_clean_linker_0, # of connection points: 2
#     Edge 62, Type (0, 0), BuildingBlock: OJICUG_clean_linker_0, # of connection points: 2
#     Edge 63, Type (0, 0), BuildingBlock: OJICUG_clean_linker_0, # of connection points: 2
#     Edge 64, Type (0, 0), BuildingBlock: OJICUG_clean_linker_0, # of connection points: 2
#     Edge 65, Type (0, 0), BuildingBlock: OJICUG_clean_linker_0, # of connection points: 2
#     Edge 66, Type (0, 0), BuildingBlock: OJICUG_clean_linker_0, # of connection points: 2
#     Edge 67, Type (0, 0), BuildingBlock: OJICUG_clean_linker_0, # of connection points: 2
#     Edge 68, Type (0, 0), BuildingBlock: OJICUG_clean_linker_0, # of connection points: 2
#     Edge 69, Type (0, 0), BuildingBlock: OJICUG_clean_linker_0, # of connection points: 2
#     Edge 70, Type (0, 0), BuildingBlock: OJICUG_clean_linker_0, # of connection points: 2
#     Edge 71, Type (0, 0), BuildingBlock: OJICUG_clean_linker_0, # of connection points: 2
#     Edge 72, Type (0, 0), BuildingBlock: OJICUG_clean_linker_0, # of connection points: 2
#     Edge 73, Type (0, 0), BuildingBlock: OJICUG_clean_linker_0, # of connection points: 2
#     Edge 74, Type (0, 0), BuildingBlock: OJICUG_clean_linker_0, # of connection points: 2
#     Edge 75, Type (0, 0), BuildingBlock: OJICUG_clean_linker_0, # of connection points: 2
#     Edge 76, Type (0, 0), BuildingBlock: OJICUG_clean_linker_0, # of connection points: 2
#     Edge 77, Type (0, 0), BuildingBlock: OJICUG_clean_linker_0, # of connection points: 2
#     Edge 78, Type (0, 0), BuildingBlock: OJICUG_clean_linker_0, # of connection points: 2
#     Edge 79, Type (0, 0), BuildingBlock: OJICUG_clean_linker_0, # of connection points: 2
#     Edge 80, Type (0, 0), BuildingBlock: OJICUG_clean_linker_0, # of connection points: 2
#     Edge 81, Type (0, 0), BuildingBlock: OJICUG_clean_linker_0, # of connection points: 2
#     Edge 82, Type (0, 0), BuildingBlock: OJICUG_clean_linker_0, # of connection points: 2
#     Edge 83, Type (0, 0), BuildingBlock: OJICUG_clean_linker_0, # of connection points: 2
#     Edge 84, Type (0, 0), BuildingBlock: OJICUG_clean_linker_0, # of connection points: 2
#     Edge 85, Type (0, 0), BuildingBlock: OJICUG_clean_linker_0, # of connection points: 2
#     Edge 86, Type (0, 0), BuildingBlock: OJICUG_clean_linker_0, # of connection points: 2
#     Edge 87, Type (0, 0), BuildingBlock: OJICUG_clean_linker_0, # of connection points: 2
#     Edge 88, Type (0, 0), BuildingBlock: OJICUG_clean_linker_0, # of connection points: 2
#     Edge 89, Type (0, 0), BuildingBlock: OJICUG_clean_linker_0, # of connection points: 2
#     Edge 90, Type (0, 0), BuildingBlock: OJICUG_clean_linker_0, # of connection points: 2
#     Edge 91, Type (0, 0), BuildingBlock: OJICUG_clean_linker_0, # of connection points: 2
#     Edge 92, Type (0, 0), BuildingBlock: OJICUG_clean_linker_0, # of connection points: 2
#     Edge 93, Type (0, 0), BuildingBlock: OJICUG_clean_linker_0, # of connection points: 2
#     Edge 94, Type (0, 0), BuildingBlock: OJICUG_clean_linker_0, # of connection points: 2
#     Edge 95, Type (0, 0), BuildingBlock: OJICUG_clean_linker_0, # of connection points: 2
#     Edge 96, Type (0, 0), BuildingBlock: OJICUG_clean_linker_0, # of connection points: 2
#     Edge 97, Type (0, 0), BuildingBlock: OJICUG_clean_linker_0, # of connection points: 2
#     Edge 98, Type (0, 0), BuildingBlock: OJICUG_clean_linker_0, # of connection points: 2
#     Edge 99, Type (0, 0), BuildingBlock: OJICUG_clean_linker_0, # of connection points: 2
#     Edge 100, Type (0, 0), BuildingBlock: OJICUG_clean_linker_0, # of connection points: 2
#     Edge 101, Type (0, 0), BuildingBlock: OJICUG_clean_linker_0, # of connection points: 2
#     Edge 102, Type (0, 0), BuildingBlock: OJICUG_clean_linker_0, # of connection points: 2
#     Edge 103, Type (0, 0), BuildingBlock: OJICUG_clean_linker_0, # of connection points: 2
#     Edge 104, Type (0, 0), BuildingBlock: OJICUG_clean_linker_0, # of connection points: 2
#     Edge 105, Type (0, 0), BuildingBlock: OJICUG_clean_linker_0, # of connection points: 2
#     Edge 106, Type (0, 0), BuildingBlock: OJICUG_clean_linker_0, # of connection points: 2
#     Edge 107, Type (0, 0), BuildingBlock: OJICUG_clean_linker_0, # of connection points: 2
#     Edge 108, Type (0, 0), BuildingBlock: OJICUG_clean_linker_0, # of connection points: 2
#     Edge 109, Type (0, 0), BuildingBlock: OJICUG_clean_linker_0, # of connection points: 2
#     Edge 110, Type (0, 0), BuildingBlock: OJICUG_clean_linker_0, # of connection points: 2
#     Edge 111, Type (0, 0), BuildingBlock: OJICUG_clean_linker_0, # of connection points: 2
#     Edge 112, Type (0, 0), BuildingBlock: OJICUG_clean_linker_0, # of connection points: 2
#     Edge 113, Type (0, 0), BuildingBlock: OJICUG_clean_linker_0, # of connection points: 2
#     Edge 114, Type (0, 0), BuildingBlock: OJICUG_clean_linker_0, # of connection points: 2
#     Edge 115, Type (0, 0), BuildingBlock: OJICUG_clean_linker_0, # of connection points: 2
#     Edge 116, Type (0, 0), BuildingBlock: OJICUG_clean_linker_0, # of connection points: 2
#     Edge 117, Type (0, 0), BuildingBlock: OJICUG_clean_linker_0, # of connection points: 2
#     Edge 118, Type (0, 0), BuildingBlock: OJICUG_clean_linker_0, # of connection points: 2
#     Edge 119, Type (0, 0), BuildingBlock: OJICUG_clean_linker_0, # of connection points: 2
#     Edge 120, Type (0, 0), BuildingBlock: OJICUG_clean_linker_0, # of connection points: 2
#     Edge 121, Type (0, 0), BuildingBlock: OJICUG_clean_linker_0, # of connection points: 2
#     Edge 122, Type (0, 0), BuildingBlock: OJICUG_clean_linker_0, # of connection points: 2
#     Edge 123, Type (0, 0), BuildingBlock: OJICUG_clean_linker_0, # of connection points: 2
#     Edge 124, Type (0, 0), BuildingBlock: OJICUG_clean_linker_0, # of connection points: 2
#     Edge 125, Type (0, 0), BuildingBlock: OJICUG_clean_linker_0, # of connection points: 2
#     Edge 126, Type (0, 0), BuildingBlock: OJICUG_clean_linker_0, # of connection points: 2
#     Edge 127, Type (0, 0), BuildingBlock: OJICUG_clean_linker_0, # of connection points: 2
#     Edge 128, Type (0, 0), BuildingBlock: OJICUG_clean_linker_0, # of connection points: 2
#     Edge 129, Type (0, 0), BuildingBlock: OJICUG_clean_linker_0, # of connection points: 2
#     Edge 130, Type (0, 0), BuildingBlock: OJICUG_clean_linker_0, # of connection points: 2
#     Edge 131, Type (0, 0), BuildingBlock: OJICUG_clean_linker_0, # of connection points: 2
#     Edge 132, Type (0, 0), BuildingBlock: OJICUG_clean_linker_0, # of connection points: 2
#     Edge 133, Type (0, 0), BuildingBlock: OJICUG_clean_linker_0, # of connection points: 2
#     Edge 134, Type (0, 0), BuildingBlock: OJICUG_clean_linker_0, # of connection points: 2
#     Edge 135, Type (0, 0), BuildingBlock: OJICUG_clean_linker_0, # of connection points: 2
#     Edge 136, Type (0, 0), BuildingBlock: OJICUG_clean_linker_0, # of connection points: 2
#     Edge 137, Type (0, 0), BuildingBlock: OJICUG_clean_linker_0, # of connection points: 2
#     Edge 138, Type (0, 0), BuildingBlock: OJICUG_clean_linker_0, # of connection points: 2
#     Edge 139, Type (0, 0), BuildingBlock: OJICUG_clean_linker_0, # of connection points: 2
#     Edge 140, Type (0, 0), BuildingBlock: OJICUG_clean_linker_0, # of connection points: 2
#     Edge 141, Type (0, 0), BuildingBlock: OJICUG_clean_linker_0, # of connection points: 2
#     Edge 142, Type (0, 0), BuildingBlock: OJICUG_clean_linker_0, # of connection points: 2
#     Edge 143, Type (0, 0), BuildingBlock: OJICUG_clean_linker_0, # of connection points: 2
# Relax obj value: 0.297
# Max RMSD: 0.260
# Mean RMSD: 0.254
data_MOF--net-uky--node1-QUQFOY_clean_sbu_1--edge1-OJICUG_clean_linker_0
_symmetry_space_group_name_H-M    P1
_symmetry_Int_Tables_number       1
_symmetry_cell_setting            triclinic
loop_
_symmetry_equiv_pos_as_xyz
'x, y, z'
_cell_length_a     47.222722
_cell_length_b     47.22025
_cell_length_c     47.222462
_cell_angle_alpha  89.956352
_cell_angle_beta   89.972172
_cell_angle_gamma 89.958479
loop_
_atom_site_label
_atom_site_type_symbol
_atom_site_fract_x
_atom_site_fract_y
_atom_site_fract_z
_atom_type_partial_charge
O0 O 0.24825 0.17624 0.4276 0.0
Cd1 Cd 0.23272 0.17286 0.38674 0.0
Cd2 Cd 0.23865 0.22833 0.38743 0.0
O3 O 0.23823 0.22179 0.43058 0.0
O4 O 0.20389 0.14181 0.38472 0.0
O5 O 0.19343 0.1877 0.38449 0.0
C6 C 0.18504 0.16167 0.3854 0.0
C7 C 0.216 0.26684 0.36569 0.0
C8 C 0.24561 0.19867 0.44233 0.0
C9 C 0.27838 0.19487 0.3511 0.0
O10 O 0.27486 0.21682 0.36621 0.0
O11 O 0.26083 0.1745 0.35271 0.0
O12 O 0.23777 0.27017 0.38178 0.0
O13 O 0.20571 0.24163 0.36339 0.0
O14 O 0.07601 0.99512 0.67928 0.0
Cd15 Cd 0.08143 0.9825 0.63767 0.0
Cd16 Cd 0.02554 0.987 0.63782 0.0
O17 O 0.03026 0.9863 0.6812 0.0
O18 O 0.11539 0.95727 0.63747 0.0
O19 O 0.07163 0.94224 0.6292 0.0
C20 C 0.09814 0.93651 0.63302 0.0
C21 C 0.98798 0.96368 0.61527 0.0
C22 C 0.05328 0.99275 0.69354 0.0
C23 C 0.05932 0.02946 0.60383 0.0
O24 O 0.03668 0.02387 0.61727 0.0
O25 O 0.0807 0.01316 0.60598 0.0
O26 O 0.98392 0.9854 0.63125 0.0
O27 O 0.01345 0.95391 0.61335 0.0
O28 O 0.26361 0.8224 0.92796 0.0
Cd29 Cd 0.27592 0.82877 0.88635 0.0
Cd30 Cd 0.2711 0.77278 0.88558 0.0
O31 O 0.27202 0.77653 0.92907 0.0
O32 O 0.30014 0.86337 0.88673 0.0
O33 O 0.31636 0.82028 0.87717 0.0
C34 C 0.32133 0.84685 0.88152 0.0
C35 C 0.29368 0.73539 0.86191 0.0
C36 C 0.26581 0.7994 0.94182 0.0
C37 C 0.22873 0.80759 0.85249 0.0
O38 O 0.23422 0.78469 0.86553 0.0
O39 O 0.24515 0.8288 0.8549 0.0
O40 O 0.27209 0.7313 0.87808 0.0
O41 O 0.30383 0.76074 0.86051 0.0
O42 O 0.43106 0.01209 0.17686 0.0
Cd43 Cd 0.42496 0.02482 0.1353 0.0
Cd44 Cd 0.48099 0.01983 0.13464 0.0
O45 O 0.47695 0.02028 0.17808 0.0
O46 O 0.39058 0.04941 0.13566 0.0
O47 O 0.43389 0.06524 0.12647 0.0
C48 C 0.40732 0.07046 0.13067 0.0
C49 C 0.51901 0.0422 0.11183 0.0
C50 C 0.45403 0.01405 0.19076 0.0
C51 C 0.44626 0.97799 0.10091 0.0
O52 O 0.46912 0.98328 0.11406 0.0
O53 O 0.42503 0.99439 0.1035 0.0
O54 O 0.52257 0.02035 0.12777 0.0
O55 O 0.49382 0.0527 0.11013 0.0
O56 O 0.24594 0.82242 0.07647 0.0
Cd57 Cd 0.23295 0.82862 0.11792 0.0
Cd58 Cd 0.23828 0.77272 0.11881 0.0
O59 O 0.2381 0.77646 0.07533 0.0
O60 O 0.20824 0.86293 0.11728 0.0
O61 O 0.1925 0.8196 0.12653 0.0
C62 C 0.18722 0.84613 0.12222 0.0
C63 C 0.21539 0.7353 0.14204 0.0
C64 C 0.24423 0.79939 0.06262 0.0
C65 C 0.27969 0.80766 0.15274 0.0
O66 O 0.27468 0.78475 0.13957 0.0
O67 O 0.26316 0.82876 0.14995 0.0
O68 O 0.23731 0.73126 0.12631 0.0
O69 O 0.20511 0.76062 0.14322 0.0
O70 O 0.4313 0.99414 0.32547 0.0
Cd71 Cd 0.42531 0.98148 0.36705 0.0
Cd72 Cd 0.48133 0.98623 0.36753 0.0
O73 O 0.47719 0.98587 0.32408 0.0
O74 O 0.39105 0.95678 0.3669 0.0
O75 O 0.43447 0.94113 0.37593 0.0
C76 C 0.40792 0.9358 0.37189 0.0
C77 C 0.51903 0.96335 0.3904 0.0
C78 C 0.45424 0.99214 0.31149 0.0
C79 C 0.44682 0.02821 0.4014 0.0
O80 O 0.46965 0.02282 0.38821 0.0
O81 O 0.42552 0.01193 0.39882 0.0
O82 O 0.52289 0.98519 0.37451 0.0
O83 O 0.49372 0.95315 0.39199 0.0
O84 O 0.26258 0.17411 0.57721 0.0
Cd85 Cd 0.2749 0.16841 0.61891 0.0
Cd86 Cd 0.27007 0.22428 0.61942 0.0
O87 O 0.27195 0.21978 0.57608 0.0
O88 O 0.30064 0.13491 0.61905 0.0
O89 O 0.3149 0.17889 0.62766 0.0
C90 C 0.32108 0.1525 0.62368 0.0
C91 C 0.29129 0.26294 0.6422 0.0
C92 C 0.26552 0.197 0.5633 0.0
C93 C 0.22762 0.18976 0.65253 0.0
O94 O 0.233 0.21244 0.63909 0.0
O95 O 0.24421 0.16861 0.65056 0.0
O96 O 0.26991 0.26597 0.62556 0.0
O97 O 0.30199 0.2379 0.64469 0.0
O98 O 0.07768 0.01137 0.82813 0.0
Cd99 Cd 0.0839 0.02427 0.86958 0.0
Cd100 Cd 0.028 0.01957 0.87057 0.0
O101 O 0.03189 0.02022 0.82715 0.0
O102 O 0.11782 0.04946 0.86892 0.0
O103 O 0.07423 0.0646 0.87803 0.0
C104 C 0.10067 0.07027 0.87363 0.0
C105 C 0.98993 0.04187 0.89336 0.0
C106 C 0.05465 0.0137 0.81435 0.0
C107 C 0.06277 0.97751 0.9041 0.0
O108 O 0.0399 0.98289 0.89099 0.0
O109 O 0.08399 0.9939 0.90154 0.0
O110 O 0.98644 0.02004 0.87741 0.0
O111 O 0.01511 0.05235 0.89513 0.0
O112 O 0.42628 0.24539 0.17698 0.0
Cd113 Cd 0.38478 0.23251 0.17114 0.0
Cd114 Cd 0.3844 0.23669 0.22693 0.0
O115 O 0.42779 0.23568 0.22257 0.0
O116 O 0.38504 0.20737 0.13719 0.0
O117 O 0.37654 0.1922 0.18091 0.0
C118 C 0.38061 0.18655 0.15442 0.0
C119 C 0.36152 0.21416 0.26482 0.0
C120 C 0.44034 0.24257 0.19977 0.0
C121 C 0.35063 0.27912 0.19304 0.0
O122 O 0.36421 0.27367 0.21562 0.0
O123 O 0.35274 0.26278 0.17174 0.0
O124 O 0.37782 0.23569 0.26854 0.0
O125 O 0.35947 0.20406 0.2395 0.0
O126 O 0.00679 0.17797 0.43068 0.0
Cd127 Cd 0.02227 0.13708 0.42704 0.0
Cd128 Cd 0.0165 0.13772 0.48238 0.0
O129 O 0.01699 0.18094 0.47616 0.0
O130 O 0.05002 0.13496 0.39503 0.0
O131 O 0.06206 0.13468 0.44054 0.0
C132 C 0.06952 0.13542 0.41421 0.0
C133 C 0.03943 0.11521 0.52026 0.0
C134 C 0.00949 0.1927 0.4531 0.0
C135 C 0.97653 0.10168 0.44919 0.0
O136 O 0.98006 0.11685 0.47109 0.0
O137 O 0.99412 0.10316 0.42884 0.0
O138 O 0.01788 0.13152 0.52413 0.0
O139 O 0.04942 0.11321 0.49489 0.0
O140 O 0.07687 0.76102 0.68142 0.0
Cd141 Cd 0.1183 0.77405 0.67506 0.0
Cd142 Cd 0.11958 0.76772 0.73089 0.0
O143 O 0.07611 0.76823 0.72748 0.0
O144 O 0.11738 0.79923 0.64109 0.0
O145 O 0.12695 0.81441 0.68453 0.0
C146 C 0.12241 0.82004 0.6581 0.0
C147 C 0.1429 0.7895 0.76885 0.0
C148 C 0.0632 0.76248 0.7046 0.0
C149 C 0.15323 0.72687 0.69495 0.0
O150 O 0.14017 0.73147 0.71802 0.0
O151 O 0.15037 0.74381 0.67418 0.0
O152 O 0.12711 0.76755 0.77233 0.0
O153 O 0.14414 0.80043 0.74381 0.0
O154 O 0.49563 0.82819 0.92853 0.0
Cd155 Cd 0.48303 0.86976 0.9225 0.0
Cd156 Cd 0.4878 0.8704 0.97839 0.0
O157 O 0.48666 0.82699 0.97428 0.0
O158 O 0.45806 0.86939 0.88845 0.0
O159 O 0.44272 0.87833 0.932 0.0
C160 C 0.43718 0.87406 0.90552 0.0
C161 C 0.46545 0.89341 0.01627 0.0
C162 C 0.49306 0.81427 0.95146 0.0
C163 C 0.52995 0.90389 0.94377 0.0
O164 O 0.52462 0.8906 0.96656 0.0
O165 O 0.51349 0.90155 0.92258 0.0
O166 O 0.48712 0.87726 0.01995 0.0
O167 O 0.45513 0.89523 0.99102 0.0
O168 O 0.42745 0.7602 0.32764 0.0
Cd169 Cd 0.38594 0.77321 0.33321 0.0
Cd170 Cd 0.38554 0.7676 0.27737 0.0
O171 O 0.42892 0.76844 0.28176 0.0
O172 O 0.38622 0.79883 0.36678 0.0
O173 O 0.37761 0.81339 0.32289 0.0
C174 C 0.3817 0.8194 0.34929 0.0
C175 C 0.36306 0.78939 0.23881 0.0
C176 C 0.44149 0.76228 0.30474 0.0
C177 C 0.35154 0.72625 0.31249 0.0
O178 O 0.36495 0.73115 0.28968 0.0
O179 O 0.35393 0.74299 0.33345 0.0
O180 O 0.37906 0.76751 0.23573 0.0
O181 O 0.36108 0.80022 0.26384 0.0
O182 O 0.49583 0.1774 0.57444 0.0
Cd183 Cd 0.48345 0.13575 0.58053 0.0
Cd184 Cd 0.48848 0.13506 0.52444 0.0
O185 O 0.48784 0.17848 0.5285 0.0
O186 O 0.45861 0.13583 0.61472 0.0
O187 O 0.4432 0.12662 0.57128 0.0
C188 C 0.43775 0.13067 0.59781 0.0
C189 C 0.46616 0.11239 0.48636 0.0
C190 C 0.49384 0.19124 0.55139 0.0
C191 C 0.53037 0.10135 0.55924 0.0
O192 O 0.52504 0.11443 0.53633 0.0
O193 O 0.51403 0.10405 0.5805 0.0
O194 O 0.48803 0.12829 0.48285 0.0
O195 O 0.45564 0.11064 0.51154 0.0
O196 O 0.07761 0.24418 0.82282 0.0
Cd197 Cd 0.11927 0.23187 0.82882 0.0
Cd198 Cd 0.11952 0.23549 0.77281 0.0
O199 O 0.07609 0.23501 0.77711 0.0
O200 O 0.1194 0.2075 0.8634 0.0
O201 O 0.12828 0.19145 0.82011 0.0
C202 C 0.12432 0.18636 0.84673 0.0
C203 C 0.14246 0.21157 0.73581 0.0
C204 C 0.06355 0.24167 0.79999 0.0
C205 C 0.15304 0.27859 0.80617 0.0
O206 O 0.13992 0.27253 0.78349 0.0
O207 O 0.15071 0.26271 0.82783 0.0
O208 O 0.12649 0.23323 0.73128 0.0
O209 O 0.14413 0.20219 0.76145 0.0
O210 O 0.01186 0.8274 0.07572 0.0
Cd211 Cd 0.02506 0.86879 0.0816 0.0
Cd212 Cd 0.02023 0.86938 0.02579 0.0
O213 O 0.02063 0.82591 0.02993 0.0
O214 O 0.05029 0.86821 0.11549 0.0
O215 O 0.06539 0.87693 0.07181 0.0
C216 C 0.07108 0.8727 0.09827 0.0
C217 C 0.04306 0.89235 0.98811 0.0
C218 C 0.01405 0.81338 0.05284 0.0
C219 C 0.97843 0.9034 0.06034 0.0
O220 O 0.98364 0.89005 0.03757 0.0
O221 O 0.99489 0.90091 0.08152 0.0
O222 O 0.02125 0.87646 0.98424 0.0
O223 O 0.05326 0.89388 0.01343 0.0
O224 O 0.17907 0.42797 0.24775 0.0
Cd225 Cd 0.17313 0.38638 0.23527 0.0
Cd226 Cd 0.22917 0.38597 0.23908 0.0
O227 O 0.22481 0.42938 0.2387 0.0
O228 O 0.13881 0.38639 0.21058 0.0
O229 O 0.18229 0.37764 0.19491 0.0
C230 C 0.15572 0.38161 0.18959 0.0
C231 C 0.26646 0.36337 0.2153 0.0
C232 C 0.20195 0.44197 0.24528 0.0
C233 C 0.19558 0.35204 0.28174 0.0
O234 O 0.21829 0.36522 0.2759 0.0
O235 O 0.17398 0.35462 0.26583 0.0
O236 O 0.27073 0.37917 0.23711 0.0
O237 O 0.24092 0.36166 0.20571 0.0
O238 O 0.68066 0.07773 0.75909 0.0
Cd239 Cd 0.67485 0.11924 0.77199 0.0
Cd240 Cd 0.7307 0.11972 0.76662 0.0
O241 O 0.72654 0.07631 0.76728 0.0
O242 O 0.64097 0.11894 0.79726 0.0
O243 O 0.68465 0.12772 0.81225 0.0
C244 C 0.65819 0.12363 0.81799 0.0
C245 C 0.76866 0.14254 0.78896 0.0
C246 C 0.70358 0.06372 0.76111 0.0
C247 C 0.69585 0.15373 0.72508 0.0
O248 O 0.71866 0.14036 0.7301 0.0
O249 O 0.67478 0.15124 0.74169 0.0
O250 O 0.77226 0.12661 0.76712 0.0
O251 O 0.74346 0.1442 0.79945 0.0
O252 O 0.17619 0.42842 0.01454 0.0
Cd253 Cd 0.13463 0.42249 0.02732 0.0
Cd254 Cd 0.13391 0.47845 0.02248 0.0
O255 O 0.17732 0.47423 0.0232 0.0
O256 O 0.13492 0.38857 0.05255 0.0
O257 O 0.126 0.43222 0.06759 0.0
C258 C 0.13017 0.40575 0.0733 0.0
C259 C 0.11123 0.51683 0.04442 0.0
C260 C 0.19005 0.45139 0.01679 0.0
C261 C 0.10038 0.44378 0.98042 0.0
O262 O 0.11354 0.4666 0.9858 0.0
O263 O 0.10282 0.42254 0.99684 0.0
O264 O 0.12735 0.52009 0.02266 0.0
O265 O 0.10926 0.49172 0.05508 0.0
O266 O 0.82452 0.92837 0.26309 0.0
Cd267 Cd 0.83086 0.88682 0.27572 0.0
Cd268 Cd 0.77483 0.88597 0.27128 0.0
O269 O 0.77868 0.92942 0.27169 0.0
O270 O 0.86512 0.88719 0.30047 0.0
O271 O 0.82176 0.87784 0.31607 0.0
C272 C 0.84827 0.8821 0.32143 0.0
C273 C 0.737 0.8631 0.29393 0.0
C274 C 0.80148 0.94218 0.26525 0.0
C275 C 0.80942 0.85255 0.22893 0.0
O276 O 0.78652 0.86552 0.23457 0.0
O277 O 0.83079 0.85514 0.24512 0.0
O278 O 0.73328 0.87905 0.27211 0.0
O279 O 0.76227 0.8614 0.30422 0.0
O280 O 0.82849 0.07575 0.01065 0.0
Cd281 Cd 0.86983 0.08174 0.02393 0.0
Cd282 Cd 0.87061 0.0259 0.01881 0.0
O283 O 0.82715 0.02993 0.01926 0.0
O284 O 0.86904 0.11569 0.04902 0.0
O285 O 0.87792 0.0721 0.06432 0.0
C286 C 0.87356 0.09856 0.06989 0.0
C287 C 0.89358 0.98795 0.04119 0.0
C288 C 0.81454 0.05282 0.01277 0.0
C289 C 0.90462 0.06083 0.97733 0.0
O290 O 0.89127 0.03801 0.98233 0.0
O291 O 0.90205 0.08189 0.99392 0.0
O292 O 0.87768 0.98435 0.01933 0.0
O293 O 0.89511 0.01315 0.05169 0.0
O294 O 0.32761 0.57717 0.7401 0.0
Cd295 Cd 0.3336 0.61889 0.72798 0.0
Cd296 Cd 0.27763 0.61979 0.73299 0.0
O297 O 0.28184 0.57638 0.7312 0.0
O298 O 0.36736 0.61875 0.70259 0.0
O299 O 0.32364 0.62793 0.68788 0.0
C300 C 0.35005 0.62364 0.68197 0.0
C301 C 0.2392 0.64292 0.71158 0.0
C302 C 0.30462 0.56342 0.73735 0.0
C303 C 0.31261 0.65257 0.77541 0.0
O304 O 0.28974 0.6395 0.76999 0.0
O305 O 0.33374 0.65032 0.75885 0.0
O306 O 0.23599 0.62643 0.73307 0.0
O307 O 0.26428 0.64507 0.70089 0.0
O308 O 0.17677 0.57318 0.49417 0.0
Cd309 Cd 0.13511 0.5794 0.48203 0.0
Cd310 Cd 0.13453 0.52341 0.48622 0.0
O311 O 0.17798 0.52746 0.48505 0.0
O312 O 0.13524 0.61393 0.45764 0.0
O313 O 0.12605 0.57069 0.44165 0.0
C314 C 0.13025 0.59727 0.43653 0.0
C315 C 0.11114 0.48614 0.46326 0.0
C316 C 0.1907 0.55027 0.49149 0.0
C317 C 0.10128 0.55751 0.529 0.0
O318 O 0.11445 0.53474 0.52328 0.0
O319 O 0.10361 0.57893 0.51281 0.0
O320 O 0.12735 0.4819 0.48478 0.0
O321 O 0.10951 0.51161 0.45341 0.0
O322 O 0.32512 0.43017 0.99581 0.0
Cd323 Cd 0.36599 0.42634 0.98036 0.0
Cd324 Cd 0.36567 0.48177 0.98675 0.0
O325 O 0.3224 0.4759 0.9866 0.0
O326 O 0.36782 0.39483 0.95205 0.0
O327 O 0.36902 0.44051 0.94083 0.0
C328 C 0.36786 0.41435 0.93284 0.0
C329 C 0.38812 0.51996 0.96423 0.0
C330 C 0.31053 0.45277 0.99372 0.0
C331 C 0.40159 0.4476 0.02633 0.0
O332 O 0.38677 0.46978 0.02288 0.0
O333 O 0.39981 0.42735 0.00867 0.0
O334 O 0.37204 0.52352 0.986 0.0
O335 O 0.38994 0.49476 0.95382 0.0
O336 O 0.74149 0.68155 0.92962 0.0
Cd337 Cd 0.72915 0.67556 0.88795 0.0
Cd338 Cd 0.73473 0.73147 0.88734 0.0
O339 O 0.73376 0.72754 0.93077 0.0
O340 O 0.70427 0.64139 0.88813 0.0
O341 O 0.68884 0.68482 0.87877 0.0
C342 C 0.68338 0.65831 0.88298 0.0
C343 C 0.71266 0.76938 0.86406 0.0
C344 C 0.73962 0.70455 0.9435 0.0
C345 C 0.77669 0.69636 0.8541 0.0
O346 O 0.77147 0.71926 0.86721 0.0
O347 O 0.76002 0.67533 0.85647 0.0
O348 O 0.73434 0.773 0.88019 0.0
O349 O 0.70215 0.74419 0.86245 0.0
O350 O 0.57576 0.49403 0.17519 0.0
Cd351 Cd 0.58166 0.48139 0.1336 0.0
Cd352 Cd 0.52592 0.48644 0.1331 0.0
O353 O 0.53003 0.48502 0.17649 0.0
O354 O 0.6155 0.45607 0.13376 0.0
O355 O 0.57179 0.4412 0.12492 0.0
C356 C 0.59824 0.43538 0.12901 0.0
C357 C 0.48778 0.46477 0.10994 0.0
C358 C 0.55286 0.49148 0.18916 0.0
C359 C 0.56049 0.52862 0.09979 0.0
O360 O 0.5378 0.5234 0.11327 0.0
O361 O 0.58156 0.51193 0.10182 0.0
O362 O 0.48434 0.48622 0.12641 0.0
O363 O 0.51293 0.45424 0.10789 0.0
O364 O 0.7579 0.32658 0.42642 0.0
Cd365 Cd 0.77043 0.3323 0.38476 0.0
Cd366 Cd 0.76534 0.27635 0.38447 0.0
O367 O 0.76637 0.28073 0.42784 0.0
O368 O 0.79546 0.36632 0.38478 0.0
O369 O 0.81071 0.3227 0.37608 0.0
C370 C 0.81629 0.34921 0.38007 0.0
C371 C 0.78763 0.23823 0.36182 0.0
C372 C 0.76023 0.30369 0.44045 0.0
C373 C 0.7235 0.31092 0.35057 0.0
O374 O 0.72867 0.28817 0.364 0.0
O375 O 0.74 0.33207 0.35292 0.0
O376 O 0.76587 0.23474 0.37788 0.0
O377 O 0.79806 0.26343 0.35988 0.0
O378 O 0.92964 0.50909 0.68006 0.0
Cd379 Cd 0.92363 0.52217 0.63861 0.0
Cd380 Cd 0.97949 0.51596 0.63764 0.0
O381 O 0.97566 0.51653 0.6811 0.0
O382 O 0.88975 0.54743 0.63938 0.0
O383 O 0.93332 0.56251 0.63022 0.0
C384 C 0.90689 0.56821 0.63462 0.0
C385 C 0.01743 0.53806 0.6145 0.0
C386 C 0.9527 0.51073 0.69388 0.0
C387 C 0.94387 0.47521 0.60362 0.0
O388 O 0.96682 0.47975 0.61689 0.0
O389 O 0.92306 0.49211 0.60641 0.0
O390 O 0.02098 0.51608 0.63027 0.0
O391 O 0.99232 0.54883 0.61319 0.0
O392 O 0.74439 0.32699 0.5756 0.0
Cd393 Cd 0.73196 0.33295 0.61723 0.0
Cd394 Cd 0.73688 0.277 0.61793 0.0
O395 O 0.73566 0.2812 0.57452 0.0
O396 O 0.70673 0.36686 0.61701 0.0
O397 O 0.69176 0.3232 0.62605 0.0
C398 C 0.68601 0.34966 0.62184 0.0
C399 C 0.71471 0.23895 0.64089 0.0
C400 C 0.74189 0.30406 0.56173 0.0
C401 C 0.77901 0.3117 0.65133 0.0
O402 O 0.77368 0.28888 0.63812 0.0
O403 O 0.76253 0.33289 0.64893 0.0
O404 O 0.7364 0.2354 0.62473 0.0
O405 O 0.70429 0.26417 0.64277 0.0
O406 O 0.92975 0.49399 0.82896 0.0
Cd407 Cd 0.92361 0.48133 0.87049 0.0
Cd408 Cd 0.97943 0.48597 0.87123 0.0
O409 O 0.97546 0.48481 0.82777 0.0
O410 O 0.88956 0.45635 0.87002 0.0
O411 O 0.93309 0.441 0.87904 0.0
C412 C 0.90663 0.43546 0.8747 0.0
C413 C 0.01688 0.46332 0.89472 0.0
C414 C 0.95266 0.49133 0.81504 0.0
C415 C 0.94488 0.52826 0.90459 0.0
O416 O 0.96766 0.5229 0.8913 0.0
O417 O 0.9237 0.51179 0.90229 0.0
O418 O 0.02094 0.48488 0.87851 0.0
O419 O 0.99151 0.45325 0.8963 0.0
O420 O 0.75915 0.68153 0.07823 0.0
Cd421 Cd 0.7722 0.67548 0.11965 0.0
Cd422 Cd 0.76715 0.73135 0.12036 0.0
O423 O 0.76752 0.72739 0.0769 0.0
O424 O 0.79727 0.64145 0.11915 0.0
O425 O 0.81254 0.685 0.12808 0.0
C426 C 0.81811 0.65852 0.12388 0.0
C427 C 0.78984 0.76899 0.14342 0.0
C428 C 0.76115 0.7045 0.06428 0.0
C429 C 0.7255 0.69659 0.15431 0.0
O430 O 0.73064 0.71944 0.14105 0.0
O431 O 0.74199 0.67543 0.1517 0.0
O432 O 0.768 0.77287 0.12755 0.0
O433 O 0.80016 0.7437 0.14486 0.0
O434 O 0.57527 0.51006 0.3241 0.0
Cd435 Cd 0.58089 0.52244 0.36579 0.0
Cd436 Cd 0.52488 0.51681 0.36612 0.0
O437 O 0.52924 0.51751 0.32273 0.0
O438 O 0.61478 0.54765 0.36596 0.0
O439 O 0.57109 0.56258 0.37492 0.0
C440 C 0.59758 0.56833 0.37103 0.0
C441 C 0.48661 0.53898 0.38871 0.0
C442 C 0.55232 0.51178 0.31011 0.0
C443 C 0.55993 0.4752 0.39995 0.0
O444 O 0.53704 0.48034 0.38678 0.0
O445 O 0.58101 0.49177 0.3974 0.0
O446 O 0.48327 0.51709 0.37282 0.0
O447 O 0.51174 0.54961 0.39049 0.0
O448 O 0.92833 0.74318 0.68275 0.0
Cd449 Cd 0.8868 0.7304 0.67696 0.0
Cd450 Cd 0.8863 0.73628 0.73274 0.0
O451 O 0.92977 0.73529 0.72869 0.0
O452 O 0.88721 0.70538 0.64293 0.0
O453 O 0.87816 0.69007 0.68647 0.0
C454 C 0.88239 0.68452 0.65998 0.0
C455 C 0.86282 0.71424 0.77056 0.0
C456 C 0.94236 0.74128 0.70565 0.0
C457 C 0.85269 0.77778 0.69749 0.0
O458 O 0.86606 0.7729 0.72033 0.0
O459 O 0.855 0.76088 0.67664 0.0
O460 O 0.87897 0.73589 0.77426 0.0
O461 O 0.86136 0.7037 0.74538 0.0
O462 O 0.50869 0.67903 0.9288 0.0
Cd463 Cd 0.52094 0.63736 0.92292 0.0
Cd464 Cd 0.51655 0.63689 0.97878 0.0
O465 O 0.51777 0.6803 0.97452 0.0
O466 O 0.5462 0.63735 0.88898 0.0
O467 O 0.56114 0.6285 0.93267 0.0
C468 C 0.56692 0.63261 0.90622 0.0
C469 C 0.53975 0.6137 0.01606 0.0
C470 C 0.51138 0.693 0.95165 0.0
C471 C 0.4738 0.60363 0.9448 0.0
O472 O 0.47948 0.61684 0.96753 0.0
O473 O 0.4901 0.60586 0.92343 0.0
O474 O 0.51818 0.62986 0.02032 0.0
O475 O 0.54944 0.61194 0.99055 0.0
O476 O 0.5753 0.26068 0.17701 0.0
Cd477 Cd 0.61696 0.27306 0.17119 0.0
Cd478 Cd 0.61727 0.26834 0.22725 0.0
O479 O 0.57388 0.26906 0.22287 0.0
O480 O 0.61703 0.29803 0.13707 0.0
O481 O 0.62588 0.31332 0.18063 0.0
C482 C 0.6219 0.31886 0.1541 0.0
C483 C 0.6398 0.29096 0.26526 0.0
C484 C 0.56129 0.26288 0.19992 0.0
C485 C 0.65103 0.2261 0.19289 0.0
O486 O 0.63782 0.23162 0.21568 0.0
O487 O 0.6486 0.24238 0.17155 0.0
O488 O 0.62385 0.26915 0.26888 0.0
O489 O 0.64172 0.30123 0.23998 0.0
O490 O 0.99064 0.32727 0.42822 0.0
Cd491 Cd 0.97833 0.36894 0.4221 0.0
Cd492 Cd 0.98297 0.36976 0.47827 0.0
O493 O 0.98191 0.32636 0.47404 0.0
O494 O 0.95344 0.36877 0.38799 0.0
O495 O 0.93807 0.37798 0.43148 0.0
C496 C 0.93257 0.37376 0.40498 0.0
C497 C 0.96131 0.39231 0.51691 0.0
C498 C 0.98818 0.3135 0.45125 0.0
C499 C 0.02534 0.40296 0.44344 0.0
O500 O 0.01975 0.38997 0.46633 0.0
O501 O 0.00905 0.40049 0.42213 0.0
O502 O 0.98303 0.3761 0.51995 0.0
O503 O 0.95055 0.39452 0.49187 0.0
O504 O 0.92895 0.26147 0.82332 0.0
Cd505 Cd 0.88739 0.27408 0.82955 0.0
Cd506 Cd 0.88671 0.26939 0.77346 0.0
O507 O 0.93015 0.26978 0.77743 0.0
O508 O 0.88775 0.29841 0.86407 0.0
O509 O 0.87848 0.31455 0.82089 0.0
C510 C 0.88271 0.31958 0.84747 0.0
C511 C 0.86382 0.29207 0.73565 0.0
C512 C 0.94283 0.26349 0.80032 0.0
C513 C 0.85308 0.22729 0.80811 0.0
O514 O 0.86615 0.23276 0.78523 0.0
O515 O 0.85568 0.24355 0.82941 0.0
O516 O 0.87973 0.27022 0.73191 0.0
O517 O 0.86221 0.30238 0.76092 0.0
O518 O 0.99359 0.67888 0.07632 0.0
Cd519 Cd 0.98046 0.63748 0.08245 0.0
Cd520 Cd 0.98622 0.63649 0.02659 0.0
O521 O 0.98592 0.67997 0.03033 0.0
O522 O 0.95524 0.63823 0.11636 0.0
O523 O 0.94014 0.62906 0.07281 0.0
C524 C 0.93446 0.63343 0.09924 0.0
C525 C 0.96399 0.61345 0.98867 0.0
C526 C 0.99195 0.6927 0.05325 0.0
C527 C 0.02734 0.60257 0.06206 0.0
O528 O 0.02251 0.61572 0.03908 0.0
O529 O 0.01062 0.60536 0.08301 0.0
O530 O 0.98595 0.6292 0.98508 0.0
O531 O 0.95331 0.6121 0.01381 0.0
O532 O 0.57642 0.74443 0.32804 0.0
Cd533 Cd 0.61796 0.73159 0.33379 0.0
Cd534 Cd 0.61864 0.73712 0.27797 0.0
O535 O 0.57524 0.73623 0.28216 0.0
O536 O 0.61772 0.70564 0.36716 0.0
O537 O 0.62657 0.69158 0.32317 0.0
C538 C 0.62245 0.68528 0.3495 0.0
C539 C 0.64143 0.71521 0.23968 0.0
C540 C 0.56252 0.74234 0.30508 0.0
C541 C 0.65232 0.77864 0.31311 0.0
O542 O 0.63908 0.77363 0.29024 0.0
O543 O 0.64985 0.76195 0.33413 0.0
O544 O 0.62542 0.73705 0.23637 0.0
O545 O 0.64324 0.70449 0.26478 0.0
O546 O 0.5116 0.32633 0.57351 0.0
Cd547 Cd 0.5239 0.36805 0.57914 0.0
Cd548 Cd 0.519 0.36817 0.52316 0.0
O549 O 0.52004 0.32479 0.52766 0.0
O550 O 0.54873 0.36824 0.61331 0.0
O551 O 0.56417 0.37704 0.56977 0.0
C552 C 0.56962 0.37314 0.59632 0.0
C553 C 0.5413 0.39088 0.48504 0.0
C554 C 0.51388 0.31225 0.55068 0.0
C555 C 0.47676 0.40186 0.55753 0.0
O556 O 0.48219 0.38851 0.53481 0.0
O557 O 0.49317 0.39962 0.57877 0.0
O558 O 0.51963 0.37472 0.48153 0.0
O559 O 0.55166 0.39285 0.51026 0.0
O560 O 0.68026 0.9289 0.74309 0.0
Cd561 Cd 0.67422 0.88721 0.73089 0.0
Cd562 Cd 0.73012 0.88643 0.7366 0.0
O563 O 0.72623 0.92987 0.73528 0.0
O564 O 0.64018 0.88741 0.70587 0.0
O565 O 0.68368 0.87793 0.6907 0.0
C566 C 0.65721 0.88218 0.68509 0.0
C567 C 0.76818 0.86304 0.7149 0.0
C568 C 0.70329 0.94271 0.74107 0.0
C569 C 0.69476 0.8534 0.77851 0.0
O570 O 0.7177 0.86646 0.77336 0.0
O571 O 0.6738 0.85578 0.76175 0.0
O572 O 0.77165 0.87927 0.73652 0.0
O573 O 0.74306 0.86136 0.70424 0.0
O574 O 0.17903 0.57694 0.26274 0.0
Cd575 Cd 0.17301 0.61858 0.27504 0.0
Cd576 Cd 0.22898 0.61895 0.27087 0.0
O577 O 0.22472 0.57555 0.27197 0.0
O578 O 0.13867 0.61853 0.29966 0.0
O579 O 0.18207 0.62744 0.31538 0.0
C580 C 0.15551 0.62333 0.32067 0.0
C581 C 0.26675 0.64187 0.29348 0.0
C582 C 0.20188 0.56293 0.26542 0.0
C583 C 0.19494 0.65232 0.22808 0.0
O584 O 0.21765 0.63907 0.23383 0.0
O585 O 0.17353 0.65013 0.24429 0.0
O586 O 0.27058 0.62564 0.27192 0.0
O587 O 0.2414 0.64383 0.30356 0.0
O588 O 0.67873 0.92741 0.50999 0.0
Cd589 Cd 0.63707 0.92173 0.52243 0.0
Cd590 Cd 0.6367 0.97769 0.51758 0.0
O591 O 0.68007 0.97321 0.51865 0.0
O592 O 0.63701 0.88795 0.54785 0.0
O593 O 0.62828 0.93176 0.56256 0.0
C594 C 0.63228 0.90531 0.56847 0.0
C595 C 0.61412 0.01587 0.5399 0.0
C596 C 0.69272 0.95028 0.51242 0.0
C597 C 0.60306 0.94324 0.47542 0.0
O598 O 0.61634 0.966 0.48083 0.0
O599 O 0.60539 0.92198 0.49182 0.0
O600 O 0.6302 0.01934 0.51814 0.0
O601 O 0.61209 0.99066 0.55029 0.0
O602 O 0.32563 0.42765 0.75403 0.0
Cd603 Cd 0.32937 0.3869 0.76986 0.0
Cd604 Cd 0.27419 0.38711 0.76327 0.0
O605 O 0.28003 0.43036 0.76377 0.0
O606 O 0.36113 0.38548 0.79788 0.0
O607 O 0.31552 0.38477 0.80958 0.0
C608 C 0.34177 0.38592 0.81722 0.0
C609 C 0.23626 0.36452 0.78594 0.0
C610 C 0.30309 0.44227 0.75652 0.0
C611 C 0.30819 0.35085 0.72417 0.0
O612 O 0.28619 0.36601 0.72715 0.0
O613 O 0.32823 0.35262 0.74208 0.0
O614 O 0.23251 0.38062 0.76421 0.0
O615 O 0.26153 0.36277 0.79622 0.0
O616 O 0.32576 0.57328 0.50809 0.0
Cd617 Cd 0.36749 0.57943 0.52013 0.0
Cd618 Cd 0.36817 0.52337 0.51516 0.0
O619 O 0.32473 0.52735 0.51618 0.0
O620 O 0.36742 0.61385 0.54461 0.0
O621 O 0.37682 0.57057 0.56044 0.0
C622 C 0.37267 0.59714 0.56564 0.0
C623 C 0.39142 0.48575 0.53776 0.0
C624 C 0.31193 0.55027 0.51025 0.0
C625 C 0.40151 0.55806 0.47294 0.0
O626 O 0.38843 0.53518 0.47836 0.0
O627 O 0.39898 0.57929 0.48932 0.0
O628 O 0.37535 0.48184 0.51607 0.0
O629 O 0.39299 0.51106 0.54795 0.0
O630 O 0.82319 0.0769 0.24449 0.0
Cd631 Cd 0.82891 0.11838 0.23144 0.0
Cd632 Cd 0.77293 0.11858 0.23623 0.0
O633 O 0.77733 0.07515 0.23616 0.0
O634 O 0.86331 0.11814 0.2069 0.0
O635 O 0.81993 0.12679 0.19096 0.0
C636 C 0.84653 0.1228 0.1858 0.0
C637 C 0.73518 0.1412 0.21321 0.0
C638 C 0.80035 0.06276 0.24257 0.0
C639 C 0.80717 0.15292 0.27794 0.0
O640 O 0.78445 0.13952 0.2727 0.0
O641 O 0.82846 0.1504 0.26162 0.0
O642 O 0.73134 0.1254 0.23512 0.0
O643 O 0.7605 0.1428 0.20302 0.0
O644 O 0.67987 0.07595 0.99319 0.0
Cd645 Cd 0.63835 0.08197 0.98038 0.0
Cd646 Cd 0.63767 0.02606 0.98565 0.0
O647 O 0.68111 0.03003 0.98511 0.0
O648 O 0.63875 0.11596 0.95525 0.0
O649 O 0.6297 0.0724 0.9401 0.0
C650 C 0.6339 0.09887 0.93446 0.0
C651 C 0.61477 0.9882 0.9632 0.0
C652 C 0.69378 0.05296 0.99125 0.0
C653 C 0.60387 0.06101 0.02731 0.0
O654 O 0.61706 0.03812 0.02217 0.0
O655 O 0.60646 0.08214 0.01078 0.0
O656 O 0.63063 0.98451 0.98507 0.0
O657 O 0.6132 0.01342 0.95275 0.0
O658 O 0.82798 0.92731 0.49651 0.0
Cd659 Cd 0.86963 0.92163 0.48392 0.0
Cd660 Cd 0.86996 0.97733 0.48922 0.0
O661 O 0.82661 0.97307 0.48762 0.0
O662 O 0.86958 0.8879 0.45848 0.0
O663 O 0.87818 0.93172 0.44372 0.0
C664 C 0.87415 0.90528 0.43783 0.0
C665 C 0.89309 0.01545 0.46747 0.0
C666 C 0.81396 0.95018 0.49392 0.0
C667 C 0.90342 0.94273 0.5312 0.0
O668 O 0.88979 0.96537 0.52616 0.0
O669 O 0.90147 0.92177 0.5144 0.0
O670 O 0.87662 0.01891 0.48894 0.0
O671 O 0.89517 0.99028 0.45699 0.0
C672 C 0.2585 0.2231 0.51765 0.0
C673 C 0.26093 0.19728 0.53227 0.0
H674 H 0.25159 0.24378 0.47795 0.0
C675 C 0.25857 0.17183 0.517 0.0
H676 H 0.26014 0.24309 0.52876 0.0
C677 C 0.25387 0.17222 0.48775 0.0
C678 C 0.25112 0.19807 0.47321 0.0
H679 H 0.26041 0.15157 0.52762 0.0
H680 H 0.2521 0.15227 0.4766 0.0
C681 C 0.2535 0.22349 0.4885 0.0
C682 C 0.07942 1.0006 0.73907 0.0
C683 C 0.05361 0.99791 0.72448 0.0
H684 H 0.1 0.00755 0.77883 0.0
C685 C 0.02815 1.00051 0.7397 0.0
H686 H 0.09942 0.99867 0.728 0.0
C687 C 0.02849 0.00585 0.76882 0.0
C688 C 0.05429 0.00842 0.78343 0.0
H689 H 0.0079 0.99865 0.7291 0.0
H690 H 0.00849 0.00777 0.77989 0.0
C691 C 0.07975 0.00565 0.76824 0.0
C692 C 0.25807 0.77365 0.98773 0.0
C693 C 0.26061 0.7993 0.97278 0.0
H694 H 0.25068 0.75353 0.02771 0.0
C695 C 0.25771 0.82492 0.98766 0.0
H696 H 0.26011 0.75354 0.97691 0.0
C697 C 0.25246 0.82492 0.01679 0.0
C698 C 0.24973 0.79929 0.03171 0.0
H699 H 0.25958 0.84506 0.97682 0.0
H700 H 0.25038 0.84505 0.02756 0.0
C701 C 0.25256 0.77366 0.01684 0.0
C702 C 0.47985 1.00027 0.26561 0.0
C703 C 0.45424 0.99757 0.28057 0.0
H704 H 0.4999 0.00783 0.22564 0.0
C705 C 0.42858 1.00044 0.26574 0.0
H706 H 0.49999 0.99827 0.27639 0.0
C707 C 0.42853 0.00577 0.23662 0.0
C708 C 0.45413 0.00861 0.22167 0.0
H709 H 0.40847 0.99846 0.2766 0.0
H710 H 0.40838 0.00779 0.22585 0.0
C711 C 0.4798 0.00586 0.23652 0.0
C712 C 0.5154 0.25496 0.22551 0.0
C713 C 0.53032 0.25784 0.19989 0.0
H714 H 0.47542 0.24764 0.24558 0.0
C715 C 0.51538 0.25559 0.17424 0.0
H716 H 0.52627 0.25649 0.24564 0.0
C717 C 0.48619 0.2507 0.1742 0.0
C718 C 0.4713 0.24766 0.19982 0.0
H719 H 0.52622 0.25775 0.15412 0.0
H720 H 0.47533 0.24915 0.15407 0.0
C721 C 0.48625 0.24978 0.22547 0.0
C722 C 0.99547 0.26717 0.42622 0.0
C723 C 0.99318 0.28251 0.45163 0.0
H724 H 1.00222 0.22679 0.40671 0.0
C725 C 0.99611 0.26802 0.47747 0.0
H726 H 0.99327 0.27769 0.40594 0.0
C727 C 1.00149 0.23892 0.4779 0.0
C728 C 0.00376 0.22355 0.45251 0.0
H729 H 0.99454 0.27919 0.49744 0.0
H730 H 0.00374 0.22845 0.4982 0.0
C731 C 1.00055 0.23798 0.42665 0.0
C732 C 0.0176 0.7543 0.7307 0.0
C733 C 0.03227 0.75711 0.70493 0.0
H734 H 0.97782 0.74688 0.75118 0.0
C735 C 0.01713 0.7545 0.67944 0.0
H736 H 0.02862 0.75611 0.75073 0.0
C737 C 0.98799 0.74935 0.6797 0.0
C738 C 0.97332 0.74646 0.70546 0.0
H739 H 0.02776 0.75656 0.65921 0.0
H740 H 0.97699 0.74755 0.65967 0.0
C741 C 0.98847 0.74892 0.73096 0.0
C742 C 0.50006 0.76825 0.92594 0.0
C743 C 0.49771 0.78324 0.95154 0.0
H744 H 0.50607 0.72807 0.90588 0.0
C745 C 0.49997 0.76829 0.97721 0.0
H746 H 0.49837 0.7791 0.90578 0.0
C747 C 0.50462 0.73904 0.97726 0.0
C748 C 0.50682 0.72404 0.95164 0.0
H749 H 0.49833 0.7792 0.99731 0.0
H750 H 0.50629 0.72818 0.9974 0.0
C751 C 0.50442 0.73897 0.92598 0.0
C752 C 0.51653 0.74989 0.33059 0.0
C753 C 0.53154 0.74732 0.30499 0.0
H754 H 0.4764 0.75649 0.3506 0.0
C755 C 0.51667 0.74977 0.27932 0.0
H756 H 0.52732 0.74808 0.35074 0.0
C757 C 0.48749 0.75482 0.27924 0.0
C758 C 0.47247 0.75726 0.30483 0.0
H759 H 0.52759 0.74798 0.25922 0.0
H760 H 0.4767 0.75662 0.25908 0.0
C761 C 0.48731 0.75468 0.3305 0.0
C762 C 0.5066 0.26616 0.52531 0.0
C763 C 0.50895 0.28126 0.55085 0.0
H764 H 0.49976 0.22604 0.50542 0.0
C765 C 0.50625 0.26649 0.57657 0.0
H766 H 0.50849 0.2769 0.50511 0.0
C767 C 0.5014 0.23728 0.57675 0.0
C768 C 0.49889 0.22221 0.55121 0.0
H769 H 0.50799 0.27745 0.59663 0.0
H770 H 0.49948 0.22655 0.59694 0.0
C771 C 0.50149 0.237 0.52548 0.0
C772 C 0.98873 0.25542 0.82577 0.0
C773 C 0.97374 0.25805 0.80018 0.0
H774 H 0.02874 0.2483 0.84579 0.0
C775 C 0.98853 0.25509 0.7745 0.0
H776 H 0.978 0.25762 0.84593 0.0
C777 C 0.01762 0.24949 0.77442 0.0
C778 C 0.03263 0.24702 0.80002 0.0
H779 H 0.97762 0.25688 0.75441 0.0
H780 H 0.02837 0.24733 0.75427 0.0
C781 C 0.01785 0.25011 0.82569 0.0
C782 C 1.0005 0.73837 0.02739 0.0
C783 C 0.99745 0.7236 0.05308 0.0
H784 H 0.00836 0.77819 0.00713 0.0
C785 C 1.00001 0.73861 0.07865 0.0
H786 H 0.99875 0.72745 0.00731 0.0
C787 C 0.00536 0.76772 0.07856 0.0
C788 C 0.00855 0.78247 0.05288 0.0
H789 H 0.99775 0.7279 0.09883 0.0
H790 H 0.00713 0.77861 0.09865 0.0
C791 C 0.00612 0.76746 0.0273 0.0
C792 C 0.17632 0.48784 0.253 0.0
C793 C 0.20196 0.47292 0.25039 0.0
H794 H 0.15617 0.5279 0.25966 0.0
C795 C 0.22759 0.48784 0.25293 0.0
H796 H 0.1562 0.47701 0.25112 0.0
C797 C 0.22757 0.51699 0.25808 0.0
C798 C 0.20193 0.53195 0.2605 0.0
H799 H 0.24772 0.47697 0.25113 0.0
H800 H 0.24769 0.52784 0.25992 0.0
C801 C 0.1763 0.51704 0.25786 0.0
C802 C 0.67788 0.01795 0.75321 0.0
C803 C 0.70355 0.03276 0.75598 0.0
H804 H 0.65765 0.97799 0.74644 0.0
C805 C 0.72915 0.01772 0.75361 0.0
H806 H 0.65778 0.02887 0.75494 0.0
C807 C 0.72908 0.98855 0.74851 0.0
C808 C 0.70341 0.97371 0.74592 0.0
H809 H 0.7493 0.02849 0.75555 0.0
H810 H 0.74918 0.97761 0.74683 0.0
C811 C 0.67781 0.98875 0.74836 0.0
C812 C 0.23615 0.42619 0.00855 0.0
C813 C 0.22096 0.45166 0.01133 0.0
H814 H 0.27632 0.40652 1.00097 0.0
C815 C 0.23552 0.47745 0.0084 0.0
H816 H 0.22559 0.40595 0.01074 0.0
C817 C 0.26453 0.47777 0.00255 0.0
C818 C 0.27974 0.45232 0.9998 0.0
H819 H 0.22446 0.49746 0.01032 0.0
H820 H 0.27505 0.49804 1.00033 0.0
C821 C 0.26525 0.42651 0.00299 0.0
C822 C 0.77509 0.0168 0.25117 0.0
C823 C 0.80059 0.03188 0.24824 0.0
H824 H 0.75535 0.97677 0.25909 0.0
C825 C 0.82636 0.01723 0.25111 0.0
H826 H 0.75488 0.02745 0.24918 0.0
C827 C 0.82664 0.98814 0.25664 0.0
C828 C 0.80115 0.97307 0.25969 0.0
H829 H 0.84639 0.02818 0.24895 0.0
H830 H 0.84687 0.9775 0.25863 0.0
C831 C 0.77537 0.98775 0.25697 0.0
C832 C 0.73958 0.02721 0.99938 0.0
C833 C 0.72471 0.05287 0.99656 0.0
H834 H 0.77949 0.00704 0.00693 0.0
C835 C 0.73964 0.07848 0.99918 0.0
H836 H 0.72872 0.0071 0.99757 0.0
C837 C 0.76878 0.07844 0.00438 0.0
C838 C 0.78363 0.0528 0.00735 0.0
H839 H 0.72885 0.09862 0.99709 0.0
H840 H 0.77962 0.09857 0.00621 0.0
C841 C 0.76869 0.02718 0.00485 0.0
C842 C 0.32941 0.48774 0.74841 0.0
C843 C 0.30359 0.47318 0.75114 0.0
H844 H 0.35002 0.52763 0.74209 0.0
C845 C 0.27815 0.48852 0.74893 0.0
H846 H 0.34939 0.47657 0.75006 0.0
C847 C 0.27851 0.51772 0.74414 0.0
C848 C 0.30431 0.53235 0.74175 0.0
H849 H 0.25788 0.47796 0.75084 0.0
H850 H 0.25851 0.52887 0.74263 0.0
C851 C 0.32977 0.51702 0.74392 0.0
C852 C 0.266 0.52457 0.50295 0.0
C853 C 0.2809 0.55021 0.50556 0.0
H854 H 0.22594 0.50444 0.49623 0.0
C855 C 0.26587 0.57583 0.50341 0.0
H856 H 0.27693 0.50445 0.50441 0.0
C857 C 0.23662 0.57583 0.49891 0.0
C858 C 0.22173 0.5502 0.49616 0.0
H859 H 0.27667 0.59597 0.50536 0.0
H860 H 0.22571 0.59596 0.49743 0.0
C861 C 0.23677 0.52457 0.49817 0.0
C862 C 0.75264 0.67895 0.01854 0.0
C863 C 0.75569 0.70457 0.03337 0.0
H864 H 0.74527 0.65884 0.97863 0.0
C865 C 0.7532 0.73022 0.01842 0.0
H866 H 0.75445 0.65881 0.02939 0.0
C867 C 0.7477 0.73023 0.98932 0.0
C868 C 0.74483 0.7046 0.97446 0.0
H869 H 0.75533 0.75033 0.02921 0.0
H870 H 0.74593 0.75036 0.97844 0.0
C871 C 0.7474 0.67896 0.9894 0.0
C872 C 0.52689 0.50374 0.26419 0.0
C873 C 0.55245 0.50671 0.27915 0.0
H874 H 0.50695 0.49637 0.22418 0.0
C875 C 0.57815 0.50451 0.26426 0.0
H876 H 0.50671 0.50522 0.27502 0.0
C877 C 0.57828 0.49959 0.23507 0.0
C878 C 0.55272 0.49649 0.22013 0.0
H879 H 0.59822 0.50672 0.27511 0.0
H880 H 0.59846 0.49809 0.22424 0.0
C881 C 0.52702 0.49855 0.23504 0.0
C882 C 0.75324 0.27818 0.48654 0.0
C883 C 0.75557 0.30378 0.47148 0.0
H884 H 0.74689 0.25817 0.52673 0.0
C885 C 0.75329 0.32945 0.48636 0.0
H886 H 0.75482 0.25803 0.47572 0.0
C887 C 0.74893 0.32954 0.51565 0.0
C888 C 0.74648 0.30395 0.53069 0.0
H889 H 0.75504 0.34955 0.47543 0.0
H890 H 0.74734 0.3497 0.52646 0.0
C891 C 0.74861 0.27827 0.51579 0.0
C892 C 0.92712 0.5037 0.7399 0.0
C893 C 0.95275 0.50575 0.72487 0.0
H894 H 0.90698 0.49769 0.78005 0.0
C895 C 0.97838 0.50288 0.73976 0.0
H896 H 0.907 0.50585 0.72911 0.0
C897 C 0.97837 0.49798 0.76897 0.0
C898 C 0.95273 0.49611 0.78401 0.0
H899 H 0.99851 0.50426 0.72882 0.0
H900 H 0.99848 0.49587 0.77979 0.0
C901 C 0.92712 0.49907 0.76914 0.0
C902 C 0.76798 0.92457 0.50098 0.0
C903 C 0.78293 0.95019 0.49854 0.0
H904 H 0.72782 0.90447 0.50711 0.0
C905 C 0.76795 0.97584 0.50075 0.0
H906 H 0.77885 0.90443 0.49933 0.0
C907 C 0.73872 0.97587 0.50545 0.0
C908 C 0.72375 0.95024 0.50775 0.0
H909 H 0.77883 0.99596 0.49906 0.0
H910 H 0.72785 0.996 0.50708 0.0
C911 C 0.7387 0.92459 0.50539 0.0
C912 C 0.21477 0.33747 0.32857 0.0
C913 C 0.19579 0.33247 0.30623 0.0
H914 H 0.2354 0.32102 0.36525 0.0
C915 C 0.18012 0.30719 0.30608 0.0
H916 H 0.2269 0.35693 0.32944 0.0
C917 C 0.18522 0.28628 0.32663 0.0
C918 C 0.20582 0.29054 0.34775 0.0
H919 H 0.16537 0.30278 0.28909 0.0
H920 H 0.17418 0.26624 0.32502 0.0
C921 C 0.2196 0.31686 0.34916 0.0
C922 C 0.96976 0.93336 0.57531 0.0
C923 C 0.96467 0.95294 0.59721 0.0
H924 H 0.95396 0.91429 0.5371 0.0
C925 C 0.93769 0.9653 0.5994 0.0
H926 H 0.99032 0.92342 0.57309 0.0
C927 C 0.91716 0.96027 0.57883 0.0
C928 C 0.92293 0.9425 0.55569 0.0
H929 H 0.93288 0.98023 0.61614 0.0
H930 H 0.89715 0.97142 0.58031 0.0
C931 C 0.94895 0.92807 0.55474 0.0
C932 C 0.29068 0.68568 0.84448 0.0
C933 C 0.30375 0.71237 0.84306 0.0
H934 H 0.28352 0.64589 0.82426 0.0
C935 C 0.3234 0.71758 0.82122 0.0
H936 H 0.27566 0.68078 0.86112 0.0
C937 C 0.32815 0.69723 0.80005 0.0
C938 C 0.31308 0.67157 0.80032 0.0
H939 H 0.33386 0.73791 0.81957 0.0
H940 H 0.34207 0.70234 0.78255 0.0
C941 C 0.29515 0.66564 0.8233 0.0
C942 C 0.58966 0.04348 0.07484 0.0
C943 C 0.58433 0.06151 0.05179 0.0
H944 H 0.57355 0.02392 0.11224 0.0
C945 C 0.55874 0.07672 0.05101 0.0
H946 H 0.60934 0.03174 0.07621 0.0
C947 C 0.53789 0.07201 0.0717 0.0
C948 C 0.54251 0.05224 0.09356 0.0
H949 H 0.55409 0.09074 0.03344 0.0
H950 H 0.51763 0.08258 0.06963 0.0
C951 C 0.5691 0.03903 0.09555 0.0
C952 C 0.18496 0.71743 0.18215 0.0
C953 C 0.20501 0.71225 0.16067 0.0
H954 H 0.1656 0.70213 0.22046 0.0
C955 C 0.21813 0.68557 0.15948 0.0
H956 H 0.17444 0.73776 0.18361 0.0
C957 C 0.2133 0.66548 0.18056 0.0
C958 C 0.19496 0.67138 0.20321 0.0
H959 H 0.23346 0.6807 0.14311 0.0
H960 H 0.22496 0.64573 0.17979 0.0
C961 C 0.17985 0.69704 0.20322 0.0
C962 C 0.58937 0.96122 0.4279 0.0
C963 C 0.58372 0.94307 0.45078 0.0
H964 H 0.5737 0.98117 0.39052 0.0
C965 C 0.55802 0.92807 0.45128 0.0
H966 H 0.60914 0.9728 0.42676 0.0
C967 C 0.53737 0.93311 0.43046 0.0
C968 C 0.54231 0.95299 0.40877 0.0
H969 H 0.55313 0.91398 0.46871 0.0
H970 H 0.51703 0.9227 0.43231 0.0
C971 C 0.56901 0.96598 0.40707 0.0
C972 C 0.31957 0.2829 0.68282 0.0
C973 C 0.30064 0.28692 0.66014 0.0
H974 H 0.33719 0.30031 0.72103 0.0
C975 C 0.28765 0.31348 0.65682 0.0
H976 H 0.32994 0.26267 0.68593 0.0
C977 C 0.2916 0.33474 0.67689 0.0
C978 C 0.30884 0.33012 0.70067 0.0
H979 H 0.27319 0.31746 0.63947 0.0
H980 H 0.28014 0.35447 0.67435 0.0
C981 C 0.32374 0.30443 0.70291 0.0
C982 C 0.91908 0.04335 0.92989 0.0
C983 C 0.92432 0.0613 0.95299 0.0
H984 H 0.93537 0.0238 0.89259 0.0
C985 C 0.94994 0.0764 0.95396 0.0
H986 H 0.89937 0.0317 0.92839 0.0
C987 C 0.97091 0.07165 0.93339 0.0
C988 C 0.96637 0.05194 0.91149 0.0
H989 H 0.95452 0.09036 0.97156 0.0
H990 H 0.99118 0.08213 0.9356 0.0
C991 C 0.93975 0.03885 0.90933 0.0
C992 C 0.34628 0.21628 0.31526 0.0
C993 C 0.34337 0.20401 0.28834 0.0
H994 H 0.32813 0.22272 0.35616 0.0
C995 C 0.3208 0.18513 0.28356 0.0
H996 H 0.36354 0.23068 0.31982 0.0
C997 C 0.30041 0.18037 0.3047 0.0
C998 C 0.30222 0.19463 0.33076 0.0
H999 H 0.318 0.17531 0.26303 0.0
H1000 H 0.28236 0.16703 0.30001 0.0
C1001 C 0.32592 0.21176 0.33613 0.0
C1002 C 0.04082 0.07687 0.59024 0.0
C1003 C 0.05929 0.05424 0.58462 0.0
H1004 H 0.02073 0.11425 0.5747 0.0
C1005 C 0.07466 0.0542 0.55912 0.0
H1006 H 0.02895 0.07767 0.60987 0.0
C1007 C 0.06972 0.07522 0.53863 0.0
C1008 C 0.04958 0.09669 0.54353 0.0
H1009 H 0.08903 0.037 0.55424 0.0
H1010 H 0.08047 0.07372 0.51843 0.0
C1011 C 0.03616 0.09792 0.57005 0.0
C1012 C 0.18308 0.81927 0.78751 0.0
C1013 C 0.16153 0.7992 0.79217 0.0
H1014 H 0.2214 0.83809 0.80334 0.0
C1015 C 0.1602 0.78543 0.81851 0.0
H1016 H 0.18464 0.83027 0.76744 0.0
C1017 C 0.18123 0.78968 0.83875 0.0
C1018 C 0.20396 0.80806 0.83334 0.0
H1019 H 0.14377 0.77007 0.82298 0.0
H1020 H 0.18035 0.77755 0.85822 0.0
C1021 C 0.2041 0.82378 0.80805 0.0
C1022 C 0.43555 0.93352 0.03501 0.0
C1023 C 0.45538 0.91172 0.0397 0.0
H1024 H 0.41667 0.97173 0.05112 0.0
C1025 C 0.46856 0.90982 0.06629 0.0
H1026 H 0.425 0.93552 0.01475 0.0
C1027 C 0.46401 0.93053 0.0868 0.0
C1028 C 0.44591 0.9535 0.08141 0.0
H1029 H 0.48371 0.89318 0.07079 0.0
H1030 H 0.47573 0.92923 0.10649 0.0
C1031 C 0.43073 0.95422 0.05582 0.0
C1032 C 0.32332 0.81914 0.21908 0.0
C1033 C 0.3451 0.79917 0.21499 0.0
H1034 H 0.28541 0.83793 0.20218 0.0
C1035 C 0.3473 0.78558 0.18863 0.0
H1036 H 0.32109 0.83001 0.23915 0.0
C1037 C 0.32689 0.78991 0.16777 0.0
C1038 C 0.30391 0.80818 0.17257 0.0
H1039 H 0.36394 0.7703 0.18459 0.0
H1040 H 0.32842 0.77791 0.14828 0.0
C1041 C 0.30292 0.82373 0.19793 0.0
C1042 C 0.46491 0.07546 0.41573 0.0
C1043 C 0.44656 0.05266 0.42096 0.0
H1044 H 0.48482 0.11257 0.43195 0.0
C1045 C 0.43121 0.05204 0.44646 0.0
H1046 H 0.47677 0.07669 0.39612 0.0
C1047 C 0.43605 0.07264 0.46734 0.0
C1048 C 0.4561 0.09425 0.46282 0.0
H1049 H 0.41695 0.03466 0.45103 0.0
H1050 H 0.42534 0.0707 0.48753 0.0
C1051 C 0.46949 0.09608 0.43632 0.0
C1052 C 0.15891 0.21255 0.68569 0.0
C1053 C 0.1608 0.20053 0.71284 0.0
H1054 H 0.1785 0.21823 0.64531 0.0
C1055 C 0.18269 0.18103 0.71842 0.0
H1056 H 0.14219 0.22739 0.68051 0.0
C1057 C 0.20354 0.17552 0.69791 0.0
C1058 C 0.20287 0.18966 0.67172 0.0
H1059 H 0.18469 0.17136 0.73913 0.0
H1060 H 0.22117 0.16185 0.70329 0.0
C1061 C 0.17976 0.20731 0.66547 0.0
C1062 C 0.0731 0.93256 0.96983 0.0
C1063 C 0.05339 0.91076 0.96485 0.0
H1064 H 0.092 0.97094 0.95411 0.0
C1065 C 0.04049 0.90901 0.93811 0.0
H1066 H 0.08344 0.93446 0.99021 0.0
C1067 C 0.04517 0.92987 0.91776 0.0
C1068 C 0.06312 0.95285 0.92345 0.0
H1069 H 0.02543 0.89237 0.93339 0.0
H1070 H 0.03364 0.92868 0.89795 0.0
C1071 C 0.07805 0.95342 0.94918 0.0
C1072 C 0.31667 0.34721 0.21651 0.0
C1073 C 0.28964 0.34527 0.20427 0.0
H1074 H 0.35716 0.32787 0.22222 0.0
C1075 C 0.28437 0.32358 0.18452 0.0
H1076 H 0.32161 0.36379 0.23156 0.0
C1077 C 0.30508 0.30296 0.17891 0.0
C1078 C 0.33116 0.30366 0.19321 0.0
H1079 H 0.26376 0.32155 0.17468 0.0
H1080 H 0.29996 0.28548 0.16499 0.0
C1081 C 0.3371 0.32659 0.21117 0.0
C1082 C 0.81861 0.15914 0.78562 0.0
C1083 C 0.79209 0.16083 0.799 0.0
H1084 H 0.85867 0.17878 0.77828 0.0
C1085 C 0.78743 0.18246 0.819 0.0
H1086 H 0.82308 0.14264 0.77033 0.0
C1087 C 0.80818 0.20321 0.82379 0.0
C1088 C 0.83367 0.20273 0.80843 0.0
H1089 H 0.76723 0.18429 0.82971 0.0
H1090 H 0.8035 0.22059 0.838 0.0
C1091 C 0.83905 0.17991 0.79015 0.0
C1092 C 0.07487 0.58782 0.04498 0.0
C1093 C 0.05165 0.58281 0.06287 0.0
H1094 H 0.11226 0.57124 0.02581 0.0
C1095 C 0.05052 0.55733 0.07823 0.0
H1096 H 0.0765 0.60741 0.03313 0.0
C1097 C 0.07106 0.53625 0.0738 0.0
C1098 C 0.0931 0.54055 0.05417 0.0
H1099 H 0.03281 0.55292 0.09214 0.0
H1100 H 0.06874 0.51608 0.08448 0.0
C1101 C 0.09542 0.56704 0.04081 0.0
C1102 C 0.66632 0.82632 0.29588 0.0
C1103 C 0.67183 0.80312 0.31366 0.0
H1104 H 0.68225 0.86382 0.2764 0.0
C1105 C 0.69758 0.80217 0.32856 0.0
H1106 H 0.64651 0.82781 0.28439 0.0
C1107 C 0.7184 0.82286 0.32374 0.0
C1108 C 0.71359 0.84486 0.30417 0.0
H1109 H 0.70237 0.78448 0.34237 0.0
H1110 H 0.73878 0.82066 0.33403 0.0
C1111 C 0.68685 0.84701 0.29133 0.0
C1112 C 0.93373 0.96926 0.07106 0.0
C1113 C 0.91196 0.96455 0.05124 0.0
H1114 H 0.97198 0.95321 0.08992 0.0
C1115 C 0.91018 0.93797 0.03803 0.0
H1116 H 0.93564 0.98951 0.08164 0.0
C1117 C 0.93097 0.9175 0.04255 0.0
C1118 C 0.95391 0.92292 0.06066 0.0
H1119 H 0.89357 0.93345 0.02288 0.0
H1120 H 0.92973 0.89782 0.03083 0.0
C1121 C 0.95451 0.9485 0.07585 0.0
C1122 C 0.21963 0.6834 0.68268 0.0
C1123 C 0.21543 0.66116 0.70213 0.0
H1124 H 0.20282 0.72177 0.66471 0.0
C1125 C 0.18899 0.65868 0.71555 0.0
H1126 H 0.23976 0.68585 0.67196 0.0
C1127 C 0.16815 0.67922 0.7116 0.0
C1128 C 0.17305 0.70261 0.69389 0.0
H1129 H 0.18487 0.6417 0.73041 0.0
H1130 H 0.1486 0.67745 0.72349 0.0
C1131 C 0.19849 0.70393 0.67848 0.0
C1132 C 0.0731 0.41612 0.46101 0.0
C1133 C 0.05012 0.42209 0.44311 0.0
H1134 H 0.11076 0.43132 0.48071 0.0
C1135 C 0.04969 0.44791 0.42829 0.0
H1136 H 0.07417 0.39625 0.47245 0.0
C1137 C 0.07069 0.46837 0.43328 0.0
C1138 C 0.09251 0.46309 0.45292 0.0
H1139 H 0.03217 0.45305 0.41441 0.0
H1140 H 0.06891 0.48881 0.42303 0.0
C1141 C 0.09412 0.43627 0.46571 0.0
C1142 C 0.4265 0.58989 0.96345 0.0
C1143 C 0.44899 0.58448 0.94474 0.0
H1144 H 0.38927 0.57413 0.98363 0.0
C1145 C 0.44889 0.5592 0.92906 0.0
H1146 H 0.4258 0.60935 0.97558 0.0
C1147 C 0.4279 0.53868 0.93389 0.0
C1148 C 0.40659 0.54334 0.95425 0.0
H1149 H 0.46598 0.55448 0.9145 0.0
H1150 H 0.4293 0.51862 0.92287 0.0
C1151 C 0.40548 0.56967 0.96802 0.0
C1152 C 0.71617 0.81927 0.84725 0.0
C1153 C 0.70284 0.79274 0.84551 0.0
H1154 H 0.72378 0.85925 0.82748 0.0
C1155 C 0.68318 0.788 0.82361 0.0
H1156 H 0.7312 0.82381 0.86396 0.0
C1157 C 0.67869 0.80865 0.80266 0.0
C1158 C 0.69403 0.83415 0.80322 0.0
H1159 H 0.67252 0.76779 0.82173 0.0
H1160 H 0.66476 0.80389 0.78508 0.0
C1161 C 0.71194 0.83963 0.82629 0.0
C1162 C 0.46872 0.43635 0.06899 0.0
C1163 C 0.46417 0.45522 0.09162 0.0
H1164 H 0.45215 0.41876 0.0304 0.0
C1165 C 0.43748 0.46805 0.09446 0.0
H1166 H 0.48907 0.42611 0.06625 0.0
C1167 C 0.41665 0.46406 0.07397 0.0
C1168 C 0.42183 0.44692 0.05023 0.0
H1169 H 0.4331 0.48246 0.11176 0.0
H1170 H 0.39682 0.47542 0.07614 0.0
C1171 C 0.44761 0.43212 0.04848 0.0
C1172 C 0.81772 0.2191 0.32205 0.0
C1173 C 0.79769 0.21465 0.34371 0.0
H1174 H 0.83686 0.20265 0.28413 0.0
C1175 C 0.78434 0.18814 0.34564 0.0
H1176 H 0.8284 0.23928 0.32003 0.0
C1177 C 0.78896 0.16748 0.3251 0.0
C1178 C 0.8073 0.17263 0.30227 0.0
H1179 H 0.76902 0.18383 0.36218 0.0
H1180 H 0.77714 0.14786 0.32643 0.0
C1181 C 0.8226 0.19814 0.30153 0.0
C1182 C 0.03613 0.56836 0.57468 0.0
C1183 C 0.04076 0.54801 0.59599 0.0
H1184 H 0.05203 0.58777 0.53664 0.0
C1185 C 0.06713 0.53425 0.59717 0.0
H1186 H 0.01605 0.57936 0.57323 0.0
C1187 C 0.08741 0.53885 0.57623 0.0
C1188 C 0.08204 0.55756 0.55374 0.0
H1189 H 0.07158 0.51867 0.61342 0.0
H1190 H 0.1069 0.52674 0.57699 0.0
C1191 C 0.05672 0.57322 0.55375 0.0
C1192 C 0.68498 0.21996 0.681 0.0
C1193 C 0.70473 0.21541 0.65911 0.0
H1194 H 0.66623 0.20361 0.71918 0.0
C1195 C 0.71791 0.18881 0.65702 0.0
H1196 H 0.67443 0.24022 0.68315 0.0
C1197 C 0.71343 0.16816 0.67763 0.0
C1198 C 0.69541 0.1734 0.70069 0.0
H1199 H 0.733 0.18442 0.6403 0.0
H1200 H 0.72514 0.14847 0.67617 0.0
C1201 C 0.68024 0.19901 0.7016 0.0
C1202 C 0.08695 0.46141 0.93272 0.0
C1203 C 0.08113 0.44347 0.95572 0.0
H1204 H 0.07156 0.48107 0.89507 0.0
C1205 C 0.05539 0.42855 0.95621 0.0
H1206 H 0.10676 0.47293 0.93159 0.0
C1207 C 0.03487 0.43346 0.93523 0.0
C1208 C 0.04 0.45312 0.91338 0.0
H1209 H 0.05037 0.41462 0.97373 0.0
H1210 H 0.01449 0.42311 0.93705 0.0
C1211 C 0.06673 0.46604 0.91173 0.0
C1212 C 0.79151 0.83906 0.18138 0.0
C1213 C 0.80969 0.83334 0.20421 0.0
H1214 H 0.77167 0.82356 0.14392 0.0
C1215 C 0.82485 0.80772 0.20452 0.0
H1216 H 0.77981 0.85878 0.18039 0.0
C1217 C 0.81995 0.78719 0.18357 0.0
C1218 C 0.80005 0.79218 0.16193 0.0
H1219 H 0.83898 0.80278 0.2219 0.0
H1220 H 0.83049 0.76688 0.18527 0.0
C1221 C 0.78688 0.81883 0.16043 0.0
C1222 C 0.44644 0.57389 0.44898 0.0
C1223 C 0.42104 0.55839 0.44844 0.0
H1224 H 0.48747 0.57993 0.43028 0.0
C1225 C 0.41594 0.53996 0.42568 0.0
H1226 H 0.45091 0.58821 0.46632 0.0
C1227 C 0.43657 0.53544 0.40506 0.0
C1228 C 0.46299 0.54897 0.40683 0.0
H1229 H 0.39641 0.52798 0.4245 0.0
H1230 H 0.43231 0.52004 0.38861 0.0
C1231 C 0.46735 0.5691 0.42838 0.0
C1232 C 0.82448 0.7137 0.84052 0.0
C1233 C 0.80149 0.69571 0.83494 0.0
H1234 H 0.86223 0.73298 0.82493 0.0
C1235 C 0.80112 0.68033 0.80947 0.0
H1236 H 0.82553 0.72557 0.86012 0.0
C1237 C 0.82222 0.6848 0.78895 0.0
C1238 C 0.84407 0.7045 0.79381 0.0
H1239 H 0.78362 0.66634 0.80462 0.0
H1240 H 0.8205 0.67408 0.76876 0.0
C1241 C 0.84558 0.71791 0.8203 0.0
C1242 C 0.54299 0.5764 0.08647 0.0
C1243 C 0.56072 0.55329 0.08049 0.0
H1244 H 0.52312 0.61396 0.07112 0.0
C1245 C 0.57517 0.55256 0.05447 0.0
H1246 H 0.53183 0.5777 0.10649 0.0
C1247 C 0.56993 0.57338 0.03387 0.0
C1248 C 0.5504 0.5953 0.03917 0.0
H1249 H 0.58892 0.53494 0.04931 0.0
H1250 H 0.57988 0.57137 0.0133 0.0
C1251 C 0.53802 0.59723 0.06615 0.0
C1252 C 0.65571 0.28823 0.31548 0.0
C1253 C 0.65781 0.30125 0.28881 0.0
H1254 H 0.67476 0.28138 0.35593 0.0
C1255 C 0.67955 0.32114 0.2842 0.0
H1256 H 0.63911 0.27304 0.31992 0.0
C1257 C 0.70002 0.32615 0.30518 0.0
C1258 C 0.69914 0.31113 0.33088 0.0
H1259 H 0.6817 0.33157 0.26389 0.0
H1260 H 0.71751 0.34025 0.30055 0.0
C1261 C 0.6762 0.29298 0.33617 0.0
C1262 C 0.96089 0.42783 0.5883 0.0
C1263 C 0.94302 0.45114 0.5836 0.0
H1264 H 0.98001 0.39063 0.57126 0.0
C1265 C 0.92766 0.45262 0.55815 0.0
H1266 H 0.97275 0.42593 0.60785 0.0
C1267 C 0.93205 0.43235 0.53683 0.0
C1268 C 0.95165 0.41022 0.54084 0.0
H1269 H 0.91377 0.4704 0.55396 0.0
H1270 H 0.92136 0.43494 0.51671 0.0
C1271 C 0.96503 0.40755 0.56727 0.0
C1272 C 0.82377 0.32217 0.71709 0.0
C1273 C 0.84551 0.30232 0.71228 0.0
H1274 H 0.78553 0.34117 0.70116 0.0
C1275 C 0.8473 0.28923 0.68564 0.0
H1276 H 0.82185 0.33266 0.73739 0.0
C1277 C 0.82653 0.29389 0.6652 0.0
C1278 C 0.8036 0.31201 0.67072 0.0
H1279 H 0.8639 0.27406 0.68104 0.0
H1280 H 0.82774 0.28223 0.64548 0.0
C1281 C 0.80301 0.3271 0.69636 0.0
C1282 C 0.96287 0.5757 0.91846 0.0
C1283 C 0.94458 0.55291 0.92392 0.0
H1284 H 0.98268 0.61305 0.93427 0.0
C1285 C 0.92921 0.55255 0.94941 0.0
H1286 H 0.97474 0.57675 0.89884 0.0
C1287 C 0.93398 0.57341 0.97006 0.0
C1288 C 0.95398 0.59501 0.96532 0.0
H1289 H 0.91498 0.5352 0.95417 0.0
H1290 H 0.92325 0.57167 0.99026 0.0
C1291 C 0.96739 0.59657 0.93881 0.0
C1292 C 0.65763 0.71888 0.18961 0.0
C1293 C 0.65959 0.70536 0.21604 0.0
H1294 H 0.67687 0.72642 0.14937 0.0
C1295 C 0.68131 0.68537 0.22039 0.0
H1296 H 0.64105 0.73417 0.18538 0.0
C1297 C 0.70188 0.6807 0.19941 0.0
C1298 C 0.70112 0.69618 0.17398 0.0
H1299 H 0.68335 0.67455 0.24052 0.0
H1300 H 0.71934 0.66648 0.20385 0.0
C1301 C 0.67822 0.71447 0.16893 0.0
C1302 C 0.57573 0.45155 0.44505 0.0
C1303 C 0.56046 0.45074 0.41952 0.0
H1304 H 0.58167 0.433 0.48618 0.0
C1305 C 0.54242 0.4277 0.4143 0.0
H1306 H 0.58975 0.4691 0.44962 0.0
C1307 C 0.53802 0.40704 0.43492 0.0
C1308 C 0.55128 0.40907 0.46146 0.0
H1309 H 0.53064 0.42632 0.39466 0.0
H1310 H 0.5229 0.39037 0.43056 0.0
C1311 C 0.57106 0.43091 0.46597 0.0
C1312 C 0.81809 0.84635 0.71875 0.0
C1313 C 0.79163 0.84448 0.7053 0.0
H1314 H 0.85812 0.82679 0.72654 0.0
C1315 C 0.78704 0.8225 0.68569 0.0
H1316 H 0.8225 0.86312 0.73375 0.0
C1317 C 0.8078 0.80163 0.68134 0.0
C1318 C 0.83325 0.80234 0.69675 0.0
H1319 H 0.76689 0.82052 0.67495 0.0
H1320 H 0.80317 0.78402 0.66741 0.0
C1321 C 0.83855 0.82547 0.71465 0.0
C1322 C 0.28532 0.68221 0.32311 0.0
C1323 C 0.29016 0.66013 0.30366 0.0
H1324 H 0.30136 0.7206 0.34161 0.0
C1325 C 0.31693 0.6579 0.29087 0.0
H1326 H 0.26492 0.68446 0.33335 0.0
C1327 C 0.33748 0.67857 0.29538 0.0
C1328 C 0.33196 0.70182 0.31305 0.0
H1329 H 0.32155 0.64103 0.27602 0.0
H1330 H 0.35732 0.67701 0.28393 0.0
C1331 C 0.30617 0.70287 0.32788 0.0
C1332 C 0.57765 0.0868 0.54131 0.0
C1333 C 0.55475 0.08168 0.55958 0.0
H1334 H 0.61472 0.07035 0.52142 0.0
C1335 C 0.55392 0.05614 0.57486 0.0
H1336 H 0.57903 0.10644 0.5295 0.0
C1337 C 0.5744 0.03511 0.56999 0.0
C1338 C 0.5961 0.03952 0.55 0.0
H1339 H 0.53646 0.05165 0.58905 0.0
H1340 H 0.57229 0.0149 0.58063 0.0
C1341 C 0.59815 0.06607 0.53671 0.0
C1342 C 0.18668 0.34681 0.78223 0.0
C1343 C 0.21301 0.34598 0.79604 0.0
H1344 H 0.14712 0.3262 0.77484 0.0
C1345 C 0.21779 0.32486 0.81658 0.0
H1346 H 0.18213 0.36286 0.76648 0.0
C1347 C 0.19739 0.30381 0.8216 0.0
C1348 C 0.17212 0.30344 0.80591 0.0
H1349 H 0.23785 0.32368 0.82763 0.0
H1350 H 0.20219 0.28688 0.83633 0.0
C1351 C 0.16659 0.32572 0.78698 0.0
C1352 C 0.40834 0.43585 0.53486 0.0
C1353 C 0.40993 0.46251 0.54795 0.0
H1354 H 0.42818 0.39579 0.52791 0.0
C1355 C 0.43161 0.46745 0.56781 0.0
H1356 H 0.39181 0.43116 0.51968 0.0
C1357 C 0.45249 0.44683 0.57276 0.0
C1358 C 0.45209 0.42118 0.5577 0.0
H1359 H 0.43336 0.48776 0.5783 0.0
H1360 H 0.46989 0.45173 0.58687 0.0
C1361 C 0.42924 0.41553 0.53954 0.0
C1362 C 0.66477 0.17863 0.21099 0.0
C1363 C 0.67039 0.20146 0.19277 0.0
H1364 H 0.68049 0.14132 0.23105 0.0
C1365 C 0.69608 0.2019 0.17773 0.0
H1366 H 0.645 0.17753 0.2226 0.0
C1367 C 0.71676 0.18111 0.18281 0.0
C1368 C 0.71185 0.15948 0.20277 0.0
H1369 H 0.70095 0.21929 0.16357 0.0
H1370 H 0.7371 0.18293 0.17237 0.0
C1371 C 0.68516 0.15782 0.2158 0.0
C1372 C 0.57477 0.9696 0.93314 0.0
C1373 C 0.59645 0.96483 0.95306 0.0
H1374 H 0.53659 0.95365 0.91413 0.0
C1375 C 0.59817 0.93822 0.96628 0.0
H1376 H 0.57291 0.98987 0.92255 0.0
C1377 C 0.5774 0.9178 0.96167 0.0
C1378 C 0.55454 0.92328 0.94348 0.0
H1379 H 0.61472 0.93366 0.9815 0.0
H1380 H 0.57857 0.8981 0.97341 0.0
C1381 C 0.55401 0.94888 0.92827 0.0
C1382 C 0.92915 0.08654 0.46644 0.0
C1383 C 0.95266 0.08139 0.44895 0.0
H1384 H 0.89159 0.07006 0.48534 0.0
C1385 C 0.95424 0.05562 0.43414 0.0
H1386 H 0.92712 0.10635 0.47782 0.0
C1387 C 0.93379 0.03452 0.43864 0.0
C1388 C 0.91138 0.03904 0.45779 0.0
H1389 H 0.97214 0.05111 0.42051 0.0
H1390 H 0.93639 0.0142 0.42833 0.0
C1391 C 0.90871 0.0657 0.47069 0.0
C1392 C 0.11356 0.12488 0.38624 0.0
C1393 C 0.09914 0.14117 0.40652 0.0
H1394 H 0.15283 0.11819 0.364 0.0
C1395 C 0.11275 0.16449 0.41881 0.0
H1396 H 0.10328 0.10692 0.37638 0.0
C1397 C 0.14026 0.17166 0.41085 0.0
C1398 C 0.15509 0.15506 0.39117 0.0
H1399 H 0.10186 0.17754 0.43425 0.0
H1400 H 0.15027 0.18977 0.42076 0.0
C1401 C 0.14168 0.1314 0.37909 0.0
C1402 C 0.09359 0.88501 0.62139 0.0
C1403 C 0.10774 0.90685 0.63571 0.0
H1404 H 0.08797 0.84024 0.61663 0.0
C1405 C 0.12898 0.89984 0.65537 0.0
H1406 H 0.07707 0.88986 0.60622 0.0
C1407 C 0.13462 0.87148 0.66197 0.0
C1408 C 0.11979 0.84966 0.64833 0.0
H1409 H 0.14003 0.91627 0.66692 0.0
H1410 H 0.15 0.86665 0.67829 0.0
C1411 C 0.0999 0.85666 0.6273 0.0
C1412 C 0.40099 0.85111 0.87468 0.0
C1413 C 0.40761 0.87098 0.89582 0.0
H1414 H 0.36827 0.82748 0.85383 0.0
C1415 C 0.38551 0.88506 0.90986 0.0
H1416 H 0.41764 0.83974 0.86371 0.0
C1417 C 0.35728 0.87862 0.90359 0.0
C1418 C 0.3507 0.85732 0.88387 0.0
H1419 H 0.39006 0.90039 0.92629 0.0
H1420 H 0.34066 0.88906 0.91548 0.0
C1421 C 0.37278 0.844 0.86908 0.0
C1422 C 0.36945 0.13495 0.15892 0.0
C1423 C 0.38365 0.15694 0.14484 0.0
H1424 H 0.36521 0.09013 0.16462 0.0
C1425 C 0.40355 0.15016 0.12375 0.0
H1426 H 0.35409 0.13963 0.17532 0.0
C1427 C 0.41055 0.12189 0.11823 0.0
C1428 C 0.39707 0.09992 0.13303 0.0
H1429 H 0.41502 0.16672 0.11276 0.0
H1430 H 0.42708 0.11725 0.103 0.0
C1431 C 0.37576 0.10667 0.15272 0.0
C1432 C 0.13576 0.84277 0.13449 0.0
C1433 C 0.15773 0.85629 0.11973 0.0
H1434 H 0.09093 0.83824 0.1399 0.0
C1435 C 0.15098 0.87756 0.09999 0.0
H1436 H 0.14041 0.82627 0.14975 0.0
C1437 C 0.12269 0.88383 0.09375 0.0
C1438 C 0.1007 0.86961 0.10781 0.0
H1439 H 0.16752 0.88815 0.08813 0.0
H1440 H 0.11802 0.89918 0.07734 0.0
C1441 C 0.10749 0.84972 0.12892 0.0
C1442 C 0.41135 0.88451 0.38478 0.0
C1443 C 0.39781 0.9063 0.36975 0.0
H1444 H 0.41598 0.83976 0.39073 0.0
C1445 C 0.3766 0.8993 0.35007 0.0
H1446 H 0.42781 0.88936 0.4 0.0
C1447 C 0.37042 0.87094 0.34415 0.0
C1448 C 0.38466 0.84913 0.35849 0.0
H1449 H 0.36601 0.9157 0.338 0.0
H1450 H 0.35512 0.86606 0.32777 0.0
C1451 C 0.40448 0.85618 0.37954 0.0
C1452 C 0.40095 0.15222 0.62903 0.0
C1453 C 0.40819 0.1326 0.60785 0.0
H1454 H 0.36744 0.1743 0.65042 0.0
C1455 C 0.38658 0.11739 0.59428 0.0
H1456 H 0.41721 0.16443 0.63964 0.0
C1457 C 0.35818 0.12243 0.60109 0.0
C1458 C 0.35089 0.14344 0.62088 0.0
H1459 H 0.39162 0.1022 0.57785 0.0
H1460 H 0.3419 0.11112 0.58956 0.0
C1461 C 0.37252 0.15794 0.63515 0.0
C1462 C 0.10244 0.15019 0.87848 0.0
C1463 C 0.12206 0.15692 0.85711 0.0
H1464 H 0.07988 0.11724 0.90022 0.0
C1465 C 0.1368 0.13494 0.84359 0.0
H1466 H 0.09058 0.16674 0.88906 0.0
C1467 C 0.13128 0.10667 0.85059 0.0
C1468 C 0.11024 0.09989 0.87056 0.0
H1469 H 0.15197 0.13957 0.827 0.0
H1470 H 0.14222 0.09011 0.83909 0.0
C1471 C 0.09623 0.1219 0.88481 0.0
C1472 C 0.15934 0.36928 0.13819 0.0
C1473 C 0.14567 0.38404 0.16007 0.0
H1474 H 0.16427 0.36396 0.0934 0.0
C1475 C 0.12451 0.40384 0.15317 0.0
H1476 H 0.17578 0.35399 0.14296 0.0
C1477 C 0.11852 0.41017 0.12484 0.0
C1478 C 0.13291 0.39613 0.10295 0.0
H1479 H 0.11383 0.41571 0.16964 0.0
H1480 H 0.10326 0.42664 0.12006 0.0
C1481 C 0.15267 0.37494 0.10988 0.0
C1482 C 0.62743 0.10126 0.85469 0.0
C1483 C 0.64859 0.12098 0.84764 0.0
H1484 H 0.60646 0.07838 0.88792 0.0
C1485 C 0.6626 0.1355 0.86944 0.0
H1486 H 0.61649 0.08956 0.83828 0.0
C1487 C 0.65624 0.1297 0.8978 0.0
C1488 C 0.63645 0.1086 0.90484 0.0
H1489 H 0.67904 0.15074 0.86456 0.0
H1490 H 0.66807 0.14051 0.9142 0.0
C1491 C 0.62175 0.09477 0.88305 0.0
C1492 C 0.87943 0.90417 0.35793 0.0
C1493 C 0.85833 0.88438 0.35096 0.0
H1494 H 0.90074 0.9267 0.39113 0.0
C1495 C 0.84483 0.86937 0.37277 0.0
H1496 H 0.89 0.91623 0.34151 0.0
C1497 C 0.85161 0.87475 0.40111 0.0
C1498 C 0.87132 0.89592 0.40812 0.0
H1499 H 0.82844 0.85406 0.36796 0.0
H1500 H 0.84014 0.86358 0.41754 0.0
C1501 C 0.88553 0.91024 0.38628 0.0
C1502 C 0.84325 0.13486 0.1343 0.0
C1503 C 0.85681 0.12029 0.15637 0.0
H1504 H 0.83879 0.14004 0.08944 0.0
C1505 C 0.87823 0.10067 0.14977 0.0
H1506 H 0.82662 0.15002 0.13884 0.0
C1507 C 0.88461 0.09434 0.12154 0.0
C1508 C 0.87035 0.10821 0.09945 0.0
H1509 H 0.88885 0.08895 0.1664 0.0
H1510 H 0.90008 0.07801 0.11698 0.0
C1511 C 0.8503 0.12921 0.10608 0.0
C1512 C 0.35104 0.62873 0.60207 0.0
C1513 C 0.37065 0.60742 0.59511 0.0
H1514 H 0.32876 0.65035 0.63528 0.0
C1515 C 0.38567 0.5939 0.61691 0.0
H1516 H 0.33898 0.63931 0.58566 0.0
C1517 C 0.38042 0.60085 0.64523 0.0
C1518 C 0.35939 0.62074 0.65226 0.0
H1519 H 0.40084 0.57737 0.6121 0.0
H1520 H 0.39156 0.58934 0.66167 0.0
C1521 C 0.34512 0.635 0.63042 0.0
C1522 C 0.15924 0.6349 0.37225 0.0
C1523 C 0.14544 0.6206 0.35017 0.0
H1524 H 0.16437 0.63934 0.4171 0.0
C1525 C 0.12417 0.60085 0.3568 0.0
H1526 H 0.17576 0.65015 0.36769 0.0
C1527 C 0.11824 0.59404 0.38503 0.0
C1528 C 0.13281 0.60756 0.4071 0.0
H1529 H 0.11338 0.58932 0.34017 0.0
H1530 H 0.10293 0.57758 0.38958 0.0
C1531 C 0.15263 0.62877 0.40048 0.0
C1532 C 0.34655 0.42542 0.88607 0.0
C1533 C 0.36312 0.40724 0.90278 0.0
H1534 H 0.32611 0.43212 0.84614 0.0
C1535 C 0.37289 0.38164 0.8911 0.0
H1536 H 0.33843 0.4451 0.89465 0.0
C1537 C 0.3664 0.37457 0.86296 0.0
C1538 C 0.3491 0.39248 0.84673 0.0
H1539 H 0.38558 0.36721 0.90365 0.0
H1540 H 0.37434 0.35495 0.85412 0.0
C1541 C 0.33925 0.41789 0.85848 0.0
C1542 C 0.60366 0.65532 0.87574 0.0
C1543 C 0.59661 0.63538 0.89672 0.0
H1544 H 0.63687 0.67862 0.85521 0.0
C1545 C 0.61842 0.62092 0.91082 0.0
H1546 H 0.58725 0.66698 0.86474 0.0
C1547 C 0.64679 0.627 0.90476 0.0
C1548 C 0.65381 0.64832 0.88518 0.0
H1549 H 0.61354 0.60554 0.92715 0.0
H1550 H 0.66317 0.61623 0.91668 0.0
C1551 C 0.63202 0.66207 0.87035 0.0
C1552 C 0.5999 0.35555 0.12304 0.0
C1553 C 0.61958 0.34846 0.14423 0.0
H1554 H 0.5773 0.38886 0.10187 0.0
C1555 C 0.63436 0.37022 0.15803 0.0
H1556 H 0.58801 0.33918 0.11225 0.0
C1557 C 0.62884 0.39859 0.15146 0.0
C1558 C 0.60776 0.40569 0.13167 0.0
H1559 H 0.64958 0.36531 0.17449 0.0
H1560 H 0.63983 0.41496 0.16316 0.0
C1561 C 0.59369 0.38393 0.11715 0.0
C1562 C 0.8528 0.38018 0.40235 0.0
C1563 C 0.84588 0.35896 0.38266 0.0
H1564 H 0.88589 0.40125 0.42526 0.0
C1565 C 0.86777 0.34498 0.36819 0.0
H1566 H 0.83632 0.3911 0.414 0.0
C1567 C 0.89609 0.35141 0.37403 0.0
C1568 C 0.903 0.37124 0.39512 0.0
H1569 H 0.86299 0.32849 0.35298 0.0
H1570 H 0.91256 0.33958 0.36328 0.0
C1571 C 0.88112 0.38593 0.40887 0.0
C1572 C 0.90474 0.64806 0.62893 0.0
C1573 C 0.88502 0.65494 0.65017 0.0
H1574 H 0.92752 0.615 0.60762 0.0
C1575 C 0.87046 0.63303 0.66402 0.0
H1576 H 0.91646 0.66455 0.61811 0.0
C1577 C 0.8762 0.60472 0.65739 0.0
C1578 C 0.89727 0.59784 0.6375 0.0
H1579 H 0.85523 0.63778 0.68051 0.0
H1580 H 0.86536 0.58823 0.66909 0.0
C1581 C 0.91115 0.61975 0.62298 0.0
C1582 C 0.60618 0.35138 0.62766 0.0
C1583 C 0.59917 0.37092 0.6063 0.0
H1584 H 0.63941 0.32893 0.64909 0.0
C1585 C 0.62097 0.38563 0.59244 0.0
H1586 H 0.58978 0.33955 0.6385 0.0
C1587 C 0.64932 0.38016 0.59913 0.0
C1588 C 0.65635 0.35921 0.6191 0.0
H1589 H 0.61612 0.40074 0.57586 0.0
H1590 H 0.66573 0.39107 0.58739 0.0
C1591 C 0.63454 0.34523 0.63367 0.0
C1592 C 0.90469 0.35555 0.87928 0.0
C1593 C 0.88507 0.34897 0.85789 0.0
H1594 H 0.92727 0.38834 0.90116 0.0
C1595 C 0.87036 0.37105 0.84447 0.0
H1596 H 0.91651 0.33893 0.88981 0.0
C1597 C 0.87592 0.39926 0.85159 0.0
C1598 C 0.89695 0.40589 0.87158 0.0
H1599 H 0.85519 0.36653 0.82788 0.0
H1600 H 0.86501 0.41591 0.84015 0.0
C1601 C 0.91092 0.38379 0.88574 0.0
C1602 C 0.86958 0.66257 0.13579 0.0
C1603 C 0.84771 0.64874 0.12122 0.0
H1604 H 0.91437 0.66772 0.14087 0.0
C1605 C 0.85463 0.62756 0.10146 0.0
H1606 H 0.8648 0.67902 0.15105 0.0
C1607 C 0.88296 0.62169 0.09501 0.0
C1608 C 0.90484 0.63622 0.1089 0.0
H1609 H 0.83816 0.61675 0.08973 0.0
H1610 H 0.88774 0.60638 0.07861 0.0
C1611 C 0.89791 0.65602 0.13002 0.0
C1612 C 0.59987 0.64793 0.37929 0.0
C1613 C 0.61977 0.65543 0.35844 0.0
H1614 H 0.57682 0.61426 0.39933 0.0
C1615 C 0.63439 0.63394 0.34402 0.0
H1616 H 0.58808 0.6641 0.39053 0.0
C1617 C 0.62854 0.60545 0.34969 0.0
C1618 C 0.60727 0.59799 0.36916 0.0
H1619 H 0.64976 0.63918 0.3278 0.0
H1620 H 0.63944 0.58931 0.33756 0.0
C1621 C 0.59333 0.61946 0.38427 0.0
C1622 C 0.62037 0.91013 0.61988 0.0
C1623 C 0.63488 0.89591 0.59819 0.0
H1624 H 0.61544 0.91608 0.66459 0.0
C1625 C 0.65464 0.87482 0.6054 0.0
H1626 H 0.60511 0.92653 0.61487 0.0
C1627 C 0.66119 0.86943 0.6338 0.0
C1628 C 0.64739 0.88438 0.65547 0.0
H1629 H 0.66634 0.86371 0.58908 0.0
H1630 H 0.67762 0.8542 0.63878 0.0
C1631 C 0.62623 0.90407 0.64829 0.0
loop_
_geom_bond_atom_site_label_1
_geom_bond_atom_site_label_2
_geom_bond_distance
_geom_bond_site_symmetry_2
_ccdc_geom_bond_type
O0 Cd1 2.223 . S
O0 C8 1.315 . S
Cd1 O0 2.223 . S
Cd1 O4 2.297 . S
Cd1 O5 2.439 . S
Cd1 O11 2.240 . S
Cd2 O3 2.240 . S
Cd2 O10 2.223 . S
Cd2 O12 2.297 . S
Cd2 O13 2.439 . S
O3 Cd2 2.240 . S
O3 C8 1.279 . S
O4 Cd1 2.297 . S
O4 C6 1.247 . S
O5 Cd1 2.439 . S
O5 C6 1.208 . S
C6 O4 1.247 . S
C6 O5 1.208 . S
C7 O12 1.247 . S
C7 O13 1.208 . S
C8 O0 1.315 . S
C8 O3 1.279 . S
C9 O10 1.315 . S
C9 O11 1.279 . S
O10 Cd2 2.223 . S
O10 C9 1.315 . S
O11 Cd1 2.240 . S
O11 C9 1.279 . S
O12 Cd2 2.297 . S
O12 C7 1.247 . S
O13 Cd2 2.439 . S
O13 C7 1.208 . S
O14 Cd15 2.223 . S
O14 C22 1.315 . S
Cd15 O14 2.223 . S
Cd15 O18 2.297 . S
Cd15 O19 2.439 . S
Cd15 O25 2.240 . S
Cd16 O17 2.240 . S
Cd16 O24 2.223 1_565 S
Cd16 O26 2.297 . S
Cd16 O27 2.439 . S
O17 Cd16 2.240 . S
O17 C22 1.279 1_655 S
O18 Cd15 2.297 . S
O18 C20 1.247 . S
O19 Cd15 2.439 . S
O19 C20 1.208 . S
C20 O18 1.247 . S
C20 O19 1.208 . S
C21 O26 1.247 . S
C21 O27 1.208 . S
C22 O14 1.315 . S
C22 O17 1.279 1_455 S
C23 O24 1.315 1_455 S
C23 O25 1.279 1_545 S
O24 Cd16 2.223 1_545 S
O24 C23 1.315 1_655 S
O25 Cd15 2.240 . S
O25 C23 1.279 1_565 S
O26 Cd16 2.297 . S
O26 C21 1.247 . S
O27 Cd16 2.439 . S
O27 C21 1.208 . S
O28 Cd29 2.223 . S
O28 C36 1.315 . S
Cd29 O28 2.223 . S
Cd29 O32 2.297 . S
Cd29 O33 2.439 . S
Cd29 O39 2.240 . S
Cd30 O31 2.240 . S
Cd30 O38 2.223 . S
Cd30 O40 2.297 . S
Cd30 O41 2.439 . S
O31 Cd30 2.240 . S
O31 C36 1.279 . S
O32 Cd29 2.297 . S
O32 C34 1.247 . S
O33 Cd29 2.439 . S
O33 C34 1.208 . S
C34 O32 1.247 . S
C34 O33 1.208 . S
C35 O40 1.247 . S
C35 O41 1.208 . S
C36 O28 1.315 . S
C36 O31 1.279 . S
C37 O38 1.315 . S
C37 O39 1.279 . S
O38 Cd30 2.223 . S
O38 C37 1.315 . S
O39 Cd29 2.240 . S
O39 C37 1.279 . S
O40 Cd30 2.297 . S
O40 C35 1.247 . S
O41 Cd30 2.439 . S
O41 C35 1.208 . S
O42 Cd43 2.223 . S
O42 C50 1.315 . S
Cd43 O42 2.223 . S
Cd43 O46 2.297 . S
Cd43 O47 2.439 . S
Cd43 O53 2.240 . S
Cd44 O45 2.240 . S
Cd44 O52 2.223 1_545 S
Cd44 O54 2.297 . S
Cd44 O55 2.439 . S
O45 Cd44 2.240 . S
O45 C50 1.279 . S
O46 Cd43 2.297 . S
O46 C48 1.247 . S
O47 Cd43 2.439 . S
O47 C48 1.208 . S
C48 O46 1.247 . S
C48 O47 1.208 . S
C49 O54 1.247 . S
C49 O55 1.208 . S
C50 O42 1.315 . S
C50 O45 1.279 . S
C51 O52 1.315 . S
C51 O53 1.279 1_565 S
O52 Cd44 2.223 1_565 S
O52 C51 1.315 . S
O53 Cd43 2.240 . S
O53 C51 1.279 1_545 S
O54 Cd44 2.297 . S
O54 C49 1.247 . S
O55 Cd44 2.439 . S
O55 C49 1.208 . S
O56 Cd57 2.223 . S
O56 C64 1.315 . S
Cd57 O56 2.223 . S
Cd57 O60 2.297 . S
Cd57 O61 2.439 . S
Cd57 O67 2.240 . S
Cd58 O59 2.240 . S
Cd58 O66 2.223 . S
Cd58 O68 2.297 . S
Cd58 O69 2.439 . S
O59 Cd58 2.240 . S
O59 C64 1.279 . S
O60 Cd57 2.297 . S
O60 C62 1.247 . S
O61 Cd57 2.439 . S
O61 C62 1.208 . S
C62 O60 1.247 . S
C62 O61 1.208 . S
C63 O68 1.247 . S
C63 O69 1.208 . S
C64 O56 1.315 . S
C64 O59 1.279 . S
C65 O66 1.315 . S
C65 O67 1.279 . S
O66 Cd58 2.223 . S
O66 C65 1.315 . S
O67 Cd57 2.240 . S
O67 C65 1.279 . S
O68 Cd58 2.297 . S
O68 C63 1.247 . S
O69 Cd58 2.439 . S
O69 C63 1.208 . S
O70 Cd71 2.223 . S
O70 C78 1.315 . S
Cd71 O70 2.223 . S
Cd71 O74 2.297 . S
Cd71 O75 2.439 . S
Cd71 O81 2.240 . S
Cd72 O73 2.240 . S
Cd72 O80 2.223 1_565 S
Cd72 O82 2.297 . S
Cd72 O83 2.439 . S
O73 Cd72 2.240 . S
O73 C78 1.279 . S
O74 Cd71 2.297 . S
O74 C76 1.247 . S
O75 Cd71 2.439 . S
O75 C76 1.208 . S
C76 O74 1.247 . S
C76 O75 1.208 . S
C77 O82 1.247 . S
C77 O83 1.208 . S
C78 O70 1.315 . S
C78 O73 1.279 . S
C79 O80 1.315 . S
C79 O81 1.279 1_545 S
O80 Cd72 2.223 1_545 S
O80 C79 1.315 . S
O81 Cd71 2.240 . S
O81 C79 1.279 1_565 S
O82 Cd72 2.297 . S
O82 C77 1.247 . S
O83 Cd72 2.439 . S
O83 C77 1.208 . S
O84 Cd85 2.223 . S
O84 C92 1.315 . S
Cd85 O84 2.223 . S
Cd85 O88 2.297 . S
Cd85 O89 2.439 . S
Cd85 O95 2.240 . S
Cd86 O87 2.240 . S
Cd86 O94 2.223 . S
Cd86 O96 2.297 . S
Cd86 O97 2.439 . S
O87 Cd86 2.240 . S
O87 C92 1.279 . S
O88 Cd85 2.297 . S
O88 C90 1.247 . S
O89 Cd85 2.439 . S
O89 C90 1.208 . S
C90 O88 1.247 . S
C90 O89 1.208 . S
C91 O96 1.247 . S
C91 O97 1.208 . S
C92 O84 1.315 . S
C92 O87 1.279 . S
C93 O94 1.315 . S
C93 O95 1.279 . S
O94 Cd86 2.223 . S
O94 C93 1.315 . S
O95 Cd85 2.240 . S
O95 C93 1.279 . S
O96 Cd86 2.297 . S
O96 C91 1.247 . S
O97 Cd86 2.439 . S
O97 C91 1.208 . S
O98 Cd99 2.223 . S
O98 C106 1.315 . S
Cd99 O98 2.223 . S
Cd99 O102 2.297 . S
Cd99 O103 2.439 . S
Cd99 O109 2.240 . S
Cd100 O101 2.240 . S
Cd100 O108 2.223 1_545 S
Cd100 O110 2.297 . S
Cd100 O111 2.439 . S
O101 Cd100 2.240 . S
O101 C106 1.279 1_655 S
O102 Cd99 2.297 . S
O102 C104 1.247 . S
O103 Cd99 2.439 . S
O103 C104 1.208 . S
C104 O102 1.247 . S
C104 O103 1.208 . S
C105 O110 1.247 . S
C105 O111 1.208 . S
C106 O98 1.315 . S
C106 O101 1.279 1_455 S
C107 O108 1.315 1_455 S
C107 O109 1.279 1_565 S
O108 Cd100 2.223 1_565 S
O108 C107 1.315 1_655 S
O109 Cd99 2.240 . S
O109 C107 1.279 1_545 S
O110 Cd100 2.297 . S
O110 C105 1.247 . S
O111 Cd100 2.439 . S
O111 C105 1.208 . S
O112 Cd113 2.223 . S
O112 C120 1.315 . S
Cd113 O112 2.223 . S
Cd113 O116 2.297 . S
Cd113 O117 2.439 . S
Cd113 O123 2.240 . S
Cd114 O115 2.240 . S
Cd114 O122 2.223 . S
Cd114 O124 2.297 . S
Cd114 O125 2.439 . S
O115 Cd114 2.240 . S
O115 C120 1.279 . S
O116 Cd113 2.297 . S
O116 C118 1.247 . S
O117 Cd113 2.439 . S
O117 C118 1.208 . S
C118 O116 1.247 . S
C118 O117 1.208 . S
C119 O124 1.247 . S
C119 O125 1.208 . S
C120 O112 1.315 . S
C120 O115 1.279 . S
C121 O122 1.315 . S
C121 O123 1.279 . S
O122 Cd114 2.223 . S
O122 C121 1.315 . S
O123 Cd113 2.240 . S
O123 C121 1.279 . S
O124 Cd114 2.297 . S
O124 C119 1.247 . S
O125 Cd114 2.439 . S
O125 C119 1.208 . S
O126 Cd127 2.223 . S
O126 C134 1.315 . S
Cd127 O126 2.223 . S
Cd127 O130 2.297 . S
Cd127 O131 2.439 . S
Cd127 O137 2.240 . S
Cd128 O129 2.240 . S
Cd128 O136 2.223 1_455 S
Cd128 O138 2.297 . S
Cd128 O139 2.439 . S
O129 Cd128 2.240 . S
O129 C134 1.279 . S
O130 Cd127 2.297 . S
O130 C132 1.247 . S
O131 Cd127 2.439 . S
O131 C132 1.208 . S
C132 O130 1.247 . S
C132 O131 1.208 . S
C133 O138 1.247 . S
C133 O139 1.208 . S
C134 O126 1.315 . S
C134 O129 1.279 . S
C135 O136 1.315 . S
C135 O137 1.279 1_655 S
O136 Cd128 2.223 1_655 S
O136 C135 1.315 . S
O137 Cd127 2.240 . S
O137 C135 1.279 1_455 S
O138 Cd128 2.297 . S
O138 C133 1.247 . S
O139 Cd128 2.439 . S
O139 C133 1.208 . S
O140 Cd141 2.223 . S
O140 C148 1.315 . S
Cd141 O140 2.223 . S
Cd141 O144 2.297 . S
Cd141 O145 2.439 . S
Cd141 O151 2.240 . S
Cd142 O143 2.240 . S
Cd142 O150 2.223 . S
Cd142 O152 2.297 . S
Cd142 O153 2.439 . S
O143 Cd142 2.240 . S
O143 C148 1.279 . S
O144 Cd141 2.297 . S
O144 C146 1.247 . S
O145 Cd141 2.439 . S
O145 C146 1.208 . S
C146 O144 1.247 . S
C146 O145 1.208 . S
C147 O152 1.247 . S
C147 O153 1.208 . S
C148 O140 1.315 . S
C148 O143 1.279 . S
C149 O150 1.315 . S
C149 O151 1.279 . S
O150 Cd142 2.223 . S
O150 C149 1.315 . S
O151 Cd141 2.240 . S
O151 C149 1.279 . S
O152 Cd142 2.297 . S
O152 C147 1.247 . S
O153 Cd142 2.439 . S
O153 C147 1.208 . S
O154 Cd155 2.223 . S
O154 C162 1.315 . S
Cd155 O154 2.223 . S
Cd155 O158 2.297 . S
Cd155 O159 2.439 . S
Cd155 O165 2.240 . S
Cd156 O157 2.240 . S
Cd156 O164 2.223 . S
Cd156 O166 2.297 . S
Cd156 O167 2.439 . S
O157 Cd156 2.240 . S
O157 C162 1.279 1_554 S
O158 Cd155 2.297 . S
O158 C160 1.247 . S
O159 Cd155 2.439 . S
O159 C160 1.208 . S
C160 O158 1.247 . S
C160 O159 1.208 . S
C161 O166 1.247 . S
C161 O167 1.208 . S
C162 O154 1.315 . S
C162 O157 1.279 1_556 S
C163 O164 1.315 1_556 S
C163 O165 1.279 . S
O164 Cd156 2.223 . S
O164 C163 1.315 1_554 S
O165 Cd155 2.240 . S
O165 C163 1.279 . S
O166 Cd156 2.297 . S
O166 C161 1.247 . S
O167 Cd156 2.439 . S
O167 C161 1.208 . S
O168 Cd169 2.223 . S
O168 C176 1.315 . S
Cd169 O168 2.223 . S
Cd169 O172 2.297 . S
Cd169 O173 2.439 . S
Cd169 O179 2.240 . S
Cd170 O171 2.240 . S
Cd170 O178 2.223 . S
Cd170 O180 2.297 . S
Cd170 O181 2.439 . S
O171 Cd170 2.240 . S
O171 C176 1.279 . S
O172 Cd169 2.297 . S
O172 C174 1.247 . S
O173 Cd169 2.439 . S
O173 C174 1.208 . S
C174 O172 1.247 . S
C174 O173 1.208 . S
C175 O180 1.247 . S
C175 O181 1.208 . S
C176 O168 1.315 . S
C176 O171 1.279 . S
C177 O178 1.315 . S
C177 O179 1.279 . S
O178 Cd170 2.223 . S
O178 C177 1.315 . S
O179 Cd169 2.240 . S
O179 C177 1.279 . S
O180 Cd170 2.297 . S
O180 C175 1.247 . S
O181 Cd170 2.439 . S
O181 C175 1.208 . S
O182 Cd183 2.223 . S
O182 C190 1.315 . S
Cd183 O182 2.223 . S
Cd183 O186 2.297 . S
Cd183 O187 2.439 . S
Cd183 O193 2.240 . S
Cd184 O185 2.240 . S
Cd184 O192 2.223 . S
Cd184 O194 2.297 . S
Cd184 O195 2.439 . S
O185 Cd184 2.240 . S
O185 C190 1.279 . S
O186 Cd183 2.297 . S
O186 C188 1.247 . S
O187 Cd183 2.439 . S
O187 C188 1.208 . S
C188 O186 1.247 . S
C188 O187 1.208 . S
C189 O194 1.247 . S
C189 O195 1.208 . S
C190 O182 1.315 . S
C190 O185 1.279 . S
C191 O192 1.315 . S
C191 O193 1.279 . S
O192 Cd184 2.223 . S
O192 C191 1.315 . S
O193 Cd183 2.240 . S
O193 C191 1.279 . S
O194 Cd184 2.297 . S
O194 C189 1.247 . S
O195 Cd184 2.439 . S
O195 C189 1.208 . S
O196 Cd197 2.223 . S
O196 C204 1.315 . S
Cd197 O196 2.223 . S
Cd197 O200 2.297 . S
Cd197 O201 2.439 . S
Cd197 O207 2.240 . S
Cd198 O199 2.240 . S
Cd198 O206 2.223 . S
Cd198 O208 2.297 . S
Cd198 O209 2.439 . S
O199 Cd198 2.240 . S
O199 C204 1.279 . S
O200 Cd197 2.297 . S
O200 C202 1.247 . S
O201 Cd197 2.439 . S
O201 C202 1.208 . S
C202 O200 1.247 . S
C202 O201 1.208 . S
C203 O208 1.247 . S
C203 O209 1.208 . S
C204 O196 1.315 . S
C204 O199 1.279 . S
C205 O206 1.315 . S
C205 O207 1.279 . S
O206 Cd198 2.223 . S
O206 C205 1.315 . S
O207 Cd197 2.240 . S
O207 C205 1.279 . S
O208 Cd198 2.297 . S
O208 C203 1.247 . S
O209 Cd198 2.439 . S
O209 C203 1.208 . S
O210 Cd211 2.223 . S
O210 C218 1.315 . S
Cd211 O210 2.223 . S
Cd211 O214 2.297 . S
Cd211 O215 2.439 . S
Cd211 O221 2.240 . S
Cd212 O213 2.240 . S
Cd212 O220 2.223 1_455 S
Cd212 O222 2.297 . S
Cd212 O223 2.439 . S
O213 Cd212 2.240 . S
O213 C218 1.279 1_556 S
O214 Cd211 2.297 . S
O214 C216 1.247 . S
O215 Cd211 2.439 . S
O215 C216 1.208 . S
C216 O214 1.247 . S
C216 O215 1.208 . S
C217 O222 1.247 . S
C217 O223 1.208 . S
C218 O210 1.315 . S
C218 O213 1.279 1_554 S
C219 O220 1.315 1_554 S
C219 O221 1.279 1_655 S
O220 Cd212 2.223 1_655 S
O220 C219 1.315 1_556 S
O221 Cd211 2.240 . S
O221 C219 1.279 1_455 S
O222 Cd212 2.297 . S
O222 C217 1.247 . S
O223 Cd212 2.439 . S
O223 C217 1.208 . S
O224 Cd225 2.223 . S
O224 C232 1.315 . S
Cd225 O224 2.223 . S
Cd225 O228 2.297 . S
Cd225 O229 2.439 . S
Cd225 O235 2.240 . S
Cd226 O227 2.240 . S
Cd226 O234 2.223 . S
Cd226 O236 2.297 . S
Cd226 O237 2.439 . S
O227 Cd226 2.240 . S
O227 C232 1.279 . S
O228 Cd225 2.297 . S
O228 C230 1.247 . S
O229 Cd225 2.439 . S
O229 C230 1.208 . S
C230 O228 1.247 . S
C230 O229 1.208 . S
C231 O236 1.247 . S
C231 O237 1.208 . S
C232 O224 1.315 . S
C232 O227 1.279 . S
C233 O234 1.315 . S
C233 O235 1.279 . S
O234 Cd226 2.223 . S
O234 C233 1.315 . S
O235 Cd225 2.240 . S
O235 C233 1.279 . S
O236 Cd226 2.297 . S
O236 C231 1.247 . S
O237 Cd226 2.439 . S
O237 C231 1.208 . S
O238 Cd239 2.223 . S
O238 C246 1.315 . S
Cd239 O238 2.223 . S
Cd239 O242 2.297 . S
Cd239 O243 2.439 . S
Cd239 O249 2.240 . S
Cd240 O241 2.240 . S
Cd240 O248 2.223 . S
Cd240 O250 2.297 . S
Cd240 O251 2.439 . S
O241 Cd240 2.240 . S
O241 C246 1.279 . S
O242 Cd239 2.297 . S
O242 C244 1.247 . S
O243 Cd239 2.439 . S
O243 C244 1.208 . S
C244 O242 1.247 . S
C244 O243 1.208 . S
C245 O250 1.247 . S
C245 O251 1.208 . S
C246 O238 1.315 . S
C246 O241 1.279 . S
C247 O248 1.315 . S
C247 O249 1.279 . S
O248 Cd240 2.223 . S
O248 C247 1.315 . S
O249 Cd239 2.240 . S
O249 C247 1.279 . S
O250 Cd240 2.297 . S
O250 C245 1.247 . S
O251 Cd240 2.439 . S
O251 C245 1.208 . S
O252 Cd253 2.223 . S
O252 C260 1.315 . S
Cd253 O252 2.223 . S
Cd253 O256 2.297 . S
Cd253 O257 2.439 . S
Cd253 O263 2.240 . S
Cd254 O255 2.240 . S
Cd254 O262 2.223 1_554 S
Cd254 O264 2.297 . S
Cd254 O265 2.439 . S
O255 Cd254 2.240 . S
O255 C260 1.279 . S
O256 Cd253 2.297 . S
O256 C258 1.247 . S
O257 Cd253 2.439 . S
O257 C258 1.208 . S
C258 O256 1.247 . S
C258 O257 1.208 . S
C259 O264 1.247 . S
C259 O265 1.208 . S
C260 O252 1.315 . S
C260 O255 1.279 . S
C261 O262 1.315 . S
C261 O263 1.279 1_556 S
O262 Cd254 2.223 1_556 S
O262 C261 1.315 . S
O263 Cd253 2.240 . S
O263 C261 1.279 1_554 S
O264 Cd254 2.297 . S
O264 C259 1.247 . S
O265 Cd254 2.439 . S
O265 C259 1.208 . S
O266 Cd267 2.223 . S
O266 C274 1.315 . S
Cd267 O266 2.223 . S
Cd267 O270 2.297 . S
Cd267 O271 2.439 . S
Cd267 O277 2.240 . S
Cd268 O269 2.240 . S
Cd268 O276 2.223 . S
Cd268 O278 2.297 . S
Cd268 O279 2.439 . S
O269 Cd268 2.240 . S
O269 C274 1.279 . S
O270 Cd267 2.297 . S
O270 C272 1.247 . S
O271 Cd267 2.439 . S
O271 C272 1.208 . S
C272 O270 1.247 . S
C272 O271 1.208 . S
C273 O278 1.247 . S
C273 O279 1.208 . S
C274 O266 1.315 . S
C274 O269 1.279 . S
C275 O276 1.315 . S
C275 O277 1.279 . S
O276 Cd268 2.223 . S
O276 C275 1.315 . S
O277 Cd267 2.240 . S
O277 C275 1.279 . S
O278 Cd268 2.297 . S
O278 C273 1.247 . S
O279 Cd268 2.439 . S
O279 C273 1.208 . S
O280 Cd281 2.223 . S
O280 C288 1.315 . S
Cd281 O280 2.223 . S
Cd281 O284 2.297 . S
Cd281 O285 2.439 . S
Cd281 O291 2.240 . S
Cd282 O283 2.240 . S
Cd282 O290 2.223 1_554 S
Cd282 O292 2.297 . S
Cd282 O293 2.439 . S
O283 Cd282 2.240 . S
O283 C288 1.279 1_565 S
O284 Cd281 2.297 . S
O284 C286 1.247 . S
O285 Cd281 2.439 . S
O285 C286 1.208 . S
C286 O284 1.247 . S
C286 O285 1.208 . S
C287 O292 1.247 . S
C287 O293 1.208 . S
C288 O280 1.315 . S
C288 O283 1.279 1_545 S
C289 O290 1.315 1_545 S
C289 O291 1.279 1_556 S
O290 Cd282 2.223 1_556 S
O290 C289 1.315 1_565 S
O291 Cd281 2.240 . S
O291 C289 1.279 1_554 S
O292 Cd282 2.297 . S
O292 C287 1.247 . S
O293 Cd282 2.439 . S
O293 C287 1.208 . S
O294 Cd295 2.223 . S
O294 C302 1.315 . S
Cd295 O294 2.223 . S
Cd295 O298 2.297 . S
Cd295 O299 2.439 . S
Cd295 O305 2.240 . S
Cd296 O297 2.240 . S
Cd296 O304 2.223 . S
Cd296 O306 2.297 . S
Cd296 O307 2.439 . S
O297 Cd296 2.240 . S
O297 C302 1.279 . S
O298 Cd295 2.297 . S
O298 C300 1.247 . S
O299 Cd295 2.439 . S
O299 C300 1.208 . S
C300 O298 1.247 . S
C300 O299 1.208 . S
C301 O306 1.247 . S
C301 O307 1.208 . S
C302 O294 1.315 . S
C302 O297 1.279 . S
C303 O304 1.315 . S
C303 O305 1.279 . S
O304 Cd296 2.223 . S
O304 C303 1.315 . S
O305 Cd295 2.240 . S
O305 C303 1.279 . S
O306 Cd296 2.297 . S
O306 C301 1.247 . S
O307 Cd296 2.439 . S
O307 C301 1.208 . S
O308 Cd309 2.223 . S
O308 C316 1.315 . S
Cd309 O308 2.223 . S
Cd309 O312 2.297 . S
Cd309 O313 2.439 . S
Cd309 O319 2.240 . S
Cd310 O311 2.240 . S
Cd310 O318 2.223 . S
Cd310 O320 2.297 . S
Cd310 O321 2.439 . S
O311 Cd310 2.240 . S
O311 C316 1.279 . S
O312 Cd309 2.297 . S
O312 C314 1.247 . S
O313 Cd309 2.439 . S
O313 C314 1.208 . S
C314 O312 1.247 . S
C314 O313 1.208 . S
C315 O320 1.247 . S
C315 O321 1.208 . S
C316 O308 1.315 . S
C316 O311 1.279 . S
C317 O318 1.315 . S
C317 O319 1.279 . S
O318 Cd310 2.223 . S
O318 C317 1.315 . S
O319 Cd309 2.240 . S
O319 C317 1.279 . S
O320 Cd310 2.297 . S
O320 C315 1.247 . S
O321 Cd310 2.439 . S
O321 C315 1.208 . S
O322 Cd323 2.223 . S
O322 C330 1.315 . S
Cd323 O322 2.223 . S
Cd323 O326 2.297 . S
Cd323 O327 2.439 . S
Cd323 O333 2.240 . S
Cd324 O325 2.240 . S
Cd324 O332 2.223 1_556 S
Cd324 O334 2.297 . S
Cd324 O335 2.439 . S
O325 Cd324 2.240 . S
O325 C330 1.279 . S
O326 Cd323 2.297 . S
O326 C328 1.247 . S
O327 Cd323 2.439 . S
O327 C328 1.208 . S
C328 O326 1.247 . S
C328 O327 1.208 . S
C329 O334 1.247 . S
C329 O335 1.208 . S
C330 O322 1.315 . S
C330 O325 1.279 . S
C331 O332 1.315 . S
C331 O333 1.279 1_554 S
O332 Cd324 2.223 1_554 S
O332 C331 1.315 . S
O333 Cd323 2.240 . S
O333 C331 1.279 1_556 S
O334 Cd324 2.297 . S
O334 C329 1.247 . S
O335 Cd324 2.439 . S
O335 C329 1.208 . S
O336 Cd337 2.223 . S
O336 C344 1.315 . S
Cd337 O336 2.223 . S
Cd337 O340 2.297 . S
Cd337 O341 2.439 . S
Cd337 O347 2.240 . S
Cd338 O339 2.240 . S
Cd338 O346 2.223 . S
Cd338 O348 2.297 . S
Cd338 O349 2.439 . S
O339 Cd338 2.240 . S
O339 C344 1.279 . S
O340 Cd337 2.297 . S
O340 C342 1.247 . S
O341 Cd337 2.439 . S
O341 C342 1.208 . S
C342 O340 1.247 . S
C342 O341 1.208 . S
C343 O348 1.247 . S
C343 O349 1.208 . S
C344 O336 1.315 . S
C344 O339 1.279 . S
C345 O346 1.315 . S
C345 O347 1.279 . S
O346 Cd338 2.223 . S
O346 C345 1.315 . S
O347 Cd337 2.240 . S
O347 C345 1.279 . S
O348 Cd338 2.297 . S
O348 C343 1.247 . S
O349 Cd338 2.439 . S
O349 C343 1.208 . S
O350 Cd351 2.223 . S
O350 C358 1.315 . S
Cd351 O350 2.223 . S
Cd351 O354 2.297 . S
Cd351 O355 2.439 . S
Cd351 O361 2.240 . S
Cd352 O353 2.240 . S
Cd352 O360 2.223 . S
Cd352 O362 2.297 . S
Cd352 O363 2.439 . S
O353 Cd352 2.240 . S
O353 C358 1.279 . S
O354 Cd351 2.297 . S
O354 C356 1.247 . S
O355 Cd351 2.439 . S
O355 C356 1.208 . S
C356 O354 1.247 . S
C356 O355 1.208 . S
C357 O362 1.247 . S
C357 O363 1.208 . S
C358 O350 1.315 . S
C358 O353 1.279 . S
C359 O360 1.315 . S
C359 O361 1.279 . S
O360 Cd352 2.223 . S
O360 C359 1.315 . S
O361 Cd351 2.240 . S
O361 C359 1.279 . S
O362 Cd352 2.297 . S
O362 C357 1.247 . S
O363 Cd352 2.439 . S
O363 C357 1.208 . S
O364 Cd365 2.223 . S
O364 C372 1.315 . S
Cd365 O364 2.223 . S
Cd365 O368 2.297 . S
Cd365 O369 2.439 . S
Cd365 O375 2.240 . S
Cd366 O367 2.240 . S
Cd366 O374 2.223 . S
Cd366 O376 2.297 . S
Cd366 O377 2.439 . S
O367 Cd366 2.240 . S
O367 C372 1.279 . S
O368 Cd365 2.297 . S
O368 C370 1.247 . S
O369 Cd365 2.439 . S
O369 C370 1.208 . S
C370 O368 1.247 . S
C370 O369 1.208 . S
C371 O376 1.247 . S
C371 O377 1.208 . S
C372 O364 1.315 . S
C372 O367 1.279 . S
C373 O374 1.315 . S
C373 O375 1.279 . S
O374 Cd366 2.223 . S
O374 C373 1.315 . S
O375 Cd365 2.240 . S
O375 C373 1.279 . S
O376 Cd366 2.297 . S
O376 C371 1.247 . S
O377 Cd366 2.439 . S
O377 C371 1.208 . S
O378 Cd379 2.223 . S
O378 C386 1.315 . S
Cd379 O378 2.223 . S
Cd379 O382 2.297 . S
Cd379 O383 2.439 . S
Cd379 O389 2.240 . S
Cd380 O381 2.240 . S
Cd380 O388 2.223 . S
Cd380 O390 2.297 . S
Cd380 O391 2.439 . S
O381 Cd380 2.240 . S
O381 C386 1.279 1_455 S
O382 Cd379 2.297 . S
O382 C384 1.247 . S
O383 Cd379 2.439 . S
O383 C384 1.208 . S
C384 O382 1.247 . S
C384 O383 1.208 . S
C385 O390 1.247 . S
C385 O391 1.208 . S
C386 O378 1.315 . S
C386 O381 1.279 1_655 S
C387 O388 1.315 1_655 S
C387 O389 1.279 . S
O388 Cd380 2.223 . S
O388 C387 1.315 1_455 S
O389 Cd379 2.240 . S
O389 C387 1.279 . S
O390 Cd380 2.297 . S
O390 C385 1.247 . S
O391 Cd380 2.439 . S
O391 C385 1.208 . S
O392 Cd393 2.223 . S
O392 C400 1.315 . S
Cd393 O392 2.223 . S
Cd393 O396 2.297 . S
Cd393 O397 2.439 . S
Cd393 O403 2.240 . S
Cd394 O395 2.240 . S
Cd394 O402 2.223 . S
Cd394 O404 2.297 . S
Cd394 O405 2.439 . S
O395 Cd394 2.240 . S
O395 C400 1.279 . S
O396 Cd393 2.297 . S
O396 C398 1.247 . S
O397 Cd393 2.439 . S
O397 C398 1.208 . S
C398 O396 1.247 . S
C398 O397 1.208 . S
C399 O404 1.247 . S
C399 O405 1.208 . S
C400 O392 1.315 . S
C400 O395 1.279 . S
C401 O402 1.315 . S
C401 O403 1.279 . S
O402 Cd394 2.223 . S
O402 C401 1.315 . S
O403 Cd393 2.240 . S
O403 C401 1.279 . S
O404 Cd394 2.297 . S
O404 C399 1.247 . S
O405 Cd394 2.439 . S
O405 C399 1.208 . S
O406 Cd407 2.223 . S
O406 C414 1.315 . S
Cd407 O406 2.223 . S
Cd407 O410 2.297 . S
Cd407 O411 2.439 . S
Cd407 O417 2.240 . S
Cd408 O409 2.240 . S
Cd408 O416 2.223 . S
Cd408 O418 2.297 . S
Cd408 O419 2.439 . S
O409 Cd408 2.240 . S
O409 C414 1.279 1_455 S
O410 Cd407 2.297 . S
O410 C412 1.247 . S
O411 Cd407 2.439 . S
O411 C412 1.208 . S
C412 O410 1.247 . S
C412 O411 1.208 . S
C413 O418 1.247 . S
C413 O419 1.208 . S
C414 O406 1.315 . S
C414 O409 1.279 1_655 S
C415 O416 1.315 1_655 S
C415 O417 1.279 . S
O416 Cd408 2.223 . S
O416 C415 1.315 1_455 S
O417 Cd407 2.240 . S
O417 C415 1.279 . S
O418 Cd408 2.297 . S
O418 C413 1.247 . S
O419 Cd408 2.439 . S
O419 C413 1.208 . S
O420 Cd421 2.223 . S
O420 C428 1.315 . S
Cd421 O420 2.223 . S
Cd421 O424 2.297 . S
Cd421 O425 2.439 . S
Cd421 O431 2.240 . S
Cd422 O423 2.240 . S
Cd422 O430 2.223 . S
Cd422 O432 2.297 . S
Cd422 O433 2.439 . S
O423 Cd422 2.240 . S
O423 C428 1.279 . S
O424 Cd421 2.297 . S
O424 C426 1.247 . S
O425 Cd421 2.439 . S
O425 C426 1.208 . S
C426 O424 1.247 . S
C426 O425 1.208 . S
C427 O432 1.247 . S
C427 O433 1.208 . S
C428 O420 1.315 . S
C428 O423 1.279 . S
C429 O430 1.315 . S
C429 O431 1.279 . S
O430 Cd422 2.223 . S
O430 C429 1.315 . S
O431 Cd421 2.240 . S
O431 C429 1.279 . S
O432 Cd422 2.297 . S
O432 C427 1.247 . S
O433 Cd422 2.439 . S
O433 C427 1.208 . S
O434 Cd435 2.223 . S
O434 C442 1.315 . S
Cd435 O434 2.223 . S
Cd435 O438 2.297 . S
Cd435 O439 2.439 . S
Cd435 O445 2.240 . S
Cd436 O437 2.240 . S
Cd436 O444 2.223 . S
Cd436 O446 2.297 . S
Cd436 O447 2.439 . S
O437 Cd436 2.240 . S
O437 C442 1.279 . S
O438 Cd435 2.297 . S
O438 C440 1.247 . S
O439 Cd435 2.439 . S
O439 C440 1.208 . S
C440 O438 1.247 . S
C440 O439 1.208 . S
C441 O446 1.247 . S
C441 O447 1.208 . S
C442 O434 1.315 . S
C442 O437 1.279 . S
C443 O444 1.315 . S
C443 O445 1.279 . S
O444 Cd436 2.223 . S
O444 C443 1.315 . S
O445 Cd435 2.240 . S
O445 C443 1.279 . S
O446 Cd436 2.297 . S
O446 C441 1.247 . S
O447 Cd436 2.439 . S
O447 C441 1.208 . S
O448 Cd449 2.223 . S
O448 C456 1.315 . S
Cd449 O448 2.223 . S
Cd449 O452 2.297 . S
Cd449 O453 2.439 . S
Cd449 O459 2.240 . S
Cd450 O451 2.240 . S
Cd450 O458 2.223 . S
Cd450 O460 2.297 . S
Cd450 O461 2.439 . S
O451 Cd450 2.240 . S
O451 C456 1.279 . S
O452 Cd449 2.297 . S
O452 C454 1.247 . S
O453 Cd449 2.439 . S
O453 C454 1.208 . S
C454 O452 1.247 . S
C454 O453 1.208 . S
C455 O460 1.247 . S
C455 O461 1.208 . S
C456 O448 1.315 . S
C456 O451 1.279 . S
C457 O458 1.315 . S
C457 O459 1.279 . S
O458 Cd450 2.223 . S
O458 C457 1.315 . S
O459 Cd449 2.240 . S
O459 C457 1.279 . S
O460 Cd450 2.297 . S
O460 C455 1.247 . S
O461 Cd450 2.439 . S
O461 C455 1.208 . S
O462 Cd463 2.223 . S
O462 C470 1.315 . S
Cd463 O462 2.223 . S
Cd463 O466 2.297 . S
Cd463 O467 2.439 . S
Cd463 O473 2.240 . S
Cd464 O465 2.240 . S
Cd464 O472 2.223 . S
Cd464 O474 2.297 . S
Cd464 O475 2.439 . S
O465 Cd464 2.240 . S
O465 C470 1.279 1_554 S
O466 Cd463 2.297 . S
O466 C468 1.247 . S
O467 Cd463 2.439 . S
O467 C468 1.208 . S
C468 O466 1.247 . S
C468 O467 1.208 . S
C469 O474 1.247 . S
C469 O475 1.208 . S
C470 O462 1.315 . S
C470 O465 1.279 1_556 S
C471 O472 1.315 1_556 S
C471 O473 1.279 . S
O472 Cd464 2.223 . S
O472 C471 1.315 1_554 S
O473 Cd463 2.240 . S
O473 C471 1.279 . S
O474 Cd464 2.297 . S
O474 C469 1.247 . S
O475 Cd464 2.439 . S
O475 C469 1.208 . S
O476 Cd477 2.223 . S
O476 C484 1.315 . S
Cd477 O476 2.223 . S
Cd477 O480 2.297 . S
Cd477 O481 2.439 . S
Cd477 O487 2.240 . S
Cd478 O479 2.240 . S
Cd478 O486 2.223 . S
Cd478 O488 2.297 . S
Cd478 O489 2.439 . S
O479 Cd478 2.240 . S
O479 C484 1.279 . S
O480 Cd477 2.297 . S
O480 C482 1.247 . S
O481 Cd477 2.439 . S
O481 C482 1.208 . S
C482 O480 1.247 . S
C482 O481 1.208 . S
C483 O488 1.247 . S
C483 O489 1.208 . S
C484 O476 1.315 . S
C484 O479 1.279 . S
C485 O486 1.315 . S
C485 O487 1.279 . S
O486 Cd478 2.223 . S
O486 C485 1.315 . S
O487 Cd477 2.240 . S
O487 C485 1.279 . S
O488 Cd478 2.297 . S
O488 C483 1.247 . S
O489 Cd478 2.439 . S
O489 C483 1.208 . S
O490 Cd491 2.223 . S
O490 C498 1.315 . S
Cd491 O490 2.223 . S
Cd491 O494 2.297 . S
Cd491 O495 2.439 . S
Cd491 O501 2.240 . S
Cd492 O493 2.240 . S
Cd492 O500 2.223 1_655 S
Cd492 O502 2.297 . S
Cd492 O503 2.439 . S
O493 Cd492 2.240 . S
O493 C498 1.279 . S
O494 Cd491 2.297 . S
O494 C496 1.247 . S
O495 Cd491 2.439 . S
O495 C496 1.208 . S
C496 O494 1.247 . S
C496 O495 1.208 . S
C497 O502 1.247 . S
C497 O503 1.208 . S
C498 O490 1.315 . S
C498 O493 1.279 . S
C499 O500 1.315 . S
C499 O501 1.279 1_455 S
O500 Cd492 2.223 1_455 S
O500 C499 1.315 . S
O501 Cd491 2.240 . S
O501 C499 1.279 1_655 S
O502 Cd492 2.297 . S
O502 C497 1.247 . S
O503 Cd492 2.439 . S
O503 C497 1.208 . S
O504 Cd505 2.223 . S
O504 C512 1.315 . S
Cd505 O504 2.223 . S
Cd505 O508 2.297 . S
Cd505 O509 2.439 . S
Cd505 O515 2.240 . S
Cd506 O507 2.240 . S
Cd506 O514 2.223 . S
Cd506 O516 2.297 . S
Cd506 O517 2.439 . S
O507 Cd506 2.240 . S
O507 C512 1.279 . S
O508 Cd505 2.297 . S
O508 C510 1.247 . S
O509 Cd505 2.439 . S
O509 C510 1.208 . S
C510 O508 1.247 . S
C510 O509 1.208 . S
C511 O516 1.247 . S
C511 O517 1.208 . S
C512 O504 1.315 . S
C512 O507 1.279 . S
C513 O514 1.315 . S
C513 O515 1.279 . S
O514 Cd506 2.223 . S
O514 C513 1.315 . S
O515 Cd505 2.240 . S
O515 C513 1.279 . S
O516 Cd506 2.297 . S
O516 C511 1.247 . S
O517 Cd506 2.439 . S
O517 C511 1.208 . S
O518 Cd519 2.223 . S
O518 C526 1.315 . S
Cd519 O518 2.223 . S
Cd519 O522 2.297 . S
Cd519 O523 2.439 . S
Cd519 O529 2.240 . S
Cd520 O521 2.240 . S
Cd520 O528 2.223 1_655 S
Cd520 O530 2.297 . S
Cd520 O531 2.439 . S
O521 Cd520 2.240 . S
O521 C526 1.279 1_556 S
O522 Cd519 2.297 . S
O522 C524 1.247 . S
O523 Cd519 2.439 . S
O523 C524 1.208 . S
C524 O522 1.247 . S
C524 O523 1.208 . S
C525 O530 1.247 . S
C525 O531 1.208 . S
C526 O518 1.315 . S
C526 O521 1.279 1_554 S
C527 O528 1.315 1_554 S
C527 O529 1.279 1_455 S
O528 Cd520 2.223 1_455 S
O528 C527 1.315 1_556 S
O529 Cd519 2.240 . S
O529 C527 1.279 1_655 S
O530 Cd520 2.297 . S
O530 C525 1.247 . S
O531 Cd520 2.439 . S
O531 C525 1.208 . S
O532 Cd533 2.223 . S
O532 C540 1.315 . S
Cd533 O532 2.223 . S
Cd533 O536 2.297 . S
Cd533 O537 2.439 . S
Cd533 O543 2.240 . S
Cd534 O535 2.240 . S
Cd534 O542 2.223 . S
Cd534 O544 2.297 . S
Cd534 O545 2.439 . S
O535 Cd534 2.240 . S
O535 C540 1.279 . S
O536 Cd533 2.297 . S
O536 C538 1.247 . S
O537 Cd533 2.439 . S
O537 C538 1.208 . S
C538 O536 1.247 . S
C538 O537 1.208 . S
C539 O544 1.247 . S
C539 O545 1.208 . S
C540 O532 1.315 . S
C540 O535 1.279 . S
C541 O542 1.315 . S
C541 O543 1.279 . S
O542 Cd534 2.223 . S
O542 C541 1.315 . S
O543 Cd533 2.240 . S
O543 C541 1.279 . S
O544 Cd534 2.297 . S
O544 C539 1.247 . S
O545 Cd534 2.439 . S
O545 C539 1.208 . S
O546 Cd547 2.223 . S
O546 C554 1.315 . S
Cd547 O546 2.223 . S
Cd547 O550 2.297 . S
Cd547 O551 2.439 . S
Cd547 O557 2.240 . S
Cd548 O549 2.240 . S
Cd548 O556 2.223 . S
Cd548 O558 2.297 . S
Cd548 O559 2.439 . S
O549 Cd548 2.240 . S
O549 C554 1.279 . S
O550 Cd547 2.297 . S
O550 C552 1.247 . S
O551 Cd547 2.439 . S
O551 C552 1.208 . S
C552 O550 1.247 . S
C552 O551 1.208 . S
C553 O558 1.247 . S
C553 O559 1.208 . S
C554 O546 1.315 . S
C554 O549 1.279 . S
C555 O556 1.315 . S
C555 O557 1.279 . S
O556 Cd548 2.223 . S
O556 C555 1.315 . S
O557 Cd547 2.240 . S
O557 C555 1.279 . S
O558 Cd548 2.297 . S
O558 C553 1.247 . S
O559 Cd548 2.439 . S
O559 C553 1.208 . S
O560 Cd561 2.223 . S
O560 C568 1.315 . S
Cd561 O560 2.223 . S
Cd561 O564 2.297 . S
Cd561 O565 2.439 . S
Cd561 O571 2.240 . S
Cd562 O563 2.240 . S
Cd562 O570 2.223 . S
Cd562 O572 2.297 . S
Cd562 O573 2.439 . S
O563 Cd562 2.240 . S
O563 C568 1.279 . S
O564 Cd561 2.297 . S
O564 C566 1.247 . S
O565 Cd561 2.439 . S
O565 C566 1.208 . S
C566 O564 1.247 . S
C566 O565 1.208 . S
C567 O572 1.247 . S
C567 O573 1.208 . S
C568 O560 1.315 . S
C568 O563 1.279 . S
C569 O570 1.315 . S
C569 O571 1.279 . S
O570 Cd562 2.223 . S
O570 C569 1.315 . S
O571 Cd561 2.240 . S
O571 C569 1.279 . S
O572 Cd562 2.297 . S
O572 C567 1.247 . S
O573 Cd562 2.439 . S
O573 C567 1.208 . S
O574 Cd575 2.223 . S
O574 C582 1.315 . S
Cd575 O574 2.223 . S
Cd575 O578 2.297 . S
Cd575 O579 2.439 . S
Cd575 O585 2.240 . S
Cd576 O577 2.240 . S
Cd576 O584 2.223 . S
Cd576 O586 2.297 . S
Cd576 O587 2.439 . S
O577 Cd576 2.240 . S
O577 C582 1.279 . S
O578 Cd575 2.297 . S
O578 C580 1.247 . S
O579 Cd575 2.439 . S
O579 C580 1.208 . S
C580 O578 1.247 . S
C580 O579 1.208 . S
C581 O586 1.247 . S
C581 O587 1.208 . S
C582 O574 1.315 . S
C582 O577 1.279 . S
C583 O584 1.315 . S
C583 O585 1.279 . S
O584 Cd576 2.223 . S
O584 C583 1.315 . S
O585 Cd575 2.240 . S
O585 C583 1.279 . S
O586 Cd576 2.297 . S
O586 C581 1.247 . S
O587 Cd576 2.439 . S
O587 C581 1.208 . S
O588 Cd589 2.223 . S
O588 C596 1.315 . S
Cd589 O588 2.223 . S
Cd589 O592 2.297 . S
Cd589 O593 2.439 . S
Cd589 O599 2.240 . S
Cd590 O591 2.240 . S
Cd590 O598 2.223 . S
Cd590 O600 2.297 . S
Cd590 O601 2.439 . S
O591 Cd590 2.240 . S
O591 C596 1.279 1_545 S
O592 Cd589 2.297 . S
O592 C594 1.247 . S
O593 Cd589 2.439 . S
O593 C594 1.208 . S
C594 O592 1.247 . S
C594 O593 1.208 . S
C595 O600 1.247 . S
C595 O601 1.208 . S
C596 O588 1.315 . S
C596 O591 1.279 1_565 S
C597 O598 1.315 1_565 S
C597 O599 1.279 . S
O598 Cd590 2.223 . S
O598 C597 1.315 1_545 S
O599 Cd589 2.240 . S
O599 C597 1.279 . S
O600 Cd590 2.297 . S
O600 C595 1.247 . S
O601 Cd590 2.439 . S
O601 C595 1.208 . S
O602 Cd603 2.223 . S
O602 C610 1.315 . S
Cd603 O602 2.223 . S
Cd603 O606 2.297 . S
Cd603 O607 2.439 . S
Cd603 O613 2.240 . S
Cd604 O605 2.240 . S
Cd604 O612 2.223 . S
Cd604 O614 2.297 . S
Cd604 O615 2.439 . S
O605 Cd604 2.240 . S
O605 C610 1.279 . S
O606 Cd603 2.297 . S
O606 C608 1.247 . S
O607 Cd603 2.439 . S
O607 C608 1.208 . S
C608 O606 1.247 . S
C608 O607 1.208 . S
C609 O614 1.247 . S
C609 O615 1.208 . S
C610 O602 1.315 . S
C610 O605 1.279 . S
C611 O612 1.315 . S
C611 O613 1.279 . S
O612 Cd604 2.223 . S
O612 C611 1.315 . S
O613 Cd603 2.240 . S
O613 C611 1.279 . S
O614 Cd604 2.297 . S
O614 C609 1.247 . S
O615 Cd604 2.439 . S
O615 C609 1.208 . S
O616 Cd617 2.223 . S
O616 C624 1.315 . S
Cd617 O616 2.223 . S
Cd617 O620 2.297 . S
Cd617 O621 2.439 . S
Cd617 O627 2.240 . S
Cd618 O619 2.240 . S
Cd618 O626 2.223 . S
Cd618 O628 2.297 . S
Cd618 O629 2.439 . S
O619 Cd618 2.240 . S
O619 C624 1.279 . S
O620 Cd617 2.297 . S
O620 C622 1.247 . S
O621 Cd617 2.439 . S
O621 C622 1.208 . S
C622 O620 1.247 . S
C622 O621 1.208 . S
C623 O628 1.247 . S
C623 O629 1.208 . S
C624 O616 1.315 . S
C624 O619 1.279 . S
C625 O626 1.315 . S
C625 O627 1.279 . S
O626 Cd618 2.223 . S
O626 C625 1.315 . S
O627 Cd617 2.240 . S
O627 C625 1.279 . S
O628 Cd618 2.297 . S
O628 C623 1.247 . S
O629 Cd618 2.439 . S
O629 C623 1.208 . S
O630 Cd631 2.223 . S
O630 C638 1.315 . S
Cd631 O630 2.223 . S
Cd631 O634 2.297 . S
Cd631 O635 2.439 . S
Cd631 O641 2.240 . S
Cd632 O633 2.240 . S
Cd632 O640 2.223 . S
Cd632 O642 2.297 . S
Cd632 O643 2.439 . S
O633 Cd632 2.240 . S
O633 C638 1.279 . S
O634 Cd631 2.297 . S
O634 C636 1.247 . S
O635 Cd631 2.439 . S
O635 C636 1.208 . S
C636 O634 1.247 . S
C636 O635 1.208 . S
C637 O642 1.247 . S
C637 O643 1.208 . S
C638 O630 1.315 . S
C638 O633 1.279 . S
C639 O640 1.315 . S
C639 O641 1.279 . S
O640 Cd632 2.223 . S
O640 C639 1.315 . S
O641 Cd631 2.240 . S
O641 C639 1.279 . S
O642 Cd632 2.297 . S
O642 C637 1.247 . S
O643 Cd632 2.439 . S
O643 C637 1.208 . S
O644 Cd645 2.223 . S
O644 C652 1.315 . S
Cd645 O644 2.223 . S
Cd645 O648 2.297 . S
Cd645 O649 2.439 . S
Cd645 O655 2.240 . S
Cd646 O647 2.240 . S
Cd646 O654 2.223 1_556 S
Cd646 O656 2.297 . S
Cd646 O657 2.439 . S
O647 Cd646 2.240 . S
O647 C652 1.279 1_565 S
O648 Cd645 2.297 . S
O648 C650 1.247 . S
O649 Cd645 2.439 . S
O649 C650 1.208 . S
C650 O648 1.247 . S
C650 O649 1.208 . S
C651 O656 1.247 . S
C651 O657 1.208 . S
C652 O644 1.315 . S
C652 O647 1.279 1_545 S
C653 O654 1.315 1_545 S
C653 O655 1.279 1_554 S
O654 Cd646 2.223 1_554 S
O654 C653 1.315 1_565 S
O655 Cd645 2.240 . S
O655 C653 1.279 1_556 S
O656 Cd646 2.297 . S
O656 C651 1.247 . S
O657 Cd646 2.439 . S
O657 C651 1.208 . S
O658 Cd659 2.223 . S
O658 C666 1.315 . S
Cd659 O658 2.223 . S
Cd659 O662 2.297 . S
Cd659 O663 2.439 . S
Cd659 O669 2.240 . S
Cd660 O661 2.240 . S
Cd660 O668 2.223 . S
Cd660 O670 2.297 . S
Cd660 O671 2.439 . S
O661 Cd660 2.240 . S
O661 C666 1.279 1_545 S
O662 Cd659 2.297 . S
O662 C664 1.247 . S
O663 Cd659 2.439 . S
O663 C664 1.208 . S
C664 O662 1.247 . S
C664 O663 1.208 . S
C665 O670 1.247 . S
C665 O671 1.208 . S
C666 O658 1.315 . S
C666 O661 1.279 1_565 S
C667 O668 1.315 1_565 S
C667 O669 1.279 . S
O668 Cd660 2.223 . S
O668 C667 1.315 1_545 S
O669 Cd659 2.240 . S
O669 C667 1.279 . S
O670 Cd660 2.297 . S
O670 C665 1.247 . S
O671 Cd660 2.439 . S
O671 C665 1.208 . S
C672 C673 1.387 . S
C672 H676 0.950 . S
C672 C681 1.390 . S
C673 C672 1.387 . S
C673 C675 1.387 . S
H674 C681 0.950 . S
C675 C673 1.387 . S
C675 C677 1.390 . S
C675 H679 0.950 . S
H676 C672 0.950 . S
C677 C675 1.390 . S
C677 C678 1.387 . S
C677 H680 0.950 . S
C678 C677 1.387 . S
C678 C681 1.387 . S
H679 C675 0.950 . S
H680 C677 0.950 . S
C681 C672 1.390 . S
C681 H674 0.950 . S
C681 C678 1.387 . S
C682 C683 1.387 . S
C682 H686 0.950 . S
C682 C691 1.390 . S
C683 C682 1.387 . S
C683 C685 1.387 1_465 S
H684 C691 0.950 . S
C685 C683 1.387 1_645 S
C685 C687 1.390 . S
C685 H689 0.950 . S
H686 C682 0.950 . S
C687 C685 1.390 . S
C687 C688 1.388 1_645 S
C687 H690 0.950 . S
C688 C687 1.388 1_465 S
C688 C691 1.387 . S
H689 C685 0.950 . S
H690 C687 0.950 . S
C691 C682 1.390 . S
C691 H684 0.950 . S
C691 C688 1.387 . S
C692 C693 1.387 . S
C692 H696 0.950 . S
C692 C701 1.390 1_556 S
C693 C692 1.387 . S
C693 C695 1.387 . S
H694 C701 0.950 . S
C695 C693 1.387 . S
C695 C697 1.390 1_556 S
C695 H699 0.950 . S
H696 C692 0.950 . S
C697 C695 1.390 1_554 S
C697 C698 1.387 . S
C697 H700 0.950 . S
C698 C697 1.387 . S
C698 C701 1.387 . S
H699 C695 0.950 . S
H700 C697 0.950 . S
C701 C692 1.390 1_554 S
C701 H694 0.950 . S
C701 C698 1.387 . S
C702 C703 1.387 1_545 S
C702 H706 0.950 . S
C702 C711 1.390 . S
C703 C702 1.387 1_565 S
C703 C705 1.387 . S
H704 C711 0.950 . S
C705 C703 1.387 . S
C705 C707 1.390 . S
C705 H709 0.950 . S
H706 C702 0.950 . S
C707 C705 1.390 . S
C707 C708 1.392 . S
C707 H710 0.950 . S
C708 C707 1.392 . S
C708 C711 1.383 1_565 S
H709 C705 0.950 . S
H710 C707 0.950 . S
C711 C702 1.390 . S
C711 H704 0.950 . S
C711 C708 1.383 1_545 S
C712 C713 1.387 . S
C712 H716 0.950 . S
C712 C721 1.390 . S
C713 C712 1.387 . S
C713 C715 1.387 . S
H714 C721 0.950 . S
C715 C713 1.387 . S
C715 C717 1.390 . S
C715 H719 0.950 . S
H716 C712 0.950 . S
C717 C715 1.390 . S
C717 C718 1.387 . S
C717 H720 0.950 . S
C718 C717 1.387 . S
C718 C721 1.387 . S
H719 C715 0.950 . S
H720 C717 0.950 . S
C721 C712 1.390 . S
C721 H714 0.950 . S
C721 C718 1.387 . S
C722 C723 1.387 . S
C722 H726 0.950 . S
C722 C731 1.391 . S
C723 C722 1.387 . S
C723 C725 1.387 . S
H724 C731 0.949 . S
C725 C723 1.387 . S
C725 C727 1.391 . S
C725 H729 0.950 . S
H726 C722 0.950 . S
C727 C725 1.391 . S
C727 C728 1.387 . S
C727 H730 0.949 . S
C728 C727 1.387 . S
C728 C731 1.387 . S
H729 C725 0.950 . S
H730 C727 0.949 . S
C731 C722 1.391 . S
C731 H724 0.949 . S
C731 C728 1.387 . S
C732 C733 1.387 . S
C732 H736 0.950 . S
C732 C741 1.390 1_455 S
C733 C732 1.387 . S
C733 C735 1.387 . S
H734 C741 0.950 . S
C735 C733 1.387 . S
C735 C737 1.390 1_455 S
C735 H739 0.950 . S
H736 C732 0.950 . S
C737 C735 1.390 1_655 S
C737 C738 1.387 . S
C737 H740 0.950 . S
C738 C737 1.387 . S
C738 C741 1.387 . S
H739 C735 0.950 . S
H740 C737 0.950 . S
C741 C732 1.390 1_655 S
C741 H734 0.950 . S
C741 C738 1.387 . S
C742 C743 1.387 . S
C742 H746 0.950 . S
C742 C751 1.390 . S
C743 C742 1.387 . S
C743 C745 1.387 . S
H744 C751 0.950 . S
C745 C743 1.387 . S
C745 C747 1.390 . S
C745 H749 0.950 . S
H746 C742 0.950 . S
C747 C745 1.390 . S
C747 C748 1.387 . S
C747 H750 0.950 . S
C748 C747 1.387 . S
C748 C751 1.387 . S
H749 C745 0.950 . S
H750 C747 0.950 . S
C751 C742 1.390 . S
C751 H744 0.950 . S
C751 C748 1.387 . S
C752 C753 1.387 . S
C752 H756 0.950 . S
C752 C761 1.390 . S
C753 C752 1.387 . S
C753 C755 1.387 . S
H754 C761 0.950 . S
C755 C753 1.387 . S
C755 C757 1.390 . S
C755 H759 0.950 . S
H756 C752 0.950 . S
C757 C755 1.390 . S
C757 C758 1.387 . S
C757 H760 0.950 . S
C758 C757 1.387 . S
C758 C761 1.387 . S
H759 C755 0.950 . S
H760 C757 0.950 . S
C761 C752 1.390 . S
C761 H754 0.950 . S
C761 C758 1.387 . S
C762 C763 1.387 . S
C762 H766 0.950 . S
C762 C771 1.390 . S
C763 C762 1.387 . S
C763 C765 1.387 . S
H764 C771 0.950 . S
C765 C763 1.387 . S
C765 C767 1.390 . S
C765 H769 0.950 . S
H766 C762 0.950 . S
C767 C765 1.390 . S
C767 C768 1.387 . S
C767 H770 0.950 . S
C768 C767 1.387 . S
C768 C771 1.387 . S
H769 C765 0.950 . S
H770 C767 0.950 . S
C771 C762 1.390 . S
C771 H764 0.950 . S
C771 C768 1.387 . S
C772 C773 1.387 . S
C772 H776 0.950 . S
C772 C781 1.390 1_655 S
C773 C772 1.387 . S
C773 C775 1.387 . S
H774 C781 0.950 . S
C775 C773 1.387 . S
C775 C777 1.390 1_655 S
C775 H779 0.950 . S
H776 C772 0.950 . S
C777 C775 1.390 1_455 S
C777 C778 1.387 . S
C777 H780 0.950 . S
C778 C777 1.387 . S
C778 C781 1.387 . S
H779 C775 0.950 . S
H780 C777 0.950 . S
C781 C772 1.390 1_455 S
C781 H774 0.950 . S
C781 C778 1.387 . S
C782 C783 1.387 1_556 S
C782 H786 0.950 . S
C782 C791 1.390 . S
C783 C782 1.387 1_554 S
C783 C785 1.389 . S
H784 C791 0.950 . S
C785 C783 1.389 . S
C785 C787 1.390 1_655 S
C785 H789 0.950 . S
H786 C782 0.950 . S
C787 C785 1.390 1_455 S
C787 C788 1.387 1_455 S
C787 H790 0.949 . S
C788 C787 1.387 1_655 S
C788 C791 1.388 1_554 S
H789 C785 0.950 . S
H790 C787 0.949 . S
C791 C782 1.390 . S
C791 H784 0.950 . S
C791 C788 1.388 1_556 S
C792 C793 1.387 . S
C792 H796 0.950 . S
C792 C801 1.390 . S
C793 C792 1.387 . S
C793 C795 1.387 . S
H794 C801 0.950 . S
C795 C793 1.387 . S
C795 C797 1.390 . S
C795 H799 0.950 . S
H796 C792 0.950 . S
C797 C795 1.390 . S
C797 C798 1.387 . S
C797 H800 0.950 . S
C798 C797 1.387 . S
C798 C801 1.387 . S
H799 C795 0.950 . S
H800 C797 0.950 . S
C801 C792 1.390 . S
C801 H794 0.950 . S
C801 C798 1.387 . S
C802 C803 1.387 . S
C802 H806 0.950 . S
C802 C811 1.390 1_545 S
C803 C802 1.387 . S
C803 C805 1.387 . S
H804 C811 0.950 . S
C805 C803 1.387 . S
C805 C807 1.390 1_545 S
C805 H809 0.950 . S
H806 C802 0.950 . S
C807 C805 1.390 1_565 S
C807 C808 1.387 . S
C807 H810 0.950 . S
C808 C807 1.387 . S
C808 C811 1.387 . S
H809 C805 0.950 . S
H810 C807 0.950 . S
C811 C802 1.390 1_565 S
C811 H804 0.950 . S
C811 C808 1.387 . S
C812 C813 1.387 . S
C812 H816 0.950 . S
C812 C821 1.390 . S
C813 C812 1.387 . S
C813 C815 1.388 1_556 S
H814 C821 0.950 . S
C815 C813 1.388 1_554 S
C815 C817 1.393 . S
C815 H819 0.950 . S
H816 C812 0.950 . S
C817 C815 1.393 . S
C817 C818 1.383 1_554 S
C817 H820 0.954 . S
C818 C817 1.383 1_556 S
C818 C821 1.387 . S
H819 C815 0.950 . S
H820 C817 0.954 . S
C821 C812 1.390 . S
C821 H814 0.950 . S
C821 C818 1.387 . S
C822 C823 1.387 . S
C822 H826 0.950 . S
C822 C831 1.390 1_545 S
C823 C822 1.387 . S
C823 C825 1.387 . S
H824 C831 0.950 . S
C825 C823 1.387 . S
C825 C827 1.390 1_545 S
C825 H829 0.950 . S
H826 C822 0.950 . S
C827 C825 1.390 1_565 S
C827 C828 1.387 . S
C827 H830 0.950 . S
C828 C827 1.387 . S
C828 C831 1.387 . S
H829 C825 0.950 . S
H830 C827 0.950 . S
C831 C822 1.390 1_565 S
C831 H824 0.950 . S
C831 C828 1.387 . S
C832 C833 1.388 1_564 S
C832 H836 0.949 . S
C832 C841 1.390 . S
C833 C832 1.388 1_546 S
C833 C835 1.387 . S
H834 C841 0.952 . S
C835 C833 1.387 . S
C835 C837 1.390 . S
C835 H839 0.950 . S
H836 C832 0.949 . S
C837 C835 1.390 . S
C837 C838 1.388 . S
C837 H840 0.950 . S
C838 C837 1.388 . S
C838 C841 1.387 1_546 S
H839 C835 0.950 . S
H840 C837 0.950 . S
C841 C832 1.390 . S
C841 H834 0.952 . S
C841 C838 1.387 1_564 S
C842 C843 1.387 . S
C842 H846 0.950 . S
C842 C851 1.390 . S
C843 C842 1.387 . S
C843 C845 1.387 . S
H844 C851 0.950 . S
C845 C843 1.387 . S
C845 C847 1.390 . S
C845 H849 0.950 . S
H846 C842 0.950 . S
C847 C845 1.390 . S
C847 C848 1.387 . S
C847 H850 0.950 . S
C848 C847 1.387 . S
C848 C851 1.387 . S
H849 C845 0.950 . S
H850 C847 0.950 . S
C851 C842 1.390 . S
C851 H844 0.950 . S
C851 C848 1.387 . S
C852 C853 1.387 . S
C852 H856 0.950 . S
C852 C861 1.390 . S
C853 C852 1.387 . S
C853 C855 1.387 . S
H854 C861 0.950 . S
C855 C853 1.387 . S
C855 C857 1.390 . S
C855 H859 0.950 . S
H856 C852 0.950 . S
C857 C855 1.390 . S
C857 C858 1.387 . S
C857 H860 0.950 . S
C858 C857 1.387 . S
C858 C861 1.387 . S
H859 C855 0.950 . S
H860 C857 0.950 . S
C861 C852 1.390 . S
C861 H854 0.950 . S
C861 C858 1.387 . S
C862 C863 1.387 . S
C862 H866 0.950 . S
C862 C871 1.390 1_554 S
C863 C862 1.387 . S
C863 C865 1.387 . S
H864 C871 0.950 . S
C865 C863 1.387 . S
C865 C867 1.390 1_554 S
C865 H869 0.950 . S
H866 C862 0.950 . S
C867 C865 1.390 1_556 S
C867 C868 1.387 . S
C867 H870 0.950 . S
C868 C867 1.387 . S
C868 C871 1.387 . S
H869 C865 0.950 . S
H870 C867 0.950 . S
C871 C862 1.390 1_556 S
C871 H864 0.950 . S
C871 C868 1.387 . S
C872 C873 1.387 . S
C872 H876 0.950 . S
C872 C881 1.390 . S
C873 C872 1.387 . S
C873 C875 1.387 . S
H874 C881 0.950 . S
C875 C873 1.387 . S
C875 C877 1.390 . S
C875 H879 0.950 . S
H876 C872 0.950 . S
C877 C875 1.390 . S
C877 C878 1.387 . S
C877 H880 0.950 . S
C878 C877 1.387 . S
C878 C881 1.387 . S
H879 C875 0.950 . S
H880 C877 0.950 . S
C881 C872 1.390 . S
C881 H874 0.950 . S
C881 C878 1.387 . S
C882 C883 1.387 . S
C882 H886 0.950 . S
C882 C891 1.390 . S
C883 C882 1.387 . S
C883 C885 1.387 . S
H884 C891 0.950 . S
C885 C883 1.387 . S
C885 C887 1.390 . S
C885 H889 0.950 . S
H886 C882 0.950 . S
C887 C885 1.390 . S
C887 C888 1.387 . S
C887 H890 0.950 . S
C888 C887 1.387 . S
C888 C891 1.387 . S
H889 C885 0.950 . S
H890 C887 0.950 . S
C891 C882 1.390 . S
C891 H884 0.950 . S
C891 C888 1.387 . S
C892 C893 1.387 . S
C892 H896 0.950 . S
C892 C901 1.390 . S
C893 C892 1.387 . S
C893 C895 1.387 . S
H894 C901 0.950 . S
C895 C893 1.387 . S
C895 C897 1.390 . S
C895 H899 0.950 . S
H896 C892 0.950 . S
C897 C895 1.390 . S
C897 C898 1.387 . S
C897 H900 0.950 . S
C898 C897 1.387 . S
C898 C901 1.387 . S
H899 C895 0.950 . S
H900 C897 0.950 . S
C901 C892 1.390 . S
C901 H894 0.950 . S
C901 C898 1.387 . S
C902 C903 1.387 . S
C902 H906 0.950 . S
C902 C911 1.390 . S
C903 C902 1.387 . S
C903 C905 1.387 . S
H904 C911 0.950 . S
C905 C903 1.387 . S
C905 C907 1.390 . S
C905 H909 0.950 . S
H906 C902 0.950 . S
C907 C905 1.390 . S
C907 C908 1.387 . S
C907 H910 0.950 . S
C908 C907 1.387 . S
C908 C911 1.387 . S
H909 C905 0.950 . S
H910 C907 0.950 . S
C911 C902 1.390 . S
C911 H904 0.950 . S
C911 C908 1.387 . S
C912 C913 1.387 . S
C912 H916 0.950 . S
C912 C921 1.390 . S
C913 C912 1.387 . S
C913 C915 1.387 . S
H914 C921 0.950 . S
C915 C913 1.387 . S
C915 C917 1.390 . S
C915 H919 0.950 . S
H916 C912 0.950 . S
C917 C915 1.390 . S
C917 C918 1.387 . S
C917 H920 0.950 . S
C918 C917 1.387 . S
C918 C921 1.387 . S
H919 C915 0.950 . S
H920 C917 0.950 . S
C921 C912 1.390 . S
C921 H914 0.950 . S
C921 C918 1.387 . S
C922 C923 1.387 . S
C922 H926 0.950 . S
C922 C931 1.390 . S
C923 C922 1.387 . S
C923 C925 1.387 . S
H924 C931 0.950 . S
C925 C923 1.387 . S
C925 C927 1.390 . S
C925 H929 0.950 . S
H926 C922 0.950 . S
C927 C925 1.390 . S
C927 C928 1.387 . S
C927 H930 0.950 1_565 S
C928 C927 1.387 . S
C928 C931 1.387 . S
H929 C925 0.950 . S
H930 C927 0.950 1_545 S
C931 C922 1.390 . S
C931 H924 0.950 . S
C931 C928 1.387 . S
C932 C933 1.387 . S
C932 H936 0.950 . S
C932 C941 1.390 . S
C933 C932 1.387 . S
C933 C935 1.387 . S
H934 C941 0.950 . S
C935 C933 1.387 . S
C935 C937 1.390 . S
C935 H939 0.950 . S
H936 C932 0.950 . S
C937 C935 1.390 . S
C937 C938 1.387 . S
C937 H940 0.950 . S
C938 C937 1.387 . S
C938 C941 1.387 . S
H939 C935 0.950 . S
H940 C937 0.950 . S
C941 C932 1.390 . S
C941 H934 0.950 . S
C941 C938 1.387 . S
C942 C943 1.387 . S
C942 H946 0.950 . S
C942 C951 1.390 . S
C943 C942 1.387 . S
C943 C945 1.387 . S
H944 C951 0.950 . S
C945 C943 1.387 . S
C945 C947 1.390 . S
C945 H949 0.950 . S
H946 C942 0.950 . S
C947 C945 1.390 . S
C947 C948 1.387 . S
C947 H950 0.950 . S
C948 C947 1.387 . S
C948 C951 1.387 . S
H949 C945 0.950 . S
H950 C947 0.950 . S
C951 C942 1.390 . S
C951 H944 0.950 . S
C951 C948 1.387 . S
C952 C953 1.387 . S
C952 H956 0.950 . S
C952 C961 1.390 . S
C953 C952 1.387 . S
C953 C955 1.387 . S
H954 C961 0.950 . S
C955 C953 1.387 . S
C955 C957 1.390 . S
C955 H959 0.950 . S
H956 C952 0.950 . S
C957 C955 1.390 . S
C957 C958 1.387 . S
C957 H960 0.950 . S
C958 C957 1.387 . S
C958 C961 1.387 . S
H959 C955 0.950 . S
H960 C957 0.950 . S
C961 C952 1.390 . S
C961 H954 0.950 . S
C961 C958 1.387 . S
C962 C963 1.387 . S
C962 H966 0.950 1_565 S
C962 C971 1.390 . S
C963 C962 1.387 . S
C963 C965 1.387 . S
H964 C971 0.943 1_545 S
C965 C963 1.387 . S
C965 C967 1.390 . S
C965 H969 0.950 . S
H966 C962 0.950 1_545 S
C967 C965 1.390 . S
C967 C968 1.387 . S
C967 H970 0.950 . S
C968 C967 1.387 . S
C968 C971 1.387 . S
H969 C965 0.950 . S
H970 C967 0.950 . S
C971 C962 1.390 . S
C971 H964 0.943 1_565 S
C971 C968 1.387 . S
C972 C973 1.387 . S
C972 H976 0.950 . S
C972 C981 1.390 . S
C973 C972 1.387 . S
C973 C975 1.387 . S
H974 C981 0.950 . S
C975 C973 1.387 . S
C975 C977 1.390 . S
C975 H979 0.950 . S
H976 C972 0.950 . S
C977 C975 1.390 . S
C977 C978 1.387 . S
C977 H980 0.950 . S
C978 C977 1.387 . S
C978 C981 1.387 . S
H979 C975 0.950 . S
H980 C977 0.950 . S
C981 C972 1.390 . S
C981 H974 0.950 . S
C981 C978 1.387 . S
C982 C983 1.387 . S
C982 H986 0.950 1_545 S
C982 C991 1.390 . S
C983 C982 1.387 . S
C983 C985 1.387 . S
H984 C991 0.950 1_565 S
C985 C983 1.387 . S
C985 C987 1.390 . S
C985 H989 0.950 . S
H986 C982 0.950 1_565 S
C987 C985 1.390 . S
C987 C988 1.387 . S
C987 H990 0.950 . S
C988 C987 1.387 . S
C988 C991 1.387 . S
H989 C985 0.950 . S
H990 C987 0.950 . S
C991 C982 1.390 . S
C991 H984 0.950 1_545 S
C991 C988 1.387 . S
C992 C993 1.387 . S
C992 H996 0.950 . S
C992 C1001 1.390 . S
C993 C992 1.387 . S
C993 C995 1.387 . S
H994 C1001 0.950 . S
C995 C993 1.387 . S
C995 C997 1.390 . S
C995 H999 0.950 . S
H996 C992 0.950 . S
C997 C995 1.390 . S
C997 C998 1.387 . S
C997 H1000 0.950 . S
C998 C997 1.387 . S
C998 C1001 1.387 . S
H999 C995 0.950 . S
H1000 C997 0.950 . S
C1001 C992 1.390 . S
C1001 H994 0.950 . S
C1001 C998 1.387 . S
C1002 C1003 1.387 . S
C1002 H1006 0.950 . S
C1002 C1011 1.390 . S
C1003 C1002 1.387 . S
C1003 C1005 1.387 . S
H1004 C1011 0.950 . S
C1005 C1003 1.387 . S
C1005 C1007 1.390 . S
C1005 H1009 0.950 . S
H1006 C1002 0.950 . S
C1007 C1005 1.390 . S
C1007 C1008 1.387 . S
C1007 H1010 0.950 . S
C1008 C1007 1.387 . S
C1008 C1011 1.387 . S
H1009 C1005 0.950 . S
H1010 C1007 0.950 . S
C1011 C1002 1.390 . S
C1011 H1004 0.950 . S
C1011 C1008 1.387 . S
C1012 C1013 1.387 . S
C1012 H1016 0.950 . S
C1012 C1021 1.390 . S
C1013 C1012 1.387 . S
C1013 C1015 1.387 . S
H1014 C1021 0.950 . S
C1015 C1013 1.387 . S
C1015 C1017 1.390 . S
C1015 H1019 0.950 . S
H1016 C1012 0.950 . S
C1017 C1015 1.390 . S
C1017 C1018 1.387 . S
C1017 H1020 0.950 . S
C1018 C1017 1.387 . S
C1018 C1021 1.387 . S
H1019 C1015 0.950 . S
H1020 C1017 0.950 . S
C1021 C1012 1.390 . S
C1021 H1014 0.950 . S
C1021 C1018 1.387 . S
C1022 C1023 1.387 . S
C1022 H1026 0.950 . S
C1022 C1031 1.390 . S
C1023 C1022 1.387 . S
C1023 C1025 1.387 . S
H1024 C1031 0.950 . S
C1025 C1023 1.387 . S
C1025 C1027 1.390 . S
C1025 H1029 0.950 . S
H1026 C1022 0.950 . S
C1027 C1025 1.390 . S
C1027 C1028 1.387 . S
C1027 H1030 0.950 . S
C1028 C1027 1.387 . S
C1028 C1031 1.387 . S
H1029 C1025 0.950 . S
H1030 C1027 0.950 . S
C1031 C1022 1.390 . S
C1031 H1024 0.950 . S
C1031 C1028 1.387 . S
C1032 C1033 1.387 . S
C1032 H1036 0.950 . S
C1032 C1041 1.390 . S
C1033 C1032 1.387 . S
C1033 C1035 1.387 . S
H1034 C1041 0.950 . S
C1035 C1033 1.387 . S
C1035 C1037 1.390 . S
C1035 H1039 0.950 . S
H1036 C1032 0.950 . S
C1037 C1035 1.390 . S
C1037 C1038 1.387 . S
C1037 H1040 0.950 . S
C1038 C1037 1.387 . S
C1038 C1041 1.387 . S
H1039 C1035 0.950 . S
H1040 C1037 0.950 . S
C1041 C1032 1.390 . S
C1041 H1034 0.950 . S
C1041 C1038 1.387 . S
C1042 C1043 1.387 . S
C1042 H1046 0.950 . S
C1042 C1051 1.390 . S
C1043 C1042 1.387 . S
C1043 C1045 1.387 . S
H1044 C1051 0.950 . S
C1045 C1043 1.387 . S
C1045 C1047 1.390 . S
C1045 H1049 0.950 . S
H1046 C1042 0.950 . S
C1047 C1045 1.390 . S
C1047 C1048 1.387 . S
C1047 H1050 0.950 . S
C1048 C1047 1.387 . S
C1048 C1051 1.387 . S
H1049 C1045 0.950 . S
H1050 C1047 0.950 . S
C1051 C1042 1.390 . S
C1051 H1044 0.950 . S
C1051 C1048 1.387 . S
C1052 C1053 1.387 . S
C1052 H1056 0.950 . S
C1052 C1061 1.390 . S
C1053 C1052 1.387 . S
C1053 C1055 1.387 . S
H1054 C1061 0.950 . S
C1055 C1053 1.387 . S
C1055 C1057 1.390 . S
C1055 H1059 0.950 . S
H1056 C1052 0.950 . S
C1057 C1055 1.390 . S
C1057 C1058 1.387 . S
C1057 H1060 0.950 . S
C1058 C1057 1.387 . S
C1058 C1061 1.387 . S
H1059 C1055 0.950 . S
H1060 C1057 0.950 . S
C1061 C1052 1.390 . S
C1061 H1054 0.950 . S
C1061 C1058 1.387 . S
C1062 C1063 1.387 . S
C1062 H1066 0.950 . S
C1062 C1071 1.390 . S
C1063 C1062 1.387 . S
C1063 C1065 1.387 . S
H1064 C1071 0.950 . S
C1065 C1063 1.387 . S
C1065 C1067 1.390 . S
C1065 H1069 0.950 . S
H1066 C1062 0.950 . S
C1067 C1065 1.390 . S
C1067 C1068 1.387 . S
C1067 H1070 0.950 1_455 S
C1068 C1067 1.387 . S
C1068 C1071 1.387 . S
H1069 C1065 0.950 . S
H1070 C1067 0.950 1_655 S
C1071 C1062 1.390 . S
C1071 H1064 0.950 . S
C1071 C1068 1.387 . S
C1072 C1073 1.387 . S
C1072 H1076 0.950 . S
C1072 C1081 1.390 . S
C1073 C1072 1.387 . S
C1073 C1075 1.387 . S
H1074 C1081 0.950 . S
C1075 C1073 1.387 . S
C1075 C1077 1.390 . S
C1075 H1079 0.950 . S
H1076 C1072 0.950 . S
C1077 C1075 1.390 . S
C1077 C1078 1.387 . S
C1077 H1080 0.950 . S
C1078 C1077 1.387 . S
C1078 C1081 1.387 . S
H1079 C1075 0.950 . S
H1080 C1077 0.950 . S
C1081 C1072 1.390 . S
C1081 H1074 0.950 . S
C1081 C1078 1.387 . S
C1082 C1083 1.387 . S
C1082 H1086 0.950 . S
C1082 C1091 1.390 . S
C1083 C1082 1.387 . S
C1083 C1085 1.387 . S
H1084 C1091 0.950 . S
C1085 C1083 1.387 . S
C1085 C1087 1.390 . S
C1085 H1089 0.950 . S
H1086 C1082 0.950 . S
C1087 C1085 1.390 . S
C1087 C1088 1.387 . S
C1087 H1090 0.950 . S
C1088 C1087 1.387 . S
C1088 C1091 1.387 . S
H1089 C1085 0.950 . S
H1090 C1087 0.950 . S
C1091 C1082 1.390 . S
C1091 H1084 0.950 . S
C1091 C1088 1.387 . S
C1092 C1093 1.387 . S
C1092 H1096 0.950 1_554 S
C1092 C1101 1.390 . S
C1093 C1092 1.387 . S
C1093 C1095 1.387 . S
H1094 C1101 0.950 1_556 S
C1095 C1093 1.387 . S
C1095 C1097 1.390 . S
C1095 H1099 0.950 . S
H1096 C1092 0.950 1_556 S
C1097 C1095 1.390 . S
C1097 C1098 1.387 . S
C1097 H1100 0.950 . S
C1098 C1097 1.387 . S
C1098 C1101 1.387 . S
H1099 C1095 0.950 . S
H1100 C1097 0.950 . S
C1101 C1092 1.390 . S
C1101 H1094 0.950 1_554 S
C1101 C1098 1.387 . S
C1102 C1103 1.387 . S
C1102 H1106 0.950 . S
C1102 C1111 1.390 . S
C1103 C1102 1.387 . S
C1103 C1105 1.387 . S
H1104 C1111 0.950 . S
C1105 C1103 1.387 . S
C1105 C1107 1.390 . S
C1105 H1109 0.950 . S
H1106 C1102 0.950 . S
C1107 C1105 1.390 . S
C1107 C1108 1.387 . S
C1107 H1110 0.950 . S
C1108 C1107 1.387 . S
C1108 C1111 1.387 . S
H1109 C1105 0.950 . S
H1110 C1107 0.950 . S
C1111 C1102 1.390 . S
C1111 H1104 0.950 . S
C1111 C1108 1.387 . S
C1112 C1113 1.387 . S
C1112 H1116 0.950 . S
C1112 C1121 1.390 . S
C1113 C1112 1.387 . S
C1113 C1115 1.387 . S
H1114 C1121 0.950 . S
C1115 C1113 1.387 . S
C1115 C1117 1.390 . S
C1115 H1119 0.977 . S
H1116 C1112 0.950 . S
C1117 C1115 1.390 . S
C1117 C1118 1.387 . S
C1117 H1120 0.950 1_554 S
C1118 C1117 1.387 . S
C1118 C1121 1.387 . S
H1119 C1115 0.977 . S
H1120 C1117 0.950 1_556 S
C1121 C1112 1.390 . S
C1121 H1114 0.950 . S
C1121 C1118 1.387 . S
C1122 C1123 1.387 . S
C1122 H1126 0.950 . S
C1122 C1131 1.390 . S
C1123 C1122 1.387 . S
C1123 C1125 1.387 . S
H1124 C1131 0.950 . S
C1125 C1123 1.387 . S
C1125 C1127 1.390 . S
C1125 H1129 0.950 . S
H1126 C1122 0.950 . S
C1127 C1125 1.390 . S
C1127 C1128 1.387 . S
C1127 H1130 0.950 . S
C1128 C1127 1.387 . S
C1128 C1131 1.387 . S
H1129 C1125 0.950 . S
H1130 C1127 0.950 . S
C1131 C1122 1.390 . S
C1131 H1124 0.950 . S
C1131 C1128 1.387 . S
C1132 C1133 1.387 . S
C1132 H1136 0.950 . S
C1132 C1141 1.390 . S
C1133 C1132 1.387 . S
C1133 C1135 1.387 . S
H1134 C1141 0.950 . S
C1135 C1133 1.387 . S
C1135 C1137 1.390 . S
C1135 H1139 0.950 . S
H1136 C1132 0.950 . S
C1137 C1135 1.390 . S
C1137 C1138 1.387 . S
C1137 H1140 0.950 . S
C1138 C1137 1.387 . S
C1138 C1141 1.387 . S
H1139 C1135 0.950 . S
H1140 C1137 0.950 . S
C1141 C1132 1.390 . S
C1141 H1134 0.950 . S
C1141 C1138 1.387 . S
C1142 C1143 1.387 . S
C1142 H1146 0.945 1_556 S
C1142 C1151 1.390 . S
C1143 C1142 1.387 . S
C1143 C1145 1.387 . S
H1144 C1151 0.950 . S
C1145 C1143 1.387 . S
C1145 C1147 1.390 . S
C1145 H1149 0.950 . S
H1146 C1142 0.945 1_554 S
C1147 C1145 1.390 . S
C1147 C1148 1.387 . S
C1147 H1150 0.950 . S
C1148 C1147 1.387 . S
C1148 C1151 1.387 . S
H1149 C1145 0.950 . S
H1150 C1147 0.950 . S
C1151 C1142 1.390 . S
C1151 H1144 0.950 . S
C1151 C1148 1.387 . S
C1152 C1153 1.387 . S
C1152 H1156 0.950 . S
C1152 C1161 1.390 . S
C1153 C1152 1.387 . S
C1153 C1155 1.387 . S
H1154 C1161 0.950 . S
C1155 C1153 1.387 . S
C1155 C1157 1.390 . S
C1155 H1159 0.950 . S
H1156 C1152 0.950 . S
C1157 C1155 1.390 . S
C1157 C1158 1.387 . S
C1157 H1160 0.950 . S
C1158 C1157 1.387 . S
C1158 C1161 1.387 . S
H1159 C1155 0.950 . S
H1160 C1157 0.950 . S
C1161 C1152 1.390 . S
C1161 H1154 0.950 . S
C1161 C1158 1.387 . S
C1162 C1163 1.387 . S
C1162 H1166 0.950 . S
C1162 C1171 1.390 . S
C1163 C1162 1.387 . S
C1163 C1165 1.387 . S
H1164 C1171 0.950 . S
C1165 C1163 1.387 . S
C1165 C1167 1.390 . S
C1165 H1169 0.950 . S
H1166 C1162 0.950 . S
C1167 C1165 1.390 . S
C1167 C1168 1.387 . S
C1167 H1170 0.950 . S
C1168 C1167 1.387 . S
C1168 C1171 1.387 . S
H1169 C1165 0.950 . S
H1170 C1167 0.950 . S
C1171 C1162 1.390 . S
C1171 H1164 0.950 . S
C1171 C1168 1.387 . S
C1172 C1173 1.387 . S
C1172 H1176 0.950 . S
C1172 C1181 1.390 . S
C1173 C1172 1.387 . S
C1173 C1175 1.387 . S
H1174 C1181 0.950 . S
C1175 C1173 1.387 . S
C1175 C1177 1.390 . S
C1175 H1179 0.950 . S
H1176 C1172 0.950 . S
C1177 C1175 1.390 . S
C1177 C1178 1.387 . S
C1177 H1180 0.950 . S
C1178 C1177 1.387 . S
C1178 C1181 1.387 . S
H1179 C1175 0.950 . S
H1180 C1177 0.950 . S
C1181 C1172 1.390 . S
C1181 H1174 0.950 . S
C1181 C1178 1.387 . S
C1182 C1183 1.387 . S
C1182 H1186 0.950 . S
C1182 C1191 1.390 . S
C1183 C1182 1.387 . S
C1183 C1185 1.387 . S
H1184 C1191 0.950 . S
C1185 C1183 1.387 . S
C1185 C1187 1.390 . S
C1185 H1189 0.950 . S
H1186 C1182 0.950 . S
C1187 C1185 1.390 . S
C1187 C1188 1.387 . S
C1187 H1190 0.950 . S
C1188 C1187 1.387 . S
C1188 C1191 1.387 . S
H1189 C1185 0.950 . S
H1190 C1187 0.950 . S
C1191 C1182 1.390 . S
C1191 H1184 0.950 . S
C1191 C1188 1.387 . S
C1192 C1193 1.387 . S
C1192 H1196 0.950 . S
C1192 C1201 1.390 . S
C1193 C1192 1.387 . S
C1193 C1195 1.387 . S
H1194 C1201 0.950 . S
C1195 C1193 1.387 . S
C1195 C1197 1.390 . S
C1195 H1199 0.950 . S
H1196 C1192 0.950 . S
C1197 C1195 1.390 . S
C1197 C1198 1.387 . S
C1197 H1200 0.950 . S
C1198 C1197 1.387 . S
C1198 C1201 1.387 . S
H1199 C1195 0.950 . S
H1200 C1197 0.950 . S
C1201 C1192 1.390 . S
C1201 H1194 0.950 . S
C1201 C1198 1.387 . S
C1202 C1203 1.387 . S
C1202 H1206 0.950 . S
C1202 C1211 1.390 . S
C1203 C1202 1.387 . S
C1203 C1205 1.387 . S
H1204 C1211 0.950 . S
C1205 C1203 1.387 . S
C1205 C1207 1.390 . S
C1205 H1209 0.950 . S
H1206 C1202 0.950 . S
C1207 C1205 1.390 . S
C1207 C1208 1.387 . S
C1207 H1210 0.950 . S
C1208 C1207 1.387 . S
C1208 C1211 1.387 . S
H1209 C1205 0.950 . S
H1210 C1207 0.950 . S
C1211 C1202 1.390 . S
C1211 H1204 0.950 . S
C1211 C1208 1.387 . S
C1212 C1213 1.387 . S
C1212 H1216 0.950 . S
C1212 C1221 1.390 . S
C1213 C1212 1.387 . S
C1213 C1215 1.387 . S
H1214 C1221 0.950 . S
C1215 C1213 1.387 . S
C1215 C1217 1.390 . S
C1215 H1219 0.950 . S
H1216 C1212 0.950 . S
C1217 C1215 1.390 . S
C1217 C1218 1.387 . S
C1217 H1220 0.950 . S
C1218 C1217 1.387 . S
C1218 C1221 1.387 . S
H1219 C1215 0.950 . S
H1220 C1217 0.950 . S
C1221 C1212 1.390 . S
C1221 H1214 0.950 . S
C1221 C1218 1.387 . S
C1222 C1223 1.387 . S
C1222 H1226 0.950 . S
C1222 C1231 1.390 . S
C1223 C1222 1.387 . S
C1223 C1225 1.387 . S
H1224 C1231 0.950 . S
C1225 C1223 1.387 . S
C1225 C1227 1.390 . S
C1225 H1229 0.950 . S
H1226 C1222 0.950 . S
C1227 C1225 1.390 . S
C1227 C1228 1.387 . S
C1227 H1230 0.950 . S
C1228 C1227 1.387 . S
C1228 C1231 1.387 . S
H1229 C1225 0.950 . S
H1230 C1227 0.950 . S
C1231 C1222 1.390 . S
C1231 H1224 0.950 . S
C1231 C1228 1.387 . S
C1232 C1233 1.387 . S
C1232 H1236 0.950 . S
C1232 C1241 1.390 . S
C1233 C1232 1.387 . S
C1233 C1235 1.387 . S
H1234 C1241 0.950 . S
C1235 C1233 1.387 . S
C1235 C1237 1.390 . S
C1235 H1239 0.950 . S
H1236 C1232 0.950 . S
C1237 C1235 1.390 . S
C1237 C1238 1.387 . S
C1237 H1240 0.950 . S
C1238 C1237 1.387 . S
C1238 C1241 1.387 . S
H1239 C1235 0.950 . S
H1240 C1237 0.950 . S
C1241 C1232 1.390 . S
C1241 H1234 0.950 . S
C1241 C1238 1.387 . S
C1242 C1243 1.387 . S
C1242 H1246 0.950 . S
C1242 C1251 1.390 . S
C1243 C1242 1.387 . S
C1243 C1245 1.387 . S
H1244 C1251 0.950 . S
C1245 C1243 1.387 . S
C1245 C1247 1.390 . S
C1245 H1249 0.950 . S
H1246 C1242 0.950 . S
C1247 C1245 1.390 . S
C1247 C1248 1.387 . S
C1247 H1250 0.950 . S
C1248 C1247 1.387 . S
C1248 C1251 1.387 . S
H1249 C1245 0.950 . S
H1250 C1247 0.950 . S
C1251 C1242 1.390 . S
C1251 H1244 0.950 . S
C1251 C1248 1.387 . S
C1252 C1253 1.387 . S
C1252 H1256 0.950 . S
C1252 C1261 1.390 . S
C1253 C1252 1.387 . S
C1253 C1255 1.387 . S
H1254 C1261 0.950 . S
C1255 C1253 1.387 . S
C1255 C1257 1.390 . S
C1255 H1259 0.950 . S
H1256 C1252 0.950 . S
C1257 C1255 1.390 . S
C1257 C1258 1.387 . S
C1257 H1260 0.950 . S
C1258 C1257 1.387 . S
C1258 C1261 1.387 . S
H1259 C1255 0.950 . S
H1260 C1257 0.950 . S
C1261 C1252 1.390 . S
C1261 H1254 0.950 . S
C1261 C1258 1.387 . S
C1262 C1263 1.387 . S
C1262 H1266 0.950 . S
C1262 C1271 1.390 . S
C1263 C1262 1.387 . S
C1263 C1265 1.387 . S
H1264 C1271 0.950 . S
C1265 C1263 1.387 . S
C1265 C1267 1.390 . S
C1265 H1269 0.950 . S
H1266 C1262 0.950 . S
C1267 C1265 1.390 . S
C1267 C1268 1.387 . S
C1267 H1270 0.950 . S
C1268 C1267 1.387 . S
C1268 C1271 1.387 . S
H1269 C1265 0.950 . S
H1270 C1267 0.950 . S
C1271 C1262 1.390 . S
C1271 H1264 0.950 . S
C1271 C1268 1.387 . S
C1272 C1273 1.387 . S
C1272 H1276 0.950 . S
C1272 C1281 1.390 . S
C1273 C1272 1.387 . S
C1273 C1275 1.387 . S
H1274 C1281 0.950 . S
C1275 C1273 1.387 . S
C1275 C1277 1.390 . S
C1275 H1279 0.950 . S
H1276 C1272 0.950 . S
C1277 C1275 1.390 . S
C1277 C1278 1.387 . S
C1277 H1280 0.950 . S
C1278 C1277 1.387 . S
C1278 C1281 1.387 . S
H1279 C1275 0.950 . S
H1280 C1277 0.950 . S
C1281 C1272 1.390 . S
C1281 H1274 0.950 . S
C1281 C1278 1.387 . S
C1282 C1283 1.387 . S
C1282 H1286 0.950 . S
C1282 C1291 1.390 . S
C1283 C1282 1.387 . S
C1283 C1285 1.387 . S
H1284 C1291 0.950 . S
C1285 C1283 1.387 . S
C1285 C1287 1.390 . S
C1285 H1289 0.950 . S
H1286 C1282 0.950 . S
C1287 C1285 1.390 . S
C1287 C1288 1.387 . S
C1287 H1290 0.950 . S
C1288 C1287 1.387 . S
C1288 C1291 1.387 . S
H1289 C1285 0.950 . S
H1290 C1287 0.950 . S
C1291 C1282 1.390 . S
C1291 H1284 0.950 . S
C1291 C1288 1.387 . S
C1292 C1293 1.387 . S
C1292 H1296 0.950 . S
C1292 C1301 1.390 . S
C1293 C1292 1.387 . S
C1293 C1295 1.387 . S
H1294 C1301 0.950 . S
C1295 C1293 1.387 . S
C1295 C1297 1.390 . S
C1295 H1299 0.950 . S
H1296 C1292 0.950 . S
C1297 C1295 1.390 . S
C1297 C1298 1.387 . S
C1297 H1300 0.950 . S
C1298 C1297 1.387 . S
C1298 C1301 1.387 . S
H1299 C1295 0.950 . S
H1300 C1297 0.950 . S
C1301 C1292 1.390 . S
C1301 H1294 0.950 . S
C1301 C1298 1.387 . S
C1302 C1303 1.387 . S
C1302 H1306 0.950 . S
C1302 C1311 1.390 . S
C1303 C1302 1.387 . S
C1303 C1305 1.387 . S
H1304 C1311 0.950 . S
C1305 C1303 1.387 . S
C1305 C1307 1.390 . S
C1305 H1309 0.950 . S
H1306 C1302 0.950 . S
C1307 C1305 1.390 . S
C1307 C1308 1.387 . S
C1307 H1310 0.950 . S
C1308 C1307 1.387 . S
C1308 C1311 1.387 . S
H1309 C1305 0.950 . S
H1310 C1307 0.950 . S
C1311 C1302 1.390 . S
C1311 H1304 0.950 . S
C1311 C1308 1.387 . S
C1312 C1313 1.387 . S
C1312 H1316 0.950 . S
C1312 C1321 1.390 . S
C1313 C1312 1.387 . S
C1313 C1315 1.387 . S
H1314 C1321 0.950 . S
C1315 C1313 1.387 . S
C1315 C1317 1.390 . S
C1315 H1319 0.950 . S
H1316 C1312 0.950 . S
C1317 C1315 1.390 . S
C1317 C1318 1.387 . S
C1317 H1320 0.950 . S
C1318 C1317 1.387 . S
C1318 C1321 1.387 . S
H1319 C1315 0.950 . S
H1320 C1317 0.950 . S
C1321 C1312 1.390 . S
C1321 H1314 0.950 . S
C1321 C1318 1.387 . S
C1322 C1323 1.387 . S
C1322 H1326 0.950 . S
C1322 C1331 1.390 . S
C1323 C1322 1.387 . S
C1323 C1325 1.387 . S
H1324 C1331 0.950 . S
C1325 C1323 1.387 . S
C1325 C1327 1.390 . S
C1325 H1329 0.950 . S
H1326 C1322 0.950 . S
C1327 C1325 1.390 . S
C1327 C1328 1.387 . S
C1327 H1330 0.950 . S
C1328 C1327 1.387 . S
C1328 C1331 1.387 . S
H1329 C1325 0.950 . S
H1330 C1327 0.950 . S
C1331 C1322 1.390 . S
C1331 H1324 0.950 . S
C1331 C1328 1.387 . S
C1332 C1333 1.387 . S
C1332 H1336 0.950 . S
C1332 C1341 1.390 . S
C1333 C1332 1.387 . S
C1333 C1335 1.387 . S
H1334 C1341 0.950 . S
C1335 C1333 1.387 . S
C1335 C1337 1.390 . S
C1335 H1339 0.950 . S
H1336 C1332 0.950 . S
C1337 C1335 1.390 . S
C1337 C1338 1.387 . S
C1337 H1340 0.950 . S
C1338 C1337 1.387 . S
C1338 C1341 1.387 . S
H1339 C1335 0.950 . S
H1340 C1337 0.950 . S
C1341 C1332 1.390 . S
C1341 H1334 0.950 . S
C1341 C1338 1.387 . S
C1342 C1343 1.387 . S
C1342 H1346 0.950 . S
C1342 C1351 1.390 . S
C1343 C1342 1.387 . S
C1343 C1345 1.387 . S
H1344 C1351 0.950 . S
C1345 C1343 1.387 . S
C1345 C1347 1.390 . S
C1345 H1349 0.950 . S
H1346 C1342 0.950 . S
C1347 C1345 1.390 . S
C1347 C1348 1.387 . S
C1347 H1350 0.950 . S
C1348 C1347 1.387 . S
C1348 C1351 1.387 . S
H1349 C1345 0.950 . S
H1350 C1347 0.950 . S
C1351 C1342 1.390 . S
C1351 H1344 0.950 . S
C1351 C1348 1.387 . S
C1352 C1353 1.387 . S
C1352 H1356 0.950 . S
C1352 C1361 1.390 . S
C1353 C1352 1.387 . S
C1353 C1355 1.387 . S
H1354 C1361 0.950 . S
C1355 C1353 1.387 . S
C1355 C1357 1.390 . S
C1355 H1359 0.950 . S
H1356 C1352 0.950 . S
C1357 C1355 1.390 . S
C1357 C1358 1.387 . S
C1357 H1360 0.950 . S
C1358 C1357 1.387 . S
C1358 C1361 1.387 . S
H1359 C1355 0.950 . S
H1360 C1357 0.950 . S
C1361 C1352 1.390 . S
C1361 H1354 0.950 . S
C1361 C1358 1.387 . S
C1362 C1363 1.387 . S
C1362 H1366 0.950 . S
C1362 C1371 1.390 . S
C1363 C1362 1.387 . S
C1363 C1365 1.387 . S
H1364 C1371 0.950 . S
C1365 C1363 1.387 . S
C1365 C1367 1.390 . S
C1365 H1369 0.950 . S
H1366 C1362 0.950 . S
C1367 C1365 1.390 . S
C1367 C1368 1.387 . S
C1367 H1370 0.950 . S
C1368 C1367 1.387 . S
C1368 C1371 1.387 . S
H1369 C1365 0.950 . S
H1370 C1367 0.950 . S
C1371 C1362 1.390 . S
C1371 H1364 0.950 . S
C1371 C1368 1.387 . S
C1372 C1373 1.387 . S
C1372 H1376 0.950 . S
C1372 C1381 1.390 . S
C1373 C1372 1.387 . S
C1373 C1375 1.387 . S
H1374 C1381 0.950 . S
C1375 C1373 1.387 . S
C1375 C1377 1.390 . S
C1375 H1379 0.950 . S
H1376 C1372 0.950 . S
C1377 C1375 1.390 . S
C1377 C1378 1.387 . S
C1377 H1380 0.950 1_556 S
C1378 C1377 1.387 . S
C1378 C1381 1.387 . S
H1379 C1375 0.950 . S
H1380 C1377 0.950 1_554 S
C1381 C1372 1.390 . S
C1381 H1374 0.950 . S
C1381 C1378 1.387 . S
C1382 C1383 1.387 . S
C1382 H1386 0.950 . S
C1382 C1391 1.390 . S
C1383 C1382 1.387 . S
C1383 C1385 1.387 . S
H1384 C1391 0.950 . S
C1385 C1383 1.387 . S
C1385 C1387 1.390 . S
C1385 H1389 0.950 . S
H1386 C1382 0.950 . S
C1387 C1385 1.390 . S
C1387 C1388 1.387 . S
C1387 H1390 0.950 . S
C1388 C1387 1.387 . S
C1388 C1391 1.387 . S
H1389 C1385 0.950 . S
H1390 C1387 0.950 . S
C1391 C1382 1.390 . S
C1391 H1384 0.950 . S
C1391 C1388 1.387 . S
C1392 C1393 1.387 . S
C1392 H1396 0.950 . S
C1392 C1401 1.390 . S
C1393 C1392 1.387 . S
C1393 C1395 1.387 . S
H1394 C1401 0.950 . S
C1395 C1393 1.387 . S
C1395 C1397 1.390 . S
C1395 H1399 0.950 . S
H1396 C1392 0.950 . S
C1397 C1395 1.390 . S
C1397 C1398 1.387 . S
C1397 H1400 0.950 . S
C1398 C1397 1.387 . S
C1398 C1401 1.387 . S
H1399 C1395 0.950 . S
H1400 C1397 0.950 . S
C1401 C1392 1.390 . S
C1401 H1394 0.950 . S
C1401 C1398 1.387 . S
C1402 C1403 1.387 . S
C1402 H1406 0.950 . S
C1402 C1411 1.390 . S
C1403 C1402 1.387 . S
C1403 C1405 1.387 . S
H1404 C1411 0.950 . S
C1405 C1403 1.387 . S
C1405 C1407 1.390 . S
C1405 H1409 0.950 . S
H1406 C1402 0.950 . S
C1407 C1405 1.390 . S
C1407 C1408 1.387 . S
C1407 H1410 0.950 . S
C1408 C1407 1.387 . S
C1408 C1411 1.387 . S
H1409 C1405 0.950 . S
H1410 C1407 0.950 . S
C1411 C1402 1.390 . S
C1411 H1404 0.950 . S
C1411 C1408 1.387 . S
C1412 C1413 1.387 . S
C1412 H1416 0.950 . S
C1412 C1421 1.390 . S
C1413 C1412 1.387 . S
C1413 C1415 1.387 . S
H1414 C1421 0.950 . S
C1415 C1413 1.387 . S
C1415 C1417 1.390 . S
C1415 H1419 0.950 . S
H1416 C1412 0.950 . S
C1417 C1415 1.390 . S
C1417 C1418 1.387 . S
C1417 H1420 0.950 . S
C1418 C1417 1.387 . S
C1418 C1421 1.387 . S
H1419 C1415 0.950 . S
H1420 C1417 0.950 . S
C1421 C1412 1.390 . S
C1421 H1414 0.950 . S
C1421 C1418 1.387 . S
C1422 C1423 1.387 . S
C1422 H1426 0.950 . S
C1422 C1431 1.390 . S
C1423 C1422 1.387 . S
C1423 C1425 1.387 . S
H1424 C1431 0.950 . S
C1425 C1423 1.387 . S
C1425 C1427 1.390 . S
C1425 H1429 0.950 . S
H1426 C1422 0.950 . S
C1427 C1425 1.390 . S
C1427 C1428 1.387 . S
C1427 H1430 0.950 . S
C1428 C1427 1.387 . S
C1428 C1431 1.387 . S
H1429 C1425 0.950 . S
H1430 C1427 0.950 . S
C1431 C1422 1.390 . S
C1431 H1424 0.950 . S
C1431 C1428 1.387 . S
C1432 C1433 1.387 . S
C1432 H1436 0.950 . S
C1432 C1441 1.390 . S
C1433 C1432 1.387 . S
C1433 C1435 1.387 . S
H1434 C1441 0.950 . S
C1435 C1433 1.387 . S
C1435 C1437 1.390 . S
C1435 H1439 0.950 . S
H1436 C1432 0.950 . S
C1437 C1435 1.390 . S
C1437 C1438 1.387 . S
C1437 H1440 0.950 . S
C1438 C1437 1.387 . S
C1438 C1441 1.387 . S
H1439 C1435 0.950 . S
H1440 C1437 0.950 . S
C1441 C1432 1.390 . S
C1441 H1434 0.950 . S
C1441 C1438 1.387 . S
C1442 C1443 1.387 . S
C1442 H1446 0.950 . S
C1442 C1451 1.390 . S
C1443 C1442 1.387 . S
C1443 C1445 1.387 . S
H1444 C1451 0.950 . S
C1445 C1443 1.387 . S
C1445 C1447 1.390 . S
C1445 H1449 0.950 . S
H1446 C1442 0.950 . S
C1447 C1445 1.390 . S
C1447 C1448 1.387 . S
C1447 H1450 0.950 . S
C1448 C1447 1.387 . S
C1448 C1451 1.387 . S
H1449 C1445 0.950 . S
H1450 C1447 0.950 . S
C1451 C1442 1.390 . S
C1451 H1444 0.950 . S
C1451 C1448 1.387 . S
C1452 C1453 1.387 . S
C1452 H1456 0.950 . S
C1452 C1461 1.390 . S
C1453 C1452 1.387 . S
C1453 C1455 1.387 . S
H1454 C1461 0.950 . S
C1455 C1453 1.387 . S
C1455 C1457 1.390 . S
C1455 H1459 0.950 . S
H1456 C1452 0.950 . S
C1457 C1455 1.390 . S
C1457 C1458 1.387 . S
C1457 H1460 0.950 . S
C1458 C1457 1.387 . S
C1458 C1461 1.387 . S
H1459 C1455 0.950 . S
H1460 C1457 0.950 . S
C1461 C1452 1.390 . S
C1461 H1454 0.950 . S
C1461 C1458 1.387 . S
C1462 C1463 1.387 . S
C1462 H1466 0.950 . S
C1462 C1471 1.390 . S
C1463 C1462 1.387 . S
C1463 C1465 1.387 . S
H1464 C1471 0.950 . S
C1465 C1463 1.387 . S
C1465 C1467 1.390 . S
C1465 H1469 0.950 . S
H1466 C1462 0.950 . S
C1467 C1465 1.390 . S
C1467 C1468 1.387 . S
C1467 H1470 0.950 . S
C1468 C1467 1.387 . S
C1468 C1471 1.387 . S
H1469 C1465 0.950 . S
H1470 C1467 0.950 . S
C1471 C1462 1.390 . S
C1471 H1464 0.950 . S
C1471 C1468 1.387 . S
C1472 C1473 1.387 . S
C1472 H1476 0.950 . S
C1472 C1481 1.390 . S
C1473 C1472 1.387 . S
C1473 C1475 1.387 . S
H1474 C1481 0.950 . S
C1475 C1473 1.387 . S
C1475 C1477 1.390 . S
C1475 H1479 0.950 . S
H1476 C1472 0.950 . S
C1477 C1475 1.390 . S
C1477 C1478 1.387 . S
C1477 H1480 0.950 . S
C1478 C1477 1.387 . S
C1478 C1481 1.387 . S
H1479 C1475 0.950 . S
H1480 C1477 0.950 . S
C1481 C1472 1.390 . S
C1481 H1474 0.950 . S
C1481 C1478 1.387 . S
C1482 C1483 1.387 . S
C1482 H1486 0.950 . S
C1482 C1491 1.390 . S
C1483 C1482 1.387 . S
C1483 C1485 1.387 . S
H1484 C1491 0.950 . S
C1485 C1483 1.387 . S
C1485 C1487 1.390 . S
C1485 H1489 0.950 . S
H1486 C1482 0.950 . S
C1487 C1485 1.390 . S
C1487 C1488 1.387 . S
C1487 H1490 0.950 . S
C1488 C1487 1.387 . S
C1488 C1491 1.387 . S
H1489 C1485 0.950 . S
H1490 C1487 0.950 . S
C1491 C1482 1.390 . S
C1491 H1484 0.950 . S
C1491 C1488 1.387 . S
C1492 C1493 1.387 . S
C1492 H1496 0.950 . S
C1492 C1501 1.390 . S
C1493 C1492 1.387 . S
C1493 C1495 1.387 . S
H1494 C1501 0.950 . S
C1495 C1493 1.387 . S
C1495 C1497 1.390 . S
C1495 H1499 0.950 . S
H1496 C1492 0.950 . S
C1497 C1495 1.390 . S
C1497 C1498 1.387 . S
C1497 H1500 0.950 . S
C1498 C1497 1.387 . S
C1498 C1501 1.387 . S
H1499 C1495 0.950 . S
H1500 C1497 0.950 . S
C1501 C1492 1.390 . S
C1501 H1494 0.950 . S
C1501 C1498 1.387 . S
C1502 C1503 1.387 . S
C1502 H1506 0.950 . S
C1502 C1511 1.390 . S
C1503 C1502 1.387 . S
C1503 C1505 1.387 . S
H1504 C1511 0.950 . S
C1505 C1503 1.387 . S
C1505 C1507 1.390 . S
C1505 H1509 0.950 . S
H1506 C1502 0.950 . S
C1507 C1505 1.390 . S
C1507 C1508 1.387 . S
C1507 H1510 0.950 . S
C1508 C1507 1.387 . S
C1508 C1511 1.387 . S
H1509 C1505 0.950 . S
H1510 C1507 0.950 . S
C1511 C1502 1.390 . S
C1511 H1504 0.950 . S
C1511 C1508 1.387 . S
C1512 C1513 1.387 . S
C1512 H1516 0.950 . S
C1512 C1521 1.390 . S
C1513 C1512 1.387 . S
C1513 C1515 1.387 . S
H1514 C1521 0.950 . S
C1515 C1513 1.387 . S
C1515 C1517 1.390 . S
C1515 H1519 0.950 . S
H1516 C1512 0.950 . S
C1517 C1515 1.390 . S
C1517 C1518 1.387 . S
C1517 H1520 0.950 . S
C1518 C1517 1.387 . S
C1518 C1521 1.387 . S
H1519 C1515 0.950 . S
H1520 C1517 0.950 . S
C1521 C1512 1.390 . S
C1521 H1514 0.950 . S
C1521 C1518 1.387 . S
C1522 C1523 1.387 . S
C1522 H1526 0.950 . S
C1522 C1531 1.390 . S
C1523 C1522 1.387 . S
C1523 C1525 1.387 . S
H1524 C1531 0.950 . S
C1525 C1523 1.387 . S
C1525 C1527 1.390 . S
C1525 H1529 0.950 . S
H1526 C1522 0.950 . S
C1527 C1525 1.390 . S
C1527 C1528 1.387 . S
C1527 H1530 0.950 . S
C1528 C1527 1.387 . S
C1528 C1531 1.387 . S
H1529 C1525 0.950 . S
H1530 C1527 0.950 . S
C1531 C1522 1.390 . S
C1531 H1524 0.950 . S
C1531 C1528 1.387 . S
C1532 C1533 1.387 . S
C1532 H1536 0.950 . S
C1532 C1541 1.390 . S
C1533 C1532 1.387 . S
C1533 C1535 1.387 . S
H1534 C1541 0.950 . S
C1535 C1533 1.387 . S
C1535 C1537 1.390 . S
C1535 H1539 0.950 . S
H1536 C1532 0.950 . S
C1537 C1535 1.390 . S
C1537 C1538 1.387 . S
C1537 H1540 0.950 . S
C1538 C1537 1.387 . S
C1538 C1541 1.387 . S
H1539 C1535 0.950 . S
H1540 C1537 0.950 . S
C1541 C1532 1.390 . S
C1541 H1534 0.950 . S
C1541 C1538 1.387 . S
C1542 C1543 1.387 . S
C1542 H1546 0.950 . S
C1542 C1551 1.390 . S
C1543 C1542 1.387 . S
C1543 C1545 1.387 . S
H1544 C1551 0.950 . S
C1545 C1543 1.387 . S
C1545 C1547 1.390 . S
C1545 H1549 0.950 . S
H1546 C1542 0.950 . S
C1547 C1545 1.390 . S
C1547 C1548 1.387 . S
C1547 H1550 0.950 . S
C1548 C1547 1.387 . S
C1548 C1551 1.387 . S
H1549 C1545 0.950 . S
H1550 C1547 0.950 . S
C1551 C1542 1.390 . S
C1551 H1544 0.950 . S
C1551 C1548 1.387 . S
C1552 C1553 1.387 . S
C1552 H1556 0.950 . S
C1552 C1561 1.390 . S
C1553 C1552 1.387 . S
C1553 C1555 1.387 . S
H1554 C1561 0.950 . S
C1555 C1553 1.387 . S
C1555 C1557 1.390 . S
C1555 H1559 0.950 . S
H1556 C1552 0.950 . S
C1557 C1555 1.390 . S
C1557 C1558 1.387 . S
C1557 H1560 0.950 . S
C1558 C1557 1.387 . S
C1558 C1561 1.387 . S
H1559 C1555 0.950 . S
H1560 C1557 0.950 . S
C1561 C1552 1.390 . S
C1561 H1554 0.950 . S
C1561 C1558 1.387 . S
C1562 C1563 1.387 . S
C1562 H1566 0.950 . S
C1562 C1571 1.390 . S
C1563 C1562 1.387 . S
C1563 C1565 1.387 . S
H1564 C1571 0.950 . S
C1565 C1563 1.387 . S
C1565 C1567 1.390 . S
C1565 H1569 0.950 . S
H1566 C1562 0.950 . S
C1567 C1565 1.390 . S
C1567 C1568 1.387 . S
C1567 H1570 0.950 . S
C1568 C1567 1.387 . S
C1568 C1571 1.387 . S
H1569 C1565 0.950 . S
H1570 C1567 0.950 . S
C1571 C1562 1.390 . S
C1571 H1564 0.950 . S
C1571 C1568 1.387 . S
C1572 C1573 1.387 . S
C1572 H1576 0.950 . S
C1572 C1581 1.390 . S
C1573 C1572 1.387 . S
C1573 C1575 1.387 . S
H1574 C1581 0.950 . S
C1575 C1573 1.387 . S
C1575 C1577 1.390 . S
C1575 H1579 0.950 . S
H1576 C1572 0.950 . S
C1577 C1575 1.390 . S
C1577 C1578 1.387 . S
C1577 H1580 0.950 . S
C1578 C1577 1.387 . S
C1578 C1581 1.387 . S
H1579 C1575 0.950 . S
H1580 C1577 0.950 . S
C1581 C1572 1.390 . S
C1581 H1574 0.950 . S
C1581 C1578 1.387 . S
C1582 C1583 1.387 . S
C1582 H1586 0.950 . S
C1582 C1591 1.390 . S
C1583 C1582 1.387 . S
C1583 C1585 1.387 . S
H1584 C1591 0.950 . S
C1585 C1583 1.387 . S
C1585 C1587 1.390 . S
C1585 H1589 0.950 . S
H1586 C1582 0.950 . S
C1587 C1585 1.390 . S
C1587 C1588 1.387 . S
C1587 H1590 0.950 . S
C1588 C1587 1.387 . S
C1588 C1591 1.387 . S
H1589 C1585 0.950 . S
H1590 C1587 0.950 . S
C1591 C1582 1.390 . S
C1591 H1584 0.950 . S
C1591 C1588 1.387 . S
C1592 C1593 1.387 . S
C1592 H1596 0.950 . S
C1592 C1601 1.390 . S
C1593 C1592 1.387 . S
C1593 C1595 1.387 . S
H1594 C1601 0.950 . S
C1595 C1593 1.387 . S
C1595 C1597 1.390 . S
C1595 H1599 0.950 . S
H1596 C1592 0.950 . S
C1597 C1595 1.390 . S
C1597 C1598 1.387 . S
C1597 H1600 0.950 . S
C1598 C1597 1.387 . S
C1598 C1601 1.387 . S
H1599 C1595 0.950 . S
H1600 C1597 0.950 . S
C1601 C1592 1.390 . S
C1601 H1594 0.950 . S
C1601 C1598 1.387 . S
C1602 C1603 1.387 . S
C1602 H1606 0.950 . S
C1602 C1611 1.390 . S
C1603 C1602 1.387 . S
C1603 C1605 1.387 . S
H1604 C1611 0.950 . S
C1605 C1603 1.387 . S
C1605 C1607 1.390 . S
C1605 H1609 0.950 . S
H1606 C1602 0.950 . S
C1607 C1605 1.390 . S
C1607 C1608 1.387 . S
C1607 H1610 0.950 . S
C1608 C1607 1.387 . S
C1608 C1611 1.387 . S
H1609 C1605 0.950 . S
H1610 C1607 0.950 . S
C1611 C1602 1.390 . S
C1611 H1604 0.950 . S
C1611 C1608 1.387 . S
C1612 C1613 1.387 . S
C1612 H1616 0.950 . S
C1612 C1621 1.390 . S
C1613 C1612 1.387 . S
C1613 C1615 1.387 . S
H1614 C1621 0.950 . S
C1615 C1613 1.387 . S
C1615 C1617 1.390 . S
C1615 H1619 0.950 . S
H1616 C1612 0.950 . S
C1617 C1615 1.390 . S
C1617 C1618 1.387 . S
C1617 H1620 0.950 . S
C1618 C1617 1.387 . S
C1618 C1621 1.387 . S
H1619 C1615 0.950 . S
H1620 C1617 0.950 . S
C1621 C1612 1.390 . S
C1621 H1614 0.950 . S
C1621 C1618 1.387 . S
C1622 C1623 1.387 . S
C1622 H1626 0.950 . S
C1622 C1631 1.390 . S
C1623 C1622 1.387 . S
C1623 C1625 1.387 . S
H1624 C1631 0.950 . S
C1625 C1623 1.387 . S
C1625 C1627 1.390 . S
C1625 H1629 0.950 . S
H1626 C1622 0.950 . S
C1627 C1625 1.390 . S
C1627 C1628 1.387 . S
C1627 H1630 0.950 . S
C1628 C1627 1.387 . S
C1628 C1631 1.387 . S
H1629 C1625 0.950 . S
H1630 C1627 0.950 . S
C1631 C1622 1.390 . S
C1631 H1624 0.950 . S
C1631 C1628 1.387 . S
C673 C92 1.276 . S
C678 C8 1.275 . S
C683 C22 1.300 . S
C688 C106 1.300 1_565 S
C693 C36 1.287 . S
C698 C64 1.288 . S
C703 C78 1.284 . S
C708 C50 1.285 1_565 S
C713 C484 1.276 . S
C718 C120 1.275 . S
C723 C498 1.282 . S
C728 C134 1.285 1_655 S
C733 C148 1.267 . S
C738 C456 1.263 . S
C743 C162 1.287 . S
C748 C470 1.290 . S
C753 C540 1.251 . S
C758 C176 1.251 . S
C763 C554 1.273 . S
C768 C190 1.277 . S
C773 C512 1.284 . S
C778 C204 1.284 . S
C783 C526 1.303 . S
C788 C218 1.299 1_655 S
C793 C232 1.272 . S
C798 C582 1.273 . S
C803 C246 1.264 . S
C808 C568 1.265 . S
C813 C260 1.285 1_556 S
C818 C330 1.282 . S
C823 C638 1.285 . S
C828 C274 1.287 . S
C833 C652 1.303 . S
C838 C288 1.299 1_556 S
C843 C610 1.253 . S
C848 C302 1.251 . S
C853 C624 1.273 . S
C858 C316 1.274 . S
C863 C428 1.263 . S
C868 C344 1.263 . S
C873 C442 1.271 . S
C878 C358 1.276 . S
C883 C372 1.254 . S
C888 C400 1.255 . S
C893 C386 1.290 . S
C898 C414 1.287 . S
C903 C666 1.289 . S
C908 C596 1.288 . S
C913 C233 1.315 . S
C918 C7 1.262 . S
C923 C21 1.280 . S
C928 C667 1.325 . S
C933 C35 1.271 . S
C938 C303 1.322 . S
C943 C653 1.303 . S
C948 C49 1.261 . S
C953 C63 1.260 . S
C958 C583 1.317 . S
C963 C597 1.307 . S
C968 C77 1.263 . S
C973 C91 1.264 . S
C978 C611 1.323 . S
C983 C289 1.314 . S
C988 C105 1.275 . S
C993 C119 1.259 . S
C998 C9 1.314 . S
C1003 C23 1.303 . S
C1008 C133 1.262 . S
C1013 C147 1.254 . S
C1018 C37 1.314 . S
C1023 C161 1.278 . S
C1028 C51 1.337 . S
C1033 C175 1.257 . S
C1038 C65 1.314 . S
C1043 C79 1.328 . S
C1048 C189 1.271 . S
C1053 C203 1.265 . S
C1058 C93 1.315 . S
C1063 C217 1.272 . S
C1068 C107 1.317 . S
C1073 C231 1.258 . S
C1078 C121 1.315 . S
C1083 C245 1.258 . S
C1088 C513 1.311 . S
C1093 C527 1.303 . S
C1098 C259 1.259 . S
C1103 C541 1.321 . S
C1108 C273 1.270 . S
C1113 C287 1.275 . S
C1118 C219 1.316 . S
C1123 C301 1.259 . S
C1128 C149 1.317 . S
C1133 C499 1.329 . S
C1138 C315 1.271 . S
C1143 C471 1.306 . S
C1148 C329 1.265 . S
C1153 C343 1.263 . S
C1158 C569 1.316 . S
C1163 C357 1.267 . S
C1168 C331 1.330 . S
C1173 C371 1.254 . S
C1178 C639 1.315 . S
C1183 C385 1.288 . S
C1188 C317 1.343 . S
C1193 C399 1.258 . S
C1198 C247 1.317 . S
C1203 C261 1.332 . S
C1208 C413 1.283 . S
C1213 C275 1.313 . S
C1218 C427 1.258 . S
C1223 C625 1.334 . S
C1228 C441 1.273 . S
C1233 C345 1.317 . S
C1238 C455 1.259 . S
C1243 C359 1.338 . S
C1248 C469 1.293 . S
C1253 C483 1.263 . S
C1258 C373 1.321 . S
C1263 C387 1.306 . S
C1268 C497 1.266 . S
C1273 C511 1.270 . S
C1278 C401 1.324 . S
C1283 C415 1.321 . S
C1288 C525 1.285 . S
C1293 C539 1.258 . S
C1298 C429 1.315 . S
C1303 C443 1.334 . S
C1308 C553 1.273 . S
C1313 C567 1.261 . S
C1318 C457 1.316 . S
C1323 C581 1.262 . S
C1328 C177 1.323 . S
C1333 C191 1.338 . S
C1338 C595 1.290 . S
C1343 C609 1.255 . S
C1348 C205 1.312 . S
C1353 C623 1.277 . S
C1358 C555 1.334 . S
C1363 C485 1.314 . S
C1368 C637 1.263 . S
C1373 C651 1.281 . S
C1378 C163 1.324 . S
C1383 C135 1.332 . S
C1388 C665 1.283 . S
C1393 C132 1.002 . S
C1398 C6 1.001 . S
C1403 C20 0.972 . S
C1408 C146 0.966 . S
C1413 C160 0.990 . S
C1418 C34 0.985 . S
C1423 C118 0.996 . S
C1428 C48 0.996 . S
C1433 C62 0.986 . S
C1438 C216 0.988 . S
C1443 C76 0.987 . S
C1448 C174 0.987 . S
C1453 C188 0.999 . S
C1458 C90 0.999 . S
C1463 C202 0.983 . S
C1468 C104 0.987 . S
C1473 C230 1.001 . S
C1478 C258 1.001 . S
C1483 C244 0.967 . S
C1488 C650 0.971 . S
C1493 C272 0.983 . S
C1498 C664 0.987 . S
C1503 C636 0.986 . S
C1508 C286 0.989 . S
C1513 C622 0.992 . S
C1518 C300 0.996 . S
C1523 C580 1.002 . S
C1528 C314 1.000 . S
C1533 C328 0.984 . S
C1538 C608 0.985 . S
C1543 C468 0.971 . S
C1548 C342 0.966 . S
C1553 C482 1.002 . S
C1558 C356 1.003 . S
C1563 C370 0.991 . S
C1568 C496 0.990 . S
C1573 C454 0.970 . S
C1578 C384 0.975 . S
C1583 C552 0.993 . S
C1588 C398 0.996 . S
C1593 C510 0.987 . S
C1598 C412 0.991 . S
C1603 C426 0.973 . S
C1608 C524 0.976 . S
C1613 C538 0.997 . S
C1618 C440 0.994 . S
C1623 C594 0.972 . S
C1628 C566 0.965 . S
